# Generated by pormake.
# Topology dei, (4)-cn, num edge types: 1
# Building blocks:
#     Node 0, Type 0, BuildingBlock: KUFVIS_clean_sbu_0, # of connection points: 4
#     Node 1, Type 0, BuildingBlock: KUFVIS_clean_sbu_0, # of connection points: 4
#     Node 2, Type 0, BuildingBlock: KUFVIS_clean_sbu_0, # of connection points: 4
#     Node 3, Type 0, BuildingBlock: KUFVIS_clean_sbu_0, # of connection points: 4
#     Node 4, Type 0, BuildingBlock: KUFVIS_clean_sbu_0, # of connection points: 4
#     Node 5, Type 0, BuildingBlock: KUFVIS_clean_sbu_0, # of connection points: 4
#     Node 6, Type 0, BuildingBlock: KUFVIS_clean_sbu_0, # of connection points: 4
#     Node 7, Type 0, BuildingBlock: KUFVIS_clean_sbu_0, # of connection points: 4
#     Node 8, Type 0, BuildingBlock: KUFVIS_clean_sbu_0, # of connection points: 4
#     Node 9, Type 0, BuildingBlock: KUFVIS_clean_sbu_0, # of connection points: 4
#     Node 10, Type 0, BuildingBlock: KUFVIS_clean_sbu_0, # of connection points: 4
#     Node 11, Type 0, BuildingBlock: KUFVIS_clean_sbu_0, # of connection points: 4
#     Node 12, Type 0, BuildingBlock: KUFVIS_clean_sbu_0, # of connection points: 4
#     Node 13, Type 0, BuildingBlock: KUFVIS_clean_sbu_0, # of connection points: 4
#     Node 14, Type 0, BuildingBlock: KUFVIS_clean_sbu_0, # of connection points: 4
#     Node 15, Type 0, BuildingBlock: KUFVIS_clean_sbu_0, # of connection points: 4
#     Node 16, Type 0, BuildingBlock: KUFVIS_clean_sbu_0, # of connection points: 4
#     Node 17, Type 0, BuildingBlock: KUFVIS_clean_sbu_0, # of connection points: 4
#     Node 18, Type 0, BuildingBlock: KUFVIS_clean_sbu_0, # of connection points: 4
#     Node 19, Type 0, BuildingBlock: KUFVIS_clean_sbu_0, # of connection points: 4
#     Node 20, Type 0, BuildingBlock: KUFVIS_clean_sbu_0, # of connection points: 4
#     Node 21, Type 0, BuildingBlock: KUFVIS_clean_sbu_0, # of connection points: 4
#     Node 22, Type 0, BuildingBlock: KUFVIS_clean_sbu_0, # of connection points: 4
#     Node 23, Type 0, BuildingBlock: KUFVIS_clean_sbu_0, # of connection points: 4
#     Node 24, Type 0, BuildingBlock: KUFVIS_clean_sbu_0, # of connection points: 4
#     Node 25, Type 0, BuildingBlock: KUFVIS_clean_sbu_0, # of connection points: 4
#     Node 26, Type 0, BuildingBlock: KUFVIS_clean_sbu_0, # of connection points: 4
#     Node 27, Type 0, BuildingBlock: KUFVIS_clean_sbu_0, # of connection points: 4
#     Node 28, Type 0, BuildingBlock: KUFVIS_clean_sbu_0, # of connection points: 4
#     Node 29, Type 0, BuildingBlock: KUFVIS_clean_sbu_0, # of connection points: 4
#     Node 30, Type 0, BuildingBlock: KUFVIS_clean_sbu_0, # of connection points: 4
#     Node 31, Type 0, BuildingBlock: KUFVIS_clean_sbu_0, # of connection points: 4
#     Edge 32, Type (0, 0), BuildingBlock: KIFKEQ_clean_linker_1, # of connection points: 2
#     Edge 33, Type (0, 0), BuildingBlock: KIFKEQ_clean_linker_1, # of connection points: 2
#     Edge 34, Type (0, 0), BuildingBlock: KIFKEQ_clean_linker_1, # of connection points: 2
#     Edge 35, Type (0, 0), BuildingBlock: KIFKEQ_clean_linker_1, # of connection points: 2
#     Edge 36, Type (0, 0), BuildingBlock: KIFKEQ_clean_linker_1, # of connection points: 2
#     Edge 37, Type (0, 0), BuildingBlock: KIFKEQ_clean_linker_1, # of connection points: 2
#     Edge 38, Type (0, 0), BuildingBlock: KIFKEQ_clean_linker_1, # of connection points: 2
#     Edge 39, Type (0, 0), BuildingBlock: KIFKEQ_clean_linker_1, # of connection points: 2
#     Edge 40, Type (0, 0), BuildingBlock: KIFKEQ_clean_linker_1, # of connection points: 2
#     Edge 41, Type (0, 0), BuildingBlock: KIFKEQ_clean_linker_1, # of connection points: 2
#     Edge 42, Type (0, 0), BuildingBlock: KIFKEQ_clean_linker_1, # of connection points: 2
#     Edge 43, Type (0, 0), BuildingBlock: KIFKEQ_clean_linker_1, # of connection points: 2
#     Edge 44, Type (0, 0), BuildingBlock: KIFKEQ_clean_linker_1, # of connection points: 2
#     Edge 45, Type (0, 0), BuildingBlock: KIFKEQ_clean_linker_1, # of connection points: 2
#     Edge 46, Type (0, 0), BuildingBlock: KIFKEQ_clean_linker_1, # of connection points: 2
#     Edge 47, Type (0, 0), BuildingBlock: KIFKEQ_clean_linker_1, # of connection points: 2
#     Edge 48, Type (0, 0), BuildingBlock: KIFKEQ_clean_linker_1, # of connection points: 2
#     Edge 49, Type (0, 0), BuildingBlock: KIFKEQ_clean_linker_1, # of connection points: 2
#     Edge 50, Type (0, 0), BuildingBlock: KIFKEQ_clean_linker_1, # of connection points: 2
#     Edge 51, Type (0, 0), BuildingBlock: KIFKEQ_clean_linker_1, # of connection points: 2
#     Edge 52, Type (0, 0), BuildingBlock: KIFKEQ_clean_linker_1, # of connection points: 2
#     Edge 53, Type (0, 0), BuildingBlock: KIFKEQ_clean_linker_1, # of connection points: 2
#     Edge 54, Type (0, 0), BuildingBlock: KIFKEQ_clean_linker_1, # of connection points: 2
#     Edge 55, Type (0, 0), BuildingBlock: KIFKEQ_clean_linker_1, # of connection points: 2
#     Edge 56, Type (0, 0), BuildingBlock: KIFKEQ_clean_linker_1, # of connection points: 2
#     Edge 57, Type (0, 0), BuildingBlock: KIFKEQ_clean_linker_1, # of connection points: 2
#     Edge 58, Type (0, 0), BuildingBlock: KIFKEQ_clean_linker_1, # of connection points: 2
#     Edge 59, Type (0, 0), BuildingBlock: KIFKEQ_clean_linker_1, # of connection points: 2
#     Edge 60, Type (0, 0), BuildingBlock: KIFKEQ_clean_linker_1, # of connection points: 2
#     Edge 61, Type (0, 0), BuildingBlock: KIFKEQ_clean_linker_1, # of connection points: 2
#     Edge 62, Type (0, 0), BuildingBlock: KIFKEQ_clean_linker_1, # of connection points: 2
#     Edge 63, Type (0, 0), BuildingBlock: KIFKEQ_clean_linker_1, # of connection points: 2
#     Edge 64, Type (0, 0), BuildingBlock: KIFKEQ_clean_linker_1, # of connection points: 2
#     Edge 65, Type (0, 0), BuildingBlock: KIFKEQ_clean_linker_1, # of connection points: 2
#     Edge 66, Type (0, 0), BuildingBlock: KIFKEQ_clean_linker_1, # of connection points: 2
#     Edge 67, Type (0, 0), BuildingBlock: KIFKEQ_clean_linker_1, # of connection points: 2
#     Edge 68, Type (0, 0), BuildingBlock: KIFKEQ_clean_linker_1, # of connection points: 2
#     Edge 69, Type (0, 0), BuildingBlock: KIFKEQ_clean_linker_1, # of connection points: 2
#     Edge 70, Type (0, 0), BuildingBlock: KIFKEQ_clean_linker_1, # of connection points: 2
#     Edge 71, Type (0, 0), BuildingBlock: KIFKEQ_clean_linker_1, # of connection points: 2
#     Edge 72, Type (0, 0), BuildingBlock: KIFKEQ_clean_linker_1, # of connection points: 2
#     Edge 73, Type (0, 0), BuildingBlock: KIFKEQ_clean_linker_1, # of connection points: 2
#     Edge 74, Type (0, 0), BuildingBlock: KIFKEQ_clean_linker_1, # of connection points: 2
#     Edge 75, Type (0, 0), BuildingBlock: KIFKEQ_clean_linker_1, # of connection points: 2
#     Edge 76, Type (0, 0), BuildingBlock: KIFKEQ_clean_linker_1, # of connection points: 2
#     Edge 77, Type (0, 0), BuildingBlock: KIFKEQ_clean_linker_1, # of connection points: 2
#     Edge 78, Type (0, 0), BuildingBlock: KIFKEQ_clean_linker_1, # of connection points: 2
#     Edge 79, Type (0, 0), BuildingBlock: KIFKEQ_clean_linker_1, # of connection points: 2
#     Edge 80, Type (0, 0), BuildingBlock: KIFKEQ_clean_linker_1, # of connection points: 2
#     Edge 81, Type (0, 0), BuildingBlock: KIFKEQ_clean_linker_1, # of connection points: 2
#     Edge 82, Type (0, 0), BuildingBlock: KIFKEQ_clean_linker_1, # of connection points: 2
#     Edge 83, Type (0, 0), BuildingBlock: KIFKEQ_clean_linker_1, # of connection points: 2
#     Edge 84, Type (0, 0), BuildingBlock: KIFKEQ_clean_linker_1, # of connection points: 2
#     Edge 85, Type (0, 0), BuildingBlock: KIFKEQ_clean_linker_1, # of connection points: 2
#     Edge 86, Type (0, 0), BuildingBlock: KIFKEQ_clean_linker_1, # of connection points: 2
#     Edge 87, Type (0, 0), BuildingBlock: KIFKEQ_clean_linker_1, # of connection points: 2
#     Edge 88, Type (0, 0), BuildingBlock: KIFKEQ_clean_linker_1, # of connection points: 2
#     Edge 89, Type (0, 0), BuildingBlock: KIFKEQ_clean_linker_1, # of connection points: 2
#     Edge 90, Type (0, 0), BuildingBlock: KIFKEQ_clean_linker_1, # of connection points: 2
#     Edge 91, Type (0, 0), BuildingBlock: KIFKEQ_clean_linker_1, # of connection points: 2
#     Edge 92, Type (0, 0), BuildingBlock: KIFKEQ_clean_linker_1, # of connection points: 2
#     Edge 93, Type (0, 0), BuildingBlock: KIFKEQ_clean_linker_1, # of connection points: 2
#     Edge 94, Type (0, 0), BuildingBlock: KIFKEQ_clean_linker_1, # of connection points: 2
#     Edge 95, Type (0, 0), BuildingBlock: KIFKEQ_clean_linker_1, # of connection points: 2
# Relax obj value: 0.223
# Max RMSD: 0.065
# Mean RMSD: 0.065
data_MOF--net-dei--node1-KUFVIS_clean_sbu_0--edge1-KIFKEQ_clean_linker_1
_symmetry_space_group_name_H-M    P1
_symmetry_Int_Tables_number       1
_symmetry_cell_setting            triclinic
loop_
_symmetry_equiv_pos_as_xyz
'x, y, z'
_cell_length_a     58.356434
_cell_length_b     58.361452
_cell_length_c     79.358896
_cell_angle_alpha  89.970434
_cell_angle_beta   90.007396
_cell_angle_gamma 90.024851
loop_
_atom_site_label
_atom_site_type_symbol
_atom_site_fract_x
_atom_site_fract_y
_atom_site_fract_z
_atom_type_partial_charge
Mn0 Mn 0.13112 0.62745 0.03451 0.0
Mn1 Mn 0.10631 0.65825 0.0656 0.0
C2 C 0.09285 0.63813 0.03236 0.0
C3 C 0.14058 0.59097 0.02393 0.0
C4 C 0.13832 0.67923 0.03973 0.0
O5 O 0.15322 0.62311 0.0543 0.0
O6 O 0.13384 0.64249 0.07432 0.0
C7 C 0.09172 0.61959 0.08725 0.0
N8 N 0.08639 0.6386 0.07809 0.0
C9 C 0.04633 0.63436 0.08439 0.0
C10 C 0.05137 0.61482 0.09399 0.0
C11 C 0.07419 0.60742 0.09543 0.0
C12 C 0.06454 0.64592 0.07667 0.0
H13 H 0.1092 0.61369 0.08828 0.0
C14 C 0.15058 0.63002 0.06944 0.0
O15 O 0.15152 0.6092 0.01899 0.0
O16 O 0.12448 0.59401 0.0349 0.0
N17 N 0.07918 0.67418 0.05894 0.0
C18 C 0.07713 0.69317 0.04905 0.0
C19 C 0.05537 0.70272 0.04628 0.0
C20 C 0.03599 0.69263 0.0537 0.0
C21 C 0.03864 0.67331 0.06403 0.0
C22 C 0.06076 0.66488 0.06665 0.0
H23 H 0.09195 0.70093 0.04326 0.0
O24 O 0.10433 0.63243 0.01902 0.0
O25 O 0.10411 0.63726 0.04647 0.0
O26 O 0.14187 0.66115 0.03091 0.0
O27 O 0.12602 0.67964 0.05303 0.0
C28 C 0.02011 0.66166 0.07139 0.0
C29 C 0.02389 0.6424 0.08175 0.0
H30 H 0.03785 0.60526 0.10016 0.0
H31 H 0.07823 0.59229 0.10273 0.0
H32 H 0.05351 0.71766 0.03832 0.0
H33 H 0.01915 0.69973 0.05129 0.0
H34 H 1.00285 0.66681 0.06848 0.0
H35 H 0.00937 0.63355 0.08724 0.0
Mn36 Mn 0.63745 0.87526 0.28875 0.0
Mn37 Mn 0.60333 0.85913 0.32119 0.0
C38 C 0.62262 0.83828 0.28966 0.0
C39 C 0.67442 0.87984 0.27717 0.0
C40 C 0.58631 0.8877 0.29191 0.0
O41 O 0.64438 0.89951 0.30659 0.0
O42 O 0.62133 0.88663 0.32725 0.0
C43 C 0.63865 0.84668 0.3464 0.0
N44 N 0.61979 0.84102 0.33716 0.0
C45 C 0.6139 0.80675 0.35342 0.0
C46 C 0.63327 0.81216 0.3631 0.0
C47 C 0.64581 0.83212 0.35947 0.0
C48 C 0.60792 0.82162 0.34031 0.0
H49 H 0.64796 0.86231 0.34397 0.0
C50 C 0.63641 0.90049 0.32153 0.0
O51 O 0.65704 0.89155 0.27166 0.0
O52 O 0.67034 0.86561 0.28935 0.0
N53 N 0.58505 0.83241 0.31762 0.0
C54 C 0.56751 0.82912 0.30655 0.0
C55 C 0.55385 0.8094 0.30796 0.0
C56 C 0.55792 0.79367 0.32104 0.0
C57 C 0.57598 0.79754 0.33236 0.0
C58 C 0.58947 0.81708 0.32997 0.0
H59 H 0.56388 0.84156 0.29684 0.0
O60 O 0.62944 0.84736 0.27559 0.0
O61 O 0.6249 0.85102 0.30304 0.0
O62 O 0.60516 0.88886 0.2837 0.0
O63 O 0.58419 0.87731 0.30592 0.0
C64 C 0.58101 0.78291 0.346 0.0
C65 C 0.60008 0.78739 0.35643 0.0
H66 H 0.63862 0.80117 0.37337 0.0
H67 H 0.66072 0.8365 0.36693 0.0
H68 H 0.53992 0.80655 0.2992 0.0
H69 H 0.54709 0.77868 0.32227 0.0
H70 H 0.57054 0.76795 0.34844 0.0
H71 H 0.60402 0.77577 0.36667 0.0
Mn72 Mn 0.37877 0.39366 0.53639 0.0
Mn73 Mn 0.40239 0.36256 0.56779 0.0
C74 C 0.41659 0.38137 0.53429 0.0
C75 C 0.37064 0.43031 0.52551 0.0
C76 C 0.36876 0.34265 0.54251 0.0
O77 O 0.35694 0.39916 0.55625 0.0
O78 O 0.37635 0.38043 0.57663 0.0
C79 C 0.42039 0.40047 0.58873 0.0
N80 N 0.42405 0.38095 0.57971 0.0
C81 C 0.4644 0.38202 0.5857 0.0
C82 C 0.46109 0.40206 0.59513 0.0
C83 C 0.43897 0.41132 0.59665 0.0
C84 C 0.44521 0.37186 0.57821 0.0
H85 H 0.40344 0.40773 0.58983 0.0
C86 C 0.35985 0.39309 0.57157 0.0
O87 O 0.359 0.41243 0.52077 0.0
O88 O 0.38669 0.42684 0.53645 0.0
N89 N 0.42807 0.34457 0.56091 0.0
C90 C 0.42844 0.32541 0.55109 0.0
C91 C 0.44934 0.31416 0.54819 0.0
C92 C 0.46957 0.32274 0.55539 0.0
C93 C 0.46864 0.34231 0.56561 0.0
C94 C 0.44731 0.3525 0.56836 0.0
H95 H 0.41295 0.3188 0.54546 0.0
O96 O 0.40534 0.38738 0.5209 0.0
O97 O 0.4054 0.38294 0.54837 0.0
O98 O 0.36665 0.36038 0.53307 0.0
O99 O 0.38078 0.34234 0.55595 0.0
C100 C 0.48815 0.35251 0.57274 0.0
C101 C 0.48607 0.37213 0.583 0.0
H102 H 0.47542 0.41059 0.60112 0.0
H103 H 0.43626 0.42684 0.60384 0.0
H104 H 0.44987 0.29904 0.54031 0.0
H105 H 0.48575 0.31429 0.55289 0.0
H106 H 0.50489 0.34591 0.56975 0.0
H107 H 0.50131 0.37985 0.58834 0.0
Mn108 Mn 0.87224 0.13163 0.78805 0.0
Mn109 Mn 0.90799 0.14797 0.81944 0.0
C110 C 0.88735 0.16857 0.78836 0.0
C111 C 0.83493 0.12725 0.77708 0.0
C112 C 0.92349 0.11913 0.78995 0.0
O113 O 0.86588 0.1076 0.80624 0.0
O114 O 0.89053 0.12032 0.82593 0.0
C115 C 0.87349 0.16033 0.84527 0.0
N116 N 0.89211 0.16597 0.83577 0.0
C117 C 0.89876 0.19998 0.85212 0.0
C118 C 0.87964 0.1946 0.86208 0.0
C119 C 0.86682 0.1748 0.85852 0.0
C120 C 0.90415 0.18529 0.83878 0.0
H121 H 0.86401 0.14478 0.8429 0.0
C122 C 0.87509 0.10646 0.8208 0.0
O123 O 0.85205 0.11528 0.77145 0.0
O124 O 0.83943 0.14154 0.78914 0.0
N125 N 0.92602 0.17476 0.81551 0.0
C126 C 0.94324 0.17804 0.80418 0.0
C127 C 0.95725 0.19753 0.80557 0.0
C128 C 0.95388 0.21297 0.81892 0.0
C129 C 0.93613 0.20911 0.83051 0.0
C130 C 0.92223 0.18987 0.82811 0.0
H131 H 0.94641 0.16574 0.7943 0.0
O132 O 0.87996 0.15935 0.77451 0.0
O133 O 0.88554 0.156 0.80187 0.0
O134 O 0.90414 0.11765 0.78243 0.0
O135 O 0.92648 0.12995 0.80368 0.0
C136 C 0.93179 0.22348 0.84443 0.0
C137 C 0.91295 0.21909 0.8551 0.0
H138 H 0.87471 0.2055 0.87252 0.0
H139 H 0.8521 0.17046 0.86619 0.0
H140 H 0.97094 0.20036 0.79661 0.0
H141 H 0.96499 0.22776 0.82015 0.0
H142 H 0.94256 0.23823 0.84684 0.0
H143 H 0.90948 0.23057 0.86551 0.0
Mn144 Mn 0.13453 0.39315 0.96789 0.0
Mn145 Mn 0.11123 0.35905 0.938 0.0
C146 C 0.09687 0.38049 0.97055 0.0
C147 C 0.14246 0.43048 0.9775 0.0
C148 C 0.14471 0.34168 0.96429 0.0
O149 O 0.15607 0.3976 0.94775 0.0
O150 O 0.13744 0.37614 0.92849 0.0
C151 C 0.09363 0.39527 0.91529 0.0
N152 N 0.08979 0.3765 0.92511 0.0
C153 C 0.04945 0.37742 0.91901 0.0
C154 C 0.05296 0.39668 0.90876 0.0
C155 C 0.07517 0.40563 0.90689 0.0
C156 C 0.06853 0.36772 0.92697 0.0
H157 H 0.11063 0.40233 0.91391 0.0
C158 C 0.15348 0.38986 0.93282 0.0
O159 O 0.15427 0.41298 0.98272 0.0
O160 O 0.12631 0.42627 0.96675 0.0
N161 N 0.08536 0.34171 0.94547 0.0
C162 C 0.08481 0.32313 0.95587 0.0
C163 C 0.06385 0.31212 0.95905 0.0
C164 C 0.04372 0.3203 0.95147 0.0
C165 C 0.04483 0.3392 0.94059 0.0
C166 C 0.06623 0.34916 0.93761 0.0
H167 H 0.10021 0.31674 0.9617 0.0
O168 O 0.10809 0.38759 0.98366 0.0
O169 O 0.108 0.38114 0.9564 0.0
O170 O 0.14712 0.36042 0.97252 0.0
O171 O 0.1325 0.33975 0.95103 0.0
C172 C 0.02543 0.34891 0.93295 0.0
C173 C 0.0277 0.36786 0.92203 0.0
H174 H 0.03872 0.40483 0.90239 0.0
H175 H 0.07802 0.42055 0.89906 0.0
H176 H 0.0632 0.29748 0.96742 0.0
H177 H 0.0275 0.31204 0.95416 0.0
H178 H 0.00866 0.34239 0.93598 0.0
H179 H 0.01256 0.37531 0.91637 0.0
Mn180 Mn 0.87135 0.88114 0.21532 0.0
Mn181 Mn 0.90606 0.86642 0.18288 0.0
C182 C 0.88791 0.84487 0.21457 0.0
C183 C 0.83418 0.88396 0.22685 0.0
C184 C 0.92162 0.89646 0.21186 0.0
O185 O 0.86332 0.90499 0.19734 0.0
O186 O 0.88641 0.89258 0.17657 0.0
C187 C 0.8717 0.85122 0.1578 0.0
N188 N 0.89082 0.84695 0.16714 0.0
C189 C 0.89922 0.81308 0.15106 0.0
C190 C 0.87959 0.81704 0.1413 0.0
C191 C 0.86565 0.83609 0.14479 0.0
C192 C 0.90404 0.82841 0.16414 0.0
H193 H 0.86135 0.86623 0.1601 0.0
C194 C 0.871 0.906 0.18231 0.0
O195 O 0.85097 0.89654 0.23234 0.0
O196 O 0.83896 0.86991 0.21472 0.0
N197 N 0.926 0.84103 0.1868 0.0
C198 C 0.94368 0.83912 0.19792 0.0
C199 C 0.9587 0.8204 0.19667 0.0
C200 C 0.9558 0.80429 0.18368 0.0
C201 C 0.93757 0.80676 0.1723 0.0
C202 C 0.9227 0.82528 0.17455 0.0
H203 H 0.94641 0.85193 0.20754 0.0
O204 O 0.88065 0.8537 0.2286 0.0
O205 O 0.88503 0.85742 0.20114 0.0
O206 O 0.90296 0.89631 0.22035 0.0
O207 O 0.92396 0.88619 0.19783 0.0
C208 C 0.93369 0.79173 0.15869 0.0
C209 C 0.91444 0.79478 0.14816 0.0
H210 H 0.8751 0.80562 0.13105 0.0
H211 H 0.85054 0.83935 0.13725 0.0
H212 H 0.97277 0.81865 0.20546 0.0
H213 H 0.96767 0.7901 0.18256 0.0
H214 H 0.94521 0.77753 0.15636 0.0
H215 H 0.91142 0.78285 0.13795 0.0
Mn216 Mn 0.3825 0.62587 0.46544 0.0
Mn217 Mn 0.4063 0.65645 0.43387 0.0
C218 C 0.42047 0.63787 0.46741 0.0
C219 C 0.37383 0.58944 0.47649 0.0
C220 C 0.37243 0.67668 0.45882 0.0
O221 O 0.36082 0.6202 0.4455 0.0
O222 O 0.3808 0.6379 0.4249 0.0
C223 C 0.42547 0.61854 0.41355 0.0
N224 N 0.42855 0.6383 0.4224 0.0
C225 C 0.46905 0.63788 0.41697 0.0
C226 C 0.46634 0.61759 0.40772 0.0
C227 C 0.44443 0.60788 0.406 0.0
C228 C 0.44952 0.64782 0.42409 0.0
H229 H 0.40868 0.61093 0.4123 0.0
C230 C 0.36419 0.62544 0.43005 0.0
O231 O 0.36242 0.60752 0.48109 0.0
O232 O 0.39006 0.5926 0.46563 0.0
N233 N 0.43152 0.67496 0.44101 0.0
C234 C 0.43136 0.69415 0.4508 0.0
C235 C 0.45198 0.70582 0.45389 0.0
C236 C 0.4725 0.69765 0.44689 0.0
C237 C 0.47214 0.678 0.43673 0.0
C238 C 0.45106 0.66733 0.43383 0.0
H239 H 0.41567 0.7005 0.45626 0.0
O240 O 0.40923 0.63211 0.48087 0.0
O241 O 0.40913 0.63631 0.45341 0.0
O242 O 0.37066 0.65924 0.46858 0.0
O243 O 0.38411 0.67657 0.44523 0.0
C244 C 0.49199 0.6682 0.4298 0.0
C245 C 0.49046 0.64825 0.41983 0.0
H246 H 0.48097 0.60922 0.40202 0.0
H247 H 0.44219 0.59217 0.39895 0.0
H248 H 0.45208 0.72097 0.46175 0.0
H249 H 0.48845 0.70646 0.44951 0.0
H250 H 0.50854 0.67553 0.43258 0.0
H251 H 0.50589 0.64062 0.41479 0.0
Mn252 Mn 0.6394 0.13406 0.71355 0.0
Mn253 Mn 0.60667 0.15203 0.68091 0.0
C254 C 0.62475 0.17118 0.71344 0.0
C255 C 0.67605 0.12905 0.72553 0.0
C256 C 0.58857 0.12144 0.70879 0.0
O257 O 0.64673 0.11053 0.69521 0.0
O258 O 0.62508 0.12511 0.67433 0.0
C259 C 0.6429 0.16666 0.65712 0.0
N260 N 0.62349 0.17137 0.66599 0.0
C261 C 0.61739 0.20624 0.6505 0.0
C262 C 0.63736 0.20185 0.64121 0.0
C263 C 0.6503 0.18208 0.64466 0.0
C264 C 0.61128 0.19061 0.66309 0.0
H265 H 0.65246 0.15112 0.65937 0.0
C266 C 0.63939 0.11052 0.68006 0.0
O267 O 0.65857 0.11702 0.73052 0.0
O268 O 0.67223 0.14376 0.71364 0.0
N269 N 0.58788 0.17821 0.68502 0.0
C270 C 0.56985 0.1805 0.69578 0.0
C271 C 0.55569 0.19988 0.69454 0.0
C272 C 0.55978 0.21626 0.6819 0.0
C273 C 0.57835 0.21339 0.67088 0.0
C274 C 0.59234 0.19419 0.67313 0.0
H275 H 0.56618 0.16749 0.70509 0.0
O276 O 0.63108 0.16134 0.72735 0.0
O277 O 0.62741 0.15912 0.69977 0.0
O278 O 0.60689 0.12025 0.71765 0.0
O279 O 0.58726 0.13255 0.69502 0.0
C280 C 0.58347 0.22872 0.65766 0.0
C281 C 0.6031 0.22527 0.64759 0.0
H282 H 0.64287 0.21349 0.63137 0.0
H283 H 0.66567 0.1785 0.63749 0.0
H284 H 0.54136 0.20194 0.70306 0.0
H285 H 0.54857 0.23097 0.68077 0.0
H286 H 0.57268 0.24349 0.65536 0.0
H287 H 0.60712 0.23746 0.63772 0.0
Mn288 Mn 0.88687 0.38571 0.96753 0.0
Mn289 Mn 0.90462 0.35068 0.93615 0.0
C290 C 0.92416 0.37151 0.96754 0.0
C291 C 0.88175 0.42304 0.97832 0.0
C292 C 0.8752 0.3343 0.96515 0.0
O293 O 0.8631 0.39166 0.94913 0.0
O294 O 0.87695 0.36789 0.92928 0.0
C295 C 0.91743 0.38552 0.91066 0.0
N296 N 0.92295 0.3669 0.92018 0.0
C297 C 0.95752 0.3607 0.90435 0.0
C298 C 0.95227 0.37985 0.89439 0.0
C299 C 0.93224 0.39245 0.89768 0.0
C300 C 0.94248 0.35507 0.91744 0.0
H301 H 0.9017 0.39482 0.91282 0.0
C302 C 0.86261 0.38287 0.93442 0.0
O303 O 0.86995 0.40579 0.98397 0.0
O304 O 0.89628 0.41862 0.96642 0.0
N305 N 0.93152 0.333 0.9405 0.0
C306 C 0.93475 0.3159 0.95194 0.0
C307 C 0.9545 0.30223 0.9509 0.0
C308 C 0.97028 0.30579 0.93777 0.0
C309 C 0.96643 0.32337 0.92605 0.0
C310 C 0.94695 0.33701 0.92815 0.0
H311 H 0.92221 0.31258 0.96165 0.0
O312 O 0.91448 0.37852 0.98134 0.0
O313 O 0.91176 0.37306 0.95394 0.0
O314 O 0.87335 0.35345 0.9729 0.0
O315 O 0.8863 0.33179 0.95149 0.0
C316 C 0.98109 0.32786 0.91231 0.0
C317 C 0.97684 0.34673 0.90163 0.0
H318 H 0.96343 0.38498 0.88415 0.0
H319 H 0.928 0.40719 0.89 0.0
H320 H 0.95731 0.28865 0.95996 0.0
H321 H 0.98528 0.29494 0.93681 0.0
H322 H 0.99607 0.31731 0.91015 0.0
H323 H 0.9886 0.35038 0.89142 0.0
Mn324 Mn 0.37296 0.13187 0.7184 0.0
Mn325 Mn 0.4067 0.15536 0.68836 0.0
C326 C 0.38548 0.16958 0.72099 0.0
C327 C 0.33573 0.12382 0.72817 0.0
C328 C 0.42445 0.12191 0.71454 0.0
O329 O 0.36835 0.1104 0.69824 0.0
O330 O 0.38962 0.12911 0.6789 0.0
C331 C 0.37012 0.17281 0.66591 0.0
N332 N 0.389 0.17673 0.6756 0.0
C333 C 0.38771 0.21708 0.66961 0.0
C334 C 0.36833 0.21349 0.6595 0.0
C335 C 0.35951 0.19124 0.65764 0.0
C336 C 0.39765 0.19804 0.67745 0.0
H337 H 0.36314 0.15577 0.66454 0.0
C338 C 0.37592 0.11307 0.68326 0.0
O339 O 0.35331 0.11205 0.73331 0.0
O340 O 0.33981 0.14 0.71742 0.0
N341 N 0.42397 0.18131 0.69575 0.0
C342 C 0.44267 0.18194 0.70604 0.0
C343 C 0.45361 0.20295 0.70915 0.0
C344 C 0.44525 0.22305 0.70163 0.0
C345 C 0.42621 0.22187 0.69088 0.0
C346 C 0.41631 0.20042 0.68797 0.0
H347 H 0.44921 0.16656 0.71181 0.0
O348 O 0.37857 0.15833 0.73414 0.0
O349 O 0.38476 0.15843 0.70686 0.0
O350 O 0.40577 0.11939 0.72284 0.0
O351 O 0.42622 0.13415 0.70128 0.0
C352 C 0.41631 0.24124 0.68332 0.0
C353 C 0.39717 0.23887 0.6726 0.0
H354 H 0.36 0.22771 0.65322 0.0
H355 H 0.34451 0.18832 0.64991 0.0
H356 H 0.46835 0.20366 0.71742 0.0
H357 H 0.45347 0.23931 0.70427 0.0
H358 H 0.42287 0.25806 0.68622 0.0
H359 H 0.38946 0.25395 0.66705 0.0
Mn360 Mn 0.63016 0.62136 0.46528 0.0
Mn361 Mn 0.61441 0.65459 0.43228 0.0
C362 C 0.59335 0.63671 0.46421 0.0
C363 C 0.63398 0.58449 0.47721 0.0
C364 C 0.64379 0.67203 0.46103 0.0
O365 O 0.6545 0.61376 0.44757 0.0
O366 O 0.64138 0.63584 0.42642 0.0
C367 C 0.60055 0.61864 0.40802 0.0
N368 N 0.59562 0.63806 0.41681 0.0
C369 C 0.56156 0.64455 0.40047 0.0
C370 C 0.56619 0.62459 0.39125 0.0
C371 C 0.58566 0.61145 0.39516 0.0
C372 C 0.57664 0.65047 0.41346 0.0
H373 H 0.61589 0.60892 0.41064 0.0
C374 C 0.65544 0.62124 0.43248 0.0
O375 O 0.64601 0.60174 0.48262 0.0
O376 O 0.61993 0.58867 0.46495 0.0
N377 N 0.58828 0.67372 0.43569 0.0
C378 C 0.58574 0.69182 0.44635 0.0
C379 C 0.56661 0.70623 0.44461 0.0
C380 C 0.55077 0.70231 0.43158 0.0
C381 C 0.5539 0.68366 0.42067 0.0
C382 C 0.5728 0.66944 0.42342 0.0
H383 H 0.59836 0.69536 0.45597 0.0
O384 O 0.60232 0.63005 0.47835 0.0
O385 O 0.60606 0.63389 0.45087 0.0
O386 O 0.64427 0.65362 0.46984 0.0
O387 O 0.63341 0.67364 0.44698 0.0
C388 C 0.53914 0.67872 0.40707 0.0
C389 C 0.54283 0.65906 0.39709 0.0
H390 H 0.55497 0.61923 0.38111 0.0
H391 H 0.58944 0.59609 0.38805 0.0
H392 H 0.56435 0.72062 0.45304 0.0
H393 H 0.53627 0.71372 0.43006 0.0
H394 H 0.52465 0.68971 0.40437 0.0
H395 H 0.53107 0.6552 0.38692 0.0
Mn396 Mn 0.13503 0.88562 0.21893 0.0
Mn397 Mn 0.0981 0.86736 0.18889 0.0
C398 C 0.12099 0.84827 0.2195 0.0
C399 C 0.1729 0.89102 0.2285 0.0
C400 C 0.0837 0.8975 0.2181 0.0
O401 O 0.13971 0.90913 0.20014 0.0
O402 O 0.11522 0.8946 0.18096 0.0
C403 C 0.13078 0.85329 0.16228 0.0
N404 N 0.11295 0.84825 0.17272 0.0
C405 C 0.10501 0.81331 0.15774 0.0
C406 C 0.12337 0.81804 0.14687 0.0
C407 C 0.13647 0.83799 0.14928 0.0
C408 C 0.10073 0.82874 0.17085 0.0
H409 H 0.14036 0.869 0.16372 0.0
C410 C 0.1304 0.90912 0.18558 0.0
O411 O 0.15593 0.90282 0.23459 0.0
O412 O 0.16789 0.87634 0.21683 0.0
N413 N 0.08051 0.84079 0.19449 0.0
C414 C 0.06428 0.83813 0.20667 0.0
C415 C 0.05038 0.81848 0.20661 0.0
C416 C 0.05277 0.80219 0.1937 0.0
C417 C 0.06947 0.80543 0.18121 0.0
C418 C 0.08348 0.82482 0.18237 0.0
H419 H 0.06182 0.85104 0.21622 0.0
O420 O 0.12876 0.85798 0.23307 0.0
O421 O 0.12162 0.86068 0.2059 0.0
O422 O 0.10322 0.89912 0.22534 0.0
O423 O 0.0804 0.8864 0.20453 0.0
C424 C 0.07254 0.79038 0.16751 0.0
C425 C 0.09047 0.79419 0.15588 0.0
H426 H 0.12747 0.80654 0.1366 0.0
H427 H 0.15058 0.84183 0.14089 0.0
H428 H 0.03746 0.81618 0.21625 0.0
H429 H 0.04165 0.78733 0.19345 0.0
H430 H 0.06169 0.77544 0.1661 0.0
H431 H 0.09308 0.78215 0.14567 0.0
Mn432 Mn 0.8833 0.62238 0.03538 0.0
Mn433 Mn 0.90012 0.65972 0.06564 0.0
C434 C 0.91994 0.63822 0.03468 0.0
C435 C 0.8794 0.58452 0.02535 0.0
C436 C 0.86931 0.67322 0.03661 0.0
O437 O 0.86024 0.61622 0.05425 0.0
O438 O 0.87356 0.64146 0.07334 0.0
C439 C 0.91534 0.62698 0.0919 0.0
N440 N 0.91967 0.64533 0.08177 0.0
C441 C 0.95405 0.6544 0.09709 0.0
C442 C 0.95006 0.63554 0.10765 0.0
C443 C 0.93073 0.62163 0.10493 0.0
C444 C 0.93855 0.65838 0.08396 0.0
H445 H 0.90011 0.61673 0.0902 0.0
C446 C 0.8598 0.62559 0.06878 0.0
O447 O 0.8668 0.60111 0.01958 0.0
O448 O 0.89404 0.58987 0.03699 0.0
N449 N 0.92598 0.67852 0.06041 0.0
C450 C 0.92802 0.6952 0.04849 0.0
C451 C 0.94691 0.71011 0.04898 0.0
C452 C 0.96303 0.70822 0.06207 0.0
C453 C 0.96042 0.69104 0.07428 0.0
C454 C 0.94181 0.67608 0.0727 0.0
H455 H 0.91517 0.69727 0.03884 0.0
O456 O 0.9104 0.6302 0.02114 0.0
O457 O 0.90782 0.63675 0.0484 0.0
O458 O 0.86825 0.65367 0.02938 0.0
O459 O 0.88052 0.67691 0.05007 0.0
C460 C 0.97539 0.6883 0.08808 0.0
C461 C 0.97248 0.66972 0.09928 0.0
H462 H 0.96162 0.63167 0.11794 0.0
H463 H 0.92744 0.60713 0.11309 0.0
H464 H 0.94873 0.72338 0.03955 0.0
H465 H 0.9773 0.72007 0.06264 0.0
H466 H 0.98971 0.69988 0.08983 0.0
H467 H 0.98455 0.66735 0.10951 0.0
Mn468 Mn 0.13797 0.13033 0.78504 0.0
Mn469 Mn 0.1062 0.15271 0.81649 0.0
C470 C 0.1251 0.16802 0.78332 0.0
C471 C 0.17484 0.12288 0.77434 0.0
C472 C 0.08735 0.11881 0.791 0.0
O473 O 0.1437 0.10836 0.8048 0.0
O474 O 0.12517 0.12749 0.82543 0.0
C475 C 0.14315 0.17246 0.83749 0.0
N476 N 0.12354 0.17521 0.82841 0.0
C477 C 0.12281 0.2156 0.83423 0.0
C478 C 0.14294 0.21322 0.84373 0.0
C479 C 0.15315 0.19154 0.84537 0.0
C480 C 0.11354 0.19595 0.82679 0.0
H481 H 0.15115 0.15584 0.83868 0.0
C482 C 0.13807 0.11125 0.82022 0.0
O483 O 0.15717 0.1111 0.76938 0.0
O484 O 0.17104 0.13875 0.78536 0.0
N485 N 0.08723 0.17757 0.80936 0.0
C486 C 0.06832 0.17712 0.79928 0.0
C487 C 0.05625 0.1975 0.79619 0.0
C488 C 0.06376 0.21809 0.80347 0.0
C489 C 0.08314 0.21804 0.81391 0.0
C490 C 0.09422 0.19717 0.8168 0.0
H491 H 0.06249 0.16137 0.7936 0.0
O492 O 0.13141 0.1572 0.76982 0.0
O493 O 0.12665 0.15644 0.79722 0.0
O494 O 0.10498 0.11774 0.78138 0.0
O495 O 0.08689 0.13022 0.80471 0.0
C496 C 0.09228 0.238 0.82116 0.0
C497 C 0.11199 0.23679 0.83143 0.0
H498 H 0.1508 0.22796 0.84969 0.0
H499 H 0.16874 0.18957 0.85261 0.0
H500 H 0.0413 0.19736 0.78811 0.0
H501 H 0.05464 0.23387 0.80086 0.0
H502 H 0.08464 0.25441 0.8184 0.0
H503 H 0.11908 0.25231 0.83675 0.0
Mn504 Mn 0.62642 0.38738 0.53821 0.0
Mn505 Mn 0.60823 0.35193 0.56926 0.0
C506 C 0.58926 0.37279 0.5377 0.0
C507 C 0.63163 0.42475 0.52749 0.0
C508 C 0.63892 0.33625 0.54074 0.0
O509 O 0.64959 0.39345 0.55706 0.0
O510 O 0.63504 0.36991 0.57685 0.0
C511 C 0.59321 0.38608 0.59455 0.0
N512 N 0.58868 0.36742 0.5848 0.0
C513 C 0.55367 0.35987 0.59978 0.0
C514 C 0.55786 0.37906 0.60996 0.0
C515 C 0.57761 0.39236 0.60721 0.0
C516 C 0.56941 0.35495 0.587 0.0
H517 H 0.60873 0.39587 0.59284 0.0
C518 C 0.64943 0.385 0.5719 0.0
O519 O 0.64368 0.40755 0.52206 0.0
O520 O 0.61678 0.42027 0.53917 0.0
N521 N 0.58206 0.33355 0.5641 0.0
C522 C 0.57984 0.31654 0.55246 0.0
C523 C 0.56049 0.30223 0.55296 0.0
C524 C 0.54408 0.30505 0.56575 0.0
C525 C 0.54688 0.32257 0.57767 0.0
C526 C 0.56597 0.3369 0.57609 0.0
H527 H 0.59287 0.31377 0.54303 0.0
O528 O 0.59915 0.38 0.52403 0.0
O529 O 0.60137 0.37435 0.55142 0.0
O530 O 0.6403 0.35535 0.53287 0.0
O531 O 0.62779 0.33361 0.55437 0.0
C532 C 0.53161 0.32627 0.59116 0.0
C533 C 0.53476 0.34516 0.60202 0.0
H534 H 0.54612 0.38367 0.61997 0.0
H535 H 0.58104 0.40713 0.61507 0.0
H536 H 0.55851 0.2887 0.54375 0.0
H537 H 0.52943 0.29368 0.56632 0.0
H538 H 0.51691 0.31518 0.59293 0.0
H539 H 0.52249 0.34826 0.612 0.0
Mn540 Mn 0.36982 0.87582 0.28716 0.0
Mn541 Mn 0.39964 0.85144 0.31897 0.0
C542 C 0.38165 0.83787 0.28505 0.0
C543 C 0.3335 0.88456 0.27583 0.0
C544 C 0.42108 0.88445 0.29389 0.0
O545 O 0.36418 0.89772 0.30695 0.0
O546 O 0.38253 0.87822 0.32743 0.0
C547 C 0.36033 0.83515 0.33927 0.0
N548 N 0.38006 0.83066 0.33071 0.0
C549 C 0.37726 0.79047 0.337 0.0
C550 C 0.357 0.79465 0.34597 0.0
C551 C 0.34849 0.81711 0.3471 0.0
C552 C 0.3884 0.80915 0.32955 0.0
H553 H 0.35363 0.85236 0.34007 0.0
C554 C 0.37019 0.89488 0.32228 0.0
O555 O 0.35167 0.89595 0.27132 0.0
O556 O 0.33652 0.86841 0.28676 0.0
N557 N 0.41693 0.82502 0.31265 0.0
C558 C 0.43656 0.82383 0.30339 0.0
C559 C 0.44725 0.80251 0.30101 0.0
C560 C 0.43766 0.78271 0.3082 0.0
C561 C 0.41766 0.7845 0.3179 0.0
C562 C 0.40805 0.80621 0.32013 0.0
H563 H 0.44397 0.83899 0.2978 0.0
O564 O 0.3761 0.84931 0.27165 0.0
O565 O 0.37981 0.8489 0.2992 0.0
O566 O 0.40347 0.88733 0.2844 0.0
O567 O 0.42091 0.87217 0.30722 0.0
C568 C 0.40652 0.7655 0.32505 0.0
C569 C 0.38651 0.76842 0.33476 0.0
H570 H 0.34773 0.78074 0.35191 0.0
H571 H 0.3328 0.82049 0.35393 0.0
H572 H 0.46272 0.80132 0.29355 0.0
H573 H 0.4457 0.76622 0.30611 0.0
H574 H 0.41267 0.74848 0.3225 0.0
H575 H 0.37808 0.75354 0.34007 0.0
Mn576 Mn 0.62939 0.12026 0.53487 0.0
Mn577 Mn 0.60596 0.14983 0.56715 0.0
C578 C 0.59153 0.13247 0.53328 0.0
C579 C 0.63738 0.08403 0.52313 0.0
C580 C 0.63864 0.17134 0.54189 0.0
O581 O 0.65159 0.114 0.55439 0.0
O582 O 0.63277 0.13238 0.57519 0.0
C583 C 0.58982 0.11045 0.58745 0.0
N584 N 0.58527 0.13026 0.57901 0.0
C585 C 0.54518 0.12763 0.58565 0.0
C586 C 0.54941 0.10727 0.5945 0.0
C587 C 0.57185 0.09865 0.59541 0.0
C588 C 0.5638 0.13874 0.57809 0.0
H589 H 0.607 0.10365 0.58809 0.0
C590 C 0.64916 0.11987 0.56979 0.0
O591 O 0.64893 0.10211 0.51865 0.0
O592 O 0.62154 0.08708 0.53429 0.0
N593 N 0.57954 0.16737 0.56121 0.0
C594 C 0.57829 0.18708 0.55203 0.0
C595 C 0.55698 0.19788 0.54986 0.0
C596 C 0.53725 0.1883 0.55716 0.0
C597 C 0.5391 0.16821 0.56676 0.0
C598 C 0.5608 0.1585 0.5688 0.0
H599 H 0.59339 0.19445 0.54634 0.0
O600 O 0.60265 0.12709 0.51971 0.0
O601 O 0.60283 0.13029 0.54728 0.0
O602 O 0.64122 0.15383 0.53226 0.0
O603 O 0.62658 0.17108 0.55532 0.0
C604 C 0.52016 0.15708 0.574 0.0
C605 C 0.52315 0.137 0.58362 0.0
H606 H 0.53555 0.09803 0.60052 0.0
H607 H 0.57526 0.08289 0.60215 0.0
H608 H 0.55574 0.21341 0.54247 0.0
H609 H 0.52076 0.19642 0.55523 0.0
H610 H 0.50313 0.16329 0.57157 0.0
H611 H 0.50831 0.12859 0.58902 0.0
Mn612 Mn 0.13967 0.37728 0.78826 0.0
Mn613 Mn 0.10421 0.36093 0.81982 0.0
C614 C 0.12361 0.34075 0.78816 0.0
C615 C 0.17706 0.38084 0.77721 0.0
C616 C 0.08876 0.39101 0.79096 0.0
O617 O 0.14706 0.40045 0.80675 0.0
O618 O 0.12245 0.388 0.82655 0.0
C619 C 0.13893 0.34701 0.84506 0.0
N620 N 0.12001 0.34208 0.83568 0.0
C621 C 0.11306 0.30761 0.85147 0.0
C622 C 0.13248 0.31226 0.8613 0.0
C623 C 0.14561 0.33195 0.85797 0.0
C624 C 0.10765 0.32289 0.83848 0.0
H625 H 0.14868 0.36245 0.84287 0.0
C626 C 0.1382 0.40152 0.82141 0.0
O627 O 0.16039 0.39377 0.77197 0.0
O628 O 0.17202 0.36612 0.78886 0.0
N629 N 0.08551 0.33466 0.81566 0.0
C630 C 0.06807 0.33205 0.80442 0.0
C631 C 0.05384 0.31269 0.80553 0.0
C632 C 0.05722 0.29667 0.81852 0.0
C633 C 0.07519 0.29985 0.83003 0.0
C634 C 0.08929 0.31901 0.82792 0.0
H635 H 0.06493 0.34476 0.7948 0.0
O636 O 0.13089 0.35022 0.77435 0.0
O637 O 0.12599 0.3529 0.80182 0.0
O638 O 0.108 0.39234 0.78325 0.0
O639 O 0.08583 0.37982 0.80455 0.0
C640 C 0.07956 0.2849 0.84361 0.0
C641 C 0.09862 0.28862 0.85421 0.0
H642 H 0.13743 0.30089 0.87146 0.0
H643 H 0.16057 0.33573 0.86554 0.0
H644 H 0.03998 0.31039 0.79663 0.0
H645 H 0.04595 0.28198 0.81953 0.0
H646 H 0.06862 0.2702 0.84583 0.0
H647 H 0.10209 0.2767 0.86436 0.0
Mn648 Mn 0.87683 0.88573 0.03974 0.0
Mn649 Mn 0.89472 0.85082 0.07114 0.0
C650 C 0.91397 0.87115 0.03947 0.0
C651 C 0.87188 0.92308 0.02898 0.0
C652 C 0.86332 0.83507 0.04294 0.0
O653 O 0.85352 0.89188 0.05851 0.0
O654 O 0.8688 0.86982 0.07895 0.0
C655 C 0.91165 0.88427 0.09627 0.0
N656 N 0.91536 0.86569 0.08626 0.0
C657 C 0.95065 0.85698 0.10055 0.0
C658 C 0.94732 0.87612 0.11095 0.0
C659 C 0.92784 0.88996 0.10868 0.0
C660 C 0.93434 0.85265 0.08803 0.0
H661 H 0.89629 0.89444 0.09495 0.0
C662 C 0.85416 0.88443 0.07365 0.0
O663 O 0.85981 0.90594 0.02347 0.0
O664 O 0.88657 0.91856 0.04076 0.0
N665 N 0.92007 0.83157 0.06549 0.0
C666 C 0.92129 0.81453 0.05379 0.0
C667 C 0.94028 0.79975 0.05378 0.0
C668 C 0.95739 0.8022 0.06612 0.0
C669 C 0.95563 0.81977 0.0781 0.0
C670 C 0.93682 0.83455 0.07703 0.0
H671 H 0.90774 0.81208 0.0447 0.0
O672 O 0.90424 0.87826 0.02572 0.0
O673 O 0.9017 0.87281 0.05309 0.0
O674 O 0.86297 0.85368 0.03441 0.0
O675 O 0.87396 0.83301 0.05685 0.0
C676 C 0.97158 0.823 0.09122 0.0
C677 C 0.96922 0.84175 0.10234 0.0
H678 H 0.95953 0.88028 0.12077 0.0
H679 H 0.92507 0.90466 0.11673 0.0
H680 H 0.94146 0.78617 0.04454 0.0
H681 H 0.97176 0.79044 0.06631 0.0
H682 H 0.9861 0.81159 0.09256 0.0
H683 H 0.98192 0.84441 0.1121 0.0
Mn684 Mn 0.37909 0.6282 0.28681 0.0
Mn685 Mn 0.41526 0.64613 0.31744 0.0
C686 C 0.39358 0.66539 0.28632 0.0
C687 C 0.34142 0.62307 0.27677 0.0
C688 C 0.43007 0.61527 0.28873 0.0
O689 O 0.37356 0.60489 0.3056 0.0
O690 O 0.39713 0.61955 0.32534 0.0
C691 C 0.38216 0.66162 0.34333 0.0
N692 N 0.40041 0.66598 0.33312 0.0
C693 C 0.40867 0.70114 0.34771 0.0
C694 C 0.38988 0.69712 0.35834 0.0
C695 C 0.37643 0.67738 0.35602 0.0
C696 C 0.41304 0.68524 0.33493 0.0
H697 H 0.37227 0.64608 0.34196 0.0
C698 C 0.38203 0.60513 0.32044 0.0
O699 O 0.35842 0.61108 0.27095 0.0
O700 O 0.34629 0.63786 0.28841 0.0
N701 N 0.43369 0.6721 0.31181 0.0
C702 C 0.45029 0.67409 0.29983 0.0
C703 C 0.4646 0.69345 0.29982 0.0
C704 C 0.46218 0.71015 0.31245 0.0
C705 C 0.44507 0.7076 0.32472 0.0
C706 C 0.43071 0.68845 0.32365 0.0
H707 H 0.45273 0.66089 0.29049 0.0
O708 O 0.38607 0.65566 0.27268 0.0
O709 O 0.39244 0.65306 0.29994 0.0
O710 O 0.4109 0.61427 0.28095 0.0
O711 O 0.43299 0.62624 0.3024 0.0
C712 C 0.44189 0.72311 0.33812 0.0
C713 C 0.42352 0.72003 0.3495 0.0
H714 H 0.38571 0.709 0.36836 0.0
H715 H 0.36199 0.67408 0.36422 0.0
H716 H 0.47781 0.69524 0.29034 0.0
H717 H 0.47357 0.7248 0.31264 0.0
H718 H 0.45299 0.73788 0.33948 0.0
H719 H 0.42085 0.73243 0.35946 0.0
Mn720 Mn 0.63353 0.88711 0.46335 0.0
Mn721 Mn 0.61573 0.85129 0.43244 0.0
C722 C 0.59625 0.873 0.46355 0.0
C723 C 0.63921 0.92452 0.47372 0.0
C724 C 0.64432 0.83543 0.46202 0.0
O725 O 0.65733 0.89251 0.44496 0.0
O726 O 0.64393 0.86775 0.42564 0.0
C727 C 0.6045 0.88568 0.40622 0.0
N728 N 0.5982 0.86753 0.41598 0.0
C729 C 0.56364 0.86212 0.39997 0.0
C730 C 0.56973 0.88076 0.38975 0.0
C731 C 0.59016 0.89272 0.39298 0.0
C732 C 0.57834 0.85627 0.41323 0.0
H733 H 0.62046 0.89455 0.40836 0.0
C734 C 0.65808 0.88312 0.43048 0.0
O735 O 0.65077 0.9072 0.47952 0.0
O736 O 0.62451 0.92011 0.46192 0.0
N737 N 0.58831 0.83429 0.4366 0.0
C738 C 0.58445 0.81739 0.4481 0.0
C739 C 0.56432 0.80429 0.44701 0.0
C740 C 0.54876 0.8082 0.4338 0.0
C741 C 0.55322 0.82557 0.42203 0.0
C742 C 0.57316 0.83856 0.42409 0.0
H743 H 0.59676 0.81382 0.4579 0.0
O744 O 0.60594 0.88042 0.47723 0.0
O745 O 0.60855 0.87425 0.44987 0.0
O746 O 0.64671 0.85493 0.46918 0.0
O747 O 0.63315 0.83246 0.44842 0.0
C748 C 0.53875 0.83042 0.40825 0.0
C749 C 0.54379 0.84887 0.39737 0.0
H750 H 0.55889 0.88598 0.37935 0.0
H751 H 0.59504 0.90706 0.3851 0.0
H752 H 0.56103 0.79088 0.45613 0.0
H753 H 0.53344 0.79779 0.43284 0.0
H754 H 0.52344 0.82033 0.40609 0.0
H755 H 0.53225 0.85272 0.38705 0.0
Mn756 Mn 0.37433 0.37884 0.71573 0.0
Mn757 Mn 0.4082 0.36169 0.68352 0.0
C758 C 0.3904 0.34232 0.71602 0.0
C759 C 0.33725 0.38219 0.72738 0.0
C760 C 0.42466 0.39347 0.71118 0.0
O761 O 0.36618 0.4016 0.69706 0.0
O762 O 0.38882 0.38775 0.67648 0.0
C763 C 0.37306 0.34512 0.65952 0.0
N764 N 0.39245 0.34138 0.66867 0.0
C765 C 0.40033 0.30652 0.65363 0.0
C766 C 0.38039 0.30989 0.64407 0.0
C767 C 0.36657 0.32916 0.64716 0.0
C768 C 0.40549 0.32258 0.66613 0.0
H769 H 0.36284 0.36031 0.66149 0.0
C770 C 0.37375 0.40175 0.68198 0.0
O771 O 0.3539 0.39545 0.73221 0.0
O772 O 0.34212 0.36737 0.7158 0.0
N773 N 0.4279 0.33634 0.68817 0.0
C774 C 0.44571 0.33494 0.69921 0.0
C775 C 0.46061 0.31607 0.6984 0.0
C776 C 0.45749 0.29932 0.68589 0.0
C777 C 0.43914 0.3013 0.67456 0.0
C778 C 0.42433 0.31995 0.67644 0.0
H779 H 0.44865 0.34825 0.70842 0.0
O780 O 0.38371 0.35215 0.72985 0.0
O781 O 0.38749 0.35417 0.70228 0.0
O782 O 0.40616 0.39418 0.71988 0.0
O783 O 0.42658 0.38216 0.69756 0.0
C784 C 0.43503 0.28562 0.66139 0.0
C785 C 0.41551 0.28808 0.65105 0.0
H786 H 0.37558 0.29786 0.6343 0.0
H787 H 0.35121 0.33196 0.63979 0.0
H788 H 0.47479 0.31472 0.70714 0.0
H789 H 0.46928 0.28503 0.68508 0.0
H790 H 0.44646 0.27126 0.65939 0.0
H791 H 0.41223 0.27559 0.64125 0.0
Mn792 Mn 0.88527 0.11885 0.9673 0.0
Mn793 Mn 0.90815 0.15007 0.93563 0.0
C794 C 0.92304 0.13153 0.96904 0.0
C795 C 0.87743 0.08229 0.97861 0.0
C796 C 0.8746 0.16972 0.96104 0.0
O797 O 0.86333 0.11295 0.94749 0.0
O798 O 0.88252 0.1315 0.92689 0.0
C799 C 0.92704 0.11244 0.91487 0.0
N800 N 0.93022 0.13215 0.92376 0.0
C801 C 0.97054 0.13221 0.9176 0.0
C802 C 0.96772 0.11198 0.9083 0.0
C803 C 0.94586 0.10205 0.90694 0.0
C804 C 0.95114 0.14187 0.92513 0.0
H805 H 0.91029 0.10468 0.91388 0.0
C806 C 0.86621 0.11869 0.93208 0.0
O807 O 0.86576 0.10021 0.98319 0.0
O808 O 0.89333 0.08563 0.96751 0.0
N809 N 0.93341 0.16874 0.94244 0.0
C810 C 0.93334 0.18796 0.9522 0.0
C811 C 0.95393 0.19986 0.95493 0.0
C812 C 0.97431 0.19188 0.94761 0.0
C813 C 0.97384 0.17222 0.93746 0.0
C814 C 0.95278 0.16134 0.93491 0.0
H815 H 0.91775 0.19416 0.9579 0.0
O816 O 0.91206 0.12549 0.98255 0.0
O817 O 0.91162 0.12978 0.95507 0.0
O818 O 0.87302 0.15207 0.97062 0.0
O819 O 0.88613 0.16997 0.94737 0.0
C820 C 0.99356 0.16263 0.93019 0.0
C821 C 0.99193 0.1428 0.9201 0.0
H822 H 0.98224 0.10381 0.90229 0.0
H823 H 0.94355 0.08638 0.89985 0.0
H824 H 0.95411 0.21503 0.96277 0.0
H825 H 0.99025 0.20086 0.94995 0.0
H826 H 0.01012 0.16995 0.9329 0.0
H827 H 0.00729 0.13543 0.91473 0.0
Mn828 Mn 0.14543 0.63806 0.21665 0.0
Mn829 Mn 0.11673 0.66334 0.18468 0.0
C830 C 0.13333 0.67588 0.21916 0.0
C831 C 0.18145 0.62924 0.22845 0.0
C832 C 0.09446 0.62942 0.20874 0.0
O833 O 0.15199 0.61683 0.19664 0.0
O834 O 0.13416 0.63681 0.17617 0.0
C835 C 0.15673 0.68011 0.16535 0.0
N836 N 0.13672 0.6844 0.17361 0.0
C837 C 0.13968 0.72472 0.16784 0.0
C838 C 0.16024 0.72075 0.15919 0.0
C839 C 0.1688 0.69832 0.15794 0.0
C840 C 0.12832 0.70587 0.17488 0.0
H841 H 0.16346 0.66293 0.16444 0.0
C842 C 0.14645 0.62009 0.18126 0.0
O843 O 0.16324 0.61758 0.23248 0.0
O844 O 0.17861 0.64573 0.21778 0.0
N845 N 0.09923 0.6896 0.19104 0.0
C846 C 0.07931 0.69058 0.19998 0.0
C847 C 0.06856 0.71184 0.20246 0.0
C848 C 0.07838 0.73181 0.1957 0.0
C849 C 0.09868 0.73024 0.18631 0.0
C850 C 0.10836 0.70859 0.18398 0.0
H851 H 0.07174 0.67529 0.20525 0.0
O852 O 0.13839 0.66403 0.23247 0.0
O853 O 0.13578 0.66531 0.20488 0.0
O854 O 0.11175 0.62619 0.21849 0.0
O855 O 0.09507 0.6423 0.19571 0.0
C856 C 0.11002 0.74939 0.17956 0.0
C857 C 0.13033 0.7467 0.17017 0.0
H858 H 0.16968 0.73479 0.15358 0.0
H859 H 0.18471 0.6951 0.15135 0.0
H860 H 0.05287 0.71287 0.20969 0.0
H861 H 0.07029 0.74825 0.19787 0.0
H862 H 0.10381 0.76636 0.18219 0.0
H863 H 0.1389 0.7617 0.16516 0.0
Mn864 Mn 0.38614 0.89261 0.46908 0.0
Mn865 Mn 0.40736 0.85927 0.43793 0.0
C866 C 0.42377 0.87945 0.47035 0.0
C867 C 0.37933 0.92971 0.47968 0.0
C868 C 0.37454 0.84162 0.46458 0.0
O869 O 0.36359 0.89791 0.4496 0.0
O870 O 0.38136 0.87745 0.42929 0.0
C871 C 0.4254 0.89559 0.4155 0.0
N872 N 0.42893 0.8764 0.42493 0.0
C873 C 0.46895 0.87585 0.41776 0.0
C874 C 0.46575 0.89553 0.4079 0.0
C875 C 0.44387 0.90544 0.40677 0.0
C876 C 0.44988 0.86671 0.42609 0.0
H877 H 0.40863 0.90334 0.41468 0.0
C878 C 0.36556 0.89094 0.43439 0.0
O879 O 0.36754 0.91217 0.48487 0.0
O880 O 0.39476 0.92569 0.46833 0.0
N881 N 0.43289 0.84093 0.44467 0.0
C882 C 0.43323 0.82228 0.45503 0.0
C883 C 0.4539 0.8105 0.45764 0.0
C884 C 0.47395 0.81798 0.44956 0.0
C885 C 0.47306 0.83702 0.4388 0.0
C886 C 0.45193 0.84783 0.43644 0.0
H887 H 0.4179 0.81645 0.46127 0.0
O888 O 0.4134 0.88621 0.48392 0.0
O889 O 0.41182 0.88067 0.4566 0.0
O890 O 0.37333 0.8599 0.47348 0.0
O891 O 0.38587 0.84014 0.45088 0.0
C892 C 0.49244 0.84604 0.43068 0.0
C893 C 0.49041 0.8653 0.42004 0.0
H894 H 0.48 0.90328 0.40126 0.0
H895 H 0.44126 0.92069 0.39924 0.0
H896 H 0.4544 0.79579 0.46595 0.0
H897 H 0.48996 0.80908 0.45179 0.0
H898 H 0.50906 0.83867 0.43306 0.0
H899 H 0.50554 0.87222 0.41399 0.0
Mn900 Mn 0.87759 0.63474 0.21582 0.0
Mn901 Mn 0.91073 0.6577 0.18523 0.0
C902 C 0.89088 0.67222 0.2182 0.0
C903 C 0.84036 0.62785 0.22629 0.0
C904 C 0.92866 0.62357 0.21086 0.0
O905 O 0.87189 0.61352 0.19565 0.0
O906 O 0.89261 0.63207 0.17586 0.0
C907 C 0.87401 0.67668 0.16361 0.0
N908 N 0.8933 0.67984 0.173 0.0
C909 C 0.89317 0.7203 0.16734 0.0
C910 C 0.87338 0.71749 0.15753 0.0
C911 C 0.86376 0.69557 0.15567 0.0
C912 C 0.90272 0.70083 0.17486 0.0
H913 H 0.86644 0.65989 0.16225 0.0
C914 C 0.87886 0.61619 0.1805 0.0
O915 O 0.85763 0.61525 0.23091 0.0
O916 O 0.84474 0.64393 0.21553 0.0
N917 N 0.92893 0.683 0.19267 0.0
C918 C 0.94765 0.68293 0.20294 0.0
C919 C 0.95921 0.70357 0.20619 0.0
C920 C 0.95143 0.72402 0.19884 0.0
C921 C 0.93227 0.72358 0.18818 0.0
C922 C 0.9217 0.70247 0.18515 0.0
H923 H 0.95373 0.66729 0.20863 0.0
O924 O 0.88429 0.66108 0.23149 0.0
O925 O 0.88955 0.66102 0.20414 0.0
O926 O 0.91033 0.62158 0.21966 0.0
O927 O 0.93007 0.63568 0.19751 0.0
C928 C 0.9229 0.74336 0.1808 0.0
C929 C 0.90343 0.74173 0.17033 0.0
H930 H 0.86532 0.73207 0.15151 0.0
H931 H 0.84842 0.69327 0.14819 0.0
H932 H 0.974 0.70373 0.21443 0.0
H933 H 0.96015 0.73998 0.20157 0.0
H934 H 0.9302 0.75993 0.18358 0.0
H935 H 0.89609 0.7571 0.16496 0.0
Mn936 Mn 0.13281 0.1269 0.96316 0.0
Mn937 Mn 0.11432 0.15971 0.93076 0.0
C938 C 0.09556 0.14122 0.96324 0.0
C939 C 0.13813 0.09014 0.97485 0.0
C940 C 0.14533 0.1777 0.95845 0.0
O941 O 0.15615 0.11985 0.94464 0.0
O942 O 0.141 0.14121 0.9238 0.0
C943 C 0.09903 0.1238 0.90693 0.0
N944 N 0.09456 0.14309 0.91601 0.0
C945 C 0.05935 0.14948 0.901 0.0
C946 C 0.06348 0.12962 0.89152 0.0
C947 C 0.0833 0.1166 0.89462 0.0
C948 C 0.07526 0.15536 0.91346 0.0
H949 H 0.11462 0.1142 0.90889 0.0
C950 C 0.15576 0.12698 0.92944 0.0
O951 O 0.15009 0.10761 0.97993 0.0
O952 O 0.12328 0.09404 0.96307 0.0
N953 N 0.08825 0.17849 0.93534 0.0
C954 C 0.08623 0.19635 0.94627 0.0
C955 C 0.06681 0.21053 0.9454 0.0
C956 C 0.05015 0.20666 0.93292 0.0
C957 C 0.05277 0.18828 0.92171 0.0
C958 C 0.07196 0.17418 0.92366 0.0
H959 H 0.09945 0.19988 0.95544 0.0
O960 O 0.10554 0.13493 0.97711 0.0
O961 O 0.10762 0.13881 0.94956 0.0
O962 O 0.14648 0.15941 0.96734 0.0
O963 O 0.13418 0.17898 0.9447 0.0
C964 C 0.03723 0.18348 0.90857 0.0
C965 C 0.04035 0.16392 0.89837 0.0
H966 H 0.05161 0.12428 0.88178 0.0
H967 H 0.08668 0.10133 0.88729 0.0
H968 H 0.06496 0.22473 0.95406 0.0
H969 H 0.03543 0.21791 0.93206 0.0
H970 H 0.02246 0.19435 0.90651 0.0
H971 H 0.02795 0.16008 0.88861 0.0
Mn972 Mn 0.63997 0.3817 0.71848 0.0
Mn973 Mn 0.60584 0.3594 0.68818 0.0
C974 C 0.62727 0.34394 0.72039 0.0
C975 C 0.67723 0.38915 0.72854 0.0
C976 C 0.58848 0.39213 0.71495 0.0
O977 O 0.64468 0.40375 0.69862 0.0
O978 O 0.62301 0.38584 0.67911 0.0
C979 C 0.64216 0.34245 0.66532 0.0
N980 N 0.62332 0.33834 0.675 0.0
C981 C 0.62441 0.29816 0.66845 0.0
C982 C 0.64375 0.30194 0.65834 0.0
C983 C 0.65265 0.32421 0.65676 0.0
C984 C 0.61457 0.31702 0.67657 0.0
H985 H 0.6492 0.35949 0.66418 0.0
C986 C 0.63692 0.40161 0.68364 0.0
O987 O 0.65969 0.40088 0.73378 0.0
O988 O 0.67312 0.37341 0.71744 0.0
N989 N 0.58848 0.33332 0.69523 0.0
C990 C 0.56986 0.33248 0.70558 0.0
C991 C 0.55882 0.31145 0.7084 0.0
C992 C 0.567 0.29154 0.70053 0.0
C993 C 0.58597 0.29294 0.68973 0.0
C994 C 0.59597 0.31442 0.68712 0.0
H995 H 0.56345 0.34772 0.71162 0.0
O996 O 0.63422 0.35471 0.73375 0.0
O997 O 0.62796 0.35561 0.70649 0.0
O998 O 0.60725 0.39426 0.72319 0.0
O999 O 0.58651 0.38031 0.7015 0.0
C1000 C 0.59572 0.27375 0.68183 0.0
C1001 C 0.61488 0.27633 0.67116 0.0
H1002 H 0.652 0.28786 0.65185 0.0
H1003 H 0.66763 0.32727 0.64904 0.0
H1004 H 0.54414 0.31057 0.71671 0.0
H1005 H 0.5587 0.27525 0.70293 0.0
H1006 H 0.589 0.25688 0.6844 0.0
H1007 H 0.62254 0.26139 0.66541 0.0
Mn1008 Mn 0.38206 0.12794 0.53771 0.0
Mn1009 Mn 0.40042 0.16414 0.56817 0.0
C1010 C 0.41908 0.1428 0.53676 0.0
C1011 C 0.37706 0.09033 0.52754 0.0
C1012 C 0.36874 0.17878 0.53989 0.0
O1013 O 0.3593 0.12208 0.55684 0.0
O1014 O 0.37426 0.14572 0.57642 0.0
C1015 C 0.417 0.13107 0.59374 0.0
N1016 N 0.42086 0.14945 0.58354 0.0
C1017 C 0.45632 0.15802 0.59765 0.0
C1018 C 0.45282 0.13911 0.60825 0.0
C1019 C 0.43319 0.12543 0.60616 0.0
C1020 C 0.44001 0.16229 0.58511 0.0
H1021 H 0.40155 0.121 0.59254 0.0
C1022 C 0.35986 0.1305 0.57168 0.0
O1023 O 0.36475 0.10726 0.52197 0.0
O1024 O 0.39205 0.09521 0.53904 0.0
N1025 N 0.42605 0.18288 0.56221 0.0
C1026 C 0.42754 0.19953 0.55023 0.0
C1027 C 0.44674 0.21405 0.54998 0.0
C1028 C 0.46378 0.21179 0.56239 0.0
C1029 C 0.46174 0.19462 0.57467 0.0
C1030 C 0.44273 0.18005 0.57383 0.0
H1031 H 0.41408 0.20185 0.54107 0.0
O1032 O 0.40909 0.13527 0.52323 0.0
O1033 O 0.40711 0.14146 0.55055 0.0
O1034 O 0.36775 0.15964 0.53209 0.0
O1035 O 0.37996 0.18174 0.55345 0.0
C1036 C 0.47762 0.19156 0.58786 0.0
C1037 C 0.47508 0.17308 0.59921 0.0
H1038 H 0.46503 0.13499 0.61808 0.0
H1039 H 0.4303 0.11088 0.61436 0.0
H1040 H 0.44814 0.22731 0.5405 0.0
H1041 H 0.47831 0.22335 0.5624 0.0
H1042 H 0.49229 0.20283 0.58903 0.0
H1043 H 0.48778 0.17049 0.60898 0.0
Mn1044 Mn 0.6435 0.6289 0.28743 0.0
Mn1045 Mn 0.61027 0.6499 0.31865 0.0
C1046 C 0.62861 0.66583 0.28555 0.0
C1047 C 0.68081 0.62384 0.27657 0.0
C1048 C 0.59322 0.61523 0.29306 0.0
O1049 O 0.65037 0.60746 0.30731 0.0
O1050 O 0.62992 0.62521 0.32763 0.0
C1051 C 0.64639 0.67074 0.33987 0.0
N1052 N 0.62675 0.67289 0.33074 0.0
C1053 C 0.62457 0.71318 0.33677 0.0
C1054 C 0.64471 0.71142 0.34632 0.0
C1055 C 0.65567 0.69009 0.34787 0.0
C1056 C 0.61604 0.69329 0.32918 0.0
H1057 H 0.65495 0.65441 0.341 0.0
C1058 C 0.64387 0.60976 0.32261 0.0
O1059 O 0.66401 0.6106 0.27195 0.0
O1060 O 0.67592 0.63947 0.28754 0.0
N1061 N 0.59052 0.67419 0.31155 0.0
C1062 C 0.57163 0.67314 0.30148 0.0
C1063 C 0.55879 0.69309 0.29853 0.0
C1064 C 0.5655 0.71386 0.30597 0.0
C1065 C 0.58488 0.71441 0.31642 0.0
C1066 C 0.59676 0.69394 0.31914 0.0
H1067 H 0.56639 0.65725 0.2957 0.0
O1068 O 0.63544 0.65524 0.27208 0.0
O1069 O 0.63072 0.65445 0.29948 0.0
O1070 O 0.61122 0.61448 0.28378 0.0
O1071 O 0.5919 0.62693 0.30661 0.0
C1072 C 0.5932 0.7346 0.32387 0.0
C1073 C 0.61295 0.73399 0.33412 0.0
H1074 H 0.65201 0.72636 0.35239 0.0
H1075 H 0.67129 0.6886 0.35515 0.0
H1076 H 0.54385 0.69249 0.29046 0.0
H1077 H 0.55577 0.7293 0.30348 0.0
H1078 H 0.58484 0.75073 0.32135 0.0
H1079 H 0.61943 0.74969 0.33957 0.0
Mn1080 Mn 0.12408 0.89627 0.03897 0.0
Mn1081 Mn 0.10005 0.86665 0.07104 0.0
C1082 C 0.0863 0.88382 0.03696 0.0
C1083 C 0.1325 0.93234 0.02708 0.0
C1084 C 0.13352 0.84531 0.04629 0.0
O1085 O 0.14569 0.90282 0.05881 0.0
O1086 O 0.12636 0.88454 0.07942 0.0
C1087 C 0.08278 0.90584 0.091 0.0
N1088 N 0.07877 0.88592 0.08255 0.0
C1089 C 0.03853 0.88772 0.08886 0.0
C1090 C 0.04222 0.90818 0.09771 0.0
C1091 C 0.06446 0.91728 0.09877 0.0
C1092 C 0.05747 0.87701 0.08145 0.0
H1093 H 0.09982 0.91298 0.09178 0.0
C1094 C 0.14278 0.89717 0.07422 0.0
O1095 O 0.14412 0.91417 0.02296 0.0
O1096 O 0.11628 0.92949 0.038 0.0
N1097 N 0.07404 0.84869 0.06476 0.0
C1098 C 0.07331 0.82895 0.05559 0.0
C1099 C 0.05225 0.81773 0.05325 0.0
C1100 C 0.03223 0.82688 0.0604 0.0
C1101 C 0.03354 0.847 0.06999 0.0
C1102 C 0.05501 0.85719 0.07216 0.0
H1103 H 0.08864 0.82187 0.05004 0.0
O1104 O 0.09771 0.88919 0.0235 0.0
O1105 O 0.09727 0.88615 0.05109 0.0
O1106 O 0.13612 0.86278 0.03663 0.0
O1107 O 0.12126 0.84557 0.05962 0.0
C1108 C 0.01428 0.85768 0.07712 0.0
C1109 C 0.01673 0.87785 0.08672 0.0
H1110 H 0.02809 0.91713 0.10362 0.0
H1111 H 0.06746 0.93311 0.10552 0.0
H1112 H 0.05143 0.80217 0.04586 0.0
H1113 H 0.01594 0.8184 0.05836 0.0
H1114 H 0.99742 0.85103 0.07464 0.0
H1115 H 1.00165 0.88591 0.09204 0.0
Mn1116 Mn 0.87383 0.37928 0.7878 0.0
Mn1117 Mn 0.90551 0.35559 0.81883 0.0
C1118 C 0.88628 0.34149 0.7855 0.0
C1119 C 0.83709 0.38738 0.77702 0.0
C1120 C 0.92467 0.39004 0.79384 0.0
O1121 O 0.86829 0.40066 0.80796 0.0
O1122 O 0.88693 0.38079 0.82818 0.0
C1123 C 0.86843 0.33578 0.83969 0.0
N1124 N 0.88794 0.33301 0.83049 0.0
C1125 C 0.88822 0.29248 0.83582 0.0
C1126 C 0.8682 0.29486 0.84543 0.0
C1127 C 0.85826 0.31662 0.84736 0.0
C1128 C 0.89768 0.3122 0.82858 0.0
H1129 H 0.86065 0.35245 0.84112 0.0
C1130 C 0.8741 0.39726 0.82331 0.0
O1131 O 0.85491 0.39916 0.77237 0.0
O1132 O 0.84064 0.3712 0.78786 0.0
N1133 N 0.9241 0.33068 0.81129 0.0
C1134 C 0.94294 0.33116 0.80114 0.0
C1135 C 0.95471 0.31071 0.79772 0.0
C1136 C 0.94699 0.29003 0.80476 0.0
C1137 C 0.92769 0.29006 0.81529 0.0
C1138 C 0.91691 0.31099 0.8185 0.0
H1139 H 0.94892 0.34698 0.79564 0.0
O1140 O 0.88015 0.35281 0.77217 0.0
O1141 O 0.88487 0.35267 0.79958 0.0
O1142 O 0.90697 0.39168 0.78433 0.0
O1143 O 0.92509 0.37814 0.80733 0.0
C1144 C 0.91833 0.27004 0.8223 0.0
C1145 C 0.89877 0.27124 0.8327 0.0
H1146 H 0.8602 0.28008 0.85123 0.0
H1147 H 0.84275 0.3186 0.8547 0.0
H1148 H 0.96959 0.31086 0.78958 0.0
H1149 H 0.95587 0.27421 0.80189 0.0
H1150 H 0.92568 0.25363 0.81922 0.0
H1151 H 0.89155 0.25567 0.83787 0.0
H1152 H 0.19082 0.62063 0.17167 0.0
H1153 H 0.12495 0.59166 0.15955 0.0
H1154 H 0.20318 0.61516 0.14248 0.0
H1155 H 0.13725 0.58574 0.13058 0.0
H1156 H 0.15529 0.58545 0.07821 0.0
H1157 H 0.16353 0.57223 0.10688 0.0
H1158 H 0.18438 0.64078 0.12048 0.0
H1159 H 0.17567 0.65387 0.09208 0.0
C1160 C 0.17957 0.61163 0.16305 0.0
C1161 C 0.15699 0.60644 0.1678 0.0
C1162 C 0.18655 0.60873 0.14629 0.0
C1163 C 0.1711 0.60032 0.13418 0.0
C1164 C 0.14966 0.5921 0.1396 0.0
C1165 C 0.14258 0.59537 0.15624 0.0
C1166 C 0.16293 0.59732 0.08709 0.0
C1167 C 0.16495 0.62064 0.083 0.0
C1168 C 0.16744 0.5898 0.10354 0.0
C1169 C 0.17439 0.60549 0.11599 0.0
C1170 C 0.17928 0.62818 0.11118 0.0
C1171 C 0.17434 0.63574 0.09488 0.0
H1172 H 0.6619 0.92858 0.42396 0.0
H1173 H 0.68173 0.86206 0.40538 0.0
H1174 H 0.66537 0.9443 0.39554 0.0
H1175 H 0.68567 0.87775 0.37715 0.0
H1176 H 0.61774 0.9262 0.3465 0.0
H1177 H 0.635 0.9307 0.37418 0.0
H1178 H 0.69956 0.90638 0.3546 0.0
H1179 H 0.68227 0.90239 0.3267 0.0
C1180 C 0.66851 0.91767 0.41405 0.0
C1181 C 0.67136 0.89404 0.41683 0.0
C1182 C 0.67027 0.92664 0.39772 0.0
C1183 C 0.67544 0.91221 0.38406 0.0
C1184 C 0.68178 0.88939 0.38738 0.0
C1185 C 0.67959 0.88035 0.40361 0.0
C1186 C 0.63599 0.9233 0.34784 0.0
C1187 C 0.64862 0.91387 0.33448 0.0
C1188 C 0.64593 0.92579 0.36375 0.0
C1189 C 0.66858 0.91853 0.36663 0.0
C1190 C 0.68206 0.91203 0.35275 0.0
C1191 C 0.6722 0.90998 0.33672 0.0
H1192 H 0.32838 0.40247 0.67464 0.0
H1193 H 0.39368 0.42975 0.65911 0.0
H1194 H 0.31311 0.40926 0.64635 0.0
H1195 H 0.37858 0.43684 0.63106 0.0
H1196 H 0.3575 0.43793 0.58008 0.0
H1197 H 0.35154 0.45138 0.60896 0.0
H1198 H 0.32745 0.38404 0.62299 0.0
H1199 H 0.33368 0.37079 0.59434 0.0
C1200 C 0.339 0.41128 0.6655 0.0
C1201 C 0.36222 0.41553 0.66897 0.0
C1202 C 0.33034 0.41496 0.64925 0.0
C1203 C 0.34472 0.42323 0.63637 0.0
C1204 C 0.36694 0.43058 0.64065 0.0
C1205 C 0.37567 0.42656 0.65677 0.0
C1206 C 0.34955 0.4265 0.58911 0.0
C1207 C 0.346 0.40336 0.58506 0.0
C1208 C 0.34636 0.43412 0.60569 0.0
C1209 C 0.33937 0.4187 0.61834 0.0
C1210 C 0.33269 0.39645 0.6136 0.0
C1211 C 0.33619 0.3888 0.59713 0.0
H1212 H 0.83981 0.14008 0.90898 0.0
H1213 H 0.86459 0.07362 0.924 0.0
H1214 H 0.83296 0.1259 0.88063 0.0
H1215 H 0.85803 0.05925 0.89541 0.0
H1216 H 0.89671 0.07884 0.84319 0.0
H1217 H 0.88363 0.07296 0.87193 0.0
H1218 H 0.81701 0.09939 0.85846 0.0
H1219 H 0.83018 0.10494 0.82949 0.0
C1220 C 0.84246 0.12203 0.90644 0.0
C1221 C 0.85255 0.1079 0.91866 0.0
C1222 C 0.8386 0.11385 0.89015 0.0
C1223 C 0.84521 0.09147 0.88568 0.0
C1224 C 0.85283 0.07657 0.89846 0.0
C1225 C 0.85635 0.08471 0.91488 0.0
C1226 C 0.87883 0.08196 0.8461 0.0
C1227 C 0.86451 0.09242 0.83415 0.0
C1228 C 0.8713 0.07869 0.86264 0.0
C1229 C 0.84938 0.08616 0.86758 0.0
C1230 C 0.83404 0.09366 0.85505 0.0
C1231 C 0.8415 0.09657 0.8384 0.0
H1232 H 0.15636 0.43473 0.92435 0.0
H1233 H 0.17728 0.36716 0.9088 0.0
H1234 H 0.16134 0.44858 0.89544 0.0
H1235 H 0.18273 0.38091 0.88014 0.0
H1236 H 0.18352 0.40241 0.82885 0.0
H1237 H 0.19853 0.40772 0.85736 0.0
H1238 H 0.13296 0.43429 0.87318 0.0
H1239 H 0.11797 0.42853 0.8449 0.0
C1240 C 0.16346 0.42323 0.91499 0.0
C1241 C 0.1665 0.3999 0.91875 0.0
C1242 C 0.16609 0.4311 0.89842 0.0
C1243 C 0.1722 0.4158 0.88548 0.0
C1244 C 0.17823 0.39322 0.8898 0.0
C1245 C 0.17517 0.38529 0.90626 0.0
C1246 C 0.17278 0.41071 0.83817 0.0
C1247 C 0.14955 0.41496 0.83474 0.0
C1248 C 0.18132 0.41353 0.85454 0.0
C1249 C 0.16684 0.42109 0.86757 0.0
C1250 C 0.14463 0.42855 0.86344 0.0
C1251 C 0.13599 0.42532 0.8472 0.0
H1252 H 0.82994 0.86438 0.09874 0.0
H1253 H 0.85066 0.93019 0.07931 0.0
H1254 H 0.8242 0.8811 0.12642 0.0
H1255 H 0.84515 0.94712 0.10723 0.0
H1256 H 0.88916 0.93342 0.1582 0.0
H1257 H 0.87314 0.93684 0.13007 0.0
H1258 H 0.80912 0.90878 0.14795 0.0
H1259 H 0.82529 0.90563 0.17626 0.0
C1260 C 0.83194 0.88274 0.10019 0.0
C1261 C 0.84079 0.89597 0.08693 0.0
C1262 C 0.82868 0.8924 0.1161 0.0
C1263 C 0.83457 0.91542 0.11912 0.0
C1264 C 0.8406 0.92931 0.10531 0.0
C1265 C 0.84353 0.91967 0.08927 0.0
C1266 C 0.87119 0.92945 0.15636 0.0
C1267 C 0.85854 0.91911 0.16935 0.0
C1268 C 0.86195 0.93131 0.14018 0.0
C1269 C 0.83999 0.92258 0.13668 0.0
C1270 C 0.82617 0.91543 0.15024 0.0
C1271 C 0.83535 0.91389 0.16652 0.0
H1272 H 0.3398 0.64522 0.40501 0.0
H1273 H 0.36221 0.57984 0.42412 0.0
H1274 H 0.33508 0.6287 0.3771 0.0
H1275 H 0.35798 0.5632 0.39598 0.0
H1276 H 0.40233 0.58054 0.34531 0.0
H1277 H 0.38658 0.57643 0.37351 0.0
H1278 H 0.32071 0.59945 0.35545 0.0
H1279 H 0.33652 0.60309 0.32704 0.0
C1280 C 0.34234 0.62695 0.40343 0.0
C1281 C 0.35125 0.61377 0.41668 0.0
C1282 C 0.33971 0.61743 0.3874 0.0
C1283 C 0.34644 0.59467 0.38428 0.0
C1284 C 0.3527 0.58077 0.39802 0.0
C1285 C 0.3549 0.59024 0.41416 0.0
C1286 C 0.38413 0.58328 0.34714 0.0
C1287 C 0.37068 0.59222 0.33404 0.0
C1288 C 0.37505 0.58098 0.36334 0.0
C1289 C 0.35247 0.588 0.36676 0.0
C1290 C 0.33819 0.59402 0.35318 0.0
C1291 C 0.3472 0.59588 0.33687 0.0
H1292 H 0.61881 0.08192 0.65795 0.0
H1293 H 0.68452 0.10952 0.67213 0.0
H1294 H 0.63282 0.07506 0.62959 0.0
H1295 H 0.69869 0.10297 0.64353 0.0
H1296 H 0.6759 0.142 0.59227 0.0
H1297 H 0.68318 0.12842 0.62072 0.0
H1298 H 0.65895 0.06113 0.6067 0.0
H1299 H 0.65194 0.07493 0.57802 0.0
C1300 C 0.63672 0.08516 0.65525 0.0
C1301 C 0.65057 0.09626 0.66718 0.0
C1302 C 0.64481 0.08131 0.63894 0.0
C1303 C 0.66678 0.08889 0.63419 0.0
C1304 C 0.68164 0.09711 0.64678 0.0
C1305 C 0.67362 0.10062 0.66323 0.0
C1306 C 0.67357 0.12395 0.59499 0.0
C1307 C 0.66346 0.10949 0.583 0.0
C1308 C 0.67767 0.1161 0.61134 0.0
C1309 C 0.6713 0.09373 0.61607 0.0
C1310 C 0.66392 0.07847 0.60346 0.0
C1311 C 0.66014 0.08629 0.58698 0.0
H1312 H 0.89516 0.4232 0.84686 0.0
H1313 H 0.82908 0.39782 0.83143 0.0
H1314 H 0.88101 0.42837 0.87543 0.0
H1315 H 0.8148 0.4026 0.86023 0.0
H1316 H 0.85982 0.42805 0.92674 0.0
H1317 H 0.85385 0.44255 0.89816 0.0
H1318 H 0.83002 0.37573 0.88273 0.0
H1319 H 0.83639 0.36132 0.9111 0.0
C1320 C 0.87717 0.42009 0.84938 0.0
C1321 C 0.86316 0.41028 0.83697 0.0
C1322 C 0.86901 0.42297 0.8658 0.0
C1323 C 0.84682 0.41561 0.87016 0.0
C1324 C 0.83197 0.40836 0.85725 0.0
C1325 C 0.84006 0.40586 0.84072 0.0
C1326 C 0.85196 0.41689 0.91749 0.0
C1327 C 0.84865 0.39353 0.92107 0.0
C1328 C 0.84878 0.42513 0.90107 0.0
C1329 C 0.84182 0.41021 0.88812 0.0
C1330 C 0.83527 0.38774 0.89239 0.0
C1331 C 0.83885 0.37943 0.90869 0.0
H1332 H 0.33082 0.11051 0.67549 0.0
H1333 H 0.39784 0.0898 0.65854 0.0
H1334 H 0.31613 0.10647 0.64674 0.0
H1335 H 0.38322 0.08523 0.63001 0.0
H1336 H 0.35916 0.08518 0.579 0.0
H1337 H 0.35525 0.06986 0.60757 0.0
H1338 H 0.33024 0.13549 0.62457 0.0
H1339 H 0.33468 0.15079 0.59622 0.0
C1340 C 0.34203 0.10363 0.66585 0.0
C1341 C 0.36544 0.1004 0.66919 0.0
C1342 C 0.33367 0.10155 0.64936 0.0
C1343 C 0.34855 0.09575 0.63609 0.0
C1344 C 0.37123 0.08951 0.63995 0.0
C1345 C 0.37966 0.09205 0.65632 0.0
C1346 C 0.35151 0.09588 0.58863 0.0
C1347 C 0.34724 0.11918 0.58545 0.0
C1348 C 0.3495 0.08717 0.60503 0.0
C1349 C 0.34271 0.10153 0.61835 0.0
C1350 C 0.33535 0.1239 0.61459 0.0
C1351 C 0.33781 0.13271 0.59831 0.0
H1352 H 0.68458 0.64137 0.41048 0.0
H1353 H 0.65666 0.57594 0.42507 0.0
H1354 H 0.69112 0.62711 0.38216 0.0
H1355 H 0.663 0.5615 0.39654 0.0
H1356 H 0.62268 0.58367 0.34596 0.0
H1357 H 0.63717 0.57676 0.37419 0.0
H1358 H 0.70386 0.60135 0.35895 0.0
H1359 H 0.68911 0.60807 0.33046 0.0
C1360 C 0.68124 0.62344 0.40789 0.0
C1361 C 0.67 0.60981 0.41989 0.0
C1362 C 0.6849 0.61521 0.39159 0.0
C1363 C 0.67705 0.5933 0.38696 0.0
C1364 C 0.66897 0.57854 0.39968 0.0
C1365 C 0.6656 0.58672 0.4161 0.0
C1366 C 0.64078 0.58626 0.34839 0.0
C1367 C 0.6548 0.59635 0.33609 0.0
C1368 C 0.64916 0.58232 0.36461 0.0
C1369 C 0.67164 0.58882 0.36892 0.0
C1370 C 0.68644 0.59629 0.35603 0.0
C1371 C 0.67808 0.59993 0.33968 0.0
H1372 H 0.17537 0.91229 0.17732 0.0
H1373 H 0.10797 0.93424 0.16203 0.0
H1374 H 0.18932 0.91819 0.14857 0.0
H1375 H 0.12185 0.94056 0.13351 0.0
H1376 H 0.16958 0.87638 0.0974 0.0
H1377 H 0.17511 0.89059 0.12592 0.0
H1378 H 0.14845 0.95652 0.11091 0.0
H1379 H 0.14336 0.9422 0.08216 0.0
C1380 C 0.16391 0.91979 0.16809 0.0
C1381 C 0.14057 0.92275 0.17184 0.0
C1382 C 0.17185 0.92294 0.15158 0.0
C1383 C 0.15663 0.92953 0.13871 0.0
C1384 C 0.13409 0.93563 0.14311 0.0
C1385 C 0.12608 0.93206 0.15949 0.0
C1386 C 0.16638 0.89434 0.09994 0.0
C1387 C 0.1562 0.90824 0.08761 0.0
C1388 C 0.16945 0.90253 0.11632 0.0
C1389 C 0.16192 0.92463 0.12074 0.0
C1390 C 0.15435 0.93942 0.10788 0.0
C1391 C 0.15168 0.93131 0.09138 0.0
H1392 H 0.86031 0.58078 0.07761 0.0
H1393 H 0.83309 0.64651 0.09213 0.0
H1394 H 0.85729 0.56761 0.10677 0.0
H1395 H 0.82961 0.63335 0.1211 0.0
H1396 H 0.83355 0.61281 0.17328 0.0
H1397 H 0.81798 0.6063 0.145 0.0
H1398 H 0.88508 0.5857 0.12782 0.0
H1399 H 0.90051 0.59265 0.15584 0.0
C1400 C 0.85221 0.59187 0.08679 0.0
C1401 C 0.84703 0.6147 0.08266 0.0
C1402 C 0.85074 0.58441 0.10354 0.0
C1403 C 0.8436 0.59956 0.11629 0.0
C1404 C 0.83509 0.62119 0.11161 0.0
C1405 C 0.83697 0.62876 0.09496 0.0
C1406 C 0.84461 0.60564 0.16367 0.0
C1407 C 0.8682 0.60313 0.1667 0.0
C1408 C 0.83575 0.60212 0.14745 0.0
C1409 C 0.85031 0.59564 0.13414 0.0
C1410 C 0.87331 0.59041 0.13779 0.0
C1411 C 0.88221 0.59436 0.15387 0.0
H1412 H 0.1836 0.10874 0.8266 0.0
H1413 H 0.11767 0.08642 0.84474 0.0
H1414 H 0.19977 0.10331 0.85479 0.0
H1415 H 0.13366 0.08064 0.8727 0.0
H1416 H 0.15698 0.08146 0.92296 0.0
H1417 H 0.16145 0.0658 0.89458 0.0
H1418 H 0.18748 0.13107 0.8775 0.0
H1419 H 0.18263 0.14661 0.90567 0.0
C1420 C 0.17296 0.10124 0.83634 0.0
C1421 C 0.14942 0.09795 0.83357 0.0
C1422 C 0.18215 0.09835 0.85252 0.0
C1423 C 0.16796 0.09183 0.86604 0.0
C1424 C 0.14517 0.08547 0.86259 0.0
C1425 C 0.13594 0.08874 0.84654 0.0
C1426 C 0.16506 0.09196 0.91338 0.0
C1427 C 0.16936 0.11527 0.91643 0.0
C1428 C 0.16738 0.08306 0.89707 0.0
C1429 C 0.17439 0.0973 0.88372 0.0
C1430 C 0.18212 0.11956 0.88747 0.0
C1431 C 0.17943 0.12853 0.90366 0.0
H1432 H 0.67516 0.36427 0.59592 0.0
H1433 H 0.65084 0.43029 0.57939 0.0
H1434 H 0.68064 0.37925 0.62424 0.0
H1435 H 0.65587 0.44532 0.60793 0.0
H1436 H 0.68185 0.40332 0.67526 0.0
H1437 H 0.69572 0.40741 0.6463 0.0
H1438 H 0.62874 0.43078 0.6309 0.0
H1439 H 0.61494 0.42622 0.65964 0.0
C1440 C 0.67228 0.38237 0.59814 0.0
C1441 C 0.66261 0.39611 0.58548 0.0
C1442 C 0.67535 0.39099 0.61441 0.0
C1443 C 0.66837 0.41342 0.61839 0.0
C1444 C 0.66132 0.42796 0.60524 0.0
C1445 C 0.65868 0.41942 0.58884 0.0
C1446 C 0.67055 0.41069 0.66587 0.0
C1447 C 0.64735 0.41453 0.66965 0.0
C1448 C 0.67842 0.41278 0.64925 0.0
C1449 C 0.66328 0.41915 0.63627 0.0
C1450 C 0.64093 0.42603 0.64059 0.0
C1451 C 0.63299 0.42352 0.6571 0.0
H1452 H 0.39337 0.92259 0.34351 0.0
H1453 H 0.32587 0.89697 0.33219 0.0
H1454 H 0.38152 0.93085 0.37224 0.0
H1455 H 0.31384 0.90496 0.36116 0.0
H1456 H 0.3372 0.86847 0.41319 0.0
H1457 H 0.32943 0.88038 0.38439 0.0
H1458 H 0.35722 0.94734 0.39531 0.0
H1459 H 0.3647 0.93527 0.42435 0.0
C1460 C 0.37557 0.92006 0.34693 0.0
C1461 C 0.36049 0.90931 0.33567 0.0
C1462 C 0.36872 0.92472 0.36344 0.0
C1463 C 0.34679 0.91824 0.36908 0.0
C1464 C 0.33087 0.91003 0.3572 0.0
C1465 C 0.33766 0.9057 0.34057 0.0
C1466 C 0.34026 0.88617 0.40972 0.0
C1467 C 0.35142 0.90099 0.42095 0.0
C1468 C 0.33589 0.89305 0.39317 0.0
C1469 C 0.34305 0.91474 0.38746 0.0
C1470 C 0.35164 0.9305 0.39931 0.0
C1471 C 0.35568 0.92368 0.41599 0.0
H1472 H 0.06531 0.6677 0.01497 0.0
H1473 H 0.06394 0.60873 0.04757 0.0
H1474 H 0.02346 0.66931 0.01545 0.0
H1475 H 0.02234 0.60873 0.04701 0.0
H1476 H 0.94984 0.62542 0.05902 0.0
H1477 H 0.99113 0.6256 0.05779 0.0
H1478 H 0.98817 0.65604 0.00807 0.0
H1479 H 0.94648 0.65674 0.00994 0.0
C1480 C 0.0559 0.65494 0.02208 0.0
C1481 C 0.06764 0.6387 0.0318 0.0
C1482 C 0.03187 0.6556 0.02222 0.0
C1483 C 0.01912 0.63945 0.0316 0.0
C1484 C 0.03123 0.62214 0.04024 0.0
C1485 C 0.05515 0.62196 0.04049 0.0
C1486 C 0.95806 0.6331 0.04818 0.0
C1487 C 0.94497 0.64187 0.03488 0.0
C1488 C 0.98192 0.6327 0.04721 0.0
C1489 C 0.99349 0.64087 0.0328 0.0
C1490 C 0.98022 0.65 0.01955 0.0
C1491 C 0.95625 0.65041 0.02058 0.0
H1492 H 0.65633 0.69578 0.30111 0.0
H1493 H 0.59668 0.69223 0.26928 0.0
H1494 H 0.65359 0.73721 0.30183 0.0
H1495 H 0.59234 0.73385 0.27105 0.0
H1496 H 0.60271 0.81148 0.26581 0.0
H1497 H 0.60373 0.76986 0.26401 0.0
H1498 H 0.63556 0.76727 0.31327 0.0
H1499 H 0.63631 0.80866 0.31408 0.0
C1500 C 0.64237 0.70404 0.29445 0.0
C1501 C 0.62634 0.69095 0.28553 0.0
C1502 C 0.64056 0.72786 0.29499 0.0
C1503 C 0.62232 0.73926 0.2869 0.0
C1504 C 0.60673 0.72598 0.2774 0.0
C1505 C 0.60899 0.70207 0.27648 0.0
C1506 C 0.6095 0.80184 0.27636 0.0
C1507 C 0.61876 0.81329 0.29035 0.0
C1508 C 0.61004 0.77788 0.27539 0.0
C1509 C 0.61981 0.76476 0.28845 0.0
C1510 C 0.62817 0.77643 0.30277 0.0
C1511 C 0.62802 0.80033 0.30354 0.0
H1512 H 0.44277 0.35012 0.51734 0.0
H1513 H 0.44683 0.40969 0.54917 0.0
H1514 H 0.48447 0.34636 0.51812 0.0
H1515 H 0.48837 0.40756 0.54887 0.0
H1516 H 0.56214 0.35452 0.51322 0.0
H1517 H 0.52057 0.35727 0.51099 0.0
H1518 H 0.51854 0.38958 0.56007 0.0
H1519 H 0.55975 0.38774 0.56162 0.0
C1520 C 0.45275 0.36256 0.52433 0.0
C1521 C 0.44175 0.3796 0.53376 0.0
C1522 C 0.47671 0.36066 0.52464 0.0
C1523 C 0.49019 0.37633 0.53391 0.0
C1524 C 0.47889 0.39445 0.54222 0.0
C1525 C 0.455 0.39588 0.5423 0.0
C1526 C 0.55257 0.36169 0.52366 0.0
C1527 C 0.5641 0.37018 0.53787 0.0
C1528 C 0.52866 0.36329 0.52242 0.0
C1529 C 0.5157 0.37358 0.53536 0.0
C1530 C 0.5275 0.38162 0.54972 0.0
C1531 C 0.5513 0.38005 0.55089 0.0
H1532 H 0.85733 0.31227 0.80075 0.0
H1533 H 0.91672 0.31417 0.7686 0.0
H1534 H 0.85824 0.27071 0.80077 0.0
H1535 H 0.91919 0.27235 0.76964 0.0
H1536 H 0.90677 0.19518 0.76411 0.0
H1537 H 0.9064 0.23685 0.76235 0.0
H1538 H 0.87529 0.23977 0.81182 0.0
H1539 H 0.87441 0.1984 0.81281 0.0
C1540 C 0.87083 0.30362 0.79386 0.0
C1541 C 0.88736 0.31628 0.78509 0.0
C1542 C 0.87156 0.27971 0.79398 0.0
C1543 C 0.8892 0.26776 0.78561 0.0
C1544 C 0.90523 0.28064 0.7762 0.0
C1545 C 0.90405 0.30466 0.77571 0.0
C1546 C 0.90032 0.20491 0.77472 0.0
C1547 C 0.8913 0.19357 0.78885 0.0
C1548 C 0.90014 0.22888 0.77376 0.0
C1549 C 0.89085 0.24214 0.78694 0.0
C1550 C 0.88246 0.23055 0.80128 0.0
C1551 C 0.88246 0.20664 0.80212 0.0
H1552 H 0.95147 0.3539 0.9921 0.0
H1553 H 0.95353 0.38577 0.94318 0.0
H1554 H 0.99297 0.35681 0.99418 0.0
H1555 H 0.9948 0.38727 0.94442 0.0
H1556 H 0.06664 0.40775 0.95467 0.0
H1557 H 0.02513 0.40549 0.95491 0.0
H1558 H 0.02906 0.34617 0.98766 0.0
H1559 H 0.0707 0.35021 0.98849 0.0
C1560 C 0.96096 0.36075 0.98151 0.0
C1561 C 0.94932 0.36886 0.96721 0.0
C1562 C 0.98486 0.36242 0.98264 0.0
C1563 C 0.99777 0.37226 0.96948 0.0
C1564 C 0.98589 0.37978 0.95499 0.0
C1565 C 0.96205 0.37832 0.95398 0.0
C1566 C 0.05847 0.39435 0.96198 0.0
C1567 C 0.07172 0.37869 0.97113 0.0
C1568 C 0.03459 0.39282 0.96201 0.0
C1569 C 0.02329 0.37516 0.97087 0.0
C1570 C 0.03677 0.36012 0.9807 0.0
C1571 C 0.06073 0.36217 0.98106 0.0
H1572 H 0.90885 0.81904 0.23855 0.0
H1573 H 0.87572 0.8146 0.19018 0.0
H1574 H 0.90981 0.77741 0.24037 0.0
H1575 H 0.87845 0.77332 0.191 0.0
H1576 H 0.86173 0.70074 0.20262 0.0
H1577 H 0.86209 0.74225 0.2022 0.0
H1578 H 0.92297 0.74204 0.23345 0.0
H1579 H 0.92098 0.70021 0.23496 0.0
C1580 C 0.90259 0.80908 0.22799 0.0
C1581 C 0.89291 0.82007 0.21395 0.0
C1582 C 0.90319 0.78512 0.22897 0.0
C1583 C 0.89416 0.77154 0.21587 0.0
C1584 C 0.88532 0.78281 0.20153 0.0
C1585 C 0.88435 0.80668 0.20074 0.0
C1586 C 0.87509 0.70969 0.20946 0.0
C1587 C 0.89171 0.69743 0.21843 0.0
C1588 C 0.87553 0.73358 0.20909 0.0
C1589 C 0.89298 0.74592 0.21737 0.0
C1590 C 0.90914 0.73344 0.22695 0.0
C1591 C 0.90823 0.70942 0.22771 0.0
H1592 H 0.44826 0.6687 0.4835 0.0
H1593 H 0.44921 0.60806 0.45265 0.0
H1594 H 0.49006 0.67078 0.48216 0.0
H1595 H 0.49077 0.60853 0.45243 0.0
H1596 H 0.56331 0.62267 0.44018 0.0
H1597 H 0.52195 0.6244 0.44102 0.0
H1598 H 0.52546 0.65835 0.48947 0.0
H1599 H 0.56708 0.65811 0.48766 0.0
C1600 C 0.45757 0.65567 0.47662 0.0
C1601 C 0.44569 0.63872 0.46768 0.0
C1602 C 0.48159 0.65662 0.47597 0.0
C1603 C 0.49422 0.64009 0.46686 0.0
C1604 C 0.482 0.62223 0.45895 0.0
C1605 C 0.45808 0.62174 0.4592 0.0
C1606 C 0.55521 0.63158 0.45053 0.0
C1607 C 0.56843 0.64108 0.46348 0.0
C1608 C 0.5313 0.63203 0.45134 0.0
C1609 C 0.51985 0.64141 0.46541 0.0
C1610 C 0.53328 0.65131 0.47825 0.0
C1611 C 0.55724 0.65115 0.47728 0.0
H1612 H 0.63902 0.20202 0.69 0.0
H1613 H 0.60477 0.19689 0.73789 0.0
H1614 H 0.63825 0.2433 0.69183 0.0
H1615 H 0.60585 0.23833 0.74081 0.0
H1616 H 0.59732 0.31596 0.73722 0.0
H1617 H 0.59453 0.27431 0.73514 0.0
H1618 H 0.65473 0.27388 0.70316 0.0
H1619 H 0.65573 0.31537 0.7041 0.0
C1620 C 0.63059 0.20983 0.70067 0.0
C1621 C 0.62106 0.19624 0.71341 0.0
C1622 C 0.63077 0.23369 0.70208 0.0
C1623 C 0.62216 0.24472 0.7166 0.0
C1624 C 0.6123 0.23092 0.72926 0.0
C1625 C 0.61172 0.20703 0.72765 0.0
C1626 C 0.60975 0.30674 0.72969 0.0
C1627 C 0.62619 0.31873 0.72032 0.0
C1628 C 0.60841 0.28278 0.72861 0.0
C1629 C 0.62409 0.27026 0.71863 0.0
C1630 C 0.64159 0.28255 0.71034 0.0
C1631 C 0.64241 0.30644 0.711 0.0
H1632 H 0.40981 0.31603 0.74052 0.0
H1633 H 0.37579 0.31203 0.69247 0.0
H1634 H 0.40792 0.27451 0.7432 0.0
H1635 H 0.37541 0.27084 0.69421 0.0
H1636 H 0.35709 0.19895 0.70541 0.0
H1637 H 0.35838 0.24045 0.70531 0.0
H1638 H 0.41875 0.23839 0.7371 0.0
H1639 H 0.41566 0.19667 0.73835 0.0
C1640 C 0.40273 0.30613 0.73021 0.0
C1641 C 0.39373 0.31723 0.71597 0.0
C1642 C 0.40164 0.28222 0.7317 0.0
C1643 C 0.39151 0.26878 0.71895 0.0
C1644 C 0.38315 0.28014 0.70449 0.0
C1645 C 0.38399 0.30396 0.70315 0.0
C1646 C 0.37051 0.20752 0.71245 0.0
C1647 C 0.38672 0.19477 0.72145 0.0
C1648 C 0.37149 0.23141 0.71228 0.0
C1649 C 0.38917 0.24325 0.72072 0.0
C1650 C 0.40477 0.23026 0.73044 0.0
C1651 C 0.40326 0.20627 0.73104 0.0
H1652 H 0.10082 0.70068 0.23587 0.0
H1653 H 0.16198 0.7073 0.20593 0.0
H1654 H 0.09647 0.74234 0.2362 0.0
H1655 H 0.15913 0.74878 0.20732 0.0
H1656 H 0.13714 0.82014 0.19525 0.0
H1657 H 0.14074 0.77902 0.19626 0.0
H1658 H 0.10694 0.77822 0.24483 0.0
H1659 H 0.1032 0.81984 0.24344 0.0
C1660 C 0.11347 0.7112 0.22954 0.0
C1661 C 0.13116 0.70097 0.22029 0.0
C1662 C 0.11121 0.73512 0.22987 0.0
C1663 C 0.12714 0.7493 0.22145 0.0
C1664 C 0.14587 0.73873 0.21334 0.0
C1665 C 0.14769 0.71489 0.21262 0.0
C1666 C 0.12967 0.81107 0.20581 0.0
C1667 C 0.11918 0.82308 0.21897 0.0
C1668 C 0.13212 0.78734 0.20663 0.0
C1669 C 0.12397 0.77478 0.22059 0.0
C1670 C 0.11303 0.78694 0.23366 0.0
C1671 C 0.11083 0.81084 0.2329 0.0
H1672 H 0.15389 0.19705 0.79886 0.0
H1673 H 0.09419 0.1955 0.767 0.0
H1674 H 0.15267 0.23858 0.79941 0.0
H1675 H 0.0914 0.23727 0.7686 0.0
H1676 H 0.10377 0.31467 0.76375 0.0
H1677 H 0.10402 0.27302 0.7616 0.0
H1678 H 0.13549 0.2691 0.81093 0.0
H1679 H 0.13668 0.31042 0.81222 0.0
C1680 C 0.14024 0.20577 0.79217 0.0
C1681 C 0.12373 0.19321 0.7833 0.0
C1682 C 0.13933 0.22966 0.79259 0.0
C1683 C 0.12152 0.24168 0.78446 0.0
C1684 C 0.10548 0.22892 0.77499 0.0
C1685 C 0.10684 0.20493 0.77418 0.0
C1686 C 0.11029 0.30473 0.77423 0.0
C1687 C 0.11951 0.31577 0.78842 0.0
C1688 C 0.1104 0.28077 0.77306 0.0
C1689 C 0.11978 0.26724 0.78607 0.0
C1690 C 0.12829 0.27854 0.80049 0.0
C1691 C 0.12844 0.30242 0.80152 0.0
H1692 H 0.41148 0.69346 0.26223 0.0
H1693 H 0.37774 0.69395 0.31048 0.0
H1694 H 0.40788 0.73503 0.26053 0.0
H1695 H 0.37473 0.73511 0.30935 0.0
H1696 H 0.35347 0.80676 0.29919 0.0
H1697 H 0.35634 0.76526 0.29833 0.0
H1698 H 0.41819 0.77106 0.26844 0.0
H1699 H 0.41375 0.81268 0.26823 0.0
C1700 C 0.40399 0.70262 0.27274 0.0
C1701 C 0.39563 0.69058 0.28676 0.0
C1702 C 0.40188 0.72651 0.27181 0.0
C1703 C 0.39112 0.73892 0.28484 0.0
C1704 C 0.3831 0.7266 0.29896 0.0
C1705 C 0.38531 0.70283 0.29988 0.0
C1706 C 0.36759 0.79901 0.29241 0.0
C1707 C 0.38386 0.81276 0.28428 0.0
C1708 C 0.36942 0.77515 0.29199 0.0
C1709 C 0.38794 0.7644 0.28374 0.0
C1710 C 0.40361 0.77839 0.27489 0.0
C1711 C 0.40131 0.80231 0.27491 0.0
H1712 H 0.44633 0.16117 0.51235 0.0
H1713 H 0.44839 0.12719 0.56052 0.0
H1714 H 0.48792 0.15806 0.51013 0.0
H1715 H 0.48954 0.1247 0.55887 0.0
H1716 H 0.56098 0.10393 0.54763 0.0
H1717 H 0.51945 0.10651 0.54729 0.0
H1718 H 0.52407 0.16875 0.51772 0.0
H1719 H 0.56574 0.16462 0.51697 0.0
C1720 C 0.45584 0.15373 0.52273 0.0
C1721 C 0.44424 0.14515 0.53688 0.0
C1722 C 0.47973 0.15191 0.5215 0.0
C1723 C 0.49256 0.14123 0.53435 0.0
C1724 C 0.48068 0.13301 0.54861 0.0
C1725 C 0.45692 0.13492 0.54982 0.0
C1726 C 0.55297 0.11808 0.54103 0.0
C1727 C 0.5664 0.13455 0.53283 0.0
C1728 C 0.5291 0.11974 0.54091 0.0
C1729 C 0.51802 0.13827 0.53291 0.0
C1730 C 0.53167 0.15416 0.52399 0.0
C1731 C 0.55561 0.15204 0.5237 0.0
H1732 H 0.9428 0.88753 0.06328 0.0
H1733 H 0.94174 0.85247 0.01555 0.0
H1734 H 0.98393 0.89055 0.06185 0.0
H1735 H 0.98326 0.85619 0.0135 0.0
H1736 H 0.06112 0.85129 0.02053 0.0
H1737 H 0.01953 0.8465 0.02111 0.0
H1738 H 0.01373 0.90887 0.05039 0.0
H1739 H 0.0552 0.91208 0.05092 0.0
C1740 C 0.95156 0.87966 0.05275 0.0
C1741 C 0.93915 0.86897 0.03987 0.0
C1742 C 0.9753 0.88189 0.05164 0.0
C1743 C 0.98744 0.8736 0.03753 0.0
C1744 C 0.97489 0.86244 0.02476 0.0
C1745 C 0.95102 0.86025 0.0259 0.0
C1746 C 0.05075 0.86377 0.02715 0.0
C1747 C 0.0612 0.88148 0.03626 0.0
C1748 C 0.02685 0.86127 0.02735 0.0
C1749 C 0.01288 0.87697 0.03616 0.0
C1750 C 0.02362 0.89574 0.04411 0.0
C1751 C 0.04746 0.89778 0.04432 0.0
H1752 H 0.45087 0.84873 0.48712 0.0
H1753 H 0.45312 0.90668 0.45357 0.0
H1754 H 0.49246 0.84465 0.48494 0.0
H1755 H 0.4946 0.90422 0.45237 0.0
H1756 H 0.56591 0.88573 0.4393 0.0
H1757 H 0.52453 0.88574 0.44101 0.0
H1758 H 0.52856 0.85647 0.49107 0.0
H1759 H 0.57007 0.85489 0.48851 0.0
C1760 C 0.46043 0.86075 0.47945 0.0
C1761 C 0.44892 0.87748 0.47004 0.0
C1762 C 0.48433 0.85865 0.47829 0.0
C1763 C 0.49726 0.87381 0.46817 0.0
C1764 C 0.48551 0.89153 0.45972 0.0
C1765 C 0.46166 0.89316 0.46051 0.0
C1766 C 0.55785 0.87823 0.45027 0.0
C1767 C 0.57118 0.86952 0.46347 0.0
C1768 C 0.53398 0.87879 0.45153 0.0
C1769 C 0.52273 0.87127 0.46628 0.0
C1770 C 0.53623 0.86209 0.47937 0.0
C1771 C 0.56013 0.86122 0.47796 0.0
H1772 H 0.06563 0.12499 0.93998 0.0
H1773 H 0.06883 0.16075 0.98736 0.0
H1774 H 0.02445 0.1232 0.94196 0.0
H1775 H 0.0274 0.15778 0.99019 0.0
H1776 H 0.94942 0.16334 0.9853 0.0
H1777 H 0.99102 0.16757 0.98374 0.0
H1778 H 0.99459 0.10569 0.95369 0.0
H1779 H 0.95311 0.10315 0.9541 0.0
C1780 C 0.05736 0.13326 0.95055 0.0
C1781 C 0.07039 0.14385 0.96314 0.0
C1782 C 0.03358 0.13168 0.95201 0.0
C1783 C 0.02204 0.14028 0.96631 0.0
C1784 C 0.03524 0.15129 0.9788 0.0
C1785 C 0.05909 0.15302 0.97722 0.0
C1786 C 0.95931 0.15085 0.9783 0.0
C1787 C 0.9482 0.13348 0.96927 0.0
C1788 C 0.98323 0.15302 0.97754 0.0
C1789 C 0.99659 0.1373 0.96822 0.0
C1790 C 0.98521 0.11886 0.96034 0.0
C1791 C 0.96135 0.11718 0.96068 0.0
H1792 H 0.12966 0.4705 0.96251 0.0
H1793 H 0.16406 0.44408 0.00658 0.0
H1794 H 0.13321 0.50942 0.97355 0.0
H1795 H 0.16722 0.48315 0.0178 0.0
H1796 H 0.13187 0.55032 0.03934 0.0
H1797 H 0.13615 0.51176 0.02789 0.0
H1798 H 0.16372 0.54003 0.98191 0.0
H1799 H 0.15985 0.57887 0.99357 0.0
C1800 C 0.13816 0.47302 0.9745 0.0
C1801 C 0.14649 0.45417 0.98371 0.0
C1802 C 0.14032 0.49535 0.98076 0.0
C1803 C 0.15047 0.49937 0.99654 0.0
C1804 C 0.15925 0.48057 0.00561 0.0
C1805 C 0.1575 0.45823 0.99918 0.0
C1806 C 0.13915 0.54834 0.02687 0.0
C1807 C 0.14547 0.56766 0.01733 0.0
C1808 C 0.14171 0.52621 0.02035 0.0
C1809 C 0.15024 0.52283 0.00399 0.0
C1810 C 0.15702 0.54212 0.99454 0.0
C1811 C 0.15492 0.56432 1.00123 0.0
H1812 H 0.79416 0.86928 0.21262 0.0
H1813 H 0.82096 0.90133 0.2575 0.0
H1814 H 0.75562 0.87003 0.22473 0.0
H1815 H 0.78236 0.90163 0.26976 0.0
H1816 H 0.71513 0.86725 0.29143 0.0
H1817 H 0.7536 0.87001 0.27934 0.0
H1818 H 0.72529 0.90012 0.23426 0.0
H1819 H 0.68676 0.89782 0.24651 0.0
C1820 C 0.79183 0.87653 0.22507 0.0
C1821 C 0.81067 0.88523 0.2341 0.0
C1822 C 0.76971 0.87706 0.23196 0.0
C1823 C 0.76591 0.88587 0.24821 0.0
C1824 C 0.78474 0.89463 0.25724 0.0
C1825 C 0.80682 0.89454 0.2502 0.0
C1826 C 0.7171 0.87459 0.27898 0.0
C1827 C 0.69784 0.88229 0.26993 0.0
C1828 C 0.73917 0.87627 0.27209 0.0
C1829 C 0.74251 0.88526 0.25584 0.0
C1830 C 0.72327 0.89301 0.24678 0.0
C1831 C 0.70121 0.89177 0.25382 0.0
H1832 H 0.35106 0.44253 0.49528 0.0
H1833 H 0.38144 0.47093 0.54025 0.0
H1834 H 0.3484 0.48121 0.48318 0.0
H1835 H 0.37836 0.50939 0.52835 0.0
H1836 H 0.35255 0.57771 0.50618 0.0
H1837 H 0.34821 0.53914 0.51819 0.0
H1838 H 0.37998 0.51016 0.47398 0.0
H1839 H 0.38472 0.54852 0.46218 0.0
C1840 C 0.35679 0.45704 0.50268 0.0
C1841 C 0.36657 0.45367 0.51868 0.0
C1842 C 0.35536 0.47914 0.49574 0.0
C1843 C 0.36317 0.49836 0.50482 0.0
C1844 C 0.37202 0.49501 0.5211 0.0
C1845 C 0.3739 0.47294 0.52787 0.0
C1846 C 0.35836 0.56307 0.49898 0.0
C1847 C 0.3691 0.56618 0.48329 0.0
C1848 C 0.35595 0.54102 0.50586 0.0
C1849 C 0.36373 0.5216 0.49701 0.0
C1850 C 0.37362 0.52471 0.48104 0.0
C1851 C 0.37647 0.54672 0.47434 0.0
H1852 H 0.79448 0.14099 0.79123 0.0
H1853 H 0.82224 0.1092 0.74658 0.0
H1854 H 0.75603 0.13935 0.77894 0.0
H1855 H 0.78379 0.10801 0.73416 0.0
H1856 H 0.71692 0.14197 0.71185 0.0
H1857 H 0.7551 0.13952 0.72441 0.0
H1858 H 0.72608 0.10872 0.76899 0.0
H1859 H 0.68778 0.1107 0.75625 0.0
C1860 C 0.79237 0.13358 0.77882 0.0
C1861 C 0.81146 0.12525 0.76988 0.0
C1862 C 0.77032 0.13254 0.77182 0.0
C1863 C 0.76686 0.12358 0.75557 0.0
C1864 C 0.78592 0.11511 0.74668 0.0
C1865 C 0.80792 0.11571 0.75382 0.0
C1866 C 0.71867 0.13452 0.72429 0.0
C1867 C 0.69928 0.12654 0.73305 0.0
C1868 C 0.74057 0.13302 0.73144 0.0
C1869 C 0.74362 0.12394 0.7477 0.0
C1870 C 0.72426 0.11589 0.75647 0.0
C1871 C 0.70236 0.11693 0.74915 0.0
H1872 H 0.89423 0.54501 0.04033 0.0
H1873 H 0.86074 0.57007 0.99547 0.0
H1874 H 0.8928 0.50595 0.02913 0.0
H1875 H 0.85979 0.531 0.98411 0.0
H1876 H 0.894 0.46326 0.96326 0.0
H1877 H 0.89151 0.50208 0.97472 0.0
H1878 H 0.86204 0.47523 0.02051 0.0
H1879 H 0.86404 0.4363 0.00887 0.0
C1880 C 0.88651 0.54218 0.0281 0.0
C1881 C 0.87762 0.56068 0.01879 0.0
C1882 C 0.88559 0.51978 0.02172 0.0
C1883 C 0.87621 0.51538 0.00573 0.0
C1884 C 0.86722 0.53386 0.99644 0.0
C1885 C 0.86768 0.55621 0.00298 0.0
C1886 C 0.88683 0.46562 0.97573 0.0
C1887 C 0.87922 0.44666 0.98516 0.0
C1888 C 0.88531 0.48789 0.98226 0.0
C1889 C 0.8766 0.49174 0.99852 0.0
C1890 C 0.86892 0.4728 0.00796 0.0
C1891 C 0.86997 0.45053 1.00127 0.0
H1892 H 0.21511 0.1338 0.78958 0.0
H1893 H 0.18778 0.10351 0.74422 0.0
H1894 H 0.25388 0.13044 0.77828 0.0
H1895 H 0.22678 0.1006 0.73271 0.0
H1896 H 0.29561 0.13583 0.71302 0.0
H1897 H 0.25669 0.13197 0.72404 0.0
H1898 H 0.28329 0.09933 0.76874 0.0
H1899 H 0.32236 0.10275 0.75752 0.0
C1900 C 0.21741 0.12627 0.77722 0.0
C1901 C 0.19836 0.11898 0.76777 0.0
C1902 C 0.23965 0.12422 0.7708 0.0
C1903 C 0.2434 0.11527 0.75461 0.0
C1904 C 0.2244 0.10763 0.74522 0.0
C1905 C 0.20211 0.10921 0.75182 0.0
C1906 C 0.29316 0.12757 0.72511 0.0
C1907 C 0.31209 0.11967 0.73443 0.0
C1908 C 0.27084 0.12524 0.73137 0.0
C1909 C 0.26692 0.11537 0.74726 0.0
C1910 C 0.2858 0.10707 0.75647 0.0
C1911 C 0.30814 0.10896 0.75003 0.0
H1912 H 0.65107 0.43767 0.49747 0.0
H1913 H 0.61782 0.46515 0.54163 0.0
H1914 H 0.65321 0.4763 0.48539 0.0
H1915 H 0.62041 0.50376 0.52971 0.0
H1916 H 0.65074 0.57203 0.50827 0.0
H1917 H 0.65171 0.53351 0.52072 0.0
H1918 H 0.62257 0.50559 0.47517 0.0
H1919 H 0.62114 0.54399 0.4629 0.0
C1920 C 0.64443 0.45196 0.50468 0.0
C1921 C 0.63421 0.4483 0.5205 0.0
C1922 C 0.64558 0.47407 0.49773 0.0
C1923 C 0.63699 0.4931 0.5066 0.0
C1924 C 0.62733 0.4895 0.52261 0.0
C1925 C 0.62575 0.46735 0.5294 0.0
C1926 C 0.64466 0.55765 0.5009 0.0
C1927 C 0.63581 0.56111 0.48461 0.0
C1928 C 0.64512 0.53561 0.50805 0.0
C1929 C 0.63724 0.51648 0.49892 0.0
C1930 C 0.62893 0.51992 0.48248 0.0
C1931 C 0.62801 0.54196 0.47549 0.0
H1932 H 0.21254 0.87727 0.21321 0.0
H1933 H 0.18729 0.91019 0.25822 0.0
H1934 H 0.25161 0.87896 0.22437 0.0
H1935 H 0.22638 0.91146 0.26951 0.0
H1936 H 0.29262 0.8747 0.29049 0.0
H1937 H 0.25422 0.87927 0.27879 0.0
H1938 H 0.28306 0.90856 0.23359 0.0
H1939 H 0.32176 0.90443 0.24552 0.0
C1940 C 0.21534 0.88501 0.22544 0.0
C1941 C 0.19677 0.89352 0.23485 0.0
C1942 C 0.23776 0.88609 0.23178 0.0
C1943 C 0.2421 0.89531 0.24783 0.0
C1944 C 0.22357 0.90417 0.25713 0.0
C1945 C 0.2012 0.9035 0.25064 0.0
C1946 C 0.29081 0.88236 0.27812 0.0
C1947 C 0.31026 0.88918 0.26892 0.0
C1948 C 0.26877 0.88508 0.27146 0.0
C1949 C 0.26557 0.89427 0.25527 0.0
C1950 C 0.28499 0.90136 0.24609 0.0
C1951 C 0.30711 0.8991 0.25294 0.0
H1952 H 0.65615 0.07256 0.49241 0.0
H1953 H 0.62721 0.04306 0.53752 0.0
H1954 H 0.65907 0.03406 0.47997 0.0
H1955 H 0.63054 1.00485 0.52531 0.0
H1956 H 0.65912 0.93772 0.50347 0.0
H1957 H 0.66155 0.97647 0.51524 0.0
H1958 H 0.62865 1.00355 0.4708 0.0
H1959 H 0.62584 0.96482 0.45916 0.0
C1960 C 0.65075 0.05787 0.49975 0.0
C1961 C 0.6414 0.06086 0.51592 0.0
C1962 C 0.6523 0.03587 0.49261 0.0
C1963 C 0.64504 0.0164 0.50167 0.0
C1964 C 0.63645 0.01943 0.51805 0.0
C1965 C 0.63445 0.04136 0.52501 0.0
C1966 C 0.65257 0.95195 0.49616 0.0
C1967 C 0.64217 0.94815 0.48042 0.0
C1968 C 0.65391 0.97413 0.50291 0.0
C1969 C 0.6453 0.99309 0.49394 0.0
C1970 C 0.63561 0.98936 0.47796 0.0
C1971 C 0.63387 0.96714 0.47135 0.0
H1972 H 0.19643 0.4155 0.75839 0.0
H1973 H 0.21125 0.34932 0.78013 0.0
H1974 H 0.23544 0.41704 0.74674 0.0
H1975 H 0.24981 0.35071 0.76828 0.0
H1976 H 0.30394 0.34965 0.72559 0.0
H1977 H 0.2656 0.35038 0.73779 0.0
H1978 H 0.27858 0.41777 0.75796 0.0
H1979 H 0.31744 0.4169 0.74595 0.0
C1980 C 0.20796 0.4013 0.76067 0.0
C1981 C 0.20068 0.38227 0.77016 0.0
C1982 C 0.23032 0.40225 0.75408 0.0
C1983 C 0.24569 0.38396 0.75655 0.0
C1984 C 0.23836 0.36499 0.76606 0.0
C1985 C 0.21625 0.36425 0.77289 0.0
C1986 C 0.2987 0.36467 0.73262 0.0
C1987 C 0.31383 0.3832 0.73482 0.0
C1988 C 0.27672 0.36503 0.73967 0.0
C1989 C 0.26905 0.3841 0.74887 0.0
C1990 C 0.28398 0.40287 0.75087 0.0
C1991 C 0.30625 0.40232 0.74407 0.0
H1992 H 0.88533 0.96337 0.04344 0.0
H1993 H 0.85361 0.93611 0.99858 0.0
H1994 H 0.88385 1.00193 0.03137 0.0
H1995 H 0.85259 0.97472 0.98636 0.0
H1996 H 0.88885 0.0412 0.9647 0.0
H1997 H 0.88481 1.00298 0.97694 0.0
H1998 H 0.85375 0.0324 0.02126 0.0
H1999 H 0.85732 0.0708 0.0088 0.0
C2000 C 0.87793 0.96562 0.03103 0.0
C2001 C 0.86963 0.94664 0.02196 0.0
C2002 C 0.87697 0.98774 0.02416 0.0
C2003 C 0.86813 0.99139 0.0079 0.0
C2004 C 0.85959 0.97244 0.99889 0.0
C2005 C 0.86009 0.95036 0.00591 0.0
C2006 C 0.88094 0.03953 0.97699 0.0
C2007 C 0.87343 0.05906 0.98579 0.0
C2008 C 0.87853 0.0176 0.98396 0.0
C2009 C 0.86898 0.01465 1.00007 0.0
C2010 C 0.86125 0.03415 0.00884 0.0
C2011 C 0.86319 0.0561 1.00168 0.0
H2012 H 0.3016 0.63696 0.29174 0.0
H2013 H 0.32739 0.60365 0.24705 0.0
H2014 H 0.26265 0.63507 0.28037 0.0
H2015 H 0.28843 0.60218 0.23555 0.0
H2016 H 0.22247 0.63904 0.21408 0.0
H2017 H 0.26072 0.63448 0.22603 0.0
H2018 H 0.23133 0.60513 0.27102 0.0
H2019 H 0.19277 0.60924 0.25882 0.0
C2020 C 0.29894 0.6291 0.27953 0.0
C2021 C 0.31763 0.62054 0.27027 0.0
C2022 C 0.2766 0.62789 0.27308 0.0
C2023 C 0.27245 0.61849 0.25706 0.0
C2024 C 0.29109 0.60959 0.24791 0.0
C2025 C 0.31339 0.61038 0.25451 0.0
C2026 C 0.22413 0.63136 0.22645 0.0
C2027 C 0.20457 0.62452 0.23551 0.0
C2028 C 0.24608 0.62865 0.23326 0.0
C2029 C 0.24907 0.61946 0.24947 0.0
C2030 C 0.22954 0.61233 0.25851 0.0
C2031 C 0.20751 0.61457 0.25151 0.0
H2032 H 0.39101 0.05042 0.54233 0.0
H2033 H 0.35789 0.07659 0.49765 0.0
H2034 H 0.38893 0.01154 0.53088 0.0
H2035 H 0.35629 0.03767 0.48604 0.0
H2036 H 0.39115 0.97017 0.46489 0.0
H2037 H 0.38812 0.00881 0.47656 0.0
H2038 H 0.35786 0.9812 0.52183 0.0
H2039 H 0.3604 0.94241 0.50996 0.0
C2040 C 0.3832 0.04787 0.53009 0.0
C2041 C 0.37465 0.06662 0.52089 0.0
C2042 C 0.3819 0.02557 0.52358 0.0
C2043 C 0.37246 0.02154 0.50755 0.0
C2044 C 0.36373 0.04026 0.4984 0.0
C2045 C 0.36458 0.06252 0.50507 0.0
C2046 C 0.38363 0.97233 0.47727 0.0
C2047 C 0.37602 0.9532 0.48651 0.0
C2048 C 0.38181 0.99449 0.48392 0.0
C2049 C 0.37278 0.99806 0.50012 0.0
C2050 C 0.36498 0.97896 0.50933 0.0
C2051 C 0.36633 0.95679 0.50251 0.0
H2052 H 0.71484 0.65537 0.27918 0.0
H2053 H 0.7002 0.58894 0.25776 0.0
H2054 H 0.75305 0.65442 0.26695 0.0
H2055 H 0.73907 0.58789 0.24565 0.0
H2056 H 0.82242 0.59188 0.24481 0.0
H2057 H 0.78356 0.58889 0.25675 0.0
H2058 H 0.76664 0.65484 0.2356 0.0
H2059 H 0.80487 0.65771 0.22354 0.0
C2060 C 0.71981 0.64044 0.27195 0.0
C2061 C 0.70435 0.62226 0.2694 0.0
C2062 C 0.74174 0.63995 0.2649 0.0
C2063 C 0.74906 0.62113 0.25529 0.0
C2064 C 0.73391 0.60259 0.25306 0.0
C2065 C 0.71166 0.60325 0.25991 0.0
C2066 C 0.81032 0.60564 0.24264 0.0
C2067 C 0.81682 0.62507 0.23326 0.0
C2068 C 0.78807 0.60386 0.2494 0.0
C2069 C 0.7721 0.62169 0.24717 0.0
C2070 C 0.7786 0.64091 0.23764 0.0
C2071 C 0.80054 0.6425 0.23069 0.0
H2072 H 0.1215 0.97377 0.04051 0.0
H2073 H 0.15319 0.94298 0.99692 0.0
H2074 H 0.12596 0.01168 0.02788 0.0
H2075 H 0.1572 0.9811 0.98406 0.0
H2076 H 0.12532 0.04939 0.96092 0.0
H2077 H 0.1272 0.01118 0.97348 0.0
H2078 H 0.15802 0.0398 0.01818 0.0
H2079 H 0.1566 0.07812 0.00544 0.0
C2080 C 0.12956 0.97511 0.02825 0.0
C2081 C 0.13695 0.95534 0.0197 0.0
C2082 C 0.13222 0.99687 0.02106 0.0
C2083 C 0.14191 0.99941 0.00497 0.0
C2084 C 0.1496 0.97967 0.99646 0.0
C2085 C 0.14739 0.95788 0.00384 0.0
C2086 C 0.13272 0.04753 0.97336 0.0
C2087 C 0.14074 0.06683 0.9822 0.0
C2088 C 0.13392 0.0256 0.98051 0.0
C2089 C 0.14274 0.02245 0.99682 0.0
C2090 C 0.15106 0.0417 0.0056 0.0
C2091 C 0.15031 0.06362 0.99829 0.0
H2092 H 0.82495 0.40759 0.74701 0.0
H2093 H 0.79636 0.37609 0.79151 0.0
H2094 H 0.78629 0.41092 0.73497 0.0
H2095 H 0.75788 0.3799 0.77969 0.0
H2096 H 0.69017 0.4091 0.75839 0.0
H2097 H 0.72896 0.41162 0.77021 0.0
H2098 H 0.7563 0.37998 0.7254 0.0
H2099 H 0.71761 0.37699 0.71376 0.0
C2100 C 0.81041 0.40171 0.75431 0.0
C2101 C 0.81372 0.3915 0.77018 0.0
C2102 C 0.78831 0.40353 0.7474 0.0
C2103 C 0.76904 0.39569 0.7564 0.0
C2104 C 0.77234 0.38627 0.77251 0.0
C2105 C 0.79441 0.38398 0.77923 0.0
C2106 C 0.70449 0.40291 0.751 0.0
C2107 C 0.70079 0.39275 0.73517 0.0
C2108 C 0.72668 0.40428 0.75779 0.0
C2109 C 0.74569 0.39601 0.74873 0.0
C2110 C 0.74205 0.38667 0.73263 0.0
C2111 C 0.71986 0.38485 0.72601 0.0
H2112 H 0.1376 0.82512 0.01497 0.0
H2113 H 0.15072 0.81377 0.06779 0.0
H2114 H 0.1455 0.78447 0.0093 0.0
H2115 H 0.15811 0.77364 0.06237 0.0
H2116 H 0.12026 0.70737 0.016 0.0
H2117 H 0.12541 0.74889 0.01465 0.0
H2118 H 0.18048 0.74396 0.05088 0.0
H2119 H 0.17443 0.7026 0.05266 0.0
C2120 C 0.14288 0.81414 0.02526 0.0
C2121 C 0.14357 0.82268 0.04182 0.0
C2122 C 0.14712 0.79076 0.02208 0.0
C2123 C 0.15237 0.77553 0.03537 0.0
C2124 C 0.1545 0.78464 0.05171 0.0
C2125 C 0.15012 0.80777 0.05487 0.0
C2126 C 0.13413 0.71511 0.02307 0.0
C2127 C 0.14719 0.70176 0.03424 0.0
C2128 C 0.13706 0.73899 0.02238 0.0
C2129 C 0.15312 0.75003 0.03288 0.0
C2130 C 0.1676 0.73623 0.04287 0.0
C2131 C 0.16445 0.71244 0.0437 0.0
H2132 H 0.56323 0.92573 0.3017 0.0
H2133 H 0.5597 0.86821 0.26787 0.0
H2134 H 0.52216 0.93217 0.29823 0.0
H2135 H 0.51842 0.8738 0.26488 0.0
H2136 H 0.45154 0.90389 0.31509 0.0
H2137 H 0.49187 0.91097 0.31018 0.0
H2138 H 0.4832 0.89348 0.25765 0.0
H2139 H 0.44232 0.88598 0.26284 0.0
C2140 C 0.55379 0.91509 0.29292 0.0
C2141 C 0.56472 0.89676 0.28481 0.0
C2142 C 0.53013 0.91848 0.29115 0.0
C2143 C 0.51668 0.90319 0.28157 0.0
C2144 C 0.52806 0.88606 0.27226 0.0
C2145 C 0.55182 0.88289 0.27387 0.0
C2146 C 0.45806 0.90222 0.30237 0.0
C2147 C 0.4437 0.89443 0.28936 0.0
C2148 C 0.4813 0.90639 0.29949 0.0
C2149 C 0.49107 0.90277 0.28349 0.0
C2150 C 0.47638 0.89629 0.27017 0.0
C2151 C 0.45289 0.89227 0.27306 0.0
H2152 H 0.38639 0.20562 0.51528 0.0
H2153 H 0.32989 0.2003 0.54993 0.0
H2154 H 0.37941 0.24662 0.51231 0.0
H2155 H 0.32186 0.24107 0.54635 0.0
H2156 H 0.34868 0.31211 0.56333 0.0
H2157 H 0.34179 0.27188 0.55809 0.0
H2158 H 0.35957 0.2814 0.50567 0.0
H2159 H 0.36706 0.32214 0.51123 0.0
C2160 C 0.3716 0.21302 0.52148 0.0
C2161 C 0.35853 0.19976 0.5327 0.0
C2162 C 0.36761 0.23664 0.51986 0.0
C2163 C 0.35035 0.24748 0.52939 0.0
C2164 C 0.33569 0.23355 0.53914 0.0
C2165 C 0.33996 0.21005 0.54097 0.0
C2166 C 0.35043 0.3058 0.55055 0.0
C2167 C 0.35842 0.32033 0.53771 0.0
C2168 C 0.34636 0.2826 0.54748 0.0
C2169 C 0.35021 0.27307 0.53143 0.0
C2170 C 0.35665 0.28799 0.51823 0.0
C2171 C 0.36064 0.31143 0.52134 0.0
H2172 H 0.95047 0.13947 0.76664 0.0
H2173 H 0.94501 0.07929 0.79777 0.0
H2174 H 0.99135 0.13245 0.76294 0.0
H2175 H 0.98573 0.07141 0.79353 0.0
H2176 H 0.05755 0.09638 0.81113 0.0
H2177 H 0.01716 0.08994 0.80603 0.0
H2178 H 0.02551 0.11259 0.75453 0.0
H2179 H 0.06637 0.1195 0.75994 0.0
C2180 C 0.95781 0.12397 0.77188 0.0
C2181 C 0.94454 0.10974 0.78229 0.0
C2182 C 0.98135 0.11994 0.76983 0.0
C2183 C 0.99214 0.10155 0.77818 0.0
C2184 C 0.97822 0.08603 0.78719 0.0
C2185 C 0.95476 0.09026 0.7894 0.0
C2186 C 0.05095 0.09923 0.79853 0.0
C2187 C 0.06518 0.10841 0.78595 0.0
C2188 C 0.02766 0.09546 0.79555 0.0
C2189 C 0.01777 0.10089 0.77986 0.0
C2190 C 0.0324 0.10846 0.76683 0.0
C2191 C 0.05591 0.11211 0.76983 0.0
H2192 H 0.14469 0.19728 0.99009 0.0
H2193 H 0.16805 0.20818 0.9392 0.0
H2194 H 0.15191 0.23781 0.99647 0.0
H2195 H 0.17447 0.24825 0.94512 0.0
H2196 H 0.12606 0.31346 0.98759 0.0
H2197 H 0.13315 0.27245 0.98996 0.0
H2198 H 0.19204 0.27949 0.95728 0.0
H2199 H 0.18372 0.32028 0.95413 0.0
C2200 C 0.15215 0.20813 0.98047 0.0
C2201 C 0.15582 0.19954 0.96415 0.0
C2202 C 0.15595 0.23148 0.984 0.0
C2203 C 0.16353 0.24668 0.97129 0.0
C2204 C 0.16894 0.23739 0.95541 0.0
C2205 C 0.16516 0.21425 0.95193 0.0
C2206 C 0.14105 0.30632 0.98147 0.0
C2207 C 0.15444 0.32003 0.97077 0.0
C2208 C 0.14516 0.2827 0.98279 0.0
C2209 C 0.16292 0.27227 0.97351 0.0
C2210 C 0.17779 0.28662 0.96425 0.0
C2211 C 0.17334 0.31014 0.96266 0.0
H2212 H 0.95168 0.92221 0.19437 0.0
H2213 H 0.94019 0.89357 0.24371 0.0
H2214 H 0.9914 0.92917 0.20127 0.0
H2215 H 0.98033 0.90122 0.25109 0.0
H2216 H 0.06293 0.93807 0.21115 0.0
H2217 H 0.02215 0.94597 0.21487 0.0
H2218 H 0.01531 0.88356 0.24382 0.0
H2219 H 0.05627 0.87679 0.24094 0.0
C2220 C 0.9575 0.9183 0.20702 0.0
C2221 C 0.94278 0.90734 0.21848 0.0
C2222 C 0.98043 0.92237 0.21107 0.0
C2223 C 0.98948 0.91557 0.22674 0.0
C2224 C 0.97418 0.90638 0.23879 0.0
C2225 C 0.95104 0.90231 0.2347 0.0
C2226 C 0.05288 0.92681 0.2191 0.0
C2227 C 0.06278 0.90697 0.2259 0.0
C2228 C 0.02935 0.93102 0.22097 0.0
C2229 C 0.01503 0.91506 0.22922 0.0
C2230 C 0.02552 0.89638 0.23744 0.0
C2231 C 0.04913 0.89246 0.23583 0.0
H2232 H 0.3541 0.70821 0.43785 0.0
H2233 H 0.3699 0.69673 0.49025 0.0
H2234 H 0.34805 0.74847 0.44335 0.0
H2235 H 0.36317 0.73751 0.49607 0.0
H2236 H 0.33675 0.82024 0.45241 0.0
H2237 H 0.3283 0.77939 0.45483 0.0
H2238 H 0.38375 0.77213 0.49055 0.0
H2239 H 0.39111 0.81323 0.48872 0.0
C2240 C 0.35549 0.71421 0.45073 0.0
C2241 C 0.36253 0.69923 0.46359 0.0
C2242 C 0.35188 0.73745 0.45395 0.0
C2243 C 0.35522 0.74658 0.47019 0.0
C2244 C 0.3607 0.73125 0.48336 0.0
C2245 C 0.36424 0.70778 0.4801 0.0
C2246 C 0.3463 0.81005 0.46142 0.0
C2247 C 0.36433 0.81992 0.47056 0.0
C2248 C 0.34178 0.78652 0.4626 0.0
C2249 C 0.3557 0.77212 0.47256 0.0
C2250 C 0.3725 0.78248 0.48283 0.0
C2251 C 0.37671 0.80613 0.48186 0.0
H2252 H 0.45269 0.14079 0.7377 0.0
H2253 H 0.446 0.08296 0.70443 0.0
H2254 H 0.49371 0.13378 0.74012 0.0
H2255 H 0.4868 0.0747 0.70763 0.0
H2256 H 0.56888 0.12235 0.7404 0.0
H2257 H 0.52833 0.11515 0.74674 0.0
H2258 H 0.51812 0.09209 0.6955 0.0
H2259 H 0.55821 0.09847 0.68963 0.0
C2260 C 0.45987 0.12579 0.73163 0.0
C2261 C 0.44619 0.11232 0.72097 0.0
C2262 C 0.48349 0.12172 0.73298 0.0
C2263 C 0.49396 0.10392 0.72378 0.0
C2264 C 0.47964 0.08899 0.71454 0.0
C2265 C 0.45611 0.0934 0.71292 0.0
C2266 C 0.55808 0.11479 0.7308 0.0
C2267 C 0.56673 0.11095 0.71453 0.0
C2268 C 0.53471 0.111 0.73431 0.0
C2269 C 0.51957 0.10329 0.72161 0.0
C2270 C 0.52893 0.09772 0.70578 0.0
C2271 C 0.55208 0.10148 0.70233 0.0
H2272 H 0.83586 0.31278 0.95615 0.0
H2273 H 0.89488 0.30655 0.98836 0.0
H2274 H 0.82828 0.27181 0.95922 0.0
H2275 H 0.88809 0.26543 0.99097 0.0
H2276 H 0.87438 0.18999 0.99238 0.0
H2277 H 0.86775 0.23077 0.9983 0.0
H2278 H 0.84784 0.24106 0.94639 0.0
H2279 H 0.85406 0.20076 0.94076 0.0
C2280 C 0.8466 0.30279 0.96452 0.0
C2281 C 0.86568 0.31292 0.97228 0.0
C2282 C 0.84255 0.27919 0.96605 0.0
C2283 C 0.85784 0.26503 0.97506 0.0
C2284 C 0.87578 0.27563 0.98405 0.0
C2285 C 0.87965 0.2993 0.98264 0.0
C2286 C 0.86769 0.20087 0.98248 0.0
C2287 C 0.86466 0.19213 0.96612 0.0
C2288 C 0.86419 0.22433 0.98578 0.0
C2289 C 0.85739 0.23946 0.97282 0.0
C2290 C 0.85274 0.23015 0.95682 0.0
C2291 C 0.85639 0.20691 0.95353 0.0
H2292 H 0.62152 0.80844 0.48398 0.0
H2293 H 0.68494 0.81373 0.45656 0.0
H2294 H 0.62805 0.76765 0.48827 0.0
H2295 H 0.69243 0.77309 0.4616 0.0
H2296 H 0.67046 0.70083 0.4432 0.0
H2297 H 0.67668 0.74112 0.44862 0.0
H2298 H 0.64573 0.73361 0.49782 0.0
H2299 H 0.6389 0.69288 0.49193 0.0
C2300 C 0.63751 0.80105 0.47966 0.0
C2301 C 0.65283 0.81426 0.47008 0.0
C2302 C 0.64131 0.77755 0.4821 0.0
C2303 C 0.66061 0.76669 0.47502 0.0
C2304 C 0.67708 0.78058 0.4669 0.0
C2305 C 0.67306 0.80402 0.46425 0.0
C2306 C 0.66577 0.70758 0.45545 0.0
C2307 C 0.65425 0.69365 0.46714 0.0
C2308 C 0.66937 0.73084 0.45862 0.0
C2309 C 0.6615 0.74101 0.47363 0.0
C2310 C 0.65172 0.72657 0.486 0.0
C2311 C 0.64813 0.70311 0.48278 0.0
H2312 H 0.88878 0.70178 0.01396 0.0
H2313 H 0.82783 0.6921 0.04366 0.0
H2314 H 0.88007 0.74237 0.01112 0.0
H2315 H 0.81806 0.73251 0.04005 0.0
H2316 H 0.83885 0.80404 0.06054 0.0
H2317 H 0.83355 0.76405 0.05367 0.0
H2318 H 0.86051 0.77637 0.00372 0.0
H2319 H 0.86646 0.81679 0.01106 0.0
C2320 C 0.87278 0.70814 0.01906 0.0
C2321 C 0.8589 0.69377 0.02892 0.0
C2322 C 0.86773 0.73154 0.01747 0.0
C2323 C 0.84857 0.7411 0.02568 0.0
C2324 C 0.83331 0.72603 0.03392 0.0
C2325 C 0.83861 0.70271 0.03574 0.0
C2326 C 0.84286 0.79841 0.04787 0.0
C2327 C 0.85307 0.81359 0.03636 0.0
C2328 C 0.83976 0.77532 0.04385 0.0
C2329 C 0.84684 0.76659 0.02814 0.0
C2330 C 0.85519 0.78228 0.01605 0.0
C2331 C 0.85826 0.80557 0.02012 0.0
H2332 H 0.62046 0.30958 0.51633 0.0
H2333 H 0.67741 0.31394 0.55066 0.0
H2334 H 0.627 0.2685 0.51311 0.0
H2335 H 0.6849 0.2731 0.54691 0.0
H2336 H 0.65825 0.20164 0.56312 0.0
H2337 H 0.66479 0.24208 0.55842 0.0
H2338 H 0.64693 0.2338 0.50591 0.0
H2339 H 0.63987 0.19282 0.51091 0.0
C2340 C 0.63523 0.30195 0.52242 0.0
C2341 C 0.64862 0.31499 0.53357 0.0
C2342 C 0.63896 0.27829 0.52066 0.0
C2343 C 0.65623 0.26717 0.53002 0.0
C2344 C 0.67108 0.28084 0.5398 0.0
C2345 C 0.66711 0.30439 0.54174 0.0
C2346 C 0.6564 0.20828 0.55043 0.0
C2347 C 0.64858 0.19399 0.5374 0.0
C2348 C 0.66026 0.2316 0.54767 0.0
C2349 C 0.65633 0.24152 0.53176 0.0
C2350 C 0.64993 0.22689 0.51838 0.0
C2351 C 0.64618 0.20333 0.52116 0.0
H2352 H 0.94517 0.39119 0.76257 0.0
H2353 H 0.95512 0.4108 0.81442 0.0
H2354 H 0.9859 0.3986 0.75691 0.0
H2355 H 0.99537 0.41773 0.80907 0.0
H2356 H 0.06176 0.37212 0.76701 0.0
H2357 H 0.02068 0.37876 0.76406 0.0
H2358 H 0.02613 0.43763 0.79682 0.0
H2359 H 0.06704 0.43011 0.80028 0.0
C2360 C 0.95585 0.39789 0.77259 0.0
C2361 C 0.94692 0.40048 0.78893 0.0
C2362 C 0.97929 0.40183 0.76944 0.0
C2363 C 0.99419 0.40863 0.78254 0.0
C2364 C 0.98464 0.41286 0.79853 0.0
C2365 C 0.96144 0.40879 0.80166 0.0
C2366 C 0.05433 0.38714 0.77287 0.0
C2367 C 0.06765 0.40081 0.78366 0.0
C2368 C 0.03066 0.39092 0.77128 0.0
C2369 C 0.01979 0.4085 0.78047 0.0
C2370 C 0.0337 0.42361 0.78985 0.0
C2371 C 0.05728 0.41961 0.7916 0.0
H2372 H 0.45103 0.57571 0.29792 0.0
H2373 H 0.45754 0.63389 0.26489 0.0
H2374 H 0.49179 0.56743 0.29451 0.0
H2375 H 0.4985 0.62664 0.26214 0.0
H2376 H 0.57364 0.61455 0.2615 0.0
H2377 H 0.53311 0.60709 0.25528 0.0
H2378 H 0.5228 0.58604 0.30697 0.0
H2379 H 0.56289 0.59289 0.31283 0.0
C2380 C 0.46104 0.58613 0.28933 0.0
C2381 C 0.45108 0.60522 0.28147 0.0
C2382 C 0.48454 0.58171 0.28762 0.0
C2383 C 0.49879 0.5967 0.2784 0.0
C2384 C 0.48828 0.61456 0.26926 0.0
C2385 C 0.46468 0.61872 0.27076 0.0
C2386 C 0.56284 0.60735 0.27126 0.0
C2387 C 0.57147 0.60425 0.28764 0.0
C2388 C 0.53949 0.60341 0.2678 0.0
C2389 C 0.52436 0.59618 0.28064 0.0
C2390 C 0.53367 0.59128 0.29662 0.0
C2391 C 0.5568 0.59529 0.30004 0.0
H2392 H 0.45395 0.41839 0.69244 0.0
H2393 H 0.44479 0.39149 0.74256 0.0
H2394 H 0.49421 0.42442 0.69787 0.0
H2395 H 0.48546 0.3984 0.74851 0.0
H2396 H 0.5604 0.37265 0.73795 0.0
H2397 H 0.51957 0.38004 0.74104 0.0
H2398 H 0.5264 0.44024 0.70962 0.0
H2399 H 0.567 0.43158 0.70569 0.0
C2400 C 0.46043 0.41475 0.70496 0.0
C2401 C 0.44616 0.40448 0.71706 0.0
C2402 C 0.48371 0.41826 0.70815 0.0
C2403 C 0.49356 0.41164 0.72361 0.0
C2404 C 0.47875 0.40331 0.73632 0.0
C2405 C 0.45528 0.39973 0.73306 0.0
C2406 C 0.55326 0.38792 0.73223 0.0
C2407 C 0.56686 0.40163 0.72167 0.0
C2408 C 0.52973 0.39223 0.73399 0.0
C2409 C 0.51924 0.41053 0.7253 0.0
C2410 C 0.53353 0.42559 0.71613 0.0
C2411 C 0.55696 0.42094 0.71409 0.0
H2412 H 0.95503 0.63875 0.23669 0.0
H2413 H 0.9527 0.58853 0.19701 0.0
H2414 H 0.99644 0.63365 0.23903 0.0
H2415 H 0.99386 0.58224 0.19989 0.0
H2416 H 0.06401 0.61319 0.18612 0.0
H2417 H 0.02383 0.60509 0.19034 0.0
H2418 H 0.03222 0.61457 0.24401 0.0
H2419 H 0.07298 0.62339 0.23952 0.0
C2420 C 0.96323 0.62563 0.22915 0.0
C2421 C 0.95062 0.61384 0.2168 0.0
C2422 C 0.98707 0.62275 0.23041 0.0
C2423 C 0.99881 0.60788 0.21938 0.0
C2424 C 0.98565 0.59433 0.20829 0.0
C2425 C 0.96194 0.59756 0.20682 0.0
C2426 C 0.05747 0.61299 0.1989 0.0
C2427 C 0.07174 0.61899 0.21247 0.0
C2428 C 0.03428 0.60816 0.20138 0.0
C2429 C 0.02444 0.60917 0.21756 0.0
C2430 C 0.03904 0.61383 0.23134 0.0
C2431 C 0.06249 0.6186 0.22883 0.0
loop_
_geom_bond_atom_site_label_1
_geom_bond_atom_site_label_2
_geom_bond_distance
_geom_bond_site_symmetry_2
_ccdc_geom_bond_type
Mn0 O5 2.095 . S
Mn0 O15 2.162 . S
Mn0 O16 2.297 . S
Mn0 O24 2.385 . S
Mn0 O25 2.209 . S
Mn0 O26 2.094 . S
Mn1 O6 2.121 . S
Mn1 N8 2.257 . S
Mn1 N17 2.282 . S
Mn1 O25 2.215 . S
Mn1 O27 2.117 . S
C2 O24 1.234 . S
C2 O25 1.283 . S
C3 O15 1.281 . S
C3 O16 1.236 . S
C4 O26 1.240 . S
C4 O27 1.264 . S
O5 Mn0 2.095 . S
O5 C14 1.250 . S
O6 Mn1 2.121 . S
O6 C14 1.258 . S
C7 N8 1.326 . S
C7 C11 1.460 . S
C7 H13 0.929 . S
N8 Mn1 2.257 . S
N8 C7 1.326 . S
N8 C12 1.362 . S
C9 C10 1.258 . S
C9 C12 1.431 . S
C9 C29 1.449 . S
C10 C9 1.258 . S
C10 C11 1.477 . S
C10 H30 0.931 . S
C11 C7 1.460 . S
C11 C10 1.477 . S
C11 H31 0.930 . S
C12 N8 1.362 . S
C12 C9 1.431 . S
C12 C22 1.476 . S
H13 C7 0.929 . S
C14 O5 1.250 . S
C14 O6 1.258 . S
O15 Mn0 2.162 . S
O15 C3 1.281 . S
O16 Mn0 2.297 . S
O16 C3 1.236 . S
N17 Mn1 2.282 . S
N17 C18 1.328 . S
N17 C22 1.318 . S
C18 N17 1.328 . S
C18 C19 1.457 . S
C18 H23 0.929 . S
C19 C18 1.457 . S
C19 C20 1.291 . S
C19 H32 0.931 . S
C20 C19 1.291 . S
C20 C21 1.373 . S
C20 H33 0.929 . S
C21 C20 1.373 . S
C21 C22 1.396 . S
C21 C28 1.403 . S
C22 C12 1.476 . S
C22 N17 1.318 . S
C22 C21 1.396 . S
H23 C18 0.929 . S
O24 Mn0 2.385 . S
O24 C2 1.234 . S
O25 Mn0 2.209 . S
O25 Mn1 2.215 . S
O25 C2 1.283 . S
O26 Mn0 2.094 . S
O26 C4 1.240 . S
O27 Mn1 2.117 . S
O27 C4 1.264 . S
C28 C21 1.403 . S
C28 C29 1.399 . S
C28 H34 0.929 1_455 S
C29 C9 1.449 . S
C29 C28 1.399 . S
C29 H35 0.930 1_455 S
H30 C10 0.931 . S
H31 C11 0.930 . S
H32 C19 0.931 . S
H33 C20 0.929 . S
H34 C28 0.929 1_655 S
H35 C29 0.930 1_655 S
Mn36 O41 2.095 . S
Mn36 O51 2.162 . S
Mn36 O52 2.297 . S
Mn36 O60 2.385 . S
Mn36 O61 2.209 . S
Mn36 O62 2.094 . S
Mn37 O42 2.121 . S
Mn37 N44 2.257 . S
Mn37 N53 2.282 . S
Mn37 O61 2.215 . S
Mn37 O63 2.117 . S
C38 O60 1.234 . S
C38 O61 1.283 . S
C39 O51 1.281 . S
C39 O52 1.236 . S
C40 O62 1.240 . S
C40 O63 1.264 . S
O41 Mn36 2.095 . S
O41 C50 1.250 . S
O42 Mn37 2.121 . S
O42 C50 1.258 . S
C43 N44 1.326 . S
C43 C47 1.460 . S
C43 H49 0.929 . S
N44 Mn37 2.257 . S
N44 C43 1.326 . S
N44 C48 1.362 . S
C45 C46 1.258 . S
C45 C48 1.431 . S
C45 C65 1.449 . S
C46 C45 1.258 . S
C46 C47 1.477 . S
C46 H66 0.931 . S
C47 C43 1.460 . S
C47 C46 1.477 . S
C47 H67 0.930 . S
C48 N44 1.362 . S
C48 C45 1.431 . S
C48 C58 1.476 . S
H49 C43 0.929 . S
C50 O41 1.250 . S
C50 O42 1.258 . S
O51 Mn36 2.162 . S
O51 C39 1.281 . S
O52 Mn36 2.297 . S
O52 C39 1.236 . S
N53 Mn37 2.282 . S
N53 C54 1.328 . S
N53 C58 1.318 . S
C54 N53 1.328 . S
C54 C55 1.457 . S
C54 H59 0.929 . S
C55 C54 1.457 . S
C55 C56 1.291 . S
C55 H68 0.931 . S
C56 C55 1.291 . S
C56 C57 1.373 . S
C56 H69 0.929 . S
C57 C56 1.373 . S
C57 C58 1.396 . S
C57 C64 1.403 . S
C58 C48 1.476 . S
C58 N53 1.318 . S
C58 C57 1.396 . S
H59 C54 0.929 . S
O60 Mn36 2.385 . S
O60 C38 1.234 . S
O61 Mn36 2.209 . S
O61 Mn37 2.215 . S
O61 C38 1.283 . S
O62 Mn36 2.094 . S
O62 C40 1.240 . S
O63 Mn37 2.117 . S
O63 C40 1.264 . S
C64 C57 1.403 . S
C64 C65 1.399 . S
C64 H70 0.929 . S
C65 C45 1.449 . S
C65 C64 1.399 . S
C65 H71 0.930 . S
H66 C46 0.931 . S
H67 C47 0.930 . S
H68 C55 0.931 . S
H69 C56 0.929 . S
H70 C64 0.929 . S
H71 C65 0.930 . S
Mn72 O77 2.095 . S
Mn72 O87 2.162 . S
Mn72 O88 2.297 . S
Mn72 O96 2.385 . S
Mn72 O97 2.209 . S
Mn72 O98 2.094 . S
Mn73 O78 2.121 . S
Mn73 N80 2.257 . S
Mn73 N89 2.282 . S
Mn73 O97 2.215 . S
Mn73 O99 2.117 . S
C74 O96 1.234 . S
C74 O97 1.283 . S
C75 O87 1.281 . S
C75 O88 1.236 . S
C76 O98 1.240 . S
C76 O99 1.264 . S
O77 Mn72 2.095 . S
O77 C86 1.250 . S
O78 Mn73 2.121 . S
O78 C86 1.258 . S
C79 N80 1.326 . S
C79 C83 1.460 . S
C79 H85 0.929 . S
N80 Mn73 2.257 . S
N80 C79 1.326 . S
N80 C84 1.362 . S
C81 C82 1.258 . S
C81 C84 1.431 . S
C81 C101 1.449 . S
C82 C81 1.258 . S
C82 C83 1.477 . S
C82 H102 0.931 . S
C83 C79 1.460 . S
C83 C82 1.477 . S
C83 H103 0.930 . S
C84 N80 1.362 . S
C84 C81 1.431 . S
C84 C94 1.476 . S
H85 C79 0.929 . S
C86 O77 1.250 . S
C86 O78 1.258 . S
O87 Mn72 2.162 . S
O87 C75 1.281 . S
O88 Mn72 2.297 . S
O88 C75 1.236 . S
N89 Mn73 2.282 . S
N89 C90 1.328 . S
N89 C94 1.318 . S
C90 N89 1.328 . S
C90 C91 1.457 . S
C90 H95 0.929 . S
C91 C90 1.457 . S
C91 C92 1.291 . S
C91 H104 0.931 . S
C92 C91 1.291 . S
C92 C93 1.373 . S
C92 H105 0.929 . S
C93 C92 1.373 . S
C93 C94 1.396 . S
C93 C100 1.403 . S
C94 C84 1.476 . S
C94 N89 1.318 . S
C94 C93 1.396 . S
H95 C90 0.929 . S
O96 Mn72 2.385 . S
O96 C74 1.234 . S
O97 Mn72 2.209 . S
O97 Mn73 2.215 . S
O97 C74 1.283 . S
O98 Mn72 2.094 . S
O98 C76 1.240 . S
O99 Mn73 2.117 . S
O99 C76 1.264 . S
C100 C93 1.403 . S
C100 C101 1.399 . S
C100 H106 0.929 . S
C101 C81 1.449 . S
C101 C100 1.399 . S
C101 H107 0.930 . S
H102 C82 0.931 . S
H103 C83 0.930 . S
H104 C91 0.931 . S
H105 C92 0.929 . S
H106 C100 0.929 . S
H107 C101 0.930 . S
Mn108 O113 2.095 . S
Mn108 O123 2.162 . S
Mn108 O124 2.297 . S
Mn108 O132 2.385 . S
Mn108 O133 2.209 . S
Mn108 O134 2.094 . S
Mn109 O114 2.121 . S
Mn109 N116 2.257 . S
Mn109 N125 2.282 . S
Mn109 O133 2.215 . S
Mn109 O135 2.117 . S
C110 O132 1.234 . S
C110 O133 1.283 . S
C111 O123 1.281 . S
C111 O124 1.236 . S
C112 O134 1.240 . S
C112 O135 1.264 . S
O113 Mn108 2.095 . S
O113 C122 1.250 . S
O114 Mn109 2.121 . S
O114 C122 1.258 . S
C115 N116 1.326 . S
C115 C119 1.460 . S
C115 H121 0.929 . S
N116 Mn109 2.257 . S
N116 C115 1.326 . S
N116 C120 1.362 . S
C117 C118 1.258 . S
C117 C120 1.431 . S
C117 C137 1.449 . S
C118 C117 1.258 . S
C118 C119 1.477 . S
C118 H138 0.931 . S
C119 C115 1.460 . S
C119 C118 1.477 . S
C119 H139 0.930 . S
C120 N116 1.362 . S
C120 C117 1.431 . S
C120 C130 1.476 . S
H121 C115 0.929 . S
C122 O113 1.250 . S
C122 O114 1.258 . S
O123 Mn108 2.162 . S
O123 C111 1.281 . S
O124 Mn108 2.297 . S
O124 C111 1.236 . S
N125 Mn109 2.282 . S
N125 C126 1.328 . S
N125 C130 1.318 . S
C126 N125 1.328 . S
C126 C127 1.457 . S
C126 H131 0.929 . S
C127 C126 1.457 . S
C127 C128 1.291 . S
C127 H140 0.931 . S
C128 C127 1.291 . S
C128 C129 1.373 . S
C128 H141 0.929 . S
C129 C128 1.373 . S
C129 C130 1.396 . S
C129 C136 1.403 . S
C130 C120 1.476 . S
C130 N125 1.318 . S
C130 C129 1.396 . S
H131 C126 0.929 . S
O132 Mn108 2.385 . S
O132 C110 1.234 . S
O133 Mn108 2.209 . S
O133 Mn109 2.215 . S
O133 C110 1.283 . S
O134 Mn108 2.094 . S
O134 C112 1.240 . S
O135 Mn109 2.117 . S
O135 C112 1.264 . S
C136 C129 1.403 . S
C136 C137 1.399 . S
C136 H142 0.929 . S
C137 C117 1.449 . S
C137 C136 1.399 . S
C137 H143 0.930 . S
H138 C118 0.931 . S
H139 C119 0.930 . S
H140 C127 0.931 . S
H141 C128 0.929 . S
H142 C136 0.929 . S
H143 C137 0.930 . S
Mn144 O149 2.095 . S
Mn144 O159 2.162 . S
Mn144 O160 2.297 . S
Mn144 O168 2.385 . S
Mn144 O169 2.209 . S
Mn144 O170 2.094 . S
Mn145 O150 2.121 . S
Mn145 N152 2.257 . S
Mn145 N161 2.282 . S
Mn145 O169 2.215 . S
Mn145 O171 2.117 . S
C146 O168 1.234 . S
C146 O169 1.283 . S
C147 O159 1.281 . S
C147 O160 1.236 . S
C148 O170 1.240 . S
C148 O171 1.264 . S
O149 Mn144 2.095 . S
O149 C158 1.250 . S
O150 Mn145 2.121 . S
O150 C158 1.258 . S
C151 N152 1.326 . S
C151 C155 1.460 . S
C151 H157 0.929 . S
N152 Mn145 2.257 . S
N152 C151 1.326 . S
N152 C156 1.362 . S
C153 C154 1.258 . S
C153 C156 1.431 . S
C153 C173 1.449 . S
C154 C153 1.258 . S
C154 C155 1.477 . S
C154 H174 0.931 . S
C155 C151 1.460 . S
C155 C154 1.477 . S
C155 H175 0.930 . S
C156 N152 1.362 . S
C156 C153 1.431 . S
C156 C166 1.476 . S
H157 C151 0.929 . S
C158 O149 1.250 . S
C158 O150 1.258 . S
O159 Mn144 2.162 . S
O159 C147 1.281 . S
O160 Mn144 2.297 . S
O160 C147 1.236 . S
N161 Mn145 2.282 . S
N161 C162 1.328 . S
N161 C166 1.318 . S
C162 N161 1.328 . S
C162 C163 1.457 . S
C162 H167 0.929 . S
C163 C162 1.457 . S
C163 C164 1.291 . S
C163 H176 0.931 . S
C164 C163 1.291 . S
C164 C165 1.373 . S
C164 H177 0.929 . S
C165 C164 1.373 . S
C165 C166 1.396 . S
C165 C172 1.403 . S
C166 C156 1.476 . S
C166 N161 1.318 . S
C166 C165 1.396 . S
H167 C162 0.929 . S
O168 Mn144 2.385 . S
O168 C146 1.234 . S
O169 Mn144 2.209 . S
O169 Mn145 2.215 . S
O169 C146 1.283 . S
O170 Mn144 2.094 . S
O170 C148 1.240 . S
O171 Mn145 2.117 . S
O171 C148 1.264 . S
C172 C165 1.403 . S
C172 C173 1.399 . S
C172 H178 0.929 1_455 S
C173 C153 1.449 . S
C173 C172 1.399 . S
C173 H179 0.930 1_455 S
H174 C154 0.931 . S
H175 C155 0.930 . S
H176 C163 0.931 . S
H177 C164 0.929 . S
H178 C172 0.929 1_655 S
H179 C173 0.930 1_655 S
Mn180 O185 2.095 . S
Mn180 O195 2.162 . S
Mn180 O196 2.297 . S
Mn180 O204 2.385 . S
Mn180 O205 2.209 . S
Mn180 O206 2.094 . S
Mn181 O186 2.121 . S
Mn181 N188 2.257 . S
Mn181 N197 2.282 . S
Mn181 O205 2.215 . S
Mn181 O207 2.117 . S
C182 O204 1.234 . S
C182 O205 1.283 . S
C183 O195 1.281 . S
C183 O196 1.236 . S
C184 O206 1.240 . S
C184 O207 1.264 . S
O185 Mn180 2.095 . S
O185 C194 1.250 . S
O186 Mn181 2.121 . S
O186 C194 1.258 . S
C187 N188 1.326 . S
C187 C191 1.460 . S
C187 H193 0.929 . S
N188 Mn181 2.257 . S
N188 C187 1.326 . S
N188 C192 1.362 . S
C189 C190 1.258 . S
C189 C192 1.431 . S
C189 C209 1.449 . S
C190 C189 1.258 . S
C190 C191 1.477 . S
C190 H210 0.931 . S
C191 C187 1.460 . S
C191 C190 1.477 . S
C191 H211 0.930 . S
C192 N188 1.362 . S
C192 C189 1.431 . S
C192 C202 1.476 . S
H193 C187 0.929 . S
C194 O185 1.250 . S
C194 O186 1.258 . S
O195 Mn180 2.162 . S
O195 C183 1.281 . S
O196 Mn180 2.297 . S
O196 C183 1.236 . S
N197 Mn181 2.282 . S
N197 C198 1.328 . S
N197 C202 1.318 . S
C198 N197 1.328 . S
C198 C199 1.457 . S
C198 H203 0.929 . S
C199 C198 1.457 . S
C199 C200 1.291 . S
C199 H212 0.931 . S
C200 C199 1.291 . S
C200 C201 1.373 . S
C200 H213 0.929 . S
C201 C200 1.373 . S
C201 C202 1.396 . S
C201 C208 1.403 . S
C202 C192 1.476 . S
C202 N197 1.318 . S
C202 C201 1.396 . S
H203 C198 0.929 . S
O204 Mn180 2.385 . S
O204 C182 1.234 . S
O205 Mn180 2.209 . S
O205 Mn181 2.215 . S
O205 C182 1.283 . S
O206 Mn180 2.094 . S
O206 C184 1.240 . S
O207 Mn181 2.117 . S
O207 C184 1.264 . S
C208 C201 1.403 . S
C208 C209 1.399 . S
C208 H214 0.929 . S
C209 C189 1.449 . S
C209 C208 1.399 . S
C209 H215 0.930 . S
H210 C190 0.931 . S
H211 C191 0.930 . S
H212 C199 0.931 . S
H213 C200 0.929 . S
H214 C208 0.929 . S
H215 C209 0.930 . S
Mn216 O221 2.095 . S
Mn216 O231 2.162 . S
Mn216 O232 2.297 . S
Mn216 O240 2.385 . S
Mn216 O241 2.209 . S
Mn216 O242 2.094 . S
Mn217 O222 2.121 . S
Mn217 N224 2.257 . S
Mn217 N233 2.282 . S
Mn217 O241 2.215 . S
Mn217 O243 2.117 . S
C218 O240 1.234 . S
C218 O241 1.283 . S
C219 O231 1.281 . S
C219 O232 1.236 . S
C220 O242 1.240 . S
C220 O243 1.264 . S
O221 Mn216 2.095 . S
O221 C230 1.250 . S
O222 Mn217 2.121 . S
O222 C230 1.258 . S
C223 N224 1.326 . S
C223 C227 1.460 . S
C223 H229 0.929 . S
N224 Mn217 2.257 . S
N224 C223 1.326 . S
N224 C228 1.362 . S
C225 C226 1.258 . S
C225 C228 1.431 . S
C225 C245 1.449 . S
C226 C225 1.258 . S
C226 C227 1.477 . S
C226 H246 0.931 . S
C227 C223 1.460 . S
C227 C226 1.477 . S
C227 H247 0.930 . S
C228 N224 1.362 . S
C228 C225 1.431 . S
C228 C238 1.476 . S
H229 C223 0.929 . S
C230 O221 1.250 . S
C230 O222 1.258 . S
O231 Mn216 2.162 . S
O231 C219 1.281 . S
O232 Mn216 2.297 . S
O232 C219 1.236 . S
N233 Mn217 2.282 . S
N233 C234 1.328 . S
N233 C238 1.318 . S
C234 N233 1.328 . S
C234 C235 1.457 . S
C234 H239 0.929 . S
C235 C234 1.457 . S
C235 C236 1.291 . S
C235 H248 0.931 . S
C236 C235 1.291 . S
C236 C237 1.373 . S
C236 H249 0.929 . S
C237 C236 1.373 . S
C237 C238 1.396 . S
C237 C244 1.403 . S
C238 C228 1.476 . S
C238 N233 1.318 . S
C238 C237 1.396 . S
H239 C234 0.929 . S
O240 Mn216 2.385 . S
O240 C218 1.234 . S
O241 Mn216 2.209 . S
O241 Mn217 2.215 . S
O241 C218 1.283 . S
O242 Mn216 2.094 . S
O242 C220 1.240 . S
O243 Mn217 2.117 . S
O243 C220 1.264 . S
C244 C237 1.403 . S
C244 C245 1.399 . S
C244 H250 0.929 . S
C245 C225 1.449 . S
C245 C244 1.399 . S
C245 H251 0.930 . S
H246 C226 0.931 . S
H247 C227 0.930 . S
H248 C235 0.931 . S
H249 C236 0.929 . S
H250 C244 0.929 . S
H251 C245 0.930 . S
Mn252 O257 2.095 . S
Mn252 O267 2.162 . S
Mn252 O268 2.297 . S
Mn252 O276 2.385 . S
Mn252 O277 2.209 . S
Mn252 O278 2.094 . S
Mn253 O258 2.121 . S
Mn253 N260 2.257 . S
Mn253 N269 2.282 . S
Mn253 O277 2.215 . S
Mn253 O279 2.117 . S
C254 O276 1.234 . S
C254 O277 1.283 . S
C255 O267 1.281 . S
C255 O268 1.236 . S
C256 O278 1.240 . S
C256 O279 1.264 . S
O257 Mn252 2.095 . S
O257 C266 1.250 . S
O258 Mn253 2.121 . S
O258 C266 1.258 . S
C259 N260 1.326 . S
C259 C263 1.460 . S
C259 H265 0.929 . S
N260 Mn253 2.257 . S
N260 C259 1.326 . S
N260 C264 1.362 . S
C261 C262 1.258 . S
C261 C264 1.431 . S
C261 C281 1.449 . S
C262 C261 1.258 . S
C262 C263 1.477 . S
C262 H282 0.931 . S
C263 C259 1.460 . S
C263 C262 1.477 . S
C263 H283 0.930 . S
C264 N260 1.362 . S
C264 C261 1.431 . S
C264 C274 1.476 . S
H265 C259 0.929 . S
C266 O257 1.250 . S
C266 O258 1.258 . S
O267 Mn252 2.162 . S
O267 C255 1.281 . S
O268 Mn252 2.297 . S
O268 C255 1.236 . S
N269 Mn253 2.282 . S
N269 C270 1.328 . S
N269 C274 1.318 . S
C270 N269 1.328 . S
C270 C271 1.457 . S
C270 H275 0.929 . S
C271 C270 1.457 . S
C271 C272 1.291 . S
C271 H284 0.931 . S
C272 C271 1.291 . S
C272 C273 1.373 . S
C272 H285 0.929 . S
C273 C272 1.373 . S
C273 C274 1.396 . S
C273 C280 1.403 . S
C274 C264 1.476 . S
C274 N269 1.318 . S
C274 C273 1.396 . S
H275 C270 0.929 . S
O276 Mn252 2.385 . S
O276 C254 1.234 . S
O277 Mn252 2.209 . S
O277 Mn253 2.215 . S
O277 C254 1.283 . S
O278 Mn252 2.094 . S
O278 C256 1.240 . S
O279 Mn253 2.117 . S
O279 C256 1.264 . S
C280 C273 1.403 . S
C280 C281 1.399 . S
C280 H286 0.929 . S
C281 C261 1.449 . S
C281 C280 1.399 . S
C281 H287 0.930 . S
H282 C262 0.931 . S
H283 C263 0.930 . S
H284 C271 0.931 . S
H285 C272 0.929 . S
H286 C280 0.929 . S
H287 C281 0.930 . S
Mn288 O293 2.095 . S
Mn288 O303 2.162 . S
Mn288 O304 2.297 . S
Mn288 O312 2.385 . S
Mn288 O313 2.209 . S
Mn288 O314 2.094 . S
Mn289 O294 2.121 . S
Mn289 N296 2.257 . S
Mn289 N305 2.282 . S
Mn289 O313 2.215 . S
Mn289 O315 2.117 . S
C290 O312 1.234 . S
C290 O313 1.283 . S
C291 O303 1.281 . S
C291 O304 1.236 . S
C292 O314 1.240 . S
C292 O315 1.264 . S
O293 Mn288 2.095 . S
O293 C302 1.250 . S
O294 Mn289 2.121 . S
O294 C302 1.258 . S
C295 N296 1.326 . S
C295 C299 1.460 . S
C295 H301 0.929 . S
N296 Mn289 2.257 . S
N296 C295 1.326 . S
N296 C300 1.362 . S
C297 C298 1.258 . S
C297 C300 1.431 . S
C297 C317 1.449 . S
C298 C297 1.258 . S
C298 C299 1.477 . S
C298 H318 0.931 . S
C299 C295 1.460 . S
C299 C298 1.477 . S
C299 H319 0.930 . S
C300 N296 1.362 . S
C300 C297 1.431 . S
C300 C310 1.476 . S
H301 C295 0.929 . S
C302 O293 1.250 . S
C302 O294 1.258 . S
O303 Mn288 2.162 . S
O303 C291 1.281 . S
O304 Mn288 2.297 . S
O304 C291 1.236 . S
N305 Mn289 2.282 . S
N305 C306 1.328 . S
N305 C310 1.318 . S
C306 N305 1.328 . S
C306 C307 1.457 . S
C306 H311 0.929 . S
C307 C306 1.457 . S
C307 C308 1.291 . S
C307 H320 0.931 . S
C308 C307 1.291 . S
C308 C309 1.373 . S
C308 H321 0.929 . S
C309 C308 1.373 . S
C309 C310 1.396 . S
C309 C316 1.403 . S
C310 C300 1.476 . S
C310 N305 1.318 . S
C310 C309 1.396 . S
H311 C306 0.929 . S
O312 Mn288 2.385 . S
O312 C290 1.234 . S
O313 Mn288 2.209 . S
O313 Mn289 2.215 . S
O313 C290 1.283 . S
O314 Mn288 2.094 . S
O314 C292 1.240 . S
O315 Mn289 2.117 . S
O315 C292 1.264 . S
C316 C309 1.403 . S
C316 C317 1.399 . S
C316 H322 0.929 1_655 S
C317 C297 1.449 . S
C317 C316 1.399 . S
C317 H323 0.930 1_655 S
H318 C298 0.931 . S
H319 C299 0.930 . S
H320 C307 0.931 . S
H321 C308 0.929 . S
H322 C316 0.929 1_455 S
H323 C317 0.930 1_455 S
Mn324 O329 2.095 . S
Mn324 O339 2.162 . S
Mn324 O340 2.297 . S
Mn324 O348 2.385 . S
Mn324 O349 2.209 . S
Mn324 O350 2.094 . S
Mn325 O330 2.121 . S
Mn325 N332 2.257 . S
Mn325 N341 2.282 . S
Mn325 O349 2.215 . S
Mn325 O351 2.117 . S
C326 O348 1.234 . S
C326 O349 1.283 . S
C327 O339 1.281 . S
C327 O340 1.236 . S
C328 O350 1.240 . S
C328 O351 1.264 . S
O329 Mn324 2.095 . S
O329 C338 1.250 . S
O330 Mn325 2.121 . S
O330 C338 1.258 . S
C331 N332 1.326 . S
C331 C335 1.460 . S
C331 H337 0.929 . S
N332 Mn325 2.257 . S
N332 C331 1.326 . S
N332 C336 1.362 . S
C333 C334 1.258 . S
C333 C336 1.431 . S
C333 C353 1.449 . S
C334 C333 1.258 . S
C334 C335 1.477 . S
C334 H354 0.931 . S
C335 C331 1.460 . S
C335 C334 1.477 . S
C335 H355 0.930 . S
C336 N332 1.362 . S
C336 C333 1.431 . S
C336 C346 1.476 . S
H337 C331 0.929 . S
C338 O329 1.250 . S
C338 O330 1.258 . S
O339 Mn324 2.162 . S
O339 C327 1.281 . S
O340 Mn324 2.297 . S
O340 C327 1.236 . S
N341 Mn325 2.282 . S
N341 C342 1.328 . S
N341 C346 1.318 . S
C342 N341 1.328 . S
C342 C343 1.457 . S
C342 H347 0.929 . S
C343 C342 1.457 . S
C343 C344 1.291 . S
C343 H356 0.931 . S
C344 C343 1.291 . S
C344 C345 1.373 . S
C344 H357 0.929 . S
C345 C344 1.373 . S
C345 C346 1.396 . S
C345 C352 1.403 . S
C346 C336 1.476 . S
C346 N341 1.318 . S
C346 C345 1.396 . S
H347 C342 0.929 . S
O348 Mn324 2.385 . S
O348 C326 1.234 . S
O349 Mn324 2.209 . S
O349 Mn325 2.215 . S
O349 C326 1.283 . S
O350 Mn324 2.094 . S
O350 C328 1.240 . S
O351 Mn325 2.117 . S
O351 C328 1.264 . S
C352 C345 1.403 . S
C352 C353 1.399 . S
C352 H358 0.929 . S
C353 C333 1.449 . S
C353 C352 1.399 . S
C353 H359 0.930 . S
H354 C334 0.931 . S
H355 C335 0.930 . S
H356 C343 0.931 . S
H357 C344 0.929 . S
H358 C352 0.929 . S
H359 C353 0.930 . S
Mn360 O365 2.095 . S
Mn360 O375 2.162 . S
Mn360 O376 2.297 . S
Mn360 O384 2.385 . S
Mn360 O385 2.209 . S
Mn360 O386 2.094 . S
Mn361 O366 2.121 . S
Mn361 N368 2.257 . S
Mn361 N377 2.282 . S
Mn361 O385 2.215 . S
Mn361 O387 2.117 . S
C362 O384 1.234 . S
C362 O385 1.283 . S
C363 O375 1.281 . S
C363 O376 1.236 . S
C364 O386 1.240 . S
C364 O387 1.264 . S
O365 Mn360 2.095 . S
O365 C374 1.250 . S
O366 Mn361 2.121 . S
O366 C374 1.258 . S
C367 N368 1.326 . S
C367 C371 1.460 . S
C367 H373 0.929 . S
N368 Mn361 2.257 . S
N368 C367 1.326 . S
N368 C372 1.362 . S
C369 C370 1.258 . S
C369 C372 1.431 . S
C369 C389 1.449 . S
C370 C369 1.258 . S
C370 C371 1.477 . S
C370 H390 0.931 . S
C371 C367 1.460 . S
C371 C370 1.477 . S
C371 H391 0.930 . S
C372 N368 1.362 . S
C372 C369 1.431 . S
C372 C382 1.476 . S
H373 C367 0.929 . S
C374 O365 1.250 . S
C374 O366 1.258 . S
O375 Mn360 2.162 . S
O375 C363 1.281 . S
O376 Mn360 2.297 . S
O376 C363 1.236 . S
N377 Mn361 2.282 . S
N377 C378 1.328 . S
N377 C382 1.318 . S
C378 N377 1.328 . S
C378 C379 1.457 . S
C378 H383 0.929 . S
C379 C378 1.457 . S
C379 C380 1.291 . S
C379 H392 0.931 . S
C380 C379 1.291 . S
C380 C381 1.373 . S
C380 H393 0.929 . S
C381 C380 1.373 . S
C381 C382 1.396 . S
C381 C388 1.403 . S
C382 C372 1.476 . S
C382 N377 1.318 . S
C382 C381 1.396 . S
H383 C378 0.929 . S
O384 Mn360 2.385 . S
O384 C362 1.234 . S
O385 Mn360 2.209 . S
O385 Mn361 2.215 . S
O385 C362 1.283 . S
O386 Mn360 2.094 . S
O386 C364 1.240 . S
O387 Mn361 2.117 . S
O387 C364 1.264 . S
C388 C381 1.403 . S
C388 C389 1.399 . S
C388 H394 0.929 . S
C389 C369 1.449 . S
C389 C388 1.399 . S
C389 H395 0.930 . S
H390 C370 0.931 . S
H391 C371 0.930 . S
H392 C379 0.931 . S
H393 C380 0.929 . S
H394 C388 0.929 . S
H395 C389 0.930 . S
Mn396 O401 2.095 . S
Mn396 O411 2.162 . S
Mn396 O412 2.297 . S
Mn396 O420 2.385 . S
Mn396 O421 2.209 . S
Mn396 O422 2.094 . S
Mn397 O402 2.121 . S
Mn397 N404 2.257 . S
Mn397 N413 2.282 . S
Mn397 O421 2.215 . S
Mn397 O423 2.117 . S
C398 O420 1.234 . S
C398 O421 1.283 . S
C399 O411 1.281 . S
C399 O412 1.236 . S
C400 O422 1.240 . S
C400 O423 1.264 . S
O401 Mn396 2.095 . S
O401 C410 1.250 . S
O402 Mn397 2.121 . S
O402 C410 1.258 . S
C403 N404 1.326 . S
C403 C407 1.460 . S
C403 H409 0.929 . S
N404 Mn397 2.257 . S
N404 C403 1.326 . S
N404 C408 1.362 . S
C405 C406 1.258 . S
C405 C408 1.431 . S
C405 C425 1.449 . S
C406 C405 1.258 . S
C406 C407 1.477 . S
C406 H426 0.931 . S
C407 C403 1.460 . S
C407 C406 1.477 . S
C407 H427 0.930 . S
C408 N404 1.362 . S
C408 C405 1.431 . S
C408 C418 1.476 . S
H409 C403 0.929 . S
C410 O401 1.250 . S
C410 O402 1.258 . S
O411 Mn396 2.162 . S
O411 C399 1.281 . S
O412 Mn396 2.297 . S
O412 C399 1.236 . S
N413 Mn397 2.282 . S
N413 C414 1.328 . S
N413 C418 1.318 . S
C414 N413 1.328 . S
C414 C415 1.457 . S
C414 H419 0.929 . S
C415 C414 1.457 . S
C415 C416 1.291 . S
C415 H428 0.931 . S
C416 C415 1.291 . S
C416 C417 1.373 . S
C416 H429 0.929 . S
C417 C416 1.373 . S
C417 C418 1.396 . S
C417 C424 1.403 . S
C418 C408 1.476 . S
C418 N413 1.318 . S
C418 C417 1.396 . S
H419 C414 0.929 . S
O420 Mn396 2.385 . S
O420 C398 1.234 . S
O421 Mn396 2.209 . S
O421 Mn397 2.215 . S
O421 C398 1.283 . S
O422 Mn396 2.094 . S
O422 C400 1.240 . S
O423 Mn397 2.117 . S
O423 C400 1.264 . S
C424 C417 1.403 . S
C424 C425 1.399 . S
C424 H430 0.929 . S
C425 C405 1.449 . S
C425 C424 1.399 . S
C425 H431 0.930 . S
H426 C406 0.931 . S
H427 C407 0.930 . S
H428 C415 0.931 . S
H429 C416 0.929 . S
H430 C424 0.929 . S
H431 C425 0.930 . S
Mn432 O437 2.095 . S
Mn432 O447 2.162 . S
Mn432 O448 2.297 . S
Mn432 O456 2.385 . S
Mn432 O457 2.209 . S
Mn432 O458 2.094 . S
Mn433 O438 2.121 . S
Mn433 N440 2.257 . S
Mn433 N449 2.282 . S
Mn433 O457 2.215 . S
Mn433 O459 2.117 . S
C434 O456 1.234 . S
C434 O457 1.283 . S
C435 O447 1.281 . S
C435 O448 1.236 . S
C436 O458 1.240 . S
C436 O459 1.264 . S
O437 Mn432 2.095 . S
O437 C446 1.250 . S
O438 Mn433 2.121 . S
O438 C446 1.258 . S
C439 N440 1.326 . S
C439 C443 1.460 . S
C439 H445 0.929 . S
N440 Mn433 2.257 . S
N440 C439 1.326 . S
N440 C444 1.362 . S
C441 C442 1.258 . S
C441 C444 1.431 . S
C441 C461 1.449 . S
C442 C441 1.258 . S
C442 C443 1.477 . S
C442 H462 0.931 . S
C443 C439 1.460 . S
C443 C442 1.477 . S
C443 H463 0.930 . S
C444 N440 1.362 . S
C444 C441 1.431 . S
C444 C454 1.476 . S
H445 C439 0.929 . S
C446 O437 1.250 . S
C446 O438 1.258 . S
O447 Mn432 2.162 . S
O447 C435 1.281 . S
O448 Mn432 2.297 . S
O448 C435 1.236 . S
N449 Mn433 2.282 . S
N449 C450 1.328 . S
N449 C454 1.318 . S
C450 N449 1.328 . S
C450 C451 1.457 . S
C450 H455 0.929 . S
C451 C450 1.457 . S
C451 C452 1.291 . S
C451 H464 0.931 . S
C452 C451 1.291 . S
C452 C453 1.373 . S
C452 H465 0.929 . S
C453 C452 1.373 . S
C453 C454 1.396 . S
C453 C460 1.403 . S
C454 C444 1.476 . S
C454 N449 1.318 . S
C454 C453 1.396 . S
H455 C450 0.929 . S
O456 Mn432 2.385 . S
O456 C434 1.234 . S
O457 Mn432 2.209 . S
O457 Mn433 2.215 . S
O457 C434 1.283 . S
O458 Mn432 2.094 . S
O458 C436 1.240 . S
O459 Mn433 2.117 . S
O459 C436 1.264 . S
C460 C453 1.403 . S
C460 C461 1.399 . S
C460 H466 0.929 1_655 S
C461 C441 1.449 . S
C461 C460 1.399 . S
C461 H467 0.930 1_655 S
H462 C442 0.931 . S
H463 C443 0.930 . S
H464 C451 0.931 . S
H465 C452 0.929 . S
H466 C460 0.929 1_455 S
H467 C461 0.930 1_455 S
Mn468 O473 2.095 . S
Mn468 O483 2.162 . S
Mn468 O484 2.297 . S
Mn468 O492 2.385 . S
Mn468 O493 2.209 . S
Mn468 O494 2.094 . S
Mn469 O474 2.121 . S
Mn469 N476 2.257 . S
Mn469 N485 2.282 . S
Mn469 O493 2.215 . S
Mn469 O495 2.117 . S
C470 O492 1.234 . S
C470 O493 1.283 . S
C471 O483 1.281 . S
C471 O484 1.236 . S
C472 O494 1.240 . S
C472 O495 1.264 . S
O473 Mn468 2.095 . S
O473 C482 1.250 . S
O474 Mn469 2.121 . S
O474 C482 1.258 . S
C475 N476 1.326 . S
C475 C479 1.460 . S
C475 H481 0.929 . S
N476 Mn469 2.257 . S
N476 C475 1.326 . S
N476 C480 1.362 . S
C477 C478 1.258 . S
C477 C480 1.431 . S
C477 C497 1.449 . S
C478 C477 1.258 . S
C478 C479 1.477 . S
C478 H498 0.931 . S
C479 C475 1.460 . S
C479 C478 1.477 . S
C479 H499 0.930 . S
C480 N476 1.362 . S
C480 C477 1.431 . S
C480 C490 1.476 . S
H481 C475 0.929 . S
C482 O473 1.250 . S
C482 O474 1.258 . S
O483 Mn468 2.162 . S
O483 C471 1.281 . S
O484 Mn468 2.297 . S
O484 C471 1.236 . S
N485 Mn469 2.282 . S
N485 C486 1.328 . S
N485 C490 1.318 . S
C486 N485 1.328 . S
C486 C487 1.457 . S
C486 H491 0.929 . S
C487 C486 1.457 . S
C487 C488 1.291 . S
C487 H500 0.931 . S
C488 C487 1.291 . S
C488 C489 1.373 . S
C488 H501 0.929 . S
C489 C488 1.373 . S
C489 C490 1.396 . S
C489 C496 1.403 . S
C490 C480 1.476 . S
C490 N485 1.318 . S
C490 C489 1.396 . S
H491 C486 0.929 . S
O492 Mn468 2.385 . S
O492 C470 1.234 . S
O493 Mn468 2.209 . S
O493 Mn469 2.215 . S
O493 C470 1.283 . S
O494 Mn468 2.094 . S
O494 C472 1.240 . S
O495 Mn469 2.117 . S
O495 C472 1.264 . S
C496 C489 1.403 . S
C496 C497 1.399 . S
C496 H502 0.929 . S
C497 C477 1.449 . S
C497 C496 1.399 . S
C497 H503 0.930 . S
H498 C478 0.931 . S
H499 C479 0.930 . S
H500 C487 0.931 . S
H501 C488 0.929 . S
H502 C496 0.929 . S
H503 C497 0.930 . S
Mn504 O509 2.095 . S
Mn504 O519 2.162 . S
Mn504 O520 2.297 . S
Mn504 O528 2.385 . S
Mn504 O529 2.209 . S
Mn504 O530 2.094 . S
Mn505 O510 2.121 . S
Mn505 N512 2.257 . S
Mn505 N521 2.282 . S
Mn505 O529 2.215 . S
Mn505 O531 2.117 . S
C506 O528 1.234 . S
C506 O529 1.283 . S
C507 O519 1.281 . S
C507 O520 1.236 . S
C508 O530 1.240 . S
C508 O531 1.264 . S
O509 Mn504 2.095 . S
O509 C518 1.250 . S
O510 Mn505 2.121 . S
O510 C518 1.258 . S
C511 N512 1.326 . S
C511 C515 1.460 . S
C511 H517 0.929 . S
N512 Mn505 2.257 . S
N512 C511 1.326 . S
N512 C516 1.362 . S
C513 C514 1.258 . S
C513 C516 1.431 . S
C513 C533 1.449 . S
C514 C513 1.258 . S
C514 C515 1.477 . S
C514 H534 0.931 . S
C515 C511 1.460 . S
C515 C514 1.477 . S
C515 H535 0.930 . S
C516 N512 1.362 . S
C516 C513 1.431 . S
C516 C526 1.476 . S
H517 C511 0.929 . S
C518 O509 1.250 . S
C518 O510 1.258 . S
O519 Mn504 2.162 . S
O519 C507 1.281 . S
O520 Mn504 2.297 . S
O520 C507 1.236 . S
N521 Mn505 2.282 . S
N521 C522 1.328 . S
N521 C526 1.318 . S
C522 N521 1.328 . S
C522 C523 1.457 . S
C522 H527 0.929 . S
C523 C522 1.457 . S
C523 C524 1.291 . S
C523 H536 0.931 . S
C524 C523 1.291 . S
C524 C525 1.373 . S
C524 H537 0.929 . S
C525 C524 1.373 . S
C525 C526 1.396 . S
C525 C532 1.403 . S
C526 C516 1.476 . S
C526 N521 1.318 . S
C526 C525 1.396 . S
H527 C522 0.929 . S
O528 Mn504 2.385 . S
O528 C506 1.234 . S
O529 Mn504 2.209 . S
O529 Mn505 2.215 . S
O529 C506 1.283 . S
O530 Mn504 2.094 . S
O530 C508 1.240 . S
O531 Mn505 2.117 . S
O531 C508 1.264 . S
C532 C525 1.403 . S
C532 C533 1.399 . S
C532 H538 0.929 . S
C533 C513 1.449 . S
C533 C532 1.399 . S
C533 H539 0.930 . S
H534 C514 0.931 . S
H535 C515 0.930 . S
H536 C523 0.931 . S
H537 C524 0.929 . S
H538 C532 0.929 . S
H539 C533 0.930 . S
Mn540 O545 2.095 . S
Mn540 O555 2.162 . S
Mn540 O556 2.297 . S
Mn540 O564 2.385 . S
Mn540 O565 2.209 . S
Mn540 O566 2.094 . S
Mn541 O546 2.121 . S
Mn541 N548 2.257 . S
Mn541 N557 2.282 . S
Mn541 O565 2.215 . S
Mn541 O567 2.117 . S
C542 O564 1.234 . S
C542 O565 1.283 . S
C543 O555 1.281 . S
C543 O556 1.236 . S
C544 O566 1.240 . S
C544 O567 1.264 . S
O545 Mn540 2.095 . S
O545 C554 1.250 . S
O546 Mn541 2.121 . S
O546 C554 1.258 . S
C547 N548 1.326 . S
C547 C551 1.460 . S
C547 H553 0.929 . S
N548 Mn541 2.257 . S
N548 C547 1.326 . S
N548 C552 1.362 . S
C549 C550 1.258 . S
C549 C552 1.431 . S
C549 C569 1.449 . S
C550 C549 1.258 . S
C550 C551 1.477 . S
C550 H570 0.931 . S
C551 C547 1.460 . S
C551 C550 1.477 . S
C551 H571 0.930 . S
C552 N548 1.362 . S
C552 C549 1.431 . S
C552 C562 1.476 . S
H553 C547 0.929 . S
C554 O545 1.250 . S
C554 O546 1.258 . S
O555 Mn540 2.162 . S
O555 C543 1.281 . S
O556 Mn540 2.297 . S
O556 C543 1.236 . S
N557 Mn541 2.282 . S
N557 C558 1.328 . S
N557 C562 1.318 . S
C558 N557 1.328 . S
C558 C559 1.457 . S
C558 H563 0.929 . S
C559 C558 1.457 . S
C559 C560 1.291 . S
C559 H572 0.931 . S
C560 C559 1.291 . S
C560 C561 1.373 . S
C560 H573 0.929 . S
C561 C560 1.373 . S
C561 C562 1.396 . S
C561 C568 1.403 . S
C562 C552 1.476 . S
C562 N557 1.318 . S
C562 C561 1.396 . S
H563 C558 0.929 . S
O564 Mn540 2.385 . S
O564 C542 1.234 . S
O565 Mn540 2.209 . S
O565 Mn541 2.215 . S
O565 C542 1.283 . S
O566 Mn540 2.094 . S
O566 C544 1.240 . S
O567 Mn541 2.117 . S
O567 C544 1.264 . S
C568 C561 1.403 . S
C568 C569 1.399 . S
C568 H574 0.929 . S
C569 C549 1.449 . S
C569 C568 1.399 . S
C569 H575 0.930 . S
H570 C550 0.931 . S
H571 C551 0.930 . S
H572 C559 0.931 . S
H573 C560 0.929 . S
H574 C568 0.929 . S
H575 C569 0.930 . S
Mn576 O581 2.095 . S
Mn576 O591 2.162 . S
Mn576 O592 2.297 . S
Mn576 O600 2.385 . S
Mn576 O601 2.209 . S
Mn576 O602 2.094 . S
Mn577 O582 2.121 . S
Mn577 N584 2.257 . S
Mn577 N593 2.282 . S
Mn577 O601 2.215 . S
Mn577 O603 2.117 . S
C578 O600 1.234 . S
C578 O601 1.283 . S
C579 O591 1.281 . S
C579 O592 1.236 . S
C580 O602 1.240 . S
C580 O603 1.264 . S
O581 Mn576 2.095 . S
O581 C590 1.250 . S
O582 Mn577 2.121 . S
O582 C590 1.258 . S
C583 N584 1.326 . S
C583 C587 1.460 . S
C583 H589 0.929 . S
N584 Mn577 2.257 . S
N584 C583 1.326 . S
N584 C588 1.362 . S
C585 C586 1.258 . S
C585 C588 1.431 . S
C585 C605 1.449 . S
C586 C585 1.258 . S
C586 C587 1.477 . S
C586 H606 0.931 . S
C587 C583 1.460 . S
C587 C586 1.477 . S
C587 H607 0.930 . S
C588 N584 1.362 . S
C588 C585 1.431 . S
C588 C598 1.476 . S
H589 C583 0.929 . S
C590 O581 1.250 . S
C590 O582 1.258 . S
O591 Mn576 2.162 . S
O591 C579 1.281 . S
O592 Mn576 2.297 . S
O592 C579 1.236 . S
N593 Mn577 2.282 . S
N593 C594 1.328 . S
N593 C598 1.318 . S
C594 N593 1.328 . S
C594 C595 1.457 . S
C594 H599 0.929 . S
C595 C594 1.457 . S
C595 C596 1.291 . S
C595 H608 0.931 . S
C596 C595 1.291 . S
C596 C597 1.373 . S
C596 H609 0.929 . S
C597 C596 1.373 . S
C597 C598 1.396 . S
C597 C604 1.403 . S
C598 C588 1.476 . S
C598 N593 1.318 . S
C598 C597 1.396 . S
H599 C594 0.929 . S
O600 Mn576 2.385 . S
O600 C578 1.234 . S
O601 Mn576 2.209 . S
O601 Mn577 2.215 . S
O601 C578 1.283 . S
O602 Mn576 2.094 . S
O602 C580 1.240 . S
O603 Mn577 2.117 . S
O603 C580 1.264 . S
C604 C597 1.403 . S
C604 C605 1.399 . S
C604 H610 0.929 . S
C605 C585 1.449 . S
C605 C604 1.399 . S
C605 H611 0.930 . S
H606 C586 0.931 . S
H607 C587 0.930 . S
H608 C595 0.931 . S
H609 C596 0.929 . S
H610 C604 0.929 . S
H611 C605 0.930 . S
Mn612 O617 2.095 . S
Mn612 O627 2.162 . S
Mn612 O628 2.297 . S
Mn612 O636 2.385 . S
Mn612 O637 2.209 . S
Mn612 O638 2.094 . S
Mn613 O618 2.121 . S
Mn613 N620 2.257 . S
Mn613 N629 2.282 . S
Mn613 O637 2.215 . S
Mn613 O639 2.117 . S
C614 O636 1.234 . S
C614 O637 1.283 . S
C615 O627 1.281 . S
C615 O628 1.236 . S
C616 O638 1.240 . S
C616 O639 1.264 . S
O617 Mn612 2.095 . S
O617 C626 1.250 . S
O618 Mn613 2.121 . S
O618 C626 1.258 . S
C619 N620 1.326 . S
C619 C623 1.460 . S
C619 H625 0.929 . S
N620 Mn613 2.257 . S
N620 C619 1.326 . S
N620 C624 1.362 . S
C621 C622 1.258 . S
C621 C624 1.431 . S
C621 C641 1.449 . S
C622 C621 1.258 . S
C622 C623 1.477 . S
C622 H642 0.931 . S
C623 C619 1.460 . S
C623 C622 1.477 . S
C623 H643 0.930 . S
C624 N620 1.362 . S
C624 C621 1.431 . S
C624 C634 1.476 . S
H625 C619 0.929 . S
C626 O617 1.250 . S
C626 O618 1.258 . S
O627 Mn612 2.162 . S
O627 C615 1.281 . S
O628 Mn612 2.297 . S
O628 C615 1.236 . S
N629 Mn613 2.282 . S
N629 C630 1.328 . S
N629 C634 1.318 . S
C630 N629 1.328 . S
C630 C631 1.457 . S
C630 H635 0.929 . S
C631 C630 1.457 . S
C631 C632 1.291 . S
C631 H644 0.931 . S
C632 C631 1.291 . S
C632 C633 1.373 . S
C632 H645 0.929 . S
C633 C632 1.373 . S
C633 C634 1.396 . S
C633 C640 1.403 . S
C634 C624 1.476 . S
C634 N629 1.318 . S
C634 C633 1.396 . S
H635 C630 0.929 . S
O636 Mn612 2.385 . S
O636 C614 1.234 . S
O637 Mn612 2.209 . S
O637 Mn613 2.215 . S
O637 C614 1.283 . S
O638 Mn612 2.094 . S
O638 C616 1.240 . S
O639 Mn613 2.117 . S
O639 C616 1.264 . S
C640 C633 1.403 . S
C640 C641 1.399 . S
C640 H646 0.929 . S
C641 C621 1.449 . S
C641 C640 1.399 . S
C641 H647 0.930 . S
H642 C622 0.931 . S
H643 C623 0.930 . S
H644 C631 0.931 . S
H645 C632 0.929 . S
H646 C640 0.929 . S
H647 C641 0.930 . S
Mn648 O653 2.095 . S
Mn648 O663 2.162 . S
Mn648 O664 2.297 . S
Mn648 O672 2.385 . S
Mn648 O673 2.209 . S
Mn648 O674 2.094 . S
Mn649 O654 2.121 . S
Mn649 N656 2.257 . S
Mn649 N665 2.282 . S
Mn649 O673 2.215 . S
Mn649 O675 2.117 . S
C650 O672 1.234 . S
C650 O673 1.283 . S
C651 O663 1.281 . S
C651 O664 1.236 . S
C652 O674 1.240 . S
C652 O675 1.264 . S
O653 Mn648 2.095 . S
O653 C662 1.250 . S
O654 Mn649 2.121 . S
O654 C662 1.258 . S
C655 N656 1.326 . S
C655 C659 1.460 . S
C655 H661 0.929 . S
N656 Mn649 2.257 . S
N656 C655 1.326 . S
N656 C660 1.362 . S
C657 C658 1.258 . S
C657 C660 1.431 . S
C657 C677 1.449 . S
C658 C657 1.258 . S
C658 C659 1.477 . S
C658 H678 0.931 . S
C659 C655 1.460 . S
C659 C658 1.477 . S
C659 H679 0.930 . S
C660 N656 1.362 . S
C660 C657 1.431 . S
C660 C670 1.476 . S
H661 C655 0.929 . S
C662 O653 1.250 . S
C662 O654 1.258 . S
O663 Mn648 2.162 . S
O663 C651 1.281 . S
O664 Mn648 2.297 . S
O664 C651 1.236 . S
N665 Mn649 2.282 . S
N665 C666 1.328 . S
N665 C670 1.318 . S
C666 N665 1.328 . S
C666 C667 1.457 . S
C666 H671 0.929 . S
C667 C666 1.457 . S
C667 C668 1.291 . S
C667 H680 0.931 . S
C668 C667 1.291 . S
C668 C669 1.373 . S
C668 H681 0.929 . S
C669 C668 1.373 . S
C669 C670 1.396 . S
C669 C676 1.403 . S
C670 C660 1.476 . S
C670 N665 1.318 . S
C670 C669 1.396 . S
H671 C666 0.929 . S
O672 Mn648 2.385 . S
O672 C650 1.234 . S
O673 Mn648 2.209 . S
O673 Mn649 2.215 . S
O673 C650 1.283 . S
O674 Mn648 2.094 . S
O674 C652 1.240 . S
O675 Mn649 2.117 . S
O675 C652 1.264 . S
C676 C669 1.403 . S
C676 C677 1.399 . S
C676 H682 0.929 1_655 S
C677 C657 1.449 . S
C677 C676 1.399 . S
C677 H683 0.930 1_655 S
H678 C658 0.931 . S
H679 C659 0.930 . S
H680 C667 0.931 . S
H681 C668 0.929 . S
H682 C676 0.929 1_455 S
H683 C677 0.930 1_455 S
Mn684 O689 2.095 . S
Mn684 O699 2.162 . S
Mn684 O700 2.297 . S
Mn684 O708 2.385 . S
Mn684 O709 2.209 . S
Mn684 O710 2.094 . S
Mn685 O690 2.121 . S
Mn685 N692 2.257 . S
Mn685 N701 2.282 . S
Mn685 O709 2.215 . S
Mn685 O711 2.117 . S
C686 O708 1.234 . S
C686 O709 1.283 . S
C687 O699 1.281 . S
C687 O700 1.236 . S
C688 O710 1.240 . S
C688 O711 1.264 . S
O689 Mn684 2.095 . S
O689 C698 1.250 . S
O690 Mn685 2.121 . S
O690 C698 1.258 . S
C691 N692 1.326 . S
C691 C695 1.460 . S
C691 H697 0.929 . S
N692 Mn685 2.257 . S
N692 C691 1.326 . S
N692 C696 1.362 . S
C693 C694 1.258 . S
C693 C696 1.431 . S
C693 C713 1.449 . S
C694 C693 1.258 . S
C694 C695 1.477 . S
C694 H714 0.931 . S
C695 C691 1.460 . S
C695 C694 1.477 . S
C695 H715 0.930 . S
C696 N692 1.362 . S
C696 C693 1.431 . S
C696 C706 1.476 . S
H697 C691 0.929 . S
C698 O689 1.250 . S
C698 O690 1.258 . S
O699 Mn684 2.162 . S
O699 C687 1.281 . S
O700 Mn684 2.297 . S
O700 C687 1.236 . S
N701 Mn685 2.282 . S
N701 C702 1.328 . S
N701 C706 1.318 . S
C702 N701 1.328 . S
C702 C703 1.457 . S
C702 H707 0.929 . S
C703 C702 1.457 . S
C703 C704 1.291 . S
C703 H716 0.931 . S
C704 C703 1.291 . S
C704 C705 1.373 . S
C704 H717 0.929 . S
C705 C704 1.373 . S
C705 C706 1.396 . S
C705 C712 1.403 . S
C706 C696 1.476 . S
C706 N701 1.318 . S
C706 C705 1.396 . S
H707 C702 0.929 . S
O708 Mn684 2.385 . S
O708 C686 1.234 . S
O709 Mn684 2.209 . S
O709 Mn685 2.215 . S
O709 C686 1.283 . S
O710 Mn684 2.094 . S
O710 C688 1.240 . S
O711 Mn685 2.117 . S
O711 C688 1.264 . S
C712 C705 1.403 . S
C712 C713 1.399 . S
C712 H718 0.929 . S
C713 C693 1.449 . S
C713 C712 1.399 . S
C713 H719 0.930 . S
H714 C694 0.931 . S
H715 C695 0.930 . S
H716 C703 0.931 . S
H717 C704 0.929 . S
H718 C712 0.929 . S
H719 C713 0.930 . S
Mn720 O725 2.095 . S
Mn720 O735 2.162 . S
Mn720 O736 2.297 . S
Mn720 O744 2.385 . S
Mn720 O745 2.209 . S
Mn720 O746 2.094 . S
Mn721 O726 2.121 . S
Mn721 N728 2.257 . S
Mn721 N737 2.282 . S
Mn721 O745 2.215 . S
Mn721 O747 2.117 . S
C722 O744 1.234 . S
C722 O745 1.283 . S
C723 O735 1.281 . S
C723 O736 1.236 . S
C724 O746 1.240 . S
C724 O747 1.264 . S
O725 Mn720 2.095 . S
O725 C734 1.250 . S
O726 Mn721 2.121 . S
O726 C734 1.258 . S
C727 N728 1.326 . S
C727 C731 1.460 . S
C727 H733 0.929 . S
N728 Mn721 2.257 . S
N728 C727 1.326 . S
N728 C732 1.362 . S
C729 C730 1.258 . S
C729 C732 1.431 . S
C729 C749 1.449 . S
C730 C729 1.258 . S
C730 C731 1.477 . S
C730 H750 0.931 . S
C731 C727 1.460 . S
C731 C730 1.477 . S
C731 H751 0.930 . S
C732 N728 1.362 . S
C732 C729 1.431 . S
C732 C742 1.476 . S
H733 C727 0.929 . S
C734 O725 1.250 . S
C734 O726 1.258 . S
O735 Mn720 2.162 . S
O735 C723 1.281 . S
O736 Mn720 2.297 . S
O736 C723 1.236 . S
N737 Mn721 2.282 . S
N737 C738 1.328 . S
N737 C742 1.318 . S
C738 N737 1.328 . S
C738 C739 1.457 . S
C738 H743 0.929 . S
C739 C738 1.457 . S
C739 C740 1.291 . S
C739 H752 0.931 . S
C740 C739 1.291 . S
C740 C741 1.373 . S
C740 H753 0.929 . S
C741 C740 1.373 . S
C741 C742 1.396 . S
C741 C748 1.403 . S
C742 C732 1.476 . S
C742 N737 1.318 . S
C742 C741 1.396 . S
H743 C738 0.929 . S
O744 Mn720 2.385 . S
O744 C722 1.234 . S
O745 Mn720 2.209 . S
O745 Mn721 2.215 . S
O745 C722 1.283 . S
O746 Mn720 2.094 . S
O746 C724 1.240 . S
O747 Mn721 2.117 . S
O747 C724 1.264 . S
C748 C741 1.403 . S
C748 C749 1.399 . S
C748 H754 0.929 . S
C749 C729 1.449 . S
C749 C748 1.399 . S
C749 H755 0.930 . S
H750 C730 0.931 . S
H751 C731 0.930 . S
H752 C739 0.931 . S
H753 C740 0.929 . S
H754 C748 0.929 . S
H755 C749 0.930 . S
Mn756 O761 2.095 . S
Mn756 O771 2.162 . S
Mn756 O772 2.297 . S
Mn756 O780 2.385 . S
Mn756 O781 2.209 . S
Mn756 O782 2.094 . S
Mn757 O762 2.121 . S
Mn757 N764 2.257 . S
Mn757 N773 2.282 . S
Mn757 O781 2.215 . S
Mn757 O783 2.117 . S
C758 O780 1.234 . S
C758 O781 1.283 . S
C759 O771 1.281 . S
C759 O772 1.236 . S
C760 O782 1.240 . S
C760 O783 1.264 . S
O761 Mn756 2.095 . S
O761 C770 1.250 . S
O762 Mn757 2.121 . S
O762 C770 1.258 . S
C763 N764 1.326 . S
C763 C767 1.460 . S
C763 H769 0.929 . S
N764 Mn757 2.257 . S
N764 C763 1.326 . S
N764 C768 1.362 . S
C765 C766 1.258 . S
C765 C768 1.431 . S
C765 C785 1.449 . S
C766 C765 1.258 . S
C766 C767 1.477 . S
C766 H786 0.931 . S
C767 C763 1.460 . S
C767 C766 1.477 . S
C767 H787 0.930 . S
C768 N764 1.362 . S
C768 C765 1.431 . S
C768 C778 1.476 . S
H769 C763 0.929 . S
C770 O761 1.250 . S
C770 O762 1.258 . S
O771 Mn756 2.162 . S
O771 C759 1.281 . S
O772 Mn756 2.297 . S
O772 C759 1.236 . S
N773 Mn757 2.282 . S
N773 C774 1.328 . S
N773 C778 1.318 . S
C774 N773 1.328 . S
C774 C775 1.457 . S
C774 H779 0.929 . S
C775 C774 1.457 . S
C775 C776 1.291 . S
C775 H788 0.931 . S
C776 C775 1.291 . S
C776 C777 1.373 . S
C776 H789 0.929 . S
C777 C776 1.373 . S
C777 C778 1.396 . S
C777 C784 1.403 . S
C778 C768 1.476 . S
C778 N773 1.318 . S
C778 C777 1.396 . S
H779 C774 0.929 . S
O780 Mn756 2.385 . S
O780 C758 1.234 . S
O781 Mn756 2.209 . S
O781 Mn757 2.215 . S
O781 C758 1.283 . S
O782 Mn756 2.094 . S
O782 C760 1.240 . S
O783 Mn757 2.117 . S
O783 C760 1.264 . S
C784 C777 1.403 . S
C784 C785 1.399 . S
C784 H790 0.929 . S
C785 C765 1.449 . S
C785 C784 1.399 . S
C785 H791 0.930 . S
H786 C766 0.931 . S
H787 C767 0.930 . S
H788 C775 0.931 . S
H789 C776 0.929 . S
H790 C784 0.929 . S
H791 C785 0.930 . S
Mn792 O797 2.095 . S
Mn792 O807 2.162 . S
Mn792 O808 2.297 . S
Mn792 O816 2.385 . S
Mn792 O817 2.209 . S
Mn792 O818 2.094 . S
Mn793 O798 2.121 . S
Mn793 N800 2.257 . S
Mn793 N809 2.282 . S
Mn793 O817 2.215 . S
Mn793 O819 2.117 . S
C794 O816 1.234 . S
C794 O817 1.283 . S
C795 O807 1.281 . S
C795 O808 1.236 . S
C796 O818 1.240 . S
C796 O819 1.264 . S
O797 Mn792 2.095 . S
O797 C806 1.250 . S
O798 Mn793 2.121 . S
O798 C806 1.258 . S
C799 N800 1.326 . S
C799 C803 1.460 . S
C799 H805 0.929 . S
N800 Mn793 2.257 . S
N800 C799 1.326 . S
N800 C804 1.362 . S
C801 C802 1.258 . S
C801 C804 1.431 . S
C801 C821 1.449 . S
C802 C801 1.258 . S
C802 C803 1.477 . S
C802 H822 0.931 . S
C803 C799 1.460 . S
C803 C802 1.477 . S
C803 H823 0.930 . S
C804 N800 1.362 . S
C804 C801 1.431 . S
C804 C814 1.476 . S
H805 C799 0.929 . S
C806 O797 1.250 . S
C806 O798 1.258 . S
O807 Mn792 2.162 . S
O807 C795 1.281 . S
O808 Mn792 2.297 . S
O808 C795 1.236 . S
N809 Mn793 2.282 . S
N809 C810 1.328 . S
N809 C814 1.318 . S
C810 N809 1.328 . S
C810 C811 1.457 . S
C810 H815 0.929 . S
C811 C810 1.457 . S
C811 C812 1.291 . S
C811 H824 0.931 . S
C812 C811 1.291 . S
C812 C813 1.373 . S
C812 H825 0.929 . S
C813 C812 1.373 . S
C813 C814 1.396 . S
C813 C820 1.403 . S
C814 C804 1.476 . S
C814 N809 1.318 . S
C814 C813 1.396 . S
H815 C810 0.929 . S
O816 Mn792 2.385 . S
O816 C794 1.234 . S
O817 Mn792 2.209 . S
O817 Mn793 2.215 . S
O817 C794 1.283 . S
O818 Mn792 2.094 . S
O818 C796 1.240 . S
O819 Mn793 2.117 . S
O819 C796 1.264 . S
C820 C813 1.403 . S
C820 C821 1.399 . S
C820 H826 0.929 1_655 S
C821 C801 1.449 . S
C821 C820 1.399 . S
C821 H827 0.930 1_655 S
H822 C802 0.931 . S
H823 C803 0.930 . S
H824 C811 0.931 . S
H825 C812 0.929 . S
H826 C820 0.929 1_455 S
H827 C821 0.930 1_455 S
Mn828 O833 2.095 . S
Mn828 O843 2.162 . S
Mn828 O844 2.297 . S
Mn828 O852 2.385 . S
Mn828 O853 2.209 . S
Mn828 O854 2.094 . S
Mn829 O834 2.121 . S
Mn829 N836 2.257 . S
Mn829 N845 2.282 . S
Mn829 O853 2.215 . S
Mn829 O855 2.117 . S
C830 O852 1.234 . S
C830 O853 1.283 . S
C831 O843 1.281 . S
C831 O844 1.236 . S
C832 O854 1.240 . S
C832 O855 1.264 . S
O833 Mn828 2.095 . S
O833 C842 1.250 . S
O834 Mn829 2.121 . S
O834 C842 1.258 . S
C835 N836 1.326 . S
C835 C839 1.460 . S
C835 H841 0.929 . S
N836 Mn829 2.257 . S
N836 C835 1.326 . S
N836 C840 1.362 . S
C837 C838 1.258 . S
C837 C840 1.431 . S
C837 C857 1.449 . S
C838 C837 1.258 . S
C838 C839 1.477 . S
C838 H858 0.931 . S
C839 C835 1.460 . S
C839 C838 1.477 . S
C839 H859 0.930 . S
C840 N836 1.362 . S
C840 C837 1.431 . S
C840 C850 1.476 . S
H841 C835 0.929 . S
C842 O833 1.250 . S
C842 O834 1.258 . S
O843 Mn828 2.162 . S
O843 C831 1.281 . S
O844 Mn828 2.297 . S
O844 C831 1.236 . S
N845 Mn829 2.282 . S
N845 C846 1.328 . S
N845 C850 1.318 . S
C846 N845 1.328 . S
C846 C847 1.457 . S
C846 H851 0.929 . S
C847 C846 1.457 . S
C847 C848 1.291 . S
C847 H860 0.931 . S
C848 C847 1.291 . S
C848 C849 1.373 . S
C848 H861 0.929 . S
C849 C848 1.373 . S
C849 C850 1.396 . S
C849 C856 1.403 . S
C850 C840 1.476 . S
C850 N845 1.318 . S
C850 C849 1.396 . S
H851 C846 0.929 . S
O852 Mn828 2.385 . S
O852 C830 1.234 . S
O853 Mn828 2.209 . S
O853 Mn829 2.215 . S
O853 C830 1.283 . S
O854 Mn828 2.094 . S
O854 C832 1.240 . S
O855 Mn829 2.117 . S
O855 C832 1.264 . S
C856 C849 1.403 . S
C856 C857 1.399 . S
C856 H862 0.929 . S
C857 C837 1.449 . S
C857 C856 1.399 . S
C857 H863 0.930 . S
H858 C838 0.931 . S
H859 C839 0.930 . S
H860 C847 0.931 . S
H861 C848 0.929 . S
H862 C856 0.929 . S
H863 C857 0.930 . S
Mn864 O869 2.095 . S
Mn864 O879 2.162 . S
Mn864 O880 2.297 . S
Mn864 O888 2.385 . S
Mn864 O889 2.209 . S
Mn864 O890 2.094 . S
Mn865 O870 2.121 . S
Mn865 N872 2.257 . S
Mn865 N881 2.282 . S
Mn865 O889 2.215 . S
Mn865 O891 2.117 . S
C866 O888 1.234 . S
C866 O889 1.283 . S
C867 O879 1.281 . S
C867 O880 1.236 . S
C868 O890 1.240 . S
C868 O891 1.264 . S
O869 Mn864 2.095 . S
O869 C878 1.250 . S
O870 Mn865 2.121 . S
O870 C878 1.258 . S
C871 N872 1.326 . S
C871 C875 1.460 . S
C871 H877 0.929 . S
N872 Mn865 2.257 . S
N872 C871 1.326 . S
N872 C876 1.362 . S
C873 C874 1.258 . S
C873 C876 1.431 . S
C873 C893 1.449 . S
C874 C873 1.258 . S
C874 C875 1.477 . S
C874 H894 0.931 . S
C875 C871 1.460 . S
C875 C874 1.477 . S
C875 H895 0.930 . S
C876 N872 1.362 . S
C876 C873 1.431 . S
C876 C886 1.476 . S
H877 C871 0.929 . S
C878 O869 1.250 . S
C878 O870 1.258 . S
O879 Mn864 2.162 . S
O879 C867 1.281 . S
O880 Mn864 2.297 . S
O880 C867 1.236 . S
N881 Mn865 2.282 . S
N881 C882 1.328 . S
N881 C886 1.318 . S
C882 N881 1.328 . S
C882 C883 1.457 . S
C882 H887 0.929 . S
C883 C882 1.457 . S
C883 C884 1.291 . S
C883 H896 0.931 . S
C884 C883 1.291 . S
C884 C885 1.373 . S
C884 H897 0.929 . S
C885 C884 1.373 . S
C885 C886 1.396 . S
C885 C892 1.403 . S
C886 C876 1.476 . S
C886 N881 1.318 . S
C886 C885 1.396 . S
H887 C882 0.929 . S
O888 Mn864 2.385 . S
O888 C866 1.234 . S
O889 Mn864 2.209 . S
O889 Mn865 2.215 . S
O889 C866 1.283 . S
O890 Mn864 2.094 . S
O890 C868 1.240 . S
O891 Mn865 2.117 . S
O891 C868 1.264 . S
C892 C885 1.403 . S
C892 C893 1.399 . S
C892 H898 0.929 . S
C893 C873 1.449 . S
C893 C892 1.399 . S
C893 H899 0.930 . S
H894 C874 0.931 . S
H895 C875 0.930 . S
H896 C883 0.931 . S
H897 C884 0.929 . S
H898 C892 0.929 . S
H899 C893 0.930 . S
Mn900 O905 2.095 . S
Mn900 O915 2.162 . S
Mn900 O916 2.297 . S
Mn900 O924 2.385 . S
Mn900 O925 2.209 . S
Mn900 O926 2.094 . S
Mn901 O906 2.121 . S
Mn901 N908 2.257 . S
Mn901 N917 2.282 . S
Mn901 O925 2.215 . S
Mn901 O927 2.117 . S
C902 O924 1.234 . S
C902 O925 1.283 . S
C903 O915 1.281 . S
C903 O916 1.236 . S
C904 O926 1.240 . S
C904 O927 1.264 . S
O905 Mn900 2.095 . S
O905 C914 1.250 . S
O906 Mn901 2.121 . S
O906 C914 1.258 . S
C907 N908 1.326 . S
C907 C911 1.460 . S
C907 H913 0.929 . S
N908 Mn901 2.257 . S
N908 C907 1.326 . S
N908 C912 1.362 . S
C909 C910 1.258 . S
C909 C912 1.431 . S
C909 C929 1.449 . S
C910 C909 1.258 . S
C910 C911 1.477 . S
C910 H930 0.931 . S
C911 C907 1.460 . S
C911 C910 1.477 . S
C911 H931 0.930 . S
C912 N908 1.362 . S
C912 C909 1.431 . S
C912 C922 1.476 . S
H913 C907 0.929 . S
C914 O905 1.250 . S
C914 O906 1.258 . S
O915 Mn900 2.162 . S
O915 C903 1.281 . S
O916 Mn900 2.297 . S
O916 C903 1.236 . S
N917 Mn901 2.282 . S
N917 C918 1.328 . S
N917 C922 1.318 . S
C918 N917 1.328 . S
C918 C919 1.457 . S
C918 H923 0.929 . S
C919 C918 1.457 . S
C919 C920 1.291 . S
C919 H932 0.931 . S
C920 C919 1.291 . S
C920 C921 1.373 . S
C920 H933 0.929 . S
C921 C920 1.373 . S
C921 C922 1.396 . S
C921 C928 1.403 . S
C922 C912 1.476 . S
C922 N917 1.318 . S
C922 C921 1.396 . S
H923 C918 0.929 . S
O924 Mn900 2.385 . S
O924 C902 1.234 . S
O925 Mn900 2.209 . S
O925 Mn901 2.215 . S
O925 C902 1.283 . S
O926 Mn900 2.094 . S
O926 C904 1.240 . S
O927 Mn901 2.117 . S
O927 C904 1.264 . S
C928 C921 1.403 . S
C928 C929 1.399 . S
C928 H934 0.929 . S
C929 C909 1.449 . S
C929 C928 1.399 . S
C929 H935 0.930 . S
H930 C910 0.931 . S
H931 C911 0.930 . S
H932 C919 0.931 . S
H933 C920 0.929 . S
H934 C928 0.929 . S
H935 C929 0.930 . S
Mn936 O941 2.095 . S
Mn936 O951 2.162 . S
Mn936 O952 2.297 . S
Mn936 O960 2.385 . S
Mn936 O961 2.209 . S
Mn936 O962 2.094 . S
Mn937 O942 2.121 . S
Mn937 N944 2.257 . S
Mn937 N953 2.282 . S
Mn937 O961 2.215 . S
Mn937 O963 2.117 . S
C938 O960 1.234 . S
C938 O961 1.283 . S
C939 O951 1.281 . S
C939 O952 1.236 . S
C940 O962 1.240 . S
C940 O963 1.264 . S
O941 Mn936 2.095 . S
O941 C950 1.250 . S
O942 Mn937 2.121 . S
O942 C950 1.258 . S
C943 N944 1.326 . S
C943 C947 1.460 . S
C943 H949 0.929 . S
N944 Mn937 2.257 . S
N944 C943 1.326 . S
N944 C948 1.362 . S
C945 C946 1.258 . S
C945 C948 1.431 . S
C945 C965 1.449 . S
C946 C945 1.258 . S
C946 C947 1.477 . S
C946 H966 0.931 . S
C947 C943 1.460 . S
C947 C946 1.477 . S
C947 H967 0.930 . S
C948 N944 1.362 . S
C948 C945 1.431 . S
C948 C958 1.476 . S
H949 C943 0.929 . S
C950 O941 1.250 . S
C950 O942 1.258 . S
O951 Mn936 2.162 . S
O951 C939 1.281 . S
O952 Mn936 2.297 . S
O952 C939 1.236 . S
N953 Mn937 2.282 . S
N953 C954 1.328 . S
N953 C958 1.318 . S
C954 N953 1.328 . S
C954 C955 1.457 . S
C954 H959 0.929 . S
C955 C954 1.457 . S
C955 C956 1.291 . S
C955 H968 0.931 . S
C956 C955 1.291 . S
C956 C957 1.373 . S
C956 H969 0.929 . S
C957 C956 1.373 . S
C957 C958 1.396 . S
C957 C964 1.403 . S
C958 C948 1.476 . S
C958 N953 1.318 . S
C958 C957 1.396 . S
H959 C954 0.929 . S
O960 Mn936 2.385 . S
O960 C938 1.234 . S
O961 Mn936 2.209 . S
O961 Mn937 2.215 . S
O961 C938 1.283 . S
O962 Mn936 2.094 . S
O962 C940 1.240 . S
O963 Mn937 2.117 . S
O963 C940 1.264 . S
C964 C957 1.403 . S
C964 C965 1.399 . S
C964 H970 0.929 1_455 S
C965 C945 1.449 . S
C965 C964 1.399 . S
C965 H971 0.930 1_455 S
H966 C946 0.931 . S
H967 C947 0.930 . S
H968 C955 0.931 . S
H969 C956 0.929 . S
H970 C964 0.929 1_655 S
H971 C965 0.930 1_655 S
Mn972 O977 2.095 . S
Mn972 O987 2.162 . S
Mn972 O988 2.297 . S
Mn972 O996 2.385 . S
Mn972 O997 2.209 . S
Mn972 O998 2.094 . S
Mn973 O978 2.121 . S
Mn973 N980 2.257 . S
Mn973 N989 2.282 . S
Mn973 O997 2.215 . S
Mn973 O999 2.117 . S
C974 O996 1.234 . S
C974 O997 1.283 . S
C975 O987 1.281 . S
C975 O988 1.236 . S
C976 O998 1.240 . S
C976 O999 1.264 . S
O977 Mn972 2.095 . S
O977 C986 1.250 . S
O978 Mn973 2.121 . S
O978 C986 1.258 . S
C979 N980 1.326 . S
C979 C983 1.460 . S
C979 H985 0.929 . S
N980 Mn973 2.257 . S
N980 C979 1.326 . S
N980 C984 1.362 . S
C981 C982 1.258 . S
C981 C984 1.431 . S
C981 C1001 1.449 . S
C982 C981 1.258 . S
C982 C983 1.477 . S
C982 H1002 0.931 . S
C983 C979 1.460 . S
C983 C982 1.477 . S
C983 H1003 0.930 . S
C984 N980 1.362 . S
C984 C981 1.431 . S
C984 C994 1.476 . S
H985 C979 0.929 . S
C986 O977 1.250 . S
C986 O978 1.258 . S
O987 Mn972 2.162 . S
O987 C975 1.281 . S
O988 Mn972 2.297 . S
O988 C975 1.236 . S
N989 Mn973 2.282 . S
N989 C990 1.328 . S
N989 C994 1.318 . S
C990 N989 1.328 . S
C990 C991 1.457 . S
C990 H995 0.929 . S
C991 C990 1.457 . S
C991 C992 1.291 . S
C991 H1004 0.931 . S
C992 C991 1.291 . S
C992 C993 1.373 . S
C992 H1005 0.929 . S
C993 C992 1.373 . S
C993 C994 1.396 . S
C993 C1000 1.403 . S
C994 C984 1.476 . S
C994 N989 1.318 . S
C994 C993 1.396 . S
H995 C990 0.929 . S
O996 Mn972 2.385 . S
O996 C974 1.234 . S
O997 Mn972 2.209 . S
O997 Mn973 2.215 . S
O997 C974 1.283 . S
O998 Mn972 2.094 . S
O998 C976 1.240 . S
O999 Mn973 2.117 . S
O999 C976 1.264 . S
C1000 C993 1.403 . S
C1000 C1001 1.399 . S
C1000 H1006 0.929 . S
C1001 C981 1.449 . S
C1001 C1000 1.399 . S
C1001 H1007 0.930 . S
H1002 C982 0.931 . S
H1003 C983 0.930 . S
H1004 C991 0.931 . S
H1005 C992 0.929 . S
H1006 C1000 0.929 . S
H1007 C1001 0.930 . S
Mn1008 O1013 2.095 . S
Mn1008 O1023 2.162 . S
Mn1008 O1024 2.297 . S
Mn1008 O1032 2.385 . S
Mn1008 O1033 2.209 . S
Mn1008 O1034 2.094 . S
Mn1009 O1014 2.121 . S
Mn1009 N1016 2.257 . S
Mn1009 N1025 2.282 . S
Mn1009 O1033 2.215 . S
Mn1009 O1035 2.117 . S
C1010 O1032 1.234 . S
C1010 O1033 1.283 . S
C1011 O1023 1.281 . S
C1011 O1024 1.236 . S
C1012 O1034 1.240 . S
C1012 O1035 1.264 . S
O1013 Mn1008 2.095 . S
O1013 C1022 1.250 . S
O1014 Mn1009 2.121 . S
O1014 C1022 1.258 . S
C1015 N1016 1.326 . S
C1015 C1019 1.460 . S
C1015 H1021 0.929 . S
N1016 Mn1009 2.257 . S
N1016 C1015 1.326 . S
N1016 C1020 1.362 . S
C1017 C1018 1.258 . S
C1017 C1020 1.431 . S
C1017 C1037 1.449 . S
C1018 C1017 1.258 . S
C1018 C1019 1.477 . S
C1018 H1038 0.931 . S
C1019 C1015 1.460 . S
C1019 C1018 1.477 . S
C1019 H1039 0.930 . S
C1020 N1016 1.362 . S
C1020 C1017 1.431 . S
C1020 C1030 1.476 . S
H1021 C1015 0.929 . S
C1022 O1013 1.250 . S
C1022 O1014 1.258 . S
O1023 Mn1008 2.162 . S
O1023 C1011 1.281 . S
O1024 Mn1008 2.297 . S
O1024 C1011 1.236 . S
N1025 Mn1009 2.282 . S
N1025 C1026 1.328 . S
N1025 C1030 1.318 . S
C1026 N1025 1.328 . S
C1026 C1027 1.457 . S
C1026 H1031 0.929 . S
C1027 C1026 1.457 . S
C1027 C1028 1.291 . S
C1027 H1040 0.931 . S
C1028 C1027 1.291 . S
C1028 C1029 1.373 . S
C1028 H1041 0.929 . S
C1029 C1028 1.373 . S
C1029 C1030 1.396 . S
C1029 C1036 1.403 . S
C1030 C1020 1.476 . S
C1030 N1025 1.318 . S
C1030 C1029 1.396 . S
H1031 C1026 0.929 . S
O1032 Mn1008 2.385 . S
O1032 C1010 1.234 . S
O1033 Mn1008 2.209 . S
O1033 Mn1009 2.215 . S
O1033 C1010 1.283 . S
O1034 Mn1008 2.094 . S
O1034 C1012 1.240 . S
O1035 Mn1009 2.117 . S
O1035 C1012 1.264 . S
C1036 C1029 1.403 . S
C1036 C1037 1.399 . S
C1036 H1042 0.929 . S
C1037 C1017 1.449 . S
C1037 C1036 1.399 . S
C1037 H1043 0.930 . S
H1038 C1018 0.931 . S
H1039 C1019 0.930 . S
H1040 C1027 0.931 . S
H1041 C1028 0.929 . S
H1042 C1036 0.929 . S
H1043 C1037 0.930 . S
Mn1044 O1049 2.095 . S
Mn1044 O1059 2.162 . S
Mn1044 O1060 2.297 . S
Mn1044 O1068 2.385 . S
Mn1044 O1069 2.209 . S
Mn1044 O1070 2.094 . S
Mn1045 O1050 2.121 . S
Mn1045 N1052 2.257 . S
Mn1045 N1061 2.282 . S
Mn1045 O1069 2.215 . S
Mn1045 O1071 2.117 . S
C1046 O1068 1.234 . S
C1046 O1069 1.283 . S
C1047 O1059 1.281 . S
C1047 O1060 1.236 . S
C1048 O1070 1.240 . S
C1048 O1071 1.264 . S
O1049 Mn1044 2.095 . S
O1049 C1058 1.250 . S
O1050 Mn1045 2.121 . S
O1050 C1058 1.258 . S
C1051 N1052 1.326 . S
C1051 C1055 1.460 . S
C1051 H1057 0.929 . S
N1052 Mn1045 2.257 . S
N1052 C1051 1.326 . S
N1052 C1056 1.362 . S
C1053 C1054 1.258 . S
C1053 C1056 1.431 . S
C1053 C1073 1.449 . S
C1054 C1053 1.258 . S
C1054 C1055 1.477 . S
C1054 H1074 0.931 . S
C1055 C1051 1.460 . S
C1055 C1054 1.477 . S
C1055 H1075 0.930 . S
C1056 N1052 1.362 . S
C1056 C1053 1.431 . S
C1056 C1066 1.476 . S
H1057 C1051 0.929 . S
C1058 O1049 1.250 . S
C1058 O1050 1.258 . S
O1059 Mn1044 2.162 . S
O1059 C1047 1.281 . S
O1060 Mn1044 2.297 . S
O1060 C1047 1.236 . S
N1061 Mn1045 2.282 . S
N1061 C1062 1.328 . S
N1061 C1066 1.318 . S
C1062 N1061 1.328 . S
C1062 C1063 1.457 . S
C1062 H1067 0.929 . S
C1063 C1062 1.457 . S
C1063 C1064 1.291 . S
C1063 H1076 0.931 . S
C1064 C1063 1.291 . S
C1064 C1065 1.373 . S
C1064 H1077 0.929 . S
C1065 C1064 1.373 . S
C1065 C1066 1.396 . S
C1065 C1072 1.403 . S
C1066 C1056 1.476 . S
C1066 N1061 1.318 . S
C1066 C1065 1.396 . S
H1067 C1062 0.929 . S
O1068 Mn1044 2.385 . S
O1068 C1046 1.234 . S
O1069 Mn1044 2.209 . S
O1069 Mn1045 2.215 . S
O1069 C1046 1.283 . S
O1070 Mn1044 2.094 . S
O1070 C1048 1.240 . S
O1071 Mn1045 2.117 . S
O1071 C1048 1.264 . S
C1072 C1065 1.403 . S
C1072 C1073 1.399 . S
C1072 H1078 0.929 . S
C1073 C1053 1.449 . S
C1073 C1072 1.399 . S
C1073 H1079 0.930 . S
H1074 C1054 0.931 . S
H1075 C1055 0.930 . S
H1076 C1063 0.931 . S
H1077 C1064 0.929 . S
H1078 C1072 0.929 . S
H1079 C1073 0.930 . S
Mn1080 O1085 2.095 . S
Mn1080 O1095 2.162 . S
Mn1080 O1096 2.297 . S
Mn1080 O1104 2.385 . S
Mn1080 O1105 2.209 . S
Mn1080 O1106 2.094 . S
Mn1081 O1086 2.121 . S
Mn1081 N1088 2.257 . S
Mn1081 N1097 2.282 . S
Mn1081 O1105 2.215 . S
Mn1081 O1107 2.117 . S
C1082 O1104 1.234 . S
C1082 O1105 1.283 . S
C1083 O1095 1.281 . S
C1083 O1096 1.236 . S
C1084 O1106 1.240 . S
C1084 O1107 1.264 . S
O1085 Mn1080 2.095 . S
O1085 C1094 1.250 . S
O1086 Mn1081 2.121 . S
O1086 C1094 1.258 . S
C1087 N1088 1.326 . S
C1087 C1091 1.460 . S
C1087 H1093 0.929 . S
N1088 Mn1081 2.257 . S
N1088 C1087 1.326 . S
N1088 C1092 1.362 . S
C1089 C1090 1.258 . S
C1089 C1092 1.431 . S
C1089 C1109 1.449 . S
C1090 C1089 1.258 . S
C1090 C1091 1.477 . S
C1090 H1110 0.931 . S
C1091 C1087 1.460 . S
C1091 C1090 1.477 . S
C1091 H1111 0.930 . S
C1092 N1088 1.362 . S
C1092 C1089 1.431 . S
C1092 C1102 1.476 . S
H1093 C1087 0.929 . S
C1094 O1085 1.250 . S
C1094 O1086 1.258 . S
O1095 Mn1080 2.162 . S
O1095 C1083 1.281 . S
O1096 Mn1080 2.297 . S
O1096 C1083 1.236 . S
N1097 Mn1081 2.282 . S
N1097 C1098 1.328 . S
N1097 C1102 1.318 . S
C1098 N1097 1.328 . S
C1098 C1099 1.457 . S
C1098 H1103 0.929 . S
C1099 C1098 1.457 . S
C1099 C1100 1.291 . S
C1099 H1112 0.931 . S
C1100 C1099 1.291 . S
C1100 C1101 1.373 . S
C1100 H1113 0.929 . S
C1101 C1100 1.373 . S
C1101 C1102 1.396 . S
C1101 C1108 1.403 . S
C1102 C1092 1.476 . S
C1102 N1097 1.318 . S
C1102 C1101 1.396 . S
H1103 C1098 0.929 . S
O1104 Mn1080 2.385 . S
O1104 C1082 1.234 . S
O1105 Mn1080 2.209 . S
O1105 Mn1081 2.215 . S
O1105 C1082 1.283 . S
O1106 Mn1080 2.094 . S
O1106 C1084 1.240 . S
O1107 Mn1081 2.117 . S
O1107 C1084 1.264 . S
C1108 C1101 1.403 . S
C1108 C1109 1.399 . S
C1108 H1114 0.929 1_455 S
C1109 C1089 1.449 . S
C1109 C1108 1.399 . S
C1109 H1115 0.930 1_455 S
H1110 C1090 0.931 . S
H1111 C1091 0.930 . S
H1112 C1099 0.931 . S
H1113 C1100 0.929 . S
H1114 C1108 0.929 1_655 S
H1115 C1109 0.930 1_655 S
Mn1116 O1121 2.095 . S
Mn1116 O1131 2.162 . S
Mn1116 O1132 2.297 . S
Mn1116 O1140 2.385 . S
Mn1116 O1141 2.209 . S
Mn1116 O1142 2.094 . S
Mn1117 O1122 2.121 . S
Mn1117 N1124 2.257 . S
Mn1117 N1133 2.282 . S
Mn1117 O1141 2.215 . S
Mn1117 O1143 2.117 . S
C1118 O1140 1.234 . S
C1118 O1141 1.283 . S
C1119 O1131 1.281 . S
C1119 O1132 1.236 . S
C1120 O1142 1.240 . S
C1120 O1143 1.264 . S
O1121 Mn1116 2.095 . S
O1121 C1130 1.250 . S
O1122 Mn1117 2.121 . S
O1122 C1130 1.258 . S
C1123 N1124 1.326 . S
C1123 C1127 1.460 . S
C1123 H1129 0.929 . S
N1124 Mn1117 2.257 . S
N1124 C1123 1.326 . S
N1124 C1128 1.362 . S
C1125 C1126 1.258 . S
C1125 C1128 1.431 . S
C1125 C1145 1.449 . S
C1126 C1125 1.258 . S
C1126 C1127 1.477 . S
C1126 H1146 0.931 . S
C1127 C1123 1.460 . S
C1127 C1126 1.477 . S
C1127 H1147 0.930 . S
C1128 N1124 1.362 . S
C1128 C1125 1.431 . S
C1128 C1138 1.476 . S
H1129 C1123 0.929 . S
C1130 O1121 1.250 . S
C1130 O1122 1.258 . S
O1131 Mn1116 2.162 . S
O1131 C1119 1.281 . S
O1132 Mn1116 2.297 . S
O1132 C1119 1.236 . S
N1133 Mn1117 2.282 . S
N1133 C1134 1.328 . S
N1133 C1138 1.318 . S
C1134 N1133 1.328 . S
C1134 C1135 1.457 . S
C1134 H1139 0.929 . S
C1135 C1134 1.457 . S
C1135 C1136 1.291 . S
C1135 H1148 0.931 . S
C1136 C1135 1.291 . S
C1136 C1137 1.373 . S
C1136 H1149 0.929 . S
C1137 C1136 1.373 . S
C1137 C1138 1.396 . S
C1137 C1144 1.403 . S
C1138 C1128 1.476 . S
C1138 N1133 1.318 . S
C1138 C1137 1.396 . S
H1139 C1134 0.929 . S
O1140 Mn1116 2.385 . S
O1140 C1118 1.234 . S
O1141 Mn1116 2.209 . S
O1141 Mn1117 2.215 . S
O1141 C1118 1.283 . S
O1142 Mn1116 2.094 . S
O1142 C1120 1.240 . S
O1143 Mn1117 2.117 . S
O1143 C1120 1.264 . S
C1144 C1137 1.403 . S
C1144 C1145 1.399 . S
C1144 H1150 0.929 . S
C1145 C1125 1.449 . S
C1145 C1144 1.399 . S
C1145 H1151 0.930 . S
H1146 C1126 0.931 . S
H1147 C1127 0.930 . S
H1148 C1135 0.931 . S
H1149 C1136 0.929 . S
H1150 C1144 0.929 . S
H1151 C1145 0.930 . S
H1152 C1160 0.950 . S
H1153 C1165 0.950 . S
H1154 C1162 0.950 . S
H1155 C1164 0.950 . S
H1156 C1166 0.950 . S
H1157 C1168 0.950 . S
H1158 C1170 0.950 . S
H1159 C1171 0.950 . S
C1160 H1152 0.950 . S
C1160 C1161 1.386 . S
C1160 C1162 1.391 . S
C1161 C1160 1.386 . S
C1161 C1165 1.393 . S
C1162 H1154 0.950 . S
C1162 C1160 1.391 . S
C1162 C1163 1.400 . S
C1163 C1162 1.400 . S
C1163 C1164 1.398 . S
C1163 C1169 1.491 . S
C1164 H1155 0.950 . S
C1164 C1163 1.398 . S
C1164 C1165 1.391 . S
C1165 H1153 0.950 . S
C1165 C1161 1.393 . S
C1165 C1164 1.391 . S
C1166 H1156 0.950 . S
C1166 C1167 1.386 . S
C1166 C1168 1.391 . S
C1167 C1166 1.386 . S
C1167 C1171 1.393 . S
C1168 H1157 0.950 . S
C1168 C1166 1.391 . S
C1168 C1169 1.400 . S
C1169 C1163 1.491 . S
C1169 C1168 1.400 . S
C1169 C1170 1.398 . S
C1170 H1158 0.950 . S
C1170 C1169 1.398 . S
C1170 C1171 1.391 . S
C1171 H1159 0.950 . S
C1171 C1167 1.393 . S
C1171 C1170 1.391 . S
H1172 C1180 0.950 . S
H1173 C1185 0.950 . S
H1174 C1182 0.950 . S
H1175 C1184 0.950 . S
H1176 C1186 0.950 . S
H1177 C1188 0.950 . S
H1178 C1190 0.950 . S
H1179 C1191 0.950 . S
C1180 H1172 0.950 . S
C1180 C1181 1.386 . S
C1180 C1182 1.391 . S
C1181 C1180 1.386 . S
C1181 C1185 1.393 . S
C1182 H1174 0.950 . S
C1182 C1180 1.391 . S
C1182 C1183 1.400 . S
C1183 C1182 1.400 . S
C1183 C1184 1.398 . S
C1183 C1189 1.491 . S
C1184 H1175 0.950 . S
C1184 C1183 1.398 . S
C1184 C1185 1.391 . S
C1185 H1173 0.950 . S
C1185 C1181 1.393 . S
C1185 C1184 1.391 . S
C1186 H1176 0.950 . S
C1186 C1187 1.386 . S
C1186 C1188 1.391 . S
C1187 C1186 1.386 . S
C1187 C1191 1.393 . S
C1188 H1177 0.950 . S
C1188 C1186 1.391 . S
C1188 C1189 1.400 . S
C1189 C1183 1.491 . S
C1189 C1188 1.400 . S
C1189 C1190 1.398 . S
C1190 H1178 0.950 . S
C1190 C1189 1.398 . S
C1190 C1191 1.391 . S
C1191 H1179 0.950 . S
C1191 C1187 1.393 . S
C1191 C1190 1.391 . S
H1192 C1200 0.950 . S
H1193 C1205 0.950 . S
H1194 C1202 0.950 . S
H1195 C1204 0.950 . S
H1196 C1206 0.950 . S
H1197 C1208 0.950 . S
H1198 C1210 0.950 . S
H1199 C1211 0.950 . S
C1200 H1192 0.950 . S
C1200 C1201 1.386 . S
C1200 C1202 1.391 . S
C1201 C1200 1.386 . S
C1201 C1205 1.393 . S
C1202 H1194 0.950 . S
C1202 C1200 1.391 . S
C1202 C1203 1.400 . S
C1203 C1202 1.400 . S
C1203 C1204 1.398 . S
C1203 C1209 1.491 . S
C1204 H1195 0.950 . S
C1204 C1203 1.398 . S
C1204 C1205 1.391 . S
C1205 H1193 0.950 . S
C1205 C1201 1.393 . S
C1205 C1204 1.391 . S
C1206 H1196 0.950 . S
C1206 C1207 1.386 . S
C1206 C1208 1.391 . S
C1207 C1206 1.386 . S
C1207 C1211 1.393 . S
C1208 H1197 0.950 . S
C1208 C1206 1.391 . S
C1208 C1209 1.400 . S
C1209 C1203 1.491 . S
C1209 C1208 1.400 . S
C1209 C1210 1.398 . S
C1210 H1198 0.950 . S
C1210 C1209 1.398 . S
C1210 C1211 1.391 . S
C1211 H1199 0.950 . S
C1211 C1207 1.393 . S
C1211 C1210 1.391 . S
H1212 C1220 0.950 . S
H1213 C1225 0.950 . S
H1214 C1222 0.950 . S
H1215 C1224 0.950 . S
H1216 C1226 0.950 . S
H1217 C1228 0.950 . S
H1218 C1230 0.950 . S
H1219 C1231 0.950 . S
C1220 H1212 0.950 . S
C1220 C1221 1.386 . S
C1220 C1222 1.391 . S
C1221 C1220 1.386 . S
C1221 C1225 1.393 . S
C1222 H1214 0.950 . S
C1222 C1220 1.391 . S
C1222 C1223 1.400 . S
C1223 C1222 1.400 . S
C1223 C1224 1.398 . S
C1223 C1229 1.491 . S
C1224 H1215 0.950 . S
C1224 C1223 1.398 . S
C1224 C1225 1.391 . S
C1225 H1213 0.950 . S
C1225 C1221 1.393 . S
C1225 C1224 1.391 . S
C1226 H1216 0.950 . S
C1226 C1227 1.386 . S
C1226 C1228 1.391 . S
C1227 C1226 1.386 . S
C1227 C1231 1.393 . S
C1228 H1217 0.950 . S
C1228 C1226 1.391 . S
C1228 C1229 1.400 . S
C1229 C1223 1.491 . S
C1229 C1228 1.400 . S
C1229 C1230 1.398 . S
C1230 H1218 0.950 . S
C1230 C1229 1.398 . S
C1230 C1231 1.391 . S
C1231 H1219 0.950 . S
C1231 C1227 1.393 . S
C1231 C1230 1.391 . S
H1232 C1240 0.950 . S
H1233 C1245 0.950 . S
H1234 C1242 0.950 . S
H1235 C1244 0.950 . S
H1236 C1246 0.950 . S
H1237 C1248 0.950 . S
H1238 C1250 0.950 . S
H1239 C1251 0.950 . S
C1240 H1232 0.950 . S
C1240 C1241 1.386 . S
C1240 C1242 1.391 . S
C1241 C1240 1.386 . S
C1241 C1245 1.393 . S
C1242 H1234 0.950 . S
C1242 C1240 1.391 . S
C1242 C1243 1.400 . S
C1243 C1242 1.400 . S
C1243 C1244 1.398 . S
C1243 C1249 1.491 . S
C1244 H1235 0.950 . S
C1244 C1243 1.398 . S
C1244 C1245 1.391 . S
C1245 H1233 0.950 . S
C1245 C1241 1.393 . S
C1245 C1244 1.391 . S
C1246 H1236 0.950 . S
C1246 C1247 1.386 . S
C1246 C1248 1.391 . S
C1247 C1246 1.386 . S
C1247 C1251 1.393 . S
C1248 H1237 0.950 . S
C1248 C1246 1.391 . S
C1248 C1249 1.400 . S
C1249 C1243 1.491 . S
C1249 C1248 1.400 . S
C1249 C1250 1.398 . S
C1250 H1238 0.950 . S
C1250 C1249 1.398 . S
C1250 C1251 1.391 . S
C1251 H1239 0.950 . S
C1251 C1247 1.393 . S
C1251 C1250 1.391 . S
H1252 C1260 0.950 . S
H1253 C1265 0.950 . S
H1254 C1262 0.950 . S
H1255 C1264 0.950 . S
H1256 C1266 0.950 . S
H1257 C1268 0.950 . S
H1258 C1270 0.950 . S
H1259 C1271 0.950 . S
C1260 H1252 0.950 . S
C1260 C1261 1.386 . S
C1260 C1262 1.391 . S
C1261 C1260 1.386 . S
C1261 C1265 1.393 . S
C1262 H1254 0.950 . S
C1262 C1260 1.391 . S
C1262 C1263 1.400 . S
C1263 C1262 1.400 . S
C1263 C1264 1.398 . S
C1263 C1269 1.491 . S
C1264 H1255 0.950 . S
C1264 C1263 1.398 . S
C1264 C1265 1.391 . S
C1265 H1253 0.950 . S
C1265 C1261 1.393 . S
C1265 C1264 1.391 . S
C1266 H1256 0.950 . S
C1266 C1267 1.386 . S
C1266 C1268 1.391 . S
C1267 C1266 1.386 . S
C1267 C1271 1.393 . S
C1268 H1257 0.950 . S
C1268 C1266 1.391 . S
C1268 C1269 1.400 . S
C1269 C1263 1.491 . S
C1269 C1268 1.400 . S
C1269 C1270 1.398 . S
C1270 H1258 0.950 . S
C1270 C1269 1.398 . S
C1270 C1271 1.391 . S
C1271 H1259 0.950 . S
C1271 C1267 1.393 . S
C1271 C1270 1.391 . S
H1272 C1280 0.950 . S
H1273 C1285 0.950 . S
H1274 C1282 0.950 . S
H1275 C1284 0.950 . S
H1276 C1286 0.950 . S
H1277 C1288 0.950 . S
H1278 C1290 0.950 . S
H1279 C1291 0.950 . S
C1280 H1272 0.950 . S
C1280 C1281 1.386 . S
C1280 C1282 1.391 . S
C1281 C1280 1.386 . S
C1281 C1285 1.393 . S
C1282 H1274 0.950 . S
C1282 C1280 1.391 . S
C1282 C1283 1.400 . S
C1283 C1282 1.400 . S
C1283 C1284 1.398 . S
C1283 C1289 1.491 . S
C1284 H1275 0.950 . S
C1284 C1283 1.398 . S
C1284 C1285 1.391 . S
C1285 H1273 0.950 . S
C1285 C1281 1.393 . S
C1285 C1284 1.391 . S
C1286 H1276 0.950 . S
C1286 C1287 1.386 . S
C1286 C1288 1.391 . S
C1287 C1286 1.386 . S
C1287 C1291 1.393 . S
C1288 H1277 0.950 . S
C1288 C1286 1.391 . S
C1288 C1289 1.400 . S
C1289 C1283 1.491 . S
C1289 C1288 1.400 . S
C1289 C1290 1.398 . S
C1290 H1278 0.950 . S
C1290 C1289 1.398 . S
C1290 C1291 1.391 . S
C1291 H1279 0.950 . S
C1291 C1287 1.393 . S
C1291 C1290 1.391 . S
H1292 C1300 0.950 . S
H1293 C1305 0.950 . S
H1294 C1302 0.950 . S
H1295 C1304 0.950 . S
H1296 C1306 0.950 . S
H1297 C1308 0.950 . S
H1298 C1310 0.950 . S
H1299 C1311 0.950 . S
C1300 H1292 0.950 . S
C1300 C1301 1.386 . S
C1300 C1302 1.391 . S
C1301 C1300 1.386 . S
C1301 C1305 1.393 . S
C1302 H1294 0.950 . S
C1302 C1300 1.391 . S
C1302 C1303 1.400 . S
C1303 C1302 1.400 . S
C1303 C1304 1.398 . S
C1303 C1309 1.491 . S
C1304 H1295 0.950 . S
C1304 C1303 1.398 . S
C1304 C1305 1.391 . S
C1305 H1293 0.950 . S
C1305 C1301 1.393 . S
C1305 C1304 1.391 . S
C1306 H1296 0.950 . S
C1306 C1307 1.386 . S
C1306 C1308 1.391 . S
C1307 C1306 1.386 . S
C1307 C1311 1.393 . S
C1308 H1297 0.950 . S
C1308 C1306 1.391 . S
C1308 C1309 1.400 . S
C1309 C1303 1.491 . S
C1309 C1308 1.400 . S
C1309 C1310 1.398 . S
C1310 H1298 0.950 . S
C1310 C1309 1.398 . S
C1310 C1311 1.391 . S
C1311 H1299 0.950 . S
C1311 C1307 1.393 . S
C1311 C1310 1.391 . S
H1312 C1320 0.950 . S
H1313 C1325 0.950 . S
H1314 C1322 0.950 . S
H1315 C1324 0.950 . S
H1316 C1326 0.950 . S
H1317 C1328 0.950 . S
H1318 C1330 0.950 . S
H1319 C1331 0.950 . S
C1320 H1312 0.950 . S
C1320 C1321 1.386 . S
C1320 C1322 1.391 . S
C1321 C1320 1.386 . S
C1321 C1325 1.393 . S
C1322 H1314 0.950 . S
C1322 C1320 1.391 . S
C1322 C1323 1.400 . S
C1323 C1322 1.400 . S
C1323 C1324 1.398 . S
C1323 C1329 1.491 . S
C1324 H1315 0.950 . S
C1324 C1323 1.398 . S
C1324 C1325 1.391 . S
C1325 H1313 0.950 . S
C1325 C1321 1.393 . S
C1325 C1324 1.391 . S
C1326 H1316 0.950 . S
C1326 C1327 1.386 . S
C1326 C1328 1.391 . S
C1327 C1326 1.386 . S
C1327 C1331 1.393 . S
C1328 H1317 0.950 . S
C1328 C1326 1.391 . S
C1328 C1329 1.400 . S
C1329 C1323 1.491 . S
C1329 C1328 1.400 . S
C1329 C1330 1.398 . S
C1330 H1318 0.950 . S
C1330 C1329 1.398 . S
C1330 C1331 1.391 . S
C1331 H1319 0.950 . S
C1331 C1327 1.393 . S
C1331 C1330 1.391 . S
H1332 C1340 0.950 . S
H1333 C1345 0.950 . S
H1334 C1342 0.950 . S
H1335 C1344 0.950 . S
H1336 C1346 0.950 . S
H1337 C1348 0.950 . S
H1338 C1350 0.950 . S
H1339 C1351 0.950 . S
C1340 H1332 0.950 . S
C1340 C1341 1.386 . S
C1340 C1342 1.391 . S
C1341 C1340 1.386 . S
C1341 C1345 1.393 . S
C1342 H1334 0.950 . S
C1342 C1340 1.391 . S
C1342 C1343 1.400 . S
C1343 C1342 1.400 . S
C1343 C1344 1.398 . S
C1343 C1349 1.491 . S
C1344 H1335 0.950 . S
C1344 C1343 1.398 . S
C1344 C1345 1.391 . S
C1345 H1333 0.950 . S
C1345 C1341 1.393 . S
C1345 C1344 1.391 . S
C1346 H1336 0.950 . S
C1346 C1347 1.386 . S
C1346 C1348 1.391 . S
C1347 C1346 1.386 . S
C1347 C1351 1.393 . S
C1348 H1337 0.950 . S
C1348 C1346 1.391 . S
C1348 C1349 1.400 . S
C1349 C1343 1.491 . S
C1349 C1348 1.400 . S
C1349 C1350 1.398 . S
C1350 H1338 0.950 . S
C1350 C1349 1.398 . S
C1350 C1351 1.391 . S
C1351 H1339 0.950 . S
C1351 C1347 1.393 . S
C1351 C1350 1.391 . S
H1352 C1360 0.950 . S
H1353 C1365 0.950 . S
H1354 C1362 0.950 . S
H1355 C1364 0.950 . S
H1356 C1366 0.950 . S
H1357 C1368 0.950 . S
H1358 C1370 0.950 . S
H1359 C1371 0.950 . S
C1360 H1352 0.950 . S
C1360 C1361 1.386 . S
C1360 C1362 1.391 . S
C1361 C1360 1.386 . S
C1361 C1365 1.393 . S
C1362 H1354 0.950 . S
C1362 C1360 1.391 . S
C1362 C1363 1.400 . S
C1363 C1362 1.400 . S
C1363 C1364 1.398 . S
C1363 C1369 1.491 . S
C1364 H1355 0.950 . S
C1364 C1363 1.398 . S
C1364 C1365 1.391 . S
C1365 H1353 0.950 . S
C1365 C1361 1.393 . S
C1365 C1364 1.391 . S
C1366 H1356 0.950 . S
C1366 C1367 1.386 . S
C1366 C1368 1.391 . S
C1367 C1366 1.386 . S
C1367 C1371 1.393 . S
C1368 H1357 0.950 . S
C1368 C1366 1.391 . S
C1368 C1369 1.400 . S
C1369 C1363 1.491 . S
C1369 C1368 1.400 . S
C1369 C1370 1.398 . S
C1370 H1358 0.950 . S
C1370 C1369 1.398 . S
C1370 C1371 1.391 . S
C1371 H1359 0.950 . S
C1371 C1367 1.393 . S
C1371 C1370 1.391 . S
H1372 C1380 0.950 . S
H1373 C1385 0.950 . S
H1374 C1382 0.950 . S
H1375 C1384 0.950 . S
H1376 C1386 0.950 . S
H1377 C1388 0.950 . S
H1378 C1390 0.950 . S
H1379 C1391 0.950 . S
C1380 H1372 0.950 . S
C1380 C1381 1.386 . S
C1380 C1382 1.391 . S
C1381 C1380 1.386 . S
C1381 C1385 1.393 . S
C1382 H1374 0.950 . S
C1382 C1380 1.391 . S
C1382 C1383 1.400 . S
C1383 C1382 1.400 . S
C1383 C1384 1.398 . S
C1383 C1389 1.491 . S
C1384 H1375 0.950 . S
C1384 C1383 1.398 . S
C1384 C1385 1.391 . S
C1385 H1373 0.950 . S
C1385 C1381 1.393 . S
C1385 C1384 1.391 . S
C1386 H1376 0.950 . S
C1386 C1387 1.386 . S
C1386 C1388 1.391 . S
C1387 C1386 1.386 . S
C1387 C1391 1.393 . S
C1388 H1377 0.950 . S
C1388 C1386 1.391 . S
C1388 C1389 1.400 . S
C1389 C1383 1.491 . S
C1389 C1388 1.400 . S
C1389 C1390 1.398 . S
C1390 H1378 0.950 . S
C1390 C1389 1.398 . S
C1390 C1391 1.391 . S
C1391 H1379 0.950 . S
C1391 C1387 1.393 . S
C1391 C1390 1.391 . S
H1392 C1400 0.950 . S
H1393 C1405 0.950 . S
H1394 C1402 0.950 . S
H1395 C1404 0.950 . S
H1396 C1406 0.950 . S
H1397 C1408 0.950 . S
H1398 C1410 0.950 . S
H1399 C1411 0.950 . S
C1400 H1392 0.950 . S
C1400 C1401 1.386 . S
C1400 C1402 1.391 . S
C1401 C1400 1.386 . S
C1401 C1405 1.393 . S
C1402 H1394 0.950 . S
C1402 C1400 1.391 . S
C1402 C1403 1.400 . S
C1403 C1402 1.400 . S
C1403 C1404 1.398 . S
C1403 C1409 1.491 . S
C1404 H1395 0.950 . S
C1404 C1403 1.398 . S
C1404 C1405 1.391 . S
C1405 H1393 0.950 . S
C1405 C1401 1.393 . S
C1405 C1404 1.391 . S
C1406 H1396 0.950 . S
C1406 C1407 1.386 . S
C1406 C1408 1.391 . S
C1407 C1406 1.386 . S
C1407 C1411 1.393 . S
C1408 H1397 0.950 . S
C1408 C1406 1.391 . S
C1408 C1409 1.400 . S
C1409 C1403 1.491 . S
C1409 C1408 1.400 . S
C1409 C1410 1.398 . S
C1410 H1398 0.950 . S
C1410 C1409 1.398 . S
C1410 C1411 1.391 . S
C1411 H1399 0.950 . S
C1411 C1407 1.393 . S
C1411 C1410 1.391 . S
H1412 C1420 0.950 . S
H1413 C1425 0.950 . S
H1414 C1422 0.950 . S
H1415 C1424 0.950 . S
H1416 C1426 0.950 . S
H1417 C1428 0.950 . S
H1418 C1430 0.950 . S
H1419 C1431 0.950 . S
C1420 H1412 0.950 . S
C1420 C1421 1.386 . S
C1420 C1422 1.391 . S
C1421 C1420 1.386 . S
C1421 C1425 1.393 . S
C1422 H1414 0.950 . S
C1422 C1420 1.391 . S
C1422 C1423 1.400 . S
C1423 C1422 1.400 . S
C1423 C1424 1.398 . S
C1423 C1429 1.491 . S
C1424 H1415 0.950 . S
C1424 C1423 1.398 . S
C1424 C1425 1.391 . S
C1425 H1413 0.950 . S
C1425 C1421 1.393 . S
C1425 C1424 1.391 . S
C1426 H1416 0.950 . S
C1426 C1427 1.386 . S
C1426 C1428 1.391 . S
C1427 C1426 1.386 . S
C1427 C1431 1.393 . S
C1428 H1417 0.950 . S
C1428 C1426 1.391 . S
C1428 C1429 1.400 . S
C1429 C1423 1.491 . S
C1429 C1428 1.400 . S
C1429 C1430 1.398 . S
C1430 H1418 0.950 . S
C1430 C1429 1.398 . S
C1430 C1431 1.391 . S
C1431 H1419 0.950 . S
C1431 C1427 1.393 . S
C1431 C1430 1.391 . S
H1432 C1440 0.950 . S
H1433 C1445 0.950 . S
H1434 C1442 0.950 . S
H1435 C1444 0.950 . S
H1436 C1446 0.950 . S
H1437 C1448 0.950 . S
H1438 C1450 0.950 . S
H1439 C1451 0.950 . S
C1440 H1432 0.950 . S
C1440 C1441 1.386 . S
C1440 C1442 1.391 . S
C1441 C1440 1.386 . S
C1441 C1445 1.393 . S
C1442 H1434 0.950 . S
C1442 C1440 1.391 . S
C1442 C1443 1.400 . S
C1443 C1442 1.400 . S
C1443 C1444 1.398 . S
C1443 C1449 1.491 . S
C1444 H1435 0.950 . S
C1444 C1443 1.398 . S
C1444 C1445 1.391 . S
C1445 H1433 0.950 . S
C1445 C1441 1.393 . S
C1445 C1444 1.391 . S
C1446 H1436 0.950 . S
C1446 C1447 1.386 . S
C1446 C1448 1.391 . S
C1447 C1446 1.386 . S
C1447 C1451 1.393 . S
C1448 H1437 0.950 . S
C1448 C1446 1.391 . S
C1448 C1449 1.400 . S
C1449 C1443 1.491 . S
C1449 C1448 1.400 . S
C1449 C1450 1.398 . S
C1450 H1438 0.950 . S
C1450 C1449 1.398 . S
C1450 C1451 1.391 . S
C1451 H1439 0.950 . S
C1451 C1447 1.393 . S
C1451 C1450 1.391 . S
H1452 C1460 0.950 . S
H1453 C1465 0.950 . S
H1454 C1462 0.950 . S
H1455 C1464 0.950 . S
H1456 C1466 0.950 . S
H1457 C1468 0.950 . S
H1458 C1470 0.950 . S
H1459 C1471 0.950 . S
C1460 H1452 0.950 . S
C1460 C1461 1.386 . S
C1460 C1462 1.391 . S
C1461 C1460 1.386 . S
C1461 C1465 1.393 . S
C1462 H1454 0.950 . S
C1462 C1460 1.391 . S
C1462 C1463 1.400 . S
C1463 C1462 1.400 . S
C1463 C1464 1.398 . S
C1463 C1469 1.491 . S
C1464 H1455 0.950 . S
C1464 C1463 1.398 . S
C1464 C1465 1.391 . S
C1465 H1453 0.950 . S
C1465 C1461 1.393 . S
C1465 C1464 1.391 . S
C1466 H1456 0.950 . S
C1466 C1467 1.386 . S
C1466 C1468 1.391 . S
C1467 C1466 1.386 . S
C1467 C1471 1.393 . S
C1468 H1457 0.950 . S
C1468 C1466 1.391 . S
C1468 C1469 1.400 . S
C1469 C1463 1.491 . S
C1469 C1468 1.400 . S
C1469 C1470 1.398 . S
C1470 H1458 0.950 . S
C1470 C1469 1.398 . S
C1470 C1471 1.391 . S
C1471 H1459 0.950 . S
C1471 C1467 1.393 . S
C1471 C1470 1.391 . S
H1472 C1480 0.950 1_556 S
H1473 C1485 0.950 . S
H1474 C1482 0.950 1_556 S
H1475 C1484 0.950 . S
H1476 C1486 0.950 . S
H1477 C1488 0.950 . S
H1478 C1490 0.950 1_556 S
H1479 C1491 0.950 1_556 S
C1480 H1472 0.950 1_554 S
C1480 C1481 1.386 . S
C1480 C1482 1.391 . S
C1481 C1480 1.386 . S
C1481 C1485 1.393 . S
C1482 H1474 0.950 1_554 S
C1482 C1480 1.391 . S
C1482 C1483 1.400 . S
C1483 C1482 1.400 . S
C1483 C1484 1.398 . S
C1483 C1489 1.491 1_455 S
C1484 H1475 0.950 . S
C1484 C1483 1.398 . S
C1484 C1485 1.391 . S
C1485 H1473 0.950 . S
C1485 C1481 1.393 . S
C1485 C1484 1.391 . S
C1486 H1476 0.950 . S
C1486 C1487 1.386 . S
C1486 C1488 1.391 . S
C1487 C1486 1.386 . S
C1487 C1491 1.393 . S
C1488 H1477 0.950 . S
C1488 C1486 1.391 . S
C1488 C1489 1.400 . S
C1489 C1483 1.491 1_655 S
C1489 C1488 1.400 . S
C1489 C1490 1.398 . S
C1490 H1478 0.950 1_554 S
C1490 C1489 1.398 . S
C1490 C1491 1.391 . S
C1491 H1479 0.950 1_554 S
C1491 C1487 1.393 . S
C1491 C1490 1.391 . S
H1492 C1500 0.950 . S
H1493 C1505 0.950 . S
H1494 C1502 0.950 . S
H1495 C1504 0.950 . S
H1496 C1506 0.950 . S
H1497 C1508 0.950 . S
H1498 C1510 0.950 . S
H1499 C1511 0.950 . S
C1500 H1492 0.950 . S
C1500 C1501 1.386 . S
C1500 C1502 1.391 . S
C1501 C1500 1.386 . S
C1501 C1505 1.393 . S
C1502 H1494 0.950 . S
C1502 C1500 1.391 . S
C1502 C1503 1.400 . S
C1503 C1502 1.400 . S
C1503 C1504 1.398 . S
C1503 C1509 1.491 . S
C1504 H1495 0.950 . S
C1504 C1503 1.398 . S
C1504 C1505 1.391 . S
C1505 H1493 0.950 . S
C1505 C1501 1.393 . S
C1505 C1504 1.391 . S
C1506 H1496 0.950 . S
C1506 C1507 1.386 . S
C1506 C1508 1.391 . S
C1507 C1506 1.386 . S
C1507 C1511 1.393 . S
C1508 H1497 0.950 . S
C1508 C1506 1.391 . S
C1508 C1509 1.400 . S
C1509 C1503 1.491 . S
C1509 C1508 1.400 . S
C1509 C1510 1.398 . S
C1510 H1498 0.950 . S
C1510 C1509 1.398 . S
C1510 C1511 1.391 . S
C1511 H1499 0.950 . S
C1511 C1507 1.393 . S
C1511 C1510 1.391 . S
H1512 C1520 0.950 . S
H1513 C1525 0.950 . S
H1514 C1522 0.950 . S
H1515 C1524 0.950 . S
H1516 C1526 0.950 . S
H1517 C1528 0.950 . S
H1518 C1530 0.950 . S
H1519 C1531 0.950 . S
C1520 H1512 0.950 . S
C1520 C1521 1.386 . S
C1520 C1522 1.391 . S
C1521 C1520 1.386 . S
C1521 C1525 1.393 . S
C1522 H1514 0.950 . S
C1522 C1520 1.391 . S
C1522 C1523 1.400 . S
C1523 C1522 1.400 . S
C1523 C1524 1.398 . S
C1523 C1529 1.491 . S
C1524 H1515 0.950 . S
C1524 C1523 1.398 . S
C1524 C1525 1.391 . S
C1525 H1513 0.950 . S
C1525 C1521 1.393 . S
C1525 C1524 1.391 . S
C1526 H1516 0.950 . S
C1526 C1527 1.386 . S
C1526 C1528 1.391 . S
C1527 C1526 1.386 . S
C1527 C1531 1.393 . S
C1528 H1517 0.950 . S
C1528 C1526 1.391 . S
C1528 C1529 1.400 . S
C1529 C1523 1.491 . S
C1529 C1528 1.400 . S
C1529 C1530 1.398 . S
C1530 H1518 0.950 . S
C1530 C1529 1.398 . S
C1530 C1531 1.391 . S
C1531 H1519 0.950 . S
C1531 C1527 1.393 . S
C1531 C1530 1.391 . S
H1532 C1540 0.950 . S
H1533 C1545 0.950 . S
H1534 C1542 0.950 . S
H1535 C1544 0.950 . S
H1536 C1546 0.950 . S
H1537 C1548 0.950 . S
H1538 C1550 0.950 . S
H1539 C1551 0.950 . S
C1540 H1532 0.950 . S
C1540 C1541 1.386 . S
C1540 C1542 1.391 . S
C1541 C1540 1.386 . S
C1541 C1545 1.393 . S
C1542 H1534 0.950 . S
C1542 C1540 1.391 . S
C1542 C1543 1.400 . S
C1543 C1542 1.400 . S
C1543 C1544 1.398 . S
C1543 C1549 1.491 . S
C1544 H1535 0.950 . S
C1544 C1543 1.398 . S
C1544 C1545 1.391 . S
C1545 H1533 0.950 . S
C1545 C1541 1.393 . S
C1545 C1544 1.391 . S
C1546 H1536 0.950 . S
C1546 C1547 1.386 . S
C1546 C1548 1.391 . S
C1547 C1546 1.386 . S
C1547 C1551 1.393 . S
C1548 H1537 0.950 . S
C1548 C1546 1.391 . S
C1548 C1549 1.400 . S
C1549 C1543 1.491 . S
C1549 C1548 1.400 . S
C1549 C1550 1.398 . S
C1550 H1538 0.950 . S
C1550 C1549 1.398 . S
C1550 C1551 1.391 . S
C1551 H1539 0.950 . S
C1551 C1547 1.393 . S
C1551 C1550 1.391 . S
H1552 C1560 0.950 1_554 S
H1553 C1565 0.950 . S
H1554 C1562 0.950 1_554 S
H1555 C1564 0.950 . S
H1556 C1566 0.950 . S
H1557 C1568 0.950 . S
H1558 C1570 0.950 1_554 S
H1559 C1571 0.950 1_554 S
C1560 H1552 0.950 1_556 S
C1560 C1561 1.386 . S
C1560 C1562 1.391 . S
C1561 C1560 1.386 . S
C1561 C1565 1.393 . S
C1562 H1554 0.950 1_556 S
C1562 C1560 1.391 . S
C1562 C1563 1.400 . S
C1563 C1562 1.400 . S
C1563 C1564 1.398 . S
C1563 C1569 1.491 1_655 S
C1564 H1555 0.950 . S
C1564 C1563 1.398 . S
C1564 C1565 1.391 . S
C1565 H1553 0.950 . S
C1565 C1561 1.393 . S
C1565 C1564 1.391 . S
C1566 H1556 0.950 . S
C1566 C1567 1.386 . S
C1566 C1568 1.391 . S
C1567 C1566 1.386 . S
C1567 C1571 1.393 . S
C1568 H1557 0.950 . S
C1568 C1566 1.391 . S
C1568 C1569 1.400 . S
C1569 C1563 1.491 1_455 S
C1569 C1568 1.400 . S
C1569 C1570 1.398 . S
C1570 H1558 0.950 1_556 S
C1570 C1569 1.398 . S
C1570 C1571 1.391 . S
C1571 H1559 0.950 1_556 S
C1571 C1567 1.393 . S
C1571 C1570 1.391 . S
H1572 C1580 0.950 . S
H1573 C1585 0.950 . S
H1574 C1582 0.950 . S
H1575 C1584 0.950 . S
H1576 C1586 0.950 . S
H1577 C1588 0.950 . S
H1578 C1590 0.950 . S
H1579 C1591 0.950 . S
C1580 H1572 0.950 . S
C1580 C1581 1.386 . S
C1580 C1582 1.391 . S
C1581 C1580 1.386 . S
C1581 C1585 1.393 . S
C1582 H1574 0.950 . S
C1582 C1580 1.391 . S
C1582 C1583 1.400 . S
C1583 C1582 1.400 . S
C1583 C1584 1.398 . S
C1583 C1589 1.491 . S
C1584 H1575 0.950 . S
C1584 C1583 1.398 . S
C1584 C1585 1.391 . S
C1585 H1573 0.950 . S
C1585 C1581 1.393 . S
C1585 C1584 1.391 . S
C1586 H1576 0.950 . S
C1586 C1587 1.386 . S
C1586 C1588 1.391 . S
C1587 C1586 1.386 . S
C1587 C1591 1.393 . S
C1588 H1577 0.950 . S
C1588 C1586 1.391 . S
C1588 C1589 1.400 . S
C1589 C1583 1.491 . S
C1589 C1588 1.400 . S
C1589 C1590 1.398 . S
C1590 H1578 0.950 . S
C1590 C1589 1.398 . S
C1590 C1591 1.391 . S
C1591 H1579 0.950 . S
C1591 C1587 1.393 . S
C1591 C1590 1.391 . S
H1592 C1600 0.950 . S
H1593 C1605 0.950 . S
H1594 C1602 0.950 . S
H1595 C1604 0.950 . S
H1596 C1606 0.950 . S
H1597 C1608 0.950 . S
H1598 C1610 0.950 . S
H1599 C1611 0.950 . S
C1600 H1592 0.950 . S
C1600 C1601 1.386 . S
C1600 C1602 1.391 . S
C1601 C1600 1.386 . S
C1601 C1605 1.393 . S
C1602 H1594 0.950 . S
C1602 C1600 1.391 . S
C1602 C1603 1.400 . S
C1603 C1602 1.400 . S
C1603 C1604 1.398 . S
C1603 C1609 1.491 . S
C1604 H1595 0.950 . S
C1604 C1603 1.398 . S
C1604 C1605 1.391 . S
C1605 H1593 0.950 . S
C1605 C1601 1.393 . S
C1605 C1604 1.391 . S
C1606 H1596 0.950 . S
C1606 C1607 1.386 . S
C1606 C1608 1.391 . S
C1607 C1606 1.386 . S
C1607 C1611 1.393 . S
C1608 H1597 0.950 . S
C1608 C1606 1.391 . S
C1608 C1609 1.400 . S
C1609 C1603 1.491 . S
C1609 C1608 1.400 . S
C1609 C1610 1.398 . S
C1610 H1598 0.950 . S
C1610 C1609 1.398 . S
C1610 C1611 1.391 . S
C1611 H1599 0.950 . S
C1611 C1607 1.393 . S
C1611 C1610 1.391 . S
H1612 C1620 0.950 . S
H1613 C1625 0.950 . S
H1614 C1622 0.950 . S
H1615 C1624 0.950 . S
H1616 C1626 0.950 . S
H1617 C1628 0.950 . S
H1618 C1630 0.950 . S
H1619 C1631 0.950 . S
C1620 H1612 0.950 . S
C1620 C1621 1.386 . S
C1620 C1622 1.391 . S
C1621 C1620 1.386 . S
C1621 C1625 1.393 . S
C1622 H1614 0.950 . S
C1622 C1620 1.391 . S
C1622 C1623 1.400 . S
C1623 C1622 1.400 . S
C1623 C1624 1.398 . S
C1623 C1629 1.491 . S
C1624 H1615 0.950 . S
C1624 C1623 1.398 . S
C1624 C1625 1.391 . S
C1625 H1613 0.950 . S
C1625 C1621 1.393 . S
C1625 C1624 1.391 . S
C1626 H1616 0.950 . S
C1626 C1627 1.386 . S
C1626 C1628 1.391 . S
C1627 C1626 1.386 . S
C1627 C1631 1.393 . S
C1628 H1617 0.950 . S
C1628 C1626 1.391 . S
C1628 C1629 1.400 . S
C1629 C1623 1.491 . S
C1629 C1628 1.400 . S
C1629 C1630 1.398 . S
C1630 H1618 0.950 . S
C1630 C1629 1.398 . S
C1630 C1631 1.391 . S
C1631 H1619 0.950 . S
C1631 C1627 1.393 . S
C1631 C1630 1.391 . S
H1632 C1640 0.950 . S
H1633 C1645 0.950 . S
H1634 C1642 0.950 . S
H1635 C1644 0.950 . S
H1636 C1646 0.950 . S
H1637 C1648 0.950 . S
H1638 C1650 0.950 . S
H1639 C1651 0.950 . S
C1640 H1632 0.950 . S
C1640 C1641 1.386 . S
C1640 C1642 1.391 . S
C1641 C1640 1.386 . S
C1641 C1645 1.393 . S
C1642 H1634 0.950 . S
C1642 C1640 1.391 . S
C1642 C1643 1.400 . S
C1643 C1642 1.400 . S
C1643 C1644 1.398 . S
C1643 C1649 1.491 . S
C1644 H1635 0.950 . S
C1644 C1643 1.398 . S
C1644 C1645 1.391 . S
C1645 H1633 0.950 . S
C1645 C1641 1.393 . S
C1645 C1644 1.391 . S
C1646 H1636 0.950 . S
C1646 C1647 1.386 . S
C1646 C1648 1.391 . S
C1647 C1646 1.386 . S
C1647 C1651 1.393 . S
C1648 H1637 0.950 . S
C1648 C1646 1.391 . S
C1648 C1649 1.400 . S
C1649 C1643 1.491 . S
C1649 C1648 1.400 . S
C1649 C1650 1.398 . S
C1650 H1638 0.950 . S
C1650 C1649 1.398 . S
C1650 C1651 1.391 . S
C1651 H1639 0.950 . S
C1651 C1647 1.393 . S
C1651 C1650 1.391 . S
H1652 C1660 0.950 . S
H1653 C1665 0.950 . S
H1654 C1662 0.950 . S
H1655 C1664 0.950 . S
H1656 C1666 0.950 . S
H1657 C1668 0.950 . S
H1658 C1670 0.950 . S
H1659 C1671 0.950 . S
C1660 H1652 0.950 . S
C1660 C1661 1.386 . S
C1660 C1662 1.391 . S
C1661 C1660 1.386 . S
C1661 C1665 1.393 . S
C1662 H1654 0.950 . S
C1662 C1660 1.391 . S
C1662 C1663 1.400 . S
C1663 C1662 1.400 . S
C1663 C1664 1.398 . S
C1663 C1669 1.491 . S
C1664 H1655 0.950 . S
C1664 C1663 1.398 . S
C1664 C1665 1.391 . S
C1665 H1653 0.950 . S
C1665 C1661 1.393 . S
C1665 C1664 1.391 . S
C1666 H1656 0.950 . S
C1666 C1667 1.386 . S
C1666 C1668 1.391 . S
C1667 C1666 1.386 . S
C1667 C1671 1.393 . S
C1668 H1657 0.950 . S
C1668 C1666 1.391 . S
C1668 C1669 1.400 . S
C1669 C1663 1.491 . S
C1669 C1668 1.400 . S
C1669 C1670 1.398 . S
C1670 H1658 0.950 . S
C1670 C1669 1.398 . S
C1670 C1671 1.391 . S
C1671 H1659 0.950 . S
C1671 C1667 1.393 . S
C1671 C1670 1.391 . S
H1672 C1680 0.950 . S
H1673 C1685 0.950 . S
H1674 C1682 0.950 . S
H1675 C1684 0.950 . S
H1676 C1686 0.950 . S
H1677 C1688 0.950 . S
H1678 C1690 0.950 . S
H1679 C1691 0.950 . S
C1680 H1672 0.950 . S
C1680 C1681 1.386 . S
C1680 C1682 1.391 . S
C1681 C1680 1.386 . S
C1681 C1685 1.393 . S
C1682 H1674 0.950 . S
C1682 C1680 1.391 . S
C1682 C1683 1.400 . S
C1683 C1682 1.400 . S
C1683 C1684 1.398 . S
C1683 C1689 1.491 . S
C1684 H1675 0.950 . S
C1684 C1683 1.398 . S
C1684 C1685 1.391 . S
C1685 H1673 0.950 . S
C1685 C1681 1.393 . S
C1685 C1684 1.391 . S
C1686 H1676 0.950 . S
C1686 C1687 1.386 . S
C1686 C1688 1.391 . S
C1687 C1686 1.386 . S
C1687 C1691 1.393 . S
C1688 H1677 0.950 . S
C1688 C1686 1.391 . S
C1688 C1689 1.400 . S
C1689 C1683 1.491 . S
C1689 C1688 1.400 . S
C1689 C1690 1.398 . S
C1690 H1678 0.950 . S
C1690 C1689 1.398 . S
C1690 C1691 1.391 . S
C1691 H1679 0.950 . S
C1691 C1687 1.393 . S
C1691 C1690 1.391 . S
H1692 C1700 0.950 . S
H1693 C1705 0.950 . S
H1694 C1702 0.950 . S
H1695 C1704 0.950 . S
H1696 C1706 0.950 . S
H1697 C1708 0.950 . S
H1698 C1710 0.950 . S
H1699 C1711 0.950 . S
C1700 H1692 0.950 . S
C1700 C1701 1.386 . S
C1700 C1702 1.391 . S
C1701 C1700 1.386 . S
C1701 C1705 1.393 . S
C1702 H1694 0.950 . S
C1702 C1700 1.391 . S
C1702 C1703 1.400 . S
C1703 C1702 1.400 . S
C1703 C1704 1.398 . S
C1703 C1709 1.491 . S
C1704 H1695 0.950 . S
C1704 C1703 1.398 . S
C1704 C1705 1.391 . S
C1705 H1693 0.950 . S
C1705 C1701 1.393 . S
C1705 C1704 1.391 . S
C1706 H1696 0.950 . S
C1706 C1707 1.386 . S
C1706 C1708 1.391 . S
C1707 C1706 1.386 . S
C1707 C1711 1.393 . S
C1708 H1697 0.950 . S
C1708 C1706 1.391 . S
C1708 C1709 1.400 . S
C1709 C1703 1.491 . S
C1709 C1708 1.400 . S
C1709 C1710 1.398 . S
C1710 H1698 0.950 . S
C1710 C1709 1.398 . S
C1710 C1711 1.391 . S
C1711 H1699 0.950 . S
C1711 C1707 1.393 . S
C1711 C1710 1.391 . S
H1712 C1720 0.950 . S
H1713 C1725 0.950 . S
H1714 C1722 0.950 . S
H1715 C1724 0.950 . S
H1716 C1726 0.950 . S
H1717 C1728 0.950 . S
H1718 C1730 0.950 . S
H1719 C1731 0.950 . S
C1720 H1712 0.950 . S
C1720 C1721 1.386 . S
C1720 C1722 1.391 . S
C1721 C1720 1.386 . S
C1721 C1725 1.393 . S
C1722 H1714 0.950 . S
C1722 C1720 1.391 . S
C1722 C1723 1.400 . S
C1723 C1722 1.400 . S
C1723 C1724 1.398 . S
C1723 C1729 1.491 . S
C1724 H1715 0.950 . S
C1724 C1723 1.398 . S
C1724 C1725 1.391 . S
C1725 H1713 0.950 . S
C1725 C1721 1.393 . S
C1725 C1724 1.391 . S
C1726 H1716 0.950 . S
C1726 C1727 1.386 . S
C1726 C1728 1.391 . S
C1727 C1726 1.386 . S
C1727 C1731 1.393 . S
C1728 H1717 0.950 . S
C1728 C1726 1.391 . S
C1728 C1729 1.400 . S
C1729 C1723 1.491 . S
C1729 C1728 1.400 . S
C1729 C1730 1.398 . S
C1730 H1718 0.950 . S
C1730 C1729 1.398 . S
C1730 C1731 1.391 . S
C1731 H1719 0.950 . S
C1731 C1727 1.393 . S
C1731 C1730 1.391 . S
H1732 C1740 0.950 . S
H1733 C1745 0.950 1_556 S
H1734 C1742 0.950 . S
H1735 C1744 0.950 1_556 S
H1736 C1746 0.950 1_556 S
H1737 C1748 0.950 1_556 S
H1738 C1750 0.950 . S
H1739 C1751 0.950 . S
C1740 H1732 0.950 . S
C1740 C1741 1.386 . S
C1740 C1742 1.391 . S
C1741 C1740 1.386 . S
C1741 C1745 1.393 . S
C1742 H1734 0.950 . S
C1742 C1740 1.391 . S
C1742 C1743 1.400 . S
C1743 C1742 1.400 . S
C1743 C1744 1.398 . S
C1743 C1749 1.491 1_655 S
C1744 H1735 0.950 1_554 S
C1744 C1743 1.398 . S
C1744 C1745 1.391 . S
C1745 H1733 0.950 1_554 S
C1745 C1741 1.393 . S
C1745 C1744 1.391 . S
C1746 H1736 0.950 1_554 S
C1746 C1747 1.386 . S
C1746 C1748 1.391 . S
C1747 C1746 1.386 . S
C1747 C1751 1.393 . S
C1748 H1737 0.950 1_554 S
C1748 C1746 1.391 . S
C1748 C1749 1.400 . S
C1749 C1743 1.491 1_455 S
C1749 C1748 1.400 . S
C1749 C1750 1.398 . S
C1750 H1738 0.950 . S
C1750 C1749 1.398 . S
C1750 C1751 1.391 . S
C1751 H1739 0.950 . S
C1751 C1747 1.393 . S
C1751 C1750 1.391 . S
H1752 C1760 0.950 . S
H1753 C1765 0.950 . S
H1754 C1762 0.950 . S
H1755 C1764 0.950 . S
H1756 C1766 0.950 . S
H1757 C1768 0.950 . S
H1758 C1770 0.950 . S
H1759 C1771 0.950 . S
C1760 H1752 0.950 . S
C1760 C1761 1.386 . S
C1760 C1762 1.391 . S
C1761 C1760 1.386 . S
C1761 C1765 1.393 . S
C1762 H1754 0.950 . S
C1762 C1760 1.391 . S
C1762 C1763 1.400 . S
C1763 C1762 1.400 . S
C1763 C1764 1.398 . S
C1763 C1769 1.491 . S
C1764 H1755 0.950 . S
C1764 C1763 1.398 . S
C1764 C1765 1.391 . S
C1765 H1753 0.950 . S
C1765 C1761 1.393 . S
C1765 C1764 1.391 . S
C1766 H1756 0.950 . S
C1766 C1767 1.386 . S
C1766 C1768 1.391 . S
C1767 C1766 1.386 . S
C1767 C1771 1.393 . S
C1768 H1757 0.950 . S
C1768 C1766 1.391 . S
C1768 C1769 1.400 . S
C1769 C1763 1.491 . S
C1769 C1768 1.400 . S
C1769 C1770 1.398 . S
C1770 H1758 0.950 . S
C1770 C1769 1.398 . S
C1770 C1771 1.391 . S
C1771 H1759 0.950 . S
C1771 C1767 1.393 . S
C1771 C1770 1.391 . S
H1772 C1780 0.950 . S
H1773 C1785 0.950 . S
H1774 C1782 0.950 . S
H1775 C1784 0.950 . S
H1776 C1786 0.950 . S
H1777 C1788 0.950 . S
H1778 C1790 0.950 . S
H1779 C1791 0.950 . S
C1780 H1772 0.950 . S
C1780 C1781 1.386 . S
C1780 C1782 1.391 . S
C1781 C1780 1.386 . S
C1781 C1785 1.393 . S
C1782 H1774 0.950 . S
C1782 C1780 1.391 . S
C1782 C1783 1.400 . S
C1783 C1782 1.400 . S
C1783 C1784 1.398 . S
C1783 C1789 1.491 1_455 S
C1784 H1775 0.950 . S
C1784 C1783 1.398 . S
C1784 C1785 1.391 . S
C1785 H1773 0.950 . S
C1785 C1781 1.393 . S
C1785 C1784 1.391 . S
C1786 H1776 0.950 . S
C1786 C1787 1.386 . S
C1786 C1788 1.391 . S
C1787 C1786 1.386 . S
C1787 C1791 1.393 . S
C1788 H1777 0.950 . S
C1788 C1786 1.391 . S
C1788 C1789 1.400 . S
C1789 C1783 1.491 1_655 S
C1789 C1788 1.400 . S
C1789 C1790 1.398 . S
C1790 H1778 0.950 . S
C1790 C1789 1.398 . S
C1790 C1791 1.391 . S
C1791 H1779 0.950 . S
C1791 C1787 1.393 . S
C1791 C1790 1.391 . S
H1792 C1800 0.950 . S
H1793 C1805 0.950 . S
H1794 C1802 0.950 . S
H1795 C1804 0.950 . S
H1796 C1806 0.950 . S
H1797 C1808 0.950 . S
H1798 C1810 0.950 . S
H1799 C1811 0.950 . S
C1800 H1792 0.950 . S
C1800 C1801 1.386 . S
C1800 C1802 1.391 . S
C1801 C1800 1.386 . S
C1801 C1805 1.393 . S
C1802 H1794 0.950 . S
C1802 C1800 1.391 . S
C1802 C1803 1.400 . S
C1803 C1802 1.400 . S
C1803 C1804 1.398 . S
C1803 C1809 1.491 1_556 S
C1804 H1795 0.950 . S
C1804 C1803 1.398 . S
C1804 C1805 1.391 . S
C1805 H1793 0.950 . S
C1805 C1801 1.393 . S
C1805 C1804 1.391 . S
C1806 H1796 0.950 . S
C1806 C1807 1.386 . S
C1806 C1808 1.391 . S
C1807 C1806 1.386 . S
C1807 C1811 1.393 . S
C1808 H1797 0.950 . S
C1808 C1806 1.391 . S
C1808 C1809 1.400 . S
C1809 C1803 1.491 1_554 S
C1809 C1808 1.400 . S
C1809 C1810 1.398 . S
C1810 H1798 0.950 . S
C1810 C1809 1.398 . S
C1810 C1811 1.391 . S
C1811 H1799 0.950 . S
C1811 C1807 1.393 . S
C1811 C1810 1.391 . S
H1812 C1820 0.950 . S
H1813 C1825 0.950 . S
H1814 C1822 0.950 . S
H1815 C1824 0.950 . S
H1816 C1826 0.950 . S
H1817 C1828 0.950 . S
H1818 C1830 0.950 . S
H1819 C1831 0.950 . S
C1820 H1812 0.950 . S
C1820 C1821 1.386 . S
C1820 C1822 1.391 . S
C1821 C1820 1.386 . S
C1821 C1825 1.393 . S
C1822 H1814 0.950 . S
C1822 C1820 1.391 . S
C1822 C1823 1.400 . S
C1823 C1822 1.400 . S
C1823 C1824 1.398 . S
C1823 C1829 1.491 . S
C1824 H1815 0.950 . S
C1824 C1823 1.398 . S
C1824 C1825 1.391 . S
C1825 H1813 0.950 . S
C1825 C1821 1.393 . S
C1825 C1824 1.391 . S
C1826 H1816 0.950 . S
C1826 C1827 1.386 . S
C1826 C1828 1.391 . S
C1827 C1826 1.386 . S
C1827 C1831 1.393 . S
C1828 H1817 0.950 . S
C1828 C1826 1.391 . S
C1828 C1829 1.400 . S
C1829 C1823 1.491 . S
C1829 C1828 1.400 . S
C1829 C1830 1.398 . S
C1830 H1818 0.950 . S
C1830 C1829 1.398 . S
C1830 C1831 1.391 . S
C1831 H1819 0.950 . S
C1831 C1827 1.393 . S
C1831 C1830 1.391 . S
H1832 C1840 0.950 . S
H1833 C1845 0.950 . S
H1834 C1842 0.950 . S
H1835 C1844 0.950 . S
H1836 C1846 0.950 . S
H1837 C1848 0.950 . S
H1838 C1850 0.950 . S
H1839 C1851 0.950 . S
C1840 H1832 0.950 . S
C1840 C1841 1.386 . S
C1840 C1842 1.391 . S
C1841 C1840 1.386 . S
C1841 C1845 1.393 . S
C1842 H1834 0.950 . S
C1842 C1840 1.391 . S
C1842 C1843 1.400 . S
C1843 C1842 1.400 . S
C1843 C1844 1.398 . S
C1843 C1849 1.491 . S
C1844 H1835 0.950 . S
C1844 C1843 1.398 . S
C1844 C1845 1.391 . S
C1845 H1833 0.950 . S
C1845 C1841 1.393 . S
C1845 C1844 1.391 . S
C1846 H1836 0.950 . S
C1846 C1847 1.386 . S
C1846 C1848 1.391 . S
C1847 C1846 1.386 . S
C1847 C1851 1.393 . S
C1848 H1837 0.950 . S
C1848 C1846 1.391 . S
C1848 C1849 1.400 . S
C1849 C1843 1.491 . S
C1849 C1848 1.400 . S
C1849 C1850 1.398 . S
C1850 H1838 0.950 . S
C1850 C1849 1.398 . S
C1850 C1851 1.391 . S
C1851 H1839 0.950 . S
C1851 C1847 1.393 . S
C1851 C1850 1.391 . S
H1852 C1860 0.950 . S
H1853 C1865 0.950 . S
H1854 C1862 0.950 . S
H1855 C1864 0.950 . S
H1856 C1866 0.950 . S
H1857 C1868 0.950 . S
H1858 C1870 0.950 . S
H1859 C1871 0.950 . S
C1860 H1852 0.950 . S
C1860 C1861 1.386 . S
C1860 C1862 1.391 . S
C1861 C1860 1.386 . S
C1861 C1865 1.393 . S
C1862 H1854 0.950 . S
C1862 C1860 1.391 . S
C1862 C1863 1.400 . S
C1863 C1862 1.400 . S
C1863 C1864 1.398 . S
C1863 C1869 1.491 . S
C1864 H1855 0.950 . S
C1864 C1863 1.398 . S
C1864 C1865 1.391 . S
C1865 H1853 0.950 . S
C1865 C1861 1.393 . S
C1865 C1864 1.391 . S
C1866 H1856 0.950 . S
C1866 C1867 1.386 . S
C1866 C1868 1.391 . S
C1867 C1866 1.386 . S
C1867 C1871 1.393 . S
C1868 H1857 0.950 . S
C1868 C1866 1.391 . S
C1868 C1869 1.400 . S
C1869 C1863 1.491 . S
C1869 C1868 1.400 . S
C1869 C1870 1.398 . S
C1870 H1858 0.950 . S
C1870 C1869 1.398 . S
C1870 C1871 1.391 . S
C1871 H1859 0.950 . S
C1871 C1867 1.393 . S
C1871 C1870 1.391 . S
H1872 C1880 0.950 . S
H1873 C1885 0.950 . S
H1874 C1882 0.950 . S
H1875 C1884 0.950 . S
H1876 C1886 0.950 . S
H1877 C1888 0.950 . S
H1878 C1890 0.950 . S
H1879 C1891 0.950 . S
C1880 H1872 0.950 . S
C1880 C1881 1.386 . S
C1880 C1882 1.391 . S
C1881 C1880 1.386 . S
C1881 C1885 1.393 1_554 S
C1882 H1874 0.950 . S
C1882 C1880 1.391 . S
C1882 C1883 1.400 . S
C1883 C1882 1.400 . S
C1883 C1884 1.398 1_554 S
C1883 C1889 1.491 1_554 S
C1884 H1875 0.950 . S
C1884 C1883 1.398 1_556 S
C1884 C1885 1.391 . S
C1885 H1873 0.950 . S
C1885 C1881 1.393 1_556 S
C1885 C1884 1.391 . S
C1886 H1876 0.950 . S
C1886 C1887 1.386 . S
C1886 C1888 1.391 . S
C1887 C1886 1.386 . S
C1887 C1891 1.393 1_556 S
C1888 H1877 0.950 . S
C1888 C1886 1.391 . S
C1888 C1889 1.400 . S
C1889 C1883 1.491 1_556 S
C1889 C1888 1.400 . S
C1889 C1890 1.398 1_556 S
C1890 H1878 0.950 . S
C1890 C1889 1.398 1_554 S
C1890 C1891 1.391 . S
C1891 H1879 0.950 . S
C1891 C1887 1.393 1_554 S
C1891 C1890 1.391 . S
H1892 C1900 0.950 . S
H1893 C1905 0.950 . S
H1894 C1902 0.950 . S
H1895 C1904 0.950 . S
H1896 C1906 0.950 . S
H1897 C1908 0.950 . S
H1898 C1910 0.950 . S
H1899 C1911 0.950 . S
C1900 H1892 0.950 . S
C1900 C1901 1.386 . S
C1900 C1902 1.391 . S
C1901 C1900 1.386 . S
C1901 C1905 1.393 . S
C1902 H1894 0.950 . S
C1902 C1900 1.391 . S
C1902 C1903 1.400 . S
C1903 C1902 1.400 . S
C1903 C1904 1.398 . S
C1903 C1909 1.491 . S
C1904 H1895 0.950 . S
C1904 C1903 1.398 . S
C1904 C1905 1.391 . S
C1905 H1893 0.950 . S
C1905 C1901 1.393 . S
C1905 C1904 1.391 . S
C1906 H1896 0.950 . S
C1906 C1907 1.386 . S
C1906 C1908 1.391 . S
C1907 C1906 1.386 . S
C1907 C1911 1.393 . S
C1908 H1897 0.950 . S
C1908 C1906 1.391 . S
C1908 C1909 1.400 . S
C1909 C1903 1.491 . S
C1909 C1908 1.400 . S
C1909 C1910 1.398 . S
C1910 H1898 0.950 . S
C1910 C1909 1.398 . S
C1910 C1911 1.391 . S
C1911 H1899 0.950 . S
C1911 C1907 1.393 . S
C1911 C1910 1.391 . S
H1912 C1920 0.950 . S
H1913 C1925 0.950 . S
H1914 C1922 0.950 . S
H1915 C1924 0.950 . S
H1916 C1926 0.950 . S
H1917 C1928 0.950 . S
H1918 C1930 0.950 . S
H1919 C1931 0.950 . S
C1920 H1912 0.950 . S
C1920 C1921 1.386 . S
C1920 C1922 1.391 . S
C1921 C1920 1.386 . S
C1921 C1925 1.393 . S
C1922 H1914 0.950 . S
C1922 C1920 1.391 . S
C1922 C1923 1.400 . S
C1923 C1922 1.400 . S
C1923 C1924 1.398 . S
C1923 C1929 1.491 . S
C1924 H1915 0.950 . S
C1924 C1923 1.398 . S
C1924 C1925 1.391 . S
C1925 H1913 0.950 . S
C1925 C1921 1.393 . S
C1925 C1924 1.391 . S
C1926 H1916 0.950 . S
C1926 C1927 1.386 . S
C1926 C1928 1.391 . S
C1927 C1926 1.386 . S
C1927 C1931 1.393 . S
C1928 H1917 0.950 . S
C1928 C1926 1.391 . S
C1928 C1929 1.400 . S
C1929 C1923 1.491 . S
C1929 C1928 1.400 . S
C1929 C1930 1.398 . S
C1930 H1918 0.950 . S
C1930 C1929 1.398 . S
C1930 C1931 1.391 . S
C1931 H1919 0.950 . S
C1931 C1927 1.393 . S
C1931 C1930 1.391 . S
H1932 C1940 0.950 . S
H1933 C1945 0.950 . S
H1934 C1942 0.950 . S
H1935 C1944 0.950 . S
H1936 C1946 0.950 . S
H1937 C1948 0.950 . S
H1938 C1950 0.950 . S
H1939 C1951 0.950 . S
C1940 H1932 0.950 . S
C1940 C1941 1.386 . S
C1940 C1942 1.391 . S
C1941 C1940 1.386 . S
C1941 C1945 1.393 . S
C1942 H1934 0.950 . S
C1942 C1940 1.391 . S
C1942 C1943 1.400 . S
C1943 C1942 1.400 . S
C1943 C1944 1.398 . S
C1943 C1949 1.491 . S
C1944 H1935 0.950 . S
C1944 C1943 1.398 . S
C1944 C1945 1.391 . S
C1945 H1933 0.950 . S
C1945 C1941 1.393 . S
C1945 C1944 1.391 . S
C1946 H1936 0.950 . S
C1946 C1947 1.386 . S
C1946 C1948 1.391 . S
C1947 C1946 1.386 . S
C1947 C1951 1.393 . S
C1948 H1937 0.950 . S
C1948 C1946 1.391 . S
C1948 C1949 1.400 . S
C1949 C1943 1.491 . S
C1949 C1948 1.400 . S
C1949 C1950 1.398 . S
C1950 H1938 0.950 . S
C1950 C1949 1.398 . S
C1950 C1951 1.391 . S
C1951 H1939 0.950 . S
C1951 C1947 1.393 . S
C1951 C1950 1.391 . S
H1952 C1960 0.950 . S
H1953 C1965 0.950 . S
H1954 C1962 0.950 . S
H1955 C1964 0.950 . S
H1956 C1966 0.950 . S
H1957 C1968 0.950 . S
H1958 C1970 0.950 . S
H1959 C1971 0.950 . S
C1960 H1952 0.950 . S
C1960 C1961 1.386 . S
C1960 C1962 1.391 . S
C1961 C1960 1.386 . S
C1961 C1965 1.393 . S
C1962 H1954 0.950 . S
C1962 C1960 1.391 . S
C1962 C1963 1.400 . S
C1963 C1962 1.400 . S
C1963 C1964 1.398 . S
C1963 C1969 1.491 1_545 S
C1964 H1955 0.950 . S
C1964 C1963 1.398 . S
C1964 C1965 1.391 . S
C1965 H1953 0.950 . S
C1965 C1961 1.393 . S
C1965 C1964 1.391 . S
C1966 H1956 0.950 . S
C1966 C1967 1.386 . S
C1966 C1968 1.391 . S
C1967 C1966 1.386 . S
C1967 C1971 1.393 . S
C1968 H1957 0.950 . S
C1968 C1966 1.391 . S
C1968 C1969 1.400 . S
C1969 C1963 1.491 1_565 S
C1969 C1968 1.400 . S
C1969 C1970 1.398 . S
C1970 H1958 0.950 . S
C1970 C1969 1.398 . S
C1970 C1971 1.391 . S
C1971 H1959 0.950 . S
C1971 C1967 1.393 . S
C1971 C1970 1.391 . S
H1972 C1980 0.950 . S
H1973 C1985 0.950 . S
H1974 C1982 0.950 . S
H1975 C1984 0.950 . S
H1976 C1986 0.950 . S
H1977 C1988 0.950 . S
H1978 C1990 0.950 . S
H1979 C1991 0.950 . S
C1980 H1972 0.950 . S
C1980 C1981 1.386 . S
C1980 C1982 1.391 . S
C1981 C1980 1.386 . S
C1981 C1985 1.393 . S
C1982 H1974 0.950 . S
C1982 C1980 1.391 . S
C1982 C1983 1.400 . S
C1983 C1982 1.400 . S
C1983 C1984 1.398 . S
C1983 C1989 1.491 . S
C1984 H1975 0.950 . S
C1984 C1983 1.398 . S
C1984 C1985 1.391 . S
C1985 H1973 0.950 . S
C1985 C1981 1.393 . S
C1985 C1984 1.391 . S
C1986 H1976 0.950 . S
C1986 C1987 1.386 . S
C1986 C1988 1.391 . S
C1987 C1986 1.386 . S
C1987 C1991 1.393 . S
C1988 H1977 0.950 . S
C1988 C1986 1.391 . S
C1988 C1989 1.400 . S
C1989 C1983 1.491 . S
C1989 C1988 1.400 . S
C1989 C1990 1.398 . S
C1990 H1978 0.950 . S
C1990 C1989 1.398 . S
C1990 C1991 1.391 . S
C1991 H1979 0.950 . S
C1991 C1987 1.393 . S
C1991 C1990 1.391 . S
H1992 C2000 0.950 . S
H1993 C2005 0.950 . S
H1994 C2002 0.950 . S
H1995 C2004 0.950 1_556 S
H1996 C2006 0.950 . S
H1997 C2008 0.950 . S
H1998 C2010 0.950 1_554 S
H1999 C2011 0.950 . S
C2000 H1992 0.950 . S
C2000 C2001 1.386 . S
C2000 C2002 1.391 . S
C2001 C2000 1.386 . S
C2001 C2005 1.393 . S
C2002 H1994 0.950 . S
C2002 C2000 1.391 . S
C2002 C2003 1.400 . S
C2003 C2002 1.400 . S
C2003 C2004 1.398 . S
C2003 C2009 1.491 1_564 S
C2004 H1995 0.950 1_554 S
C2004 C2003 1.398 . S
C2004 C2005 1.391 . S
C2005 H1993 0.950 . S
C2005 C2001 1.393 . S
C2005 C2004 1.391 . S
C2006 H1996 0.950 . S
C2006 C2007 1.386 . S
C2006 C2008 1.391 . S
C2007 C2006 1.386 . S
C2007 C2011 1.393 . S
C2008 H1997 0.950 . S
C2008 C2006 1.391 . S
C2008 C2009 1.400 . S
C2009 C2003 1.491 1_546 S
C2009 C2008 1.400 . S
C2009 C2010 1.398 . S
C2010 H1998 0.950 1_556 S
C2010 C2009 1.398 . S
C2010 C2011 1.391 . S
C2011 H1999 0.950 . S
C2011 C2007 1.393 . S
C2011 C2010 1.391 . S
H2012 C2020 0.950 . S
H2013 C2025 0.950 . S
H2014 C2022 0.950 . S
H2015 C2024 0.950 . S
H2016 C2026 0.950 . S
H2017 C2028 0.950 . S
H2018 C2030 0.950 . S
H2019 C2031 0.950 . S
C2020 H2012 0.950 . S
C2020 C2021 1.386 . S
C2020 C2022 1.391 . S
C2021 C2020 1.386 . S
C2021 C2025 1.393 . S
C2022 H2014 0.950 . S
C2022 C2020 1.391 . S
C2022 C2023 1.400 . S
C2023 C2022 1.400 . S
C2023 C2024 1.398 . S
C2023 C2029 1.491 . S
C2024 H2015 0.950 . S
C2024 C2023 1.398 . S
C2024 C2025 1.391 . S
C2025 H2013 0.950 . S
C2025 C2021 1.393 . S
C2025 C2024 1.391 . S
C2026 H2016 0.950 . S
C2026 C2027 1.386 . S
C2026 C2028 1.391 . S
C2027 C2026 1.386 . S
C2027 C2031 1.393 . S
C2028 H2017 0.950 . S
C2028 C2026 1.391 . S
C2028 C2029 1.400 . S
C2029 C2023 1.491 . S
C2029 C2028 1.400 . S
C2029 C2030 1.398 . S
C2030 H2018 0.950 . S
C2030 C2029 1.398 . S
C2030 C2031 1.391 . S
C2031 H2019 0.950 . S
C2031 C2027 1.393 . S
C2031 C2030 1.391 . S
H2032 C2040 0.950 . S
H2033 C2045 0.950 . S
H2034 C2042 0.950 . S
H2035 C2044 0.950 . S
H2036 C2046 0.950 . S
H2037 C2048 0.950 . S
H2038 C2050 0.950 . S
H2039 C2051 0.950 . S
C2040 H2032 0.950 . S
C2040 C2041 1.386 . S
C2040 C2042 1.391 . S
C2041 C2040 1.386 . S
C2041 C2045 1.393 . S
C2042 H2034 0.950 . S
C2042 C2040 1.391 . S
C2042 C2043 1.400 . S
C2043 C2042 1.400 . S
C2043 C2044 1.398 . S
C2043 C2049 1.491 1_545 S
C2044 H2035 0.950 . S
C2044 C2043 1.398 . S
C2044 C2045 1.391 . S
C2045 H2033 0.950 . S
C2045 C2041 1.393 . S
C2045 C2044 1.391 . S
C2046 H2036 0.950 . S
C2046 C2047 1.386 . S
C2046 C2048 1.391 . S
C2047 C2046 1.386 . S
C2047 C2051 1.393 . S
C2048 H2037 0.950 . S
C2048 C2046 1.391 . S
C2048 C2049 1.400 . S
C2049 C2043 1.491 1_565 S
C2049 C2048 1.400 . S
C2049 C2050 1.398 . S
C2050 H2038 0.950 . S
C2050 C2049 1.398 . S
C2050 C2051 1.391 . S
C2051 H2039 0.950 . S
C2051 C2047 1.393 . S
C2051 C2050 1.391 . S
H2052 C2060 0.950 . S
H2053 C2065 0.950 . S
H2054 C2062 0.950 . S
H2055 C2064 0.950 . S
H2056 C2066 0.950 . S
H2057 C2068 0.950 . S
H2058 C2070 0.950 . S
H2059 C2071 0.950 . S
C2060 H2052 0.950 . S
C2060 C2061 1.386 . S
C2060 C2062 1.391 . S
C2061 C2060 1.386 . S
C2061 C2065 1.393 . S
C2062 H2054 0.950 . S
C2062 C2060 1.391 . S
C2062 C2063 1.400 . S
C2063 C2062 1.400 . S
C2063 C2064 1.398 . S
C2063 C2069 1.491 . S
C2064 H2055 0.950 . S
C2064 C2063 1.398 . S
C2064 C2065 1.391 . S
C2065 H2053 0.950 . S
C2065 C2061 1.393 . S
C2065 C2064 1.391 . S
C2066 H2056 0.950 . S
C2066 C2067 1.386 . S
C2066 C2068 1.391 . S
C2067 C2066 1.386 . S
C2067 C2071 1.393 . S
C2068 H2057 0.950 . S
C2068 C2066 1.391 . S
C2068 C2069 1.400 . S
C2069 C2063 1.491 . S
C2069 C2068 1.400 . S
C2069 C2070 1.398 . S
C2070 H2058 0.950 . S
C2070 C2069 1.398 . S
C2070 C2071 1.391 . S
C2071 H2059 0.950 . S
C2071 C2067 1.393 . S
C2071 C2070 1.391 . S
H2072 C2080 0.950 . S
H2073 C2085 0.938 1_556 S
H2074 C2082 0.950 . S
H2075 C2084 0.950 . S
H2076 C2086 0.950 . S
H2077 C2088 0.950 . S
H2078 C2090 0.950 . S
H2079 C2091 0.938 1_554 S
C2080 H2072 0.950 . S
C2080 C2081 1.386 . S
C2080 C2082 1.391 . S
C2081 C2080 1.386 . S
C2081 C2085 1.393 . S
C2082 H2074 0.950 . S
C2082 C2080 1.391 . S
C2082 C2083 1.400 . S
C2083 C2082 1.400 . S
C2083 C2084 1.398 1_554 S
C2083 C2089 1.491 1_564 S
C2084 H2075 0.950 . S
C2084 C2083 1.398 1_556 S
C2084 C2085 1.391 1_556 S
C2085 H2073 0.938 1_554 S
C2085 C2081 1.393 . S
C2085 C2084 1.391 1_554 S
C2086 H2076 0.950 . S
C2086 C2087 1.386 . S
C2086 C2088 1.391 . S
C2087 C2086 1.386 . S
C2087 C2091 1.393 . S
C2088 H2077 0.950 . S
C2088 C2086 1.391 . S
C2088 C2089 1.400 . S
C2089 C2083 1.491 1_546 S
C2089 C2088 1.400 . S
C2089 C2090 1.398 1_556 S
C2090 H2078 0.950 . S
C2090 C2089 1.398 1_554 S
C2090 C2091 1.391 1_554 S
C2091 H2079 0.938 1_556 S
C2091 C2087 1.393 . S
C2091 C2090 1.391 1_556 S
H2092 C2100 0.950 . S
H2093 C2105 0.950 . S
H2094 C2102 0.950 . S
H2095 C2104 0.950 . S
H2096 C2106 0.950 . S
H2097 C2108 0.950 . S
H2098 C2110 0.950 . S
H2099 C2111 0.950 . S
C2100 H2092 0.950 . S
C2100 C2101 1.386 . S
C2100 C2102 1.391 . S
C2101 C2100 1.386 . S
C2101 C2105 1.393 . S
C2102 H2094 0.950 . S
C2102 C2100 1.391 . S
C2102 C2103 1.400 . S
C2103 C2102 1.400 . S
C2103 C2104 1.398 . S
C2103 C2109 1.491 . S
C2104 H2095 0.950 . S
C2104 C2103 1.398 . S
C2104 C2105 1.391 . S
C2105 H2093 0.950 . S
C2105 C2101 1.393 . S
C2105 C2104 1.391 . S
C2106 H2096 0.950 . S
C2106 C2107 1.386 . S
C2106 C2108 1.391 . S
C2107 C2106 1.386 . S
C2107 C2111 1.393 . S
C2108 H2097 0.950 . S
C2108 C2106 1.391 . S
C2108 C2109 1.400 . S
C2109 C2103 1.491 . S
C2109 C2108 1.400 . S
C2109 C2110 1.398 . S
C2110 H2098 0.950 . S
C2110 C2109 1.398 . S
C2110 C2111 1.391 . S
C2111 H2099 0.950 . S
C2111 C2107 1.393 . S
C2111 C2110 1.391 . S
H2112 C2120 0.950 . S
H2113 C2125 0.950 . S
H2114 C2122 0.950 . S
H2115 C2124 0.950 . S
H2116 C2126 0.950 . S
H2117 C2128 0.950 . S
H2118 C2130 0.950 . S
H2119 C2131 0.950 . S
C2120 H2112 0.950 . S
C2120 C2121 1.386 . S
C2120 C2122 1.391 . S
C2121 C2120 1.386 . S
C2121 C2125 1.393 . S
C2122 H2114 0.950 . S
C2122 C2120 1.391 . S
C2122 C2123 1.400 . S
C2123 C2122 1.400 . S
C2123 C2124 1.398 . S
C2123 C2129 1.491 . S
C2124 H2115 0.950 . S
C2124 C2123 1.398 . S
C2124 C2125 1.391 . S
C2125 H2113 0.950 . S
C2125 C2121 1.393 . S
C2125 C2124 1.391 . S
C2126 H2116 0.950 . S
C2126 C2127 1.386 . S
C2126 C2128 1.391 . S
C2127 C2126 1.386 . S
C2127 C2131 1.393 . S
C2128 H2117 0.950 . S
C2128 C2126 1.391 . S
C2128 C2129 1.400 . S
C2129 C2123 1.491 . S
C2129 C2128 1.400 . S
C2129 C2130 1.398 . S
C2130 H2118 0.950 . S
C2130 C2129 1.398 . S
C2130 C2131 1.391 . S
C2131 H2119 0.950 . S
C2131 C2127 1.393 . S
C2131 C2130 1.391 . S
H2132 C2140 0.950 . S
H2133 C2145 0.950 . S
H2134 C2142 0.950 . S
H2135 C2144 0.950 . S
H2136 C2146 0.950 . S
H2137 C2148 0.950 . S
H2138 C2150 0.950 . S
H2139 C2151 0.950 . S
C2140 H2132 0.950 . S
C2140 C2141 1.386 . S
C2140 C2142 1.391 . S
C2141 C2140 1.386 . S
C2141 C2145 1.393 . S
C2142 H2134 0.950 . S
C2142 C2140 1.391 . S
C2142 C2143 1.400 . S
C2143 C2142 1.400 . S
C2143 C2144 1.398 . S
C2143 C2149 1.491 . S
C2144 H2135 0.950 . S
C2144 C2143 1.398 . S
C2144 C2145 1.391 . S
C2145 H2133 0.950 . S
C2145 C2141 1.393 . S
C2145 C2144 1.391 . S
C2146 H2136 0.950 . S
C2146 C2147 1.386 . S
C2146 C2148 1.391 . S
C2147 C2146 1.386 . S
C2147 C2151 1.393 . S
C2148 H2137 0.950 . S
C2148 C2146 1.391 . S
C2148 C2149 1.400 . S
C2149 C2143 1.491 . S
C2149 C2148 1.400 . S
C2149 C2150 1.398 . S
C2150 H2138 0.950 . S
C2150 C2149 1.398 . S
C2150 C2151 1.391 . S
C2151 H2139 0.950 . S
C2151 C2147 1.393 . S
C2151 C2150 1.391 . S
H2152 C2160 0.950 . S
H2153 C2165 0.950 . S
H2154 C2162 0.950 . S
H2155 C2164 0.950 . S
H2156 C2166 0.950 . S
H2157 C2168 0.950 . S
H2158 C2170 0.950 . S
H2159 C2171 0.950 . S
C2160 H2152 0.950 . S
C2160 C2161 1.386 . S
C2160 C2162 1.391 . S
C2161 C2160 1.386 . S
C2161 C2165 1.393 . S
C2162 H2154 0.950 . S
C2162 C2160 1.391 . S
C2162 C2163 1.400 . S
C2163 C2162 1.400 . S
C2163 C2164 1.398 . S
C2163 C2169 1.491 . S
C2164 H2155 0.950 . S
C2164 C2163 1.398 . S
C2164 C2165 1.391 . S
C2165 H2153 0.950 . S
C2165 C2161 1.393 . S
C2165 C2164 1.391 . S
C2166 H2156 0.950 . S
C2166 C2167 1.386 . S
C2166 C2168 1.391 . S
C2167 C2166 1.386 . S
C2167 C2171 1.393 . S
C2168 H2157 0.950 . S
C2168 C2166 1.391 . S
C2168 C2169 1.400 . S
C2169 C2163 1.491 . S
C2169 C2168 1.400 . S
C2169 C2170 1.398 . S
C2170 H2158 0.950 . S
C2170 C2169 1.398 . S
C2170 C2171 1.391 . S
C2171 H2159 0.950 . S
C2171 C2167 1.393 . S
C2171 C2170 1.391 . S
H2172 C2180 0.950 . S
H2173 C2185 0.950 . S
H2174 C2182 0.950 . S
H2175 C2184 0.950 . S
H2176 C2186 0.950 . S
H2177 C2188 0.950 . S
H2178 C2190 0.950 . S
H2179 C2191 0.950 . S
C2180 H2172 0.950 . S
C2180 C2181 1.386 . S
C2180 C2182 1.391 . S
C2181 C2180 1.386 . S
C2181 C2185 1.393 . S
C2182 H2174 0.950 . S
C2182 C2180 1.391 . S
C2182 C2183 1.400 . S
C2183 C2182 1.400 . S
C2183 C2184 1.398 . S
C2183 C2189 1.491 1_655 S
C2184 H2175 0.950 . S
C2184 C2183 1.398 . S
C2184 C2185 1.391 . S
C2185 H2173 0.950 . S
C2185 C2181 1.393 . S
C2185 C2184 1.391 . S
C2186 H2176 0.950 . S
C2186 C2187 1.386 . S
C2186 C2188 1.391 . S
C2187 C2186 1.386 . S
C2187 C2191 1.393 . S
C2188 H2177 0.950 . S
C2188 C2186 1.391 . S
C2188 C2189 1.400 . S
C2189 C2183 1.491 1_455 S
C2189 C2188 1.400 . S
C2189 C2190 1.398 . S
C2190 H2178 0.950 . S
C2190 C2189 1.398 . S
C2190 C2191 1.391 . S
C2191 H2179 0.950 . S
C2191 C2187 1.393 . S
C2191 C2190 1.391 . S
H2192 C2200 0.950 . S
H2193 C2205 0.950 . S
H2194 C2202 0.950 . S
H2195 C2204 0.950 . S
H2196 C2206 0.950 . S
H2197 C2208 0.950 . S
H2198 C2210 0.950 . S
H2199 C2211 0.950 . S
C2200 H2192 0.950 . S
C2200 C2201 1.386 . S
C2200 C2202 1.391 . S
C2201 C2200 1.386 . S
C2201 C2205 1.393 . S
C2202 H2194 0.950 . S
C2202 C2200 1.391 . S
C2202 C2203 1.400 . S
C2203 C2202 1.400 . S
C2203 C2204 1.398 . S
C2203 C2209 1.491 . S
C2204 H2195 0.950 . S
C2204 C2203 1.398 . S
C2204 C2205 1.391 . S
C2205 H2193 0.950 . S
C2205 C2201 1.393 . S
C2205 C2204 1.391 . S
C2206 H2196 0.950 . S
C2206 C2207 1.386 . S
C2206 C2208 1.391 . S
C2207 C2206 1.386 . S
C2207 C2211 1.393 . S
C2208 H2197 0.950 . S
C2208 C2206 1.391 . S
C2208 C2209 1.400 . S
C2209 C2203 1.491 . S
C2209 C2208 1.400 . S
C2209 C2210 1.398 . S
C2210 H2198 0.950 . S
C2210 C2209 1.398 . S
C2210 C2211 1.391 . S
C2211 H2199 0.950 . S
C2211 C2207 1.393 . S
C2211 C2210 1.391 . S
H2212 C2220 0.950 . S
H2213 C2225 0.950 . S
H2214 C2222 0.950 . S
H2215 C2224 0.950 . S
H2216 C2226 0.950 . S
H2217 C2228 0.950 . S
H2218 C2230 0.950 . S
H2219 C2231 0.950 . S
C2220 H2212 0.950 . S
C2220 C2221 1.386 . S
C2220 C2222 1.391 . S
C2221 C2220 1.386 . S
C2221 C2225 1.393 . S
C2222 H2214 0.950 . S
C2222 C2220 1.391 . S
C2222 C2223 1.400 . S
C2223 C2222 1.400 . S
C2223 C2224 1.398 . S
C2223 C2229 1.491 1_655 S
C2224 H2215 0.950 . S
C2224 C2223 1.398 . S
C2224 C2225 1.391 . S
C2225 H2213 0.950 . S
C2225 C2221 1.393 . S
C2225 C2224 1.391 . S
C2226 H2216 0.950 . S
C2226 C2227 1.386 . S
C2226 C2228 1.391 . S
C2227 C2226 1.386 . S
C2227 C2231 1.393 . S
C2228 H2217 0.950 . S
C2228 C2226 1.391 . S
C2228 C2229 1.400 . S
C2229 C2223 1.491 1_455 S
C2229 C2228 1.400 . S
C2229 C2230 1.398 . S
C2230 H2218 0.950 . S
C2230 C2229 1.398 . S
C2230 C2231 1.391 . S
C2231 H2219 0.950 . S
C2231 C2227 1.393 . S
C2231 C2230 1.391 . S
H2232 C2240 0.950 . S
H2233 C2245 0.950 . S
H2234 C2242 0.950 . S
H2235 C2244 0.950 . S
H2236 C2246 0.950 . S
H2237 C2248 0.950 . S
H2238 C2250 0.950 . S
H2239 C2251 0.950 . S
C2240 H2232 0.950 . S
C2240 C2241 1.386 . S
C2240 C2242 1.391 . S
C2241 C2240 1.386 . S
C2241 C2245 1.393 . S
C2242 H2234 0.950 . S
C2242 C2240 1.391 . S
C2242 C2243 1.400 . S
C2243 C2242 1.400 . S
C2243 C2244 1.398 . S
C2243 C2249 1.491 . S
C2244 H2235 0.950 . S
C2244 C2243 1.398 . S
C2244 C2245 1.391 . S
C2245 H2233 0.950 . S
C2245 C2241 1.393 . S
C2245 C2244 1.391 . S
C2246 H2236 0.950 . S
C2246 C2247 1.386 . S
C2246 C2248 1.391 . S
C2247 C2246 1.386 . S
C2247 C2251 1.393 . S
C2248 H2237 0.950 . S
C2248 C2246 1.391 . S
C2248 C2249 1.400 . S
C2249 C2243 1.491 . S
C2249 C2248 1.400 . S
C2249 C2250 1.398 . S
C2250 H2238 0.950 . S
C2250 C2249 1.398 . S
C2250 C2251 1.391 . S
C2251 H2239 0.950 . S
C2251 C2247 1.393 . S
C2251 C2250 1.391 . S
H2252 C2260 0.950 . S
H2253 C2265 0.950 . S
H2254 C2262 0.950 . S
H2255 C2264 0.950 . S
H2256 C2266 0.950 . S
H2257 C2268 0.950 . S
H2258 C2270 0.950 . S
H2259 C2271 0.950 . S
C2260 H2252 0.950 . S
C2260 C2261 1.386 . S
C2260 C2262 1.391 . S
C2261 C2260 1.386 . S
C2261 C2265 1.393 . S
C2262 H2254 0.950 . S
C2262 C2260 1.391 . S
C2262 C2263 1.400 . S
C2263 C2262 1.400 . S
C2263 C2264 1.398 . S
C2263 C2269 1.491 . S
C2264 H2255 0.950 . S
C2264 C2263 1.398 . S
C2264 C2265 1.391 . S
C2265 H2253 0.950 . S
C2265 C2261 1.393 . S
C2265 C2264 1.391 . S
C2266 H2256 0.950 . S
C2266 C2267 1.386 . S
C2266 C2268 1.391 . S
C2267 C2266 1.386 . S
C2267 C2271 1.393 . S
C2268 H2257 0.950 . S
C2268 C2266 1.391 . S
C2268 C2269 1.400 . S
C2269 C2263 1.491 . S
C2269 C2268 1.400 . S
C2269 C2270 1.398 . S
C2270 H2258 0.950 . S
C2270 C2269 1.398 . S
C2270 C2271 1.391 . S
C2271 H2259 0.950 . S
C2271 C2267 1.393 . S
C2271 C2270 1.391 . S
H2272 C2280 0.950 . S
H2273 C2285 0.950 1_554 S
H2274 C2282 0.950 . S
H2275 C2284 0.916 1_554 S
H2276 C2286 0.950 1_554 S
H2277 C2288 0.950 1_554 S
H2278 C2290 0.950 . S
H2279 C2291 0.950 . S
C2280 H2272 0.950 . S
C2280 C2281 1.386 . S
C2280 C2282 1.391 . S
C2281 C2280 1.386 . S
C2281 C2285 1.393 . S
C2282 H2274 0.950 . S
C2282 C2280 1.391 . S
C2282 C2283 1.400 . S
C2283 C2282 1.400 . S
C2283 C2284 1.398 . S
C2283 C2289 1.491 . S
C2284 H2275 0.916 1_556 S
C2284 C2283 1.398 . S
C2284 C2285 1.391 . S
C2285 H2273 0.950 1_556 S
C2285 C2281 1.393 . S
C2285 C2284 1.391 . S
C2286 H2276 0.950 1_556 S
C2286 C2287 1.386 . S
C2286 C2288 1.391 . S
C2287 C2286 1.386 . S
C2287 C2291 1.393 . S
C2288 H2277 0.950 1_556 S
C2288 C2286 1.391 . S
C2288 C2289 1.400 . S
C2289 C2283 1.491 . S
C2289 C2288 1.400 . S
C2289 C2290 1.398 . S
C2290 H2278 0.950 . S
C2290 C2289 1.398 . S
C2290 C2291 1.391 . S
C2291 H2279 0.950 . S
C2291 C2287 1.393 . S
C2291 C2290 1.391 . S
H2292 C2300 0.950 . S
H2293 C2305 0.950 . S
H2294 C2302 0.950 . S
H2295 C2304 0.950 . S
H2296 C2306 0.950 . S
H2297 C2308 0.950 . S
H2298 C2310 0.950 . S
H2299 C2311 0.950 . S
C2300 H2292 0.950 . S
C2300 C2301 1.386 . S
C2300 C2302 1.391 . S
C2301 C2300 1.386 . S
C2301 C2305 1.393 . S
C2302 H2294 0.950 . S
C2302 C2300 1.391 . S
C2302 C2303 1.400 . S
C2303 C2302 1.400 . S
C2303 C2304 1.398 . S
C2303 C2309 1.491 . S
C2304 H2295 0.950 . S
C2304 C2303 1.398 . S
C2304 C2305 1.391 . S
C2305 H2293 0.950 . S
C2305 C2301 1.393 . S
C2305 C2304 1.391 . S
C2306 H2296 0.950 . S
C2306 C2307 1.386 . S
C2306 C2308 1.391 . S
C2307 C2306 1.386 . S
C2307 C2311 1.393 . S
C2308 H2297 0.950 . S
C2308 C2306 1.391 . S
C2308 C2309 1.400 . S
C2309 C2303 1.491 . S
C2309 C2308 1.400 . S
C2309 C2310 1.398 . S
C2310 H2298 0.950 . S
C2310 C2309 1.398 . S
C2310 C2311 1.391 . S
C2311 H2299 0.950 . S
C2311 C2307 1.393 . S
C2311 C2310 1.391 . S
H2312 C2320 0.950 . S
H2313 C2325 0.950 . S
H2314 C2322 0.950 . S
H2315 C2324 0.950 . S
H2316 C2326 0.950 . S
H2317 C2328 0.950 . S
H2318 C2330 0.950 . S
H2319 C2331 0.950 . S
C2320 H2312 0.950 . S
C2320 C2321 1.386 . S
C2320 C2322 1.391 . S
C2321 C2320 1.386 . S
C2321 C2325 1.393 . S
C2322 H2314 0.950 . S
C2322 C2320 1.391 . S
C2322 C2323 1.400 . S
C2323 C2322 1.400 . S
C2323 C2324 1.398 . S
C2323 C2329 1.491 . S
C2324 H2315 0.950 . S
C2324 C2323 1.398 . S
C2324 C2325 1.391 . S
C2325 H2313 0.950 . S
C2325 C2321 1.393 . S
C2325 C2324 1.391 . S
C2326 H2316 0.950 . S
C2326 C2327 1.386 . S
C2326 C2328 1.391 . S
C2327 C2326 1.386 . S
C2327 C2331 1.393 . S
C2328 H2317 0.950 . S
C2328 C2326 1.391 . S
C2328 C2329 1.400 . S
C2329 C2323 1.491 . S
C2329 C2328 1.400 . S
C2329 C2330 1.398 . S
C2330 H2318 0.950 . S
C2330 C2329 1.398 . S
C2330 C2331 1.391 . S
C2331 H2319 0.950 . S
C2331 C2327 1.393 . S
C2331 C2330 1.391 . S
H2332 C2340 0.950 . S
H2333 C2345 0.950 . S
H2334 C2342 0.950 . S
H2335 C2344 0.950 . S
H2336 C2346 0.950 . S
H2337 C2348 0.950 . S
H2338 C2350 0.950 . S
H2339 C2351 0.950 . S
C2340 H2332 0.950 . S
C2340 C2341 1.386 . S
C2340 C2342 1.391 . S
C2341 C2340 1.386 . S
C2341 C2345 1.393 . S
C2342 H2334 0.950 . S
C2342 C2340 1.391 . S
C2342 C2343 1.400 . S
C2343 C2342 1.400 . S
C2343 C2344 1.398 . S
C2343 C2349 1.491 . S
C2344 H2335 0.950 . S
C2344 C2343 1.398 . S
C2344 C2345 1.391 . S
C2345 H2333 0.950 . S
C2345 C2341 1.393 . S
C2345 C2344 1.391 . S
C2346 H2336 0.950 . S
C2346 C2347 1.386 . S
C2346 C2348 1.391 . S
C2347 C2346 1.386 . S
C2347 C2351 1.393 . S
C2348 H2337 0.950 . S
C2348 C2346 1.391 . S
C2348 C2349 1.400 . S
C2349 C2343 1.491 . S
C2349 C2348 1.400 . S
C2349 C2350 1.398 . S
C2350 H2338 0.950 . S
C2350 C2349 1.398 . S
C2350 C2351 1.391 . S
C2351 H2339 0.950 . S
C2351 C2347 1.393 . S
C2351 C2350 1.391 . S
H2352 C2360 0.950 . S
H2353 C2365 0.950 . S
H2354 C2362 0.950 . S
H2355 C2364 0.950 . S
H2356 C2366 0.950 . S
H2357 C2368 0.950 . S
H2358 C2370 0.950 . S
H2359 C2371 0.950 . S
C2360 H2352 0.950 . S
C2360 C2361 1.386 . S
C2360 C2362 1.391 . S
C2361 C2360 1.386 . S
C2361 C2365 1.393 . S
C2362 H2354 0.950 . S
C2362 C2360 1.391 . S
C2362 C2363 1.400 . S
C2363 C2362 1.400 . S
C2363 C2364 1.398 . S
C2363 C2369 1.491 1_655 S
C2364 H2355 0.950 . S
C2364 C2363 1.398 . S
C2364 C2365 1.391 . S
C2365 H2353 0.950 . S
C2365 C2361 1.393 . S
C2365 C2364 1.391 . S
C2366 H2356 0.950 . S
C2366 C2367 1.386 . S
C2366 C2368 1.391 . S
C2367 C2366 1.386 . S
C2367 C2371 1.393 . S
C2368 H2357 0.950 . S
C2368 C2366 1.391 . S
C2368 C2369 1.400 . S
C2369 C2363 1.491 1_455 S
C2369 C2368 1.400 . S
C2369 C2370 1.398 . S
C2370 H2358 0.950 . S
C2370 C2369 1.398 . S
C2370 C2371 1.391 . S
C2371 H2359 0.950 . S
C2371 C2367 1.393 . S
C2371 C2370 1.391 . S
H2372 C2380 0.950 . S
H2373 C2385 0.950 . S
H2374 C2382 0.950 . S
H2375 C2384 0.950 . S
H2376 C2386 0.950 . S
H2377 C2388 0.950 . S
H2378 C2390 0.950 . S
H2379 C2391 0.950 . S
C2380 H2372 0.950 . S
C2380 C2381 1.386 . S
C2380 C2382 1.391 . S
C2381 C2380 1.386 . S
C2381 C2385 1.393 . S
C2382 H2374 0.950 . S
C2382 C2380 1.391 . S
C2382 C2383 1.400 . S
C2383 C2382 1.400 . S
C2383 C2384 1.398 . S
C2383 C2389 1.491 . S
C2384 H2375 0.950 . S
C2384 C2383 1.398 . S
C2384 C2385 1.391 . S
C2385 H2373 0.950 . S
C2385 C2381 1.393 . S
C2385 C2384 1.391 . S
C2386 H2376 0.950 . S
C2386 C2387 1.386 . S
C2386 C2388 1.391 . S
C2387 C2386 1.386 . S
C2387 C2391 1.393 . S
C2388 H2377 0.950 . S
C2388 C2386 1.391 . S
C2388 C2389 1.400 . S
C2389 C2383 1.491 . S
C2389 C2388 1.400 . S
C2389 C2390 1.398 . S
C2390 H2378 0.950 . S
C2390 C2389 1.398 . S
C2390 C2391 1.391 . S
C2391 H2379 0.950 . S
C2391 C2387 1.393 . S
C2391 C2390 1.391 . S
H2392 C2400 0.950 . S
H2393 C2405 0.950 . S
H2394 C2402 0.950 . S
H2395 C2404 0.950 . S
H2396 C2406 0.950 . S
H2397 C2408 0.950 . S
H2398 C2410 0.950 . S
H2399 C2411 0.950 . S
C2400 H2392 0.950 . S
C2400 C2401 1.386 . S
C2400 C2402 1.391 . S
C2401 C2400 1.386 . S
C2401 C2405 1.393 . S
C2402 H2394 0.950 . S
C2402 C2400 1.391 . S
C2402 C2403 1.400 . S
C2403 C2402 1.400 . S
C2403 C2404 1.398 . S
C2403 C2409 1.491 . S
C2404 H2395 0.950 . S
C2404 C2403 1.398 . S
C2404 C2405 1.391 . S
C2405 H2393 0.950 . S
C2405 C2401 1.393 . S
C2405 C2404 1.391 . S
C2406 H2396 0.950 . S
C2406 C2407 1.386 . S
C2406 C2408 1.391 . S
C2407 C2406 1.386 . S
C2407 C2411 1.393 . S
C2408 H2397 0.950 . S
C2408 C2406 1.391 . S
C2408 C2409 1.400 . S
C2409 C2403 1.491 . S
C2409 C2408 1.400 . S
C2409 C2410 1.398 . S
C2410 H2398 0.950 . S
C2410 C2409 1.398 . S
C2410 C2411 1.391 . S
C2411 H2399 0.950 . S
C2411 C2407 1.393 . S
C2411 C2410 1.391 . S
H2412 C2420 0.950 . S
H2413 C2425 0.950 . S
H2414 C2422 0.950 . S
H2415 C2424 0.950 . S
H2416 C2426 0.950 . S
H2417 C2428 0.950 . S
H2418 C2430 0.950 . S
H2419 C2431 0.950 . S
C2420 H2412 0.950 . S
C2420 C2421 1.386 . S
C2420 C2422 1.391 . S
C2421 C2420 1.386 . S
C2421 C2425 1.393 . S
C2422 H2414 0.950 . S
C2422 C2420 1.391 . S
C2422 C2423 1.400 . S
C2423 C2422 1.400 . S
C2423 C2424 1.398 . S
C2423 C2429 1.491 1_655 S
C2424 H2415 0.950 . S
C2424 C2423 1.398 . S
C2424 C2425 1.391 . S
C2425 H2413 0.950 . S
C2425 C2421 1.393 . S
C2425 C2424 1.391 . S
C2426 H2416 0.950 . S
C2426 C2427 1.386 . S
C2426 C2428 1.391 . S
C2427 C2426 1.386 . S
C2427 C2431 1.393 . S
C2428 H2417 0.950 . S
C2428 C2426 1.391 . S
C2428 C2429 1.400 . S
C2429 C2423 1.491 1_455 S
C2429 C2428 1.400 . S
C2429 C2430 1.398 . S
C2430 H2418 0.950 . S
C2430 C2429 1.398 . S
C2430 C2431 1.391 . S
C2431 H2419 0.950 . S
C2431 C2427 1.393 . S
C2431 C2430 1.391 . S
C1161 C842 1.547 . S
C1167 C14 1.518 . S
C1181 C734 1.532 . S
C1187 C50 1.539 . S
C1201 C770 1.551 . S
C1207 C86 1.517 . S
C1221 C806 1.524 . S
C1227 C122 1.540 . S
C1241 C158 1.550 . S
C1247 C626 1.519 . S
C1261 C662 1.521 . S
C1267 C194 1.544 . S
C1281 C230 1.524 . S
C1287 C698 1.541 . S
C1301 C266 1.517 . S
C1307 C590 1.551 . S
C1321 C1130 1.530 . S
C1327 C302 1.541 . S
C1341 C338 1.521 . S
C1347 C1022 1.544 . S
C1361 C374 1.549 . S
C1367 C1058 1.519 . S
C1381 C410 1.531 . S
C1387 C1094 1.533 . S
C1401 C446 1.527 . S
C1407 C914 1.543 . S
C1421 C482 1.517 . S
C1427 C950 1.551 . S
C1441 C518 1.534 . S
C1447 C986 1.536 . S
C1461 C554 1.546 . S
C1467 C878 1.519 . S
C1481 C2 1.428 . S
C1487 C434 1.426 . S
C1501 C1046 1.428 . S
C1507 C38 1.427 . S
C1521 C74 1.427 . S
C1527 C506 1.427 . S
C1541 C1118 1.429 . S
C1547 C110 1.426 . S
C1561 C290 1.426 . S
C1567 C146 1.429 . S
C1581 C182 1.428 . S
C1587 C902 1.427 . S
C1601 C218 1.428 . S
C1607 C362 1.427 . S
C1621 C254 1.427 . S
C1627 C974 1.428 . S
C1641 C758 1.429 . S
C1647 C326 1.426 . S
C1661 C830 1.429 . S
C1667 C398 1.427 . S
C1681 C470 1.428 . S
C1687 C614 1.427 . S
C1701 C686 1.428 . S
C1707 C542 1.427 . S
C1721 C1010 1.426 . S
C1727 C578 1.429 . S
C1741 C650 1.426 . S
C1747 C1082 1.428 . S
C1761 C866 1.426 . S
C1767 C722 1.428 . S
C1781 C938 1.428 . S
C1787 C794 1.427 . S
C1801 C147 1.205 . S
C1807 C3 1.203 . S
C1821 C183 1.189 . S
C1827 C39 1.203 . S
C1841 C75 1.199 . S
C1847 C219 1.187 . S
C1861 C111 1.203 . S
C1867 C255 1.206 . S
C1881 C435 1.200 . S
C1887 C291 1.187 . S
C1901 C471 1.203 . S
C1907 C327 1.189 . S
C1921 C507 1.198 . S
C1927 C363 1.207 . S
C1941 C399 1.192 . S
C1947 C543 1.189 . S
C1961 C579 1.191 . S
C1967 C723 1.188 . S
C1981 C615 1.198 . S
C1987 C759 1.187 . S
C2001 C651 1.204 . S
C2007 C795 1.204 . S
C2021 C687 1.197 . S
C2027 C831 1.207 . S
C2041 C1011 1.191 . S
C2047 C867 1.188 . S
C2061 C1047 1.187 . S
C2067 C903 1.198 . S
C2081 C1083 1.205 . S
C2087 C939 1.202 . S
C2101 C1119 1.189 . S
C2107 C975 1.191 . S
C2121 C1084 1.406 . S
C2127 C4 1.420 . S
C2141 C40 1.414 . S
C2147 C544 1.413 . S
C2161 C1012 1.426 . S
C2167 C76 1.400 . S
C2181 C112 1.400 . S
C2187 C472 1.427 . S
C2201 C940 1.407 . S
C2207 C148 1.420 . S
C2221 C184 1.411 . S
C2227 C400 1.416 . S
C2241 C220 1.407 . S
C2247 C868 1.419 . S
C2261 C328 1.415 . S
C2267 C256 1.412 . S
C2281 C292 1.400 . S
C2287 C796 1.426 . S
C2301 C724 1.406 . S
C2307 C364 1.420 . S
C2321 C436 1.425 . S
C2327 C652 1.401 . S
C2341 C508 1.426 . S
C2347 C580 1.400 . S
C2361 C1120 1.407 . S
C2367 C616 1.420 . S
C2381 C688 1.427 . S
C2387 C1048 1.400 . S
C2401 C760 1.427 . S
C2407 C976 1.400 . S
C2421 C904 1.419 . S
C2427 C832 1.408 . S
