# Generated by pormake.
# Topology sma, (6)-cn, num edge types: 1
# Building blocks:
#     Node 0, Type 0, BuildingBlock: BETFEN_clean_sbu_0, # of connection points: 6
#     Node 1, Type 0, BuildingBlock: BETFEN_clean_sbu_0, # of connection points: 6
#     Node 2, Type 0, BuildingBlock: BETFEN_clean_sbu_0, # of connection points: 6
#     Edge 3, Type (0, 0), BuildingBlock: UKIBUN_clean_linker_0, # of connection points: 2
#     Edge 4, Type (0, 0), BuildingBlock: UKIBUN_clean_linker_0, # of connection points: 2
#     Edge 5, Type (0, 0), BuildingBlock: UKIBUN_clean_linker_0, # of connection points: 2
#     Edge 6, Type (0, 0), BuildingBlock: UKIBUN_clean_linker_0, # of connection points: 2
#     Edge 7, Type (0, 0), BuildingBlock: UKIBUN_clean_linker_0, # of connection points: 2
#     Edge 8, Type (0, 0), BuildingBlock: UKIBUN_clean_linker_0, # of connection points: 2
#     Edge 9, Type (0, 0), BuildingBlock: UKIBUN_clean_linker_0, # of connection points: 2
#     Edge 10, Type (0, 0), BuildingBlock: UKIBUN_clean_linker_0, # of connection points: 2
#     Edge 11, Type (0, 0), BuildingBlock: UKIBUN_clean_linker_0, # of connection points: 2
# Relax obj value: 0.122
# Max RMSD: 0.238
# Mean RMSD: 0.204
data_MOF--net-sma--node1-BETFEN_clean_sbu_0--edge1-UKIBUN_clean_linker_0
_symmetry_space_group_name_H-M    P1
_symmetry_Int_Tables_number       1
_symmetry_cell_setting            triclinic
loop_
_symmetry_equiv_pos_as_xyz
'x, y, z'
_cell_length_a     48.271273
_cell_length_b     58.208181
_cell_length_c     23.554932
_cell_angle_alpha  89.761805
_cell_angle_beta   93.332692
_cell_angle_gamma 103.04986
loop_
_atom_site_label
_atom_site_type_symbol
_atom_site_fract_x
_atom_site_fract_y
_atom_site_fract_z
_atom_type_partial_charge
Pr0 Pr 0.07316 0.50842 0.08507 0.0
Pr1 Pr 0.09626 0.56286 0.08076 0.0
C2 C 1.05301 0.46276 0.10992 0.0
C3 C 1.0247 0.44723 0.11919 0.0
C4 C 1.01298 0.42869 0.08069 0.0
C5 C 0.98727 0.41284 0.09088 0.0
C6 C 0.97285 0.41534 0.13965 0.0
C7 C 0.98381 0.43438 0.17689 0.0
C8 C 1.00947 0.45024 0.16675 0.0
C9 C 0.07352 0.52772 -0.02248 0.0
C10 C 1.02661 0.54054 0.06664 0.0
C11 C 0.11593 0.60907 0.06338 0.0
C12 C 0.14317 0.62569 0.0801 0.0
C13 C 0.15194 0.63009 0.13774 0.0
C14 C 0.17778 0.64557 0.15323 0.0
C15 C 0.19547 0.65705 0.11158 0.0
C16 C 0.1871 0.65231 0.0539 0.0
C17 C 0.16119 0.63667 0.03832 0.0
C18 C 0.0953 0.543 0.18824 0.0
C19 C 0.14354 0.5303 0.07754 0.0
O20 O 0.064 0.47883 0.1488 0.0
O21 O 1.05748 0.47018 0.05803 0.0
O22 O 0.09319 0.53338 0.01573 0.0
O23 O 1.05324 0.51055 -0.00685 0.0
O24 O 1.04767 0.55812 0.05302 0.0
O25 O 1.03132 0.52121 0.09076 0.0
O26 O 0.11727 0.59299 0.02561 0.0
O27 O 0.09902 0.60095 0.10406 0.0
O28 O 0.07573 0.53788 0.1498 0.0
O29 O 0.11603 0.55978 0.17295 0.0
O30 O 0.12317 0.51137 0.08702 0.0
O31 O 0.13841 0.55141 0.07055 0.0
H32 H 1.02412 0.42604 0.04351 0.0
H33 H 0.97924 0.39813 0.06191 0.0
H34 H 0.97307 0.43643 0.21504 0.0
H35 H 1.01769 0.46444 0.19703 0.0
H36 H 0.13877 0.62174 0.1711 0.0
H37 H 0.18349 0.64916 0.19801 0.0
H38 H 0.20046 0.66083 0.02099 0.0
H39 H 0.15514 0.63327 -0.0064 0.0
Pr40 Pr 0.61921 0.04799 0.46395 0.0
Pr41 Pr 0.55425 1.02473 0.47126 0.0
C42 C 0.6721 0.07026 0.4388 0.0
C43 C 0.68687 0.09562 0.43565 0.0
C44 C 0.7041 0.10696 0.48221 0.0
C45 C 0.71786 0.13084 0.47969 0.0
C46 C 0.71489 0.14403 0.43041 0.0
C47 C 0.69734 0.13274 0.38414 0.0
C48 C 0.68355 0.10889 0.3867 0.0
C49 C 0.59906 0.04745 0.57139 0.0
C50 C 0.5749 0.08258 0.47672 0.0
C51 C 0.49985 1.00347 0.48705 0.0
C52 C 0.48266 0.97943 0.47293 0.0
C53 C 0.47401 0.97265 0.41626 0.0
C54 C 0.45821 0.94989 0.40322 0.0
C55 C 0.4506 0.93331 0.44642 0.0
C56 C 0.45988 0.93983 0.50295 0.0
C57 C 0.47565 0.96268 0.51608 0.0
C58 C 0.57546 1.02836 0.36295 0.0
C59 C 0.59844 0.98957 0.47983 0.0
O60 O 0.6519 0.06204 0.39959 0.0
O61 O 0.66591 0.06203 0.48945 0.0
O62 O 0.59225 0.03065 0.53611 0.0
O63 O 0.61837 0.06474 0.55321 0.0
O64 O 0.55623 0.0642 0.49501 0.0
O65 O 0.59813 0.08022 0.45255 0.0
O66 O 0.52024 1.00488 0.52688 0.0
O67 O 0.50727 1.01773 0.44459 0.0
O68 O 0.58101 0.04401 0.40086 0.0
O69 O 0.55759 1.00979 0.37971 0.0
O70 O 0.61888 1.00687 0.46154 0.0
O71 O 0.5734 0.99279 0.49204 0.0
H72 H 0.70703 0.09734 0.52073 0.0
H73 H 0.73087 0.13897 0.51643 0.0
H74 H 0.69485 0.14215 0.34511 0.0
H75 H 0.67044 0.10084 0.34999 0.0
H76 H 0.4794 0.9849 0.38175 0.0
H77 H 0.45193 0.94527 0.35909 0.0
H78 H 0.45433 0.92748 0.53722 0.0
H79 H 0.48226 0.9673 0.56008 0.0
Pr80 Pr 0.56877 0.5128 0.78766 0.0
Pr81 Pr 0.58618 0.56694 0.80314 0.0
C82 C 0.56232 0.46749 0.75424 0.0
C83 C 0.57607 0.44713 0.75191 0.0
C84 C 0.5677 0.428 0.78828 0.0
C85 C 0.57603 0.40682 0.78004 0.0
C86 C 0.59337 0.40412 0.73536 0.0
C87 C 0.60381 0.42421 0.70228 0.0
C88 C 0.59489 0.44525 0.70979 0.0
C89 C 0.5718 0.52861 0.89912 0.0
C90 C 0.63766 0.53984 0.80816 0.0
C91 C 0.59127 0.61306 0.82784 0.0
C92 C 0.58106 0.63374 0.80526 0.0
C93 C 0.58939 0.64365 0.7527 0.0
C94 C 0.58117 0.66404 0.73359 0.0
C95 C 0.5642 0.67504 0.76622 0.0
C96 C 0.55531 0.66473 0.81826 0.0
C97 C 0.56374 0.64438 0.8376 0.0
C98 C 0.58198 0.5507 0.69141 0.0
C99 C 0.51739 0.53918 0.80238 0.0
O100 O 0.5706 0.48541 0.72062 0.0
O101 O 0.55529 0.47362 0.80382 0.0
O102 O 0.58958 0.53681 0.86308 0.0
O103 O 0.55278 0.51047 0.87959 0.0
O104 O 0.62959 0.55801 0.82976 0.0
O105 O 0.61889 0.52201 0.78358 0.0
O106 O 0.57262 0.59618 0.85042 0.0
O107 O 0.60944 0.60518 0.79852 0.0
O108 O 0.56435 0.54294 0.72797 0.0
O109 O 0.6014 0.56851 0.7107 0.0
O110 O 0.52329 0.5207 0.77741 0.0
O111 O 0.53774 0.55719 0.82075 0.0
H112 H 0.55332 0.42891 0.82142 0.0
H113 H 0.5672 0.39231 0.80708 0.0
H114 H 0.61824 0.42374 0.66914 0.0
H115 H 0.60202 0.45974 0.68124 0.0
H116 H 0.60275 0.63596 0.72661 0.0
H117 H 0.58894 0.67155 0.69385 0.0
H118 H 0.5419 0.67239 0.84427 0.0
H119 H 0.55698 0.63712 0.87827 0.0
C120 C 0.17687 0.51123 0.02765 0.0
C121 C 0.17262 0.52825 0.06624 0.0
C122 C 0.20348 0.51341 0.0046 0.0
C123 C 0.30216 0.52856 0.8924 0.0
C124 C 0.48275 0.5566 0.85265 0.0
C125 C 0.48768 0.53971 0.81408 0.0
C126 C 0.45512 0.55724 0.86571 0.0
C127 C 0.35206 0.5581 0.93971 0.0
H128 H 0.1592 0.49727 0.01222 0.0
H129 H 0.20605 0.50079 -0.02723 0.0
H130 H 0.28304 0.51688 0.87403 0.0
H131 H 0.50029 0.56923 0.8736 0.0
H132 H 0.45199 0.57026 0.89601 0.0
H133 H 0.37129 0.56939 -0.0412 0.0
C134 C 0.19579 0.54664 0.08396 0.0
C135 C 0.22237 0.54867 0.06139 0.0
C136 C 0.32604 0.5571 -0.03586 0.0
C137 C 0.46417 0.52346 0.78879 0.0
C138 C 0.43637 0.52424 0.80175 0.0
C139 C 0.32815 0.52955 0.868 0.0
C140 C 0.22608 0.53248 0.02036 0.0
C141 C 0.25257 0.53617 -0.00752 0.0
C142 C 0.27472 0.53924 -0.0309 0.0
C143 C 0.30109 0.54198 0.94119 0.0
H144 H 0.19294 0.56014 0.11319 0.0
H145 H 0.23963 0.56344 0.07419 0.0
H146 H 0.32553 0.56768 0.00167 0.0
H147 H 0.46724 0.51022 0.7591 0.0
H148 H 0.41848 0.51157 0.78201 0.0
H149 H 0.32874 0.51859 0.83123 0.0
C150 C 0.43181 0.54112 0.84038 0.0
C151 C 0.40348 0.54168 0.8558 0.0
C152 C 0.38039 0.54313 0.8706 0.0
C153 C 0.35326 0.544 0.89215 0.0
C154 C 0.7193 0.18566 0.39521 0.0
C155 C 0.73125 0.16897 0.42551 0.0
C156 C 0.73592 0.208 0.38372 0.0
C157 C 0.80178 0.28734 0.30008 0.0
C158 C 0.95521 0.37837 0.19176 0.0
C159 C 0.94908 0.39631 0.15667 0.0
C160 C 0.93323 0.36124 0.21291 0.0
C161 C 0.86095 0.29844 0.32122 0.0
H162 H 0.69727 0.18125 0.37902 0.0
H163 H 0.72654 0.22017 0.3583 0.0
H164 H 0.77892 0.28302 0.29103 0.0
H165 H 0.9771 0.37795 0.20385 0.0
H166 H 0.93848 0.34783 0.24092 0.0
H167 H 0.88386 0.30247 0.32952 0.0
C168 C 0.75976 0.17583 0.44724 0.0
C169 C 0.77634 0.19823 0.43577 0.0
C170 C 0.84408 0.27993 0.35046 0.0
C171 C 0.92056 0.39656 0.14158 0.0
C172 C 0.89843 0.37929 0.1628 0.0
C173 C 0.81866 0.30585 0.27082 0.0
C174 C 0.76471 0.21413 0.40255 0.0
C175 C 0.78277 0.23566 0.3831 0.0
C176 C 0.79723 0.25381 0.36601 0.0
C177 C 0.81443 0.27418 0.33968 0.0
H178 H 0.76978 0.16352 0.47058 0.0
H179 H 0.79857 0.20271 0.45077 0.0
H180 H 0.85421 0.26985 0.38064 0.0
H181 H 0.91545 0.4103 0.11452 0.0
H182 H 0.8765 0.3799 0.15174 0.0
H183 H 0.80859 0.31565 0.23984 0.0
C184 C 0.90476 0.36179 0.19931 0.0
C185 C 0.88253 0.34484 0.22511 0.0
C186 C 0.86604 0.32979 0.24936 0.0
C187 C 0.84834 0.31133 0.28088 0.0
C188 C 0.60017 0.95959 0.55258 0.0
C189 C 0.60336 0.96626 0.49548 0.0
C190 C 0.5942 0.93586 0.56768 0.0
C191 C 0.55414 0.84896 0.63967 0.0
C192 C 0.55277 0.70202 0.68848 0.0
C193 C 0.55705 0.69766 0.74687 0.0
C194 C 0.54935 0.7241 0.66978 0.0
C195 C 0.56303 0.80914 0.58391 0.0
H196 H 0.60016 0.97273 0.58506 0.0
H197 H 0.59044 0.93119 0.61162 0.0
H198 H 0.55089 0.86431 0.66193 0.0
H199 H 0.55255 0.68851 0.65692 0.0
H200 H 0.54712 0.72722 0.62452 0.0
H201 H 0.56694 0.79391 0.56214 0.0
C202 C 0.60198 0.94873 0.45394 0.0
C203 C 0.59608 0.92481 0.46922 0.0
C204 C 0.56912 0.83113 0.55742 0.0
C205 C 0.5562 0.7157 0.78613 0.0
C206 C 0.55255 0.73777 0.76727 0.0
C207 C 0.54806 0.82693 0.66624 0.0
C208 C 0.59129 0.91831 0.52598 0.0
C209 C 0.58181 0.8939 0.54193 0.0
C210 C 0.57382 0.87421 0.5602 0.0
C211 C 0.56515 0.85121 0.58551 0.0
H212 H 0.60333 0.95339 0.40945 0.0
H213 H 0.59385 0.91141 0.43642 0.0
H214 H 0.57757 0.83254 0.51561 0.0
H215 H 0.55958 0.71318 0.83135 0.0
H216 H 0.55294 0.7516 0.79817 0.0
H217 H 0.54029 0.82559 0.70864 0.0
C218 C 0.54977 0.74221 0.70895 0.0
C219 C 0.54968 0.76567 0.68861 0.0
C220 C 0.54955 0.78463 0.66759 0.0
C221 C 0.5529 0.80698 0.63874 0.0
C222 C 0.67671 0.51825 0.79924 0.0
C223 C 0.66796 0.53871 0.81489 0.0
C224 C 0.70513 0.51679 0.80888 0.0
C225 C 0.8193 0.51541 0.87769 0.0
C226 C 0.9886 0.5619 0.03639 0.0
C227 C 0.99716 0.54067 0.04654 0.0
C228 C 0.96121 0.56156 0.01281 0.0
C229 C 0.85091 0.55711 0.92951 0.0
H230 H 0.66156 0.50317 0.78063 0.0
H231 H 0.71137 0.50071 0.79771 0.0
H232 H 0.80714 0.49915 0.85813 0.0
H233 H 1.00308 0.5787 0.04637 0.0
H234 H 0.95487 0.57807 0.00518 0.0
H235 H 0.86289 0.57329 -0.05023 0.0
C236 C 0.68837 0.55791 0.83876 0.0
C237 C 0.71673 0.55642 0.84824 0.0
C238 C 0.8232 0.55597 0.90711 0.0
C239 C 0.97791 0.51914 0.03283 0.0
C240 C 0.95077 0.51886 0.00866 0.0
C241 C 0.84707 0.51656 0.90013 0.0
C242 C 0.72509 0.53578 0.83402 0.0
C243 C 0.75388 0.53389 0.84787 0.0
C244 C 0.77834 0.53384 0.86101 0.0
C245 C 0.8073 0.53511 0.88136 0.0
H246 H 0.68242 0.57398 0.85091 0.0
H247 H 0.73202 0.57125 0.86763 0.0
H248 H 0.81409 0.57127 0.91046 0.0
H249 H 0.9841 0.5025 0.03904 0.0
H250 H 0.93647 0.5021 -0.00262 0.0
H251 H 0.85608 0.50117 0.89752 0.0
C252 C 0.94238 0.54003 -0.00158 0.0
C253 C 0.91453 0.53951 -0.02737 0.0
C254 C 0.89106 0.5385 -0.04903 0.0
C255 C 0.86285 0.5374 0.92631 0.0
C256 C 0.43712 0.88907 0.45789 0.0
C257 C 0.43194 0.90975 0.43236 0.0
C258 C 0.41947 0.86702 0.44332 0.0
C259 C 0.34384 0.78268 0.35204 0.0
C260 C 0.22504 0.69813 0.10575 0.0
C261 C 0.22107 0.67545 0.12922 0.0
C262 C 0.24528 0.71691 0.13088 0.0
C263 C 0.30933 0.79159 0.25854 0.0
H264 H 0.45508 0.88989 0.48818 0.0
H265 H 0.42401 0.85124 0.46265 0.0
H266 H 0.35731 0.77904 0.3878 0.0
H267 H 0.21121 0.70167 0.07051 0.0
H268 H 0.2469 0.73453 0.11431 0.0
H269 H 0.29613 0.79525 0.22236 0.0
C270 C 0.40852 0.90789 0.39285 0.0
C271 C 0.39098 0.88595 0.37847 0.0
C272 C 0.32605 0.81035 0.29065 0.0
C273 C 0.23932 0.67151 0.17516 0.0
C274 C 0.25962 0.69027 0.20003 0.0
C275 C 0.32708 0.76389 0.31992 0.0
C276 C 0.39644 0.86545 0.40332 0.0
C277 C 0.37885 0.84296 0.3854 0.0
C278 C 0.3626 0.82545 0.36652 0.0
C279 C 0.34362 0.80596 0.33704 0.0
H280 H 0.40361 0.92346 0.3732 0.0
H281 H 0.37323 0.88499 0.34752 0.0
H282 H 0.32569 0.82827 0.2786 0.0
H283 H 0.23695 0.65412 0.19352 0.0
H284 H 0.27252 0.68709 0.23716 0.0
H285 H 0.32766 0.74596 0.3315 0.0
C286 C 0.26187 0.71314 0.17932 0.0
C287 C 0.27906 0.73286 0.21105 0.0
C288 C 0.29362 0.74907 0.2384 0.0
C289 C 0.31011 0.76833 0.27261 0.0
C290 C 0.59315 0.36122 0.75877 0.0
C291 C 0.59784 0.38012 0.71986 0.0
C292 C 0.59239 0.33812 0.74113 0.0
C293 C 0.57574 0.24658 0.65623 0.0
C294 C 0.58531 0.12573 0.4561 0.0
C295 C 0.57162 0.10666 0.48867 0.0
C296 C 0.58519 0.14888 0.47153 0.0
C297 C 0.58852 0.24019 0.54373 0.0
H298 H 0.58941 0.36391 0.80276 0.0
H299 H 0.58739 0.32385 0.77122 0.0
H300 H 0.57072 0.24883 0.69982 0.0
H301 H 0.59659 0.12279 0.41933 0.0
H302 H 0.59631 0.16335 0.44649 0.0
H303 H 0.59366 0.23792 0.50024 0.0
C304 C 0.60411 0.37512 0.66393 0.0
C305 C 0.60399 0.35211 0.64689 0.0
C306 C 0.59251 0.26298 0.56637 0.0
C307 C 0.55721 0.11113 0.53614 0.0
C308 C 0.55736 0.13431 0.55184 0.0
C309 C 0.57175 0.2238 0.6336 0.0
C310 C 0.59718 0.33345 0.6848 0.0
C311 C 0.59348 0.3095 0.66472 0.0
C312 C 0.59059 0.28972 0.64628 0.0
C313 C 0.5863 0.26624 0.62282 0.0
H314 H 0.60773 0.38855 0.63174 0.0
H315 H 0.60805 0.34879 0.60325 0.0
H316 H 0.60055 0.27802 0.53996 0.0
H317 H 0.54691 0.09682 0.56257 0.0
H318 H 0.54697 0.13747 0.58968 0.0
H319 H 0.56383 0.20876 0.6601 0.0
C320 C 0.57163 0.15325 0.51999 0.0
C321 C 0.57369 0.17713 0.53881 0.0
C322 C 0.57522 0.19702 0.55512 0.0
C323 C 0.57823 0.22053 0.57738 0.0
C324 C 0.10375 0.5465 0.90075 0.0
C325 C 0.07696 0.53463 0.91823 0.0
C326 C 0.10863 0.54838 0.84298 0.0
C327 C 0.11743 0.53195 0.60572 0.0
C328 C 0.06897 0.51658 0.26043 0.0
C329 C 0.09382 0.53251 0.24498 0.0
C330 C 0.06704 0.50785 0.31571 0.0
C331 C 0.06906 0.5001 0.55895 0.0
H332 H 0.12138 0.55283 0.93152 0.0
H333 H 0.12989 0.55599 0.82992 0.0
H334 H 0.13606 0.54447 0.62331 0.0
H335 H 1.05077 0.5114 0.23036 0.0
H336 H 1.0474 0.49628 0.32776 0.0
H337 H 1.04997 0.48828 0.54085 0.0
C338 C 1.05439 0.52689 0.87766 0.0
C339 C 1.05928 0.52887 0.82004 0.0
C340 C 0.07051 0.50678 0.61603 0.0
C341 C 0.11703 0.53894 0.28481 0.0
C342 C 0.11506 0.53025 0.33994 0.0
C343 C 0.11602 0.52523 0.54872 0.0
C344 C 0.08668 0.53859 0.8029 0.0
C345 C 0.09285 0.53518 0.74549 0.0
C346 C 0.09485 0.53093 0.69639 0.0
C347 C 0.09442 0.52309 0.63897 0.0
H348 H 1.03346 0.51806 0.89039 0.0
H349 H 1.04213 0.52142 0.78908 0.0
H350 H 1.05268 0.49975 0.64178 0.0
H351 H 0.13645 0.5511 0.27378 0.0
H352 H 0.13282 0.53602 0.37081 0.0
H353 H 0.13343 0.53292 0.52254 0.0
C354 C 0.08996 0.51501 0.35564 0.0
C355 C 0.08698 0.5092 0.41428 0.0
C356 C 0.08835 0.50653 0.46477 0.0
C357 C 0.09164 0.50964 0.52509 0.0
C358 C 0.57005 1.01683 0.26057 0.0
C359 C 0.58209 0.03328 0.30348 0.0
C360 C 0.57306 1.02293 0.2036 0.0
C361 C 0.55268 0.03913 -0.00056 0.0
C362 C 0.5951 0.06777 0.66144 0.0
C363 C 0.58676 0.04765 0.62658 0.0
C364 C 0.58522 0.06768 0.7157 0.0
C365 C 0.58748 0.06895 0.92611 0.0
H366 H 0.55735 0.99965 0.2709 0.0
H367 H 0.56264 1.0104 0.17081 0.0
H368 H 0.53929 1.02731 0.02756 0.0
H369 H 0.60989 0.08336 0.64746 0.0
H370 H 0.59283 0.08301 0.74305 0.0
H371 H 0.60138 0.08022 0.8978 0.0
C372 C 0.59854 0.05544 0.28871 0.0
C373 C 0.6016 0.06149 0.23167 0.0
C374 C 0.59431 0.0704 -0.01545 0.0
C375 C 0.56728 1.02779 0.64556 0.0
C376 C 0.55727 1.02776 0.70001 0.0
C377 C 0.54589 0.03764 0.94104 0.0
C378 C 0.58822 0.04544 0.18918 0.0
C379 C 0.58759 0.05244 0.13095 0.0
C380 C 0.58467 0.05527 0.08068 0.0
C381 C 0.5771 0.05524 0.0211 0.0
H382 H 0.60807 0.06844 0.32111 0.0
H383 H 0.61337 0.07896 0.22087 0.0
H384 H 0.61326 0.08287 0.00094 0.0
H385 H 0.56055 1.0121 0.61918 0.0
H386 H 0.54318 1.01202 0.71524 0.0
H387 H 0.52751 1.02459 0.92451 0.0
C388 C 0.5668 0.04755 0.73542 0.0
C389 C 0.56109 0.04652 0.79425 0.0
C390 C 0.55908 0.04888 0.84424 0.0
C391 C 0.56348 0.05237 0.90436 0.0
C392 C 0.55387 0.5281 0.60914 0.0
C393 C 0.57929 0.54267 0.63209 0.0
C394 C 0.55011 0.5238 0.55055 0.0
C395 C 0.54473 0.53383 0.30631 0.0
C396 C 0.59437 0.55714 -0.02385 0.0
C397 C 0.57141 0.53926 -0.04486 0.0
C398 C 0.59455 0.56605 0.03116 0.0
C399 C 0.58961 0.57027 0.27419 0.0
H400 H 0.53641 0.52121 0.63584 0.0
H401 H 0.52976 0.51385 0.53267 0.0
H402 H 0.52737 0.51968 0.31833 0.0
H403 H 0.61253 0.56362 -0.0491 0.0
H404 H 0.61298 0.57897 0.04806 0.0
H405 H 0.60736 0.584 0.26189 0.0
C406 C 0.60175 0.55107 0.59681 0.0
C407 C 0.59803 0.54668 0.53856 0.0
C408 C 0.58844 0.56289 0.33059 0.0
C409 C 0.54801 0.53136 -0.01162 0.0
C410 C 0.54821 0.54027 0.04312 0.0
C411 C 0.54588 0.54123 0.24995 0.0
C412 C 0.57184 0.5339 0.51516 0.0
C413 C 0.56627 0.53456 0.45501 0.0
C414 C 0.56528 0.53714 0.40446 0.0
C415 C 0.56622 0.54446 0.34646 0.0
H416 H 0.62176 0.56192 0.61383 0.0
H417 H 0.61502 0.55445 0.51146 0.0
H418 H 0.60505 0.57134 0.36162 0.0
H419 H 0.52987 0.51788 -0.02736 0.0
H420 H 0.53051 0.53326 0.06918 0.0
H421 H 0.52964 0.5324 0.21868 0.0
C422 C 0.57175 0.55716 0.06503 0.0
C423 C 0.5739 0.56239 0.1245 0.0
C424 C 0.5717 0.56396 0.17468 0.0
C425 C 0.56844 0.5593 0.23379 0.0
loop_
_geom_bond_atom_site_label_1
_geom_bond_atom_site_label_2
_geom_bond_distance
_geom_bond_site_symmetry_2
_ccdc_geom_bond_type
Pr0 C2 2.880 1_455 S
Pr0 O20 2.562 1_455 S
Pr0 O21 2.490 1_455 S
Pr0 O22 2.695 . S
Pr0 O23 2.512 . S
Pr0 O25 2.437 1_455 S
Pr0 O28 2.436 . S
Pr0 O30 2.438 . S
Pr1 C11 2.880 . S
Pr1 O22 2.436 . S
Pr1 O24 2.438 1_455 S
Pr1 O26 2.562 . S
Pr1 O27 2.490 . S
Pr1 O28 2.695 . S
Pr1 O29 2.512 . S
Pr1 O31 2.437 . S
C2 Pr0 2.880 1_655 S
C2 C3 1.491 . S
C2 O20 1.254 . S
C2 O21 1.225 . S
C3 C2 1.491 . S
C3 C4 1.392 . S
C3 C8 1.356 . S
C4 C3 1.392 . S
C4 C5 1.368 . S
C4 H32 0.929 . S
C5 C4 1.368 . S
C5 C6 1.386 . S
C5 H33 0.929 . S
C6 C5 1.386 . S
C6 C7 1.373 . S
C7 C6 1.373 . S
C7 C8 1.409 . S
C7 H34 0.931 . S
C8 C3 1.356 . S
C8 C7 1.409 . S
C8 H35 0.930 . S
C9 O22 1.270 . S
C9 O23 1.248 . S
C10 O24 1.267 . S
C10 O25 1.278 . S
C11 Pr1 2.880 . S
C11 C12 1.491 . S
C11 O26 1.254 . S
C11 O27 1.225 . S
C12 C11 1.491 . S
C12 C13 1.392 . S
C12 C17 1.356 . S
C13 C12 1.392 . S
C13 C14 1.368 . S
C13 H36 0.929 . S
C14 C13 1.368 . S
C14 C15 1.386 . S
C14 H37 0.929 . S
C15 C14 1.386 . S
C15 C16 1.373 . S
C16 C15 1.373 . S
C16 C17 1.409 . S
C16 H38 0.931 . S
C17 C12 1.356 . S
C17 C16 1.409 . S
C17 H39 0.930 . S
C18 O28 1.270 . S
C18 O29 1.248 . S
C19 O30 1.267 . S
C19 O31 1.278 . S
O20 Pr0 2.562 1_655 S
O20 C2 1.254 . S
O21 Pr0 2.490 1_655 S
O21 C2 1.225 . S
O22 Pr0 2.695 . S
O22 Pr1 2.436 . S
O22 C9 1.270 . S
O23 Pr0 2.512 . S
O23 C9 1.248 . S
O24 Pr1 2.438 1_655 S
O24 C10 1.267 . S
O25 Pr0 2.437 1_655 S
O25 C10 1.278 . S
O26 Pr1 2.562 . S
O26 C11 1.254 . S
O27 Pr1 2.490 . S
O27 C11 1.225 . S
O28 Pr0 2.436 . S
O28 Pr1 2.695 . S
O28 C18 1.270 . S
O29 Pr1 2.512 . S
O29 C18 1.248 . S
O30 Pr0 2.438 . S
O30 C19 1.267 . S
O31 Pr1 2.437 . S
O31 C19 1.278 . S
H32 C4 0.929 . S
H33 C5 0.929 . S
H34 C7 0.931 . S
H35 C8 0.930 . S
H36 C13 0.929 . S
H37 C14 0.929 . S
H38 C16 0.931 . S
H39 C17 0.930 . S
Pr40 C42 2.880 . S
Pr40 O60 2.562 . S
Pr40 O61 2.490 . S
Pr40 O62 2.695 . S
Pr40 O63 2.512 . S
Pr40 O65 2.437 . S
Pr40 O68 2.436 . S
Pr40 O70 2.438 1_545 S
Pr41 C51 2.880 . S
Pr41 O62 2.436 1_565 S
Pr41 O64 2.438 1_565 S
Pr41 O66 2.562 . S
Pr41 O67 2.490 . S
Pr41 O68 2.695 1_565 S
Pr41 O69 2.512 . S
Pr41 O71 2.437 . S
C42 Pr40 2.880 . S
C42 C43 1.491 . S
C42 O60 1.254 . S
C42 O61 1.225 . S
C43 C42 1.491 . S
C43 C44 1.392 . S
C43 C48 1.356 . S
C44 C43 1.392 . S
C44 C45 1.368 . S
C44 H72 0.929 . S
C45 C44 1.368 . S
C45 C46 1.386 . S
C45 H73 0.929 . S
C46 C45 1.386 . S
C46 C47 1.373 . S
C47 C46 1.373 . S
C47 C48 1.409 . S
C47 H74 0.931 . S
C48 C43 1.356 . S
C48 C47 1.409 . S
C48 H75 0.930 . S
C49 O62 1.270 . S
C49 O63 1.248 . S
C50 O64 1.267 . S
C50 O65 1.278 . S
C51 Pr41 2.880 . S
C51 C52 1.491 . S
C51 O66 1.254 . S
C51 O67 1.225 . S
C52 C51 1.491 . S
C52 C53 1.392 . S
C52 C57 1.356 . S
C53 C52 1.392 . S
C53 C54 1.368 . S
C53 H76 0.929 . S
C54 C53 1.368 . S
C54 C55 1.386 . S
C54 H77 0.929 . S
C55 C54 1.386 . S
C55 C56 1.373 . S
C56 C55 1.373 . S
C56 C57 1.409 . S
C56 H78 0.931 . S
C57 C52 1.356 . S
C57 C56 1.409 . S
C57 H79 0.930 . S
C58 O68 1.270 . S
C58 O69 1.248 1_545 S
C59 O70 1.267 . S
C59 O71 1.278 . S
O60 Pr40 2.562 . S
O60 C42 1.254 . S
O61 Pr40 2.490 . S
O61 C42 1.225 . S
O62 Pr40 2.695 . S
O62 Pr41 2.436 1_545 S
O62 C49 1.270 . S
O63 Pr40 2.512 . S
O63 C49 1.248 . S
O64 Pr41 2.438 1_545 S
O64 C50 1.267 . S
O65 Pr40 2.437 . S
O65 C50 1.278 . S
O66 Pr41 2.562 . S
O66 C51 1.254 . S
O67 Pr41 2.490 . S
O67 C51 1.225 . S
O68 Pr40 2.436 . S
O68 Pr41 2.695 1_545 S
O68 C58 1.270 . S
O69 Pr41 2.512 . S
O69 C58 1.248 1_565 S
O70 Pr40 2.438 1_565 S
O70 C59 1.267 . S
O71 Pr41 2.437 . S
O71 C59 1.278 . S
H72 C44 0.929 . S
H73 C45 0.929 . S
H74 C47 0.931 . S
H75 C48 0.930 . S
H76 C53 0.929 . S
H77 C54 0.929 . S
H78 C56 0.931 . S
H79 C57 0.930 . S
Pr80 C82 2.880 . S
Pr80 O100 2.562 . S
Pr80 O101 2.490 . S
Pr80 O102 2.695 . S
Pr80 O103 2.512 . S
Pr80 O105 2.437 . S
Pr80 O108 2.436 . S
Pr80 O110 2.438 . S
Pr81 C91 2.880 . S
Pr81 O102 2.436 . S
Pr81 O104 2.438 . S
Pr81 O106 2.562 . S
Pr81 O107 2.490 . S
Pr81 O108 2.695 . S
Pr81 O109 2.512 . S
Pr81 O111 2.437 . S
C82 Pr80 2.880 . S
C82 C83 1.491 . S
C82 O100 1.254 . S
C82 O101 1.225 . S
C83 C82 1.491 . S
C83 C84 1.392 . S
C83 C88 1.356 . S
C84 C83 1.392 . S
C84 C85 1.368 . S
C84 H112 0.929 . S
C85 C84 1.368 . S
C85 C86 1.386 . S
C85 H113 0.929 . S
C86 C85 1.386 . S
C86 C87 1.373 . S
C87 C86 1.373 . S
C87 C88 1.409 . S
C87 H114 0.931 . S
C88 C83 1.356 . S
C88 C87 1.409 . S
C88 H115 0.930 . S
C89 O102 1.270 . S
C89 O103 1.248 . S
C90 O104 1.267 . S
C90 O105 1.278 . S
C91 Pr81 2.880 . S
C91 C92 1.491 . S
C91 O106 1.254 . S
C91 O107 1.225 . S
C92 C91 1.491 . S
C92 C93 1.392 . S
C92 C97 1.356 . S
C93 C92 1.392 . S
C93 C94 1.368 . S
C93 H116 0.929 . S
C94 C93 1.368 . S
C94 C95 1.386 . S
C94 H117 0.929 . S
C95 C94 1.386 . S
C95 C96 1.373 . S
C96 C95 1.373 . S
C96 C97 1.409 . S
C96 H118 0.931 . S
C97 C92 1.356 . S
C97 C96 1.409 . S
C97 H119 0.930 . S
C98 O108 1.270 . S
C98 O109 1.248 . S
C99 O110 1.267 . S
C99 O111 1.278 . S
O100 Pr80 2.562 . S
O100 C82 1.254 . S
O101 Pr80 2.490 . S
O101 C82 1.225 . S
O102 Pr80 2.695 . S
O102 Pr81 2.436 . S
O102 C89 1.270 . S
O103 Pr80 2.512 . S
O103 C89 1.248 . S
O104 Pr81 2.438 . S
O104 C90 1.267 . S
O105 Pr80 2.437 . S
O105 C90 1.278 . S
O106 Pr81 2.562 . S
O106 C91 1.254 . S
O107 Pr81 2.490 . S
O107 C91 1.225 . S
O108 Pr80 2.436 . S
O108 Pr81 2.695 . S
O108 C98 1.270 . S
O109 Pr81 2.512 . S
O109 C98 1.248 . S
O110 Pr80 2.438 . S
O110 C99 1.267 . S
O111 Pr81 2.437 . S
O111 C99 1.278 . S
H112 C84 0.929 . S
H113 C85 0.929 . S
H114 C87 0.931 . S
H115 C88 0.930 . S
H116 C93 0.929 . S
H117 C94 0.929 . S
H118 C96 0.931 . S
H119 C97 0.930 . S
C120 C121 1.420 . S
C120 C122 1.385 . S
C120 H128 0.928 . S
C121 C120 1.420 . S
C121 C134 1.420 . S
C122 C120 1.385 . S
C122 H129 0.928 . S
C122 C140 1.407 . S
C123 H130 0.928 . S
C123 C139 1.374 . S
C123 C143 1.388 . S
C124 C125 1.420 . S
C124 C126 1.385 . S
C124 H131 0.928 . S
C125 C124 1.420 . S
C125 C137 1.420 . S
C126 C124 1.385 . S
C126 H132 0.929 . S
C126 C150 1.407 . S
C127 H133 0.928 1_556 S
C127 C136 1.374 1_556 S
C127 C153 1.388 . S
H128 C120 0.928 . S
H129 C122 0.928 . S
H130 C123 0.928 . S
H131 C124 0.928 . S
H132 C126 0.929 . S
H133 C127 0.928 1_554 S
C134 C121 1.420 . S
C134 C135 1.385 . S
C134 H144 0.928 . S
C135 C134 1.385 . S
C135 C140 1.407 . S
C135 H145 0.929 . S
C136 C127 1.374 1_554 S
C136 C143 1.388 1_554 S
C136 H146 0.928 . S
C137 C125 1.420 . S
C137 C138 1.385 . S
C137 H147 0.928 . S
C138 C137 1.385 . S
C138 H148 0.929 . S
C138 C150 1.407 . S
C139 C123 1.374 . S
C139 H149 0.928 . S
C139 C153 1.388 . S
C140 C122 1.407 . S
C140 C135 1.407 . S
C140 C141 1.428 . S
C141 C140 1.428 . S
C141 C142 1.230 . S
C142 C141 1.230 . S
C142 C143 1.405 1_554 S
C143 C123 1.388 . S
C143 C136 1.388 1_556 S
C143 C142 1.405 1_556 S
H144 C134 0.928 . S
H145 C135 0.929 . S
H146 C136 0.928 . S
H147 C137 0.928 . S
H148 C138 0.929 . S
H149 C139 0.928 . S
C150 C126 1.407 . S
C150 C138 1.407 . S
C150 C151 1.428 . S
C151 C150 1.428 . S
C151 C152 1.230 . S
C152 C151 1.230 . S
C152 C153 1.405 . S
C153 C127 1.388 . S
C153 C139 1.388 . S
C153 C152 1.405 . S
C154 C155 1.420 . S
C154 C156 1.385 . S
C154 H162 0.928 . S
C155 C154 1.420 . S
C155 C168 1.420 . S
C156 C154 1.385 . S
C156 H163 0.929 . S
C156 C174 1.407 . S
C157 H164 0.928 . S
C157 C173 1.374 . S
C157 C177 1.388 . S
C158 C159 1.420 . S
C158 C160 1.385 . S
C158 H165 0.928 . S
C159 C158 1.420 . S
C159 C171 1.420 . S
C160 C158 1.385 . S
C160 H166 0.929 . S
C160 C184 1.407 . S
C161 H167 0.928 . S
C161 C170 1.374 . S
C161 C187 1.388 . S
H162 C154 0.928 . S
H163 C156 0.929 . S
H164 C157 0.928 . S
H165 C158 0.928 . S
H166 C160 0.929 . S
H167 C161 0.928 . S
C168 C155 1.420 . S
C168 C169 1.385 . S
C168 H178 0.928 . S
C169 C168 1.385 . S
C169 C174 1.407 . S
C169 H179 0.929 . S
C170 C161 1.374 . S
C170 C177 1.388 . S
C170 H180 0.928 . S
C171 C159 1.420 . S
C171 C172 1.385 . S
C171 H181 0.928 . S
C172 C171 1.385 . S
C172 H182 0.929 . S
C172 C184 1.407 . S
C173 C157 1.374 . S
C173 H183 0.928 . S
C173 C187 1.388 . S
C174 C156 1.407 . S
C174 C169 1.407 . S
C174 C175 1.428 . S
C175 C174 1.428 . S
C175 C176 1.230 . S
C176 C175 1.230 . S
C176 C177 1.405 . S
C177 C157 1.388 . S
C177 C170 1.388 . S
C177 C176 1.405 . S
H178 C168 0.928 . S
H179 C169 0.929 . S
H180 C170 0.928 . S
H181 C171 0.928 . S
H182 C172 0.929 . S
H183 C173 0.928 . S
C184 C160 1.407 . S
C184 C172 1.407 . S
C184 C185 1.428 . S
C185 C184 1.428 . S
C185 C186 1.230 . S
C186 C185 1.230 . S
C186 C187 1.405 . S
C187 C161 1.388 . S
C187 C173 1.388 . S
C187 C186 1.405 . S
C188 C189 1.420 . S
C188 C190 1.385 . S
C188 H196 0.928 . S
C189 C188 1.420 . S
C189 C202 1.420 . S
C190 C188 1.385 . S
C190 H197 0.929 . S
C190 C208 1.407 . S
C191 H198 0.928 . S
C191 C207 1.374 . S
C191 C211 1.388 . S
C192 C193 1.420 . S
C192 C194 1.385 . S
C192 H199 0.928 . S
C193 C192 1.420 . S
C193 C205 1.420 . S
C194 C192 1.385 . S
C194 H200 0.929 . S
C194 C218 1.407 . S
C195 H201 0.928 . S
C195 C204 1.374 . S
C195 C221 1.388 . S
H196 C188 0.928 . S
H197 C190 0.929 . S
H198 C191 0.928 . S
H199 C192 0.928 . S
H200 C194 0.929 . S
H201 C195 0.928 . S
C202 C189 1.420 . S
C202 C203 1.385 . S
C202 H212 0.928 . S
C203 C202 1.385 . S
C203 C208 1.407 . S
C203 H213 0.929 . S
C204 C195 1.374 . S
C204 C211 1.388 . S
C204 H214 0.928 . S
C205 C193 1.420 . S
C205 C206 1.385 . S
C205 H215 0.928 . S
C206 C205 1.385 . S
C206 H216 0.929 . S
C206 C218 1.407 . S
C207 C191 1.374 . S
C207 H217 0.928 . S
C207 C221 1.388 . S
C208 C190 1.407 . S
C208 C203 1.407 . S
C208 C209 1.428 . S
C209 C208 1.428 . S
C209 C210 1.230 . S
C210 C209 1.230 . S
C210 C211 1.405 . S
C211 C191 1.388 . S
C211 C204 1.388 . S
C211 C210 1.405 . S
H212 C202 0.928 . S
H213 C203 0.929 . S
H214 C204 0.928 . S
H215 C205 0.928 . S
H216 C206 0.929 . S
H217 C207 0.928 . S
C218 C194 1.407 . S
C218 C206 1.407 . S
C218 C219 1.428 . S
C219 C218 1.428 . S
C219 C220 1.230 . S
C220 C219 1.230 . S
C220 C221 1.405 . S
C221 C195 1.388 . S
C221 C207 1.388 . S
C221 C220 1.405 . S
C222 C223 1.420 . S
C222 C224 1.385 . S
C222 H230 0.928 . S
C223 C222 1.420 . S
C223 C236 1.420 . S
C224 C222 1.385 . S
C224 H231 0.929 . S
C224 C242 1.407 . S
C225 H232 0.928 . S
C225 C241 1.374 . S
C225 C245 1.388 . S
C226 C227 1.420 . S
C226 C228 1.385 . S
C226 H233 0.928 . S
C227 C226 1.420 . S
C227 C239 1.420 . S
C228 C226 1.385 . S
C228 H234 0.929 . S
C228 C252 1.407 . S
C229 H235 0.928 . S
C229 C238 1.374 . S
C229 C255 1.388 . S
H230 C222 0.928 . S
H231 C224 0.929 . S
H232 C225 0.928 . S
H233 C226 0.928 . S
H234 C228 0.929 . S
H235 C229 0.928 . S
C236 C223 1.420 . S
C236 C237 1.385 . S
C236 H246 0.928 . S
C237 C236 1.385 . S
C237 C242 1.407 . S
C237 H247 0.929 . S
C238 C229 1.374 . S
C238 C245 1.388 . S
C238 H248 0.928 . S
C239 C227 1.420 . S
C239 C240 1.385 . S
C239 H249 0.928 . S
C240 C239 1.385 . S
C240 H250 0.929 . S
C240 C252 1.407 . S
C241 C225 1.374 . S
C241 H251 0.928 . S
C241 C255 1.388 . S
C242 C224 1.407 . S
C242 C237 1.407 . S
C242 C243 1.428 . S
C243 C242 1.428 . S
C243 C244 1.230 . S
C244 C243 1.230 . S
C244 C245 1.405 . S
C245 C225 1.388 . S
C245 C238 1.388 . S
C245 C244 1.405 . S
H246 C236 0.928 . S
H247 C237 0.929 . S
H248 C238 0.928 . S
H249 C239 0.928 . S
H250 C240 0.929 . S
H251 C241 0.928 . S
C252 C228 1.407 . S
C252 C240 1.407 . S
C252 C253 1.428 . S
C253 C252 1.428 . S
C253 C254 1.230 1_554 S
C254 C253 1.230 1_556 S
C254 C255 1.405 . S
C255 C229 1.388 . S
C255 C241 1.388 . S
C255 C254 1.405 . S
C256 C257 1.420 . S
C256 C258 1.385 . S
C256 H264 0.928 . S
C257 C256 1.420 . S
C257 C270 1.420 . S
C258 C256 1.385 . S
C258 H265 0.929 . S
C258 C276 1.407 . S
C259 H266 0.928 . S
C259 C275 1.374 . S
C259 C279 1.388 . S
C260 C261 1.420 . S
C260 C262 1.385 . S
C260 H267 0.928 . S
C261 C260 1.420 . S
C261 C273 1.420 . S
C262 C260 1.385 . S
C262 H268 0.929 . S
C262 C286 1.407 . S
C263 H269 0.928 . S
C263 C272 1.374 . S
C263 C289 1.388 . S
H264 C256 0.928 . S
H265 C258 0.929 . S
H266 C259 0.928 . S
H267 C260 0.928 . S
H268 C262 0.929 . S
H269 C263 0.928 . S
C270 C257 1.420 . S
C270 C271 1.385 . S
C270 H280 0.928 . S
C271 C270 1.385 . S
C271 C276 1.407 . S
C271 H281 0.929 . S
C272 C263 1.374 . S
C272 C279 1.388 . S
C272 H282 0.928 . S
C273 C261 1.420 . S
C273 C274 1.385 . S
C273 H283 0.928 . S
C274 C273 1.385 . S
C274 H284 0.929 . S
C274 C286 1.407 . S
C275 C259 1.374 . S
C275 H285 0.928 . S
C275 C289 1.388 . S
C276 C258 1.407 . S
C276 C271 1.407 . S
C276 C277 1.428 . S
C277 C276 1.428 . S
C277 C278 1.230 . S
C278 C277 1.230 . S
C278 C279 1.405 . S
C279 C259 1.388 . S
C279 C272 1.388 . S
C279 C278 1.405 . S
H280 C270 0.928 . S
H281 C271 0.929 . S
H282 C272 0.928 . S
H283 C273 0.928 . S
H284 C274 0.929 . S
H285 C275 0.928 . S
C286 C262 1.407 . S
C286 C274 1.407 . S
C286 C287 1.428 . S
C287 C286 1.428 . S
C287 C288 1.230 . S
C288 C287 1.230 . S
C288 C289 1.405 . S
C289 C263 1.388 . S
C289 C275 1.388 . S
C289 C288 1.405 . S
C290 C291 1.420 . S
C290 C292 1.385 . S
C290 H298 0.928 . S
C291 C290 1.420 . S
C291 C304 1.420 . S
C292 C290 1.385 . S
C292 H299 0.929 . S
C292 C310 1.407 . S
C293 H300 0.928 . S
C293 C309 1.374 . S
C293 C313 1.388 . S
C294 C295 1.420 . S
C294 C296 1.385 . S
C294 H301 0.928 . S
C295 C294 1.420 . S
C295 C307 1.420 . S
C296 C294 1.385 . S
C296 H302 0.929 . S
C296 C320 1.407 . S
C297 H303 0.928 . S
C297 C306 1.374 . S
C297 C323 1.388 . S
H298 C290 0.928 . S
H299 C292 0.929 . S
H300 C293 0.928 . S
H301 C294 0.928 . S
H302 C296 0.929 . S
H303 C297 0.928 . S
C304 C291 1.420 . S
C304 C305 1.385 . S
C304 H314 0.928 . S
C305 C304 1.385 . S
C305 C310 1.407 . S
C305 H315 0.929 . S
C306 C297 1.374 . S
C306 C313 1.388 . S
C306 H316 0.928 . S
C307 C295 1.420 . S
C307 C308 1.385 . S
C307 H317 0.928 . S
C308 C307 1.385 . S
C308 H318 0.929 . S
C308 C320 1.407 . S
C309 C293 1.374 . S
C309 H319 0.928 . S
C309 C323 1.388 . S
C310 C292 1.407 . S
C310 C305 1.407 . S
C310 C311 1.428 . S
C311 C310 1.428 . S
C311 C312 1.230 . S
C312 C311 1.230 . S
C312 C313 1.405 . S
C313 C293 1.388 . S
C313 C306 1.388 . S
C313 C312 1.405 . S
H314 C304 0.928 . S
H315 C305 0.929 . S
H316 C306 0.928 . S
H317 C307 0.928 . S
H318 C308 0.929 . S
H319 C309 0.928 . S
C320 C296 1.407 . S
C320 C308 1.407 . S
C320 C321 1.428 . S
C321 C320 1.428 . S
C321 C322 1.230 . S
C322 C321 1.230 . S
C322 C323 1.405 . S
C323 C297 1.388 . S
C323 C309 1.388 . S
C323 C322 1.405 . S
C324 C325 1.420 . S
C324 C326 1.385 1_554 S
C324 H332 0.928 . S
C325 C324 1.420 . S
C325 C338 1.418 1_454 S
C326 C324 1.385 1_556 S
C326 H333 0.929 . S
C326 C344 1.407 . S
C327 H334 0.928 . S
C327 C343 1.374 . S
C327 C347 1.388 . S
C328 C329 1.423 1_655 S
C328 C330 1.385 1_655 S
C328 H335 0.926 . S
C329 C328 1.423 1_455 S
C329 C341 1.420 . S
C330 C328 1.385 1_455 S
C330 H336 0.929 1_455 S
C330 C354 1.407 . S
C331 H337 0.928 1_455 S
C331 C340 1.374 . S
C331 C357 1.388 . S
H332 C324 0.928 . S
H333 C326 0.929 . S
H334 C327 0.928 . S
H335 C328 0.926 . S
H336 C330 0.929 1_655 S
H337 C331 0.928 1_655 S
C338 C325 1.418 1_656 S
C338 C339 1.390 1_655 S
C338 H348 0.925 1_556 S
C339 C338 1.390 1_455 S
C339 C344 1.407 . S
C339 H349 0.929 1_455 S
C340 C331 1.374 . S
C340 C347 1.388 . S
C340 H350 0.928 1_455 S
C341 C329 1.420 . S
C341 C342 1.385 . S
C341 H351 0.928 . S
C342 C341 1.385 . S
C342 H352 0.929 . S
C342 C354 1.407 . S
C343 C327 1.374 . S
C343 H353 0.928 . S
C343 C357 1.388 . S
C344 C326 1.407 . S
C344 C339 1.407 . S
C344 C345 1.428 . S
C345 C344 1.428 . S
C345 C346 1.230 . S
C346 C345 1.230 . S
C346 C347 1.405 . S
C347 C327 1.388 . S
C347 C340 1.388 . S
C347 C346 1.405 . S
H348 C338 0.925 1_554 S
H349 C339 0.929 1_655 S
H350 C340 0.928 1_655 S
H351 C341 0.928 . S
H352 C342 0.929 . S
H353 C343 0.928 . S
C354 C330 1.407 . S
C354 C342 1.407 . S
C354 C355 1.428 . S
C355 C354 1.428 . S
C355 C356 1.230 . S
C356 C355 1.230 . S
C356 C357 1.405 . S
C357 C331 1.388 . S
C357 C343 1.388 . S
C357 C356 1.405 . S
C358 C359 1.420 1_565 S
C358 C360 1.383 1_565 S
C358 H366 0.928 . S
C359 C358 1.420 1_545 S
C359 C372 1.420 . S
C360 C358 1.383 1_545 S
C360 H367 0.922 1_545 S
C360 C378 1.418 . S
C361 H368 0.928 1_545 S
C361 C377 1.374 1_554 S
C361 C381 1.388 . S
C362 C363 1.420 . S
C362 C364 1.385 . S
C362 H369 0.928 . S
C363 C362 1.420 . S
C363 C375 1.420 1_545 S
C364 C362 1.385 . S
C364 H370 0.929 . S
C364 C388 1.407 . S
C365 H371 0.928 . S
C365 C374 1.374 1_556 S
C365 C391 1.388 . S
H366 C358 0.928 . S
H367 C360 0.922 1_565 S
H368 C361 0.928 1_565 S
H369 C362 0.928 . S
H370 C364 0.929 . S
H371 C365 0.928 . S
C372 C359 1.420 . S
C372 C373 1.385 . S
C372 H382 0.928 . S
C373 C372 1.385 . S
C373 C378 1.407 . S
C373 H383 0.929 . S
C374 C365 1.374 1_554 S
C374 C381 1.388 . S
C374 H384 0.928 . S
C375 C363 1.420 1_565 S
C375 C376 1.385 . S
C375 H385 0.928 . S
C376 C375 1.385 . S
C376 H386 0.929 . S
C376 C388 1.407 1_565 S
C377 C361 1.374 1_556 S
C377 H387 0.928 1_545 S
C377 C391 1.388 . S
C378 C360 1.418 . S
C378 C373 1.407 . S
C378 C379 1.428 . S
C379 C378 1.428 . S
C379 C380 1.230 . S
C380 C379 1.230 . S
C380 C381 1.405 . S
C381 C361 1.388 . S
C381 C374 1.388 . S
C381 C380 1.405 . S
H382 C372 0.928 . S
H383 C373 0.929 . S
H384 C374 0.928 . S
H385 C375 0.928 . S
H386 C376 0.929 . S
H387 C377 0.928 1_565 S
C388 C364 1.407 . S
C388 C376 1.407 1_545 S
C388 C389 1.428 . S
C389 C388 1.428 . S
C389 C390 1.230 . S
C390 C389 1.230 . S
C390 C391 1.405 . S
C391 C365 1.388 . S
C391 C377 1.388 . S
C391 C390 1.405 . S
C392 C393 1.420 . S
C392 C394 1.385 . S
C392 H400 0.928 . S
C393 C392 1.420 . S
C393 C406 1.420 . S
C394 C392 1.385 . S
C394 H401 0.929 . S
C394 C412 1.407 . S
C395 H402 0.928 . S
C395 C411 1.374 . S
C395 C415 1.388 . S
C396 C397 1.420 . S
C396 C398 1.385 1_556 S
C396 H403 0.928 . S
C397 C396 1.420 . S
C397 C409 1.420 . S
C398 C396 1.385 1_554 S
C398 H404 0.929 . S
C398 C422 1.407 . S
C399 H405 0.928 . S
C399 C408 1.374 . S
C399 C425 1.388 . S
H400 C392 0.928 . S
H401 C394 0.929 . S
H402 C395 0.928 . S
H403 C396 0.928 . S
H404 C398 0.929 . S
H405 C399 0.928 . S
C406 C393 1.420 . S
C406 C407 1.385 . S
C406 H416 0.928 . S
C407 C406 1.385 . S
C407 C412 1.407 . S
C407 H417 0.929 . S
C408 C399 1.374 . S
C408 C415 1.388 . S
C408 H418 0.928 . S
C409 C397 1.420 . S
C409 C410 1.385 1_556 S
C409 H419 0.928 . S
C410 C409 1.385 1_554 S
C410 H420 0.929 . S
C410 C422 1.407 . S
C411 C395 1.374 . S
C411 H421 0.928 . S
C411 C425 1.388 . S
C412 C394 1.407 . S
C412 C407 1.407 . S
C412 C413 1.428 . S
C413 C412 1.428 . S
C413 C414 1.230 . S
C414 C413 1.230 . S
C414 C415 1.405 . S
C415 C395 1.388 . S
C415 C408 1.388 . S
C415 C414 1.405 . S
H416 C406 0.928 . S
H417 C407 0.929 . S
H418 C408 0.928 . S
H419 C409 0.928 . S
H420 C410 0.929 . S
H421 C411 0.928 . S
C422 C398 1.407 . S
C422 C410 1.407 . S
C422 C423 1.428 . S
C423 C422 1.428 . S
C423 C424 1.230 . S
C424 C423 1.230 . S
C424 C425 1.405 . S
C425 C399 1.388 . S
C425 C411 1.388 . S
C425 C424 1.405 . S
C121 C19 3.182 . S
C125 C99 3.161 . S
C155 C46 1.656 . S
C159 C6 1.642 . S
C189 C59 2.527 . S
C193 C95 2.449 . S
C223 C90 2.783 . S
C227 C10 2.788 . S
C257 C55 1.511 . S
C261 C15 1.483 . S
C291 C86 2.250 . S
C295 C50 2.220 . S
C325 C9 0.426 . S
C329 C18 0.494 . S
C359 C58 0.436 . S
C363 C49 0.469 . S
C393 C98 0.467 . S
C397 C89 0.516 . S
