# Generated by pormake.
# Topology ske, (6)-cn, num edge types: 1
# Building blocks:
#     Node 0, Type 0, BuildingBlock: BETDIP_clean_sbu_0, # of connection points: 6
#     Node 1, Type 0, BuildingBlock: BETDIP_clean_sbu_0, # of connection points: 6
#     Node 2, Type 0, BuildingBlock: BETDIP_clean_sbu_0, # of connection points: 6
#     Node 3, Type 0, BuildingBlock: BETDIP_clean_sbu_0, # of connection points: 6
#     Node 4, Type 0, BuildingBlock: BETDIP_clean_sbu_0, # of connection points: 6
#     Node 5, Type 0, BuildingBlock: BETDIP_clean_sbu_0, # of connection points: 6
#     Node 6, Type 0, BuildingBlock: BETDIP_clean_sbu_0, # of connection points: 6
#     Node 7, Type 0, BuildingBlock: BETDIP_clean_sbu_0, # of connection points: 6
#     Edge 8, Type (0, 0), BuildingBlock: XUDNAN_clean_linker_2, # of connection points: 2
#     Edge 9, Type (0, 0), BuildingBlock: XUDNAN_clean_linker_2, # of connection points: 2
#     Edge 10, Type (0, 0), BuildingBlock: XUDNAN_clean_linker_2, # of connection points: 2
#     Edge 11, Type (0, 0), BuildingBlock: XUDNAN_clean_linker_2, # of connection points: 2
#     Edge 12, Type (0, 0), BuildingBlock: XUDNAN_clean_linker_2, # of connection points: 2
#     Edge 13, Type (0, 0), BuildingBlock: XUDNAN_clean_linker_2, # of connection points: 2
#     Edge 14, Type (0, 0), BuildingBlock: XUDNAN_clean_linker_2, # of connection points: 2
#     Edge 15, Type (0, 0), BuildingBlock: XUDNAN_clean_linker_2, # of connection points: 2
#     Edge 16, Type (0, 0), BuildingBlock: XUDNAN_clean_linker_2, # of connection points: 2
#     Edge 17, Type (0, 0), BuildingBlock: XUDNAN_clean_linker_2, # of connection points: 2
#     Edge 18, Type (0, 0), BuildingBlock: XUDNAN_clean_linker_2, # of connection points: 2
#     Edge 19, Type (0, 0), BuildingBlock: XUDNAN_clean_linker_2, # of connection points: 2
#     Edge 20, Type (0, 0), BuildingBlock: XUDNAN_clean_linker_2, # of connection points: 2
#     Edge 21, Type (0, 0), BuildingBlock: XUDNAN_clean_linker_2, # of connection points: 2
#     Edge 22, Type (0, 0), BuildingBlock: XUDNAN_clean_linker_2, # of connection points: 2
#     Edge 23, Type (0, 0), BuildingBlock: XUDNAN_clean_linker_2, # of connection points: 2
#     Edge 24, Type (0, 0), BuildingBlock: XUDNAN_clean_linker_2, # of connection points: 2
#     Edge 25, Type (0, 0), BuildingBlock: XUDNAN_clean_linker_2, # of connection points: 2
#     Edge 26, Type (0, 0), BuildingBlock: XUDNAN_clean_linker_2, # of connection points: 2
#     Edge 27, Type (0, 0), BuildingBlock: XUDNAN_clean_linker_2, # of connection points: 2
#     Edge 28, Type (0, 0), BuildingBlock: XUDNAN_clean_linker_2, # of connection points: 2
#     Edge 29, Type (0, 0), BuildingBlock: XUDNAN_clean_linker_2, # of connection points: 2
#     Edge 30, Type (0, 0), BuildingBlock: XUDNAN_clean_linker_2, # of connection points: 2
#     Edge 31, Type (0, 0), BuildingBlock: XUDNAN_clean_linker_2, # of connection points: 2
# Relax obj value: 0.222
# Max RMSD: 0.215
# Mean RMSD: 0.208
data_MOF--net-ske--node1-BETDIP_clean_sbu_0--edge1-XUDNAN_clean_linker_2
_symmetry_space_group_name_H-M    P1
_symmetry_Int_Tables_number       1
_symmetry_cell_setting            triclinic
loop_
_symmetry_equiv_pos_as_xyz
'x, y, z'
_cell_length_a     101.55979
_cell_length_b     28.974116
_cell_length_c     15.343959
_cell_angle_alpha  89.94051
_cell_angle_beta   90.192195
_cell_angle_gamma 89.937755
loop_
_atom_site_label
_atom_site_type_symbol
_atom_site_fract_x
_atom_site_fract_y
_atom_site_fract_z
_atom_type_partial_charge
Tb0 Tb 0.16311 0.26717 0.5617 0.0
Tb1 Tb 0.13382 0.25104 0.56388 0.0
C2 C 0.18602 0.29988 0.57845 0.0
C3 C 0.19841 0.29042 0.62655 0.0
C4 C 0.20584 0.32741 0.65923 0.0
C5 C 0.21814 0.31975 0.69833 0.0
C6 C 0.22336 0.27481 0.70527 0.0
C7 C 0.21575 0.23772 0.67368 0.0
C8 C 0.20341 0.2454 0.63509 0.0
C9 C 0.15652 0.17886 0.55115 0.0
C10 C 0.14856 0.25048 0.74251 0.0
C11 C 0.1103 0.22347 0.54803 0.0
C12 C 0.09686 0.23951 0.52391 0.0
C13 C 0.09071 0.22138 0.44934 0.0
C14 C 0.07755 0.23178 0.43029 0.0
C15 C 0.07013 0.26038 0.48572 0.0
C16 C 0.07634 0.27913 0.55975 0.0
C17 C 0.08955 0.26885 0.57864 0.0
C18 C 0.14099 0.33948 0.56829 0.0
C19 C 0.14897 0.25227 0.38519 0.0
O20 O 0.17591 0.31436 0.62354 0.0
O21 O 0.18262 0.26989 0.51891 0.0
O22 O 0.1506 0.20952 0.59386 0.0
O23 O 0.16756 0.19586 0.52447 0.0
O24 O 0.1586 0.27076 0.7029 0.0
O25 O 0.13884 0.23212 0.69675 0.0
O26 O 0.11907 0.22045 0.48611 0.0
O27 O 0.11539 0.23891 0.62064 0.0
O28 O 0.14638 0.3075 0.52672 0.0
O29 O 0.13018 0.32347 0.60022 0.0
O30 O 0.1395 0.23299 0.43147 0.0
O31 O 0.15823 0.2773 0.42353 0.0
H32 H 0.2022 0.36245 0.65331 0.0
H33 H 0.22356 0.34913 0.72312 0.0
H34 H 0.21944 0.20269 0.67659 0.0
H35 H 0.19792 0.21617 0.61027 0.0
H36 H 0.096 0.19806 0.40677 0.0
H37 H 0.07306 0.21613 0.37344 0.0
H38 H 0.07098 0.30166 0.60336 0.0
H39 H 0.09392 0.28319 0.63709 0.0
Tb40 Tb 0.87733 0.25567 0.534 0.0
Tb41 Tb 0.90704 0.25734 0.53044 0.0
C42 C 0.85302 0.23954 0.52152 0.0
C43 C 0.84013 0.24983 0.5626 0.0
C44 C 0.83722 0.23739 0.64913 0.0
C45 C 0.82455 0.24465 0.68311 0.0
C46 C 0.81455 0.26461 0.63143 0.0
C47 C 0.81758 0.2772 0.54519 0.0
C48 C 0.83017 0.26983 0.51134 0.0
C49 C 0.88799 0.33806 0.56135 0.0
C50 C 0.8924 0.25738 0.70998 0.0
C51 C 0.93122 0.26939 0.50995 0.0
C52 C 0.94555 0.27541 0.49504 0.0
C53 C 0.95329 0.30256 0.55112 0.0
C54 C 0.96697 0.30578 0.53901 0.0
C55 C 0.97314 0.28234 0.46991 0.0
C56 C 0.96531 0.25566 0.41344 0.0
C57 C 0.95171 0.25211 0.42603 0.0
C58 C 0.89631 0.17497 0.55918 0.0
C59 C 0.89138 0.25972 0.35147 0.0
O60 O 0.86131 0.21275 0.56357 0.0
O61 O 0.85892 0.27373 0.48162 0.0
O62 O 0.89199 0.3077 0.50917 0.0
O63 O 0.87719 0.32359 0.59654 0.0
O64 O 0.8822 0.23988 0.66784 0.0
O65 O 0.90294 0.27276 0.66817 0.0
O66 O 0.92406 0.29717 0.55817 0.0
O67 O 0.92465 0.23572 0.47314 0.0
O68 O 0.89219 0.20565 0.5079 0.0
O69 O 0.90737 0.18896 0.59125 0.0
O70 O 0.90273 0.26801 0.39119 0.0
O71 O 0.88066 0.24914 0.39535 0.0
H72 H 0.84466 0.22169 0.69029 0.0
H73 H 0.8226 0.23488 0.74998 0.0
H74 H 0.81012 0.29185 0.50284 0.0
H75 H 0.83208 0.27911 0.44411 0.0
H76 H 0.94882 0.32074 0.60513 0.0
H77 H 0.9727 0.32687 0.5833 0.0
H78 H 0.96973 0.23667 0.36026 0.0
H79 H 0.94604 0.23079 0.3818 0.0
Tb80 Tb 0.1643 0.75277 0.52265 0.0
Tb81 Tb 0.13492 0.76443 0.52816 0.0
C82 C 0.18771 0.72521 0.50123 0.0
C83 C 0.20002 0.73158 0.45019 0.0
C84 C 0.20165 0.70975 0.36908 0.0
C85 C 0.21403 0.70823 0.32912 0.0
C86 C 0.22512 0.7283 0.36922 0.0
C87 C 0.22334 0.75231 0.44793 0.0
C88 C 0.21096 0.75368 0.48818 0.0
C89 C 0.15646 0.83963 0.53983 0.0
C90 C 0.1479 0.75505 0.3444 0.0
C91 C 0.11143 0.78861 0.55786 0.0
C92 C 0.09772 0.77528 0.53686 0.0
C93 C 0.08786 0.80923 0.53653 0.0
C94 C 0.07459 0.79709 0.52686 0.0
C95 C 0.07084 0.75056 0.51755 0.0
C96 C 0.08081 0.71667 0.51568 0.0
C97 C 0.0941 0.72889 0.52518 0.0
C98 C 0.1428 0.67766 0.51035 0.0
C99 C 0.15118 0.75564 0.70211 0.0
O100 O 0.17747 0.70749 0.46159 0.0
O101 O 0.18436 0.75732 0.55679 0.0
O102 O 0.15088 0.80892 0.49501 0.0
O103 O 0.16758 0.82347 0.56723 0.0
O104 O 0.15914 0.74713 0.38556 0.0
O105 O 0.13699 0.76695 0.386 0.0
O106 O 0.11812 0.75963 0.606 0.0
O107 O 0.1186 0.80647 0.49565 0.0
O108 O 0.14827 0.70848 0.55559 0.0
O109 O 0.13172 0.69392 0.48173 0.0
O110 O 0.14177 0.77948 0.66239 0.0
O111 O 0.15999 0.7332 0.65544 0.0
H112 H 0.19351 0.69207 0.33801 0.0
H113 H 0.21499 0.69001 0.26786 0.0
H114 H 0.23167 0.76784 0.48098 0.0
H115 H 0.2101 0.77021 0.55119 0.0
H116 H 0.09042 0.8452 0.54573 0.0
H117 H 0.06726 0.82424 0.527 0.0
H118 H 0.07834 0.68048 0.50952 0.0
H119 H 0.10151 0.70196 0.52571 0.0
Tb120 Tb 0.87799 0.76033 0.52847 0.0
Tb121 Tb 0.90745 0.75424 0.52278 0.0
C122 C 0.85407 0.78355 0.51521 0.0
C123 C 0.84157 0.77356 0.46926 0.0
C124 C 0.83291 0.81017 0.45163 0.0
C125 C 0.82028 0.80178 0.41839 0.0
C126 C 0.81599 0.75642 0.40205 0.0
C127 C 0.8249 0.71983 0.41683 0.0
C128 C 0.83755 0.72829 0.45014 0.0
C129 C 0.88743 0.67563 0.54598 0.0
C130 C 0.8927 0.75708 0.34457 0.0
C131 C 0.93165 0.73777 0.53478 0.0
C132 C 0.9461 0.73066 0.54185 0.0
C133 C 0.95168 0.68642 0.53563 0.0
C134 C 0.96542 0.68075 0.53406 0.0
C135 C 0.97389 0.71925 0.53812 0.0
C136 C 0.96822 0.76335 0.54661 0.0
C137 C 0.95454 0.76894 0.54861 0.0
C138 C 0.89749 0.83822 0.50178 0.0
C139 C 0.89293 0.76509 0.70331 0.0
O140 O 0.86354 0.80294 0.47069 0.0
O141 O 0.85848 0.75233 0.56962 0.0
O142 O 0.89187 0.70659 0.49645 0.0
O143 O 0.87667 0.69043 0.58084 0.0
O144 O 0.8818 0.76508 0.3891 0.0
O145 O 0.90398 0.74642 0.38312 0.0
O146 O 0.92312 0.70552 0.51439 0.0
O147 O 0.92638 0.77797 0.5514 0.0
O148 O 0.89348 0.8076 0.55333 0.0
O149 O 0.90796 0.82305 0.46339 0.0
O150 O 0.9029 0.7447 0.66303 0.0
O151 O 0.88315 0.78316 0.65783 0.0
H152 H 0.83575 0.84534 0.46648 0.0
H153 H 0.8137 0.83081 0.40899 0.0
H154 H 0.82203 0.68452 0.40375 0.0
H155 H 0.84406 0.69941 0.463 0.0
H156 H 0.94545 0.65624 0.5304 0.0
H157 H 0.96938 0.64616 0.52893 0.0
H158 H 0.97433 0.79394 0.54853 0.0
H159 H 0.95058 0.80359 0.55273 0.0
Tb160 Tb 0.66329 0.76294 0.05089 0.0
Tb161 Tb 0.63387 0.7505 0.04836 0.0
C162 C 0.68644 0.79323 0.0705 0.0
C163 C 0.6988 0.78216 0.11747 0.0
C164 C 0.70699 0.81826 0.14516 0.0
C165 C 0.71927 0.80896 0.18321 0.0
C166 C 0.72369 0.76322 0.1942 0.0
C167 C 0.7153 0.72704 0.1678 0.0
C168 C 0.70299 0.7364 0.12999 0.0
C169 C 0.65614 0.67536 0.04054 0.0
C170 C 0.6473 0.75361 0.23122 0.0
C171 C 0.61017 0.72746 1.02231 0.0
C172 C 0.59639 0.7365 0.05054 0.0
C173 C 0.58962 0.70273 0.09849 0.0
C174 C 0.5762 0.70777 0.11713 0.0
C175 C 0.56912 0.74664 0.08784 0.0
C176 C 0.57595 0.78084 0.0409 0.0
C177 C 0.5894 0.77583 1.02239 0.0
C178 C 0.64202 0.83729 0.06046 0.0
C179 C 0.64969 0.74784 0.874 0.0
O180 O 0.67642 0.80723 0.11697 0.0
O181 O 0.68287 0.76467 1.00892 0.0
O182 O 0.65022 0.70679 0.08166 0.0
O183 O 0.66731 0.69153 1.0144 0.0
O184 O 0.65847 0.76497 0.19169 0.0
O185 O 0.63648 0.74333 0.18723 0.0
O186 O 0.61802 0.70649 0.07737 0.0
O187 O 0.61627 0.75958 0.97813 0.0
O188 O 0.64713 0.8058 1.01541 0.0
O189 O 0.63129 0.82152 0.09462 0.0
O190 O 0.6405 0.72764 0.92097 0.0
O191 O 0.65875 0.77365 0.91235 0.0
H192 H 0.70397 0.85383 0.13612 0.0
H193 H 0.7253 0.83773 0.20409 0.0
H194 H 0.71837 0.6914 0.17423 0.0
H195 H 0.69687 0.70787 0.10897 0.0
H196 H 0.59462 0.67161 0.11962 0.0
H197 H 0.57128 0.68032 0.15215 0.0
H198 H 0.57088 0.81147 1.01806 0.0
H199 H 0.59424 0.80235 0.98446 0.0
Tb200 Tb 0.37864 0.75826 1.02006 0.0
Tb201 Tb 0.40807 0.76964 1.02034 0.0
C202 C 0.35518 0.73082 0.03777 0.0
C203 C 0.34306 0.73293 0.09195 0.0
C204 C 0.34 0.69611 0.14804 0.0
C205 C 0.32751 0.69268 0.1859 0.0
C206 C 0.3177 0.72581 0.16835 0.0
C207 C 0.32099 0.76406 0.11627 0.0
C208 C 0.33349 0.76745 0.0781 0.0
C209 C 0.38677 0.84459 1.00195 0.0
C210 C 0.39446 0.76132 0.20126 0.0
C211 C 0.43156 0.79479 0.99468 0.0
C212 C 0.44517 0.79011 1.02823 0.0
C213 C 0.45453 0.82336 1.00463 0.0
C214 C 0.46782 0.81768 1.02688 0.0
C215 C 0.47208 0.7785 0.07343 0.0
C216 C 0.46258 0.74574 0.09907 0.0
C217 C 0.44926 0.75143 0.07652 0.0
C218 C 0.39973 0.68344 0.03762 0.0
C219 C 0.39238 0.75947 0.84254 0.0
O220 O 0.36544 0.70868 0.06866 0.0
O221 O 0.35853 0.76747 0.9932 0.0
O222 O 0.39189 0.81415 0.05012 0.0
O223 O 0.37611 0.82803 0.96803 0.0
O224 O 0.38332 0.75389 0.15842 0.0
O225 O 0.40558 0.77241 0.16152 0.0
O226 O 0.42626 0.75781 0.96076 0.0
O227 O 0.42313 0.81862 0.04082 0.0
O228 O 0.39481 0.7144 0.98995 0.0
O229 O 0.41042 0.69951 0.07276 0.0
O230 O 0.40203 0.78179 0.88288 0.0
O231 O 0.38312 0.73882 0.88809 0.0
H232 H 0.34705 0.66867 0.15953 0.0
H233 H 0.32539 0.66311 0.22675 0.0
H234 H 0.31366 0.79003 0.10087 0.0
H235 H 0.33543 0.79599 0.03438 0.0
H236 H 0.45161 0.85339 0.96709 0.0
H237 H 0.47477 0.844 1.00728 0.0
H238 H 0.46548 0.71495 0.1343 0.0
H239 H 0.44222 0.72513 0.09494 0.0
Tb240 Tb 0.66465 0.24892 1.02291 0.0
Tb241 Tb 0.63518 0.26244 1.01826 0.0
C242 C 0.6879 0.21958 1.00475 0.0
C243 C 0.70013 0.23146 0.95725 0.0
C244 C 0.70761 0.19615 0.91908 0.0
C245 C 0.71965 0.20597 0.87863 0.0
C246 C 0.72453 0.25143 0.8757 0.0
C247 C 0.71689 0.28683 0.9133 0.0
C248 C 0.70482 0.27701 0.9533 0.0
C249 C 0.6572 0.33611 0.0397 0.0
C250 C 0.64994 0.25984 0.83906 0.0
C251 C 0.61167 0.28799 0.04194 0.0
C252 C 0.59798 0.27637 1.01733 0.0
C253 C 0.58867 0.31194 1.00952 0.0
C254 C 0.57534 0.30184 0.99582 0.0
C255 C 0.571 0.2558 0.98998 0.0
C256 C 0.58045 0.22023 0.99583 0.0
C257 C 0.59379 0.2304 1.00919 0.0
C258 C 0.64297 0.17555 1.00141 0.0
C259 C 0.65059 0.25614 0.19689 0.0
O260 O 0.67793 0.20478 0.95831 0.0
O261 O 0.68421 0.24784 0.0665 0.0
O262 O 0.65172 0.3058 0.99356 0.0
O263 O 0.66826 0.31958 0.06774 0.0
O264 O 0.66059 0.24832 0.88395 0.0
O265 O 0.63863 0.26994 0.87769 0.0
O266 O 0.6193 0.3055 0.98187 0.0
O267 O 0.61787 0.25816 0.09117 0.0
O268 O 0.64811 0.2059 0.04925 0.0
O269 O 0.63225 0.19239 0.9682 0.0
O270 O 0.64126 0.27849 0.15344 0.0
O271 O 0.65945 0.23153 0.15494 0.0
H272 H 0.7042 0.16075 0.92132 0.0
H273 H 0.72508 0.17787 0.84924 0.0
H274 H 0.72034 0.32217 0.91356 0.0
H275 H 0.69928 0.30499 0.98233 0.0
H276 H 0.59167 0.34766 1.01587 0.0
H277 H 0.56843 0.33018 0.99011 0.0
H278 H 0.57751 0.18436 0.9927 0.0
H279 H 0.60077 0.20226 1.0154 0.0
Tb280 Tb 0.37911 0.26991 0.98439 0.0
Tb281 Tb 0.40865 0.25882 0.98405 0.0
C282 C 0.35539 0.2936 1.00484 0.0
C283 C 0.34226 0.28621 0.96492 0.0
C284 C 0.33323 0.32289 0.96242 0.0
C285 C 0.32033 0.31597 0.93261 0.0
C286 C 0.31614 0.27204 0.90508 0.0
C287 C 0.32535 0.23563 0.90514 0.0
C288 C 0.33829 0.24265 0.93453 0.0
C289 C 0.38753 0.18363 0.96722 0.0
C290 C 0.39195 0.25987 0.805 0.0
C291 C 0.43203 0.23343 0.95599 0.0
C292 C 0.44607 0.2336 0.98296 0.0
C293 C 0.45242 0.1912 0.99727 0.0
C294 C 0.46615 0.18877 1.00313 0.0
C295 C 0.4739 0.22872 0.99442 0.0
C296 C 0.46751 0.27161 0.9858 0.0
C297 C 0.45374 0.27403 0.97973 0.0
C298 C 0.40046 0.34456 1.00538 0.0
C299 C 0.39496 0.26752 0.16329 0.0
O300 O 0.3639 0.31786 0.96032 0.0
O301 O 0.36086 0.25812 0.04353 0.0
O302 O 0.3925 0.2148 1.01387 0.0
O303 O 0.37681 0.19966 0.93247 0.0
O304 O 0.38173 0.27678 0.84673 0.0
O305 O 0.4027 0.24579 0.84688 0.0
O306 O 0.42359 0.20886 1.00068 0.0
O307 O 0.42691 0.27183 0.92638 0.0
O308 O 0.39534 0.31448 0.95627 0.0
O309 O 0.41113 0.32771 0.0397 0.0
O310 O 0.40554 0.25061 0.12429 0.0
O311 O 0.38501 0.28501 0.11811 0.0
H312 H 0.33606 0.35675 0.98577 0.0
H313 H 0.31349 0.34468 0.93421 0.0
H314 H 0.32253 0.20153 0.88316 0.0
H315 H 0.34508 0.2138 0.93519 0.0
H316 H 0.44679 0.15945 0.99926 0.0
H317 H 0.47073 0.15526 1.01134 0.0
H318 H 0.47317 0.30303 0.97854 0.0
H319 H 0.44917 0.30728 0.96804 0.0
H320 H 0.24573 0.32886 0.6908 0.0
H321 H 0.23138 0.20219 0.80849 0.0
H322 H 0.25351 0.18706 0.86852 0.0
H323 H 0.27783 0.28771 0.63392 0.0
H324 H 0.28607 0.34097 0.66048 0.0
H325 H 0.26912 0.34181 0.62547 0.0
H326 H 0.2626 0.38546 0.76613 0.0
H327 H 0.27954 0.38495 0.8014 0.0
H328 H 0.26693 0.36139 0.87079 0.0
H329 H 0.2773 0.18514 0.91522 0.0
H330 H 0.30073 0.19831 0.95029 0.0
H331 H 0.2996 0.32724 0.80614 0.0
C332 C 0.24715 0.29816 0.73 0.0
C333 C 0.23671 0.26659 0.74413 0.0
C334 C 0.23918 0.22655 0.79499 0.0
C335 C 0.25173 0.21775 0.82996 0.0
C336 C 0.26178 0.24938 0.8142 0.0
C337 C 0.25962 0.28895 0.76592 0.0
C338 C 0.27209 0.3176 0.75947 0.0
C339 C 0.27654 0.32228 0.66417 0.0
C340 C 0.27017 0.36517 0.802 0.0
C341 C 0.28159 0.28795 0.81168 0.0
C342 C 0.27545 0.24864 0.84226 0.0
C343 C 0.28221 0.2158 0.89154 0.0
C344 C 0.29556 0.22344 0.91061 0.0
C345 C 0.30208 0.26372 0.88083 0.0
C346 C 0.29492 0.29627 0.83051 0.0
H347 H 0.74738 0.19901 0.87715 0.0
H348 H 0.73114 0.3276 0.77809 0.0
H349 H 0.75251 0.34599 0.71105 0.0
H350 H 0.77998 0.24104 0.92425 0.0
H351 H 0.78815 0.18909 0.88889 0.0
H352 H 0.77166 0.18625 0.93158 0.0
H353 H 0.7637 0.14589 0.7904 0.0
H354 H 0.78017 0.14833 0.74753 0.0
H355 H 0.76669 0.17288 0.68642 0.0
H356 H 0.77559 0.35048 0.65337 0.0
H357 H 0.79851 0.33955 0.60507 0.0
H358 H 0.79972 0.20666 0.73592 0.0
C359 C 0.74825 0.2309 0.84083 0.0
C360 C 0.73748 0.26197 0.8338 0.0
C361 C 0.73921 0.30355 0.78627 0.0
C362 C 0.75133 0.31424 0.74737 0.0
C363 C 0.76169 0.283 0.75599 0.0
C364 C 0.76028 0.24206 0.80115 0.0
C365 C 0.77293 0.21407 0.79905 0.0
C366 C 0.77851 0.20722 0.89145 0.0
C367 C 0.77074 0.16754 0.7531 0.0
C368 C 0.78166 0.24564 0.74543 0.0
C369 C 0.77498 0.28527 0.72159 0.0
C370 C 0.7809 0.31948 0.67138 0.0
C371 C 0.79393 0.31281 0.64384 0.0
C372 C 0.80097 0.27212 0.66604 0.0
C373 C 0.79471 0.23837 0.71844 0.0
H374 H 0.29992 0.78887 0.23721 0.0
H375 H 0.30394 0.64504 0.16279 0.0
H376 H 0.28093 0.63092 0.20494 0.0
H377 H 0.27912 0.76853 0.42528 0.0
H378 H 0.26914 0.81921 0.40783 0.0
H379 H 0.28602 0.81844 0.37216 0.0
H380 H 0.2785 0.83927 0.21555 0.0
H381 H 0.26159 0.83997 0.25069 0.0
H382 H 0.26649 0.8035 0.16137 0.0
H383 H 0.25743 0.63211 0.25108 0.0
H384 H 0.2351 0.64761 0.30594 0.0
H385 H 0.24578 0.7905 0.35303 0.0
C386 C 0.29594 0.75444 0.22983 0.0
C387 C 0.30384 0.71797 0.19724 0.0
C388 C 0.29824 0.67337 0.189 0.0
C389 C 0.28511 0.66504 0.21216 0.0
C390 C 0.27762 0.70159 0.24389 0.0
C391 C 0.28281 0.74536 0.25341 0.0
C392 C 0.27257 0.77827 0.29018 0.0
C393 C 0.27698 0.79723 0.37915 0.0
C394 C 0.26961 0.81758 0.22558 0.0
C395 C 0.26083 0.74613 0.29943 0.0
C396 C 0.26399 0.70215 0.27173 0.0
C397 C 0.25483 0.66643 0.27287 0.0
C398 C 0.24212 0.6757 0.30358 0.0
C399 C 0.23859 0.72035 0.33327 0.0
C400 C 0.24815 0.75598 0.33113 0.0
H401 H 0.7469 0.81112 0.16892 0.0
H402 H 0.73074 0.69308 0.30634 0.0
H403 H 0.75268 0.67652 0.36851 0.0
H404 H 0.77857 0.76103 0.11969 0.0
H405 H 0.78747 0.81404 0.1371 0.0
H406 H 0.77059 0.81575 0.10079 0.0
H407 H 0.76451 0.86747 0.23233 0.0
H408 H 0.78137 0.86604 0.26887 0.0
H409 H 0.76838 0.84817 0.34119 0.0
H410 H 0.77639 0.67383 0.41894 0.0
H411 H 0.79974 0.68644 0.4566 0.0
H412 H 0.80049 0.80655 0.28724 0.0
C413 C 0.74791 0.78194 0.21256 0.0
C414 C 0.73699 0.75335 0.23225 0.0
C415 C 0.73891 0.71515 0.28885 0.0
C416 C 0.75135 0.70556 0.32495 0.0
C417 C 0.76185 0.73445 0.30411 0.0
C418 C 0.76025 0.77193 0.24937 0.0
C419 C 0.77309 0.7981 0.23875 0.0
C420 C 0.7777 0.79715 0.14342 0.0
C421 C 0.77175 0.84789 0.27231 0.0
C422 C 0.78213 0.76975 0.29676 0.0
C423 C 0.77547 0.73302 0.33342 0.0
C424 C 0.78171 0.70233 0.39015 0.0
C425 C 0.79504 0.70961 0.41064 0.0
C426 C 0.80207 0.74738 0.37476 0.0
C427 C 0.79544 0.77753 0.31646 0.0
H428 H 0.17382 0.91084 0.53247 0.0
H429 H 0.1321 0.88084 0.54373 0.0
H430 H 0.12724 0.96485 0.54953 0.0
H431 H 0.17427 0.00751 0.67444 0.0
H432 H 0.18617 0.0393 0.61154 0.0
H433 H 0.18617 0.97719 0.60892 0.0
H434 H 0.18396 0.97883 0.44059 0.0
H435 H 0.18404 0.04098 0.44265 0.0
H436 H 0.17063 0.01068 0.39103 0.0
H437 H 0.12739 0.05365 0.56445 0.0
H438 H 0.13234 0.13765 0.56914 0.0
H439 H 0.1738 0.10764 0.53495 0.0
C440 C 0.16365 0.92197 0.53589 0.0
C441 C 0.1533 0.8895 0.53793 0.0
C442 C 0.14013 0.90529 0.54148 0.0
C443 C 0.13731 0.95289 0.54532 0.0
C444 C 0.14778 0.98414 0.54383 0.0
C445 C 0.16068 0.96915 0.53757 0.0
C446 C 0.17018 0.00931 0.53397 0.0
C447 C 0.17976 0.00825 0.61187 0.0
C448 C 0.17764 0.00998 0.44688 0.0
C449 C 0.16069 0.04942 0.54053 0.0
C450 C 0.14781 0.03443 0.54729 0.0
C451 C 0.13743 0.06563 0.55805 0.0
C452 C 0.14031 0.11319 0.561 0.0
C453 C 0.15341 0.12898 0.55167 0.0
C454 C 0.16367 0.09656 0.54125 0.0
H455 H 0.87684 0.40954 0.65009 0.0
H456 H 0.90741 0.37798 0.46282 0.0
H457 H 0.91195 0.46156 0.44571 0.0
H458 H 0.864 0.50539 0.54156 0.0
H459 H 0.86047 0.53805 0.63866 0.0
H460 H 0.8607 0.47602 0.6428 0.0
H461 H 0.87808 0.47852 0.76678 0.0
H462 H 0.87786 0.54069 0.76335 0.0
H463 H 0.89318 0.51 0.75077 0.0
H464 H 0.91166 0.54987 0.44008 0.0
H465 H 0.90672 0.63366 0.44814 0.0
H466 H 0.87643 0.60599 0.63955 0.0
C467 C 0.88466 0.42016 0.60668 0.0
C468 C 0.8918 0.38736 0.55788 0.0
C469 C 0.90186 0.40261 0.50109 0.0
C470 C 0.9045 0.45 0.49099 0.0
C471 C 0.89705 0.48161 0.53864 0.0
C472 C 0.8874 0.46718 0.5959 0.0
C473 C 0.88026 0.50781 0.63596 0.0
C474 C 0.86549 0.50674 0.61335 0.0
C475 C 0.88248 0.50934 0.73509 0.0
C476 C 0.88716 0.54744 0.59089 0.0
C477 C 0.8969 0.53185 0.53548 0.0
C478 C 0.90416 0.56239 0.48409 0.0
C479 C 0.90131 0.6099 0.48906 0.0
C480 C 0.89125 0.62628 0.5447 0.0
C481 C 0.88424 0.59453 0.59678 0.0
H482 H 0.91252 0.91207 0.45449 0.0
H483 H 0.87485 0.87577 0.56734 0.0
H484 H 0.86964 0.95882 0.5858 0.0
H485 H 0.91936 1.00236 0.60215 0.0
H486 H 0.92754 0.03834 0.52321 0.0
H487 H 0.92758 0.97662 0.51021 0.0
H488 H 0.91742 0.98544 0.35591 0.0
H489 H 0.91737 0.04727 0.36835 0.0
H490 H 0.90231 0.0174 0.34225 0.0
H491 H 0.86889 0.04692 0.59414 0.0
H492 H 0.87345 0.13105 0.60256 0.0
H493 H 0.91228 0.10802 0.49539 0.0
C494 C 0.90307 0.92163 0.48167 0.0
C495 C 0.89398 0.88764 0.50823 0.0
C496 C 0.88187 0.9014 0.54563 0.0
C497 C 0.87884 0.94844 0.55631 0.0
C498 C 0.88811 0.9812 0.53029 0.0
C499 C 0.90003 0.96827 0.49444 0.0
C500 C 0.90875 0.00974 0.47812 0.0
C501 C 0.92156 1.00656 0.53164 0.0
C502 C 0.91162 0.01528 0.38034 0.0
C503 C 0.89994 0.04809 0.51093 0.0
C504 C 0.88797 0.03117 0.53939 0.0
C505 C 0.87823 0.06045 0.57203 0.0
C506 C 0.88086 0.10809 0.57636 0.0
C507 C 0.89318 0.1256 0.54973 0.0
C508 C 0.90279 0.09524 0.51645 0.0
H509 H 0.12496 0.60939 0.54262 0.0
H510 H 0.16654 0.63323 0.50082 0.0
H511 H 0.17072 0.54919 0.50921 0.0
H512 H 0.12998 0.51868 0.70383 0.0
H513 H 0.11569 0.48648 0.66964 0.0
H514 H 0.11603 0.54828 0.65691 0.0
H515 H 0.11106 0.53928 0.49207 0.0
H516 H 0.11076 0.47747 0.5042 0.0
H517 H 0.12166 0.50372 0.42614 0.0
H518 H 0.16985 0.4613 0.5103 0.0
H519 H 0.16462 0.37818 0.52499 0.0
H520 H 0.12414 0.4127 0.58557 0.0
C521 C 0.13494 0.59682 0.53509 0.0
C522 C 0.14544 0.62767 0.51949 0.0
C523 C 0.15838 0.61018 0.51196 0.0
C524 C 0.16082 0.56246 0.51654 0.0
C525 C 0.15024 0.53284 0.53125 0.0
C526 C 0.13759 0.54947 0.54243 0.0
C527 C 0.12805 0.51067 0.56221 0.0
C528 C 0.12209 0.51638 0.65358 0.0
C529 C 0.11725 0.50762 0.49195 0.0
C530 C 0.13723 0.46945 0.55852 0.0
C531 C 0.14996 0.48285 0.53936 0.0
C532 C 0.15998 0.45054 0.52719 0.0
C533 C 0.15694 0.40342 0.53577 0.0
C534 C 0.14408 0.38913 0.55843 0.0
C535 C 0.13413 0.4227 0.56996 0.0
H536 H 0.67367 0.60471 0.02857 0.0
H537 H 0.63211 0.63302 0.06161 0.0
H538 H 0.62751 0.54889 0.06164 0.0
H539 H 0.67075 0.50664 0.88895 0.0
H540 H 0.68428 0.47597 0.93873 0.0
H541 H 0.68407 0.53812 0.93917 0.0
H542 H 0.68636 0.53817 0.10746 0.0
H543 H 0.68665 0.47603 0.10751 0.0
H544 H 0.67468 0.50642 0.17226 0.0
H545 H 0.62768 0.4602 0.05026 0.0
H546 H 0.6328 0.3764 0.04553 0.0
H547 H 0.67442 0.40785 0.03228 0.0
C548 C 0.66359 0.59326 0.0358 0.0
C549 C 0.6532 0.62535 0.04454 0.0
C550 C 0.64018 0.60899 0.05492 0.0
C551 C 0.6375 0.56128 0.05463 0.0
C552 C 0.648 0.53048 0.04534 0.0
C553 C 0.66081 0.54598 0.03753 0.0
C554 C 0.67045 0.50621 0.03194 0.0
C555 C 0.67782 0.50679 0.94449 0.0
C556 C 0.6801 0.50675 0.10942 0.0
C557 C 0.6611 0.46571 0.03734 0.0
C558 C 0.64816 0.48021 0.04367 0.0
C559 C 0.63779 0.44861 0.04605 0.0
C560 C 0.64076 0.40114 0.04278 0.0
C561 C 0.65397 0.38586 0.0388 0.0
C562 C 0.66422 0.41865 0.03618 0.0
H563 H 0.37454 0.91337 0.91062 0.0
H564 H 0.40626 0.88865 0.09472 0.0
H565 H 0.41086 0.97264 0.09933 0.0
H566 H 0.39016 0.00794 0.79197 0.0
H567 H 0.37493 0.03913 0.7782 0.0
H568 H 0.37479 0.97705 0.78544 0.0
H569 H 0.35837 0.98157 0.914 0.0
H570 H 0.35846 0.04359 0.90722 0.0
H571 H 0.36253 0.01545 1.00863 0.0
H572 H 0.41107 0.06045 0.08939 0.0
H573 H 0.40685 0.14372 0.06691 0.0
H574 H 0.37497 0.11071 0.88908 0.0
C575 C 0.38256 0.92557 0.95123 0.0
C576 C 0.39011 0.89445 1.00198 0.0
C577 C 0.40043 0.91181 0.05475 0.0
C578 C 0.40309 0.95948 0.05782 0.0
C579 C 0.39535 0.98931 1.00755 0.0
C580 C 0.38531 0.97293 0.95509 0.0
C581 C 0.37809 0.01216 0.90998 0.0
C582 C 0.37959 0.00886 0.81049 0.0
C583 C 0.3635 0.01325 0.93658 0.0
C584 C 0.3855 0.05335 0.94611 0.0
C585 C 0.39547 0.03949 1.00188 0.0
C586 C 0.40337 0.07155 0.04521 0.0
C587 C 0.40092 0.11883 0.03183 0.0
C588 C 0.39066 0.13375 0.97567 0.0
C589 C 0.38296 0.1004 0.93182 0.0
H590 H 0.41294 0.41328 0.09504 0.0
H591 H 0.38056 0.38863 0.91631 0.0
H592 H 0.37582 0.47253 0.91271 0.0
H593 H 0.39775 0.50819 0.2161 0.0
H594 H 0.41304 0.53929 0.22673 0.0
H595 H 0.41315 0.4772 0.22013 0.0
H596 H 0.42903 0.48137 0.08855 0.0
H597 H 0.42896 0.54339 0.09468 0.0
H598 H 0.42446 0.5151 0.99435 0.0
H599 H 0.37548 0.56027 0.92297 0.0
H600 H 0.37977 0.64361 0.94387 0.0
H601 H 0.41259 0.61064 0.11449 0.0
C602 C 0.40474 0.42547 0.05595 0.0
C603 C 0.39704 0.39437 1.00643 0.0
C604 C 0.3865 0.41174 0.95544 0.0
C605 C 0.38376 0.45937 0.95295 0.0
C606 C 0.39165 0.48919 1.00189 0.0
C607 C 0.40192 0.47283 0.05254 0.0
C608 C 0.40932 0.5121 0.09586 0.0
C609 C 0.40825 0.509 0.19563 0.0
C610 C 0.4238 0.51303 0.06658 0.0
C611 C 0.40176 0.55327 0.06067 0.0
C612 C 0.39153 0.53938 1.00714 0.0
C613 C 0.38342 0.57141 0.9652 0.0
C614 C 0.38593 0.61871 0.97746 0.0
C615 C 0.3965 0.63362 0.03086 0.0
C616 C 0.40439 0.60031 0.07367 0.0
H617 H 0.62517 0.10485 0.9948 0.0
H618 H 0.66671 0.13352 0.02991 0.0
H619 H 0.67122 0.04972 0.04199 0.0
H620 H 0.62413 0.01549 0.15657 0.0
H621 H 0.61214 0.98123 0.09881 0.0
H622 H 0.61241 0.04293 0.08471 0.0
H623 H 0.61469 0.03238 0.91778 0.0
H624 H 0.61444 0.97061 0.93137 0.0
H625 H 0.62797 0.99773 0.87547 0.0
H626 H 0.67114 0.96174 0.0411 0.0
H627 H 0.6662 0.87834 0.05201 0.0
H628 H 0.62444 0.90823 0.04153 0.0
C629 C 0.63524 0.0934 1.00406 0.0
C630 C 0.64568 0.12551 1.0091 0.0
C631 C 0.65864 0.1094 1.02404 0.0
C632 C 0.66127 0.06188 0.03104 0.0
C633 C 0.65076 0.03103 1.02547 0.0
C634 C 0.63796 0.04624 1.01424 0.0
C635 C 0.62831 1.00636 1.01749 0.0
C636 C 0.61869 0.01184 0.09396 0.0
C637 C 0.62092 1.00149 0.93034 0.0
C638 C 0.63767 0.96628 0.03221 0.0
C639 C 0.6506 0.98108 0.03436 0.0
C640 C 0.66104 0.94993 0.04144 0.0
C641 C 0.65816 0.90261 0.04783 0.0
C642 C 0.64498 0.88701 0.0503 0.0
C643 C 0.63462 0.91936 0.04207 0.0
H644 H 0.16161 0.30148 0.25287 0.0
H645 H 0.13608 0.18392 0.30099 0.0
H646 H 0.13452 0.16961 0.14413 0.0
H647 H 0.14462 0.34143 0.0628 0.0
H648 H 0.15916 0.35847 1.00388 0.0
H649 H 0.15923 0.35871 0.12127 0.0
H650 H 0.1796 0.30491 0.12209 0.0
H651 H 0.17959 0.30455 1.00459 0.0
H652 H 0.17895 0.2509 0.06401 0.0
H653 H 0.13435 0.16925 0.98563 0.0
H654 H 0.1357 0.18269 0.82827 0.0
H655 H 0.16146 0.30001 0.87314 0.0
C656 C 0.15584 0.27246 0.23016 0.0
C657 C 0.14894 0.24393 0.28968 0.0
C658 C 0.14138 0.20656 0.25722 0.0
C659 C 0.14046 0.19791 0.16796 0.0
C660 C 0.14716 0.22681 0.11109 0.0
C661 C 0.15474 0.2633 0.14014 0.0
C662 C 0.16042 0.2898 0.0631 0.0
C663 C 0.15557 0.34008 0.06277 0.0
C664 C 0.17554 0.28738 0.0635 0.0
C665 C 0.15466 0.26274 0.98694 0.0
C666 C 0.14711 0.22649 1.01704 0.0
C667 C 0.1403 0.19731 0.96099 0.0
C668 C 0.1411 0.20543 0.87148 0.0
C669 C 0.14868 0.24242 0.83804 0.0
C670 C 0.1557 0.27119 0.89671 0.0
H671 H 0.9107 0.25571 0.22238 0.0
H672 H 0.86874 0.27556 0.26361 0.0
H673 H 0.86527 0.28171 0.1063 0.0
H674 H 0.91339 0.33402 0.03261 0.0
H675 H 0.92483 0.29748 0.97535 0.0
H676 H 0.92456 0.29749 0.09284 0.0
H677 H 0.92098 0.20904 0.09287 0.0
H678 H 0.92123 0.20877 0.9755 0.0
H679 H 0.90733 0.18505 0.03279 0.0
H680 H 0.86556 0.28149 0.94883 0.0
H681 H 0.86962 0.27448 0.79225 0.0
H682 H 0.9114 0.25518 0.84224 0.0
C683 C 0.90084 0.26187 0.19801 0.0
C684 C 0.88999 0.26495 0.25572 0.0
C685 C 0.87721 0.27259 0.22123 0.0
C686 C 0.87512 0.27644 0.1317 0.0
C687 C 0.88588 0.27263 0.07665 0.0
C688 C 0.89851 0.26554 0.10762 0.0
C689 C 0.90811 0.26067 0.03204 0.0
C690 C 0.91833 0.29975 0.03331 0.0
C691 C 0.91481 0.21305 0.03341 0.0
C692 C 0.8988 0.26543 0.95448 0.0
C693 C 0.88606 0.27257 0.9828 0.0
C694 C 0.87549 0.2762 0.92554 0.0
C695 C 0.87791 0.27189 0.83658 0.0
C696 C 0.89081 0.26411 0.80494 0.0
C697 C 0.90147 0.26154 0.86464 0.0
H698 H 0.13466 0.80207 0.21046 0.0
H699 H 0.16159 0.68879 0.26331 0.0
H700 H 0.16438 0.67614 0.10663 0.0
H701 H 0.11944 0.75024 1.01215 0.0
H702 H 0.11842 0.80451 0.95494 0.0
H703 H 0.11747 0.80323 0.07223 0.0
H704 H 0.13689 0.86079 0.08151 0.0
H705 H 0.13797 0.86196 0.96436 0.0
H706 H 0.15223 0.84691 0.02871 0.0
H707 H 0.16592 0.67818 0.94911 0.0
H708 H 0.16533 0.69216 0.79198 0.0
H709 H 0.13729 0.80379 0.83035 0.0
C710 C 0.14091 0.77411 0.18858 0.0
C711 C 0.14793 0.74642 0.24922 0.0
C712 C 0.15619 0.71064 0.21825 0.0
C713 C 0.15782 0.70303 0.12924 0.0
C714 C 0.15113 0.73144 0.07112 0.0
C715 C 0.14275 0.76608 0.09866 0.0
C716 C 0.13729 0.79248 1.02042 0.0
C717 C 0.12226 0.78729 1.0146 0.0
C718 C 0.14134 0.84357 1.024 0.0
C719 C 0.1441 0.76751 0.94561 0.0
C720 C 0.15199 0.73244 0.97733 0.0
C721 C 0.15969 0.70524 0.9231 0.0
C722 C 0.15932 0.71373 0.8336 0.0
C723 C 0.15126 0.74911 0.7982 0.0
C724 C 0.14349 0.77633 0.85524 0.0
H725 H 0.9076 0.72041 0.83291 0.0
H726 H 0.87765 0.82558 0.79071 0.0
H727 H 0.87539 0.83559 0.94786 0.0
H728 H 0.89251 0.66879 1.01832 0.0
H729 H 0.90755 0.65837 0.07791 0.0
H730 H 0.90776 0.66037 0.96058 0.0
H731 H 0.92557 0.72418 0.96539 0.0
H732 H 0.92546 0.72221 0.08283 0.0
H733 H 0.92257 0.77606 1.02702 0.0
H734 H 0.8747 0.83152 0.10498 0.0
H735 H 0.87658 0.81639 0.26158 0.0
H736 H 0.90744 0.71575 0.21276 0.0
C737 C 0.90072 0.74593 0.85705 0.0
C738 C 0.89276 0.77197 0.799 0.0
C739 C 0.88379 0.80479 0.83322 0.0
C740 C 0.88244 0.81098 0.92274 0.0
C741 C 0.89016 0.78434 0.97807 0.0
C742 C 0.89922 0.75272 0.94744 0.0
C743 C 0.90592 0.72799 1.02324 0.0
C744 C 0.90327 0.67578 1.01978 0.0
C745 C 0.92076 0.73823 1.02469 0.0
C746 C 0.89899 0.75029 0.10036 0.0
C747 C 0.88995 0.78264 0.07178 0.0
C748 C 0.88182 0.80662 0.12858 0.0
C749 C 0.88291 0.79748 0.2175 0.0
C750 C 0.89213 0.76483 0.24943 0.0
C751 C 0.90039 0.74115 0.19009 0.0
H752 H 0.66191 0.79725 0.3616 0.0
H753 H 0.63209 0.69242 0.31684 0.0
H754 H 0.63088 0.67765 0.4739 0.0
H755 H 0.67829 0.73993 0.54641 0.0
H756 H 0.68091 0.79253 0.60661 0.0
H757 H 0.68031 0.79382 0.48919 0.0
H758 H 0.66173 0.85497 0.49472 0.0
H759 H 0.6623 0.85395 0.61207 0.0
H760 H 0.647 0.84295 0.5559 0.0
H761 H 0.63224 0.67389 0.63163 0.0
H762 H 0.63496 0.68463 0.78848 0.0
H763 H 0.66331 0.79422 0.74172 0.0
C764 C 0.65523 0.77101 0.38521 0.0
C765 C 0.64708 0.746 0.32675 0.0
C766 C 0.63834 0.7123 0.36008 0.0
C767 C 0.63764 0.70337 0.44932 0.0
C768 C 0.64565 0.72864 0.5052 0.0
C769 C 0.65421 0.76204 0.4753 0.0
C770 C 0.6611 0.78563 0.55164 0.0
C771 C 0.67604 0.77748 0.54824 0.0
C772 C 0.65783 0.83745 0.55368 0.0
C773 C 0.65493 0.76036 0.62848 0.0
C774 C 0.64618 0.72733 0.59911 0.0
C775 C 0.63905 0.69966 0.6557 0.0
C776 C 0.64066 0.70623 0.74511 0.0
C777 C 0.6493 0.74053 0.77813 0.0
C778 C 0.65668 0.76763 0.71871 0.0
H779 H 0.40671 0.80583 0.71417 0.0
H780 H 0.37779 0.69726 0.75369 0.0
H781 H 0.3766 0.68446 0.59665 0.0
H782 H 0.39183 0.8522 0.52074 0.0
H783 H 0.40708 0.8644 0.4656 0.0
H784 H 0.40651 0.86432 0.58293 0.0
H785 H 0.42531 0.80393 0.58761 0.0
H786 H 0.42592 0.80378 0.47019 0.0
H787 H 0.42349 0.7505 0.52869 0.0
H788 H 0.37728 0.68442 0.43936 0.0
H789 H 0.3797 0.6979 0.28262 0.0
H790 H 0.40835 0.80582 0.33427 0.0
C791 C 0.40023 0.77918 0.68951 0.0
C792 C 0.39232 0.75271 0.74676 0.0
C793 C 0.38389 0.71835 0.71182 0.0
C794 C 0.38318 0.71051 0.62237 0.0
C795 C 0.39095 0.7372 0.56782 0.0
C796 C 0.39933 0.77087 0.59918 0.0
C797 C 0.40613 0.79548 0.52398 0.0
C798 C 0.40268 0.84717 0.52329 0.0
C799 C 0.4211 0.78797 0.52787 0.0
C800 C 0.40006 0.77064 0.4462 0.0
C801 C 0.39139 0.73705 0.47407 0.0
C802 C 0.38408 0.7104 0.4164 0.0
C803 C 0.3855 0.71852 0.32741 0.0
C804 C 0.39418 0.75295 0.29626 0.0
C805 C 0.40174 0.77897 0.3564 0.0
H806 H 0.63141 0.26435 0.32544 0.0
H807 H 0.67364 0.25988 0.28284 0.0
H808 H 0.67748 0.26531 0.44045 0.0
H809 H 0.63212 0.34334 0.51496 0.0
H810 H 0.6193 0.31322 0.57268 0.0
H811 H 0.61951 0.31298 0.45519 0.0
H812 H 0.61934 0.22365 0.45579 0.0
H813 H 0.61916 0.22361 0.57319 0.0
H814 H 0.63188 0.19285 0.51571 0.0
H815 H 0.67725 0.26779 0.59774 0.0
H816 H 0.67316 0.26462 0.75389 0.0
H817 H 0.6309 0.26487 0.70605 0.0
C818 C 0.64143 0.26522 0.34974 0.0
C819 C 0.65225 0.2618 0.292 0.0
C820 C 0.66522 0.26221 0.32585 0.0
C821 C 0.66752 0.26553 0.4153 0.0
C822 C 0.65673 0.26808 0.47064 0.0
C823 C 0.64393 0.2678 0.44005 0.0
C824 C 0.63427 0.26805 0.51595 0.0
C825 C 0.62579 0.31202 0.51459 0.0
C826 C 0.62565 0.22444 0.51508 0.0
C827 C 0.64372 0.26796 0.59333 0.0
C828 C 0.65659 0.26846 0.56451 0.0
C829 C 0.66722 0.26746 0.62139 0.0
C830 C 0.66473 0.26541 0.71049 0.0
C831 C 0.65167 0.26411 0.74313 0.0
C832 C 0.64098 0.26596 0.68343 0.0
H833 H 0.41359 0.26194 0.29854 0.0
H834 H 0.37155 0.26211 0.24394 0.0
H835 H 0.36688 0.25514 0.39928 0.0
H836 H 0.4123 0.18057 0.48345 0.0
H837 H 0.42449 0.2108 0.54711 0.0
H838 H 0.42504 0.21311 0.42975 0.0
H839 H 0.42448 0.30239 0.43523 0.0
H840 H 0.42396 0.30034 0.55252 0.0
H841 H 0.41135 0.33094 0.4929 0.0
H842 H 0.36609 0.25094 0.55616 0.0
H843 H 0.36925 0.25283 0.71427 0.0
H844 H 0.41169 0.25637 0.67883 0.0
C845 C 0.40345 0.26016 0.31965 0.0
C846 C 0.39295 0.26288 0.25862 0.0
C847 C 0.37979 0.26075 0.28889 0.0
C848 C 0.37699 0.25641 0.37729 0.0
C849 C 0.38743 0.25433 0.43569 0.0
C850 C 0.4004 0.25632 0.40909 0.0
C851 C 0.40956 0.25559 0.48801 0.0
C852 C 0.41837 0.21244 0.48699 0.0
C853 C 0.41782 0.29996 0.49241 0.0
C854 C 0.39962 0.25345 0.56217 0.0
C855 C 0.38695 0.25234 0.5294 0.0
C856 C 0.37596 0.25168 0.58297 0.0
C857 C 0.37788 0.25296 0.67292 0.0
C858 C 0.39071 0.25496 0.70921 0.0
C859 C 0.40177 0.25447 0.65298 0.0
H860 H 0.04942 0.26314 0.60201 0.0
H861 H 0.05853 0.27767 0.32714 0.0
H862 H 0.0349 0.28815 0.29455 0.0
H863 H 1.02004 0.19912 0.57516 0.0
H864 H 1.01139 0.22649 0.66355 0.0
H865 H 0.02907 0.22257 0.66622 0.0
H866 H 0.03068 0.31125 0.68448 0.0
H867 H 1.01298 0.31546 0.68203 0.0
H868 H 0.0227 0.34846 0.60623 0.0
H869 H 1.01021 0.29357 0.29059 0.0
H870 H 0.98621 0.2938 0.31563 0.0
H871 H 0.99296 0.27653 0.59318 0.0
C872 C 0.04649 0.26935 0.53513 0.0
C873 C 0.0559 0.26951 0.46713 0.0
C874 C 0.05155 0.27685 0.3803 0.0
C875 C 0.03814 0.28314 0.36116 0.0
C876 C 0.02913 0.28223 0.4295 0.0
C877 C 0.03312 0.2757 0.51481 0.0
C878 C 1.02136 0.27468 0.57573 0.0
C879 C 1.02041 0.22793 0.62292 0.0
C880 C 0.02197 0.31486 0.64097 0.0
C881 C 1.01015 0.28104 0.51121 0.0
C882 C 1.01487 0.28552 0.42726 0.0
C883 C 1.00641 0.29031 0.35612 0.0
C884 C 0.99278 0.29014 0.37097 0.0
C885 C 0.98766 0.28517 0.45632 0.0
C886 C 0.99654 0.28105 0.52732 0.0
H887 H 0.99363 0.76867 0.62084 0.0
H888 H 0.98741 0.65854 0.4334 0.0
H889 H 1.0114 0.65268 0.41176 0.0
H890 H 1.01943 0.82438 0.50472 0.0
H891 H 0.02861 0.84017 0.60089 0.0
H892 H 1.011 0.83366 0.60643 0.0
H893 H 1.01366 0.77399 0.73113 0.0
H894 H 0.03128 0.78048 0.72627 0.0
H895 H 0.02399 0.7241 0.71499 0.0
H896 H 0.03616 0.66144 0.40469 0.0
H897 H 0.05961 0.68331 0.41477 0.0
H898 H 0.04971 0.7881 0.60584 0.0
C899 C 0.99727 0.74327 0.57515 0.0
C900 C 0.9885 0.71393 0.52917 0.0
C901 C 0.99382 0.68089 0.47081 0.0
C902 C 1.00747 0.67751 0.45748 0.0
C903 C 1.01577 0.70738 0.50289 0.0
C904 C 1.01087 0.73952 0.56081 0.0
C905 C 0.02187 0.76837 0.59972 0.0
C906 C 1.02012 0.81968 0.57653 0.0
C907 C 0.02275 0.76129 0.69891 0.0
C908 C 0.03372 0.7478 0.5539 0.0
C909 C 0.02999 0.71254 0.49857 0.0
C910 C 0.03919 0.68879 0.44833 0.0
C911 C 0.05252 0.70135 0.45485 0.0
C912 C 0.05661 0.73744 0.51117 0.0
C913 C 0.04698 0.76075 0.56131 0.0
H914 H 0.5497 0.7787 0.97644 0.0
H915 H 0.55563 0.72324 0.23657 0.0
H916 H 0.53165 0.72586 0.26167 0.0
H917 H 0.52307 0.85737 0.03331 0.0
H918 H 0.5143 0.84805 0.93254 0.0
H919 H 0.53197 0.84265 0.93573 0.0
H920 H 0.53018 0.75984 0.87334 0.0
H921 H 0.51251 0.76492 0.87022 0.0
H922 H 0.52011 0.71783 0.92856 0.0
H923 H 0.50679 0.73275 0.25727 0.0
H924 H 0.4832 0.74489 0.22458 0.0
H925 H 0.49345 0.79621 0.96775 0.0
C926 C 0.546 0.76774 0.03923 0.0
C927 C 0.55464 0.75064 0.10443 0.0
C928 C 0.54927 0.73591 0.18504 0.0
C929 C 0.53564 0.7375 0.20015 0.0
C930 C 0.52742 0.75406 0.13422 0.0
C931 C 0.5324 0.76911 0.05547 0.0
C932 C 0.52141 0.7847 0.99492 0.0
C933 C 0.52277 0.83626 0.97285 0.0
C934 C 0.52103 0.75504 0.91186 0.0
C935 C 0.50947 0.77587 0.05173 0.0
C936 C 0.51314 0.7582 0.13184 0.0
C937 C 0.50382 0.74666 0.19473 0.0
C938 C 0.49041 0.75341 0.17533 0.0
C939 C 0.48638 0.7716 0.09364 0.0
C940 C 0.49614 0.78292 0.03133 0.0
H941 H 0.49316 0.28445 0.06756 0.0
H942 H 0.48774 0.16499 0.90078 0.0
H943 H 0.51176 0.15909 0.88175 0.0
H944 H 0.52 0.33455 0.94803 0.0
H945 H 0.52873 0.35399 0.04364 0.0
H946 H 0.51106 0.34868 0.04577 0.0
H947 H 0.51274 0.29457 0.17986 0.0
H948 H 0.53041 0.29989 0.17837 0.0
H949 H 0.5229 0.2436 0.17403 0.0
H950 H 0.53633 0.16711 0.87701 0.0
H951 H 0.55984 0.18688 0.89137 0.0
H952 H 0.54962 0.29996 0.06416 0.0
C953 C 0.49703 0.25708 1.02704 0.0
C954 C 0.48851 0.22494 0.98628 0.0
C955 C 0.49402 0.1895 0.93408 0.0
C956 C 0.50767 0.18606 0.92227 0.0
C957 C 0.51577 0.21822 0.96318 0.0
C958 C 0.51069 0.25292 1.01492 0.0
C959 C 0.52164 0.28278 0.05189 0.0
C960 C 0.52027 0.33298 1.02043 0.0
C961 C 0.52193 0.28002 0.15198 0.0
C962 C 0.53362 0.25961 1.01232 0.0
C963 C 0.53 0.22251 0.96124 0.0
C964 C 0.5393 0.1959 0.9174 0.0
C965 C 0.55266 0.20726 0.92643 0.0
C966 C 0.55669 0.24486 0.97927 0.0
C967 C 0.54694 0.27134 1.02243 0.0
loop_
_geom_bond_atom_site_label_1
_geom_bond_atom_site_label_2
_geom_bond_distance
_geom_bond_site_symmetry_2
_ccdc_geom_bond_type
Tb0 C2 2.809 . S
Tb0 O20 2.484 . S
Tb0 O21 2.440 . S
Tb0 O22 2.658 . S
Tb0 O23 2.409 . S
Tb0 O24 2.378 . S
Tb0 O28 2.325 . S
Tb0 O31 2.341 . S
Tb1 C11 2.809 . S
Tb1 O22 2.325 . S
Tb1 O25 2.341 . S
Tb1 O26 2.484 . S
Tb1 O27 2.440 . S
Tb1 O28 2.658 . S
Tb1 O29 2.409 . S
Tb1 O30 2.378 . S
C2 Tb0 2.809 . S
C2 C3 1.514 . S
C2 O20 1.248 . S
C2 O21 1.266 . S
C3 C2 1.514 . S
C3 C4 1.359 . S
C3 C8 1.348 . S
C4 C3 1.359 . S
C4 C5 1.380 . S
C4 H32 0.929 . S
C5 C4 1.380 . S
C5 C6 1.347 . S
C5 H33 0.931 . S
C6 C5 1.347 . S
C6 C7 1.369 . S
C7 C6 1.369 . S
C7 C8 1.408 . S
C7 H34 0.930 . S
C8 C3 1.348 . S
C8 C7 1.408 . S
C8 H35 0.930 . S
C9 O22 1.281 . S
C9 O23 1.254 . S
C10 O24 1.236 . S
C10 O25 1.266 . S
C11 Tb1 2.809 . S
C11 C12 1.514 . S
C11 O26 1.248 . S
C11 O27 1.266 . S
C12 C11 1.514 . S
C12 C13 1.359 . S
C12 C17 1.348 . S
C13 C12 1.359 . S
C13 C14 1.380 . S
C13 H36 0.929 . S
C14 C13 1.380 . S
C14 C15 1.347 . S
C14 H37 0.931 . S
C15 C14 1.347 . S
C15 C16 1.369 . S
C16 C15 1.369 . S
C16 C17 1.408 . S
C16 H38 0.930 . S
C17 C12 1.348 . S
C17 C16 1.408 . S
C17 H39 0.930 . S
C18 O28 1.281 . S
C18 O29 1.254 . S
C19 O30 1.236 . S
C19 O31 1.266 . S
O20 Tb0 2.484 . S
O20 C2 1.248 . S
O21 Tb0 2.440 . S
O21 C2 1.266 . S
O22 Tb0 2.658 . S
O22 Tb1 2.325 . S
O22 C9 1.281 . S
O23 Tb0 2.409 . S
O23 C9 1.254 . S
O24 Tb0 2.378 . S
O24 C10 1.236 . S
O25 Tb1 2.341 . S
O25 C10 1.266 . S
O26 Tb1 2.484 . S
O26 C11 1.248 . S
O27 Tb1 2.440 . S
O27 C11 1.266 . S
O28 Tb0 2.325 . S
O28 Tb1 2.658 . S
O28 C18 1.281 . S
O29 Tb1 2.409 . S
O29 C18 1.254 . S
O30 Tb1 2.378 . S
O30 C19 1.236 . S
O31 Tb0 2.341 . S
O31 C19 1.266 . S
H32 C4 0.929 . S
H33 C5 0.931 . S
H34 C7 0.930 . S
H35 C8 0.930 . S
H36 C13 0.929 . S
H37 C14 0.931 . S
H38 C16 0.930 . S
H39 C17 0.930 . S
Tb40 C42 2.809 . S
Tb40 O60 2.484 . S
Tb40 O61 2.440 . S
Tb40 O62 2.658 . S
Tb40 O63 2.409 . S
Tb40 O64 2.378 . S
Tb40 O68 2.325 . S
Tb40 O71 2.341 . S
Tb41 C51 2.809 . S
Tb41 O62 2.325 . S
Tb41 O65 2.341 . S
Tb41 O66 2.484 . S
Tb41 O67 2.440 . S
Tb41 O68 2.658 . S
Tb41 O69 2.409 . S
Tb41 O70 2.378 . S
C42 Tb40 2.809 . S
C42 C43 1.514 . S
C42 O60 1.248 . S
C42 O61 1.266 . S
C43 C42 1.514 . S
C43 C44 1.359 . S
C43 C48 1.348 . S
C44 C43 1.359 . S
C44 C45 1.380 . S
C44 H72 0.929 . S
C45 C44 1.380 . S
C45 C46 1.347 . S
C45 H73 0.931 . S
C46 C45 1.347 . S
C46 C47 1.369 . S
C47 C46 1.369 . S
C47 C48 1.408 . S
C47 H74 0.930 . S
C48 C43 1.348 . S
C48 C47 1.408 . S
C48 H75 0.930 . S
C49 O62 1.281 . S
C49 O63 1.254 . S
C50 O64 1.236 . S
C50 O65 1.266 . S
C51 Tb41 2.809 . S
C51 C52 1.514 . S
C51 O66 1.248 . S
C51 O67 1.266 . S
C52 C51 1.514 . S
C52 C53 1.359 . S
C52 C57 1.348 . S
C53 C52 1.359 . S
C53 C54 1.380 . S
C53 H76 0.929 . S
C54 C53 1.380 . S
C54 C55 1.347 . S
C54 H77 0.931 . S
C55 C54 1.347 . S
C55 C56 1.369 . S
C56 C55 1.369 . S
C56 C57 1.408 . S
C56 H78 0.930 . S
C57 C52 1.348 . S
C57 C56 1.408 . S
C57 H79 0.930 . S
C58 O68 1.281 . S
C58 O69 1.254 . S
C59 O70 1.236 . S
C59 O71 1.266 . S
O60 Tb40 2.484 . S
O60 C42 1.248 . S
O61 Tb40 2.440 . S
O61 C42 1.266 . S
O62 Tb40 2.658 . S
O62 Tb41 2.325 . S
O62 C49 1.281 . S
O63 Tb40 2.409 . S
O63 C49 1.254 . S
O64 Tb40 2.378 . S
O64 C50 1.236 . S
O65 Tb41 2.341 . S
O65 C50 1.266 . S
O66 Tb41 2.484 . S
O66 C51 1.248 . S
O67 Tb41 2.440 . S
O67 C51 1.266 . S
O68 Tb40 2.325 . S
O68 Tb41 2.658 . S
O68 C58 1.281 . S
O69 Tb41 2.409 . S
O69 C58 1.254 . S
O70 Tb41 2.378 . S
O70 C59 1.236 . S
O71 Tb40 2.341 . S
O71 C59 1.266 . S
H72 C44 0.929 . S
H73 C45 0.931 . S
H74 C47 0.930 . S
H75 C48 0.930 . S
H76 C53 0.929 . S
H77 C54 0.931 . S
H78 C56 0.930 . S
H79 C57 0.930 . S
Tb80 C82 2.809 . S
Tb80 O100 2.484 . S
Tb80 O101 2.440 . S
Tb80 O102 2.658 . S
Tb80 O103 2.409 . S
Tb80 O104 2.378 . S
Tb80 O108 2.325 . S
Tb80 O111 2.341 . S
Tb81 C91 2.809 . S
Tb81 O102 2.325 . S
Tb81 O105 2.341 . S
Tb81 O106 2.484 . S
Tb81 O107 2.440 . S
Tb81 O108 2.658 . S
Tb81 O109 2.409 . S
Tb81 O110 2.378 . S
C82 Tb80 2.809 . S
C82 C83 1.514 . S
C82 O100 1.248 . S
C82 O101 1.266 . S
C83 C82 1.514 . S
C83 C84 1.359 . S
C83 C88 1.348 . S
C84 C83 1.359 . S
C84 C85 1.380 . S
C84 H112 0.929 . S
C85 C84 1.380 . S
C85 C86 1.347 . S
C85 H113 0.931 . S
C86 C85 1.347 . S
C86 C87 1.369 . S
C87 C86 1.369 . S
C87 C88 1.408 . S
C87 H114 0.930 . S
C88 C83 1.348 . S
C88 C87 1.408 . S
C88 H115 0.930 . S
C89 O102 1.281 . S
C89 O103 1.254 . S
C90 O104 1.236 . S
C90 O105 1.266 . S
C91 Tb81 2.809 . S
C91 C92 1.514 . S
C91 O106 1.248 . S
C91 O107 1.266 . S
C92 C91 1.514 . S
C92 C93 1.359 . S
C92 C97 1.348 . S
C93 C92 1.359 . S
C93 C94 1.380 . S
C93 H116 0.929 . S
C94 C93 1.380 . S
C94 C95 1.347 . S
C94 H117 0.931 . S
C95 C94 1.347 . S
C95 C96 1.369 . S
C96 C95 1.369 . S
C96 C97 1.408 . S
C96 H118 0.930 . S
C97 C92 1.348 . S
C97 C96 1.408 . S
C97 H119 0.930 . S
C98 O108 1.281 . S
C98 O109 1.254 . S
C99 O110 1.236 . S
C99 O111 1.266 . S
O100 Tb80 2.484 . S
O100 C82 1.248 . S
O101 Tb80 2.440 . S
O101 C82 1.266 . S
O102 Tb80 2.658 . S
O102 Tb81 2.325 . S
O102 C89 1.281 . S
O103 Tb80 2.409 . S
O103 C89 1.254 . S
O104 Tb80 2.378 . S
O104 C90 1.236 . S
O105 Tb81 2.341 . S
O105 C90 1.266 . S
O106 Tb81 2.484 . S
O106 C91 1.248 . S
O107 Tb81 2.440 . S
O107 C91 1.266 . S
O108 Tb80 2.325 . S
O108 Tb81 2.658 . S
O108 C98 1.281 . S
O109 Tb81 2.409 . S
O109 C98 1.254 . S
O110 Tb81 2.378 . S
O110 C99 1.236 . S
O111 Tb80 2.341 . S
O111 C99 1.266 . S
H112 C84 0.929 . S
H113 C85 0.931 . S
H114 C87 0.930 . S
H115 C88 0.930 . S
H116 C93 0.929 . S
H117 C94 0.931 . S
H118 C96 0.930 . S
H119 C97 0.930 . S
Tb120 C122 2.809 . S
Tb120 O140 2.484 . S
Tb120 O141 2.440 . S
Tb120 O142 2.658 . S
Tb120 O143 2.409 . S
Tb120 O144 2.378 . S
Tb120 O148 2.325 . S
Tb120 O151 2.341 . S
Tb121 C131 2.809 . S
Tb121 O142 2.325 . S
Tb121 O145 2.341 . S
Tb121 O146 2.484 . S
Tb121 O147 2.440 . S
Tb121 O148 2.658 . S
Tb121 O149 2.409 . S
Tb121 O150 2.378 . S
C122 Tb120 2.809 . S
C122 C123 1.514 . S
C122 O140 1.248 . S
C122 O141 1.266 . S
C123 C122 1.514 . S
C123 C124 1.359 . S
C123 C128 1.348 . S
C124 C123 1.359 . S
C124 C125 1.380 . S
C124 H152 0.929 . S
C125 C124 1.380 . S
C125 C126 1.347 . S
C125 H153 0.931 . S
C126 C125 1.347 . S
C126 C127 1.369 . S
C127 C126 1.369 . S
C127 C128 1.408 . S
C127 H154 0.930 . S
C128 C123 1.348 . S
C128 C127 1.408 . S
C128 H155 0.930 . S
C129 O142 1.281 . S
C129 O143 1.254 . S
C130 O144 1.236 . S
C130 O145 1.266 . S
C131 Tb121 2.809 . S
C131 C132 1.514 . S
C131 O146 1.248 . S
C131 O147 1.266 . S
C132 C131 1.514 . S
C132 C133 1.359 . S
C132 C137 1.348 . S
C133 C132 1.359 . S
C133 C134 1.380 . S
C133 H156 0.929 . S
C134 C133 1.380 . S
C134 C135 1.347 . S
C134 H157 0.931 . S
C135 C134 1.347 . S
C135 C136 1.369 . S
C136 C135 1.369 . S
C136 C137 1.408 . S
C136 H158 0.930 . S
C137 C132 1.348 . S
C137 C136 1.408 . S
C137 H159 0.930 . S
C138 O148 1.281 . S
C138 O149 1.254 . S
C139 O150 1.236 . S
C139 O151 1.266 . S
O140 Tb120 2.484 . S
O140 C122 1.248 . S
O141 Tb120 2.440 . S
O141 C122 1.266 . S
O142 Tb120 2.658 . S
O142 Tb121 2.325 . S
O142 C129 1.281 . S
O143 Tb120 2.409 . S
O143 C129 1.254 . S
O144 Tb120 2.378 . S
O144 C130 1.236 . S
O145 Tb121 2.341 . S
O145 C130 1.266 . S
O146 Tb121 2.484 . S
O146 C131 1.248 . S
O147 Tb121 2.440 . S
O147 C131 1.266 . S
O148 Tb120 2.325 . S
O148 Tb121 2.658 . S
O148 C138 1.281 . S
O149 Tb121 2.409 . S
O149 C138 1.254 . S
O150 Tb121 2.378 . S
O150 C139 1.236 . S
O151 Tb120 2.341 . S
O151 C139 1.266 . S
H152 C124 0.929 . S
H153 C125 0.931 . S
H154 C127 0.930 . S
H155 C128 0.930 . S
H156 C133 0.929 . S
H157 C134 0.931 . S
H158 C136 0.930 . S
H159 C137 0.930 . S
Tb160 C162 2.809 1_556 S
Tb160 O180 2.484 1_556 S
Tb160 O181 2.440 1_556 S
Tb160 O182 2.658 . S
Tb160 O183 2.409 . S
Tb160 O184 2.378 1_556 S
Tb160 O188 2.325 1_556 S
Tb160 O191 2.341 . S
Tb161 C171 2.809 1_554 S
Tb161 O182 2.325 1_554 S
Tb161 O185 2.341 . S
Tb161 O186 2.484 1_554 S
Tb161 O187 2.440 1_554 S
Tb161 O188 2.658 . S
Tb161 O189 2.409 . S
Tb161 O190 2.378 1_554 S
C162 Tb160 2.809 1_554 S
C162 C163 1.514 . S
C162 O180 1.248 . S
C162 O181 1.266 . S
C163 C162 1.514 . S
C163 C164 1.359 . S
C163 C168 1.348 . S
C164 C163 1.359 . S
C164 C165 1.380 . S
C164 H192 0.929 . S
C165 C164 1.380 . S
C165 C166 1.347 . S
C165 H193 0.931 . S
C166 C165 1.347 . S
C166 C167 1.369 . S
C167 C166 1.369 . S
C167 C168 1.408 . S
C167 H194 0.930 . S
C168 C163 1.348 . S
C168 C167 1.408 . S
C168 H195 0.930 . S
C169 O182 1.281 . S
C169 O183 1.254 . S
C170 O184 1.236 . S
C170 O185 1.266 . S
C171 Tb161 2.809 1_556 S
C171 C172 1.514 . S
C171 O186 1.248 . S
C171 O187 1.266 . S
C172 C171 1.514 . S
C172 C173 1.359 . S
C172 C177 1.348 . S
C173 C172 1.359 . S
C173 C174 1.380 . S
C173 H196 0.929 . S
C174 C173 1.380 . S
C174 C175 1.347 . S
C174 H197 0.931 . S
C175 C174 1.347 . S
C175 C176 1.369 . S
C176 C175 1.369 . S
C176 C177 1.408 . S
C176 H198 0.930 . S
C177 C172 1.348 . S
C177 C176 1.408 . S
C177 H199 0.930 . S
C178 O188 1.281 . S
C178 O189 1.254 . S
C179 O190 1.236 . S
C179 O191 1.266 . S
O180 Tb160 2.484 1_554 S
O180 C162 1.248 . S
O181 Tb160 2.440 1_554 S
O181 C162 1.266 . S
O182 Tb160 2.658 . S
O182 Tb161 2.325 1_556 S
O182 C169 1.281 . S
O183 Tb160 2.409 . S
O183 C169 1.254 . S
O184 Tb160 2.378 1_554 S
O184 C170 1.236 . S
O185 Tb161 2.341 . S
O185 C170 1.266 . S
O186 Tb161 2.484 1_556 S
O186 C171 1.248 . S
O187 Tb161 2.440 1_556 S
O187 C171 1.266 . S
O188 Tb160 2.325 1_554 S
O188 Tb161 2.658 . S
O188 C178 1.281 . S
O189 Tb161 2.409 . S
O189 C178 1.254 . S
O190 Tb161 2.378 1_556 S
O190 C179 1.236 . S
O191 Tb160 2.341 . S
O191 C179 1.266 . S
H192 C164 0.929 . S
H193 C165 0.931 . S
H194 C167 0.930 . S
H195 C168 0.930 . S
H196 C173 0.929 . S
H197 C174 0.931 . S
H198 C176 0.930 . S
H199 C177 0.930 . S
Tb200 C202 2.809 1_556 S
Tb200 O220 2.484 1_556 S
Tb200 O221 2.440 1_556 S
Tb200 O222 2.658 . S
Tb200 O223 2.409 . S
Tb200 O224 2.378 1_556 S
Tb200 O228 2.325 1_556 S
Tb200 O231 2.341 . S
Tb201 C211 2.809 1_554 S
Tb201 O222 2.325 1_554 S
Tb201 O225 2.341 . S
Tb201 O226 2.484 1_554 S
Tb201 O227 2.440 1_554 S
Tb201 O228 2.658 . S
Tb201 O229 2.409 . S
Tb201 O230 2.378 1_554 S
C202 Tb200 2.809 1_554 S
C202 C203 1.514 . S
C202 O220 1.248 . S
C202 O221 1.266 . S
C203 C202 1.514 . S
C203 C204 1.359 . S
C203 C208 1.348 . S
C204 C203 1.359 . S
C204 C205 1.380 . S
C204 H232 0.929 . S
C205 C204 1.380 . S
C205 C206 1.347 . S
C205 H233 0.931 . S
C206 C205 1.347 . S
C206 C207 1.369 . S
C207 C206 1.369 . S
C207 C208 1.408 . S
C207 H234 0.930 . S
C208 C203 1.348 . S
C208 C207 1.408 . S
C208 H235 0.930 . S
C209 O222 1.281 . S
C209 O223 1.254 . S
C210 O224 1.236 . S
C210 O225 1.266 . S
C211 Tb201 2.809 1_556 S
C211 C212 1.514 . S
C211 O226 1.248 . S
C211 O227 1.266 . S
C212 C211 1.514 . S
C212 C213 1.359 . S
C212 C217 1.348 . S
C213 C212 1.359 . S
C213 C214 1.380 . S
C213 H236 0.929 . S
C214 C213 1.380 . S
C214 C215 1.347 . S
C214 H237 0.931 . S
C215 C214 1.347 . S
C215 C216 1.369 . S
C216 C215 1.369 . S
C216 C217 1.408 . S
C216 H238 0.930 . S
C217 C212 1.348 . S
C217 C216 1.408 . S
C217 H239 0.930 . S
C218 O228 1.281 . S
C218 O229 1.254 . S
C219 O230 1.236 . S
C219 O231 1.266 . S
O220 Tb200 2.484 1_554 S
O220 C202 1.248 . S
O221 Tb200 2.440 1_554 S
O221 C202 1.266 . S
O222 Tb200 2.658 . S
O222 Tb201 2.325 1_556 S
O222 C209 1.281 . S
O223 Tb200 2.409 . S
O223 C209 1.254 . S
O224 Tb200 2.378 1_554 S
O224 C210 1.236 . S
O225 Tb201 2.341 . S
O225 C210 1.266 . S
O226 Tb201 2.484 1_556 S
O226 C211 1.248 . S
O227 Tb201 2.440 1_556 S
O227 C211 1.266 . S
O228 Tb200 2.325 1_554 S
O228 Tb201 2.658 . S
O228 C218 1.281 . S
O229 Tb201 2.409 . S
O229 C218 1.254 . S
O230 Tb201 2.378 1_556 S
O230 C219 1.236 . S
O231 Tb200 2.341 . S
O231 C219 1.266 . S
H232 C204 0.929 . S
H233 C205 0.931 . S
H234 C207 0.930 . S
H235 C208 0.930 . S
H236 C213 0.929 . S
H237 C214 0.931 . S
H238 C216 0.930 . S
H239 C217 0.930 . S
Tb240 C242 2.809 1_554 S
Tb240 O260 2.484 1_554 S
Tb240 O261 2.440 1_554 S
Tb240 O262 2.658 . S
Tb240 O263 2.409 . S
Tb240 O264 2.378 1_554 S
Tb240 O268 2.325 1_554 S
Tb240 O271 2.341 . S
Tb241 C251 2.809 1_556 S
Tb241 O262 2.325 1_556 S
Tb241 O265 2.341 . S
Tb241 O266 2.484 1_556 S
Tb241 O267 2.440 1_556 S
Tb241 O268 2.658 . S
Tb241 O269 2.409 . S
Tb241 O270 2.378 1_556 S
C242 Tb240 2.809 1_556 S
C242 C243 1.514 . S
C242 O260 1.248 . S
C242 O261 1.266 . S
C243 C242 1.514 . S
C243 C244 1.359 . S
C243 C248 1.348 . S
C244 C243 1.359 . S
C244 C245 1.380 . S
C244 H272 0.929 . S
C245 C244 1.380 . S
C245 C246 1.347 . S
C245 H273 0.931 . S
C246 C245 1.347 . S
C246 C247 1.369 . S
C247 C246 1.369 . S
C247 C248 1.408 . S
C247 H274 0.930 . S
C248 C243 1.348 . S
C248 C247 1.408 . S
C248 H275 0.930 . S
C249 O262 1.281 . S
C249 O263 1.254 . S
C250 O264 1.236 . S
C250 O265 1.266 . S
C251 Tb241 2.809 1_554 S
C251 C252 1.514 . S
C251 O266 1.248 . S
C251 O267 1.266 . S
C252 C251 1.514 . S
C252 C253 1.359 . S
C252 C257 1.348 . S
C253 C252 1.359 . S
C253 C254 1.380 . S
C253 H276 0.929 . S
C254 C253 1.380 . S
C254 C255 1.347 . S
C254 H277 0.931 . S
C255 C254 1.347 . S
C255 C256 1.369 . S
C256 C255 1.369 . S
C256 C257 1.408 . S
C256 H278 0.930 . S
C257 C252 1.348 . S
C257 C256 1.408 . S
C257 H279 0.930 . S
C258 O268 1.281 . S
C258 O269 1.254 . S
C259 O270 1.236 . S
C259 O271 1.266 . S
O260 Tb240 2.484 1_556 S
O260 C242 1.248 . S
O261 Tb240 2.440 1_556 S
O261 C242 1.266 . S
O262 Tb240 2.658 . S
O262 Tb241 2.325 1_554 S
O262 C249 1.281 . S
O263 Tb240 2.409 . S
O263 C249 1.254 . S
O264 Tb240 2.378 1_556 S
O264 C250 1.236 . S
O265 Tb241 2.341 . S
O265 C250 1.266 . S
O266 Tb241 2.484 1_554 S
O266 C251 1.248 . S
O267 Tb241 2.440 1_554 S
O267 C251 1.266 . S
O268 Tb240 2.325 1_556 S
O268 Tb241 2.658 . S
O268 C258 1.281 . S
O269 Tb241 2.409 . S
O269 C258 1.254 . S
O270 Tb241 2.378 1_554 S
O270 C259 1.236 . S
O271 Tb240 2.341 . S
O271 C259 1.266 . S
H272 C244 0.929 . S
H273 C245 0.931 . S
H274 C247 0.930 . S
H275 C248 0.930 . S
H276 C253 0.929 . S
H277 C254 0.931 . S
H278 C256 0.930 . S
H279 C257 0.930 . S
Tb280 C282 2.809 1_554 S
Tb280 O300 2.484 1_554 S
Tb280 O301 2.440 1_554 S
Tb280 O302 2.658 . S
Tb280 O303 2.409 . S
Tb280 O304 2.378 1_554 S
Tb280 O308 2.325 1_554 S
Tb280 O311 2.341 . S
Tb281 C291 2.809 1_556 S
Tb281 O302 2.325 1_556 S
Tb281 O305 2.341 . S
Tb281 O306 2.484 1_556 S
Tb281 O307 2.440 1_556 S
Tb281 O308 2.658 . S
Tb281 O309 2.409 . S
Tb281 O310 2.378 1_556 S
C282 Tb280 2.809 1_556 S
C282 C283 1.514 . S
C282 O300 1.248 . S
C282 O301 1.266 . S
C283 C282 1.514 . S
C283 C284 1.359 . S
C283 C288 1.348 . S
C284 C283 1.359 . S
C284 C285 1.380 . S
C284 H312 0.929 . S
C285 C284 1.380 . S
C285 C286 1.347 . S
C285 H313 0.931 . S
C286 C285 1.347 . S
C286 C287 1.369 . S
C287 C286 1.369 . S
C287 C288 1.408 . S
C287 H314 0.930 . S
C288 C283 1.348 . S
C288 C287 1.408 . S
C288 H315 0.930 . S
C289 O302 1.281 . S
C289 O303 1.254 . S
C290 O304 1.236 . S
C290 O305 1.266 . S
C291 Tb281 2.809 1_554 S
C291 C292 1.514 . S
C291 O306 1.248 . S
C291 O307 1.266 . S
C292 C291 1.514 . S
C292 C293 1.359 . S
C292 C297 1.348 . S
C293 C292 1.359 . S
C293 C294 1.380 . S
C293 H316 0.929 . S
C294 C293 1.380 . S
C294 C295 1.347 . S
C294 H317 0.931 . S
C295 C294 1.347 . S
C295 C296 1.369 . S
C296 C295 1.369 . S
C296 C297 1.408 . S
C296 H318 0.930 . S
C297 C292 1.348 . S
C297 C296 1.408 . S
C297 H319 0.930 . S
C298 O308 1.281 . S
C298 O309 1.254 . S
C299 O310 1.236 . S
C299 O311 1.266 . S
O300 Tb280 2.484 1_556 S
O300 C282 1.248 . S
O301 Tb280 2.440 1_556 S
O301 C282 1.266 . S
O302 Tb280 2.658 . S
O302 Tb281 2.325 1_554 S
O302 C289 1.281 . S
O303 Tb280 2.409 . S
O303 C289 1.254 . S
O304 Tb280 2.378 1_556 S
O304 C290 1.236 . S
O305 Tb281 2.341 . S
O305 C290 1.266 . S
O306 Tb281 2.484 1_554 S
O306 C291 1.248 . S
O307 Tb281 2.440 1_554 S
O307 C291 1.266 . S
O308 Tb280 2.325 1_556 S
O308 Tb281 2.658 . S
O308 C298 1.281 . S
O309 Tb281 2.409 . S
O309 C298 1.254 . S
O310 Tb281 2.378 1_554 S
O310 C299 1.236 . S
O311 Tb280 2.341 . S
O311 C299 1.266 . S
H312 C284 0.929 . S
H313 C285 0.931 . S
H314 C287 0.930 . S
H315 C288 0.930 . S
H316 C293 0.929 . S
H317 C294 0.931 . S
H318 C296 0.930 . S
H319 C297 0.930 . S
H320 C332 0.930 . S
H321 C334 0.930 . S
H322 C335 0.930 . S
H323 C339 0.959 . S
H324 C339 0.959 . S
H325 C339 0.961 . S
H326 C340 0.960 . S
H327 C340 0.961 . S
H328 C340 0.959 . S
H329 C343 0.929 . S
H330 C344 0.931 . S
H331 C346 0.930 . S
C332 H320 0.930 . S
C332 C333 1.399 . S
C332 C337 1.399 . S
C333 C332 1.399 . S
C333 C334 1.376 . S
C334 H321 0.930 . S
C334 C333 1.376 . S
C334 C335 1.388 . S
C335 H322 0.930 . S
C335 C334 1.388 . S
C335 C336 1.390 . S
C336 C335 1.390 . S
C336 C337 1.394 . S
C336 C342 1.465 . S
C337 C332 1.399 . S
C337 C336 1.394 . S
C337 C338 1.516 . S
C338 C337 1.516 . S
C338 C339 1.502 . S
C338 C340 1.561 . S
C338 C341 1.526 . S
C339 H323 0.959 . S
C339 H324 0.959 . S
C339 H325 0.961 . S
C339 C338 1.502 . S
C340 H326 0.960 . S
C340 H327 0.961 . S
C340 H328 0.959 . S
C340 C338 1.561 . S
C341 C338 1.526 . S
C341 C342 1.396 . S
C341 C346 1.390 . S
C342 C336 1.465 . S
C342 C341 1.396 . S
C342 C343 1.399 . S
C343 H329 0.929 . S
C343 C342 1.399 . S
C343 C344 1.385 . S
C344 H330 0.931 . S
C344 C343 1.385 . S
C344 C345 1.389 . S
C345 C344 1.389 . S
C345 C346 1.387 . S
C346 H331 0.930 . S
C346 C341 1.390 . S
C346 C345 1.387 . S
H347 C359 0.930 . S
H348 C361 0.930 . S
H349 C362 0.930 . S
H350 C366 0.959 . S
H351 C366 0.959 . S
H352 C366 0.961 . S
H353 C367 0.960 . S
H354 C367 0.961 . S
H355 C367 0.959 . S
H356 C370 0.929 . S
H357 C371 0.931 . S
H358 C373 0.930 . S
C359 H347 0.930 . S
C359 C360 1.399 . S
C359 C364 1.399 . S
C360 C359 1.399 . S
C360 C361 1.376 . S
C361 H348 0.930 . S
C361 C360 1.376 . S
C361 C362 1.388 . S
C362 H349 0.930 . S
C362 C361 1.388 . S
C362 C363 1.390 . S
C363 C362 1.390 . S
C363 C364 1.394 . S
C363 C369 1.465 . S
C364 C359 1.399 . S
C364 C363 1.394 . S
C364 C365 1.516 . S
C365 C364 1.516 . S
C365 C366 1.502 . S
C365 C367 1.561 . S
C365 C368 1.526 . S
C366 H350 0.959 . S
C366 H351 0.959 . S
C366 H352 0.961 . S
C366 C365 1.502 . S
C367 H353 0.960 . S
C367 H354 0.961 . S
C367 H355 0.959 . S
C367 C365 1.561 . S
C368 C365 1.526 . S
C368 C369 1.396 . S
C368 C373 1.390 . S
C369 C363 1.465 . S
C369 C368 1.396 . S
C369 C370 1.399 . S
C370 H356 0.929 . S
C370 C369 1.399 . S
C370 C371 1.385 . S
C371 H357 0.931 . S
C371 C370 1.385 . S
C371 C372 1.389 . S
C372 C371 1.389 . S
C372 C373 1.387 . S
C373 H358 0.930 . S
C373 C368 1.390 . S
C373 C372 1.387 . S
H374 C386 0.930 . S
H375 C388 0.930 . S
H376 C389 0.930 . S
H377 C393 0.959 . S
H378 C393 0.959 . S
H379 C393 0.961 . S
H380 C394 0.960 . S
H381 C394 0.961 . S
H382 C394 0.959 . S
H383 C397 0.929 . S
H384 C398 0.931 . S
H385 C400 0.930 . S
C386 H374 0.930 . S
C386 C387 1.399 . S
C386 C391 1.399 . S
C387 C386 1.399 . S
C387 C388 1.376 . S
C388 H375 0.930 . S
C388 C387 1.376 . S
C388 C389 1.388 . S
C389 H376 0.930 . S
C389 C388 1.388 . S
C389 C390 1.390 . S
C390 C389 1.390 . S
C390 C391 1.394 . S
C390 C396 1.465 . S
C391 C386 1.399 . S
C391 C390 1.394 . S
C391 C392 1.516 . S
C392 C391 1.516 . S
C392 C393 1.502 . S
C392 C394 1.561 . S
C392 C395 1.526 . S
C393 H377 0.959 . S
C393 H378 0.959 . S
C393 H379 0.961 . S
C393 C392 1.502 . S
C394 H380 0.960 . S
C394 H381 0.961 . S
C394 H382 0.959 . S
C394 C392 1.561 . S
C395 C392 1.526 . S
C395 C396 1.396 . S
C395 C400 1.390 . S
C396 C390 1.465 . S
C396 C395 1.396 . S
C396 C397 1.399 . S
C397 H383 0.929 . S
C397 C396 1.399 . S
C397 C398 1.385 . S
C398 H384 0.931 . S
C398 C397 1.385 . S
C398 C399 1.389 . S
C399 C398 1.389 . S
C399 C400 1.387 . S
C400 H385 0.930 . S
C400 C395 1.390 . S
C400 C399 1.387 . S
H401 C413 0.930 . S
H402 C415 0.930 . S
H403 C416 0.930 . S
H404 C420 0.959 . S
H405 C420 0.959 . S
H406 C420 0.961 . S
H407 C421 0.960 . S
H408 C421 0.961 . S
H409 C421 0.959 . S
H410 C424 0.929 . S
H411 C425 0.931 . S
H412 C427 0.930 . S
C413 H401 0.930 . S
C413 C414 1.399 . S
C413 C418 1.399 . S
C414 C413 1.399 . S
C414 C415 1.376 . S
C415 H402 0.930 . S
C415 C414 1.376 . S
C415 C416 1.388 . S
C416 H403 0.930 . S
C416 C415 1.388 . S
C416 C417 1.390 . S
C417 C416 1.390 . S
C417 C418 1.394 . S
C417 C423 1.465 . S
C418 C413 1.399 . S
C418 C417 1.394 . S
C418 C419 1.516 . S
C419 C418 1.516 . S
C419 C420 1.502 . S
C419 C421 1.561 . S
C419 C422 1.526 . S
C420 H404 0.959 . S
C420 H405 0.959 . S
C420 H406 0.961 . S
C420 C419 1.502 . S
C421 H407 0.960 . S
C421 H408 0.961 . S
C421 H409 0.959 . S
C421 C419 1.561 . S
C422 C419 1.526 . S
C422 C423 1.396 . S
C422 C427 1.390 . S
C423 C417 1.465 . S
C423 C422 1.396 . S
C423 C424 1.399 . S
C424 H410 0.929 . S
C424 C423 1.399 . S
C424 C425 1.385 . S
C425 H411 0.931 . S
C425 C424 1.385 . S
C425 C426 1.389 . S
C426 C425 1.389 . S
C426 C427 1.387 . S
C427 H412 0.930 . S
C427 C422 1.390 . S
C427 C426 1.387 . S
H428 C440 0.930 . S
H429 C442 0.930 . S
H430 C443 0.930 . S
H431 C447 0.959 . S
H432 C447 0.959 1_545 S
H433 C447 0.961 . S
H434 C448 0.960 . S
H435 C448 0.961 . S
H436 C448 0.959 . S
H437 C451 0.929 . S
H438 C452 0.931 . S
H439 C454 0.930 . S
C440 H428 0.930 . S
C440 C441 1.399 . S
C440 C445 1.399 . S
C441 C440 1.399 . S
C441 C442 1.376 . S
C442 H429 0.930 . S
C442 C441 1.376 . S
C442 C443 1.388 . S
C443 H430 0.930 . S
C443 C442 1.388 . S
C443 C444 1.390 . S
C444 C443 1.390 . S
C444 C445 1.394 . S
C444 C450 1.465 1_565 S
C445 C440 1.399 . S
C445 C444 1.394 . S
C445 C446 1.516 . S
C446 C445 1.516 . S
C446 C447 1.502 . S
C446 C448 1.561 . S
C446 C449 1.526 1_565 S
C447 H431 0.959 . S
C447 H432 0.959 1_565 S
C447 H433 0.961 . S
C447 C446 1.502 . S
C448 H434 0.960 . S
C448 H435 0.961 . S
C448 H436 0.959 . S
C448 C446 1.561 . S
C449 C446 1.526 1_545 S
C449 C450 1.396 . S
C449 C454 1.390 . S
C450 C444 1.465 1_545 S
C450 C449 1.396 . S
C450 C451 1.399 . S
C451 H437 0.929 . S
C451 C450 1.399 . S
C451 C452 1.385 . S
C452 H438 0.931 . S
C452 C451 1.385 . S
C452 C453 1.389 . S
C453 C452 1.389 . S
C453 C454 1.387 . S
C454 H439 0.930 . S
C454 C449 1.390 . S
C454 C453 1.387 . S
H455 C467 0.930 . S
H456 C469 0.930 . S
H457 C470 0.930 . S
H458 C474 0.959 . S
H459 C474 0.959 . S
H460 C474 0.961 . S
H461 C475 0.960 . S
H462 C475 0.961 . S
H463 C475 0.959 . S
H464 C478 0.929 . S
H465 C479 0.931 . S
H466 C481 0.930 . S
C467 H455 0.930 . S
C467 C468 1.399 . S
C467 C472 1.399 . S
C468 C467 1.399 . S
C468 C469 1.376 . S
C469 H456 0.930 . S
C469 C468 1.376 . S
C469 C470 1.388 . S
C470 H457 0.930 . S
C470 C469 1.388 . S
C470 C471 1.390 . S
C471 C470 1.390 . S
C471 C472 1.394 . S
C471 C477 1.465 . S
C472 C467 1.399 . S
C472 C471 1.394 . S
C472 C473 1.516 . S
C473 C472 1.516 . S
C473 C474 1.502 . S
C473 C475 1.561 . S
C473 C476 1.526 . S
C474 H458 0.959 . S
C474 H459 0.959 . S
C474 H460 0.961 . S
C474 C473 1.502 . S
C475 H461 0.960 . S
C475 H462 0.961 . S
C475 H463 0.959 . S
C475 C473 1.561 . S
C476 C473 1.526 . S
C476 C477 1.396 . S
C476 C481 1.390 . S
C477 C471 1.465 . S
C477 C476 1.396 . S
C477 C478 1.399 . S
C478 H464 0.929 . S
C478 C477 1.399 . S
C478 C479 1.385 . S
C479 H465 0.931 . S
C479 C478 1.385 . S
C479 C480 1.389 . S
C480 C479 1.389 . S
C480 C481 1.387 . S
C481 H466 0.930 . S
C481 C476 1.390 . S
C481 C480 1.387 . S
H482 C494 0.930 . S
H483 C496 0.930 . S
H484 C497 0.930 . S
H485 C501 0.959 . S
H486 C501 0.959 . S
H487 C501 0.961 . S
H488 C502 0.960 . S
H489 C502 0.961 . S
H490 C502 0.959 . S
H491 C505 0.929 . S
H492 C506 0.931 . S
H493 C508 0.930 . S
C494 H482 0.930 . S
C494 C495 1.399 . S
C494 C499 1.399 . S
C495 C494 1.399 . S
C495 C496 1.376 . S
C496 H483 0.930 . S
C496 C495 1.376 . S
C496 C497 1.388 . S
C497 H484 0.930 . S
C497 C496 1.388 . S
C497 C498 1.390 . S
C498 C497 1.390 . S
C498 C499 1.394 . S
C498 C504 1.465 1_565 S
C499 C494 1.399 . S
C499 C498 1.394 . S
C499 C500 1.516 . S
C500 C499 1.516 . S
C500 C501 1.502 . S
C500 C502 1.561 . S
C500 C503 1.526 1_565 S
C501 H485 0.959 . S
C501 H486 0.959 . S
C501 H487 0.961 . S
C501 C500 1.502 . S
C502 H488 0.960 . S
C502 H489 0.961 . S
C502 H490 0.959 . S
C502 C500 1.561 . S
C503 C500 1.526 1_545 S
C503 C504 1.396 . S
C503 C508 1.390 . S
C504 C498 1.465 1_545 S
C504 C503 1.396 . S
C504 C505 1.399 . S
C505 H491 0.929 . S
C505 C504 1.399 . S
C505 C506 1.385 . S
C506 H492 0.931 . S
C506 C505 1.385 . S
C506 C507 1.389 . S
C507 C506 1.389 . S
C507 C508 1.387 . S
C508 H493 0.930 . S
C508 C503 1.390 . S
C508 C507 1.387 . S
H509 C521 0.930 . S
H510 C523 0.930 . S
H511 C524 0.930 . S
H512 C528 0.959 . S
H513 C528 0.959 . S
H514 C528 0.961 . S
H515 C529 0.960 . S
H516 C529 0.961 . S
H517 C529 0.959 . S
H518 C532 0.929 . S
H519 C533 0.931 . S
H520 C535 0.930 . S
C521 H509 0.930 . S
C521 C522 1.399 . S
C521 C526 1.399 . S
C522 C521 1.399 . S
C522 C523 1.376 . S
C523 H510 0.930 . S
C523 C522 1.376 . S
C523 C524 1.388 . S
C524 H511 0.930 . S
C524 C523 1.388 . S
C524 C525 1.390 . S
C525 C524 1.390 . S
C525 C526 1.394 . S
C525 C531 1.465 . S
C526 C521 1.399 . S
C526 C525 1.394 . S
C526 C527 1.516 . S
C527 C526 1.516 . S
C527 C528 1.502 . S
C527 C529 1.561 . S
C527 C530 1.526 . S
C528 H512 0.959 . S
C528 H513 0.959 . S
C528 H514 0.961 . S
C528 C527 1.502 . S
C529 H515 0.960 . S
C529 H516 0.961 . S
C529 H517 0.959 . S
C529 C527 1.561 . S
C530 C527 1.526 . S
C530 C531 1.396 . S
C530 C535 1.390 . S
C531 C525 1.465 . S
C531 C530 1.396 . S
C531 C532 1.399 . S
C532 H518 0.929 . S
C532 C531 1.399 . S
C532 C533 1.385 . S
C533 H519 0.931 . S
C533 C532 1.385 . S
C533 C534 1.389 . S
C534 C533 1.389 . S
C534 C535 1.387 . S
C535 H520 0.930 . S
C535 C530 1.390 . S
C535 C534 1.387 . S
H536 C548 0.930 . S
H537 C550 0.930 . S
H538 C551 0.930 . S
H539 C555 0.959 . S
H540 C555 0.959 . S
H541 C555 0.961 . S
H542 C556 0.960 . S
H543 C556 0.961 . S
H544 C556 0.959 . S
H545 C559 0.929 . S
H546 C560 0.931 . S
H547 C562 0.930 . S
C548 H536 0.930 . S
C548 C549 1.399 1_556 S
C548 C553 1.399 . S
C549 C548 1.399 1_554 S
C549 C550 1.376 . S
C550 H537 0.930 . S
C550 C549 1.376 . S
C550 C551 1.388 . S
C551 H538 0.930 . S
C551 C550 1.388 . S
C551 C552 1.390 . S
C552 C551 1.390 . S
C552 C553 1.394 1_554 S
C552 C558 1.465 . S
C553 C548 1.399 . S
C553 C552 1.394 1_556 S
C553 C554 1.516 . S
C554 C553 1.516 . S
C554 C555 1.502 . S
C554 C556 1.561 . S
C554 C557 1.526 . S
C555 H539 0.959 . S
C555 H540 0.959 . S
C555 H541 0.961 . S
C555 C554 1.502 . S
C556 H542 0.960 . S
C556 H543 0.961 . S
C556 H544 0.959 . S
C556 C554 1.561 . S
C557 C554 1.526 . S
C557 C558 1.396 1_556 S
C557 C562 1.390 . S
C558 C552 1.465 . S
C558 C557 1.396 1_554 S
C558 C559 1.399 . S
C559 H545 0.929 . S
C559 C558 1.399 . S
C559 C560 1.385 . S
C560 H546 0.931 . S
C560 C559 1.385 . S
C560 C561 1.389 . S
C561 C560 1.389 . S
C561 C562 1.387 1_554 S
C562 H547 0.930 . S
C562 C557 1.390 . S
C562 C561 1.387 1_556 S
H563 C575 0.930 . S
H564 C577 0.930 . S
H565 C578 0.930 . S
H566 C582 0.961 . S
H567 C582 0.975 . S
H568 C582 0.943 1_565 S
H569 C583 0.959 . S
H570 C583 0.962 1_545 S
H571 C583 0.959 1_545 S
H572 C586 0.929 . S
H573 C587 0.931 . S
H574 C589 0.930 . S
C575 H563 0.930 . S
C575 C576 1.399 1_556 S
C575 C580 1.399 . S
C576 C575 1.399 1_554 S
C576 C577 1.376 . S
C577 H564 0.930 . S
C577 C576 1.376 . S
C577 C578 1.388 . S
C578 H565 0.930 . S
C578 C577 1.388 . S
C578 C579 1.390 . S
C579 C578 1.390 . S
C579 C580 1.394 1_554 S
C579 C585 1.465 1_565 S
C580 C575 1.399 . S
C580 C579 1.394 1_556 S
C580 C581 1.514 . S
C581 C580 1.514 . S
C581 C582 1.502 1_565 S
C581 C583 1.561 . S
C581 C584 1.527 1_565 S
C582 H566 0.961 . S
C582 H567 0.975 . S
C582 H568 0.943 1_545 S
C582 C581 1.502 1_545 S
C583 H569 0.959 . S
C583 H570 0.962 1_565 S
C583 H571 0.959 1_565 S
C583 C581 1.561 . S
C584 C581 1.527 1_545 S
C584 C585 1.396 1_556 S
C584 C589 1.390 . S
C585 C579 1.465 1_545 S
C585 C584 1.396 1_554 S
C585 C586 1.399 . S
C586 H572 0.929 . S
C586 C585 1.399 . S
C586 C587 1.385 . S
C587 H573 0.931 . S
C587 C586 1.385 . S
C587 C588 1.389 . S
C588 C587 1.389 . S
C588 C589 1.387 1_554 S
C589 H574 0.930 . S
C589 C584 1.390 . S
C589 C588 1.387 1_556 S
H590 C602 0.930 . S
H591 C604 0.930 . S
H592 C605 0.930 . S
H593 C609 0.959 . S
H594 C609 0.959 . S
H595 C609 0.961 . S
H596 C610 0.960 . S
H597 C610 0.961 . S
H598 C610 0.959 . S
H599 C613 0.929 . S
H600 C614 0.931 . S
H601 C616 0.930 . S
C602 H590 0.930 . S
C602 C603 1.399 1_554 S
C602 C607 1.399 . S
C603 C602 1.399 1_556 S
C603 C604 1.376 . S
C604 H591 0.930 . S
C604 C603 1.376 . S
C604 C605 1.388 . S
C605 H592 0.930 . S
C605 C604 1.388 . S
C605 C606 1.390 . S
C606 C605 1.390 . S
C606 C607 1.394 1_556 S
C606 C612 1.465 . S
C607 C602 1.399 . S
C607 C606 1.394 1_554 S
C607 C608 1.516 . S
C608 C607 1.516 . S
C608 C609 1.502 . S
C608 C610 1.561 . S
C608 C611 1.526 . S
C609 H593 0.959 . S
C609 H594 0.959 . S
C609 H595 0.961 . S
C609 C608 1.502 . S
C610 H596 0.960 . S
C610 H597 0.961 . S
C610 H598 0.959 . S
C610 C608 1.561 . S
C611 C608 1.526 . S
C611 C612 1.396 1_554 S
C611 C616 1.390 . S
C612 C606 1.465 . S
C612 C611 1.396 1_556 S
C612 C613 1.399 . S
C613 H599 0.929 . S
C613 C612 1.399 . S
C613 C614 1.385 . S
C614 H600 0.931 . S
C614 C613 1.385 . S
C614 C615 1.389 . S
C615 C614 1.389 . S
C615 C616 1.387 1_556 S
C616 H601 0.930 . S
C616 C611 1.390 . S
C616 C615 1.387 1_554 S
H617 C629 0.930 . S
H618 C631 0.930 . S
H619 C632 0.930 . S
H620 C636 0.961 . S
H621 C636 0.974 . S
H622 C636 0.944 1_545 S
H623 C637 0.960 . S
H624 C637 0.961 1_565 S
H625 C637 0.959 1_565 S
H626 C640 0.929 . S
H627 C641 0.931 . S
H628 C643 0.930 . S
C629 H617 0.930 . S
C629 C630 1.399 1_556 S
C629 C634 1.399 . S
C630 C629 1.399 1_554 S
C630 C631 1.376 . S
C631 H618 0.930 . S
C631 C630 1.376 . S
C631 C632 1.388 . S
C632 H619 0.930 . S
C632 C631 1.388 . S
C632 C633 1.390 . S
C633 C632 1.390 . S
C633 C634 1.394 1_554 S
C633 C639 1.465 1_545 S
C634 C629 1.399 . S
C634 C633 1.394 1_556 S
C634 C635 1.515 . S
C635 C634 1.515 . S
C635 C636 1.502 1_545 S
C635 C637 1.561 . S
C635 C638 1.527 1_545 S
C636 H620 0.961 . S
C636 H621 0.974 . S
C636 H622 0.944 1_565 S
C636 C635 1.502 1_565 S
C637 H623 0.960 . S
C637 H624 0.961 1_545 S
C637 H625 0.959 1_545 S
C637 C635 1.561 . S
C638 C635 1.527 1_565 S
C638 C639 1.396 1_556 S
C638 C643 1.390 . S
C639 C633 1.465 1_565 S
C639 C638 1.396 1_554 S
C639 C640 1.399 . S
C640 H626 0.929 . S
C640 C639 1.399 . S
C640 C641 1.385 . S
C641 H627 0.931 . S
C641 C640 1.385 . S
C641 C642 1.389 . S
C642 C641 1.389 . S
C642 C643 1.387 1_554 S
C643 H628 0.930 . S
C643 C638 1.390 . S
C643 C642 1.387 1_556 S
H644 C656 0.930 . S
H645 C658 0.930 . S
H646 C659 0.930 . S
H647 C663 0.959 . S
H648 C663 0.959 . S
H649 C663 0.961 . S
H650 C664 0.960 . S
H651 C664 0.961 . S
H652 C664 0.959 . S
H653 C667 0.929 . S
H654 C668 0.931 . S
H655 C670 0.930 . S
C656 H644 0.930 . S
C656 C657 1.399 . S
C656 C661 1.399 . S
C657 C656 1.399 . S
C657 C658 1.376 . S
C658 H645 0.930 . S
C658 C657 1.376 . S
C658 C659 1.388 . S
C659 H646 0.930 . S
C659 C658 1.388 . S
C659 C660 1.390 1_554 S
C660 C659 1.390 1_556 S
C660 C661 1.394 1_556 S
C660 C666 1.465 . S
C661 C656 1.399 . S
C661 C660 1.394 1_554 S
C661 C662 1.516 1_554 S
C662 C661 1.516 1_556 S
C662 C663 1.502 . S
C662 C664 1.561 . S
C662 C665 1.526 . S
C663 H647 0.959 . S
C663 H648 0.959 . S
C663 H649 0.961 . S
C663 C662 1.502 . S
C664 H650 0.960 . S
C664 H651 0.961 . S
C664 H652 0.959 . S
C664 C662 1.561 . S
C665 C662 1.526 . S
C665 C666 1.396 . S
C665 C670 1.390 . S
C666 C660 1.465 . S
C666 C665 1.396 . S
C666 C667 1.399 . S
C667 H653 0.929 . S
C667 C666 1.399 . S
C667 C668 1.385 . S
C668 H654 0.931 . S
C668 C667 1.385 . S
C668 C669 1.389 . S
C669 C668 1.389 . S
C669 C670 1.387 . S
C670 H655 0.930 . S
C670 C665 1.390 . S
C670 C669 1.387 . S
H671 C683 0.930 . S
H672 C685 0.930 . S
H673 C686 0.930 . S
H674 C690 0.959 . S
H675 C690 0.959 . S
H676 C690 0.961 . S
H677 C691 0.960 . S
H678 C691 0.961 . S
H679 C691 0.959 . S
H680 C694 0.929 . S
H681 C695 0.931 . S
H682 C697 0.930 . S
C683 H671 0.930 . S
C683 C684 1.399 . S
C683 C688 1.399 . S
C684 C683 1.399 . S
C684 C685 1.376 . S
C685 H672 0.930 . S
C685 C684 1.376 . S
C685 C686 1.388 . S
C686 H673 0.930 . S
C686 C685 1.388 . S
C686 C687 1.390 1_554 S
C687 C686 1.390 1_556 S
C687 C688 1.394 1_556 S
C687 C693 1.465 . S
C688 C683 1.399 . S
C688 C687 1.394 1_554 S
C688 C689 1.516 1_554 S
C689 C688 1.516 1_556 S
C689 C690 1.502 . S
C689 C691 1.561 . S
C689 C692 1.526 . S
C690 H674 0.959 . S
C690 H675 0.959 . S
C690 H676 0.961 . S
C690 C689 1.502 . S
C691 H677 0.960 . S
C691 H678 0.961 . S
C691 H679 0.959 . S
C691 C689 1.561 . S
C692 C689 1.526 . S
C692 C693 1.396 . S
C692 C697 1.390 . S
C693 C687 1.465 . S
C693 C692 1.396 . S
C693 C694 1.399 . S
C694 H680 0.929 . S
C694 C693 1.399 . S
C694 C695 1.385 . S
C695 H681 0.931 . S
C695 C694 1.385 . S
C695 C696 1.389 . S
C696 C695 1.389 . S
C696 C697 1.387 . S
C697 H682 0.930 . S
C697 C692 1.390 . S
C697 C696 1.387 . S
H698 C710 0.930 . S
H699 C712 0.930 . S
H700 C713 0.930 . S
H701 C717 0.959 . S
H702 C717 0.959 . S
H703 C717 0.961 . S
H704 C718 0.960 . S
H705 C718 0.961 . S
H706 C718 0.959 . S
H707 C721 0.929 . S
H708 C722 0.931 . S
H709 C724 0.930 . S
C710 H698 0.930 . S
C710 C711 1.399 . S
C710 C715 1.399 . S
C711 C710 1.399 . S
C711 C712 1.376 . S
C712 H699 0.930 . S
C712 C711 1.376 . S
C712 C713 1.388 . S
C713 H700 0.930 . S
C713 C712 1.388 . S
C713 C714 1.390 . S
C714 C713 1.390 . S
C714 C715 1.394 . S
C714 C720 1.465 . S
C715 C710 1.399 . S
C715 C714 1.394 . S
C715 C716 1.516 . S
C716 C715 1.516 . S
C716 C717 1.502 . S
C716 C718 1.561 . S
C716 C719 1.526 1_554 S
C717 H701 0.959 . S
C717 H702 0.959 . S
C717 H703 0.961 . S
C717 C716 1.502 . S
C718 H704 0.960 . S
C718 H705 0.961 . S
C718 H706 0.959 . S
C718 C716 1.561 . S
C719 C716 1.526 1_556 S
C719 C720 1.396 1_556 S
C719 C724 1.390 . S
C720 C714 1.465 . S
C720 C719 1.396 1_554 S
C720 C721 1.399 1_554 S
C721 H707 0.929 . S
C721 C720 1.399 1_556 S
C721 C722 1.385 . S
C722 H708 0.931 . S
C722 C721 1.385 . S
C722 C723 1.389 . S
C723 C722 1.389 . S
C723 C724 1.387 . S
C724 H709 0.930 . S
C724 C719 1.390 . S
C724 C723 1.387 . S
H725 C737 0.930 . S
H726 C739 0.930 . S
H727 C740 0.930 . S
H728 C744 0.959 . S
H729 C744 0.959 . S
H730 C744 0.961 . S
H731 C745 0.960 . S
H732 C745 0.961 . S
H733 C745 0.959 . S
H734 C748 0.929 . S
H735 C749 0.931 . S
H736 C751 0.930 . S
C737 H725 0.930 . S
C737 C738 1.399 . S
C737 C742 1.399 . S
C738 C737 1.399 . S
C738 C739 1.376 . S
C739 H726 0.930 . S
C739 C738 1.376 . S
C739 C740 1.388 . S
C740 H727 0.930 . S
C740 C739 1.388 . S
C740 C741 1.390 1_556 S
C741 C740 1.390 1_554 S
C741 C742 1.394 1_554 S
C741 C747 1.465 . S
C742 C737 1.399 . S
C742 C741 1.394 1_556 S
C742 C743 1.516 1_556 S
C743 C742 1.516 1_554 S
C743 C744 1.502 . S
C743 C745 1.561 . S
C743 C746 1.526 . S
C744 H728 0.959 . S
C744 H729 0.959 . S
C744 H730 0.961 . S
C744 C743 1.502 . S
C745 H731 0.960 . S
C745 H732 0.961 . S
C745 H733 0.959 . S
C745 C743 1.561 . S
C746 C743 1.526 . S
C746 C747 1.396 . S
C746 C751 1.390 . S
C747 C741 1.465 . S
C747 C746 1.396 . S
C747 C748 1.399 . S
C748 H734 0.929 . S
C748 C747 1.399 . S
C748 C749 1.385 . S
C749 H735 0.931 . S
C749 C748 1.385 . S
C749 C750 1.389 . S
C750 C749 1.389 . S
C750 C751 1.387 . S
C751 H736 0.930 . S
C751 C746 1.390 . S
C751 C750 1.387 . S
H752 C764 0.930 . S
H753 C766 0.930 . S
H754 C767 0.930 . S
H755 C771 0.959 . S
H756 C771 0.959 . S
H757 C771 0.961 . S
H758 C772 0.960 . S
H759 C772 0.961 . S
H760 C772 0.959 . S
H761 C775 0.929 . S
H762 C776 0.931 . S
H763 C778 0.930 . S
C764 H752 0.930 . S
C764 C765 1.399 . S
C764 C769 1.399 . S
C765 C764 1.399 . S
C765 C766 1.376 . S
C766 H753 0.930 . S
C766 C765 1.376 . S
C766 C767 1.388 . S
C767 H754 0.930 . S
C767 C766 1.388 . S
C767 C768 1.390 . S
C768 C767 1.390 . S
C768 C769 1.394 . S
C768 C774 1.465 . S
C769 C764 1.399 . S
C769 C768 1.394 . S
C769 C770 1.516 . S
C770 C769 1.516 . S
C770 C771 1.502 . S
C770 C772 1.561 . S
C770 C773 1.526 . S
C771 H755 0.959 . S
C771 H756 0.959 . S
C771 H757 0.961 . S
C771 C770 1.502 . S
C772 H758 0.960 . S
C772 H759 0.961 . S
C772 H760 0.959 . S
C772 C770 1.561 . S
C773 C770 1.526 . S
C773 C774 1.396 . S
C773 C778 1.390 . S
C774 C768 1.465 . S
C774 C773 1.396 . S
C774 C775 1.399 . S
C775 H761 0.929 . S
C775 C774 1.399 . S
C775 C776 1.385 . S
C776 H762 0.931 . S
C776 C775 1.385 . S
C776 C777 1.389 . S
C777 C776 1.389 . S
C777 C778 1.387 . S
C778 H763 0.930 . S
C778 C773 1.390 . S
C778 C777 1.387 . S
H779 C791 0.930 . S
H780 C793 0.930 . S
H781 C794 0.930 . S
H782 C798 0.959 . S
H783 C798 0.959 . S
H784 C798 0.961 . S
H785 C799 0.960 . S
H786 C799 0.961 . S
H787 C799 0.959 . S
H788 C802 0.929 . S
H789 C803 0.931 . S
H790 C805 0.930 . S
C791 H779 0.930 . S
C791 C792 1.399 . S
C791 C796 1.399 . S
C792 C791 1.399 . S
C792 C793 1.376 . S
C793 H780 0.930 . S
C793 C792 1.376 . S
C793 C794 1.388 . S
C794 H781 0.930 . S
C794 C793 1.388 . S
C794 C795 1.390 . S
C795 C794 1.390 . S
C795 C796 1.394 . S
C795 C801 1.465 . S
C796 C791 1.399 . S
C796 C795 1.394 . S
C796 C797 1.516 . S
C797 C796 1.516 . S
C797 C798 1.502 . S
C797 C799 1.561 . S
C797 C800 1.526 . S
C798 H782 0.959 . S
C798 H783 0.959 . S
C798 H784 0.961 . S
C798 C797 1.502 . S
C799 H785 0.960 . S
C799 H786 0.961 . S
C799 H787 0.959 . S
C799 C797 1.561 . S
C800 C797 1.526 . S
C800 C801 1.396 . S
C800 C805 1.390 . S
C801 C795 1.465 . S
C801 C800 1.396 . S
C801 C802 1.399 . S
C802 H788 0.929 . S
C802 C801 1.399 . S
C802 C803 1.385 . S
C803 H789 0.931 . S
C803 C802 1.385 . S
C803 C804 1.389 . S
C804 C803 1.389 . S
C804 C805 1.387 . S
C805 H790 0.930 . S
C805 C800 1.390 . S
C805 C804 1.387 . S
H806 C818 0.930 . S
H807 C820 0.930 . S
H808 C821 0.930 . S
H809 C825 0.959 . S
H810 C825 0.959 . S
H811 C825 0.961 . S
H812 C826 0.960 . S
H813 C826 0.961 . S
H814 C826 0.959 . S
H815 C829 0.929 . S
H816 C830 0.931 . S
H817 C832 0.930 . S
C818 H806 0.930 . S
C818 C819 1.399 . S
C818 C823 1.399 . S
C819 C818 1.399 . S
C819 C820 1.376 . S
C820 H807 0.930 . S
C820 C819 1.376 . S
C820 C821 1.388 . S
C821 H808 0.930 . S
C821 C820 1.388 . S
C821 C822 1.390 . S
C822 C821 1.390 . S
C822 C823 1.394 . S
C822 C828 1.465 . S
C823 C818 1.399 . S
C823 C822 1.394 . S
C823 C824 1.516 . S
C824 C823 1.516 . S
C824 C825 1.502 . S
C824 C826 1.561 . S
C824 C827 1.526 . S
C825 H809 0.959 . S
C825 H810 0.959 . S
C825 H811 0.961 . S
C825 C824 1.502 . S
C826 H812 0.960 . S
C826 H813 0.961 . S
C826 H814 0.959 . S
C826 C824 1.561 . S
C827 C824 1.526 . S
C827 C828 1.396 . S
C827 C832 1.390 . S
C828 C822 1.465 . S
C828 C827 1.396 . S
C828 C829 1.399 . S
C829 H815 0.929 . S
C829 C828 1.399 . S
C829 C830 1.385 . S
C830 H816 0.931 . S
C830 C829 1.385 . S
C830 C831 1.389 . S
C831 C830 1.389 . S
C831 C832 1.387 . S
C832 H817 0.930 . S
C832 C827 1.390 . S
C832 C831 1.387 . S
H833 C845 0.930 . S
H834 C847 0.930 . S
H835 C848 0.930 . S
H836 C852 0.959 . S
H837 C852 0.959 . S
H838 C852 0.961 . S
H839 C853 0.960 . S
H840 C853 0.961 . S
H841 C853 0.959 . S
H842 C856 0.929 . S
H843 C857 0.931 . S
H844 C859 0.930 . S
C845 H833 0.930 . S
C845 C846 1.399 . S
C845 C850 1.399 . S
C846 C845 1.399 . S
C846 C847 1.376 . S
C847 H834 0.930 . S
C847 C846 1.376 . S
C847 C848 1.388 . S
C848 H835 0.930 . S
C848 C847 1.388 . S
C848 C849 1.390 . S
C849 C848 1.390 . S
C849 C850 1.394 . S
C849 C855 1.465 . S
C850 C845 1.399 . S
C850 C849 1.394 . S
C850 C851 1.516 . S
C851 C850 1.516 . S
C851 C852 1.502 . S
C851 C853 1.561 . S
C851 C854 1.526 . S
C852 H836 0.959 . S
C852 H837 0.959 . S
C852 H838 0.961 . S
C852 C851 1.502 . S
C853 H839 0.960 . S
C853 H840 0.961 . S
C853 H841 0.959 . S
C853 C851 1.561 . S
C854 C851 1.526 . S
C854 C855 1.396 . S
C854 C859 1.390 . S
C855 C849 1.465 . S
C855 C854 1.396 . S
C855 C856 1.399 . S
C856 H842 0.929 . S
C856 C855 1.399 . S
C856 C857 1.385 . S
C857 H843 0.931 . S
C857 C856 1.385 . S
C857 C858 1.389 . S
C858 C857 1.389 . S
C858 C859 1.387 . S
C859 H844 0.930 . S
C859 C854 1.390 . S
C859 C858 1.387 . S
H860 C872 0.930 . S
H861 C874 0.930 . S
H862 C875 0.930 . S
H863 C879 0.961 . S
H864 C879 0.966 . S
H865 C879 0.953 1_455 S
H866 C880 0.960 . S
H867 C880 0.961 1_655 S
H868 C880 0.964 . S
H869 C883 0.929 . S
H870 C884 0.931 . S
H871 C886 0.930 . S
C872 H860 0.930 . S
C872 C873 1.399 . S
C872 C877 1.399 . S
C873 C872 1.399 . S
C873 C874 1.376 . S
C874 H861 0.930 . S
C874 C873 1.376 . S
C874 C875 1.388 . S
C875 H862 0.930 . S
C875 C874 1.388 . S
C875 C876 1.390 . S
C876 C875 1.390 . S
C876 C877 1.394 . S
C876 C882 1.465 1_455 S
C877 C872 1.399 . S
C877 C876 1.394 . S
C877 C878 1.540 . S
C878 C877 1.540 . S
C878 C879 1.501 1_455 S
C878 C880 1.563 . S
C878 C881 1.502 1_455 S
C879 H863 0.961 . S
C879 H864 0.966 . S
C879 H865 0.953 1_655 S
C879 C878 1.501 1_655 S
C880 H866 0.960 . S
C880 H867 0.961 1_455 S
C880 H868 0.964 . S
C880 C878 1.563 . S
C881 C878 1.502 1_655 S
C881 C882 1.396 . S
C881 C886 1.390 . S
C882 C876 1.465 1_655 S
C882 C881 1.396 . S
C882 C883 1.399 . S
C883 H869 0.929 . S
C883 C882 1.399 . S
C883 C884 1.385 . S
C884 H870 0.931 . S
C884 C883 1.385 . S
C884 C885 1.389 . S
C885 C884 1.389 . S
C885 C886 1.387 . S
C886 H871 0.930 . S
C886 C881 1.390 . S
C886 C885 1.387 . S
H887 C899 0.930 . S
H888 C901 0.930 . S
H889 C902 0.930 . S
H890 C906 0.959 . S
H891 C906 0.932 1_455 S
H892 C906 0.991 . S
H893 C907 0.903 1_655 S
H894 C907 1.014 . S
H895 C907 0.970 . S
H896 C910 0.929 . S
H897 C911 0.931 . S
H898 C913 0.930 . S
C899 H887 0.930 . S
C899 C900 1.399 . S
C899 C904 1.399 . S
C900 C899 1.399 . S
C900 C901 1.376 . S
C901 H888 0.930 . S
C901 C900 1.376 . S
C901 C902 1.388 . S
C902 H889 0.930 . S
C902 C901 1.388 . S
C902 C903 1.390 . S
C903 C902 1.390 . S
C903 C904 1.394 . S
C903 C909 1.465 1_655 S
C904 C899 1.399 . S
C904 C903 1.394 . S
C904 C905 1.524 1_655 S
C905 C904 1.524 1_455 S
C905 C906 1.501 1_455 S
C905 C907 1.559 . S
C905 C908 1.518 . S
C906 H890 0.959 . S
C906 H891 0.932 1_655 S
C906 H892 0.991 . S
C906 C905 1.501 1_655 S
C907 H893 0.903 1_455 S
C907 H894 1.014 . S
C907 H895 0.970 . S
C907 C905 1.559 . S
C908 C905 1.518 . S
C908 C909 1.396 . S
C908 C913 1.390 . S
C909 C903 1.465 1_455 S
C909 C908 1.396 . S
C909 C910 1.399 . S
C910 H896 0.929 . S
C910 C909 1.399 . S
C910 C911 1.385 . S
C911 H897 0.931 . S
C911 C910 1.385 . S
C911 C912 1.389 . S
C912 C911 1.389 . S
C912 C913 1.387 . S
C913 H898 0.930 . S
C913 C908 1.390 . S
C913 C912 1.387 . S
H914 C926 0.930 . S
H915 C928 0.930 . S
H916 C929 0.930 . S
H917 C933 0.959 . S
H918 C933 0.959 . S
H919 C933 0.961 . S
H920 C934 0.960 . S
H921 C934 0.961 . S
H922 C934 0.959 . S
H923 C937 0.929 . S
H924 C938 0.931 . S
H925 C940 0.930 . S
C926 H914 0.930 . S
C926 C927 1.399 . S
C926 C931 1.399 . S
C927 C926 1.399 . S
C927 C928 1.376 . S
C928 H915 0.930 . S
C928 C927 1.376 . S
C928 C929 1.388 . S
C929 H916 0.930 . S
C929 C928 1.388 . S
C929 C930 1.390 . S
C930 C929 1.390 . S
C930 C931 1.394 . S
C930 C936 1.465 . S
C931 C926 1.399 . S
C931 C930 1.394 . S
C931 C932 1.516 . S
C932 C931 1.516 . S
C932 C933 1.502 . S
C932 C934 1.561 . S
C932 C935 1.526 . S
C933 H917 0.959 . S
C933 H918 0.959 . S
C933 H919 0.961 . S
C933 C932 1.502 . S
C934 H920 0.960 . S
C934 H921 0.961 . S
C934 H922 0.959 . S
C934 C932 1.561 . S
C935 C932 1.526 . S
C935 C936 1.396 . S
C935 C940 1.390 . S
C936 C930 1.465 . S
C936 C935 1.396 . S
C936 C937 1.399 . S
C937 H923 0.929 . S
C937 C936 1.399 . S
C937 C938 1.385 . S
C938 H924 0.931 . S
C938 C937 1.385 . S
C938 C939 1.389 . S
C939 C938 1.389 . S
C939 C940 1.387 . S
C940 H925 0.930 . S
C940 C935 1.390 . S
C940 C939 1.387 . S
H941 C953 0.930 . S
H942 C955 0.930 . S
H943 C956 0.930 . S
H944 C960 0.959 . S
H945 C960 0.959 . S
H946 C960 0.961 . S
H947 C961 0.960 . S
H948 C961 0.961 . S
H949 C961 0.959 . S
H950 C964 0.929 . S
H951 C965 0.931 . S
H952 C967 0.930 . S
C953 H941 0.930 . S
C953 C954 1.399 . S
C953 C958 1.399 . S
C954 C953 1.399 . S
C954 C955 1.376 . S
C955 H942 0.930 . S
C955 C954 1.376 . S
C955 C956 1.388 . S
C956 H943 0.930 . S
C956 C955 1.388 . S
C956 C957 1.390 . S
C957 C956 1.390 . S
C957 C958 1.394 . S
C957 C963 1.465 . S
C958 C953 1.399 . S
C958 C957 1.394 . S
C958 C959 1.516 . S
C959 C958 1.516 . S
C959 C960 1.502 . S
C959 C961 1.561 . S
C959 C962 1.526 . S
C960 H944 0.959 . S
C960 H945 0.959 . S
C960 H946 0.961 . S
C960 C959 1.502 . S
C961 H947 0.960 . S
C961 H948 0.961 . S
C961 H949 0.959 . S
C961 C959 1.561 . S
C962 C959 1.526 . S
C962 C963 1.396 . S
C962 C967 1.390 . S
C963 C957 1.465 . S
C963 C962 1.396 . S
C963 C964 1.399 . S
C964 H950 0.929 . S
C964 C963 1.399 . S
C964 C965 1.385 . S
C965 H951 0.931 . S
C965 C964 1.385 . S
C965 C966 1.389 . S
C966 C965 1.389 . S
C966 C967 1.387 . S
C967 H952 0.930 . S
C967 C962 1.390 . S
C967 C966 1.387 . S
C333 C6 1.702 . S
C345 C286 1.681 . S
C360 C246 1.699 . S
C372 C46 1.683 . S
C387 C206 1.685 . S
C399 C86 1.704 . S
C414 C166 1.704 . S
C426 C126 1.679 . S
C441 C89 1.856 . S
C453 C9 1.845 . S
C468 C49 1.852 . S
C480 C129 1.839 . S
C495 C138 1.328 . S
C507 C58 1.257 . S
C522 C98 1.223 . S
C534 C18 1.294 . S
C549 C169 1.687 1_554 S
C561 C249 1.679 . S
C576 C209 1.685 1_554 S
C588 C289 1.678 . S
C603 C298 1.099 . S
C615 C218 1.134 1_556 S
C630 C258 1.194 1_554 S
C642 C178 1.158 . S
C657 C19 2.070 . S
C669 C10 2.075 . S
C684 C59 2.067 . S
C696 C50 2.078 . S
C711 C90 2.099 . S
C723 C99 2.058 . S
C738 C139 2.081 . S
C750 C130 2.080 . S
C765 C170 2.051 . S
C777 C179 2.097 . S
C792 C219 2.081 . S
C804 C210 2.079 . S
C819 C259 2.065 . S
C831 C250 2.080 . S
C846 C299 2.066 . S
C858 C290 2.078 . S
C873 C15 2.357 . S
C885 C55 2.355 . S
C900 C135 2.322 . S
C912 C95 2.315 . S
C927 C175 2.323 . S
C939 C215 2.316 . S
C954 C295 2.323 . S
C966 C255 2.316 . S
