# Generated by pormake.
# Topology pbp, (3)-cn, num edge types: 1
# Building blocks:
#     Node 0, Type 0, BuildingBlock: WUSLED_clean_sbu_0, # of connection points: 3
#     Node 1, Type 0, BuildingBlock: WUSLED_clean_sbu_0, # of connection points: 3
#     Node 2, Type 0, BuildingBlock: WUSLED_clean_sbu_0, # of connection points: 3
#     Node 3, Type 0, BuildingBlock: WUSLED_clean_sbu_0, # of connection points: 3
#     Node 4, Type 0, BuildingBlock: WUSLED_clean_sbu_0, # of connection points: 3
#     Node 5, Type 0, BuildingBlock: WUSLED_clean_sbu_0, # of connection points: 3
#     Node 6, Type 0, BuildingBlock: WUSLED_clean_sbu_0, # of connection points: 3
#     Node 7, Type 0, BuildingBlock: WUSLED_clean_sbu_0, # of connection points: 3
#     Node 8, Type 0, BuildingBlock: WUSLED_clean_sbu_0, # of connection points: 3
#     Node 9, Type 0, BuildingBlock: WUSLED_clean_sbu_0, # of connection points: 3
#     Node 10, Type 0, BuildingBlock: WUSLED_clean_sbu_0, # of connection points: 3
#     Node 11, Type 0, BuildingBlock: WUSLED_clean_sbu_0, # of connection points: 3
#     Node 12, Type 0, BuildingBlock: WUSLED_clean_sbu_0, # of connection points: 3
#     Node 13, Type 0, BuildingBlock: WUSLED_clean_sbu_0, # of connection points: 3
#     Node 14, Type 0, BuildingBlock: WUSLED_clean_sbu_0, # of connection points: 3
#     Node 15, Type 0, BuildingBlock: WUSLED_clean_sbu_0, # of connection points: 3
#     Node 16, Type 0, BuildingBlock: WUSLED_clean_sbu_0, # of connection points: 3
#     Node 17, Type 0, BuildingBlock: WUSLED_clean_sbu_0, # of connection points: 3
#     Node 18, Type 0, BuildingBlock: WUSLED_clean_sbu_0, # of connection points: 3
#     Node 19, Type 0, BuildingBlock: WUSLED_clean_sbu_0, # of connection points: 3
#     Node 20, Type 0, BuildingBlock: WUSLED_clean_sbu_0, # of connection points: 3
#     Node 21, Type 0, BuildingBlock: WUSLED_clean_sbu_0, # of connection points: 3
#     Node 22, Type 0, BuildingBlock: WUSLED_clean_sbu_0, # of connection points: 3
#     Node 23, Type 0, BuildingBlock: WUSLED_clean_sbu_0, # of connection points: 3
#     Node 24, Type 0, BuildingBlock: WUSLED_clean_sbu_0, # of connection points: 3
#     Node 25, Type 0, BuildingBlock: WUSLED_clean_sbu_0, # of connection points: 3
#     Node 26, Type 0, BuildingBlock: WUSLED_clean_sbu_0, # of connection points: 3
#     Node 27, Type 0, BuildingBlock: WUSLED_clean_sbu_0, # of connection points: 3
#     Node 28, Type 0, BuildingBlock: WUSLED_clean_sbu_0, # of connection points: 3
#     Node 29, Type 0, BuildingBlock: WUSLED_clean_sbu_0, # of connection points: 3
#     Node 30, Type 0, BuildingBlock: WUSLED_clean_sbu_0, # of connection points: 3
#     Node 31, Type 0, BuildingBlock: WUSLED_clean_sbu_0, # of connection points: 3
#     Node 32, Type 0, BuildingBlock: WUSLED_clean_sbu_0, # of connection points: 3
#     Node 33, Type 0, BuildingBlock: WUSLED_clean_sbu_0, # of connection points: 3
#     Node 34, Type 0, BuildingBlock: WUSLED_clean_sbu_0, # of connection points: 3
#     Node 35, Type 0, BuildingBlock: WUSLED_clean_sbu_0, # of connection points: 3
#     Node 36, Type 0, BuildingBlock: WUSLED_clean_sbu_0, # of connection points: 3
#     Node 37, Type 0, BuildingBlock: WUSLED_clean_sbu_0, # of connection points: 3
#     Node 38, Type 0, BuildingBlock: WUSLED_clean_sbu_0, # of connection points: 3
#     Node 39, Type 0, BuildingBlock: WUSLED_clean_sbu_0, # of connection points: 3
#     Node 40, Type 0, BuildingBlock: WUSLED_clean_sbu_0, # of connection points: 3
#     Node 41, Type 0, BuildingBlock: WUSLED_clean_sbu_0, # of connection points: 3
#     Node 42, Type 0, BuildingBlock: WUSLED_clean_sbu_0, # of connection points: 3
#     Node 43, Type 0, BuildingBlock: WUSLED_clean_sbu_0, # of connection points: 3
#     Node 44, Type 0, BuildingBlock: WUSLED_clean_sbu_0, # of connection points: 3
#     Node 45, Type 0, BuildingBlock: WUSLED_clean_sbu_0, # of connection points: 3
#     Node 46, Type 0, BuildingBlock: WUSLED_clean_sbu_0, # of connection points: 3
#     Node 47, Type 0, BuildingBlock: WUSLED_clean_sbu_0, # of connection points: 3
#     Edge 48, Type (0, 0), BuildingBlock: MIFKUJ_clean_linker_0, # of connection points: 2
#     Edge 49, Type (0, 0), BuildingBlock: MIFKUJ_clean_linker_0, # of connection points: 2
#     Edge 50, Type (0, 0), BuildingBlock: MIFKUJ_clean_linker_0, # of connection points: 2
#     Edge 51, Type (0, 0), BuildingBlock: MIFKUJ_clean_linker_0, # of connection points: 2
#     Edge 52, Type (0, 0), BuildingBlock: MIFKUJ_clean_linker_0, # of connection points: 2
#     Edge 53, Type (0, 0), BuildingBlock: MIFKUJ_clean_linker_0, # of connection points: 2
#     Edge 54, Type (0, 0), BuildingBlock: MIFKUJ_clean_linker_0, # of connection points: 2
#     Edge 55, Type (0, 0), BuildingBlock: MIFKUJ_clean_linker_0, # of connection points: 2
#     Edge 56, Type (0, 0), BuildingBlock: MIFKUJ_clean_linker_0, # of connection points: 2
#     Edge 57, Type (0, 0), BuildingBlock: MIFKUJ_clean_linker_0, # of connection points: 2
#     Edge 58, Type (0, 0), BuildingBlock: MIFKUJ_clean_linker_0, # of connection points: 2
#     Edge 59, Type (0, 0), BuildingBlock: MIFKUJ_clean_linker_0, # of connection points: 2
#     Edge 60, Type (0, 0), BuildingBlock: MIFKUJ_clean_linker_0, # of connection points: 2
#     Edge 61, Type (0, 0), BuildingBlock: MIFKUJ_clean_linker_0, # of connection points: 2
#     Edge 62, Type (0, 0), BuildingBlock: MIFKUJ_clean_linker_0, # of connection points: 2
#     Edge 63, Type (0, 0), BuildingBlock: MIFKUJ_clean_linker_0, # of connection points: 2
#     Edge 64, Type (0, 0), BuildingBlock: MIFKUJ_clean_linker_0, # of connection points: 2
#     Edge 65, Type (0, 0), BuildingBlock: MIFKUJ_clean_linker_0, # of connection points: 2
#     Edge 66, Type (0, 0), BuildingBlock: MIFKUJ_clean_linker_0, # of connection points: 2
#     Edge 67, Type (0, 0), BuildingBlock: MIFKUJ_clean_linker_0, # of connection points: 2
#     Edge 68, Type (0, 0), BuildingBlock: MIFKUJ_clean_linker_0, # of connection points: 2
#     Edge 69, Type (0, 0), BuildingBlock: MIFKUJ_clean_linker_0, # of connection points: 2
#     Edge 70, Type (0, 0), BuildingBlock: MIFKUJ_clean_linker_0, # of connection points: 2
#     Edge 71, Type (0, 0), BuildingBlock: MIFKUJ_clean_linker_0, # of connection points: 2
#     Edge 72, Type (0, 0), BuildingBlock: MIFKUJ_clean_linker_0, # of connection points: 2
#     Edge 73, Type (0, 0), BuildingBlock: MIFKUJ_clean_linker_0, # of connection points: 2
#     Edge 74, Type (0, 0), BuildingBlock: MIFKUJ_clean_linker_0, # of connection points: 2
#     Edge 75, Type (0, 0), BuildingBlock: MIFKUJ_clean_linker_0, # of connection points: 2
#     Edge 76, Type (0, 0), BuildingBlock: MIFKUJ_clean_linker_0, # of connection points: 2
#     Edge 77, Type (0, 0), BuildingBlock: MIFKUJ_clean_linker_0, # of connection points: 2
#     Edge 78, Type (0, 0), BuildingBlock: MIFKUJ_clean_linker_0, # of connection points: 2
#     Edge 79, Type (0, 0), BuildingBlock: MIFKUJ_clean_linker_0, # of connection points: 2
#     Edge 80, Type (0, 0), BuildingBlock: MIFKUJ_clean_linker_0, # of connection points: 2
#     Edge 81, Type (0, 0), BuildingBlock: MIFKUJ_clean_linker_0, # of connection points: 2
#     Edge 82, Type (0, 0), BuildingBlock: MIFKUJ_clean_linker_0, # of connection points: 2
#     Edge 83, Type (0, 0), BuildingBlock: MIFKUJ_clean_linker_0, # of connection points: 2
#     Edge 84, Type (0, 0), BuildingBlock: MIFKUJ_clean_linker_0, # of connection points: 2
#     Edge 85, Type (0, 0), BuildingBlock: MIFKUJ_clean_linker_0, # of connection points: 2
#     Edge 86, Type (0, 0), BuildingBlock: MIFKUJ_clean_linker_0, # of connection points: 2
#     Edge 87, Type (0, 0), BuildingBlock: MIFKUJ_clean_linker_0, # of connection points: 2
#     Edge 88, Type (0, 0), BuildingBlock: MIFKUJ_clean_linker_0, # of connection points: 2
#     Edge 89, Type (0, 0), BuildingBlock: MIFKUJ_clean_linker_0, # of connection points: 2
#     Edge 90, Type (0, 0), BuildingBlock: MIFKUJ_clean_linker_0, # of connection points: 2
#     Edge 91, Type (0, 0), BuildingBlock: MIFKUJ_clean_linker_0, # of connection points: 2
#     Edge 92, Type (0, 0), BuildingBlock: MIFKUJ_clean_linker_0, # of connection points: 2
#     Edge 93, Type (0, 0), BuildingBlock: MIFKUJ_clean_linker_0, # of connection points: 2
#     Edge 94, Type (0, 0), BuildingBlock: MIFKUJ_clean_linker_0, # of connection points: 2
#     Edge 95, Type (0, 0), BuildingBlock: MIFKUJ_clean_linker_0, # of connection points: 2
#     Edge 96, Type (0, 0), BuildingBlock: MIFKUJ_clean_linker_0, # of connection points: 2
#     Edge 97, Type (0, 0), BuildingBlock: MIFKUJ_clean_linker_0, # of connection points: 2
#     Edge 98, Type (0, 0), BuildingBlock: MIFKUJ_clean_linker_0, # of connection points: 2
#     Edge 99, Type (0, 0), BuildingBlock: MIFKUJ_clean_linker_0, # of connection points: 2
#     Edge 100, Type (0, 0), BuildingBlock: MIFKUJ_clean_linker_0, # of connection points: 2
#     Edge 101, Type (0, 0), BuildingBlock: MIFKUJ_clean_linker_0, # of connection points: 2
#     Edge 102, Type (0, 0), BuildingBlock: MIFKUJ_clean_linker_0, # of connection points: 2
#     Edge 103, Type (0, 0), BuildingBlock: MIFKUJ_clean_linker_0, # of connection points: 2
#     Edge 104, Type (0, 0), BuildingBlock: MIFKUJ_clean_linker_0, # of connection points: 2
#     Edge 105, Type (0, 0), BuildingBlock: MIFKUJ_clean_linker_0, # of connection points: 2
#     Edge 106, Type (0, 0), BuildingBlock: MIFKUJ_clean_linker_0, # of connection points: 2
#     Edge 107, Type (0, 0), BuildingBlock: MIFKUJ_clean_linker_0, # of connection points: 2
#     Edge 108, Type (0, 0), BuildingBlock: MIFKUJ_clean_linker_0, # of connection points: 2
#     Edge 109, Type (0, 0), BuildingBlock: MIFKUJ_clean_linker_0, # of connection points: 2
#     Edge 110, Type (0, 0), BuildingBlock: MIFKUJ_clean_linker_0, # of connection points: 2
#     Edge 111, Type (0, 0), BuildingBlock: MIFKUJ_clean_linker_0, # of connection points: 2
#     Edge 112, Type (0, 0), BuildingBlock: MIFKUJ_clean_linker_0, # of connection points: 2
#     Edge 113, Type (0, 0), BuildingBlock: MIFKUJ_clean_linker_0, # of connection points: 2
#     Edge 114, Type (0, 0), BuildingBlock: MIFKUJ_clean_linker_0, # of connection points: 2
#     Edge 115, Type (0, 0), BuildingBlock: MIFKUJ_clean_linker_0, # of connection points: 2
#     Edge 116, Type (0, 0), BuildingBlock: MIFKUJ_clean_linker_0, # of connection points: 2
#     Edge 117, Type (0, 0), BuildingBlock: MIFKUJ_clean_linker_0, # of connection points: 2
#     Edge 118, Type (0, 0), BuildingBlock: MIFKUJ_clean_linker_0, # of connection points: 2
#     Edge 119, Type (0, 0), BuildingBlock: MIFKUJ_clean_linker_0, # of connection points: 2
# Relax obj value: 0.000
# Max RMSD: 0.009
# Mean RMSD: 0.006
data_MOF--net-pbp--node1-WUSLED_clean_sbu_0--edge1-MIFKUJ_clean_linker_0
_symmetry_space_group_name_H-M    P1
_symmetry_Int_Tables_number       1
_symmetry_cell_setting            triclinic
loop_
_symmetry_equiv_pos_as_xyz
'x, y, z'
_cell_length_a     149.8156
_cell_length_b     149.95543
_cell_length_c     150.33248
_cell_angle_alpha  89.948288
_cell_angle_beta   90.059672
_cell_angle_gamma 90.646812
loop_
_atom_site_label
_atom_site_type_symbol
_atom_site_fract_x
_atom_site_fract_y
_atom_site_fract_z
_atom_type_partial_charge
C0 C 0.11417 0.30064 0.33621 0.0
C1 C 0.1229 0.29948 0.33305 0.0
C2 C 0.12662 0.29073 0.34623 0.0
C3 C 0.12906 0.29454 0.338 0.0
C4 C 0.11786 0.29196 0.34935 0.0
C5 C 0.11172 0.29685 0.34439 0.0
U6 U 0.10762 0.31824 0.31883 0.0
O7 O 0.0966 0.31819 0.30913 0.0
O8 O 0.09715 0.32844 0.31954 0.0
C9 C 0.09249 0.32484 0.31303 0.0
C10 C 0.10752 0.3058 0.33117 0.0
C11 C 0.08277 0.32372 0.31463 0.0
C12 C 0.06932 0.31449 0.31583 0.0
C13 C 0.07861 0.31527 0.31485 0.0
C14 C 0.06824 0.33056 0.31661 0.0
C15 C 0.064 0.32214 0.31667 0.0
C16 C 0.0775 0.33133 0.31558 0.0
C17 C 0.12673 0.33061 0.30626 0.0
C18 C 0.12534 0.34051 0.2935 0.0
C19 C 0.13961 0.33901 0.30091 0.0
C20 C 0.13579 0.33295 0.30689 0.0
C21 C 0.13446 0.34289 0.29413 0.0
C22 C 0.12151 0.33443 0.29954 0.0
C23 C 0.12305 0.32407 0.31265 0.0
O24 O 0.10727 0.31436 0.33296 0.0
O25 O 0.1069 0.30406 0.32262 0.0
O26 O 0.11869 0.31721 0.30928 0.0
O27 O 0.1192 0.32738 0.31976 0.0
H28 H 0.12495 0.30241 0.32677 0.0
H29 H 0.13577 0.2938 0.33545 0.0
H30 H 0.11571 0.28902 0.35558 0.0
H31 H 0.10501 0.29766 0.34694 0.0
H32 H 0.0663 0.3079 0.31596 0.0
H33 H 0.0825 0.30926 0.31417 0.0
H34 H 0.06436 0.33659 0.31714 0.0
H35 H 0.08054 0.33792 0.31538 0.0
H36 H 0.12116 0.34342 0.28842 0.0
H37 H 0.14667 0.34055 0.30151 0.0
H38 H 0.13994 0.33004 0.31201 0.0
H39 H 0.11449 0.33272 0.29896 0.0
C40 C 0.69304 0.11318 0.29925 0.0
C41 C 0.69062 0.12151 0.3027 0.0
C42 C 0.68293 0.12518 0.28884 0.0
C43 C 0.6856 0.12745 0.29756 0.0
C44 C 0.68555 0.11689 0.28539 0.0
C45 C 0.69052 0.11096 0.29054 0.0
U46 U 0.7099 0.10669 0.31747 0.0
O47 O 0.70917 0.09588 0.32735 0.0
O48 O 0.71989 0.09598 0.31741 0.0
C49 C 0.71588 0.09154 0.32383 0.0
C50 C 0.698 0.10661 0.3046 0.0
C51 C 0.71457 0.08183 0.32237 0.0
C52 C 0.70506 0.06859 0.32104 0.0
C53 C 0.70603 0.07787 0.32186 0.0
C54 C 0.72112 0.0671 0.32098 0.0
C55 C 0.71259 0.06308 0.32064 0.0
C56 C 0.72209 0.07635 0.32186 0.0
C57 C 0.72195 0.12571 0.33046 0.0
C58 C 0.73471 0.12438 0.34041 0.0
C59 C 0.72705 0.13846 0.33915 0.0
C60 C 0.72114 0.13466 0.33299 0.0
C61 C 0.73393 0.13339 0.34294 0.0
C62 C 0.72875 0.12057 0.33423 0.0
C63 C 0.71572 0.12208 0.32374 0.0
O64 O 0.70664 0.10628 0.30316 0.0
O65 O 0.6959 0.10608 0.31307 0.0
O66 O 0.70857 0.11794 0.32679 0.0
O67 O 0.71932 0.11804 0.31689 0.0
H68 H 0.69251 0.12338 0.30941 0.0
H69 H 0.68366 0.13373 0.30048 0.0
H70 H 0.68379 0.11497 0.27866 0.0
H71 H 0.69236 0.10459 0.28772 0.0
H72 H 0.69839 0.06573 0.32069 0.0
H73 H 0.7001 0.08192 0.3222 0.0
H74 H 0.72707 0.06307 0.32081 0.0
H75 H 0.72874 0.07923 0.32228 0.0
H76 H 0.73986 0.12025 0.34326 0.0
H77 H 0.72632 0.14544 0.3408 0.0
H78 H 0.71596 0.13875 0.33012 0.0
H79 H 0.72947 0.11363 0.33237 0.0
C80 C 0.917 0.72694 0.33695 0.0
C81 C 0.90803 0.72725 0.33425 0.0
C82 C 0.90457 0.73721 0.34659 0.0
C83 C 0.90188 0.73235 0.33901 0.0
C84 C 0.91356 0.73682 0.34927 0.0
C85 C 0.9197 0.73175 0.3445 0.0
U86 U 0.92328 0.70917 0.31976 0.0
O87 O 0.93414 0.70912 0.30992 0.0
O88 O 0.9337 0.69891 0.32037 0.0
C89 C 0.93823 0.7024 0.31372 0.0
C90 C 0.92363 0.72169 0.33201 0.0
C91 C 0.94797 0.7034 0.31505 0.0
C92 C 0.96127 0.7124 0.31809 0.0
C93 C 0.95196 0.71162 0.31732 0.0
C94 C 0.9627 0.69675 0.31451 0.0
C95 C 0.96679 0.70499 0.31661 0.0
C96 C 0.95342 0.69598 0.31373 0.0
C97 C 0.90393 0.69698 0.30736 0.0
C98 C 0.90486 0.68778 0.29406 0.0
C99 C 0.89091 0.68872 0.30209 0.0
C100 C 0.89495 0.69445 0.30827 0.0
C101 C 0.89576 0.6854 0.29483 0.0
C102 C 0.90891 0.69353 0.30027 0.0
C103 C 0.90774 0.70344 0.31375 0.0
O104 O 0.92378 0.71313 0.33387 0.0
O105 O 0.92422 0.72335 0.32344 0.0
O106 O 0.91209 0.7103 0.31036 0.0
O107 O 0.91166 0.70008 0.32081 0.0
H108 H 0.9058 0.72354 0.32846 0.0
H109 H 0.89499 0.73241 0.33681 0.0
H110 H 0.9159 0.74056 0.355 0.0
H111 H 0.92659 0.73161 0.34668 0.0
H112 H 0.96416 0.71887 0.31964 0.0
H113 H 0.94789 0.71745 0.31838 0.0
H114 H 0.96668 0.69086 0.3135 0.0
H115 H 0.95049 0.68957 0.31201 0.0
H116 H 0.90879 0.68538 0.28852 0.0
H117 H 0.88395 0.68691 0.30301 0.0
H118 H 0.891 0.697 0.31372 0.0
H119 H 0.91587 0.6954 0.29945 0.0
C120 C 0.30258 0.91592 0.3353 0.0
C121 C 0.30466 0.90681 0.33523 0.0
C122 C 0.29195 0.90353 0.34492 0.0
C123 C 0.2994 0.90067 0.34002 0.0
C124 C 0.28991 0.91267 0.34491 0.0
C125 C 0.29517 0.91879 0.34016 0.0
U126 U 0.3207 0.92281 0.31835 0.0
O127 O 0.32085 0.93401 0.30889 0.0
O128 O 0.33097 0.93341 0.31943 0.0
C129 C 0.32751 0.93811 0.31293 0.0
C130 C 0.30805 0.92258 0.33048 0.0
C131 C 0.32652 0.94779 0.31459 0.0
C132 C 0.31746 0.96108 0.31629 0.0
C133 C 0.31812 0.9518 0.31537 0.0
C134 C 0.33356 0.96244 0.31593 0.0
C135 C 0.32517 0.96655 0.31646 0.0
C136 C 0.33422 0.95319 0.31499 0.0
C137 C 0.33326 0.90448 0.30524 0.0
C138 C 0.33878 0.90289 0.29007 0.0
C139 C 0.34573 0.8947 0.30203 0.0
C140 C 0.3398 0.89848 0.3081 0.0
C141 C 0.34525 0.89678 0.29292 0.0
C142 C 0.33286 0.90672 0.29615 0.0
C143 C 0.3266 0.90774 0.31174 0.0
O144 O 0.31661 0.92274 0.3324 0.0
O145 O 0.30645 0.92333 0.32192 0.0
O146 O 0.31962 0.91194 0.30856 0.0
O147 O 0.32978 0.91135 0.31907 0.0
H148 H 0.31035 0.90447 0.3315 0.0
H149 H 0.30111 0.89368 0.33979 0.0
H150 H 0.28432 0.91514 0.3487 0.0
H151 H 0.29348 0.92579 0.34032 0.0
H152 H 0.31088 0.964 0.31661 0.0
H153 H 0.31207 0.94779 0.3151 0.0
H154 H 0.33966 0.96638 0.31621 0.0
H155 H 0.34077 0.95025 0.31444 0.0
H156 H 0.33828 0.90472 0.28311 0.0
H157 H 0.35054 0.88993 0.30446 0.0
H158 H 0.34019 0.89656 0.31504 0.0
H159 H 0.3279 0.91131 0.29371 0.0
C160 C 0.11295 0.69151 0.72631 0.0
C161 C 0.1216 0.68989 0.72312 0.0
C162 C 0.12517 0.68156 0.73662 0.0
C163 C 0.12764 0.68495 0.72822 0.0
C164 C 0.11654 0.68334 0.73982 0.0
C165 C 0.11051 0.68824 0.73471 0.0
U166 U 0.10665 0.70892 0.70866 0.0
O167 O 0.09611 0.7085 0.69845 0.0
O168 O 0.09586 0.7188 0.7088 0.0
C169 C 0.0917 0.71514 0.702 0.0
C170 C 0.10636 0.69649 0.72101 0.0
C171 C 0.08195 0.71385 0.70297 0.0
C172 C 0.06891 0.70491 0.70704 0.0
C173 C 0.07821 0.70598 0.70648 0.0
C174 C 0.067 0.71961 0.70069 0.0
C175 C 0.06317 0.71169 0.70408 0.0
C176 C 0.07628 0.72066 0.70014 0.0
C177 C 0.12586 0.72192 0.6969 0.0
C178 C 0.12587 0.72977 0.68271 0.0
C179 C 0.13794 0.73223 0.69317 0.0
C180 C 0.1339 0.72626 0.69911 0.0
C181 C 0.13405 0.734 0.68484 0.0
C182 C 0.12181 0.72378 0.68869 0.0
C183 C 0.12214 0.71526 0.70317 0.0
O184 O 0.10578 0.70504 0.72279 0.0
O185 O 0.10611 0.69474 0.71244 0.0
O186 O 0.11821 0.7082 0.69968 0.0
O187 O 0.11789 0.71842 0.71011 0.0
H188 H 0.12365 0.69238 0.71666 0.0
H189 H 0.13419 0.68366 0.7255 0.0
H190 H 0.11444 0.68101 0.74631 0.0
H191 H 0.1039 0.68947 0.73732 0.0
H192 H 0.06621 0.6987 0.70963 0.0
H193 H 0.08248 0.70064 0.70872 0.0
H194 H 0.06284 0.72505 0.69852 0.0
H195 H 0.07902 0.7268 0.69744 0.0
H196 H 0.1227 0.73092 0.67634 0.0
H197 H 0.14412 0.73548 0.69513 0.0
H198 H 0.13712 0.72494 0.70543 0.0
H199 H 0.11559 0.72052 0.68684 0.0
C200 C 0.30319 0.11259 0.68862 0.0
C201 C 0.30302 0.12155 0.69133 0.0
C202 C 0.29308 0.12519 0.67898 0.0
C203 C 0.298 0.12778 0.68656 0.0
C204 C 0.29335 0.11621 0.67628 0.0
C205 C 0.29835 0.10998 0.68105 0.0
U206 U 0.32015 0.10602 0.70652 0.0
O207 O 0.31978 0.09493 0.71611 0.0
O208 O 0.33055 0.09572 0.70624 0.0
C209 C 0.32674 0.09101 0.7126 0.0
C210 C 0.30829 0.10588 0.69361 0.0
C211 C 0.32593 0.08129 0.71106 0.0
C212 C 0.31719 0.06791 0.70766 0.0
C213 C 0.31785 0.07722 0.70845 0.0
C214 C 0.33274 0.06665 0.71183 0.0
C215 C 0.32461 0.06248 0.70946 0.0
C216 C 0.33338 0.07593 0.71263 0.0
C217 C 0.33128 0.12518 0.7202 0.0
C218 C 0.34539 0.12567 0.72829 0.0
C219 C 0.33446 0.13721 0.7306 0.0
C220 C 0.32872 0.13301 0.72454 0.0
C221 C 0.34293 0.13369 0.73246 0.0
C222 C 0.33962 0.12146 0.72219 0.0
C223 C 0.32528 0.12141 0.71331 0.0
O224 O 0.31695 0.10592 0.69221 0.0
O225 O 0.30619 0.10497 0.70205 0.0
O226 O 0.31826 0.11692 0.71617 0.0
O227 O 0.32908 0.11776 0.70635 0.0
H228 H 0.30675 0.1237 0.69713 0.0
H229 H 0.29803 0.13465 0.68878 0.0
H230 H 0.28956 0.11393 0.67056 0.0
H231 H 0.29838 0.1031 0.67887 0.0
H232 H 0.31082 0.06495 0.70587 0.0
H233 H 0.31201 0.08122 0.70718 0.0
H234 H 0.33863 0.06273 0.71309 0.0
H235 H 0.33969 0.07892 0.71461 0.0
H236 H 0.35187 0.1228 0.72953 0.0
H237 H 0.33225 0.14326 0.73381 0.0
H238 H 0.32231 0.13598 0.72312 0.0
H239 H 0.34173 0.1154 0.71893 0.0
C240 C 0.91725 0.33817 0.72565 0.0
C241 C 0.90804 0.33654 0.72479 0.0
C242 C 0.90494 0.3477 0.73619 0.0
C243 C 0.90194 0.34126 0.73 0.0
C244 C 0.91419 0.34931 0.73695 0.0
C245 C 0.92026 0.34459 0.73175 0.0
U246 U 0.9236 0.32124 0.70757 0.0
O247 O 0.93418 0.32216 0.6974 0.0
O248 O 0.93446 0.31149 0.70739 0.0
C249 C 0.93868 0.31551 0.70082 0.0
C250 C 0.92382 0.3333 0.72028 0.0
C251 C 0.94843 0.31696 0.70188 0.0
C252 C 0.96189 0.31791 0.71099 0.0
C253 C 0.95257 0.31714 0.71028 0.0
C254 C 0.96306 0.31854 0.69495 0.0
C255 C 0.96728 0.31852 0.70332 0.0
C256 C 0.95376 0.31774 0.69425 0.0
C257 C 0.90458 0.30875 0.69503 0.0
C258 C 0.90583 0.29548 0.68581 0.0
C259 C 0.89197 0.30363 0.68612 0.0
C260 C 0.89577 0.30973 0.6921 0.0
C261 C 0.89692 0.29639 0.68293 0.0
C262 C 0.90963 0.30161 0.6918 0.0
C263 C 0.90817 0.31511 0.70165 0.0
O264 O 0.92432 0.32469 0.72179 0.0
O265 O 0.92404 0.3353 0.71177 0.0
O266 O 0.9121 0.32231 0.69847 0.0
O267 O 0.9124 0.31167 0.70849 0.0
H268 H 0.90559 0.33159 0.72011 0.0
H269 H 0.89489 0.33978 0.72929 0.0
H270 H 0.91676 0.35431 0.74151 0.0
H271 H 0.92734 0.34598 0.73247 0.0
H272 H 0.96488 0.31779 0.71755 0.0
H273 H 0.94863 0.31655 0.71629 0.0
H274 H 0.96693 0.31917 0.6889 0.0
H275 H 0.95073 0.31763 0.6877 0.0
H276 H 0.90986 0.29004 0.68342 0.0
H277 H 0.88507 0.30448 0.68418 0.0
H278 H 0.89175 0.31517 0.69455 0.0
H279 H 0.91647 0.30075 0.69396 0.0
C280 C 0.69221 0.91499 0.7247 0.0
C281 C 0.69577 0.9065 0.72623 0.0
C282 C 0.68257 0.90221 0.73483 0.0
C283 C 0.69101 0.90017 0.73127 0.0
C284 C 0.67902 0.9107 0.73317 0.0
C285 C 0.68379 0.91701 0.72817 0.0
U286 U 0.70956 0.92247 0.70726 0.0
O287 O 0.70871 0.93326 0.69733 0.0
O288 O 0.71914 0.9337 0.70758 0.0
C289 C 0.71517 0.93795 0.70104 0.0
C290 C 0.69716 0.92188 0.71963 0.0
C291 C 0.71347 0.94759 0.70234 0.0
C292 C 0.71284 0.96088 0.71165 0.0
C293 C 0.71389 0.95163 0.71077 0.0
C294 C 0.71073 0.96216 0.69575 0.0
C295 C 0.7113 0.96627 0.70414 0.0
C296 C 0.71182 0.95294 0.69486 0.0
C297 C 0.72251 0.90415 0.69439 0.0
C298 C 0.73762 0.90288 0.68854 0.0
C299 C 0.72568 0.89381 0.68235 0.0
C300 C 0.71965 0.89768 0.68825 0.0
C301 C 0.73477 0.89628 0.68246 0.0
C302 C 0.73155 0.90678 0.69443 0.0
C303 C 0.71604 0.90748 0.70103 0.0
O304 O 0.70574 0.92268 0.72139 0.0
O305 O 0.69536 0.9223 0.71109 0.0
O306 O 0.70879 0.9112 0.69787 0.0
O307 O 0.71927 0.91159 0.70808 0.0
H308 H 0.70224 0.90477 0.72355 0.0
H309 H 0.6939 0.89367 0.73233 0.0
H310 H 0.6726 0.91254 0.73589 0.0
H311 H 0.68094 0.92353 0.72708 0.0
H312 H 0.71322 0.9638 0.71823 0.0
H313 H 0.71512 0.94769 0.71667 0.0
H314 H 0.70967 0.9661 0.6898 0.0
H315 H 0.71153 0.95001 0.68828 0.0
H316 H 0.74454 0.90501 0.68874 0.0
H317 H 0.72326 0.88867 0.67787 0.0
H318 H 0.71274 0.89546 0.68814 0.0
H319 H 0.73397 0.91175 0.6991 0.0
C320 C 0.30302 0.11336 0.33685 0.0
C321 C 0.30422 0.12255 0.33543 0.0
C322 C 0.29254 0.12577 0.34626 0.0
C323 C 0.29903 0.1287 0.34011 0.0
C324 C 0.29143 0.11654 0.34766 0.0
C325 C 0.29662 0.11041 0.343 0.0
U326 U 0.32049 0.1067 0.31939 0.0
O327 O 0.33084 0.09636 0.32014 0.0
O328 O 0.32031 0.09546 0.31 0.0
C329 C 0.32714 0.09154 0.31381 0.0
C330 C 0.30833 0.10672 0.332 0.0
C331 C 0.32625 0.08184 0.31552 0.0
C332 C 0.31729 0.06827 0.31723 0.0
C333 C 0.31789 0.07758 0.31638 0.0
C334 C 0.3334 0.06738 0.31666 0.0
C335 C 0.32504 0.06303 0.31724 0.0
C336 C 0.33398 0.07666 0.31579 0.0
C337 C 0.33213 0.12524 0.30542 0.0
C338 C 0.34689 0.12619 0.29863 0.0
C339 C 0.33501 0.13558 0.29324 0.0
C340 C 0.32918 0.13182 0.2995 0.0
C341 C 0.34396 0.13289 0.29276 0.0
C342 C 0.34103 0.12239 0.30488 0.0
C343 C 0.32591 0.12188 0.31233 0.0
O344 O 0.30642 0.10577 0.32352 0.0
O345 O 0.31696 0.10685 0.3336 0.0
O346 O 0.32946 0.11842 0.31954 0.0
O347 O 0.31887 0.11741 0.30947 0.0
H348 H 0.30913 0.12495 0.33068 0.0
H349 H 0.30001 0.13575 0.3388 0.0
H350 H 0.28661 0.11403 0.35243 0.0
H351 H 0.29562 0.10334 0.34421 0.0
H352 H 0.31074 0.06516 0.3176 0.0
H353 H 0.3118 0.08141 0.31621 0.0
H354 H 0.33952 0.06361 0.31683 0.0
H355 H 0.34051 0.07979 0.31516 0.0
H356 H 0.35371 0.12389 0.29838 0.0
H357 H 0.33255 0.1408 0.28892 0.0
H358 H 0.32238 0.13417 0.29982 0.0
H359 H 0.34349 0.1173 0.30934 0.0
C360 C 0.91755 0.33808 0.29979 0.0
C361 C 0.90843 0.33579 0.29986 0.0
C362 C 0.90526 0.34787 0.28943 0.0
C363 C 0.90234 0.34065 0.29472 0.0
C364 C 0.9144 0.35018 0.28951 0.0
C365 C 0.92046 0.34533 0.29463 0.0
U366 U 0.92385 0.32031 0.31707 0.0
O367 O 0.93447 0.31025 0.31653 0.0
O368 O 0.93462 0.3204 0.32704 0.0
C369 C 0.93892 0.31385 0.32319 0.0
C370 C 0.92414 0.33293 0.3049 0.0
C371 C 0.94866 0.31509 0.32187 0.0
C372 C 0.96203 0.32448 0.321 0.0
C373 C 0.95273 0.32359 0.32178 0.0
C374 C 0.96332 0.30843 0.32019 0.0
C375 C 0.96745 0.31691 0.32024 0.0
C376 C 0.95404 0.30755 0.32102 0.0
C377 C 0.90449 0.30768 0.32906 0.0
C378 C 0.90553 0.29772 0.34182 0.0
C379 C 0.89135 0.29965 0.33435 0.0
C380 C 0.89539 0.30557 0.32836 0.0
C381 C 0.89633 0.29571 0.34123 0.0
C382 C 0.90957 0.30368 0.3358 0.0
C383 C 0.90834 0.31425 0.3228 0.0
O384 O 0.9245 0.33456 0.31348 0.0
O385 O 0.9245 0.32438 0.30302 0.0
O386 O 0.91242 0.31102 0.3158 0.0
O387 O 0.91254 0.32113 0.32634 0.0
H388 H 0.90605 0.33021 0.3038 0.0
H389 H 0.89539 0.33862 0.29476 0.0
H390 H 0.91688 0.35578 0.28566 0.0
H391 H 0.92746 0.34723 0.29453 0.0
H392 H 0.96497 0.33111 0.32096 0.0
H393 H 0.94874 0.32954 0.32238 0.0
H394 H 0.96727 0.30245 0.31973 0.0
H395 H 0.95107 0.30092 0.32112 0.0
H396 H 0.90955 0.29484 0.34705 0.0
H397 H 0.88431 0.29813 0.33356 0.0
H398 H 0.89136 0.30855 0.32319 0.0
H399 H 0.91662 0.30523 0.33644 0.0
C400 C 0.69318 0.91605 0.30012 0.0
C401 C 0.69452 0.90687 0.3013 0.0
C402 C 0.68367 0.90351 0.28959 0.0
C403 C 0.6898 0.90065 0.29609 0.0
C404 C 0.68237 0.91273 0.28849 0.0
C405 C 0.68708 0.91892 0.29369 0.0
U406 U 0.71018 0.92302 0.31814 0.0
O407 O 0.7197 0.93429 0.31826 0.0
O408 O 0.70909 0.93357 0.32829 0.0
C409 C 0.71561 0.93836 0.32481 0.0
C410 C 0.69802 0.92275 0.30549 0.0
C411 C 0.71388 0.948 0.32366 0.0
C412 C 0.71237 0.96127 0.3144 0.0
C413 C 0.71348 0.95202 0.31521 0.0
C414 C 0.71183 0.96259 0.33043 0.0
C415 C 0.71159 0.96668 0.32201 0.0
C416 C 0.71298 0.95337 0.33124 0.0
C417 C 0.72313 0.9046 0.33083 0.0
C418 C 0.73828 0.90307 0.33657 0.0
C419 C 0.72621 0.89445 0.3431 0.0
C420 C 0.72019 0.89833 0.33716 0.0
C421 C 0.73535 0.89669 0.34283 0.0
C422 C 0.73224 0.90699 0.33064 0.0
C423 C 0.71669 0.90794 0.32415 0.0
O424 O 0.69607 0.92288 0.31401 0.0
O425 O 0.70662 0.92356 0.30393 0.0
O426 O 0.71996 0.91222 0.31722 0.0
O427 O 0.70935 0.91151 0.32726 0.0
H428 H 0.69923 0.90453 0.30624 0.0
H429 H 0.69103 0.89362 0.29707 0.0
H430 H 0.67761 0.91518 0.28367 0.0
H431 H 0.68592 0.92597 0.29271 0.0
H432 H 0.71211 0.96418 0.30781 0.0
H433 H 0.7141 0.94804 0.30924 0.0
H434 H 0.71136 0.96654 0.33643 0.0
H435 H 0.71331 0.95044 0.33782 0.0
H436 H 0.74525 0.90502 0.33624 0.0
H437 H 0.72372 0.88948 0.34773 0.0
H438 H 0.71324 0.89629 0.33739 0.0
H439 H 0.73474 0.91179 0.32584 0.0
C440 C 0.11307 0.69181 0.29898 0.0
C441 C 0.12133 0.68923 0.30255 0.0
C442 C 0.12514 0.68174 0.28865 0.0
C443 C 0.12729 0.68423 0.29744 0.0
C444 C 0.11692 0.6845 0.28509 0.0
C445 C 0.11096 0.68945 0.29021 0.0
U446 U 0.10677 0.70924 0.31662 0.0
O447 O 0.09602 0.71917 0.31638 0.0
O448 O 0.09617 0.70887 0.32675 0.0
C449 C 0.09178 0.71549 0.32312 0.0
C450 C 0.1065 0.69684 0.30427 0.0
C451 C 0.08203 0.71424 0.32205 0.0
C452 C 0.06888 0.70494 0.31928 0.0
C453 C 0.07819 0.70595 0.31983 0.0
C454 C 0.06716 0.72054 0.32296 0.0
C455 C 0.06322 0.71222 0.32092 0.0
C456 C 0.07644 0.72152 0.32354 0.0
C457 C 0.12597 0.72215 0.32851 0.0
C458 C 0.12586 0.73009 0.34265 0.0
C459 C 0.13816 0.73227 0.33241 0.0
C460 C 0.13412 0.72634 0.32643 0.0
C461 C 0.13415 0.73415 0.34066 0.0
C462 C 0.1218 0.72414 0.33663 0.0
C463 C 0.12225 0.71552 0.32222 0.0
O464 O 0.10619 0.69507 0.31284 0.0
O465 O 0.10596 0.70539 0.30249 0.0
O466 O 0.11805 0.71871 0.31526 0.0
O467 O 0.11827 0.70847 0.32569 0.0
H468 H 0.12313 0.691 0.3093 0.0
H469 H 0.13351 0.68217 0.30045 0.0
H470 H 0.11509 0.68288 0.2783 0.0
H471 H 0.10466 0.69142 0.2873 0.0
H472 H 0.0661 0.69842 0.31775 0.0
H473 H 0.08237 0.70023 0.31864 0.0
H474 H 0.06307 0.72633 0.32409 0.0
H475 H 0.07926 0.72799 0.32521 0.0
H476 H 0.12261 0.73133 0.34895 0.0
H477 H 0.14444 0.73539 0.33056 0.0
H478 H 0.13743 0.72493 0.32019 0.0
H479 H 0.1155 0.721 0.33837 0.0
C480 C 0.30379 0.91587 0.68919 0.0
C481 C 0.30165 0.90748 0.69282 0.0
C482 C 0.29342 0.90342 0.67936 0.0
C483 C 0.29648 0.90133 0.68796 0.0
C484 C 0.2957 0.91179 0.67572 0.0
C485 C 0.30081 0.91794 0.68059 0.0
U486 U 0.32128 0.92253 0.70676 0.0
O487 O 0.3316 0.93313 0.70628 0.0
O488 O 0.32119 0.93344 0.71653 0.0
C489 C 0.32799 0.93763 0.71283 0.0
C490 C 0.30901 0.92258 0.69424 0.0
C491 C 0.32701 0.94733 0.7114 0.0
C492 C 0.31805 0.96037 0.70796 0.0
C493 C 0.31887 0.95108 0.70876 0.0
C494 C 0.33355 0.96223 0.71221 0.0
C495 C 0.32537 0.96608 0.70978 0.0
C496 C 0.33434 0.95298 0.71302 0.0
C497 C 0.33316 0.90346 0.71947 0.0
C498 C 0.34427 0.90517 0.7312 0.0
C499 C 0.34019 0.89043 0.72591 0.0
C500 C 0.33417 0.8942 0.71992 0.0
C501 C 0.34536 0.89585 0.73161 0.0
C502 C 0.33823 0.90895 0.72516 0.0
C503 C 0.32679 0.90713 0.71297 0.0
O504 O 0.30717 0.92324 0.70276 0.0
O505 O 0.31761 0.92288 0.69255 0.0
O506 O 0.33029 0.91106 0.70596 0.0
O507 O 0.31992 0.9114 0.71625 0.0
H508 H 0.30393 0.9057 0.69942 0.0
H509 H 0.29494 0.89491 0.69092 0.0
H510 H 0.29337 0.91367 0.66916 0.0
H511 H 0.30238 0.92438 0.67767 0.0
H512 H 0.31163 0.96307 0.70614 0.0
H513 H 0.31311 0.94685 0.70745 0.0
H514 H 0.33937 0.96638 0.71349 0.0
H515 H 0.3407 0.95023 0.71502 0.0
H516 H 0.34819 0.90955 0.73544 0.0
H517 H 0.34072 0.88324 0.72613 0.0
H518 H 0.33029 0.88985 0.7156 0.0
H519 H 0.33754 0.91613 0.7249 0.0
C520 C 0.11426 0.30112 0.68958 0.0
C521 C 0.12243 0.29849 0.6933 0.0
C522 C 0.12642 0.29092 0.67949 0.0
C523 C 0.12844 0.29342 0.68831 0.0
C524 C 0.11831 0.29376 0.67577 0.0
C525 C 0.1123 0.29878 0.68076 0.0
U526 U 0.10753 0.31788 0.70771 0.0
O527 O 0.0969 0.32789 0.70764 0.0
O528 O 0.09656 0.31705 0.71747 0.0
C529 C 0.09235 0.32387 0.714 0.0
C530 C 0.10759 0.30609 0.69478 0.0
C531 C 0.08261 0.3227 0.71261 0.0
C532 C 0.06943 0.32219 0.70309 0.0
C533 C 0.07873 0.32273 0.70409 0.0
C534 C 0.06775 0.32137 0.71907 0.0
C535 C 0.06379 0.3216 0.71058 0.0
C536 C 0.07703 0.32194 0.72007 0.0
C537 C 0.12634 0.32964 0.72124 0.0
C538 C 0.12571 0.3434 0.7298 0.0
C539 C 0.13836 0.33363 0.73143 0.0
C540 C 0.13456 0.32774 0.72525 0.0
C541 C 0.13403 0.34157 0.73375 0.0
C542 C 0.12189 0.33748 0.72362 0.0
C543 C 0.12284 0.3235 0.71436 0.0
O544 O 0.10685 0.30394 0.70323 0.0
O545 O 0.10733 0.31474 0.69338 0.0
O546 O 0.11899 0.32718 0.70742 0.0
O547 O 0.11863 0.31633 0.71723 0.0
H548 H 0.12411 0.30024 0.70009 0.0
H549 H 0.13458 0.29131 0.69143 0.0
H550 H 0.11659 0.29214 0.66895 0.0
H551 H 0.10607 0.30079 0.67774 0.0
H552 H 0.06664 0.32246 0.69644 0.0
H553 H 0.08287 0.32331 0.69821 0.0
H554 H 0.06368 0.32074 0.72499 0.0
H555 H 0.07986 0.32188 0.7267 0.0
H556 H 0.12214 0.3494 0.73151 0.0
H557 H 0.14482 0.33205 0.73422 0.0
H558 H 0.13813 0.32176 0.72348 0.0
H559 H 0.11552 0.33906 0.72063 0.0
C560 C 0.69191 0.11263 0.72642 0.0
C561 C 0.6933 0.12185 0.72534 0.0
C562 C 0.68185 0.1249 0.73646 0.0
C563 C 0.68832 0.12793 0.73034 0.0
C564 C 0.68056 0.11564 0.73753 0.0
C565 C 0.68554 0.10959 0.73256 0.0
U566 U 0.70919 0.10632 0.70865 0.0
O567 O 0.71894 0.09546 0.70862 0.0
O568 O 0.70843 0.09577 0.69846 0.0
C569 C 0.71498 0.09123 0.70202 0.0
C570 C 0.69692 0.10607 0.72116 0.0
C571 C 0.7134 0.08151 0.70312 0.0
C572 C 0.71263 0.06805 0.71224 0.0
C573 C 0.71362 0.07734 0.71151 0.0
C574 C 0.71098 0.06696 0.69626 0.0
C575 C 0.71135 0.06273 0.70461 0.0
C576 C 0.71202 0.07622 0.69553 0.0
C577 C 0.72175 0.12549 0.69635 0.0
C578 C 0.7351 0.12447 0.68719 0.0
C579 C 0.72693 0.13829 0.68778 0.0
C580 C 0.72078 0.13436 0.69361 0.0
C581 C 0.73423 0.13344 0.68455 0.0
C582 C 0.72892 0.12053 0.69305 0.0
C583 C 0.71534 0.12177 0.70285 0.0
O584 O 0.69506 0.10582 0.71262 0.0
O585 O 0.70552 0.10563 0.72282 0.0
O586 O 0.71874 0.11752 0.7097 0.0
O587 O 0.7082 0.11781 0.69955 0.0
H588 H 0.69819 0.12432 0.72061 0.0
H589 H 0.68943 0.135 0.72928 0.0
H590 H 0.67576 0.11305 0.74228 0.0
H591 H 0.6844 0.1025 0.7335 0.0
H592 H 0.71284 0.06503 0.71878 0.0
H593 H 0.71463 0.08123 0.7175 0.0
H594 H 0.71012 0.06308 0.69024 0.0
H595 H 0.71188 0.07926 0.68899 0.0
H596 H 0.74067 0.12055 0.68488 0.0
H597 H 0.72593 0.14515 0.68577 0.0
H598 H 0.71528 0.13829 0.69606 0.0
H599 H 0.72979 0.11366 0.69508 0.0
C600 C 0.91706 0.72691 0.68896 0.0
C601 C 0.90785 0.72575 0.69033 0.0
C602 C 0.90469 0.73743 0.67946 0.0
C603 C 0.90172 0.73095 0.68561 0.0
C604 C 0.91394 0.7385 0.6781 0.0
C605 C 0.92004 0.73329 0.68281 0.0
U606 U 0.92331 0.7095 0.70659 0.0
O607 O 0.93354 0.69904 0.70618 0.0
O608 O 0.93435 0.70961 0.71624 0.0
C609 C 0.93824 0.70267 0.71264 0.0
C610 C 0.92365 0.7216 0.6939 0.0
C611 C 0.94797 0.70347 0.71115 0.0
C612 C 0.96121 0.71191 0.70665 0.0
C613 C 0.9519 0.71122 0.70756 0.0
C614 C 0.96273 0.69706 0.71275 0.0
C615 C 0.96676 0.70486 0.70932 0.0
C616 C 0.95345 0.69639 0.71366 0.0
C617 C 0.90413 0.6983 0.72003 0.0
C618 C 0.90518 0.68542 0.72984 0.0
C619 C 0.89155 0.69393 0.72932 0.0
C620 C 0.89538 0.69963 0.723 0.0
C621 C 0.89638 0.68674 0.73284 0.0
C622 C 0.90903 0.69117 0.7235 0.0
C623 C 0.90782 0.70439 0.71322 0.0
O624 O 0.92451 0.72353 0.70239 0.0
O625 O 0.9235 0.71298 0.69235 0.0
O626 O 0.91149 0.70066 0.70623 0.0
O627 O 0.91237 0.71132 0.71619 0.0
H628 H 0.90541 0.72086 0.69508 0.0
H629 H 0.89466 0.73 0.68689 0.0
H630 H 0.91648 0.74331 0.67334 0.0
H631 H 0.92713 0.73427 0.68164 0.0
H632 H 0.96406 0.71804 0.70404 0.0
H633 H 0.94778 0.71678 0.70557 0.0
H634 H 0.96674 0.69143 0.71472 0.0
H635 H 0.95055 0.69034 0.71641 0.0
H636 H 0.90912 0.68001 0.73246 0.0
H637 H 0.88472 0.69507 0.73134 0.0
H638 H 0.89147 0.70507 0.72037 0.0
H639 H 0.91581 0.69005 0.72131 0.0
C640 C 0.30347 0.33822 0.11135 0.0
C641 C 0.29985 0.33406 0.11894 0.0
C642 C 0.29317 0.3481 0.12362 0.0
C643 C 0.29474 0.33895 0.125 0.0
C644 C 0.29697 0.35224 0.11609 0.0
C645 C 0.30204 0.34735 0.11003 0.0
U646 U 0.32035 0.32034 0.10432 0.0
O647 O 0.31986 0.31093 0.09311 0.0
O648 O 0.33066 0.32092 0.09384 0.0
C649 C 0.32681 0.31458 0.08912 0.0
C650 C 0.30856 0.33319 0.10462 0.0
C651 C 0.32597 0.31624 0.07946 0.0
C652 C 0.31718 0.3197 0.06626 0.0
C653 C 0.31788 0.31883 0.07554 0.0
C654 C 0.33269 0.31563 0.06475 0.0
C655 C 0.32456 0.31798 0.06073 0.0
C656 C 0.33337 0.31476 0.07399 0.0
C657 C 0.33189 0.30637 0.12273 0.0
C658 C 0.34653 0.29948 0.12335 0.0
C659 C 0.33491 0.29464 0.13349 0.0
C660 C 0.32907 0.30078 0.12968 0.0
C661 C 0.34376 0.29398 0.13046 0.0
C662 C 0.34066 0.3056 0.11951 0.0
C663 C 0.32574 0.31328 0.1194 0.0
O664 O 0.31722 0.33468 0.10447 0.0
O665 O 0.30641 0.32472 0.10362 0.0
O666 O 0.31864 0.31043 0.11506 0.0
O667 O 0.32938 0.32046 0.11586 0.0
H668 H 0.30088 0.32702 0.12014 0.0
H669 H 0.29186 0.33549 0.13065 0.0
H670 H 0.29608 0.35929 0.11488 0.0
H671 H 0.3048 0.3507 0.10425 0.0
H672 H 0.3108 0.32146 0.06341 0.0
H673 H 0.31206 0.32002 0.07963 0.0
H674 H 0.33856 0.31443 0.06074 0.0
H675 H 0.33969 0.31279 0.07687 0.0
H676 H 0.35326 0.29906 0.12077 0.0
H677 H 0.33256 0.2906 0.13901 0.0
H678 H 0.32236 0.30129 0.13232 0.0
H679 H 0.34301 0.30981 0.11413 0.0
C680 C 0.30237 0.69083 0.91555 0.0
C681 C 0.30317 0.6926 0.90641 0.0
C682 C 0.29194 0.68114 0.90309 0.0
C683 C 0.29801 0.68779 0.90024 0.0
C684 C 0.29125 0.67937 0.91227 0.0
C685 C 0.29641 0.68417 0.91842 0.0
U686 U 0.31979 0.70866 0.92188 0.0
O687 O 0.31947 0.71872 0.93255 0.0
O688 O 0.32996 0.70863 0.93247 0.0
C689 C 0.32629 0.71527 0.93679 0.0
C690 C 0.30758 0.69593 0.92219 0.0
C691 C 0.32521 0.71413 0.94648 0.0
C692 C 0.31999 0.70581 0.95944 0.0
C693 C 0.32084 0.70667 0.95017 0.0
C694 C 0.32783 0.71989 0.96139 0.0
C695 C 0.32345 0.71244 0.96517 0.0
C696 C 0.32869 0.72071 0.95216 0.0
C697 C 0.33138 0.72168 0.90268 0.0
C698 C 0.34447 0.73144 0.90356 0.0
C699 C 0.33563 0.73094 0.89007 0.0
C700 C 0.32991 0.72465 0.89397 0.0
C701 C 0.34299 0.73444 0.89479 0.0
C702 C 0.33869 0.72513 0.90748 0.0
C703 C 0.32525 0.7149 0.90643 0.0
O704 O 0.31619 0.69439 0.92238 0.0
O705 O 0.3057 0.70445 0.92276 0.0
O706 O 0.31822 0.71793 0.91062 0.0
O707 O 0.32892 0.70805 0.91044 0.0
H708 H 0.30773 0.69775 0.90407 0.0
H709 H 0.29865 0.6894 0.89324 0.0
H710 H 0.28677 0.6742 0.91471 0.0
H711 H 0.29573 0.68269 0.92544 0.0
H712 H 0.31652 0.70003 0.96211 0.0
H713 H 0.31808 0.70152 0.94588 0.0
H714 H 0.33071 0.72504 0.96557 0.0
H715 H 0.33212 0.72651 0.94945 0.0
H716 H 0.35003 0.73404 0.90741 0.0
H717 H 0.33437 0.73295 0.88326 0.0
H718 H 0.32434 0.72204 0.89014 0.0
H719 H 0.33993 0.72294 0.91423 0.0
C720 C 0.30373 0.3387 0.91443 0.0
C721 C 0.30153 0.33508 0.90609 0.0
C722 C 0.29342 0.34857 0.90215 0.0
C723 C 0.29641 0.33995 0.90002 0.0
C724 C 0.2958 0.3522 0.91047 0.0
C725 C 0.30088 0.34731 0.91653 0.0
U726 U 0.32064 0.32075 0.92107 0.0
O727 O 0.33101 0.32111 0.93151 0.0
O728 O 0.32021 0.31112 0.93211 0.0
C729 C 0.32716 0.3147 0.93615 0.0
C730 C 0.30886 0.33361 0.92109 0.0
C731 C 0.32629 0.31626 0.94582 0.0
C732 C 0.31748 0.31975 0.95897 0.0
C733 C 0.31821 0.31891 0.9497 0.0
C734 C 0.33295 0.31555 0.96058 0.0
C735 C 0.32482 0.31796 0.96455 0.0
C736 C 0.33366 0.3147 0.95134 0.0
C737 C 0.33185 0.30723 0.90213 0.0
C738 C 0.3456 0.29872 0.90245 0.0
C739 C 0.33557 0.29736 0.88988 0.0
C740 C 0.32977 0.3034 0.89387 0.0
C741 C 0.34363 0.29502 0.89404 0.0
C742 C 0.33977 0.30477 0.90645 0.0
C743 C 0.32582 0.31404 0.90578 0.0
O744 O 0.30671 0.32513 0.92193 0.0
O745 O 0.31752 0.33508 0.92117 0.0
O746 O 0.32961 0.32105 0.9095 0.0
O747 O 0.31879 0.31108 0.91015 0.0
H748 H 0.30369 0.32844 0.90431 0.0
H749 H 0.29465 0.33689 0.89373 0.0
H750 H 0.29378 0.35887 0.91229 0.0
H751 H 0.30255 0.35026 0.92291 0.0
H752 H 0.3111 0.32156 0.96178 0.0
H753 H 0.31242 0.32018 0.94558 0.0
H754 H 0.3388 0.31429 0.96461 0.0
H755 H 0.33997 0.31269 0.94849 0.0
H756 H 0.35177 0.29711 0.90582 0.0
H757 H 0.33373 0.29454 0.8835 0.0
H758 H 0.32368 0.30517 0.89043 0.0
H759 H 0.34151 0.30765 0.91284 0.0
C760 C 0.69128 0.30222 0.91472 0.0
C761 C 0.69461 0.3011 0.90607 0.0
C762 C 0.6815 0.29216 0.90203 0.0
C763 C 0.68978 0.29609 0.89979 0.0
C764 C 0.67816 0.2934 0.91069 0.0
C765 C 0.68301 0.29836 0.91696 0.0
U766 U 0.70935 0.3192 0.92146 0.0
O767 O 0.70917 0.32959 0.93184 0.0
O768 O 0.719 0.31887 0.93249 0.0
C769 C 0.71555 0.32583 0.93647 0.0
C770 C 0.69632 0.3073 0.9215 0.0
C771 C 0.71404 0.32502 0.94615 0.0
C772 C 0.70957 0.31655 0.95929 0.0
C773 C 0.71043 0.31725 0.95001 0.0
C774 C 0.71574 0.33145 0.96091 0.0
C775 C 0.71232 0.32362 0.96487 0.0
C776 C 0.71659 0.33213 0.95167 0.0
C777 C 0.72297 0.33046 0.90242 0.0
C778 C 0.7314 0.34445 0.90244 0.0
C779 C 0.73301 0.33411 0.89021 0.0
C780 C 0.72695 0.32825 0.89429 0.0
C781 C 0.73523 0.34235 0.89415 0.0
C782 C 0.72532 0.33856 0.90654 0.0
C783 C 0.71609 0.32438 0.90612 0.0
O784 O 0.70478 0.30524 0.92238 0.0
O785 O 0.69497 0.31594 0.92159 0.0
O786 O 0.70913 0.32811 0.90983 0.0
O787 O 0.71898 0.31741 0.91053 0.0
H788 H 0.70096 0.30408 0.90419 0.0
H789 H 0.6925 0.29537 0.89316 0.0
H790 H 0.67187 0.29038 0.91268 0.0
H791 H 0.68033 0.29915 0.9236 0.0
H792 H 0.70696 0.31041 0.9621 0.0
H793 H 0.7084 0.31167 0.94587 0.0
H794 H 0.71776 0.3371 0.96495 0.0
H795 H 0.71936 0.3382 0.94883 0.0
H796 H 0.73291 0.35075 0.90565 0.0
H797 H 0.73594 0.33218 0.88392 0.0
H798 H 0.72525 0.32203 0.89101 0.0
H799 H 0.72233 0.3404 0.91282 0.0
C800 C 0.69237 0.72664 0.91424 0.0
C801 C 0.69641 0.7298 0.90639 0.0
C802 C 0.6824 0.73654 0.9017 0.0
C803 C 0.69148 0.73474 0.90021 0.0
C804 C 0.67837 0.73323 0.90951 0.0
C805 C 0.68331 0.72836 0.91571 0.0
U806 U 0.71027 0.70986 0.92128 0.0
O807 O 0.72015 0.71063 0.93214 0.0
O808 O 0.71009 0.69988 0.93202 0.0
C809 C 0.71663 0.7038 0.93642 0.0
C810 C 0.69747 0.72171 0.92106 0.0
C811 C 0.71541 0.70492 0.94612 0.0
C812 C 0.70613 0.70723 0.95921 0.0
C813 C 0.70706 0.7067 0.94992 0.0
C814 C 0.7219 0.7044 0.96095 0.0
C815 C 0.71353 0.70598 0.96485 0.0
C816 C 0.72282 0.70386 0.95171 0.0
C817 C 0.72351 0.69812 0.90245 0.0
C818 C 0.73172 0.68419 0.90274 0.0
C819 C 0.73349 0.69433 0.89031 0.0
C820 C 0.72752 0.70021 0.89428 0.0
C821 C 0.73558 0.68617 0.89441 0.0
C822 C 0.72573 0.69011 0.90672 0.0
C823 C 0.71674 0.70424 0.90604 0.0
O824 O 0.69593 0.71308 0.92147 0.0
O825 O 0.70598 0.72383 0.92182 0.0
O826 O 0.71976 0.71139 0.91015 0.0
O827 O 0.70978 0.70056 0.90998 0.0
H828 H 0.70338 0.72851 0.90506 0.0
H829 H 0.69476 0.73709 0.89422 0.0
H830 H 0.67142 0.73457 0.91092 0.0
H831 H 0.68006 0.726 0.92172 0.0
H832 H 0.69957 0.70841 0.96197 0.0
H833 H 0.70124 0.70756 0.94574 0.0
H834 H 0.72779 0.70358 0.96504 0.0
H835 H 0.72933 0.70252 0.94892 0.0
H836 H 0.73313 0.67796 0.90606 0.0
H837 H 0.73646 0.69618 0.88399 0.0
H838 H 0.72592 0.70637 0.89088 0.0
H839 H 0.72272 0.68835 0.91304 0.0
C840 C 0.69188 0.72689 0.11106 0.0
C841 C 0.69482 0.72767 0.1199 0.0
C842 C 0.68188 0.73673 0.12356 0.0
C843 C 0.68988 0.73257 0.12609 0.0
C844 C 0.67897 0.73587 0.11469 0.0
C845 C 0.68393 0.73101 0.10852 0.0
U846 U 0.70928 0.70948 0.10452 0.0
O847 O 0.70897 0.69956 0.09376 0.0
O848 O 0.71945 0.7099 0.09392 0.0
C849 C 0.71574 0.70325 0.08952 0.0
C850 C 0.697 0.72187 0.10438 0.0
C851 C 0.7147 0.70451 0.07981 0.0
C852 C 0.70566 0.70726 0.06662 0.0
C853 C 0.70647 0.70663 0.07591 0.0
C854 C 0.72133 0.70386 0.06506 0.0
C855 C 0.71307 0.70577 0.06106 0.0
C856 C 0.72212 0.70322 0.07431 0.0
C857 C 0.72129 0.69694 0.12365 0.0
C858 C 0.73353 0.68649 0.12217 0.0
C859 C 0.72694 0.68913 0.13662 0.0
C860 C 0.72103 0.69517 0.13279 0.0
C861 C 0.73327 0.68469 0.13138 0.0
C862 C 0.72757 0.69256 0.11833 0.0
C863 C 0.71497 0.70343 0.11994 0.0
O864 O 0.70561 0.72364 0.10403 0.0
O865 O 0.69514 0.71331 0.10384 0.0
O866 O 0.70799 0.7001 0.11575 0.0
O867 O 0.71848 0.71042 0.11592 0.0
H868 H 0.70092 0.72449 0.12202 0.0
H869 H 0.69226 0.73301 0.13288 0.0
H870 H 0.67292 0.73908 0.11247 0.0
H871 H 0.68155 0.73051 0.10172 0.0
H872 H 0.69918 0.70869 0.06379 0.0
H873 H 0.70064 0.70767 0.08002 0.0
H874 H 0.72723 0.70286 0.06104 0.0
H875 H 0.72855 0.70162 0.07718 0.0
H876 H 0.73826 0.68315 0.11792 0.0
H877 H 0.72664 0.68805 0.14374 0.0
H878 H 0.71626 0.69852 0.13701 0.0
H879 H 0.72786 0.69383 0.11124 0.0
C880 C 0.30175 0.69137 0.11102 0.0
C881 C 0.30554 0.68848 0.11907 0.0
C882 C 0.29144 0.68134 0.12336 0.0
C883 C 0.30044 0.6835 0.12515 0.0
C884 C 0.28767 0.68438 0.11534 0.0
C885 C 0.29277 0.68931 0.10924 0.0
U886 U 0.31959 0.70881 0.10459 0.0
O887 O 0.32969 0.70856 0.09397 0.0
O888 O 0.31947 0.71893 0.09394 0.0
C889 C 0.32616 0.71531 0.08967 0.0
C890 C 0.30701 0.69645 0.10437 0.0
C891 C 0.32499 0.71419 0.07998 0.0
C892 C 0.3199 0.70577 0.06704 0.0
C893 C 0.32077 0.70664 0.07631 0.0
C894 C 0.3274 0.72002 0.06506 0.0
C895 C 0.32319 0.71247 0.0613 0.0
C896 C 0.32828 0.72086 0.07429 0.0
C897 C 0.33173 0.72124 0.12388 0.0
C898 C 0.34458 0.73127 0.12274 0.0
C899 C 0.3371 0.72929 0.13689 0.0
C900 C 0.33106 0.72333 0.13293 0.0
C901 C 0.34399 0.73329 0.13188 0.0
C902 C 0.3385 0.72528 0.11877 0.0
C903 C 0.32534 0.71473 0.12007 0.0
O904 O 0.30534 0.70502 0.10386 0.0
O905 O 0.31558 0.69467 0.10393 0.0
O906 O 0.32875 0.70781 0.11599 0.0
O907 O 0.31843 0.71807 0.11589 0.0
H908 H 0.31245 0.69001 0.12062 0.0
H909 H 0.30362 0.68121 0.1312 0.0
H910 H 0.28073 0.68302 0.11378 0.0
H911 H 0.2897 0.69152 0.10311 0.0
H912 H 0.31656 0.69991 0.06439 0.0
H913 H 0.31816 0.70142 0.0806 0.0
H914 H 0.33016 0.72524 0.06087 0.0
H915 H 0.3316 0.72672 0.07698 0.0
H916 H 0.34982 0.73419 0.11869 0.0
H917 H 0.33631 0.7308 0.14388 0.0
H918 H 0.32585 0.72032 0.13697 0.0
H919 H 0.33912 0.72375 0.11176 0.0
C920 C 0.69154 0.30154 0.11092 0.0
C921 C 0.69513 0.29974 0.11936 0.0
C922 C 0.68172 0.29127 0.12342 0.0
C923 C 0.69029 0.29462 0.12554 0.0
C924 C 0.67812 0.2932 0.115 0.0
C925 C 0.68299 0.29826 0.10881 0.0
U926 U 0.70908 0.31919 0.1044 0.0
O927 O 0.71894 0.31922 0.09356 0.0
O928 O 0.70862 0.32949 0.09393 0.0
C929 C 0.71526 0.326 0.08945 0.0
C930 C 0.69657 0.30675 0.10422 0.0
C931 C 0.71394 0.32507 0.07976 0.0
C932 C 0.7094 0.31655 0.06668 0.0
C933 C 0.71019 0.31733 0.07596 0.0
C934 C 0.71593 0.33129 0.06494 0.0
C935 C 0.71236 0.3235 0.06104 0.0
C936 C 0.71672 0.33205 0.07418 0.0
C937 C 0.72161 0.33134 0.12362 0.0
C938 C 0.7347 0.34106 0.12255 0.0
C939 C 0.72672 0.33977 0.13649 0.0
C940 C 0.7207 0.33377 0.13257 0.0
C941 C 0.7338 0.34351 0.13155 0.0
C942 C 0.72864 0.33503 0.11861 0.0
C943 C 0.71518 0.32485 0.11984 0.0
O944 O 0.69485 0.31532 0.10393 0.0
O945 O 0.70514 0.30504 0.10357 0.0
O946 O 0.71854 0.31803 0.11555 0.0
O947 O 0.70813 0.3282 0.11592 0.0
H948 H 0.70169 0.30226 0.12116 0.0
H949 H 0.69321 0.29335 0.132 0.0
H950 H 0.6716 0.29065 0.1131 0.0
H951 H 0.68009 0.29958 0.10234 0.0
H952 H 0.70666 0.31044 0.06392 0.0
H953 H 0.70798 0.31186 0.08016 0.0
H954 H 0.71811 0.33685 0.06085 0.0
H955 H 0.71958 0.3381 0.07698 0.0
H956 H 0.74004 0.34386 0.11853 0.0
H957 H 0.72589 0.34137 0.14347 0.0
H958 H 0.71535 0.33096 0.13656 0.0
H959 H 0.72944 0.33325 0.11167 0.0
C960 C 0.61353 0.80101 0.83633 0.0
C961 C 0.62252 0.80071 0.83375 0.0
C962 C 0.6258 0.79056 0.84603 0.0
C963 C 0.62861 0.79553 0.83856 0.0
C964 C 0.61678 0.79098 0.8486 0.0
C965 C 0.61072 0.79614 0.84379 0.0
U966 U 0.60737 0.81836 0.81861 0.0
O967 O 0.59629 0.81835 0.80901 0.0
O968 O 0.59725 0.82892 0.81905 0.0
C969 C 0.59246 0.8253 0.81265 0.0
C970 C 0.60697 0.80631 0.83134 0.0
C971 C 0.58273 0.82459 0.81422 0.0
C972 C 0.56925 0.81592 0.81743 0.0
C973 C 0.57856 0.81647 0.81653 0.0
C974 C 0.56818 0.83164 0.81396 0.0
C975 C 0.56391 0.82349 0.81607 0.0
C976 C 0.57746 0.83216 0.81304 0.0
C977 C 0.62662 0.82945 0.80515 0.0
C978 C 0.62648 0.84331 0.79669 0.0
C979 C 0.63891 0.83324 0.79524 0.0
C980 C 0.63484 0.82738 0.80128 0.0
C981 C 0.63485 0.84134 0.79294 0.0
C982 C 0.6224 0.83742 0.80275 0.0
C983 C 0.62286 0.82335 0.81193 0.0
O984 O 0.60716 0.81494 0.83286 0.0
O985 O 0.60609 0.80435 0.82286 0.0
O986 O 0.61825 0.81647 0.80894 0.0
O987 O 0.61928 0.82706 0.81897 0.0
H988 H 0.62482 0.80444 0.828 0.0
H989 H 0.63547 0.79531 0.83633 0.0
H990 H 0.61439 0.78738 0.8544 0.0
H991 H 0.60381 0.79633 0.84592 0.0
H992 H 0.56622 0.80952 0.81898 0.0
H993 H 0.58249 0.81052 0.81749 0.0
H994 H 0.56434 0.83764 0.81303 0.0
H995 H 0.58053 0.8385 0.81129 0.0
H996 H 0.62319 0.84951 0.79513 0.0
H997 H 0.64525 0.8314 0.79237 0.0
H998 H 0.63819 0.82125 0.80302 0.0
H999 H 0.61604 0.83915 0.80566 0.0
C1000 C 0.19175 0.61274 0.79996 0.0
C1001 C 0.19391 0.62187 0.80024 0.0
C1002 C 0.1817 0.62511 0.78998 0.0
C1003 C 0.18894 0.628 0.79528 0.0
C1004 C 0.17963 0.61593 0.78972 0.0
C1005 C 0.1846 0.60983 0.79466 0.0
U1006 U 0.20902 0.60617 0.81772 0.0
O1007 O 0.20818 0.5955 0.82781 0.0
O1008 O 0.2187 0.59524 0.81768 0.0
C1009 C 0.21476 0.591 0.82428 0.0
C1010 C 0.19678 0.60613 0.80517 0.0
C1011 C 0.21321 0.5813 0.82315 0.0
C1012 C 0.21079 0.56813 0.81392 0.0
C1013 C 0.21178 0.57741 0.81476 0.0
C1014 C 0.21245 0.56652 0.82985 0.0
C1015 C 0.21116 0.56256 0.82146 0.0
C1016 C 0.21347 0.57577 0.83068 0.0
C1017 C 0.22166 0.62489 0.83058 0.0
C1018 C 0.23633 0.62524 0.83762 0.0
C1019 C 0.2252 0.636 0.84188 0.0
C1020 C 0.21918 0.63218 0.83583 0.0
C1021 C 0.23388 0.63263 0.84282 0.0
C1022 C 0.23027 0.62139 0.83158 0.0
C1023 C 0.21527 0.62143 0.82387 0.0
O1024 O 0.20538 0.60571 0.80353 0.0
O1025 O 0.19489 0.60575 0.81369 0.0
O1026 O 0.20801 0.61753 0.82697 0.0
O1027 O 0.21862 0.61735 0.81691 0.0
H1028 H 0.19939 0.62425 0.80433 0.0
H1029 H 0.19067 0.63502 0.7957 0.0
H1030 H 0.1742 0.61344 0.78562 0.0
H1031 H 0.18285 0.6028 0.79433 0.0
H1032 H 0.2097 0.56532 0.80737 0.0
H1033 H 0.2115 0.58154 0.80884 0.0
H1034 H 0.21289 0.56245 0.83579 0.0
H1035 H 0.21461 0.57861 0.83721 0.0
H1036 H 0.24292 0.62242 0.83825 0.0
H1037 H 0.22311 0.64175 0.84567 0.0
H1038 H 0.2126 0.63504 0.83514 0.0
H1039 H 0.23236 0.61575 0.82763 0.0
C1040 C 0.41639 0.22712 0.83681 0.0
C1041 C 0.40786 0.22873 0.83333 0.0
C1042 C 0.40393 0.23722 0.84661 0.0
C1043 C 0.4017 0.23376 0.83817 0.0
C1044 C 0.41245 0.23545 0.8501 0.0
C1045 C 0.41861 0.23046 0.84524 0.0
U1046 U 0.42299 0.21028 0.81881 0.0
O1047 O 0.43379 0.21103 0.80888 0.0
O1048 O 0.4336 0.20025 0.81876 0.0
C1049 C 0.438 0.20416 0.81224 0.0
C1050 C 0.42312 0.22214 0.8317 0.0
C1051 C 0.44775 0.20524 0.81342 0.0
C1052 C 0.46091 0.2081 0.82257 0.0
C1053 C 0.45159 0.20752 0.82165 0.0
C1054 C 0.46262 0.20428 0.80702 0.0
C1055 C 0.46656 0.2064 0.81527 0.0
C1056 C 0.45334 0.2037 0.80612 0.0
C1057 C 0.40392 0.19869 0.80551 0.0
C1058 C 0.40455 0.18525 0.79643 0.0
C1059 C 0.39167 0.19482 0.79556 0.0
C1060 C 0.39554 0.20054 0.80185 0.0
C1061 C 0.3961 0.18709 0.79277 0.0
C1062 C 0.40844 0.19102 0.80272 0.0
C1063 C 0.40756 0.20474 0.81238 0.0
O1064 O 0.42334 0.21349 0.83313 0.0
O1065 O 0.42384 0.22424 0.82324 0.0
O1066 O 0.41176 0.21192 0.80949 0.0
O1067 O 0.41151 0.20101 0.81923 0.0
H1068 H 0.40598 0.22616 0.82686 0.0
H1069 H 0.39516 0.23489 0.83533 0.0
H1070 H 0.41444 0.23808 0.85652 0.0
H1071 H 0.42517 0.2293 0.84804 0.0
H1072 H 0.46369 0.20968 0.82903 0.0
H1073 H 0.4474 0.20876 0.82737 0.0
H1074 H 0.46672 0.2031 0.80122 0.0
H1075 H 0.45052 0.20197 0.7997 0.0
H1076 H 0.40818 0.1794 0.79438 0.0
H1077 H 0.3851 0.19638 0.79302 0.0
H1078 H 0.39191 0.20639 0.80394 0.0
H1079 H 0.41494 0.18947 0.80545 0.0
C1080 C 0.80339 0.41572 0.83604 0.0
C1081 C 0.80198 0.40705 0.83275 0.0
C1082 C 0.79329 0.40312 0.84595 0.0
C1083 C 0.79695 0.40082 0.83765 0.0
C1084 C 0.79485 0.41178 0.84925 0.0
C1085 C 0.79983 0.418 0.84434 0.0
U1086 U 0.82077 0.42289 0.81851 0.0
O1087 O 0.82012 0.43362 0.80848 0.0
O1088 O 0.83045 0.43402 0.81883 0.0
C1089 C 0.82665 0.43823 0.81218 0.0
C1090 C 0.80837 0.42253 0.83089 0.0
C1091 C 0.82508 0.44787 0.8134 0.0
C1092 C 0.82154 0.46069 0.82265 0.0
C1093 C 0.82259 0.45145 0.82166 0.0
C1094 C 0.82527 0.46284 0.80713 0.0
C1095 C 0.82289 0.46651 0.8154 0.0
C1096 C 0.82635 0.45364 0.80616 0.0
C1097 C 0.83391 0.40438 0.80621 0.0
C1098 C 0.84082 0.4041 0.79154 0.0
C1099 C 0.84508 0.39328 0.80267 0.0
C1100 C 0.83912 0.39708 0.80869 0.0
C1101 C 0.84597 0.39669 0.79399 0.0
C1102 C 0.83485 0.40793 0.79759 0.0
C1103 C 0.82725 0.40778 0.8126 0.0
O1104 O 0.81693 0.42328 0.83267 0.0
O1105 O 0.8066 0.4229 0.82233 0.0
O1106 O 0.82009 0.41153 0.80928 0.0
O1107 O 0.83043 0.41196 0.81963 0.0
H1108 H 0.80472 0.40512 0.82638 0.0
H1109 H 0.79598 0.39418 0.83495 0.0
H1110 H 0.79204 0.41382 0.85556 0.0
H1111 H 0.80083 0.42466 0.84699 0.0
H1112 H 0.81961 0.46327 0.82909 0.0
H1113 H 0.82153 0.44713 0.82734 0.0
H1114 H 0.82649 0.4671 0.80143 0.0
H1115 H 0.8283 0.45102 0.79974 0.0
H1116 H 0.8414 0.40696 0.78494 0.0
H1117 H 0.84883 0.38751 0.80476 0.0
H1118 H 0.83846 0.39419 0.81527 0.0
H1119 H 0.83092 0.41358 0.79551 0.0
C1120 C 0.61298 0.19054 0.22546 0.0
C1121 C 0.622 0.19317 0.22569 0.0
C1122 C 0.62547 0.18063 0.23544 0.0
C1123 C 0.62819 0.18828 0.23066 0.0
C1124 C 0.61641 0.17804 0.23515 0.0
C1125 C 0.61024 0.18295 0.23022 0.0
U1126 U 0.60661 0.20823 0.20818 0.0
O1127 O 0.59619 0.20776 0.1978 0.0
O1128 O 0.59568 0.21791 0.20829 0.0
C1129 C 0.5916 0.21421 0.20145 0.0
C1130 C 0.60634 0.19556 0.22029 0.0
C1131 C 0.58187 0.21265 0.20232 0.0
C1132 C 0.56856 0.20968 0.21121 0.0
C1133 C 0.57787 0.21059 0.21053 0.0
C1134 C 0.56715 0.21265 0.19545 0.0
C1135 C 0.56306 0.21079 0.20368 0.0
C1136 C 0.57643 0.21359 0.19479 0.0
C1137 C 0.62585 0.22145 0.19669 0.0
C1138 C 0.62534 0.23011 0.18299 0.0
C1139 C 0.63842 0.23091 0.19244 0.0
C1140 C 0.63438 0.22496 0.1984 0.0
C1141 C 0.63402 0.23349 0.18459 0.0
C1142 C 0.62129 0.22413 0.18899 0.0
C1143 C 0.62209 0.21476 0.2029 0.0
O1144 O 0.60569 0.20408 0.2222 0.0
O1145 O 0.60621 0.19397 0.21169 0.0
O1146 O 0.61825 0.20771 0.19931 0.0
O1147 O 0.61772 0.21787 0.20979 0.0
H1148 H 0.62425 0.199 0.22202 0.0
H1149 H 0.63512 0.19041 0.23064 0.0
H1150 H 0.61405 0.17228 0.23884 0.0
H1151 H 0.60331 0.18082 0.23013 0.0
H1152 H 0.56567 0.20831 0.21767 0.0
H1153 H 0.58192 0.20982 0.21645 0.0
H1154 H 0.56318 0.21338 0.18947 0.0
H1155 H 0.57937 0.21514 0.18838 0.0
H1156 H 0.62177 0.2319 0.177 0.0
H1157 H 0.64502 0.2335 0.194 0.0
H1158 H 0.63799 0.223 0.20433 0.0
H1159 H 0.61469 0.2215 0.18754 0.0
C1160 C 0.80302 0.61362 0.18871 0.0
C1161 C 0.79721 0.61939 0.19319 0.0
C1162 C 0.79242 0.62588 0.1791 0.0
C1163 C 0.79196 0.62543 0.18844 0.0
C1164 C 0.79833 0.62019 0.17464 0.0
C1165 C 0.80353 0.61411 0.17939 0.0
U1166 U 0.82067 0.60672 0.20597 0.0
O1167 O 0.82067 0.59558 0.2155 0.0
O1168 O 0.83101 0.59638 0.20518 0.0
C1169 C 0.82744 0.59163 0.21164 0.0
C1170 C 0.80832 0.60684 0.19353 0.0
C1171 C 0.82652 0.58192 0.21005 0.0
C1172 C 0.8175 0.56844 0.20797 0.0
C1173 C 0.81816 0.57775 0.20876 0.0
C1174 C 0.83354 0.56737 0.20948 0.0
C1175 C 0.82517 0.56311 0.20845 0.0
C1176 C 0.83418 0.57665 0.21029 0.0
C1177 C 0.83234 0.62598 0.21911 0.0
C1178 C 0.84294 0.62469 0.23133 0.0
C1179 C 0.83894 0.63927 0.22574 0.0
C1180 C 0.83329 0.63527 0.21949 0.0
C1181 C 0.8438 0.63406 0.23181 0.0
C1182 C 0.83724 0.62068 0.22504 0.0
C1183 C 0.82609 0.62212 0.21254 0.0
O1184 O 0.81692 0.60674 0.19178 0.0
O1185 O 0.80655 0.60569 0.20203 0.0
O1186 O 0.81926 0.61757 0.21572 0.0
O1187 O 0.82967 0.61844 0.20548 0.0
H1188 H 0.79666 0.61922 0.20037 0.0
H1189 H 0.78756 0.62979 0.19209 0.0
H1190 H 0.79878 0.62029 0.16745 0.0
H1191 H 0.80789 0.6097 0.17576 0.0
H1192 H 0.81095 0.56541 0.20724 0.0
H1193 H 0.81213 0.58167 0.20853 0.0
H1194 H 0.83961 0.56353 0.20971 0.0
H1195 H 0.8407 0.57971 0.21125 0.0
H1196 H 0.84655 0.62049 0.23592 0.0
H1197 H 0.83956 0.64647 0.22578 0.0
H1198 H 0.8296 0.63946 0.21494 0.0
H1199 H 0.83659 0.61348 0.22484 0.0
C1200 C 0.41696 0.83876 0.22461 0.0
C1201 C 0.40805 0.83582 0.22527 0.0
C1202 C 0.40461 0.84836 0.23502 0.0
C1203 C 0.40193 0.84058 0.23043 0.0
C1204 C 0.41353 0.8513 0.23421 0.0
C1205 C 0.41963 0.84654 0.22907 0.0
U1206 U 0.42362 0.82103 0.20741 0.0
O1207 O 0.43415 0.8216 0.19715 0.0
O1208 O 0.43469 0.81153 0.20773 0.0
C1209 C 0.43878 0.81522 0.2009 0.0
C1210 C 0.42361 0.83378 0.21942 0.0
C1211 C 0.4485 0.81686 0.20183 0.0
C1212 C 0.46182 0.81949 0.21083 0.0
C1213 C 0.45251 0.8186 0.21012 0.0
C1214 C 0.46321 0.81715 0.19496 0.0
C1215 C 0.46731 0.81867 0.20327 0.0
C1216 C 0.45393 0.81625 0.19427 0.0
C1217 C 0.40494 0.80715 0.19581 0.0
C1218 C 0.40456 0.79983 0.18134 0.0
C1219 C 0.39395 0.79548 0.19272 0.0
C1220 C 0.39774 0.80175 0.19852 0.0
C1221 C 0.39726 0.79447 0.18402 0.0
C1222 C 0.40839 0.80609 0.18719 0.0
C1223 C 0.40836 0.81407 0.20198 0.0
O1224 O 0.4244 0.82529 0.2214 0.0
O1225 O 0.42369 0.83532 0.21081 0.0
O1226 O 0.41204 0.82122 0.1984 0.0
O1227 O 0.41267 0.8112 0.20903 0.0
H1228 H 0.40586 0.82982 0.22187 0.0
H1229 H 0.39515 0.83807 0.23096 0.0
H1230 H 0.4158 0.85734 0.23749 0.0
H1231 H 0.42646 0.84894 0.2286 0.0
H1232 H 0.46472 0.82058 0.21734 0.0
H1233 H 0.44847 0.81912 0.21606 0.0
H1234 H 0.46718 0.81666 0.18897 0.0
H1235 H 0.45099 0.81493 0.18781 0.0
H1236 H 0.40734 0.79917 0.17473 0.0
H1237 H 0.38827 0.79157 0.19498 0.0
H1238 H 0.39494 0.80248 0.20512 0.0
H1239 H 0.41396 0.81016 0.18493 0.0
C1240 C 0.19276 0.41529 0.22546 0.0
C1241 C 0.19157 0.40647 0.2225 0.0
C1242 C 0.18305 0.4028 0.23588 0.0
C1243 C 0.18673 0.40029 0.22764 0.0
C1244 C 0.1843 0.41164 0.2388 0.0
C1245 C 0.1891 0.4178 0.23365 0.0
U1246 U 0.21025 0.42204 0.20791 0.0
O1247 O 0.20992 0.43274 0.19788 0.0
O1248 O 0.2202 0.43299 0.20829 0.0
C1249 C 0.21645 0.43729 0.20167 0.0
C1250 C 0.19777 0.42197 0.2202 0.0
C1251 C 0.21507 0.44698 0.20303 0.0
C1252 C 0.20556 0.46007 0.20352 0.0
C1253 C 0.20655 0.45082 0.20266 0.0
C1254 C 0.22154 0.46178 0.20529 0.0
C1255 C 0.21305 0.46568 0.20482 0.0
C1256 C 0.22253 0.45256 0.20438 0.0
C1257 C 0.22317 0.4031 0.19608 0.0
C1258 C 0.23359 0.40465 0.18375 0.0
C1259 C 0.23143 0.39028 0.19083 0.0
C1260 C 0.22525 0.39403 0.19664 0.0
C1261 C 0.2357 0.39553 0.18429 0.0
C1262 C 0.22739 0.40842 0.18961 0.0
C1263 C 0.21652 0.40671 0.2023 0.0
O1264 O 0.20633 0.42268 0.22201 0.0
O1265 O 0.19605 0.4222 0.21163 0.0
O1266 O 0.20957 0.41062 0.19873 0.0
O1267 O 0.2197 0.41097 0.20927 0.0
H1268 H 0.1944 0.40437 0.21622 0.0
H1269 H 0.18597 0.39352 0.22524 0.0
H1270 H 0.18147 0.41384 0.24504 0.0
H1271 H 0.18992 0.42457 0.23605 0.0
H1272 H 0.19892 0.46284 0.20321 0.0
H1273 H 0.20065 0.44669 0.20165 0.0
H1274 H 0.22747 0.46589 0.20616 0.0
H1275 H 0.22917 0.44978 0.20463 0.0
H1276 H 0.2368 0.40891 0.17885 0.0
H1277 H 0.23275 0.38321 0.19136 0.0
H1278 H 0.22204 0.38981 0.20157 0.0
H1279 H 0.22588 0.41545 0.18909 0.0
C1280 C 0.80304 0.61314 0.83709 0.0
C1281 C 0.80168 0.62177 0.83375 0.0
C1282 C 0.79307 0.62563 0.84697 0.0
C1283 C 0.79672 0.62795 0.83863 0.0
C1284 C 0.7946 0.61702 0.85032 0.0
C1285 C 0.79951 0.61084 0.84542 0.0
U1286 U 0.81972 0.60634 0.81899 0.0
O1287 O 0.82959 0.59557 0.81895 0.0
O1288 O 0.81877 0.59552 0.80909 0.0
C1289 C 0.82556 0.5912 0.81249 0.0
C1290 C 0.80792 0.60639 0.83193 0.0
C1291 C 0.82423 0.58149 0.81377 0.0
C1292 C 0.82109 0.56852 0.82308 0.0
C1293 C 0.822 0.5778 0.82208 0.0
C1294 C 0.82449 0.56655 0.80748 0.0
C1295 C 0.82234 0.56278 0.81579 0.0
C1296 C 0.82543 0.57579 0.8065 0.0
C1297 C 0.83157 0.62527 0.80559 0.0
C1298 C 0.84594 0.62586 0.79799 0.0
C1299 C 0.83477 0.63695 0.79476 0.0
C1300 C 0.82895 0.63283 0.8008 0.0
C1301 C 0.8434 0.63362 0.79337 0.0
C1302 C 0.84008 0.62173 0.80405 0.0
C1303 C 0.82548 0.62164 0.81247 0.0
O1304 O 0.80576 0.60573 0.82347 0.0
O1305 O 0.81657 0.60606 0.83332 0.0
O1306 O 0.82915 0.61768 0.81934 0.0
O1307 O 0.81823 0.61754 0.8096 0.0
H1308 H 0.80439 0.6237 0.82734 0.0
H1309 H 0.79577 0.63455 0.83589 0.0
H1310 H 0.79181 0.61496 0.85666 0.0
H1311 H 0.80048 0.60421 0.84811 0.0
H1312 H 0.81933 0.56586 0.82956 0.0
H1313 H 0.821 0.58208 0.82779 0.0
H1314 H 0.82563 0.56236 0.80174 0.0
H1315 H 0.82719 0.5785 0.80003 0.0
H1316 H 0.85254 0.62314 0.79713 0.0
H1317 H 0.83251 0.64279 0.79121 0.0
H1318 H 0.82241 0.63567 0.80186 0.0
H1319 H 0.84227 0.61589 0.80766 0.0
C1320 C 0.41662 0.83808 0.80074 0.0
C1321 C 0.41013 0.83372 0.79548 0.0
C1322 C 0.40434 0.84803 0.79046 0.0
C1323 C 0.40409 0.83864 0.79038 0.0
C1324 C 0.4107 0.85237 0.79587 0.0
C1325 C 0.41679 0.84745 0.80091 0.0
U1326 U 0.42375 0.82024 0.8177 0.0
O1327 O 0.43457 0.81042 0.81695 0.0
O1328 O 0.4346 0.82044 0.82758 0.0
C1329 C 0.43893 0.81393 0.82371 0.0
C1330 C 0.42347 0.83305 0.80575 0.0
C1331 C 0.44866 0.8152 0.82251 0.0
C1332 C 0.4618 0.82452 0.81978 0.0
C1333 C 0.45249 0.82354 0.82046 0.0
C1334 C 0.46352 0.80882 0.82302 0.0
C1335 C 0.46745 0.81718 0.82114 0.0
C1336 C 0.45425 0.80786 0.82371 0.0
C1337 C 0.40483 0.80671 0.82951 0.0
C1338 C 0.40402 0.79939 0.84399 0.0
C1339 C 0.39322 0.79566 0.83255 0.0
C1340 C 0.39739 0.80168 0.82675 0.0
C1341 C 0.39637 0.79453 0.8413 0.0
C1342 C 0.4082 0.80544 0.83815 0.0
C1343 C 0.40848 0.81358 0.82341 0.0
O1344 O 0.42391 0.83458 0.81435 0.0
O1345 O 0.42433 0.82457 0.80373 0.0
O1346 O 0.41254 0.81069 0.81624 0.0
O1347 O 0.41246 0.82055 0.82703 0.0
H1348 H 0.40977 0.82651 0.79521 0.0
H1349 H 0.3992 0.83509 0.78638 0.0
H1350 H 0.41114 0.85958 0.79603 0.0
H1351 H 0.42174 0.85097 0.80487 0.0
H1352 H 0.46458 0.83107 0.81838 0.0
H1353 H 0.44831 0.82931 0.81948 0.0
H1354 H 0.4676 0.80298 0.82394 0.0
H1355 H 0.45143 0.80135 0.82526 0.0
H1356 H 0.4066 0.79873 0.85068 0.0
H1357 H 0.38748 0.79191 0.83018 0.0
H1358 H 0.39468 0.80253 0.82012 0.0
H1359 H 0.41395 0.80924 0.84045 0.0
C1360 C 0.19229 0.41573 0.80084 0.0
C1361 C 0.19567 0.40718 0.79926 0.0
C1362 C 0.18247 0.40329 0.79045 0.0
C1363 C 0.19082 0.40102 0.79411 0.0
C1364 C 0.17909 0.41184 0.7922 0.0
C1365 C 0.18395 0.41798 0.79732 0.0
U1366 U 0.21027 0.42264 0.81788 0.0
O1367 O 0.2198 0.43389 0.81755 0.0
O1368 O 0.20982 0.43309 0.8282 0.0
C1369 C 0.21613 0.4379 0.82439 0.0
C1370 C 0.19736 0.42245 0.80601 0.0
C1371 C 0.21434 0.44754 0.82339 0.0
C1372 C 0.21138 0.46064 0.81428 0.0
C1373 C 0.21253 0.4514 0.81506 0.0
C1374 C 0.2136 0.46227 0.83015 0.0
C1375 C 0.21195 0.4662 0.82181 0.0
C1376 C 0.21479 0.45305 0.83091 0.0
C1377 C 0.22403 0.40398 0.82921 0.0
C1378 C 0.23307 0.40499 0.84265 0.0
C1379 C 0.23382 0.39184 0.83337 0.0
C1380 C 0.22761 0.39556 0.82754 0.0
C1381 C 0.2366 0.39647 0.84104 0.0
C1382 C 0.22685 0.40873 0.83678 0.0
C1383 C 0.21714 0.40743 0.82312 0.0
O1384 O 0.19592 0.42247 0.81463 0.0
O1385 O 0.20585 0.42343 0.80395 0.0
O1386 O 0.22004 0.41188 0.81614 0.0
O1387 O 0.2101 0.41102 0.82683 0.0
H1388 H 0.2021 0.4053 0.80194 0.0
H1389 H 0.19368 0.39455 0.79285 0.0
H1390 H 0.17263 0.41378 0.78965 0.0
H1391 H 0.1812 0.42452 0.79851 0.0
H1392 H 0.21001 0.46343 0.80778 0.0
H1393 H 0.21209 0.44729 0.80915 0.0
H1394 H 0.2142 0.46633 0.83607 0.0
H1395 H 0.21621 0.45023 0.83739 0.0
H1396 H 0.23513 0.40879 0.84844 0.0
H1397 H 0.23627 0.38522 0.83197 0.0
H1398 H 0.22549 0.39177 0.82176 0.0
H1399 H 0.22419 0.41526 0.83818 0.0
C1400 C 0.61298 0.19179 0.79924 0.0
C1401 C 0.62188 0.19096 0.80205 0.0
C1402 C 0.62523 0.18187 0.78901 0.0
C1403 C 0.62795 0.18604 0.79698 0.0
C1404 C 0.61634 0.18289 0.78618 0.0
C1405 C 0.61029 0.18778 0.79125 0.0
U1406 U 0.60656 0.20857 0.81741 0.0
O1407 O 0.59568 0.21831 0.81766 0.0
O1408 O 0.59602 0.2076 0.82761 0.0
C1409 C 0.59154 0.21432 0.8243 0.0
C1410 C 0.60636 0.19663 0.80461 0.0
C1411 C 0.5818 0.21294 0.82333 0.0
C1412 C 0.56855 0.20968 0.81445 0.0
C1413 C 0.57787 0.2105 0.81519 0.0
C1414 C 0.56703 0.21354 0.83 0.0
C1415 C 0.56299 0.21127 0.82183 0.0
C1416 C 0.57631 0.21437 0.83072 0.0
C1417 C 0.62552 0.221 0.83013 0.0
C1418 C 0.62625 0.23571 0.83699 0.0
C1419 C 0.63681 0.2244 0.84132 0.0
C1420 C 0.63278 0.21841 0.83538 0.0
C1421 C 0.63369 0.23318 0.84212 0.0
C1422 C 0.62221 0.22969 0.83106 0.0
C1423 C 0.62194 0.21469 0.82341 0.0
O1424 O 0.60605 0.19457 0.8131 0.0
O1425 O 0.60585 0.20525 0.80313 0.0
O1426 O 0.61777 0.21812 0.81654 0.0
O1427 O 0.61806 0.20741 0.82649 0.0
H1428 H 0.6241 0.19403 0.8082 0.0
H1429 H 0.63471 0.18534 0.79942 0.0
H1430 H 0.61403 0.17993 0.78002 0.0
H1431 H 0.60347 0.18839 0.78895 0.0
H1432 H 0.56569 0.20799 0.80804 0.0
H1433 H 0.58198 0.20935 0.80939 0.0
H1434 H 0.56301 0.21465 0.83587 0.0
H1435 H 0.57921 0.21622 0.83708 0.0
H1436 H 0.62371 0.24243 0.83737 0.0
H1437 H 0.64239 0.22214 0.84527 0.0
H1438 H 0.63545 0.21174 0.83479 0.0
H1439 H 0.61661 0.23188 0.82709 0.0
C1440 C 0.80233 0.41589 0.1903 0.0
C1441 C 0.80528 0.40709 0.1893 0.0
C1442 C 0.79194 0.4033 0.18066 0.0
C1443 C 0.80015 0.40086 0.18449 0.0
C1444 C 0.78904 0.41213 0.18173 0.0
C1445 C 0.79418 0.41834 0.18649 0.0
U1446 U 0.82038 0.42289 0.20726 0.0
O1447 O 0.83017 0.43392 0.20662 0.0
O1448 O 0.82013 0.43365 0.21725 0.0
C1449 C 0.82661 0.43817 0.21337 0.0
C1450 C 0.80759 0.42263 0.19525 0.0
C1451 C 0.82521 0.44787 0.21226 0.0
C1452 C 0.82277 0.46103 0.20308 0.0
C1453 C 0.82346 0.45174 0.20393 0.0
C1454 C 0.82535 0.46267 0.21889 0.0
C1455 C 0.82383 0.46664 0.21054 0.0
C1456 C 0.82605 0.45341 0.21973 0.0
C1457 C 0.83363 0.40443 0.21953 0.0
C1458 C 0.84005 0.40344 0.23442 0.0
C1459 C 0.84551 0.39393 0.22268 0.0
C1460 C 0.83948 0.39776 0.21672 0.0
C1461 C 0.84582 0.39665 0.23163 0.0
C1462 C 0.83403 0.40731 0.22843 0.0
C1463 C 0.82686 0.40777 0.2132 0.0
O1464 O 0.80607 0.42303 0.20385 0.0
O1465 O 0.81612 0.42323 0.19325 0.0
O1466 O 0.8299 0.41183 0.20604 0.0
O1467 O 0.81978 0.41159 0.21659 0.0
H1468 H 0.81155 0.40504 0.19223 0.0
H1469 H 0.80255 0.3941 0.18388 0.0
H1470 H 0.78283 0.41429 0.17878 0.0
H1471 H 0.79179 0.4251 0.18718 0.0
H1472 H 0.82165 0.46384 0.19654 0.0
H1473 H 0.82277 0.4476 0.19806 0.0
H1474 H 0.82601 0.46672 0.22482 0.0
H1475 H 0.82737 0.45058 0.22622 0.0
H1476 H 0.84018 0.40577 0.24123 0.0
H1477 H 0.84976 0.38864 0.22031 0.0
H1478 H 0.83926 0.39536 0.20993 0.0
H1479 H 0.82961 0.41246 0.2308 0.0
C1480 C 0.6141 0.80028 0.19079 0.0
C1481 C 0.62216 0.80406 0.18773 0.0
C1482 C 0.62625 0.78993 0.18084 0.0
C1483 C 0.62816 0.79894 0.18279 0.0
C1484 C 0.61824 0.78615 0.1841 0.0
C1485 C 0.61224 0.79128 0.18899 0.0
U1486 U 0.60743 0.81844 0.20756 0.0
O1487 O 0.59671 0.82832 0.20682 0.0
O1488 O 0.59659 0.81833 0.2175 0.0
C1489 C 0.5923 0.82483 0.21356 0.0
C1490 C 0.60744 0.80558 0.19568 0.0
C1491 C 0.58256 0.82353 0.21238 0.0
C1492 C 0.56939 0.82128 0.20308 0.0
C1493 C 0.5787 0.82188 0.20401 0.0
C1494 C 0.56769 0.82373 0.21889 0.0
C1495 C 0.56374 0.8223 0.2105 0.0
C1496 C 0.57697 0.82435 0.21981 0.0
C1497 C 0.62628 0.83161 0.21971 0.0
C1498 C 0.62635 0.83906 0.23412 0.0
C1499 C 0.63786 0.84253 0.22332 0.0
C1500 C 0.63397 0.83647 0.21736 0.0
C1501 C 0.63415 0.84386 0.23181 0.0
C1502 C 0.62243 0.83301 0.22812 0.0
C1503 C 0.62276 0.82484 0.21344 0.0
O1504 O 0.60693 0.80411 0.20429 0.0
O1505 O 0.60695 0.81408 0.1936 0.0
O1506 O 0.61878 0.82786 0.20627 0.0
O1507 O 0.61869 0.81785 0.21693 0.0
H1508 H 0.62377 0.81099 0.18906 0.0
H1509 H 0.63421 0.80211 0.18034 0.0
H1510 H 0.61661 0.77921 0.1829 0.0
H1511 H 0.6061 0.78821 0.19133 0.0
H1512 H 0.56661 0.82023 0.1965 0.0
H1513 H 0.58286 0.82121 0.19817 0.0
H1514 H 0.5636 0.82437 0.22479 0.0
H1515 H 0.57979 0.8256 0.22633 0.0
H1516 H 0.62326 0.84 0.24055 0.0
H1517 H 0.64392 0.846 0.22136 0.0
H1518 H 0.63708 0.83546 0.21095 0.0
H1519 H 0.61647 0.82937 0.23009 0.0
C1520 C 0.19127 0.61248 0.22557 0.0
C1521 C 0.19406 0.62144 0.22607 0.0
C1522 C 0.18117 0.62497 0.23532 0.0
C1523 C 0.18907 0.62762 0.23092 0.0
C1524 C 0.17841 0.61598 0.23474 0.0
C1525 C 0.18341 0.60982 0.22992 0.0
U1526 U 0.20936 0.6058 0.2088 0.0
O1527 O 0.21926 0.59506 0.20965 0.0
O1528 O 0.20932 0.59498 0.19892 0.0
C1529 C 0.21575 0.59064 0.20293 0.0
C1530 C 0.19647 0.60579 0.22067 0.0
C1531 C 0.21442 0.58091 0.20426 0.0
C1532 C 0.20501 0.56753 0.20462 0.0
C1533 C 0.20593 0.57683 0.20388 0.0
C1534 C 0.22102 0.56627 0.20631 0.0
C1535 C 0.21256 0.56212 0.2058 0.0
C1536 C 0.22193 0.57554 0.20552 0.0
C1537 C 0.22268 0.6247 0.19691 0.0
C1538 C 0.23193 0.62362 0.18365 0.0
C1539 C 0.23228 0.63711 0.19249 0.0
C1540 C 0.22606 0.63333 0.19834 0.0
C1541 C 0.23528 0.63233 0.18503 0.0
C1542 C 0.2257 0.61982 0.18955 0.0
C1543 C 0.21584 0.62114 0.20306 0.0
O1544 O 0.19501 0.60537 0.21205 0.0
O1545 O 0.20497 0.60532 0.22275 0.0
O1546 O 0.21879 0.61711 0.21022 0.0
O1547 O 0.20893 0.61706 0.19942 0.0
H1548 H 0.20009 0.62364 0.22272 0.0
H1549 H 0.19134 0.6345 0.23114 0.0
H1550 H 0.17245 0.61366 0.23814 0.0
H1551 H 0.18116 0.60293 0.22964 0.0
H1552 H 0.19839 0.56457 0.2043 0.0
H1553 H 0.20001 0.58079 0.20293 0.0
H1554 H 0.22698 0.56234 0.20708 0.0
H1555 H 0.22855 0.57851 0.20577 0.0
H1556 H 0.23416 0.61971 0.17804 0.0
H1557 H 0.23458 0.64387 0.1937 0.0
H1558 H 0.22378 0.63722 0.20396 0.0
H1559 H 0.2232 0.61313 0.18834 0.0
C1560 C 0.41701 0.22778 0.18934 0.0
C1561 C 0.4079 0.22756 0.19154 0.0
C1562 C 0.40467 0.23807 0.17955 0.0
C1563 C 0.40179 0.23266 0.18669 0.0
C1564 C 0.41381 0.23816 0.17735 0.0
C1565 C 0.4199 0.23307 0.1822 0.0
U1566 U 0.42315 0.21031 0.20693 0.0
O1567 O 0.43366 0.20018 0.20679 0.0
O1568 O 0.43387 0.21062 0.21701 0.0
C1569 C 0.43807 0.20387 0.21343 0.0
C1570 C 0.42359 0.22262 0.19445 0.0
C1571 C 0.44782 0.20499 0.21228 0.0
C1572 C 0.46099 0.20753 0.20306 0.0
C1573 C 0.45168 0.20694 0.20397 0.0
C1574 C 0.4627 0.20442 0.21877 0.0
C1575 C 0.46664 0.2062 0.21044 0.0
C1576 C 0.45341 0.20381 0.21966 0.0
C1577 C 0.40375 0.19831 0.21935 0.0
C1578 C 0.40513 0.18615 0.23 0.0
C1579 C 0.3906 0.19231 0.2268 0.0
C1580 C 0.39453 0.19834 0.22084 0.0
C1581 C 0.39583 0.1861 0.23143 0.0
C1582 C 0.40906 0.19221 0.22399 0.0
C1583 C 0.40756 0.20465 0.21285 0.0
O1584 O 0.42408 0.22443 0.20299 0.0
O1585 O 0.4238 0.21402 0.19276 0.0
O1586 O 0.41161 0.20116 0.20595 0.0
O1587 O 0.41182 0.21161 0.21615 0.0
H1588 H 0.40554 0.22351 0.19704 0.0
H1589 H 0.39483 0.23248 0.18863 0.0
H1590 H 0.41627 0.24211 0.17182 0.0
H1591 H 0.4269 0.23329 0.18038 0.0
H1592 H 0.46376 0.20883 0.19654 0.0
H1593 H 0.4475 0.20789 0.19817 0.0
H1594 H 0.46679 0.20354 0.22464 0.0
H1595 H 0.45059 0.20235 0.22614 0.0
H1596 H 0.40935 0.18142 0.2334 0.0
H1597 H 0.38346 0.1926 0.22784 0.0
H1598 H 0.39033 0.20303 0.21735 0.0
H1599 H 0.41621 0.19209 0.22293 0.0
C1600 C 0.80276 0.83727 0.61122 0.0
C1601 C 0.80274 0.83485 0.62024 0.0
C1602 C 0.79228 0.84679 0.62357 0.0
C1603 C 0.79754 0.83958 0.62637 0.0
C1604 C 0.79244 0.84921 0.61451 0.0
C1605 C 0.79762 0.84449 0.60842 0.0
U1606 U 0.82062 0.82025 0.6045 0.0
O1607 O 0.8206 0.81067 0.59342 0.0
O1608 O 0.83079 0.82129 0.59393 0.0
C1609 C 0.82722 0.81474 0.58928 0.0
C1610 C 0.80806 0.83238 0.60459 0.0
C1611 C 0.82609 0.81641 0.57962 0.0
C1612 C 0.81684 0.81786 0.56635 0.0
C1613 C 0.81763 0.81679 0.57559 0.0
C1614 C 0.83293 0.8184 0.56505 0.0
C1615 C 0.82449 0.81863 0.56095 0.0
C1616 C 0.83371 0.81728 0.57426 0.0
C1617 C 0.83329 0.80762 0.62317 0.0
C1618 C 0.8406 0.79317 0.62325 0.0
C1619 C 0.84411 0.80401 0.63468 0.0
C1620 C 0.83813 0.80998 0.63082 0.0
C1621 C 0.84539 0.7955 0.63099 0.0
C1622 C 0.83462 0.79918 0.61936 0.0
C1623 C 0.82663 0.81395 0.61968 0.0
O1624 O 0.81662 0.83434 0.60436 0.0
O1625 O 0.8064 0.82377 0.60396 0.0
O1626 O 0.8197 0.81054 0.61545 0.0
O1627 O 0.82982 0.82124 0.61593 0.0
H1628 H 0.80669 0.82929 0.62254 0.0
H1629 H 0.79753 0.83747 0.63326 0.0
H1630 H 0.78862 0.85482 0.61213 0.0
H1631 H 0.79759 0.84649 0.60149 0.0
H1632 H 0.81023 0.81811 0.56343 0.0
H1633 H 0.81162 0.81617 0.57956 0.0
H1634 H 0.83897 0.81885 0.56111 0.0
H1635 H 0.84031 0.81697 0.5772 0.0
H1636 H 0.84149 0.78672 0.62017 0.0
H1637 H 0.84756 0.806 0.64071 0.0
H1638 H 0.83717 0.81642 0.63392 0.0
H1639 H 0.83099 0.7972 0.61344 0.0
C1640 C 0.80264 0.19161 0.41543 0.0
C1641 C 0.80554 0.19065 0.4066 0.0
C1642 C 0.79216 0.1819 0.40301 0.0
C1643 C 0.80036 0.1858 0.40046 0.0
C1644 C 0.7893 0.18293 0.41187 0.0
C1645 C 0.79449 0.18772 0.418 0.0
U1646 U 0.82027 0.20925 0.42208 0.0
O1647 O 0.81985 0.21916 0.43289 0.0
O1648 O 0.83027 0.209 0.43282 0.0
C1649 C 0.82656 0.21559 0.43719 0.0
C1650 C 0.80793 0.19664 0.42207 0.0
C1651 C 0.8253 0.2143 0.44685 0.0
C1652 C 0.82089 0.20529 0.45965 0.0
C1653 C 0.82184 0.20631 0.45041 0.0
C1654 C 0.82673 0.22025 0.46184 0.0
C1655 C 0.82332 0.21226 0.46549 0.0
C1656 C 0.82771 0.22124 0.45264 0.0
C1657 C 0.8322 0.22264 0.40328 0.0
C1658 C 0.8468 0.22997 0.40253 0.0
C1659 C 0.83513 0.2342 0.39226 0.0
C1660 C 0.82934 0.22797 0.39618 0.0
C1661 C 0.84395 0.23526 0.39533 0.0
C1662 C 0.84097 0.22374 0.40648 0.0
C1663 C 0.82599 0.21577 0.40684 0.0
O1664 O 0.81653 0.19501 0.42232 0.0
O1665 O 0.80611 0.20516 0.42273 0.0
O1666 O 0.81887 0.21871 0.41095 0.0
O1667 O 0.82953 0.20878 0.41073 0.0
H1668 H 0.81179 0.19365 0.40447 0.0
H1669 H 0.80272 0.18523 0.39368 0.0
H1670 H 0.78309 0.17992 0.41411 0.0
H1671 H 0.79214 0.18837 0.42478 0.0
H1672 H 0.81816 0.19909 0.46221 0.0
H1673 H 0.8199 0.20087 0.44605 0.0
H1674 H 0.8288 0.22571 0.46611 0.0
H1675 H 0.83041 0.22745 0.45003 0.0
H1676 H 0.85351 0.23067 0.40511 0.0
H1677 H 0.83273 0.23804 0.38666 0.0
H1678 H 0.82264 0.2272 0.39356 0.0
H1679 H 0.84335 0.21972 0.41197 0.0
C1680 C 0.80358 0.83806 0.4144 0.0
C1681 C 0.80307 0.83531 0.40548 0.0
C1682 C 0.79316 0.84769 0.40204 0.0
C1683 C 0.79791 0.84009 0.39935 0.0
C1684 C 0.79383 0.85045 0.41097 0.0
C1685 C 0.79897 0.84568 0.41707 0.0
U1686 U 0.82067 0.82029 0.42118 0.0
O1687 O 0.83097 0.82087 0.43169 0.0
O1688 O 0.82026 0.81078 0.43232 0.0
C1689 C 0.82709 0.81455 0.43641 0.0
C1690 C 0.80876 0.83305 0.42105 0.0
C1691 C 0.82606 0.81633 0.44606 0.0
C1692 C 0.81691 0.8181 0.45934 0.0
C1693 C 0.81763 0.817 0.4501 0.0
C1694 C 0.83301 0.81809 0.46062 0.0
C1695 C 0.82459 0.8186 0.46473 0.0
C1696 C 0.83372 0.81695 0.45141 0.0
C1697 C 0.83209 0.80658 0.40247 0.0
C1698 C 0.84657 0.79937 0.40179 0.0
C1699 C 0.83508 0.79545 0.39111 0.0
C1700 C 0.82929 0.80148 0.39515 0.0
C1701 C 0.84385 0.7944 0.39428 0.0
C1702 C 0.84075 0.8054 0.40584 0.0
C1703 C 0.826 0.81342 0.40601 0.0
O1704 O 0.80668 0.82455 0.42189 0.0
O1705 O 0.81741 0.83459 0.4211 0.0
O1706 O 0.8297 0.82053 0.40965 0.0
O1707 O 0.81895 0.81049 0.41036 0.0
H1708 H 0.8066 0.82944 0.40329 0.0
H1709 H 0.79749 0.83772 0.39256 0.0
H1710 H 0.79041 0.85634 0.41325 0.0
H1711 H 0.79932 0.84793 0.42391 0.0
H1712 H 0.81032 0.81857 0.46226 0.0
H1713 H 0.81159 0.81658 0.44614 0.0
H1714 H 0.83906 0.81834 0.46456 0.0
H1715 H 0.84029 0.8164 0.44847 0.0
H1716 H 0.85329 0.79878 0.40437 0.0
H1717 H 0.83267 0.79164 0.38547 0.0
H1718 H 0.82264 0.80227 0.39244 0.0
H1719 H 0.84309 0.80926 0.41149 0.0
C1720 C 0.19171 0.80179 0.41464 0.0
C1721 C 0.195 0.80068 0.40597 0.0
C1722 C 0.18189 0.79169 0.40201 0.0
C1723 C 0.19015 0.79565 0.39972 0.0
C1724 C 0.17858 0.79296 0.41067 0.0
C1725 C 0.18345 0.79794 0.41691 0.0
U1726 U 0.20922 0.81937 0.42148 0.0
O1727 O 0.20897 0.82916 0.43237 0.0
O1728 O 0.21937 0.81897 0.43212 0.0
C1729 C 0.21569 0.8255 0.43659 0.0
C1730 C 0.19681 0.80682 0.42142 0.0
C1731 C 0.21455 0.82402 0.44625 0.0
C1732 C 0.20546 0.8202 0.45917 0.0
C1733 C 0.20637 0.82121 0.44993 0.0
C1734 C 0.22092 0.82463 0.46114 0.0
C1735 C 0.21273 0.82192 0.4649 0.0
C1736 C 0.22181 0.82567 0.45194 0.0
C1737 C 0.22139 0.83231 0.40254 0.0
C1738 C 0.23526 0.84092 0.40321 0.0
C1739 C 0.22575 0.84194 0.39023 0.0
C1740 C 0.21972 0.83592 0.3941 0.0
C1741 C 0.23362 0.84451 0.3947 0.0
C1742 C 0.22918 0.83488 0.40711 0.0
C1743 C 0.21501 0.82568 0.40617 0.0
O1744 O 0.2054 0.80517 0.42185 0.0
O1745 O 0.19502 0.81536 0.42202 0.0
O1746 O 0.20804 0.82886 0.41035 0.0
O1747 O 0.21842 0.81866 0.41012 0.0
H1748 H 0.20133 0.80365 0.40405 0.0
H1749 H 0.19284 0.7949 0.39309 0.0
H1750 H 0.1723 0.78994 0.41269 0.0
H1751 H 0.1808 0.79873 0.42357 0.0
H1752 H 0.19908 0.818 0.46182 0.0
H1753 H 0.20068 0.81985 0.44567 0.0
H1754 H 0.22662 0.82614 0.46533 0.0
H1755 H 0.22817 0.82788 0.44925 0.0
H1756 H 0.2412 0.84282 0.40688 0.0
H1757 H 0.22432 0.84444 0.38362 0.0
H1758 H 0.21377 0.83398 0.39044 0.0
H1759 H 0.23059 0.83219 0.41364 0.0
C1760 C 0.19259 0.22671 0.41508 0.0
C1761 C 0.19625 0.22904 0.40679 0.0
C1762 C 0.1827 0.23709 0.40286 0.0
C1763 C 0.19136 0.23419 0.40074 0.0
C1764 C 0.17904 0.23458 0.41113 0.0
C1765 C 0.18393 0.22947 0.41716 0.0
U1766 U 0.20996 0.20917 0.42173 0.0
O1767 O 0.21962 0.20926 0.43277 0.0
O1768 O 0.20919 0.19889 0.43221 0.0
C1769 C 0.21576 0.20246 0.43683 0.0
C1770 C 0.19763 0.22151 0.42171 0.0
C1771 C 0.21422 0.20341 0.44649 0.0
C1772 C 0.2098 0.21203 0.45946 0.0
C1773 C 0.21094 0.21131 0.45022 0.0
C1774 C 0.21507 0.19694 0.4613 0.0
C1775 C 0.21186 0.20484 0.46513 0.0
C1776 C 0.21623 0.19625 0.4521 0.0
C1777 C 0.22254 0.19677 0.40291 0.0
C1778 C 0.237 0.18948 0.40282 0.0
C1779 C 0.22616 0.18609 0.39132 0.0
C1780 C 0.22019 0.19202 0.39521 0.0
C1781 C 0.23467 0.18477 0.39503 0.0
C1782 C 0.23098 0.19541 0.40674 0.0
C1783 C 0.21618 0.20334 0.40648 0.0
O1784 O 0.19578 0.21293 0.42201 0.0
O1785 O 0.20622 0.2233 0.42236 0.0
O1786 O 0.21957 0.21027 0.41071 0.0
O1787 O 0.20896 0.20006 0.41026 0.0
H1788 H 0.20291 0.22695 0.40501 0.0
H1789 H 0.19444 0.23604 0.39448 0.0
H1790 H 0.17234 0.23651 0.41294 0.0
H1791 H 0.18095 0.2277 0.42349 0.0
H1792 H 0.20723 0.21818 0.46217 0.0
H1793 H 0.20931 0.21693 0.446 0.0
H1794 H 0.21686 0.19132 0.46544 0.0
H1795 H 0.21879 0.1901 0.44936 0.0
H1796 H 0.24346 0.18855 0.4059 0.0
H1797 H 0.22417 0.18269 0.38527 0.0
H1798 H 0.21374 0.193 0.39211 0.0
H1799 H 0.23296 0.19897 0.4127 0.0
C1800 C 0.19234 0.22661 0.61113 0.0
C1801 C 0.19517 0.22736 0.62001 0.0
C1802 C 0.18231 0.23662 0.62347 0.0
C1803 C 0.19021 0.23234 0.62612 0.0
C1804 C 0.17953 0.23581 0.61456 0.0
C1805 C 0.1845 0.23086 0.60847 0.0
U1806 U 0.2097 0.20906 0.60465 0.0
O1807 O 0.209 0.19881 0.59416 0.0
O1808 O 0.21945 0.20917 0.5937 0.0
C1809 C 0.2156 0.2024 0.5896 0.0
C1810 C 0.1974 0.22144 0.60453 0.0
C1811 C 0.21409 0.20339 0.57993 0.0
C1812 C 0.20991 0.21214 0.56693 0.0
C1813 C 0.21103 0.21138 0.57618 0.0
C1814 C 0.21477 0.1969 0.56513 0.0
C1815 C 0.21177 0.20489 0.56128 0.0
C1816 C 0.21591 0.19617 0.57433 0.0
C1817 C 0.22215 0.1967 0.62366 0.0
C1818 C 0.23655 0.18929 0.62381 0.0
C1819 C 0.22592 0.18647 0.63562 0.0
C1820 C 0.2199 0.19226 0.63157 0.0
C1821 C 0.23438 0.18499 0.63187 0.0
C1822 C 0.23049 0.1951 0.61974 0.0
C1823 C 0.21581 0.20323 0.61998 0.0
O1824 O 0.206 0.22321 0.60401 0.0
O1825 O 0.19554 0.21286 0.60423 0.0
O1826 O 0.20863 0.19993 0.61611 0.0
O1827 O 0.21922 0.21015 0.61576 0.0
H1828 H 0.20118 0.22407 0.62221 0.0
H1829 H 0.1925 0.23275 0.63295 0.0
H1830 H 0.17357 0.23911 0.61224 0.0
H1831 H 0.18221 0.23038 0.60164 0.0
H1832 H 0.20752 0.21836 0.56422 0.0
H1833 H 0.20955 0.21704 0.58038 0.0
H1834 H 0.2164 0.19124 0.561 0.0
H1835 H 0.2183 0.18996 0.57709 0.0
H1836 H 0.24302 0.18836 0.62076 0.0
H1837 H 0.22393 0.18314 0.64172 0.0
H1838 H 0.2135 0.19336 0.6347 0.0
H1839 H 0.23239 0.19844 0.61362 0.0
C1840 C 0.80277 0.19082 0.61135 0.0
C1841 C 0.80406 0.19218 0.6205 0.0
C1842 C 0.7927 0.18086 0.62389 0.0
C1843 C 0.79906 0.18725 0.62671 0.0
C1844 C 0.79147 0.17955 0.61469 0.0
C1845 C 0.79645 0.18448 0.6085 0.0
U1846 U 0.82061 0.20821 0.60485 0.0
O1847 O 0.83048 0.20795 0.59403 0.0
O1848 O 0.82038 0.21842 0.5943 0.0
C1849 C 0.82692 0.21474 0.58984 0.0
C1850 C 0.80791 0.19595 0.60468 0.0
C1851 C 0.82548 0.21366 0.58017 0.0
C1852 C 0.82088 0.2049 0.56728 0.0
C1853 C 0.82189 0.20578 0.57653 0.0
C1854 C 0.82692 0.21981 0.56525 0.0
C1855 C 0.82339 0.21192 0.56152 0.0
C1856 C 0.82795 0.22066 0.57446 0.0
C1857 C 0.83351 0.22016 0.62393 0.0
C1858 C 0.84306 0.23336 0.62281 0.0
C1859 C 0.84224 0.22515 0.63666 0.0
C1860 C 0.83621 0.21912 0.63279 0.0
C1861 C 0.84574 0.23238 0.63175 0.0
C1862 C 0.837 0.22729 0.61893 0.0
C1863 C 0.82686 0.21383 0.62025 0.0
O1864 O 0.80634 0.20455 0.6044 0.0
O1865 O 0.81644 0.19409 0.60414 0.0
O1866 O 0.83003 0.20687 0.61604 0.0
O1867 O 0.8199 0.21732 0.61629 0.0
H1868 H 0.80893 0.19704 0.62282 0.0
H1869 H 0.80026 0.18837 0.63373 0.0
H1870 H 0.78654 0.17481 0.61226 0.0
H1871 H 0.79534 0.18337 0.60146 0.0
H1872 H 0.81806 0.19877 0.56465 0.0
H1873 H 0.81991 0.2003 0.58082 0.0
H1874 H 0.82905 0.22529 0.56104 0.0
H1875 H 0.83077 0.22679 0.57713 0.0
H1876 H 0.84567 0.23879 0.6188 0.0
H1877 H 0.84401 0.22424 0.64359 0.0
H1878 H 0.83355 0.21368 0.63678 0.0
H1879 H 0.83501 0.2282 0.61206 0.0
C1880 C 0.19176 0.80172 0.61104 0.0
C1881 C 0.19489 0.80083 0.6198 0.0
C1882 C 0.18186 0.7917 0.62367 0.0
C1883 C 0.19 0.79585 0.62605 0.0
C1884 C 0.17871 0.79273 0.6149 0.0
C1885 C 0.18363 0.79767 0.60866 0.0
U1886 U 0.20983 0.81873 0.60432 0.0
O1887 O 0.21984 0.8181 0.5936 0.0
O1888 O 0.20989 0.82873 0.59358 0.0
C1889 C 0.21641 0.82486 0.58925 0.0
C1890 C 0.19692 0.8067 0.60428 0.0
C1891 C 0.21512 0.82357 0.57959 0.0
C1892 C 0.20583 0.82001 0.56673 0.0
C1893 C 0.20686 0.82092 0.57597 0.0
C1894 C 0.22133 0.82424 0.56465 0.0
C1895 C 0.21306 0.82167 0.56094 0.0
C1896 C 0.22234 0.82518 0.57385 0.0
C1897 C 0.2229 0.83057 0.62341 0.0
C1898 C 0.23186 0.84422 0.62286 0.0
C1899 C 0.23221 0.83487 0.63599 0.0
C1900 C 0.22621 0.82891 0.63196 0.0
C1901 C 0.23504 0.84267 0.63155 0.0
C1902 C 0.22584 0.83823 0.61882 0.0
C1903 C 0.21613 0.82439 0.61968 0.0
O1904 O 0.19548 0.81532 0.6039 0.0
O1905 O 0.20543 0.80471 0.60369 0.0
O1906 O 0.21916 0.8173 0.61558 0.0
O1907 O 0.20929 0.82801 0.61563 0.0
H1908 H 0.20114 0.80395 0.62179 0.0
H1909 H 0.19257 0.79529 0.63276 0.0
H1910 H 0.17254 0.78955 0.61281 0.0
H1911 H 0.1811 0.79827 0.60193 0.0
H1912 H 0.1994 0.81793 0.56412 0.0
H1913 H 0.2012 0.8196 0.58027 0.0
H1914 H 0.22701 0.8257 0.56042 0.0
H1915 H 0.22876 0.82726 0.5765 0.0
H1916 H 0.23385 0.85017 0.61926 0.0
H1917 H 0.23463 0.83335 0.6426 0.0
H1918 H 0.22405 0.82303 0.6356 0.0
H1919 H 0.22337 0.83964 0.6122 0.0
H1920 H 0.18176 0.23595 0.38458 0.0
H1921 H 0.17292 0.24507 0.37442 0.0
H1922 H 0.16291 0.26007 0.39666 0.0
H1923 H 0.17182 0.25112 0.40683 0.0
H1924 H 0.14957 0.25501 0.38558 0.0
H1925 H 0.1786 0.26888 0.38274 0.0
H1926 H 0.19478 0.26925 0.37971 0.0
H1927 H 0.18999 0.2598 0.35315 0.0
H1928 H 0.17379 0.25926 0.35607 0.0
H1929 H 0.12934 0.29128 0.36423 0.0
H1930 H 0.13934 0.28214 0.37315 0.0
H1931 H 0.14867 0.26916 0.34938 0.0
H1932 H 0.13867 0.27834 0.34038 0.0
H1933 H 0.16237 0.27248 0.36052 0.0
H1934 H 0.13353 0.25884 0.36298 0.0
H1935 H 0.11732 0.25824 0.36578 0.0
H1936 H 0.12166 0.26671 0.39273 0.0
H1937 H 0.1379 0.26749 0.39006 0.0
C1938 C 0.17778 0.24126 0.38731 0.0
C1939 C 0.1775 0.24275 0.39656 0.0
C1940 C 0.1727 0.24647 0.38148 0.0
C1941 C 0.16726 0.25329 0.38476 0.0
C1942 C 0.16701 0.25482 0.39397 0.0
C1943 C 0.17209 0.24965 0.39979 0.0
C1944 C 0.16164 0.25873 0.37868 0.0
C1945 C 0.15239 0.25891 0.38017 0.0
C1946 C 0.16526 0.2636 0.37143 0.0
C1947 C 0.17499 0.26394 0.36966 0.0
C1948 C 0.18101 0.26681 0.37628 0.0
C1949 C 0.19018 0.26706 0.37458 0.0
C1950 C 0.19341 0.26453 0.36625 0.0
C1951 C 0.18748 0.26175 0.3596 0.0
C1952 C 0.1783 0.26147 0.36128 0.0
C1953 C 0.13349 0.28645 0.36089 0.0
C1954 C 0.13312 0.28548 0.35159 0.0
C1955 C 0.13922 0.28123 0.366 0.0
C1956 C 0.14466 0.27483 0.36197 0.0
C1957 C 0.14453 0.27403 0.35265 0.0
C1958 C 0.13881 0.2793 0.34752 0.0
C1959 C 0.15032 0.26887 0.36752 0.0
C1960 C 0.15955 0.26856 0.36591 0.0
C1961 C 0.14668 0.26382 0.37464 0.0
C1962 C 0.13693 0.2633 0.3763 0.0
C1963 C 0.13102 0.26064 0.36949 0.0
C1964 C 0.12183 0.26026 0.37106 0.0
C1965 C 0.11846 0.26245 0.37942 0.0
C1966 C 0.12428 0.26501 0.38625 0.0
C1967 C 0.13348 0.26542 0.38472 0.0
H1968 H 0.11134 0.26215 0.38062 0.0
H1969 H 0.20051 0.26473 0.36494 0.0
H1970 H 0.79761 0.16984 0.39044 0.0
H1971 H 0.7883 0.16109 0.38019 0.0
H1972 H 0.76475 0.17359 0.39066 0.0
H1973 H 0.774 0.18231 0.40092 0.0
H1974 H 0.76203 0.15621 0.38928 0.0
H1975 H 0.7738 0.17917 0.36998 0.0
H1976 H 0.78562 0.18815 0.36275 0.0
H1977 H 0.79645 0.1645 0.35109 0.0
H1978 H 0.78475 0.15536 0.35834 0.0
H1979 H 0.73015 0.14517 0.35632 0.0
H1980 H 0.74055 0.15272 0.36636 0.0
H1981 H 0.76247 0.13859 0.35455 0.0
H1982 H 0.7521 0.13121 0.34423 0.0
H1983 H 0.76671 0.15586 0.35662 0.0
H1984 H 0.75453 0.13299 0.37529 0.0
H1985 H 0.74269 0.12398 0.38246 0.0
H1986 H 0.73268 0.14739 0.39532 0.0
H1987 H 0.7444 0.15656 0.38813 0.0
C1988 C 0.79046 0.1708 0.39049 0.0
C1989 C 0.78656 0.17677 0.39652 0.0
C1990 C 0.78513 0.16578 0.38463 0.0
C1991 C 0.7758 0.1667 0.38459 0.0
C1992 C 0.77191 0.17271 0.39057 0.0
C1993 C 0.77722 0.17768 0.39646 0.0
C1994 C 0.77003 0.16132 0.37847 0.0
C1995 C 0.763 0.15623 0.38213 0.0
C1996 C 0.77143 0.16108 0.36916 0.0
C1997 C 0.77846 0.16657 0.36479 0.0
C1998 C 0.77874 0.17588 0.36593 0.0
C1999 C 0.78542 0.181 0.36182 0.0
C2000 C 0.7918 0.1769 0.35649 0.0
C2001 C 0.79151 0.16767 0.35523 0.0
C2002 C 0.78486 0.16251 0.35934 0.0
C2003 C 0.73718 0.14368 0.35581 0.0
C2004 C 0.74027 0.13758 0.34943 0.0
C2005 C 0.74313 0.14795 0.36164 0.0
C2006 C 0.75231 0.14617 0.3613 0.0
C2007 C 0.75542 0.14006 0.35497 0.0
C2008 C 0.74946 0.13578 0.34912 0.0
C2009 C 0.75864 0.15087 0.36742 0.0
C2010 C 0.76577 0.15581 0.36378 0.0
C2011 C 0.75735 0.15097 0.37676 0.0
C2012 C 0.7503 0.14547 0.38111 0.0
C2013 C 0.74976 0.13623 0.37959 0.0
C2014 C 0.74308 0.13109 0.38367 0.0
C2015 C 0.73693 0.13511 0.38933 0.0
C2016 C 0.73745 0.14428 0.39093 0.0
C2017 C 0.74412 0.14945 0.38686 0.0
H2018 H 0.73176 0.13113 0.39248 0.0
H2019 H 0.79696 0.18087 0.3533 0.0
H2020 H 0.85624 0.7831 0.40158 0.0
H2021 H 0.86648 0.77319 0.39378 0.0
H2022 H 0.85596 0.78201 0.36859 0.0
H2023 H 0.84578 0.79195 0.37631 0.0
H2024 H 0.85762 0.7643 0.3687 0.0
H2025 H 0.87633 0.78941 0.37636 0.0
H2026 H 0.88329 0.80044 0.38643 0.0
H2027 H 0.89563 0.77936 0.40118 0.0
H2028 H 0.88864 0.76819 0.39126 0.0
H2029 H 0.89142 0.74799 0.34 0.0
H2030 H 0.88104 0.75728 0.34833 0.0
H2031 H 0.89262 0.74828 0.37299 0.0
H2032 H 0.90303 0.73899 0.3647 0.0
H2033 H 0.89036 0.76575 0.3735 0.0
H2034 H 0.87195 0.74063 0.36566 0.0
H2035 H 0.86499 0.72958 0.35561 0.0
H2036 H 0.85206 0.75058 0.34127 0.0
H2037 H 0.85904 0.76177 0.35117 0.0
C2038 C 0.85615 0.783 0.39438 0.0
C2039 C 0.85015 0.78834 0.3896 0.0
C2040 C 0.86201 0.77731 0.38992 0.0
C2041 C 0.86205 0.77688 0.38058 0.0
C2042 C 0.85604 0.78218 0.3758 0.0
C2043 C 0.85019 0.78785 0.38024 0.0
C2044 C 0.86831 0.77092 0.37575 0.0
C2045 C 0.86479 0.76469 0.36968 0.0
C2046 C 0.87766 0.77125 0.37716 0.0
C2047 C 0.88188 0.77796 0.38312 0.0
C2048 C 0.88047 0.78712 0.38179 0.0
C2049 C 0.88443 0.7934 0.38747 0.0
C2050 C 0.88988 0.7906 0.39446 0.0
C2051 C 0.8914 0.78151 0.39577 0.0
C2052 C 0.88744 0.77521 0.39012 0.0
C2053 C 0.89169 0.7479 0.3472 0.0
C2054 C 0.89807 0.74272 0.35167 0.0
C2055 C 0.88575 0.75323 0.35196 0.0
C2056 C 0.88596 0.75343 0.36131 0.0
C2057 C 0.89232 0.74827 0.36579 0.0
C2058 C 0.89829 0.74297 0.36103 0.0
C2059 C 0.87968 0.75914 0.36642 0.0
C2060 C 0.88319 0.76532 0.37254 0.0
C2061 C 0.87032 0.75876 0.36506 0.0
C2062 C 0.86609 0.75204 0.35911 0.0
C2063 C 0.86768 0.74289 0.36032 0.0
C2064 C 0.86372 0.73661 0.35466 0.0
C2065 C 0.8581 0.73938 0.34779 0.0
C2066 C 0.85642 0.74845 0.34659 0.0
C2067 C 0.86037 0.75476 0.35223 0.0
H2068 H 0.85504 0.7345 0.34341 0.0
H2069 H 0.89294 0.79547 0.39884 0.0
H2070 H 0.29737 0.88933 0.35509 0.0
H2071 H 0.28808 0.87915 0.36395 0.0
H2072 H 0.2645 0.89295 0.35534 0.0
H2073 H 0.27372 0.90312 0.34646 0.0
H2074 H 0.26399 0.89017 0.37283 0.0
H2075 H 0.27015 0.87229 0.34698 0.0
H2076 H 0.27974 0.86491 0.33595 0.0
H2077 H 0.2921 0.84974 0.35673 0.0
H2078 H 0.28266 0.85712 0.36791 0.0
H2079 H 0.22998 0.85946 0.3849 0.0
H2080 H 0.24047 0.86922 0.37705 0.0
H2081 H 0.26247 0.85378 0.38696 0.0
H2082 H 0.25196 0.84377 0.39461 0.0
H2083 H 0.2646 0.85726 0.36962 0.0
H2084 H 0.258 0.87453 0.3954 0.0
H2085 H 0.24847 0.88188 0.4065 0.0
H2086 H 0.23708 0.8982 0.38603 0.0
H2087 H 0.24645 0.89086 0.37478 0.0
C2088 C 0.2902 0.89013 0.35499 0.0
C2089 C 0.28631 0.89707 0.35006 0.0
C2090 C 0.28489 0.88431 0.36008 0.0
C2091 C 0.27556 0.88524 0.36029 0.0
C2092 C 0.27167 0.89212 0.35533 0.0
C2093 C 0.27696 0.89794 0.35027 0.0
C2094 C 0.26984 0.87918 0.36579 0.0
C2095 C 0.26405 0.88297 0.37205 0.0
C2096 C 0.2701 0.86978 0.365 0.0
C2097 C 0.27577 0.86533 0.35829 0.0
C2098 C 0.27497 0.86743 0.34921 0.0
C2099 C 0.28036 0.86324 0.34293 0.0
C2100 C 0.28654 0.85688 0.34564 0.0
C2101 C 0.28732 0.85468 0.35464 0.0
C2102 C 0.28195 0.85886 0.36095 0.0
C2103 C 0.23704 0.8581 0.38539 0.0
C2104 C 0.2401 0.8508 0.39038 0.0
C2105 C 0.24305 0.86376 0.38097 0.0
C2106 C 0.25229 0.86231 0.38147 0.0
C2107 C 0.25538 0.85506 0.38648 0.0
C2108 C 0.24936 0.84939 0.39092 0.0
C2109 C 0.25865 0.86825 0.37657 0.0
C2110 C 0.26457 0.86445 0.37044 0.0
C2111 C 0.25852 0.87765 0.37749 0.0
C2112 C 0.25288 0.88209 0.38424 0.0
C2113 C 0.25341 0.87964 0.39325 0.0
C2114 C 0.24805 0.88381 0.39958 0.0
C2115 C 0.24216 0.89048 0.39697 0.0
C2116 C 0.24164 0.89302 0.38804 0.0
C2117 C 0.24698 0.88886 0.38169 0.0
H2118 H 0.23801 0.89371 0.40188 0.0
H2119 H 0.29071 0.85364 0.34077 0.0
H2120 H 0.15194 0.73526 0.68122 0.0
H2121 H 0.15956 0.74547 0.67104 0.0
H2122 H 0.13428 0.75667 0.66345 0.0
H2123 H 0.12658 0.7465 0.67374 0.0
H2124 H 0.14479 0.75388 0.64905 0.0
H2125 H 0.14819 0.76792 0.67745 0.0
H2126 H 0.15216 0.7688 0.69335 0.0
H2127 H 0.17939 0.76274 0.68712 0.0
H2128 H 0.17555 0.7617 0.67118 0.0
H2129 H 0.16374 0.7912 0.62639 0.0
H2130 H 0.15532 0.78182 0.63679 0.0
H2131 H 0.17986 0.77034 0.64619 0.0
H2132 H 0.18833 0.77974 0.63583 0.0
H2133 H 0.1692 0.77375 0.65982 0.0
H2134 H 0.16575 0.75916 0.63154 0.0
H2135 H 0.16183 0.75814 0.61563 0.0
H2136 H 0.13477 0.76511 0.62162 0.0
H2137 H 0.13856 0.76629 0.63756 0.0
C2138 C 0.14798 0.73995 0.67747 0.0
C2139 C 0.13863 0.7401 0.67839 0.0
C2140 C 0.15236 0.74578 0.67162 0.0
C2141 C 0.14752 0.75195 0.66656 0.0
C2142 C 0.13817 0.75199 0.6673 0.0
C2143 C 0.13377 0.74615 0.67317 0.0
C2144 C 0.15224 0.7583 0.66051 0.0
C2145 C 0.15003 0.75832 0.65143 0.0
C2146 C 0.15922 0.76398 0.66356 0.0
C2147 C 0.16156 0.76466 0.67313 0.0
C2148 C 0.15501 0.76671 0.67948 0.0
C2149 C 0.15724 0.76725 0.68849 0.0
C2150 C 0.16601 0.76581 0.69124 0.0
C2151 C 0.17259 0.76385 0.68498 0.0
C2152 C 0.17039 0.76329 0.67595 0.0
C2153 C 0.16735 0.78665 0.63064 0.0
C2154 C 0.17672 0.7862 0.63023 0.0
C2155 C 0.16252 0.78128 0.63659 0.0
C2156 C 0.16693 0.77526 0.64221 0.0
C2157 C 0.17629 0.77493 0.64194 0.0
C2158 C 0.18113 0.78033 0.63602 0.0
C2159 C 0.1618 0.76928 0.64833 0.0
C2160 C 0.16393 0.76933 0.65743 0.0
C2161 C 0.15476 0.76366 0.6453 0.0
C2162 C 0.15246 0.7629 0.63573 0.0
C2163 C 0.15898 0.76054 0.62946 0.0
C2164 C 0.15678 0.75992 0.62044 0.0
C2165 C 0.14807 0.76158 0.61761 0.0
C2166 C 0.14152 0.76384 0.62381 0.0
C2167 C 0.14369 0.76447 0.63284 0.0
H2168 H 0.14638 0.7611 0.61063 0.0
H2169 H 0.16773 0.76623 0.69823 0.0
H2170 H 0.28257 0.13847 0.6857 0.0
H2171 H 0.27316 0.14885 0.67749 0.0
H2172 H 0.28146 0.13706 0.65273 0.0
H2173 H 0.2911 0.12681 0.66088 0.0
H2174 H 0.28094 0.15501 0.65136 0.0
H2175 H 0.26128 0.13181 0.66177 0.0
H2176 H 0.25435 0.12186 0.67292 0.0
H2177 H 0.24431 0.14454 0.68699 0.0
H2178 H 0.2513 0.15464 0.67598 0.0
H2179 H 0.24585 0.17282 0.62451 0.0
H2180 H 0.25626 0.163 0.63225 0.0
H2181 H 0.2481 0.17398 0.65742 0.0
H2182 H 0.23776 0.18383 0.64976 0.0
H2183 H 0.24863 0.15627 0.65835 0.0
H2184 H 0.26829 0.17951 0.64795 0.0
H2185 H 0.27525 0.18946 0.63682 0.0
H2186 H 0.28527 0.16678 0.62273 0.0
H2187 H 0.27825 0.15668 0.63372 0.0
C2188 C 0.2825 0.13815 0.6785 0.0
C2189 C 0.28757 0.13175 0.67397 0.0
C2190 C 0.27704 0.14404 0.67381 0.0
C2191 C 0.27649 0.14367 0.66449 0.0
C2192 C 0.28173 0.13746 0.65992 0.0
C2193 C 0.28718 0.13155 0.66461 0.0
C2194 C 0.27035 0.14964 0.65951 0.0
C2195 C 0.27385 0.15521 0.65281 0.0
C2196 C 0.26113 0.15003 0.66149 0.0
C2197 C 0.25689 0.14398 0.6681 0.0
C2198 C 0.25765 0.13468 0.66728 0.0
C2199 C 0.2537 0.12901 0.67357 0.0
C2200 C 0.24891 0.13257 0.68068 0.0
C2201 C 0.24804 0.1418 0.68149 0.0
C2202 C 0.25198 0.14749 0.67523 0.0
C2203 C 0.24634 0.17322 0.63168 0.0
C2204 C 0.24092 0.17911 0.6365 0.0
C2205 C 0.2523 0.16759 0.63611 0.0
C2206 C 0.25302 0.16777 0.64543 0.0
C2207 C 0.24765 0.17367 0.65024 0.0
C2208 C 0.2417 0.17929 0.64583 0.0
C2209 C 0.25921 0.1617 0.65024 0.0
C2210 C 0.25571 0.1561 0.6569 0.0
C2211 C 0.26843 0.16128 0.64821 0.0
C2212 C 0.27266 0.16734 0.6416 0.0
C2213 C 0.27191 0.17664 0.64244 0.0
C2214 C 0.27588 0.18231 0.63616 0.0
C2215 C 0.28068 0.17875 0.62906 0.0
C2216 C 0.28154 0.16952 0.62823 0.0
C2217 C 0.27757 0.16382 0.63448 0.0
H2218 H 0.28375 0.18315 0.62421 0.0
H2219 H 0.24586 0.12817 0.68554 0.0
H2220 H 0.84622 0.25063 0.62995 0.0
H2221 H 0.85582 0.26132 0.63781 0.0
H2222 H 0.86889 0.23968 0.65129 0.0
H2223 H 0.85938 0.22895 0.64341 0.0
H2224 H 0.86433 0.25234 0.66284 0.0
H2225 H 0.87939 0.25157 0.63474 0.0
H2226 H 0.88071 0.25258 0.61842 0.0
H2227 H 0.87206 0.27977 0.61918 0.0
H2228 H 0.87057 0.27889 0.6355 0.0
H2229 H 0.89863 0.27816 0.68303 0.0
H2230 H 0.89092 0.26725 0.67359 0.0
H2231 H 0.87765 0.28853 0.65975 0.0
H2232 H 0.88556 0.2995 0.66895 0.0
H2233 H 0.88265 0.2759 0.64824 0.0
H2234 H 0.86704 0.27658 0.6761 0.0
H2235 H 0.86549 0.27568 0.69241 0.0
H2236 H 0.87492 0.24875 0.69203 0.0
H2237 H 0.87664 0.24953 0.67572 0.0
C2238 C 0.85123 0.24813 0.63447 0.0
C2239 C 0.85198 0.23891 0.63606 0.0
C2240 C 0.85672 0.25426 0.63898 0.0
C2241 C 0.86313 0.25132 0.64513 0.0
C2242 C 0.86398 0.24213 0.64662 0.0
C2243 C 0.85851 0.236 0.64212 0.0
C2244 C 0.86868 0.25782 0.6503 0.0
C2245 C 0.86845 0.2574 0.65963 0.0
C2246 C 0.87388 0.26458 0.64615 0.0
C2247 C 0.87478 0.26514 0.63634 0.0
C2248 C 0.8777 0.25775 0.63142 0.0
C2249 C 0.87849 0.2583 0.62217 0.0
C2250 C 0.87645 0.26623 0.61776 0.0
C2251 C 0.87363 0.27363 0.6226 0.0
C2252 C 0.87282 0.27311 0.63185 0.0
C2253 C 0.89418 0.28054 0.67788 0.0
C2254 C 0.89268 0.28973 0.67681 0.0
C2255 C 0.88971 0.27428 0.67254 0.0
C2256 C 0.88358 0.27705 0.66604 0.0
C2257 C 0.8823 0.28622 0.66474 0.0
C2258 C 0.88677 0.29248 0.67008 0.0
C2259 C 0.87831 0.2704 0.66077 0.0
C2260 C 0.87857 0.27081 0.65143 0.0
C2261 C 0.8731 0.26364 0.66491 0.0
C2262 C 0.87205 0.26314 0.67471 0.0
C2263 C 0.86885 0.27049 0.67951 0.0
C2264 C 0.86793 0.27 0.68875 0.0
C2265 C 0.87013 0.26217 0.69326 0.0
C2266 C 0.87323 0.25481 0.68853 0.0
C2267 C 0.87417 0.25527 0.67929 0.0
H2268 H 0.86941 0.26181 0.70041 0.0
H2269 H 0.87707 0.26664 0.6106 0.0
H2270 H 0.73247 0.89171 0.66494 0.0
H2271 H 0.74262 0.88341 0.65539 0.0
H2272 H 0.76185 0.88229 0.67671 0.0
H2273 H 0.75171 0.89059 0.68633 0.0
H2274 H 0.77001 0.88565 0.66107 0.0
H2275 H 0.74865 0.86427 0.67183 0.0
H2276 H 0.7336 0.85816 0.67485 0.0
H2277 H 0.72783 0.85792 0.64687 0.0
H2278 H 0.7428 0.86415 0.64368 0.0
H2279 H 0.79619 0.8517 0.6408 0.0
H2280 H 0.78684 0.86002 0.65116 0.0
H2281 H 0.76623 0.86171 0.63119 0.0
H2282 H 0.77538 0.85313 0.62094 0.0
H2283 H 0.7591 0.85776 0.64682 0.0
H2284 H 0.78037 0.87957 0.63614 0.0
H2285 H 0.79541 0.88572 0.63318 0.0
H2286 H 0.80141 0.88507 0.66111 0.0
H2287 H 0.78643 0.87881 0.66422 0.0
C2288 C 0.73885 0.88968 0.66762 0.0
C2289 C 0.74123 0.89177 0.67644 0.0
C2290 C 0.74465 0.88494 0.66214 0.0
C2291 C 0.75295 0.88208 0.66537 0.0
C2292 C 0.75548 0.8844 0.67407 0.0
C2293 C 0.74968 0.88918 0.67956 0.0
C2294 C 0.75889 0.87654 0.6597 0.0
C2295 C 0.76766 0.87949 0.65806 0.0
C2296 C 0.75581 0.86855 0.65564 0.0
C2297 C 0.74682 0.86475 0.65752 0.0
C2298 C 0.74415 0.86297 0.66632 0.0
C2299 C 0.73564 0.85948 0.66807 0.0
C2300 C 0.72976 0.85767 0.66106 0.0
C2301 C 0.73238 0.85933 0.65229 0.0
C2302 C 0.74089 0.86284 0.65051 0.0
C2303 C 0.78963 0.85377 0.63863 0.0
C2304 C 0.78658 0.85177 0.62999 0.0
C2305 C 0.78432 0.85861 0.64454 0.0
C2306 C 0.77586 0.86162 0.64193 0.0
C2307 C 0.77275 0.85952 0.63337 0.0
C2308 C 0.77803 0.85467 0.62747 0.0
C2309 C 0.77019 0.86692 0.64809 0.0
C2310 C 0.76146 0.86391 0.64984 0.0
C2311 C 0.77333 0.87484 0.65226 0.0
C2312 C 0.78232 0.87863 0.6504 0.0
C2313 C 0.78492 0.88067 0.64164 0.0
C2314 C 0.79343 0.88419 0.63994 0.0
C2315 C 0.79937 0.88576 0.64695 0.0
C2316 C 0.79681 0.88384 0.65568 0.0
C2317 C 0.78831 0.88031 0.65742 0.0
H2318 H 0.80596 0.88848 0.64562 0.0
H2319 H 0.72317 0.85497 0.66242 0.0
H2320 H 0.36133 0.13824 0.29556 0.0
H2321 H 0.37126 0.14617 0.28525 0.0
H2322 H 0.35066 0.14558 0.2652 0.0
H2323 H 0.34078 0.13746 0.27539 0.0
H2324 H 0.36685 0.14204 0.25806 0.0
H2325 H 0.35451 0.1642 0.27762 0.0
H2326 H 0.35114 0.17096 0.29217 0.0
H2327 H 0.37915 0.17301 0.29799 0.0
H2328 H 0.38268 0.16615 0.28352 0.0
H2329 H 0.38004 0.17696 0.22921 0.0
H2330 H 0.37249 0.16706 0.23973 0.0
H2331 H 0.39428 0.17035 0.25825 0.0
H2332 H 0.40177 0.18055 0.24784 0.0
H2333 H 0.37873 0.17184 0.26662 0.0
H2334 H 0.39119 0.15077 0.24657 0.0
H2335 H 0.39461 0.14403 0.23204 0.0
H2336 H 0.36664 0.13981 0.22712 0.0
H2337 H 0.36304 0.14664 0.24158 0.0
C2338 C 0.35895 0.13968 0.28892 0.0
C2339 C 0.35022 0.13725 0.28633 0.0
C2340 C 0.36462 0.14429 0.28305 0.0
C2341 C 0.36168 0.14658 0.27447 0.0
C2342 C 0.35308 0.14392 0.27178 0.0
C2343 C 0.3474 0.13933 0.27765 0.0
C2344 C 0.36743 0.15198 0.26837 0.0
C2345 C 0.36938 0.14859 0.2599 0.0
C2346 C 0.37096 0.16042 0.27085 0.0
C2347 C 0.36885 0.16457 0.27953 0.0
C2348 C 0.35994 0.16603 0.28204 0.0
C2349 C 0.35801 0.16989 0.29026 0.0
C2350 C 0.36493 0.17239 0.29601 0.0
C2351 C 0.3738 0.17106 0.29354 0.0
C2352 C 0.37577 0.16719 0.28532 0.0
C2353 C 0.38323 0.17562 0.23554 0.0
C2354 C 0.39151 0.17961 0.23768 0.0
C2355 C 0.37894 0.16986 0.24151 0.0
C2356 C 0.38284 0.16785 0.24976 0.0
C2357 C 0.39114 0.17176 0.25191 0.0
C2358 C 0.39545 0.17754 0.24592 0.0
C2359 C 0.37807 0.16196 0.25624 0.0
C2360 C 0.37628 0.16525 0.26479 0.0
C2361 C 0.37471 0.15342 0.25384 0.0
C2362 C 0.37685 0.14929 0.24514 0.0
C2363 C 0.38576 0.14847 0.24237 0.0
C2364 C 0.38774 0.14462 0.23414 0.0
C2365 C 0.38085 0.14151 0.22865 0.0
C2366 C 0.37197 0.14223 0.23138 0.0
C2367 C 0.36996 0.14608 0.23959 0.0
H2368 H 0.38239 0.13854 0.22228 0.0
H2369 H 0.36341 0.17538 0.30238 0.0
H2370 H 0.84239 0.39144 0.24882 0.0
H2371 H 0.85223 0.38343 0.259 0.0
H2372 H 0.87298 0.38368 0.23912 0.0
H2373 H 0.86318 0.39167 0.22892 0.0
H2374 H 0.87134 0.36756 0.24617 0.0
H2375 H 0.87376 0.39736 0.25781 0.0
H2376 H 0.86813 0.41152 0.26381 0.0
H2377 H 0.85614 0.3975 0.28575 0.0
H2378 H 0.8616 0.38323 0.27981 0.0
H2379 H 0.90791 0.35422 0.27251 0.0
H2380 H 0.89761 0.36263 0.26324 0.0
H2381 H 0.87771 0.36116 0.28391 0.0
H2382 H 0.88813 0.35298 0.29339 0.0
H2383 H 0.87841 0.37762 0.27682 0.0
H2384 H 0.87618 0.34792 0.26543 0.0
H2385 H 0.88173 0.3337 0.25949 0.0
H2386 H 0.89318 0.34747 0.23712 0.0
H2387 H 0.88781 0.36179 0.24299 0.0
C2388 C 0.8491 0.38991 0.24666 0.0
C2389 C 0.85198 0.39221 0.23804 0.0
C2390 C 0.85472 0.38531 0.25249 0.0
C2391 C 0.86339 0.38298 0.24987 0.0
C2392 C 0.86631 0.38535 0.2413 0.0
C2393 C 0.86069 0.38992 0.23546 0.0
C2394 C 0.86935 0.37785 0.25592 0.0
C2395 C 0.87298 0.36983 0.25282 0.0
C2396 C 0.87128 0.38064 0.26473 0.0
C2397 C 0.86801 0.38921 0.26832 0.0
C2398 C 0.86986 0.39728 0.26388 0.0
C2399 C 0.86671 0.40533 0.26727 0.0
C2400 C 0.86176 0.4054 0.27514 0.0
C2401 C 0.85997 0.39743 0.27965 0.0
C2402 C 0.86309 0.38936 0.27627 0.0
C2403 C 0.90138 0.35575 0.27514 0.0
C2404 C 0.89887 0.35291 0.28372 0.0
C2405 C 0.89545 0.36049 0.26978 0.0
C2406 C 0.88682 0.36245 0.27281 0.0
C2407 C 0.88431 0.35971 0.2814 0.0
C2408 C 0.89025 0.35495 0.28678 0.0
C2409 C 0.88048 0.3674 0.26701 0.0
C2410 C 0.87676 0.37535 0.27017 0.0
C2411 C 0.87843 0.36455 0.25826 0.0
C2412 C 0.88166 0.35594 0.25469 0.0
C2413 C 0.87994 0.34792 0.25928 0.0
C2414 C 0.88305 0.33984 0.25592 0.0
C2415 C 0.88783 0.33968 0.24795 0.0
C2416 C 0.88949 0.3476 0.2433 0.0
C2417 C 0.88641 0.3557 0.24664 0.0
H2418 H 0.89022 0.33342 0.24536 0.0
H2419 H 0.85933 0.41164 0.27777 0.0
H2420 H 0.67987 0.90468 0.27179 0.0
H2421 H 0.67107 0.89437 0.26269 0.0
H2422 H 0.66729 0.87713 0.28539 0.0
H2423 H 0.67607 0.88748 0.29459 0.0
H2424 H 0.67094 0.86757 0.27061 0.0
H2425 H 0.65056 0.89055 0.27841 0.0
H2426 H 0.64534 0.906 0.28001 0.0
H2427 H 0.64705 0.90972 0.25174 0.0
H2428 H 0.65241 0.89433 0.24998 0.0
H2429 H 0.63676 0.84148 0.24974 0.0
H2430 H 0.64465 0.85139 0.26011 0.0
H2431 H 0.64968 0.87006 0.23881 0.0
H2432 H 0.6416 0.86032 0.22847 0.0
H2433 H 0.64483 0.87862 0.25371 0.0
H2434 H 0.66585 0.85581 0.24606 0.0
H2435 H 0.67111 0.84037 0.24452 0.0
H2436 H 0.66808 0.83631 0.27264 0.0
H2437 H 0.66268 0.8517 0.27433 0.0
C2438 C 0.67712 0.89873 0.27489 0.0
C2439 C 0.67862 0.89697 0.28396 0.0
C2440 C 0.67209 0.89282 0.26966 0.0
C2441 C 0.66838 0.88503 0.27338 0.0
C2442 C 0.67006 0.88311 0.28237 0.0
C2443 C 0.67511 0.88903 0.28762 0.0
C2444 C 0.66272 0.87894 0.26785 0.0
C2445 C 0.66515 0.86996 0.26703 0.0
C2446 C 0.65524 0.88206 0.26305 0.0
C2447 C 0.65196 0.89131 0.26407 0.0
C2448 C 0.64989 0.89468 0.27254 0.0
C2449 C 0.64689 0.90342 0.27348 0.0
C2450 C 0.64588 0.90884 0.26598 0.0
C2451 C 0.64785 0.90552 0.25754 0.0
C2452 C 0.65085 0.89678 0.25657 0.0
C2453 C 0.63944 0.84775 0.24729 0.0
C2454 C 0.63857 0.85007 0.23825 0.0
C2455 C 0.64403 0.85337 0.25321 0.0
C2456 C 0.64788 0.86143 0.25023 0.0
C2457 C 0.64682 0.86387 0.24127 0.0
C2458 C 0.64225 0.85825 0.23535 0.0
C2459 C 0.65311 0.86728 0.25637 0.0
C2460 C 0.65059 0.87622 0.25733 0.0
C2461 C 0.6605 0.86412 0.2613 0.0
C2462 C 0.66377 0.85488 0.2603 0.0
C2463 C 0.66624 0.8516 0.2519 0.0
C2464 C 0.66926 0.84286 0.25101 0.0
C2465 C 0.6699 0.83735 0.25847 0.0
C2466 C 0.66756 0.84058 0.26686 0.0
C2467 C 0.66453 0.84931 0.26779 0.0
H2468 H 0.67224 0.83059 0.25777 0.0
H2469 H 0.64356 0.91561 0.26672 0.0
H2470 H 0.16296 0.62645 0.23604 0.0
H2471 H 0.15418 0.6367 0.245 0.0
H2472 H 0.17839 0.64866 0.25527 0.0
H2473 H 0.18725 0.63822 0.24649 0.0
H2474 H 0.1666 0.64581 0.26842 0.0
H2475 H 0.16584 0.65951 0.23983 0.0
H2476 H 0.1636 0.66041 0.22361 0.0
H2477 H 0.13596 0.65329 0.22683 0.0
H2478 H 0.13805 0.65222 0.24308 0.0
H2479 H 0.14352 0.68261 0.28799 0.0
H2480 H 0.15357 0.67354 0.27901 0.0
H2481 H 0.13096 0.65939 0.26793 0.0
H2482 H 0.12088 0.66827 0.27698 0.0
H2483 H 0.14277 0.66425 0.2551 0.0
H2484 H 0.14396 0.64989 0.28378 0.0
H2485 H 0.14639 0.64919 0.29999 0.0
H2486 H 0.17355 0.65795 0.29649 0.0
H2487 H 0.17124 0.65882 0.28026 0.0
C2488 C 0.16644 0.63123 0.24023 0.0
C2489 C 0.17583 0.63149 0.24054 0.0
C2490 C 0.1614 0.63715 0.2453 0.0
C2491 C 0.16561 0.64354 0.25076 0.0
C2492 C 0.17498 0.64382 0.25109 0.0
C2493 C 0.18004 0.6379 0.24601 0.0
C2494 C 0.1602 0.64976 0.25623 0.0
C2495 C 0.16149 0.64995 0.26548 0.0
C2496 C 0.15342 0.65508 0.25244 0.0
C2497 C 0.15213 0.65571 0.24267 0.0
C2498 C 0.1593 0.65806 0.23708 0.0
C2499 C 0.15805 0.65862 0.22788 0.0
C2500 C 0.14965 0.65688 0.22419 0.0
C2501 C 0.14247 0.65461 0.2297 0.0
C2502 C 0.14368 0.65404 0.2389 0.0
C2503 C 0.14067 0.6775 0.28372 0.0
C2504 C 0.13135 0.67621 0.28323 0.0
C2505 C 0.14644 0.67233 0.27857 0.0
C2506 C 0.14303 0.66574 0.27281 0.0
C2507 C 0.13375 0.66446 0.27228 0.0
C2508 C 0.12799 0.66959 0.27744 0.0
C2509 C 0.14909 0.6602 0.26729 0.0
C2510 C 0.14791 0.66014 0.25802 0.0
C2511 C 0.156 0.65505 0.27106 0.0
C2512 C 0.1574 0.65452 0.28082 0.0
C2513 C 0.15043 0.65175 0.28647 0.0
C2514 C 0.15178 0.6513 0.29566 0.0
C2515 C 0.16011 0.65355 0.29927 0.0
C2516 C 0.1671 0.65623 0.29369 0.0
C2517 C 0.16577 0.65669 0.2845 0.0
H2518 H 0.16115 0.6532 0.30639 0.0
H2519 H 0.1487 0.65732 0.21707 0.0
H2520 H 0.39505 0.8631 0.7948 0.0
H2521 H 0.38519 0.87184 0.78522 0.0
H2522 H 0.38977 0.85356 0.76362 0.0
H2523 H 0.39971 0.84487 0.77312 0.0
H2524 H 0.39116 0.87095 0.75825 0.0
H2525 H 0.37041 0.85284 0.77497 0.0
H2526 H 0.36346 0.84673 0.78857 0.0
H2527 H 0.35637 0.87313 0.7968 0.0
H2528 H 0.36339 0.87941 0.7833 0.0
H2529 H 0.35653 0.88186 0.72846 0.0
H2530 H 0.36659 0.87456 0.73886 0.0
H2531 H 0.35924 0.89319 0.75935 0.0
H2532 H 0.34889 0.90039 0.74901 0.0
H2533 H 0.35951 0.87657 0.76586 0.0
H2534 H 0.37957 0.89474 0.74899 0.0
H2535 H 0.38654 0.90104 0.73549 0.0
H2536 H 0.3951 0.87495 0.72772 0.0
H2537 H 0.38807 0.86847 0.74111 0.0
C2538 C 0.39397 0.86096 0.78801 0.0
C2539 C 0.39815 0.85326 0.78474 0.0
C2540 C 0.38829 0.86593 0.78255 0.0
C2541 C 0.38668 0.86333 0.77371 0.0
C2542 C 0.39089 0.85569 0.77042 0.0
C2543 C 0.39651 0.85068 0.77588 0.0
C2544 C 0.38072 0.86862 0.76782 0.0
C2545 C 0.38421 0.8721 0.75986 0.0
C2546 C 0.37173 0.87036 0.77006 0.0
C2547 C 0.36752 0.8666 0.77818 0.0
C2548 C 0.36744 0.85735 0.77972 0.0
C2549 C 0.36348 0.85385 0.7874 0.0
C2550 C 0.3595 0.85954 0.79356 0.0
C2551 C 0.35947 0.86873 0.79204 0.0
C2552 C 0.36344 0.87226 0.78437 0.0
C2553 C 0.357 0.8844 0.73519 0.0
C2554 C 0.35186 0.89171 0.73789 0.0
C2555 C 0.36284 0.88026 0.74112 0.0
C2556 C 0.36377 0.88337 0.74989 0.0
C2557 C 0.35867 0.89068 0.75262 0.0
C2558 C 0.35281 0.89484 0.74667 0.0
C2559 C 0.36991 0.87882 0.75621 0.0
C2560 C 0.36647 0.87548 0.76426 0.0
C2561 C 0.37897 0.87724 0.75408 0.0
C2562 C 0.38322 0.88111 0.74602 0.0
C2563 C 0.38288 0.89033 0.74437 0.0
C2564 C 0.38685 0.89394 0.73674 0.0
C2565 C 0.39124 0.8884 0.73074 0.0
C2566 C 0.39169 0.87924 0.73237 0.0
C2567 C 0.38772 0.87559 0.73998 0.0
H2568 H 0.39432 0.8912 0.72484 0.0
H2569 H 0.35643 0.85682 0.7995 0.0
H2570 H 0.13472 0.35985 0.73267 0.0
H2571 H 0.14251 0.37027 0.74257 0.0
H2572 H 0.15116 0.34831 0.75885 0.0
H2573 H 0.14316 0.33786 0.74913 0.0
H2574 H 0.14607 0.36207 0.76905 0.0
H2575 H 0.16524 0.35812 0.74382 0.0
H2576 H 0.16913 0.35797 0.72789 0.0
H2577 H 0.16309 0.38582 0.72589 0.0
H2578 H 0.15904 0.38611 0.74179 0.0
H2579 H 0.18056 0.38513 0.79256 0.0
H2580 H 0.17219 0.37468 0.78316 0.0
H2581 H 0.16416 0.3964 0.76623 0.0
H2582 H 0.17281 0.40682 0.77536 0.0
H2583 H 0.16888 0.38269 0.75642 0.0
H2584 H 0.14977 0.38667 0.7817 0.0
H2585 H 0.14587 0.38681 0.79763 0.0
H2586 H 0.15178 0.35892 0.79958 0.0
H2587 H 0.15584 0.35864 0.78367 0.0
C2588 C 0.13817 0.35723 0.73842 0.0
C2589 C 0.13835 0.34799 0.74006 0.0
C2590 C 0.1427 0.3632 0.74404 0.0
C2591 C 0.14755 0.36008 0.7514 0.0
C2592 C 0.14752 0.35089 0.7532 0.0
C2593 C 0.14299 0.34491 0.74759 0.0
C2594 C 0.1528 0.36635 0.75711 0.0
C2595 C 0.15114 0.3665 0.7663 0.0
C2596 C 0.15929 0.37227 0.75353 0.0
C2597 C 0.16175 0.37212 0.74397 0.0
C2598 C 0.16468 0.3642 0.73997 0.0
C2599 C 0.16692 0.36409 0.73094 0.0
C2600 C 0.16633 0.37187 0.72587 0.0
C2601 C 0.16353 0.37979 0.72982 0.0
C2602 C 0.16126 0.37994 0.73884 0.0
C2603 C 0.17709 0.38768 0.78679 0.0
C2604 C 0.17735 0.39685 0.78476 0.0
C2605 C 0.17221 0.3817 0.78147 0.0
C2606 C 0.16742 0.38475 0.77404 0.0
C2607 C 0.16776 0.39388 0.77194 0.0
C2608 C 0.17265 0.39985 0.77724 0.0
C2609 C 0.16214 0.37845 0.76837 0.0
C2610 C 0.16381 0.37827 0.75918 0.0
C2611 C 0.15565 0.37251 0.77196 0.0
C2612 C 0.15319 0.37266 0.78152 0.0
C2613 C 0.15031 0.38058 0.78554 0.0
C2614 C 0.14806 0.38069 0.79456 0.0
C2615 C 0.1486 0.37289 0.79962 0.0
C2616 C 0.15138 0.36496 0.79565 0.0
C2617 C 0.15365 0.36483 0.78664 0.0
H2618 H 0.14685 0.37298 0.8066 0.0
H2619 H 0.16808 0.37177 0.71889 0.0
H2620 H 0.62175 0.16608 0.78043 0.0
H2621 H 0.63195 0.15706 0.7717 0.0
H2622 H 0.65335 0.17575 0.77713 0.0
H2623 H 0.64306 0.18504 0.78563 0.0
H2624 H 0.65371 0.17069 0.76004 0.0
H2625 H 0.6521 0.15568 0.788 0.0
H2626 H 0.64479 0.14864 0.80095 0.0
H2627 H 0.6325 0.12909 0.78388 0.0
H2628 H 0.63964 0.1361 0.77081 0.0
H2629 H 0.68726 0.14057 0.74444 0.0
H2630 H 0.6783 0.15073 0.75343 0.0
H2631 H 0.65514 0.13387 0.74938 0.0
H2632 H 0.66401 0.12374 0.74038 0.0
H2633 H 0.65665 0.1384 0.76646 0.0
H2634 H 0.65793 0.154 0.7384 0.0
H2635 H 0.66542 0.16112 0.72558 0.0
H2636 H 0.67871 0.17958 0.74311 0.0
H2637 H 0.67138 0.17249 0.75604 0.0
C2638 C 0.6286 0.16835 0.7797 0.0
C2639 C 0.63155 0.17632 0.78375 0.0
C2640 C 0.63446 0.16311 0.77478 0.0
C2641 C 0.64347 0.16564 0.77384 0.0
C2642 C 0.64645 0.17363 0.77778 0.0
C2643 C 0.64056 0.1789 0.78271 0.0
C2644 C 0.64973 0.15992 0.76872 0.0
C2645 C 0.65446 0.16366 0.76153 0.0
C2646 C 0.65064 0.15071 0.77056 0.0
C2647 C 0.64635 0.14646 0.77841 0.0
C2648 C 0.64779 0.14992 0.787 0.0
C2649 C 0.64368 0.14593 0.79436 0.0
C2650 C 0.63817 0.13843 0.79324 0.0
C2651 C 0.63677 0.1349 0.78474 0.0
C2652 C 0.64085 0.13888 0.77735 0.0
C2653 C 0.68024 0.13908 0.74537 0.0
C2654 C 0.67638 0.1313 0.7417 0.0
C2655 C 0.67512 0.14489 0.75053 0.0
C2656 C 0.66601 0.1431 0.75206 0.0
C2657 C 0.66215 0.13539 0.74834 0.0
C2658 C 0.66725 0.12957 0.74322 0.0
C2659 C 0.66051 0.14912 0.75768 0.0
C2660 C 0.65593 0.14544 0.76498 0.0
C2661 C 0.65979 0.15837 0.75596 0.0
C2662 C 0.66418 0.16265 0.74819 0.0
C2663 C 0.6625 0.15953 0.73952 0.0
C2664 C 0.66671 0.16357 0.73224 0.0
C2665 C 0.67255 0.17078 0.73353 0.0
C2666 C 0.67419 0.17398 0.74212 0.0
C2667 C 0.67001 0.16996 0.74942 0.0
H2668 H 0.6758 0.1739 0.72789 0.0
H2669 H 0.635 0.13535 0.79895 0.0
H2670 H 0.89745 0.66847 0.734 0.0
H2671 H 0.88982 0.65855 0.74457 0.0
H2672 H 0.8779 0.68131 0.75721 0.0
H2673 H 0.88572 0.69125 0.74689 0.0
H2674 H 0.88331 0.66965 0.76942 0.0
H2675 H 0.86632 0.66817 0.7421 0.0
H2676 H 0.86418 0.66547 0.72605 0.0
H2677 H 0.87254 0.63837 0.72933 0.0
H2678 H 0.87484 0.64094 0.74539 0.0
H2679 H 0.84595 0.65164 0.79165 0.0
H2680 H 0.85605 0.65959 0.78162 0.0
H2681 H 0.86567 0.63455 0.77157 0.0
H2682 H 0.85531 0.6265 0.78143 0.0
H2683 H 0.86274 0.64606 0.75817 0.0
H2684 H 0.87843 0.64714 0.78576 0.0
H2685 H 0.88046 0.6498 0.80182 0.0
H2686 H 0.87468 0.67754 0.79812 0.0
H2687 H 0.87248 0.67502 0.78205 0.0
C2688 C 0.8933 0.67137 0.73911 0.0
C2689 C 0.89215 0.68067 0.73953 0.0
C2690 C 0.88887 0.66568 0.7451 0.0
C2691 C 0.88317 0.66916 0.75162 0.0
C2692 C 0.88223 0.67845 0.75222 0.0
C2693 C 0.88664 0.68412 0.74625 0.0
C2694 C 0.87801 0.66319 0.75774 0.0
C2695 C 0.87877 0.66454 0.76695 0.0
C2696 C 0.87226 0.65633 0.75456 0.0
C2697 C 0.87085 0.65477 0.74492 0.0
C2698 C 0.86776 0.66165 0.73938 0.0
C2699 C 0.86652 0.66015 0.73029 0.0
C2700 C 0.86825 0.65176 0.72667 0.0
C2701 C 0.87122 0.64486 0.73214 0.0
C2702 C 0.87249 0.64634 0.74124 0.0
C2703 C 0.85014 0.64779 0.78726 0.0
C2704 C 0.84977 0.63841 0.78734 0.0
C2705 C 0.85601 0.65236 0.78159 0.0
C2706 C 0.86173 0.64768 0.77591 0.0
C2707 C 0.86136 0.63831 0.77592 0.0
C2708 C 0.85548 0.63372 0.78161 0.0
C2709 C 0.86792 0.65263 0.76985 0.0
C2710 C 0.86736 0.6511 0.76065 0.0
C2711 C 0.87387 0.65932 0.77304 0.0
C2712 C 0.87523 0.66087 0.7827 0.0
C2713 C 0.87753 0.65379 0.78838 0.0
C2714 C 0.87872 0.65528 0.79748 0.0
C2715 C 0.87769 0.66383 0.80099 0.0
C2716 C 0.87547 0.67092 0.7954 0.0
C2717 C 0.87427 0.66947 0.78629 0.0
H2718 H 0.87861 0.66497 0.80804 0.0
H2719 H 0.86728 0.65061 0.71963 0.0
H2720 H 0.23771 0.39853 0.16635 0.0
H2721 H 0.24786 0.39111 0.15606 0.0
H2722 H 0.25837 0.37552 0.17772 0.0
H2723 H 0.24848 0.38312 0.18808 0.0
H2724 H 0.27157 0.38092 0.16702 0.0
H2725 H 0.24284 0.3668 0.16313 0.0
H2726 H 0.22667 0.36628 0.16008 0.0
H2727 H 0.23116 0.37772 0.13425 0.0
H2728 H 0.24736 0.37841 0.1372 0.0
H2729 H 0.29226 0.34676 0.14188 0.0
H2730 H 0.2828 0.35513 0.15205 0.0
H2731 H 0.27199 0.3698 0.1299 0.0
H2732 H 0.2811 0.36117 0.11966 0.0
H2733 H 0.25904 0.36518 0.14073 0.0
H2734 H 0.28785 0.379 0.14447 0.0
H2735 H 0.30402 0.37948 0.14754 0.0
H2736 H 0.29943 0.36865 0.17361 0.0
H2737 H 0.28323 0.36799 0.17065 0.0
C2738 C 0.24227 0.39362 0.16895 0.0
C2739 C 0.24221 0.39138 0.17805 0.0
C2740 C 0.24802 0.38931 0.16304 0.0
C2741 C 0.2538 0.38263 0.16608 0.0
C2742 C 0.25395 0.3806 0.17519 0.0
C2743 C 0.24822 0.3849 0.1811 0.0
C2744 C 0.25957 0.37764 0.15976 0.0
C2745 C 0.26881 0.3774 0.16132 0.0
C2746 C 0.25603 0.37318 0.15222 0.0
C2747 C 0.2463 0.37274 0.15042 0.0
C2748 C 0.24038 0.36926 0.15683 0.0
C2749 C 0.2312 0.36893 0.15511 0.0
C2750 C 0.22789 0.37199 0.14699 0.0
C2751 C 0.23374 0.37536 0.14055 0.0
C2752 C 0.24291 0.37572 0.14223 0.0
C2753 C 0.28782 0.3517 0.13914 0.0
C2754 C 0.2875 0.35329 0.12991 0.0
C2755 C 0.28248 0.35658 0.14499 0.0
C2756 C 0.27676 0.36322 0.14178 0.0
C2757 C 0.27637 0.36476 0.13257 0.0
C2758 C 0.28167 0.35986 0.12672 0.0
C2759 C 0.27106 0.36845 0.14797 0.0
C2760 C 0.26182 0.36873 0.1464 0.0
C2761 C 0.2746 0.37294 0.1555 0.0
C2762 C 0.28434 0.37337 0.15731 0.0
C2763 C 0.2903 0.37666 0.15084 0.0
C2764 C 0.29947 0.37697 0.15256 0.0
C2765 C 0.30275 0.37408 0.16076 0.0
C2766 C 0.29687 0.37088 0.16726 0.0
C2767 C 0.2877 0.37054 0.16557 0.0
H2768 H 0.30985 0.37433 0.16208 0.0
H2769 H 0.22078 0.37172 0.14567 0.0
H2770 H 0.27434 0.6762 0.90474 0.0
H2771 H 0.26518 0.66758 0.89434 0.0
H2772 H 0.28741 0.66607 0.87622 0.0
H2773 H 0.29666 0.67468 0.88664 0.0
H2774 H 0.2722 0.66961 0.86739 0.0
H2775 H 0.28141 0.64814 0.88893 0.0
H2776 H 0.28366 0.642 0.90398 0.0
H2777 H 0.25538 0.64221 0.90855 0.0
H2778 H 0.25296 0.64848 0.89357 0.0
H2779 H 0.2517 0.63624 0.84015 0.0
H2780 H 0.26209 0.64397 0.85017 0.0
H2781 H 0.24109 0.64682 0.86952 0.0
H2782 H 0.23074 0.6389 0.85965 0.0
H2783 H 0.25646 0.64211 0.87743 0.0
H2784 H 0.24739 0.66418 0.85606 0.0
H2785 H 0.24521 0.67036 0.84102 0.0
H2786 H 0.27338 0.66891 0.83609 0.0
H2787 H 0.27572 0.6626 0.85107 0.0
C2788 C 0.27733 0.67397 0.89858 0.0
C2789 C 0.28629 0.67608 0.89659 0.0
C2790 C 0.27206 0.66905 0.89262 0.0
C2791 C 0.27563 0.66604 0.88454 0.0
C2792 C 0.2845 0.66829 0.88242 0.0
C2793 C 0.28978 0.67324 0.88838 0.0
C2794 C 0.27007 0.66056 0.87833 0.0
C2795 C 0.26887 0.66352 0.86955 0.0
C2796 C 0.26559 0.65268 0.88116 0.0
C2797 C 0.26701 0.64886 0.89015 0.0
C2798 C 0.27567 0.64694 0.89317 0.0
C2799 C 0.27698 0.64343 0.90168 0.0
C2800 C 0.26967 0.64174 0.90722 0.0
C2801 C 0.26104 0.64354 0.90425 0.0
C2802 C 0.25969 0.64706 0.89575 0.0
C2803 C 0.24932 0.63841 0.84659 0.0
C2804 C 0.24035 0.63698 0.84907 0.0
C2805 C 0.25525 0.64291 0.85228 0.0
C2806 C 0.25236 0.6461 0.86056 0.0
C2807 C 0.24348 0.64447 0.86315 0.0
C2808 C 0.23755 0.63999 0.85746 0.0
C2809 C 0.25851 0.65121 0.86652 0.0
C2810 C 0.25982 0.64817 0.87526 0.0
C2811 C 0.26311 0.65901 0.86364 0.0
C2812 C 0.26172 0.66283 0.85465 0.0
C2813 C 0.25311 0.66511 0.85174 0.0
C2814 C 0.25185 0.66865 0.84323 0.0
C2815 C 0.25915 0.67 0.83759 0.0
C2816 C 0.26773 0.66785 0.84046 0.0
C2817 C 0.26903 0.66429 0.84896 0.0
H2818 H 0.25815 0.67275 0.83101 0.0
H2819 H 0.2707 0.63902 0.91381 0.0
H2820 H 0.3536 0.28154 0.90135 0.0
H2821 H 0.36378 0.27144 0.89371 0.0
H2822 H 0.35823 0.28456 0.8688 0.0
H2823 H 0.3481 0.29467 0.87638 0.0
H2824 H 0.35777 0.26694 0.8667 0.0
H2825 H 0.37794 0.28815 0.88025 0.0
H2826 H 0.38455 0.29672 0.89265 0.0
H2827 H 0.39197 0.27237 0.90561 0.0
H2828 H 0.38529 0.26365 0.89333 0.0
H2829 H 0.39306 0.25036 0.84025 0.0
H2830 H 0.38277 0.2597 0.84861 0.0
H2831 H 0.38991 0.24607 0.87283 0.0
H2832 H 0.40027 0.23675 0.8645 0.0
H2833 H 0.38938 0.26339 0.87574 0.0
H2834 H 0.36965 0.24214 0.86206 0.0
H2835 H 0.36301 0.2335 0.84972 0.0
H2836 H 0.35466 0.25774 0.83714 0.0
H2837 H 0.36136 0.26654 0.84935 0.0
C2838 C 0.35461 0.28233 0.89426 0.0
C2839 C 0.34999 0.28892 0.88949 0.0
C2840 C 0.36043 0.27654 0.88989 0.0
C2841 C 0.36183 0.27726 0.88067 0.0
C2842 C 0.35724 0.28383 0.8759 0.0
C2843 C 0.35141 0.2896 0.88026 0.0
C2844 C 0.36799 0.27113 0.87591 0.0
C2845 C 0.36471 0.26624 0.86862 0.0
C2846 C 0.37699 0.27001 0.87854 0.0
C2847 C 0.38103 0.27525 0.88592 0.0
C2848 C 0.38092 0.28462 0.88578 0.0
C2849 C 0.38469 0.28951 0.89278 0.0
C2850 C 0.38866 0.28509 0.89992 0.0
C2851 C 0.38888 0.27578 0.90007 0.0
C2852 C 0.38511 0.27086 0.89309 0.0
C2853 C 0.39237 0.24927 0.84733 0.0
C2854 C 0.39748 0.24277 0.85168 0.0
C2855 C 0.38647 0.25463 0.85212 0.0
C2856 C 0.38545 0.25354 0.86136 0.0
C2857 C 0.39056 0.24707 0.86572 0.0
C2858 C 0.3965 0.24174 0.86094 0.0
C2859 C 0.37917 0.25925 0.86647 0.0
C2860 C 0.38243 0.26405 0.87384 0.0
C2861 C 0.37013 0.26028 0.86392 0.0
C2862 C 0.36608 0.255 0.85658 0.0
C2863 C 0.36645 0.24563 0.85663 0.0
C2864 C 0.36267 0.24071 0.84966 0.0
C2865 C 0.35844 0.24507 0.84264 0.0
C2866 C 0.35796 0.25437 0.84258 0.0
C2867 C 0.36173 0.25933 0.84952 0.0
H2868 H 0.35551 0.24124 0.83725 0.0
H2869 H 0.39157 0.28889 0.90534 0.0
H2870 H 0.78048 0.39155 0.8396 0.0
H2871 H 0.77095 0.38129 0.84809 0.0
H2872 H 0.78371 0.3898 0.87241 0.0
H2873 H 0.79342 0.39994 0.86394 0.0
H2874 H 0.78127 0.37181 0.87212 0.0
H2875 H 0.76338 0.39758 0.86691 0.0
H2876 H 0.75628 0.40928 0.8579 0.0
H2877 H 0.7417 0.38931 0.84326 0.0
H2878 H 0.74881 0.37748 0.85211 0.0
H2879 H 0.74849 0.353 0.90132 0.0
H2880 H 0.75847 0.36342 0.89351 0.0
H2881 H 0.74589 0.3565 0.8686 0.0
H2882 H 0.73573 0.34633 0.87637 0.0
H2883 H 0.74835 0.37402 0.86961 0.0
H2884 H 0.76645 0.34823 0.87456 0.0
H2885 H 0.7736 0.33649 0.88348 0.0
H2886 H 0.7878 0.35641 0.89854 0.0
H2887 H 0.78064 0.36828 0.88978 0.0
C2888 C 0.78134 0.39117 0.84674 0.0
C2889 C 0.7877 0.39661 0.85108 0.0
C2890 C 0.77583 0.38535 0.8516 0.0
C2891 C 0.77652 0.38485 0.86091 0.0
C2892 C 0.78301 0.3901 0.86524 0.0
C2893 C 0.78851 0.39594 0.86039 0.0
C2894 C 0.77041 0.37893 0.86613 0.0
C2895 C 0.77407 0.37237 0.87167 0.0
C2896 C 0.76101 0.37954 0.86543 0.0
C2897 C 0.75669 0.38664 0.86012 0.0
C2898 C 0.75871 0.39568 0.86172 0.0
C2899 C 0.75468 0.40234 0.85665 0.0
C2900 C 0.74856 0.40004 0.84999 0.0
C2901 C 0.74645 0.39108 0.84841 0.0
C2902 C 0.75047 0.3844 0.85346 0.0
C2903 C 0.7478 0.35375 0.89419 0.0
C2904 C 0.74133 0.34876 0.88948 0.0
C2905 C 0.75357 0.35965 0.88971 0.0
C2906 C 0.75302 0.36067 0.88043 0.0
C2907 C 0.74648 0.35581 0.87575 0.0
C2908 C 0.74072 0.34992 0.88021 0.0
C2909 C 0.7592 0.36683 0.87556 0.0
C2910 C 0.75555 0.37345 0.87009 0.0
C2911 C 0.76861 0.36627 0.87632 0.0
C2912 C 0.77293 0.35914 0.88158 0.0
C2913 C 0.77104 0.35011 0.87982 0.0
C2914 C 0.7751 0.34343 0.88484 0.0
C2915 C 0.78113 0.3457 0.89159 0.0
C2916 C 0.78312 0.35466 0.89332 0.0
C2917 C 0.77906 0.36137 0.88833 0.0
H2918 H 0.78427 0.34052 0.89547 0.0
H2919 H 0.74544 0.4052 0.84607 0.0
H2920 H 0.66532 0.73351 0.89577 0.0
H2921 H 0.65654 0.74269 0.88563 0.0
H2922 H 0.6788 0.76094 0.88278 0.0
H2923 H 0.68758 0.75186 0.89306 0.0
H2924 H 0.6633 0.76975 0.88559 0.0
H2925 H 0.67342 0.74687 0.86609 0.0
H2926 H 0.676 0.73147 0.86105 0.0
H2927 H 0.64774 0.72635 0.86083 0.0
H2928 H 0.645 0.74169 0.86599 0.0
H2929 H 0.6433 0.79434 0.85037 0.0
H2930 H 0.6536 0.78518 0.85898 0.0
H2931 H 0.63308 0.76503 0.86213 0.0
H2932 H 0.62286 0.77397 0.85325 0.0
H2933 H 0.64857 0.75742 0.85864 0.0
H2934 H 0.63851 0.77999 0.87895 0.0
H2935 H 0.63591 0.79535 0.8841 0.0
H2936 H 0.66404 0.80101 0.88286 0.0
H2937 H 0.6668 0.7857 0.87758 0.0
C2938 C 0.66835 0.73949 0.89301 0.0
C2939 C 0.67716 0.74194 0.89524 0.0
C2940 C 0.66334 0.74469 0.88715 0.0
C2941 C 0.66702 0.75248 0.88337 0.0
C2942 C 0.67582 0.75496 0.88558 0.0
C2943 C 0.68085 0.74972 0.89141 0.0
C2944 C 0.6616 0.75814 0.87732 0.0
C2945 C 0.6602 0.76709 0.87961 0.0
C2946 C 0.65739 0.75464 0.86961 0.0
C2947 C 0.65901 0.74541 0.86651 0.0
C2948 C 0.66776 0.74244 0.86504 0.0
C2949 C 0.66925 0.73373 0.86215 0.0
C2950 C 0.66204 0.72793 0.86064 0.0
C2951 C 0.65332 0.73084 0.86201 0.0
C2952 C 0.65179 0.73955 0.86491 0.0
C2953 C 0.641 0.78791 0.8528 0.0
C2954 C 0.6322 0.78494 0.85114 0.0
C2955 C 0.64688 0.78272 0.85781 0.0
C2956 C 0.6441 0.77446 0.86133 0.0
C2957 C 0.63539 0.77139 0.85953 0.0
C2958 C 0.62952 0.77657 0.85451 0.0
C2959 C 0.65019 0.76901 0.86696 0.0
C2960 C 0.65171 0.7601 0.86458 0.0
C2961 C 0.6545 0.77254 0.8746 0.0
C2962 C 0.65285 0.78173 0.87778 0.0
C2963 C 0.64414 0.78453 0.87971 0.0
C2964 C 0.64263 0.79322 0.88266 0.0
C2965 C 0.6498 0.79916 0.88378 0.0
C2966 C 0.65849 0.79641 0.88197 0.0
C2967 C 0.66003 0.78772 0.87901 0.0
H2968 H 0.64862 0.80588 0.88607 0.0
H2969 H 0.6632 0.72119 0.85839 0.0
H2970 H 0.72967 0.67235 0.14438 0.0
H2971 H 0.74011 0.66259 0.15203 0.0
H2972 H 0.76158 0.67256 0.13559 0.0
H2973 H 0.75115 0.68245 0.12793 0.0
H2974 H 0.76246 0.65447 0.1378 0.0
H2975 H 0.75936 0.68001 0.15664 0.0
H2976 H 0.75115 0.69127 0.1652 0.0
H2977 H 0.7397 0.67065 0.18158 0.0
H2978 H 0.74774 0.65925 0.17302 0.0
H2979 H 0.79701 0.63652 0.16491 0.0
H2980 H 0.78741 0.64657 0.15647 0.0
H2981 H 0.76513 0.63933 0.17326 0.0
H2982 H 0.77472 0.62937 0.18178 0.0
H2983 H 0.7652 0.65657 0.17063 0.0
H2984 H 0.76782 0.63099 0.15157 0.0
H2985 H 0.77585 0.61962 0.14295 0.0
H2986 H 0.78804 0.64016 0.127 0.0
H2987 H 0.78018 0.65166 0.13561 0.0
C2988 C 0.73662 0.67252 0.14241 0.0
C2989 C 0.73957 0.67828 0.13559 0.0
C2990 C 0.74258 0.66691 0.14679 0.0
C2991 C 0.75167 0.66694 0.1445 0.0
C2992 C 0.7546 0.67244 0.13749 0.0
C2993 C 0.74862 0.67807 0.1331 0.0
C2994 C 0.75809 0.66134 0.14956 0.0
C2995 C 0.76316 0.65502 0.14496 0.0
C2996 C 0.75889 0.66192 0.15893 0.0
C2997 C 0.7541 0.66877 0.16413 0.0
C2998 C 0.75504 0.67787 0.16202 0.0
C2999 C 0.75042 0.68428 0.16688 0.0
C3000 C 0.74489 0.68168 0.17392 0.0
C3001 C 0.74398 0.67266 0.17612 0.0
C3002 C 0.74857 0.66622 0.17127 0.0
C3003 C 0.79005 0.63703 0.16677 0.0
C3004 C 0.78663 0.63212 0.17401 0.0
C3005 C 0.78456 0.64278 0.16193 0.0
C3006 C 0.77548 0.64364 0.16413 0.0
C3007 C 0.77209 0.63881 0.17142 0.0
C3008 C 0.7776 0.63312 0.1763 0.0
C3009 C 0.76952 0.6496 0.1589 0.0
C3010 C 0.76453 0.65602 0.16346 0.0
C3011 C 0.76879 0.64909 0.14951 0.0
C3012 C 0.77348 0.64219 0.14429 0.0
C3013 C 0.77226 0.63308 0.14626 0.0
C3014 C 0.77678 0.62662 0.14138 0.0
C3015 C 0.78247 0.62917 0.13445 0.0
C3016 C 0.78364 0.6382 0.13238 0.0
C3017 C 0.77915 0.64469 0.13726 0.0
H3018 H 0.78596 0.62416 0.13067 0.0
H3019 H 0.74132 0.68665 0.17767 0.0
H3020 H 0.39343 0.79679 0.1663 0.0
H3021 H 0.38557 0.78646 0.15632 0.0
H3022 H 0.38319 0.76733 0.17764 0.0
H3023 H 0.39124 0.77751 0.18758 0.0
H3024 H 0.38746 0.75922 0.16221 0.0
H3025 H 0.36577 0.78071 0.1719 0.0
H3026 H 0.35981 0.79582 0.17402 0.0
H3027 H 0.36042 0.80022 0.1458 0.0
H3028 H 0.3665 0.78517 0.14352 0.0
H3029 H 0.3517 0.7316 0.14831 0.0
H3030 H 0.36168 0.74205 0.1559 0.0
H3031 H 0.36134 0.75939 0.13301 0.0
H3032 H 0.35105 0.74906 0.12545 0.0
H3033 H 0.35929 0.76881 0.1479 0.0
H3034 H 0.37981 0.74688 0.13804 0.0
H3035 H 0.38574 0.73177 0.13587 0.0
H3036 H 0.38748 0.72819 0.16415 0.0
H3037 H 0.38144 0.74324 0.1665 0.0
C3038 C 0.39135 0.79033 0.16883 0.0
C3039 C 0.39293 0.78801 0.17777 0.0
C3040 C 0.38678 0.78446 0.16314 0.0
C3041 C 0.38367 0.77615 0.16625 0.0
C3042 C 0.38548 0.77371 0.17508 0.0
C3043 C 0.39003 0.77957 0.18078 0.0
C3044 C 0.37833 0.77007 0.16042 0.0
C3045 C 0.38126 0.7613 0.15914 0.0
C3046 C 0.37037 0.77282 0.15619 0.0
C3047 C 0.36668 0.78186 0.15755 0.0
C3048 C 0.3647 0.78493 0.16615 0.0
C3049 C 0.36129 0.79347 0.16738 0.0
C3050 C 0.35976 0.79899 0.16005 0.0
C3051 C 0.36162 0.79595 0.15147 0.0
C3052 C 0.36504 0.78741 0.15021 0.0
C3053 C 0.3537 0.73765 0.14488 0.0
C3054 C 0.35052 0.73949 0.13626 0.0
C3055 C 0.35951 0.74359 0.1492 0.0
C3056 C 0.36237 0.75148 0.145 0.0
C3057 C 0.35926 0.75333 0.13638 0.0
C3058 C 0.35343 0.74738 0.13204 0.0
C3059 C 0.36835 0.75791 0.14978 0.0
C3060 C 0.36554 0.76675 0.15087 0.0
C3061 C 0.37643 0.75522 0.15383 0.0
C3062 C 0.3801 0.74617 0.15245 0.0
C3063 C 0.38139 0.74285 0.1438 0.0
C3064 C 0.38478 0.73429 0.14254 0.0
C3065 C 0.38697 0.72901 0.14987 0.0
C3066 C 0.38578 0.73229 0.15848 0.0
C3067 C 0.38238 0.74083 0.15978 0.0
H3068 H 0.38959 0.7224 0.14887 0.0
H3069 H 0.35712 0.8056 0.16102 0.0
H3070 H 0.68799 0.27786 0.13407 0.0
H3071 H 0.67952 0.26836 0.14435 0.0
H3072 H 0.65541 0.28229 0.13761 0.0
H3073 H 0.66387 0.29194 0.12744 0.0
H3074 H 0.65667 0.27934 0.15553 0.0
H3075 H 0.65923 0.26213 0.12884 0.0
H3076 H 0.66712 0.25506 0.11635 0.0
H3077 H 0.68214 0.23922 0.13472 0.0
H3078 H 0.67443 0.24628 0.14733 0.0
H3079 H 0.62686 0.24731 0.17495 0.0
H3080 H 0.63453 0.25723 0.16442 0.0
H3081 H 0.65918 0.2434 0.1691 0.0
H3082 H 0.65152 0.2333 0.17937 0.0
H3083 H 0.65713 0.24647 0.15186 0.0
H3084 H 0.65495 0.26389 0.17856 0.0
H3085 H 0.64723 0.27101 0.19112 0.0
H3086 H 0.63165 0.28647 0.17288 0.0
H3087 H 0.63919 0.27934 0.16019 0.0
C3088 C 0.6809 0.27898 0.13484 0.0
C3089 C 0.67661 0.28565 0.1299 0.0
C3090 C 0.67605 0.27348 0.14067 0.0
C3091 C 0.66679 0.27453 0.14168 0.0
C3092 C 0.66253 0.28133 0.13692 0.0
C3093 C 0.66737 0.28679 0.13105 0.0
C3094 C 0.66157 0.26848 0.14763 0.0
C3095 C 0.65667 0.27216 0.15466 0.0
C3096 C 0.66169 0.25909 0.1466 0.0
C3097 C 0.66631 0.2548 0.13903 0.0
C3098 C 0.66427 0.25719 0.13022 0.0
C3099 C 0.6687 0.25317 0.12312 0.0
C3100 C 0.67514 0.24671 0.12474 0.0
C3101 C 0.67716 0.24423 0.13347 0.0
C3102 C 0.67275 0.24824 0.1406 0.0
C3103 C 0.6339 0.24633 0.17368 0.0
C3104 C 0.63858 0.23953 0.17808 0.0
C3105 C 0.63829 0.25207 0.16771 0.0
C3106 C 0.64747 0.25115 0.16603 0.0
C3107 C 0.65211 0.24428 0.1703 0.0
C3108 C 0.64773 0.23855 0.17625 0.0
C3109 C 0.65228 0.25731 0.15983 0.0
C3110 C 0.6571 0.25365 0.15273 0.0
C3111 C 0.6521 0.26671 0.16082 0.0
C3112 C 0.64757 0.27101 0.16843 0.0
C3113 C 0.64982 0.26875 0.17722 0.0
C3114 C 0.64549 0.2728 0.18437 0.0
C3115 C 0.63894 0.27917 0.1828 0.0
C3116 C 0.63672 0.28152 0.17408 0.0
C3117 C 0.64102 0.27748 0.16691 0.0
H3118 H 0.63559 0.2823 0.18834 0.0
H3119 H 0.67856 0.24361 0.11923 0.0
H3120 H 0.90612 0.75527 0.67567 0.0
H3121 H 0.89576 0.76453 0.66732 0.0
H3122 H 0.8781 0.74189 0.66384 0.0
H3123 H 0.88861 0.73248 0.67198 0.0
H3124 H 0.87974 0.75115 0.64854 0.0
H3125 H 0.87323 0.75816 0.67881 0.0
H3126 H 0.87653 0.76265 0.69425 0.0
H3127 H 0.88692 0.7878 0.68502 0.0
H3128 H 0.8838 0.78341 0.66951 0.0
H3129 H 0.84293 0.77749 0.6336 0.0
H3130 H 0.85268 0.7672 0.64155 0.0
H3131 H 0.87149 0.78864 0.64637 0.0
H3132 H 0.86179 0.79895 0.63842 0.0
H3133 H 0.86858 0.77943 0.66123 0.0
H3134 H 0.87542 0.77209 0.63084 0.0
H3135 H 0.87199 0.7675 0.61545 0.0
H3136 H 0.8607 0.74286 0.62502 0.0
H3137 H 0.86396 0.74736 0.64048 0.0
C3138 C 0.90007 0.75222 0.67307 0.0
C3139 C 0.89822 0.74311 0.67451 0.0
C3140 C 0.8941 0.75756 0.66837 0.0
C3141 C 0.88608 0.75395 0.66502 0.0
C3142 C 0.88422 0.74484 0.66638 0.0
C3143 C 0.89021 0.73949 0.67111 0.0
C3144 C 0.8797 0.75969 0.66006 0.0
C3145 C 0.87719 0.75727 0.65137 0.0
C3146 C 0.87648 0.76776 0.66366 0.0
C3147 C 0.87836 0.77042 0.67299 0.0
C3148 C 0.87629 0.76462 0.68007 0.0
C3149 C 0.87812 0.76715 0.68884 0.0
C3150 C 0.88196 0.7755 0.69062 0.0
C3151 C 0.88396 0.78134 0.68363 0.0
C3152 C 0.88216 0.77883 0.67485 0.0
C3153 C 0.8492 0.77999 0.63623 0.0
C3154 C 0.85155 0.78907 0.63537 0.0
C3155 C 0.85477 0.77409 0.6408 0.0
C3156 C 0.86286 0.77712 0.64454 0.0
C3157 C 0.86527 0.78615 0.64359 0.0
C3158 C 0.8597 0.79204 0.63905 0.0
C3159 C 0.86872 0.77097 0.64967 0.0
C3160 C 0.87111 0.77331 0.6584 0.0
C3161 C 0.87181 0.76282 0.64611 0.0
C3162 C 0.86985 0.7601 0.63682 0.0
C3163 C 0.87214 0.76572 0.62967 0.0
C3164 C 0.87024 0.76313 0.62093 0.0
C3165 C 0.86611 0.7549 0.61926 0.0
C3166 C 0.86389 0.74924 0.62633 0.0
C3167 C 0.86577 0.7518 0.63508 0.0
H3168 H 0.86464 0.75291 0.6125 0.0
H3169 H 0.88336 0.77744 0.69741 0.0
H3170 H 0.24924 0.8521 0.62449 0.0
H3171 H 0.25925 0.8626 0.63215 0.0
H3172 H 0.24475 0.85833 0.65658 0.0
H3173 H 0.23456 0.8481 0.64893 0.0
H3174 H 0.24834 0.87556 0.65444 0.0
H3175 H 0.26507 0.84847 0.6527 0.0
H3176 H 0.27202 0.83569 0.64519 0.0
H3177 H 0.28834 0.85359 0.62972 0.0
H3178 H 0.28139 0.86648 0.63706 0.0
H3179 H 0.27952 0.89306 0.68548 0.0
H3180 H 0.26991 0.88289 0.67698 0.0
H3181 H 0.28466 0.88914 0.65312 0.0
H3182 H 0.29442 0.89921 0.66162 0.0
H3183 H 0.28113 0.87128 0.65445 0.0
H3184 H 0.26463 0.89837 0.65658 0.0
H3185 H 0.25774 0.91108 0.66425 0.0
H3186 H 0.24098 0.89308 0.67912 0.0
H3187 H 0.24787 0.88025 0.67163 0.0
C3188 C 0.24813 0.85346 0.63148 0.0
C3189 C 0.24112 0.84919 0.6361 0.0
C3190 C 0.25392 0.8594 0.63587 0.0
C3191 C 0.25285 0.86118 0.64499 0.0
C3192 C 0.24576 0.85705 0.64957 0.0
C3193 C 0.23998 0.85113 0.64519 0.0
C3194 C 0.25907 0.86734 0.64981 0.0
C3195 C 0.2555 0.87455 0.65452 0.0
C3196 C 0.26844 0.86618 0.64976 0.0
C3197 C 0.27264 0.85844 0.64535 0.0
C3198 C 0.27009 0.84968 0.64764 0.0
C3199 C 0.27403 0.84242 0.64343 0.0
C3200 C 0.2806 0.84383 0.63696 0.0
C3201 C 0.28324 0.85251 0.63472 0.0
C3202 C 0.2793 0.8598 0.6389 0.0
C3203 C 0.28079 0.89221 0.67845 0.0
C3204 C 0.28773 0.89699 0.67424 0.0
C3205 C 0.27524 0.88644 0.67358 0.0
C3206 C 0.27649 0.88532 0.66438 0.0
C3207 C 0.28354 0.88992 0.66019 0.0
C3208 C 0.28907 0.89572 0.66505 0.0
C3209 C 0.27037 0.87943 0.65914 0.0
C3210 C 0.27397 0.87229 0.65434 0.0
C3211 C 0.26101 0.88064 0.65911 0.0
C3212 C 0.25683 0.88834 0.6636 0.0
C3213 C 0.25953 0.89712 0.66154 0.0
C3214 C 0.25561 0.90435 0.66584 0.0
C3215 C 0.24894 0.90289 0.67218 0.0
C3216 C 0.24615 0.8942 0.67422 0.0
C3217 C 0.25006 0.88695 0.66994 0.0
H3218 H 0.24592 0.90849 0.67551 0.0
H3219 H 0.28365 0.83819 0.63371 0.0
H3220 H 0.18835 0.24827 0.63631 0.0
H3221 H 0.17946 0.25745 0.64635 0.0
H3222 H 0.15529 0.24617 0.63525 0.0
H3223 H 0.16412 0.23702 0.62521 0.0
H3224 H 0.15395 0.26365 0.63635 0.0
H3225 H 0.1632 0.24035 0.65624 0.0
H3226 H 0.17398 0.23076 0.66397 0.0
H3227 H 0.18633 0.25381 0.67587 0.0
H3228 H 0.17568 0.26357 0.66811 0.0
H3229 H 0.12216 0.27737 0.66794 0.0
H3230 H 0.13222 0.26844 0.65894 0.0
H3231 H 0.15487 0.2824 0.67016 0.0
H3232 H 0.14482 0.29152 0.67912 0.0
H3233 H 0.15766 0.26429 0.66914 0.0
H3234 H 0.14814 0.28751 0.64962 0.0
H3235 H 0.13728 0.2971 0.64198 0.0
H3236 H 0.12547 0.27413 0.62941 0.0
H3237 H 0.13618 0.26438 0.63708 0.0
C3238 C 0.18114 0.24766 0.63609 0.0
C3239 C 0.17696 0.24192 0.62992 0.0
C3240 C 0.17606 0.25292 0.64184 0.0
C3241 C 0.16668 0.25248 0.64162 0.0
C3242 C 0.16251 0.24668 0.63553 0.0
C3243 C 0.16757 0.24146 0.62977 0.0
C3244 C 0.16117 0.25825 0.64749 0.0
C3245 C 0.1547 0.26369 0.64353 0.0
C3246 C 0.1623 0.25854 0.65685 0.0
C3247 C 0.1687 0.25269 0.66152 0.0
C3248 C 0.16826 0.24338 0.66044 0.0
C3249 C 0.17434 0.23791 0.66485 0.0
C3250 C 0.18086 0.24167 0.67039 0.0
C3251 C 0.18129 0.25091 0.67156 0.0
C3252 C 0.17523 0.25641 0.66717 0.0
C3253 C 0.12927 0.27864 0.66845 0.0
C3254 C 0.13265 0.28527 0.67421 0.0
C3255 C 0.13503 0.27348 0.66331 0.0
C3256 C 0.14431 0.27481 0.66378 0.0
C3257 C 0.14774 0.28125 0.66968 0.0
C3258 C 0.14197 0.28645 0.67482 0.0
C3259 C 0.15037 0.26954 0.658 0.0
C3260 C 0.15694 0.26424 0.66196 0.0
C3261 C 0.14934 0.26936 0.64864 0.0
C3262 C 0.14291 0.27521 0.64399 0.0
C3263 C 0.14318 0.2845 0.64528 0.0
C3264 C 0.13706 0.28996 0.64093 0.0
C3265 C 0.13068 0.28622 0.63523 0.0
C3266 C 0.13041 0.27701 0.63384 0.0
C3267 C 0.13651 0.27151 0.63818 0.0
H3268 H 0.12595 0.29047 0.63187 0.0
H3269 H 0.18555 0.23743 0.67379 0.0
H3270 H 0.78799 0.16313 0.62321 0.0
H3271 H 0.77865 0.1547 0.63363 0.0
H3272 H 0.77588 0.17816 0.64992 0.0
H3273 H 0.78519 0.18667 0.63949 0.0
H3274 H 0.7787 0.16362 0.66006 0.0
H3275 H 0.75911 0.1713 0.63599 0.0
H3276 H 0.75431 0.17213 0.62031 0.0
H3277 H 0.75435 0.14355 0.61857 0.0
H3278 H 0.75927 0.14255 0.6342 0.0
H3279 H 0.74114 0.15041 0.68567 0.0
H3280 H 0.75154 0.15785 0.67555 0.0
H3281 H 0.75315 0.13387 0.65984 0.0
H3282 H 0.74246 0.12645 0.6698 0.0
H3283 H 0.75129 0.14815 0.64935 0.0
H3284 H 0.77034 0.14044 0.67365 0.0
H3285 H 0.77511 0.13965 0.68933 0.0
H3286 H 0.77609 0.16824 0.69071 0.0
H3287 H 0.7712 0.16921 0.67507 0.0
C3288 C 0.78535 0.16653 0.62898 0.0
C3289 C 0.7873 0.17562 0.63045 0.0
C3290 C 0.78002 0.16168 0.63495 0.0
C3291 C 0.77645 0.16581 0.64251 0.0
C3292 C 0.77855 0.17482 0.64413 0.0
C3293 C 0.7839 0.17967 0.63816 0.0
C3294 C 0.77043 0.16078 0.64867 0.0
C3295 C 0.77265 0.16033 0.65774 0.0
C3296 C 0.76265 0.15627 0.64562 0.0
C3297 C 0.75964 0.15685 0.63624 0.0
C3298 C 0.75816 0.16519 0.63224 0.0
C3299 C 0.75541 0.16569 0.62337 0.0
C3300 C 0.75405 0.1579 0.61844 0.0
C3301 C 0.75542 0.14958 0.62239 0.0
C3302 C 0.75818 0.14904 0.63125 0.0
C3303 C 0.74365 0.14671 0.68003 0.0
C3304 C 0.74091 0.13782 0.67855 0.0
C3305 C 0.74969 0.15096 0.6743 0.0
C3306 C 0.75323 0.1464 0.66697 0.0
C3307 C 0.75054 0.13752 0.66546 0.0
C3308 C 0.74448 0.13326 0.67121 0.0
C3309 C 0.75953 0.15101 0.66076 0.0
C3310 C 0.75736 0.1514 0.65168 0.0
C3311 C 0.76736 0.15546 0.6638 0.0
C3312 C 0.77033 0.1549 0.6732 0.0
C3313 C 0.77151 0.14656 0.67732 0.0
C3314 C 0.77424 0.14608 0.6862 0.0
C3315 C 0.77588 0.15389 0.69102 0.0
C3316 C 0.77481 0.1622 0.68697 0.0
C3317 C 0.77206 0.16272 0.67809 0.0
H3318 H 0.77799 0.1535 0.6979 0.0
H3319 H 0.75192 0.1583 0.61157 0.0
H3320 H 0.86164 0.23305 0.39107 0.0
H3321 H 0.87138 0.24326 0.38272 0.0
H3322 H 0.85002 0.26223 0.381 0.0
H3323 H 0.84028 0.2521 0.38935 0.0
H3324 H 0.8574 0.25981 0.36513 0.0
H3325 H 0.86831 0.26555 0.39471 0.0
H3326 H 0.87456 0.26161 0.40936 0.0
H3327 H 0.89778 0.25091 0.39672 0.0
H3328 H 0.89161 0.25467 0.38198 0.0
H3329 H 0.87999 0.29772 0.34903 0.0
H3330 H 0.87206 0.28733 0.3588 0.0
H3331 H 0.89446 0.26953 0.35811 0.0
H3332 H 0.90246 0.27993 0.34823 0.0
H3333 H 0.88724 0.27065 0.37491 0.0
H3334 H 0.87655 0.26512 0.34543 0.0
H3335 H 0.8704 0.26906 0.33074 0.0
H3336 H 0.84678 0.27914 0.34317 0.0
H3337 H 0.85285 0.27538 0.35795 0.0
C3338 C 0.85906 0.23946 0.38904 0.0
C3339 C 0.85015 0.24172 0.39085 0.0
C3340 C 0.86464 0.24529 0.38426 0.0
C3341 C 0.86146 0.25354 0.38123 0.0
C3342 C 0.85263 0.25589 0.3832 0.0
C3343 C 0.84705 0.25007 0.38796 0.0
C3344 C 0.86714 0.25959 0.37568 0.0
C3345 C 0.86387 0.26226 0.36734 0.0
C3346 C 0.87573 0.26258 0.37839 0.0
C3347 C 0.87945 0.26031 0.38724 0.0
C3348 C 0.87471 0.26229 0.39505 0.0
C3349 C 0.87825 0.2601 0.40337 0.0
C3350 C 0.88655 0.25599 0.40397 0.0
C3351 C 0.89135 0.25408 0.39625 0.0
C3352 C 0.88783 0.25624 0.38791 0.0
C3353 C 0.88324 0.29158 0.35091 0.0
C3354 C 0.89182 0.28961 0.34772 0.0
C3355 C 0.8787 0.28565 0.35653 0.0
C3356 C 0.88259 0.27756 0.35908 0.0
C3357 C 0.8913 0.27572 0.35621 0.0
C3358 C 0.89587 0.28167 0.35058 0.0
C3359 C 0.8774 0.27097 0.36447 0.0
C3360 C 0.88077 0.26817 0.37272 0.0
C3361 C 0.86889 0.26783 0.36169 0.0
C3362 C 0.86519 0.27004 0.3528 0.0
C3363 C 0.87007 0.26824 0.34504 0.0
C3364 C 0.8666 0.27043 0.33669 0.0
C3365 C 0.85821 0.27436 0.33602 0.0
C3366 C 0.85328 0.2761 0.3437 0.0
C3367 C 0.85673 0.27393 0.35206 0.0
H3368 H 0.85553 0.27605 0.32956 0.0
H3369 H 0.88928 0.2543 0.41042 0.0
H3370 H 0.77674 0.85498 0.40505 0.0
H3371 H 0.76746 0.86335 0.39472 0.0
H3372 H 0.78708 0.8599 0.37407 0.0
H3373 H 0.79658 0.85175 0.38449 0.0
H3374 H 0.78103 0.87672 0.3741 0.0
H3375 H 0.76771 0.84759 0.37419 0.0
H3376 H 0.7612 0.83396 0.38085 0.0
H3377 H 0.74023 0.84936 0.39248 0.0
H3378 H 0.74669 0.8631 0.386 0.0
H3379 H 0.75202 0.8904 0.33886 0.0
H3380 H 0.7622 0.88228 0.3486 0.0
H3381 H 0.74342 0.88449 0.3702 0.0
H3382 H 0.73322 0.89259 0.3605 0.0
H3383 H 0.74938 0.86796 0.36914 0.0
H3384 H 0.76299 0.89718 0.36926 0.0
H3385 H 0.76957 0.91074 0.36253 0.0
H3386 H 0.79002 0.89508 0.35035 0.0
H3387 H 0.78349 0.8814 0.3569 0.0
C3388 C 0.77914 0.85606 0.39834 0.0
C3389 C 0.78744 0.85267 0.39563 0.0
C3390 C 0.77377 0.86078 0.3924 0.0
C3391 C 0.7765 0.86218 0.38357 0.0
C3392 C 0.78481 0.85888 0.38084 0.0
C3393 C 0.7902 0.85415 0.38679 0.0
C3394 C 0.77069 0.86712 0.37723 0.0
C3395 C 0.77414 0.87472 0.37292 0.0
C3396 C 0.76165 0.86464 0.37579 0.0
C3397 C 0.75773 0.85638 0.37967 0.0
C3398 C 0.76175 0.84808 0.37823 0.0
C3399 C 0.75806 0.84033 0.38196 0.0
C3400 C 0.75031 0.8408 0.3871 0.0
C3401 C 0.74623 0.84901 0.3885 0.0
C3402 C 0.7499 0.85678 0.38479 0.0
C3403 C 0.75011 0.88928 0.34572 0.0
C3404 C 0.74178 0.89216 0.34889 0.0
C3405 C 0.75594 0.88461 0.35129 0.0
C3406 C 0.75363 0.88281 0.36018 0.0
C3407 C 0.74536 0.88576 0.36337 0.0
C3408 C 0.73952 0.89038 0.3578 0.0
C3409 C 0.75967 0.87763 0.36609 0.0
C3410 C 0.75627 0.86996 0.37032 0.0
C3411 C 0.76875 0.88004 0.36743 0.0
C3412 C 0.77269 0.88826 0.3635 0.0
C3413 C 0.76885 0.89662 0.36508 0.0
C3414 C 0.77257 0.90433 0.36131 0.0
C3415 C 0.78019 0.90377 0.356 0.0
C3416 C 0.78411 0.8955 0.35446 0.0
C3417 C 0.7804 0.88777 0.3582 0.0
H3418 H 0.78307 0.90975 0.35308 0.0
H3419 H 0.74747 0.83479 0.38998 0.0
H3420 H 0.152 0.73504 0.34461 0.0
H3421 H 0.15964 0.745 0.355 0.0
H3422 H 0.13446 0.75667 0.36216 0.0
H3423 H 0.12678 0.74689 0.3515 0.0
H3424 H 0.14705 0.76939 0.36001 0.0
H3425 H 0.14486 0.7419 0.37603 0.0
H3426 H 0.14646 0.72573 0.37847 0.0
H3427 H 0.17487 0.72824 0.37537 0.0
H3428 H 0.17342 0.74441 0.37278 0.0
H3429 H 0.16383 0.79143 0.39885 0.0
H3430 H 0.15549 0.78188 0.38851 0.0
H3431 H 0.18005 0.76989 0.37994 0.0
H3432 H 0.18842 0.77928 0.3904 0.0
H3433 H 0.1673 0.75738 0.38314 0.0
H3434 H 0.16937 0.78489 0.36686 0.0
H3435 H 0.16769 0.80105 0.36445 0.0
H3436 H 0.13936 0.7985 0.3682 0.0
H3437 H 0.1409 0.78233 0.37076 0.0
C3438 C 0.14807 0.73977 0.34832 0.0
C3439 C 0.13875 0.74015 0.34718 0.0
C3440 C 0.15245 0.74541 0.35435 0.0
C3441 C 0.14763 0.75153 0.35947 0.0
C3442 C 0.13833 0.75198 0.35832 0.0
C3443 C 0.13394 0.74633 0.35227 0.0
C3444 C 0.15233 0.75748 0.36594 0.0
C3445 C 0.15137 0.76675 0.36516 0.0
C3446 C 0.15812 0.75407 0.37256 0.0
C3447 C 0.15902 0.74435 0.37413 0.0
C3448 C 0.15144 0.73899 0.3758 0.0
C3449 C 0.15232 0.72983 0.37722 0.0
C3450 C 0.16076 0.72596 0.37706 0.0
C3451 C 0.16834 0.73125 0.37549 0.0
C3452 C 0.16749 0.74041 0.37405 0.0
C3453 C 0.16746 0.78674 0.39478 0.0
C3454 C 0.17681 0.78613 0.39546 0.0
C3455 C 0.16268 0.78133 0.38882 0.0
C3456 C 0.16714 0.7752 0.38339 0.0
C3457 C 0.17646 0.77458 0.38405 0.0
C3458 C 0.18125 0.78001 0.38998 0.0
C3459 C 0.16207 0.76929 0.37716 0.0
C3460 C 0.16296 0.76001 0.378 0.0
C3461 C 0.1562 0.7727 0.37063 0.0
C3462 C 0.15526 0.78242 0.3691 0.0
C3463 C 0.16279 0.78779 0.36725 0.0
C3464 C 0.16186 0.79695 0.36584 0.0
C3465 C 0.15343 0.8008 0.3662 0.0
C3466 C 0.1459 0.7955 0.36794 0.0
C3467 C 0.14679 0.78634 0.36937 0.0
H3468 H 0.15272 0.8079 0.3651 0.0
H3469 H 0.16143 0.71886 0.37816 0.0
H3470 H 0.27468 0.12441 0.35002 0.0
H3471 H 0.26547 0.13476 0.35841 0.0
H3472 H 0.28821 0.1523 0.3619 0.0
H3473 H 0.29756 0.14181 0.35372 0.0
H3474 H 0.27899 0.15057 0.37722 0.0
H3475 H 0.27187 0.15733 0.347 0.0
H3476 H 0.26731 0.15415 0.33155 0.0
H3477 H 0.24216 0.14374 0.34078 0.0
H3478 H 0.24661 0.14674 0.3563 0.0
H3479 H 0.25269 0.18724 0.39246 0.0
H3480 H 0.26298 0.17755 0.38444 0.0
H3481 H 0.24149 0.15881 0.37951 0.0
H3482 H 0.2312 0.16843 0.38753 0.0
H3483 H 0.25065 0.16187 0.36466 0.0
H3484 H 0.25809 0.15472 0.39498 0.0
H3485 H 0.26274 0.15798 0.41039 0.0
H3486 H 0.28739 0.16933 0.40089 0.0
H3487 H 0.28283 0.16624 0.38541 0.0
C3488 C 0.27776 0.13043 0.35262 0.0
C3489 C 0.28688 0.13225 0.35118 0.0
C3490 C 0.27245 0.1364 0.35735 0.0
C3491 C 0.27611 0.14438 0.36071 0.0
C3492 C 0.28522 0.14621 0.35935 0.0
C3493 C 0.29055 0.14024 0.3546 0.0
C3494 C 0.27041 0.15073 0.36572 0.0
C3495 C 0.27287 0.15315 0.37442 0.0
C3496 C 0.26232 0.15399 0.36215 0.0
C3497 C 0.25961 0.15219 0.35282 0.0
C3498 C 0.26539 0.1543 0.34574 0.0
C3499 C 0.26282 0.15254 0.33697 0.0
C3500 C 0.25446 0.14872 0.33518 0.0
C3501 C 0.24864 0.14668 0.34217 0.0
C3502 C 0.25118 0.14842 0.35096 0.0
C3503 C 0.25018 0.18099 0.38979 0.0
C3504 C 0.2411 0.17864 0.39063 0.0
C3505 C 0.25608 0.17546 0.38518 0.0
C3506 C 0.25304 0.16741 0.38139 0.0
C3507 C 0.244 0.165 0.38233 0.0
C3508 C 0.23811 0.17053 0.3869 0.0
C3509 C 0.25916 0.16161 0.37621 0.0
C3510 C 0.25679 0.15931 0.36746 0.0
C3511 C 0.26733 0.15848 0.37973 0.0
C3512 C 0.27008 0.16034 0.38903 0.0
C3513 C 0.26447 0.15798 0.39617 0.0
C3514 C 0.2671 0.15978 0.40492 0.0
C3515 C 0.27534 0.16388 0.40662 0.0
C3516 C 0.281 0.16617 0.39957 0.0
C3517 C 0.2784 0.16439 0.3908 0.0
H3518 H 0.27736 0.16527 0.41339 0.0
H3519 H 0.25248 0.14737 0.32839 0.0
H3520 H 0.65265 0.84568 0.79242 0.0
H3521 H 0.66033 0.85592 0.78232 0.0
H3522 H 0.6353 0.86205 0.76966 0.0
H3523 H 0.62757 0.85155 0.7796 0.0
H3524 H 0.64819 0.85972 0.75745 0.0
H3525 H 0.64516 0.87671 0.78414 0.0
H3526 H 0.64639 0.8798 0.80021 0.0
H3527 H 0.67488 0.87737 0.79876 0.0
H3528 H 0.67381 0.87415 0.7827 0.0
H3529 H 0.66462 0.89833 0.73455 0.0
H3530 H 0.65633 0.888 0.74416 0.0
H3531 H 0.68082 0.88072 0.75725 0.0
H3532 H 0.68914 0.89119 0.7478 0.0
H3533 H 0.66778 0.88389 0.76917 0.0
H3534 H 0.67069 0.86669 0.74243 0.0
H3535 H 0.66937 0.86365 0.72636 0.0
H3536 H 0.64094 0.86663 0.72788 0.0
H3537 H 0.64211 0.86981 0.74395 0.0
C3538 C 0.64877 0.84913 0.78744 0.0
C3539 C 0.63947 0.84775 0.78683 0.0
C3540 C 0.65317 0.85507 0.78172 0.0
C3541 C 0.64839 0.85985 0.77528 0.0
C3542 C 0.63913 0.85846 0.77459 0.0
C3543 C 0.6347 0.85251 0.78033 0.0
C3544 C 0.65312 0.86624 0.76925 0.0
C3545 C 0.65236 0.86509 0.76001 0.0
C3546 C 0.65872 0.87315 0.77258 0.0
C3547 C 0.65939 0.87511 0.78223 0.0
C3548 C 0.65168 0.87677 0.78726 0.0
C3549 C 0.65235 0.87855 0.79637 0.0
C3550 C 0.6607 0.87876 0.8005 0.0
C3551 C 0.66841 0.8772 0.79554 0.0
C3552 C 0.66778 0.8754 0.78644 0.0
C3553 C 0.66825 0.89455 0.73949 0.0
C3554 C 0.67756 0.8956 0.7404 0.0
C3555 C 0.6635 0.88858 0.74493 0.0
C3556 C 0.66795 0.88351 0.75139 0.0
C3557 C 0.67724 0.88453 0.7523 0.0
C3558 C 0.682 0.89047 0.74684 0.0
C3559 C 0.6629 0.87733 0.75736 0.0
C3560 C 0.66359 0.87853 0.7666 0.0
C3561 C 0.65722 0.87049 0.75403 0.0
C3562 C 0.6565 0.86858 0.74437 0.0
C3563 C 0.66417 0.86677 0.73932 0.0
C3564 C 0.66344 0.86501 0.73022 0.0
C3565 C 0.65508 0.86497 0.7261 0.0
C3566 C 0.64742 0.86667 0.73108 0.0
C3567 C 0.6481 0.86845 0.74019 0.0
H3568 H 0.65453 0.8636 0.71905 0.0
H3569 H 0.66121 0.88014 0.80755 0.0
H3570 H 0.12137 0.66682 0.74683 0.0
H3571 H 0.13155 0.65816 0.756 0.0
H3572 H 0.15354 0.67499 0.74774 0.0
H3573 H 0.14335 0.68384 0.73863 0.0
H3574 H 0.15801 0.65736 0.74751 0.0
H3575 H 0.14486 0.67749 0.76813 0.0
H3576 H 0.13261 0.68528 0.77568 0.0
H3577 H 0.12221 0.66027 0.78527 0.0
H3578 H 0.13433 0.65231 0.77766 0.0
H3579 H 0.18753 0.63967 0.78037 0.0
H3580 H 0.17857 0.64999 0.77153 0.0
H3581 H 0.15468 0.63539 0.77874 0.0
H3582 H 0.16354 0.62524 0.78778 0.0
H3583 H 0.15193 0.65295 0.77967 0.0
H3584 H 0.16464 0.6328 0.7583 0.0
H3585 H 0.17686 0.62503 0.75067 0.0
H3586 H 0.18815 0.65017 0.74251 0.0
H3587 H 0.17605 0.6581 0.7502 0.0
C3588 C 0.12835 0.66877 0.74702 0.0
C3589 C 0.13149 0.67611 0.74203 0.0
C3590 C 0.13418 0.66378 0.75226 0.0
C3591 C 0.1433 0.66598 0.75266 0.0
C3592 C 0.14652 0.67317 0.74755 0.0
C3593 C 0.14068 0.6782 0.74231 0.0
C3594 C 0.14943 0.66076 0.75844 0.0
C3595 C 0.15677 0.65651 0.75457 0.0
C3596 C 0.14774 0.65953 0.76764 0.0
C3597 C 0.14046 0.6643 0.77226 0.0
C3598 C 0.13992 0.67364 0.77179 0.0
C3599 C 0.13301 0.67809 0.77609 0.0
C3600 C 0.12662 0.67327 0.78093 0.0
C3601 C 0.12715 0.66399 0.7815 0.0
C3602 C 0.13405 0.65951 0.77721 0.0
C3603 C 0.18036 0.63871 0.78015 0.0
C3604 C 0.17628 0.63158 0.78476 0.0
C3605 C 0.17525 0.64457 0.77502 0.0
C3606 C 0.16594 0.64341 0.77436 0.0
C3607 C 0.16184 0.63642 0.7791 0.0
C3608 C 0.16694 0.63056 0.78421 0.0
C3609 C 0.16044 0.64942 0.76871 0.0
C3610 C 0.15322 0.65383 0.77262 0.0
C3611 C 0.16224 0.6508 0.75956 0.0
C3612 C 0.1695 0.64605 0.75491 0.0
C3613 C 0.16977 0.63667 0.75494 0.0
C3614 C 0.17666 0.63224 0.75059 0.0
C3615 C 0.18329 0.6371 0.74613 0.0
C3616 C 0.18302 0.64641 0.74598 0.0
C3617 C 0.17614 0.65088 0.75033 0.0
H3618 H 0.18862 0.63366 0.74276 0.0
H3619 H 0.12127 0.67673 0.78426 0.0
H3620 H 0.38671 0.19154 0.7778 0.0
H3621 H 0.37848 0.18163 0.76778 0.0
H3622 H 0.38743 0.15882 0.78265 0.0
H3623 H 0.39567 0.16873 0.79281 0.0
H3624 H 0.38764 0.1557 0.76455 0.0
H3625 H 0.36688 0.16636 0.78607 0.0
H3626 H 0.35918 0.17769 0.79503 0.0
H3627 H 0.34909 0.1898 0.77121 0.0
H3628 H 0.35684 0.17862 0.7621 0.0
H3629 H 0.35403 0.12677 0.7453 0.0
H3630 H 0.36385 0.13498 0.75556 0.0
H3631 H 0.35579 0.15979 0.74364 0.0
H3632 H 0.34604 0.15167 0.73339 0.0
H3633 H 0.35517 0.16093 0.76123 0.0
H3634 H 0.37646 0.15054 0.73968 0.0
H3635 H 0.38427 0.13924 0.73078 0.0
H3636 H 0.3933 0.1265 0.7547 0.0
H3637 H 0.38544 0.13766 0.76374 0.0
C3638 C 0.38693 0.18442 0.77897 0.0
C3639 C 0.39177 0.18095 0.7862 0.0
C3640 C 0.38223 0.17875 0.77321 0.0
C3641 C 0.38221 0.16948 0.77454 0.0
C3642 C 0.38733 0.16595 0.78151 0.0
C3643 C 0.39206 0.17163 0.78729 0.0
C3644 C 0.37653 0.16358 0.76885 0.0
C3645 C 0.38052 0.15675 0.76391 0.0
C3646 C 0.36724 0.165 0.76794 0.0
C3647 C 0.3625 0.17169 0.7734 0.0
C3648 C 0.36307 0.17148 0.78274 0.0
C3649 C 0.35869 0.17786 0.78784 0.0
C3650 C 0.35367 0.18447 0.78369 0.0
C3651 C 0.35299 0.18469 0.77442 0.0
C3652 C 0.35737 0.17832 0.76928 0.0
C3653 C 0.35443 0.13397 0.7448 0.0
C3654 C 0.34918 0.13855 0.73855 0.0
C3655 C 0.36004 0.13866 0.75068 0.0
C3656 C 0.36059 0.14802 0.75037 0.0
C3657 C 0.35545 0.15258 0.74406 0.0
C3658 C 0.34984 0.14792 0.73822 0.0
C3659 C 0.36629 0.15316 0.75674 0.0
C3660 C 0.36228 0.15984 0.76187 0.0
C3661 C 0.37554 0.15158 0.75782 0.0
C3662 C 0.38028 0.14487 0.75239 0.0
C3663 C 0.38005 0.14528 0.74304 0.0
C3664 C 0.3845 0.13891 0.73797 0.0
C3665 C 0.38926 0.13214 0.74217 0.0
C3666 C 0.3896 0.13174 0.75145 0.0
C3667 C 0.38515 0.13809 0.75656 0.0
H3668 H 0.3927 0.12722 0.73823 0.0
H3669 H 0.35028 0.18941 0.78766 0.0
H3670 H 0.8431 0.39327 0.77624 0.0
H3671 H 0.8529 0.38549 0.76588 0.0
H3672 H 0.87239 0.38224 0.78672 0.0
H3673 H 0.86276 0.39024 0.79704 0.0
H3674 H 0.88038 0.3868 0.77144 0.0
H3675 H 0.85828 0.3651 0.78053 0.0
H3676 H 0.84301 0.35921 0.78274 0.0
H3677 H 0.83804 0.36102 0.75466 0.0
H3678 H 0.85326 0.36705 0.7523 0.0
H3679 H 0.90665 0.35225 0.75378 0.0
H3680 H 0.89647 0.36097 0.76288 0.0
H3681 H 0.87843 0.36322 0.74065 0.0
H3682 H 0.88863 0.35453 0.73144 0.0
H3683 H 0.86942 0.35966 0.75583 0.0
H3684 H 0.89175 0.38073 0.74663 0.0
H3685 H 0.90705 0.38654 0.74441 0.0
H3686 H 0.91159 0.38595 0.77261 0.0
H3687 H 0.89635 0.38001 0.775 0.0
C3688 C 0.84952 0.39101 0.7786 0.0
C3689 C 0.85211 0.39235 0.78751 0.0
C3690 C 0.85509 0.38647 0.77268 0.0
C3691 C 0.86334 0.38315 0.77554 0.0
C3692 C 0.86604 0.38469 0.78435 0.0
C3693 C 0.86049 0.38921 0.79027 0.0
C3694 C 0.86914 0.37796 0.76941 0.0
C3695 C 0.87801 0.38081 0.7681 0.0
C3696 C 0.866 0.37026 0.76486 0.0
C3697 C 0.85687 0.36662 0.76626 0.0
C3698 C 0.85391 0.36431 0.77484 0.0
C3699 C 0.84527 0.36094 0.77612 0.0
C3700 C 0.83955 0.35977 0.76885 0.0
C3701 C 0.84247 0.36195 0.76029 0.0
C3702 C 0.85111 0.36534 0.75898 0.0
C3703 C 0.90056 0.35465 0.75078 0.0
C3704 C 0.89852 0.35274 0.74183 0.0
C3705 C 0.89472 0.35963 0.75601 0.0
C3706 C 0.88673 0.36288 0.75242 0.0
C3707 C 0.88456 0.36081 0.74356 0.0
C3708 C 0.8904 0.35581 0.73831 0.0
C3709 C 0.88068 0.36845 0.75794 0.0
C3710 C 0.87178 0.36567 0.75913 0.0
C3711 C 0.88378 0.37622 0.76238 0.0
C3712 C 0.89293 0.37985 0.76098 0.0
C3713 C 0.89603 0.38178 0.75236 0.0
C3714 C 0.90469 0.3851 0.75107 0.0
C3715 C 0.91029 0.3866 0.75837 0.0
C3716 C 0.90724 0.38478 0.76697 0.0
C3717 C 0.89859 0.38144 0.76829 0.0
H3718 H 0.91699 0.38917 0.75736 0.0
H3719 H 0.83286 0.35715 0.76985 0.0
H3720 H 0.68401 0.14351 0.28773 0.0
H3721 H 0.67484 0.15346 0.27871 0.0
H3722 H 0.66011 0.13081 0.26853 0.0
H3723 H 0.66912 0.12084 0.2776 0.0
H3724 H 0.66468 0.14217 0.25531 0.0
H3725 H 0.65124 0.14439 0.28433 0.0
H3726 H 0.65108 0.14727 0.30048 0.0
H3727 H 0.66017 0.17415 0.29596 0.0
H3728 H 0.6605 0.17139 0.27978 0.0
H3729 H 0.62658 0.16244 0.23678 0.0
H3730 H 0.63695 0.15375 0.24573 0.0
H3731 H 0.64971 0.17801 0.25482 0.0
H3732 H 0.63917 0.18678 0.24605 0.0
H3733 H 0.64704 0.16666 0.26845 0.0
H3734 H 0.6598 0.16482 0.23948 0.0
H3735 H 0.6601 0.16209 0.22332 0.0
H3736 H 0.65262 0.1347 0.22764 0.0
H3737 H 0.65215 0.1373 0.24384 0.0
C3738 C 0.67876 0.14064 0.28365 0.0
C3739 C 0.67734 0.13134 0.28341 0.0
C3740 C 0.67353 0.14635 0.27847 0.0
C3741 C 0.66674 0.1429 0.27296 0.0
C3742 C 0.66533 0.13364 0.27269 0.0
C3743 C 0.67053 0.12793 0.27787 0.0
C3744 C 0.66112 0.14889 0.26743 0.0
C3745 C 0.66075 0.14746 0.2582 0.0
C3746 C 0.65619 0.15598 0.27114 0.0
C3747 C 0.65599 0.15765 0.28086 0.0
C3748 C 0.65328 0.15089 0.28679 0.0
C3749 C 0.65314 0.1525 0.29594 0.0
C3750 C 0.65564 0.16088 0.29924 0.0
C3751 C 0.65825 0.16766 0.29339 0.0
C3752 C 0.65841 0.16608 0.28423 0.0
C3753 C 0.63156 0.16595 0.24072 0.0
C3754 C 0.63202 0.17533 0.24069 0.0
C3755 C 0.63755 0.16096 0.24578 0.0
C3756 C 0.64419 0.1652 0.2509 0.0
C3757 C 0.64467 0.17457 0.25091 0.0
C3758 C 0.63868 0.17958 0.24583 0.0
C3759 C 0.6505 0.15985 0.25634 0.0
C3760 C 0.65101 0.1614 0.26555 0.0
C3761 C 0.65559 0.15288 0.25261 0.0
C3762 C 0.65586 0.15128 0.24287 0.0
C3763 C 0.65814 0.15824 0.23698 0.0
C3764 C 0.65836 0.1567 0.22781 0.0
C3765 C 0.65636 0.14823 0.22445 0.0
C3766 C 0.65416 0.14126 0.23026 0.0
C3767 C 0.65392 0.14276 0.23943 0.0
H3768 H 0.65653 0.14706 0.21735 0.0
H3769 H 0.65552 0.16211 0.30634 0.0
H3770 H 0.8606 0.62925 0.23741 0.0
H3771 H 0.87036 0.63718 0.24793 0.0
H3772 H 0.84996 0.65681 0.25203 0.0
H3773 H 0.8402 0.64894 0.24161 0.0
H3774 H 0.86573 0.66471 0.24912 0.0
H3775 H 0.85473 0.6407 0.2677 0.0
H3776 H 0.85204 0.62497 0.27179 0.0
H3777 H 0.88026 0.62023 0.27152 0.0
H3778 H 0.88311 0.63591 0.26731 0.0
H3779 H 0.87911 0.68748 0.28772 0.0
H3780 H 0.87143 0.67806 0.27688 0.0
H3781 H 0.89441 0.66107 0.27538 0.0
H3782 H 0.90209 0.67038 0.28649 0.0
H3783 H 0.87898 0.65129 0.27618 0.0
H3784 H 0.89009 0.67546 0.25867 0.0
H3785 H 0.8929 0.69118 0.25462 0.0
H3786 H 0.86469 0.69556 0.25267 0.0
H3787 H 0.86171 0.67989 0.25684 0.0
C3788 C 0.85815 0.63519 0.24064 0.0
C3789 C 0.84962 0.63849 0.2386 0.0
C3790 C 0.86375 0.63973 0.24665 0.0
C3791 C 0.86091 0.64761 0.2508 0.0
C3792 C 0.85235 0.6508 0.24888 0.0
C3793 C 0.84677 0.64629 0.24289 0.0
C3794 C 0.86687 0.65274 0.25694 0.0
C3795 C 0.86855 0.66179 0.25508 0.0
C3796 C 0.87083 0.64887 0.26456 0.0
C3797 C 0.86913 0.63945 0.26709 0.0
C3798 C 0.86036 0.63628 0.26844 0.0
C3799 C 0.85881 0.62738 0.27079 0.0
C3800 C 0.86597 0.62159 0.27189 0.0
C3801 C 0.87471 0.62471 0.27065 0.0
C3802 C 0.8763 0.63361 0.26829 0.0
C3803 C 0.88253 0.6817 0.28516 0.0
C3804 C 0.89123 0.67969 0.28802 0.0
C3805 C 0.87815 0.67636 0.27888 0.0
C3806 C 0.88236 0.66889 0.27522 0.0
C3807 C 0.89103 0.66681 0.27808 0.0
C3808 C 0.89544 0.67218 0.28438 0.0
C3809 C 0.87763 0.66331 0.26846 0.0
C3810 C 0.87622 0.65419 0.27018 0.0
C3811 C 0.87392 0.66709 0.26068 0.0
C3812 C 0.87568 0.67652 0.25814 0.0
C3813 C 0.88448 0.67979 0.25745 0.0
C3814 C 0.88611 0.68869 0.25512 0.0
C3815 C 0.87898 0.69437 0.2534 0.0
C3816 C 0.87021 0.69115 0.254 0.0
C3817 C 0.86855 0.68226 0.25634 0.0
H3818 H 0.88025 0.70126 0.2516 0.0
H3819 H 0.86476 0.6147 0.27372 0.0
H3820 H 0.3411 0.89011 0.2764 0.0
H3821 H 0.3509 0.8823 0.26606 0.0
H3822 H 0.37283 0.8854 0.28444 0.0
H3823 H 0.36313 0.8934 0.29472 0.0
H3824 H 0.37812 0.8887 0.26753 0.0
H3825 H 0.36149 0.86568 0.28275 0.0
H3826 H 0.34786 0.85794 0.28798 0.0
H3827 H 0.33927 0.85418 0.26098 0.0
H3828 H 0.35279 0.86202 0.25558 0.0
H3829 H 0.40774 0.8562 0.25122 0.0
H3830 H 0.39743 0.86474 0.26034 0.0
H3831 H 0.37656 0.86034 0.24101 0.0
H3832 H 0.38689 0.85184 0.23177 0.0
H3833 H 0.37033 0.858 0.2577 0.0
H3834 H 0.38716 0.88047 0.24238 0.0
H3835 H 0.40073 0.88822 0.23706 0.0
H3836 H 0.40887 0.89314 0.26402 0.0
H3837 H 0.3954 0.88529 0.26952 0.0
C3838 C 0.34803 0.88923 0.2782 0.0
C3839 C 0.35131 0.89236 0.28642 0.0
C3840 C 0.35361 0.88469 0.27231 0.0
C3841 C 0.36259 0.88315 0.27451 0.0
C3842 C 0.36593 0.88646 0.28261 0.0
C3843 C 0.36035 0.89098 0.28851 0.0
C3844 C 0.36847 0.87799 0.26845 0.0
C3845 C 0.37646 0.88195 0.26546 0.0
C3846 C 0.36622 0.86926 0.26554 0.0
C3847 C 0.3581 0.86452 0.26877 0.0
C3848 C 0.35666 0.86327 0.27793 0.0
C3849 C 0.34896 0.85885 0.28093 0.0
C3850 C 0.34269 0.85559 0.27482 0.0
C3851 C 0.34412 0.85672 0.2657 0.0
C3852 C 0.3518 0.86115 0.26267 0.0
C3853 C 0.40099 0.85712 0.24884 0.0
C3854 C 0.39819 0.85338 0.24069 0.0
C3855 C 0.39508 0.862 0.25408 0.0
C3856 C 0.38624 0.86331 0.25131 0.0
C3857 C 0.38335 0.85944 0.24328 0.0
C3858 C 0.38927 0.85455 0.23802 0.0
C3859 C 0.38002 0.86868 0.25684 0.0
C3860 C 0.37197 0.86477 0.25973 0.0
C3861 C 0.38221 0.87746 0.25964 0.0
C3862 C 0.39031 0.88222 0.25636 0.0
C3863 C 0.39187 0.88314 0.24718 0.0
C3864 C 0.39954 0.88756 0.24413 0.0
C3865 C 0.40567 0.89115 0.2502 0.0
C3866 C 0.40413 0.89035 0.25933 0.0
C3867 C 0.39647 0.88592 0.26242 0.0
H3868 H 0.4116 0.89458 0.24782 0.0
H3869 H 0.33674 0.85217 0.27715 0.0
H3870 H 0.13186 0.34422 0.27605 0.0
H3871 H 0.13933 0.35439 0.26562 0.0
H3872 H 0.15423 0.36611 0.2873 0.0
H3873 H 0.14659 0.35619 0.29777 0.0
H3874 H 0.14853 0.37875 0.2763 0.0
H3875 H 0.16351 0.35061 0.27313 0.0
H3876 H 0.16439 0.33447 0.2702 0.0
H3877 H 0.1536 0.3384 0.24404 0.0
H3878 H 0.15254 0.35456 0.24686 0.0
H3879 H 0.1839 0.40045 0.25392 0.0
H3880 H 0.17504 0.39027 0.26314 0.0
H3881 H 0.16171 0.38017 0.23973 0.0
H3882 H 0.17061 0.39034 0.23043 0.0
H3883 H 0.16566 0.36678 0.25081 0.0
H3884 H 0.15141 0.395 0.25363 0.0
H3885 H 0.15059 0.41116 0.2565 0.0
H3886 H 0.15988 0.40711 0.28321 0.0
H3887 H 0.16087 0.39094 0.28047 0.0
C3888 C 0.13664 0.34904 0.27861 0.0
C3889 C 0.13866 0.34933 0.28776 0.0
C3890 C 0.14098 0.35479 0.27262 0.0
C3891 C 0.14745 0.36094 0.27564 0.0
C3892 C 0.1493 0.3614 0.28479 0.0
C3893 C 0.14497 0.35567 0.29077 0.0
C3894 C 0.1524 0.36687 0.26932 0.0
C3895 C 0.15235 0.37611 0.27078 0.0
C3896 C 0.15719 0.36348 0.26196 0.0
C3897 C 0.15786 0.35378 0.26024 0.0
C3898 C 0.16126 0.34802 0.26678 0.0
C3899 C 0.1618 0.33887 0.26514 0.0
C3900 C 0.15903 0.3354 0.25695 0.0
C3901 C 0.15573 0.34109 0.25038 0.0
C3902 C 0.15516 0.35025 0.252 0.0
C3903 C 0.17905 0.3961 0.25073 0.0
C3904 C 0.17791 0.39628 0.24143 0.0
C3905 C 0.17398 0.39027 0.25601 0.0
C3906 C 0.16758 0.38455 0.25216 0.0
C3907 C 0.16659 0.38453 0.24286 0.0
C3908 C 0.1717 0.39034 0.23755 0.0
C3909 C 0.1619 0.37865 0.25787 0.0
C3910 C 0.1618 0.36942 0.2563 0.0
C3911 C 0.15695 0.38204 0.26512 0.0
C3912 C 0.15628 0.39176 0.26682 0.0
C3913 C 0.15333 0.39756 0.2601 0.0
C3914 C 0.15283 0.40672 0.2617 0.0
C3915 C 0.1552 0.41016 0.27002 0.0
C3916 C 0.15805 0.40444 0.27677 0.0
C3917 C 0.15858 0.39527 0.2752 0.0
H3918 H 0.1548 0.41726 0.27125 0.0
H3919 H 0.15945 0.32832 0.25569 0.0
H3920 H 0.74868 0.67574 0.90179 0.0
H3921 H 0.75854 0.66531 0.89417 0.0
H3922 H 0.74611 0.67173 0.86912 0.0
H3923 H 0.73606 0.68191 0.8767 0.0
H3924 H 0.74838 0.65426 0.8704 0.0
H3925 H 0.76675 0.68034 0.87505 0.0
H3926 H 0.774 0.69226 0.88384 0.0
H3927 H 0.78793 0.67266 0.8992 0.0
H3928 H 0.78067 0.66061 0.89056 0.0
H3929 H 0.78032 0.63696 0.84056 0.0
H3930 H 0.77089 0.64713 0.84898 0.0
H3931 H 0.78363 0.63896 0.87335 0.0
H3932 H 0.79324 0.62891 0.86494 0.0
H3933 H 0.78132 0.65692 0.87292 0.0
H3934 H 0.76321 0.63086 0.86797 0.0
H3935 H 0.75602 0.61898 0.85908 0.0
H3936 H 0.74159 0.63861 0.84423 0.0
H3937 H 0.7488 0.65063 0.85296 0.0
C3938 C 0.74799 0.67488 0.89467 0.0
C3939 C 0.7416 0.67973 0.88986 0.0
C3940 C 0.7537 0.66897 0.8903 0.0
C3941 C 0.75316 0.6678 0.88103 0.0
C3942 C 0.74669 0.67253 0.87626 0.0
C3943 C 0.741 0.67842 0.88061 0.0
C3944 C 0.75929 0.66165 0.87627 0.0
C3945 C 0.75558 0.65492 0.87088 0.0
C3946 C 0.7687 0.66234 0.87704 0.0
C3947 C 0.77309 0.66957 0.88222 0.0
C3948 C 0.7713 0.67857 0.88035 0.0
C3949 C 0.77542 0.68535 0.88529 0.0
C3950 C 0.7814 0.68322 0.89209 0.0
C3951 C 0.78329 0.6743 0.89394 0.0
C3952 C 0.77918 0.66749 0.88902 0.0
C3953 C 0.7812 0.63739 0.8477 0.0
C3954 C 0.78753 0.63208 0.85207 0.0
C3955 C 0.77574 0.64316 0.85252 0.0
C3956 C 0.77646 0.64373 0.86182 0.0
C3957 C 0.78291 0.63861 0.86618 0.0
C3958 C 0.78836 0.63281 0.86137 0.0
C3959 C 0.77039 0.6496 0.86699 0.0
C3960 C 0.77412 0.65626 0.87247 0.0
C3961 C 0.76099 0.64886 0.8663 0.0
C3962 C 0.75661 0.64165 0.86106 0.0
C3963 C 0.75856 0.63265 0.86276 0.0
C3964 C 0.75447 0.62589 0.85776 0.0
C3965 C 0.74837 0.62804 0.85108 0.0
C3966 C 0.74633 0.63696 0.8494 0.0
C3967 C 0.75041 0.64374 0.85438 0.0
H3968 H 0.74521 0.6228 0.84722 0.0
H3969 H 0.78458 0.68848 0.89592 0.0
H3970 H 0.79751 0.39072 0.16865 0.0
H3971 H 0.78828 0.38022 0.16008 0.0
H3972 H 0.76461 0.39061 0.17243 0.0
H3973 H 0.77379 0.40094 0.18117 0.0
H3974 H 0.76394 0.37273 0.17179 0.0
H3975 H 0.7706 0.39654 0.15122 0.0
H3976 H 0.78043 0.40674 0.14275 0.0
H3977 H 0.79273 0.38439 0.13003 0.0
H3978 H 0.78305 0.37405 0.13853 0.0
H3979 H 0.73006 0.35694 0.14327 0.0
H3980 H 0.74055 0.36662 0.15123 0.0
H3981 H 0.76255 0.35434 0.13764 0.0
H3982 H 0.75207 0.34454 0.12966 0.0
H3983 H 0.76489 0.37237 0.1388 0.0
H3984 H 0.75784 0.34857 0.15881 0.0
H3985 H 0.748 0.33832 0.16722 0.0
H3986 H 0.73659 0.36051 0.181 0.0
H3987 H 0.74627 0.37091 0.17258 0.0
C3988 C 0.79035 0.39071 0.1696 0.0
C3989 C 0.7864 0.39672 0.17557 0.0
C3990 C 0.78507 0.38475 0.16463 0.0
C3991 C 0.77573 0.38468 0.16552 0.0
C3992 C 0.77179 0.39055 0.1716 0.0
C3993 C 0.77705 0.39651 0.17654 0.0
C3994 C 0.77001 0.37852 0.16013 0.0
C3995 C 0.76409 0.37272 0.16457 0.0
C3996 C 0.77036 0.37831 0.15071 0.0
C3997 C 0.77617 0.38452 0.14558 0.0
C3998 C 0.77545 0.3938 0.14667 0.0
C3999 C 0.78099 0.3996 0.14186 0.0
C4000 C 0.78722 0.39621 0.13588 0.0
C4001 C 0.78791 0.38701 0.13468 0.0
C4002 C 0.7824 0.38117 0.13949 0.0
C4003 C 0.73713 0.35625 0.14199 0.0
C4004 C 0.74021 0.34986 0.13589 0.0
C4005 C 0.74313 0.36181 0.14654 0.0
C4006 C 0.75236 0.36112 0.14516 0.0
C4007 C 0.75546 0.35499 0.13884 0.0
C4008 C 0.74945 0.3494 0.13426 0.0
C4009 C 0.75873 0.36668 0.15046 0.0
C4010 C 0.76478 0.37234 0.14601 0.0
C4011 C 0.75852 0.36676 0.15988 0.0
C4012 C 0.75273 0.36053 0.16501 0.0
C4013 C 0.75319 0.35127 0.16359 0.0
C4014 C 0.74764 0.34543 0.16836 0.0
C4015 C 0.74166 0.34877 0.17462 0.0
C4016 C 0.74122 0.35794 0.17614 0.0
C4017 C 0.74674 0.36381 0.17138 0.0
H4018 H 0.73737 0.34424 0.17831 0.0
H4019 H 0.7915 0.40072 0.13215 0.0
H4020 H 0.62198 0.77745 0.16814 0.0
H4021 H 0.63206 0.76838 0.15931 0.0
H4022 H 0.65472 0.78108 0.1719 0.0
H4023 H 0.64466 0.79012 0.18092 0.0
H4024 H 0.65706 0.77968 0.15397 0.0
H4025 H 0.64883 0.76021 0.17774 0.0
H4026 H 0.63858 0.75225 0.18791 0.0
H4027 H 0.62656 0.73859 0.16577 0.0
H4028 H 0.63665 0.74656 0.15544 0.0
H4029 H 0.68803 0.74843 0.13629 0.0
H4030 H 0.67924 0.75732 0.14668 0.0
H4031 H 0.65497 0.74596 0.1359 0.0
H4032 H 0.66371 0.73691 0.12566 0.0
H4033 H 0.65428 0.74668 0.15382 0.0
H4034 H 0.66207 0.76687 0.13003 0.0
H4035 H 0.67237 0.77487 0.11994 0.0
H4036 H 0.68537 0.78718 0.14232 0.0
H4037 H 0.67522 0.77915 0.15256 0.0
C4038 C 0.6291 0.77826 0.16914 0.0
C4039 C 0.63247 0.78449 0.17533 0.0
C4040 C 0.63487 0.77307 0.16405 0.0
C4041 C 0.64416 0.77396 0.165 0.0
C4042 C 0.64758 0.78027 0.17104 0.0
C4043 C 0.6418 0.78546 0.17618 0.0
C4044 C 0.65026 0.7683 0.15964 0.0
C4045 C 0.65655 0.77246 0.15405 0.0
C4046 C 0.64952 0.75888 0.15962 0.0
C4047 C 0.64345 0.75405 0.16581 0.0
C4048 C 0.64395 0.75556 0.17503 0.0
C4049 C 0.63818 0.75104 0.18083 0.0
C4050 C 0.63191 0.74493 0.17749 0.0
C4051 C 0.63142 0.74333 0.16835 0.0
C4052 C 0.63717 0.74784 0.16252 0.0
C4053 C 0.68082 0.74775 0.13619 0.0
C4054 C 0.67658 0.74198 0.13009 0.0
C4055 C 0.6758 0.7529 0.14209 0.0
C4056 C 0.66643 0.7524 0.14202 0.0
C4057 C 0.66219 0.7465 0.13607 0.0
C4058 C 0.6672 0.74138 0.13016 0.0
C4059 C 0.66099 0.75806 0.14805 0.0
C4060 C 0.65483 0.7539 0.15378 0.0
C4061 C 0.66187 0.76748 0.14821 0.0
C4062 C 0.66795 0.77233 0.14206 0.0
C4063 C 0.66717 0.77122 0.1328 0.0
C4064 C 0.67297 0.77577 0.12706 0.0
C4065 C 0.67954 0.78151 0.13049 0.0
C4066 C 0.68029 0.78272 0.13967 0.0
C4067 C 0.67452 0.77818 0.14545 0.0
H4068 H 0.68402 0.78503 0.12603 0.0
H4069 H 0.62745 0.74144 0.18199 0.0
H4070 H 0.24988 0.64287 0.18886 0.0
H4071 H 0.25973 0.65069 0.17845 0.0
H4072 H 0.24522 0.63925 0.15638 0.0
H4073 H 0.23527 0.63143 0.16677 0.0
H4074 H 0.26316 0.63915 0.15342 0.0
H4075 H 0.24148 0.66059 0.16288 0.0
H4076 H 0.23292 0.66919 0.17387 0.0
H4077 H 0.25725 0.68063 0.1841 0.0
H4078 H 0.26596 0.67199 0.17325 0.0
H4079 H 0.27873 0.66848 0.11968 0.0
H4080 H 0.26962 0.65993 0.13014 0.0
H4081 H 0.28289 0.67299 0.15211 0.0
H4082 H 0.29173 0.68192 0.14167 0.0
H4083 H 0.26574 0.67212 0.15524 0.0
H4084 H 0.2875 0.651 0.14584 0.0
H4085 H 0.29626 0.64231 0.13508 0.0
H4086 H 0.27218 0.63022 0.12501 0.0
H4087 H 0.26327 0.63892 0.13563 0.0
C4088 C 0.24875 0.64203 0.18179 0.0
C4089 C 0.2417 0.63657 0.17867 0.0
C4090 C 0.25441 0.6465 0.17584 0.0
C4091 C 0.25314 0.64568 0.16662 0.0
C4092 C 0.24632 0.64001 0.16346 0.0
C4093 C 0.24065 0.63551 0.16942 0.0
C4094 C 0.25879 0.65091 0.16029 0.0
C4095 C 0.26364 0.64637 0.15375 0.0
C4096 C 0.25961 0.66032 0.16083 0.0
C4097 C 0.25438 0.66558 0.16731 0.0
C4098 C 0.24501 0.66489 0.16752 0.0
C4099 C 0.24013 0.66978 0.17371 0.0
C4100 C 0.24454 0.67544 0.17969 0.0
C4101 C 0.25384 0.67624 0.17947 0.0
C4102 C 0.25875 0.67135 0.1733 0.0
C4103 C 0.27967 0.66963 0.12673 0.0
C4104 C 0.286 0.67593 0.12979 0.0
C4105 C 0.27452 0.66462 0.13272 0.0
C4106 C 0.27564 0.66569 0.14195 0.0
C4107 C 0.28192 0.67199 0.14503 0.0
C4108 C 0.28704 0.67705 0.13904 0.0
C4109 C 0.27014 0.66037 0.14836 0.0
C4110 C 0.26529 0.6649 0.15492 0.0
C4111 C 0.26937 0.65095 0.14785 0.0
C4112 C 0.27471 0.64568 0.14148 0.0
C4113 C 0.28407 0.64653 0.14129 0.0
C4114 C 0.28906 0.6416 0.13522 0.0
C4115 C 0.28478 0.63573 0.12935 0.0
C4116 C 0.27549 0.63477 0.12955 0.0
C4117 C 0.27047 0.6397 0.1356 0.0
H4118 H 0.28866 0.63192 0.12466 0.0
H4119 H 0.24075 0.67922 0.18449 0.0
H4120 H 0.36128 0.29711 0.13488 0.0
H4121 H 0.37146 0.28725 0.14278 0.0
H4122 H 0.35083 0.267 0.14415 0.0
H4123 H 0.3406 0.27686 0.13626 0.0
H4124 H 0.3588 0.26853 0.15976 0.0
H4125 H 0.36884 0.26531 0.12974 0.0
H4126 H 0.3741 0.27035 0.11502 0.0
H4127 H 0.39709 0.28271 0.12709 0.0
H4128 H 0.39191 0.27784 0.14191 0.0
H4129 H 0.38758 0.23371 0.17427 0.0
H4130 H 0.37715 0.24284 0.16578 0.0
H4131 H 0.39673 0.26412 0.16464 0.0
H4132 H 0.40715 0.25508 0.17319 0.0
H4133 H 0.38911 0.2616 0.14866 0.0
H4134 H 0.37877 0.26504 0.17874 0.0
H4135 H 0.37345 0.25988 0.1934 0.0
H4136 H 0.35095 0.2469 0.18107 0.0
H4137 H 0.3562 0.25188 0.1663 0.0
C4138 C 0.35894 0.29051 0.13674 0.0
C4139 C 0.35011 0.28778 0.1349 0.0
C4140 C 0.36478 0.28487 0.14128 0.0
C4141 C 0.36197 0.27632 0.144 0.0
C4142 C 0.35317 0.27356 0.14214 0.0
C4143 C 0.34731 0.27922 0.13764 0.0
C4144 C 0.36813 0.27035 0.14899 0.0
C4145 C 0.36538 0.26691 0.15725 0.0
C4146 C 0.37679 0.26835 0.14585 0.0
C4147 C 0.37994 0.27128 0.13694 0.0
C4148 C 0.37499 0.26916 0.12926 0.0
C4149 C 0.37796 0.27198 0.1209 0.0
C4150 C 0.38592 0.27687 0.12012 0.0
C4151 C 0.39093 0.27893 0.1277 0.0
C4152 C 0.38798 0.27614 0.13609 0.0
C4153 C 0.38964 0.24037 0.17231 0.0
C4154 C 0.39823 0.24364 0.17444 0.0
C4155 C 0.38367 0.24558 0.16742 0.0
C4156 C 0.38612 0.25421 0.16461 0.0
C4157 C 0.39469 0.25748 0.1667 0.0
C4158 C 0.40066 0.25227 0.17157 0.0
C4159 C 0.3798 0.25983 0.15944 0.0
C4160 C 0.38252 0.26321 0.15114 0.0
C4161 C 0.3711 0.26174 0.16254 0.0
C4162 C 0.36793 0.25876 0.17141 0.0
C4163 C 0.37272 0.26102 0.17914 0.0
C4164 C 0.36972 0.25814 0.18748 0.0
C4165 C 0.36188 0.25305 0.18816 0.0
C4166 C 0.35702 0.25084 0.18052 0.0
C4167 C 0.36001 0.25369 0.17217 0.0
H4168 H 0.35956 0.25083 0.19462 0.0
H4169 H 0.38821 0.27904 0.11364 0.0
H4170 H 0.27921 0.35933 0.90598 0.0
H4171 H 0.27004 0.36784 0.89568 0.0
H4172 H 0.28525 0.35779 0.87359 0.0
H4173 H 0.29474 0.34955 0.8839 0.0
H4174 H 0.28221 0.37509 0.87139 0.0
H4175 H 0.2642 0.34949 0.87865 0.0
H4176 H 0.25656 0.33875 0.88857 0.0
H4177 H 0.24085 0.35985 0.8995 0.0
H4178 H 0.24848 0.37074 0.88973 0.0
H4179 H 0.25141 0.38656 0.83722 0.0
H4180 H 0.26122 0.37885 0.84761 0.0
H4181 H 0.24622 0.38925 0.86969 0.0
H4182 H 0.23618 0.39674 0.85931 0.0
H4183 H 0.24922 0.37187 0.87191 0.0
H4184 H 0.26718 0.39746 0.86436 0.0
H4185 H 0.27481 0.40806 0.85431 0.0
H4186 H 0.29059 0.38685 0.84371 0.0
H4187 H 0.28296 0.37608 0.85362 0.0
C4188 C 0.2807 0.35899 0.89895 0.0
C4189 C 0.28775 0.35372 0.8958 0.0
C4190 C 0.27536 0.36379 0.89304 0.0
C4191 C 0.27685 0.36338 0.88382 0.0
C4192 C 0.28393 0.3582 0.88066 0.0
C4193 C 0.28931 0.35341 0.88657 0.0
C4194 C 0.27103 0.36835 0.87751 0.0
C4195 C 0.275 0.37429 0.87143 0.0
C4196 C 0.2616 0.36748 0.87766 0.0
C4197 C 0.25697 0.36094 0.88352 0.0
C4198 C 0.25916 0.35185 0.88322 0.0
C4199 C 0.25483 0.34573 0.8888 0.0
C4200 C 0.24824 0.34862 0.89468 0.0
C4201 C 0.24596 0.35762 0.89496 0.0
C4202 C 0.25028 0.36377 0.88939 0.0
C4203 C 0.25017 0.3872 0.84429 0.0
C4204 C 0.24297 0.39227 0.84741 0.0
C4205 C 0.25586 0.38285 0.85024 0.0
C4206 C 0.25453 0.38352 0.85946 0.0
C4207 C 0.2474 0.38864 0.86261 0.0
C4208 C 0.24171 0.393 0.85666 0.0
C4209 C 0.26039 0.37864 0.8658 0.0
C4210 C 0.25642 0.37269 0.87188 0.0
C4211 C 0.26982 0.37949 0.86562 0.0
C4212 C 0.27443 0.38595 0.85968 0.0
C4213 C 0.27222 0.39504 0.85984 0.0
C4214 C 0.27656 0.40108 0.85418 0.0
C4215 C 0.28317 0.39813 0.84836 0.0
C4216 C 0.28547 0.38912 0.84821 0.0
C4217 C 0.28114 0.38305 0.85386 0.0
H4218 H 0.28652 0.40282 0.84398 0.0
H4219 H 0.24489 0.34387 0.899 0.0
H4220 H 0.66346 0.29203 0.89883 0.0
H4221 H 0.65507 0.28263 0.88842 0.0
H4222 H 0.67955 0.27044 0.87989 0.0
H4223 H 0.68799 0.27986 0.89027 0.0
H4224 H 0.66915 0.27378 0.86591 0.0
H4225 H 0.665 0.2599 0.89454 0.0
H4226 H 0.66077 0.25941 0.91038 0.0
H4227 H 0.63398 0.26671 0.90362 0.0
H4228 H 0.63808 0.26737 0.88774 0.0
H4229 H 0.65169 0.23517 0.84497 0.0
H4230 H 0.65933 0.24562 0.85488 0.0
H4231 H 0.63403 0.25671 0.86251 0.0
H4232 H 0.62628 0.246 0.85285 0.0
H4233 H 0.64434 0.25448 0.87677 0.0
H4234 H 0.64828 0.26778 0.84809 0.0
H4235 H 0.65247 0.2683 0.83224 0.0
H4236 H 0.67956 0.26217 0.83903 0.0
H4237 H 0.67551 0.26149 0.85492 0.0
C4238 C 0.66706 0.28732 0.89477 0.0
C4239 C 0.6764 0.28667 0.89544 0.0
C4240 C 0.66225 0.28194 0.88881 0.0
C4241 C 0.66665 0.27571 0.88344 0.0
C4242 C 0.67599 0.27519 0.88395 0.0
C4243 C 0.68081 0.2806 0.88988 0.0
C4244 C 0.66152 0.26968 0.87737 0.0
C4245 C 0.66379 0.26948 0.86831 0.0
C4246 C 0.65436 0.26423 0.88042 0.0
C4247 C 0.65187 0.26377 0.88996 0.0
C4248 C 0.65822 0.26146 0.89644 0.0
C4249 C 0.65585 0.26114 0.90542 0.0
C4250 C 0.64712 0.26305 0.90801 0.0
C4251 C 0.64074 0.26525 0.90161 0.0
C4252 C 0.64308 0.26559 0.89261 0.0
C4253 C 0.64771 0.23976 0.84882 0.0
C4254 C 0.63834 0.2397 0.8481 0.0
C4255 C 0.65212 0.24582 0.85441 0.0
C4256 C 0.64728 0.25206 0.85937 0.0
C4257 C 0.63792 0.252 0.85873 0.0
C4258 C 0.6335 0.24591 0.85314 0.0
C4259 C 0.65201 0.25853 0.86532 0.0
C4260 C 0.64966 0.2588 0.87435 0.0
C4261 C 0.6591 0.26405 0.86224 0.0
C4262 C 0.66157 0.26451 0.85269 0.0
C4263 C 0.65511 0.26648 0.8462 0.0
C4264 C 0.65747 0.26681 0.83721 0.0
C4265 C 0.66627 0.26525 0.83463 0.0
C4266 C 0.67274 0.26337 0.84104 0.0
C4267 C 0.67042 0.26302 0.85004 0.0
H4268 H 0.66808 0.26551 0.82766 0.0
H4269 H 0.64529 0.2628 0.91497 0.0
H4270 H 0.33846 0.74854 0.8842 0.0
H4271 H 0.34838 0.75859 0.87599 0.0
H4272 H 0.37127 0.74563 0.88735 0.0
H4273 H 0.36135 0.73544 0.89557 0.0
H4274 H 0.37356 0.76399 0.88651 0.0
H4275 H 0.36511 0.7404 0.86675 0.0
H4276 H 0.35466 0.73022 0.85902 0.0
H4277 H 0.34203 0.75253 0.84651 0.0
H4278 H 0.35232 0.76287 0.85428 0.0
H4279 H 0.40332 0.78288 0.85363 0.0
H4280 H 0.39512 0.77274 0.86356 0.0
H4281 H 0.3702 0.78245 0.85317 0.0
H4282 H 0.37831 0.79258 0.84331 0.0
H4283 H 0.37 0.76476 0.8537 0.0
H4284 H 0.37809 0.78839 0.87398 0.0
H4285 H 0.38846 0.79856 0.88184 0.0
H4286 H 0.40188 0.77616 0.89331 0.0
H4287 H 0.39165 0.76585 0.88543 0.0
C4288 C 0.3456 0.74779 0.88495 0.0
C4289 C 0.34909 0.74108 0.89046 0.0
C4290 C 0.35127 0.75357 0.88027 0.0
C4291 C 0.36058 0.75278 0.88093 0.0
C4292 C 0.36411 0.74635 0.88672 0.0
C4293 C 0.35843 0.74054 0.89143 0.0
C4294 C 0.36654 0.75843 0.87527 0.0
C4295 C 0.37288 0.76407 0.87932 0.0
C4296 C 0.3656 0.75861 0.8659 0.0
C4297 C 0.35944 0.75241 0.86116 0.0
C4298 C 0.36006 0.74314 0.8624 0.0
C4299 C 0.35418 0.73734 0.858 0.0
C4300 C 0.34768 0.74073 0.85229 0.0
C4301 C 0.34707 0.74992 0.85095 0.0
C4302 C 0.35293 0.75576 0.85534 0.0
C4303 C 0.3961 0.78292 0.85353 0.0
C4304 C 0.39149 0.78851 0.8476 0.0
C4305 C 0.39141 0.77711 0.85922 0.0
C4306 C 0.38202 0.77683 0.85915 0.0
C4307 C 0.37744 0.78248 0.85332 0.0
C4308 C 0.3821 0.78826 0.84764 0.0
C4309 C 0.37691 0.7705 0.86493 0.0
C4310 C 0.37073 0.76468 0.86088 0.0
C4311 C 0.37802 0.77016 0.87429 0.0
C4312 C 0.38417 0.77635 0.87903 0.0
C4313 C 0.3833 0.78563 0.87812 0.0
C4314 C 0.38914 0.79142 0.88259 0.0
C4315 C 0.39584 0.78801 0.88805 0.0
C4316 C 0.39669 0.7788 0.88907 0.0
C4317 C 0.39087 0.77297 0.88461 0.0
H4318 H 0.40036 0.7925 0.89151 0.0
H4319 H 0.34312 0.73623 0.84889 0.0
H4320 H 0.97889 0.30766 0.3095 0.0
H4321 H 0.99518 0.30863 0.30903 0.0
H4322 H 0.99485 0.32903 0.32923 0.0
H4323 H 0.97853 0.32813 0.32969 0.0
H4324 H 1.00667 0.33329 0.31676 0.0
H4325 H 1.00029 0.30711 0.33408 0.0
H4326 H 0.99333 0.29247 0.33726 0.0
H4327 H 1.00656 0.28119 0.31465 0.0
H4328 H 1.01351 0.2958 0.31127 0.0
H4329 H 0.05281 0.33154 0.32756 0.0
H4330 H 0.03652 0.3307 0.32829 0.0
H4331 H 0.03637 0.31026 0.30812 0.0
H4332 H 0.05268 0.31102 0.30741 0.0
H4333 H 0.02478 0.30608 0.32079 0.0
H4334 H 0.03108 0.33236 0.30343 0.0
H4335 H 0.03803 0.34702 0.30033 0.0
H4336 H 0.02497 0.35812 0.32313 0.0
H4337 H 0.01803 0.34349 0.32643 0.0
C4338 C 0.98228 0.31233 0.31388 0.0
C4339 C 0.97738 0.31778 0.31967 0.0
C4340 C 0.99161 0.31287 0.3136 0.0
C4341 C 0.99629 0.3188 0.3192 0.0
C4342 C 0.99141 0.3244 0.32485 0.0
C4343 C 0.98207 0.32389 0.32509 0.0
C4344 C 1.00626 0.31913 0.31919 0.0
C4345 C 1.01062 0.32735 0.31776 0.0
C4346 C 1.01147 0.31138 0.32032 0.0
C4347 C 1.00735 0.30257 0.32238 0.0
C4348 C 1.00167 0.30152 0.32975 0.0
C4349 C 0.99773 0.29323 0.33159 0.0
C4350 C 0.99949 0.28591 0.32615 0.0
C4351 C 1.0052 0.28687 0.31886 0.0
C4352 C 1.00915 0.29515 0.31698 0.0
C4353 C 0.04932 0.32689 0.32325 0.0
C4354 C 0.05408 0.32138 0.31739 0.0
C4355 C 0.03998 0.32642 0.32367 0.0
C4356 C 0.03516 0.32052 0.31816 0.0
C4357 C 0.03991 0.31488 0.31244 0.0
C4358 C 0.04925 0.3153 0.31206 0.0
C4359 C 0.02519 0.32023 0.31832 0.0
C4360 C 0.02083 0.31202 0.31979 0.0
C4361 C 0.01999 0.32799 0.31724 0.0
C4362 C 0.0241 0.33681 0.31523 0.0
C4363 C 0.02974 0.33791 0.30782 0.0
C4364 C 0.03367 0.34622 0.30602 0.0
C4365 C 0.03196 0.35349 0.31154 0.0
C4366 C 0.0263 0.35248 0.31886 0.0
C4367 C 0.02236 0.34418 0.3207 0.0
H4368 H 0.03501 0.35992 0.31014 0.0
H4369 H 0.99643 0.2795 0.32759 0.0
H4370 H 0.7008 0.05224 0.32966 0.0
H4371 H 0.69973 0.03594 0.32933 0.0
H4372 H 0.72121 0.03512 0.31029 0.0
H4373 H 0.7222 0.05143 0.31044 0.0
H4374 H 0.70783 0.02331 0.30601 0.0
H4375 H 0.72511 0.0309 0.33203 0.0
H4376 H 0.72805 0.03851 0.34629 0.0
H4377 H 0.705 0.02572 0.35777 0.0
H4378 H 0.70185 0.01813 0.34353 0.0
H4379 H 0.72066 0.978 0.31076 0.0
H4380 H 0.71988 0.99425 0.31001 0.0
H4381 H 0.69998 0.99407 0.33073 0.0
H4382 H 0.70078 0.97781 0.33155 0.0
H4383 H 0.71192 1.00647 0.33411 0.0
H4384 H 0.69476 0.99844 0.3085 0.0
H4385 H 0.6915 0.99087 0.29429 0.0
H4386 H 0.71372 1.00441 0.28206 0.0
H4387 H 0.71719 1.01197 0.29624 0.0
C4388 C 0.70522 0.04861 0.32531 0.0
C4389 C 0.71162 0.05316 0.32011 0.0
C4390 C 0.70465 0.03927 0.32518 0.0
C4391 C 0.71046 0.03428 0.31987 0.0
C4392 C 0.71667 0.03881 0.31447 0.0
C4393 C 0.71728 0.04814 0.31462 0.0
C4394 C 0.71024 0.02433 0.32009 0.0
C4395 C 0.70882 0.01962 0.31214 0.0
C4396 C 0.7113 0.0195 0.32812 0.0
C4397 C 0.7132 0.02402 0.33669 0.0
C4398 C 0.72063 0.02977 0.33757 0.0
C4399 C 0.72234 0.03407 0.34566 0.0
C4400 C 0.7167 0.03262 0.35293 0.0
C4401 C 0.70935 0.02685 0.35213 0.0
C4402 C 0.70761 0.02254 0.34406 0.0
C4403 C 0.71602 0.9814 0.31507 0.0
C4404 C 0.71077 0.97657 0.32121 0.0
C4405 C 0.71558 0.99072 0.31464 0.0
C4406 C 0.7098 0.99544 0.32025 0.0
C4407 C 0.70451 0.99062 0.32633 0.0
C4408 C 0.70498 0.98131 0.32681 0.0
C4409 C 0.70953 1.00539 0.32002 0.0
C4410 C 0.71087 1.01013 0.32798 0.0
C4411 C 0.70835 1.01023 0.312 0.0
C4412 C 0.70628 1.00571 0.30346 0.0
C4413 C 0.69899 0.99975 0.3028 0.0
C4414 C 0.6971 0.99547 0.29475 0.0
C4415 C 0.70241 0.99714 0.28728 0.0
C4416 C 0.70962 1.00311 0.28785 0.0
C4417 C 0.71155 1.0074 0.2959 0.0
H4418 H 0.70094 0.99382 0.28106 0.0
H4419 H 0.71803 0.03595 0.35918 0.0
H4420 H 0.97924 0.69716 0.30585 0.0
H4421 H 0.99548 0.69823 0.30681 0.0
H4422 H 0.99326 0.71588 0.3293 0.0
H4423 H 0.97696 0.71477 0.32845 0.0
H4424 H 1.00572 0.7219 0.31775 0.0
H4425 H 0.99902 0.69413 0.33214 0.0
H4426 H 0.9923 0.67912 0.33361 0.0
H4427 H 1.00715 0.67022 0.31094 0.0
H4428 H 1.01387 0.68522 0.30926 0.0
H4429 H 0.05082 0.71971 0.33196 0.0
H4430 H 0.03458 0.71844 0.33119 0.0
H4431 H 0.03674 0.70097 0.30855 0.0
H4432 H 0.05303 0.7023 0.3092 0.0
H4433 H 0.02431 0.69484 0.32023 0.0
H4434 H 0.03096 0.72266 0.30584 0.0
H4435 H 0.0377 0.73767 0.30443 0.0
H4436 H 0.02293 0.74646 0.32721 0.0
H4437 H 0.0162 0.73146 0.32882 0.0
C4438 C 0.98218 0.70119 0.31108 0.0
C4439 C 0.97674 0.70581 0.31712 0.0
C4440 C 0.99149 0.70182 0.3116 0.0
C4441 C 0.99563 0.70705 0.3182 0.0
C4442 C 0.99024 0.7118 0.32415 0.0
C4443 C 0.9809 0.71117 0.32364 0.0
C4444 C 1.00556 0.70759 0.31885 0.0
C4445 C 1.00977 0.71599 0.31842 0.0
C4446 C 1.01089 0.69987 0.31952 0.0
C4447 C 1.00688 0.69083 0.32052 0.0
C4448 C 1.0008 0.689 0.32742 0.0
C4449 C 0.997 0.68049 0.3283 0.0
C4450 C 0.99928 0.67373 0.32235 0.0
C4451 C 1.00538 0.67546 0.31553 0.0
C4452 C 1.0092 0.68397 0.31462 0.0
C4453 C 0.04786 0.71567 0.32675 0.0
C4454 C 0.05328 0.71118 0.32059 0.0
C4455 C 0.03855 0.71492 0.32634 0.0
C4456 C 0.0344 0.70971 0.31974 0.0
C4457 C 0.03977 0.70505 0.3137 0.0
C4458 C 0.04911 0.70579 0.3141 0.0
C4459 C 0.02447 0.70915 0.31913 0.0
C4460 C 0.02026 0.70075 0.31956 0.0
C4461 C 0.01913 0.71687 0.31848 0.0
C4462 C 0.02314 0.72591 0.3175 0.0
C4463 C 0.0292 0.72778 0.31059 0.0
C4464 C 0.03301 0.73629 0.30975 0.0
C4465 C 0.03076 0.74301 0.31574 0.0
C4466 C 0.02468 0.74124 0.32258 0.0
C4467 C 0.02085 0.73274 0.32345 0.0
H4468 H 0.03372 0.7496 0.31508 0.0
H4469 H 0.99633 0.66714 0.32305 0.0
H4470 H 0.31353 0.05238 0.32699 0.0
H4471 H 0.31256 0.03606 0.32719 0.0
H4472 H 0.33437 0.03479 0.30854 0.0
H4473 H 0.33515 0.05103 0.30805 0.0
H4474 H 0.32157 0.02347 0.30384 0.0
H4475 H 0.33701 0.03049 0.33121 0.0
H4476 H 0.33889 0.03772 0.34583 0.0
H4477 H 0.31508 0.02467 0.35531 0.0
H4478 H 0.31299 0.01744 0.3407 0.0
H4479 H 0.33535 0.97898 0.30759 0.0
H4480 H 0.33443 0.99518 0.30826 0.0
H4481 H 0.31243 0.993 0.32664 0.0
H4482 H 0.31353 0.9767 0.32626 0.0
H4483 H 0.32386 1.00598 0.33176 0.0
H4484 H 0.30886 0.99828 0.30478 0.0
H4485 H 0.3069 0.99097 0.29021 0.0
H4486 H 0.32964 1.00533 0.28 0.0
H4487 H 0.33181 1.01264 0.29455 0.0
C4488 C 0.31808 0.04863 0.32288 0.0
C4489 C 0.32446 0.05306 0.31755 0.0
C4490 C 0.31758 0.03928 0.32307 0.0
C4491 C 0.32346 0.03415 0.31796 0.0
C4492 C 0.32977 0.03857 0.31258 0.0
C4493 C 0.33027 0.04788 0.31237 0.0
C4494 C 0.32304 0.0242 0.31807 0.0
C4495 C 0.32216 0.01966 0.30995 0.0
C4496 C 0.32353 0.01918 0.32605 0.0
C4497 C 0.32479 0.0235 0.33484 0.0
C4498 C 0.33214 0.02922 0.33639 0.0
C4499 C 0.33325 0.03331 0.34468 0.0
C4500 C 0.3271 0.03168 0.35149 0.0
C4501 C 0.31983 0.02594 0.35003 0.0
C4502 C 0.31868 0.02184 0.34175 0.0
C4503 C 0.33037 0.98191 0.31187 0.0
C4504 C 0.32453 0.97648 0.31689 0.0
C4505 C 0.32979 0.99121 0.31216 0.0
C4506 C 0.32327 0.99535 0.3174 0.0
C4507 C 0.31748 0.98998 0.32251 0.0
C4508 C 0.31807 0.98065 0.32223 0.0
C4509 C 0.32257 1.00527 0.31751 0.0
C4510 C 0.32321 1.0098 0.32567 0.0
C4511 C 0.32185 1.01029 0.30956 0.0
C4512 C 0.32054 1.00595 0.30078 0.0
C4513 C 0.31348 0.99983 0.29945 0.0
C4514 C 0.31232 0.99569 0.29119 0.0
C4515 C 0.31815 0.99767 0.28419 0.0
C4516 C 0.32513 1.0038 0.28543 0.0
C4517 C 0.32632 1.00795 0.29368 0.0
H4518 H 0.31725 0.99446 0.2778 0.0
H4519 H 0.32797 0.03485 0.3579 0.0
H4520 H 0.05077 0.71693 0.69174 0.0
H4521 H 0.03454 0.71568 0.69259 0.0
H4522 H 0.0367 0.70256 0.71802 0.0
H4523 H 0.05299 0.70387 0.71727 0.0
H4524 H 0.02431 0.6944 0.70759 0.0
H4525 H 0.03088 0.72441 0.7167 0.0
H4526 H 0.03759 0.73944 0.71533 0.0
H4527 H 0.02279 0.74386 0.69128 0.0
H4528 H 0.01609 0.7288 0.69244 0.0
H4529 H 0.97928 0.69905 0.72126 0.0
H4530 H 0.99551 0.69999 0.72011 0.0
H4531 H 0.99313 0.71348 0.6949 0.0
H4532 H 0.97684 0.7125 0.69596 0.0
H4533 H 1.00564 0.72141 0.70509 0.0
H4534 H 0.99898 0.6915 0.69597 0.0
H4535 H 0.99229 0.67645 0.69723 0.0
H4536 H 1.00725 0.6718 0.72113 0.0
H4537 H 1.01393 0.68687 0.72009 0.0
C4538 C 0.04782 0.71385 0.69756 0.0
C4539 C 0.05324 0.71058 0.70447 0.0
C4540 C 0.03851 0.71312 0.69803 0.0
C4541 C 0.03436 0.70914 0.70543 0.0
C4542 C 0.03974 0.70567 0.71224 0.0
C4543 C 0.04907 0.7064 0.71179 0.0
C4544 C 0.02442 0.70867 0.70608 0.0
C4545 C 0.02024 0.70032 0.70717 0.0
C4546 C 0.01907 0.71637 0.70531 0.0
C4547 C 0.02305 0.72544 0.70462 0.0
C4548 C 0.02911 0.72856 0.71109 0.0
C4549 C 0.0329 0.73709 0.71035 0.0
C4550 C 0.03064 0.74259 0.70321 0.0
C4551 C 0.02455 0.73958 0.6968 0.0
C4552 C 0.02075 0.73105 0.6975 0.0
C4553 C 0.98219 0.70213 0.71541 0.0
C4554 C 0.97671 0.70563 0.70867 0.0
C4555 C 0.9915 0.70268 0.71478 0.0
C4556 C 0.99559 0.70669 0.70736 0.0
C4557 C 0.99015 0.71034 0.70068 0.0
C4558 C 0.98082 0.7098 0.70132 0.0
C4559 C 1.00552 0.70713 0.70662 0.0
C4560 C 1.00971 0.71548 0.70551 0.0
C4561 C 1.01088 0.69943 0.70736 0.0
C4562 C 1.00689 0.69035 0.708 0.0
C4563 C 1.00079 0.6873 0.70153 0.0
C4564 C 0.99701 0.67876 0.7022 0.0
C4565 C 0.99933 0.67318 0.70927 0.0
C4566 C 1.00545 0.67613 0.71567 0.0
C4567 C 1.00924 0.68467 0.71504 0.0
H4568 H 0.99639 0.66657 0.70977 0.0
H4569 H 0.03358 0.74919 0.70266 0.0
H4570 H 0.3326 0.97854 0.7211 0.0
H4571 H 0.33142 0.99472 0.72041 0.0
H4572 H 0.31466 0.99243 0.69716 0.0
H4573 H 0.3161 0.97617 0.69761 0.0
H4574 H 0.3267 1.00564 0.69505 0.0
H4575 H 0.30575 0.99743 0.71753 0.0
H4576 H 0.30037 0.98994 0.73115 0.0
H4577 H 0.31969 1.00448 0.74668 0.0
H4578 H 0.32527 1.01197 0.73314 0.0
H4579 H 0.31544 0.05198 0.69739 0.0
H4580 H 0.31438 0.03567 0.69698 0.0
H4581 H 0.33119 0.03414 0.72023 0.0
H4582 H 0.33202 0.05038 0.72087 0.0
H4583 H 0.31756 0.02278 0.72168 0.0
H4584 H 0.33914 0.03015 0.69885 0.0
H4585 H 0.34441 0.03757 0.68516 0.0
H4586 H 0.32357 0.02461 0.67019 0.0
H4587 H 0.31811 0.01719 0.68383 0.0
C4588 C 0.32873 0.98145 0.71577 0.0
C4589 C 0.32446 0.976 0.70939 0.0
C4590 C 0.32797 0.99073 0.71545 0.0
C4591 C 0.32285 0.99483 0.70881 0.0
C4592 C 0.31862 0.98944 0.70238 0.0
C4593 C 0.31939 0.98013 0.70269 0.0
C4594 C 0.32202 1.00474 0.70857 0.0
C4595 C 0.32455 1.00938 0.70083 0.0
C4596 C 0.31933 1.00967 0.71613 0.0
C4597 C 0.31597 1.00521 0.7243 0.0
C4598 C 0.30889 0.99898 0.72384 0.0
C4599 C 0.3058 0.99474 0.73155 0.0
C4600 C 0.3097 0.99672 0.73977 0.0
C4601 C 0.31668 1.00295 0.74031 0.0
C4602 C 0.3198 1.0072 0.73262 0.0
C4603 C 0.31885 0.04818 0.70246 0.0
C4604 C 0.32387 0.05253 0.70913 0.0
C4605 C 0.31831 0.03884 0.70217 0.0
C4606 C 0.3228 0.03364 0.70851 0.0
C4607 C 0.32769 0.03797 0.71524 0.0
C4608 C 0.32823 0.04729 0.71554 0.0
C4609 C 0.32243 0.02368 0.70823 0.0
C4610 C 0.31965 0.01904 0.71588 0.0
C4611 C 0.32486 0.01876 0.70058 0.0
C4612 C 0.32815 0.02319 0.69238 0.0
C4613 C 0.33564 0.02893 0.69266 0.0
C4614 C 0.33867 0.03313 0.6849 0.0
C4615 C 0.33431 0.03158 0.67682 0.0
C4616 C 0.32693 0.02581 0.67646 0.0
C4617 C 0.32387 0.02161 0.6842 0.0
H4618 H 0.33667 0.03484 0.67082 0.0
H4619 H 0.30729 0.99343 0.74573 0.0
H4620 H 0.97761 0.32746 0.71568 0.0
H4621 H 0.99389 0.32796 0.7168 0.0
H4622 H 0.99587 0.31131 0.69353 0.0
H4623 H 0.97962 0.31046 0.69259 0.0
H4624 H 1.00726 0.3059 0.70567 0.0
H4625 H 1.00003 0.33424 0.69285 0.0
H4626 H 0.99244 0.34871 0.69189 0.0
H4627 H 1.00411 0.35672 0.71677 0.0
H4628 H 1.01169 0.34224 0.71794 0.0
H4629 H 0.05366 0.31297 0.69785 0.0
H4630 H 0.0374 0.31265 0.69636 0.0
H4631 H 0.03508 0.32913 0.71972 0.0
H4632 H 0.05132 0.3298 0.72103 0.0
H4633 H 0.02388 0.33465 0.70736 0.0
H4634 H 0.03099 0.30621 0.72021 0.0
H4635 H 0.0386 0.29174 0.72111 0.0
H4636 H 0.02714 0.28394 0.69606 0.0
H4637 H 0.01955 0.29842 0.69496 0.0
C4638 C 0.98149 0.32384 0.71084 0.0
C4639 C 0.97724 0.31895 0.70401 0.0
C4640 C 0.99083 0.32421 0.71143 0.0
C4641 C 0.99615 0.31978 0.70517 0.0
C4642 C 0.99194 0.31483 0.69842 0.0
C4643 C 0.98261 0.31442 0.69783 0.0
C4644 C 1.00611 0.32021 0.70571 0.0
C4645 C 1.01089 0.3122 0.70592 0.0
C4646 C 1.01089 0.3284 0.70623 0.0
C4647 C 1.00636 0.33712 0.70553 0.0
C4648 C 1.00093 0.33906 0.69815 0.0
C4649 C 0.99663 0.34727 0.69756 0.0
C4650 C 0.99777 0.35362 0.70427 0.0
C4651 C 1.00322 0.35178 0.71158 0.0
C4652 C 1.00753 0.34358 0.71221 0.0
C4653 C 0.04971 0.31661 0.70262 0.0
C4654 C 0.05385 0.32137 0.7096 0.0
C4655 C 0.04038 0.31634 0.70182 0.0
C4656 C 0.03496 0.32076 0.70801 0.0
C4657 C 0.03908 0.32563 0.71488 0.0
C4658 C 0.04839 0.32592 0.71568 0.0
C4659 C 0.02502 0.32034 0.70734 0.0
C4660 C 0.02024 0.32835 0.70711 0.0
C4661 C 0.02024 0.31215 0.70679 0.0
C4662 C 0.02477 0.30343 0.70746 0.0
C4663 C 0.03014 0.30144 0.71486 0.0
C4664 C 0.03445 0.29323 0.71541 0.0
C4665 C 0.03337 0.28694 0.70864 0.0
C4666 C 0.02798 0.28883 0.7013 0.0
C4667 C 0.02367 0.29703 0.70071 0.0
H4668 H 0.03671 0.28059 0.70908 0.0
H4669 H 0.99444 0.35997 0.70381 0.0
H4670 H 0.69956 0.97734 0.69566 0.0
H4671 H 0.69892 0.99361 0.69635 0.0
H4672 H 0.7207 0.99394 0.71513 0.0
H4673 H 0.72135 0.97765 0.7145 0.0
H4674 H 0.70835 1.00576 0.71988 0.0
H4675 H 0.72395 0.99876 0.69286 0.0
H4676 H 0.72598 0.99144 0.67833 0.0
H4677 H 0.70258 1.00432 0.66828 0.0
H4678 H 0.70035 1.01163 0.68279 0.0
H4679 H 0.72117 0.05147 0.71506 0.0
H4680 H 0.72045 0.03518 0.71562 0.0
H4681 H 0.69919 0.03519 0.69625 0.0
H4682 H 0.69992 0.05148 0.69562 0.0
H4683 H 0.71098 0.02316 0.69191 0.0
H4684 H 0.69551 0.03048 0.71875 0.0
H4685 H 0.69337 0.03776 0.73328 0.0
H4686 H 0.71629 0.02433 0.74369 0.0
H4687 H 0.71865 0.01706 0.72918 0.0
C4688 C 0.70423 0.98087 0.69992 0.0
C4689 C 0.71055 0.97616 0.70497 0.0
C4690 C 0.70386 0.99018 0.70032 0.0
C4691 C 0.70986 0.99505 0.70568 0.0
C4692 C 0.716 0.99036 0.71093 0.0
C4693 C 0.71635 0.98103 0.71058 0.0
C4694 C 0.70988 1.00501 0.70566 0.0
C4695 C 0.70903 1.00957 0.71377 0.0
C4696 C 0.71056 1.01001 0.69769 0.0
C4697 C 0.71194 1.00568 0.68893 0.0
C4698 C 0.71921 0.99999 0.68757 0.0
C4699 C 0.7204 0.99585 0.67933 0.0
C4700 C 0.7144 0.9974 0.67239 0.0
C4701 C 0.70722 1.00312 0.67366 0.0
C4702 C 0.70599 1.00727 0.68189 0.0
C4703 C 0.71625 0.04801 0.71101 0.0
C4704 C 0.7106 0.05281 0.7053 0.0
C4705 C 0.71585 0.03868 0.71133 0.0
C4706 C 0.70971 0.03391 0.70604 0.0
C4707 C 0.70401 0.03869 0.70039 0.0
C4708 C 0.70444 0.04802 0.70003 0.0
C4709 C 0.70943 0.02394 0.70613 0.0
C4710 C 0.71026 0.01937 0.69802 0.0
C4711 C 0.70872 0.01894 0.71411 0.0
C4712 C 0.70731 0.02329 0.72285 0.0
C4713 C 0.70014 0.02913 0.72412 0.0
C4714 C 0.69888 0.03325 0.73235 0.0
C4715 C 0.7047 0.03152 0.7394 0.0
C4716 C 0.71179 0.02566 0.73822 0.0
C4717 C 0.71309 0.02154 0.73 0.0
H4718 H 0.70372 0.03472 0.74577 0.0
H4719 H 0.71533 0.99419 0.66602 0.0
H4720 H 0.33203 0.30663 0.97687 0.0
H4721 H 0.33093 0.30729 0.99302 0.0
H4722 H 0.3144 0.33056 0.99101 0.0
H4723 H 0.31574 0.33014 0.97476 0.0
H4724 H 0.32654 0.33266 1.00402 0.0
H4725 H 0.30528 0.31015 0.9961 0.0
H4726 H 0.29971 0.29653 0.98868 0.0
H4727 H 0.31889 0.2809 1.00287 0.0
H4728 H 0.32467 0.29445 1.01028 0.0
H4729 H 0.31545 0.3301 0.05043 0.0
H4730 H 0.31432 0.33059 0.03417 0.0
H4731 H 0.33089 0.30733 0.03232 0.0
H4732 H 0.3318 0.30662 0.04851 0.0
H4733 H 0.31716 0.3059 0.0212 0.0
H4734 H 0.33904 0.32876 0.02828 0.0
H4735 H 0.34451 0.34247 0.03563 0.0
H4736 H 0.3238 0.35751 0.02304 0.0
H4737 H 0.31813 0.34386 0.0157 0.0
C4738 C 0.32823 0.31196 0.97983 0.0
C4739 C 0.32399 0.31835 0.97446 0.0
C4740 C 0.32752 0.31227 0.9891 0.0
C4741 C 0.32248 0.31891 0.99327 0.0
C4742 C 0.3183 0.32535 0.98796 0.0
C4743 C 0.31901 0.32505 0.97865 0.0
C4744 C 0.3217 0.31911 1.00317 0.0
C4745 C 0.32434 0.32686 1.00777 0.0
C4746 C 0.31894 0.31151 1.00811 0.0
C4747 C 0.31546 0.30333 1.00369 0.0
C4748 C 0.30836 0.30382 0.99759 0.0
C4749 C 0.30515 0.29611 0.99339 0.0
C4750 C 0.30895 0.28786 0.99529 0.0
C4751 C 0.31596 0.2873 1.0014 0.0
C4752 C 0.31919 0.29499 1.00561 0.0
C4753 C 0.31879 0.32504 0.04657 0.0
C4754 C 0.32377 0.31836 0.05082 0.0
C4755 C 0.31821 0.32538 0.03726 0.0
C4756 C 0.32261 0.31906 0.03198 0.0
C4757 C 0.32746 0.31231 0.03622 0.0
C4758 C 0.32805 0.31197 0.0455 0.0
C4759 C 0.32219 0.31938 0.02206 0.0
C4760 C 0.3193 0.31173 0.01745 0.0
C4761 C 0.32469 0.32707 0.01713 0.0
C4762 C 0.3281 0.33528 0.02152 0.0
C4763 C 0.33561 0.33498 0.02713 0.0
C4764 C 0.33876 0.34274 0.03129 0.0
C4765 C 0.33449 0.35085 0.02982 0.0
C4766 C 0.32709 0.35122 0.02418 0.0
C4767 C 0.32391 0.34348 0.02002 0.0
H4768 H 0.33694 0.35685 0.03305 0.0
H4769 H 0.30646 0.28189 0.99203 0.0
H4770 H 0.3254 0.69753 0.97567 0.0
H4771 H 0.32479 0.69661 0.99194 0.0
H4772 H 0.31899 0.72468 0.99328 0.0
H4773 H 0.31955 0.72564 0.97709 0.0
H4774 H 0.33184 0.7206 1.00472 0.0
H4775 H 0.30291 0.70834 0.99726 0.0
H4776 H 0.29244 0.69794 0.98984 0.0
H4777 H 0.30483 0.67581 1.0029 0.0
H4778 H 0.31546 0.68608 1.01031 0.0
H4779 H 0.31895 0.72553 0.04931 0.0
H4780 H 0.3186 0.72455 0.03311 0.0
H4781 H 0.32508 0.69664 0.03458 0.0
H4782 H 0.32548 0.69758 0.05087 0.0
H4783 H 0.31251 0.69969 0.0218 0.0
H4784 H 0.34112 0.71175 0.02953 0.0
H4785 H 0.35171 0.72198 0.037 0.0
H4786 H 0.34021 0.74424 0.02334 0.0
H4787 H 0.32945 0.73415 0.01588 0.0
C4788 C 0.32386 0.70348 0.97942 0.0
C4789 C 0.32257 0.71167 0.97504 0.0
C4790 C 0.32353 0.70294 0.98874 0.0
C4791 C 0.32181 0.71057 0.99387 0.0
C4792 C 0.32038 0.71871 0.9895 0.0
C4793 C 0.32073 0.71925 0.98022 0.0
C4794 C 0.32183 0.71022 1.0038 0.0
C4795 C 0.32752 0.7161 1.00844 0.0
C4796 C 0.31643 0.70415 1.0087 0.0
C4797 C 0.31004 0.69797 1.00426 0.0
C4798 C 0.30345 0.70125 0.99849 0.0
C4799 C 0.29748 0.69538 0.9943 0.0
C4800 C 0.29799 0.68622 0.99588 0.0
C4801 C 0.30446 0.68291 1.00167 0.0
C4802 C 0.31045 0.68875 1.00587 0.0
C4803 C 0.32034 0.71918 0.04621 0.0
C4804 C 0.32236 0.71166 0.05142 0.0
C4805 C 0.32011 0.71862 0.03693 0.0
C4806 C 0.32196 0.71056 0.03259 0.0
C4807 C 0.32365 0.70295 0.03776 0.0
C4808 C 0.32386 0.70349 0.04708 0.0
C4809 C 0.32238 0.7102 0.02268 0.0
C4810 C 0.31683 0.70418 0.01807 0.0
C4811 C 0.32794 0.71611 0.01777 0.0
C4812 C 0.33443 0.7222 0.02221 0.0
C4813 C 0.3408 0.71883 0.02817 0.0
C4814 C 0.34685 0.7246 0.03239 0.0
C4815 C 0.34662 0.73376 0.03066 0.0
C4816 C 0.34037 0.73715 0.02468 0.0
C4817 C 0.3343 0.73141 0.02045 0.0
H4818 H 0.35131 0.73821 0.03394 0.0
H4819 H 0.29336 0.68168 0.99263 0.0
H4820 H 0.72481 0.32888 0.04878 0.0
H4821 H 0.72382 0.32827 0.0326 0.0
H4822 H 0.69798 0.31546 0.03452 0.0
H4823 H 0.69888 0.31612 0.0508 0.0
H4824 H 0.70818 0.30784 0.02153 0.0
H4825 H 0.69933 0.33725 0.02937 0.0
H4826 H 0.70052 0.35184 0.03685 0.0
H4827 H 0.725 0.35746 0.02301 0.0
H4828 H 0.72403 0.34284 0.01553 0.0
H4829 H 0.69899 0.31603 0.97512 0.0
H4830 H 0.69818 0.31525 0.99139 0.0
H4831 H 0.72372 0.32866 0.99331 0.0
H4832 H 0.72461 0.32941 0.97713 0.0
H4833 H 0.71206 0.33594 1.00444 0.0
H4834 H 0.72116 0.30603 0.99719 0.0
H4835 H 0.71981 0.29141 0.98978 0.0
H4836 H 0.69451 0.2868 1.00247 0.0
H4837 H 0.69565 0.30145 1.00987 0.0
C4838 C 0.71887 0.32599 0.04579 0.0
C4839 C 0.71187 0.32266 0.05114 0.0
C4840 C 0.71832 0.32562 0.03652 0.0
C4841 C 0.71076 0.32195 0.03231 0.0
C4842 C 0.70387 0.31835 0.0376 0.0
C4843 C 0.70441 0.31871 0.04692 0.0
C4844 C 0.71004 0.32208 0.02241 0.0
C4845 C 0.70889 0.314 0.01779 0.0
C4846 C 0.71105 0.33009 0.0175 0.0
C4847 C 0.71164 0.33891 0.02195 0.0
C4848 C 0.705 0.34157 0.02797 0.0
C4849 C 0.70563 0.34985 0.0322 0.0
C4850 C 0.71284 0.35557 0.03042 0.0
C4851 C 0.71942 0.35302 0.02438 0.0
C4852 C 0.71883 0.34474 0.02014 0.0
C4853 C 0.70448 0.31872 0.979 0.0
C4854 C 0.71185 0.32284 0.97478 0.0
C4855 C 0.704 0.31828 0.98832 0.0
C4856 C 0.7109 0.32187 0.99361 0.0
C4857 C 0.71828 0.32589 0.9894 0.0
C4858 C 0.71876 0.32635 0.98012 0.0
C4859 C 0.71042 0.32168 1.00353 0.0
C4860 C 0.71131 0.32977 1.00817 0.0
C4861 C 0.70913 0.31369 1.00843 0.0
C4862 C 0.70844 0.30488 1.004 0.0
C4863 C 0.71527 0.30193 0.99834 0.0
C4864 C 0.71455 0.29363 0.99415 0.0
C4865 C 0.70706 0.28819 0.99563 0.0
C4866 C 0.7003 0.29103 1.00132 0.0
C4867 C 0.70098 0.29933 1.00551 0.0
H4868 H 0.70652 0.28177 0.99239 0.0
H4869 H 0.71331 0.36197 0.0337 0.0
H4870 H 0.72082 0.6947 0.04889 0.0
H4871 H 0.7201 0.69546 0.0327 0.0
H4872 H 0.70257 0.718 0.03441 0.0
H4873 H 0.70334 0.71735 0.0507 0.0
H4874 H 0.69709 0.7062 0.02148 0.0
H4875 H 0.72415 0.72135 0.02936 0.0
H4876 H 0.73866 0.72337 0.03689 0.0
H4877 H 0.74895 0.7006 0.02315 0.0
H4878 H 0.73446 0.69836 0.01563 0.0
H4879 H 0.70338 0.7172 0.97516 0.0
H4880 H 0.70238 0.71767 0.99142 0.0
H4881 H 0.72058 0.69567 0.99324 0.0
H4882 H 0.72155 0.6951 0.97706 0.0
H4883 H 0.72538 0.70859 1.00447 0.0
H4884 H 0.698 0.6931 0.9971 0.0
H4885 H 0.68343 0.69111 0.98967 0.0
H4886 H 0.67373 0.71471 1.0024 0.0
H4887 H 0.68829 0.71691 1.00982 0.0
C4888 C 0.71687 0.69989 0.04585 0.0
C4889 C 0.71224 0.70604 0.05114 0.0
C4890 C 0.71643 0.70029 0.03657 0.0
C4891 C 0.71139 0.70687 0.03231 0.0
C4892 C 0.70652 0.71287 0.03754 0.0
C4893 C 0.70696 0.71247 0.04686 0.0
C4894 C 0.71139 0.70754 0.0224 0.0
C4895 C 0.70327 0.70687 0.01776 0.0
C4896 C 0.71944 0.70829 0.01751 0.0
C4897 C 0.72819 0.70965 0.02198 0.0
C4898 C 0.72949 0.71673 0.02799 0.0
C4899 C 0.73771 0.71792 0.03225 0.0
C4900 C 0.74472 0.71211 0.03051 0.0
C4901 C 0.74352 0.7051 0.02449 0.0
C4902 C 0.7353 0.70387 0.02022 0.0
C4903 C 0.70708 0.71239 0.97901 0.0
C4904 C 0.71259 0.70615 0.97476 0.0
C4905 C 0.70652 0.71267 0.98833 0.0
C4906 C 0.71139 0.70669 0.99359 0.0
C4907 C 0.7168 0.7004 0.98935 0.0
C4908 C 0.71737 0.70011 0.98007 0.0
C4909 C 0.71111 0.70706 1.00352 0.0
C4910 C 0.7192 0.70797 1.00818 0.0
C4911 C 0.70302 0.70654 1.00839 0.0
C4912 C 0.69427 0.70523 1.00393 0.0
C4913 C 0.69279 0.69791 0.99826 0.0
C4914 C 0.68453 0.69673 0.99406 0.0
C4915 C 0.67767 0.70279 0.99554 0.0
C4916 C 0.67906 0.71003 1.00125 0.0
C4917 C 0.68731 0.71124 1.00545 0.0
H4918 H 0.67128 0.70187 0.99229 0.0
H4919 H 0.75108 0.71304 0.03382 0.0
H4920 H 0.47998 0.80934 0.83183 0.0
H4921 H 0.4962 0.81059 0.8309 0.0
H4922 H 0.49378 0.82878 0.80882 0.0
H4923 H 0.4775 0.82729 0.80948 0.0
H4924 H 0.50645 0.81683 0.80557 0.0
H4925 H 0.49941 0.83613 0.8299 0.0
H4926 H 0.49259 0.84024 0.84422 0.0
H4927 H 0.5077 0.82 0.85748 0.0
H4928 H 0.51452 0.81569 0.84321 0.0
H4929 H 0.55153 0.83178 0.80552 0.0
H4930 H 0.53529 0.83097 0.80654 0.0
H4931 H 0.53735 0.81281 0.82868 0.0
H4932 H 0.55365 0.81386 0.82794 0.0
H4933 H 0.52485 0.82491 0.83187 0.0
H4934 H 0.53176 0.8055 0.80754 0.0
H4935 H 0.53857 0.80136 0.79322 0.0
H4936 H 0.52369 0.82177 0.77997 0.0
H4937 H 0.51688 0.82612 0.79424 0.0
C4938 C 0.48288 0.81355 0.82671 0.0
C4939 C 0.47738 0.8182 0.82071 0.0
C4940 C 0.49218 0.81434 0.82626 0.0
C4941 C 0.49626 0.81987 0.81986 0.0
C4942 C 0.49081 0.8245 0.81384 0.0
C4943 C 0.48149 0.8237 0.81428 0.0
C4944 C 0.50619 0.82067 0.81936 0.0
C4945 C 0.51046 0.81873 0.81129 0.0
C4946 C 0.51148 0.82294 0.82687 0.0
C4947 C 0.50741 0.82554 0.83547 0.0
C4948 C 0.50123 0.83251 0.83586 0.0
C4949 C 0.49737 0.83489 0.84397 0.0
C4950 C 0.49969 0.83037 0.85176 0.0
C4951 C 0.5059 0.82349 0.85145 0.0
C4952 C 0.50977 0.82109 0.84335 0.0
C4953 C 0.54856 0.82768 0.81068 0.0
C4954 C 0.55395 0.82289 0.81665 0.0
C4955 C 0.53924 0.82714 0.81119 0.0
C4956 C 0.53505 0.82173 0.81761 0.0
C4957 C 0.5404 0.817 0.82364 0.0
C4958 C 0.54974 0.81755 0.82315 0.0
C4959 C 0.52511 0.82106 0.81808 0.0
C4960 C 0.52084 0.82303 0.82615 0.0
C4961 C 0.51982 0.81882 0.81057 0.0
C4962 C 0.52388 0.81619 0.80197 0.0
C4963 C 0.52999 0.80915 0.80158 0.0
C4964 C 0.53384 0.80676 0.79348 0.0
C4965 C 0.53158 0.81132 0.78569 0.0
C4966 C 0.52545 0.81826 0.786 0.0
C4967 C 0.52158 0.82068 0.7941 0.0
H4968 H 0.53457 0.80946 0.77942 0.0
H4969 H 0.4967 0.83222 0.85803 0.0
H4970 H 0.21895 0.47722 0.80892 0.0
H4971 H 0.21813 0.49348 0.80801 0.0
H4972 H 0.2024 0.4939 0.83201 0.0
H4973 H 0.20302 0.47762 0.83286 0.0
H4974 H 0.19592 0.50544 0.81969 0.0
H4975 H 0.22446 0.49894 0.83261 0.0
H4976 H 0.23922 0.49186 0.83339 0.0
H4977 H 0.24691 0.50467 0.80898 0.0
H4978 H 0.23215 0.51174 0.80798 0.0
H4979 H 0.20207 0.55082 0.83227 0.0
H4980 H 0.20163 0.53455 0.83142 0.0
H4981 H 0.218 0.53549 0.80786 0.0
H4982 H 0.21867 0.55179 0.8088 0.0
H4983 H 0.22403 0.52324 0.81925 0.0
H4984 H 0.19568 0.53033 0.80667 0.0
H4985 H 0.18092 0.5374 0.80592 0.0
H4986 H 0.17281 0.52356 0.82963 0.0
H4987 H 0.18757 0.51649 0.8306 0.0
C4988 C 0.21521 0.48075 0.81395 0.0
C4989 C 0.21109 0.47609 0.82099 0.0
C4990 C 0.21481 0.49007 0.81345 0.0
C4991 C 0.21029 0.49495 0.82 0.0
C4992 C 0.20596 0.4903 0.82689 0.0
C4993 C 0.20638 0.48099 0.82741 0.0
C4994 C 0.21027 0.5049 0.81979 0.0
C4995 C 0.20206 0.50934 0.81969 0.0
C4996 C 0.21828 0.51 0.81958 0.0
C4997 C 0.22717 0.50579 0.82017 0.0
C4998 C 0.22928 0.50019 0.82737 0.0
C4999 C 0.23765 0.49619 0.82786 0.0
C5000 C 0.24399 0.49779 0.82122 0.0
C5001 C 0.24199 0.50342 0.8141 0.0
C5002 C 0.23362 0.50743 0.81357 0.0
C5003 C 0.20559 0.54758 0.82691 0.0
C5004 C 0.21042 0.55264 0.82061 0.0
C5005 C 0.20527 0.53826 0.82638 0.0
C5006 C 0.20972 0.53376 0.81953 0.0
C5007 C 0.21449 0.53879 0.81319 0.0
C5008 C 0.2148 0.54813 0.8137 0.0
C5009 C 0.20967 0.52381 0.81917 0.0
C5010 C 0.21787 0.51936 0.81919 0.0
C5011 C 0.20165 0.5187 0.8193 0.0
C5012 C 0.19277 0.52295 0.81875 0.0
C5013 C 0.19078 0.52885 0.81177 0.0
C5014 C 0.18241 0.53285 0.81129 0.0
C5015 C 0.17594 0.53095 0.81774 0.0
C5016 C 0.17783 0.52503 0.82465 0.0
C5017 C 0.18619 0.52102 0.82516 0.0
H5018 H 0.16946 0.53405 0.81736 0.0
H5019 H 0.25047 0.49469 0.82162 0.0
H5020 H 0.55281 0.1991 0.81246 0.0
H5021 H 0.53652 0.19821 0.81135 0.0
H5022 H 0.53433 0.22121 0.82837 0.0
H5023 H 0.55057 0.22219 0.82945 0.0
H5024 H 0.5226 0.20854 0.83328 0.0
H5025 H 0.53103 0.22273 0.80585 0.0
H5026 H 0.53917 0.22431 0.79168 0.0
H5027 H 0.52735 0.19987 0.78224 0.0
H5028 H 0.51923 0.19808 0.79641 0.0
H5029 H 0.47684 0.21831 0.82488 0.0
H5030 H 0.49312 0.21893 0.82614 0.0
H5031 H 0.49511 0.19597 0.80904 0.0
H5032 H 0.47887 0.19525 0.80781 0.0
H5033 H 0.50695 0.2085 0.80419 0.0
H5034 H 0.49845 0.19433 0.83153 0.0
H5035 H 0.49032 0.1927 0.8457 0.0
H5036 H 0.50227 0.21701 0.8553 0.0
H5037 H 0.51038 0.21886 0.84113 0.0
C5038 C 0.54887 0.20403 0.8159 0.0
C5039 C 0.55305 0.21072 0.82105 0.0
C5040 C 0.53955 0.2035 0.81527 0.0
C5041 C 0.53417 0.20969 0.81973 0.0
C5042 C 0.53831 0.21634 0.8249 0.0
C5043 C 0.54762 0.21687 0.82553 0.0
C5044 C 0.52423 0.20922 0.81906 0.0
C5045 C 0.51918 0.20865 0.82692 0.0
C5046 C 0.51973 0.20915 0.81076 0.0
C5047 C 0.52459 0.21022 0.80223 0.0
C5048 C 0.53022 0.21765 0.80078 0.0
C5049 C 0.53483 0.21859 0.79275 0.0
C5050 C 0.5338 0.21218 0.78608 0.0
C5051 C 0.52815 0.20482 0.78742 0.0
C5052 C 0.52354 0.20385 0.79545 0.0
C5053 C 0.48072 0.21332 0.82146 0.0
C5054 C 0.4765 0.20674 0.81623 0.0
C5055 C 0.49005 0.2137 0.82218 0.0
C5056 C 0.49538 0.20746 0.81773 0.0
C5057 C 0.49118 0.20088 0.8125 0.0
C5058 C 0.48186 0.2005 0.81178 0.0
C5059 C 0.50532 0.20783 0.81841 0.0
C5060 C 0.51037 0.20839 0.81055 0.0
C5061 C 0.50981 0.20788 0.8267 0.0
C5062 C 0.50495 0.20678 0.83523 0.0
C5063 C 0.49928 0.19937 0.83663 0.0
C5064 C 0.49469 0.1984 0.84467 0.0
C5065 C 0.49576 0.20476 0.85139 0.0
C5066 C 0.50144 0.21209 0.85009 0.0
C5067 C 0.50604 0.21311 0.84205 0.0
H5068 H 0.4922 0.20399 0.85761 0.0
H5069 H 0.53737 0.21292 0.77986 0.0
H5070 H 0.81456 0.55079 0.8043 0.0
H5071 H 0.81405 0.53455 0.80546 0.0
H5072 H 0.82763 0.53601 0.83074 0.0
H5073 H 0.8284 0.55229 0.82949 0.0
H5074 H 0.83485 0.52346 0.82048 0.0
H5075 H 0.80532 0.53073 0.82951 0.0
H5076 H 0.79062 0.53788 0.82849 0.0
H5077 H 0.78517 0.52391 0.80414 0.0
H5078 H 0.7999 0.51676 0.80494 0.0
H5079 H 0.82855 0.47708 0.82928 0.0
H5080 H 0.82772 0.49333 0.83055 0.0
H5081 H 0.81463 0.49458 0.80503 0.0
H5082 H 0.81522 0.47834 0.80382 0.0
H5083 H 0.80694 0.50576 0.81668 0.0
H5084 H 0.83693 0.49933 0.80726 0.0
H5085 H 0.85166 0.49222 0.80833 0.0
H5086 H 0.85615 0.50468 0.83367 0.0
H5087 H 0.84139 0.51178 0.8328 0.0
C5088 C 0.81746 0.54767 0.81011 0.0
C5089 C 0.82154 0.55288 0.81679 0.0
C5090 C 0.81708 0.53837 0.81081 0.0
C5091 C 0.82072 0.53402 0.81823 0.0
C5092 C 0.82475 0.53919 0.82495 0.0
C5093 C 0.82512 0.54852 0.82426 0.0
C5094 C 0.8206 0.52408 0.8188 0.0
C5095 C 0.82872 0.5196 0.81981 0.0
C5096 C 0.81263 0.519 0.81775 0.0
C5097 C 0.80376 0.52327 0.81725 0.0
C5098 C 0.80102 0.52924 0.8239 0.0
C5099 C 0.79268 0.53328 0.82337 0.0
C5100 C 0.78697 0.53137 0.81625 0.0
C5101 C 0.7896 0.52539 0.80965 0.0
C5102 C 0.79794 0.52133 0.81014 0.0
C5103 C 0.82539 0.48079 0.82399 0.0
C5104 C 0.822 0.47638 0.81642 0.0
C5105 C 0.82499 0.4901 0.82469 0.0
C5106 C 0.82122 0.49522 0.81783 0.0
C5107 C 0.81761 0.4908 0.81039 0.0
C5108 C 0.81802 0.48151 0.80968 0.0
C5109 C 0.8212 0.50516 0.81827 0.0
C5110 C 0.81305 0.50963 0.81743 0.0
C5111 C 0.82914 0.51024 0.81949 0.0
C5112 C 0.83802 0.506 0.82001 0.0
C5113 C 0.84103 0.50049 0.81309 0.0
C5114 C 0.84939 0.49648 0.81366 0.0
C5115 C 0.85482 0.49797 0.82108 0.0
C5116 C 0.85192 0.50351 0.82794 0.0
C5117 C 0.84357 0.50754 0.82741 0.0
H5118 H 0.86129 0.49486 0.8215 0.0
H5119 H 0.78051 0.5345 0.81585 0.0
H5120 H 0.47902 0.19553 0.21853 0.0
H5121 H 0.49526 0.19632 0.21734 0.0
H5122 H 0.49315 0.21824 0.19893 0.0
H5123 H 0.47686 0.21759 0.20016 0.0
H5124 H 0.5054 0.20627 0.19338 0.0
H5125 H 0.49913 0.2219 0.22042 0.0
H5126 H 0.49255 0.22396 0.2353 0.0
H5127 H 0.50723 0.20158 0.24514 0.0
H5128 H 0.51381 0.19931 0.23028 0.0
H5129 H 0.55057 0.22107 0.19525 0.0
H5130 H 0.53434 0.21999 0.19624 0.0
H5131 H 0.53662 0.19825 0.21485 0.0
H5132 H 0.55291 0.19919 0.21381 0.0
H5133 H 0.52427 0.21002 0.22029 0.0
H5134 H 0.53062 0.19441 0.19332 0.0
H5135 H 0.53718 0.19228 0.17845 0.0
H5136 H 0.52237 0.2145 0.16846 0.0
H5137 H 0.51581 0.21685 0.18331 0.0
C5138 C 0.48199 0.20059 0.21429 0.0
C5139 C 0.47658 0.20655 0.20951 0.0
C5140 C 0.4913 0.20101 0.2136 0.0
C5141 C 0.49546 0.20741 0.20813 0.0
C5142 C 0.4901 0.21325 0.2032 0.0
C5143 C 0.48077 0.21284 0.20389 0.0
C5144 C 0.50539 0.20801 0.20759 0.0
C5145 C 0.50952 0.20722 0.19925 0.0
C5146 C 0.51081 0.20902 0.21527 0.0
C5147 C 0.50689 0.21039 0.22422 0.0
C5148 C 0.5009 0.21738 0.22574 0.0
C5149 C 0.49718 0.21859 0.23417 0.0
C5150 C 0.49946 0.21289 0.24116 0.0
C5151 C 0.50547 0.20598 0.23972 0.0
C5152 C 0.5092 0.20473 0.2313 0.0
C5153 C 0.54765 0.21597 0.19947 0.0
C5154 C 0.55311 0.21017 0.2044 0.0
C5155 C 0.53834 0.21538 0.20005 0.0
C5156 C 0.53422 0.20897 0.20554 0.0
C5157 C 0.53963 0.20325 0.21057 0.0
C5158 C 0.54896 0.20383 0.20999 0.0
C5159 C 0.52429 0.20829 0.20607 0.0
C5160 C 0.52016 0.20907 0.21442 0.0
C5161 C 0.51888 0.20726 0.1984 0.0
C5162 C 0.52279 0.20586 0.18945 0.0
C5163 C 0.52882 0.19889 0.18797 0.0
C5164 C 0.53253 0.19764 0.17954 0.0
C5165 C 0.53021 0.20327 0.17252 0.0
C5166 C 0.52417 0.21015 0.17391 0.0
C5167 C 0.52045 0.21145 0.18233 0.0
H5168 H 0.53309 0.20228 0.166 0.0
H5169 H 0.49657 0.21383 0.24768 0.0
H5170 H 0.83439 0.47906 0.21895 0.0
H5171 H 0.83367 0.49526 0.21803 0.0
H5172 H 0.81211 0.4931 0.1991 0.0
H5173 H 0.81272 0.47679 0.20007 0.0
H5174 H 0.82422 0.50599 0.19421 0.0
H5175 H 0.8077 0.49856 0.22037 0.0
H5176 H 0.80492 0.4913 0.23484 0.0
H5177 H 0.82725 0.50545 0.24619 0.0
H5178 H 0.83024 0.5127 0.23174 0.0
H5179 H 0.81413 0.55253 0.1981 0.0
H5180 H 0.81302 0.53622 0.19793 0.0
H5181 H 0.83369 0.5348 0.21785 0.0
H5182 H 0.8346 0.55104 0.21831 0.0
H5183 H 0.82058 0.52362 0.22185 0.0
H5184 H 0.83758 0.53038 0.19541 0.0
H5185 H 0.8404 0.53753 0.18088 0.0
H5186 H 0.81706 0.52466 0.17006 0.0
H5187 H 0.81404 0.51753 0.18456 0.0
C5188 C 0.82942 0.48199 0.21465 0.0
C5189 C 0.82354 0.47657 0.20967 0.0
C5190 C 0.82904 0.49129 0.21411 0.0
C5191 C 0.82275 0.49544 0.2086 0.0
C5192 C 0.81702 0.49007 0.20342 0.0
C5193 C 0.81739 0.48074 0.20397 0.0
C5194 C 0.82215 0.50536 0.20837 0.0
C5195 C 0.82328 0.50985 0.20023 0.0
C5196 C 0.82105 0.51042 0.21623 0.0
C5197 C 0.81924 0.50612 0.22495 0.0
C5198 C 0.81206 0.50007 0.22593 0.0
C5199 C 0.81044 0.49597 0.23413 0.0
C5200 C 0.81592 0.4979 0.24142 0.0
C5201 C 0.82301 0.50396 0.24053 0.0
C5202 C 0.82467 0.50807 0.23234 0.0
C5203 C 0.8184 0.54876 0.2025 0.0
C5204 C 0.8245 0.55315 0.20818 0.0
C5205 C 0.81781 0.53941 0.20233 0.0
C5206 C 0.82335 0.53424 0.20781 0.0
C5207 C 0.82937 0.53861 0.21353 0.0
C5208 C 0.82994 0.54793 0.21372 0.0
C5209 C 0.82284 0.52429 0.20772 0.0
C5210 C 0.82147 0.51978 0.21581 0.0
C5211 C 0.82371 0.51923 0.19981 0.0
C5212 C 0.82553 0.5235 0.19109 0.0
C5213 C 0.83301 0.52913 0.18995 0.0
C5214 C 0.83465 0.53317 0.18172 0.0
C5215 C 0.8289 0.53157 0.17456 0.0
C5216 C 0.82151 0.52591 0.17561 0.0
C5217 C 0.81983 0.52186 0.18383 0.0
H5218 H 0.83018 0.53471 0.16819 0.0
H5219 H 0.81465 0.49471 0.24777 0.0
H5220 H 0.55141 0.8327 0.21895 0.0
H5221 H 0.53517 0.83206 0.21767 0.0
H5222 H 0.53719 0.81085 0.19846 0.0
H5223 H 0.55348 0.81136 0.19978 0.0
H5224 H 0.52502 0.82309 0.1933 0.0
H5225 H 0.5311 0.80642 0.21981 0.0
H5226 H 0.53763 0.80377 0.23463 0.0
H5227 H 0.52311 0.82589 0.24519 0.0
H5228 H 0.51659 0.82875 0.2304 0.0
H5229 H 0.47973 0.80864 0.19448 0.0
H5230 H 0.49596 0.80954 0.19556 0.0
H5231 H 0.49383 0.83057 0.21495 0.0
H5232 H 0.47753 0.82979 0.21383 0.0
H5233 H 0.50606 0.81851 0.22 0.0
H5234 H 0.49991 0.83516 0.19356 0.0
H5235 H 0.4934 0.83789 0.17875 0.0
H5236 H 0.50804 0.81591 0.16805 0.0
H5237 H 0.51455 0.81297 0.18284 0.0
C5238 C 0.54842 0.82781 0.21452 0.0
C5239 C 0.5538 0.82202 0.20953 0.0
C5240 C 0.53911 0.82749 0.21377 0.0
C5241 C 0.53492 0.82133 0.20805 0.0
C5242 C 0.54025 0.81566 0.20292 0.0
C5243 C 0.54958 0.81597 0.20367 0.0
C5244 C 0.52498 0.82083 0.20745 0.0
C5245 C 0.52088 0.82196 0.19912 0.0
C5246 C 0.51954 0.81958 0.21506 0.0
C5247 C 0.52342 0.81785 0.22397 0.0
C5248 C 0.52935 0.81076 0.22528 0.0
C5249 C 0.53305 0.80922 0.23367 0.0
C5250 C 0.53081 0.81467 0.24084 0.0
C5251 C 0.52485 0.82168 0.23963 0.0
C5252 C 0.52115 0.82326 0.23124 0.0
C5253 C 0.48268 0.81355 0.1989 0.0
C5254 C 0.47727 0.81919 0.20402 0.0
C5255 C 0.492 0.81404 0.19952 0.0
C5256 C 0.49616 0.8202 0.20525 0.0
C5257 C 0.49079 0.82576 0.21047 0.0
C5258 C 0.48146 0.82528 0.20985 0.0
C5259 C 0.50609 0.82077 0.20585 0.0
C5260 C 0.51019 0.81964 0.21417 0.0
C5261 C 0.51153 0.82204 0.19823 0.0
C5262 C 0.50765 0.8238 0.18933 0.0
C5263 C 0.50169 0.83087 0.18807 0.0
C5264 C 0.498 0.83246 0.17967 0.0
C5265 C 0.50028 0.82706 0.17247 0.0
C5266 C 0.50627 0.82008 0.17364 0.0
C5267 C 0.50996 0.81845 0.18203 0.0
H5268 H 0.49743 0.8283 0.16598 0.0
H5269 H 0.53367 0.81347 0.24734 0.0
H5270 H 0.20186 0.55103 0.19577 0.0
H5271 H 0.20113 0.53472 0.19607 0.0
H5272 H 0.22062 0.5344 0.2172 0.0
H5273 H 0.22139 0.55069 0.21692 0.0
H5274 H 0.2249 0.52272 0.20489 0.0
H5275 H 0.19804 0.52961 0.22077 0.0
H5276 H 0.18346 0.53672 0.22309 0.0
H5277 H 0.17295 0.52335 0.20003 0.0
H5278 H 0.18751 0.51625 0.19751 0.0
H5279 H 0.22161 0.47713 0.2163 0.0
H5280 H 0.22074 0.49338 0.21684 0.0
H5281 H 0.20155 0.49294 0.19543 0.0
H5282 H 0.20235 0.47665 0.1949 0.0
H5283 H 0.1969 0.50497 0.20769 0.0
H5284 H 0.22365 0.49824 0.19169 0.0
H5285 H 0.2382 0.49111 0.18924 0.0
H5286 H 0.24886 0.50427 0.21234 0.0
H5287 H 0.23434 0.51139 0.215 0.0
C5288 C 0.20589 0.5475 0.20058 0.0
C5289 C 0.2117 0.5522 0.20632 0.0
C5290 C 0.20547 0.53815 0.20074 0.0
C5291 C 0.21077 0.53329 0.2067 0.0
C5292 C 0.21648 0.53798 0.21251 0.0
C5293 C 0.21693 0.5473 0.21233 0.0
C5294 C 0.21066 0.52332 0.20668 0.0
C5295 C 0.21878 0.51885 0.20564 0.0
C5296 C 0.20266 0.51823 0.20739 0.0
C5297 C 0.19389 0.52247 0.20891 0.0
C5298 C 0.19264 0.52824 0.21616 0.0
C5299 C 0.18438 0.53226 0.21751 0.0
C5300 C 0.17729 0.5305 0.2117 0.0
C5301 C 0.17845 0.52471 0.20453 0.0
C5302 C 0.1867 0.52068 0.20314 0.0
C5303 C 0.21721 0.48048 0.21169 0.0
C5304 C 0.21211 0.47556 0.2055 0.0
C5305 C 0.21672 0.48979 0.212 0.0
C5306 C 0.21119 0.49444 0.20607 0.0
C5307 C 0.20587 0.48954 0.20007 0.0
C5308 C 0.20633 0.4802 0.19979 0.0
C5309 C 0.21115 0.5044 0.20599 0.0
C5310 C 0.20301 0.50886 0.20697 0.0
C5311 C 0.21913 0.5095 0.2052 0.0
C5312 C 0.22788 0.50528 0.20358 0.0
C5313 C 0.22908 0.49957 0.19628 0.0
C5314 C 0.23732 0.49553 0.19485 0.0
C5315 C 0.24444 0.49722 0.20065 0.0
C5316 C 0.24334 0.50296 0.20787 0.0
C5317 C 0.23511 0.507 0.20933 0.0
H5318 H 0.25082 0.49409 0.19953 0.0
H5319 H 0.1709 0.53362 0.21276 0.0
H5320 H 0.81292 0.80992 0.47594 0.0
H5321 H 0.81229 0.81068 0.49217 0.0
H5322 H 0.83402 0.82979 0.49218 0.0
H5323 H 0.83472 0.82902 0.47595 0.0
H5324 H 0.83691 0.81758 0.50431 0.0
H5325 H 0.81195 0.83575 0.49661 0.0
H5326 H 0.79775 0.83939 0.48921 0.0
H5327 H 0.78469 0.81767 0.50275 0.0
H5328 H 0.79885 0.81382 0.51015 0.0
H5329 H 0.83424 0.82945 0.54977 0.0
H5330 H 0.83365 0.83011 0.53354 0.0
H5331 H 0.81251 0.81034 0.53344 0.0
H5332 H 0.81304 0.80968 0.54971 0.0
H5333 H 0.8092 0.8231 0.52139 0.0
H5334 H 0.83429 0.80479 0.5288 0.0
H5335 H 0.84849 0.80124 0.53625 0.0
H5336 H 0.86131 0.82341 0.52318 0.0
H5337 H 0.84714 0.82716 0.51574 0.0
C5338 C 0.81748 0.81439 0.47938 0.0
C5339 C 0.82387 0.81941 0.47461 0.0
C5340 C 0.81712 0.81481 0.48869 0.0
C5341 C 0.82305 0.82036 0.49345 0.0
C5342 C 0.82938 0.82544 0.48869 0.0
C5343 C 0.82978 0.82498 0.47939 0.0
C5344 C 0.82291 0.82061 0.50339 0.0
C5345 C 0.83087 0.81893 0.50803 0.0
C5346 C 0.815 0.82214 0.5083 0.0
C5347 C 0.80648 0.82445 0.50387 0.0
C5348 C 0.80607 0.83171 0.49796 0.0
C5349 C 0.79802 0.83382 0.49377 0.0
C5350 C 0.79033 0.82875 0.49549 0.0
C5351 C 0.79066 0.82158 0.50141 0.0
C5352 C 0.79869 0.81944 0.50561 0.0
C5353 C 0.82947 0.82522 0.54631 0.0
C5354 C 0.82374 0.81945 0.55107 0.0
C5355 C 0.82914 0.82561 0.53701 0.0
C5356 C 0.82314 0.82016 0.53222 0.0
C5357 C 0.81721 0.8146 0.53696 0.0
C5358 C 0.81751 0.81424 0.54628 0.0
C5359 C 0.8232 0.82011 0.52228 0.0
C5360 C 0.81524 0.82179 0.51766 0.0
C5361 C 0.8311 0.81859 0.51737 0.0
C5362 C 0.83964 0.8163 0.52178 0.0
C5363 C 0.84013 0.80894 0.52756 0.0
C5364 C 0.84817 0.80689 0.53177 0.0
C5365 C 0.85579 0.81211 0.5302 0.0
C5366 C 0.85539 0.81938 0.5244 0.0
C5367 C 0.84736 0.82146 0.52017 0.0
H5368 H 0.86201 0.81051 0.53347 0.0
H5369 H 0.78411 0.8304 0.49224 0.0
H5370 H 0.82697 0.19734 0.55106 0.0
H5371 H 0.82608 0.19621 0.53483 0.0
H5372 H 0.8171 0.22339 0.53337 0.0
H5373 H 0.81772 0.22449 0.54958 0.0
H5374 H 0.80778 0.21301 0.52209 0.0
H5375 H 0.8389 0.21788 0.52906 0.0
H5376 H 0.85322 0.21458 0.53639 0.0
H5377 H 0.85359 0.18885 0.52389 0.0
H5378 H 0.8392 0.19196 0.51657 0.0
H5379 H 0.81749 0.22465 0.47751 0.0
H5380 H 0.81677 0.22336 0.49368 0.0
H5381 H 0.82614 0.19632 0.49207 0.0
H5382 H 0.82713 0.19766 0.47584 0.0
H5383 H 0.83483 0.20525 0.50488 0.0
H5384 H 0.80429 0.20073 0.49702 0.0
H5385 H 0.78998 0.20397 0.48964 0.0
H5386 H 0.7884 0.22879 0.50375 0.0
H5387 H 0.80277 0.22576 0.51112 0.0
C5388 C 0.82469 0.20304 0.5473 0.0
C5389 C 0.82247 0.21103 0.55165 0.0
C5390 C 0.82426 0.20241 0.538 0.0
C5391 C 0.82164 0.20976 0.53284 0.0
C5392 C 0.81919 0.21764 0.53718 0.0
C5393 C 0.81962 0.21828 0.54646 0.0
C5394 C 0.8216 0.20933 0.52292 0.0
C5395 C 0.81372 0.21139 0.51833 0.0
C5396 C 0.82927 0.20698 0.51798 0.0
C5397 C 0.83793 0.20511 0.52235 0.0
C5398 C 0.842 0.21149 0.52793 0.0
C5399 C 0.85014 0.20966 0.53207 0.0
C5400 C 0.8543 0.2015 0.53062 0.0
C5401 C 0.85035 0.19516 0.52501 0.0
C5402 C 0.84221 0.19696 0.52086 0.0
C5403 C 0.81943 0.21842 0.48057 0.0
C5404 C 0.82239 0.21126 0.47534 0.0
C5405 C 0.81893 0.21767 0.48984 0.0
C5406 C 0.82131 0.20971 0.49412 0.0
C5407 C 0.82423 0.20252 0.48893 0.0
C5408 C 0.82472 0.20327 0.47964 0.0
C5409 C 0.82103 0.20904 0.50403 0.0
C5410 C 0.82886 0.20679 0.50863 0.0
C5411 C 0.8133 0.2112 0.50898 0.0
C5412 C 0.80465 0.21305 0.50456 0.0
C5413 C 0.80093 0.20691 0.49849 0.0
C5414 C 0.7928 0.20871 0.49432 0.0
C5415 C 0.78829 0.21659 0.49621 0.0
C5416 C 0.7919 0.22269 0.50229 0.0
C5417 C 0.80003 0.22093 0.50647 0.0
H5418 H 0.782 0.21796 0.49298 0.0
H5419 H 0.8606 0.20009 0.53384 0.0
H5420 H 0.19868 0.82699 0.47545 0.0
H5421 H 0.19756 0.82618 0.49168 0.0
H5422 H 0.22361 0.8143 0.49296 0.0
H5423 H 0.22468 0.81486 0.47674 0.0
H5424 H 0.21229 0.80613 0.50431 0.0
H5425 H 0.22061 0.8365 0.49735 0.0
H5426 H 0.21895 0.85111 0.49003 0.0
H5427 H 0.19348 0.85442 0.50259 0.0
H5428 H 0.19494 0.83976 0.5099 0.0
H5429 H 0.22481 0.81452 0.549 0.0
H5430 H 0.22354 0.81393 0.53282 0.0
H5431 H 0.19769 0.8262 0.53428 0.0
H5432 H 0.19903 0.82704 0.5505 0.0
H5433 H 0.20762 0.83388 0.52155 0.0
H5434 H 0.1997 0.80401 0.52936 0.0
H5435 H 0.2013 0.78942 0.53671 0.0
H5436 H 0.22581 0.7851 0.52266 0.0
H5437 H 0.22442 0.79973 0.51531 0.0
C5438 C 0.20413 0.82409 0.47917 0.0
C5439 C 0.2118 0.82104 0.47477 0.0
C5440 C 0.20351 0.82371 0.48847 0.0
C5441 C 0.21055 0.82029 0.49358 0.0
C5442 C 0.2181 0.817 0.48919 0.0
C5443 C 0.21873 0.8174 0.4799 0.0
C5444 C 0.21018 0.82029 0.5035 0.0
C5445 C 0.21136 0.81222 0.50808 0.0
C5446 C 0.20872 0.82817 0.50845 0.0
C5447 C 0.20784 0.83699 0.50409 0.0
C5448 C 0.21463 0.84031 0.49849 0.0
C5449 C 0.21373 0.84861 0.49436 0.0
C5450 C 0.2061 0.85368 0.49582 0.0
C5451 C 0.19937 0.85048 0.50145 0.0
C5452 C 0.20023 0.84218 0.50559 0.0
C5453 C 0.21886 0.81712 0.54589 0.0
C5454 C 0.21203 0.82085 0.55108 0.0
C5455 C 0.2181 0.81669 0.53662 0.0
C5456 C 0.21048 0.81994 0.53229 0.0
C5457 C 0.20362 0.82362 0.53745 0.0
C5458 C 0.20437 0.82403 0.54674 0.0
C5459 C 0.20984 0.81974 0.52238 0.0
C5460 C 0.20848 0.82778 0.5178 0.0
C5461 C 0.21112 0.81182 0.51743 0.0
C5462 C 0.21199 0.80301 0.52184 0.0
C5463 C 0.20547 0.79998 0.52789 0.0
C5464 C 0.20633 0.7917 0.53205 0.0
C5465 C 0.21367 0.78634 0.53017 0.0
C5466 C 0.22014 0.78926 0.52411 0.0
C5467 C 0.21931 0.79754 0.51994 0.0
H5468 H 0.21432 0.77993 0.5334 0.0
H5469 H 0.20542 0.8601 0.49262 0.0
H5470 H 0.20491 0.19244 0.54974 0.0
H5471 H 0.20426 0.19316 0.53352 0.0
H5472 H 0.21562 0.2197 0.53415 0.0
H5473 H 0.21632 0.21902 0.55043 0.0
H5474 H 0.20241 0.21844 0.52177 0.0
H5475 H 0.22857 0.20192 0.52928 0.0
H5476 H 0.2371 0.19009 0.53675 0.0
H5477 H 0.22128 0.17009 0.52347 0.0
H5478 H 0.21257 0.1818 0.51602 0.0
H5479 H 0.216 0.21908 0.47597 0.0
H5480 H 0.21515 0.2198 0.49222 0.0
H5481 H 0.20462 0.19292 0.4929 0.0
H5482 H 0.20543 0.19217 0.4767 0.0
H5483 H 0.21763 0.19477 0.50468 0.0
H5484 H 0.19144 0.2113 0.49711 0.0
H5485 H 0.18287 0.22312 0.4897 0.0
H5486 H 0.19869 0.24313 0.50298 0.0
H5487 H 0.20744 0.23141 0.51038 0.0
C5488 C 0.2073 0.19843 0.54644 0.0
C5489 C 0.21077 0.20563 0.55141 0.0
C5490 C 0.2069 0.19884 0.53715 0.0
C5491 C 0.21003 0.20642 0.53258 0.0
C5492 C 0.21318 0.21376 0.53752 0.0
C5493 C 0.21356 0.21337 0.54683 0.0
C5494 C 0.21027 0.20654 0.52265 0.0
C5495 C 0.20583 0.21333 0.51803 0.0
C5496 C 0.2146 0.1998 0.51774 0.0
C5497 C 0.21987 0.19274 0.52216 0.0
C5498 C 0.22687 0.195 0.528 0.0
C5499 C 0.23174 0.18832 0.53223 0.0
C5500 C 0.22972 0.17934 0.5306 0.0
C5501 C 0.22283 0.17704 0.52473 0.0
C5502 C 0.21793 0.1837 0.5205 0.0
C5503 C 0.21337 0.21337 0.47956 0.0
C5504 C 0.21082 0.20555 0.475 0.0
C5505 C 0.2129 0.21378 0.48887 0.0
C5506 C 0.20979 0.20642 0.49382 0.0
C5507 C 0.2071 0.19867 0.48926 0.0
C5508 C 0.20758 0.19825 0.47998 0.0
C5509 C 0.20968 0.20661 0.50376 0.0
C5510 C 0.21418 0.19988 0.5084 0.0
C5511 C 0.20541 0.21342 0.50866 0.0
C5512 C 0.20016 0.22047 0.50422 0.0
C5513 C 0.19314 0.21822 0.49839 0.0
C5514 C 0.18824 0.2249 0.49421 0.0
C5515 C 0.19025 0.23387 0.49585 0.0
C5516 C 0.19715 0.23617 0.5017 0.0
C5517 C 0.20208 0.22951 0.5059 0.0
H5518 H 0.18644 0.23904 0.49261 0.0
H5519 H 0.2335 0.17418 0.53388 0.0
loop_
_geom_bond_atom_site_label_1
_geom_bond_atom_site_label_2
_geom_bond_distance
_geom_bond_site_symmetry_2
_ccdc_geom_bond_type
C0 C1 1.264 . S
C0 C5 1.479 . S
C0 C10 1.465 . S
C1 C0 1.264 . S
C1 C3 1.339 . S
C1 H28 0.931 . S
C2 C3 1.395 . S
C2 C4 1.320 . S
C3 C1 1.339 . S
C3 C2 1.395 . S
C3 H29 0.929 . S
C4 C2 1.320 . S
C4 C5 1.405 . S
C4 H30 0.930 . S
C5 C0 1.479 . S
C5 C4 1.405 . S
C5 H31 0.931 . S
U6 O7 2.454 . S
U6 O8 2.458 . S
U6 C9 2.984 . S
U6 C10 2.847 . S
U6 C23 2.882 . S
U6 O24 2.441 . S
U6 O25 2.420 . S
U6 O26 2.455 . S
U6 O27 2.449 . S
O7 U6 2.454 . S
O7 C9 1.353 . S
O8 U6 2.458 . S
O8 C9 1.286 . S
C9 U6 2.984 . S
C9 O7 1.353 . S
C9 O8 1.286 . S
C9 C11 1.363 . S
C10 C0 1.465 . S
C10 U6 2.847 . S
C10 O24 1.249 . S
C10 O25 1.202 . S
C11 C9 1.363 . S
C11 C13 1.408 . S
C11 C16 1.342 . S
C12 C13 1.310 . S
C12 C15 1.461 . S
C12 H32 0.932 . S
C13 C11 1.408 . S
C13 C12 1.310 . S
C13 H33 0.930 . S
C14 C15 1.474 . S
C14 C16 1.285 . S
C14 H34 0.929 . S
C15 C12 1.461 . S
C15 C14 1.474 . S
C16 C11 1.342 . S
C16 C14 1.285 . S
C16 H35 0.930 . S
C17 C20 1.424 . S
C17 C22 1.245 . S
C17 C23 1.428 . S
C18 C21 1.260 . S
C18 C22 1.477 . S
C18 H36 0.932 . S
C19 C20 1.384 . S
C19 C21 1.479 . S
C19 H37 0.929 . S
C20 C17 1.424 . S
C20 C19 1.384 . S
C20 H38 0.928 . S
C21 C18 1.260 . S
C21 C19 1.479 . S
C22 C17 1.245 . S
C22 C18 1.477 . S
C22 H39 0.932 . S
C23 U6 2.882 . S
C23 C17 1.428 . S
C23 O26 1.301 . S
C23 O27 1.282 . S
O24 U6 2.441 . S
O24 C10 1.249 . S
O25 U6 2.420 . S
O25 C10 1.202 . S
O26 U6 2.455 . S
O26 C23 1.301 . S
O27 U6 2.449 . S
O27 C23 1.282 . S
H28 C1 0.931 . S
H29 C3 0.929 . S
H30 C4 0.930 . S
H31 C5 0.931 . S
H32 C12 0.932 . S
H33 C13 0.930 . S
H34 C14 0.929 . S
H35 C16 0.930 . S
H36 C18 0.932 . S
H37 C19 0.929 . S
H38 C20 0.928 . S
H39 C22 0.932 . S
C40 C41 1.264 . S
C40 C45 1.479 . S
C40 C50 1.465 . S
C41 C40 1.264 . S
C41 C43 1.339 . S
C41 H68 0.931 . S
C42 C43 1.395 . S
C42 C44 1.320 . S
C43 C41 1.339 . S
C43 C42 1.395 . S
C43 H69 0.929 . S
C44 C42 1.320 . S
C44 C45 1.405 . S
C44 H70 0.930 . S
C45 C40 1.479 . S
C45 C44 1.405 . S
C45 H71 0.931 . S
U46 O47 2.454 . S
U46 O48 2.458 . S
U46 C49 2.984 . S
U46 C50 2.847 . S
U46 C63 2.882 . S
U46 O64 2.441 . S
U46 O65 2.420 . S
U46 O66 2.455 . S
U46 O67 2.449 . S
O47 U46 2.454 . S
O47 C49 1.353 . S
O48 U46 2.458 . S
O48 C49 1.286 . S
C49 U46 2.984 . S
C49 O47 1.353 . S
C49 O48 1.286 . S
C49 C51 1.363 . S
C50 C40 1.465 . S
C50 U46 2.847 . S
C50 O64 1.249 . S
C50 O65 1.202 . S
C51 C49 1.363 . S
C51 C53 1.408 . S
C51 C56 1.342 . S
C52 C53 1.310 . S
C52 C55 1.461 . S
C52 H72 0.932 . S
C53 C51 1.408 . S
C53 C52 1.310 . S
C53 H73 0.930 . S
C54 C55 1.474 . S
C54 C56 1.285 . S
C54 H74 0.929 . S
C55 C52 1.461 . S
C55 C54 1.474 . S
C56 C51 1.342 . S
C56 C54 1.285 . S
C56 H75 0.930 . S
C57 C60 1.424 . S
C57 C62 1.245 . S
C57 C63 1.428 . S
C58 C61 1.260 . S
C58 C62 1.477 . S
C58 H76 0.932 . S
C59 C60 1.384 . S
C59 C61 1.479 . S
C59 H77 0.929 . S
C60 C57 1.424 . S
C60 C59 1.384 . S
C60 H78 0.928 . S
C61 C58 1.260 . S
C61 C59 1.479 . S
C62 C57 1.245 . S
C62 C58 1.477 . S
C62 H79 0.932 . S
C63 U46 2.882 . S
C63 C57 1.428 . S
C63 O66 1.301 . S
C63 O67 1.282 . S
O64 U46 2.441 . S
O64 C50 1.249 . S
O65 U46 2.420 . S
O65 C50 1.202 . S
O66 U46 2.455 . S
O66 C63 1.301 . S
O67 U46 2.449 . S
O67 C63 1.282 . S
H68 C41 0.931 . S
H69 C43 0.929 . S
H70 C44 0.930 . S
H71 C45 0.931 . S
H72 C52 0.932 . S
H73 C53 0.930 . S
H74 C54 0.929 . S
H75 C56 0.930 . S
H76 C58 0.932 . S
H77 C59 0.929 . S
H78 C60 0.928 . S
H79 C62 0.932 . S
C80 C81 1.264 . S
C80 C85 1.479 . S
C80 C90 1.465 . S
C81 C80 1.264 . S
C81 C83 1.339 . S
C81 H108 0.931 . S
C82 C83 1.395 . S
C82 C84 1.320 . S
C83 C81 1.339 . S
C83 C82 1.395 . S
C83 H109 0.929 . S
C84 C82 1.320 . S
C84 C85 1.405 . S
C84 H110 0.930 . S
C85 C80 1.479 . S
C85 C84 1.405 . S
C85 H111 0.931 . S
U86 O87 2.454 . S
U86 O88 2.458 . S
U86 C89 2.984 . S
U86 C90 2.847 . S
U86 C103 2.882 . S
U86 O104 2.441 . S
U86 O105 2.420 . S
U86 O106 2.455 . S
U86 O107 2.449 . S
O87 U86 2.454 . S
O87 C89 1.353 . S
O88 U86 2.458 . S
O88 C89 1.286 . S
C89 U86 2.984 . S
C89 O87 1.353 . S
C89 O88 1.286 . S
C89 C91 1.363 . S
C90 C80 1.465 . S
C90 U86 2.847 . S
C90 O104 1.249 . S
C90 O105 1.202 . S
C91 C89 1.363 . S
C91 C93 1.408 . S
C91 C96 1.342 . S
C92 C93 1.310 . S
C92 C95 1.461 . S
C92 H112 0.932 . S
C93 C91 1.408 . S
C93 C92 1.310 . S
C93 H113 0.930 . S
C94 C95 1.474 . S
C94 C96 1.285 . S
C94 H114 0.929 . S
C95 C92 1.461 . S
C95 C94 1.474 . S
C96 C91 1.342 . S
C96 C94 1.285 . S
C96 H115 0.930 . S
C97 C100 1.424 . S
C97 C102 1.245 . S
C97 C103 1.428 . S
C98 C101 1.260 . S
C98 C102 1.477 . S
C98 H116 0.932 . S
C99 C100 1.384 . S
C99 C101 1.479 . S
C99 H117 0.929 . S
C100 C97 1.424 . S
C100 C99 1.384 . S
C100 H118 0.928 . S
C101 C98 1.260 . S
C101 C99 1.479 . S
C102 C97 1.245 . S
C102 C98 1.477 . S
C102 H119 0.932 . S
C103 U86 2.882 . S
C103 C97 1.428 . S
C103 O106 1.301 . S
C103 O107 1.282 . S
O104 U86 2.441 . S
O104 C90 1.249 . S
O105 U86 2.420 . S
O105 C90 1.202 . S
O106 U86 2.455 . S
O106 C103 1.301 . S
O107 U86 2.449 . S
O107 C103 1.282 . S
H108 C81 0.931 . S
H109 C83 0.929 . S
H110 C84 0.930 . S
H111 C85 0.931 . S
H112 C92 0.932 . S
H113 C93 0.930 . S
H114 C94 0.929 . S
H115 C96 0.930 . S
H116 C98 0.932 . S
H117 C99 0.929 . S
H118 C100 0.928 . S
H119 C102 0.932 . S
C120 C121 1.264 . S
C120 C125 1.479 . S
C120 C130 1.465 . S
C121 C120 1.264 . S
C121 C123 1.339 . S
C121 H148 0.931 . S
C122 C123 1.395 . S
C122 C124 1.320 . S
C123 C121 1.339 . S
C123 C122 1.395 . S
C123 H149 0.929 . S
C124 C122 1.320 . S
C124 C125 1.405 . S
C124 H150 0.930 . S
C125 C120 1.479 . S
C125 C124 1.405 . S
C125 H151 0.931 . S
U126 O127 2.454 . S
U126 O128 2.458 . S
U126 C129 2.984 . S
U126 C130 2.847 . S
U126 C143 2.882 . S
U126 O144 2.441 . S
U126 O145 2.420 . S
U126 O146 2.455 . S
U126 O147 2.449 . S
O127 U126 2.454 . S
O127 C129 1.353 . S
O128 U126 2.458 . S
O128 C129 1.286 . S
C129 U126 2.984 . S
C129 O127 1.353 . S
C129 O128 1.286 . S
C129 C131 1.363 . S
C130 C120 1.465 . S
C130 U126 2.847 . S
C130 O144 1.249 . S
C130 O145 1.202 . S
C131 C129 1.363 . S
C131 C133 1.408 . S
C131 C136 1.342 . S
C132 C133 1.310 . S
C132 C135 1.461 . S
C132 H152 0.932 . S
C133 C131 1.408 . S
C133 C132 1.310 . S
C133 H153 0.930 . S
C134 C135 1.474 . S
C134 C136 1.285 . S
C134 H154 0.929 . S
C135 C132 1.461 . S
C135 C134 1.474 . S
C136 C131 1.342 . S
C136 C134 1.285 . S
C136 H155 0.930 . S
C137 C140 1.424 . S
C137 C142 1.245 . S
C137 C143 1.428 . S
C138 C141 1.260 . S
C138 C142 1.477 . S
C138 H156 0.932 . S
C139 C140 1.384 . S
C139 C141 1.479 . S
C139 H157 0.929 . S
C140 C137 1.424 . S
C140 C139 1.384 . S
C140 H158 0.928 . S
C141 C138 1.260 . S
C141 C139 1.479 . S
C142 C137 1.245 . S
C142 C138 1.477 . S
C142 H159 0.932 . S
C143 U126 2.882 . S
C143 C137 1.428 . S
C143 O146 1.301 . S
C143 O147 1.282 . S
O144 U126 2.441 . S
O144 C130 1.249 . S
O145 U126 2.420 . S
O145 C130 1.202 . S
O146 U126 2.455 . S
O146 C143 1.301 . S
O147 U126 2.449 . S
O147 C143 1.282 . S
H148 C121 0.931 . S
H149 C123 0.929 . S
H150 C124 0.930 . S
H151 C125 0.931 . S
H152 C132 0.932 . S
H153 C133 0.930 . S
H154 C134 0.929 . S
H155 C136 0.930 . S
H156 C138 0.932 . S
H157 C139 0.929 . S
H158 C140 0.928 . S
H159 C142 0.932 . S
C160 C161 1.264 . S
C160 C165 1.479 . S
C160 C170 1.465 . S
C161 C160 1.264 . S
C161 C163 1.339 . S
C161 H188 0.931 . S
C162 C163 1.395 . S
C162 C164 1.320 . S
C163 C161 1.339 . S
C163 C162 1.395 . S
C163 H189 0.929 . S
C164 C162 1.320 . S
C164 C165 1.405 . S
C164 H190 0.930 . S
C165 C160 1.479 . S
C165 C164 1.405 . S
C165 H191 0.931 . S
U166 O167 2.454 . S
U166 O168 2.458 . S
U166 C169 2.984 . S
U166 C170 2.847 . S
U166 C183 2.882 . S
U166 O184 2.441 . S
U166 O185 2.420 . S
U166 O186 2.455 . S
U166 O187 2.449 . S
O167 U166 2.454 . S
O167 C169 1.353 . S
O168 U166 2.458 . S
O168 C169 1.286 . S
C169 U166 2.984 . S
C169 O167 1.353 . S
C169 O168 1.286 . S
C169 C171 1.363 . S
C170 C160 1.465 . S
C170 U166 2.847 . S
C170 O184 1.249 . S
C170 O185 1.202 . S
C171 C169 1.363 . S
C171 C173 1.408 . S
C171 C176 1.342 . S
C172 C173 1.310 . S
C172 C175 1.461 . S
C172 H192 0.932 . S
C173 C171 1.408 . S
C173 C172 1.310 . S
C173 H193 0.930 . S
C174 C175 1.474 . S
C174 C176 1.285 . S
C174 H194 0.929 . S
C175 C172 1.461 . S
C175 C174 1.474 . S
C176 C171 1.342 . S
C176 C174 1.285 . S
C176 H195 0.930 . S
C177 C180 1.424 . S
C177 C182 1.245 . S
C177 C183 1.428 . S
C178 C181 1.260 . S
C178 C182 1.477 . S
C178 H196 0.932 . S
C179 C180 1.384 . S
C179 C181 1.479 . S
C179 H197 0.929 . S
C180 C177 1.424 . S
C180 C179 1.384 . S
C180 H198 0.928 . S
C181 C178 1.260 . S
C181 C179 1.479 . S
C182 C177 1.245 . S
C182 C178 1.477 . S
C182 H199 0.932 . S
C183 U166 2.882 . S
C183 C177 1.428 . S
C183 O186 1.301 . S
C183 O187 1.282 . S
O184 U166 2.441 . S
O184 C170 1.249 . S
O185 U166 2.420 . S
O185 C170 1.202 . S
O186 U166 2.455 . S
O186 C183 1.301 . S
O187 U166 2.449 . S
O187 C183 1.282 . S
H188 C161 0.931 . S
H189 C163 0.929 . S
H190 C164 0.930 . S
H191 C165 0.931 . S
H192 C172 0.932 . S
H193 C173 0.930 . S
H194 C174 0.929 . S
H195 C176 0.930 . S
H196 C178 0.932 . S
H197 C179 0.929 . S
H198 C180 0.928 . S
H199 C182 0.932 . S
C200 C201 1.264 . S
C200 C205 1.479 . S
C200 C210 1.465 . S
C201 C200 1.264 . S
C201 C203 1.339 . S
C201 H228 0.931 . S
C202 C203 1.395 . S
C202 C204 1.320 . S
C203 C201 1.339 . S
C203 C202 1.395 . S
C203 H229 0.929 . S
C204 C202 1.320 . S
C204 C205 1.405 . S
C204 H230 0.930 . S
C205 C200 1.479 . S
C205 C204 1.405 . S
C205 H231 0.931 . S
U206 O207 2.454 . S
U206 O208 2.458 . S
U206 C209 2.984 . S
U206 C210 2.847 . S
U206 C223 2.882 . S
U206 O224 2.441 . S
U206 O225 2.420 . S
U206 O226 2.455 . S
U206 O227 2.449 . S
O207 U206 2.454 . S
O207 C209 1.353 . S
O208 U206 2.458 . S
O208 C209 1.286 . S
C209 U206 2.984 . S
C209 O207 1.353 . S
C209 O208 1.286 . S
C209 C211 1.363 . S
C210 C200 1.465 . S
C210 U206 2.847 . S
C210 O224 1.249 . S
C210 O225 1.202 . S
C211 C209 1.363 . S
C211 C213 1.408 . S
C211 C216 1.342 . S
C212 C213 1.310 . S
C212 C215 1.461 . S
C212 H232 0.932 . S
C213 C211 1.408 . S
C213 C212 1.310 . S
C213 H233 0.930 . S
C214 C215 1.474 . S
C214 C216 1.285 . S
C214 H234 0.929 . S
C215 C212 1.461 . S
C215 C214 1.474 . S
C216 C211 1.342 . S
C216 C214 1.285 . S
C216 H235 0.930 . S
C217 C220 1.424 . S
C217 C222 1.245 . S
C217 C223 1.428 . S
C218 C221 1.260 . S
C218 C222 1.477 . S
C218 H236 0.932 . S
C219 C220 1.384 . S
C219 C221 1.479 . S
C219 H237 0.929 . S
C220 C217 1.424 . S
C220 C219 1.384 . S
C220 H238 0.928 . S
C221 C218 1.260 . S
C221 C219 1.479 . S
C222 C217 1.245 . S
C222 C218 1.477 . S
C222 H239 0.932 . S
C223 U206 2.882 . S
C223 C217 1.428 . S
C223 O226 1.301 . S
C223 O227 1.282 . S
O224 U206 2.441 . S
O224 C210 1.249 . S
O225 U206 2.420 . S
O225 C210 1.202 . S
O226 U206 2.455 . S
O226 C223 1.301 . S
O227 U206 2.449 . S
O227 C223 1.282 . S
H228 C201 0.931 . S
H229 C203 0.929 . S
H230 C204 0.930 . S
H231 C205 0.931 . S
H232 C212 0.932 . S
H233 C213 0.930 . S
H234 C214 0.929 . S
H235 C216 0.930 . S
H236 C218 0.932 . S
H237 C219 0.929 . S
H238 C220 0.928 . S
H239 C222 0.932 . S
C240 C241 1.264 . S
C240 C245 1.479 . S
C240 C250 1.465 . S
C241 C240 1.264 . S
C241 C243 1.339 . S
C241 H268 0.931 . S
C242 C243 1.395 . S
C242 C244 1.320 . S
C243 C241 1.339 . S
C243 C242 1.395 . S
C243 H269 0.929 . S
C244 C242 1.320 . S
C244 C245 1.405 . S
C244 H270 0.930 . S
C245 C240 1.479 . S
C245 C244 1.405 . S
C245 H271 0.931 . S
U246 O247 2.454 . S
U246 O248 2.458 . S
U246 C249 2.984 . S
U246 C250 2.847 . S
U246 C263 2.882 . S
U246 O264 2.441 . S
U246 O265 2.420 . S
U246 O266 2.455 . S
U246 O267 2.449 . S
O247 U246 2.454 . S
O247 C249 1.353 . S
O248 U246 2.458 . S
O248 C249 1.286 . S
C249 U246 2.984 . S
C249 O247 1.353 . S
C249 O248 1.286 . S
C249 C251 1.363 . S
C250 C240 1.465 . S
C250 U246 2.847 . S
C250 O264 1.249 . S
C250 O265 1.202 . S
C251 C249 1.363 . S
C251 C253 1.408 . S
C251 C256 1.342 . S
C252 C253 1.310 . S
C252 C255 1.461 . S
C252 H272 0.932 . S
C253 C251 1.408 . S
C253 C252 1.310 . S
C253 H273 0.930 . S
C254 C255 1.474 . S
C254 C256 1.285 . S
C254 H274 0.929 . S
C255 C252 1.461 . S
C255 C254 1.474 . S
C256 C251 1.342 . S
C256 C254 1.285 . S
C256 H275 0.930 . S
C257 C260 1.424 . S
C257 C262 1.245 . S
C257 C263 1.428 . S
C258 C261 1.260 . S
C258 C262 1.477 . S
C258 H276 0.932 . S
C259 C260 1.384 . S
C259 C261 1.479 . S
C259 H277 0.929 . S
C260 C257 1.424 . S
C260 C259 1.384 . S
C260 H278 0.928 . S
C261 C258 1.260 . S
C261 C259 1.479 . S
C262 C257 1.245 . S
C262 C258 1.477 . S
C262 H279 0.932 . S
C263 U246 2.882 . S
C263 C257 1.428 . S
C263 O266 1.301 . S
C263 O267 1.282 . S
O264 U246 2.441 . S
O264 C250 1.249 . S
O265 U246 2.420 . S
O265 C250 1.202 . S
O266 U246 2.455 . S
O266 C263 1.301 . S
O267 U246 2.449 . S
O267 C263 1.282 . S
H268 C241 0.931 . S
H269 C243 0.929 . S
H270 C244 0.930 . S
H271 C245 0.931 . S
H272 C252 0.932 . S
H273 C253 0.930 . S
H274 C254 0.929 . S
H275 C256 0.930 . S
H276 C258 0.932 . S
H277 C259 0.929 . S
H278 C260 0.928 . S
H279 C262 0.932 . S
C280 C281 1.264 . S
C280 C285 1.479 . S
C280 C290 1.465 . S
C281 C280 1.264 . S
C281 C283 1.339 . S
C281 H308 0.931 . S
C282 C283 1.395 . S
C282 C284 1.320 . S
C283 C281 1.339 . S
C283 C282 1.395 . S
C283 H309 0.929 . S
C284 C282 1.320 . S
C284 C285 1.405 . S
C284 H310 0.930 . S
C285 C280 1.479 . S
C285 C284 1.405 . S
C285 H311 0.931 . S
U286 O287 2.454 . S
U286 O288 2.458 . S
U286 C289 2.984 . S
U286 C290 2.847 . S
U286 C303 2.882 . S
U286 O304 2.441 . S
U286 O305 2.420 . S
U286 O306 2.455 . S
U286 O307 2.449 . S
O287 U286 2.454 . S
O287 C289 1.353 . S
O288 U286 2.458 . S
O288 C289 1.286 . S
C289 U286 2.984 . S
C289 O287 1.353 . S
C289 O288 1.286 . S
C289 C291 1.363 . S
C290 C280 1.465 . S
C290 U286 2.847 . S
C290 O304 1.249 . S
C290 O305 1.202 . S
C291 C289 1.363 . S
C291 C293 1.408 . S
C291 C296 1.342 . S
C292 C293 1.310 . S
C292 C295 1.461 . S
C292 H312 0.932 . S
C293 C291 1.408 . S
C293 C292 1.310 . S
C293 H313 0.930 . S
C294 C295 1.474 . S
C294 C296 1.285 . S
C294 H314 0.929 . S
C295 C292 1.461 . S
C295 C294 1.474 . S
C296 C291 1.342 . S
C296 C294 1.285 . S
C296 H315 0.930 . S
C297 C300 1.424 . S
C297 C302 1.245 . S
C297 C303 1.428 . S
C298 C301 1.260 . S
C298 C302 1.477 . S
C298 H316 0.932 . S
C299 C300 1.384 . S
C299 C301 1.479 . S
C299 H317 0.929 . S
C300 C297 1.424 . S
C300 C299 1.384 . S
C300 H318 0.928 . S
C301 C298 1.260 . S
C301 C299 1.479 . S
C302 C297 1.245 . S
C302 C298 1.477 . S
C302 H319 0.932 . S
C303 U286 2.882 . S
C303 C297 1.428 . S
C303 O306 1.301 . S
C303 O307 1.282 . S
O304 U286 2.441 . S
O304 C290 1.249 . S
O305 U286 2.420 . S
O305 C290 1.202 . S
O306 U286 2.455 . S
O306 C303 1.301 . S
O307 U286 2.449 . S
O307 C303 1.282 . S
H308 C281 0.931 . S
H309 C283 0.929 . S
H310 C284 0.930 . S
H311 C285 0.931 . S
H312 C292 0.932 . S
H313 C293 0.930 . S
H314 C294 0.929 . S
H315 C296 0.930 . S
H316 C298 0.932 . S
H317 C299 0.929 . S
H318 C300 0.928 . S
H319 C302 0.932 . S
C320 C321 1.264 . S
C320 C325 1.479 . S
C320 C330 1.465 . S
C321 C320 1.264 . S
C321 C323 1.339 . S
C321 H348 0.931 . S
C322 C323 1.395 . S
C322 C324 1.320 . S
C323 C321 1.339 . S
C323 C322 1.395 . S
C323 H349 0.929 . S
C324 C322 1.320 . S
C324 C325 1.405 . S
C324 H350 0.930 . S
C325 C320 1.479 . S
C325 C324 1.405 . S
C325 H351 0.931 . S
U326 O327 2.454 . S
U326 O328 2.458 . S
U326 C329 2.984 . S
U326 C330 2.847 . S
U326 C343 2.882 . S
U326 O344 2.441 . S
U326 O345 2.420 . S
U326 O346 2.455 . S
U326 O347 2.449 . S
O327 U326 2.454 . S
O327 C329 1.353 . S
O328 U326 2.458 . S
O328 C329 1.286 . S
C329 U326 2.984 . S
C329 O327 1.353 . S
C329 O328 1.286 . S
C329 C331 1.363 . S
C330 C320 1.465 . S
C330 U326 2.847 . S
C330 O344 1.249 . S
C330 O345 1.202 . S
C331 C329 1.363 . S
C331 C333 1.408 . S
C331 C336 1.342 . S
C332 C333 1.310 . S
C332 C335 1.461 . S
C332 H352 0.932 . S
C333 C331 1.408 . S
C333 C332 1.310 . S
C333 H353 0.930 . S
C334 C335 1.474 . S
C334 C336 1.285 . S
C334 H354 0.929 . S
C335 C332 1.461 . S
C335 C334 1.474 . S
C336 C331 1.342 . S
C336 C334 1.285 . S
C336 H355 0.930 . S
C337 C340 1.424 . S
C337 C342 1.245 . S
C337 C343 1.428 . S
C338 C341 1.260 . S
C338 C342 1.477 . S
C338 H356 0.932 . S
C339 C340 1.384 . S
C339 C341 1.479 . S
C339 H357 0.929 . S
C340 C337 1.424 . S
C340 C339 1.384 . S
C340 H358 0.928 . S
C341 C338 1.260 . S
C341 C339 1.479 . S
C342 C337 1.245 . S
C342 C338 1.477 . S
C342 H359 0.932 . S
C343 U326 2.882 . S
C343 C337 1.428 . S
C343 O346 1.301 . S
C343 O347 1.282 . S
O344 U326 2.441 . S
O344 C330 1.249 . S
O345 U326 2.420 . S
O345 C330 1.202 . S
O346 U326 2.455 . S
O346 C343 1.301 . S
O347 U326 2.449 . S
O347 C343 1.282 . S
H348 C321 0.931 . S
H349 C323 0.929 . S
H350 C324 0.930 . S
H351 C325 0.931 . S
H352 C332 0.932 . S
H353 C333 0.930 . S
H354 C334 0.929 . S
H355 C336 0.930 . S
H356 C338 0.932 . S
H357 C339 0.929 . S
H358 C340 0.928 . S
H359 C342 0.932 . S
C360 C361 1.264 . S
C360 C365 1.479 . S
C360 C370 1.465 . S
C361 C360 1.264 . S
C361 C363 1.339 . S
C361 H388 0.931 . S
C362 C363 1.395 . S
C362 C364 1.320 . S
C363 C361 1.339 . S
C363 C362 1.395 . S
C363 H389 0.929 . S
C364 C362 1.320 . S
C364 C365 1.405 . S
C364 H390 0.930 . S
C365 C360 1.479 . S
C365 C364 1.405 . S
C365 H391 0.931 . S
U366 O367 2.454 . S
U366 O368 2.458 . S
U366 C369 2.984 . S
U366 C370 2.847 . S
U366 C383 2.882 . S
U366 O384 2.441 . S
U366 O385 2.420 . S
U366 O386 2.455 . S
U366 O387 2.449 . S
O367 U366 2.454 . S
O367 C369 1.353 . S
O368 U366 2.458 . S
O368 C369 1.286 . S
C369 U366 2.984 . S
C369 O367 1.353 . S
C369 O368 1.286 . S
C369 C371 1.363 . S
C370 C360 1.465 . S
C370 U366 2.847 . S
C370 O384 1.249 . S
C370 O385 1.202 . S
C371 C369 1.363 . S
C371 C373 1.408 . S
C371 C376 1.342 . S
C372 C373 1.310 . S
C372 C375 1.461 . S
C372 H392 0.932 . S
C373 C371 1.408 . S
C373 C372 1.310 . S
C373 H393 0.930 . S
C374 C375 1.474 . S
C374 C376 1.285 . S
C374 H394 0.929 . S
C375 C372 1.461 . S
C375 C374 1.474 . S
C376 C371 1.342 . S
C376 C374 1.285 . S
C376 H395 0.930 . S
C377 C380 1.424 . S
C377 C382 1.245 . S
C377 C383 1.428 . S
C378 C381 1.260 . S
C378 C382 1.477 . S
C378 H396 0.932 . S
C379 C380 1.384 . S
C379 C381 1.479 . S
C379 H397 0.929 . S
C380 C377 1.424 . S
C380 C379 1.384 . S
C380 H398 0.928 . S
C381 C378 1.260 . S
C381 C379 1.479 . S
C382 C377 1.245 . S
C382 C378 1.477 . S
C382 H399 0.932 . S
C383 U366 2.882 . S
C383 C377 1.428 . S
C383 O386 1.301 . S
C383 O387 1.282 . S
O384 U366 2.441 . S
O384 C370 1.249 . S
O385 U366 2.420 . S
O385 C370 1.202 . S
O386 U366 2.455 . S
O386 C383 1.301 . S
O387 U366 2.449 . S
O387 C383 1.282 . S
H388 C361 0.931 . S
H389 C363 0.929 . S
H390 C364 0.930 . S
H391 C365 0.931 . S
H392 C372 0.932 . S
H393 C373 0.930 . S
H394 C374 0.929 . S
H395 C376 0.930 . S
H396 C378 0.932 . S
H397 C379 0.929 . S
H398 C380 0.928 . S
H399 C382 0.932 . S
C400 C401 1.264 . S
C400 C405 1.479 . S
C400 C410 1.465 . S
C401 C400 1.264 . S
C401 C403 1.339 . S
C401 H428 0.931 . S
C402 C403 1.395 . S
C402 C404 1.320 . S
C403 C401 1.339 . S
C403 C402 1.395 . S
C403 H429 0.929 . S
C404 C402 1.320 . S
C404 C405 1.405 . S
C404 H430 0.930 . S
C405 C400 1.479 . S
C405 C404 1.405 . S
C405 H431 0.931 . S
U406 O407 2.454 . S
U406 O408 2.458 . S
U406 C409 2.984 . S
U406 C410 2.847 . S
U406 C423 2.882 . S
U406 O424 2.441 . S
U406 O425 2.420 . S
U406 O426 2.455 . S
U406 O427 2.449 . S
O407 U406 2.454 . S
O407 C409 1.353 . S
O408 U406 2.458 . S
O408 C409 1.286 . S
C409 U406 2.984 . S
C409 O407 1.353 . S
C409 O408 1.286 . S
C409 C411 1.363 . S
C410 C400 1.465 . S
C410 U406 2.847 . S
C410 O424 1.249 . S
C410 O425 1.202 . S
C411 C409 1.363 . S
C411 C413 1.408 . S
C411 C416 1.342 . S
C412 C413 1.310 . S
C412 C415 1.461 . S
C412 H432 0.932 . S
C413 C411 1.408 . S
C413 C412 1.310 . S
C413 H433 0.930 . S
C414 C415 1.474 . S
C414 C416 1.285 . S
C414 H434 0.929 . S
C415 C412 1.461 . S
C415 C414 1.474 . S
C416 C411 1.342 . S
C416 C414 1.285 . S
C416 H435 0.930 . S
C417 C420 1.424 . S
C417 C422 1.245 . S
C417 C423 1.428 . S
C418 C421 1.260 . S
C418 C422 1.477 . S
C418 H436 0.932 . S
C419 C420 1.384 . S
C419 C421 1.479 . S
C419 H437 0.929 . S
C420 C417 1.424 . S
C420 C419 1.384 . S
C420 H438 0.928 . S
C421 C418 1.260 . S
C421 C419 1.479 . S
C422 C417 1.245 . S
C422 C418 1.477 . S
C422 H439 0.932 . S
C423 U406 2.882 . S
C423 C417 1.428 . S
C423 O426 1.301 . S
C423 O427 1.282 . S
O424 U406 2.441 . S
O424 C410 1.249 . S
O425 U406 2.420 . S
O425 C410 1.202 . S
O426 U406 2.455 . S
O426 C423 1.301 . S
O427 U406 2.449 . S
O427 C423 1.282 . S
H428 C401 0.931 . S
H429 C403 0.929 . S
H430 C404 0.930 . S
H431 C405 0.931 . S
H432 C412 0.932 . S
H433 C413 0.930 . S
H434 C414 0.929 . S
H435 C416 0.930 . S
H436 C418 0.932 . S
H437 C419 0.929 . S
H438 C420 0.928 . S
H439 C422 0.932 . S
C440 C441 1.264 . S
C440 C445 1.479 . S
C440 C450 1.465 . S
C441 C440 1.264 . S
C441 C443 1.339 . S
C441 H468 0.931 . S
C442 C443 1.395 . S
C442 C444 1.320 . S
C443 C441 1.339 . S
C443 C442 1.395 . S
C443 H469 0.929 . S
C444 C442 1.320 . S
C444 C445 1.405 . S
C444 H470 0.930 . S
C445 C440 1.479 . S
C445 C444 1.405 . S
C445 H471 0.931 . S
U446 O447 2.454 . S
U446 O448 2.458 . S
U446 C449 2.984 . S
U446 C450 2.847 . S
U446 C463 2.882 . S
U446 O464 2.441 . S
U446 O465 2.420 . S
U446 O466 2.455 . S
U446 O467 2.449 . S
O447 U446 2.454 . S
O447 C449 1.353 . S
O448 U446 2.458 . S
O448 C449 1.286 . S
C449 U446 2.984 . S
C449 O447 1.353 . S
C449 O448 1.286 . S
C449 C451 1.363 . S
C450 C440 1.465 . S
C450 U446 2.847 . S
C450 O464 1.249 . S
C450 O465 1.202 . S
C451 C449 1.363 . S
C451 C453 1.408 . S
C451 C456 1.342 . S
C452 C453 1.310 . S
C452 C455 1.461 . S
C452 H472 0.932 . S
C453 C451 1.408 . S
C453 C452 1.310 . S
C453 H473 0.930 . S
C454 C455 1.474 . S
C454 C456 1.285 . S
C454 H474 0.929 . S
C455 C452 1.461 . S
C455 C454 1.474 . S
C456 C451 1.342 . S
C456 C454 1.285 . S
C456 H475 0.930 . S
C457 C460 1.424 . S
C457 C462 1.245 . S
C457 C463 1.428 . S
C458 C461 1.260 . S
C458 C462 1.477 . S
C458 H476 0.932 . S
C459 C460 1.384 . S
C459 C461 1.479 . S
C459 H477 0.929 . S
C460 C457 1.424 . S
C460 C459 1.384 . S
C460 H478 0.928 . S
C461 C458 1.260 . S
C461 C459 1.479 . S
C462 C457 1.245 . S
C462 C458 1.477 . S
C462 H479 0.932 . S
C463 U446 2.882 . S
C463 C457 1.428 . S
C463 O466 1.301 . S
C463 O467 1.282 . S
O464 U446 2.441 . S
O464 C450 1.249 . S
O465 U446 2.420 . S
O465 C450 1.202 . S
O466 U446 2.455 . S
O466 C463 1.301 . S
O467 U446 2.449 . S
O467 C463 1.282 . S
H468 C441 0.931 . S
H469 C443 0.929 . S
H470 C444 0.930 . S
H471 C445 0.931 . S
H472 C452 0.932 . S
H473 C453 0.930 . S
H474 C454 0.929 . S
H475 C456 0.930 . S
H476 C458 0.932 . S
H477 C459 0.929 . S
H478 C460 0.928 . S
H479 C462 0.932 . S
C480 C481 1.264 . S
C480 C485 1.479 . S
C480 C490 1.465 . S
C481 C480 1.264 . S
C481 C483 1.339 . S
C481 H508 0.931 . S
C482 C483 1.395 . S
C482 C484 1.320 . S
C483 C481 1.339 . S
C483 C482 1.395 . S
C483 H509 0.929 . S
C484 C482 1.320 . S
C484 C485 1.405 . S
C484 H510 0.930 . S
C485 C480 1.479 . S
C485 C484 1.405 . S
C485 H511 0.931 . S
U486 O487 2.454 . S
U486 O488 2.458 . S
U486 C489 2.984 . S
U486 C490 2.847 . S
U486 C503 2.882 . S
U486 O504 2.441 . S
U486 O505 2.420 . S
U486 O506 2.455 . S
U486 O507 2.449 . S
O487 U486 2.454 . S
O487 C489 1.353 . S
O488 U486 2.458 . S
O488 C489 1.286 . S
C489 U486 2.984 . S
C489 O487 1.353 . S
C489 O488 1.286 . S
C489 C491 1.363 . S
C490 C480 1.465 . S
C490 U486 2.847 . S
C490 O504 1.249 . S
C490 O505 1.202 . S
C491 C489 1.363 . S
C491 C493 1.408 . S
C491 C496 1.342 . S
C492 C493 1.310 . S
C492 C495 1.461 . S
C492 H512 0.932 . S
C493 C491 1.408 . S
C493 C492 1.310 . S
C493 H513 0.930 . S
C494 C495 1.474 . S
C494 C496 1.285 . S
C494 H514 0.929 . S
C495 C492 1.461 . S
C495 C494 1.474 . S
C496 C491 1.342 . S
C496 C494 1.285 . S
C496 H515 0.930 . S
C497 C500 1.424 . S
C497 C502 1.245 . S
C497 C503 1.428 . S
C498 C501 1.260 . S
C498 C502 1.477 . S
C498 H516 0.932 . S
C499 C500 1.384 . S
C499 C501 1.479 . S
C499 H517 0.929 . S
C500 C497 1.424 . S
C500 C499 1.384 . S
C500 H518 0.928 . S
C501 C498 1.260 . S
C501 C499 1.479 . S
C502 C497 1.245 . S
C502 C498 1.477 . S
C502 H519 0.932 . S
C503 U486 2.882 . S
C503 C497 1.428 . S
C503 O506 1.301 . S
C503 O507 1.282 . S
O504 U486 2.441 . S
O504 C490 1.249 . S
O505 U486 2.420 . S
O505 C490 1.202 . S
O506 U486 2.455 . S
O506 C503 1.301 . S
O507 U486 2.449 . S
O507 C503 1.282 . S
H508 C481 0.931 . S
H509 C483 0.929 . S
H510 C484 0.930 . S
H511 C485 0.931 . S
H512 C492 0.932 . S
H513 C493 0.930 . S
H514 C494 0.929 . S
H515 C496 0.930 . S
H516 C498 0.932 . S
H517 C499 0.929 . S
H518 C500 0.928 . S
H519 C502 0.932 . S
C520 C521 1.264 . S
C520 C525 1.479 . S
C520 C530 1.465 . S
C521 C520 1.264 . S
C521 C523 1.339 . S
C521 H548 0.931 . S
C522 C523 1.395 . S
C522 C524 1.320 . S
C523 C521 1.339 . S
C523 C522 1.395 . S
C523 H549 0.929 . S
C524 C522 1.320 . S
C524 C525 1.405 . S
C524 H550 0.930 . S
C525 C520 1.479 . S
C525 C524 1.405 . S
C525 H551 0.931 . S
U526 O527 2.454 . S
U526 O528 2.458 . S
U526 C529 2.984 . S
U526 C530 2.847 . S
U526 C543 2.882 . S
U526 O544 2.441 . S
U526 O545 2.420 . S
U526 O546 2.455 . S
U526 O547 2.449 . S
O527 U526 2.454 . S
O527 C529 1.353 . S
O528 U526 2.458 . S
O528 C529 1.286 . S
C529 U526 2.984 . S
C529 O527 1.353 . S
C529 O528 1.286 . S
C529 C531 1.363 . S
C530 C520 1.465 . S
C530 U526 2.847 . S
C530 O544 1.249 . S
C530 O545 1.202 . S
C531 C529 1.363 . S
C531 C533 1.408 . S
C531 C536 1.342 . S
C532 C533 1.310 . S
C532 C535 1.461 . S
C532 H552 0.932 . S
C533 C531 1.408 . S
C533 C532 1.310 . S
C533 H553 0.930 . S
C534 C535 1.474 . S
C534 C536 1.285 . S
C534 H554 0.929 . S
C535 C532 1.461 . S
C535 C534 1.474 . S
C536 C531 1.342 . S
C536 C534 1.285 . S
C536 H555 0.930 . S
C537 C540 1.424 . S
C537 C542 1.245 . S
C537 C543 1.428 . S
C538 C541 1.260 . S
C538 C542 1.477 . S
C538 H556 0.932 . S
C539 C540 1.384 . S
C539 C541 1.479 . S
C539 H557 0.929 . S
C540 C537 1.424 . S
C540 C539 1.384 . S
C540 H558 0.928 . S
C541 C538 1.260 . S
C541 C539 1.479 . S
C542 C537 1.245 . S
C542 C538 1.477 . S
C542 H559 0.932 . S
C543 U526 2.882 . S
C543 C537 1.428 . S
C543 O546 1.301 . S
C543 O547 1.282 . S
O544 U526 2.441 . S
O544 C530 1.249 . S
O545 U526 2.420 . S
O545 C530 1.202 . S
O546 U526 2.455 . S
O546 C543 1.301 . S
O547 U526 2.449 . S
O547 C543 1.282 . S
H548 C521 0.931 . S
H549 C523 0.929 . S
H550 C524 0.930 . S
H551 C525 0.931 . S
H552 C532 0.932 . S
H553 C533 0.930 . S
H554 C534 0.929 . S
H555 C536 0.930 . S
H556 C538 0.932 . S
H557 C539 0.929 . S
H558 C540 0.928 . S
H559 C542 0.932 . S
C560 C561 1.264 . S
C560 C565 1.479 . S
C560 C570 1.465 . S
C561 C560 1.264 . S
C561 C563 1.339 . S
C561 H588 0.931 . S
C562 C563 1.395 . S
C562 C564 1.320 . S
C563 C561 1.339 . S
C563 C562 1.395 . S
C563 H589 0.929 . S
C564 C562 1.320 . S
C564 C565 1.405 . S
C564 H590 0.930 . S
C565 C560 1.479 . S
C565 C564 1.405 . S
C565 H591 0.931 . S
U566 O567 2.454 . S
U566 O568 2.458 . S
U566 C569 2.984 . S
U566 C570 2.847 . S
U566 C583 2.882 . S
U566 O584 2.441 . S
U566 O585 2.420 . S
U566 O586 2.455 . S
U566 O587 2.449 . S
O567 U566 2.454 . S
O567 C569 1.353 . S
O568 U566 2.458 . S
O568 C569 1.286 . S
C569 U566 2.984 . S
C569 O567 1.353 . S
C569 O568 1.286 . S
C569 C571 1.363 . S
C570 C560 1.465 . S
C570 U566 2.847 . S
C570 O584 1.249 . S
C570 O585 1.202 . S
C571 C569 1.363 . S
C571 C573 1.408 . S
C571 C576 1.342 . S
C572 C573 1.310 . S
C572 C575 1.461 . S
C572 H592 0.932 . S
C573 C571 1.408 . S
C573 C572 1.310 . S
C573 H593 0.930 . S
C574 C575 1.474 . S
C574 C576 1.285 . S
C574 H594 0.929 . S
C575 C572 1.461 . S
C575 C574 1.474 . S
C576 C571 1.342 . S
C576 C574 1.285 . S
C576 H595 0.930 . S
C577 C580 1.424 . S
C577 C582 1.245 . S
C577 C583 1.428 . S
C578 C581 1.260 . S
C578 C582 1.477 . S
C578 H596 0.932 . S
C579 C580 1.384 . S
C579 C581 1.479 . S
C579 H597 0.929 . S
C580 C577 1.424 . S
C580 C579 1.384 . S
C580 H598 0.928 . S
C581 C578 1.260 . S
C581 C579 1.479 . S
C582 C577 1.245 . S
C582 C578 1.477 . S
C582 H599 0.932 . S
C583 U566 2.882 . S
C583 C577 1.428 . S
C583 O586 1.301 . S
C583 O587 1.282 . S
O584 U566 2.441 . S
O584 C570 1.249 . S
O585 U566 2.420 . S
O585 C570 1.202 . S
O586 U566 2.455 . S
O586 C583 1.301 . S
O587 U566 2.449 . S
O587 C583 1.282 . S
H588 C561 0.931 . S
H589 C563 0.929 . S
H590 C564 0.930 . S
H591 C565 0.931 . S
H592 C572 0.932 . S
H593 C573 0.930 . S
H594 C574 0.929 . S
H595 C576 0.930 . S
H596 C578 0.932 . S
H597 C579 0.929 . S
H598 C580 0.928 . S
H599 C582 0.932 . S
C600 C601 1.264 . S
C600 C605 1.479 . S
C600 C610 1.465 . S
C601 C600 1.264 . S
C601 C603 1.339 . S
C601 H628 0.931 . S
C602 C603 1.395 . S
C602 C604 1.320 . S
C603 C601 1.339 . S
C603 C602 1.395 . S
C603 H629 0.929 . S
C604 C602 1.320 . S
C604 C605 1.405 . S
C604 H630 0.930 . S
C605 C600 1.479 . S
C605 C604 1.405 . S
C605 H631 0.931 . S
U606 O607 2.454 . S
U606 O608 2.458 . S
U606 C609 2.984 . S
U606 C610 2.847 . S
U606 C623 2.882 . S
U606 O624 2.441 . S
U606 O625 2.420 . S
U606 O626 2.455 . S
U606 O627 2.449 . S
O607 U606 2.454 . S
O607 C609 1.353 . S
O608 U606 2.458 . S
O608 C609 1.286 . S
C609 U606 2.984 . S
C609 O607 1.353 . S
C609 O608 1.286 . S
C609 C611 1.363 . S
C610 C600 1.465 . S
C610 U606 2.847 . S
C610 O624 1.249 . S
C610 O625 1.202 . S
C611 C609 1.363 . S
C611 C613 1.408 . S
C611 C616 1.342 . S
C612 C613 1.310 . S
C612 C615 1.461 . S
C612 H632 0.932 . S
C613 C611 1.408 . S
C613 C612 1.310 . S
C613 H633 0.930 . S
C614 C615 1.474 . S
C614 C616 1.285 . S
C614 H634 0.929 . S
C615 C612 1.461 . S
C615 C614 1.474 . S
C616 C611 1.342 . S
C616 C614 1.285 . S
C616 H635 0.930 . S
C617 C620 1.424 . S
C617 C622 1.245 . S
C617 C623 1.428 . S
C618 C621 1.260 . S
C618 C622 1.477 . S
C618 H636 0.932 . S
C619 C620 1.384 . S
C619 C621 1.479 . S
C619 H637 0.929 . S
C620 C617 1.424 . S
C620 C619 1.384 . S
C620 H638 0.928 . S
C621 C618 1.260 . S
C621 C619 1.479 . S
C622 C617 1.245 . S
C622 C618 1.477 . S
C622 H639 0.932 . S
C623 U606 2.882 . S
C623 C617 1.428 . S
C623 O626 1.301 . S
C623 O627 1.282 . S
O624 U606 2.441 . S
O624 C610 1.249 . S
O625 U606 2.420 . S
O625 C610 1.202 . S
O626 U606 2.455 . S
O626 C623 1.301 . S
O627 U606 2.449 . S
O627 C623 1.282 . S
H628 C601 0.931 . S
H629 C603 0.929 . S
H630 C604 0.930 . S
H631 C605 0.931 . S
H632 C612 0.932 . S
H633 C613 0.930 . S
H634 C614 0.929 . S
H635 C616 0.930 . S
H636 C618 0.932 . S
H637 C619 0.929 . S
H638 C620 0.928 . S
H639 C622 0.932 . S
C640 C641 1.264 . S
C640 C645 1.479 . S
C640 C650 1.465 . S
C641 C640 1.264 . S
C641 C643 1.339 . S
C641 H668 0.931 . S
C642 C643 1.395 . S
C642 C644 1.320 . S
C643 C641 1.339 . S
C643 C642 1.395 . S
C643 H669 0.929 . S
C644 C642 1.320 . S
C644 C645 1.405 . S
C644 H670 0.930 . S
C645 C640 1.479 . S
C645 C644 1.405 . S
C645 H671 0.931 . S
U646 O647 2.454 . S
U646 O648 2.458 . S
U646 C649 2.984 . S
U646 C650 2.847 . S
U646 C663 2.882 . S
U646 O664 2.441 . S
U646 O665 2.420 . S
U646 O666 2.455 . S
U646 O667 2.449 . S
O647 U646 2.454 . S
O647 C649 1.353 . S
O648 U646 2.458 . S
O648 C649 1.286 . S
C649 U646 2.984 . S
C649 O647 1.353 . S
C649 O648 1.286 . S
C649 C651 1.363 . S
C650 C640 1.465 . S
C650 U646 2.847 . S
C650 O664 1.249 . S
C650 O665 1.202 . S
C651 C649 1.363 . S
C651 C653 1.408 . S
C651 C656 1.342 . S
C652 C653 1.310 . S
C652 C655 1.461 . S
C652 H672 0.932 . S
C653 C651 1.408 . S
C653 C652 1.310 . S
C653 H673 0.930 . S
C654 C655 1.474 . S
C654 C656 1.285 . S
C654 H674 0.929 . S
C655 C652 1.461 . S
C655 C654 1.474 . S
C656 C651 1.342 . S
C656 C654 1.285 . S
C656 H675 0.930 . S
C657 C660 1.424 . S
C657 C662 1.245 . S
C657 C663 1.428 . S
C658 C661 1.260 . S
C658 C662 1.477 . S
C658 H676 0.932 . S
C659 C660 1.384 . S
C659 C661 1.479 . S
C659 H677 0.929 . S
C660 C657 1.424 . S
C660 C659 1.384 . S
C660 H678 0.928 . S
C661 C658 1.260 . S
C661 C659 1.479 . S
C662 C657 1.245 . S
C662 C658 1.477 . S
C662 H679 0.932 . S
C663 U646 2.882 . S
C663 C657 1.428 . S
C663 O666 1.301 . S
C663 O667 1.282 . S
O664 U646 2.441 . S
O664 C650 1.249 . S
O665 U646 2.420 . S
O665 C650 1.202 . S
O666 U646 2.455 . S
O666 C663 1.301 . S
O667 U646 2.449 . S
O667 C663 1.282 . S
H668 C641 0.931 . S
H669 C643 0.929 . S
H670 C644 0.930 . S
H671 C645 0.931 . S
H672 C652 0.932 . S
H673 C653 0.930 . S
H674 C654 0.929 . S
H675 C656 0.930 . S
H676 C658 0.932 . S
H677 C659 0.929 . S
H678 C660 0.928 . S
H679 C662 0.932 . S
C680 C681 1.264 . S
C680 C685 1.479 . S
C680 C690 1.465 . S
C681 C680 1.264 . S
C681 C683 1.339 . S
C681 H708 0.931 . S
C682 C683 1.395 . S
C682 C684 1.320 . S
C683 C681 1.339 . S
C683 C682 1.395 . S
C683 H709 0.929 . S
C684 C682 1.320 . S
C684 C685 1.405 . S
C684 H710 0.930 . S
C685 C680 1.479 . S
C685 C684 1.405 . S
C685 H711 0.931 . S
U686 O687 2.454 . S
U686 O688 2.458 . S
U686 C689 2.984 . S
U686 C690 2.847 . S
U686 C703 2.882 . S
U686 O704 2.441 . S
U686 O705 2.420 . S
U686 O706 2.455 . S
U686 O707 2.449 . S
O687 U686 2.454 . S
O687 C689 1.353 . S
O688 U686 2.458 . S
O688 C689 1.286 . S
C689 U686 2.984 . S
C689 O687 1.353 . S
C689 O688 1.286 . S
C689 C691 1.363 . S
C690 C680 1.465 . S
C690 U686 2.847 . S
C690 O704 1.249 . S
C690 O705 1.202 . S
C691 C689 1.363 . S
C691 C693 1.408 . S
C691 C696 1.342 . S
C692 C693 1.310 . S
C692 C695 1.461 . S
C692 H712 0.932 . S
C693 C691 1.408 . S
C693 C692 1.310 . S
C693 H713 0.930 . S
C694 C695 1.474 . S
C694 C696 1.285 . S
C694 H714 0.929 . S
C695 C692 1.461 . S
C695 C694 1.474 . S
C696 C691 1.342 . S
C696 C694 1.285 . S
C696 H715 0.930 . S
C697 C700 1.424 . S
C697 C702 1.245 . S
C697 C703 1.428 . S
C698 C701 1.260 . S
C698 C702 1.477 . S
C698 H716 0.932 . S
C699 C700 1.384 . S
C699 C701 1.479 . S
C699 H717 0.929 . S
C700 C697 1.424 . S
C700 C699 1.384 . S
C700 H718 0.928 . S
C701 C698 1.260 . S
C701 C699 1.479 . S
C702 C697 1.245 . S
C702 C698 1.477 . S
C702 H719 0.932 . S
C703 U686 2.882 . S
C703 C697 1.428 . S
C703 O706 1.301 . S
C703 O707 1.282 . S
O704 U686 2.441 . S
O704 C690 1.249 . S
O705 U686 2.420 . S
O705 C690 1.202 . S
O706 U686 2.455 . S
O706 C703 1.301 . S
O707 U686 2.449 . S
O707 C703 1.282 . S
H708 C681 0.931 . S
H709 C683 0.929 . S
H710 C684 0.930 . S
H711 C685 0.931 . S
H712 C692 0.932 . S
H713 C693 0.930 . S
H714 C694 0.929 . S
H715 C696 0.930 . S
H716 C698 0.932 . S
H717 C699 0.929 . S
H718 C700 0.928 . S
H719 C702 0.932 . S
C720 C721 1.264 . S
C720 C725 1.479 . S
C720 C730 1.465 . S
C721 C720 1.264 . S
C721 C723 1.339 . S
C721 H748 0.931 . S
C722 C723 1.395 . S
C722 C724 1.320 . S
C723 C721 1.339 . S
C723 C722 1.395 . S
C723 H749 0.929 . S
C724 C722 1.320 . S
C724 C725 1.405 . S
C724 H750 0.930 . S
C725 C720 1.479 . S
C725 C724 1.405 . S
C725 H751 0.931 . S
U726 O727 2.454 . S
U726 O728 2.458 . S
U726 C729 2.984 . S
U726 C730 2.847 . S
U726 C743 2.882 . S
U726 O744 2.441 . S
U726 O745 2.420 . S
U726 O746 2.455 . S
U726 O747 2.449 . S
O727 U726 2.454 . S
O727 C729 1.353 . S
O728 U726 2.458 . S
O728 C729 1.286 . S
C729 U726 2.984 . S
C729 O727 1.353 . S
C729 O728 1.286 . S
C729 C731 1.363 . S
C730 C720 1.465 . S
C730 U726 2.847 . S
C730 O744 1.249 . S
C730 O745 1.202 . S
C731 C729 1.363 . S
C731 C733 1.408 . S
C731 C736 1.342 . S
C732 C733 1.310 . S
C732 C735 1.461 . S
C732 H752 0.932 . S
C733 C731 1.408 . S
C733 C732 1.310 . S
C733 H753 0.930 . S
C734 C735 1.474 . S
C734 C736 1.285 . S
C734 H754 0.929 . S
C735 C732 1.461 . S
C735 C734 1.474 . S
C736 C731 1.342 . S
C736 C734 1.285 . S
C736 H755 0.930 . S
C737 C740 1.424 . S
C737 C742 1.245 . S
C737 C743 1.428 . S
C738 C741 1.260 . S
C738 C742 1.477 . S
C738 H756 0.932 . S
C739 C740 1.384 . S
C739 C741 1.479 . S
C739 H757 0.929 . S
C740 C737 1.424 . S
C740 C739 1.384 . S
C740 H758 0.928 . S
C741 C738 1.260 . S
C741 C739 1.479 . S
C742 C737 1.245 . S
C742 C738 1.477 . S
C742 H759 0.932 . S
C743 U726 2.882 . S
C743 C737 1.428 . S
C743 O746 1.301 . S
C743 O747 1.282 . S
O744 U726 2.441 . S
O744 C730 1.249 . S
O745 U726 2.420 . S
O745 C730 1.202 . S
O746 U726 2.455 . S
O746 C743 1.301 . S
O747 U726 2.449 . S
O747 C743 1.282 . S
H748 C721 0.931 . S
H749 C723 0.929 . S
H750 C724 0.930 . S
H751 C725 0.931 . S
H752 C732 0.932 . S
H753 C733 0.930 . S
H754 C734 0.929 . S
H755 C736 0.930 . S
H756 C738 0.932 . S
H757 C739 0.929 . S
H758 C740 0.928 . S
H759 C742 0.932 . S
C760 C761 1.264 . S
C760 C765 1.479 . S
C760 C770 1.465 . S
C761 C760 1.264 . S
C761 C763 1.339 . S
C761 H788 0.931 . S
C762 C763 1.395 . S
C762 C764 1.320 . S
C763 C761 1.339 . S
C763 C762 1.395 . S
C763 H789 0.929 . S
C764 C762 1.320 . S
C764 C765 1.405 . S
C764 H790 0.930 . S
C765 C760 1.479 . S
C765 C764 1.405 . S
C765 H791 0.931 . S
U766 O767 2.454 . S
U766 O768 2.458 . S
U766 C769 2.984 . S
U766 C770 2.847 . S
U766 C783 2.882 . S
U766 O784 2.441 . S
U766 O785 2.420 . S
U766 O786 2.455 . S
U766 O787 2.449 . S
O767 U766 2.454 . S
O767 C769 1.353 . S
O768 U766 2.458 . S
O768 C769 1.286 . S
C769 U766 2.984 . S
C769 O767 1.353 . S
C769 O768 1.286 . S
C769 C771 1.363 . S
C770 C760 1.465 . S
C770 U766 2.847 . S
C770 O784 1.249 . S
C770 O785 1.202 . S
C771 C769 1.363 . S
C771 C773 1.408 . S
C771 C776 1.342 . S
C772 C773 1.310 . S
C772 C775 1.461 . S
C772 H792 0.932 . S
C773 C771 1.408 . S
C773 C772 1.310 . S
C773 H793 0.930 . S
C774 C775 1.474 . S
C774 C776 1.285 . S
C774 H794 0.929 . S
C775 C772 1.461 . S
C775 C774 1.474 . S
C776 C771 1.342 . S
C776 C774 1.285 . S
C776 H795 0.930 . S
C777 C780 1.424 . S
C777 C782 1.245 . S
C777 C783 1.428 . S
C778 C781 1.260 . S
C778 C782 1.477 . S
C778 H796 0.932 . S
C779 C780 1.384 . S
C779 C781 1.479 . S
C779 H797 0.929 . S
C780 C777 1.424 . S
C780 C779 1.384 . S
C780 H798 0.928 . S
C781 C778 1.260 . S
C781 C779 1.479 . S
C782 C777 1.245 . S
C782 C778 1.477 . S
C782 H799 0.932 . S
C783 U766 2.882 . S
C783 C777 1.428 . S
C783 O786 1.301 . S
C783 O787 1.282 . S
O784 U766 2.441 . S
O784 C770 1.249 . S
O785 U766 2.420 . S
O785 C770 1.202 . S
O786 U766 2.455 . S
O786 C783 1.301 . S
O787 U766 2.449 . S
O787 C783 1.282 . S
H788 C761 0.931 . S
H789 C763 0.929 . S
H790 C764 0.930 . S
H791 C765 0.931 . S
H792 C772 0.932 . S
H793 C773 0.930 . S
H794 C774 0.929 . S
H795 C776 0.930 . S
H796 C778 0.932 . S
H797 C779 0.929 . S
H798 C780 0.928 . S
H799 C782 0.932 . S
C800 C801 1.264 . S
C800 C805 1.479 . S
C800 C810 1.465 . S
C801 C800 1.264 . S
C801 C803 1.339 . S
C801 H828 0.931 . S
C802 C803 1.395 . S
C802 C804 1.320 . S
C803 C801 1.339 . S
C803 C802 1.395 . S
C803 H829 0.929 . S
C804 C802 1.320 . S
C804 C805 1.405 . S
C804 H830 0.930 . S
C805 C800 1.479 . S
C805 C804 1.405 . S
C805 H831 0.931 . S
U806 O807 2.454 . S
U806 O808 2.458 . S
U806 C809 2.984 . S
U806 C810 2.847 . S
U806 C823 2.882 . S
U806 O824 2.441 . S
U806 O825 2.420 . S
U806 O826 2.455 . S
U806 O827 2.449 . S
O807 U806 2.454 . S
O807 C809 1.353 . S
O808 U806 2.458 . S
O808 C809 1.286 . S
C809 U806 2.984 . S
C809 O807 1.353 . S
C809 O808 1.286 . S
C809 C811 1.363 . S
C810 C800 1.465 . S
C810 U806 2.847 . S
C810 O824 1.249 . S
C810 O825 1.202 . S
C811 C809 1.363 . S
C811 C813 1.408 . S
C811 C816 1.342 . S
C812 C813 1.310 . S
C812 C815 1.461 . S
C812 H832 0.932 . S
C813 C811 1.408 . S
C813 C812 1.310 . S
C813 H833 0.930 . S
C814 C815 1.474 . S
C814 C816 1.285 . S
C814 H834 0.929 . S
C815 C812 1.461 . S
C815 C814 1.474 . S
C816 C811 1.342 . S
C816 C814 1.285 . S
C816 H835 0.930 . S
C817 C820 1.424 . S
C817 C822 1.245 . S
C817 C823 1.428 . S
C818 C821 1.260 . S
C818 C822 1.477 . S
C818 H836 0.932 . S
C819 C820 1.384 . S
C819 C821 1.479 . S
C819 H837 0.929 . S
C820 C817 1.424 . S
C820 C819 1.384 . S
C820 H838 0.928 . S
C821 C818 1.260 . S
C821 C819 1.479 . S
C822 C817 1.245 . S
C822 C818 1.477 . S
C822 H839 0.932 . S
C823 U806 2.882 . S
C823 C817 1.428 . S
C823 O826 1.301 . S
C823 O827 1.282 . S
O824 U806 2.441 . S
O824 C810 1.249 . S
O825 U806 2.420 . S
O825 C810 1.202 . S
O826 U806 2.455 . S
O826 C823 1.301 . S
O827 U806 2.449 . S
O827 C823 1.282 . S
H828 C801 0.931 . S
H829 C803 0.929 . S
H830 C804 0.930 . S
H831 C805 0.931 . S
H832 C812 0.932 . S
H833 C813 0.930 . S
H834 C814 0.929 . S
H835 C816 0.930 . S
H836 C818 0.932 . S
H837 C819 0.929 . S
H838 C820 0.928 . S
H839 C822 0.932 . S
C840 C841 1.264 . S
C840 C845 1.479 . S
C840 C850 1.465 . S
C841 C840 1.264 . S
C841 C843 1.339 . S
C841 H868 0.931 . S
C842 C843 1.395 . S
C842 C844 1.320 . S
C843 C841 1.339 . S
C843 C842 1.395 . S
C843 H869 0.929 . S
C844 C842 1.320 . S
C844 C845 1.405 . S
C844 H870 0.930 . S
C845 C840 1.479 . S
C845 C844 1.405 . S
C845 H871 0.931 . S
U846 O847 2.454 . S
U846 O848 2.458 . S
U846 C849 2.984 . S
U846 C850 2.847 . S
U846 C863 2.882 . S
U846 O864 2.441 . S
U846 O865 2.420 . S
U846 O866 2.455 . S
U846 O867 2.449 . S
O847 U846 2.454 . S
O847 C849 1.353 . S
O848 U846 2.458 . S
O848 C849 1.286 . S
C849 U846 2.984 . S
C849 O847 1.353 . S
C849 O848 1.286 . S
C849 C851 1.363 . S
C850 C840 1.465 . S
C850 U846 2.847 . S
C850 O864 1.249 . S
C850 O865 1.202 . S
C851 C849 1.363 . S
C851 C853 1.408 . S
C851 C856 1.342 . S
C852 C853 1.310 . S
C852 C855 1.461 . S
C852 H872 0.932 . S
C853 C851 1.408 . S
C853 C852 1.310 . S
C853 H873 0.930 . S
C854 C855 1.474 . S
C854 C856 1.285 . S
C854 H874 0.929 . S
C855 C852 1.461 . S
C855 C854 1.474 . S
C856 C851 1.342 . S
C856 C854 1.285 . S
C856 H875 0.930 . S
C857 C860 1.424 . S
C857 C862 1.245 . S
C857 C863 1.428 . S
C858 C861 1.260 . S
C858 C862 1.477 . S
C858 H876 0.932 . S
C859 C860 1.384 . S
C859 C861 1.479 . S
C859 H877 0.929 . S
C860 C857 1.424 . S
C860 C859 1.384 . S
C860 H878 0.928 . S
C861 C858 1.260 . S
C861 C859 1.479 . S
C862 C857 1.245 . S
C862 C858 1.477 . S
C862 H879 0.932 . S
C863 U846 2.882 . S
C863 C857 1.428 . S
C863 O866 1.301 . S
C863 O867 1.282 . S
O864 U846 2.441 . S
O864 C850 1.249 . S
O865 U846 2.420 . S
O865 C850 1.202 . S
O866 U846 2.455 . S
O866 C863 1.301 . S
O867 U846 2.449 . S
O867 C863 1.282 . S
H868 C841 0.931 . S
H869 C843 0.929 . S
H870 C844 0.930 . S
H871 C845 0.931 . S
H872 C852 0.932 . S
H873 C853 0.930 . S
H874 C854 0.929 . S
H875 C856 0.930 . S
H876 C858 0.932 . S
H877 C859 0.929 . S
H878 C860 0.928 . S
H879 C862 0.932 . S
C880 C881 1.264 . S
C880 C885 1.479 . S
C880 C890 1.465 . S
C881 C880 1.264 . S
C881 C883 1.339 . S
C881 H908 0.931 . S
C882 C883 1.395 . S
C882 C884 1.320 . S
C883 C881 1.339 . S
C883 C882 1.395 . S
C883 H909 0.929 . S
C884 C882 1.320 . S
C884 C885 1.405 . S
C884 H910 0.930 . S
C885 C880 1.479 . S
C885 C884 1.405 . S
C885 H911 0.931 . S
U886 O887 2.454 . S
U886 O888 2.458 . S
U886 C889 2.984 . S
U886 C890 2.847 . S
U886 C903 2.882 . S
U886 O904 2.441 . S
U886 O905 2.420 . S
U886 O906 2.455 . S
U886 O907 2.449 . S
O887 U886 2.454 . S
O887 C889 1.353 . S
O888 U886 2.458 . S
O888 C889 1.286 . S
C889 U886 2.984 . S
C889 O887 1.353 . S
C889 O888 1.286 . S
C889 C891 1.363 . S
C890 C880 1.465 . S
C890 U886 2.847 . S
C890 O904 1.249 . S
C890 O905 1.202 . S
C891 C889 1.363 . S
C891 C893 1.408 . S
C891 C896 1.342 . S
C892 C893 1.310 . S
C892 C895 1.461 . S
C892 H912 0.932 . S
C893 C891 1.408 . S
C893 C892 1.310 . S
C893 H913 0.930 . S
C894 C895 1.474 . S
C894 C896 1.285 . S
C894 H914 0.929 . S
C895 C892 1.461 . S
C895 C894 1.474 . S
C896 C891 1.342 . S
C896 C894 1.285 . S
C896 H915 0.930 . S
C897 C900 1.424 . S
C897 C902 1.245 . S
C897 C903 1.428 . S
C898 C901 1.260 . S
C898 C902 1.477 . S
C898 H916 0.932 . S
C899 C900 1.384 . S
C899 C901 1.479 . S
C899 H917 0.929 . S
C900 C897 1.424 . S
C900 C899 1.384 . S
C900 H918 0.928 . S
C901 C898 1.260 . S
C901 C899 1.479 . S
C902 C897 1.245 . S
C902 C898 1.477 . S
C902 H919 0.932 . S
C903 U886 2.882 . S
C903 C897 1.428 . S
C903 O906 1.301 . S
C903 O907 1.282 . S
O904 U886 2.441 . S
O904 C890 1.249 . S
O905 U886 2.420 . S
O905 C890 1.202 . S
O906 U886 2.455 . S
O906 C903 1.301 . S
O907 U886 2.449 . S
O907 C903 1.282 . S
H908 C881 0.931 . S
H909 C883 0.929 . S
H910 C884 0.930 . S
H911 C885 0.931 . S
H912 C892 0.932 . S
H913 C893 0.930 . S
H914 C894 0.929 . S
H915 C896 0.930 . S
H916 C898 0.932 . S
H917 C899 0.929 . S
H918 C900 0.928 . S
H919 C902 0.932 . S
C920 C921 1.264 . S
C920 C925 1.479 . S
C920 C930 1.465 . S
C921 C920 1.264 . S
C921 C923 1.339 . S
C921 H948 0.931 . S
C922 C923 1.395 . S
C922 C924 1.320 . S
C923 C921 1.339 . S
C923 C922 1.395 . S
C923 H949 0.929 . S
C924 C922 1.320 . S
C924 C925 1.405 . S
C924 H950 0.930 . S
C925 C920 1.479 . S
C925 C924 1.405 . S
C925 H951 0.931 . S
U926 O927 2.454 . S
U926 O928 2.458 . S
U926 C929 2.984 . S
U926 C930 2.847 . S
U926 C943 2.882 . S
U926 O944 2.441 . S
U926 O945 2.420 . S
U926 O946 2.455 . S
U926 O947 2.449 . S
O927 U926 2.454 . S
O927 C929 1.353 . S
O928 U926 2.458 . S
O928 C929 1.286 . S
C929 U926 2.984 . S
C929 O927 1.353 . S
C929 O928 1.286 . S
C929 C931 1.363 . S
C930 C920 1.465 . S
C930 U926 2.847 . S
C930 O944 1.249 . S
C930 O945 1.202 . S
C931 C929 1.363 . S
C931 C933 1.408 . S
C931 C936 1.342 . S
C932 C933 1.310 . S
C932 C935 1.461 . S
C932 H952 0.932 . S
C933 C931 1.408 . S
C933 C932 1.310 . S
C933 H953 0.930 . S
C934 C935 1.474 . S
C934 C936 1.285 . S
C934 H954 0.929 . S
C935 C932 1.461 . S
C935 C934 1.474 . S
C936 C931 1.342 . S
C936 C934 1.285 . S
C936 H955 0.930 . S
C937 C940 1.424 . S
C937 C942 1.245 . S
C937 C943 1.428 . S
C938 C941 1.260 . S
C938 C942 1.477 . S
C938 H956 0.932 . S
C939 C940 1.384 . S
C939 C941 1.479 . S
C939 H957 0.929 . S
C940 C937 1.424 . S
C940 C939 1.384 . S
C940 H958 0.928 . S
C941 C938 1.260 . S
C941 C939 1.479 . S
C942 C937 1.245 . S
C942 C938 1.477 . S
C942 H959 0.932 . S
C943 U926 2.882 . S
C943 C937 1.428 . S
C943 O946 1.301 . S
C943 O947 1.282 . S
O944 U926 2.441 . S
O944 C930 1.249 . S
O945 U926 2.420 . S
O945 C930 1.202 . S
O946 U926 2.455 . S
O946 C943 1.301 . S
O947 U926 2.449 . S
O947 C943 1.282 . S
H948 C921 0.931 . S
H949 C923 0.929 . S
H950 C924 0.930 . S
H951 C925 0.931 . S
H952 C932 0.932 . S
H953 C933 0.930 . S
H954 C934 0.929 . S
H955 C936 0.930 . S
H956 C938 0.932 . S
H957 C939 0.929 . S
H958 C940 0.928 . S
H959 C942 0.932 . S
C960 C961 1.264 . S
C960 C965 1.479 . S
C960 C970 1.465 . S
C961 C960 1.264 . S
C961 C963 1.339 . S
C961 H988 0.931 . S
C962 C963 1.395 . S
C962 C964 1.320 . S
C963 C961 1.339 . S
C963 C962 1.395 . S
C963 H989 0.929 . S
C964 C962 1.320 . S
C964 C965 1.405 . S
C964 H990 0.930 . S
C965 C960 1.479 . S
C965 C964 1.405 . S
C965 H991 0.931 . S
U966 O967 2.454 . S
U966 O968 2.458 . S
U966 C969 2.984 . S
U966 C970 2.847 . S
U966 C983 2.882 . S
U966 O984 2.441 . S
U966 O985 2.420 . S
U966 O986 2.455 . S
U966 O987 2.449 . S
O967 U966 2.454 . S
O967 C969 1.353 . S
O968 U966 2.458 . S
O968 C969 1.286 . S
C969 U966 2.984 . S
C969 O967 1.353 . S
C969 O968 1.286 . S
C969 C971 1.363 . S
C970 C960 1.465 . S
C970 U966 2.847 . S
C970 O984 1.249 . S
C970 O985 1.202 . S
C971 C969 1.363 . S
C971 C973 1.408 . S
C971 C976 1.342 . S
C972 C973 1.310 . S
C972 C975 1.461 . S
C972 H992 0.932 . S
C973 C971 1.408 . S
C973 C972 1.310 . S
C973 H993 0.930 . S
C974 C975 1.474 . S
C974 C976 1.285 . S
C974 H994 0.929 . S
C975 C972 1.461 . S
C975 C974 1.474 . S
C976 C971 1.342 . S
C976 C974 1.285 . S
C976 H995 0.930 . S
C977 C980 1.424 . S
C977 C982 1.245 . S
C977 C983 1.428 . S
C978 C981 1.260 . S
C978 C982 1.477 . S
C978 H996 0.932 . S
C979 C980 1.384 . S
C979 C981 1.479 . S
C979 H997 0.929 . S
C980 C977 1.424 . S
C980 C979 1.384 . S
C980 H998 0.928 . S
C981 C978 1.260 . S
C981 C979 1.479 . S
C982 C977 1.245 . S
C982 C978 1.477 . S
C982 H999 0.932 . S
C983 U966 2.882 . S
C983 C977 1.428 . S
C983 O986 1.301 . S
C983 O987 1.282 . S
O984 U966 2.441 . S
O984 C970 1.249 . S
O985 U966 2.420 . S
O985 C970 1.202 . S
O986 U966 2.455 . S
O986 C983 1.301 . S
O987 U966 2.449 . S
O987 C983 1.282 . S
H988 C961 0.931 . S
H989 C963 0.929 . S
H990 C964 0.930 . S
H991 C965 0.931 . S
H992 C972 0.932 . S
H993 C973 0.930 . S
H994 C974 0.929 . S
H995 C976 0.930 . S
H996 C978 0.932 . S
H997 C979 0.929 . S
H998 C980 0.928 . S
H999 C982 0.932 . S
C1000 C1001 1.264 . S
C1000 C1005 1.479 . S
C1000 C1010 1.465 . S
C1001 C1000 1.264 . S
C1001 C1003 1.339 . S
C1001 H1028 0.931 . S
C1002 C1003 1.395 . S
C1002 C1004 1.320 . S
C1003 C1001 1.339 . S
C1003 C1002 1.395 . S
C1003 H1029 0.929 . S
C1004 C1002 1.320 . S
C1004 C1005 1.405 . S
C1004 H1030 0.930 . S
C1005 C1000 1.479 . S
C1005 C1004 1.405 . S
C1005 H1031 0.931 . S
U1006 O1007 2.454 . S
U1006 O1008 2.458 . S
U1006 C1009 2.984 . S
U1006 C1010 2.847 . S
U1006 C1023 2.882 . S
U1006 O1024 2.441 . S
U1006 O1025 2.420 . S
U1006 O1026 2.455 . S
U1006 O1027 2.449 . S
O1007 U1006 2.454 . S
O1007 C1009 1.353 . S
O1008 U1006 2.458 . S
O1008 C1009 1.286 . S
C1009 U1006 2.984 . S
C1009 O1007 1.353 . S
C1009 O1008 1.286 . S
C1009 C1011 1.363 . S
C1010 C1000 1.465 . S
C1010 U1006 2.847 . S
C1010 O1024 1.249 . S
C1010 O1025 1.202 . S
C1011 C1009 1.363 . S
C1011 C1013 1.408 . S
C1011 C1016 1.342 . S
C1012 C1013 1.310 . S
C1012 C1015 1.461 . S
C1012 H1032 0.932 . S
C1013 C1011 1.408 . S
C1013 C1012 1.310 . S
C1013 H1033 0.930 . S
C1014 C1015 1.474 . S
C1014 C1016 1.285 . S
C1014 H1034 0.929 . S
C1015 C1012 1.461 . S
C1015 C1014 1.474 . S
C1016 C1011 1.342 . S
C1016 C1014 1.285 . S
C1016 H1035 0.930 . S
C1017 C1020 1.424 . S
C1017 C1022 1.245 . S
C1017 C1023 1.428 . S
C1018 C1021 1.260 . S
C1018 C1022 1.477 . S
C1018 H1036 0.932 . S
C1019 C1020 1.384 . S
C1019 C1021 1.479 . S
C1019 H1037 0.929 . S
C1020 C1017 1.424 . S
C1020 C1019 1.384 . S
C1020 H1038 0.928 . S
C1021 C1018 1.260 . S
C1021 C1019 1.479 . S
C1022 C1017 1.245 . S
C1022 C1018 1.477 . S
C1022 H1039 0.932 . S
C1023 U1006 2.882 . S
C1023 C1017 1.428 . S
C1023 O1026 1.301 . S
C1023 O1027 1.282 . S
O1024 U1006 2.441 . S
O1024 C1010 1.249 . S
O1025 U1006 2.420 . S
O1025 C1010 1.202 . S
O1026 U1006 2.455 . S
O1026 C1023 1.301 . S
O1027 U1006 2.449 . S
O1027 C1023 1.282 . S
H1028 C1001 0.931 . S
H1029 C1003 0.929 . S
H1030 C1004 0.930 . S
H1031 C1005 0.931 . S
H1032 C1012 0.932 . S
H1033 C1013 0.930 . S
H1034 C1014 0.929 . S
H1035 C1016 0.930 . S
H1036 C1018 0.932 . S
H1037 C1019 0.929 . S
H1038 C1020 0.928 . S
H1039 C1022 0.932 . S
C1040 C1041 1.264 . S
C1040 C1045 1.479 . S
C1040 C1050 1.465 . S
C1041 C1040 1.264 . S
C1041 C1043 1.339 . S
C1041 H1068 0.931 . S
C1042 C1043 1.395 . S
C1042 C1044 1.320 . S
C1043 C1041 1.339 . S
C1043 C1042 1.395 . S
C1043 H1069 0.929 . S
C1044 C1042 1.320 . S
C1044 C1045 1.405 . S
C1044 H1070 0.930 . S
C1045 C1040 1.479 . S
C1045 C1044 1.405 . S
C1045 H1071 0.931 . S
U1046 O1047 2.454 . S
U1046 O1048 2.458 . S
U1046 C1049 2.984 . S
U1046 C1050 2.847 . S
U1046 C1063 2.882 . S
U1046 O1064 2.441 . S
U1046 O1065 2.420 . S
U1046 O1066 2.455 . S
U1046 O1067 2.449 . S
O1047 U1046 2.454 . S
O1047 C1049 1.353 . S
O1048 U1046 2.458 . S
O1048 C1049 1.286 . S
C1049 U1046 2.984 . S
C1049 O1047 1.353 . S
C1049 O1048 1.286 . S
C1049 C1051 1.363 . S
C1050 C1040 1.465 . S
C1050 U1046 2.847 . S
C1050 O1064 1.249 . S
C1050 O1065 1.202 . S
C1051 C1049 1.363 . S
C1051 C1053 1.408 . S
C1051 C1056 1.342 . S
C1052 C1053 1.310 . S
C1052 C1055 1.461 . S
C1052 H1072 0.932 . S
C1053 C1051 1.408 . S
C1053 C1052 1.310 . S
C1053 H1073 0.930 . S
C1054 C1055 1.474 . S
C1054 C1056 1.285 . S
C1054 H1074 0.929 . S
C1055 C1052 1.461 . S
C1055 C1054 1.474 . S
C1056 C1051 1.342 . S
C1056 C1054 1.285 . S
C1056 H1075 0.930 . S
C1057 C1060 1.424 . S
C1057 C1062 1.245 . S
C1057 C1063 1.428 . S
C1058 C1061 1.260 . S
C1058 C1062 1.477 . S
C1058 H1076 0.932 . S
C1059 C1060 1.384 . S
C1059 C1061 1.479 . S
C1059 H1077 0.929 . S
C1060 C1057 1.424 . S
C1060 C1059 1.384 . S
C1060 H1078 0.928 . S
C1061 C1058 1.260 . S
C1061 C1059 1.479 . S
C1062 C1057 1.245 . S
C1062 C1058 1.477 . S
C1062 H1079 0.932 . S
C1063 U1046 2.882 . S
C1063 C1057 1.428 . S
C1063 O1066 1.301 . S
C1063 O1067 1.282 . S
O1064 U1046 2.441 . S
O1064 C1050 1.249 . S
O1065 U1046 2.420 . S
O1065 C1050 1.202 . S
O1066 U1046 2.455 . S
O1066 C1063 1.301 . S
O1067 U1046 2.449 . S
O1067 C1063 1.282 . S
H1068 C1041 0.931 . S
H1069 C1043 0.929 . S
H1070 C1044 0.930 . S
H1071 C1045 0.931 . S
H1072 C1052 0.932 . S
H1073 C1053 0.930 . S
H1074 C1054 0.929 . S
H1075 C1056 0.930 . S
H1076 C1058 0.932 . S
H1077 C1059 0.929 . S
H1078 C1060 0.928 . S
H1079 C1062 0.932 . S
C1080 C1081 1.264 . S
C1080 C1085 1.479 . S
C1080 C1090 1.465 . S
C1081 C1080 1.264 . S
C1081 C1083 1.339 . S
C1081 H1108 0.931 . S
C1082 C1083 1.395 . S
C1082 C1084 1.320 . S
C1083 C1081 1.339 . S
C1083 C1082 1.395 . S
C1083 H1109 0.929 . S
C1084 C1082 1.320 . S
C1084 C1085 1.405 . S
C1084 H1110 0.930 . S
C1085 C1080 1.479 . S
C1085 C1084 1.405 . S
C1085 H1111 0.931 . S
U1086 O1087 2.454 . S
U1086 O1088 2.458 . S
U1086 C1089 2.984 . S
U1086 C1090 2.847 . S
U1086 C1103 2.882 . S
U1086 O1104 2.441 . S
U1086 O1105 2.420 . S
U1086 O1106 2.455 . S
U1086 O1107 2.449 . S
O1087 U1086 2.454 . S
O1087 C1089 1.353 . S
O1088 U1086 2.458 . S
O1088 C1089 1.286 . S
C1089 U1086 2.984 . S
C1089 O1087 1.353 . S
C1089 O1088 1.286 . S
C1089 C1091 1.363 . S
C1090 C1080 1.465 . S
C1090 U1086 2.847 . S
C1090 O1104 1.249 . S
C1090 O1105 1.202 . S
C1091 C1089 1.363 . S
C1091 C1093 1.408 . S
C1091 C1096 1.342 . S
C1092 C1093 1.310 . S
C1092 C1095 1.461 . S
C1092 H1112 0.932 . S
C1093 C1091 1.408 . S
C1093 C1092 1.310 . S
C1093 H1113 0.930 . S
C1094 C1095 1.474 . S
C1094 C1096 1.285 . S
C1094 H1114 0.929 . S
C1095 C1092 1.461 . S
C1095 C1094 1.474 . S
C1096 C1091 1.342 . S
C1096 C1094 1.285 . S
C1096 H1115 0.930 . S
C1097 C1100 1.424 . S
C1097 C1102 1.245 . S
C1097 C1103 1.428 . S
C1098 C1101 1.260 . S
C1098 C1102 1.477 . S
C1098 H1116 0.932 . S
C1099 C1100 1.384 . S
C1099 C1101 1.479 . S
C1099 H1117 0.929 . S
C1100 C1097 1.424 . S
C1100 C1099 1.384 . S
C1100 H1118 0.928 . S
C1101 C1098 1.260 . S
C1101 C1099 1.479 . S
C1102 C1097 1.245 . S
C1102 C1098 1.477 . S
C1102 H1119 0.932 . S
C1103 U1086 2.882 . S
C1103 C1097 1.428 . S
C1103 O1106 1.301 . S
C1103 O1107 1.282 . S
O1104 U1086 2.441 . S
O1104 C1090 1.249 . S
O1105 U1086 2.420 . S
O1105 C1090 1.202 . S
O1106 U1086 2.455 . S
O1106 C1103 1.301 . S
O1107 U1086 2.449 . S
O1107 C1103 1.282 . S
H1108 C1081 0.931 . S
H1109 C1083 0.929 . S
H1110 C1084 0.930 . S
H1111 C1085 0.931 . S
H1112 C1092 0.932 . S
H1113 C1093 0.930 . S
H1114 C1094 0.929 . S
H1115 C1096 0.930 . S
H1116 C1098 0.932 . S
H1117 C1099 0.929 . S
H1118 C1100 0.928 . S
H1119 C1102 0.932 . S
C1120 C1121 1.264 . S
C1120 C1125 1.479 . S
C1120 C1130 1.465 . S
C1121 C1120 1.264 . S
C1121 C1123 1.339 . S
C1121 H1148 0.931 . S
C1122 C1123 1.395 . S
C1122 C1124 1.320 . S
C1123 C1121 1.339 . S
C1123 C1122 1.395 . S
C1123 H1149 0.929 . S
C1124 C1122 1.320 . S
C1124 C1125 1.405 . S
C1124 H1150 0.930 . S
C1125 C1120 1.479 . S
C1125 C1124 1.405 . S
C1125 H1151 0.931 . S
U1126 O1127 2.454 . S
U1126 O1128 2.458 . S
U1126 C1129 2.984 . S
U1126 C1130 2.847 . S
U1126 C1143 2.882 . S
U1126 O1144 2.441 . S
U1126 O1145 2.420 . S
U1126 O1146 2.455 . S
U1126 O1147 2.449 . S
O1127 U1126 2.454 . S
O1127 C1129 1.353 . S
O1128 U1126 2.458 . S
O1128 C1129 1.286 . S
C1129 U1126 2.984 . S
C1129 O1127 1.353 . S
C1129 O1128 1.286 . S
C1129 C1131 1.363 . S
C1130 C1120 1.465 . S
C1130 U1126 2.847 . S
C1130 O1144 1.249 . S
C1130 O1145 1.202 . S
C1131 C1129 1.363 . S
C1131 C1133 1.408 . S
C1131 C1136 1.342 . S
C1132 C1133 1.310 . S
C1132 C1135 1.461 . S
C1132 H1152 0.932 . S
C1133 C1131 1.408 . S
C1133 C1132 1.310 . S
C1133 H1153 0.930 . S
C1134 C1135 1.474 . S
C1134 C1136 1.285 . S
C1134 H1154 0.929 . S
C1135 C1132 1.461 . S
C1135 C1134 1.474 . S
C1136 C1131 1.342 . S
C1136 C1134 1.285 . S
C1136 H1155 0.930 . S
C1137 C1140 1.424 . S
C1137 C1142 1.245 . S
C1137 C1143 1.428 . S
C1138 C1141 1.260 . S
C1138 C1142 1.477 . S
C1138 H1156 0.932 . S
C1139 C1140 1.384 . S
C1139 C1141 1.479 . S
C1139 H1157 0.929 . S
C1140 C1137 1.424 . S
C1140 C1139 1.384 . S
C1140 H1158 0.928 . S
C1141 C1138 1.260 . S
C1141 C1139 1.479 . S
C1142 C1137 1.245 . S
C1142 C1138 1.477 . S
C1142 H1159 0.932 . S
C1143 U1126 2.882 . S
C1143 C1137 1.428 . S
C1143 O1146 1.301 . S
C1143 O1147 1.282 . S
O1144 U1126 2.441 . S
O1144 C1130 1.249 . S
O1145 U1126 2.420 . S
O1145 C1130 1.202 . S
O1146 U1126 2.455 . S
O1146 C1143 1.301 . S
O1147 U1126 2.449 . S
O1147 C1143 1.282 . S
H1148 C1121 0.931 . S
H1149 C1123 0.929 . S
H1150 C1124 0.930 . S
H1151 C1125 0.931 . S
H1152 C1132 0.932 . S
H1153 C1133 0.930 . S
H1154 C1134 0.929 . S
H1155 C1136 0.930 . S
H1156 C1138 0.932 . S
H1157 C1139 0.929 . S
H1158 C1140 0.928 . S
H1159 C1142 0.932 . S
C1160 C1161 1.264 . S
C1160 C1165 1.479 . S
C1160 C1170 1.465 . S
C1161 C1160 1.264 . S
C1161 C1163 1.339 . S
C1161 H1188 0.931 . S
C1162 C1163 1.395 . S
C1162 C1164 1.320 . S
C1163 C1161 1.339 . S
C1163 C1162 1.395 . S
C1163 H1189 0.929 . S
C1164 C1162 1.320 . S
C1164 C1165 1.405 . S
C1164 H1190 0.930 . S
C1165 C1160 1.479 . S
C1165 C1164 1.405 . S
C1165 H1191 0.931 . S
U1166 O1167 2.454 . S
U1166 O1168 2.458 . S
U1166 C1169 2.984 . S
U1166 C1170 2.847 . S
U1166 C1183 2.882 . S
U1166 O1184 2.441 . S
U1166 O1185 2.420 . S
U1166 O1186 2.455 . S
U1166 O1187 2.449 . S
O1167 U1166 2.454 . S
O1167 C1169 1.353 . S
O1168 U1166 2.458 . S
O1168 C1169 1.286 . S
C1169 U1166 2.984 . S
C1169 O1167 1.353 . S
C1169 O1168 1.286 . S
C1169 C1171 1.363 . S
C1170 C1160 1.465 . S
C1170 U1166 2.847 . S
C1170 O1184 1.249 . S
C1170 O1185 1.202 . S
C1171 C1169 1.363 . S
C1171 C1173 1.408 . S
C1171 C1176 1.342 . S
C1172 C1173 1.310 . S
C1172 C1175 1.461 . S
C1172 H1192 0.932 . S
C1173 C1171 1.408 . S
C1173 C1172 1.310 . S
C1173 H1193 0.930 . S
C1174 C1175 1.474 . S
C1174 C1176 1.285 . S
C1174 H1194 0.929 . S
C1175 C1172 1.461 . S
C1175 C1174 1.474 . S
C1176 C1171 1.342 . S
C1176 C1174 1.285 . S
C1176 H1195 0.930 . S
C1177 C1180 1.424 . S
C1177 C1182 1.245 . S
C1177 C1183 1.428 . S
C1178 C1181 1.260 . S
C1178 C1182 1.477 . S
C1178 H1196 0.932 . S
C1179 C1180 1.384 . S
C1179 C1181 1.479 . S
C1179 H1197 0.929 . S
C1180 C1177 1.424 . S
C1180 C1179 1.384 . S
C1180 H1198 0.928 . S
C1181 C1178 1.260 . S
C1181 C1179 1.479 . S
C1182 C1177 1.245 . S
C1182 C1178 1.477 . S
C1182 H1199 0.932 . S
C1183 U1166 2.882 . S
C1183 C1177 1.428 . S
C1183 O1186 1.301 . S
C1183 O1187 1.282 . S
O1184 U1166 2.441 . S
O1184 C1170 1.249 . S
O1185 U1166 2.420 . S
O1185 C1170 1.202 . S
O1186 U1166 2.455 . S
O1186 C1183 1.301 . S
O1187 U1166 2.449 . S
O1187 C1183 1.282 . S
H1188 C1161 0.931 . S
H1189 C1163 0.929 . S
H1190 C1164 0.930 . S
H1191 C1165 0.931 . S
H1192 C1172 0.932 . S
H1193 C1173 0.930 . S
H1194 C1174 0.929 . S
H1195 C1176 0.930 . S
H1196 C1178 0.932 . S
H1197 C1179 0.929 . S
H1198 C1180 0.928 . S
H1199 C1182 0.932 . S
C1200 C1201 1.264 . S
C1200 C1205 1.479 . S
C1200 C1210 1.465 . S
C1201 C1200 1.264 . S
C1201 C1203 1.339 . S
C1201 H1228 0.931 . S
C1202 C1203 1.395 . S
C1202 C1204 1.320 . S
C1203 C1201 1.339 . S
C1203 C1202 1.395 . S
C1203 H1229 0.929 . S
C1204 C1202 1.320 . S
C1204 C1205 1.405 . S
C1204 H1230 0.930 . S
C1205 C1200 1.479 . S
C1205 C1204 1.405 . S
C1205 H1231 0.931 . S
U1206 O1207 2.454 . S
U1206 O1208 2.458 . S
U1206 C1209 2.984 . S
U1206 C1210 2.847 . S
U1206 C1223 2.882 . S
U1206 O1224 2.441 . S
U1206 O1225 2.420 . S
U1206 O1226 2.455 . S
U1206 O1227 2.449 . S
O1207 U1206 2.454 . S
O1207 C1209 1.353 . S
O1208 U1206 2.458 . S
O1208 C1209 1.286 . S
C1209 U1206 2.984 . S
C1209 O1207 1.353 . S
C1209 O1208 1.286 . S
C1209 C1211 1.363 . S
C1210 C1200 1.465 . S
C1210 U1206 2.847 . S
C1210 O1224 1.249 . S
C1210 O1225 1.202 . S
C1211 C1209 1.363 . S
C1211 C1213 1.408 . S
C1211 C1216 1.342 . S
C1212 C1213 1.310 . S
C1212 C1215 1.461 . S
C1212 H1232 0.932 . S
C1213 C1211 1.408 . S
C1213 C1212 1.310 . S
C1213 H1233 0.930 . S
C1214 C1215 1.474 . S
C1214 C1216 1.285 . S
C1214 H1234 0.929 . S
C1215 C1212 1.461 . S
C1215 C1214 1.474 . S
C1216 C1211 1.342 . S
C1216 C1214 1.285 . S
C1216 H1235 0.930 . S
C1217 C1220 1.424 . S
C1217 C1222 1.245 . S
C1217 C1223 1.428 . S
C1218 C1221 1.260 . S
C1218 C1222 1.477 . S
C1218 H1236 0.932 . S
C1219 C1220 1.384 . S
C1219 C1221 1.479 . S
C1219 H1237 0.929 . S
C1220 C1217 1.424 . S
C1220 C1219 1.384 . S
C1220 H1238 0.928 . S
C1221 C1218 1.260 . S
C1221 C1219 1.479 . S
C1222 C1217 1.245 . S
C1222 C1218 1.477 . S
C1222 H1239 0.932 . S
C1223 U1206 2.882 . S
C1223 C1217 1.428 . S
C1223 O1226 1.301 . S
C1223 O1227 1.282 . S
O1224 U1206 2.441 . S
O1224 C1210 1.249 . S
O1225 U1206 2.420 . S
O1225 C1210 1.202 . S
O1226 U1206 2.455 . S
O1226 C1223 1.301 . S
O1227 U1206 2.449 . S
O1227 C1223 1.282 . S
H1228 C1201 0.931 . S
H1229 C1203 0.929 . S
H1230 C1204 0.930 . S
H1231 C1205 0.931 . S
H1232 C1212 0.932 . S
H1233 C1213 0.930 . S
H1234 C1214 0.929 . S
H1235 C1216 0.930 . S
H1236 C1218 0.932 . S
H1237 C1219 0.929 . S
H1238 C1220 0.928 . S
H1239 C1222 0.932 . S
C1240 C1241 1.264 . S
C1240 C1245 1.479 . S
C1240 C1250 1.465 . S
C1241 C1240 1.264 . S
C1241 C1243 1.339 . S
C1241 H1268 0.931 . S
C1242 C1243 1.395 . S
C1242 C1244 1.320 . S
C1243 C1241 1.339 . S
C1243 C1242 1.395 . S
C1243 H1269 0.929 . S
C1244 C1242 1.320 . S
C1244 C1245 1.405 . S
C1244 H1270 0.930 . S
C1245 C1240 1.479 . S
C1245 C1244 1.405 . S
C1245 H1271 0.931 . S
U1246 O1247 2.454 . S
U1246 O1248 2.458 . S
U1246 C1249 2.984 . S
U1246 C1250 2.847 . S
U1246 C1263 2.882 . S
U1246 O1264 2.441 . S
U1246 O1265 2.420 . S
U1246 O1266 2.455 . S
U1246 O1267 2.449 . S
O1247 U1246 2.454 . S
O1247 C1249 1.353 . S
O1248 U1246 2.458 . S
O1248 C1249 1.286 . S
C1249 U1246 2.984 . S
C1249 O1247 1.353 . S
C1249 O1248 1.286 . S
C1249 C1251 1.363 . S
C1250 C1240 1.465 . S
C1250 U1246 2.847 . S
C1250 O1264 1.249 . S
C1250 O1265 1.202 . S
C1251 C1249 1.363 . S
C1251 C1253 1.408 . S
C1251 C1256 1.342 . S
C1252 C1253 1.310 . S
C1252 C1255 1.461 . S
C1252 H1272 0.932 . S
C1253 C1251 1.408 . S
C1253 C1252 1.310 . S
C1253 H1273 0.930 . S
C1254 C1255 1.474 . S
C1254 C1256 1.285 . S
C1254 H1274 0.929 . S
C1255 C1252 1.461 . S
C1255 C1254 1.474 . S
C1256 C1251 1.342 . S
C1256 C1254 1.285 . S
C1256 H1275 0.930 . S
C1257 C1260 1.424 . S
C1257 C1262 1.245 . S
C1257 C1263 1.428 . S
C1258 C1261 1.260 . S
C1258 C1262 1.477 . S
C1258 H1276 0.932 . S
C1259 C1260 1.384 . S
C1259 C1261 1.479 . S
C1259 H1277 0.929 . S
C1260 C1257 1.424 . S
C1260 C1259 1.384 . S
C1260 H1278 0.928 . S
C1261 C1258 1.260 . S
C1261 C1259 1.479 . S
C1262 C1257 1.245 . S
C1262 C1258 1.477 . S
C1262 H1279 0.932 . S
C1263 U1246 2.882 . S
C1263 C1257 1.428 . S
C1263 O1266 1.301 . S
C1263 O1267 1.282 . S
O1264 U1246 2.441 . S
O1264 C1250 1.249 . S
O1265 U1246 2.420 . S
O1265 C1250 1.202 . S
O1266 U1246 2.455 . S
O1266 C1263 1.301 . S
O1267 U1246 2.449 . S
O1267 C1263 1.282 . S
H1268 C1241 0.931 . S
H1269 C1243 0.929 . S
H1270 C1244 0.930 . S
H1271 C1245 0.931 . S
H1272 C1252 0.932 . S
H1273 C1253 0.930 . S
H1274 C1254 0.929 . S
H1275 C1256 0.930 . S
H1276 C1258 0.932 . S
H1277 C1259 0.929 . S
H1278 C1260 0.928 . S
H1279 C1262 0.932 . S
C1280 C1281 1.264 . S
C1280 C1285 1.479 . S
C1280 C1290 1.465 . S
C1281 C1280 1.264 . S
C1281 C1283 1.339 . S
C1281 H1308 0.931 . S
C1282 C1283 1.395 . S
C1282 C1284 1.320 . S
C1283 C1281 1.339 . S
C1283 C1282 1.395 . S
C1283 H1309 0.929 . S
C1284 C1282 1.320 . S
C1284 C1285 1.405 . S
C1284 H1310 0.930 . S
C1285 C1280 1.479 . S
C1285 C1284 1.405 . S
C1285 H1311 0.931 . S
U1286 O1287 2.454 . S
U1286 O1288 2.458 . S
U1286 C1289 2.984 . S
U1286 C1290 2.847 . S
U1286 C1303 2.882 . S
U1286 O1304 2.441 . S
U1286 O1305 2.420 . S
U1286 O1306 2.455 . S
U1286 O1307 2.449 . S
O1287 U1286 2.454 . S
O1287 C1289 1.353 . S
O1288 U1286 2.458 . S
O1288 C1289 1.286 . S
C1289 U1286 2.984 . S
C1289 O1287 1.353 . S
C1289 O1288 1.286 . S
C1289 C1291 1.363 . S
C1290 C1280 1.465 . S
C1290 U1286 2.847 . S
C1290 O1304 1.249 . S
C1290 O1305 1.202 . S
C1291 C1289 1.363 . S
C1291 C1293 1.408 . S
C1291 C1296 1.342 . S
C1292 C1293 1.310 . S
C1292 C1295 1.461 . S
C1292 H1312 0.932 . S
C1293 C1291 1.408 . S
C1293 C1292 1.310 . S
C1293 H1313 0.930 . S
C1294 C1295 1.474 . S
C1294 C1296 1.285 . S
C1294 H1314 0.929 . S
C1295 C1292 1.461 . S
C1295 C1294 1.474 . S
C1296 C1291 1.342 . S
C1296 C1294 1.285 . S
C1296 H1315 0.930 . S
C1297 C1300 1.424 . S
C1297 C1302 1.245 . S
C1297 C1303 1.428 . S
C1298 C1301 1.260 . S
C1298 C1302 1.477 . S
C1298 H1316 0.932 . S
C1299 C1300 1.384 . S
C1299 C1301 1.479 . S
C1299 H1317 0.929 . S
C1300 C1297 1.424 . S
C1300 C1299 1.384 . S
C1300 H1318 0.928 . S
C1301 C1298 1.260 . S
C1301 C1299 1.479 . S
C1302 C1297 1.245 . S
C1302 C1298 1.477 . S
C1302 H1319 0.932 . S
C1303 U1286 2.882 . S
C1303 C1297 1.428 . S
C1303 O1306 1.301 . S
C1303 O1307 1.282 . S
O1304 U1286 2.441 . S
O1304 C1290 1.249 . S
O1305 U1286 2.420 . S
O1305 C1290 1.202 . S
O1306 U1286 2.455 . S
O1306 C1303 1.301 . S
O1307 U1286 2.449 . S
O1307 C1303 1.282 . S
H1308 C1281 0.931 . S
H1309 C1283 0.929 . S
H1310 C1284 0.930 . S
H1311 C1285 0.931 . S
H1312 C1292 0.932 . S
H1313 C1293 0.930 . S
H1314 C1294 0.929 . S
H1315 C1296 0.930 . S
H1316 C1298 0.932 . S
H1317 C1299 0.929 . S
H1318 C1300 0.928 . S
H1319 C1302 0.932 . S
C1320 C1321 1.264 . S
C1320 C1325 1.479 . S
C1320 C1330 1.465 . S
C1321 C1320 1.264 . S
C1321 C1323 1.339 . S
C1321 H1348 0.931 . S
C1322 C1323 1.395 . S
C1322 C1324 1.320 . S
C1323 C1321 1.339 . S
C1323 C1322 1.395 . S
C1323 H1349 0.929 . S
C1324 C1322 1.320 . S
C1324 C1325 1.405 . S
C1324 H1350 0.930 . S
C1325 C1320 1.479 . S
C1325 C1324 1.405 . S
C1325 H1351 0.931 . S
U1326 O1327 2.454 . S
U1326 O1328 2.458 . S
U1326 C1329 2.984 . S
U1326 C1330 2.847 . S
U1326 C1343 2.882 . S
U1326 O1344 2.441 . S
U1326 O1345 2.420 . S
U1326 O1346 2.455 . S
U1326 O1347 2.449 . S
O1327 U1326 2.454 . S
O1327 C1329 1.353 . S
O1328 U1326 2.458 . S
O1328 C1329 1.286 . S
C1329 U1326 2.984 . S
C1329 O1327 1.353 . S
C1329 O1328 1.286 . S
C1329 C1331 1.363 . S
C1330 C1320 1.465 . S
C1330 U1326 2.847 . S
C1330 O1344 1.249 . S
C1330 O1345 1.202 . S
C1331 C1329 1.363 . S
C1331 C1333 1.408 . S
C1331 C1336 1.342 . S
C1332 C1333 1.310 . S
C1332 C1335 1.461 . S
C1332 H1352 0.932 . S
C1333 C1331 1.408 . S
C1333 C1332 1.310 . S
C1333 H1353 0.930 . S
C1334 C1335 1.474 . S
C1334 C1336 1.285 . S
C1334 H1354 0.929 . S
C1335 C1332 1.461 . S
C1335 C1334 1.474 . S
C1336 C1331 1.342 . S
C1336 C1334 1.285 . S
C1336 H1355 0.930 . S
C1337 C1340 1.424 . S
C1337 C1342 1.245 . S
C1337 C1343 1.428 . S
C1338 C1341 1.260 . S
C1338 C1342 1.477 . S
C1338 H1356 0.932 . S
C1339 C1340 1.384 . S
C1339 C1341 1.479 . S
C1339 H1357 0.929 . S
C1340 C1337 1.424 . S
C1340 C1339 1.384 . S
C1340 H1358 0.928 . S
C1341 C1338 1.260 . S
C1341 C1339 1.479 . S
C1342 C1337 1.245 . S
C1342 C1338 1.477 . S
C1342 H1359 0.932 . S
C1343 U1326 2.882 . S
C1343 C1337 1.428 . S
C1343 O1346 1.301 . S
C1343 O1347 1.282 . S
O1344 U1326 2.441 . S
O1344 C1330 1.249 . S
O1345 U1326 2.420 . S
O1345 C1330 1.202 . S
O1346 U1326 2.455 . S
O1346 C1343 1.301 . S
O1347 U1326 2.449 . S
O1347 C1343 1.282 . S
H1348 C1321 0.931 . S
H1349 C1323 0.929 . S
H1350 C1324 0.930 . S
H1351 C1325 0.931 . S
H1352 C1332 0.932 . S
H1353 C1333 0.930 . S
H1354 C1334 0.929 . S
H1355 C1336 0.930 . S
H1356 C1338 0.932 . S
H1357 C1339 0.929 . S
H1358 C1340 0.928 . S
H1359 C1342 0.932 . S
C1360 C1361 1.264 . S
C1360 C1365 1.479 . S
C1360 C1370 1.465 . S
C1361 C1360 1.264 . S
C1361 C1363 1.339 . S
C1361 H1388 0.931 . S
C1362 C1363 1.395 . S
C1362 C1364 1.320 . S
C1363 C1361 1.339 . S
C1363 C1362 1.395 . S
C1363 H1389 0.929 . S
C1364 C1362 1.320 . S
C1364 C1365 1.405 . S
C1364 H1390 0.930 . S
C1365 C1360 1.479 . S
C1365 C1364 1.405 . S
C1365 H1391 0.931 . S
U1366 O1367 2.454 . S
U1366 O1368 2.458 . S
U1366 C1369 2.984 . S
U1366 C1370 2.847 . S
U1366 C1383 2.882 . S
U1366 O1384 2.441 . S
U1366 O1385 2.420 . S
U1366 O1386 2.455 . S
U1366 O1387 2.449 . S
O1367 U1366 2.454 . S
O1367 C1369 1.353 . S
O1368 U1366 2.458 . S
O1368 C1369 1.286 . S
C1369 U1366 2.984 . S
C1369 O1367 1.353 . S
C1369 O1368 1.286 . S
C1369 C1371 1.363 . S
C1370 C1360 1.465 . S
C1370 U1366 2.847 . S
C1370 O1384 1.249 . S
C1370 O1385 1.202 . S
C1371 C1369 1.363 . S
C1371 C1373 1.408 . S
C1371 C1376 1.342 . S
C1372 C1373 1.310 . S
C1372 C1375 1.461 . S
C1372 H1392 0.932 . S
C1373 C1371 1.408 . S
C1373 C1372 1.310 . S
C1373 H1393 0.930 . S
C1374 C1375 1.474 . S
C1374 C1376 1.285 . S
C1374 H1394 0.929 . S
C1375 C1372 1.461 . S
C1375 C1374 1.474 . S
C1376 C1371 1.342 . S
C1376 C1374 1.285 . S
C1376 H1395 0.930 . S
C1377 C1380 1.424 . S
C1377 C1382 1.245 . S
C1377 C1383 1.428 . S
C1378 C1381 1.260 . S
C1378 C1382 1.477 . S
C1378 H1396 0.932 . S
C1379 C1380 1.384 . S
C1379 C1381 1.479 . S
C1379 H1397 0.929 . S
C1380 C1377 1.424 . S
C1380 C1379 1.384 . S
C1380 H1398 0.928 . S
C1381 C1378 1.260 . S
C1381 C1379 1.479 . S
C1382 C1377 1.245 . S
C1382 C1378 1.477 . S
C1382 H1399 0.932 . S
C1383 U1366 2.882 . S
C1383 C1377 1.428 . S
C1383 O1386 1.301 . S
C1383 O1387 1.282 . S
O1384 U1366 2.441 . S
O1384 C1370 1.249 . S
O1385 U1366 2.420 . S
O1385 C1370 1.202 . S
O1386 U1366 2.455 . S
O1386 C1383 1.301 . S
O1387 U1366 2.449 . S
O1387 C1383 1.282 . S
H1388 C1361 0.931 . S
H1389 C1363 0.929 . S
H1390 C1364 0.930 . S
H1391 C1365 0.931 . S
H1392 C1372 0.932 . S
H1393 C1373 0.930 . S
H1394 C1374 0.929 . S
H1395 C1376 0.930 . S
H1396 C1378 0.932 . S
H1397 C1379 0.929 . S
H1398 C1380 0.928 . S
H1399 C1382 0.932 . S
C1400 C1401 1.264 . S
C1400 C1405 1.479 . S
C1400 C1410 1.465 . S
C1401 C1400 1.264 . S
C1401 C1403 1.339 . S
C1401 H1428 0.931 . S
C1402 C1403 1.395 . S
C1402 C1404 1.320 . S
C1403 C1401 1.339 . S
C1403 C1402 1.395 . S
C1403 H1429 0.929 . S
C1404 C1402 1.320 . S
C1404 C1405 1.405 . S
C1404 H1430 0.930 . S
C1405 C1400 1.479 . S
C1405 C1404 1.405 . S
C1405 H1431 0.931 . S
U1406 O1407 2.454 . S
U1406 O1408 2.458 . S
U1406 C1409 2.984 . S
U1406 C1410 2.847 . S
U1406 C1423 2.882 . S
U1406 O1424 2.441 . S
U1406 O1425 2.420 . S
U1406 O1426 2.455 . S
U1406 O1427 2.449 . S
O1407 U1406 2.454 . S
O1407 C1409 1.353 . S
O1408 U1406 2.458 . S
O1408 C1409 1.286 . S
C1409 U1406 2.984 . S
C1409 O1407 1.353 . S
C1409 O1408 1.286 . S
C1409 C1411 1.363 . S
C1410 C1400 1.465 . S
C1410 U1406 2.847 . S
C1410 O1424 1.249 . S
C1410 O1425 1.202 . S
C1411 C1409 1.363 . S
C1411 C1413 1.408 . S
C1411 C1416 1.342 . S
C1412 C1413 1.310 . S
C1412 C1415 1.461 . S
C1412 H1432 0.932 . S
C1413 C1411 1.408 . S
C1413 C1412 1.310 . S
C1413 H1433 0.930 . S
C1414 C1415 1.474 . S
C1414 C1416 1.285 . S
C1414 H1434 0.929 . S
C1415 C1412 1.461 . S
C1415 C1414 1.474 . S
C1416 C1411 1.342 . S
C1416 C1414 1.285 . S
C1416 H1435 0.930 . S
C1417 C1420 1.424 . S
C1417 C1422 1.245 . S
C1417 C1423 1.428 . S
C1418 C1421 1.260 . S
C1418 C1422 1.477 . S
C1418 H1436 0.932 . S
C1419 C1420 1.384 . S
C1419 C1421 1.479 . S
C1419 H1437 0.929 . S
C1420 C1417 1.424 . S
C1420 C1419 1.384 . S
C1420 H1438 0.928 . S
C1421 C1418 1.260 . S
C1421 C1419 1.479 . S
C1422 C1417 1.245 . S
C1422 C1418 1.477 . S
C1422 H1439 0.932 . S
C1423 U1406 2.882 . S
C1423 C1417 1.428 . S
C1423 O1426 1.301 . S
C1423 O1427 1.282 . S
O1424 U1406 2.441 . S
O1424 C1410 1.249 . S
O1425 U1406 2.420 . S
O1425 C1410 1.202 . S
O1426 U1406 2.455 . S
O1426 C1423 1.301 . S
O1427 U1406 2.449 . S
O1427 C1423 1.282 . S
H1428 C1401 0.931 . S
H1429 C1403 0.929 . S
H1430 C1404 0.930 . S
H1431 C1405 0.931 . S
H1432 C1412 0.932 . S
H1433 C1413 0.930 . S
H1434 C1414 0.929 . S
H1435 C1416 0.930 . S
H1436 C1418 0.932 . S
H1437 C1419 0.929 . S
H1438 C1420 0.928 . S
H1439 C1422 0.932 . S
C1440 C1441 1.264 . S
C1440 C1445 1.479 . S
C1440 C1450 1.465 . S
C1441 C1440 1.264 . S
C1441 C1443 1.339 . S
C1441 H1468 0.931 . S
C1442 C1443 1.395 . S
C1442 C1444 1.320 . S
C1443 C1441 1.339 . S
C1443 C1442 1.395 . S
C1443 H1469 0.929 . S
C1444 C1442 1.320 . S
C1444 C1445 1.405 . S
C1444 H1470 0.930 . S
C1445 C1440 1.479 . S
C1445 C1444 1.405 . S
C1445 H1471 0.931 . S
U1446 O1447 2.454 . S
U1446 O1448 2.458 . S
U1446 C1449 2.984 . S
U1446 C1450 2.847 . S
U1446 C1463 2.882 . S
U1446 O1464 2.441 . S
U1446 O1465 2.420 . S
U1446 O1466 2.455 . S
U1446 O1467 2.449 . S
O1447 U1446 2.454 . S
O1447 C1449 1.353 . S
O1448 U1446 2.458 . S
O1448 C1449 1.286 . S
C1449 U1446 2.984 . S
C1449 O1447 1.353 . S
C1449 O1448 1.286 . S
C1449 C1451 1.363 . S
C1450 C1440 1.465 . S
C1450 U1446 2.847 . S
C1450 O1464 1.249 . S
C1450 O1465 1.202 . S
C1451 C1449 1.363 . S
C1451 C1453 1.408 . S
C1451 C1456 1.342 . S
C1452 C1453 1.310 . S
C1452 C1455 1.461 . S
C1452 H1472 0.932 . S
C1453 C1451 1.408 . S
C1453 C1452 1.310 . S
C1453 H1473 0.930 . S
C1454 C1455 1.474 . S
C1454 C1456 1.285 . S
C1454 H1474 0.929 . S
C1455 C1452 1.461 . S
C1455 C1454 1.474 . S
C1456 C1451 1.342 . S
C1456 C1454 1.285 . S
C1456 H1475 0.930 . S
C1457 C1460 1.424 . S
C1457 C1462 1.245 . S
C1457 C1463 1.428 . S
C1458 C1461 1.260 . S
C1458 C1462 1.477 . S
C1458 H1476 0.932 . S
C1459 C1460 1.384 . S
C1459 C1461 1.479 . S
C1459 H1477 0.929 . S
C1460 C1457 1.424 . S
C1460 C1459 1.384 . S
C1460 H1478 0.928 . S
C1461 C1458 1.260 . S
C1461 C1459 1.479 . S
C1462 C1457 1.245 . S
C1462 C1458 1.477 . S
C1462 H1479 0.932 . S
C1463 U1446 2.882 . S
C1463 C1457 1.428 . S
C1463 O1466 1.301 . S
C1463 O1467 1.282 . S
O1464 U1446 2.441 . S
O1464 C1450 1.249 . S
O1465 U1446 2.420 . S
O1465 C1450 1.202 . S
O1466 U1446 2.455 . S
O1466 C1463 1.301 . S
O1467 U1446 2.449 . S
O1467 C1463 1.282 . S
H1468 C1441 0.931 . S
H1469 C1443 0.929 . S
H1470 C1444 0.930 . S
H1471 C1445 0.931 . S
H1472 C1452 0.932 . S
H1473 C1453 0.930 . S
H1474 C1454 0.929 . S
H1475 C1456 0.930 . S
H1476 C1458 0.932 . S
H1477 C1459 0.929 . S
H1478 C1460 0.928 . S
H1479 C1462 0.932 . S
C1480 C1481 1.264 . S
C1480 C1485 1.479 . S
C1480 C1490 1.465 . S
C1481 C1480 1.264 . S
C1481 C1483 1.339 . S
C1481 H1508 0.931 . S
C1482 C1483 1.395 . S
C1482 C1484 1.320 . S
C1483 C1481 1.339 . S
C1483 C1482 1.395 . S
C1483 H1509 0.929 . S
C1484 C1482 1.320 . S
C1484 C1485 1.405 . S
C1484 H1510 0.930 . S
C1485 C1480 1.479 . S
C1485 C1484 1.405 . S
C1485 H1511 0.931 . S
U1486 O1487 2.454 . S
U1486 O1488 2.458 . S
U1486 C1489 2.984 . S
U1486 C1490 2.847 . S
U1486 C1503 2.882 . S
U1486 O1504 2.441 . S
U1486 O1505 2.420 . S
U1486 O1506 2.455 . S
U1486 O1507 2.449 . S
O1487 U1486 2.454 . S
O1487 C1489 1.353 . S
O1488 U1486 2.458 . S
O1488 C1489 1.286 . S
C1489 U1486 2.984 . S
C1489 O1487 1.353 . S
C1489 O1488 1.286 . S
C1489 C1491 1.363 . S
C1490 C1480 1.465 . S
C1490 U1486 2.847 . S
C1490 O1504 1.249 . S
C1490 O1505 1.202 . S
C1491 C1489 1.363 . S
C1491 C1493 1.408 . S
C1491 C1496 1.342 . S
C1492 C1493 1.310 . S
C1492 C1495 1.461 . S
C1492 H1512 0.932 . S
C1493 C1491 1.408 . S
C1493 C1492 1.310 . S
C1493 H1513 0.930 . S
C1494 C1495 1.474 . S
C1494 C1496 1.285 . S
C1494 H1514 0.929 . S
C1495 C1492 1.461 . S
C1495 C1494 1.474 . S
C1496 C1491 1.342 . S
C1496 C1494 1.285 . S
C1496 H1515 0.930 . S
C1497 C1500 1.424 . S
C1497 C1502 1.245 . S
C1497 C1503 1.428 . S
C1498 C1501 1.260 . S
C1498 C1502 1.477 . S
C1498 H1516 0.932 . S
C1499 C1500 1.384 . S
C1499 C1501 1.479 . S
C1499 H1517 0.929 . S
C1500 C1497 1.424 . S
C1500 C1499 1.384 . S
C1500 H1518 0.928 . S
C1501 C1498 1.260 . S
C1501 C1499 1.479 . S
C1502 C1497 1.245 . S
C1502 C1498 1.477 . S
C1502 H1519 0.932 . S
C1503 U1486 2.882 . S
C1503 C1497 1.428 . S
C1503 O1506 1.301 . S
C1503 O1507 1.282 . S
O1504 U1486 2.441 . S
O1504 C1490 1.249 . S
O1505 U1486 2.420 . S
O1505 C1490 1.202 . S
O1506 U1486 2.455 . S
O1506 C1503 1.301 . S
O1507 U1486 2.449 . S
O1507 C1503 1.282 . S
H1508 C1481 0.931 . S
H1509 C1483 0.929 . S
H1510 C1484 0.930 . S
H1511 C1485 0.931 . S
H1512 C1492 0.932 . S
H1513 C1493 0.930 . S
H1514 C1494 0.929 . S
H1515 C1496 0.930 . S
H1516 C1498 0.932 . S
H1517 C1499 0.929 . S
H1518 C1500 0.928 . S
H1519 C1502 0.932 . S
C1520 C1521 1.264 . S
C1520 C1525 1.479 . S
C1520 C1530 1.465 . S
C1521 C1520 1.264 . S
C1521 C1523 1.339 . S
C1521 H1548 0.931 . S
C1522 C1523 1.395 . S
C1522 C1524 1.320 . S
C1523 C1521 1.339 . S
C1523 C1522 1.395 . S
C1523 H1549 0.929 . S
C1524 C1522 1.320 . S
C1524 C1525 1.405 . S
C1524 H1550 0.930 . S
C1525 C1520 1.479 . S
C1525 C1524 1.405 . S
C1525 H1551 0.931 . S
U1526 O1527 2.454 . S
U1526 O1528 2.458 . S
U1526 C1529 2.984 . S
U1526 C1530 2.847 . S
U1526 C1543 2.882 . S
U1526 O1544 2.441 . S
U1526 O1545 2.420 . S
U1526 O1546 2.455 . S
U1526 O1547 2.449 . S
O1527 U1526 2.454 . S
O1527 C1529 1.353 . S
O1528 U1526 2.458 . S
O1528 C1529 1.286 . S
C1529 U1526 2.984 . S
C1529 O1527 1.353 . S
C1529 O1528 1.286 . S
C1529 C1531 1.363 . S
C1530 C1520 1.465 . S
C1530 U1526 2.847 . S
C1530 O1544 1.249 . S
C1530 O1545 1.202 . S
C1531 C1529 1.363 . S
C1531 C1533 1.408 . S
C1531 C1536 1.342 . S
C1532 C1533 1.310 . S
C1532 C1535 1.461 . S
C1532 H1552 0.932 . S
C1533 C1531 1.408 . S
C1533 C1532 1.310 . S
C1533 H1553 0.930 . S
C1534 C1535 1.474 . S
C1534 C1536 1.285 . S
C1534 H1554 0.929 . S
C1535 C1532 1.461 . S
C1535 C1534 1.474 . S
C1536 C1531 1.342 . S
C1536 C1534 1.285 . S
C1536 H1555 0.930 . S
C1537 C1540 1.424 . S
C1537 C1542 1.245 . S
C1537 C1543 1.428 . S
C1538 C1541 1.260 . S
C1538 C1542 1.477 . S
C1538 H1556 0.932 . S
C1539 C1540 1.384 . S
C1539 C1541 1.479 . S
C1539 H1557 0.929 . S
C1540 C1537 1.424 . S
C1540 C1539 1.384 . S
C1540 H1558 0.928 . S
C1541 C1538 1.260 . S
C1541 C1539 1.479 . S
C1542 C1537 1.245 . S
C1542 C1538 1.477 . S
C1542 H1559 0.932 . S
C1543 U1526 2.882 . S
C1543 C1537 1.428 . S
C1543 O1546 1.301 . S
C1543 O1547 1.282 . S
O1544 U1526 2.441 . S
O1544 C1530 1.249 . S
O1545 U1526 2.420 . S
O1545 C1530 1.202 . S
O1546 U1526 2.455 . S
O1546 C1543 1.301 . S
O1547 U1526 2.449 . S
O1547 C1543 1.282 . S
H1548 C1521 0.931 . S
H1549 C1523 0.929 . S
H1550 C1524 0.930 . S
H1551 C1525 0.931 . S
H1552 C1532 0.932 . S
H1553 C1533 0.930 . S
H1554 C1534 0.929 . S
H1555 C1536 0.930 . S
H1556 C1538 0.932 . S
H1557 C1539 0.929 . S
H1558 C1540 0.928 . S
H1559 C1542 0.932 . S
C1560 C1561 1.264 . S
C1560 C1565 1.479 . S
C1560 C1570 1.465 . S
C1561 C1560 1.264 . S
C1561 C1563 1.339 . S
C1561 H1588 0.931 . S
C1562 C1563 1.395 . S
C1562 C1564 1.320 . S
C1563 C1561 1.339 . S
C1563 C1562 1.395 . S
C1563 H1589 0.929 . S
C1564 C1562 1.320 . S
C1564 C1565 1.405 . S
C1564 H1590 0.930 . S
C1565 C1560 1.479 . S
C1565 C1564 1.405 . S
C1565 H1591 0.931 . S
U1566 O1567 2.454 . S
U1566 O1568 2.458 . S
U1566 C1569 2.984 . S
U1566 C1570 2.847 . S
U1566 C1583 2.882 . S
U1566 O1584 2.441 . S
U1566 O1585 2.420 . S
U1566 O1586 2.455 . S
U1566 O1587 2.449 . S
O1567 U1566 2.454 . S
O1567 C1569 1.353 . S
O1568 U1566 2.458 . S
O1568 C1569 1.286 . S
C1569 U1566 2.984 . S
C1569 O1567 1.353 . S
C1569 O1568 1.286 . S
C1569 C1571 1.363 . S
C1570 C1560 1.465 . S
C1570 U1566 2.847 . S
C1570 O1584 1.249 . S
C1570 O1585 1.202 . S
C1571 C1569 1.363 . S
C1571 C1573 1.408 . S
C1571 C1576 1.342 . S
C1572 C1573 1.310 . S
C1572 C1575 1.461 . S
C1572 H1592 0.932 . S
C1573 C1571 1.408 . S
C1573 C1572 1.310 . S
C1573 H1593 0.930 . S
C1574 C1575 1.474 . S
C1574 C1576 1.285 . S
C1574 H1594 0.929 . S
C1575 C1572 1.461 . S
C1575 C1574 1.474 . S
C1576 C1571 1.342 . S
C1576 C1574 1.285 . S
C1576 H1595 0.930 . S
C1577 C1580 1.424 . S
C1577 C1582 1.245 . S
C1577 C1583 1.428 . S
C1578 C1581 1.260 . S
C1578 C1582 1.477 . S
C1578 H1596 0.932 . S
C1579 C1580 1.384 . S
C1579 C1581 1.479 . S
C1579 H1597 0.929 . S
C1580 C1577 1.424 . S
C1580 C1579 1.384 . S
C1580 H1598 0.928 . S
C1581 C1578 1.260 . S
C1581 C1579 1.479 . S
C1582 C1577 1.245 . S
C1582 C1578 1.477 . S
C1582 H1599 0.932 . S
C1583 U1566 2.882 . S
C1583 C1577 1.428 . S
C1583 O1586 1.301 . S
C1583 O1587 1.282 . S
O1584 U1566 2.441 . S
O1584 C1570 1.249 . S
O1585 U1566 2.420 . S
O1585 C1570 1.202 . S
O1586 U1566 2.455 . S
O1586 C1583 1.301 . S
O1587 U1566 2.449 . S
O1587 C1583 1.282 . S
H1588 C1561 0.931 . S
H1589 C1563 0.929 . S
H1590 C1564 0.930 . S
H1591 C1565 0.931 . S
H1592 C1572 0.932 . S
H1593 C1573 0.930 . S
H1594 C1574 0.929 . S
H1595 C1576 0.930 . S
H1596 C1578 0.932 . S
H1597 C1579 0.929 . S
H1598 C1580 0.928 . S
H1599 C1582 0.932 . S
C1600 C1601 1.264 . S
C1600 C1605 1.479 . S
C1600 C1610 1.465 . S
C1601 C1600 1.264 . S
C1601 C1603 1.339 . S
C1601 H1628 0.931 . S
C1602 C1603 1.395 . S
C1602 C1604 1.320 . S
C1603 C1601 1.339 . S
C1603 C1602 1.395 . S
C1603 H1629 0.929 . S
C1604 C1602 1.320 . S
C1604 C1605 1.405 . S
C1604 H1630 0.930 . S
C1605 C1600 1.479 . S
C1605 C1604 1.405 . S
C1605 H1631 0.931 . S
U1606 O1607 2.454 . S
U1606 O1608 2.458 . S
U1606 C1609 2.984 . S
U1606 C1610 2.847 . S
U1606 C1623 2.882 . S
U1606 O1624 2.441 . S
U1606 O1625 2.420 . S
U1606 O1626 2.455 . S
U1606 O1627 2.449 . S
O1607 U1606 2.454 . S
O1607 C1609 1.353 . S
O1608 U1606 2.458 . S
O1608 C1609 1.286 . S
C1609 U1606 2.984 . S
C1609 O1607 1.353 . S
C1609 O1608 1.286 . S
C1609 C1611 1.363 . S
C1610 C1600 1.465 . S
C1610 U1606 2.847 . S
C1610 O1624 1.249 . S
C1610 O1625 1.202 . S
C1611 C1609 1.363 . S
C1611 C1613 1.408 . S
C1611 C1616 1.342 . S
C1612 C1613 1.310 . S
C1612 C1615 1.461 . S
C1612 H1632 0.932 . S
C1613 C1611 1.408 . S
C1613 C1612 1.310 . S
C1613 H1633 0.930 . S
C1614 C1615 1.474 . S
C1614 C1616 1.285 . S
C1614 H1634 0.929 . S
C1615 C1612 1.461 . S
C1615 C1614 1.474 . S
C1616 C1611 1.342 . S
C1616 C1614 1.285 . S
C1616 H1635 0.930 . S
C1617 C1620 1.424 . S
C1617 C1622 1.245 . S
C1617 C1623 1.428 . S
C1618 C1621 1.260 . S
C1618 C1622 1.477 . S
C1618 H1636 0.932 . S
C1619 C1620 1.384 . S
C1619 C1621 1.479 . S
C1619 H1637 0.929 . S
C1620 C1617 1.424 . S
C1620 C1619 1.384 . S
C1620 H1638 0.928 . S
C1621 C1618 1.260 . S
C1621 C1619 1.479 . S
C1622 C1617 1.245 . S
C1622 C1618 1.477 . S
C1622 H1639 0.932 . S
C1623 U1606 2.882 . S
C1623 C1617 1.428 . S
C1623 O1626 1.301 . S
C1623 O1627 1.282 . S
O1624 U1606 2.441 . S
O1624 C1610 1.249 . S
O1625 U1606 2.420 . S
O1625 C1610 1.202 . S
O1626 U1606 2.455 . S
O1626 C1623 1.301 . S
O1627 U1606 2.449 . S
O1627 C1623 1.282 . S
H1628 C1601 0.931 . S
H1629 C1603 0.929 . S
H1630 C1604 0.930 . S
H1631 C1605 0.931 . S
H1632 C1612 0.932 . S
H1633 C1613 0.930 . S
H1634 C1614 0.929 . S
H1635 C1616 0.930 . S
H1636 C1618 0.932 . S
H1637 C1619 0.929 . S
H1638 C1620 0.928 . S
H1639 C1622 0.932 . S
C1640 C1641 1.264 . S
C1640 C1645 1.479 . S
C1640 C1650 1.465 . S
C1641 C1640 1.264 . S
C1641 C1643 1.339 . S
C1641 H1668 0.931 . S
C1642 C1643 1.395 . S
C1642 C1644 1.320 . S
C1643 C1641 1.339 . S
C1643 C1642 1.395 . S
C1643 H1669 0.929 . S
C1644 C1642 1.320 . S
C1644 C1645 1.405 . S
C1644 H1670 0.930 . S
C1645 C1640 1.479 . S
C1645 C1644 1.405 . S
C1645 H1671 0.931 . S
U1646 O1647 2.454 . S
U1646 O1648 2.458 . S
U1646 C1649 2.984 . S
U1646 C1650 2.847 . S
U1646 C1663 2.882 . S
U1646 O1664 2.441 . S
U1646 O1665 2.420 . S
U1646 O1666 2.455 . S
U1646 O1667 2.449 . S
O1647 U1646 2.454 . S
O1647 C1649 1.353 . S
O1648 U1646 2.458 . S
O1648 C1649 1.286 . S
C1649 U1646 2.984 . S
C1649 O1647 1.353 . S
C1649 O1648 1.286 . S
C1649 C1651 1.363 . S
C1650 C1640 1.465 . S
C1650 U1646 2.847 . S
C1650 O1664 1.249 . S
C1650 O1665 1.202 . S
C1651 C1649 1.363 . S
C1651 C1653 1.408 . S
C1651 C1656 1.342 . S
C1652 C1653 1.310 . S
C1652 C1655 1.461 . S
C1652 H1672 0.932 . S
C1653 C1651 1.408 . S
C1653 C1652 1.310 . S
C1653 H1673 0.930 . S
C1654 C1655 1.474 . S
C1654 C1656 1.285 . S
C1654 H1674 0.929 . S
C1655 C1652 1.461 . S
C1655 C1654 1.474 . S
C1656 C1651 1.342 . S
C1656 C1654 1.285 . S
C1656 H1675 0.930 . S
C1657 C1660 1.424 . S
C1657 C1662 1.245 . S
C1657 C1663 1.428 . S
C1658 C1661 1.260 . S
C1658 C1662 1.477 . S
C1658 H1676 0.932 . S
C1659 C1660 1.384 . S
C1659 C1661 1.479 . S
C1659 H1677 0.929 . S
C1660 C1657 1.424 . S
C1660 C1659 1.384 . S
C1660 H1678 0.928 . S
C1661 C1658 1.260 . S
C1661 C1659 1.479 . S
C1662 C1657 1.245 . S
C1662 C1658 1.477 . S
C1662 H1679 0.932 . S
C1663 U1646 2.882 . S
C1663 C1657 1.428 . S
C1663 O1666 1.301 . S
C1663 O1667 1.282 . S
O1664 U1646 2.441 . S
O1664 C1650 1.249 . S
O1665 U1646 2.420 . S
O1665 C1650 1.202 . S
O1666 U1646 2.455 . S
O1666 C1663 1.301 . S
O1667 U1646 2.449 . S
O1667 C1663 1.282 . S
H1668 C1641 0.931 . S
H1669 C1643 0.929 . S
H1670 C1644 0.930 . S
H1671 C1645 0.931 . S
H1672 C1652 0.932 . S
H1673 C1653 0.930 . S
H1674 C1654 0.929 . S
H1675 C1656 0.930 . S
H1676 C1658 0.932 . S
H1677 C1659 0.929 . S
H1678 C1660 0.928 . S
H1679 C1662 0.932 . S
C1680 C1681 1.264 . S
C1680 C1685 1.479 . S
C1680 C1690 1.465 . S
C1681 C1680 1.264 . S
C1681 C1683 1.339 . S
C1681 H1708 0.931 . S
C1682 C1683 1.395 . S
C1682 C1684 1.320 . S
C1683 C1681 1.339 . S
C1683 C1682 1.395 . S
C1683 H1709 0.929 . S
C1684 C1682 1.320 . S
C1684 C1685 1.405 . S
C1684 H1710 0.930 . S
C1685 C1680 1.479 . S
C1685 C1684 1.405 . S
C1685 H1711 0.931 . S
U1686 O1687 2.454 . S
U1686 O1688 2.458 . S
U1686 C1689 2.984 . S
U1686 C1690 2.847 . S
U1686 C1703 2.882 . S
U1686 O1704 2.441 . S
U1686 O1705 2.420 . S
U1686 O1706 2.455 . S
U1686 O1707 2.449 . S
O1687 U1686 2.454 . S
O1687 C1689 1.353 . S
O1688 U1686 2.458 . S
O1688 C1689 1.286 . S
C1689 U1686 2.984 . S
C1689 O1687 1.353 . S
C1689 O1688 1.286 . S
C1689 C1691 1.363 . S
C1690 C1680 1.465 . S
C1690 U1686 2.847 . S
C1690 O1704 1.249 . S
C1690 O1705 1.202 . S
C1691 C1689 1.363 . S
C1691 C1693 1.408 . S
C1691 C1696 1.342 . S
C1692 C1693 1.310 . S
C1692 C1695 1.461 . S
C1692 H1712 0.932 . S
C1693 C1691 1.408 . S
C1693 C1692 1.310 . S
C1693 H1713 0.930 . S
C1694 C1695 1.474 . S
C1694 C1696 1.285 . S
C1694 H1714 0.929 . S
C1695 C1692 1.461 . S
C1695 C1694 1.474 . S
C1696 C1691 1.342 . S
C1696 C1694 1.285 . S
C1696 H1715 0.930 . S
C1697 C1700 1.424 . S
C1697 C1702 1.245 . S
C1697 C1703 1.428 . S
C1698 C1701 1.260 . S
C1698 C1702 1.477 . S
C1698 H1716 0.932 . S
C1699 C1700 1.384 . S
C1699 C1701 1.479 . S
C1699 H1717 0.929 . S
C1700 C1697 1.424 . S
C1700 C1699 1.384 . S
C1700 H1718 0.928 . S
C1701 C1698 1.260 . S
C1701 C1699 1.479 . S
C1702 C1697 1.245 . S
C1702 C1698 1.477 . S
C1702 H1719 0.932 . S
C1703 U1686 2.882 . S
C1703 C1697 1.428 . S
C1703 O1706 1.301 . S
C1703 O1707 1.282 . S
O1704 U1686 2.441 . S
O1704 C1690 1.249 . S
O1705 U1686 2.420 . S
O1705 C1690 1.202 . S
O1706 U1686 2.455 . S
O1706 C1703 1.301 . S
O1707 U1686 2.449 . S
O1707 C1703 1.282 . S
H1708 C1681 0.931 . S
H1709 C1683 0.929 . S
H1710 C1684 0.930 . S
H1711 C1685 0.931 . S
H1712 C1692 0.932 . S
H1713 C1693 0.930 . S
H1714 C1694 0.929 . S
H1715 C1696 0.930 . S
H1716 C1698 0.932 . S
H1717 C1699 0.929 . S
H1718 C1700 0.928 . S
H1719 C1702 0.932 . S
C1720 C1721 1.264 . S
C1720 C1725 1.479 . S
C1720 C1730 1.465 . S
C1721 C1720 1.264 . S
C1721 C1723 1.339 . S
C1721 H1748 0.931 . S
C1722 C1723 1.395 . S
C1722 C1724 1.320 . S
C1723 C1721 1.339 . S
C1723 C1722 1.395 . S
C1723 H1749 0.929 . S
C1724 C1722 1.320 . S
C1724 C1725 1.405 . S
C1724 H1750 0.930 . S
C1725 C1720 1.479 . S
C1725 C1724 1.405 . S
C1725 H1751 0.931 . S
U1726 O1727 2.454 . S
U1726 O1728 2.458 . S
U1726 C1729 2.984 . S
U1726 C1730 2.847 . S
U1726 C1743 2.882 . S
U1726 O1744 2.441 . S
U1726 O1745 2.420 . S
U1726 O1746 2.455 . S
U1726 O1747 2.449 . S
O1727 U1726 2.454 . S
O1727 C1729 1.353 . S
O1728 U1726 2.458 . S
O1728 C1729 1.286 . S
C1729 U1726 2.984 . S
C1729 O1727 1.353 . S
C1729 O1728 1.286 . S
C1729 C1731 1.363 . S
C1730 C1720 1.465 . S
C1730 U1726 2.847 . S
C1730 O1744 1.249 . S
C1730 O1745 1.202 . S
C1731 C1729 1.363 . S
C1731 C1733 1.408 . S
C1731 C1736 1.342 . S
C1732 C1733 1.310 . S
C1732 C1735 1.461 . S
C1732 H1752 0.932 . S
C1733 C1731 1.408 . S
C1733 C1732 1.310 . S
C1733 H1753 0.930 . S
C1734 C1735 1.474 . S
C1734 C1736 1.285 . S
C1734 H1754 0.929 . S
C1735 C1732 1.461 . S
C1735 C1734 1.474 . S
C1736 C1731 1.342 . S
C1736 C1734 1.285 . S
C1736 H1755 0.930 . S
C1737 C1740 1.424 . S
C1737 C1742 1.245 . S
C1737 C1743 1.428 . S
C1738 C1741 1.260 . S
C1738 C1742 1.477 . S
C1738 H1756 0.932 . S
C1739 C1740 1.384 . S
C1739 C1741 1.479 . S
C1739 H1757 0.929 . S
C1740 C1737 1.424 . S
C1740 C1739 1.384 . S
C1740 H1758 0.928 . S
C1741 C1738 1.260 . S
C1741 C1739 1.479 . S
C1742 C1737 1.245 . S
C1742 C1738 1.477 . S
C1742 H1759 0.932 . S
C1743 U1726 2.882 . S
C1743 C1737 1.428 . S
C1743 O1746 1.301 . S
C1743 O1747 1.282 . S
O1744 U1726 2.441 . S
O1744 C1730 1.249 . S
O1745 U1726 2.420 . S
O1745 C1730 1.202 . S
O1746 U1726 2.455 . S
O1746 C1743 1.301 . S
O1747 U1726 2.449 . S
O1747 C1743 1.282 . S
H1748 C1721 0.931 . S
H1749 C1723 0.929 . S
H1750 C1724 0.930 . S
H1751 C1725 0.931 . S
H1752 C1732 0.932 . S
H1753 C1733 0.930 . S
H1754 C1734 0.929 . S
H1755 C1736 0.930 . S
H1756 C1738 0.932 . S
H1757 C1739 0.929 . S
H1758 C1740 0.928 . S
H1759 C1742 0.932 . S
C1760 C1761 1.264 . S
C1760 C1765 1.479 . S
C1760 C1770 1.465 . S
C1761 C1760 1.264 . S
C1761 C1763 1.339 . S
C1761 H1788 0.931 . S
C1762 C1763 1.395 . S
C1762 C1764 1.320 . S
C1763 C1761 1.339 . S
C1763 C1762 1.395 . S
C1763 H1789 0.929 . S
C1764 C1762 1.320 . S
C1764 C1765 1.405 . S
C1764 H1790 0.930 . S
C1765 C1760 1.479 . S
C1765 C1764 1.405 . S
C1765 H1791 0.931 . S
U1766 O1767 2.454 . S
U1766 O1768 2.458 . S
U1766 C1769 2.984 . S
U1766 C1770 2.847 . S
U1766 C1783 2.882 . S
U1766 O1784 2.441 . S
U1766 O1785 2.420 . S
U1766 O1786 2.455 . S
U1766 O1787 2.449 . S
O1767 U1766 2.454 . S
O1767 C1769 1.353 . S
O1768 U1766 2.458 . S
O1768 C1769 1.286 . S
C1769 U1766 2.984 . S
C1769 O1767 1.353 . S
C1769 O1768 1.286 . S
C1769 C1771 1.363 . S
C1770 C1760 1.465 . S
C1770 U1766 2.847 . S
C1770 O1784 1.249 . S
C1770 O1785 1.202 . S
C1771 C1769 1.363 . S
C1771 C1773 1.408 . S
C1771 C1776 1.342 . S
C1772 C1773 1.310 . S
C1772 C1775 1.461 . S
C1772 H1792 0.932 . S
C1773 C1771 1.408 . S
C1773 C1772 1.310 . S
C1773 H1793 0.930 . S
C1774 C1775 1.474 . S
C1774 C1776 1.285 . S
C1774 H1794 0.929 . S
C1775 C1772 1.461 . S
C1775 C1774 1.474 . S
C1776 C1771 1.342 . S
C1776 C1774 1.285 . S
C1776 H1795 0.930 . S
C1777 C1780 1.424 . S
C1777 C1782 1.245 . S
C1777 C1783 1.428 . S
C1778 C1781 1.260 . S
C1778 C1782 1.477 . S
C1778 H1796 0.932 . S
C1779 C1780 1.384 . S
C1779 C1781 1.479 . S
C1779 H1797 0.929 . S
C1780 C1777 1.424 . S
C1780 C1779 1.384 . S
C1780 H1798 0.928 . S
C1781 C1778 1.260 . S
C1781 C1779 1.479 . S
C1782 C1777 1.245 . S
C1782 C1778 1.477 . S
C1782 H1799 0.932 . S
C1783 U1766 2.882 . S
C1783 C1777 1.428 . S
C1783 O1786 1.301 . S
C1783 O1787 1.282 . S
O1784 U1766 2.441 . S
O1784 C1770 1.249 . S
O1785 U1766 2.420 . S
O1785 C1770 1.202 . S
O1786 U1766 2.455 . S
O1786 C1783 1.301 . S
O1787 U1766 2.449 . S
O1787 C1783 1.282 . S
H1788 C1761 0.931 . S
H1789 C1763 0.929 . S
H1790 C1764 0.930 . S
H1791 C1765 0.931 . S
H1792 C1772 0.932 . S
H1793 C1773 0.930 . S
H1794 C1774 0.929 . S
H1795 C1776 0.930 . S
H1796 C1778 0.932 . S
H1797 C1779 0.929 . S
H1798 C1780 0.928 . S
H1799 C1782 0.932 . S
C1800 C1801 1.264 . S
C1800 C1805 1.479 . S
C1800 C1810 1.465 . S
C1801 C1800 1.264 . S
C1801 C1803 1.339 . S
C1801 H1828 0.931 . S
C1802 C1803 1.395 . S
C1802 C1804 1.320 . S
C1803 C1801 1.339 . S
C1803 C1802 1.395 . S
C1803 H1829 0.929 . S
C1804 C1802 1.320 . S
C1804 C1805 1.405 . S
C1804 H1830 0.930 . S
C1805 C1800 1.479 . S
C1805 C1804 1.405 . S
C1805 H1831 0.931 . S
U1806 O1807 2.454 . S
U1806 O1808 2.458 . S
U1806 C1809 2.984 . S
U1806 C1810 2.847 . S
U1806 C1823 2.882 . S
U1806 O1824 2.441 . S
U1806 O1825 2.420 . S
U1806 O1826 2.455 . S
U1806 O1827 2.449 . S
O1807 U1806 2.454 . S
O1807 C1809 1.353 . S
O1808 U1806 2.458 . S
O1808 C1809 1.286 . S
C1809 U1806 2.984 . S
C1809 O1807 1.353 . S
C1809 O1808 1.286 . S
C1809 C1811 1.363 . S
C1810 C1800 1.465 . S
C1810 U1806 2.847 . S
C1810 O1824 1.249 . S
C1810 O1825 1.202 . S
C1811 C1809 1.363 . S
C1811 C1813 1.408 . S
C1811 C1816 1.342 . S
C1812 C1813 1.310 . S
C1812 C1815 1.461 . S
C1812 H1832 0.932 . S
C1813 C1811 1.408 . S
C1813 C1812 1.310 . S
C1813 H1833 0.930 . S
C1814 C1815 1.474 . S
C1814 C1816 1.285 . S
C1814 H1834 0.929 . S
C1815 C1812 1.461 . S
C1815 C1814 1.474 . S
C1816 C1811 1.342 . S
C1816 C1814 1.285 . S
C1816 H1835 0.930 . S
C1817 C1820 1.424 . S
C1817 C1822 1.245 . S
C1817 C1823 1.428 . S
C1818 C1821 1.260 . S
C1818 C1822 1.477 . S
C1818 H1836 0.932 . S
C1819 C1820 1.384 . S
C1819 C1821 1.479 . S
C1819 H1837 0.929 . S
C1820 C1817 1.424 . S
C1820 C1819 1.384 . S
C1820 H1838 0.928 . S
C1821 C1818 1.260 . S
C1821 C1819 1.479 . S
C1822 C1817 1.245 . S
C1822 C1818 1.477 . S
C1822 H1839 0.932 . S
C1823 U1806 2.882 . S
C1823 C1817 1.428 . S
C1823 O1826 1.301 . S
C1823 O1827 1.282 . S
O1824 U1806 2.441 . S
O1824 C1810 1.249 . S
O1825 U1806 2.420 . S
O1825 C1810 1.202 . S
O1826 U1806 2.455 . S
O1826 C1823 1.301 . S
O1827 U1806 2.449 . S
O1827 C1823 1.282 . S
H1828 C1801 0.931 . S
H1829 C1803 0.929 . S
H1830 C1804 0.930 . S
H1831 C1805 0.931 . S
H1832 C1812 0.932 . S
H1833 C1813 0.930 . S
H1834 C1814 0.929 . S
H1835 C1816 0.930 . S
H1836 C1818 0.932 . S
H1837 C1819 0.929 . S
H1838 C1820 0.928 . S
H1839 C1822 0.932 . S
C1840 C1841 1.264 . S
C1840 C1845 1.479 . S
C1840 C1850 1.465 . S
C1841 C1840 1.264 . S
C1841 C1843 1.339 . S
C1841 H1868 0.931 . S
C1842 C1843 1.395 . S
C1842 C1844 1.320 . S
C1843 C1841 1.339 . S
C1843 C1842 1.395 . S
C1843 H1869 0.929 . S
C1844 C1842 1.320 . S
C1844 C1845 1.405 . S
C1844 H1870 0.930 . S
C1845 C1840 1.479 . S
C1845 C1844 1.405 . S
C1845 H1871 0.931 . S
U1846 O1847 2.454 . S
U1846 O1848 2.458 . S
U1846 C1849 2.984 . S
U1846 C1850 2.847 . S
U1846 C1863 2.882 . S
U1846 O1864 2.441 . S
U1846 O1865 2.420 . S
U1846 O1866 2.455 . S
U1846 O1867 2.449 . S
O1847 U1846 2.454 . S
O1847 C1849 1.353 . S
O1848 U1846 2.458 . S
O1848 C1849 1.286 . S
C1849 U1846 2.984 . S
C1849 O1847 1.353 . S
C1849 O1848 1.286 . S
C1849 C1851 1.363 . S
C1850 C1840 1.465 . S
C1850 U1846 2.847 . S
C1850 O1864 1.249 . S
C1850 O1865 1.202 . S
C1851 C1849 1.363 . S
C1851 C1853 1.408 . S
C1851 C1856 1.342 . S
C1852 C1853 1.310 . S
C1852 C1855 1.461 . S
C1852 H1872 0.932 . S
C1853 C1851 1.408 . S
C1853 C1852 1.310 . S
C1853 H1873 0.930 . S
C1854 C1855 1.474 . S
C1854 C1856 1.285 . S
C1854 H1874 0.929 . S
C1855 C1852 1.461 . S
C1855 C1854 1.474 . S
C1856 C1851 1.342 . S
C1856 C1854 1.285 . S
C1856 H1875 0.930 . S
C1857 C1860 1.424 . S
C1857 C1862 1.245 . S
C1857 C1863 1.428 . S
C1858 C1861 1.260 . S
C1858 C1862 1.477 . S
C1858 H1876 0.932 . S
C1859 C1860 1.384 . S
C1859 C1861 1.479 . S
C1859 H1877 0.929 . S
C1860 C1857 1.424 . S
C1860 C1859 1.384 . S
C1860 H1878 0.928 . S
C1861 C1858 1.260 . S
C1861 C1859 1.479 . S
C1862 C1857 1.245 . S
C1862 C1858 1.477 . S
C1862 H1879 0.932 . S
C1863 U1846 2.882 . S
C1863 C1857 1.428 . S
C1863 O1866 1.301 . S
C1863 O1867 1.282 . S
O1864 U1846 2.441 . S
O1864 C1850 1.249 . S
O1865 U1846 2.420 . S
O1865 C1850 1.202 . S
O1866 U1846 2.455 . S
O1866 C1863 1.301 . S
O1867 U1846 2.449 . S
O1867 C1863 1.282 . S
H1868 C1841 0.931 . S
H1869 C1843 0.929 . S
H1870 C1844 0.930 . S
H1871 C1845 0.931 . S
H1872 C1852 0.932 . S
H1873 C1853 0.930 . S
H1874 C1854 0.929 . S
H1875 C1856 0.930 . S
H1876 C1858 0.932 . S
H1877 C1859 0.929 . S
H1878 C1860 0.928 . S
H1879 C1862 0.932 . S
C1880 C1881 1.264 . S
C1880 C1885 1.479 . S
C1880 C1890 1.465 . S
C1881 C1880 1.264 . S
C1881 C1883 1.339 . S
C1881 H1908 0.931 . S
C1882 C1883 1.395 . S
C1882 C1884 1.320 . S
C1883 C1881 1.339 . S
C1883 C1882 1.395 . S
C1883 H1909 0.929 . S
C1884 C1882 1.320 . S
C1884 C1885 1.405 . S
C1884 H1910 0.930 . S
C1885 C1880 1.479 . S
C1885 C1884 1.405 . S
C1885 H1911 0.931 . S
U1886 O1887 2.454 . S
U1886 O1888 2.458 . S
U1886 C1889 2.984 . S
U1886 C1890 2.847 . S
U1886 C1903 2.882 . S
U1886 O1904 2.441 . S
U1886 O1905 2.420 . S
U1886 O1906 2.455 . S
U1886 O1907 2.449 . S
O1887 U1886 2.454 . S
O1887 C1889 1.353 . S
O1888 U1886 2.458 . S
O1888 C1889 1.286 . S
C1889 U1886 2.984 . S
C1889 O1887 1.353 . S
C1889 O1888 1.286 . S
C1889 C1891 1.363 . S
C1890 C1880 1.465 . S
C1890 U1886 2.847 . S
C1890 O1904 1.249 . S
C1890 O1905 1.202 . S
C1891 C1889 1.363 . S
C1891 C1893 1.408 . S
C1891 C1896 1.342 . S
C1892 C1893 1.310 . S
C1892 C1895 1.461 . S
C1892 H1912 0.932 . S
C1893 C1891 1.408 . S
C1893 C1892 1.310 . S
C1893 H1913 0.930 . S
C1894 C1895 1.474 . S
C1894 C1896 1.285 . S
C1894 H1914 0.929 . S
C1895 C1892 1.461 . S
C1895 C1894 1.474 . S
C1896 C1891 1.342 . S
C1896 C1894 1.285 . S
C1896 H1915 0.930 . S
C1897 C1900 1.424 . S
C1897 C1902 1.245 . S
C1897 C1903 1.428 . S
C1898 C1901 1.260 . S
C1898 C1902 1.477 . S
C1898 H1916 0.932 . S
C1899 C1900 1.384 . S
C1899 C1901 1.479 . S
C1899 H1917 0.929 . S
C1900 C1897 1.424 . S
C1900 C1899 1.384 . S
C1900 H1918 0.928 . S
C1901 C1898 1.260 . S
C1901 C1899 1.479 . S
C1902 C1897 1.245 . S
C1902 C1898 1.477 . S
C1902 H1919 0.932 . S
C1903 U1886 2.882 . S
C1903 C1897 1.428 . S
C1903 O1906 1.301 . S
C1903 O1907 1.282 . S
O1904 U1886 2.441 . S
O1904 C1890 1.249 . S
O1905 U1886 2.420 . S
O1905 C1890 1.202 . S
O1906 U1886 2.455 . S
O1906 C1903 1.301 . S
O1907 U1886 2.449 . S
O1907 C1903 1.282 . S
H1908 C1881 0.931 . S
H1909 C1883 0.929 . S
H1910 C1884 0.930 . S
H1911 C1885 0.931 . S
H1912 C1892 0.932 . S
H1913 C1893 0.930 . S
H1914 C1894 0.929 . S
H1915 C1896 0.930 . S
H1916 C1898 0.932 . S
H1917 C1899 0.929 . S
H1918 C1900 0.928 . S
H1919 C1902 0.932 . S
H1920 C1938 0.951 . S
H1921 C1940 0.951 . S
H1922 C1942 0.950 . S
H1923 C1943 0.950 . S
H1924 C1945 0.950 . S
H1925 C1948 0.950 . S
H1926 C1949 0.950 . S
H1927 C1951 0.950 . S
H1928 C1952 0.950 . S
H1929 C1953 0.951 . S
H1930 C1955 0.951 . S
H1931 C1957 0.950 . S
H1932 C1958 0.950 . S
H1933 C1960 0.950 . S
H1934 C1963 0.950 . S
H1935 C1964 0.950 . S
H1936 C1966 0.950 . S
H1937 C1967 0.950 . S
C1938 H1920 0.951 . S
C1938 C1939 1.366 . S
C1938 C1940 1.388 . S
C1939 C1938 1.366 . S
C1939 C1943 1.385 . S
C1940 H1921 0.951 . S
C1940 C1938 1.388 . S
C1940 C1941 1.366 . S
C1941 C1940 1.366 . S
C1941 C1942 1.414 . S
C1941 C1944 1.499 . S
C1942 H1922 0.950 . S
C1942 C1941 1.414 . S
C1942 C1943 1.374 . S
C1943 H1923 0.950 . S
C1943 C1939 1.385 . S
C1943 C1942 1.374 . S
C1944 C1941 1.499 . S
C1944 C1945 1.373 . S
C1944 C1946 1.389 . S
C1945 H1924 0.950 . S
C1945 C1944 1.373 . S
C1945 C1961 1.377 . S
C1946 C1944 1.389 . S
C1946 C1947 1.524 . S
C1946 C1960 1.377 . S
C1947 C1946 1.524 . S
C1947 C1948 1.397 . S
C1947 C1952 1.363 . S
C1948 H1925 0.950 . S
C1948 C1947 1.397 . S
C1948 C1949 1.334 . S
C1949 H1926 0.950 . S
C1949 C1948 1.334 . S
C1949 C1950 1.287 . S
C1950 C1949 1.287 . S
C1950 C1951 1.524 . S
C1950 H1969 0.913 . S
C1951 H1927 0.950 . S
C1951 C1950 1.524 . S
C1951 C1952 1.415 . S
C1952 H1928 0.950 . S
C1952 C1947 1.363 . S
C1952 C1951 1.415 . S
C1953 H1929 0.951 . S
C1953 C1954 1.366 . S
C1953 C1955 1.388 . S
C1954 C1953 1.366 . S
C1954 C1958 1.385 . S
C1955 H1930 0.951 . S
C1955 C1953 1.388 . S
C1955 C1956 1.366 . S
C1956 C1955 1.366 . S
C1956 C1957 1.414 . S
C1956 C1959 1.499 . S
C1957 H1931 0.950 . S
C1957 C1956 1.414 . S
C1957 C1958 1.374 . S
C1958 H1932 0.950 . S
C1958 C1954 1.385 . S
C1958 C1957 1.374 . S
C1959 C1956 1.499 . S
C1959 C1960 1.373 . S
C1959 C1961 1.389 . S
C1960 H1933 0.950 . S
C1960 C1946 1.377 . S
C1960 C1959 1.373 . S
C1961 C1945 1.377 . S
C1961 C1959 1.389 . S
C1961 C1962 1.524 . S
C1962 C1961 1.524 . S
C1962 C1963 1.397 . S
C1962 C1967 1.363 . S
C1963 H1934 0.950 . S
C1963 C1962 1.397 . S
C1963 C1964 1.334 . S
C1964 H1935 0.950 . S
C1964 C1963 1.334 . S
C1964 C1965 1.287 . S
C1965 C1964 1.287 . S
C1965 C1966 1.524 . S
C1965 H1968 0.999 . S
C1966 H1936 0.950 . S
C1966 C1965 1.524 . S
C1966 C1967 1.415 . S
C1967 H1937 0.950 . S
C1967 C1962 1.363 . S
C1967 C1966 1.415 . S
H1968 C1965 0.999 . S
H1969 C1950 0.913 . S
H1970 C1988 0.951 . S
H1971 C1990 0.951 . S
H1972 C1992 0.950 . S
H1973 C1993 0.950 . S
H1974 C1995 0.950 . S
H1975 C1998 0.950 . S
H1976 C1999 0.950 . S
H1977 C2001 0.950 . S
H1978 C2002 0.950 . S
H1979 C2003 0.951 . S
H1980 C2005 0.951 . S
H1981 C2007 0.950 . S
H1982 C2008 0.950 . S
H1983 C2010 0.950 . S
H1984 C2013 0.950 . S
H1985 C2014 0.950 . S
H1986 C2016 0.950 . S
H1987 C2017 0.950 . S
C1988 H1970 0.951 . S
C1988 C1989 1.366 . S
C1988 C1990 1.388 . S
C1989 C1988 1.366 . S
C1989 C1993 1.385 . S
C1990 H1971 0.951 . S
C1990 C1988 1.388 . S
C1990 C1991 1.366 . S
C1991 C1990 1.366 . S
C1991 C1992 1.414 . S
C1991 C1994 1.499 . S
C1992 H1972 0.950 . S
C1992 C1991 1.414 . S
C1992 C1993 1.374 . S
C1993 H1973 0.950 . S
C1993 C1989 1.385 . S
C1993 C1992 1.374 . S
C1994 C1991 1.499 . S
C1994 C1995 1.373 . S
C1994 C1996 1.389 . S
C1995 H1974 0.950 . S
C1995 C1994 1.373 . S
C1995 C2011 1.377 . S
C1996 C1994 1.389 . S
C1996 C1997 1.524 . S
C1996 C2010 1.377 . S
C1997 C1996 1.524 . S
C1997 C1998 1.397 . S
C1997 C2002 1.363 . S
C1998 H1975 0.950 . S
C1998 C1997 1.397 . S
C1998 C1999 1.334 . S
C1999 H1976 0.950 . S
C1999 C1998 1.334 . S
C1999 C2000 1.287 . S
C2000 C1999 1.287 . S
C2000 C2001 1.524 . S
C2000 H2019 0.913 . S
C2001 H1977 0.950 . S
C2001 C2000 1.524 . S
C2001 C2002 1.415 . S
C2002 H1978 0.950 . S
C2002 C1997 1.363 . S
C2002 C2001 1.415 . S
C2003 H1979 0.951 . S
C2003 C2004 1.366 . S
C2003 C2005 1.388 . S
C2004 C2003 1.366 . S
C2004 C2008 1.385 . S
C2005 H1980 0.951 . S
C2005 C2003 1.388 . S
C2005 C2006 1.366 . S
C2006 C2005 1.366 . S
C2006 C2007 1.414 . S
C2006 C2009 1.499 . S
C2007 H1981 0.950 . S
C2007 C2006 1.414 . S
C2007 C2008 1.374 . S
C2008 H1982 0.950 . S
C2008 C2004 1.385 . S
C2008 C2007 1.374 . S
C2009 C2006 1.499 . S
C2009 C2010 1.373 . S
C2009 C2011 1.389 . S
C2010 H1983 0.950 . S
C2010 C1996 1.377 . S
C2010 C2009 1.373 . S
C2011 C1995 1.377 . S
C2011 C2009 1.389 . S
C2011 C2012 1.524 . S
C2012 C2011 1.524 . S
C2012 C2013 1.397 . S
C2012 C2017 1.363 . S
C2013 H1984 0.950 . S
C2013 C2012 1.397 . S
C2013 C2014 1.334 . S
C2014 H1985 0.950 . S
C2014 C2013 1.334 . S
C2014 C2015 1.287 . S
C2015 C2014 1.287 . S
C2015 C2016 1.524 . S
C2015 H2018 0.999 . S
C2016 H1986 0.950 . S
C2016 C2015 1.524 . S
C2016 C2017 1.415 . S
C2017 H1987 0.950 . S
C2017 C2012 1.363 . S
C2017 C2016 1.415 . S
H2018 C2015 0.999 . S
H2019 C2000 0.913 . S
H2020 C2038 0.951 . S
H2021 C2040 0.951 . S
H2022 C2042 0.950 . S
H2023 C2043 0.950 . S
H2024 C2045 0.950 . S
H2025 C2048 0.950 . S
H2026 C2049 0.950 . S
H2027 C2051 0.950 . S
H2028 C2052 0.950 . S
H2029 C2053 0.951 . S
H2030 C2055 0.951 . S
H2031 C2057 0.950 . S
H2032 C2058 0.950 . S
H2033 C2060 0.950 . S
H2034 C2063 0.950 . S
H2035 C2064 0.950 . S
H2036 C2066 0.950 . S
H2037 C2067 0.950 . S
C2038 H2020 0.951 . S
C2038 C2039 1.366 . S
C2038 C2040 1.388 . S
C2039 C2038 1.366 . S
C2039 C2043 1.385 . S
C2040 H2021 0.951 . S
C2040 C2038 1.388 . S
C2040 C2041 1.366 . S
C2041 C2040 1.366 . S
C2041 C2042 1.414 . S
C2041 C2044 1.499 . S
C2042 H2022 0.950 . S
C2042 C2041 1.414 . S
C2042 C2043 1.374 . S
C2043 H2023 0.950 . S
C2043 C2039 1.385 . S
C2043 C2042 1.374 . S
C2044 C2041 1.499 . S
C2044 C2045 1.373 . S
C2044 C2046 1.389 . S
C2045 H2024 0.950 . S
C2045 C2044 1.373 . S
C2045 C2061 1.377 . S
C2046 C2044 1.389 . S
C2046 C2047 1.524 . S
C2046 C2060 1.377 . S
C2047 C2046 1.524 . S
C2047 C2048 1.397 . S
C2047 C2052 1.363 . S
C2048 H2025 0.950 . S
C2048 C2047 1.397 . S
C2048 C2049 1.334 . S
C2049 H2026 0.950 . S
C2049 C2048 1.334 . S
C2049 C2050 1.287 . S
C2050 C2049 1.287 . S
C2050 C2051 1.524 . S
C2050 H2069 0.913 . S
C2051 H2027 0.950 . S
C2051 C2050 1.524 . S
C2051 C2052 1.415 . S
C2052 H2028 0.950 . S
C2052 C2047 1.363 . S
C2052 C2051 1.415 . S
C2053 H2029 0.951 . S
C2053 C2054 1.366 . S
C2053 C2055 1.388 . S
C2054 C2053 1.366 . S
C2054 C2058 1.385 . S
C2055 H2030 0.951 . S
C2055 C2053 1.388 . S
C2055 C2056 1.366 . S
C2056 C2055 1.366 . S
C2056 C2057 1.414 . S
C2056 C2059 1.499 . S
C2057 H2031 0.950 . S
C2057 C2056 1.414 . S
C2057 C2058 1.374 . S
C2058 H2032 0.950 . S
C2058 C2054 1.385 . S
C2058 C2057 1.374 . S
C2059 C2056 1.499 . S
C2059 C2060 1.373 . S
C2059 C2061 1.389 . S
C2060 H2033 0.950 . S
C2060 C2046 1.377 . S
C2060 C2059 1.373 . S
C2061 C2045 1.377 . S
C2061 C2059 1.389 . S
C2061 C2062 1.524 . S
C2062 C2061 1.524 . S
C2062 C2063 1.397 . S
C2062 C2067 1.363 . S
C2063 H2034 0.950 . S
C2063 C2062 1.397 . S
C2063 C2064 1.334 . S
C2064 H2035 0.950 . S
C2064 C2063 1.334 . S
C2064 C2065 1.287 . S
C2065 C2064 1.287 . S
C2065 C2066 1.524 . S
C2065 H2068 0.999 . S
C2066 H2036 0.950 . S
C2066 C2065 1.524 . S
C2066 C2067 1.415 . S
C2067 H2037 0.950 . S
C2067 C2062 1.363 . S
C2067 C2066 1.415 . S
H2068 C2065 0.999 . S
H2069 C2050 0.913 . S
H2070 C2088 0.951 . S
H2071 C2090 0.951 . S
H2072 C2092 0.950 . S
H2073 C2093 0.950 . S
H2074 C2095 0.950 . S
H2075 C2098 0.950 . S
H2076 C2099 0.950 . S
H2077 C2101 0.950 . S
H2078 C2102 0.950 . S
H2079 C2103 0.951 . S
H2080 C2105 0.951 . S
H2081 C2107 0.950 . S
H2082 C2108 0.950 . S
H2083 C2110 0.950 . S
H2084 C2113 0.950 . S
H2085 C2114 0.950 . S
H2086 C2116 0.950 . S
H2087 C2117 0.950 . S
C2088 H2070 0.951 . S
C2088 C2089 1.366 . S
C2088 C2090 1.388 . S
C2089 C2088 1.366 . S
C2089 C2093 1.385 . S
C2090 H2071 0.951 . S
C2090 C2088 1.388 . S
C2090 C2091 1.366 . S
C2091 C2090 1.366 . S
C2091 C2092 1.414 . S
C2091 C2094 1.499 . S
C2092 H2072 0.950 . S
C2092 C2091 1.414 . S
C2092 C2093 1.374 . S
C2093 H2073 0.950 . S
C2093 C2089 1.385 . S
C2093 C2092 1.374 . S
C2094 C2091 1.499 . S
C2094 C2095 1.373 . S
C2094 C2096 1.389 . S
C2095 H2074 0.950 . S
C2095 C2094 1.373 . S
C2095 C2111 1.377 . S
C2096 C2094 1.389 . S
C2096 C2097 1.524 . S
C2096 C2110 1.377 . S
C2097 C2096 1.524 . S
C2097 C2098 1.397 . S
C2097 C2102 1.363 . S
C2098 H2075 0.950 . S
C2098 C2097 1.397 . S
C2098 C2099 1.334 . S
C2099 H2076 0.950 . S
C2099 C2098 1.334 . S
C2099 C2100 1.287 . S
C2100 C2099 1.287 . S
C2100 C2101 1.524 . S
C2100 H2119 0.913 . S
C2101 H2077 0.950 . S
C2101 C2100 1.524 . S
C2101 C2102 1.415 . S
C2102 H2078 0.950 . S
C2102 C2097 1.363 . S
C2102 C2101 1.415 . S
C2103 H2079 0.951 . S
C2103 C2104 1.366 . S
C2103 C2105 1.388 . S
C2104 C2103 1.366 . S
C2104 C2108 1.385 . S
C2105 H2080 0.951 . S
C2105 C2103 1.388 . S
C2105 C2106 1.366 . S
C2106 C2105 1.366 . S
C2106 C2107 1.414 . S
C2106 C2109 1.499 . S
C2107 H2081 0.950 . S
C2107 C2106 1.414 . S
C2107 C2108 1.374 . S
C2108 H2082 0.950 . S
C2108 C2104 1.385 . S
C2108 C2107 1.374 . S
C2109 C2106 1.499 . S
C2109 C2110 1.373 . S
C2109 C2111 1.389 . S
C2110 H2083 0.950 . S
C2110 C2096 1.377 . S
C2110 C2109 1.373 . S
C2111 C2095 1.377 . S
C2111 C2109 1.389 . S
C2111 C2112 1.524 . S
C2112 C2111 1.524 . S
C2112 C2113 1.397 . S
C2112 C2117 1.363 . S
C2113 H2084 0.950 . S
C2113 C2112 1.397 . S
C2113 C2114 1.334 . S
C2114 H2085 0.950 . S
C2114 C2113 1.334 . S
C2114 C2115 1.287 . S
C2115 C2114 1.287 . S
C2115 C2116 1.524 . S
C2115 H2118 0.999 . S
C2116 H2086 0.950 . S
C2116 C2115 1.524 . S
C2116 C2117 1.415 . S
C2117 H2087 0.950 . S
C2117 C2112 1.363 . S
C2117 C2116 1.415 . S
H2118 C2115 0.999 . S
H2119 C2100 0.913 . S
H2120 C2138 0.951 . S
H2121 C2140 0.951 . S
H2122 C2142 0.950 . S
H2123 C2143 0.950 . S
H2124 C2145 0.950 . S
H2125 C2148 0.950 . S
H2126 C2149 0.950 . S
H2127 C2151 0.950 . S
H2128 C2152 0.950 . S
H2129 C2153 0.951 . S
H2130 C2155 0.951 . S
H2131 C2157 0.950 . S
H2132 C2158 0.950 . S
H2133 C2160 0.950 . S
H2134 C2163 0.950 . S
H2135 C2164 0.950 . S
H2136 C2166 0.950 . S
H2137 C2167 0.950 . S
C2138 H2120 0.951 . S
C2138 C2139 1.366 . S
C2138 C2140 1.388 . S
C2139 C2138 1.366 . S
C2139 C2143 1.385 . S
C2140 H2121 0.951 . S
C2140 C2138 1.388 . S
C2140 C2141 1.366 . S
C2141 C2140 1.366 . S
C2141 C2142 1.414 . S
C2141 C2144 1.499 . S
C2142 H2122 0.950 . S
C2142 C2141 1.414 . S
C2142 C2143 1.374 . S
C2143 H2123 0.950 . S
C2143 C2139 1.385 . S
C2143 C2142 1.374 . S
C2144 C2141 1.499 . S
C2144 C2145 1.373 . S
C2144 C2146 1.389 . S
C2145 H2124 0.950 . S
C2145 C2144 1.373 . S
C2145 C2161 1.377 . S
C2146 C2144 1.389 . S
C2146 C2147 1.524 . S
C2146 C2160 1.377 . S
C2147 C2146 1.524 . S
C2147 C2148 1.397 . S
C2147 C2152 1.363 . S
C2148 H2125 0.950 . S
C2148 C2147 1.397 . S
C2148 C2149 1.334 . S
C2149 H2126 0.950 . S
C2149 C2148 1.334 . S
C2149 C2150 1.287 . S
C2150 C2149 1.287 . S
C2150 C2151 1.524 . S
C2150 H2169 0.913 . S
C2151 H2127 0.950 . S
C2151 C2150 1.524 . S
C2151 C2152 1.415 . S
C2152 H2128 0.950 . S
C2152 C2147 1.363 . S
C2152 C2151 1.415 . S
C2153 H2129 0.951 . S
C2153 C2154 1.366 . S
C2153 C2155 1.388 . S
C2154 C2153 1.366 . S
C2154 C2158 1.385 . S
C2155 H2130 0.951 . S
C2155 C2153 1.388 . S
C2155 C2156 1.366 . S
C2156 C2155 1.366 . S
C2156 C2157 1.414 . S
C2156 C2159 1.499 . S
C2157 H2131 0.950 . S
C2157 C2156 1.414 . S
C2157 C2158 1.374 . S
C2158 H2132 0.950 . S
C2158 C2154 1.385 . S
C2158 C2157 1.374 . S
C2159 C2156 1.499 . S
C2159 C2160 1.373 . S
C2159 C2161 1.389 . S
C2160 H2133 0.950 . S
C2160 C2146 1.377 . S
C2160 C2159 1.373 . S
C2161 C2145 1.377 . S
C2161 C2159 1.389 . S
C2161 C2162 1.524 . S
C2162 C2161 1.524 . S
C2162 C2163 1.397 . S
C2162 C2167 1.363 . S
C2163 H2134 0.950 . S
C2163 C2162 1.397 . S
C2163 C2164 1.334 . S
C2164 H2135 0.950 . S
C2164 C2163 1.334 . S
C2164 C2165 1.287 . S
C2165 C2164 1.287 . S
C2165 C2166 1.524 . S
C2165 H2168 0.999 . S
C2166 H2136 0.950 . S
C2166 C2165 1.524 . S
C2166 C2167 1.415 . S
C2167 H2137 0.950 . S
C2167 C2162 1.363 . S
C2167 C2166 1.415 . S
H2168 C2165 0.999 . S
H2169 C2150 0.913 . S
H2170 C2188 0.951 . S
H2171 C2190 0.951 . S
H2172 C2192 0.950 . S
H2173 C2193 0.950 . S
H2174 C2195 0.950 . S
H2175 C2198 0.950 . S
H2176 C2199 0.950 . S
H2177 C2201 0.950 . S
H2178 C2202 0.950 . S
H2179 C2203 0.951 . S
H2180 C2205 0.951 . S
H2181 C2207 0.950 . S
H2182 C2208 0.950 . S
H2183 C2210 0.950 . S
H2184 C2213 0.950 . S
H2185 C2214 0.950 . S
H2186 C2216 0.950 . S
H2187 C2217 0.950 . S
C2188 H2170 0.951 . S
C2188 C2189 1.366 . S
C2188 C2190 1.388 . S
C2189 C2188 1.366 . S
C2189 C2193 1.385 . S
C2190 H2171 0.951 . S
C2190 C2188 1.388 . S
C2190 C2191 1.366 . S
C2191 C2190 1.366 . S
C2191 C2192 1.414 . S
C2191 C2194 1.499 . S
C2192 H2172 0.950 . S
C2192 C2191 1.414 . S
C2192 C2193 1.374 . S
C2193 H2173 0.950 . S
C2193 C2189 1.385 . S
C2193 C2192 1.374 . S
C2194 C2191 1.499 . S
C2194 C2195 1.373 . S
C2194 C2196 1.389 . S
C2195 H2174 0.950 . S
C2195 C2194 1.373 . S
C2195 C2211 1.377 . S
C2196 C2194 1.389 . S
C2196 C2197 1.524 . S
C2196 C2210 1.377 . S
C2197 C2196 1.524 . S
C2197 C2198 1.397 . S
C2197 C2202 1.363 . S
C2198 H2175 0.950 . S
C2198 C2197 1.397 . S
C2198 C2199 1.334 . S
C2199 H2176 0.950 . S
C2199 C2198 1.334 . S
C2199 C2200 1.287 . S
C2200 C2199 1.287 . S
C2200 C2201 1.524 . S
C2200 H2219 0.913 . S
C2201 H2177 0.950 . S
C2201 C2200 1.524 . S
C2201 C2202 1.415 . S
C2202 H2178 0.950 . S
C2202 C2197 1.363 . S
C2202 C2201 1.415 . S
C2203 H2179 0.951 . S
C2203 C2204 1.366 . S
C2203 C2205 1.388 . S
C2204 C2203 1.366 . S
C2204 C2208 1.385 . S
C2205 H2180 0.951 . S
C2205 C2203 1.388 . S
C2205 C2206 1.366 . S
C2206 C2205 1.366 . S
C2206 C2207 1.414 . S
C2206 C2209 1.499 . S
C2207 H2181 0.950 . S
C2207 C2206 1.414 . S
C2207 C2208 1.374 . S
C2208 H2182 0.950 . S
C2208 C2204 1.385 . S
C2208 C2207 1.374 . S
C2209 C2206 1.499 . S
C2209 C2210 1.373 . S
C2209 C2211 1.389 . S
C2210 H2183 0.950 . S
C2210 C2196 1.377 . S
C2210 C2209 1.373 . S
C2211 C2195 1.377 . S
C2211 C2209 1.389 . S
C2211 C2212 1.524 . S
C2212 C2211 1.524 . S
C2212 C2213 1.397 . S
C2212 C2217 1.363 . S
C2213 H2184 0.950 . S
C2213 C2212 1.397 . S
C2213 C2214 1.334 . S
C2214 H2185 0.950 . S
C2214 C2213 1.334 . S
C2214 C2215 1.287 . S
C2215 C2214 1.287 . S
C2215 C2216 1.524 . S
C2215 H2218 0.999 . S
C2216 H2186 0.950 . S
C2216 C2215 1.524 . S
C2216 C2217 1.415 . S
C2217 H2187 0.950 . S
C2217 C2212 1.363 . S
C2217 C2216 1.415 . S
H2218 C2215 0.999 . S
H2219 C2200 0.913 . S
H2220 C2238 0.951 . S
H2221 C2240 0.951 . S
H2222 C2242 0.950 . S
H2223 C2243 0.950 . S
H2224 C2245 0.950 . S
H2225 C2248 0.950 . S
H2226 C2249 0.950 . S
H2227 C2251 0.950 . S
H2228 C2252 0.950 . S
H2229 C2253 0.951 . S
H2230 C2255 0.951 . S
H2231 C2257 0.950 . S
H2232 C2258 0.950 . S
H2233 C2260 0.950 . S
H2234 C2263 0.950 . S
H2235 C2264 0.950 . S
H2236 C2266 0.950 . S
H2237 C2267 0.950 . S
C2238 H2220 0.951 . S
C2238 C2239 1.366 . S
C2238 C2240 1.388 . S
C2239 C2238 1.366 . S
C2239 C2243 1.385 . S
C2240 H2221 0.951 . S
C2240 C2238 1.388 . S
C2240 C2241 1.366 . S
C2241 C2240 1.366 . S
C2241 C2242 1.414 . S
C2241 C2244 1.499 . S
C2242 H2222 0.950 . S
C2242 C2241 1.414 . S
C2242 C2243 1.374 . S
C2243 H2223 0.950 . S
C2243 C2239 1.385 . S
C2243 C2242 1.374 . S
C2244 C2241 1.499 . S
C2244 C2245 1.373 . S
C2244 C2246 1.389 . S
C2245 H2224 0.950 . S
C2245 C2244 1.373 . S
C2245 C2261 1.377 . S
C2246 C2244 1.389 . S
C2246 C2247 1.524 . S
C2246 C2260 1.377 . S
C2247 C2246 1.524 . S
C2247 C2248 1.397 . S
C2247 C2252 1.363 . S
C2248 H2225 0.950 . S
C2248 C2247 1.397 . S
C2248 C2249 1.334 . S
C2249 H2226 0.950 . S
C2249 C2248 1.334 . S
C2249 C2250 1.287 . S
C2250 C2249 1.287 . S
C2250 C2251 1.524 . S
C2250 H2269 0.913 . S
C2251 H2227 0.950 . S
C2251 C2250 1.524 . S
C2251 C2252 1.415 . S
C2252 H2228 0.950 . S
C2252 C2247 1.363 . S
C2252 C2251 1.415 . S
C2253 H2229 0.951 . S
C2253 C2254 1.366 . S
C2253 C2255 1.388 . S
C2254 C2253 1.366 . S
C2254 C2258 1.385 . S
C2255 H2230 0.951 . S
C2255 C2253 1.388 . S
C2255 C2256 1.366 . S
C2256 C2255 1.366 . S
C2256 C2257 1.414 . S
C2256 C2259 1.499 . S
C2257 H2231 0.950 . S
C2257 C2256 1.414 . S
C2257 C2258 1.374 . S
C2258 H2232 0.950 . S
C2258 C2254 1.385 . S
C2258 C2257 1.374 . S
C2259 C2256 1.499 . S
C2259 C2260 1.373 . S
C2259 C2261 1.389 . S
C2260 H2233 0.950 . S
C2260 C2246 1.377 . S
C2260 C2259 1.373 . S
C2261 C2245 1.377 . S
C2261 C2259 1.389 . S
C2261 C2262 1.524 . S
C2262 C2261 1.524 . S
C2262 C2263 1.397 . S
C2262 C2267 1.363 . S
C2263 H2234 0.950 . S
C2263 C2262 1.397 . S
C2263 C2264 1.334 . S
C2264 H2235 0.950 . S
C2264 C2263 1.334 . S
C2264 C2265 1.287 . S
C2265 C2264 1.287 . S
C2265 C2266 1.524 . S
C2265 H2268 0.999 . S
C2266 H2236 0.950 . S
C2266 C2265 1.524 . S
C2266 C2267 1.415 . S
C2267 H2237 0.950 . S
C2267 C2262 1.363 . S
C2267 C2266 1.415 . S
H2268 C2265 0.999 . S
H2269 C2250 0.913 . S
H2270 C2288 0.951 . S
H2271 C2290 0.951 . S
H2272 C2292 0.950 . S
H2273 C2293 0.950 . S
H2274 C2295 0.950 . S
H2275 C2298 0.950 . S
H2276 C2299 0.950 . S
H2277 C2301 0.950 . S
H2278 C2302 0.950 . S
H2279 C2303 0.951 . S
H2280 C2305 0.951 . S
H2281 C2307 0.950 . S
H2282 C2308 0.950 . S
H2283 C2310 0.950 . S
H2284 C2313 0.950 . S
H2285 C2314 0.950 . S
H2286 C2316 0.950 . S
H2287 C2317 0.950 . S
C2288 H2270 0.951 . S
C2288 C2289 1.366 . S
C2288 C2290 1.388 . S
C2289 C2288 1.366 . S
C2289 C2293 1.385 . S
C2290 H2271 0.951 . S
C2290 C2288 1.388 . S
C2290 C2291 1.366 . S
C2291 C2290 1.366 . S
C2291 C2292 1.414 . S
C2291 C2294 1.499 . S
C2292 H2272 0.950 . S
C2292 C2291 1.414 . S
C2292 C2293 1.374 . S
C2293 H2273 0.950 . S
C2293 C2289 1.385 . S
C2293 C2292 1.374 . S
C2294 C2291 1.499 . S
C2294 C2295 1.373 . S
C2294 C2296 1.389 . S
C2295 H2274 0.950 . S
C2295 C2294 1.373 . S
C2295 C2311 1.377 . S
C2296 C2294 1.389 . S
C2296 C2297 1.524 . S
C2296 C2310 1.377 . S
C2297 C2296 1.524 . S
C2297 C2298 1.397 . S
C2297 C2302 1.363 . S
C2298 H2275 0.950 . S
C2298 C2297 1.397 . S
C2298 C2299 1.334 . S
C2299 H2276 0.950 . S
C2299 C2298 1.334 . S
C2299 C2300 1.287 . S
C2300 C2299 1.287 . S
C2300 C2301 1.524 . S
C2300 H2319 0.913 . S
C2301 H2277 0.950 . S
C2301 C2300 1.524 . S
C2301 C2302 1.415 . S
C2302 H2278 0.950 . S
C2302 C2297 1.363 . S
C2302 C2301 1.415 . S
C2303 H2279 0.951 . S
C2303 C2304 1.366 . S
C2303 C2305 1.388 . S
C2304 C2303 1.366 . S
C2304 C2308 1.385 . S
C2305 H2280 0.951 . S
C2305 C2303 1.388 . S
C2305 C2306 1.366 . S
C2306 C2305 1.366 . S
C2306 C2307 1.414 . S
C2306 C2309 1.499 . S
C2307 H2281 0.950 . S
C2307 C2306 1.414 . S
C2307 C2308 1.374 . S
C2308 H2282 0.950 . S
C2308 C2304 1.385 . S
C2308 C2307 1.374 . S
C2309 C2306 1.499 . S
C2309 C2310 1.373 . S
C2309 C2311 1.389 . S
C2310 H2283 0.950 . S
C2310 C2296 1.377 . S
C2310 C2309 1.373 . S
C2311 C2295 1.377 . S
C2311 C2309 1.389 . S
C2311 C2312 1.524 . S
C2312 C2311 1.524 . S
C2312 C2313 1.397 . S
C2312 C2317 1.363 . S
C2313 H2284 0.950 . S
C2313 C2312 1.397 . S
C2313 C2314 1.334 . S
C2314 H2285 0.950 . S
C2314 C2313 1.334 . S
C2314 C2315 1.287 . S
C2315 C2314 1.287 . S
C2315 C2316 1.524 . S
C2315 H2318 0.999 . S
C2316 H2286 0.950 . S
C2316 C2315 1.524 . S
C2316 C2317 1.415 . S
C2317 H2287 0.950 . S
C2317 C2312 1.363 . S
C2317 C2316 1.415 . S
H2318 C2315 0.999 . S
H2319 C2300 0.913 . S
H2320 C2338 0.951 . S
H2321 C2340 0.951 . S
H2322 C2342 0.950 . S
H2323 C2343 0.950 . S
H2324 C2345 0.950 . S
H2325 C2348 0.950 . S
H2326 C2349 0.950 . S
H2327 C2351 0.950 . S
H2328 C2352 0.950 . S
H2329 C2353 0.951 . S
H2330 C2355 0.951 . S
H2331 C2357 0.950 . S
H2332 C2358 0.950 . S
H2333 C2360 0.950 . S
H2334 C2363 0.950 . S
H2335 C2364 0.950 . S
H2336 C2366 0.950 . S
H2337 C2367 0.950 . S
C2338 H2320 0.951 . S
C2338 C2339 1.366 . S
C2338 C2340 1.388 . S
C2339 C2338 1.366 . S
C2339 C2343 1.385 . S
C2340 H2321 0.951 . S
C2340 C2338 1.388 . S
C2340 C2341 1.366 . S
C2341 C2340 1.366 . S
C2341 C2342 1.414 . S
C2341 C2344 1.499 . S
C2342 H2322 0.950 . S
C2342 C2341 1.414 . S
C2342 C2343 1.374 . S
C2343 H2323 0.950 . S
C2343 C2339 1.385 . S
C2343 C2342 1.374 . S
C2344 C2341 1.499 . S
C2344 C2345 1.373 . S
C2344 C2346 1.389 . S
C2345 H2324 0.950 . S
C2345 C2344 1.373 . S
C2345 C2361 1.377 . S
C2346 C2344 1.389 . S
C2346 C2347 1.524 . S
C2346 C2360 1.377 . S
C2347 C2346 1.524 . S
C2347 C2348 1.397 . S
C2347 C2352 1.363 . S
C2348 H2325 0.950 . S
C2348 C2347 1.397 . S
C2348 C2349 1.334 . S
C2349 H2326 0.950 . S
C2349 C2348 1.334 . S
C2349 C2350 1.287 . S
C2350 C2349 1.287 . S
C2350 C2351 1.524 . S
C2350 H2369 0.913 . S
C2351 H2327 0.950 . S
C2351 C2350 1.524 . S
C2351 C2352 1.415 . S
C2352 H2328 0.950 . S
C2352 C2347 1.363 . S
C2352 C2351 1.415 . S
C2353 H2329 0.951 . S
C2353 C2354 1.366 . S
C2353 C2355 1.388 . S
C2354 C2353 1.366 . S
C2354 C2358 1.385 . S
C2355 H2330 0.951 . S
C2355 C2353 1.388 . S
C2355 C2356 1.366 . S
C2356 C2355 1.366 . S
C2356 C2357 1.414 . S
C2356 C2359 1.499 . S
C2357 H2331 0.950 . S
C2357 C2356 1.414 . S
C2357 C2358 1.374 . S
C2358 H2332 0.950 . S
C2358 C2354 1.385 . S
C2358 C2357 1.374 . S
C2359 C2356 1.499 . S
C2359 C2360 1.373 . S
C2359 C2361 1.389 . S
C2360 H2333 0.950 . S
C2360 C2346 1.377 . S
C2360 C2359 1.373 . S
C2361 C2345 1.377 . S
C2361 C2359 1.389 . S
C2361 C2362 1.524 . S
C2362 C2361 1.524 . S
C2362 C2363 1.397 . S
C2362 C2367 1.363 . S
C2363 H2334 0.950 . S
C2363 C2362 1.397 . S
C2363 C2364 1.334 . S
C2364 H2335 0.950 . S
C2364 C2363 1.334 . S
C2364 C2365 1.287 . S
C2365 C2364 1.287 . S
C2365 C2366 1.524 . S
C2365 H2368 0.999 . S
C2366 H2336 0.950 . S
C2366 C2365 1.524 . S
C2366 C2367 1.415 . S
C2367 H2337 0.950 . S
C2367 C2362 1.363 . S
C2367 C2366 1.415 . S
H2368 C2365 0.999 . S
H2369 C2350 0.913 . S
H2370 C2388 0.951 . S
H2371 C2390 0.951 . S
H2372 C2392 0.950 . S
H2373 C2393 0.950 . S
H2374 C2395 0.950 . S
H2375 C2398 0.950 . S
H2376 C2399 0.950 . S
H2377 C2401 0.950 . S
H2378 C2402 0.950 . S
H2379 C2403 0.951 . S
H2380 C2405 0.951 . S
H2381 C2407 0.950 . S
H2382 C2408 0.950 . S
H2383 C2410 0.950 . S
H2384 C2413 0.950 . S
H2385 C2414 0.950 . S
H2386 C2416 0.950 . S
H2387 C2417 0.950 . S
C2388 H2370 0.951 . S
C2388 C2389 1.366 . S
C2388 C2390 1.388 . S
C2389 C2388 1.366 . S
C2389 C2393 1.385 . S
C2390 H2371 0.951 . S
C2390 C2388 1.388 . S
C2390 C2391 1.366 . S
C2391 C2390 1.366 . S
C2391 C2392 1.414 . S
C2391 C2394 1.499 . S
C2392 H2372 0.950 . S
C2392 C2391 1.414 . S
C2392 C2393 1.374 . S
C2393 H2373 0.950 . S
C2393 C2389 1.385 . S
C2393 C2392 1.374 . S
C2394 C2391 1.499 . S
C2394 C2395 1.373 . S
C2394 C2396 1.389 . S
C2395 H2374 0.950 . S
C2395 C2394 1.373 . S
C2395 C2411 1.377 . S
C2396 C2394 1.389 . S
C2396 C2397 1.524 . S
C2396 C2410 1.377 . S
C2397 C2396 1.524 . S
C2397 C2398 1.397 . S
C2397 C2402 1.363 . S
C2398 H2375 0.950 . S
C2398 C2397 1.397 . S
C2398 C2399 1.334 . S
C2399 H2376 0.950 . S
C2399 C2398 1.334 . S
C2399 C2400 1.287 . S
C2400 C2399 1.287 . S
C2400 C2401 1.524 . S
C2400 H2419 0.913 . S
C2401 H2377 0.950 . S
C2401 C2400 1.524 . S
C2401 C2402 1.415 . S
C2402 H2378 0.950 . S
C2402 C2397 1.363 . S
C2402 C2401 1.415 . S
C2403 H2379 0.951 . S
C2403 C2404 1.366 . S
C2403 C2405 1.388 . S
C2404 C2403 1.366 . S
C2404 C2408 1.385 . S
C2405 H2380 0.951 . S
C2405 C2403 1.388 . S
C2405 C2406 1.366 . S
C2406 C2405 1.366 . S
C2406 C2407 1.414 . S
C2406 C2409 1.499 . S
C2407 H2381 0.950 . S
C2407 C2406 1.414 . S
C2407 C2408 1.374 . S
C2408 H2382 0.950 . S
C2408 C2404 1.385 . S
C2408 C2407 1.374 . S
C2409 C2406 1.499 . S
C2409 C2410 1.373 . S
C2409 C2411 1.389 . S
C2410 H2383 0.950 . S
C2410 C2396 1.377 . S
C2410 C2409 1.373 . S
C2411 C2395 1.377 . S
C2411 C2409 1.389 . S
C2411 C2412 1.524 . S
C2412 C2411 1.524 . S
C2412 C2413 1.397 . S
C2412 C2417 1.363 . S
C2413 H2384 0.950 . S
C2413 C2412 1.397 . S
C2413 C2414 1.334 . S
C2414 H2385 0.950 . S
C2414 C2413 1.334 . S
C2414 C2415 1.287 . S
C2415 C2414 1.287 . S
C2415 C2416 1.524 . S
C2415 H2418 0.999 . S
C2416 H2386 0.950 . S
C2416 C2415 1.524 . S
C2416 C2417 1.415 . S
C2417 H2387 0.950 . S
C2417 C2412 1.363 . S
C2417 C2416 1.415 . S
H2418 C2415 0.999 . S
H2419 C2400 0.913 . S
H2420 C2438 0.951 . S
H2421 C2440 0.951 . S
H2422 C2442 0.950 . S
H2423 C2443 0.950 . S
H2424 C2445 0.950 . S
H2425 C2448 0.950 . S
H2426 C2449 0.950 . S
H2427 C2451 0.950 . S
H2428 C2452 0.950 . S
H2429 C2453 0.951 . S
H2430 C2455 0.951 . S
H2431 C2457 0.950 . S
H2432 C2458 0.950 . S
H2433 C2460 0.950 . S
H2434 C2463 0.950 . S
H2435 C2464 0.950 . S
H2436 C2466 0.950 . S
H2437 C2467 0.950 . S
C2438 H2420 0.951 . S
C2438 C2439 1.366 . S
C2438 C2440 1.388 . S
C2439 C2438 1.366 . S
C2439 C2443 1.385 . S
C2440 H2421 0.951 . S
C2440 C2438 1.388 . S
C2440 C2441 1.366 . S
C2441 C2440 1.366 . S
C2441 C2442 1.414 . S
C2441 C2444 1.499 . S
C2442 H2422 0.950 . S
C2442 C2441 1.414 . S
C2442 C2443 1.374 . S
C2443 H2423 0.950 . S
C2443 C2439 1.385 . S
C2443 C2442 1.374 . S
C2444 C2441 1.499 . S
C2444 C2445 1.373 . S
C2444 C2446 1.389 . S
C2445 H2424 0.950 . S
C2445 C2444 1.373 . S
C2445 C2461 1.377 . S
C2446 C2444 1.389 . S
C2446 C2447 1.524 . S
C2446 C2460 1.377 . S
C2447 C2446 1.524 . S
C2447 C2448 1.397 . S
C2447 C2452 1.363 . S
C2448 H2425 0.950 . S
C2448 C2447 1.397 . S
C2448 C2449 1.334 . S
C2449 H2426 0.950 . S
C2449 C2448 1.334 . S
C2449 C2450 1.287 . S
C2450 C2449 1.287 . S
C2450 C2451 1.524 . S
C2450 H2469 0.913 . S
C2451 H2427 0.950 . S
C2451 C2450 1.524 . S
C2451 C2452 1.415 . S
C2452 H2428 0.950 . S
C2452 C2447 1.363 . S
C2452 C2451 1.415 . S
C2453 H2429 0.951 . S
C2453 C2454 1.366 . S
C2453 C2455 1.388 . S
C2454 C2453 1.366 . S
C2454 C2458 1.385 . S
C2455 H2430 0.951 . S
C2455 C2453 1.388 . S
C2455 C2456 1.366 . S
C2456 C2455 1.366 . S
C2456 C2457 1.414 . S
C2456 C2459 1.499 . S
C2457 H2431 0.950 . S
C2457 C2456 1.414 . S
C2457 C2458 1.374 . S
C2458 H2432 0.950 . S
C2458 C2454 1.385 . S
C2458 C2457 1.374 . S
C2459 C2456 1.499 . S
C2459 C2460 1.373 . S
C2459 C2461 1.389 . S
C2460 H2433 0.950 . S
C2460 C2446 1.377 . S
C2460 C2459 1.373 . S
C2461 C2445 1.377 . S
C2461 C2459 1.389 . S
C2461 C2462 1.524 . S
C2462 C2461 1.524 . S
C2462 C2463 1.397 . S
C2462 C2467 1.363 . S
C2463 H2434 0.950 . S
C2463 C2462 1.397 . S
C2463 C2464 1.334 . S
C2464 H2435 0.950 . S
C2464 C2463 1.334 . S
C2464 C2465 1.287 . S
C2465 C2464 1.287 . S
C2465 C2466 1.524 . S
C2465 H2468 0.999 . S
C2466 H2436 0.950 . S
C2466 C2465 1.524 . S
C2466 C2467 1.415 . S
C2467 H2437 0.950 . S
C2467 C2462 1.363 . S
C2467 C2466 1.415 . S
H2468 C2465 0.999 . S
H2469 C2450 0.913 . S
H2470 C2488 0.951 . S
H2471 C2490 0.951 . S
H2472 C2492 0.950 . S
H2473 C2493 0.950 . S
H2474 C2495 0.950 . S
H2475 C2498 0.950 . S
H2476 C2499 0.950 . S
H2477 C2501 0.950 . S
H2478 C2502 0.950 . S
H2479 C2503 0.951 . S
H2480 C2505 0.951 . S
H2481 C2507 0.950 . S
H2482 C2508 0.950 . S
H2483 C2510 0.950 . S
H2484 C2513 0.950 . S
H2485 C2514 0.950 . S
H2486 C2516 0.950 . S
H2487 C2517 0.950 . S
C2488 H2470 0.951 . S
C2488 C2489 1.366 . S
C2488 C2490 1.388 . S
C2489 C2488 1.366 . S
C2489 C2493 1.385 . S
C2490 H2471 0.951 . S
C2490 C2488 1.388 . S
C2490 C2491 1.366 . S
C2491 C2490 1.366 . S
C2491 C2492 1.414 . S
C2491 C2494 1.499 . S
C2492 H2472 0.950 . S
C2492 C2491 1.414 . S
C2492 C2493 1.374 . S
C2493 H2473 0.950 . S
C2493 C2489 1.385 . S
C2493 C2492 1.374 . S
C2494 C2491 1.499 . S
C2494 C2495 1.373 . S
C2494 C2496 1.389 . S
C2495 H2474 0.950 . S
C2495 C2494 1.373 . S
C2495 C2511 1.377 . S
C2496 C2494 1.389 . S
C2496 C2497 1.524 . S
C2496 C2510 1.377 . S
C2497 C2496 1.524 . S
C2497 C2498 1.397 . S
C2497 C2502 1.363 . S
C2498 H2475 0.950 . S
C2498 C2497 1.397 . S
C2498 C2499 1.334 . S
C2499 H2476 0.950 . S
C2499 C2498 1.334 . S
C2499 C2500 1.287 . S
C2500 C2499 1.287 . S
C2500 C2501 1.524 . S
C2500 H2519 0.913 . S
C2501 H2477 0.950 . S
C2501 C2500 1.524 . S
C2501 C2502 1.415 . S
C2502 H2478 0.950 . S
C2502 C2497 1.363 . S
C2502 C2501 1.415 . S
C2503 H2479 0.951 . S
C2503 C2504 1.366 . S
C2503 C2505 1.388 . S
C2504 C2503 1.366 . S
C2504 C2508 1.385 . S
C2505 H2480 0.951 . S
C2505 C2503 1.388 . S
C2505 C2506 1.366 . S
C2506 C2505 1.366 . S
C2506 C2507 1.414 . S
C2506 C2509 1.499 . S
C2507 H2481 0.950 . S
C2507 C2506 1.414 . S
C2507 C2508 1.374 . S
C2508 H2482 0.950 . S
C2508 C2504 1.385 . S
C2508 C2507 1.374 . S
C2509 C2506 1.499 . S
C2509 C2510 1.373 . S
C2509 C2511 1.389 . S
C2510 H2483 0.950 . S
C2510 C2496 1.377 . S
C2510 C2509 1.373 . S
C2511 C2495 1.377 . S
C2511 C2509 1.389 . S
C2511 C2512 1.524 . S
C2512 C2511 1.524 . S
C2512 C2513 1.397 . S
C2512 C2517 1.363 . S
C2513 H2484 0.950 . S
C2513 C2512 1.397 . S
C2513 C2514 1.334 . S
C2514 H2485 0.950 . S
C2514 C2513 1.334 . S
C2514 C2515 1.287 . S
C2515 C2514 1.287 . S
C2515 C2516 1.524 . S
C2515 H2518 0.999 . S
C2516 H2486 0.950 . S
C2516 C2515 1.524 . S
C2516 C2517 1.415 . S
C2517 H2487 0.950 . S
C2517 C2512 1.363 . S
C2517 C2516 1.415 . S
H2518 C2515 0.999 . S
H2519 C2500 0.913 . S
H2520 C2538 0.951 . S
H2521 C2540 0.951 . S
H2522 C2542 0.950 . S
H2523 C2543 0.950 . S
H2524 C2545 0.950 . S
H2525 C2548 0.950 . S
H2526 C2549 0.950 . S
H2527 C2551 0.950 . S
H2528 C2552 0.950 . S
H2529 C2553 0.951 . S
H2530 C2555 0.951 . S
H2531 C2557 0.950 . S
H2532 C2558 0.950 . S
H2533 C2560 0.950 . S
H2534 C2563 0.950 . S
H2535 C2564 0.950 . S
H2536 C2566 0.950 . S
H2537 C2567 0.950 . S
C2538 H2520 0.951 . S
C2538 C2539 1.366 . S
C2538 C2540 1.388 . S
C2539 C2538 1.366 . S
C2539 C2543 1.385 . S
C2540 H2521 0.951 . S
C2540 C2538 1.388 . S
C2540 C2541 1.366 . S
C2541 C2540 1.366 . S
C2541 C2542 1.414 . S
C2541 C2544 1.499 . S
C2542 H2522 0.950 . S
C2542 C2541 1.414 . S
C2542 C2543 1.374 . S
C2543 H2523 0.950 . S
C2543 C2539 1.385 . S
C2543 C2542 1.374 . S
C2544 C2541 1.499 . S
C2544 C2545 1.373 . S
C2544 C2546 1.389 . S
C2545 H2524 0.950 . S
C2545 C2544 1.373 . S
C2545 C2561 1.377 . S
C2546 C2544 1.389 . S
C2546 C2547 1.524 . S
C2546 C2560 1.377 . S
C2547 C2546 1.524 . S
C2547 C2548 1.397 . S
C2547 C2552 1.363 . S
C2548 H2525 0.950 . S
C2548 C2547 1.397 . S
C2548 C2549 1.334 . S
C2549 H2526 0.950 . S
C2549 C2548 1.334 . S
C2549 C2550 1.287 . S
C2550 C2549 1.287 . S
C2550 C2551 1.524 . S
C2550 H2569 0.913 . S
C2551 H2527 0.950 . S
C2551 C2550 1.524 . S
C2551 C2552 1.415 . S
C2552 H2528 0.950 . S
C2552 C2547 1.363 . S
C2552 C2551 1.415 . S
C2553 H2529 0.951 . S
C2553 C2554 1.366 . S
C2553 C2555 1.388 . S
C2554 C2553 1.366 . S
C2554 C2558 1.385 . S
C2555 H2530 0.951 . S
C2555 C2553 1.388 . S
C2555 C2556 1.366 . S
C2556 C2555 1.366 . S
C2556 C2557 1.414 . S
C2556 C2559 1.499 . S
C2557 H2531 0.950 . S
C2557 C2556 1.414 . S
C2557 C2558 1.374 . S
C2558 H2532 0.950 . S
C2558 C2554 1.385 . S
C2558 C2557 1.374 . S
C2559 C2556 1.499 . S
C2559 C2560 1.373 . S
C2559 C2561 1.389 . S
C2560 H2533 0.950 . S
C2560 C2546 1.377 . S
C2560 C2559 1.373 . S
C2561 C2545 1.377 . S
C2561 C2559 1.389 . S
C2561 C2562 1.524 . S
C2562 C2561 1.524 . S
C2562 C2563 1.397 . S
C2562 C2567 1.363 . S
C2563 H2534 0.950 . S
C2563 C2562 1.397 . S
C2563 C2564 1.334 . S
C2564 H2535 0.950 . S
C2564 C2563 1.334 . S
C2564 C2565 1.287 . S
C2565 C2564 1.287 . S
C2565 C2566 1.524 . S
C2565 H2568 0.999 . S
C2566 H2536 0.950 . S
C2566 C2565 1.524 . S
C2566 C2567 1.415 . S
C2567 H2537 0.950 . S
C2567 C2562 1.363 . S
C2567 C2566 1.415 . S
H2568 C2565 0.999 . S
H2569 C2550 0.913 . S
H2570 C2588 0.951 . S
H2571 C2590 0.951 . S
H2572 C2592 0.950 . S
H2573 C2593 0.950 . S
H2574 C2595 0.950 . S
H2575 C2598 0.950 . S
H2576 C2599 0.950 . S
H2577 C2601 0.950 . S
H2578 C2602 0.950 . S
H2579 C2603 0.951 . S
H2580 C2605 0.951 . S
H2581 C2607 0.950 . S
H2582 C2608 0.950 . S
H2583 C2610 0.950 . S
H2584 C2613 0.950 . S
H2585 C2614 0.950 . S
H2586 C2616 0.950 . S
H2587 C2617 0.950 . S
C2588 H2570 0.951 . S
C2588 C2589 1.366 . S
C2588 C2590 1.388 . S
C2589 C2588 1.366 . S
C2589 C2593 1.385 . S
C2590 H2571 0.951 . S
C2590 C2588 1.388 . S
C2590 C2591 1.366 . S
C2591 C2590 1.366 . S
C2591 C2592 1.414 . S
C2591 C2594 1.499 . S
C2592 H2572 0.950 . S
C2592 C2591 1.414 . S
C2592 C2593 1.374 . S
C2593 H2573 0.950 . S
C2593 C2589 1.385 . S
C2593 C2592 1.374 . S
C2594 C2591 1.499 . S
C2594 C2595 1.373 . S
C2594 C2596 1.389 . S
C2595 H2574 0.950 . S
C2595 C2594 1.373 . S
C2595 C2611 1.377 . S
C2596 C2594 1.389 . S
C2596 C2597 1.524 . S
C2596 C2610 1.377 . S
C2597 C2596 1.524 . S
C2597 C2598 1.397 . S
C2597 C2602 1.363 . S
C2598 H2575 0.950 . S
C2598 C2597 1.397 . S
C2598 C2599 1.334 . S
C2599 H2576 0.950 . S
C2599 C2598 1.334 . S
C2599 C2600 1.287 . S
C2600 C2599 1.287 . S
C2600 C2601 1.524 . S
C2600 H2619 0.913 . S
C2601 H2577 0.950 . S
C2601 C2600 1.524 . S
C2601 C2602 1.415 . S
C2602 H2578 0.950 . S
C2602 C2597 1.363 . S
C2602 C2601 1.415 . S
C2603 H2579 0.951 . S
C2603 C2604 1.366 . S
C2603 C2605 1.388 . S
C2604 C2603 1.366 . S
C2604 C2608 1.385 . S
C2605 H2580 0.951 . S
C2605 C2603 1.388 . S
C2605 C2606 1.366 . S
C2606 C2605 1.366 . S
C2606 C2607 1.414 . S
C2606 C2609 1.499 . S
C2607 H2581 0.950 . S
C2607 C2606 1.414 . S
C2607 C2608 1.374 . S
C2608 H2582 0.950 . S
C2608 C2604 1.385 . S
C2608 C2607 1.374 . S
C2609 C2606 1.499 . S
C2609 C2610 1.373 . S
C2609 C2611 1.389 . S
C2610 H2583 0.950 . S
C2610 C2596 1.377 . S
C2610 C2609 1.373 . S
C2611 C2595 1.377 . S
C2611 C2609 1.389 . S
C2611 C2612 1.524 . S
C2612 C2611 1.524 . S
C2612 C2613 1.397 . S
C2612 C2617 1.363 . S
C2613 H2584 0.950 . S
C2613 C2612 1.397 . S
C2613 C2614 1.334 . S
C2614 H2585 0.950 . S
C2614 C2613 1.334 . S
C2614 C2615 1.287 . S
C2615 C2614 1.287 . S
C2615 C2616 1.524 . S
C2615 H2618 0.999 . S
C2616 H2586 0.950 . S
C2616 C2615 1.524 . S
C2616 C2617 1.415 . S
C2617 H2587 0.950 . S
C2617 C2612 1.363 . S
C2617 C2616 1.415 . S
H2618 C2615 0.999 . S
H2619 C2600 0.913 . S
H2620 C2638 0.951 . S
H2621 C2640 0.951 . S
H2622 C2642 0.950 . S
H2623 C2643 0.950 . S
H2624 C2645 0.950 . S
H2625 C2648 0.950 . S
H2626 C2649 0.950 . S
H2627 C2651 0.950 . S
H2628 C2652 0.950 . S
H2629 C2653 0.951 . S
H2630 C2655 0.951 . S
H2631 C2657 0.950 . S
H2632 C2658 0.950 . S
H2633 C2660 0.950 . S
H2634 C2663 0.950 . S
H2635 C2664 0.950 . S
H2636 C2666 0.950 . S
H2637 C2667 0.950 . S
C2638 H2620 0.951 . S
C2638 C2639 1.366 . S
C2638 C2640 1.388 . S
C2639 C2638 1.366 . S
C2639 C2643 1.385 . S
C2640 H2621 0.951 . S
C2640 C2638 1.388 . S
C2640 C2641 1.366 . S
C2641 C2640 1.366 . S
C2641 C2642 1.414 . S
C2641 C2644 1.499 . S
C2642 H2622 0.950 . S
C2642 C2641 1.414 . S
C2642 C2643 1.374 . S
C2643 H2623 0.950 . S
C2643 C2639 1.385 . S
C2643 C2642 1.374 . S
C2644 C2641 1.499 . S
C2644 C2645 1.373 . S
C2644 C2646 1.389 . S
C2645 H2624 0.950 . S
C2645 C2644 1.373 . S
C2645 C2661 1.377 . S
C2646 C2644 1.389 . S
C2646 C2647 1.524 . S
C2646 C2660 1.377 . S
C2647 C2646 1.524 . S
C2647 C2648 1.397 . S
C2647 C2652 1.363 . S
C2648 H2625 0.950 . S
C2648 C2647 1.397 . S
C2648 C2649 1.334 . S
C2649 H2626 0.950 . S
C2649 C2648 1.334 . S
C2649 C2650 1.287 . S
C2650 C2649 1.287 . S
C2650 C2651 1.524 . S
C2650 H2669 0.913 . S
C2651 H2627 0.950 . S
C2651 C2650 1.524 . S
C2651 C2652 1.415 . S
C2652 H2628 0.950 . S
C2652 C2647 1.363 . S
C2652 C2651 1.415 . S
C2653 H2629 0.951 . S
C2653 C2654 1.366 . S
C2653 C2655 1.388 . S
C2654 C2653 1.366 . S
C2654 C2658 1.385 . S
C2655 H2630 0.951 . S
C2655 C2653 1.388 . S
C2655 C2656 1.366 . S
C2656 C2655 1.366 . S
C2656 C2657 1.414 . S
C2656 C2659 1.499 . S
C2657 H2631 0.950 . S
C2657 C2656 1.414 . S
C2657 C2658 1.374 . S
C2658 H2632 0.950 . S
C2658 C2654 1.385 . S
C2658 C2657 1.374 . S
C2659 C2656 1.499 . S
C2659 C2660 1.373 . S
C2659 C2661 1.389 . S
C2660 H2633 0.950 . S
C2660 C2646 1.377 . S
C2660 C2659 1.373 . S
C2661 C2645 1.377 . S
C2661 C2659 1.389 . S
C2661 C2662 1.524 . S
C2662 C2661 1.524 . S
C2662 C2663 1.397 . S
C2662 C2667 1.363 . S
C2663 H2634 0.950 . S
C2663 C2662 1.397 . S
C2663 C2664 1.334 . S
C2664 H2635 0.950 . S
C2664 C2663 1.334 . S
C2664 C2665 1.287 . S
C2665 C2664 1.287 . S
C2665 C2666 1.524 . S
C2665 H2668 0.999 . S
C2666 H2636 0.950 . S
C2666 C2665 1.524 . S
C2666 C2667 1.415 . S
C2667 H2637 0.950 . S
C2667 C2662 1.363 . S
C2667 C2666 1.415 . S
H2668 C2665 0.999 . S
H2669 C2650 0.913 . S
H2670 C2688 0.951 . S
H2671 C2690 0.951 . S
H2672 C2692 0.950 . S
H2673 C2693 0.950 . S
H2674 C2695 0.950 . S
H2675 C2698 0.950 . S
H2676 C2699 0.950 . S
H2677 C2701 0.950 . S
H2678 C2702 0.950 . S
H2679 C2703 0.951 . S
H2680 C2705 0.951 . S
H2681 C2707 0.950 . S
H2682 C2708 0.950 . S
H2683 C2710 0.950 . S
H2684 C2713 0.950 . S
H2685 C2714 0.950 . S
H2686 C2716 0.950 . S
H2687 C2717 0.950 . S
C2688 H2670 0.951 . S
C2688 C2689 1.366 . S
C2688 C2690 1.388 . S
C2689 C2688 1.366 . S
C2689 C2693 1.385 . S
C2690 H2671 0.951 . S
C2690 C2688 1.388 . S
C2690 C2691 1.366 . S
C2691 C2690 1.366 . S
C2691 C2692 1.414 . S
C2691 C2694 1.499 . S
C2692 H2672 0.950 . S
C2692 C2691 1.414 . S
C2692 C2693 1.374 . S
C2693 H2673 0.950 . S
C2693 C2689 1.385 . S
C2693 C2692 1.374 . S
C2694 C2691 1.499 . S
C2694 C2695 1.373 . S
C2694 C2696 1.389 . S
C2695 H2674 0.950 . S
C2695 C2694 1.373 . S
C2695 C2711 1.377 . S
C2696 C2694 1.389 . S
C2696 C2697 1.524 . S
C2696 C2710 1.377 . S
C2697 C2696 1.524 . S
C2697 C2698 1.397 . S
C2697 C2702 1.363 . S
C2698 H2675 0.950 . S
C2698 C2697 1.397 . S
C2698 C2699 1.334 . S
C2699 H2676 0.950 . S
C2699 C2698 1.334 . S
C2699 C2700 1.287 . S
C2700 C2699 1.287 . S
C2700 C2701 1.524 . S
C2700 H2719 0.913 . S
C2701 H2677 0.950 . S
C2701 C2700 1.524 . S
C2701 C2702 1.415 . S
C2702 H2678 0.950 . S
C2702 C2697 1.363 . S
C2702 C2701 1.415 . S
C2703 H2679 0.951 . S
C2703 C2704 1.366 . S
C2703 C2705 1.388 . S
C2704 C2703 1.366 . S
C2704 C2708 1.385 . S
C2705 H2680 0.951 . S
C2705 C2703 1.388 . S
C2705 C2706 1.366 . S
C2706 C2705 1.366 . S
C2706 C2707 1.414 . S
C2706 C2709 1.499 . S
C2707 H2681 0.950 . S
C2707 C2706 1.414 . S
C2707 C2708 1.374 . S
C2708 H2682 0.950 . S
C2708 C2704 1.385 . S
C2708 C2707 1.374 . S
C2709 C2706 1.499 . S
C2709 C2710 1.373 . S
C2709 C2711 1.389 . S
C2710 H2683 0.950 . S
C2710 C2696 1.377 . S
C2710 C2709 1.373 . S
C2711 C2695 1.377 . S
C2711 C2709 1.389 . S
C2711 C2712 1.524 . S
C2712 C2711 1.524 . S
C2712 C2713 1.397 . S
C2712 C2717 1.363 . S
C2713 H2684 0.950 . S
C2713 C2712 1.397 . S
C2713 C2714 1.334 . S
C2714 H2685 0.950 . S
C2714 C2713 1.334 . S
C2714 C2715 1.287 . S
C2715 C2714 1.287 . S
C2715 C2716 1.524 . S
C2715 H2718 0.999 . S
C2716 H2686 0.950 . S
C2716 C2715 1.524 . S
C2716 C2717 1.415 . S
C2717 H2687 0.950 . S
C2717 C2712 1.363 . S
C2717 C2716 1.415 . S
H2718 C2715 0.999 . S
H2719 C2700 0.913 . S
H2720 C2738 0.951 . S
H2721 C2740 0.951 . S
H2722 C2742 0.950 . S
H2723 C2743 0.950 . S
H2724 C2745 0.950 . S
H2725 C2748 0.950 . S
H2726 C2749 0.950 . S
H2727 C2751 0.950 . S
H2728 C2752 0.950 . S
H2729 C2753 0.951 . S
H2730 C2755 0.951 . S
H2731 C2757 0.950 . S
H2732 C2758 0.950 . S
H2733 C2760 0.950 . S
H2734 C2763 0.950 . S
H2735 C2764 0.950 . S
H2736 C2766 0.950 . S
H2737 C2767 0.950 . S
C2738 H2720 0.951 . S
C2738 C2739 1.366 . S
C2738 C2740 1.388 . S
C2739 C2738 1.366 . S
C2739 C2743 1.385 . S
C2740 H2721 0.951 . S
C2740 C2738 1.388 . S
C2740 C2741 1.366 . S
C2741 C2740 1.366 . S
C2741 C2742 1.414 . S
C2741 C2744 1.499 . S
C2742 H2722 0.950 . S
C2742 C2741 1.414 . S
C2742 C2743 1.374 . S
C2743 H2723 0.950 . S
C2743 C2739 1.385 . S
C2743 C2742 1.374 . S
C2744 C2741 1.499 . S
C2744 C2745 1.373 . S
C2744 C2746 1.389 . S
C2745 H2724 0.950 . S
C2745 C2744 1.373 . S
C2745 C2761 1.377 . S
C2746 C2744 1.389 . S
C2746 C2747 1.524 . S
C2746 C2760 1.377 . S
C2747 C2746 1.524 . S
C2747 C2748 1.397 . S
C2747 C2752 1.363 . S
C2748 H2725 0.950 . S
C2748 C2747 1.397 . S
C2748 C2749 1.334 . S
C2749 H2726 0.950 . S
C2749 C2748 1.334 . S
C2749 C2750 1.287 . S
C2750 C2749 1.287 . S
C2750 C2751 1.524 . S
C2750 H2769 0.913 . S
C2751 H2727 0.950 . S
C2751 C2750 1.524 . S
C2751 C2752 1.415 . S
C2752 H2728 0.950 . S
C2752 C2747 1.363 . S
C2752 C2751 1.415 . S
C2753 H2729 0.951 . S
C2753 C2754 1.366 . S
C2753 C2755 1.388 . S
C2754 C2753 1.366 . S
C2754 C2758 1.385 . S
C2755 H2730 0.951 . S
C2755 C2753 1.388 . S
C2755 C2756 1.366 . S
C2756 C2755 1.366 . S
C2756 C2757 1.414 . S
C2756 C2759 1.499 . S
C2757 H2731 0.950 . S
C2757 C2756 1.414 . S
C2757 C2758 1.374 . S
C2758 H2732 0.950 . S
C2758 C2754 1.385 . S
C2758 C2757 1.374 . S
C2759 C2756 1.499 . S
C2759 C2760 1.373 . S
C2759 C2761 1.389 . S
C2760 H2733 0.950 . S
C2760 C2746 1.377 . S
C2760 C2759 1.373 . S
C2761 C2745 1.377 . S
C2761 C2759 1.389 . S
C2761 C2762 1.524 . S
C2762 C2761 1.524 . S
C2762 C2763 1.397 . S
C2762 C2767 1.363 . S
C2763 H2734 0.950 . S
C2763 C2762 1.397 . S
C2763 C2764 1.334 . S
C2764 H2735 0.950 . S
C2764 C2763 1.334 . S
C2764 C2765 1.287 . S
C2765 C2764 1.287 . S
C2765 C2766 1.524 . S
C2765 H2768 0.999 . S
C2766 H2736 0.950 . S
C2766 C2765 1.524 . S
C2766 C2767 1.415 . S
C2767 H2737 0.950 . S
C2767 C2762 1.363 . S
C2767 C2766 1.415 . S
H2768 C2765 0.999 . S
H2769 C2750 0.913 . S
H2770 C2788 0.951 . S
H2771 C2790 0.951 . S
H2772 C2792 0.950 . S
H2773 C2793 0.950 . S
H2774 C2795 0.950 . S
H2775 C2798 0.950 . S
H2776 C2799 0.950 . S
H2777 C2801 0.950 . S
H2778 C2802 0.950 . S
H2779 C2803 0.951 . S
H2780 C2805 0.951 . S
H2781 C2807 0.950 . S
H2782 C2808 0.950 . S
H2783 C2810 0.950 . S
H2784 C2813 0.950 . S
H2785 C2814 0.950 . S
H2786 C2816 0.950 . S
H2787 C2817 0.950 . S
C2788 H2770 0.951 . S
C2788 C2789 1.366 . S
C2788 C2790 1.388 . S
C2789 C2788 1.366 . S
C2789 C2793 1.385 . S
C2790 H2771 0.951 . S
C2790 C2788 1.388 . S
C2790 C2791 1.366 . S
C2791 C2790 1.366 . S
C2791 C2792 1.414 . S
C2791 C2794 1.499 . S
C2792 H2772 0.950 . S
C2792 C2791 1.414 . S
C2792 C2793 1.374 . S
C2793 H2773 0.950 . S
C2793 C2789 1.385 . S
C2793 C2792 1.374 . S
C2794 C2791 1.499 . S
C2794 C2795 1.373 . S
C2794 C2796 1.389 . S
C2795 H2774 0.950 . S
C2795 C2794 1.373 . S
C2795 C2811 1.377 . S
C2796 C2794 1.389 . S
C2796 C2797 1.524 . S
C2796 C2810 1.377 . S
C2797 C2796 1.524 . S
C2797 C2798 1.397 . S
C2797 C2802 1.363 . S
C2798 H2775 0.950 . S
C2798 C2797 1.397 . S
C2798 C2799 1.334 . S
C2799 H2776 0.950 . S
C2799 C2798 1.334 . S
C2799 C2800 1.287 . S
C2800 C2799 1.287 . S
C2800 C2801 1.524 . S
C2800 H2819 0.913 . S
C2801 H2777 0.950 . S
C2801 C2800 1.524 . S
C2801 C2802 1.415 . S
C2802 H2778 0.950 . S
C2802 C2797 1.363 . S
C2802 C2801 1.415 . S
C2803 H2779 0.951 . S
C2803 C2804 1.366 . S
C2803 C2805 1.388 . S
C2804 C2803 1.366 . S
C2804 C2808 1.385 . S
C2805 H2780 0.951 . S
C2805 C2803 1.388 . S
C2805 C2806 1.366 . S
C2806 C2805 1.366 . S
C2806 C2807 1.414 . S
C2806 C2809 1.499 . S
C2807 H2781 0.950 . S
C2807 C2806 1.414 . S
C2807 C2808 1.374 . S
C2808 H2782 0.950 . S
C2808 C2804 1.385 . S
C2808 C2807 1.374 . S
C2809 C2806 1.499 . S
C2809 C2810 1.373 . S
C2809 C2811 1.389 . S
C2810 H2783 0.950 . S
C2810 C2796 1.377 . S
C2810 C2809 1.373 . S
C2811 C2795 1.377 . S
C2811 C2809 1.389 . S
C2811 C2812 1.524 . S
C2812 C2811 1.524 . S
C2812 C2813 1.397 . S
C2812 C2817 1.363 . S
C2813 H2784 0.950 . S
C2813 C2812 1.397 . S
C2813 C2814 1.334 . S
C2814 H2785 0.950 . S
C2814 C2813 1.334 . S
C2814 C2815 1.287 . S
C2815 C2814 1.287 . S
C2815 C2816 1.524 . S
C2815 H2818 0.999 . S
C2816 H2786 0.950 . S
C2816 C2815 1.524 . S
C2816 C2817 1.415 . S
C2817 H2787 0.950 . S
C2817 C2812 1.363 . S
C2817 C2816 1.415 . S
H2818 C2815 0.999 . S
H2819 C2800 0.913 . S
H2820 C2838 0.951 . S
H2821 C2840 0.951 . S
H2822 C2842 0.950 . S
H2823 C2843 0.950 . S
H2824 C2845 0.950 . S
H2825 C2848 0.950 . S
H2826 C2849 0.950 . S
H2827 C2851 0.950 . S
H2828 C2852 0.950 . S
H2829 C2853 0.951 . S
H2830 C2855 0.951 . S
H2831 C2857 0.950 . S
H2832 C2858 0.950 . S
H2833 C2860 0.950 . S
H2834 C2863 0.950 . S
H2835 C2864 0.950 . S
H2836 C2866 0.950 . S
H2837 C2867 0.950 . S
C2838 H2820 0.951 . S
C2838 C2839 1.366 . S
C2838 C2840 1.388 . S
C2839 C2838 1.366 . S
C2839 C2843 1.385 . S
C2840 H2821 0.951 . S
C2840 C2838 1.388 . S
C2840 C2841 1.366 . S
C2841 C2840 1.366 . S
C2841 C2842 1.414 . S
C2841 C2844 1.499 . S
C2842 H2822 0.950 . S
C2842 C2841 1.414 . S
C2842 C2843 1.374 . S
C2843 H2823 0.950 . S
C2843 C2839 1.385 . S
C2843 C2842 1.374 . S
C2844 C2841 1.499 . S
C2844 C2845 1.373 . S
C2844 C2846 1.389 . S
C2845 H2824 0.950 . S
C2845 C2844 1.373 . S
C2845 C2861 1.377 . S
C2846 C2844 1.389 . S
C2846 C2847 1.524 . S
C2846 C2860 1.377 . S
C2847 C2846 1.524 . S
C2847 C2848 1.397 . S
C2847 C2852 1.363 . S
C2848 H2825 0.950 . S
C2848 C2847 1.397 . S
C2848 C2849 1.334 . S
C2849 H2826 0.950 . S
C2849 C2848 1.334 . S
C2849 C2850 1.287 . S
C2850 C2849 1.287 . S
C2850 C2851 1.524 . S
C2850 H2869 0.913 . S
C2851 H2827 0.950 . S
C2851 C2850 1.524 . S
C2851 C2852 1.415 . S
C2852 H2828 0.950 . S
C2852 C2847 1.363 . S
C2852 C2851 1.415 . S
C2853 H2829 0.951 . S
C2853 C2854 1.366 . S
C2853 C2855 1.388 . S
C2854 C2853 1.366 . S
C2854 C2858 1.385 . S
C2855 H2830 0.951 . S
C2855 C2853 1.388 . S
C2855 C2856 1.366 . S
C2856 C2855 1.366 . S
C2856 C2857 1.414 . S
C2856 C2859 1.499 . S
C2857 H2831 0.950 . S
C2857 C2856 1.414 . S
C2857 C2858 1.374 . S
C2858 H2832 0.950 . S
C2858 C2854 1.385 . S
C2858 C2857 1.374 . S
C2859 C2856 1.499 . S
C2859 C2860 1.373 . S
C2859 C2861 1.389 . S
C2860 H2833 0.950 . S
C2860 C2846 1.377 . S
C2860 C2859 1.373 . S
C2861 C2845 1.377 . S
C2861 C2859 1.389 . S
C2861 C2862 1.524 . S
C2862 C2861 1.524 . S
C2862 C2863 1.397 . S
C2862 C2867 1.363 . S
C2863 H2834 0.950 . S
C2863 C2862 1.397 . S
C2863 C2864 1.334 . S
C2864 H2835 0.950 . S
C2864 C2863 1.334 . S
C2864 C2865 1.287 . S
C2865 C2864 1.287 . S
C2865 C2866 1.524 . S
C2865 H2868 0.999 . S
C2866 H2836 0.950 . S
C2866 C2865 1.524 . S
C2866 C2867 1.415 . S
C2867 H2837 0.950 . S
C2867 C2862 1.363 . S
C2867 C2866 1.415 . S
H2868 C2865 0.999 . S
H2869 C2850 0.913 . S
H2870 C2888 0.951 . S
H2871 C2890 0.951 . S
H2872 C2892 0.950 . S
H2873 C2893 0.950 . S
H2874 C2895 0.950 . S
H2875 C2898 0.950 . S
H2876 C2899 0.950 . S
H2877 C2901 0.950 . S
H2878 C2902 0.950 . S
H2879 C2903 0.951 . S
H2880 C2905 0.951 . S
H2881 C2907 0.950 . S
H2882 C2908 0.950 . S
H2883 C2910 0.950 . S
H2884 C2913 0.950 . S
H2885 C2914 0.950 . S
H2886 C2916 0.950 . S
H2887 C2917 0.950 . S
C2888 H2870 0.951 . S
C2888 C2889 1.366 . S
C2888 C2890 1.388 . S
C2889 C2888 1.366 . S
C2889 C2893 1.385 . S
C2890 H2871 0.951 . S
C2890 C2888 1.388 . S
C2890 C2891 1.366 . S
C2891 C2890 1.366 . S
C2891 C2892 1.414 . S
C2891 C2894 1.499 . S
C2892 H2872 0.950 . S
C2892 C2891 1.414 . S
C2892 C2893 1.374 . S
C2893 H2873 0.950 . S
C2893 C2889 1.385 . S
C2893 C2892 1.374 . S
C2894 C2891 1.499 . S
C2894 C2895 1.373 . S
C2894 C2896 1.389 . S
C2895 H2874 0.950 . S
C2895 C2894 1.373 . S
C2895 C2911 1.377 . S
C2896 C2894 1.389 . S
C2896 C2897 1.524 . S
C2896 C2910 1.377 . S
C2897 C2896 1.524 . S
C2897 C2898 1.397 . S
C2897 C2902 1.363 . S
C2898 H2875 0.950 . S
C2898 C2897 1.397 . S
C2898 C2899 1.334 . S
C2899 H2876 0.950 . S
C2899 C2898 1.334 . S
C2899 C2900 1.287 . S
C2900 C2899 1.287 . S
C2900 C2901 1.524 . S
C2900 H2919 0.913 . S
C2901 H2877 0.950 . S
C2901 C2900 1.524 . S
C2901 C2902 1.415 . S
C2902 H2878 0.950 . S
C2902 C2897 1.363 . S
C2902 C2901 1.415 . S
C2903 H2879 0.951 . S
C2903 C2904 1.366 . S
C2903 C2905 1.388 . S
C2904 C2903 1.366 . S
C2904 C2908 1.385 . S
C2905 H2880 0.951 . S
C2905 C2903 1.388 . S
C2905 C2906 1.366 . S
C2906 C2905 1.366 . S
C2906 C2907 1.414 . S
C2906 C2909 1.499 . S
C2907 H2881 0.950 . S
C2907 C2906 1.414 . S
C2907 C2908 1.374 . S
C2908 H2882 0.950 . S
C2908 C2904 1.385 . S
C2908 C2907 1.374 . S
C2909 C2906 1.499 . S
C2909 C2910 1.373 . S
C2909 C2911 1.389 . S
C2910 H2883 0.950 . S
C2910 C2896 1.377 . S
C2910 C2909 1.373 . S
C2911 C2895 1.377 . S
C2911 C2909 1.389 . S
C2911 C2912 1.524 . S
C2912 C2911 1.524 . S
C2912 C2913 1.397 . S
C2912 C2917 1.363 . S
C2913 H2884 0.950 . S
C2913 C2912 1.397 . S
C2913 C2914 1.334 . S
C2914 H2885 0.950 . S
C2914 C2913 1.334 . S
C2914 C2915 1.287 . S
C2915 C2914 1.287 . S
C2915 C2916 1.524 . S
C2915 H2918 0.999 . S
C2916 H2886 0.950 . S
C2916 C2915 1.524 . S
C2916 C2917 1.415 . S
C2917 H2887 0.950 . S
C2917 C2912 1.363 . S
C2917 C2916 1.415 . S
H2918 C2915 0.999 . S
H2919 C2900 0.913 . S
H2920 C2938 0.951 . S
H2921 C2940 0.951 . S
H2922 C2942 0.950 . S
H2923 C2943 0.950 . S
H2924 C2945 0.950 . S
H2925 C2948 0.950 . S
H2926 C2949 0.950 . S
H2927 C2951 0.950 . S
H2928 C2952 0.950 . S
H2929 C2953 0.951 . S
H2930 C2955 0.951 . S
H2931 C2957 0.950 . S
H2932 C2958 0.950 . S
H2933 C2960 0.950 . S
H2934 C2963 0.950 . S
H2935 C2964 0.950 . S
H2936 C2966 0.950 . S
H2937 C2967 0.950 . S
C2938 H2920 0.951 . S
C2938 C2939 1.366 . S
C2938 C2940 1.388 . S
C2939 C2938 1.366 . S
C2939 C2943 1.385 . S
C2940 H2921 0.951 . S
C2940 C2938 1.388 . S
C2940 C2941 1.366 . S
C2941 C2940 1.366 . S
C2941 C2942 1.414 . S
C2941 C2944 1.499 . S
C2942 H2922 0.950 . S
C2942 C2941 1.414 . S
C2942 C2943 1.374 . S
C2943 H2923 0.950 . S
C2943 C2939 1.385 . S
C2943 C2942 1.374 . S
C2944 C2941 1.499 . S
C2944 C2945 1.373 . S
C2944 C2946 1.389 . S
C2945 H2924 0.950 . S
C2945 C2944 1.373 . S
C2945 C2961 1.377 . S
C2946 C2944 1.389 . S
C2946 C2947 1.524 . S
C2946 C2960 1.377 . S
C2947 C2946 1.524 . S
C2947 C2948 1.397 . S
C2947 C2952 1.363 . S
C2948 H2925 0.950 . S
C2948 C2947 1.397 . S
C2948 C2949 1.334 . S
C2949 H2926 0.950 . S
C2949 C2948 1.334 . S
C2949 C2950 1.287 . S
C2950 C2949 1.287 . S
C2950 C2951 1.524 . S
C2950 H2969 0.913 . S
C2951 H2927 0.950 . S
C2951 C2950 1.524 . S
C2951 C2952 1.415 . S
C2952 H2928 0.950 . S
C2952 C2947 1.363 . S
C2952 C2951 1.415 . S
C2953 H2929 0.951 . S
C2953 C2954 1.366 . S
C2953 C2955 1.388 . S
C2954 C2953 1.366 . S
C2954 C2958 1.385 . S
C2955 H2930 0.951 . S
C2955 C2953 1.388 . S
C2955 C2956 1.366 . S
C2956 C2955 1.366 . S
C2956 C2957 1.414 . S
C2956 C2959 1.499 . S
C2957 H2931 0.950 . S
C2957 C2956 1.414 . S
C2957 C2958 1.374 . S
C2958 H2932 0.950 . S
C2958 C2954 1.385 . S
C2958 C2957 1.374 . S
C2959 C2956 1.499 . S
C2959 C2960 1.373 . S
C2959 C2961 1.389 . S
C2960 H2933 0.950 . S
C2960 C2946 1.377 . S
C2960 C2959 1.373 . S
C2961 C2945 1.377 . S
C2961 C2959 1.389 . S
C2961 C2962 1.524 . S
C2962 C2961 1.524 . S
C2962 C2963 1.397 . S
C2962 C2967 1.363 . S
C2963 H2934 0.950 . S
C2963 C2962 1.397 . S
C2963 C2964 1.334 . S
C2964 H2935 0.950 . S
C2964 C2963 1.334 . S
C2964 C2965 1.287 . S
C2965 C2964 1.287 . S
C2965 C2966 1.524 . S
C2965 H2968 0.999 . S
C2966 H2936 0.950 . S
C2966 C2965 1.524 . S
C2966 C2967 1.415 . S
C2967 H2937 0.950 . S
C2967 C2962 1.363 . S
C2967 C2966 1.415 . S
H2968 C2965 0.999 . S
H2969 C2950 0.913 . S
H2970 C2988 0.951 . S
H2971 C2990 0.951 . S
H2972 C2992 0.950 . S
H2973 C2993 0.950 . S
H2974 C2995 0.950 . S
H2975 C2998 0.950 . S
H2976 C2999 0.950 . S
H2977 C3001 0.950 . S
H2978 C3002 0.950 . S
H2979 C3003 0.951 . S
H2980 C3005 0.951 . S
H2981 C3007 0.950 . S
H2982 C3008 0.950 . S
H2983 C3010 0.950 . S
H2984 C3013 0.950 . S
H2985 C3014 0.950 . S
H2986 C3016 0.950 . S
H2987 C3017 0.950 . S
C2988 H2970 0.951 . S
C2988 C2989 1.366 . S
C2988 C2990 1.388 . S
C2989 C2988 1.366 . S
C2989 C2993 1.385 . S
C2990 H2971 0.951 . S
C2990 C2988 1.388 . S
C2990 C2991 1.366 . S
C2991 C2990 1.366 . S
C2991 C2992 1.414 . S
C2991 C2994 1.499 . S
C2992 H2972 0.950 . S
C2992 C2991 1.414 . S
C2992 C2993 1.374 . S
C2993 H2973 0.950 . S
C2993 C2989 1.385 . S
C2993 C2992 1.374 . S
C2994 C2991 1.499 . S
C2994 C2995 1.373 . S
C2994 C2996 1.389 . S
C2995 H2974 0.950 . S
C2995 C2994 1.373 . S
C2995 C3011 1.377 . S
C2996 C2994 1.389 . S
C2996 C2997 1.524 . S
C2996 C3010 1.377 . S
C2997 C2996 1.524 . S
C2997 C2998 1.397 . S
C2997 C3002 1.363 . S
C2998 H2975 0.950 . S
C2998 C2997 1.397 . S
C2998 C2999 1.334 . S
C2999 H2976 0.950 . S
C2999 C2998 1.334 . S
C2999 C3000 1.287 . S
C3000 C2999 1.287 . S
C3000 C3001 1.524 . S
C3000 H3019 0.913 . S
C3001 H2977 0.950 . S
C3001 C3000 1.524 . S
C3001 C3002 1.415 . S
C3002 H2978 0.950 . S
C3002 C2997 1.363 . S
C3002 C3001 1.415 . S
C3003 H2979 0.951 . S
C3003 C3004 1.366 . S
C3003 C3005 1.388 . S
C3004 C3003 1.366 . S
C3004 C3008 1.385 . S
C3005 H2980 0.951 . S
C3005 C3003 1.388 . S
C3005 C3006 1.366 . S
C3006 C3005 1.366 . S
C3006 C3007 1.414 . S
C3006 C3009 1.499 . S
C3007 H2981 0.950 . S
C3007 C3006 1.414 . S
C3007 C3008 1.374 . S
C3008 H2982 0.950 . S
C3008 C3004 1.385 . S
C3008 C3007 1.374 . S
C3009 C3006 1.499 . S
C3009 C3010 1.373 . S
C3009 C3011 1.389 . S
C3010 H2983 0.950 . S
C3010 C2996 1.377 . S
C3010 C3009 1.373 . S
C3011 C2995 1.377 . S
C3011 C3009 1.389 . S
C3011 C3012 1.524 . S
C3012 C3011 1.524 . S
C3012 C3013 1.397 . S
C3012 C3017 1.363 . S
C3013 H2984 0.950 . S
C3013 C3012 1.397 . S
C3013 C3014 1.334 . S
C3014 H2985 0.950 . S
C3014 C3013 1.334 . S
C3014 C3015 1.287 . S
C3015 C3014 1.287 . S
C3015 C3016 1.524 . S
C3015 H3018 0.999 . S
C3016 H2986 0.950 . S
C3016 C3015 1.524 . S
C3016 C3017 1.415 . S
C3017 H2987 0.950 . S
C3017 C3012 1.363 . S
C3017 C3016 1.415 . S
H3018 C3015 0.999 . S
H3019 C3000 0.913 . S
H3020 C3038 0.951 . S
H3021 C3040 0.951 . S
H3022 C3042 0.950 . S
H3023 C3043 0.950 . S
H3024 C3045 0.950 . S
H3025 C3048 0.950 . S
H3026 C3049 0.950 . S
H3027 C3051 0.950 . S
H3028 C3052 0.950 . S
H3029 C3053 0.951 . S
H3030 C3055 0.951 . S
H3031 C3057 0.950 . S
H3032 C3058 0.950 . S
H3033 C3060 0.950 . S
H3034 C3063 0.950 . S
H3035 C3064 0.950 . S
H3036 C3066 0.950 . S
H3037 C3067 0.950 . S
C3038 H3020 0.951 . S
C3038 C3039 1.366 . S
C3038 C3040 1.388 . S
C3039 C3038 1.366 . S
C3039 C3043 1.385 . S
C3040 H3021 0.951 . S
C3040 C3038 1.388 . S
C3040 C3041 1.366 . S
C3041 C3040 1.366 . S
C3041 C3042 1.414 . S
C3041 C3044 1.499 . S
C3042 H3022 0.950 . S
C3042 C3041 1.414 . S
C3042 C3043 1.374 . S
C3043 H3023 0.950 . S
C3043 C3039 1.385 . S
C3043 C3042 1.374 . S
C3044 C3041 1.499 . S
C3044 C3045 1.373 . S
C3044 C3046 1.389 . S
C3045 H3024 0.950 . S
C3045 C3044 1.373 . S
C3045 C3061 1.377 . S
C3046 C3044 1.389 . S
C3046 C3047 1.524 . S
C3046 C3060 1.377 . S
C3047 C3046 1.524 . S
C3047 C3048 1.397 . S
C3047 C3052 1.363 . S
C3048 H3025 0.950 . S
C3048 C3047 1.397 . S
C3048 C3049 1.334 . S
C3049 H3026 0.950 . S
C3049 C3048 1.334 . S
C3049 C3050 1.287 . S
C3050 C3049 1.287 . S
C3050 C3051 1.524 . S
C3050 H3069 0.913 . S
C3051 H3027 0.950 . S
C3051 C3050 1.524 . S
C3051 C3052 1.415 . S
C3052 H3028 0.950 . S
C3052 C3047 1.363 . S
C3052 C3051 1.415 . S
C3053 H3029 0.951 . S
C3053 C3054 1.366 . S
C3053 C3055 1.388 . S
C3054 C3053 1.366 . S
C3054 C3058 1.385 . S
C3055 H3030 0.951 . S
C3055 C3053 1.388 . S
C3055 C3056 1.366 . S
C3056 C3055 1.366 . S
C3056 C3057 1.414 . S
C3056 C3059 1.499 . S
C3057 H3031 0.950 . S
C3057 C3056 1.414 . S
C3057 C3058 1.374 . S
C3058 H3032 0.950 . S
C3058 C3054 1.385 . S
C3058 C3057 1.374 . S
C3059 C3056 1.499 . S
C3059 C3060 1.373 . S
C3059 C3061 1.389 . S
C3060 H3033 0.950 . S
C3060 C3046 1.377 . S
C3060 C3059 1.373 . S
C3061 C3045 1.377 . S
C3061 C3059 1.389 . S
C3061 C3062 1.524 . S
C3062 C3061 1.524 . S
C3062 C3063 1.397 . S
C3062 C3067 1.363 . S
C3063 H3034 0.950 . S
C3063 C3062 1.397 . S
C3063 C3064 1.334 . S
C3064 H3035 0.950 . S
C3064 C3063 1.334 . S
C3064 C3065 1.287 . S
C3065 C3064 1.287 . S
C3065 C3066 1.524 . S
C3065 H3068 0.999 . S
C3066 H3036 0.950 . S
C3066 C3065 1.524 . S
C3066 C3067 1.415 . S
C3067 H3037 0.950 . S
C3067 C3062 1.363 . S
C3067 C3066 1.415 . S
H3068 C3065 0.999 . S
H3069 C3050 0.913 . S
H3070 C3088 0.951 . S
H3071 C3090 0.951 . S
H3072 C3092 0.950 . S
H3073 C3093 0.950 . S
H3074 C3095 0.950 . S
H3075 C3098 0.950 . S
H3076 C3099 0.950 . S
H3077 C3101 0.950 . S
H3078 C3102 0.950 . S
H3079 C3103 0.951 . S
H3080 C3105 0.951 . S
H3081 C3107 0.950 . S
H3082 C3108 0.950 . S
H3083 C3110 0.950 . S
H3084 C3113 0.950 . S
H3085 C3114 0.950 . S
H3086 C3116 0.950 . S
H3087 C3117 0.950 . S
C3088 H3070 0.951 . S
C3088 C3089 1.366 . S
C3088 C3090 1.388 . S
C3089 C3088 1.366 . S
C3089 C3093 1.385 . S
C3090 H3071 0.951 . S
C3090 C3088 1.388 . S
C3090 C3091 1.366 . S
C3091 C3090 1.366 . S
C3091 C3092 1.414 . S
C3091 C3094 1.499 . S
C3092 H3072 0.950 . S
C3092 C3091 1.414 . S
C3092 C3093 1.374 . S
C3093 H3073 0.950 . S
C3093 C3089 1.385 . S
C3093 C3092 1.374 . S
C3094 C3091 1.499 . S
C3094 C3095 1.373 . S
C3094 C3096 1.389 . S
C3095 H3074 0.950 . S
C3095 C3094 1.373 . S
C3095 C3111 1.377 . S
C3096 C3094 1.389 . S
C3096 C3097 1.524 . S
C3096 C3110 1.377 . S
C3097 C3096 1.524 . S
C3097 C3098 1.397 . S
C3097 C3102 1.363 . S
C3098 H3075 0.950 . S
C3098 C3097 1.397 . S
C3098 C3099 1.334 . S
C3099 H3076 0.950 . S
C3099 C3098 1.334 . S
C3099 C3100 1.287 . S
C3100 C3099 1.287 . S
C3100 C3101 1.524 . S
C3100 H3119 0.913 . S
C3101 H3077 0.950 . S
C3101 C3100 1.524 . S
C3101 C3102 1.415 . S
C3102 H3078 0.950 . S
C3102 C3097 1.363 . S
C3102 C3101 1.415 . S
C3103 H3079 0.951 . S
C3103 C3104 1.366 . S
C3103 C3105 1.388 . S
C3104 C3103 1.366 . S
C3104 C3108 1.385 . S
C3105 H3080 0.951 . S
C3105 C3103 1.388 . S
C3105 C3106 1.366 . S
C3106 C3105 1.366 . S
C3106 C3107 1.414 . S
C3106 C3109 1.499 . S
C3107 H3081 0.950 . S
C3107 C3106 1.414 . S
C3107 C3108 1.374 . S
C3108 H3082 0.950 . S
C3108 C3104 1.385 . S
C3108 C3107 1.374 . S
C3109 C3106 1.499 . S
C3109 C3110 1.373 . S
C3109 C3111 1.389 . S
C3110 H3083 0.950 . S
C3110 C3096 1.377 . S
C3110 C3109 1.373 . S
C3111 C3095 1.377 . S
C3111 C3109 1.389 . S
C3111 C3112 1.524 . S
C3112 C3111 1.524 . S
C3112 C3113 1.397 . S
C3112 C3117 1.363 . S
C3113 H3084 0.950 . S
C3113 C3112 1.397 . S
C3113 C3114 1.334 . S
C3114 H3085 0.950 . S
C3114 C3113 1.334 . S
C3114 C3115 1.287 . S
C3115 C3114 1.287 . S
C3115 C3116 1.524 . S
C3115 H3118 0.999 . S
C3116 H3086 0.950 . S
C3116 C3115 1.524 . S
C3116 C3117 1.415 . S
C3117 H3087 0.950 . S
C3117 C3112 1.363 . S
C3117 C3116 1.415 . S
H3118 C3115 0.999 . S
H3119 C3100 0.913 . S
H3120 C3138 0.951 . S
H3121 C3140 0.951 . S
H3122 C3142 0.950 . S
H3123 C3143 0.950 . S
H3124 C3145 0.950 . S
H3125 C3148 0.950 . S
H3126 C3149 0.950 . S
H3127 C3151 0.950 . S
H3128 C3152 0.950 . S
H3129 C3153 0.951 . S
H3130 C3155 0.951 . S
H3131 C3157 0.950 . S
H3132 C3158 0.950 . S
H3133 C3160 0.950 . S
H3134 C3163 0.950 . S
H3135 C3164 0.950 . S
H3136 C3166 0.950 . S
H3137 C3167 0.950 . S
C3138 H3120 0.951 . S
C3138 C3139 1.366 . S
C3138 C3140 1.388 . S
C3139 C3138 1.366 . S
C3139 C3143 1.385 . S
C3140 H3121 0.951 . S
C3140 C3138 1.388 . S
C3140 C3141 1.366 . S
C3141 C3140 1.366 . S
C3141 C3142 1.414 . S
C3141 C3144 1.499 . S
C3142 H3122 0.950 . S
C3142 C3141 1.414 . S
C3142 C3143 1.374 . S
C3143 H3123 0.950 . S
C3143 C3139 1.385 . S
C3143 C3142 1.374 . S
C3144 C3141 1.499 . S
C3144 C3145 1.373 . S
C3144 C3146 1.389 . S
C3145 H3124 0.950 . S
C3145 C3144 1.373 . S
C3145 C3161 1.377 . S
C3146 C3144 1.389 . S
C3146 C3147 1.524 . S
C3146 C3160 1.377 . S
C3147 C3146 1.524 . S
C3147 C3148 1.397 . S
C3147 C3152 1.363 . S
C3148 H3125 0.950 . S
C3148 C3147 1.397 . S
C3148 C3149 1.334 . S
C3149 H3126 0.950 . S
C3149 C3148 1.334 . S
C3149 C3150 1.287 . S
C3150 C3149 1.287 . S
C3150 C3151 1.524 . S
C3150 H3169 0.913 . S
C3151 H3127 0.950 . S
C3151 C3150 1.524 . S
C3151 C3152 1.415 . S
C3152 H3128 0.950 . S
C3152 C3147 1.363 . S
C3152 C3151 1.415 . S
C3153 H3129 0.951 . S
C3153 C3154 1.366 . S
C3153 C3155 1.388 . S
C3154 C3153 1.366 . S
C3154 C3158 1.385 . S
C3155 H3130 0.951 . S
C3155 C3153 1.388 . S
C3155 C3156 1.366 . S
C3156 C3155 1.366 . S
C3156 C3157 1.414 . S
C3156 C3159 1.499 . S
C3157 H3131 0.950 . S
C3157 C3156 1.414 . S
C3157 C3158 1.374 . S
C3158 H3132 0.950 . S
C3158 C3154 1.385 . S
C3158 C3157 1.374 . S
C3159 C3156 1.499 . S
C3159 C3160 1.373 . S
C3159 C3161 1.389 . S
C3160 H3133 0.950 . S
C3160 C3146 1.377 . S
C3160 C3159 1.373 . S
C3161 C3145 1.377 . S
C3161 C3159 1.389 . S
C3161 C3162 1.524 . S
C3162 C3161 1.524 . S
C3162 C3163 1.397 . S
C3162 C3167 1.363 . S
C3163 H3134 0.950 . S
C3163 C3162 1.397 . S
C3163 C3164 1.334 . S
C3164 H3135 0.950 . S
C3164 C3163 1.334 . S
C3164 C3165 1.287 . S
C3165 C3164 1.287 . S
C3165 C3166 1.524 . S
C3165 H3168 0.999 . S
C3166 H3136 0.950 . S
C3166 C3165 1.524 . S
C3166 C3167 1.415 . S
C3167 H3137 0.950 . S
C3167 C3162 1.363 . S
C3167 C3166 1.415 . S
H3168 C3165 0.999 . S
H3169 C3150 0.913 . S
H3170 C3188 0.951 . S
H3171 C3190 0.951 . S
H3172 C3192 0.950 . S
H3173 C3193 0.950 . S
H3174 C3195 0.950 . S
H3175 C3198 0.950 . S
H3176 C3199 0.950 . S
H3177 C3201 0.950 . S
H3178 C3202 0.950 . S
H3179 C3203 0.951 . S
H3180 C3205 0.951 . S
H3181 C3207 0.950 . S
H3182 C3208 0.950 . S
H3183 C3210 0.950 . S
H3184 C3213 0.950 . S
H3185 C3214 0.950 . S
H3186 C3216 0.950 . S
H3187 C3217 0.950 . S
C3188 H3170 0.951 . S
C3188 C3189 1.366 . S
C3188 C3190 1.388 . S
C3189 C3188 1.366 . S
C3189 C3193 1.385 . S
C3190 H3171 0.951 . S
C3190 C3188 1.388 . S
C3190 C3191 1.366 . S
C3191 C3190 1.366 . S
C3191 C3192 1.414 . S
C3191 C3194 1.499 . S
C3192 H3172 0.950 . S
C3192 C3191 1.414 . S
C3192 C3193 1.374 . S
C3193 H3173 0.950 . S
C3193 C3189 1.385 . S
C3193 C3192 1.374 . S
C3194 C3191 1.499 . S
C3194 C3195 1.373 . S
C3194 C3196 1.389 . S
C3195 H3174 0.950 . S
C3195 C3194 1.373 . S
C3195 C3211 1.377 . S
C3196 C3194 1.389 . S
C3196 C3197 1.524 . S
C3196 C3210 1.377 . S
C3197 C3196 1.524 . S
C3197 C3198 1.397 . S
C3197 C3202 1.363 . S
C3198 H3175 0.950 . S
C3198 C3197 1.397 . S
C3198 C3199 1.334 . S
C3199 H3176 0.950 . S
C3199 C3198 1.334 . S
C3199 C3200 1.287 . S
C3200 C3199 1.287 . S
C3200 C3201 1.524 . S
C3200 H3219 0.913 . S
C3201 H3177 0.950 . S
C3201 C3200 1.524 . S
C3201 C3202 1.415 . S
C3202 H3178 0.950 . S
C3202 C3197 1.363 . S
C3202 C3201 1.415 . S
C3203 H3179 0.951 . S
C3203 C3204 1.366 . S
C3203 C3205 1.388 . S
C3204 C3203 1.366 . S
C3204 C3208 1.385 . S
C3205 H3180 0.951 . S
C3205 C3203 1.388 . S
C3205 C3206 1.366 . S
C3206 C3205 1.366 . S
C3206 C3207 1.414 . S
C3206 C3209 1.499 . S
C3207 H3181 0.950 . S
C3207 C3206 1.414 . S
C3207 C3208 1.374 . S
C3208 H3182 0.950 . S
C3208 C3204 1.385 . S
C3208 C3207 1.374 . S
C3209 C3206 1.499 . S
C3209 C3210 1.373 . S
C3209 C3211 1.389 . S
C3210 H3183 0.950 . S
C3210 C3196 1.377 . S
C3210 C3209 1.373 . S
C3211 C3195 1.377 . S
C3211 C3209 1.389 . S
C3211 C3212 1.524 . S
C3212 C3211 1.524 . S
C3212 C3213 1.397 . S
C3212 C3217 1.363 . S
C3213 H3184 0.950 . S
C3213 C3212 1.397 . S
C3213 C3214 1.334 . S
C3214 H3185 0.950 . S
C3214 C3213 1.334 . S
C3214 C3215 1.287 . S
C3215 C3214 1.287 . S
C3215 C3216 1.524 . S
C3215 H3218 0.999 . S
C3216 H3186 0.950 . S
C3216 C3215 1.524 . S
C3216 C3217 1.415 . S
C3217 H3187 0.950 . S
C3217 C3212 1.363 . S
C3217 C3216 1.415 . S
H3218 C3215 0.999 . S
H3219 C3200 0.913 . S
H3220 C3238 0.951 . S
H3221 C3240 0.951 . S
H3222 C3242 0.950 . S
H3223 C3243 0.950 . S
H3224 C3245 0.950 . S
H3225 C3248 0.950 . S
H3226 C3249 0.950 . S
H3227 C3251 0.950 . S
H3228 C3252 0.950 . S
H3229 C3253 0.951 . S
H3230 C3255 0.951 . S
H3231 C3257 0.950 . S
H3232 C3258 0.950 . S
H3233 C3260 0.950 . S
H3234 C3263 0.950 . S
H3235 C3264 0.950 . S
H3236 C3266 0.950 . S
H3237 C3267 0.950 . S
C3238 H3220 0.951 . S
C3238 C3239 1.366 . S
C3238 C3240 1.388 . S
C3239 C3238 1.366 . S
C3239 C3243 1.385 . S
C3240 H3221 0.951 . S
C3240 C3238 1.388 . S
C3240 C3241 1.366 . S
C3241 C3240 1.366 . S
C3241 C3242 1.414 . S
C3241 C3244 1.499 . S
C3242 H3222 0.950 . S
C3242 C3241 1.414 . S
C3242 C3243 1.374 . S
C3243 H3223 0.950 . S
C3243 C3239 1.385 . S
C3243 C3242 1.374 . S
C3244 C3241 1.499 . S
C3244 C3245 1.373 . S
C3244 C3246 1.389 . S
C3245 H3224 0.950 . S
C3245 C3244 1.373 . S
C3245 C3261 1.377 . S
C3246 C3244 1.389 . S
C3246 C3247 1.524 . S
C3246 C3260 1.377 . S
C3247 C3246 1.524 . S
C3247 C3248 1.397 . S
C3247 C3252 1.363 . S
C3248 H3225 0.950 . S
C3248 C3247 1.397 . S
C3248 C3249 1.334 . S
C3249 H3226 0.950 . S
C3249 C3248 1.334 . S
C3249 C3250 1.287 . S
C3250 C3249 1.287 . S
C3250 C3251 1.524 . S
C3250 H3269 0.913 . S
C3251 H3227 0.950 . S
C3251 C3250 1.524 . S
C3251 C3252 1.415 . S
C3252 H3228 0.950 . S
C3252 C3247 1.363 . S
C3252 C3251 1.415 . S
C3253 H3229 0.951 . S
C3253 C3254 1.366 . S
C3253 C3255 1.388 . S
C3254 C3253 1.366 . S
C3254 C3258 1.385 . S
C3255 H3230 0.951 . S
C3255 C3253 1.388 . S
C3255 C3256 1.366 . S
C3256 C3255 1.366 . S
C3256 C3257 1.414 . S
C3256 C3259 1.499 . S
C3257 H3231 0.950 . S
C3257 C3256 1.414 . S
C3257 C3258 1.374 . S
C3258 H3232 0.950 . S
C3258 C3254 1.385 . S
C3258 C3257 1.374 . S
C3259 C3256 1.499 . S
C3259 C3260 1.373 . S
C3259 C3261 1.389 . S
C3260 H3233 0.950 . S
C3260 C3246 1.377 . S
C3260 C3259 1.373 . S
C3261 C3245 1.377 . S
C3261 C3259 1.389 . S
C3261 C3262 1.524 . S
C3262 C3261 1.524 . S
C3262 C3263 1.397 . S
C3262 C3267 1.363 . S
C3263 H3234 0.950 . S
C3263 C3262 1.397 . S
C3263 C3264 1.334 . S
C3264 H3235 0.950 . S
C3264 C3263 1.334 . S
C3264 C3265 1.287 . S
C3265 C3264 1.287 . S
C3265 C3266 1.524 . S
C3265 H3268 0.999 . S
C3266 H3236 0.950 . S
C3266 C3265 1.524 . S
C3266 C3267 1.415 . S
C3267 H3237 0.950 . S
C3267 C3262 1.363 . S
C3267 C3266 1.415 . S
H3268 C3265 0.999 . S
H3269 C3250 0.913 . S
H3270 C3288 0.951 . S
H3271 C3290 0.951 . S
H3272 C3292 0.950 . S
H3273 C3293 0.950 . S
H3274 C3295 0.950 . S
H3275 C3298 0.950 . S
H3276 C3299 0.950 . S
H3277 C3301 0.950 . S
H3278 C3302 0.950 . S
H3279 C3303 0.951 . S
H3280 C3305 0.951 . S
H3281 C3307 0.950 . S
H3282 C3308 0.950 . S
H3283 C3310 0.950 . S
H3284 C3313 0.950 . S
H3285 C3314 0.950 . S
H3286 C3316 0.950 . S
H3287 C3317 0.950 . S
C3288 H3270 0.951 . S
C3288 C3289 1.366 . S
C3288 C3290 1.388 . S
C3289 C3288 1.366 . S
C3289 C3293 1.385 . S
C3290 H3271 0.951 . S
C3290 C3288 1.388 . S
C3290 C3291 1.366 . S
C3291 C3290 1.366 . S
C3291 C3292 1.414 . S
C3291 C3294 1.499 . S
C3292 H3272 0.950 . S
C3292 C3291 1.414 . S
C3292 C3293 1.374 . S
C3293 H3273 0.950 . S
C3293 C3289 1.385 . S
C3293 C3292 1.374 . S
C3294 C3291 1.499 . S
C3294 C3295 1.373 . S
C3294 C3296 1.389 . S
C3295 H3274 0.950 . S
C3295 C3294 1.373 . S
C3295 C3311 1.377 . S
C3296 C3294 1.389 . S
C3296 C3297 1.524 . S
C3296 C3310 1.377 . S
C3297 C3296 1.524 . S
C3297 C3298 1.397 . S
C3297 C3302 1.363 . S
C3298 H3275 0.950 . S
C3298 C3297 1.397 . S
C3298 C3299 1.334 . S
C3299 H3276 0.950 . S
C3299 C3298 1.334 . S
C3299 C3300 1.287 . S
C3300 C3299 1.287 . S
C3300 C3301 1.524 . S
C3300 H3319 0.913 . S
C3301 H3277 0.950 . S
C3301 C3300 1.524 . S
C3301 C3302 1.415 . S
C3302 H3278 0.950 . S
C3302 C3297 1.363 . S
C3302 C3301 1.415 . S
C3303 H3279 0.951 . S
C3303 C3304 1.366 . S
C3303 C3305 1.388 . S
C3304 C3303 1.366 . S
C3304 C3308 1.385 . S
C3305 H3280 0.951 . S
C3305 C3303 1.388 . S
C3305 C3306 1.366 . S
C3306 C3305 1.366 . S
C3306 C3307 1.414 . S
C3306 C3309 1.499 . S
C3307 H3281 0.950 . S
C3307 C3306 1.414 . S
C3307 C3308 1.374 . S
C3308 H3282 0.950 . S
C3308 C3304 1.385 . S
C3308 C3307 1.374 . S
C3309 C3306 1.499 . S
C3309 C3310 1.373 . S
C3309 C3311 1.389 . S
C3310 H3283 0.950 . S
C3310 C3296 1.377 . S
C3310 C3309 1.373 . S
C3311 C3295 1.377 . S
C3311 C3309 1.389 . S
C3311 C3312 1.524 . S
C3312 C3311 1.524 . S
C3312 C3313 1.397 . S
C3312 C3317 1.363 . S
C3313 H3284 0.950 . S
C3313 C3312 1.397 . S
C3313 C3314 1.334 . S
C3314 H3285 0.950 . S
C3314 C3313 1.334 . S
C3314 C3315 1.287 . S
C3315 C3314 1.287 . S
C3315 C3316 1.524 . S
C3315 H3318 0.999 . S
C3316 H3286 0.950 . S
C3316 C3315 1.524 . S
C3316 C3317 1.415 . S
C3317 H3287 0.950 . S
C3317 C3312 1.363 . S
C3317 C3316 1.415 . S
H3318 C3315 0.999 . S
H3319 C3300 0.913 . S
H3320 C3338 0.951 . S
H3321 C3340 0.951 . S
H3322 C3342 0.950 . S
H3323 C3343 0.950 . S
H3324 C3345 0.950 . S
H3325 C3348 0.950 . S
H3326 C3349 0.950 . S
H3327 C3351 0.950 . S
H3328 C3352 0.950 . S
H3329 C3353 0.951 . S
H3330 C3355 0.951 . S
H3331 C3357 0.950 . S
H3332 C3358 0.950 . S
H3333 C3360 0.950 . S
H3334 C3363 0.950 . S
H3335 C3364 0.950 . S
H3336 C3366 0.950 . S
H3337 C3367 0.950 . S
C3338 H3320 0.951 . S
C3338 C3339 1.366 . S
C3338 C3340 1.388 . S
C3339 C3338 1.366 . S
C3339 C3343 1.385 . S
C3340 H3321 0.951 . S
C3340 C3338 1.388 . S
C3340 C3341 1.366 . S
C3341 C3340 1.366 . S
C3341 C3342 1.414 . S
C3341 C3344 1.499 . S
C3342 H3322 0.950 . S
C3342 C3341 1.414 . S
C3342 C3343 1.374 . S
C3343 H3323 0.950 . S
C3343 C3339 1.385 . S
C3343 C3342 1.374 . S
C3344 C3341 1.499 . S
C3344 C3345 1.373 . S
C3344 C3346 1.389 . S
C3345 H3324 0.950 . S
C3345 C3344 1.373 . S
C3345 C3361 1.377 . S
C3346 C3344 1.389 . S
C3346 C3347 1.524 . S
C3346 C3360 1.377 . S
C3347 C3346 1.524 . S
C3347 C3348 1.397 . S
C3347 C3352 1.363 . S
C3348 H3325 0.950 . S
C3348 C3347 1.397 . S
C3348 C3349 1.334 . S
C3349 H3326 0.950 . S
C3349 C3348 1.334 . S
C3349 C3350 1.287 . S
C3350 C3349 1.287 . S
C3350 C3351 1.524 . S
C3350 H3369 0.913 . S
C3351 H3327 0.950 . S
C3351 C3350 1.524 . S
C3351 C3352 1.415 . S
C3352 H3328 0.950 . S
C3352 C3347 1.363 . S
C3352 C3351 1.415 . S
C3353 H3329 0.951 . S
C3353 C3354 1.366 . S
C3353 C3355 1.388 . S
C3354 C3353 1.366 . S
C3354 C3358 1.385 . S
C3355 H3330 0.951 . S
C3355 C3353 1.388 . S
C3355 C3356 1.366 . S
C3356 C3355 1.366 . S
C3356 C3357 1.414 . S
C3356 C3359 1.499 . S
C3357 H3331 0.950 . S
C3357 C3356 1.414 . S
C3357 C3358 1.374 . S
C3358 H3332 0.950 . S
C3358 C3354 1.385 . S
C3358 C3357 1.374 . S
C3359 C3356 1.499 . S
C3359 C3360 1.373 . S
C3359 C3361 1.389 . S
C3360 H3333 0.950 . S
C3360 C3346 1.377 . S
C3360 C3359 1.373 . S
C3361 C3345 1.377 . S
C3361 C3359 1.389 . S
C3361 C3362 1.524 . S
C3362 C3361 1.524 . S
C3362 C3363 1.397 . S
C3362 C3367 1.363 . S
C3363 H3334 0.950 . S
C3363 C3362 1.397 . S
C3363 C3364 1.334 . S
C3364 H3335 0.950 . S
C3364 C3363 1.334 . S
C3364 C3365 1.287 . S
C3365 C3364 1.287 . S
C3365 C3366 1.524 . S
C3365 H3368 0.999 . S
C3366 H3336 0.950 . S
C3366 C3365 1.524 . S
C3366 C3367 1.415 . S
C3367 H3337 0.950 . S
C3367 C3362 1.363 . S
C3367 C3366 1.415 . S
H3368 C3365 0.999 . S
H3369 C3350 0.913 . S
H3370 C3388 0.951 . S
H3371 C3390 0.951 . S
H3372 C3392 0.950 . S
H3373 C3393 0.950 . S
H3374 C3395 0.950 . S
H3375 C3398 0.950 . S
H3376 C3399 0.950 . S
H3377 C3401 0.950 . S
H3378 C3402 0.950 . S
H3379 C3403 0.951 . S
H3380 C3405 0.951 . S
H3381 C3407 0.950 . S
H3382 C3408 0.950 . S
H3383 C3410 0.950 . S
H3384 C3413 0.950 . S
H3385 C3414 0.950 . S
H3386 C3416 0.950 . S
H3387 C3417 0.950 . S
C3388 H3370 0.951 . S
C3388 C3389 1.366 . S
C3388 C3390 1.388 . S
C3389 C3388 1.366 . S
C3389 C3393 1.385 . S
C3390 H3371 0.951 . S
C3390 C3388 1.388 . S
C3390 C3391 1.366 . S
C3391 C3390 1.366 . S
C3391 C3392 1.414 . S
C3391 C3394 1.499 . S
C3392 H3372 0.950 . S
C3392 C3391 1.414 . S
C3392 C3393 1.374 . S
C3393 H3373 0.950 . S
C3393 C3389 1.385 . S
C3393 C3392 1.374 . S
C3394 C3391 1.499 . S
C3394 C3395 1.373 . S
C3394 C3396 1.389 . S
C3395 H3374 0.950 . S
C3395 C3394 1.373 . S
C3395 C3411 1.377 . S
C3396 C3394 1.389 . S
C3396 C3397 1.524 . S
C3396 C3410 1.377 . S
C3397 C3396 1.524 . S
C3397 C3398 1.397 . S
C3397 C3402 1.363 . S
C3398 H3375 0.950 . S
C3398 C3397 1.397 . S
C3398 C3399 1.334 . S
C3399 H3376 0.950 . S
C3399 C3398 1.334 . S
C3399 C3400 1.287 . S
C3400 C3399 1.287 . S
C3400 C3401 1.524 . S
C3400 H3419 0.913 . S
C3401 H3377 0.950 . S
C3401 C3400 1.524 . S
C3401 C3402 1.415 . S
C3402 H3378 0.950 . S
C3402 C3397 1.363 . S
C3402 C3401 1.415 . S
C3403 H3379 0.951 . S
C3403 C3404 1.366 . S
C3403 C3405 1.388 . S
C3404 C3403 1.366 . S
C3404 C3408 1.385 . S
C3405 H3380 0.951 . S
C3405 C3403 1.388 . S
C3405 C3406 1.366 . S
C3406 C3405 1.366 . S
C3406 C3407 1.414 . S
C3406 C3409 1.499 . S
C3407 H3381 0.950 . S
C3407 C3406 1.414 . S
C3407 C3408 1.374 . S
C3408 H3382 0.950 . S
C3408 C3404 1.385 . S
C3408 C3407 1.374 . S
C3409 C3406 1.499 . S
C3409 C3410 1.373 . S
C3409 C3411 1.389 . S
C3410 H3383 0.950 . S
C3410 C3396 1.377 . S
C3410 C3409 1.373 . S
C3411 C3395 1.377 . S
C3411 C3409 1.389 . S
C3411 C3412 1.524 . S
C3412 C3411 1.524 . S
C3412 C3413 1.397 . S
C3412 C3417 1.363 . S
C3413 H3384 0.950 . S
C3413 C3412 1.397 . S
C3413 C3414 1.334 . S
C3414 H3385 0.950 . S
C3414 C3413 1.334 . S
C3414 C3415 1.287 . S
C3415 C3414 1.287 . S
C3415 C3416 1.524 . S
C3415 H3418 0.999 . S
C3416 H3386 0.950 . S
C3416 C3415 1.524 . S
C3416 C3417 1.415 . S
C3417 H3387 0.950 . S
C3417 C3412 1.363 . S
C3417 C3416 1.415 . S
H3418 C3415 0.999 . S
H3419 C3400 0.913 . S
H3420 C3438 0.951 . S
H3421 C3440 0.951 . S
H3422 C3442 0.950 . S
H3423 C3443 0.950 . S
H3424 C3445 0.950 . S
H3425 C3448 0.950 . S
H3426 C3449 0.950 . S
H3427 C3451 0.950 . S
H3428 C3452 0.950 . S
H3429 C3453 0.951 . S
H3430 C3455 0.951 . S
H3431 C3457 0.950 . S
H3432 C3458 0.950 . S
H3433 C3460 0.950 . S
H3434 C3463 0.950 . S
H3435 C3464 0.950 . S
H3436 C3466 0.950 . S
H3437 C3467 0.950 . S
C3438 H3420 0.951 . S
C3438 C3439 1.366 . S
C3438 C3440 1.388 . S
C3439 C3438 1.366 . S
C3439 C3443 1.385 . S
C3440 H3421 0.951 . S
C3440 C3438 1.388 . S
C3440 C3441 1.366 . S
C3441 C3440 1.366 . S
C3441 C3442 1.414 . S
C3441 C3444 1.499 . S
C3442 H3422 0.950 . S
C3442 C3441 1.414 . S
C3442 C3443 1.374 . S
C3443 H3423 0.950 . S
C3443 C3439 1.385 . S
C3443 C3442 1.374 . S
C3444 C3441 1.499 . S
C3444 C3445 1.373 . S
C3444 C3446 1.389 . S
C3445 H3424 0.950 . S
C3445 C3444 1.373 . S
C3445 C3461 1.377 . S
C3446 C3444 1.389 . S
C3446 C3447 1.524 . S
C3446 C3460 1.377 . S
C3447 C3446 1.524 . S
C3447 C3448 1.397 . S
C3447 C3452 1.363 . S
C3448 H3425 0.950 . S
C3448 C3447 1.397 . S
C3448 C3449 1.334 . S
C3449 H3426 0.950 . S
C3449 C3448 1.334 . S
C3449 C3450 1.287 . S
C3450 C3449 1.287 . S
C3450 C3451 1.524 . S
C3450 H3469 0.913 . S
C3451 H3427 0.950 . S
C3451 C3450 1.524 . S
C3451 C3452 1.415 . S
C3452 H3428 0.950 . S
C3452 C3447 1.363 . S
C3452 C3451 1.415 . S
C3453 H3429 0.951 . S
C3453 C3454 1.366 . S
C3453 C3455 1.388 . S
C3454 C3453 1.366 . S
C3454 C3458 1.385 . S
C3455 H3430 0.951 . S
C3455 C3453 1.388 . S
C3455 C3456 1.366 . S
C3456 C3455 1.366 . S
C3456 C3457 1.414 . S
C3456 C3459 1.499 . S
C3457 H3431 0.950 . S
C3457 C3456 1.414 . S
C3457 C3458 1.374 . S
C3458 H3432 0.950 . S
C3458 C3454 1.385 . S
C3458 C3457 1.374 . S
C3459 C3456 1.499 . S
C3459 C3460 1.373 . S
C3459 C3461 1.389 . S
C3460 H3433 0.950 . S
C3460 C3446 1.377 . S
C3460 C3459 1.373 . S
C3461 C3445 1.377 . S
C3461 C3459 1.389 . S
C3461 C3462 1.524 . S
C3462 C3461 1.524 . S
C3462 C3463 1.397 . S
C3462 C3467 1.363 . S
C3463 H3434 0.950 . S
C3463 C3462 1.397 . S
C3463 C3464 1.334 . S
C3464 H3435 0.950 . S
C3464 C3463 1.334 . S
C3464 C3465 1.287 . S
C3465 C3464 1.287 . S
C3465 C3466 1.524 . S
C3465 H3468 0.999 . S
C3466 H3436 0.950 . S
C3466 C3465 1.524 . S
C3466 C3467 1.415 . S
C3467 H3437 0.950 . S
C3467 C3462 1.363 . S
C3467 C3466 1.415 . S
H3468 C3465 0.999 . S
H3469 C3450 0.913 . S
H3470 C3488 0.951 . S
H3471 C3490 0.951 . S
H3472 C3492 0.950 . S
H3473 C3493 0.950 . S
H3474 C3495 0.950 . S
H3475 C3498 0.950 . S
H3476 C3499 0.950 . S
H3477 C3501 0.950 . S
H3478 C3502 0.950 . S
H3479 C3503 0.951 . S
H3480 C3505 0.951 . S
H3481 C3507 0.950 . S
H3482 C3508 0.950 . S
H3483 C3510 0.950 . S
H3484 C3513 0.950 . S
H3485 C3514 0.950 . S
H3486 C3516 0.950 . S
H3487 C3517 0.950 . S
C3488 H3470 0.951 . S
C3488 C3489 1.366 . S
C3488 C3490 1.388 . S
C3489 C3488 1.366 . S
C3489 C3493 1.385 . S
C3490 H3471 0.951 . S
C3490 C3488 1.388 . S
C3490 C3491 1.366 . S
C3491 C3490 1.366 . S
C3491 C3492 1.414 . S
C3491 C3494 1.499 . S
C3492 H3472 0.950 . S
C3492 C3491 1.414 . S
C3492 C3493 1.374 . S
C3493 H3473 0.950 . S
C3493 C3489 1.385 . S
C3493 C3492 1.374 . S
C3494 C3491 1.499 . S
C3494 C3495 1.373 . S
C3494 C3496 1.389 . S
C3495 H3474 0.950 . S
C3495 C3494 1.373 . S
C3495 C3511 1.377 . S
C3496 C3494 1.389 . S
C3496 C3497 1.524 . S
C3496 C3510 1.377 . S
C3497 C3496 1.524 . S
C3497 C3498 1.397 . S
C3497 C3502 1.363 . S
C3498 H3475 0.950 . S
C3498 C3497 1.397 . S
C3498 C3499 1.334 . S
C3499 H3476 0.950 . S
C3499 C3498 1.334 . S
C3499 C3500 1.287 . S
C3500 C3499 1.287 . S
C3500 C3501 1.524 . S
C3500 H3519 0.913 . S
C3501 H3477 0.950 . S
C3501 C3500 1.524 . S
C3501 C3502 1.415 . S
C3502 H3478 0.950 . S
C3502 C3497 1.363 . S
C3502 C3501 1.415 . S
C3503 H3479 0.951 . S
C3503 C3504 1.366 . S
C3503 C3505 1.388 . S
C3504 C3503 1.366 . S
C3504 C3508 1.385 . S
C3505 H3480 0.951 . S
C3505 C3503 1.388 . S
C3505 C3506 1.366 . S
C3506 C3505 1.366 . S
C3506 C3507 1.414 . S
C3506 C3509 1.499 . S
C3507 H3481 0.950 . S
C3507 C3506 1.414 . S
C3507 C3508 1.374 . S
C3508 H3482 0.950 . S
C3508 C3504 1.385 . S
C3508 C3507 1.374 . S
C3509 C3506 1.499 . S
C3509 C3510 1.373 . S
C3509 C3511 1.389 . S
C3510 H3483 0.950 . S
C3510 C3496 1.377 . S
C3510 C3509 1.373 . S
C3511 C3495 1.377 . S
C3511 C3509 1.389 . S
C3511 C3512 1.524 . S
C3512 C3511 1.524 . S
C3512 C3513 1.397 . S
C3512 C3517 1.363 . S
C3513 H3484 0.950 . S
C3513 C3512 1.397 . S
C3513 C3514 1.334 . S
C3514 H3485 0.950 . S
C3514 C3513 1.334 . S
C3514 C3515 1.287 . S
C3515 C3514 1.287 . S
C3515 C3516 1.524 . S
C3515 H3518 0.999 . S
C3516 H3486 0.950 . S
C3516 C3515 1.524 . S
C3516 C3517 1.415 . S
C3517 H3487 0.950 . S
C3517 C3512 1.363 . S
C3517 C3516 1.415 . S
H3518 C3515 0.999 . S
H3519 C3500 0.913 . S
H3520 C3538 0.951 . S
H3521 C3540 0.951 . S
H3522 C3542 0.950 . S
H3523 C3543 0.950 . S
H3524 C3545 0.950 . S
H3525 C3548 0.950 . S
H3526 C3549 0.950 . S
H3527 C3551 0.950 . S
H3528 C3552 0.950 . S
H3529 C3553 0.951 . S
H3530 C3555 0.951 . S
H3531 C3557 0.950 . S
H3532 C3558 0.950 . S
H3533 C3560 0.950 . S
H3534 C3563 0.950 . S
H3535 C3564 0.950 . S
H3536 C3566 0.950 . S
H3537 C3567 0.950 . S
C3538 H3520 0.951 . S
C3538 C3539 1.366 . S
C3538 C3540 1.388 . S
C3539 C3538 1.366 . S
C3539 C3543 1.385 . S
C3540 H3521 0.951 . S
C3540 C3538 1.388 . S
C3540 C3541 1.366 . S
C3541 C3540 1.366 . S
C3541 C3542 1.414 . S
C3541 C3544 1.499 . S
C3542 H3522 0.950 . S
C3542 C3541 1.414 . S
C3542 C3543 1.374 . S
C3543 H3523 0.950 . S
C3543 C3539 1.385 . S
C3543 C3542 1.374 . S
C3544 C3541 1.499 . S
C3544 C3545 1.373 . S
C3544 C3546 1.389 . S
C3545 H3524 0.950 . S
C3545 C3544 1.373 . S
C3545 C3561 1.377 . S
C3546 C3544 1.389 . S
C3546 C3547 1.524 . S
C3546 C3560 1.377 . S
C3547 C3546 1.524 . S
C3547 C3548 1.397 . S
C3547 C3552 1.363 . S
C3548 H3525 0.950 . S
C3548 C3547 1.397 . S
C3548 C3549 1.334 . S
C3549 H3526 0.950 . S
C3549 C3548 1.334 . S
C3549 C3550 1.287 . S
C3550 C3549 1.287 . S
C3550 C3551 1.524 . S
C3550 H3569 0.913 . S
C3551 H3527 0.950 . S
C3551 C3550 1.524 . S
C3551 C3552 1.415 . S
C3552 H3528 0.950 . S
C3552 C3547 1.363 . S
C3552 C3551 1.415 . S
C3553 H3529 0.951 . S
C3553 C3554 1.366 . S
C3553 C3555 1.388 . S
C3554 C3553 1.366 . S
C3554 C3558 1.385 . S
C3555 H3530 0.951 . S
C3555 C3553 1.388 . S
C3555 C3556 1.366 . S
C3556 C3555 1.366 . S
C3556 C3557 1.414 . S
C3556 C3559 1.499 . S
C3557 H3531 0.950 . S
C3557 C3556 1.414 . S
C3557 C3558 1.374 . S
C3558 H3532 0.950 . S
C3558 C3554 1.385 . S
C3558 C3557 1.374 . S
C3559 C3556 1.499 . S
C3559 C3560 1.373 . S
C3559 C3561 1.389 . S
C3560 H3533 0.950 . S
C3560 C3546 1.377 . S
C3560 C3559 1.373 . S
C3561 C3545 1.377 . S
C3561 C3559 1.389 . S
C3561 C3562 1.524 . S
C3562 C3561 1.524 . S
C3562 C3563 1.397 . S
C3562 C3567 1.363 . S
C3563 H3534 0.950 . S
C3563 C3562 1.397 . S
C3563 C3564 1.334 . S
C3564 H3535 0.950 . S
C3564 C3563 1.334 . S
C3564 C3565 1.287 . S
C3565 C3564 1.287 . S
C3565 C3566 1.524 . S
C3565 H3568 0.999 . S
C3566 H3536 0.950 . S
C3566 C3565 1.524 . S
C3566 C3567 1.415 . S
C3567 H3537 0.950 . S
C3567 C3562 1.363 . S
C3567 C3566 1.415 . S
H3568 C3565 0.999 . S
H3569 C3550 0.913 . S
H3570 C3588 0.951 . S
H3571 C3590 0.951 . S
H3572 C3592 0.950 . S
H3573 C3593 0.950 . S
H3574 C3595 0.950 . S
H3575 C3598 0.950 . S
H3576 C3599 0.950 . S
H3577 C3601 0.950 . S
H3578 C3602 0.950 . S
H3579 C3603 0.951 . S
H3580 C3605 0.951 . S
H3581 C3607 0.950 . S
H3582 C3608 0.950 . S
H3583 C3610 0.950 . S
H3584 C3613 0.950 . S
H3585 C3614 0.950 . S
H3586 C3616 0.950 . S
H3587 C3617 0.950 . S
C3588 H3570 0.951 . S
C3588 C3589 1.366 . S
C3588 C3590 1.388 . S
C3589 C3588 1.366 . S
C3589 C3593 1.385 . S
C3590 H3571 0.951 . S
C3590 C3588 1.388 . S
C3590 C3591 1.366 . S
C3591 C3590 1.366 . S
C3591 C3592 1.414 . S
C3591 C3594 1.499 . S
C3592 H3572 0.950 . S
C3592 C3591 1.414 . S
C3592 C3593 1.374 . S
C3593 H3573 0.950 . S
C3593 C3589 1.385 . S
C3593 C3592 1.374 . S
C3594 C3591 1.499 . S
C3594 C3595 1.373 . S
C3594 C3596 1.389 . S
C3595 H3574 0.950 . S
C3595 C3594 1.373 . S
C3595 C3611 1.377 . S
C3596 C3594 1.389 . S
C3596 C3597 1.524 . S
C3596 C3610 1.377 . S
C3597 C3596 1.524 . S
C3597 C3598 1.397 . S
C3597 C3602 1.363 . S
C3598 H3575 0.950 . S
C3598 C3597 1.397 . S
C3598 C3599 1.334 . S
C3599 H3576 0.950 . S
C3599 C3598 1.334 . S
C3599 C3600 1.287 . S
C3600 C3599 1.287 . S
C3600 C3601 1.524 . S
C3600 H3619 0.913 . S
C3601 H3577 0.950 . S
C3601 C3600 1.524 . S
C3601 C3602 1.415 . S
C3602 H3578 0.950 . S
C3602 C3597 1.363 . S
C3602 C3601 1.415 . S
C3603 H3579 0.951 . S
C3603 C3604 1.366 . S
C3603 C3605 1.388 . S
C3604 C3603 1.366 . S
C3604 C3608 1.385 . S
C3605 H3580 0.951 . S
C3605 C3603 1.388 . S
C3605 C3606 1.366 . S
C3606 C3605 1.366 . S
C3606 C3607 1.414 . S
C3606 C3609 1.499 . S
C3607 H3581 0.950 . S
C3607 C3606 1.414 . S
C3607 C3608 1.374 . S
C3608 H3582 0.950 . S
C3608 C3604 1.385 . S
C3608 C3607 1.374 . S
C3609 C3606 1.499 . S
C3609 C3610 1.373 . S
C3609 C3611 1.389 . S
C3610 H3583 0.950 . S
C3610 C3596 1.377 . S
C3610 C3609 1.373 . S
C3611 C3595 1.377 . S
C3611 C3609 1.389 . S
C3611 C3612 1.524 . S
C3612 C3611 1.524 . S
C3612 C3613 1.397 . S
C3612 C3617 1.363 . S
C3613 H3584 0.950 . S
C3613 C3612 1.397 . S
C3613 C3614 1.334 . S
C3614 H3585 0.950 . S
C3614 C3613 1.334 . S
C3614 C3615 1.287 . S
C3615 C3614 1.287 . S
C3615 C3616 1.524 . S
C3615 H3618 0.999 . S
C3616 H3586 0.950 . S
C3616 C3615 1.524 . S
C3616 C3617 1.415 . S
C3617 H3587 0.950 . S
C3617 C3612 1.363 . S
C3617 C3616 1.415 . S
H3618 C3615 0.999 . S
H3619 C3600 0.913 . S
H3620 C3638 0.951 . S
H3621 C3640 0.951 . S
H3622 C3642 0.950 . S
H3623 C3643 0.950 . S
H3624 C3645 0.950 . S
H3625 C3648 0.950 . S
H3626 C3649 0.950 . S
H3627 C3651 0.950 . S
H3628 C3652 0.950 . S
H3629 C3653 0.951 . S
H3630 C3655 0.951 . S
H3631 C3657 0.950 . S
H3632 C3658 0.950 . S
H3633 C3660 0.950 . S
H3634 C3663 0.950 . S
H3635 C3664 0.950 . S
H3636 C3666 0.950 . S
H3637 C3667 0.950 . S
C3638 H3620 0.951 . S
C3638 C3639 1.366 . S
C3638 C3640 1.388 . S
C3639 C3638 1.366 . S
C3639 C3643 1.385 . S
C3640 H3621 0.951 . S
C3640 C3638 1.388 . S
C3640 C3641 1.366 . S
C3641 C3640 1.366 . S
C3641 C3642 1.414 . S
C3641 C3644 1.499 . S
C3642 H3622 0.950 . S
C3642 C3641 1.414 . S
C3642 C3643 1.374 . S
C3643 H3623 0.950 . S
C3643 C3639 1.385 . S
C3643 C3642 1.374 . S
C3644 C3641 1.499 . S
C3644 C3645 1.373 . S
C3644 C3646 1.389 . S
C3645 H3624 0.950 . S
C3645 C3644 1.373 . S
C3645 C3661 1.377 . S
C3646 C3644 1.389 . S
C3646 C3647 1.524 . S
C3646 C3660 1.377 . S
C3647 C3646 1.524 . S
C3647 C3648 1.397 . S
C3647 C3652 1.363 . S
C3648 H3625 0.950 . S
C3648 C3647 1.397 . S
C3648 C3649 1.334 . S
C3649 H3626 0.950 . S
C3649 C3648 1.334 . S
C3649 C3650 1.287 . S
C3650 C3649 1.287 . S
C3650 C3651 1.524 . S
C3650 H3669 0.913 . S
C3651 H3627 0.950 . S
C3651 C3650 1.524 . S
C3651 C3652 1.415 . S
C3652 H3628 0.950 . S
C3652 C3647 1.363 . S
C3652 C3651 1.415 . S
C3653 H3629 0.951 . S
C3653 C3654 1.366 . S
C3653 C3655 1.388 . S
C3654 C3653 1.366 . S
C3654 C3658 1.385 . S
C3655 H3630 0.951 . S
C3655 C3653 1.388 . S
C3655 C3656 1.366 . S
C3656 C3655 1.366 . S
C3656 C3657 1.414 . S
C3656 C3659 1.499 . S
C3657 H3631 0.950 . S
C3657 C3656 1.414 . S
C3657 C3658 1.374 . S
C3658 H3632 0.950 . S
C3658 C3654 1.385 . S
C3658 C3657 1.374 . S
C3659 C3656 1.499 . S
C3659 C3660 1.373 . S
C3659 C3661 1.389 . S
C3660 H3633 0.950 . S
C3660 C3646 1.377 . S
C3660 C3659 1.373 . S
C3661 C3645 1.377 . S
C3661 C3659 1.389 . S
C3661 C3662 1.524 . S
C3662 C3661 1.524 . S
C3662 C3663 1.397 . S
C3662 C3667 1.363 . S
C3663 H3634 0.950 . S
C3663 C3662 1.397 . S
C3663 C3664 1.334 . S
C3664 H3635 0.950 . S
C3664 C3663 1.334 . S
C3664 C3665 1.287 . S
C3665 C3664 1.287 . S
C3665 C3666 1.524 . S
C3665 H3668 0.999 . S
C3666 H3636 0.950 . S
C3666 C3665 1.524 . S
C3666 C3667 1.415 . S
C3667 H3637 0.950 . S
C3667 C3662 1.363 . S
C3667 C3666 1.415 . S
H3668 C3665 0.999 . S
H3669 C3650 0.913 . S
H3670 C3688 0.951 . S
H3671 C3690 0.951 . S
H3672 C3692 0.950 . S
H3673 C3693 0.950 . S
H3674 C3695 0.950 . S
H3675 C3698 0.950 . S
H3676 C3699 0.950 . S
H3677 C3701 0.950 . S
H3678 C3702 0.950 . S
H3679 C3703 0.951 . S
H3680 C3705 0.951 . S
H3681 C3707 0.950 . S
H3682 C3708 0.950 . S
H3683 C3710 0.950 . S
H3684 C3713 0.950 . S
H3685 C3714 0.950 . S
H3686 C3716 0.950 . S
H3687 C3717 0.950 . S
C3688 H3670 0.951 . S
C3688 C3689 1.366 . S
C3688 C3690 1.388 . S
C3689 C3688 1.366 . S
C3689 C3693 1.385 . S
C3690 H3671 0.951 . S
C3690 C3688 1.388 . S
C3690 C3691 1.366 . S
C3691 C3690 1.366 . S
C3691 C3692 1.414 . S
C3691 C3694 1.499 . S
C3692 H3672 0.950 . S
C3692 C3691 1.414 . S
C3692 C3693 1.374 . S
C3693 H3673 0.950 . S
C3693 C3689 1.385 . S
C3693 C3692 1.374 . S
C3694 C3691 1.499 . S
C3694 C3695 1.373 . S
C3694 C3696 1.389 . S
C3695 H3674 0.950 . S
C3695 C3694 1.373 . S
C3695 C3711 1.377 . S
C3696 C3694 1.389 . S
C3696 C3697 1.524 . S
C3696 C3710 1.377 . S
C3697 C3696 1.524 . S
C3697 C3698 1.397 . S
C3697 C3702 1.363 . S
C3698 H3675 0.950 . S
C3698 C3697 1.397 . S
C3698 C3699 1.334 . S
C3699 H3676 0.950 . S
C3699 C3698 1.334 . S
C3699 C3700 1.287 . S
C3700 C3699 1.287 . S
C3700 C3701 1.524 . S
C3700 H3719 0.913 . S
C3701 H3677 0.950 . S
C3701 C3700 1.524 . S
C3701 C3702 1.415 . S
C3702 H3678 0.950 . S
C3702 C3697 1.363 . S
C3702 C3701 1.415 . S
C3703 H3679 0.951 . S
C3703 C3704 1.366 . S
C3703 C3705 1.388 . S
C3704 C3703 1.366 . S
C3704 C3708 1.385 . S
C3705 H3680 0.951 . S
C3705 C3703 1.388 . S
C3705 C3706 1.366 . S
C3706 C3705 1.366 . S
C3706 C3707 1.414 . S
C3706 C3709 1.499 . S
C3707 H3681 0.950 . S
C3707 C3706 1.414 . S
C3707 C3708 1.374 . S
C3708 H3682 0.950 . S
C3708 C3704 1.385 . S
C3708 C3707 1.374 . S
C3709 C3706 1.499 . S
C3709 C3710 1.373 . S
C3709 C3711 1.389 . S
C3710 H3683 0.950 . S
C3710 C3696 1.377 . S
C3710 C3709 1.373 . S
C3711 C3695 1.377 . S
C3711 C3709 1.389 . S
C3711 C3712 1.524 . S
C3712 C3711 1.524 . S
C3712 C3713 1.397 . S
C3712 C3717 1.363 . S
C3713 H3684 0.950 . S
C3713 C3712 1.397 . S
C3713 C3714 1.334 . S
C3714 H3685 0.950 . S
C3714 C3713 1.334 . S
C3714 C3715 1.287 . S
C3715 C3714 1.287 . S
C3715 C3716 1.524 . S
C3715 H3718 0.999 . S
C3716 H3686 0.950 . S
C3716 C3715 1.524 . S
C3716 C3717 1.415 . S
C3717 H3687 0.950 . S
C3717 C3712 1.363 . S
C3717 C3716 1.415 . S
H3718 C3715 0.999 . S
H3719 C3700 0.913 . S
H3720 C3738 0.951 . S
H3721 C3740 0.951 . S
H3722 C3742 0.950 . S
H3723 C3743 0.950 . S
H3724 C3745 0.950 . S
H3725 C3748 0.950 . S
H3726 C3749 0.950 . S
H3727 C3751 0.950 . S
H3728 C3752 0.950 . S
H3729 C3753 0.951 . S
H3730 C3755 0.951 . S
H3731 C3757 0.950 . S
H3732 C3758 0.950 . S
H3733 C3760 0.950 . S
H3734 C3763 0.950 . S
H3735 C3764 0.950 . S
H3736 C3766 0.950 . S
H3737 C3767 0.950 . S
C3738 H3720 0.951 . S
C3738 C3739 1.366 . S
C3738 C3740 1.388 . S
C3739 C3738 1.366 . S
C3739 C3743 1.385 . S
C3740 H3721 0.951 . S
C3740 C3738 1.388 . S
C3740 C3741 1.366 . S
C3741 C3740 1.366 . S
C3741 C3742 1.414 . S
C3741 C3744 1.499 . S
C3742 H3722 0.950 . S
C3742 C3741 1.414 . S
C3742 C3743 1.374 . S
C3743 H3723 0.950 . S
C3743 C3739 1.385 . S
C3743 C3742 1.374 . S
C3744 C3741 1.499 . S
C3744 C3745 1.373 . S
C3744 C3746 1.389 . S
C3745 H3724 0.950 . S
C3745 C3744 1.373 . S
C3745 C3761 1.377 . S
C3746 C3744 1.389 . S
C3746 C3747 1.524 . S
C3746 C3760 1.377 . S
C3747 C3746 1.524 . S
C3747 C3748 1.397 . S
C3747 C3752 1.363 . S
C3748 H3725 0.950 . S
C3748 C3747 1.397 . S
C3748 C3749 1.334 . S
C3749 H3726 0.950 . S
C3749 C3748 1.334 . S
C3749 C3750 1.287 . S
C3750 C3749 1.287 . S
C3750 C3751 1.524 . S
C3750 H3769 0.913 . S
C3751 H3727 0.950 . S
C3751 C3750 1.524 . S
C3751 C3752 1.415 . S
C3752 H3728 0.950 . S
C3752 C3747 1.363 . S
C3752 C3751 1.415 . S
C3753 H3729 0.951 . S
C3753 C3754 1.366 . S
C3753 C3755 1.388 . S
C3754 C3753 1.366 . S
C3754 C3758 1.385 . S
C3755 H3730 0.951 . S
C3755 C3753 1.388 . S
C3755 C3756 1.366 . S
C3756 C3755 1.366 . S
C3756 C3757 1.414 . S
C3756 C3759 1.499 . S
C3757 H3731 0.950 . S
C3757 C3756 1.414 . S
C3757 C3758 1.374 . S
C3758 H3732 0.950 . S
C3758 C3754 1.385 . S
C3758 C3757 1.374 . S
C3759 C3756 1.499 . S
C3759 C3760 1.373 . S
C3759 C3761 1.389 . S
C3760 H3733 0.950 . S
C3760 C3746 1.377 . S
C3760 C3759 1.373 . S
C3761 C3745 1.377 . S
C3761 C3759 1.389 . S
C3761 C3762 1.524 . S
C3762 C3761 1.524 . S
C3762 C3763 1.397 . S
C3762 C3767 1.363 . S
C3763 H3734 0.950 . S
C3763 C3762 1.397 . S
C3763 C3764 1.334 . S
C3764 H3735 0.950 . S
C3764 C3763 1.334 . S
C3764 C3765 1.287 . S
C3765 C3764 1.287 . S
C3765 C3766 1.524 . S
C3765 H3768 0.999 . S
C3766 H3736 0.950 . S
C3766 C3765 1.524 . S
C3766 C3767 1.415 . S
C3767 H3737 0.950 . S
C3767 C3762 1.363 . S
C3767 C3766 1.415 . S
H3768 C3765 0.999 . S
H3769 C3750 0.913 . S
H3770 C3788 0.951 . S
H3771 C3790 0.951 . S
H3772 C3792 0.950 . S
H3773 C3793 0.950 . S
H3774 C3795 0.950 . S
H3775 C3798 0.950 . S
H3776 C3799 0.950 . S
H3777 C3801 0.950 . S
H3778 C3802 0.950 . S
H3779 C3803 0.951 . S
H3780 C3805 0.951 . S
H3781 C3807 0.950 . S
H3782 C3808 0.950 . S
H3783 C3810 0.950 . S
H3784 C3813 0.950 . S
H3785 C3814 0.950 . S
H3786 C3816 0.950 . S
H3787 C3817 0.950 . S
C3788 H3770 0.951 . S
C3788 C3789 1.366 . S
C3788 C3790 1.388 . S
C3789 C3788 1.366 . S
C3789 C3793 1.385 . S
C3790 H3771 0.951 . S
C3790 C3788 1.388 . S
C3790 C3791 1.366 . S
C3791 C3790 1.366 . S
C3791 C3792 1.414 . S
C3791 C3794 1.499 . S
C3792 H3772 0.950 . S
C3792 C3791 1.414 . S
C3792 C3793 1.374 . S
C3793 H3773 0.950 . S
C3793 C3789 1.385 . S
C3793 C3792 1.374 . S
C3794 C3791 1.499 . S
C3794 C3795 1.373 . S
C3794 C3796 1.389 . S
C3795 H3774 0.950 . S
C3795 C3794 1.373 . S
C3795 C3811 1.377 . S
C3796 C3794 1.389 . S
C3796 C3797 1.524 . S
C3796 C3810 1.377 . S
C3797 C3796 1.524 . S
C3797 C3798 1.397 . S
C3797 C3802 1.363 . S
C3798 H3775 0.950 . S
C3798 C3797 1.397 . S
C3798 C3799 1.334 . S
C3799 H3776 0.950 . S
C3799 C3798 1.334 . S
C3799 C3800 1.287 . S
C3800 C3799 1.287 . S
C3800 C3801 1.524 . S
C3800 H3819 0.913 . S
C3801 H3777 0.950 . S
C3801 C3800 1.524 . S
C3801 C3802 1.415 . S
C3802 H3778 0.950 . S
C3802 C3797 1.363 . S
C3802 C3801 1.415 . S
C3803 H3779 0.951 . S
C3803 C3804 1.366 . S
C3803 C3805 1.388 . S
C3804 C3803 1.366 . S
C3804 C3808 1.385 . S
C3805 H3780 0.951 . S
C3805 C3803 1.388 . S
C3805 C3806 1.366 . S
C3806 C3805 1.366 . S
C3806 C3807 1.414 . S
C3806 C3809 1.499 . S
C3807 H3781 0.950 . S
C3807 C3806 1.414 . S
C3807 C3808 1.374 . S
C3808 H3782 0.950 . S
C3808 C3804 1.385 . S
C3808 C3807 1.374 . S
C3809 C3806 1.499 . S
C3809 C3810 1.373 . S
C3809 C3811 1.389 . S
C3810 H3783 0.950 . S
C3810 C3796 1.377 . S
C3810 C3809 1.373 . S
C3811 C3795 1.377 . S
C3811 C3809 1.389 . S
C3811 C3812 1.524 . S
C3812 C3811 1.524 . S
C3812 C3813 1.397 . S
C3812 C3817 1.363 . S
C3813 H3784 0.950 . S
C3813 C3812 1.397 . S
C3813 C3814 1.334 . S
C3814 H3785 0.950 . S
C3814 C3813 1.334 . S
C3814 C3815 1.287 . S
C3815 C3814 1.287 . S
C3815 C3816 1.524 . S
C3815 H3818 0.999 . S
C3816 H3786 0.950 . S
C3816 C3815 1.524 . S
C3816 C3817 1.415 . S
C3817 H3787 0.950 . S
C3817 C3812 1.363 . S
C3817 C3816 1.415 . S
H3818 C3815 0.999 . S
H3819 C3800 0.913 . S
H3820 C3838 0.951 . S
H3821 C3840 0.951 . S
H3822 C3842 0.950 . S
H3823 C3843 0.950 . S
H3824 C3845 0.950 . S
H3825 C3848 0.950 . S
H3826 C3849 0.950 . S
H3827 C3851 0.950 . S
H3828 C3852 0.950 . S
H3829 C3853 0.951 . S
H3830 C3855 0.951 . S
H3831 C3857 0.950 . S
H3832 C3858 0.950 . S
H3833 C3860 0.950 . S
H3834 C3863 0.950 . S
H3835 C3864 0.950 . S
H3836 C3866 0.950 . S
H3837 C3867 0.950 . S
C3838 H3820 0.951 . S
C3838 C3839 1.366 . S
C3838 C3840 1.388 . S
C3839 C3838 1.366 . S
C3839 C3843 1.385 . S
C3840 H3821 0.951 . S
C3840 C3838 1.388 . S
C3840 C3841 1.366 . S
C3841 C3840 1.366 . S
C3841 C3842 1.414 . S
C3841 C3844 1.499 . S
C3842 H3822 0.950 . S
C3842 C3841 1.414 . S
C3842 C3843 1.374 . S
C3843 H3823 0.950 . S
C3843 C3839 1.385 . S
C3843 C3842 1.374 . S
C3844 C3841 1.499 . S
C3844 C3845 1.373 . S
C3844 C3846 1.389 . S
C3845 H3824 0.950 . S
C3845 C3844 1.373 . S
C3845 C3861 1.377 . S
C3846 C3844 1.389 . S
C3846 C3847 1.524 . S
C3846 C3860 1.377 . S
C3847 C3846 1.524 . S
C3847 C3848 1.397 . S
C3847 C3852 1.363 . S
C3848 H3825 0.950 . S
C3848 C3847 1.397 . S
C3848 C3849 1.334 . S
C3849 H3826 0.950 . S
C3849 C3848 1.334 . S
C3849 C3850 1.287 . S
C3850 C3849 1.287 . S
C3850 C3851 1.524 . S
C3850 H3869 0.913 . S
C3851 H3827 0.950 . S
C3851 C3850 1.524 . S
C3851 C3852 1.415 . S
C3852 H3828 0.950 . S
C3852 C3847 1.363 . S
C3852 C3851 1.415 . S
C3853 H3829 0.951 . S
C3853 C3854 1.366 . S
C3853 C3855 1.388 . S
C3854 C3853 1.366 . S
C3854 C3858 1.385 . S
C3855 H3830 0.951 . S
C3855 C3853 1.388 . S
C3855 C3856 1.366 . S
C3856 C3855 1.366 . S
C3856 C3857 1.414 . S
C3856 C3859 1.499 . S
C3857 H3831 0.950 . S
C3857 C3856 1.414 . S
C3857 C3858 1.374 . S
C3858 H3832 0.950 . S
C3858 C3854 1.385 . S
C3858 C3857 1.374 . S
C3859 C3856 1.499 . S
C3859 C3860 1.373 . S
C3859 C3861 1.389 . S
C3860 H3833 0.950 . S
C3860 C3846 1.377 . S
C3860 C3859 1.373 . S
C3861 C3845 1.377 . S
C3861 C3859 1.389 . S
C3861 C3862 1.524 . S
C3862 C3861 1.524 . S
C3862 C3863 1.397 . S
C3862 C3867 1.363 . S
C3863 H3834 0.950 . S
C3863 C3862 1.397 . S
C3863 C3864 1.334 . S
C3864 H3835 0.950 . S
C3864 C3863 1.334 . S
C3864 C3865 1.287 . S
C3865 C3864 1.287 . S
C3865 C3866 1.524 . S
C3865 H3868 0.999 . S
C3866 H3836 0.950 . S
C3866 C3865 1.524 . S
C3866 C3867 1.415 . S
C3867 H3837 0.950 . S
C3867 C3862 1.363 . S
C3867 C3866 1.415 . S
H3868 C3865 0.999 . S
H3869 C3850 0.913 . S
H3870 C3888 0.951 . S
H3871 C3890 0.951 . S
H3872 C3892 0.950 . S
H3873 C3893 0.950 . S
H3874 C3895 0.950 . S
H3875 C3898 0.950 . S
H3876 C3899 0.950 . S
H3877 C3901 0.950 . S
H3878 C3902 0.950 . S
H3879 C3903 0.951 . S
H3880 C3905 0.951 . S
H3881 C3907 0.950 . S
H3882 C3908 0.950 . S
H3883 C3910 0.950 . S
H3884 C3913 0.950 . S
H3885 C3914 0.950 . S
H3886 C3916 0.950 . S
H3887 C3917 0.950 . S
C3888 H3870 0.951 . S
C3888 C3889 1.366 . S
C3888 C3890 1.388 . S
C3889 C3888 1.366 . S
C3889 C3893 1.385 . S
C3890 H3871 0.951 . S
C3890 C3888 1.388 . S
C3890 C3891 1.366 . S
C3891 C3890 1.366 . S
C3891 C3892 1.414 . S
C3891 C3894 1.499 . S
C3892 H3872 0.950 . S
C3892 C3891 1.414 . S
C3892 C3893 1.374 . S
C3893 H3873 0.950 . S
C3893 C3889 1.385 . S
C3893 C3892 1.374 . S
C3894 C3891 1.499 . S
C3894 C3895 1.373 . S
C3894 C3896 1.389 . S
C3895 H3874 0.950 . S
C3895 C3894 1.373 . S
C3895 C3911 1.377 . S
C3896 C3894 1.389 . S
C3896 C3897 1.524 . S
C3896 C3910 1.377 . S
C3897 C3896 1.524 . S
C3897 C3898 1.397 . S
C3897 C3902 1.363 . S
C3898 H3875 0.950 . S
C3898 C3897 1.397 . S
C3898 C3899 1.334 . S
C3899 H3876 0.950 . S
C3899 C3898 1.334 . S
C3899 C3900 1.287 . S
C3900 C3899 1.287 . S
C3900 C3901 1.524 . S
C3900 H3919 0.913 . S
C3901 H3877 0.950 . S
C3901 C3900 1.524 . S
C3901 C3902 1.415 . S
C3902 H3878 0.950 . S
C3902 C3897 1.363 . S
C3902 C3901 1.415 . S
C3903 H3879 0.951 . S
C3903 C3904 1.366 . S
C3903 C3905 1.388 . S
C3904 C3903 1.366 . S
C3904 C3908 1.385 . S
C3905 H3880 0.951 . S
C3905 C3903 1.388 . S
C3905 C3906 1.366 . S
C3906 C3905 1.366 . S
C3906 C3907 1.414 . S
C3906 C3909 1.499 . S
C3907 H3881 0.950 . S
C3907 C3906 1.414 . S
C3907 C3908 1.374 . S
C3908 H3882 0.950 . S
C3908 C3904 1.385 . S
C3908 C3907 1.374 . S
C3909 C3906 1.499 . S
C3909 C3910 1.373 . S
C3909 C3911 1.389 . S
C3910 H3883 0.950 . S
C3910 C3896 1.377 . S
C3910 C3909 1.373 . S
C3911 C3895 1.377 . S
C3911 C3909 1.389 . S
C3911 C3912 1.524 . S
C3912 C3911 1.524 . S
C3912 C3913 1.397 . S
C3912 C3917 1.363 . S
C3913 H3884 0.950 . S
C3913 C3912 1.397 . S
C3913 C3914 1.334 . S
C3914 H3885 0.950 . S
C3914 C3913 1.334 . S
C3914 C3915 1.287 . S
C3915 C3914 1.287 . S
C3915 C3916 1.524 . S
C3915 H3918 0.999 . S
C3916 H3886 0.950 . S
C3916 C3915 1.524 . S
C3916 C3917 1.415 . S
C3917 H3887 0.950 . S
C3917 C3912 1.363 . S
C3917 C3916 1.415 . S
H3918 C3915 0.999 . S
H3919 C3900 0.913 . S
H3920 C3938 0.951 . S
H3921 C3940 0.951 . S
H3922 C3942 0.950 . S
H3923 C3943 0.950 . S
H3924 C3945 0.950 . S
H3925 C3948 0.950 . S
H3926 C3949 0.950 . S
H3927 C3951 0.950 . S
H3928 C3952 0.950 . S
H3929 C3953 0.951 . S
H3930 C3955 0.951 . S
H3931 C3957 0.950 . S
H3932 C3958 0.950 . S
H3933 C3960 0.950 . S
H3934 C3963 0.950 . S
H3935 C3964 0.950 . S
H3936 C3966 0.950 . S
H3937 C3967 0.950 . S
C3938 H3920 0.951 . S
C3938 C3939 1.366 . S
C3938 C3940 1.388 . S
C3939 C3938 1.366 . S
C3939 C3943 1.385 . S
C3940 H3921 0.951 . S
C3940 C3938 1.388 . S
C3940 C3941 1.366 . S
C3941 C3940 1.366 . S
C3941 C3942 1.414 . S
C3941 C3944 1.499 . S
C3942 H3922 0.950 . S
C3942 C3941 1.414 . S
C3942 C3943 1.374 . S
C3943 H3923 0.950 . S
C3943 C3939 1.385 . S
C3943 C3942 1.374 . S
C3944 C3941 1.499 . S
C3944 C3945 1.373 . S
C3944 C3946 1.389 . S
C3945 H3924 0.950 . S
C3945 C3944 1.373 . S
C3945 C3961 1.377 . S
C3946 C3944 1.389 . S
C3946 C3947 1.524 . S
C3946 C3960 1.377 . S
C3947 C3946 1.524 . S
C3947 C3948 1.397 . S
C3947 C3952 1.363 . S
C3948 H3925 0.950 . S
C3948 C3947 1.397 . S
C3948 C3949 1.334 . S
C3949 H3926 0.950 . S
C3949 C3948 1.334 . S
C3949 C3950 1.287 . S
C3950 C3949 1.287 . S
C3950 C3951 1.524 . S
C3950 H3969 0.913 . S
C3951 H3927 0.950 . S
C3951 C3950 1.524 . S
C3951 C3952 1.415 . S
C3952 H3928 0.950 . S
C3952 C3947 1.363 . S
C3952 C3951 1.415 . S
C3953 H3929 0.951 . S
C3953 C3954 1.366 . S
C3953 C3955 1.388 . S
C3954 C3953 1.366 . S
C3954 C3958 1.385 . S
C3955 H3930 0.951 . S
C3955 C3953 1.388 . S
C3955 C3956 1.366 . S
C3956 C3955 1.366 . S
C3956 C3957 1.414 . S
C3956 C3959 1.499 . S
C3957 H3931 0.950 . S
C3957 C3956 1.414 . S
C3957 C3958 1.374 . S
C3958 H3932 0.950 . S
C3958 C3954 1.385 . S
C3958 C3957 1.374 . S
C3959 C3956 1.499 . S
C3959 C3960 1.373 . S
C3959 C3961 1.389 . S
C3960 H3933 0.950 . S
C3960 C3946 1.377 . S
C3960 C3959 1.373 . S
C3961 C3945 1.377 . S
C3961 C3959 1.389 . S
C3961 C3962 1.524 . S
C3962 C3961 1.524 . S
C3962 C3963 1.397 . S
C3962 C3967 1.363 . S
C3963 H3934 0.950 . S
C3963 C3962 1.397 . S
C3963 C3964 1.334 . S
C3964 H3935 0.950 . S
C3964 C3963 1.334 . S
C3964 C3965 1.287 . S
C3965 C3964 1.287 . S
C3965 C3966 1.524 . S
C3965 H3968 0.999 . S
C3966 H3936 0.950 . S
C3966 C3965 1.524 . S
C3966 C3967 1.415 . S
C3967 H3937 0.950 . S
C3967 C3962 1.363 . S
C3967 C3966 1.415 . S
H3968 C3965 0.999 . S
H3969 C3950 0.913 . S
H3970 C3988 0.951 . S
H3971 C3990 0.951 . S
H3972 C3992 0.950 . S
H3973 C3993 0.950 . S
H3974 C3995 0.950 . S
H3975 C3998 0.950 . S
H3976 C3999 0.950 . S
H3977 C4001 0.950 . S
H3978 C4002 0.950 . S
H3979 C4003 0.951 . S
H3980 C4005 0.951 . S
H3981 C4007 0.950 . S
H3982 C4008 0.950 . S
H3983 C4010 0.950 . S
H3984 C4013 0.950 . S
H3985 C4014 0.950 . S
H3986 C4016 0.950 . S
H3987 C4017 0.950 . S
C3988 H3970 0.951 . S
C3988 C3989 1.366 . S
C3988 C3990 1.388 . S
C3989 C3988 1.366 . S
C3989 C3993 1.385 . S
C3990 H3971 0.951 . S
C3990 C3988 1.388 . S
C3990 C3991 1.366 . S
C3991 C3990 1.366 . S
C3991 C3992 1.414 . S
C3991 C3994 1.499 . S
C3992 H3972 0.950 . S
C3992 C3991 1.414 . S
C3992 C3993 1.374 . S
C3993 H3973 0.950 . S
C3993 C3989 1.385 . S
C3993 C3992 1.374 . S
C3994 C3991 1.499 . S
C3994 C3995 1.373 . S
C3994 C3996 1.389 . S
C3995 H3974 0.950 . S
C3995 C3994 1.373 . S
C3995 C4011 1.377 . S
C3996 C3994 1.389 . S
C3996 C3997 1.524 . S
C3996 C4010 1.377 . S
C3997 C3996 1.524 . S
C3997 C3998 1.397 . S
C3997 C4002 1.363 . S
C3998 H3975 0.950 . S
C3998 C3997 1.397 . S
C3998 C3999 1.334 . S
C3999 H3976 0.950 . S
C3999 C3998 1.334 . S
C3999 C4000 1.287 . S
C4000 C3999 1.287 . S
C4000 C4001 1.524 . S
C4000 H4019 0.913 . S
C4001 H3977 0.950 . S
C4001 C4000 1.524 . S
C4001 C4002 1.415 . S
C4002 H3978 0.950 . S
C4002 C3997 1.363 . S
C4002 C4001 1.415 . S
C4003 H3979 0.951 . S
C4003 C4004 1.366 . S
C4003 C4005 1.388 . S
C4004 C4003 1.366 . S
C4004 C4008 1.385 . S
C4005 H3980 0.951 . S
C4005 C4003 1.388 . S
C4005 C4006 1.366 . S
C4006 C4005 1.366 . S
C4006 C4007 1.414 . S
C4006 C4009 1.499 . S
C4007 H3981 0.950 . S
C4007 C4006 1.414 . S
C4007 C4008 1.374 . S
C4008 H3982 0.950 . S
C4008 C4004 1.385 . S
C4008 C4007 1.374 . S
C4009 C4006 1.499 . S
C4009 C4010 1.373 . S
C4009 C4011 1.389 . S
C4010 H3983 0.950 . S
C4010 C3996 1.377 . S
C4010 C4009 1.373 . S
C4011 C3995 1.377 . S
C4011 C4009 1.389 . S
C4011 C4012 1.524 . S
C4012 C4011 1.524 . S
C4012 C4013 1.397 . S
C4012 C4017 1.363 . S
C4013 H3984 0.950 . S
C4013 C4012 1.397 . S
C4013 C4014 1.334 . S
C4014 H3985 0.950 . S
C4014 C4013 1.334 . S
C4014 C4015 1.287 . S
C4015 C4014 1.287 . S
C4015 C4016 1.524 . S
C4015 H4018 0.999 . S
C4016 H3986 0.950 . S
C4016 C4015 1.524 . S
C4016 C4017 1.415 . S
C4017 H3987 0.950 . S
C4017 C4012 1.363 . S
C4017 C4016 1.415 . S
H4018 C4015 0.999 . S
H4019 C4000 0.913 . S
H4020 C4038 0.951 . S
H4021 C4040 0.951 . S
H4022 C4042 0.950 . S
H4023 C4043 0.950 . S
H4024 C4045 0.950 . S
H4025 C4048 0.950 . S
H4026 C4049 0.950 . S
H4027 C4051 0.950 . S
H4028 C4052 0.950 . S
H4029 C4053 0.951 . S
H4030 C4055 0.951 . S
H4031 C4057 0.950 . S
H4032 C4058 0.950 . S
H4033 C4060 0.950 . S
H4034 C4063 0.950 . S
H4035 C4064 0.950 . S
H4036 C4066 0.950 . S
H4037 C4067 0.950 . S
C4038 H4020 0.951 . S
C4038 C4039 1.366 . S
C4038 C4040 1.388 . S
C4039 C4038 1.366 . S
C4039 C4043 1.385 . S
C4040 H4021 0.951 . S
C4040 C4038 1.388 . S
C4040 C4041 1.366 . S
C4041 C4040 1.366 . S
C4041 C4042 1.414 . S
C4041 C4044 1.499 . S
C4042 H4022 0.950 . S
C4042 C4041 1.414 . S
C4042 C4043 1.374 . S
C4043 H4023 0.950 . S
C4043 C4039 1.385 . S
C4043 C4042 1.374 . S
C4044 C4041 1.499 . S
C4044 C4045 1.373 . S
C4044 C4046 1.389 . S
C4045 H4024 0.950 . S
C4045 C4044 1.373 . S
C4045 C4061 1.377 . S
C4046 C4044 1.389 . S
C4046 C4047 1.524 . S
C4046 C4060 1.377 . S
C4047 C4046 1.524 . S
C4047 C4048 1.397 . S
C4047 C4052 1.363 . S
C4048 H4025 0.950 . S
C4048 C4047 1.397 . S
C4048 C4049 1.334 . S
C4049 H4026 0.950 . S
C4049 C4048 1.334 . S
C4049 C4050 1.287 . S
C4050 C4049 1.287 . S
C4050 C4051 1.524 . S
C4050 H4069 0.913 . S
C4051 H4027 0.950 . S
C4051 C4050 1.524 . S
C4051 C4052 1.415 . S
C4052 H4028 0.950 . S
C4052 C4047 1.363 . S
C4052 C4051 1.415 . S
C4053 H4029 0.951 . S
C4053 C4054 1.366 . S
C4053 C4055 1.388 . S
C4054 C4053 1.366 . S
C4054 C4058 1.385 . S
C4055 H4030 0.951 . S
C4055 C4053 1.388 . S
C4055 C4056 1.366 . S
C4056 C4055 1.366 . S
C4056 C4057 1.414 . S
C4056 C4059 1.499 . S
C4057 H4031 0.950 . S
C4057 C4056 1.414 . S
C4057 C4058 1.374 . S
C4058 H4032 0.950 . S
C4058 C4054 1.385 . S
C4058 C4057 1.374 . S
C4059 C4056 1.499 . S
C4059 C4060 1.373 . S
C4059 C4061 1.389 . S
C4060 H4033 0.950 . S
C4060 C4046 1.377 . S
C4060 C4059 1.373 . S
C4061 C4045 1.377 . S
C4061 C4059 1.389 . S
C4061 C4062 1.524 . S
C4062 C4061 1.524 . S
C4062 C4063 1.397 . S
C4062 C4067 1.363 . S
C4063 H4034 0.950 . S
C4063 C4062 1.397 . S
C4063 C4064 1.334 . S
C4064 H4035 0.950 . S
C4064 C4063 1.334 . S
C4064 C4065 1.287 . S
C4065 C4064 1.287 . S
C4065 C4066 1.524 . S
C4065 H4068 0.999 . S
C4066 H4036 0.950 . S
C4066 C4065 1.524 . S
C4066 C4067 1.415 . S
C4067 H4037 0.950 . S
C4067 C4062 1.363 . S
C4067 C4066 1.415 . S
H4068 C4065 0.999 . S
H4069 C4050 0.913 . S
H4070 C4088 0.951 . S
H4071 C4090 0.951 . S
H4072 C4092 0.950 . S
H4073 C4093 0.950 . S
H4074 C4095 0.950 . S
H4075 C4098 0.950 . S
H4076 C4099 0.950 . S
H4077 C4101 0.950 . S
H4078 C4102 0.950 . S
H4079 C4103 0.951 . S
H4080 C4105 0.951 . S
H4081 C4107 0.950 . S
H4082 C4108 0.950 . S
H4083 C4110 0.950 . S
H4084 C4113 0.950 . S
H4085 C4114 0.950 . S
H4086 C4116 0.950 . S
H4087 C4117 0.950 . S
C4088 H4070 0.951 . S
C4088 C4089 1.366 . S
C4088 C4090 1.388 . S
C4089 C4088 1.366 . S
C4089 C4093 1.385 . S
C4090 H4071 0.951 . S
C4090 C4088 1.388 . S
C4090 C4091 1.366 . S
C4091 C4090 1.366 . S
C4091 C4092 1.414 . S
C4091 C4094 1.499 . S
C4092 H4072 0.950 . S
C4092 C4091 1.414 . S
C4092 C4093 1.374 . S
C4093 H4073 0.950 . S
C4093 C4089 1.385 . S
C4093 C4092 1.374 . S
C4094 C4091 1.499 . S
C4094 C4095 1.373 . S
C4094 C4096 1.389 . S
C4095 H4074 0.950 . S
C4095 C4094 1.373 . S
C4095 C4111 1.377 . S
C4096 C4094 1.389 . S
C4096 C4097 1.524 . S
C4096 C4110 1.377 . S
C4097 C4096 1.524 . S
C4097 C4098 1.397 . S
C4097 C4102 1.363 . S
C4098 H4075 0.950 . S
C4098 C4097 1.397 . S
C4098 C4099 1.334 . S
C4099 H4076 0.950 . S
C4099 C4098 1.334 . S
C4099 C4100 1.287 . S
C4100 C4099 1.287 . S
C4100 C4101 1.524 . S
C4100 H4119 0.913 . S
C4101 H4077 0.950 . S
C4101 C4100 1.524 . S
C4101 C4102 1.415 . S
C4102 H4078 0.950 . S
C4102 C4097 1.363 . S
C4102 C4101 1.415 . S
C4103 H4079 0.951 . S
C4103 C4104 1.366 . S
C4103 C4105 1.388 . S
C4104 C4103 1.366 . S
C4104 C4108 1.385 . S
C4105 H4080 0.951 . S
C4105 C4103 1.388 . S
C4105 C4106 1.366 . S
C4106 C4105 1.366 . S
C4106 C4107 1.414 . S
C4106 C4109 1.499 . S
C4107 H4081 0.950 . S
C4107 C4106 1.414 . S
C4107 C4108 1.374 . S
C4108 H4082 0.950 . S
C4108 C4104 1.385 . S
C4108 C4107 1.374 . S
C4109 C4106 1.499 . S
C4109 C4110 1.373 . S
C4109 C4111 1.389 . S
C4110 H4083 0.950 . S
C4110 C4096 1.377 . S
C4110 C4109 1.373 . S
C4111 C4095 1.377 . S
C4111 C4109 1.389 . S
C4111 C4112 1.524 . S
C4112 C4111 1.524 . S
C4112 C4113 1.397 . S
C4112 C4117 1.363 . S
C4113 H4084 0.950 . S
C4113 C4112 1.397 . S
C4113 C4114 1.334 . S
C4114 H4085 0.950 . S
C4114 C4113 1.334 . S
C4114 C4115 1.287 . S
C4115 C4114 1.287 . S
C4115 C4116 1.524 . S
C4115 H4118 0.999 . S
C4116 H4086 0.950 . S
C4116 C4115 1.524 . S
C4116 C4117 1.415 . S
C4117 H4087 0.950 . S
C4117 C4112 1.363 . S
C4117 C4116 1.415 . S
H4118 C4115 0.999 . S
H4119 C4100 0.913 . S
H4120 C4138 0.951 . S
H4121 C4140 0.951 . S
H4122 C4142 0.950 . S
H4123 C4143 0.950 . S
H4124 C4145 0.950 . S
H4125 C4148 0.950 . S
H4126 C4149 0.950 . S
H4127 C4151 0.950 . S
H4128 C4152 0.950 . S
H4129 C4153 0.951 . S
H4130 C4155 0.951 . S
H4131 C4157 0.950 . S
H4132 C4158 0.950 . S
H4133 C4160 0.950 . S
H4134 C4163 0.950 . S
H4135 C4164 0.950 . S
H4136 C4166 0.950 . S
H4137 C4167 0.950 . S
C4138 H4120 0.951 . S
C4138 C4139 1.366 . S
C4138 C4140 1.388 . S
C4139 C4138 1.366 . S
C4139 C4143 1.385 . S
C4140 H4121 0.951 . S
C4140 C4138 1.388 . S
C4140 C4141 1.366 . S
C4141 C4140 1.366 . S
C4141 C4142 1.414 . S
C4141 C4144 1.499 . S
C4142 H4122 0.950 . S
C4142 C4141 1.414 . S
C4142 C4143 1.374 . S
C4143 H4123 0.950 . S
C4143 C4139 1.385 . S
C4143 C4142 1.374 . S
C4144 C4141 1.499 . S
C4144 C4145 1.373 . S
C4144 C4146 1.389 . S
C4145 H4124 0.950 . S
C4145 C4144 1.373 . S
C4145 C4161 1.377 . S
C4146 C4144 1.389 . S
C4146 C4147 1.524 . S
C4146 C4160 1.377 . S
C4147 C4146 1.524 . S
C4147 C4148 1.397 . S
C4147 C4152 1.363 . S
C4148 H4125 0.950 . S
C4148 C4147 1.397 . S
C4148 C4149 1.334 . S
C4149 H4126 0.950 . S
C4149 C4148 1.334 . S
C4149 C4150 1.287 . S
C4150 C4149 1.287 . S
C4150 C4151 1.524 . S
C4150 H4169 0.913 . S
C4151 H4127 0.950 . S
C4151 C4150 1.524 . S
C4151 C4152 1.415 . S
C4152 H4128 0.950 . S
C4152 C4147 1.363 . S
C4152 C4151 1.415 . S
C4153 H4129 0.951 . S
C4153 C4154 1.366 . S
C4153 C4155 1.388 . S
C4154 C4153 1.366 . S
C4154 C4158 1.385 . S
C4155 H4130 0.951 . S
C4155 C4153 1.388 . S
C4155 C4156 1.366 . S
C4156 C4155 1.366 . S
C4156 C4157 1.414 . S
C4156 C4159 1.499 . S
C4157 H4131 0.950 . S
C4157 C4156 1.414 . S
C4157 C4158 1.374 . S
C4158 H4132 0.950 . S
C4158 C4154 1.385 . S
C4158 C4157 1.374 . S
C4159 C4156 1.499 . S
C4159 C4160 1.373 . S
C4159 C4161 1.389 . S
C4160 H4133 0.950 . S
C4160 C4146 1.377 . S
C4160 C4159 1.373 . S
C4161 C4145 1.377 . S
C4161 C4159 1.389 . S
C4161 C4162 1.524 . S
C4162 C4161 1.524 . S
C4162 C4163 1.397 . S
C4162 C4167 1.363 . S
C4163 H4134 0.950 . S
C4163 C4162 1.397 . S
C4163 C4164 1.334 . S
C4164 H4135 0.950 . S
C4164 C4163 1.334 . S
C4164 C4165 1.287 . S
C4165 C4164 1.287 . S
C4165 C4166 1.524 . S
C4165 H4168 0.999 . S
C4166 H4136 0.950 . S
C4166 C4165 1.524 . S
C4166 C4167 1.415 . S
C4167 H4137 0.950 . S
C4167 C4162 1.363 . S
C4167 C4166 1.415 . S
H4168 C4165 0.999 . S
H4169 C4150 0.913 . S
H4170 C4188 0.951 . S
H4171 C4190 0.951 . S
H4172 C4192 0.950 . S
H4173 C4193 0.950 . S
H4174 C4195 0.950 . S
H4175 C4198 0.950 . S
H4176 C4199 0.950 . S
H4177 C4201 0.950 . S
H4178 C4202 0.950 . S
H4179 C4203 0.951 . S
H4180 C4205 0.951 . S
H4181 C4207 0.950 . S
H4182 C4208 0.950 . S
H4183 C4210 0.950 . S
H4184 C4213 0.950 . S
H4185 C4214 0.950 . S
H4186 C4216 0.950 . S
H4187 C4217 0.950 . S
C4188 H4170 0.951 . S
C4188 C4189 1.366 . S
C4188 C4190 1.388 . S
C4189 C4188 1.366 . S
C4189 C4193 1.385 . S
C4190 H4171 0.951 . S
C4190 C4188 1.388 . S
C4190 C4191 1.366 . S
C4191 C4190 1.366 . S
C4191 C4192 1.414 . S
C4191 C4194 1.499 . S
C4192 H4172 0.950 . S
C4192 C4191 1.414 . S
C4192 C4193 1.374 . S
C4193 H4173 0.950 . S
C4193 C4189 1.385 . S
C4193 C4192 1.374 . S
C4194 C4191 1.499 . S
C4194 C4195 1.373 . S
C4194 C4196 1.389 . S
C4195 H4174 0.950 . S
C4195 C4194 1.373 . S
C4195 C4211 1.377 . S
C4196 C4194 1.389 . S
C4196 C4197 1.524 . S
C4196 C4210 1.377 . S
C4197 C4196 1.524 . S
C4197 C4198 1.397 . S
C4197 C4202 1.363 . S
C4198 H4175 0.950 . S
C4198 C4197 1.397 . S
C4198 C4199 1.334 . S
C4199 H4176 0.950 . S
C4199 C4198 1.334 . S
C4199 C4200 1.287 . S
C4200 C4199 1.287 . S
C4200 C4201 1.524 . S
C4200 H4219 0.913 . S
C4201 H4177 0.950 . S
C4201 C4200 1.524 . S
C4201 C4202 1.415 . S
C4202 H4178 0.950 . S
C4202 C4197 1.363 . S
C4202 C4201 1.415 . S
C4203 H4179 0.951 . S
C4203 C4204 1.366 . S
C4203 C4205 1.388 . S
C4204 C4203 1.366 . S
C4204 C4208 1.385 . S
C4205 H4180 0.951 . S
C4205 C4203 1.388 . S
C4205 C4206 1.366 . S
C4206 C4205 1.366 . S
C4206 C4207 1.414 . S
C4206 C4209 1.499 . S
C4207 H4181 0.950 . S
C4207 C4206 1.414 . S
C4207 C4208 1.374 . S
C4208 H4182 0.950 . S
C4208 C4204 1.385 . S
C4208 C4207 1.374 . S
C4209 C4206 1.499 . S
C4209 C4210 1.373 . S
C4209 C4211 1.389 . S
C4210 H4183 0.950 . S
C4210 C4196 1.377 . S
C4210 C4209 1.373 . S
C4211 C4195 1.377 . S
C4211 C4209 1.389 . S
C4211 C4212 1.524 . S
C4212 C4211 1.524 . S
C4212 C4213 1.397 . S
C4212 C4217 1.363 . S
C4213 H4184 0.950 . S
C4213 C4212 1.397 . S
C4213 C4214 1.334 . S
C4214 H4185 0.950 . S
C4214 C4213 1.334 . S
C4214 C4215 1.287 . S
C4215 C4214 1.287 . S
C4215 C4216 1.524 . S
C4215 H4218 0.999 . S
C4216 H4186 0.950 . S
C4216 C4215 1.524 . S
C4216 C4217 1.415 . S
C4217 H4187 0.950 . S
C4217 C4212 1.363 . S
C4217 C4216 1.415 . S
H4218 C4215 0.999 . S
H4219 C4200 0.913 . S
H4220 C4238 0.951 . S
H4221 C4240 0.951 . S
H4222 C4242 0.950 . S
H4223 C4243 0.950 . S
H4224 C4245 0.950 . S
H4225 C4248 0.950 . S
H4226 C4249 0.950 . S
H4227 C4251 0.950 . S
H4228 C4252 0.950 . S
H4229 C4253 0.951 . S
H4230 C4255 0.951 . S
H4231 C4257 0.950 . S
H4232 C4258 0.950 . S
H4233 C4260 0.950 . S
H4234 C4263 0.950 . S
H4235 C4264 0.950 . S
H4236 C4266 0.950 . S
H4237 C4267 0.950 . S
C4238 H4220 0.951 . S
C4238 C4239 1.366 . S
C4238 C4240 1.388 . S
C4239 C4238 1.366 . S
C4239 C4243 1.385 . S
C4240 H4221 0.951 . S
C4240 C4238 1.388 . S
C4240 C4241 1.366 . S
C4241 C4240 1.366 . S
C4241 C4242 1.414 . S
C4241 C4244 1.499 . S
C4242 H4222 0.950 . S
C4242 C4241 1.414 . S
C4242 C4243 1.374 . S
C4243 H4223 0.950 . S
C4243 C4239 1.385 . S
C4243 C4242 1.374 . S
C4244 C4241 1.499 . S
C4244 C4245 1.373 . S
C4244 C4246 1.389 . S
C4245 H4224 0.950 . S
C4245 C4244 1.373 . S
C4245 C4261 1.377 . S
C4246 C4244 1.389 . S
C4246 C4247 1.524 . S
C4246 C4260 1.377 . S
C4247 C4246 1.524 . S
C4247 C4248 1.397 . S
C4247 C4252 1.363 . S
C4248 H4225 0.950 . S
C4248 C4247 1.397 . S
C4248 C4249 1.334 . S
C4249 H4226 0.950 . S
C4249 C4248 1.334 . S
C4249 C4250 1.287 . S
C4250 C4249 1.287 . S
C4250 C4251 1.524 . S
C4250 H4269 0.913 . S
C4251 H4227 0.950 . S
C4251 C4250 1.524 . S
C4251 C4252 1.415 . S
C4252 H4228 0.950 . S
C4252 C4247 1.363 . S
C4252 C4251 1.415 . S
C4253 H4229 0.951 . S
C4253 C4254 1.366 . S
C4253 C4255 1.388 . S
C4254 C4253 1.366 . S
C4254 C4258 1.385 . S
C4255 H4230 0.951 . S
C4255 C4253 1.388 . S
C4255 C4256 1.366 . S
C4256 C4255 1.366 . S
C4256 C4257 1.414 . S
C4256 C4259 1.499 . S
C4257 H4231 0.950 . S
C4257 C4256 1.414 . S
C4257 C4258 1.374 . S
C4258 H4232 0.950 . S
C4258 C4254 1.385 . S
C4258 C4257 1.374 . S
C4259 C4256 1.499 . S
C4259 C4260 1.373 . S
C4259 C4261 1.389 . S
C4260 H4233 0.950 . S
C4260 C4246 1.377 . S
C4260 C4259 1.373 . S
C4261 C4245 1.377 . S
C4261 C4259 1.389 . S
C4261 C4262 1.524 . S
C4262 C4261 1.524 . S
C4262 C4263 1.397 . S
C4262 C4267 1.363 . S
C4263 H4234 0.950 . S
C4263 C4262 1.397 . S
C4263 C4264 1.334 . S
C4264 H4235 0.950 . S
C4264 C4263 1.334 . S
C4264 C4265 1.287 . S
C4265 C4264 1.287 . S
C4265 C4266 1.524 . S
C4265 H4268 0.999 . S
C4266 H4236 0.950 . S
C4266 C4265 1.524 . S
C4266 C4267 1.415 . S
C4267 H4237 0.950 . S
C4267 C4262 1.363 . S
C4267 C4266 1.415 . S
H4268 C4265 0.999 . S
H4269 C4250 0.913 . S
H4270 C4288 0.951 . S
H4271 C4290 0.951 . S
H4272 C4292 0.950 . S
H4273 C4293 0.950 . S
H4274 C4295 0.950 . S
H4275 C4298 0.950 . S
H4276 C4299 0.950 . S
H4277 C4301 0.950 . S
H4278 C4302 0.950 . S
H4279 C4303 0.951 . S
H4280 C4305 0.951 . S
H4281 C4307 0.950 . S
H4282 C4308 0.950 . S
H4283 C4310 0.950 . S
H4284 C4313 0.950 . S
H4285 C4314 0.950 . S
H4286 C4316 0.950 . S
H4287 C4317 0.950 . S
C4288 H4270 0.951 . S
C4288 C4289 1.366 . S
C4288 C4290 1.388 . S
C4289 C4288 1.366 . S
C4289 C4293 1.385 . S
C4290 H4271 0.951 . S
C4290 C4288 1.388 . S
C4290 C4291 1.366 . S
C4291 C4290 1.366 . S
C4291 C4292 1.414 . S
C4291 C4294 1.499 . S
C4292 H4272 0.950 . S
C4292 C4291 1.414 . S
C4292 C4293 1.374 . S
C4293 H4273 0.950 . S
C4293 C4289 1.385 . S
C4293 C4292 1.374 . S
C4294 C4291 1.499 . S
C4294 C4295 1.373 . S
C4294 C4296 1.389 . S
C4295 H4274 0.950 . S
C4295 C4294 1.373 . S
C4295 C4311 1.377 . S
C4296 C4294 1.389 . S
C4296 C4297 1.524 . S
C4296 C4310 1.377 . S
C4297 C4296 1.524 . S
C4297 C4298 1.397 . S
C4297 C4302 1.363 . S
C4298 H4275 0.950 . S
C4298 C4297 1.397 . S
C4298 C4299 1.334 . S
C4299 H4276 0.950 . S
C4299 C4298 1.334 . S
C4299 C4300 1.287 . S
C4300 C4299 1.287 . S
C4300 C4301 1.524 . S
C4300 H4319 0.913 . S
C4301 H4277 0.950 . S
C4301 C4300 1.524 . S
C4301 C4302 1.415 . S
C4302 H4278 0.950 . S
C4302 C4297 1.363 . S
C4302 C4301 1.415 . S
C4303 H4279 0.951 . S
C4303 C4304 1.366 . S
C4303 C4305 1.388 . S
C4304 C4303 1.366 . S
C4304 C4308 1.385 . S
C4305 H4280 0.951 . S
C4305 C4303 1.388 . S
C4305 C4306 1.366 . S
C4306 C4305 1.366 . S
C4306 C4307 1.414 . S
C4306 C4309 1.499 . S
C4307 H4281 0.950 . S
C4307 C4306 1.414 . S
C4307 C4308 1.374 . S
C4308 H4282 0.950 . S
C4308 C4304 1.385 . S
C4308 C4307 1.374 . S
C4309 C4306 1.499 . S
C4309 C4310 1.373 . S
C4309 C4311 1.389 . S
C4310 H4283 0.950 . S
C4310 C4296 1.377 . S
C4310 C4309 1.373 . S
C4311 C4295 1.377 . S
C4311 C4309 1.389 . S
C4311 C4312 1.524 . S
C4312 C4311 1.524 . S
C4312 C4313 1.397 . S
C4312 C4317 1.363 . S
C4313 H4284 0.950 . S
C4313 C4312 1.397 . S
C4313 C4314 1.334 . S
C4314 H4285 0.950 . S
C4314 C4313 1.334 . S
C4314 C4315 1.287 . S
C4315 C4314 1.287 . S
C4315 C4316 1.524 . S
C4315 H4318 0.999 . S
C4316 H4286 0.950 . S
C4316 C4315 1.524 . S
C4316 C4317 1.415 . S
C4317 H4287 0.950 . S
C4317 C4312 1.363 . S
C4317 C4316 1.415 . S
H4318 C4315 0.999 . S
H4319 C4300 0.913 . S
H4320 C4338 0.951 . S
H4321 C4340 0.951 . S
H4322 C4342 0.950 . S
H4323 C4343 0.950 . S
H4324 C4345 0.950 . S
H4325 C4348 0.950 . S
H4326 C4349 0.950 . S
H4327 C4351 0.950 . S
H4328 C4352 0.950 . S
H4329 C4353 0.951 . S
H4330 C4355 0.951 . S
H4331 C4357 0.950 . S
H4332 C4358 0.950 . S
H4333 C4360 0.950 . S
H4334 C4363 0.950 . S
H4335 C4364 0.950 . S
H4336 C4366 0.950 . S
H4337 C4367 0.950 . S
C4338 H4320 0.951 . S
C4338 C4339 1.366 . S
C4338 C4340 1.388 . S
C4339 C4338 1.366 . S
C4339 C4343 1.385 . S
C4340 H4321 0.951 . S
C4340 C4338 1.388 . S
C4340 C4341 1.366 . S
C4341 C4340 1.366 . S
C4341 C4342 1.414 . S
C4341 C4344 1.499 . S
C4342 H4322 0.950 . S
C4342 C4341 1.414 . S
C4342 C4343 1.374 . S
C4343 H4323 0.950 . S
C4343 C4339 1.385 . S
C4343 C4342 1.374 . S
C4344 C4341 1.499 . S
C4344 C4345 1.373 . S
C4344 C4346 1.389 . S
C4345 H4324 0.950 . S
C4345 C4344 1.373 . S
C4345 C4361 1.377 1_655 S
C4346 C4344 1.389 . S
C4346 C4347 1.524 . S
C4346 C4360 1.377 1_655 S
C4347 C4346 1.524 . S
C4347 C4348 1.397 . S
C4347 C4352 1.363 . S
C4348 H4325 0.950 . S
C4348 C4347 1.397 . S
C4348 C4349 1.334 . S
C4349 H4326 0.950 . S
C4349 C4348 1.334 . S
C4349 C4350 1.287 . S
C4350 C4349 1.287 . S
C4350 C4351 1.524 . S
C4350 H4369 0.913 . S
C4351 H4327 0.950 . S
C4351 C4350 1.524 . S
C4351 C4352 1.415 . S
C4352 H4328 0.950 . S
C4352 C4347 1.363 . S
C4352 C4351 1.415 . S
C4353 H4329 0.951 . S
C4353 C4354 1.366 . S
C4353 C4355 1.388 . S
C4354 C4353 1.366 . S
C4354 C4358 1.385 . S
C4355 H4330 0.951 . S
C4355 C4353 1.388 . S
C4355 C4356 1.366 . S
C4356 C4355 1.366 . S
C4356 C4357 1.414 . S
C4356 C4359 1.499 . S
C4357 H4331 0.950 . S
C4357 C4356 1.414 . S
C4357 C4358 1.374 . S
C4358 H4332 0.950 . S
C4358 C4354 1.385 . S
C4358 C4357 1.374 . S
C4359 C4356 1.499 . S
C4359 C4360 1.373 . S
C4359 C4361 1.389 . S
C4360 H4333 0.950 . S
C4360 C4346 1.377 1_455 S
C4360 C4359 1.373 . S
C4361 C4345 1.377 1_455 S
C4361 C4359 1.389 . S
C4361 C4362 1.524 . S
C4362 C4361 1.524 . S
C4362 C4363 1.397 . S
C4362 C4367 1.363 . S
C4363 H4334 0.950 . S
C4363 C4362 1.397 . S
C4363 C4364 1.334 . S
C4364 H4335 0.950 . S
C4364 C4363 1.334 . S
C4364 C4365 1.287 . S
C4365 C4364 1.287 . S
C4365 C4366 1.524 . S
C4365 H4368 0.999 . S
C4366 H4336 0.950 . S
C4366 C4365 1.524 . S
C4366 C4367 1.415 . S
C4367 H4337 0.950 . S
C4367 C4362 1.363 . S
C4367 C4366 1.415 . S
H4368 C4365 0.999 . S
H4369 C4350 0.913 . S
H4370 C4388 0.951 . S
H4371 C4390 0.951 . S
H4372 C4392 0.950 . S
H4373 C4393 0.950 . S
H4374 C4395 0.950 . S
H4375 C4398 0.950 . S
H4376 C4399 0.950 . S
H4377 C4401 0.950 . S
H4378 C4402 0.950 . S
H4379 C4403 0.951 . S
H4380 C4405 0.951 . S
H4381 C4407 0.950 . S
H4382 C4408 0.950 . S
H4383 C4410 0.950 . S
H4384 C4413 0.950 . S
H4385 C4414 0.950 . S
H4386 C4416 0.950 . S
H4387 C4417 0.950 . S
C4388 H4370 0.951 . S
C4388 C4389 1.366 . S
C4388 C4390 1.388 . S
C4389 C4388 1.366 . S
C4389 C4393 1.385 . S
C4390 H4371 0.951 . S
C4390 C4388 1.388 . S
C4390 C4391 1.366 . S
C4391 C4390 1.366 . S
C4391 C4392 1.414 . S
C4391 C4394 1.499 . S
C4392 H4372 0.950 . S
C4392 C4391 1.414 . S
C4392 C4393 1.374 . S
C4393 H4373 0.950 . S
C4393 C4389 1.385 . S
C4393 C4392 1.374 . S
C4394 C4391 1.499 . S
C4394 C4395 1.373 . S
C4394 C4396 1.389 . S
C4395 H4374 0.950 . S
C4395 C4394 1.373 . S
C4395 C4411 1.377 1_545 S
C4396 C4394 1.389 . S
C4396 C4397 1.524 . S
C4396 C4410 1.377 1_545 S
C4397 C4396 1.524 . S
C4397 C4398 1.397 . S
C4397 C4402 1.363 . S
C4398 H4375 0.950 . S
C4398 C4397 1.397 . S
C4398 C4399 1.334 . S
C4399 H4376 0.950 . S
C4399 C4398 1.334 . S
C4399 C4400 1.287 . S
C4400 C4399 1.287 . S
C4400 C4401 1.524 . S
C4400 H4419 0.913 . S
C4401 H4377 0.950 . S
C4401 C4400 1.524 . S
C4401 C4402 1.415 . S
C4402 H4378 0.950 . S
C4402 C4397 1.363 . S
C4402 C4401 1.415 . S
C4403 H4379 0.951 . S
C4403 C4404 1.366 . S
C4403 C4405 1.388 . S
C4404 C4403 1.366 . S
C4404 C4408 1.385 . S
C4405 H4380 0.951 . S
C4405 C4403 1.388 . S
C4405 C4406 1.366 . S
C4406 C4405 1.366 . S
C4406 C4407 1.414 . S
C4406 C4409 1.499 . S
C4407 H4381 0.950 . S
C4407 C4406 1.414 . S
C4407 C4408 1.374 . S
C4408 H4382 0.950 . S
C4408 C4404 1.385 . S
C4408 C4407 1.374 . S
C4409 C4406 1.499 . S
C4409 C4410 1.373 . S
C4409 C4411 1.389 . S
C4410 H4383 0.950 . S
C4410 C4396 1.377 1_565 S
C4410 C4409 1.373 . S
C4411 C4395 1.377 1_565 S
C4411 C4409 1.389 . S
C4411 C4412 1.524 . S
C4412 C4411 1.524 . S
C4412 C4413 1.397 . S
C4412 C4417 1.363 . S
C4413 H4384 0.950 . S
C4413 C4412 1.397 . S
C4413 C4414 1.334 . S
C4414 H4385 0.950 . S
C4414 C4413 1.334 . S
C4414 C4415 1.287 . S
C4415 C4414 1.287 . S
C4415 C4416 1.524 . S
C4415 H4418 0.999 . S
C4416 H4386 0.950 . S
C4416 C4415 1.524 . S
C4416 C4417 1.415 . S
C4417 H4387 0.950 . S
C4417 C4412 1.363 . S
C4417 C4416 1.415 . S
H4418 C4415 0.999 . S
H4419 C4400 0.913 . S
H4420 C4438 0.951 . S
H4421 C4440 0.951 . S
H4422 C4442 0.950 . S
H4423 C4443 0.950 . S
H4424 C4445 0.950 . S
H4425 C4448 0.950 . S
H4426 C4449 0.950 . S
H4427 C4451 0.950 . S
H4428 C4452 0.950 . S
H4429 C4453 0.951 . S
H4430 C4455 0.951 . S
H4431 C4457 0.950 . S
H4432 C4458 0.950 . S
H4433 C4460 0.950 . S
H4434 C4463 0.950 . S
H4435 C4464 0.950 . S
H4436 C4466 0.950 . S
H4437 C4467 0.950 . S
C4438 H4420 0.951 . S
C4438 C4439 1.366 . S
C4438 C4440 1.388 . S
C4439 C4438 1.366 . S
C4439 C4443 1.385 . S
C4440 H4421 0.951 . S
C4440 C4438 1.388 . S
C4440 C4441 1.366 . S
C4441 C4440 1.366 . S
C4441 C4442 1.414 . S
C4441 C4444 1.499 . S
C4442 H4422 0.950 . S
C4442 C4441 1.414 . S
C4442 C4443 1.374 . S
C4443 H4423 0.950 . S
C4443 C4439 1.385 . S
C4443 C4442 1.374 . S
C4444 C4441 1.499 . S
C4444 C4445 1.373 . S
C4444 C4446 1.389 . S
C4445 H4424 0.950 . S
C4445 C4444 1.373 . S
C4445 C4461 1.377 1_655 S
C4446 C4444 1.389 . S
C4446 C4447 1.524 . S
C4446 C4460 1.377 1_655 S
C4447 C4446 1.524 . S
C4447 C4448 1.397 . S
C4447 C4452 1.363 . S
C4448 H4425 0.950 . S
C4448 C4447 1.397 . S
C4448 C4449 1.334 . S
C4449 H4426 0.950 . S
C4449 C4448 1.334 . S
C4449 C4450 1.287 . S
C4450 C4449 1.287 . S
C4450 C4451 1.524 . S
C4450 H4469 0.913 . S
C4451 H4427 0.950 . S
C4451 C4450 1.524 . S
C4451 C4452 1.415 . S
C4452 H4428 0.950 . S
C4452 C4447 1.363 . S
C4452 C4451 1.415 . S
C4453 H4429 0.951 . S
C4453 C4454 1.366 . S
C4453 C4455 1.388 . S
C4454 C4453 1.366 . S
C4454 C4458 1.385 . S
C4455 H4430 0.951 . S
C4455 C4453 1.388 . S
C4455 C4456 1.366 . S
C4456 C4455 1.366 . S
C4456 C4457 1.414 . S
C4456 C4459 1.499 . S
C4457 H4431 0.950 . S
C4457 C4456 1.414 . S
C4457 C4458 1.374 . S
C4458 H4432 0.950 . S
C4458 C4454 1.385 . S
C4458 C4457 1.374 . S
C4459 C4456 1.499 . S
C4459 C4460 1.373 . S
C4459 C4461 1.389 . S
C4460 H4433 0.950 . S
C4460 C4446 1.377 1_455 S
C4460 C4459 1.373 . S
C4461 C4445 1.377 1_455 S
C4461 C4459 1.389 . S
C4461 C4462 1.524 . S
C4462 C4461 1.524 . S
C4462 C4463 1.397 . S
C4462 C4467 1.363 . S
C4463 H4434 0.950 . S
C4463 C4462 1.397 . S
C4463 C4464 1.334 . S
C4464 H4435 0.950 . S
C4464 C4463 1.334 . S
C4464 C4465 1.287 . S
C4465 C4464 1.287 . S
C4465 C4466 1.524 . S
C4465 H4468 0.999 . S
C4466 H4436 0.950 . S
C4466 C4465 1.524 . S
C4466 C4467 1.415 . S
C4467 H4437 0.950 . S
C4467 C4462 1.363 . S
C4467 C4466 1.415 . S
H4468 C4465 0.999 . S
H4469 C4450 0.913 . S
H4470 C4488 0.951 . S
H4471 C4490 0.951 . S
H4472 C4492 0.950 . S
H4473 C4493 0.950 . S
H4474 C4495 0.950 . S
H4475 C4498 0.950 . S
H4476 C4499 0.950 . S
H4477 C4501 0.950 . S
H4478 C4502 0.950 . S
H4479 C4503 0.951 . S
H4480 C4505 0.951 . S
H4481 C4507 0.950 . S
H4482 C4508 0.950 . S
H4483 C4510 0.950 . S
H4484 C4513 0.950 . S
H4485 C4514 0.950 . S
H4486 C4516 0.950 . S
H4487 C4517 0.950 . S
C4488 H4470 0.951 . S
C4488 C4489 1.366 . S
C4488 C4490 1.388 . S
C4489 C4488 1.366 . S
C4489 C4493 1.385 . S
C4490 H4471 0.951 . S
C4490 C4488 1.388 . S
C4490 C4491 1.366 . S
C4491 C4490 1.366 . S
C4491 C4492 1.414 . S
C4491 C4494 1.499 . S
C4492 H4472 0.950 . S
C4492 C4491 1.414 . S
C4492 C4493 1.374 . S
C4493 H4473 0.950 . S
C4493 C4489 1.385 . S
C4493 C4492 1.374 . S
C4494 C4491 1.499 . S
C4494 C4495 1.373 . S
C4494 C4496 1.389 . S
C4495 H4474 0.950 . S
C4495 C4494 1.373 . S
C4495 C4511 1.377 1_545 S
C4496 C4494 1.389 . S
C4496 C4497 1.524 . S
C4496 C4510 1.377 1_545 S
C4497 C4496 1.524 . S
C4497 C4498 1.397 . S
C4497 C4502 1.363 . S
C4498 H4475 0.950 . S
C4498 C4497 1.397 . S
C4498 C4499 1.334 . S
C4499 H4476 0.950 . S
C4499 C4498 1.334 . S
C4499 C4500 1.287 . S
C4500 C4499 1.287 . S
C4500 C4501 1.524 . S
C4500 H4519 0.913 . S
C4501 H4477 0.950 . S
C4501 C4500 1.524 . S
C4501 C4502 1.415 . S
C4502 H4478 0.950 . S
C4502 C4497 1.363 . S
C4502 C4501 1.415 . S
C4503 H4479 0.951 . S
C4503 C4504 1.366 . S
C4503 C4505 1.388 . S
C4504 C4503 1.366 . S
C4504 C4508 1.385 . S
C4505 H4480 0.951 . S
C4505 C4503 1.388 . S
C4505 C4506 1.366 . S
C4506 C4505 1.366 . S
C4506 C4507 1.414 . S
C4506 C4509 1.499 . S
C4507 H4481 0.950 . S
C4507 C4506 1.414 . S
C4507 C4508 1.374 . S
C4508 H4482 0.950 . S
C4508 C4504 1.385 . S
C4508 C4507 1.374 . S
C4509 C4506 1.499 . S
C4509 C4510 1.373 . S
C4509 C4511 1.389 . S
C4510 H4483 0.950 . S
C4510 C4496 1.377 1_565 S
C4510 C4509 1.373 . S
C4511 C4495 1.377 1_565 S
C4511 C4509 1.389 . S
C4511 C4512 1.524 . S
C4512 C4511 1.524 . S
C4512 C4513 1.397 . S
C4512 C4517 1.363 . S
C4513 H4484 0.950 . S
C4513 C4512 1.397 . S
C4513 C4514 1.334 . S
C4514 H4485 0.950 . S
C4514 C4513 1.334 . S
C4514 C4515 1.287 . S
C4515 C4514 1.287 . S
C4515 C4516 1.524 . S
C4515 H4518 0.999 . S
C4516 H4486 0.950 . S
C4516 C4515 1.524 . S
C4516 C4517 1.415 . S
C4517 H4487 0.950 . S
C4517 C4512 1.363 . S
C4517 C4516 1.415 . S
H4518 C4515 0.999 . S
H4519 C4500 0.913 . S
H4520 C4538 0.951 . S
H4521 C4540 0.951 . S
H4522 C4542 0.950 . S
H4523 C4543 0.950 . S
H4524 C4545 0.950 . S
H4525 C4548 0.950 . S
H4526 C4549 0.950 . S
H4527 C4551 0.950 . S
H4528 C4552 0.950 . S
H4529 C4553 0.951 . S
H4530 C4555 0.951 . S
H4531 C4557 0.950 . S
H4532 C4558 0.950 . S
H4533 C4560 0.950 . S
H4534 C4563 0.950 . S
H4535 C4564 0.950 . S
H4536 C4566 0.950 . S
H4537 C4567 0.950 . S
C4538 H4520 0.951 . S
C4538 C4539 1.366 . S
C4538 C4540 1.388 . S
C4539 C4538 1.366 . S
C4539 C4543 1.385 . S
C4540 H4521 0.951 . S
C4540 C4538 1.388 . S
C4540 C4541 1.366 . S
C4541 C4540 1.366 . S
C4541 C4542 1.414 . S
C4541 C4544 1.499 . S
C4542 H4522 0.950 . S
C4542 C4541 1.414 . S
C4542 C4543 1.374 . S
C4543 H4523 0.950 . S
C4543 C4539 1.385 . S
C4543 C4542 1.374 . S
C4544 C4541 1.499 . S
C4544 C4545 1.373 . S
C4544 C4546 1.389 . S
C4545 H4524 0.950 . S
C4545 C4544 1.373 . S
C4545 C4561 1.377 1_455 S
C4546 C4544 1.389 . S
C4546 C4547 1.524 . S
C4546 C4560 1.377 1_455 S
C4547 C4546 1.524 . S
C4547 C4548 1.397 . S
C4547 C4552 1.363 . S
C4548 H4525 0.950 . S
C4548 C4547 1.397 . S
C4548 C4549 1.334 . S
C4549 H4526 0.950 . S
C4549 C4548 1.334 . S
C4549 C4550 1.287 . S
C4550 C4549 1.287 . S
C4550 C4551 1.524 . S
C4550 H4569 0.913 . S
C4551 H4527 0.950 . S
C4551 C4550 1.524 . S
C4551 C4552 1.415 . S
C4552 H4528 0.950 . S
C4552 C4547 1.363 . S
C4552 C4551 1.415 . S
C4553 H4529 0.951 . S
C4553 C4554 1.366 . S
C4553 C4555 1.388 . S
C4554 C4553 1.366 . S
C4554 C4558 1.385 . S
C4555 H4530 0.951 . S
C4555 C4553 1.388 . S
C4555 C4556 1.366 . S
C4556 C4555 1.366 . S
C4556 C4557 1.414 . S
C4556 C4559 1.499 . S
C4557 H4531 0.950 . S
C4557 C4556 1.414 . S
C4557 C4558 1.374 . S
C4558 H4532 0.950 . S
C4558 C4554 1.385 . S
C4558 C4557 1.374 . S
C4559 C4556 1.499 . S
C4559 C4560 1.373 . S
C4559 C4561 1.389 . S
C4560 H4533 0.950 . S
C4560 C4546 1.377 1_655 S
C4560 C4559 1.373 . S
C4561 C4545 1.377 1_655 S
C4561 C4559 1.389 . S
C4561 C4562 1.524 . S
C4562 C4561 1.524 . S
C4562 C4563 1.397 . S
C4562 C4567 1.363 . S
C4563 H4534 0.950 . S
C4563 C4562 1.397 . S
C4563 C4564 1.334 . S
C4564 H4535 0.950 . S
C4564 C4563 1.334 . S
C4564 C4565 1.287 . S
C4565 C4564 1.287 . S
C4565 C4566 1.524 . S
C4565 H4568 0.999 . S
C4566 H4536 0.950 . S
C4566 C4565 1.524 . S
C4566 C4567 1.415 . S
C4567 H4537 0.950 . S
C4567 C4562 1.363 . S
C4567 C4566 1.415 . S
H4568 C4565 0.999 . S
H4569 C4550 0.913 . S
H4570 C4588 0.951 . S
H4571 C4590 0.951 . S
H4572 C4592 0.950 . S
H4573 C4593 0.950 . S
H4574 C4595 0.950 . S
H4575 C4598 0.950 . S
H4576 C4599 0.950 . S
H4577 C4601 0.950 . S
H4578 C4602 0.950 . S
H4579 C4603 0.951 . S
H4580 C4605 0.951 . S
H4581 C4607 0.950 . S
H4582 C4608 0.950 . S
H4583 C4610 0.950 . S
H4584 C4613 0.950 . S
H4585 C4614 0.950 . S
H4586 C4616 0.950 . S
H4587 C4617 0.950 . S
C4588 H4570 0.951 . S
C4588 C4589 1.366 . S
C4588 C4590 1.388 . S
C4589 C4588 1.366 . S
C4589 C4593 1.385 . S
C4590 H4571 0.951 . S
C4590 C4588 1.388 . S
C4590 C4591 1.366 . S
C4591 C4590 1.366 . S
C4591 C4592 1.414 . S
C4591 C4594 1.499 . S
C4592 H4572 0.950 . S
C4592 C4591 1.414 . S
C4592 C4593 1.374 . S
C4593 H4573 0.950 . S
C4593 C4589 1.385 . S
C4593 C4592 1.374 . S
C4594 C4591 1.499 . S
C4594 C4595 1.373 . S
C4594 C4596 1.389 . S
C4595 H4574 0.950 . S
C4595 C4594 1.373 . S
C4595 C4611 1.377 1_565 S
C4596 C4594 1.389 . S
C4596 C4597 1.524 . S
C4596 C4610 1.377 1_565 S
C4597 C4596 1.524 . S
C4597 C4598 1.397 . S
C4597 C4602 1.363 . S
C4598 H4575 0.950 . S
C4598 C4597 1.397 . S
C4598 C4599 1.334 . S
C4599 H4576 0.950 . S
C4599 C4598 1.334 . S
C4599 C4600 1.287 . S
C4600 C4599 1.287 . S
C4600 C4601 1.524 . S
C4600 H4619 0.913 . S
C4601 H4577 0.950 . S
C4601 C4600 1.524 . S
C4601 C4602 1.415 . S
C4602 H4578 0.950 . S
C4602 C4597 1.363 . S
C4602 C4601 1.415 . S
C4603 H4579 0.951 . S
C4603 C4604 1.366 . S
C4603 C4605 1.388 . S
C4604 C4603 1.366 . S
C4604 C4608 1.385 . S
C4605 H4580 0.951 . S
C4605 C4603 1.388 . S
C4605 C4606 1.366 . S
C4606 C4605 1.366 . S
C4606 C4607 1.414 . S
C4606 C4609 1.499 . S
C4607 H4581 0.950 . S
C4607 C4606 1.414 . S
C4607 C4608 1.374 . S
C4608 H4582 0.950 . S
C4608 C4604 1.385 . S
C4608 C4607 1.374 . S
C4609 C4606 1.499 . S
C4609 C4610 1.373 . S
C4609 C4611 1.389 . S
C4610 H4583 0.950 . S
C4610 C4596 1.377 1_545 S
C4610 C4609 1.373 . S
C4611 C4595 1.377 1_545 S
C4611 C4609 1.389 . S
C4611 C4612 1.524 . S
C4612 C4611 1.524 . S
C4612 C4613 1.397 . S
C4612 C4617 1.363 . S
C4613 H4584 0.950 . S
C4613 C4612 1.397 . S
C4613 C4614 1.334 . S
C4614 H4585 0.950 . S
C4614 C4613 1.334 . S
C4614 C4615 1.287 . S
C4615 C4614 1.287 . S
C4615 C4616 1.524 . S
C4615 H4618 0.999 . S
C4616 H4586 0.950 . S
C4616 C4615 1.524 . S
C4616 C4617 1.415 . S
C4617 H4587 0.950 . S
C4617 C4612 1.363 . S
C4617 C4616 1.415 . S
H4618 C4615 0.999 . S
H4619 C4600 0.913 . S
H4620 C4638 0.951 . S
H4621 C4640 0.951 . S
H4622 C4642 0.950 . S
H4623 C4643 0.950 . S
H4624 C4645 0.950 . S
H4625 C4648 0.950 . S
H4626 C4649 0.950 . S
H4627 C4651 0.950 . S
H4628 C4652 0.950 . S
H4629 C4653 0.951 . S
H4630 C4655 0.951 . S
H4631 C4657 0.950 . S
H4632 C4658 0.950 . S
H4633 C4660 0.950 . S
H4634 C4663 0.950 . S
H4635 C4664 0.950 . S
H4636 C4666 0.950 . S
H4637 C4667 1.012 . S
C4638 H4620 0.951 . S
C4638 C4639 1.366 . S
C4638 C4640 1.388 . S
C4639 C4638 1.366 . S
C4639 C4643 1.385 . S
C4640 H4621 0.951 . S
C4640 C4638 1.388 . S
C4640 C4641 1.366 . S
C4641 C4640 1.366 . S
C4641 C4642 1.414 . S
C4641 C4644 1.499 . S
C4642 H4622 0.950 . S
C4642 C4641 1.414 . S
C4642 C4643 1.374 . S
C4643 H4623 0.950 . S
C4643 C4639 1.385 . S
C4643 C4642 1.374 . S
C4644 C4641 1.499 . S
C4644 C4645 1.373 . S
C4644 C4646 1.389 . S
C4645 H4624 0.950 . S
C4645 C4644 1.373 . S
C4645 C4661 1.377 1_655 S
C4646 C4644 1.389 . S
C4646 C4647 1.524 . S
C4646 C4660 1.377 1_655 S
C4647 C4646 1.524 . S
C4647 C4648 1.397 . S
C4647 C4652 1.363 . S
C4648 H4625 0.950 . S
C4648 C4647 1.397 . S
C4648 C4649 1.334 . S
C4649 H4626 0.950 . S
C4649 C4648 1.334 . S
C4649 C4650 1.287 . S
C4650 C4649 1.287 . S
C4650 C4651 1.524 . S
C4650 H4669 0.913 . S
C4651 H4627 0.950 . S
C4651 C4650 1.524 . S
C4651 C4652 1.415 . S
C4652 H4628 0.950 . S
C4652 C4647 1.363 . S
C4652 C4651 1.415 . S
C4653 H4629 0.951 . S
C4653 C4654 1.366 . S
C4653 C4655 1.388 . S
C4654 C4653 1.366 . S
C4654 C4658 1.385 . S
C4655 H4630 0.951 . S
C4655 C4653 1.388 . S
C4655 C4656 1.366 . S
C4656 C4655 1.366 . S
C4656 C4657 1.414 . S
C4656 C4659 1.499 . S
C4657 H4631 0.950 . S
C4657 C4656 1.414 . S
C4657 C4658 1.374 . S
C4658 H4632 0.950 . S
C4658 C4654 1.385 . S
C4658 C4657 1.374 . S
C4659 C4656 1.499 . S
C4659 C4660 1.373 . S
C4659 C4661 1.389 . S
C4660 H4633 0.950 . S
C4660 C4646 1.377 1_455 S
C4660 C4659 1.373 . S
C4661 C4645 1.377 1_455 S
C4661 C4659 1.389 . S
C4661 C4662 1.524 . S
C4662 C4661 1.524 . S
C4662 C4663 1.397 . S
C4662 C4667 1.363 . S
C4663 H4634 0.950 . S
C4663 C4662 1.397 . S
C4663 C4664 1.334 . S
C4664 H4635 0.950 . S
C4664 C4663 1.334 . S
C4664 C4665 1.287 . S
C4665 C4664 1.287 . S
C4665 C4666 1.524 . S
C4665 H4668 0.999 . S
C4666 H4636 0.950 . S
C4666 C4665 1.524 . S
C4666 C4667 1.415 . S
C4667 H4637 1.012 . S
C4667 C4662 1.363 . S
C4667 C4666 1.415 . S
H4668 C4665 0.999 . S
H4669 C4650 0.913 . S
H4670 C4688 0.951 . S
H4671 C4690 0.951 . S
H4672 C4692 0.950 . S
H4673 C4693 0.950 . S
H4674 C4695 0.950 . S
H4675 C4698 0.950 . S
H4676 C4699 0.950 . S
H4677 C4701 0.950 . S
H4678 C4702 0.950 . S
H4679 C4703 0.951 . S
H4680 C4705 0.951 . S
H4681 C4707 0.950 . S
H4682 C4708 0.950 . S
H4683 C4710 0.950 . S
H4684 C4713 0.950 . S
H4685 C4714 0.950 . S
H4686 C4716 0.950 . S
H4687 C4717 0.950 . S
C4688 H4670 0.951 . S
C4688 C4689 1.366 . S
C4688 C4690 1.388 . S
C4689 C4688 1.366 . S
C4689 C4693 1.385 . S
C4690 H4671 0.951 . S
C4690 C4688 1.388 . S
C4690 C4691 1.366 . S
C4691 C4690 1.366 . S
C4691 C4692 1.414 . S
C4691 C4694 1.499 . S
C4692 H4672 0.950 . S
C4692 C4691 1.414 . S
C4692 C4693 1.374 . S
C4693 H4673 0.950 . S
C4693 C4689 1.385 . S
C4693 C4692 1.374 . S
C4694 C4691 1.499 . S
C4694 C4695 1.373 . S
C4694 C4696 1.389 . S
C4695 H4674 0.950 . S
C4695 C4694 1.373 . S
C4695 C4711 1.377 1_565 S
C4696 C4694 1.389 . S
C4696 C4697 1.524 . S
C4696 C4710 1.377 1_565 S
C4697 C4696 1.524 . S
C4697 C4698 1.397 . S
C4697 C4702 1.363 . S
C4698 H4675 0.950 . S
C4698 C4697 1.397 . S
C4698 C4699 1.334 . S
C4699 H4676 0.950 . S
C4699 C4698 1.334 . S
C4699 C4700 1.287 . S
C4700 C4699 1.287 . S
C4700 C4701 1.524 . S
C4700 H4719 0.913 . S
C4701 H4677 0.950 . S
C4701 C4700 1.524 . S
C4701 C4702 1.415 . S
C4702 H4678 0.950 . S
C4702 C4697 1.363 . S
C4702 C4701 1.415 . S
C4703 H4679 0.951 . S
C4703 C4704 1.366 . S
C4703 C4705 1.388 . S
C4704 C4703 1.366 . S
C4704 C4708 1.385 . S
C4705 H4680 0.951 . S
C4705 C4703 1.388 . S
C4705 C4706 1.366 . S
C4706 C4705 1.366 . S
C4706 C4707 1.414 . S
C4706 C4709 1.499 . S
C4707 H4681 0.950 . S
C4707 C4706 1.414 . S
C4707 C4708 1.374 . S
C4708 H4682 0.950 . S
C4708 C4704 1.385 . S
C4708 C4707 1.374 . S
C4709 C4706 1.499 . S
C4709 C4710 1.373 . S
C4709 C4711 1.389 . S
C4710 H4683 0.950 . S
C4710 C4696 1.377 1_545 S
C4710 C4709 1.373 . S
C4711 C4695 1.377 1_545 S
C4711 C4709 1.389 . S
C4711 C4712 1.524 . S
C4712 C4711 1.524 . S
C4712 C4713 1.397 . S
C4712 C4717 1.363 . S
C4713 H4684 0.950 . S
C4713 C4712 1.397 . S
C4713 C4714 1.334 . S
C4714 H4685 0.950 . S
C4714 C4713 1.334 . S
C4714 C4715 1.287 . S
C4715 C4714 1.287 . S
C4715 C4716 1.524 . S
C4715 H4718 0.999 . S
C4716 H4686 0.950 . S
C4716 C4715 1.524 . S
C4716 C4717 1.415 . S
C4717 H4687 0.950 . S
C4717 C4712 1.363 . S
C4717 C4716 1.415 . S
H4718 C4715 0.999 . S
H4719 C4700 0.913 . S
H4720 C4738 0.951 . S
H4721 C4740 0.951 . S
H4722 C4742 0.950 . S
H4723 C4743 0.950 . S
H4724 C4745 0.950 . S
H4725 C4748 0.950 . S
H4726 C4749 0.950 . S
H4727 C4751 0.950 . S
H4728 C4752 0.950 . S
H4729 C4753 0.951 . S
H4730 C4755 0.951 . S
H4731 C4757 0.950 . S
H4732 C4758 0.950 . S
H4733 C4760 0.950 . S
H4734 C4763 0.950 . S
H4735 C4764 0.950 . S
H4736 C4766 0.950 . S
H4737 C4767 0.950 . S
C4738 H4720 0.951 . S
C4738 C4739 1.366 . S
C4738 C4740 1.388 . S
C4739 C4738 1.366 . S
C4739 C4743 1.385 . S
C4740 H4721 0.951 . S
C4740 C4738 1.388 . S
C4740 C4741 1.366 . S
C4741 C4740 1.366 . S
C4741 C4742 1.414 . S
C4741 C4744 1.499 . S
C4742 H4722 0.950 . S
C4742 C4741 1.414 . S
C4742 C4743 1.374 . S
C4743 H4723 0.950 . S
C4743 C4739 1.385 . S
C4743 C4742 1.374 . S
C4744 C4741 1.499 . S
C4744 C4745 1.373 . S
C4744 C4746 1.389 . S
C4745 H4724 0.950 . S
C4745 C4744 1.373 . S
C4745 C4761 1.377 1_556 S
C4746 C4744 1.389 . S
C4746 C4747 1.524 . S
C4746 C4760 1.377 1_556 S
C4747 C4746 1.524 . S
C4747 C4748 1.397 . S
C4747 C4752 1.363 . S
C4748 H4725 0.950 . S
C4748 C4747 1.397 . S
C4748 C4749 1.334 . S
C4749 H4726 0.950 . S
C4749 C4748 1.334 . S
C4749 C4750 1.287 . S
C4750 C4749 1.287 . S
C4750 C4751 1.524 . S
C4750 H4769 0.913 . S
C4751 H4727 0.950 . S
C4751 C4750 1.524 . S
C4751 C4752 1.415 . S
C4752 H4728 0.950 . S
C4752 C4747 1.363 . S
C4752 C4751 1.415 . S
C4753 H4729 0.951 . S
C4753 C4754 1.366 . S
C4753 C4755 1.388 . S
C4754 C4753 1.366 . S
C4754 C4758 1.385 . S
C4755 H4730 0.951 . S
C4755 C4753 1.388 . S
C4755 C4756 1.366 . S
C4756 C4755 1.366 . S
C4756 C4757 1.414 . S
C4756 C4759 1.499 . S
C4757 H4731 0.950 . S
C4757 C4756 1.414 . S
C4757 C4758 1.374 . S
C4758 H4732 0.950 . S
C4758 C4754 1.385 . S
C4758 C4757 1.374 . S
C4759 C4756 1.499 . S
C4759 C4760 1.373 . S
C4759 C4761 1.389 . S
C4760 H4733 0.950 . S
C4760 C4746 1.377 1_554 S
C4760 C4759 1.373 . S
C4761 C4745 1.377 1_554 S
C4761 C4759 1.389 . S
C4761 C4762 1.524 . S
C4762 C4761 1.524 . S
C4762 C4763 1.397 . S
C4762 C4767 1.363 . S
C4763 H4734 0.950 . S
C4763 C4762 1.397 . S
C4763 C4764 1.334 . S
C4764 H4735 0.950 . S
C4764 C4763 1.334 . S
C4764 C4765 1.287 . S
C4765 C4764 1.287 . S
C4765 C4766 1.524 . S
C4765 H4768 0.999 . S
C4766 H4736 0.950 . S
C4766 C4765 1.524 . S
C4766 C4767 1.415 . S
C4767 H4737 0.950 . S
C4767 C4762 1.363 . S
C4767 C4766 1.415 . S
H4768 C4765 0.999 . S
H4769 C4750 0.913 . S
H4770 C4788 0.951 . S
H4771 C4790 0.951 . S
H4772 C4792 0.950 . S
H4773 C4793 0.950 . S
H4774 C4795 0.950 . S
H4775 C4798 0.950 . S
H4776 C4799 0.950 . S
H4777 C4801 0.950 . S
H4778 C4802 0.950 . S
H4779 C4803 0.951 . S
H4780 C4805 0.951 . S
H4781 C4807 0.950 . S
H4782 C4808 0.950 . S
H4783 C4810 0.950 . S
H4784 C4813 0.950 . S
H4785 C4814 0.950 . S
H4786 C4816 0.950 . S
H4787 C4817 0.950 . S
C4788 H4770 0.951 . S
C4788 C4789 1.366 . S
C4788 C4790 1.388 . S
C4789 C4788 1.366 . S
C4789 C4793 1.385 . S
C4790 H4771 0.951 . S
C4790 C4788 1.388 . S
C4790 C4791 1.366 . S
C4791 C4790 1.366 . S
C4791 C4792 1.414 . S
C4791 C4794 1.499 . S
C4792 H4772 0.950 . S
C4792 C4791 1.414 . S
C4792 C4793 1.374 . S
C4793 H4773 0.950 . S
C4793 C4789 1.385 . S
C4793 C4792 1.374 . S
C4794 C4791 1.499 . S
C4794 C4795 1.373 . S
C4794 C4796 1.389 . S
C4795 H4774 0.950 . S
C4795 C4794 1.373 . S
C4795 C4811 1.377 1_556 S
C4796 C4794 1.389 . S
C4796 C4797 1.524 . S
C4796 C4810 1.377 1_556 S
C4797 C4796 1.524 . S
C4797 C4798 1.397 . S
C4797 C4802 1.363 . S
C4798 H4775 0.950 . S
C4798 C4797 1.397 . S
C4798 C4799 1.334 . S
C4799 H4776 0.950 . S
C4799 C4798 1.334 . S
C4799 C4800 1.287 . S
C4800 C4799 1.287 . S
C4800 C4801 1.524 . S
C4800 H4819 0.913 . S
C4801 H4777 0.950 . S
C4801 C4800 1.524 . S
C4801 C4802 1.415 . S
C4802 H4778 0.950 . S
C4802 C4797 1.363 . S
C4802 C4801 1.415 . S
C4803 H4779 0.951 . S
C4803 C4804 1.366 . S
C4803 C4805 1.388 . S
C4804 C4803 1.366 . S
C4804 C4808 1.385 . S
C4805 H4780 0.951 . S
C4805 C4803 1.388 . S
C4805 C4806 1.366 . S
C4806 C4805 1.366 . S
C4806 C4807 1.414 . S
C4806 C4809 1.499 . S
C4807 H4781 0.950 . S
C4807 C4806 1.414 . S
C4807 C4808 1.374 . S
C4808 H4782 0.950 . S
C4808 C4804 1.385 . S
C4808 C4807 1.374 . S
C4809 C4806 1.499 . S
C4809 C4810 1.373 . S
C4809 C4811 1.389 . S
C4810 H4783 0.950 . S
C4810 C4796 1.377 1_554 S
C4810 C4809 1.373 . S
C4811 C4795 1.377 1_554 S
C4811 C4809 1.389 . S
C4811 C4812 1.524 . S
C4812 C4811 1.524 . S
C4812 C4813 1.397 . S
C4812 C4817 1.363 . S
C4813 H4784 0.950 . S
C4813 C4812 1.397 . S
C4813 C4814 1.334 . S
C4814 H4785 0.950 . S
C4814 C4813 1.334 . S
C4814 C4815 1.287 . S
C4815 C4814 1.287 . S
C4815 C4816 1.524 . S
C4815 H4818 0.999 . S
C4816 H4786 0.950 . S
C4816 C4815 1.524 . S
C4816 C4817 1.415 . S
C4817 H4787 0.950 . S
C4817 C4812 1.363 . S
C4817 C4816 1.415 . S
H4818 C4815 0.999 . S
H4819 C4800 0.913 . S
H4820 C4838 0.951 . S
H4821 C4840 0.951 . S
H4822 C4842 0.950 . S
H4823 C4843 0.950 . S
H4824 C4845 0.950 . S
H4825 C4848 0.950 . S
H4826 C4849 0.950 . S
H4827 C4851 0.950 . S
H4828 C4852 0.950 . S
H4829 C4853 0.951 . S
H4830 C4855 0.951 . S
H4831 C4857 0.950 . S
H4832 C4858 0.950 . S
H4833 C4860 0.950 . S
H4834 C4863 0.950 . S
H4835 C4864 0.950 . S
H4836 C4866 0.950 . S
H4837 C4867 0.950 . S
C4838 H4820 0.951 . S
C4838 C4839 1.366 . S
C4838 C4840 1.388 . S
C4839 C4838 1.366 . S
C4839 C4843 1.385 . S
C4840 H4821 0.951 . S
C4840 C4838 1.388 . S
C4840 C4841 1.366 . S
C4841 C4840 1.366 . S
C4841 C4842 1.414 . S
C4841 C4844 1.499 . S
C4842 H4822 0.950 . S
C4842 C4841 1.414 . S
C4842 C4843 1.374 . S
C4843 H4823 0.950 . S
C4843 C4839 1.385 . S
C4843 C4842 1.374 . S
C4844 C4841 1.499 . S
C4844 C4845 1.373 . S
C4844 C4846 1.389 . S
C4845 H4824 0.950 . S
C4845 C4844 1.373 . S
C4845 C4861 1.377 1_554 S
C4846 C4844 1.389 . S
C4846 C4847 1.524 . S
C4846 C4860 1.377 1_554 S
C4847 C4846 1.524 . S
C4847 C4848 1.397 . S
C4847 C4852 1.363 . S
C4848 H4825 0.950 . S
C4848 C4847 1.397 . S
C4848 C4849 1.334 . S
C4849 H4826 0.950 . S
C4849 C4848 1.334 . S
C4849 C4850 1.287 . S
C4850 C4849 1.287 . S
C4850 C4851 1.524 . S
C4850 H4869 0.913 . S
C4851 H4827 0.950 . S
C4851 C4850 1.524 . S
C4851 C4852 1.415 . S
C4852 H4828 0.950 . S
C4852 C4847 1.363 . S
C4852 C4851 1.415 . S
C4853 H4829 0.951 . S
C4853 C4854 1.366 . S
C4853 C4855 1.388 . S
C4854 C4853 1.366 . S
C4854 C4858 1.385 . S
C4855 H4830 0.951 . S
C4855 C4853 1.388 . S
C4855 C4856 1.366 . S
C4856 C4855 1.366 . S
C4856 C4857 1.414 . S
C4856 C4859 1.499 . S
C4857 H4831 0.950 . S
C4857 C4856 1.414 . S
C4857 C4858 1.374 . S
C4858 H4832 0.950 . S
C4858 C4854 1.385 . S
C4858 C4857 1.374 . S
C4859 C4856 1.499 . S
C4859 C4860 1.373 . S
C4859 C4861 1.389 . S
C4860 H4833 0.950 . S
C4860 C4846 1.377 1_556 S
C4860 C4859 1.373 . S
C4861 C4845 1.377 1_556 S
C4861 C4859 1.389 . S
C4861 C4862 1.524 . S
C4862 C4861 1.524 . S
C4862 C4863 1.397 . S
C4862 C4867 1.363 . S
C4863 H4834 0.950 . S
C4863 C4862 1.397 . S
C4863 C4864 1.334 . S
C4864 H4835 0.950 . S
C4864 C4863 1.334 . S
C4864 C4865 1.287 . S
C4865 C4864 1.287 . S
C4865 C4866 1.524 . S
C4865 H4868 0.999 . S
C4866 H4836 0.950 . S
C4866 C4865 1.524 . S
C4866 C4867 1.415 . S
C4867 H4837 0.950 . S
C4867 C4862 1.363 . S
C4867 C4866 1.415 . S
H4868 C4865 0.999 . S
H4869 C4850 0.913 . S
H4870 C4888 0.951 . S
H4871 C4890 0.951 . S
H4872 C4892 0.950 . S
H4873 C4893 0.950 . S
H4874 C4895 0.950 . S
H4875 C4898 0.950 . S
H4876 C4899 0.950 . S
H4877 C4901 0.950 . S
H4878 C4902 0.950 . S
H4879 C4903 0.951 . S
H4880 C4905 0.951 . S
H4881 C4907 0.950 . S
H4882 C4908 0.950 . S
H4883 C4910 0.950 . S
H4884 C4913 0.950 . S
H4885 C4914 0.950 . S
H4886 C4916 0.950 . S
H4887 C4917 0.950 . S
C4888 H4870 0.951 . S
C4888 C4889 1.366 . S
C4888 C4890 1.388 . S
C4889 C4888 1.366 . S
C4889 C4893 1.385 . S
C4890 H4871 0.951 . S
C4890 C4888 1.388 . S
C4890 C4891 1.366 . S
C4891 C4890 1.366 . S
C4891 C4892 1.414 . S
C4891 C4894 1.499 . S
C4892 H4872 0.950 . S
C4892 C4891 1.414 . S
C4892 C4893 1.374 . S
C4893 H4873 0.950 . S
C4893 C4889 1.385 . S
C4893 C4892 1.374 . S
C4894 C4891 1.499 . S
C4894 C4895 1.373 . S
C4894 C4896 1.389 . S
C4895 H4874 0.950 . S
C4895 C4894 1.373 . S
C4895 C4911 1.377 1_554 S
C4896 C4894 1.389 . S
C4896 C4897 1.524 . S
C4896 C4910 1.377 1_554 S
C4897 C4896 1.524 . S
C4897 C4898 1.397 . S
C4897 C4902 1.363 . S
C4898 H4875 0.950 . S
C4898 C4897 1.397 . S
C4898 C4899 1.334 . S
C4899 H4876 0.950 . S
C4899 C4898 1.334 . S
C4899 C4900 1.287 . S
C4900 C4899 1.287 . S
C4900 C4901 1.524 . S
C4900 H4919 0.913 . S
C4901 H4877 0.950 . S
C4901 C4900 1.524 . S
C4901 C4902 1.415 . S
C4902 H4878 0.950 . S
C4902 C4897 1.363 . S
C4902 C4901 1.415 . S
C4903 H4879 0.951 . S
C4903 C4904 1.366 . S
C4903 C4905 1.388 . S
C4904 C4903 1.366 . S
C4904 C4908 1.385 . S
C4905 H4880 0.951 . S
C4905 C4903 1.388 . S
C4905 C4906 1.366 . S
C4906 C4905 1.366 . S
C4906 C4907 1.414 . S
C4906 C4909 1.499 . S
C4907 H4881 0.950 . S
C4907 C4906 1.414 . S
C4907 C4908 1.374 . S
C4908 H4882 0.950 . S
C4908 C4904 1.385 . S
C4908 C4907 1.374 . S
C4909 C4906 1.499 . S
C4909 C4910 1.373 . S
C4909 C4911 1.389 . S
C4910 H4883 0.950 . S
C4910 C4896 1.377 1_556 S
C4910 C4909 1.373 . S
C4911 C4895 1.377 1_556 S
C4911 C4909 1.389 . S
C4911 C4912 1.524 . S
C4912 C4911 1.524 . S
C4912 C4913 1.397 . S
C4912 C4917 1.363 . S
C4913 H4884 0.950 . S
C4913 C4912 1.397 . S
C4913 C4914 1.334 . S
C4914 H4885 0.950 . S
C4914 C4913 1.334 . S
C4914 C4915 1.287 . S
C4915 C4914 1.287 . S
C4915 C4916 1.524 . S
C4915 H4918 0.999 . S
C4916 H4886 0.950 . S
C4916 C4915 1.524 . S
C4916 C4917 1.415 . S
C4917 H4887 0.950 . S
C4917 C4912 1.363 . S
C4917 C4916 1.415 . S
H4918 C4915 0.999 . S
H4919 C4900 0.913 . S
H4920 C4938 0.951 . S
H4921 C4940 0.951 . S
H4922 C4942 0.950 . S
H4923 C4943 0.950 . S
H4924 C4945 0.950 . S
H4925 C4948 0.950 . S
H4926 C4949 0.950 . S
H4927 C4951 0.950 . S
H4928 C4952 0.950 . S
H4929 C4953 0.951 . S
H4930 C4955 0.951 . S
H4931 C4957 0.950 . S
H4932 C4958 0.950 . S
H4933 C4960 0.950 . S
H4934 C4963 0.950 . S
H4935 C4964 0.950 . S
H4936 C4966 0.950 . S
H4937 C4967 0.950 . S
C4938 H4920 0.951 . S
C4938 C4939 1.366 . S
C4938 C4940 1.388 . S
C4939 C4938 1.366 . S
C4939 C4943 1.385 . S
C4940 H4921 0.951 . S
C4940 C4938 1.388 . S
C4940 C4941 1.366 . S
C4941 C4940 1.366 . S
C4941 C4942 1.414 . S
C4941 C4944 1.499 . S
C4942 H4922 0.950 . S
C4942 C4941 1.414 . S
C4942 C4943 1.374 . S
C4943 H4923 0.950 . S
C4943 C4939 1.385 . S
C4943 C4942 1.374 . S
C4944 C4941 1.499 . S
C4944 C4945 1.373 . S
C4944 C4946 1.389 . S
C4945 H4924 0.950 . S
C4945 C4944 1.373 . S
C4945 C4961 1.377 . S
C4946 C4944 1.389 . S
C4946 C4947 1.524 . S
C4946 C4960 1.377 . S
C4947 C4946 1.524 . S
C4947 C4948 1.397 . S
C4947 C4952 1.363 . S
C4948 H4925 0.950 . S
C4948 C4947 1.397 . S
C4948 C4949 1.334 . S
C4949 H4926 0.950 . S
C4949 C4948 1.334 . S
C4949 C4950 1.287 . S
C4950 C4949 1.287 . S
C4950 C4951 1.524 . S
C4950 H4969 0.913 . S
C4951 H4927 0.950 . S
C4951 C4950 1.524 . S
C4951 C4952 1.415 . S
C4952 H4928 0.950 . S
C4952 C4947 1.363 . S
C4952 C4951 1.415 . S
C4953 H4929 0.951 . S
C4953 C4954 1.366 . S
C4953 C4955 1.388 . S
C4954 C4953 1.366 . S
C4954 C4958 1.385 . S
C4955 H4930 0.951 . S
C4955 C4953 1.388 . S
C4955 C4956 1.366 . S
C4956 C4955 1.366 . S
C4956 C4957 1.414 . S
C4956 C4959 1.499 . S
C4957 H4931 0.950 . S
C4957 C4956 1.414 . S
C4957 C4958 1.374 . S
C4958 H4932 0.950 . S
C4958 C4954 1.385 . S
C4958 C4957 1.374 . S
C4959 C4956 1.499 . S
C4959 C4960 1.373 . S
C4959 C4961 1.389 . S
C4960 H4933 0.950 . S
C4960 C4946 1.377 . S
C4960 C4959 1.373 . S
C4961 C4945 1.377 . S
C4961 C4959 1.389 . S
C4961 C4962 1.524 . S
C4962 C4961 1.524 . S
C4962 C4963 1.397 . S
C4962 C4967 1.363 . S
C4963 H4934 0.950 . S
C4963 C4962 1.397 . S
C4963 C4964 1.334 . S
C4964 H4935 0.950 . S
C4964 C4963 1.334 . S
C4964 C4965 1.287 . S
C4965 C4964 1.287 . S
C4965 C4966 1.524 . S
C4965 H4968 0.999 . S
C4966 H4936 0.950 . S
C4966 C4965 1.524 . S
C4966 C4967 1.415 . S
C4967 H4937 0.950 . S
C4967 C4962 1.363 . S
C4967 C4966 1.415 . S
H4968 C4965 0.999 . S
H4969 C4950 0.913 . S
H4970 C4988 0.951 . S
H4971 C4990 0.951 . S
H4972 C4992 0.950 . S
H4973 C4993 0.950 . S
H4974 C4995 0.950 . S
H4975 C4998 0.950 . S
H4976 C4999 0.950 . S
H4977 C5001 0.950 . S
H4978 C5002 0.950 . S
H4979 C5003 0.951 . S
H4980 C5005 0.951 . S
H4981 C5007 0.950 . S
H4982 C5008 0.950 . S
H4983 C5010 0.950 . S
H4984 C5013 0.950 . S
H4985 C5014 0.950 . S
H4986 C5016 0.950 . S
H4987 C5017 0.950 . S
C4988 H4970 0.951 . S
C4988 C4989 1.366 . S
C4988 C4990 1.388 . S
C4989 C4988 1.366 . S
C4989 C4993 1.385 . S
C4990 H4971 0.951 . S
C4990 C4988 1.388 . S
C4990 C4991 1.366 . S
C4991 C4990 1.366 . S
C4991 C4992 1.414 . S
C4991 C4994 1.499 . S
C4992 H4972 0.950 . S
C4992 C4991 1.414 . S
C4992 C4993 1.374 . S
C4993 H4973 0.950 . S
C4993 C4989 1.385 . S
C4993 C4992 1.374 . S
C4994 C4991 1.499 . S
C4994 C4995 1.373 . S
C4994 C4996 1.389 . S
C4995 H4974 0.950 . S
C4995 C4994 1.373 . S
C4995 C5011 1.377 . S
C4996 C4994 1.389 . S
C4996 C4997 1.524 . S
C4996 C5010 1.377 . S
C4997 C4996 1.524 . S
C4997 C4998 1.397 . S
C4997 C5002 1.363 . S
C4998 H4975 0.950 . S
C4998 C4997 1.397 . S
C4998 C4999 1.334 . S
C4999 H4976 0.950 . S
C4999 C4998 1.334 . S
C4999 C5000 1.287 . S
C5000 C4999 1.287 . S
C5000 C5001 1.524 . S
C5000 H5019 0.913 . S
C5001 H4977 0.950 . S
C5001 C5000 1.524 . S
C5001 C5002 1.415 . S
C5002 H4978 0.950 . S
C5002 C4997 1.363 . S
C5002 C5001 1.415 . S
C5003 H4979 0.951 . S
C5003 C5004 1.366 . S
C5003 C5005 1.388 . S
C5004 C5003 1.366 . S
C5004 C5008 1.385 . S
C5005 H4980 0.951 . S
C5005 C5003 1.388 . S
C5005 C5006 1.366 . S
C5006 C5005 1.366 . S
C5006 C5007 1.414 . S
C5006 C5009 1.499 . S
C5007 H4981 0.950 . S
C5007 C5006 1.414 . S
C5007 C5008 1.374 . S
C5008 H4982 0.950 . S
C5008 C5004 1.385 . S
C5008 C5007 1.374 . S
C5009 C5006 1.499 . S
C5009 C5010 1.373 . S
C5009 C5011 1.389 . S
C5010 H4983 0.950 . S
C5010 C4996 1.377 . S
C5010 C5009 1.373 . S
C5011 C4995 1.377 . S
C5011 C5009 1.389 . S
C5011 C5012 1.524 . S
C5012 C5011 1.524 . S
C5012 C5013 1.397 . S
C5012 C5017 1.363 . S
C5013 H4984 0.950 . S
C5013 C5012 1.397 . S
C5013 C5014 1.334 . S
C5014 H4985 0.950 . S
C5014 C5013 1.334 . S
C5014 C5015 1.287 . S
C5015 C5014 1.287 . S
C5015 C5016 1.524 . S
C5015 H5018 0.999 . S
C5016 H4986 0.950 . S
C5016 C5015 1.524 . S
C5016 C5017 1.415 . S
C5017 H4987 0.950 . S
C5017 C5012 1.363 . S
C5017 C5016 1.415 . S
H5018 C5015 0.999 . S
H5019 C5000 0.913 . S
H5020 C5038 0.951 . S
H5021 C5040 0.951 . S
H5022 C5042 0.950 . S
H5023 C5043 0.950 . S
H5024 C5045 0.950 . S
H5025 C5048 0.950 . S
H5026 C5049 0.950 . S
H5027 C5051 0.950 . S
H5028 C5052 0.950 . S
H5029 C5053 0.951 . S
H5030 C5055 0.951 . S
H5031 C5057 0.950 . S
H5032 C5058 0.950 . S
H5033 C5060 0.950 . S
H5034 C5063 0.950 . S
H5035 C5064 0.950 . S
H5036 C5066 0.950 . S
H5037 C5067 0.950 . S
C5038 H5020 0.951 . S
C5038 C5039 1.366 . S
C5038 C5040 1.388 . S
C5039 C5038 1.366 . S
C5039 C5043 1.385 . S
C5040 H5021 0.951 . S
C5040 C5038 1.388 . S
C5040 C5041 1.366 . S
C5041 C5040 1.366 . S
C5041 C5042 1.414 . S
C5041 C5044 1.499 . S
C5042 H5022 0.950 . S
C5042 C5041 1.414 . S
C5042 C5043 1.374 . S
C5043 H5023 0.950 . S
C5043 C5039 1.385 . S
C5043 C5042 1.374 . S
C5044 C5041 1.499 . S
C5044 C5045 1.373 . S
C5044 C5046 1.389 . S
C5045 H5024 0.950 . S
C5045 C5044 1.373 . S
C5045 C5061 1.377 . S
C5046 C5044 1.389 . S
C5046 C5047 1.524 . S
C5046 C5060 1.377 . S
C5047 C5046 1.524 . S
C5047 C5048 1.397 . S
C5047 C5052 1.363 . S
C5048 H5025 0.950 . S
C5048 C5047 1.397 . S
C5048 C5049 1.334 . S
C5049 H5026 0.950 . S
C5049 C5048 1.334 . S
C5049 C5050 1.287 . S
C5050 C5049 1.287 . S
C5050 C5051 1.524 . S
C5050 H5069 0.913 . S
C5051 H5027 0.950 . S
C5051 C5050 1.524 . S
C5051 C5052 1.415 . S
C5052 H5028 0.950 . S
C5052 C5047 1.363 . S
C5052 C5051 1.415 . S
C5053 H5029 0.951 . S
C5053 C5054 1.366 . S
C5053 C5055 1.388 . S
C5054 C5053 1.366 . S
C5054 C5058 1.385 . S
C5055 H5030 0.951 . S
C5055 C5053 1.388 . S
C5055 C5056 1.366 . S
C5056 C5055 1.366 . S
C5056 C5057 1.414 . S
C5056 C5059 1.499 . S
C5057 H5031 0.950 . S
C5057 C5056 1.414 . S
C5057 C5058 1.374 . S
C5058 H5032 0.950 . S
C5058 C5054 1.385 . S
C5058 C5057 1.374 . S
C5059 C5056 1.499 . S
C5059 C5060 1.373 . S
C5059 C5061 1.389 . S
C5060 H5033 0.950 . S
C5060 C5046 1.377 . S
C5060 C5059 1.373 . S
C5061 C5045 1.377 . S
C5061 C5059 1.389 . S
C5061 C5062 1.524 . S
C5062 C5061 1.524 . S
C5062 C5063 1.397 . S
C5062 C5067 1.363 . S
C5063 H5034 0.950 . S
C5063 C5062 1.397 . S
C5063 C5064 1.334 . S
C5064 H5035 0.950 . S
C5064 C5063 1.334 . S
C5064 C5065 1.287 . S
C5065 C5064 1.287 . S
C5065 C5066 1.524 . S
C5065 H5068 0.999 . S
C5066 H5036 0.950 . S
C5066 C5065 1.524 . S
C5066 C5067 1.415 . S
C5067 H5037 0.950 . S
C5067 C5062 1.363 . S
C5067 C5066 1.415 . S
H5068 C5065 0.999 . S
H5069 C5050 0.913 . S
H5070 C5088 0.951 . S
H5071 C5090 0.951 . S
H5072 C5092 0.950 . S
H5073 C5093 0.950 . S
H5074 C5095 0.950 . S
H5075 C5098 0.950 . S
H5076 C5099 0.950 . S
H5077 C5101 0.950 . S
H5078 C5102 0.950 . S
H5079 C5103 0.951 . S
H5080 C5105 0.951 . S
H5081 C5107 0.950 . S
H5082 C5108 0.950 . S
H5083 C5110 0.950 . S
H5084 C5113 0.950 . S
H5085 C5114 0.950 . S
H5086 C5116 0.950 . S
H5087 C5117 0.950 . S
C5088 H5070 0.951 . S
C5088 C5089 1.366 . S
C5088 C5090 1.388 . S
C5089 C5088 1.366 . S
C5089 C5093 1.385 . S
C5090 H5071 0.951 . S
C5090 C5088 1.388 . S
C5090 C5091 1.366 . S
C5091 C5090 1.366 . S
C5091 C5092 1.414 . S
C5091 C5094 1.499 . S
C5092 H5072 0.950 . S
C5092 C5091 1.414 . S
C5092 C5093 1.374 . S
C5093 H5073 0.950 . S
C5093 C5089 1.385 . S
C5093 C5092 1.374 . S
C5094 C5091 1.499 . S
C5094 C5095 1.373 . S
C5094 C5096 1.389 . S
C5095 H5074 0.950 . S
C5095 C5094 1.373 . S
C5095 C5111 1.377 . S
C5096 C5094 1.389 . S
C5096 C5097 1.524 . S
C5096 C5110 1.377 . S
C5097 C5096 1.524 . S
C5097 C5098 1.397 . S
C5097 C5102 1.363 . S
C5098 H5075 0.950 . S
C5098 C5097 1.397 . S
C5098 C5099 1.334 . S
C5099 H5076 0.950 . S
C5099 C5098 1.334 . S
C5099 C5100 1.287 . S
C5100 C5099 1.287 . S
C5100 C5101 1.524 . S
C5100 H5119 0.913 . S
C5101 H5077 0.950 . S
C5101 C5100 1.524 . S
C5101 C5102 1.415 . S
C5102 H5078 0.950 . S
C5102 C5097 1.363 . S
C5102 C5101 1.415 . S
C5103 H5079 0.951 . S
C5103 C5104 1.366 . S
C5103 C5105 1.388 . S
C5104 C5103 1.366 . S
C5104 C5108 1.385 . S
C5105 H5080 0.951 . S
C5105 C5103 1.388 . S
C5105 C5106 1.366 . S
C5106 C5105 1.366 . S
C5106 C5107 1.414 . S
C5106 C5109 1.499 . S
C5107 H5081 0.950 . S
C5107 C5106 1.414 . S
C5107 C5108 1.374 . S
C5108 H5082 0.950 . S
C5108 C5104 1.385 . S
C5108 C5107 1.374 . S
C5109 C5106 1.499 . S
C5109 C5110 1.373 . S
C5109 C5111 1.389 . S
C5110 H5083 0.950 . S
C5110 C5096 1.377 . S
C5110 C5109 1.373 . S
C5111 C5095 1.377 . S
C5111 C5109 1.389 . S
C5111 C5112 1.524 . S
C5112 C5111 1.524 . S
C5112 C5113 1.397 . S
C5112 C5117 1.363 . S
C5113 H5084 0.950 . S
C5113 C5112 1.397 . S
C5113 C5114 1.334 . S
C5114 H5085 0.950 . S
C5114 C5113 1.334 . S
C5114 C5115 1.287 . S
C5115 C5114 1.287 . S
C5115 C5116 1.524 . S
C5115 H5118 0.999 . S
C5116 H5086 0.950 . S
C5116 C5115 1.524 . S
C5116 C5117 1.415 . S
C5117 H5087 0.950 . S
C5117 C5112 1.363 . S
C5117 C5116 1.415 . S
H5118 C5115 0.999 . S
H5119 C5100 0.913 . S
H5120 C5138 0.951 . S
H5121 C5140 0.951 . S
H5122 C5142 0.950 . S
H5123 C5143 0.950 . S
H5124 C5145 0.950 . S
H5125 C5148 0.950 . S
H5126 C5149 0.950 . S
H5127 C5151 0.950 . S
H5128 C5152 0.950 . S
H5129 C5153 0.951 . S
H5130 C5155 0.951 . S
H5131 C5157 0.950 . S
H5132 C5158 0.950 . S
H5133 C5160 0.950 . S
H5134 C5163 0.950 . S
H5135 C5164 0.950 . S
H5136 C5166 0.950 . S
H5137 C5167 0.950 . S
C5138 H5120 0.951 . S
C5138 C5139 1.366 . S
C5138 C5140 1.388 . S
C5139 C5138 1.366 . S
C5139 C5143 1.385 . S
C5140 H5121 0.951 . S
C5140 C5138 1.388 . S
C5140 C5141 1.366 . S
C5141 C5140 1.366 . S
C5141 C5142 1.414 . S
C5141 C5144 1.499 . S
C5142 H5122 0.950 . S
C5142 C5141 1.414 . S
C5142 C5143 1.374 . S
C5143 H5123 0.950 . S
C5143 C5139 1.385 . S
C5143 C5142 1.374 . S
C5144 C5141 1.499 . S
C5144 C5145 1.373 . S
C5144 C5146 1.389 . S
C5145 H5124 0.950 . S
C5145 C5144 1.373 . S
C5145 C5161 1.377 . S
C5146 C5144 1.389 . S
C5146 C5147 1.524 . S
C5146 C5160 1.377 . S
C5147 C5146 1.524 . S
C5147 C5148 1.397 . S
C5147 C5152 1.363 . S
C5148 H5125 0.950 . S
C5148 C5147 1.397 . S
C5148 C5149 1.334 . S
C5149 H5126 0.950 . S
C5149 C5148 1.334 . S
C5149 C5150 1.287 . S
C5150 C5149 1.287 . S
C5150 C5151 1.524 . S
C5150 H5169 0.913 . S
C5151 H5127 0.950 . S
C5151 C5150 1.524 . S
C5151 C5152 1.415 . S
C5152 H5128 0.950 . S
C5152 C5147 1.363 . S
C5152 C5151 1.415 . S
C5153 H5129 0.951 . S
C5153 C5154 1.366 . S
C5153 C5155 1.388 . S
C5154 C5153 1.366 . S
C5154 C5158 1.385 . S
C5155 H5130 0.951 . S
C5155 C5153 1.388 . S
C5155 C5156 1.366 . S
C5156 C5155 1.366 . S
C5156 C5157 1.414 . S
C5156 C5159 1.499 . S
C5157 H5131 0.950 . S
C5157 C5156 1.414 . S
C5157 C5158 1.374 . S
C5158 H5132 0.950 . S
C5158 C5154 1.385 . S
C5158 C5157 1.374 . S
C5159 C5156 1.499 . S
C5159 C5160 1.373 . S
C5159 C5161 1.389 . S
C5160 H5133 0.950 . S
C5160 C5146 1.377 . S
C5160 C5159 1.373 . S
C5161 C5145 1.377 . S
C5161 C5159 1.389 . S
C5161 C5162 1.524 . S
C5162 C5161 1.524 . S
C5162 C5163 1.397 . S
C5162 C5167 1.363 . S
C5163 H5134 0.950 . S
C5163 C5162 1.397 . S
C5163 C5164 1.334 . S
C5164 H5135 0.950 . S
C5164 C5163 1.334 . S
C5164 C5165 1.287 . S
C5165 C5164 1.287 . S
C5165 C5166 1.524 . S
C5165 H5168 0.999 . S
C5166 H5136 0.950 . S
C5166 C5165 1.524 . S
C5166 C5167 1.415 . S
C5167 H5137 0.950 . S
C5167 C5162 1.363 . S
C5167 C5166 1.415 . S
H5168 C5165 0.999 . S
H5169 C5150 0.913 . S
H5170 C5188 0.951 . S
H5171 C5190 0.951 . S
H5172 C5192 0.950 . S
H5173 C5193 0.950 . S
H5174 C5195 0.950 . S
H5175 C5198 0.950 . S
H5176 C5199 0.950 . S
H5177 C5201 0.950 . S
H5178 C5202 0.950 . S
H5179 C5203 0.951 . S
H5180 C5205 0.951 . S
H5181 C5207 0.950 . S
H5182 C5208 0.950 . S
H5183 C5210 0.950 . S
H5184 C5213 0.950 . S
H5185 C5214 0.950 . S
H5186 C5216 0.950 . S
H5187 C5217 0.950 . S
C5188 H5170 0.951 . S
C5188 C5189 1.366 . S
C5188 C5190 1.388 . S
C5189 C5188 1.366 . S
C5189 C5193 1.385 . S
C5190 H5171 0.951 . S
C5190 C5188 1.388 . S
C5190 C5191 1.366 . S
C5191 C5190 1.366 . S
C5191 C5192 1.414 . S
C5191 C5194 1.499 . S
C5192 H5172 0.950 . S
C5192 C5191 1.414 . S
C5192 C5193 1.374 . S
C5193 H5173 0.950 . S
C5193 C5189 1.385 . S
C5193 C5192 1.374 . S
C5194 C5191 1.499 . S
C5194 C5195 1.373 . S
C5194 C5196 1.389 . S
C5195 H5174 0.950 . S
C5195 C5194 1.373 . S
C5195 C5211 1.377 . S
C5196 C5194 1.389 . S
C5196 C5197 1.524 . S
C5196 C5210 1.377 . S
C5197 C5196 1.524 . S
C5197 C5198 1.397 . S
C5197 C5202 1.363 . S
C5198 H5175 0.950 . S
C5198 C5197 1.397 . S
C5198 C5199 1.334 . S
C5199 H5176 0.950 . S
C5199 C5198 1.334 . S
C5199 C5200 1.287 . S
C5200 C5199 1.287 . S
C5200 C5201 1.524 . S
C5200 H5219 0.913 . S
C5201 H5177 0.950 . S
C5201 C5200 1.524 . S
C5201 C5202 1.415 . S
C5202 H5178 0.950 . S
C5202 C5197 1.363 . S
C5202 C5201 1.415 . S
C5203 H5179 0.951 . S
C5203 C5204 1.366 . S
C5203 C5205 1.388 . S
C5204 C5203 1.366 . S
C5204 C5208 1.385 . S
C5205 H5180 0.951 . S
C5205 C5203 1.388 . S
C5205 C5206 1.366 . S
C5206 C5205 1.366 . S
C5206 C5207 1.414 . S
C5206 C5209 1.499 . S
C5207 H5181 0.950 . S
C5207 C5206 1.414 . S
C5207 C5208 1.374 . S
C5208 H5182 0.950 . S
C5208 C5204 1.385 . S
C5208 C5207 1.374 . S
C5209 C5206 1.499 . S
C5209 C5210 1.373 . S
C5209 C5211 1.389 . S
C5210 H5183 0.950 . S
C5210 C5196 1.377 . S
C5210 C5209 1.373 . S
C5211 C5195 1.377 . S
C5211 C5209 1.389 . S
C5211 C5212 1.524 . S
C5212 C5211 1.524 . S
C5212 C5213 1.397 . S
C5212 C5217 1.363 . S
C5213 H5184 0.950 . S
C5213 C5212 1.397 . S
C5213 C5214 1.334 . S
C5214 H5185 0.950 . S
C5214 C5213 1.334 . S
C5214 C5215 1.287 . S
C5215 C5214 1.287 . S
C5215 C5216 1.524 . S
C5215 H5218 0.999 . S
C5216 H5186 0.950 . S
C5216 C5215 1.524 . S
C5216 C5217 1.415 . S
C5217 H5187 0.950 . S
C5217 C5212 1.363 . S
C5217 C5216 1.415 . S
H5218 C5215 0.999 . S
H5219 C5200 0.913 . S
H5220 C5238 0.951 . S
H5221 C5240 0.951 . S
H5222 C5242 0.950 . S
H5223 C5243 0.950 . S
H5224 C5245 0.950 . S
H5225 C5248 0.950 . S
H5226 C5249 0.950 . S
H5227 C5251 0.950 . S
H5228 C5252 0.950 . S
H5229 C5253 0.951 . S
H5230 C5255 0.951 . S
H5231 C5257 0.950 . S
H5232 C5258 0.950 . S
H5233 C5260 0.950 . S
H5234 C5263 0.950 . S
H5235 C5264 0.950 . S
H5236 C5266 0.950 . S
H5237 C5267 0.950 . S
C5238 H5220 0.951 . S
C5238 C5239 1.366 . S
C5238 C5240 1.388 . S
C5239 C5238 1.366 . S
C5239 C5243 1.385 . S
C5240 H5221 0.951 . S
C5240 C5238 1.388 . S
C5240 C5241 1.366 . S
C5241 C5240 1.366 . S
C5241 C5242 1.414 . S
C5241 C5244 1.499 . S
C5242 H5222 0.950 . S
C5242 C5241 1.414 . S
C5242 C5243 1.374 . S
C5243 H5223 0.950 . S
C5243 C5239 1.385 . S
C5243 C5242 1.374 . S
C5244 C5241 1.499 . S
C5244 C5245 1.373 . S
C5244 C5246 1.389 . S
C5245 H5224 0.950 . S
C5245 C5244 1.373 . S
C5245 C5261 1.377 . S
C5246 C5244 1.389 . S
C5246 C5247 1.524 . S
C5246 C5260 1.377 . S
C5247 C5246 1.524 . S
C5247 C5248 1.397 . S
C5247 C5252 1.363 . S
C5248 H5225 0.950 . S
C5248 C5247 1.397 . S
C5248 C5249 1.334 . S
C5249 H5226 0.950 . S
C5249 C5248 1.334 . S
C5249 C5250 1.287 . S
C5250 C5249 1.287 . S
C5250 C5251 1.524 . S
C5250 H5269 0.913 . S
C5251 H5227 0.950 . S
C5251 C5250 1.524 . S
C5251 C5252 1.415 . S
C5252 H5228 0.950 . S
C5252 C5247 1.363 . S
C5252 C5251 1.415 . S
C5253 H5229 0.951 . S
C5253 C5254 1.366 . S
C5253 C5255 1.388 . S
C5254 C5253 1.366 . S
C5254 C5258 1.385 . S
C5255 H5230 0.951 . S
C5255 C5253 1.388 . S
C5255 C5256 1.366 . S
C5256 C5255 1.366 . S
C5256 C5257 1.414 . S
C5256 C5259 1.499 . S
C5257 H5231 0.950 . S
C5257 C5256 1.414 . S
C5257 C5258 1.374 . S
C5258 H5232 0.950 . S
C5258 C5254 1.385 . S
C5258 C5257 1.374 . S
C5259 C5256 1.499 . S
C5259 C5260 1.373 . S
C5259 C5261 1.389 . S
C5260 H5233 0.950 . S
C5260 C5246 1.377 . S
C5260 C5259 1.373 . S
C5261 C5245 1.377 . S
C5261 C5259 1.389 . S
C5261 C5262 1.524 . S
C5262 C5261 1.524 . S
C5262 C5263 1.397 . S
C5262 C5267 1.363 . S
C5263 H5234 0.950 . S
C5263 C5262 1.397 . S
C5263 C5264 1.334 . S
C5264 H5235 0.950 . S
C5264 C5263 1.334 . S
C5264 C5265 1.287 . S
C5265 C5264 1.287 . S
C5265 C5266 1.524 . S
C5265 H5268 0.999 . S
C5266 H5236 0.950 . S
C5266 C5265 1.524 . S
C5266 C5267 1.415 . S
C5267 H5237 0.950 . S
C5267 C5262 1.363 . S
C5267 C5266 1.415 . S
H5268 C5265 0.999 . S
H5269 C5250 0.913 . S
H5270 C5288 0.951 . S
H5271 C5290 0.951 . S
H5272 C5292 0.950 . S
H5273 C5293 0.950 . S
H5274 C5295 0.950 . S
H5275 C5298 0.950 . S
H5276 C5299 0.950 . S
H5277 C5301 0.950 . S
H5278 C5302 0.950 . S
H5279 C5303 0.951 . S
H5280 C5305 0.951 . S
H5281 C5307 0.950 . S
H5282 C5308 0.950 . S
H5283 C5310 0.950 . S
H5284 C5313 0.950 . S
H5285 C5314 0.950 . S
H5286 C5316 0.950 . S
H5287 C5317 0.950 . S
C5288 H5270 0.951 . S
C5288 C5289 1.366 . S
C5288 C5290 1.388 . S
C5289 C5288 1.366 . S
C5289 C5293 1.385 . S
C5290 H5271 0.951 . S
C5290 C5288 1.388 . S
C5290 C5291 1.366 . S
C5291 C5290 1.366 . S
C5291 C5292 1.414 . S
C5291 C5294 1.499 . S
C5292 H5272 0.950 . S
C5292 C5291 1.414 . S
C5292 C5293 1.374 . S
C5293 H5273 0.950 . S
C5293 C5289 1.385 . S
C5293 C5292 1.374 . S
C5294 C5291 1.499 . S
C5294 C5295 1.373 . S
C5294 C5296 1.389 . S
C5295 H5274 0.950 . S
C5295 C5294 1.373 . S
C5295 C5311 1.377 . S
C5296 C5294 1.389 . S
C5296 C5297 1.524 . S
C5296 C5310 1.377 . S
C5297 C5296 1.524 . S
C5297 C5298 1.397 . S
C5297 C5302 1.363 . S
C5298 H5275 0.950 . S
C5298 C5297 1.397 . S
C5298 C5299 1.334 . S
C5299 H5276 0.950 . S
C5299 C5298 1.334 . S
C5299 C5300 1.287 . S
C5300 C5299 1.287 . S
C5300 C5301 1.524 . S
C5300 H5319 0.913 . S
C5301 H5277 0.950 . S
C5301 C5300 1.524 . S
C5301 C5302 1.415 . S
C5302 H5278 0.950 . S
C5302 C5297 1.363 . S
C5302 C5301 1.415 . S
C5303 H5279 0.951 . S
C5303 C5304 1.366 . S
C5303 C5305 1.388 . S
C5304 C5303 1.366 . S
C5304 C5308 1.385 . S
C5305 H5280 0.951 . S
C5305 C5303 1.388 . S
C5305 C5306 1.366 . S
C5306 C5305 1.366 . S
C5306 C5307 1.414 . S
C5306 C5309 1.499 . S
C5307 H5281 0.950 . S
C5307 C5306 1.414 . S
C5307 C5308 1.374 . S
C5308 H5282 0.950 . S
C5308 C5304 1.385 . S
C5308 C5307 1.374 . S
C5309 C5306 1.499 . S
C5309 C5310 1.373 . S
C5309 C5311 1.389 . S
C5310 H5283 0.950 . S
C5310 C5296 1.377 . S
C5310 C5309 1.373 . S
C5311 C5295 1.377 . S
C5311 C5309 1.389 . S
C5311 C5312 1.524 . S
C5312 C5311 1.524 . S
C5312 C5313 1.397 . S
C5312 C5317 1.363 . S
C5313 H5284 0.950 . S
C5313 C5312 1.397 . S
C5313 C5314 1.334 . S
C5314 H5285 0.950 . S
C5314 C5313 1.334 . S
C5314 C5315 1.287 . S
C5315 C5314 1.287 . S
C5315 C5316 1.524 . S
C5315 H5318 0.999 . S
C5316 H5286 0.950 . S
C5316 C5315 1.524 . S
C5316 C5317 1.415 . S
C5317 H5287 0.950 . S
C5317 C5312 1.363 . S
C5317 C5316 1.415 . S
H5318 C5315 0.999 . S
H5319 C5300 0.913 . S
H5320 C5338 0.951 . S
H5321 C5340 0.951 . S
H5322 C5342 0.950 . S
H5323 C5343 0.950 . S
H5324 C5345 0.950 . S
H5325 C5348 0.950 . S
H5326 C5349 0.950 . S
H5327 C5351 0.950 . S
H5328 C5352 0.950 . S
H5329 C5353 0.951 . S
H5330 C5355 0.951 . S
H5331 C5357 0.950 . S
H5332 C5358 0.950 . S
H5333 C5360 0.950 . S
H5334 C5363 0.950 . S
H5335 C5364 0.950 . S
H5336 C5366 0.950 . S
H5337 C5367 0.950 . S
C5338 H5320 0.951 . S
C5338 C5339 1.366 . S
C5338 C5340 1.388 . S
C5339 C5338 1.366 . S
C5339 C5343 1.385 . S
C5340 H5321 0.951 . S
C5340 C5338 1.388 . S
C5340 C5341 1.366 . S
C5341 C5340 1.366 . S
C5341 C5342 1.414 . S
C5341 C5344 1.499 . S
C5342 H5322 0.950 . S
C5342 C5341 1.414 . S
C5342 C5343 1.374 . S
C5343 H5323 0.950 . S
C5343 C5339 1.385 . S
C5343 C5342 1.374 . S
C5344 C5341 1.499 . S
C5344 C5345 1.373 . S
C5344 C5346 1.389 . S
C5345 H5324 0.950 . S
C5345 C5344 1.373 . S
C5345 C5361 1.377 . S
C5346 C5344 1.389 . S
C5346 C5347 1.524 . S
C5346 C5360 1.377 . S
C5347 C5346 1.524 . S
C5347 C5348 1.397 . S
C5347 C5352 1.363 . S
C5348 H5325 0.950 . S
C5348 C5347 1.397 . S
C5348 C5349 1.334 . S
C5349 H5326 0.950 . S
C5349 C5348 1.334 . S
C5349 C5350 1.287 . S
C5350 C5349 1.287 . S
C5350 C5351 1.524 . S
C5350 H5369 0.913 . S
C5351 H5327 0.950 . S
C5351 C5350 1.524 . S
C5351 C5352 1.415 . S
C5352 H5328 0.950 . S
C5352 C5347 1.363 . S
C5352 C5351 1.415 . S
C5353 H5329 0.951 . S
C5353 C5354 1.366 . S
C5353 C5355 1.388 . S
C5354 C5353 1.366 . S
C5354 C5358 1.385 . S
C5355 H5330 0.951 . S
C5355 C5353 1.388 . S
C5355 C5356 1.366 . S
C5356 C5355 1.366 . S
C5356 C5357 1.414 . S
C5356 C5359 1.499 . S
C5357 H5331 0.950 . S
C5357 C5356 1.414 . S
C5357 C5358 1.374 . S
C5358 H5332 0.950 . S
C5358 C5354 1.385 . S
C5358 C5357 1.374 . S
C5359 C5356 1.499 . S
C5359 C5360 1.373 . S
C5359 C5361 1.389 . S
C5360 H5333 0.950 . S
C5360 C5346 1.377 . S
C5360 C5359 1.373 . S
C5361 C5345 1.377 . S
C5361 C5359 1.389 . S
C5361 C5362 1.524 . S
C5362 C5361 1.524 . S
C5362 C5363 1.397 . S
C5362 C5367 1.363 . S
C5363 H5334 0.950 . S
C5363 C5362 1.397 . S
C5363 C5364 1.334 . S
C5364 H5335 0.950 . S
C5364 C5363 1.334 . S
C5364 C5365 1.287 . S
C5365 C5364 1.287 . S
C5365 C5366 1.524 . S
C5365 H5368 0.999 . S
C5366 H5336 0.950 . S
C5366 C5365 1.524 . S
C5366 C5367 1.415 . S
C5367 H5337 0.950 . S
C5367 C5362 1.363 . S
C5367 C5366 1.415 . S
H5368 C5365 0.999 . S
H5369 C5350 0.913 . S
H5370 C5388 0.951 . S
H5371 C5390 0.951 . S
H5372 C5392 0.950 . S
H5373 C5393 0.950 . S
H5374 C5395 0.950 . S
H5375 C5398 0.950 . S
H5376 C5399 0.950 . S
H5377 C5401 0.950 . S
H5378 C5402 0.950 . S
H5379 C5403 0.951 . S
H5380 C5405 0.951 . S
H5381 C5407 0.950 . S
H5382 C5408 0.950 . S
H5383 C5410 0.950 . S
H5384 C5413 0.950 . S
H5385 C5414 0.950 . S
H5386 C5416 0.950 . S
H5387 C5417 0.950 . S
C5388 H5370 0.951 . S
C5388 C5389 1.366 . S
C5388 C5390 1.388 . S
C5389 C5388 1.366 . S
C5389 C5393 1.385 . S
C5390 H5371 0.951 . S
C5390 C5388 1.388 . S
C5390 C5391 1.366 . S
C5391 C5390 1.366 . S
C5391 C5392 1.414 . S
C5391 C5394 1.499 . S
C5392 H5372 0.950 . S
C5392 C5391 1.414 . S
C5392 C5393 1.374 . S
C5393 H5373 0.950 . S
C5393 C5389 1.385 . S
C5393 C5392 1.374 . S
C5394 C5391 1.499 . S
C5394 C5395 1.373 . S
C5394 C5396 1.389 . S
C5395 H5374 0.950 . S
C5395 C5394 1.373 . S
C5395 C5411 1.377 . S
C5396 C5394 1.389 . S
C5396 C5397 1.524 . S
C5396 C5410 1.377 . S
C5397 C5396 1.524 . S
C5397 C5398 1.397 . S
C5397 C5402 1.363 . S
C5398 H5375 0.950 . S
C5398 C5397 1.397 . S
C5398 C5399 1.334 . S
C5399 H5376 0.950 . S
C5399 C5398 1.334 . S
C5399 C5400 1.287 . S
C5400 C5399 1.287 . S
C5400 C5401 1.524 . S
C5400 H5419 0.913 . S
C5401 H5377 0.950 . S
C5401 C5400 1.524 . S
C5401 C5402 1.415 . S
C5402 H5378 0.950 . S
C5402 C5397 1.363 . S
C5402 C5401 1.415 . S
C5403 H5379 0.951 . S
C5403 C5404 1.366 . S
C5403 C5405 1.388 . S
C5404 C5403 1.366 . S
C5404 C5408 1.385 . S
C5405 H5380 0.951 . S
C5405 C5403 1.388 . S
C5405 C5406 1.366 . S
C5406 C5405 1.366 . S
C5406 C5407 1.414 . S
C5406 C5409 1.499 . S
C5407 H5381 0.950 . S
C5407 C5406 1.414 . S
C5407 C5408 1.374 . S
C5408 H5382 0.950 . S
C5408 C5404 1.385 . S
C5408 C5407 1.374 . S
C5409 C5406 1.499 . S
C5409 C5410 1.373 . S
C5409 C5411 1.389 . S
C5410 H5383 0.950 . S
C5410 C5396 1.377 . S
C5410 C5409 1.373 . S
C5411 C5395 1.377 . S
C5411 C5409 1.389 . S
C5411 C5412 1.524 . S
C5412 C5411 1.524 . S
C5412 C5413 1.397 . S
C5412 C5417 1.363 . S
C5413 H5384 0.950 . S
C5413 C5412 1.397 . S
C5413 C5414 1.334 . S
C5414 H5385 0.950 . S
C5414 C5413 1.334 . S
C5414 C5415 1.287 . S
C5415 C5414 1.287 . S
C5415 C5416 1.524 . S
C5415 H5418 0.999 . S
C5416 H5386 0.950 . S
C5416 C5415 1.524 . S
C5416 C5417 1.415 . S
C5417 H5387 0.950 . S
C5417 C5412 1.363 . S
C5417 C5416 1.415 . S
H5418 C5415 0.999 . S
H5419 C5400 0.913 . S
H5420 C5438 0.951 . S
H5421 C5440 0.951 . S
H5422 C5442 0.950 . S
H5423 C5443 0.950 . S
H5424 C5445 0.950 . S
H5425 C5448 0.950 . S
H5426 C5449 0.950 . S
H5427 C5451 0.950 . S
H5428 C5452 0.950 . S
H5429 C5453 0.951 . S
H5430 C5455 0.951 . S
H5431 C5457 0.950 . S
H5432 C5458 0.950 . S
H5433 C5460 0.950 . S
H5434 C5463 0.950 . S
H5435 C5464 0.950 . S
H5436 C5466 0.950 . S
H5437 C5467 0.950 . S
C5438 H5420 0.951 . S
C5438 C5439 1.366 . S
C5438 C5440 1.388 . S
C5439 C5438 1.366 . S
C5439 C5443 1.385 . S
C5440 H5421 0.951 . S
C5440 C5438 1.388 . S
C5440 C5441 1.366 . S
C5441 C5440 1.366 . S
C5441 C5442 1.414 . S
C5441 C5444 1.499 . S
C5442 H5422 0.950 . S
C5442 C5441 1.414 . S
C5442 C5443 1.374 . S
C5443 H5423 0.950 . S
C5443 C5439 1.385 . S
C5443 C5442 1.374 . S
C5444 C5441 1.499 . S
C5444 C5445 1.373 . S
C5444 C5446 1.389 . S
C5445 H5424 0.950 . S
C5445 C5444 1.373 . S
C5445 C5461 1.377 . S
C5446 C5444 1.389 . S
C5446 C5447 1.524 . S
C5446 C5460 1.377 . S
C5447 C5446 1.524 . S
C5447 C5448 1.397 . S
C5447 C5452 1.363 . S
C5448 H5425 0.950 . S
C5448 C5447 1.397 . S
C5448 C5449 1.334 . S
C5449 H5426 0.950 . S
C5449 C5448 1.334 . S
C5449 C5450 1.287 . S
C5450 C5449 1.287 . S
C5450 C5451 1.524 . S
C5450 H5469 0.913 . S
C5451 H5427 0.950 . S
C5451 C5450 1.524 . S
C5451 C5452 1.415 . S
C5452 H5428 0.950 . S
C5452 C5447 1.363 . S
C5452 C5451 1.415 . S
C5453 H5429 0.951 . S
C5453 C5454 1.366 . S
C5453 C5455 1.388 . S
C5454 C5453 1.366 . S
C5454 C5458 1.385 . S
C5455 H5430 0.951 . S
C5455 C5453 1.388 . S
C5455 C5456 1.366 . S
C5456 C5455 1.366 . S
C5456 C5457 1.414 . S
C5456 C5459 1.499 . S
C5457 H5431 0.950 . S
C5457 C5456 1.414 . S
C5457 C5458 1.374 . S
C5458 H5432 0.950 . S
C5458 C5454 1.385 . S
C5458 C5457 1.374 . S
C5459 C5456 1.499 . S
C5459 C5460 1.373 . S
C5459 C5461 1.389 . S
C5460 H5433 0.950 . S
C5460 C5446 1.377 . S
C5460 C5459 1.373 . S
C5461 C5445 1.377 . S
C5461 C5459 1.389 . S
C5461 C5462 1.524 . S
C5462 C5461 1.524 . S
C5462 C5463 1.397 . S
C5462 C5467 1.363 . S
C5463 H5434 0.950 . S
C5463 C5462 1.397 . S
C5463 C5464 1.334 . S
C5464 H5435 0.950 . S
C5464 C5463 1.334 . S
C5464 C5465 1.287 . S
C5465 C5464 1.287 . S
C5465 C5466 1.524 . S
C5465 H5468 0.999 . S
C5466 H5436 0.950 . S
C5466 C5465 1.524 . S
C5466 C5467 1.415 . S
C5467 H5437 0.950 . S
C5467 C5462 1.363 . S
C5467 C5466 1.415 . S
H5468 C5465 0.999 . S
H5469 C5450 0.913 . S
H5470 C5488 0.951 . S
H5471 C5490 0.951 . S
H5472 C5492 0.950 . S
H5473 C5493 0.950 . S
H5474 C5495 0.950 . S
H5475 C5498 0.950 . S
H5476 C5499 0.950 . S
H5477 C5501 0.950 . S
H5478 C5502 0.950 . S
H5479 C5503 0.951 . S
H5480 C5505 0.951 . S
H5481 C5507 0.950 . S
H5482 C5508 0.950 . S
H5483 C5510 0.950 . S
H5484 C5513 0.950 . S
H5485 C5514 0.950 . S
H5486 C5516 0.950 . S
H5487 C5517 0.950 . S
C5488 H5470 0.951 . S
C5488 C5489 1.366 . S
C5488 C5490 1.388 . S
C5489 C5488 1.366 . S
C5489 C5493 1.385 . S
C5490 H5471 0.951 . S
C5490 C5488 1.388 . S
C5490 C5491 1.366 . S
C5491 C5490 1.366 . S
C5491 C5492 1.414 . S
C5491 C5494 1.499 . S
C5492 H5472 0.950 . S
C5492 C5491 1.414 . S
C5492 C5493 1.374 . S
C5493 H5473 0.950 . S
C5493 C5489 1.385 . S
C5493 C5492 1.374 . S
C5494 C5491 1.499 . S
C5494 C5495 1.373 . S
C5494 C5496 1.389 . S
C5495 H5474 0.950 . S
C5495 C5494 1.373 . S
C5495 C5511 1.377 . S
C5496 C5494 1.389 . S
C5496 C5497 1.524 . S
C5496 C5510 1.377 . S
C5497 C5496 1.524 . S
C5497 C5498 1.397 . S
C5497 C5502 1.363 . S
C5498 H5475 0.950 . S
C5498 C5497 1.397 . S
C5498 C5499 1.334 . S
C5499 H5476 0.950 . S
C5499 C5498 1.334 . S
C5499 C5500 1.287 . S
C5500 C5499 1.287 . S
C5500 C5501 1.524 . S
C5500 H5519 0.913 . S
C5501 H5477 0.950 . S
C5501 C5500 1.524 . S
C5501 C5502 1.415 . S
C5502 H5478 0.950 . S
C5502 C5497 1.363 . S
C5502 C5501 1.415 . S
C5503 H5479 0.951 . S
C5503 C5504 1.366 . S
C5503 C5505 1.388 . S
C5504 C5503 1.366 . S
C5504 C5508 1.385 . S
C5505 H5480 0.951 . S
C5505 C5503 1.388 . S
C5505 C5506 1.366 . S
C5506 C5505 1.366 . S
C5506 C5507 1.414 . S
C5506 C5509 1.499 . S
C5507 H5481 0.950 . S
C5507 C5506 1.414 . S
C5507 C5508 1.374 . S
C5508 H5482 0.950 . S
C5508 C5504 1.385 . S
C5508 C5507 1.374 . S
C5509 C5506 1.499 . S
C5509 C5510 1.373 . S
C5509 C5511 1.389 . S
C5510 H5483 0.950 . S
C5510 C5496 1.377 . S
C5510 C5509 1.373 . S
C5511 C5495 1.377 . S
C5511 C5509 1.389 . S
C5511 C5512 1.524 . S
C5512 C5511 1.524 . S
C5512 C5513 1.397 . S
C5512 C5517 1.363 . S
C5513 H5484 0.950 . S
C5513 C5512 1.397 . S
C5513 C5514 1.334 . S
C5514 H5485 0.950 . S
C5514 C5513 1.334 . S
C5514 C5515 1.287 . S
C5515 C5514 1.287 . S
C5515 C5516 1.524 . S
C5515 H5518 0.999 . S
C5516 H5486 0.950 . S
C5516 C5515 1.524 . S
C5516 C5517 1.415 . S
C5517 H5487 0.950 . S
C5517 C5512 1.363 . S
C5517 C5516 1.415 . S
H5518 C5515 0.999 . S
H5519 C5500 0.913 . S
C1939 C1762 1.520 . S
C1954 C2 1.523 . S
C1989 C1642 1.565 . S
C2004 C61 1.604 . S
C2039 C1701 1.646 . S
C2054 C82 1.603 . S
C2089 C122 1.565 . S
C2104 C1741 1.604 . S
C2139 C181 1.563 . S
C2154 C1882 1.528 . S
C2189 C202 1.566 . S
C2204 C1821 1.605 . S
C2239 C1861 1.655 . S
C2254 C261 1.655 . S
C2289 C301 1.605 . S
C2304 C1602 1.565 . S
C2339 C341 1.645 . S
C2354 C1581 1.645 . S
C2389 C1461 1.657 . S
C2404 C362 1.612 . S
C2439 C402 1.520 . S
C2454 C1501 1.553 . S
C2489 C1522 1.528 . S
C2504 C442 1.529 . S
C2539 C1322 1.611 . S
C2554 C501 1.657 . S
C2589 C541 1.553 . S
C2604 C1362 1.519 . S
C2639 C1402 1.529 . S
C2654 C562 1.528 . S
C2689 C621 1.645 . S
C2704 C1301 1.645 . S
C2739 C1261 1.605 . S
C2754 C642 1.565 . S
C2789 C682 1.565 . S
C2804 C1021 1.604 . S
C2839 C741 1.646 . S
C2854 C1042 1.603 . S
C2889 C1082 1.566 . S
C2904 C781 1.604 . S
C2939 C802 1.519 . S
C2954 C962 1.522 . S
C2989 C861 1.605 . S
C3004 C1162 1.565 . S
C3039 C1221 1.655 . S
C3054 C901 1.655 . S
C3089 C922 1.528 . S
C3104 C1141 1.563 . S
C3139 C602 1.640 . S
C3154 C1621 1.608 . S
C3189 C1901 1.570 . S
C3204 C482 1.598 . S
C3239 C1802 1.549 . S
C3254 C522 1.550 . S
C3289 C1842 1.598 . S
C3304 C581 1.570 . S
C3339 C1661 1.616 . S
C3354 C381 1.613 . S
C3389 C1682 1.599 . S
C3404 C421 1.570 . S
C3439 C461 1.531 . S
C3454 C1722 1.558 . S
C3489 C322 1.599 . S
C3504 C1781 1.570 . S
C3539 C981 1.524 . S
C3554 C282 1.549 . S
C3589 C162 1.559 . S
C3604 C1002 1.558 . S
C3639 C1061 1.605 . S
C3654 C221 1.605 . S
C3689 C1101 1.618 . S
C3704 C242 1.651 . S
C3739 C42 1.558 . S
C3754 C1122 1.559 . S
C3789 C1181 1.606 . S
C3804 C101 1.606 . S
C3839 C141 1.618 . S
C3854 C1202 1.650 . S
C3889 C21 1.525 . S
C3904 C1242 1.549 . S
C3939 C821 1.570 . S
C3954 C1282 1.599 . S
C3989 C1442 1.598 . S
C4004 C941 1.570 . S
C4039 C1482 1.549 . S
C4054 C842 1.549 . S
C4089 C1541 1.569 . S
C4104 C882 1.598 . S
C4139 C661 1.607 . S
C4154 C1562 1.640 . S
C4189 C722 1.599 . S
C4204 C1381 1.570 . S
C4239 C762 1.558 . S
C4254 C1421 1.532 . S
C4289 C701 1.616 . S
C4304 C1341 1.613 . S
C4339 C375 1.560 . S
C4354 C15 1.564 . S
C4389 C55 1.545 . S
C4404 C415 1.544 . S
C4439 C95 1.558 . S
C4454 C455 1.560 . S
C4489 C335 1.577 . S
C4504 C135 1.575 . S
C4539 C175 1.562 . S
C4554 C615 1.560 . S
C4589 C495 1.577 . S
C4604 C215 1.575 . S
C4639 C255 1.563 . S
C4654 C535 1.565 . S
C4689 C295 1.545 . S
C4704 C575 1.544 . S
C4739 C735 1.577 . S
C4754 C655 1.575 . S
C4789 C695 1.575 . S
C4804 C895 1.577 . S
C4839 C935 1.544 . S
C4854 C775 1.546 . S
C4889 C855 1.545 . S
C4904 C815 1.543 . S
C4939 C1335 1.560 . S
C4954 C975 1.564 . S
C4989 C1375 1.544 . S
C5004 C1015 1.545 . S
C5039 C1415 1.561 . S
C5054 C1055 1.558 . S
C5089 C1295 1.577 . S
C5104 C1095 1.575 . S
C5139 C1575 1.560 . S
C5154 C1135 1.562 . S
C5189 C1455 1.577 . S
C5204 C1175 1.575 . S
C5239 C1495 1.565 . S
C5254 C1215 1.563 . S
C5289 C1535 1.544 . S
C5304 C1255 1.545 . S
C5339 C1695 1.576 . S
C5354 C1615 1.575 . S
C5389 C1855 1.577 . S
C5404 C1655 1.575 . S
C5439 C1735 1.546 . S
C5454 C1895 1.545 . S
C5489 C1815 1.544 . S
C5504 C1775 1.543 . S
