# Generated by pormake.
# Topology wjh, (4)-cn, num edge types: 1
# Building blocks:
#     Node 0, Type 0, BuildingBlock: UXUYUI_clean_sbu_0, # of connection points: 4
#     Node 1, Type 0, BuildingBlock: UXUYUI_clean_sbu_0, # of connection points: 4
#     Node 2, Type 0, BuildingBlock: UXUYUI_clean_sbu_0, # of connection points: 4
#     Node 3, Type 0, BuildingBlock: UXUYUI_clean_sbu_0, # of connection points: 4
#     Node 4, Type 0, BuildingBlock: UXUYUI_clean_sbu_0, # of connection points: 4
#     Node 5, Type 0, BuildingBlock: UXUYUI_clean_sbu_0, # of connection points: 4
#     Node 6, Type 0, BuildingBlock: UXUYUI_clean_sbu_0, # of connection points: 4
#     Node 7, Type 0, BuildingBlock: UXUYUI_clean_sbu_0, # of connection points: 4
#     Node 8, Type 0, BuildingBlock: UXUYUI_clean_sbu_0, # of connection points: 4
#     Node 9, Type 0, BuildingBlock: UXUYUI_clean_sbu_0, # of connection points: 4
#     Node 10, Type 0, BuildingBlock: UXUYUI_clean_sbu_0, # of connection points: 4
#     Node 11, Type 0, BuildingBlock: UXUYUI_clean_sbu_0, # of connection points: 4
#     Edge 12, Type (0, 0), BuildingBlock: EZIPEK_clean_linker_0, # of connection points: 2
#     Edge 13, Type (0, 0), BuildingBlock: EZIPEK_clean_linker_0, # of connection points: 2
#     Edge 14, Type (0, 0), BuildingBlock: EZIPEK_clean_linker_0, # of connection points: 2
#     Edge 15, Type (0, 0), BuildingBlock: EZIPEK_clean_linker_0, # of connection points: 2
#     Edge 16, Type (0, 0), BuildingBlock: EZIPEK_clean_linker_0, # of connection points: 2
#     Edge 17, Type (0, 0), BuildingBlock: EZIPEK_clean_linker_0, # of connection points: 2
#     Edge 18, Type (0, 0), BuildingBlock: EZIPEK_clean_linker_0, # of connection points: 2
#     Edge 19, Type (0, 0), BuildingBlock: EZIPEK_clean_linker_0, # of connection points: 2
#     Edge 20, Type (0, 0), BuildingBlock: EZIPEK_clean_linker_0, # of connection points: 2
#     Edge 21, Type (0, 0), BuildingBlock: EZIPEK_clean_linker_0, # of connection points: 2
#     Edge 22, Type (0, 0), BuildingBlock: EZIPEK_clean_linker_0, # of connection points: 2
#     Edge 23, Type (0, 0), BuildingBlock: EZIPEK_clean_linker_0, # of connection points: 2
#     Edge 24, Type (0, 0), BuildingBlock: EZIPEK_clean_linker_0, # of connection points: 2
#     Edge 25, Type (0, 0), BuildingBlock: EZIPEK_clean_linker_0, # of connection points: 2
#     Edge 26, Type (0, 0), BuildingBlock: EZIPEK_clean_linker_0, # of connection points: 2
#     Edge 27, Type (0, 0), BuildingBlock: EZIPEK_clean_linker_0, # of connection points: 2
#     Edge 28, Type (0, 0), BuildingBlock: EZIPEK_clean_linker_0, # of connection points: 2
#     Edge 29, Type (0, 0), BuildingBlock: EZIPEK_clean_linker_0, # of connection points: 2
#     Edge 30, Type (0, 0), BuildingBlock: EZIPEK_clean_linker_0, # of connection points: 2
#     Edge 31, Type (0, 0), BuildingBlock: EZIPEK_clean_linker_0, # of connection points: 2
#     Edge 32, Type (0, 0), BuildingBlock: EZIPEK_clean_linker_0, # of connection points: 2
#     Edge 33, Type (0, 0), BuildingBlock: EZIPEK_clean_linker_0, # of connection points: 2
#     Edge 34, Type (0, 0), BuildingBlock: EZIPEK_clean_linker_0, # of connection points: 2
#     Edge 35, Type (0, 0), BuildingBlock: EZIPEK_clean_linker_0, # of connection points: 2
# Relax obj value: 0.245
# Max RMSD: 0.173
# Mean RMSD: 0.173
data_MOF--net-wjh--node1-UXUYUI_clean_sbu_0--edge1-EZIPEK_clean_linker_0
_symmetry_space_group_name_H-M    P1
_symmetry_Int_Tables_number       1
_symmetry_cell_setting            triclinic
loop_
_symmetry_equiv_pos_as_xyz
'x, y, z'
_cell_length_a     74.2729
_cell_length_b     74.288489
_cell_length_c     29.541012
_cell_angle_alpha  90.002199
_cell_angle_beta   89.997747
_cell_angle_gamma 119.9863
loop_
_atom_site_label
_atom_site_type_symbol
_atom_site_fract_x
_atom_site_fract_y
_atom_site_fract_z
_atom_type_partial_charge
Li0 Li 0.4749 0.11335 0.05951 0.0
Li1 Li 0.50636 0.13114 0.1044 0.0
Li2 Li 0.48974 0.14995 0.07311 0.0
Li3 Li 0.50733 0.13754 0.02291 0.0
C4 C 0.46978 0.11305 0.1532 0.0
N5 N 0.45241 0.08454 0.22273 0.0
C6 C 0.4714 0.09509 0.15332 0.0
C7 C 0.45928 0.11647 0.1884 0.0
C8 C 0.46255 0.08089 0.1888 0.0
C9 C 0.4506 0.10188 0.22324 0.0
C10 C 0.51522 0.10557 0.05095 0.0
C11 C 0.55118 0.1147 0.04508 0.0
N12 N 0.54529 0.09417 0.04458 0.0
C13 C 0.50951 0.08457 0.05036 0.0
C14 C 0.53621 0.12077 0.04837 0.0
C15 C 0.52495 0.07912 0.04716 0.0
C16 C 0.45285 0.07342 0.02653 0.0
N17 N 0.45057 0.08713 0.05287 0.0
C18 C 0.41781 0.06021 0.0802 0.0
C19 C 0.43318 0.08117 0.07819 0.0
C20 C 0.42063 0.0456 0.05589 0.0
C21 C 0.43795 0.05239 0.02758 0.0
H22 H 0.46691 0.07866 0.00695 0.0
H23 H 0.43188 0.0924 0.09915 0.0
C24 C 0.52877 0.14734 0.18325 0.0
N25 N 0.5212 0.13043 0.15577 0.0
C26 C 0.53942 0.14816 0.22274 0.0
C27 C 0.53403 0.11398 0.20523 0.0
C28 C 0.5235 0.11383 0.16599 0.0
C29 C 0.54207 0.13131 0.2339 0.0
H30 H 0.52641 0.16015 0.17445 0.0
H31 H 0.51694 0.10038 0.14415 0.0
C32 C 0.46082 0.13369 0.00371 0.0
N33 N 0.42313 0.1307 0.98299 0.0
C34 C 0.45549 0.1344 0.95865 0.0
C35 C 0.44697 0.13145 0.03826 0.0
C36 C 0.43636 0.13286 0.94886 0.0
C37 C 0.428 0.12997 0.02708 0.0
C38 C 0.53736 0.17621 0.06974 0.0
C39 C 0.53767 0.19337 0.04952 0.0
C40 C 0.55573 0.17818 0.08742 0.0
C41 C 0.55639 0.2122 0.04704 0.0
C42 C 0.57414 0.19726 0.08422 0.0
N43 N 0.57409 0.21373 0.06428 0.0
C44 C 0.48518 0.17578 0.13292 0.0
C45 C 0.48372 0.18459 0.05627 0.0
C46 C 0.48393 0.19289 0.14792 0.0
N47 N 0.48529 0.17213 0.08789 0.0
C48 C 0.48269 0.20208 0.0698 0.0
C49 C 0.48308 0.20643 0.11613 0.0
H50 H 0.48667 0.16569 0.15713 0.0
H51 H 0.484 0.18133 0.02066 0.0
C52 C 0.51697 0.12446 0.94335 0.0
N53 N 0.5232 0.14172 0.96923 0.0
C54 C 0.52832 0.12516 0.90511 0.0
C55 C 0.55203 0.16157 0.92002 0.0
C56 C 0.54025 0.16015 0.95814 0.0
C57 C 0.54614 0.14386 0.89345 0.0
H58 H 0.50338 0.11001 0.95307 0.0
H59 H 0.54495 0.17366 0.97902 0.0
O60 O 0.4784 0.12732 0.11903 0.0
O61 O 0.50023 0.11107 0.05435 0.0
O62 O 0.47953 0.1352 0.01357 0.0
O63 O 0.51913 0.15771 0.07311 0.0
H64 H 0.47933 0.09205 0.1263 0.0
H65 H 0.45782 0.13026 0.18876 0.0
H66 H 0.46372 0.06695 0.18933 0.0
H67 H 0.44242 0.10433 0.25069 0.0
H68 H 0.56749 0.12631 0.04293 0.0
H69 H 0.49332 0.0726 0.05263 0.0
H70 H 0.54089 0.13706 0.0487 0.0
H71 H 0.52076 0.06292 0.04677 0.0
H72 H 0.40464 0.05529 0.10266 0.0
H73 H 0.44053 0.04138 0.0087 0.0
H74 H 0.54543 0.16169 0.24447 0.0
H75 H 0.53578 0.10071 0.21335 0.0
H76 H 0.46604 0.13613 0.93153 0.0
H77 H 0.45079 0.13092 0.07333 0.0
H78 H 0.43204 0.13339 0.91412 0.0
H79 H 0.41716 0.12825 0.05347 0.0
H80 H 0.52367 0.1921 0.03535 0.0
H81 H 0.55579 0.16513 0.10352 0.0
H82 H 0.55686 0.22558 0.03132 0.0
H83 H 0.58846 0.19898 0.09768 0.0
H84 H 0.48434 0.19596 0.18387 0.0
H85 H 0.48215 0.21238 0.04458 0.0
H86 H 0.52343 0.11125 0.88513 0.0
H87 H 0.56572 0.17622 0.91166 0.0
Li88 Li 0.37667 0.51053 0.28062 0.0
Li89 Li 0.36588 0.47914 0.23714 0.0
Li90 Li 0.37147 0.51054 0.19775 0.0
Li91 Li 0.34124 0.49053 0.24558 0.0
C92 C 0.41167 0.52285 0.22627 0.0
N93 N 0.45085 0.55674 0.21324 0.0
C94 C 0.42823 0.51994 0.21426 0.0
C95 C 0.41502 0.54299 0.23174 0.0
C96 C 0.44794 0.53728 0.20787 0.0
C97 C 0.43494 0.55992 0.22492 0.0
C98 C 0.3505 0.46501 0.31736 0.0
C99 C 0.33035 0.42807 0.33029 0.0
N100 N 0.34437 0.42973 0.36204 0.0
C101 C 0.36463 0.46641 0.35035 0.0
C102 C 0.33313 0.44575 0.30744 0.0
C103 C 0.36127 0.44837 0.3725 0.0
C104 C 0.38223 0.53409 0.35817 0.0
N105 N 0.39128 0.52575 0.33207 0.0
C106 C 0.41989 0.53768 0.38312 0.0
C107 C 0.40969 0.52723 0.34369 0.0
C108 C 0.41087 0.54642 0.41056 0.0
C109 C 0.39189 0.54467 0.39786 0.0
H110 H 0.36736 0.53224 0.34838 0.0
H111 H 0.41626 0.52003 0.32271 0.0
C112 C 0.3594 0.43916 0.20988 0.0
N113 N 0.37086 0.4566 0.23495 0.0
C114 C 0.36484 0.42365 0.20856 0.0
C115 C 0.39333 0.44428 0.25965 0.0
C116 C 0.38749 0.45938 0.25965 0.0
C117 C 0.38209 0.42635 0.23349 0.0
H118 H 0.34636 0.43749 0.1903 0.0
H119 H 0.39637 0.47354 0.2789 0.0
C120 C 0.3557 0.53575 0.23627 0.0
N121 N 0.34548 0.56574 0.21485 0.0
C122 C 0.34097 0.53193 0.20272 0.0
C123 C 0.36538 0.55488 0.25867 0.0
C124 C 0.33594 0.54726 0.19249 0.0
C125 C 0.35999 0.56984 0.24738 0.0
C126 C 0.33132 0.47281 0.1624 0.0
C127 C 0.32968 0.48393 0.126 0.0
C128 C 0.31507 0.45275 0.1716 0.0
C129 C 0.31163 0.47486 0.0997 0.0
C130 C 0.29727 0.44424 0.14452 0.0
N131 N 0.29593 0.45538 0.10946 0.0
C132 C 0.38941 0.5181 0.11229 0.0
C133 C 0.38745 0.54688 0.14112 0.0
C134 C 0.4003 0.52956 0.07432 0.0
N135 N 0.38334 0.52691 0.1448 0.0
C136 C 0.39811 0.55883 0.1035 0.0
C137 C 0.40487 0.55021 0.06999 0.0
H138 H 0.38626 0.50233 0.11657 0.0
H139 H 0.38312 0.55383 0.1679 0.0
C140 C 0.30919 0.48095 0.30486 0.0
N141 N 0.31333 0.48324 0.2597 0.0
C142 C 0.29044 0.47828 0.32131 0.0
C143 C 0.28011 0.47972 0.24437 0.0
C144 C 0.29914 0.48242 0.22935 0.0
C145 C 0.2759 0.47805 0.29089 0.0
H146 H 0.32084 0.48204 0.32839 0.0
H147 H 0.3028 0.48469 0.19377 0.0
O148 O 0.39225 0.50599 0.23186 0.0
O149 O 0.35379 0.48238 0.29447 0.0
O150 O 0.361 0.52107 0.24669 0.0
O151 O 0.34896 0.48132 0.18818 0.0
H152 H 0.42586 0.50443 0.20985 0.0
H153 H 0.4024 0.54555 0.24098 0.0
H154 H 0.46091 0.53526 0.19857 0.0
H155 H 0.43774 0.5756 0.22888 0.0
H156 H 0.31706 0.41303 0.32274 0.0
H157 H 0.37814 0.48122 0.35841 0.0
H158 H 0.32203 0.44448 0.28212 0.0
H159 H 0.37214 0.44917 0.3979 0.0
H160 H 0.43449 0.53873 0.39245 0.0
H161 H 0.38457 0.5512 0.4187 0.0
H162 H 0.35607 0.41 0.18768 0.0
H163 H 0.40685 0.44681 0.27878 0.0
H164 H 0.33372 0.51743 0.18436 0.0
H165 H 0.37708 0.55823 0.28422 0.0
H166 H 0.32455 0.5445 0.1666 0.0
H167 H 0.36738 0.58472 0.26441 0.0
H168 H 0.34216 0.49942 0.11822 0.0
H169 H 0.31615 0.4439 0.19949 0.0
H170 H 0.3101 0.48332 0.07157 0.0
H171 H 0.28453 0.42877 0.15138 0.0
H172 H 0.40546 0.52257 0.04904 0.0
H173 H 0.40159 0.5748 0.10113 0.0
H174 H 0.28763 0.47725 0.35745 0.0
H175 H 0.26919 0.47984 0.22024 0.0
Li176 Li 0.88685 0.36425 0.39899 0.0
Li177 Li 0.86395 0.3735 0.43484 0.0
Li178 Li 0.84978 0.33959 0.40766 0.0
Li179 Li 0.86076 0.36978 0.35432 0.0
C180 C 0.87658 0.33852 0.47092 0.0
N181 N 0.88774 0.31026 0.50159 0.0
C182 C 0.88284 0.33918 0.51583 0.0
C183 C 0.87615 0.32353 0.44158 0.0
C184 C 0.88839 0.32476 0.53069 0.0
C185 C 0.88178 0.30936 0.45774 0.0
C186 C 0.89426 0.40995 0.40274 0.0
C187 C 0.89906 0.44441 0.39511 0.0
N188 N 0.91186 0.45065 0.43175 0.0
C189 C 0.9076 0.41675 0.44008 0.0
C190 C 0.89001 0.4239 0.37988 0.0
C191 C 0.91628 0.43737 0.45435 0.0
C192 C 0.92247 0.36584 0.35933 0.0
N193 N 0.91415 0.36865 0.39785 0.0
C194 C 0.94672 0.38281 0.43603 0.0
C195 C 0.92562 0.37642 0.43613 0.0
C196 C 0.95595 0.38101 0.39623 0.0
C197 C 0.94354 0.3718 0.35788 0.0
H198 H 0.91294 0.35973 0.32936 0.0
H199 H 0.91851 0.37837 0.46627 0.0
C200 C 0.8625 0.38139 0.52659 0.0
N201 N 0.86217 0.38892 0.48486 0.0
C202 C 0.86171 0.39165 0.56534 0.0
C203 C 0.85954 0.41695 0.51759 0.0
C204 C 0.86053 0.40626 0.47971 0.0
C205 C 0.86034 0.40968 0.56087 0.0
H206 H 0.86335 0.36737 0.52979 0.0
H207 H 0.85998 0.41183 0.44631 0.0
C208 C 0.85853 0.33176 0.31752 0.0
N209 N 0.84138 0.30266 0.24908 0.0
C210 C 0.84086 0.32898 0.29461 0.0
C211 C 0.86752 0.3198 0.30559 0.0
C212 C 0.83242 0.31419 0.26007 0.0
C213 C 0.85858 0.30513 0.27095 0.0
C214 C 0.82562 0.36431 0.41999 0.0
C215 C 0.81461 0.35412 0.45904 0.0
C216 C 0.82427 0.38119 0.40322 0.0
C217 C 0.80258 0.36112 0.48094 0.0
C218 C 0.812 0.38767 0.42599 0.0
N219 N 0.80153 0.37761 0.46409 0.0
C220 C 0.82468 0.30882 0.46752 0.0
C221 C 0.81861 0.29613 0.39216 0.0
C222 C 0.80848 0.29002 0.48339 0.0
N223 N 0.8292 0.3117 0.42256 0.0
C224 C 0.80221 0.277 0.4066 0.0
C225 C 0.79685 0.27407 0.45258 0.0
H226 H 0.83323 0.32146 0.49099 0.0
H227 H 0.82236 0.29861 0.35668 0.0
C228 C 0.87452 0.39252 0.27425 0.0
N229 N 0.85708 0.38046 0.29883 0.0
C230 C 0.87351 0.40269 0.23547 0.0
C231 C 0.83646 0.38732 0.24719 0.0
C232 C 0.83818 0.37741 0.28578 0.0
C233 C 0.85435 0.40034 0.22212 0.0
H234 H 0.88932 0.39469 0.28564 0.0
H235 H 0.82454 0.36763 0.30583 0.0
O236 O 0.87139 0.3528 0.45593 0.0
O237 O 0.88548 0.3898 0.38842 0.0
O238 O 0.86732 0.34642 0.35084 0.0
O239 O 0.83776 0.35789 0.39849 0.0
H240 H 0.88356 0.3508 0.53898 0.0
H241 H 0.87146 0.32272 0.40676 0.0
H242 H 0.89326 0.32512 0.56535 0.0
H243 H 0.88144 0.29766 0.43538 0.0
H244 H 0.89582 0.45534 0.37791 0.0
H245 H 0.91095 0.40615 0.45831 0.0
H246 H 0.87966 0.41889 0.35105 0.0
H247 H 0.92647 0.44279 0.48346 0.0
H248 H 0.95594 0.38985 0.46611 0.0
H249 H 0.95032 0.37027 0.32669 0.0
H250 H 0.8622 0.38564 0.59845 0.0
H251 H 0.85836 0.4308 0.51327 0.0
H252 H 0.83349 0.33781 0.30397 0.0
H253 H 0.88125 0.32182 0.32291 0.0
H254 H 0.81869 0.3118 0.24218 0.0
H255 H 0.86535 0.29573 0.26141 0.0
H256 H 0.81547 0.34108 0.47259 0.0
H257 H 0.83298 0.38955 0.3736 0.0
H258 H 0.7941 0.35346 0.51137 0.0
H259 H 0.81095 0.40082 0.41358 0.0
H260 H 0.80456 0.28818 0.51905 0.0
H261 H 0.79335 0.26491 0.3821 0.0
H262 H 0.88755 0.41266 0.21665 0.0
H263 H 0.82146 0.38521 0.23747 0.0
Li264 Li 0.52068 0.8844 0.56398 0.0
Li265 Li 0.48936 0.86229 0.60787 0.0
Li266 Li 0.50852 0.84748 0.56884 0.0
Li267 Li 0.48969 0.85985 0.52358 0.0
C268 C 0.52818 0.87279 0.65787 0.0
N269 N 0.54964 0.88292 0.73886 0.0
C270 C 0.52593 0.88576 0.68883 0.0
C271 C 0.54135 0.86497 0.6681 0.0
C272 C 0.5369 0.89069 0.7296 0.0
C273 C 0.55208 0.87028 0.70921 0.0
C274 C 0.49638 0.90274 0.55993 0.0
C275 C 0.49653 0.93064 0.51788 0.0
N276 N 0.50335 0.94288 0.55538 0.0
C277 C 0.50329 0.91555 0.59812 0.0
C278 C 0.49283 0.91027 0.51953 0.0
C279 C 0.50674 0.9358 0.59512 0.0
C280 C 0.54456 0.92439 0.52779 0.0
N281 N 0.54391 0.91201 0.56238 0.0
C282 C 0.57265 0.94075 0.59869 0.0
C283 C 0.55808 0.91958 0.59658 0.0
C284 C 0.57226 0.95408 0.56567 0.0
C285 C 0.55853 0.94571 0.52909 0.0
H286 H 0.53346 0.91785 0.50043 0.0
H287 H 0.55764 0.90942 0.62313 0.0
C288 C 0.47459 0.84956 0.69611 0.0
N289 N 0.47412 0.86074 0.66015 0.0
C290 C 0.4647 0.84932 0.73646 0.0
C291 C 0.45371 0.87172 0.70148 0.0
C292 C 0.46379 0.87152 0.66182 0.0
C293 C 0.45431 0.86067 0.73933 0.0
H294 H 0.48299 0.84118 0.69363 0.0
H295 H 0.46363 0.88018 0.63256 0.0
C296 C 0.538 0.86919 0.50152 0.0
N297 N 0.57708 0.87661 0.47749 0.0
C298 C 0.54223 0.86658 0.45668 0.0
C299 C 0.55366 0.87561 0.53415 0.0
C300 C 0.56208 0.87039 0.4452 0.0
C301 C 0.57331 0.87928 0.52133 0.0
C302 C 0.46783 0.81802 0.54739 0.0
C303 C 0.47616 0.81483 0.50778 0.0
C304 C 0.44922 0.80194 0.56481 0.0
C305 C 0.46566 0.79554 0.48618 0.0
C306 C 0.43919 0.78288 0.54219 0.0
N307 N 0.44755 0.7801 0.50368 0.0
C308 C 0.50443 0.81443 0.6161 0.0
C309 C 0.52914 0.82305 0.55719 0.0
C310 C 0.50767 0.79849 0.63085 0.0
N311 N 0.51511 0.82632 0.58001 0.0
C312 C 0.53316 0.80743 0.57137 0.0
C313 C 0.52224 0.79495 0.60852 0.0
H314 H 0.49346 0.81751 0.63363 0.0
H315 H 0.53729 0.83252 0.52829 0.0
C316 C 0.48265 0.86449 0.43171 0.0
N317 N 0.47321 0.85588 0.47169 0.0
C318 C 0.47073 0.86323 0.39399 0.0
C319 C 0.43966 0.84384 0.43916 0.0
C320 C 0.45217 0.84558 0.47607 0.0
C321 C 0.44902 0.853 0.39781 0.0
H322 H 0.49943 0.87277 0.42952 0.0
H323 H 0.44515 0.83909 0.50849 0.0
O324 O 0.51752 0.86767 0.61781 0.0
O325 O 0.49296 0.88288 0.56207 0.0
O326 O 0.51863 0.86561 0.51293 0.0
O327 O 0.47784 0.83673 0.56935 0.0
H328 H 0.5158 0.89194 0.68152 0.0
H329 H 0.54335 0.85497 0.64447 0.0
H330 H 0.53527 0.90068 0.7539 0.0
H331 H 0.56234 0.86436 0.71754 0.0
H332 H 0.49396 0.93671 0.48677 0.0
H333 H 0.50604 0.90995 0.62966 0.0
H334 H 0.48741 0.90052 0.48971 0.0
H335 H 0.51211 0.9459 0.62439 0.0
H336 H 0.58325 0.94685 0.62712 0.0
H337 H 0.55804 0.95567 0.50291 0.0
H338 H 0.46534 0.84063 0.76525 0.0
H339 H 0.44572 0.88055 0.70287 0.0
H340 H 0.53027 0.86164 0.43102 0.0
H341 H 0.55069 0.87759 0.56903 0.0
H342 H 0.56557 0.86841 0.41062 0.0
H343 H 0.58556 0.88421 0.54625 0.0
H344 H 0.49057 0.82706 0.49384 0.0
H345 H 0.44262 0.80418 0.5955 0.0
H346 H 0.47192 0.79285 0.4555 0.0
H347 H 0.42477 0.77029 0.55527 0.0
H348 H 0.49902 0.78911 0.65962 0.0
H349 H 0.54449 0.80499 0.55349 0.0
H350 H 0.47834 0.87049 0.36246 0.0
H351 H 0.42292 0.8359 0.44302 0.0
Li352 Li 0.63585 0.52254 0.72467 0.0
Li353 Li 0.62166 0.49055 0.76986 0.0
Li354 Li 0.65668 0.50713 0.73943 0.0
Li355 Li 0.62831 0.48964 0.68613 0.0
C356 C 0.64457 0.53037 0.81813 0.0
N357 N 0.64324 0.5557 0.88495 0.0
C358 C 0.62554 0.52812 0.83175 0.0
C359 C 0.66292 0.54534 0.83884 0.0
C360 C 0.62519 0.54112 0.86548 0.0
C361 C 0.66193 0.55804 0.87248 0.0
C362 C 0.58827 0.48999 0.71795 0.0
C363 C 0.5531 0.46492 0.69672 0.0
N364 N 0.54614 0.47626 0.71915 0.0
C365 C 0.58076 0.50148 0.74045 0.0
C366 C 0.57434 0.47165 0.69556 0.0
C367 C 0.55942 0.49424 0.74078 0.0
C368 C 0.61831 0.54465 0.68865 0.0
N369 N 0.63351 0.54671 0.71737 0.0
C370 C 0.63788 0.5788 0.74555 0.0
C371 C 0.64406 0.56388 0.74385 0.0
C372 C 0.62098 0.57598 0.7192 0.0
C373 C 0.61169 0.55919 0.6891 0.0
H374 H 0.61033 0.53092 0.6677 0.0
H375 H 0.65643 0.56544 0.76558 0.0
C376 C 0.61127 0.47929 0.86161 0.0
N377 N 0.60403 0.47481 0.81837 0.0
C378 C 0.59856 0.46783 0.89772 0.0
C379 C 0.57143 0.44703 0.84401 0.0
C380 C 0.58466 0.45884 0.809 0.0
C381 C 0.57841 0.45159 0.88882 0.0
H382 H 0.62695 0.49169 0.86804 0.0
H383 H 0.57955 0.4551 0.77435 0.0
C384 C 0.67058 0.5367 0.66982 0.0
N385 N 0.70506 0.57464 0.64985 0.0
C386 C 0.67718 0.5419 0.62502 0.0
C387 C 0.68152 0.55079 0.70448 0.0
C388 C 0.69465 0.56116 0.6156 0.0
C389 C 0.69891 0.56989 0.69369 0.0
C390 C 0.64615 0.4675 0.74663 0.0
C391 C 0.65682 0.46403 0.71188 0.0
C392 C 0.64726 0.46145 0.79084 0.0
C393 C 0.66846 0.45449 0.722 0.0
C394 C 0.65908 0.45196 0.79958 0.0
N395 N 0.6693 0.44867 0.76525 0.0
C396 C 0.6872 0.51196 0.80023 0.0
C397 C 0.69792 0.51466 0.72361 0.0
C398 C 0.70598 0.51417 0.8152 0.0
N399 N 0.6835 0.51208 0.7552 0.0
C400 C 0.71702 0.51703 0.73714 0.0
C401 C 0.72101 0.5166 0.78341 0.0
H402 H 0.6753 0.50964 0.82444 0.0
H403 H 0.69442 0.51445 0.68801 0.0
C404 C 0.61368 0.48045 0.59551 0.0
N405 N 0.61707 0.47268 0.63423 0.0
C406 C 0.60348 0.46724 0.55898 0.0
C407 C 0.60084 0.43851 0.60285 0.0
C408 C 0.611 0.4522 0.63845 0.0
C409 C 0.59683 0.44601 0.56286 0.0
H410 H 0.61844 0.49678 0.59347 0.0
H411 H 0.61356 0.44642 0.66995 0.0
O412 O 0.64536 0.51807 0.78462 0.0
O413 O 0.60915 0.4969 0.71672 0.0
O414 O 0.65352 0.51786 0.67938 0.0
O415 O 0.63467 0.4768 0.7374 0.0
H416 H 0.61121 0.51638 0.81668 0.0
H417 H 0.67779 0.54726 0.82871 0.0
H418 H 0.61057 0.53958 0.87624 0.0
H419 H 0.67601 0.56978 0.88861 0.0
H420 H 0.54215 0.4507 0.67976 0.0
H421 H 0.59127 0.51595 0.75706 0.0
H422 H 0.57984 0.4626 0.67777 0.0
H423 H 0.55342 0.50299 0.75809 0.0
H424 H 0.64533 0.59166 0.76906 0.0
H425 H 0.59858 0.55666 0.66843 0.0
H426 H 0.60437 0.47149 0.93208 0.0
H427 H 0.55599 0.43436 0.83629 0.0
H428 H 0.66888 0.53114 0.59781 0.0
H429 H 0.67673 0.54704 0.73934 0.0
H430 H 0.69994 0.56538 0.58106 0.0
H431 H 0.70752 0.58093 0.7202 0.0
H432 H 0.65618 0.46875 0.67752 0.0
H433 H 0.63912 0.4641 0.8181 0.0
H434 H 0.67684 0.45174 0.69549 0.0
H435 H 0.66012 0.44721 0.83364 0.0
H436 H 0.70864 0.51361 0.8511 0.0
H437 H 0.72835 0.5187 0.71194 0.0
H438 H 0.60047 0.47339 0.52847 0.0
H439 H 0.59574 0.42215 0.60675 0.0
Li440 Li 0.13722 0.62878 0.85776 0.0
Li441 Li 0.15008 0.65942 0.90707 0.0
Li442 Li 0.13321 0.62417 0.9397 0.0
Li443 Li 0.11281 0.63637 0.89863 0.0
C444 C 0.16902 0.62679 0.90423 0.0
N445 N 0.18807 0.60298 0.90398 0.0
C446 C 0.19024 0.63594 0.91356 0.0
C447 C 0.15747 0.60551 0.89487 0.0
C448 C 0.1996 0.62364 0.91326 0.0
C449 C 0.16739 0.59375 0.89486 0.0
C450 C 0.13159 0.67003 0.83648 0.0
C451 C 0.12442 0.69763 0.85278 0.0
N452 N 0.12858 0.70396 0.80892 0.0
C453 C 0.13577 0.67677 0.79157 0.0
C454 C 0.12585 0.6805 0.86733 0.0
C455 C 0.13417 0.69397 0.77829 0.0
C456 C 0.12425 0.60201 0.78341 0.0
N457 N 0.14138 0.61764 0.80363 0.0
C458 C 0.16355 0.6152 0.74834 0.0
C459 C 0.16079 0.62452 0.7868 0.0
C460 C 0.14614 0.59872 0.72751 0.0
C461 C 0.1263 0.59222 0.74508 0.0
H462 H 0.10902 0.59701 0.79744 0.0
H463 H 0.17411 0.63702 0.80364 0.0
C464 C 0.17877 0.68878 0.96346 0.0
N465 N 0.17169 0.68652 0.92025 0.0
C466 C 0.19534 0.70765 0.97787 0.0
C467 C 0.19709 0.72163 0.90293 0.0
C468 C 0.18036 0.70241 0.88992 0.0
C469 C 0.20474 0.72421 0.9473 0.0
H470 H 0.17164 0.67575 0.98654 0.0
H471 H 0.1746 0.70007 0.85557 0.0
C472 C 0.09566 0.59106 0.90682 0.0
N473 N 0.06252 0.55402 0.93676 0.0
C474 C 0.08248 0.59105 0.9406 0.0
C475 C 0.0919 0.5722 0.8881 0.0
C476 C 0.06583 0.57219 0.9553 0.0
C477 C 0.0751 0.55365 0.90376 0.0
C478 C 0.12163 0.65307 0.99123 0.0
C479 C 0.10847 0.63808 0.0224 0.0
C480 C 0.1276 0.67394 0.99833 0.0
C481 C 0.10114 0.64415 0.05958 0.0
C482 C 0.11992 0.67938 0.03591 0.0
N483 N 0.10694 0.66449 0.06548 0.0
C484 C 0.14328 0.62081 0.02862 0.0
C485 C 0.12615 0.58832 0.99068 0.0
C486 C 0.144 0.61122 0.06859 0.0
N487 N 0.13414 0.60927 0.991 0.0
C488 C 0.12657 0.57808 0.02993 0.0
C489 C 0.13542 0.58961 0.0694 0.0
H490 H 0.14977 0.63748 0.02763 0.0
H491 H 0.11945 0.57953 0.96013 0.0
C492 C 0.07284 0.61865 0.8653 0.0
N493 N 0.08586 0.63333 0.89514 0.0
C494 C 0.0516 0.61165 0.86643 0.0
C495 C 0.05777 0.6363 0.92633 0.0
C496 C 0.07893 0.64271 0.92433 0.0
C497 C 0.0439 0.62008 0.89821 0.0
H498 H 0.07881 0.61144 0.84261 0.0
H499 H 0.08954 0.65439 0.94759 0.0
O500 O 0.15971 0.63869 0.90435 0.0
O501 O 0.13328 0.65333 0.84998 0.0
O502 O 0.11211 0.60935 0.89186 0.0
O503 O 0.12912 0.64749 0.95469 0.0
H504 H 0.19939 0.65239 0.92091 0.0
H505 H 0.14104 0.59815 0.88756 0.0
H506 H 0.21602 0.63052 0.92039 0.0
H507 H 0.15864 0.57728 0.88759 0.0
H508 H 0.12 0.70589 0.87636 0.0
H509 H 0.14026 0.66881 0.76728 0.0
H510 H 0.12256 0.67547 0.90208 0.0
H511 H 0.13739 0.69938 0.74364 0.0
H512 H 0.17904 0.62055 0.73531 0.0
H513 H 0.11259 0.57959 0.72951 0.0
H514 H 0.20108 0.7092 0.01219 0.0
H515 H 0.20427 0.73417 0.87858 0.0
H516 H 0.08495 0.60545 0.95504 0.0
H517 H 0.10198 0.57188 0.86203 0.0
H518 H 0.05551 0.57199 0.98141 0.0
H519 H 0.07207 0.53895 0.88971 0.0
H520 H 0.10412 0.62195 0.01835 0.0
H521 H 0.13803 0.68585 0.97508 0.0
H522 H 0.09091 0.63269 0.08386 0.0
H523 H 0.12433 0.69545 0.04163 0.0
H524 H 0.15102 0.62048 0.09862 0.0
H525 H 0.11998 0.56137 0.02966 0.0
H526 H 0.04117 0.59905 0.84444 0.0
H527 H 0.05215 0.64301 0.95126 0.0
Li528 Li 0.84924 0.50792 0.89353 0.0
Li529 Li 0.85993 0.48797 0.94017 0.0
Li530 Li 0.88586 0.51944 0.90192 0.0
Li531 Li 0.86406 0.48733 0.85711 0.0
C532 C 0.85738 0.52456 0.97918 0.0
N533 N 0.83941 0.53991 0.0381 0.0
C534 C 0.84265 0.51139 0.01077 0.0
C535 C 0.86304 0.54555 0.97767 0.0
C536 C 0.83374 0.51945 0.04027 0.0
C537 C 0.85374 0.553 0.00769 0.0
C538 C 0.81907 0.46118 0.89885 0.0
C539 C 0.79327 0.4254 0.88517 0.0
N540 N 0.77958 0.42779 0.91149 0.0
C541 C 0.80479 0.46331 0.92581 0.0
C542 C 0.81331 0.44211 0.87828 0.0
C543 C 0.78488 0.44624 0.93174 0.0
C544 C 0.82446 0.51377 0.83419 0.0
N545 N 0.82838 0.51477 0.87937 0.0
C546 C 0.80003 0.52044 0.89509 0.0
C547 C 0.81668 0.51821 0.90985 0.0
C548 C 0.79543 0.5189 0.84877 0.0
C549 C 0.80796 0.51584 0.81802 0.0
H550 H 0.83371 0.51059 0.81078 0.0
H551 H 0.8196 0.51836 0.94559 0.0
C552 C 0.87124 0.47993 0.02439 0.0
N553 N 0.8556 0.47163 0.99343 0.0
C554 C 0.87064 0.46851 0.06244 0.0
C555 C 0.83743 0.44048 0.03706 0.0
C556 C 0.83881 0.45233 0.99915 0.0
C557 C 0.85363 0.4485 0.06878 0.0
H558 H 0.88447 0.49525 0.01877 0.0
H559 H 0.82671 0.44584 0.974 0.0
C560 C 0.88121 0.53465 0.82298 0.0
N561 N 0.90419 0.57233 0.77954 0.0
C562 C 0.89309 0.53617 0.78498 0.0
C563 C 0.88089 0.55222 0.83879 0.0
C564 C 0.90464 0.55539 0.76351 0.0
C565 C 0.89265 0.57115 0.81638 0.0
C566 C 0.89015 0.47863 0.92144 0.0
C567 C 0.90905 0.48599 0.94409 0.0
C568 C 0.87657 0.45724 0.91752 0.0
C569 C 0.9141 0.47174 0.9625 0.0
C570 C 0.88215 0.44351 0.93654 0.0
N571 N 0.90065 0.45098 0.95843 0.0
C572 C 0.92002 0.55714 0.93571 0.0
C573 C 0.92641 0.54154 0.87219 0.0
C574 C 0.941 0.5725 0.93746 0.0
N575 N 0.9133 0.54201 0.90362 0.0
C576 C 0.94739 0.55661 0.87249 0.0
C577 C 0.95485 0.57207 0.9058 0.0
H578 H 0.90925 0.55691 0.96063 0.0
H579 H 0.92059 0.52909 0.84759 0.0
C580 C 0.84819 0.46939 0.77355 0.0
N581 N 0.86266 0.47217 0.80513 0.0
C582 C 0.84699 0.45916 0.7331 0.0
C583 C 0.87541 0.45462 0.75897 0.0
C584 C 0.87622 0.46514 0.79869 0.0
C585 C 0.86073 0.4517 0.72567 0.0
H586 H 0.83779 0.47537 0.77967 0.0
H587 H 0.88782 0.46796 0.82405 0.0
O588 O 0.86655 0.5171 0.9505 0.0
O589 O 0.83859 0.47766 0.89229 0.0
O590 O 0.87009 0.51608 0.84489 0.0
O591 O 0.88481 0.49232 0.90377 0.0
H592 H 0.83804 0.49511 0.01235 0.0
H593 H 0.87446 0.55595 0.95352 0.0
H594 H 0.82229 0.50944 0.0648 0.0
H595 H 0.85792 0.56918 0.00682 0.0
H596 H 0.7886 0.41052 0.86957 0.0
H597 H 0.80908 0.47794 0.94218 0.0
H598 H 0.82423 0.44024 0.85737 0.0
H599 H 0.77364 0.44764 0.9525 0.0
H600 H 0.79035 0.52252 0.91955 0.0
H601 H 0.80458 0.51436 0.7821 0.0
H602 H 0.8834 0.47507 0.08636 0.0
H603 H 0.82413 0.42504 0.04112 0.0
H604 H 0.89346 0.52267 0.77243 0.0
H605 H 0.87173 0.55123 0.86816 0.0
H606 H 0.91397 0.55684 0.73415 0.0
H607 H 0.89262 0.5849 0.82829 0.0
H608 H 0.91969 0.50252 0.94743 0.0
H609 H 0.8618 0.45134 0.90036 0.0
H610 H 0.92869 0.47719 0.9801 0.0
H611 H 0.87176 0.42691 0.93401 0.0
H612 H 0.94649 0.58418 0.96385 0.0
H613 H 0.95783 0.55582 0.84801 0.0
H614 H 0.83559 0.45719 0.70779 0.0
H615 H 0.88628 0.4491 0.75388 0.0
Li616 Li 0.34216 0.85131 0.05999 0.0
Li617 Li 0.37219 0.86291 0.11056 0.0
Li618 Li 0.36615 0.88869 0.06683 0.0
Li619 Li 0.37801 0.86716 0.02963 0.0
C620 C 0.33137 0.86305 0.14086 0.0
N621 N 0.29625 0.85131 0.19274 0.0
C622 C 0.32637 0.84876 0.17608 0.0
C623 C 0.31866 0.8716 0.13246 0.0
C624 C 0.30851 0.84298 0.20185 0.0
C625 C 0.30092 0.86538 0.15891 0.0
C626 C 0.36099 0.82372 0.08338 0.0
C627 C 0.37752 0.80472 0.10936 0.0
N628 N 0.35881 0.78917 0.12406 0.0
C629 C 0.34191 0.8075 0.09854 0.0
C630 C 0.37893 0.82226 0.08854 0.0
C631 C 0.34113 0.79018 0.11904 0.0
C632 C 0.31302 0.82521 0.9996 0.0
N633 N 0.31468 0.83047 0.04411 0.0
C634 C 0.27948 0.80402 0.05733 0.0
C635 C 0.29832 0.82044 0.07297 0.0
C636 C 0.27764 0.7981 0.01175 0.0
C637 C 0.29449 0.80907 0.98251 0.0
H638 H 0.32635 0.83325 0.97758 0.0
H639 H 0.30002 0.82457 0.10829 0.0
C640 C 0.40172 0.87537 0.17958 0.0
N641 N 0.38328 0.85901 0.16595 0.0
C642 C 0.4117 0.87382 0.2181 0.0
C643 C 0.38325 0.8388 0.22912 0.0
C644 C 0.37382 0.84101 0.1902 0.0
C645 C 0.40251 0.85531 0.243 0.0
H646 H 0.40878 0.88964 0.16033 0.0
H647 H 0.35904 0.8283 0.17936 0.0
C648 C 0.34507 0.87954 0.98565 0.0
N649 N 0.32431 0.89466 0.93472 0.0
C650 C 0.35313 0.88912 0.944 0.0
C651 C 0.32635 0.87744 0.00115 0.0
C652 C 0.34244 0.89674 0.91883 0.0
C653 C 0.3161 0.88522 0.97498 0.0
C654 C 0.41273 0.89694 0.06343 0.0
C655 C 0.42298 0.9167 0.04382 0.0
C656 C 0.42316 0.88577 0.06836 0.0
C657 C 0.44341 0.9248 0.02868 0.0
C658 C 0.44358 0.89439 0.05274 0.0
N659 N 0.45319 0.91356 0.03334 0.0
C660 C 0.36422 0.92305 0.10361 0.0
C661 C 0.37847 0.92764 0.02978 0.0
C662 C 0.36894 0.94376 0.10476 0.0
N663 N 0.3693 0.91557 0.06669 0.0
C664 C 0.38361 0.94842 0.0296 0.0
C665 C 0.37925 0.95673 0.06782 0.0
H666 H 0.35727 0.91318 0.1328 0.0
H667 H 0.38269 0.92137 0.00131 0.0
C668 C 0.39456 0.84883 0.97173 0.0
N669 N 0.39381 0.86644 0.98011 0.0
C670 C 0.40506 0.84761 0.93376 0.0
C671 C 0.41387 0.88269 0.91394 0.0
C672 C 0.40319 0.88323 0.95229 0.0
C673 C 0.41467 0.86464 0.90435 0.0
H674 H 0.38663 0.83559 0.99396 0.0
H675 H 0.40209 0.89691 0.95956 0.0
O676 O 0.34893 0.86908 0.11567 0.0
O677 O 0.36205 0.84078 0.06305 0.0
O678 O 0.35549 0.87223 0.01098 0.0
O679 O 0.39255 0.8885 0.07755 0.0
H680 H 0.33606 0.8421 0.18327 0.0
H681 H 0.32249 0.88301 0.10601 0.0
H682 H 0.3044 0.83184 0.22903 0.0
H683 H 0.2909 0.87181 0.15264 0.0
H684 H 0.39131 0.80346 0.11381 0.0
H685 H 0.32786 0.8083 0.09485 0.0
H686 H 0.39381 0.83455 0.07672 0.0
H687 H 0.32647 0.77756 0.13108 0.0
H688 H 0.26671 0.79563 0.0807 0.0
H689 H 0.29351 0.80469 0.94723 0.0
H690 H 0.42649 0.88688 0.22831 0.0
H691 H 0.37573 0.82438 0.248 0.0
H692 H 0.36755 0.89077 0.93135 0.0
H693 H 0.31974 0.86979 0.0329 0.0
H694 H 0.34857 0.9043 0.88665 0.0
H695 H 0.30161 0.88374 0.98664 0.0
H696 H 0.41524 0.92566 0.04013 0.0
H697 H 0.41553 0.87057 0.08389 0.0
H698 H 0.45149 0.94003 0.01318 0.0
H699 H 0.45177 0.88584 0.05604 0.0
H700 H 0.36558 0.94989 0.13485 0.0
H701 H 0.39173 0.95815 0.00082 0.0
H702 H 0.40538 0.83344 0.92688 0.0
H703 H 0.42109 0.89601 0.89158 0.0
Li704 Li 0.49521 0.34581 0.22542 0.0
Li705 Li 0.51321 0.37551 0.27279 0.0
Li706 Li 0.4791 0.36653 0.23857 0.0
Li707 Li 0.51118 0.37952 0.19116 0.0
C708 C 0.47161 0.33408 0.30795 0.0
N709 N 0.44356 0.29976 0.35705 0.0
C710 C 0.47831 0.32744 0.34532 0.0
C711 C 0.45058 0.32353 0.29616 0.0
C712 C 0.46391 0.30997 0.36953 0.0
C713 C 0.43665 0.30614 0.32124 0.0
C714 C 0.53761 0.35969 0.24074 0.0
C715 C 0.56986 0.35926 0.24158 0.0
N716 N 0.56256 0.3454 0.27634 0.0
C717 C 0.53044 0.34546 0.27643 0.0
C718 C 0.55747 0.36666 0.2231 0.0
C719 C 0.54327 0.3384 0.29397 0.0
C720 C 0.50265 0.31902 0.17592 0.0
N721 N 0.49096 0.31879 0.2116 0.0
C722 C 0.47557 0.28194 0.21841 0.0
C723 C 0.47758 0.30076 0.23303 0.0
C724 C 0.48734 0.28186 0.18138 0.0
C725 C 0.50099 0.30062 0.15997 0.0
H726 H 0.51313 0.33357 0.15948 0.0
H727 H 0.46838 0.30083 0.26115 0.0
C728 C 0.51869 0.38546 0.3645 0.0
N729 N 0.52924 0.38643 0.32631 0.0
C730 C 0.52906 0.39197 0.40585 0.0
C731 C 0.56114 0.40152 0.36754 0.0
C732 C 0.55019 0.39492 0.32679 0.0
C733 C 0.5505 0.39854 0.40915 0.0
H734 H 0.50213 0.37966 0.36275 0.0
H735 H 0.55847 0.39667 0.29552 0.0
C736 C 0.474 0.34022 0.14952 0.0
N737 N 0.45706 0.30729 0.08936 0.0
C738 C 0.48328 0.34201 0.10733 0.0
C739 C 0.45591 0.32175 0.16079 0.0
C740 C 0.47452 0.32519 0.07745 0.0
C741 C 0.44765 0.30526 0.13003 0.0
C742 C 0.52133 0.41449 0.24445 0.0
C743 C 0.51707 0.43004 0.25766 0.0
C744 C 0.54181 0.41961 0.23517 0.0
C745 C 0.53341 0.4505 0.26154 0.0
C746 C 0.55772 0.44024 0.23948 0.0
N747 N 0.55323 0.45513 0.25247 0.0
C748 C 0.45683 0.38438 0.27256 0.0
C749 C 0.43852 0.35848 0.21692 0.0
C750 C 0.44181 0.39038 0.27143 0.0
N751 N 0.45521 0.36912 0.24462 0.0
C752 C 0.42292 0.36375 0.21526 0.0
C753 C 0.42502 0.38042 0.24149 0.0
H754 H 0.47042 0.39267 0.29378 0.0
H755 H 0.43786 0.34671 0.19442 0.0
C756 C 0.53674 0.38999 0.11452 0.0
N757 N 0.52394 0.39463 0.13812 0.0
C758 C 0.54307 0.39785 0.07095 0.0
C759 C 0.52481 0.4168 0.07875 0.0
C760 C 0.51862 0.40841 0.12205 0.0
C761 C 0.5354 0.40986 0.05008 0.0
H762 H 0.54131 0.37947 0.12882 0.0
H763 H 0.50911 0.41251 0.14249 0.0
O764 O 0.48548 0.35128 0.28417 0.0
O765 O 0.52537 0.36688 0.22297 0.0
O766 O 0.48268 0.35637 0.17971 0.0
O767 O 0.50548 0.39439 0.24067 0.0
H768 H 0.49445 0.33572 0.35566 0.0
H769 H 0.44503 0.32868 0.26802 0.0
H770 H 0.4689 0.30459 0.39834 0.0
H771 H 0.42035 0.29774 0.31229 0.0
H772 H 0.58528 0.36454 0.2283 0.0
H773 H 0.51511 0.33986 0.29028 0.0
H774 H 0.56328 0.37772 0.19551 0.0
H775 H 0.53788 0.32736 0.32158 0.0
H776 H 0.46495 0.26763 0.23561 0.0
H777 H 0.51029 0.301 0.13137 0.0
H778 H 0.52001 0.39211 0.4342 0.0
H779 H 0.57786 0.40926 0.36539 0.0
H780 H 0.49715 0.35619 0.09776 0.0
H781 H 0.44854 0.31998 0.19327 0.0
H782 H 0.48164 0.32634 0.04482 0.0
H783 H 0.43381 0.2908 0.13858 0.0
H784 H 0.50129 0.42636 0.26482 0.0
H785 H 0.54542 0.40783 0.22475 0.0
H786 H 0.53034 0.46269 0.27176 0.0
H787 H 0.57364 0.44441 0.23248 0.0
H788 H 0.44378 0.40333 0.29196 0.0
H789 H 0.41014 0.35591 0.19167 0.0
H790 H 0.55369 0.39415 0.05398 0.0
H791 H 0.52112 0.42853 0.06906 0.0
Li792 Li 0.13965 0.51113 0.44699 0.0
Li793 Li 0.15022 0.49228 0.39653 0.0
Li794 Li 0.13403 0.51044 0.36267 0.0
Li795 Li 0.11394 0.47888 0.40746 0.0
C796 C 0.18109 0.53147 0.39294 0.0
N797 N 0.22348 0.54843 0.38319 0.0
C798 C 0.19337 0.53343 0.4305 0.0
C799 C 0.19031 0.53808 0.35041 0.0
C800 C 0.2148 0.54205 0.42486 0.0
C801 C 0.21178 0.54659 0.34617 0.0
C802 C 0.13156 0.46313 0.46713 0.0
C803 C 0.12611 0.42926 0.44739 0.0
N804 N 0.12466 0.42434 0.4921 0.0
C805 C 0.13002 0.45775 0.51286 0.0
C806 C 0.1296 0.44879 0.4341 0.0
C807 C 0.12653 0.43806 0.52481 0.0
C808 C 0.13159 0.51862 0.53538 0.0
N809 N 0.14467 0.52738 0.49969 0.0
C810 C 0.16211 0.56025 0.53719 0.0
C811 C 0.15988 0.5477 0.49998 0.0
C812 C 0.14848 0.5517 0.57396 0.0
C813 C 0.13327 0.5306 0.57324 0.0
H814 H 0.11952 0.50247 0.53381 0.0
H815 H 0.16983 0.55428 0.47075 0.0
C816 C 0.17623 0.48701 0.33846 0.0
N817 N 0.17139 0.48599 0.3831 0.0
C818 C 0.1926 0.48426 0.32456 0.0
C819 C 0.19832 0.47876 0.40279 0.0
C820 C 0.18189 0.48181 0.41529 0.0
C821 C 0.2039 0.48029 0.35698 0.0
H822 H 0.16768 0.49056 0.3138 0.0
H823 H 0.1778 0.48132 0.45059 0.0
C824 C 0.10347 0.51576 0.40714 0.0
N825 N 0.08177 0.53667 0.39525 0.0
C826 C 0.08512 0.50678 0.38179 0.0
C827 C 0.1106 0.53525 0.42702 0.0
C828 C 0.07443 0.51764 0.37599 0.0
C829 C 0.09945 0.5456 0.42047 0.0
C830 C 0.11563 0.46884 0.31778 0.0
C831 C 0.09897 0.47079 0.30195 0.0
C832 C 0.11866 0.45294 0.30113 0.0
C833 C 0.08534 0.45655 0.27025 0.0
C834 C 0.10472 0.43902 0.26937 0.0
N835 N 0.08846 0.44107 0.25478 0.0
C836 C 0.13663 0.51912 0.27 0.0
C837 C 0.13342 0.54371 0.31535 0.0
C838 C 0.13693 0.52964 0.23069 0.0
N839 N 0.13448 0.52603 0.31118 0.0
C840 C 0.13368 0.55476 0.27687 0.0
C841 C 0.13531 0.54756 0.23406 0.0
H842 H 0.13823 0.50548 0.26765 0.0
H843 H 0.13256 0.54936 0.34845 0.0
C844 C 0.07283 0.45909 0.43482 0.0
N845 N 0.08677 0.45545 0.41287 0.0
C846 C 0.05172 0.44445 0.43344 0.0
C847 C 0.05978 0.42185 0.38968 0.0
C848 C 0.08082 0.43695 0.39209 0.0
C849 C 0.04504 0.42592 0.40946 0.0
H850 H 0.07802 0.47383 0.4515 0.0
H851 H 0.09221 0.43425 0.37552 0.0
O852 O 0.16011 0.5231 0.39778 0.0
O853 O 0.13489 0.48233 0.45508 0.0
O854 O 0.11411 0.50531 0.41347 0.0
O855 O 0.12891 0.48235 0.34957 0.0
H856 H 0.1864 0.52826 0.46359 0.0
H857 H 0.18095 0.53658 0.32102 0.0
H858 H 0.22452 0.54364 0.45358 0.0
H859 H 0.21916 0.55175 0.31347 0.0
H860 H 0.12457 0.41802 0.42216 0.0
H861 H 0.13148 0.46869 0.53884 0.0
H862 H 0.13077 0.45268 0.3986 0.0
H863 H 0.12529 0.43368 0.56009 0.0
H864 H 0.17394 0.57654 0.53688 0.0
H865 H 0.12251 0.52365 0.60118 0.0
H866 H 0.19672 0.48566 0.28904 0.0
H867 H 0.20697 0.47587 0.42848 0.0
H868 H 0.07906 0.49151 0.36705 0.0
H869 H 0.12471 0.54243 0.44686 0.0
H870 H 0.06025 0.5109 0.35633 0.0
H871 H 0.10488 0.56075 0.43541 0.0
H872 H 0.09662 0.48319 0.31399 0.0
H873 H 0.13156 0.45128 0.31287 0.0
H874 H 0.0723 0.4578 0.25792 0.0
H875 H 0.10679 0.42656 0.25638 0.0
H876 H 0.13846 0.52391 0.19802 0.0
H877 H 0.13268 0.56875 0.28036 0.0
H878 H 0.04061 0.44796 0.44898 0.0
H879 H 0.05499 0.40765 0.37088 0.0
Li880 Li 0.62681 0.13886 0.60878 0.0
Li881 Li 0.65703 0.14915 0.56127 0.0
Li882 Li 0.62179 0.13414 0.52627 0.0
Li883 Li 0.63203 0.11285 0.56888 0.0
C884 C 0.64456 0.18044 0.57402 0.0
N885 N 0.65854 0.22088 0.60129 0.0
C886 C 0.66023 0.18968 0.60654 0.0
C887 C 0.63591 0.19172 0.55551 0.0
C888 C 0.66713 0.21015 0.61981 0.0
C889 C 0.64319 0.21215 0.56974 0.0
C890 C 0.66574 0.13917 0.64621 0.0
C891 C 0.69757 0.14075 0.67001 0.0
N892 N 0.69921 0.1536 0.70454 0.0
C893 C 0.66762 0.1522 0.68225 0.0
C894 C 0.68071 0.13322 0.64025 0.0
C895 C 0.68471 0.15942 0.71124 0.0
C896 C 0.60791 0.12727 0.69283 0.0
N897 N 0.61515 0.14308 0.66235 0.0
C898 C 0.60227 0.161 0.70717 0.0
C899 C 0.61255 0.15979 0.66874 0.0
C900 C 0.59434 0.1447 0.73864 0.0
C901 C 0.59734 0.12774 0.73147 0.0
H902 H 0.60994 0.11405 0.68645 0.0
H903 H 0.6179 0.17191 0.64363 0.0
C904 C 0.68782 0.17414 0.50258 0.0
N905 N 0.685 0.1695 0.54746 0.0
C906 C 0.70677 0.1901 0.48667 0.0
C907 C 0.7199 0.19602 0.56337 0.0
C908 C 0.70062 0.17991 0.57788 0.0
C909 C 0.72289 0.20136 0.51739 0.0
H910 H 0.67505 0.16583 0.47927 0.0
H911 H 0.698 0.17638 0.61348 0.0
C912 C 0.58665 0.11175 0.57921 0.0
N913 N 0.54775 0.10744 0.59027 0.0
C914 C 0.56955 0.09229 0.58903 0.0
C915 C 0.58398 0.12901 0.57489 0.0
C916 C 0.55 0.09043 0.59448 0.0
C917 C 0.5642 0.12652 0.58069 0.0
C918 C 0.65104 0.11676 0.49026 0.0
C919 C 0.63956 0.10408 0.45411 0.0
C920 C 0.66927 0.11723 0.50402 0.0
C921 C 0.64637 0.09179 0.43268 0.0
C922 C 0.67557 0.10472 0.48172 0.0
N923 N 0.66407 0.09234 0.44685 0.0
C924 C 0.61291 0.15225 0.4522 0.0
C925 C 0.59039 0.11592 0.46121 0.0
C926 C 0.6023 0.15227 0.41325 0.0
N927 N 0.60675 0.13426 0.47519 0.0
C928 C 0.57938 0.11522 0.42238 0.0
C929 C 0.58542 0.13355 0.39805 0.0
H930 H 0.62625 0.16648 0.46377 0.0
H931 H 0.58609 0.10184 0.47997 0.0
C932 C 0.63536 0.07814 0.60071 0.0
N933 N 0.6267 0.08522 0.57004 0.0
C934 C 0.6292 0.05702 0.60197 0.0
C935 C 0.60587 0.05122 0.53938 0.0
C936 C 0.61228 0.07231 0.53965 0.0
C937 C 0.61415 0.0434 0.57123 0.0
H938 H 0.6465 0.08873 0.62501 0.0
H939 H 0.60539 0.07839 0.51636 0.0
O940 O 0.63754 0.16041 0.56046 0.0
O941 O 0.649 0.13175 0.61782 0.0
O942 O 0.60589 0.11377 0.57426 0.0
O943 O 0.64441 0.12856 0.51226 0.0
H944 H 0.66691 0.18111 0.62152 0.0
H945 H 0.62357 0.18472 0.53069 0.0
H946 H 0.67929 0.2175 0.64491 0.0
H947 H 0.63661 0.22105 0.55575 0.0
H948 H 0.70933 0.13637 0.66566 0.0
H949 H 0.65606 0.15677 0.68773 0.0
H950 H 0.67937 0.12295 0.6129 0.0
H951 H 0.68643 0.16961 0.73908 0.0
H952 H 0.60004 0.17422 0.71177 0.0
H953 H 0.59128 0.11489 0.75514 0.0
H954 H 0.70863 0.19409 0.45104 0.0
H955 H 0.73207 0.20471 0.58784 0.0
H956 H 0.57138 0.07879 0.59246 0.0
H957 H 0.59702 0.14419 0.56728 0.0
H958 H 0.53661 0.07546 0.60211 0.0
H959 H 0.56191 0.13975 0.57758 0.0
H960 H 0.62543 0.10361 0.44304 0.0
H961 H 0.67841 0.12712 0.53168 0.0
H962 H 0.63758 0.08179 0.40483 0.0
H963 H 0.68959 0.10484 0.49215 0.0
H964 H 0.60731 0.16662 0.39484 0.0
H965 H 0.56645 0.10055 0.41115 0.0
H966 H 0.63559 0.05125 0.62733 0.0
H967 H 0.594 0.04096 0.51574 0.0
Li968 Li 0.50856 0.65841 0.73357 0.0
Li969 Li 0.49156 0.63039 0.78623 0.0
Li970 Li 0.52386 0.63688 0.74181 0.0
Li971 Li 0.48876 0.62392 0.70401 0.0
C972 C 0.52896 0.67313 0.80939 0.0
N973 N 0.5452 0.71224 0.84688 0.0
C974 C 0.51568 0.67988 0.82573 0.0
C975 C 0.55047 0.68612 0.81249 0.0
C976 C 0.5242 0.69976 0.84441 0.0
C977 C 0.55838 0.70588 0.83151 0.0
C978 C 0.45775 0.6316 0.74944 0.0
C979 C 0.42262 0.60282 0.75404 0.0
N980 N 0.41623 0.61587 0.77004 0.0
C981 C 0.45079 0.64475 0.76569 0.0
C982 C 0.44353 0.61048 0.74336 0.0
C983 C 0.42976 0.63649 0.776 0.0
C984 C 0.49897 0.68826 0.70458 0.0
N985 N 0.51526 0.68605 0.71801 0.0
C986 C 0.53927 0.72135 0.69818 0.0
C987 C 0.53517 0.70213 0.7154 0.0
C988 C 0.52266 0.72389 0.68405 0.0
C989 C 0.50232 0.70719 0.6878 0.0
H990 H 0.48341 0.67508 0.7053 0.0
H991 H 0.54792 0.69983 0.72497 0.0
C992 C 0.48015 0.60413 0.86125 0.0
N993 N 0.47752 0.61933 0.84221 0.0
C994 C 0.46885 0.59361 0.89963 0.0
C995 C 0.45308 0.61527 0.89964 0.0
C996 C 0.46478 0.62546 0.86131 0.0
C997 C 0.45489 0.59896 0.91857 0.0
H998 H 0.4907 0.59984 0.84594 0.0
H999 H 0.46345 0.63802 0.84657 0.0
C1000 C 0.52621 0.66027 0.65291 0.0
N1001 N 0.54521 0.69067 0.58765 0.0
C1002 C 0.51426 0.66291 0.6199 0.0
C1003 C 0.54782 0.67297 0.65263 0.0
C1004 C 0.52417 0.67836 0.58714 0.0
C1005 C 0.55713 0.68832 0.61943 0.0
C1006 C 0.48822 0.58945 0.7488 0.0
C1007 C 0.4999 0.58091 0.73189 0.0
C1008 C 0.46783 0.57627 0.76339 0.0
C1009 C 0.49084 0.55933 0.72894 0.0
C1010 C 0.45932 0.55477 0.75989 0.0
N1011 N 0.4709 0.54682 0.74283 0.0
C1012 C 0.55679 0.63303 0.77972 0.0
C1013 C 0.55226 0.62843 0.70015 0.0
C1014 C 0.57164 0.62672 0.77896 0.0
N1015 N 0.54718 0.63328 0.74076 0.0
C1016 C 0.56687 0.62192 0.69787 0.0
C1017 C 0.57624 0.62047 0.73779 0.0
H1018 H 0.55219 0.63675 0.81152 0.0
H1019 H 0.54408 0.62851 0.66991 0.0
C1020 C 0.459 0.613 0.63515 0.0
N1021 N 0.47249 0.60791 0.65441 0.0
C1022 C 0.44808 0.60278 0.59615 0.0
C1023 C 0.46528 0.5824 0.59739 0.0
C1024 C 0.47592 0.59306 0.63626 0.0
C1025 C 0.45133 0.5874 0.57697 0.0
H1026 H 0.4571 0.62534 0.64948 0.0
H1027 H 0.48734 0.58993 0.65112 0.0
O1028 O 0.52091 0.65385 0.79048 0.0
O1029 O 0.47836 0.63948 0.73945 0.0
O1030 O 0.51682 0.64519 0.68515 0.0
O1031 O 0.49694 0.61058 0.75222 0.0
H1032 H 0.49899 0.66997 0.82345 0.0
H1033 H 0.56092 0.68105 0.80001 0.0
H1034 H 0.51413 0.70528 0.85688 0.0
H1035 H 0.575 0.71617 0.83395 0.0
H1036 H 0.41147 0.5865 0.7495 0.0
H1037 H 0.46158 0.66111 0.77104 0.0
H1038 H 0.44852 0.60014 0.73016 0.0
H1039 H 0.42421 0.64647 0.78889 0.0
H1040 H 0.55517 0.73392 0.69505 0.0
H1041 H 0.48922 0.70865 0.67656 0.0
H1042 H 0.47065 0.58116 0.91387 0.0
H1043 H 0.44255 0.61985 0.914 0.0
H1044 H 0.49752 0.6532 0.6197 0.0
H1045 H 0.55727 0.67113 0.67807 0.0
H1046 H 0.51512 0.68061 0.56141 0.0
H1047 H 0.57383 0.69837 0.61896 0.0
H1048 H 0.51575 0.59081 0.7209 0.0
H1049 H 0.45873 0.5825 0.77787 0.0
H1050 H 0.49967 0.55254 0.71567 0.0
H1051 H 0.44355 0.54441 0.77097 0.0
H1052 H 0.57858 0.62561 0.8103 0.0
H1053 H 0.57004 0.61703 0.66574 0.0
H1054 H 0.43753 0.60705 0.58064 0.0
H1055 H 0.46822 0.57074 0.5828 0.0
C1056 C 0.54292 0.1284 0.31827 0.0
C1057 C 0.55314 0.13178 0.27593 0.0
C1058 C 0.58381 0.13453 0.31341 0.0
C1059 C 0.57432 0.13303 0.356 0.0
N1060 N 0.54634 0.13181 0.39988 0.0
N1061 N 0.58427 0.14131 0.23305 0.0
C1062 C 0.55426 0.13087 0.35872 0.0
C1063 C 0.57388 0.13576 0.27343 0.0
N1064 N 0.52223 0.12225 0.3197 0.0
N1065 N 0.60197 0.13408 0.31112 0.0
H1066 H 0.57745 0.14223 0.20292 0.0
H1067 H 0.60012 0.14665 0.23002 0.0
H1068 H 0.60975 0.1332 0.3397 0.0
H1069 H 0.60845 0.13282 0.28086 0.0
H1070 H 0.51337 0.11736 0.34918 0.0
H1071 H 0.51342 0.12036 0.29073 0.0
H1072 H 0.53281 0.13259 0.40369 0.0
H1073 H 0.55419 0.13355 0.43029 0.0
C1074 C 0.43818 0.57762 0.45179 0.0
C1075 C 0.42109 0.55703 0.45323 0.0
C1076 C 0.42259 0.5572 0.53608 0.0
C1077 C 0.44074 0.57706 0.53439 0.0
N1078 N 0.46767 0.60524 0.49129 0.0
N1079 N 0.39862 0.52593 0.49536 0.0
C1080 C 0.44906 0.58704 0.49239 0.0
C1081 C 0.41369 0.54645 0.49504 0.0
N1082 N 0.44361 0.58832 0.41178 0.0
N1083 N 0.4136 0.54886 0.57691 0.0
H1084 H 0.39161 0.51756 0.46596 0.0
H1085 H 0.39418 0.51671 0.52432 0.0
H1086 H 0.4199 0.55617 0.60773 0.0
H1087 H 0.39911 0.53552 0.58023 0.0
H1088 H 0.45442 0.6041 0.40932 0.0
H1089 H 0.43611 0.58182 0.38124 0.0
H1090 H 0.47573 0.61207 0.46156 0.0
H1091 H 0.47593 0.61283 0.52042 0.0
C1092 C 0.84318 0.42123 0.67287 0.0
C1093 C 0.86017 0.44129 0.68249 0.0
C1094 C 0.87768 0.4403 0.61312 0.0
C1095 C 0.85998 0.421 0.60178 0.0
N1096 N 0.82425 0.39504 0.6158 0.0
N1097 N 0.8915 0.47183 0.65756 0.0
C1098 C 0.84221 0.41204 0.63017 0.0
C1099 C 0.87683 0.45141 0.65133 0.0
N1100 N 0.82841 0.41064 0.70516 0.0
N1101 N 0.89558 0.44763 0.58847 0.0
H1102 H 0.89126 0.48059 0.68491 0.0
H1103 H 0.90276 0.48061 0.6335 0.0
H1104 H 0.89691 0.43992 0.56027 0.0
H1105 H 0.90964 0.46042 0.59823 0.0
H1106 H 0.81692 0.39512 0.7018 0.0
H1107 H 0.82867 0.41677 0.73708 0.0
H1108 H 0.81017 0.38912 0.63299 0.0
H1109 H 0.82293 0.38798 0.58448 0.0
C1110 C 0.45659 0.87386 0.81849 0.0
C1111 C 0.44423 0.86122 0.78215 0.0
C1112 C 0.41251 0.85195 0.82486 0.0
C1113 C 0.42489 0.86328 0.86246 0.0
N1114 N 0.45845 0.88232 0.89829 0.0
N1115 N 0.41083 0.83548 0.75294 0.0
C1116 C 0.44689 0.87348 0.86022 0.0
C1117 C 0.42228 0.84946 0.78597 0.0
N1118 N 0.47748 0.88675 0.81256 0.0
N1119 N 0.39149 0.8442 0.82575 0.0
H1120 H 0.41746 0.83329 0.72383 0.0
H1121 H 0.39503 0.82482 0.75606 0.0
H1122 H 0.38373 0.84563 0.85372 0.0
H1123 H 0.38195 0.83784 0.79757 0.0
H1124 H 0.48694 0.89801 0.83598 0.0
H1125 H 0.48519 0.88737 0.78257 0.0
H1126 H 0.4744 0.888 0.9001 0.0
H1127 H 0.45186 0.88248 0.92937 0.0
C1128 C 0.53739 0.43215 0.98121 0.0
C1129 C 0.54024 0.4163 0.00062 0.0
C1130 C 0.56306 0.41969 0.93749 0.0
C1131 C 0.56462 0.43897 0.92619 0.0
N1132 N 0.55237 0.46337 0.93586 0.0
N1133 N 0.54197 0.38656 0.97432 0.0
C1134 C 0.55149 0.44517 0.94756 0.0
C1135 C 0.54908 0.40739 0.97212 0.0
N1136 N 0.51921 0.43211 0.98786 0.0
N1137 N 0.57528 0.41336 0.91621 0.0
H1138 H 0.52956 0.37682 0.99533 0.0
H1139 H 0.54641 0.37876 0.9516 0.0
H1140 H 0.58553 0.42181 0.89015 0.0
H1141 H 0.57623 0.40047 0.92674 0.0
H1142 H 0.51562 0.44235 0.9715 0.0
H1143 H 0.50654 0.41958 0.00351 0.0
H1144 H 0.54441 0.46933 0.95382 0.0
H1145 H 0.56206 0.47309 0.91032 0.0
C1146 C 0.15437 0.57111 0.16902 0.0
C1147 C 0.13543 0.55881 0.19256 0.0
C1148 C 0.11692 0.56838 0.13766 0.0
C1149 C 0.13546 0.57904 0.11187 0.0
N1150 N 0.1711 0.58825 0.09887 0.0
N1151 N 0.09812 0.54308 0.19644 0.0
C1152 C 0.15402 0.5798 0.12642 0.0
C1153 C 0.11652 0.55673 0.17615 0.0
N1154 N 0.17274 0.57495 0.18805 0.0
N1155 N 0.0999 0.56989 0.12608 0.0
H1156 H 0.0972 0.53437 0.22494 0.0
H1157 H 0.08364 0.53913 0.18302 0.0
H1158 H 0.09955 0.57817 0.09788 0.0
H1159 H 0.08672 0.5644 0.14634 0.0
H1160 H 0.18724 0.58558 0.17492 0.0
H1161 H 0.17359 0.56881 0.21921 0.0
H1162 H 0.18434 0.58722 0.1053 0.0
H1163 H 0.17146 0.59489 0.06752 0.0
C1164 C 0.46792 0.24743 0.14155 0.0
C1165 C 0.48586 0.26227 0.16531 0.0
C1166 C 0.50277 0.24177 0.15114 0.0
C1167 C 0.48407 0.22589 0.13169 0.0
N1168 N 0.44775 0.21199 0.11437 0.0
N1169 N 0.51886 0.27191 0.20009 0.0
C1170 C 0.46631 0.22826 0.12849 0.0
C1171 C 0.50288 0.25896 0.17223 0.0
N1172 N 0.45277 0.25194 0.13013 0.0
N1173 N 0.52063 0.24077 0.14808 0.0
H1174 H 0.51941 0.28459 0.21659 0.0
H1175 H 0.53059 0.26897 0.21017 0.0
H1176 H 0.5213 0.22859 0.13215 0.0
H1177 H 0.53517 0.25295 0.15744 0.0
H1178 H 0.44045 0.24271 0.1086 0.0
H1179 H 0.45341 0.26584 0.13907 0.0
H1180 H 0.43378 0.21205 0.11599 0.0
H1181 H 0.44599 0.19772 0.10445 0.0
C1182 C 0.23817 0.45947 0.31265 0.0
C1183 C 0.25734 0.47831 0.3083 0.0
C1184 C 0.24206 0.49775 0.34189 0.0
C1185 C 0.22246 0.47922 0.34276 0.0
N1186 N 0.20095 0.44279 0.32573 0.0
N1187 N 0.27732 0.51572 0.313 0.0
C1188 C 0.22025 0.46013 0.32729 0.0
C1189 C 0.25924 0.49755 0.32143 0.0
N1190 N 0.23726 0.44097 0.30368 0.0
N1191 N 0.24427 0.51546 0.36133 0.0
H1192 H 0.29043 0.51624 0.2988 0.0
H1193 H 0.27891 0.53037 0.31683 0.0
H1194 H 0.23193 0.5163 0.37582 0.0
H1195 H 0.25856 0.52886 0.36639 0.0
H1196 H 0.22438 0.42653 0.31071 0.0
H1197 H 0.24999 0.44002 0.29185 0.0
H1198 H 0.19785 0.42898 0.3101 0.0
H1199 H 0.18765 0.44255 0.33792 0.0
C1200 C 0.75992 0.21846 0.49066 0.0
C1201 C 0.74212 0.21995 0.5017 0.0
C1202 C 0.75955 0.2561 0.47593 0.0
C1203 C 0.77791 0.25514 0.46821 0.0
N1204 N 0.79681 0.23665 0.47309 0.0
N1205 N 0.72572 0.24068 0.5118 0.0
C1206 C 0.77845 0.23664 0.47687 0.0
C1207 C 0.74215 0.23893 0.49632 0.0
N1208 N 0.75891 0.19959 0.49233 0.0
N1209 N 0.75856 0.27321 0.46249 0.0
H1210 H 0.71252 0.22836 0.52643 0.0
H1211 H 0.72582 0.25473 0.51359 0.0
H1212 H 0.77104 0.28621 0.44766 0.0
H1213 H 0.74491 0.27391 0.46249 0.0
H1214 H 0.77054 0.19697 0.48002 0.0
H1215 H 0.74573 0.18608 0.50332 0.0
H1216 H 0.79881 0.2244 0.48359 0.0
H1217 H 0.81056 0.2496 0.46224 0.0
C1218 C 0.51899 0.7598 0.59865 0.0
C1219 C 0.52582 0.7781 0.62479 0.0
C1220 C 0.53252 0.76157 0.68938 0.0
C1221 C 0.52624 0.7435 0.66275 0.0
N1222 N 0.51923 0.72755 0.58898 0.0
N1223 N 0.54417 0.79842 0.69019 0.0
C1224 C 0.52138 0.74336 0.61628 0.0
C1225 C 0.53428 0.77963 0.66865 0.0
N1226 N 0.50912 0.75756 0.55823 0.0
N1227 N 0.53573 0.76116 0.73483 0.0
H1228 H 0.54594 0.81201 0.67558 0.0
H1229 H 0.55233 0.80093 0.72038 0.0
H1230 H 0.5346 0.74822 0.75134 0.0
H1231 H 0.53798 0.77308 0.75678 0.0
H1232 H 0.50174 0.74362 0.54036 0.0
H1233 H 0.50673 0.76908 0.54422 0.0
H1234 H 0.51766 0.7276 0.55395 0.0
H1235 H 0.52113 0.71539 0.6009 0.0
C1236 C 0.74026 0.49853 0.80694 0.0
C1237 C 0.74037 0.51741 0.79884 0.0
C1238 C 0.77702 0.53742 0.82122 0.0
C1239 C 0.7764 0.51856 0.83253 0.0
N1240 N 0.75709 0.48134 0.84221 0.0
N1241 N 0.75764 0.55478 0.80249 0.0
C1242 C 0.7579 0.49914 0.82709 0.0
C1243 C 0.75844 0.53688 0.8071 0.0
N1244 N 0.72344 0.48005 0.79426 0.0
N1245 N 0.79548 0.55574 0.82303 0.0
H1246 H 0.74445 0.55496 0.79097 0.0
H1247 H 0.76949 0.56932 0.81274 0.0
H1248 H 0.80925 0.55673 0.83442 0.0
H1249 H 0.79754 0.56975 0.81055 0.0
H1250 H 0.72322 0.46594 0.79453 0.0
H1251 H 0.71012 0.479 0.77994 0.0
H1252 H 0.74344 0.46703 0.84402 0.0
H1253 H 0.76983 0.48106 0.8563 0.0
C1254 C 0.22199 0.76134 0.97356 0.0
C1255 C 0.2235 0.74367 0.96141 0.0
C1256 C 0.25974 0.76104 0.98644 0.0
C1257 C 0.25878 0.77932 0.99518 0.0
N1258 N 0.24023 0.7982 0.99097 0.0
N1259 N 0.24456 0.72786 0.94794 0.0
C1260 C 0.24023 0.77987 0.98703 0.0
C1261 C 0.24263 0.74388 0.96536 0.0
N1262 N 0.20304 0.76019 0.97357 0.0
N1263 N 0.27673 0.75981 0.99983 0.0
H1264 H 0.23234 0.71499 0.93217 0.0
H1265 H 0.25871 0.7282 0.94541 0.0
H1266 H 0.28955 0.77198 0.01586 0.0
H1267 H 0.27735 0.74612 0.99883 0.0
H1268 H 0.20052 0.77173 0.98688 0.0
H1269 H 0.18942 0.74698 0.96316 0.0
H1270 H 0.22787 0.80013 0.98087 0.0
H1271 H 0.25328 0.81202 0.00116 0.0
C1272 C 0.59076 0.14775 0.82244 0.0
C1273 C 0.58223 0.145 0.77831 0.0
C1274 C 0.5512 0.14411 0.80945 0.0
C1275 C 0.5588 0.14471 0.85379 0.0
N1276 N 0.58414 0.14366 0.90317 0.0
N1277 N 0.55289 0.13691 0.73008 0.0
C1278 C 0.57815 0.1456 0.86053 0.0
C1279 C 0.56204 0.14221 0.77183 0.0
N1280 N 0.61109 0.153 0.82787 0.0
N1281 N 0.53392 0.1459 0.80324 0.0
H1282 H 0.5602 0.13512 0.70169 0.0
H1283 H 0.53738 0.13248 0.72437 0.0
H1284 H 0.52556 0.14731 0.83003 0.0
H1285 H 0.52894 0.14781 0.77158 0.0
H1286 H 0.6188 0.15735 0.85884 0.0
H1287 H 0.62084 0.15481 0.80073 0.0
H1288 H 0.59694 0.14187 0.90967 0.0
H1289 H 0.57532 0.14204 0.93198 0.0
C1290 C 0.44999 0.59205 0.002 0.0
C1291 C 0.44177 0.58701 0.95754 0.0
C1292 C 0.40861 0.55929 0.98733 0.0
C1293 C 0.41749 0.56306 0.03127 0.0
N1294 N 0.44752 0.58071 0.07982 0.0
N1295 N 0.41448 0.56433 0.90639 0.0
C1296 C 0.43842 0.57887 0.03852 0.0
C1297 C 0.4214 0.5702 0.94975 0.0
N1298 N 0.46868 0.60964 0.00936 0.0
N1299 N 0.38783 0.54575 0.98175 0.0
H1300 H 0.4232 0.57224 0.87799 0.0
H1301 H 0.40077 0.55075 0.8984 0.0
H1302 H 0.37798 0.53749 0.00852 0.0
H1303 H 0.37998 0.54395 0.95141 0.0
H1304 H 0.47444 0.61542 0.04148 0.0
H1305 H 0.47773 0.61947 0.98326 0.0
H1306 H 0.46332 0.59041 0.08585 0.0
H1307 H 0.43964 0.57124 0.10738 0.0
C1308 C 0.85584 0.41834 0.10096 0.0
C1309 C 0.8531 0.43573 0.10801 0.0
C1310 C 0.85221 0.4305 0.19009 0.0
C1311 C 0.85326 0.41217 0.18278 0.0
N1312 N 0.85244 0.3865 0.13163 0.0
N1313 N 0.84496 0.45629 0.15821 0.0
C1314 C 0.85398 0.40543 0.13826 0.0
C1315 C 0.85022 0.44123 0.15233 0.0
N1316 N 0.86108 0.41465 0.05899 0.0
N1317 N 0.8538 0.43804 0.23304 0.0
H1318 H 0.84325 0.46441 0.13132 0.0
H1319 H 0.84053 0.45948 0.18926 0.0
H1320 H 0.85506 0.43052 0.26166 0.0
H1321 H 0.85554 0.45256 0.24007 0.0
H1322 H 0.86547 0.40358 0.0528 0.0
H1323 H 0.86283 0.42386 0.03086 0.0
H1324 H 0.85058 0.37972 0.09985 0.0
H1325 H 0.85122 0.37671 0.15823 0.0
C1326 C 0.43332 0.83977 0.32114 0.0
C1327 C 0.43616 0.85267 0.35901 0.0
C1328 C 0.41399 0.86443 0.32361 0.0
C1329 C 0.41317 0.85343 0.28371 0.0
N1330 N 0.42416 0.83273 0.24177 0.0
N1331 N 0.43185 0.87964 0.39402 0.0
C1332 C 0.42334 0.84158 0.28174 0.0
C1333 C 0.42715 0.86561 0.35974 0.0
N1334 N 0.43974 0.82545 0.32328 0.0
N1335 N 0.4018 0.87335 0.32733 0.0
H1336 H 0.4415 0.88108 0.42108 0.0
H1337 H 0.42763 0.89106 0.39377 0.0
H1338 H 0.39191 0.87274 0.30154 0.0
H1339 H 0.40005 0.87969 0.35732 0.0
H1340 H 0.43617 0.81411 0.2987 0.0
H1341 H 0.44714 0.82373 0.35161 0.0
H1342 H 0.43332 0.82591 0.2369 0.0
H1343 H 0.41695 0.83359 0.21222 0.0
C1344 C 0.56293 0.4193 0.52895 0.0
C1345 C 0.5849 0.43131 0.526 0.0
C1346 C 0.58373 0.41235 0.45728 0.0
C1347 C 0.56201 0.40464 0.45434 0.0
N1348 N 0.5331 0.38717 0.50547 0.0
N1349 N 0.61669 0.43833 0.48864 0.0
C1350 C 0.55185 0.4041 0.49537 0.0
C1351 C 0.59549 0.42748 0.49068 0.0
N1352 N 0.55254 0.42252 0.56326 0.0
N1353 N 0.59236 0.40281 0.43355 0.0
H1354 H 0.62589 0.4491 0.51326 0.0
H1355 H 0.62496 0.43756 0.4609 0.0
H1356 H 0.58317 0.38928 0.415 0.0
H1357 H 0.60777 0.40646 0.43742 0.0
H1358 H 0.53637 0.41542 0.56401 0.0
H1359 H 0.56007 0.43338 0.58896 0.0
H1360 H 0.52582 0.3851 0.53675 0.0
H1361 H 0.52656 0.37398 0.48485 0.0
C1362 C 0.14097 0.5783 0.60752 0.0
C1363 C 0.14942 0.56498 0.61244 0.0
C1364 C 0.15586 0.5738 0.69299 0.0
C1365 C 0.14849 0.58801 0.68745 0.0
N1366 N 0.138 0.60698 0.63819 0.0
N1367 N 0.16849 0.5529 0.65688 0.0
C1368 C 0.14226 0.59123 0.64425 0.0
C1369 C 0.15799 0.56362 0.65433 0.0
N1370 N 0.13098 0.57798 0.56838 0.0
N1371 N 0.15997 0.56939 0.73539 0.0
H1372 H 0.17023 0.54516 0.62923 0.0
H1373 H 0.17697 0.55314 0.68516 0.0
H1374 H 0.15869 0.57657 0.76457 0.0
H1375 H 0.16311 0.55747 0.74212 0.0
H1376 H 0.12243 0.58552 0.5647 0.0
H1377 H 0.12979 0.56881 0.54053 0.0
H1378 H 0.13548 0.61152 0.60658 0.0
H1379 H 0.13883 0.61679 0.66438 0.0
C1380 C 0.38944 0.0108 0.03864 0.0
C1381 C 0.4075 0.02308 0.06485 0.0
C1382 C 0.40589 0.99185 0.09632 0.0
C1383 C 0.38764 0.97947 0.07056 0.0
N1384 N 0.35954 0.97664 0.0247 0.0
N1385 N 0.43001 0.02586 0.12654 0.0
C1386 C 0.37858 0.98882 0.04411 0.0
C1387 C 0.41469 0.01374 0.09646 0.0
N1388 N 0.38316 0.02013 0.00749 0.0
N1389 N 0.41557 0.98283 0.11839 0.0
H1390 H 0.43713 0.04203 0.12705 0.0
H1391 H 0.43437 0.01986 0.15356 0.0
H1392 H 0.40979 0.96684 0.11916 0.0
H1393 H 0.43024 0.99127 0.13301 0.0
H1394 H 0.37156 0.01199 0.98364 0.0
H1395 H 0.39038 0.03624 0.00394 0.0
H1396 H 0.35118 0.98253 0.00834 0.0
H1397 H 0.35129 0.9605 0.02825 0.0
C1398 C 0.3948 0.38453 0.26515 0.0
C1399 C 0.41118 0.38919 0.23425 0.0
C1400 C 0.40582 0.41576 0.19771 0.0
C1401 C 0.38988 0.41156 0.22952 0.0
N1402 N 0.36626 0.38987 0.28752 0.0
N1403 N 0.42998 0.40615 0.16611 0.0
C1404 C 0.38337 0.39516 0.26126 0.0
C1405 C 0.41584 0.40375 0.1987 0.0
N1406 N 0.39071 0.37044 0.299 0.0
N1407 N 0.41201 0.43195 0.16802 0.0
H1408 H 0.43847 0.39846 0.16682 0.0
H1409 H 0.4324 0.4147 0.13658 0.0
H1410 H 0.40436 0.44043 0.16476 0.0
H1411 H 0.42528 0.43772 0.148 0.0
H1412 H 0.38059 0.36785 0.32575 0.0
H1413 H 0.39818 0.36174 0.30136 0.0
H1414 H 0.3595 0.377 0.30881 0.0
H1415 H 0.35781 0.39761 0.28561 0.0
C1416 C 0.0127 0.41892 0.36936 0.0
C1417 C 0.02255 0.41223 0.40078 0.0
C1418 C 0.98889 0.38204 0.41997 0.0
C1419 C 0.97888 0.3906 0.3941 0.0
N1420 N 0.98116 0.41877 0.3487 0.0
N1421 N 0.02043 0.38815 0.45802 0.0
C1422 C 0.99074 0.40935 0.36953 0.0
C1423 C 0.01079 0.39384 0.42639 0.0
N1424 N 0.02439 0.43439 0.3392 0.0
N1425 N 0.97745 0.36255 0.43786 0.0
H1426 H 0.0365 0.39622 0.46282 0.0
H1427 H 0.01246 0.37626 0.48137 0.0
H1428 H 0.9614 0.35352 0.43344 0.0
H1429 H 0.984 0.35463 0.45355 0.0
H1430 H 0.01799 0.43846 0.31248 0.0
H1431 H 0.04059 0.44178 0.33813 0.0
H1432 H 0.98924 0.43365 0.33491 0.0
H1433 H 0.96511 0.4126 0.34853 0.0
C1434 C 0.60321 0.98868 0.54628 0.0
C1435 C 0.58464 0.97693 0.57146 0.0
C1436 C 0.58673 0.00889 0.60019 0.0
C1437 C 0.60526 0.02064 0.57491 0.0
N1438 N 0.63317 0.02254 0.5299 0.0
N1439 N 0.56023 0.9752 0.62776 0.0
C1440 C 0.61417 0.01075 0.54987 0.0
C1441 C 0.57693 0.98686 0.60028 0.0
N1442 N 0.60997 0.97868 0.51811 0.0
N1443 N 0.57808 0.01884 0.62265 0.0
H1444 H 0.55191 0.95901 0.62725 0.0
H1445 H 0.5553 0.98138 0.65329 0.0
H1446 H 0.58532 0.03498 0.62536 0.0
H1447 H 0.56326 0.01131 0.63671 0.0
H1448 H 0.62202 0.9862 0.49493 0.0
H1449 H 0.60284 0.96252 0.5164 0.0
H1450 H 0.64155 0.01644 0.51452 0.0
H1451 H 0.64135 0.03875 0.53134 0.0
C1452 C 0.5921 0.5795 0.75269 0.0
C1453 C 0.61093 0.58857 0.72773 0.0
C1454 C 0.60895 0.62025 0.71714 0.0
C1455 C 0.58883 0.61006 0.73684 0.0
N1456 N 0.5597 0.57877 0.7669 0.0
N1457 N 0.63679 0.61675 0.68295 0.0
C1458 C 0.58001 0.58938 0.75315 0.0
C1459 C 0.61933 0.6088 0.70925 0.0
N1460 N 0.58595 0.56157 0.77659 0.0
N1461 N 0.61821 0.64091 0.70675 0.0
H1462 H 0.64494 0.60889 0.67723 0.0
H1463 H 0.64241 0.63043 0.66439 0.0
H1464 H 0.61095 0.64967 0.71215 0.0
H1465 H 0.63361 0.64975 0.69635 0.0
H1466 H 0.57353 0.55545 0.79919 0.0
H1467 H 0.59444 0.55385 0.77725 0.0
H1468 H 0.5518 0.56292 0.77405 0.0
H1469 H 0.55008 0.58525 0.76734 0.0
C1470 C 0.01158 0.59308 0.93606 0.0
C1471 C 0.02117 0.61001 0.90541 0.0
C1472 C 0.98709 0.60486 0.88334 0.0
C1473 C 0.97753 0.58643 0.90961 0.0
N1474 N 0.98004 0.56207 0.9595 0.0
N1475 N 0.01881 0.63217 0.8491 0.0
C1476 C 0.9896 0.58041 0.93605 0.0
C1477 C 0.00913 0.6161 0.87912 0.0
N1478 N 0.02354 0.58917 0.96521 0.0
N1479 N 0.97503 0.61158 0.86274 0.0
H1480 H 0.03495 0.64117 0.84657 0.0
H1481 H 0.01099 0.63601 0.82521 0.0
H1482 H 0.95883 0.60348 0.86489 0.0
H1483 H 0.98095 0.62584 0.8464 0.0
H1484 H 0.01752 0.57852 0.99165 0.0
H1485 H 0.03974 0.59771 0.96531 0.0
H1486 H 0.98796 0.5554 0.97464 0.0
H1487 H 0.96393 0.55274 0.96179 0.0
loop_
_geom_bond_atom_site_label_1
_geom_bond_atom_site_label_2
_geom_bond_distance
_geom_bond_site_symmetry_2
_ccdc_geom_bond_type
Li0 N17 1.990 . S
Li0 O60 1.956 . S
Li0 O61 1.970 . S
Li0 O62 1.961 . S
Li1 N25 1.990 . S
Li1 O60 1.970 . S
Li1 O61 1.956 . S
Li1 O63 1.961 . S
Li2 N47 1.990 . S
Li2 O60 1.961 . S
Li2 O62 1.956 . S
Li2 O63 1.970 . S
Li3 N53 1.990 1_554 S
Li3 O61 1.961 . S
Li3 O62 1.970 . S
Li3 O63 1.956 . S
C4 C6 1.348 . S
C4 C7 1.356 . S
C4 O60 1.325 . S
N5 C8 1.314 . S
N5 C9 1.279 . S
C6 C4 1.348 . S
C6 C8 1.353 . S
C6 H64 0.929 . S
C7 C4 1.356 . S
C7 C9 1.358 . S
C7 H65 0.930 . S
C8 N5 1.314 . S
C8 C6 1.353 . S
C8 H66 0.930 . S
C9 N5 1.279 . S
C9 C7 1.358 . S
C9 H67 0.930 . S
C10 C13 1.348 . S
C10 C14 1.356 . S
C10 O61 1.325 . S
C11 N12 1.279 . S
C11 C14 1.358 . S
C11 H68 0.930 . S
N12 C11 1.279 . S
N12 C15 1.314 . S
C13 C10 1.348 . S
C13 C15 1.353 . S
C13 H69 0.929 . S
C14 C10 1.356 . S
C14 C11 1.358 . S
C14 H70 0.930 . S
C15 N12 1.314 . S
C15 C13 1.353 . S
C15 H71 0.930 . S
C16 N17 1.314 . S
C16 C21 1.353 . S
C16 H22 0.930 . S
N17 Li0 1.990 . S
N17 C16 1.314 . S
N17 C19 1.279 . S
C18 C19 1.358 . S
C18 C20 1.356 . S
C18 H72 0.930 . S
C19 N17 1.279 . S
C19 C18 1.358 . S
C19 H23 0.930 . S
C20 C18 1.356 . S
C20 C21 1.348 . S
C21 C16 1.353 . S
C21 C20 1.348 . S
C21 H73 0.929 . S
H22 C16 0.930 . S
H23 C19 0.930 . S
C24 N25 1.314 . S
C24 C26 1.353 . S
C24 H30 0.930 . S
N25 Li1 1.990 . S
N25 C24 1.314 . S
N25 C28 1.279 . S
C26 C24 1.353 . S
C26 C29 1.348 . S
C26 H74 0.929 . S
C27 C28 1.358 . S
C27 C29 1.356 . S
C27 H75 0.930 . S
C28 N25 1.279 . S
C28 C27 1.358 . S
C28 H31 0.930 . S
C29 C26 1.348 . S
C29 C27 1.356 . S
H30 C24 0.930 . S
H31 C28 0.930 . S
C32 C34 1.348 . S
C32 C35 1.358 . S
C32 O62 1.325 1_556 S
N33 C36 1.314 . S
N33 C37 1.279 . S
C34 C32 1.348 . S
C34 C36 1.353 . S
C34 H76 0.929 . S
C35 C32 1.358 . S
C35 C37 1.377 . S
C35 H77 0.909 1_556 S
C36 N33 1.314 . S
C36 C34 1.353 . S
C36 H78 0.930 . S
C37 N33 1.279 . S
C37 C35 1.377 . S
C37 H79 0.930 . S
C38 C39 1.348 . S
C38 C40 1.356 . S
C38 O63 1.325 . S
C39 C38 1.348 . S
C39 C41 1.353 . S
C39 H80 0.929 . S
C40 C38 1.356 . S
C40 C42 1.358 . S
C40 H81 0.930 . S
C41 C39 1.353 . S
C41 N43 1.314 . S
C41 H82 0.930 . S
C42 C40 1.358 . S
C42 N43 1.279 . S
C42 H83 0.930 . S
N43 C41 1.314 . S
N43 C42 1.279 . S
C44 C46 1.353 . S
C44 N47 1.314 . S
C44 H50 0.930 . S
C45 N47 1.279 . S
C45 C48 1.358 . S
C45 H51 0.930 . S
C46 C44 1.353 . S
C46 C49 1.348 . S
C46 H84 0.929 . S
N47 Li2 1.990 . S
N47 C44 1.314 . S
N47 C45 1.279 . S
C48 C45 1.358 . S
C48 C49 1.356 . S
C48 H85 0.930 . S
C49 C46 1.348 . S
C49 C48 1.356 . S
H50 C44 0.930 . S
H51 C45 0.930 . S
C52 N53 1.314 . S
C52 C54 1.353 . S
C52 H58 0.930 . S
N53 Li3 1.990 1_556 S
N53 C52 1.314 . S
N53 C56 1.279 . S
C54 C52 1.353 . S
C54 C57 1.348 . S
C54 H86 0.929 . S
C55 C56 1.358 . S
C55 C57 1.356 . S
C55 H87 0.930 . S
C56 N53 1.279 . S
C56 C55 1.358 . S
C56 H59 0.930 . S
C57 C54 1.348 . S
C57 C55 1.356 . S
H58 C52 0.930 . S
H59 C56 0.930 . S
O60 Li0 1.956 . S
O60 Li1 1.970 . S
O60 Li2 1.961 . S
O60 C4 1.325 . S
O61 Li0 1.970 . S
O61 Li1 1.956 . S
O61 Li3 1.961 . S
O61 C10 1.325 . S
O62 Li0 1.961 . S
O62 Li2 1.956 . S
O62 Li3 1.970 . S
O62 C32 1.325 1_554 S
O63 Li1 1.961 . S
O63 Li2 1.970 . S
O63 Li3 1.956 . S
O63 C38 1.325 . S
H64 C6 0.929 . S
H65 C7 0.930 . S
H66 C8 0.930 . S
H67 C9 0.930 . S
H68 C11 0.930 . S
H69 C13 0.929 . S
H70 C14 0.930 . S
H71 C15 0.930 . S
H72 C18 0.930 . S
H73 C21 0.929 . S
H74 C26 0.929 . S
H75 C27 0.930 . S
H76 C34 0.929 . S
H77 C35 0.909 1_554 S
H78 C36 0.930 . S
H79 C37 0.930 . S
H80 C39 0.929 . S
H81 C40 0.930 . S
H82 C41 0.930 . S
H83 C42 0.930 . S
H84 C46 0.929 . S
H85 C48 0.930 . S
H86 C54 0.929 . S
H87 C55 0.930 . S
Li88 N105 1.990 . S
Li88 O148 1.956 . S
Li88 O149 1.970 . S
Li88 O150 1.961 . S
Li89 N113 1.990 . S
Li89 O148 1.970 . S
Li89 O149 1.956 . S
Li89 O151 1.961 . S
Li90 N135 1.990 . S
Li90 O148 1.961 . S
Li90 O150 1.956 . S
Li90 O151 1.970 . S
Li91 N141 1.990 . S
Li91 O149 1.961 . S
Li91 O150 1.970 . S
Li91 O151 1.956 . S
C92 C94 1.348 . S
C92 C95 1.356 . S
C92 O148 1.325 . S
N93 C96 1.314 . S
N93 C97 1.279 . S
C94 C92 1.348 . S
C94 C96 1.353 . S
C94 H152 0.929 . S
C95 C92 1.356 . S
C95 C97 1.358 . S
C95 H153 0.930 . S
C96 N93 1.314 . S
C96 C94 1.353 . S
C96 H154 0.930 . S
C97 N93 1.279 . S
C97 C95 1.358 . S
C97 H155 0.930 . S
C98 C101 1.348 . S
C98 C102 1.356 . S
C98 O149 1.325 . S
C99 N100 1.279 . S
C99 C102 1.358 . S
C99 H156 0.930 . S
N100 C99 1.279 . S
N100 C103 1.314 . S
C101 C98 1.348 . S
C101 C103 1.353 . S
C101 H157 0.929 . S
C102 C98 1.356 . S
C102 C99 1.358 . S
C102 H158 0.930 . S
C103 N100 1.314 . S
C103 C101 1.353 . S
C103 H159 0.930 . S
C104 N105 1.314 . S
C104 C109 1.353 . S
C104 H110 0.930 . S
N105 Li88 1.990 . S
N105 C104 1.314 . S
N105 C107 1.279 . S
C106 C107 1.358 . S
C106 C108 1.356 . S
C106 H160 0.930 . S
C107 N105 1.279 . S
C107 C106 1.358 . S
C107 H111 0.930 . S
C108 C106 1.356 . S
C108 C109 1.348 . S
C109 C104 1.353 . S
C109 C108 1.348 . S
C109 H161 0.929 . S
H110 C104 0.930 . S
H111 C107 0.930 . S
C112 N113 1.314 . S
C112 C114 1.353 . S
C112 H118 0.930 . S
N113 Li89 1.990 . S
N113 C112 1.314 . S
N113 C116 1.279 . S
C114 C112 1.353 . S
C114 C117 1.348 . S
C114 H162 0.929 . S
C115 C116 1.358 . S
C115 C117 1.356 . S
C115 H163 0.930 . S
C116 N113 1.279 . S
C116 C115 1.358 . S
C116 H119 0.930 . S
C117 C114 1.348 . S
C117 C115 1.356 . S
H118 C112 0.930 . S
H119 C116 0.930 . S
C120 C122 1.348 . S
C120 C123 1.356 . S
C120 O150 1.325 . S
N121 C124 1.314 . S
N121 C125 1.279 . S
C122 C120 1.348 . S
C122 C124 1.353 . S
C122 H164 0.929 . S
C123 C120 1.356 . S
C123 C125 1.358 . S
C123 H165 0.930 . S
C124 N121 1.314 . S
C124 C122 1.353 . S
C124 H166 0.930 . S
C125 N121 1.279 . S
C125 C123 1.358 . S
C125 H167 0.930 . S
C126 C127 1.348 . S
C126 C128 1.356 . S
C126 O151 1.325 . S
C127 C126 1.348 . S
C127 C129 1.353 . S
C127 H168 0.929 . S
C128 C126 1.356 . S
C128 C130 1.358 . S
C128 H169 0.930 . S
C129 C127 1.353 . S
C129 N131 1.314 . S
C129 H170 0.930 . S
C130 C128 1.358 . S
C130 N131 1.279 . S
C130 H171 0.930 . S
N131 C129 1.314 . S
N131 C130 1.279 . S
C132 C134 1.353 . S
C132 N135 1.314 . S
C132 H138 0.930 . S
C133 N135 1.279 . S
C133 C136 1.358 . S
C133 H139 0.930 . S
C134 C132 1.353 . S
C134 C137 1.348 . S
C134 H172 0.929 . S
N135 Li90 1.990 . S
N135 C132 1.314 . S
N135 C133 1.279 . S
C136 C133 1.358 . S
C136 C137 1.356 . S
C136 H173 0.930 . S
C137 C134 1.348 . S
C137 C136 1.356 . S
H138 C132 0.930 . S
H139 C133 0.930 . S
C140 N141 1.314 . S
C140 C142 1.353 . S
C140 H146 0.930 . S
N141 Li91 1.990 . S
N141 C140 1.314 . S
N141 C144 1.279 . S
C142 C140 1.353 . S
C142 C145 1.348 . S
C142 H174 0.929 . S
C143 C144 1.358 . S
C143 C145 1.356 . S
C143 H175 0.930 . S
C144 N141 1.279 . S
C144 C143 1.358 . S
C144 H147 0.930 . S
C145 C142 1.348 . S
C145 C143 1.356 . S
H146 C140 0.930 . S
H147 C144 0.930 . S
O148 Li88 1.956 . S
O148 Li89 1.970 . S
O148 Li90 1.961 . S
O148 C92 1.325 . S
O149 Li88 1.970 . S
O149 Li89 1.956 . S
O149 Li91 1.961 . S
O149 C98 1.325 . S
O150 Li88 1.961 . S
O150 Li90 1.956 . S
O150 Li91 1.970 . S
O150 C120 1.325 . S
O151 Li89 1.961 . S
O151 Li90 1.970 . S
O151 Li91 1.956 . S
O151 C126 1.325 . S
H152 C94 0.929 . S
H153 C95 0.930 . S
H154 C96 0.930 . S
H155 C97 0.930 . S
H156 C99 0.930 . S
H157 C101 0.929 . S
H158 C102 0.930 . S
H159 C103 0.930 . S
H160 C106 0.930 . S
H161 C109 0.929 . S
H162 C114 0.929 . S
H163 C115 0.930 . S
H164 C122 0.929 . S
H165 C123 0.930 . S
H166 C124 0.930 . S
H167 C125 0.930 . S
H168 C127 0.929 . S
H169 C128 0.930 . S
H170 C129 0.930 . S
H171 C130 0.930 . S
H172 C134 0.929 . S
H173 C136 0.930 . S
H174 C142 0.929 . S
H175 C143 0.930 . S
Li176 N193 1.990 . S
Li176 O236 1.956 . S
Li176 O237 1.970 . S
Li176 O238 1.961 . S
Li177 N201 1.990 . S
Li177 O236 1.970 . S
Li177 O237 1.956 . S
Li177 O239 1.961 . S
Li178 N223 1.990 . S
Li178 O236 1.961 . S
Li178 O238 1.956 . S
Li178 O239 1.970 . S
Li179 N229 1.990 . S
Li179 O237 1.961 . S
Li179 O238 1.970 . S
Li179 O239 1.956 . S
C180 C182 1.348 . S
C180 C183 1.356 . S
C180 O236 1.325 . S
N181 C184 1.314 . S
N181 C185 1.279 . S
C182 C180 1.348 . S
C182 C184 1.353 . S
C182 H240 0.929 . S
C183 C180 1.356 . S
C183 C185 1.358 . S
C183 H241 0.930 . S
C184 N181 1.314 . S
C184 C182 1.353 . S
C184 H242 0.930 . S
C185 N181 1.279 . S
C185 C183 1.358 . S
C185 H243 0.930 . S
C186 C189 1.348 . S
C186 C190 1.356 . S
C186 O237 1.325 . S
C187 N188 1.279 . S
C187 C190 1.358 . S
C187 H244 0.930 . S
N188 C187 1.279 . S
N188 C191 1.314 . S
C189 C186 1.348 . S
C189 C191 1.353 . S
C189 H245 0.929 . S
C190 C186 1.356 . S
C190 C187 1.358 . S
C190 H246 0.930 . S
C191 N188 1.314 . S
C191 C189 1.353 . S
C191 H247 0.930 . S
C192 N193 1.314 . S
C192 C197 1.353 . S
C192 H198 0.930 . S
N193 Li176 1.990 . S
N193 C192 1.314 . S
N193 C195 1.279 . S
C194 C195 1.358 . S
C194 C196 1.356 . S
C194 H248 0.930 . S
C195 N193 1.279 . S
C195 C194 1.358 . S
C195 H199 0.930 . S
C196 C194 1.356 . S
C196 C197 1.348 . S
C197 C192 1.353 . S
C197 C196 1.348 . S
C197 H249 0.929 . S
H198 C192 0.930 . S
H199 C195 0.930 . S
C200 N201 1.314 . S
C200 C202 1.353 . S
C200 H206 0.930 . S
N201 Li177 1.990 . S
N201 C200 1.314 . S
N201 C204 1.279 . S
C202 C200 1.353 . S
C202 C205 1.348 . S
C202 H250 0.929 . S
C203 C204 1.358 . S
C203 C205 1.356 . S
C203 H251 0.930 . S
C204 N201 1.279 . S
C204 C203 1.358 . S
C204 H207 0.930 . S
C205 C202 1.348 . S
C205 C203 1.356 . S
H206 C200 0.930 . S
H207 C204 0.930 . S
C208 C210 1.348 . S
C208 C211 1.356 . S
C208 O238 1.325 . S
N209 C212 1.314 . S
N209 C213 1.279 . S
C210 C208 1.348 . S
C210 C212 1.353 . S
C210 H252 0.929 . S
C211 C208 1.356 . S
C211 C213 1.358 . S
C211 H253 0.930 . S
C212 N209 1.314 . S
C212 C210 1.353 . S
C212 H254 0.930 . S
C213 N209 1.279 . S
C213 C211 1.358 . S
C213 H255 0.930 . S
C214 C215 1.348 . S
C214 C216 1.356 . S
C214 O239 1.325 . S
C215 C214 1.348 . S
C215 C217 1.353 . S
C215 H256 0.929 . S
C216 C214 1.356 . S
C216 C218 1.358 . S
C216 H257 0.930 . S
C217 C215 1.353 . S
C217 N219 1.314 . S
C217 H258 0.930 . S
C218 C216 1.358 . S
C218 N219 1.279 . S
C218 H259 0.930 . S
N219 C217 1.314 . S
N219 C218 1.279 . S
C220 C222 1.353 . S
C220 N223 1.314 . S
C220 H226 0.930 . S
C221 N223 1.279 . S
C221 C224 1.358 . S
C221 H227 0.930 . S
C222 C220 1.353 . S
C222 C225 1.348 . S
C222 H260 0.929 . S
N223 Li178 1.990 . S
N223 C220 1.314 . S
N223 C221 1.279 . S
C224 C221 1.358 . S
C224 C225 1.356 . S
C224 H261 0.930 . S
C225 C222 1.348 . S
C225 C224 1.356 . S
H226 C220 0.930 . S
H227 C221 0.930 . S
C228 N229 1.314 . S
C228 C230 1.353 . S
C228 H234 0.930 . S
N229 Li179 1.990 . S
N229 C228 1.314 . S
N229 C232 1.279 . S
C230 C228 1.353 . S
C230 C233 1.348 . S
C230 H262 0.929 . S
C231 C232 1.358 . S
C231 C233 1.356 . S
C231 H263 0.930 . S
C232 N229 1.279 . S
C232 C231 1.358 . S
C232 H235 0.930 . S
C233 C230 1.348 . S
C233 C231 1.356 . S
H234 C228 0.930 . S
H235 C232 0.930 . S
O236 Li176 1.956 . S
O236 Li177 1.970 . S
O236 Li178 1.961 . S
O236 C180 1.325 . S
O237 Li176 1.970 . S
O237 Li177 1.956 . S
O237 Li179 1.961 . S
O237 C186 1.325 . S
O238 Li176 1.961 . S
O238 Li178 1.956 . S
O238 Li179 1.970 . S
O238 C208 1.325 . S
O239 Li177 1.961 . S
O239 Li178 1.970 . S
O239 Li179 1.956 . S
O239 C214 1.325 . S
H240 C182 0.929 . S
H241 C183 0.930 . S
H242 C184 0.930 . S
H243 C185 0.930 . S
H244 C187 0.930 . S
H245 C189 0.929 . S
H246 C190 0.930 . S
H247 C191 0.930 . S
H248 C194 0.930 . S
H249 C197 0.929 . S
H250 C202 0.929 . S
H251 C203 0.930 . S
H252 C210 0.929 . S
H253 C211 0.930 . S
H254 C212 0.930 . S
H255 C213 0.930 . S
H256 C215 0.929 . S
H257 C216 0.930 . S
H258 C217 0.930 . S
H259 C218 0.930 . S
H260 C222 0.929 . S
H261 C224 0.930 . S
H262 C230 0.929 . S
H263 C231 0.930 . S
Li264 N281 1.990 . S
Li264 O324 1.956 . S
Li264 O325 1.970 . S
Li264 O326 1.961 . S
Li265 N289 1.990 . S
Li265 O324 1.970 . S
Li265 O325 1.956 . S
Li265 O327 1.961 . S
Li266 N311 1.990 . S
Li266 O324 1.961 . S
Li266 O326 1.956 . S
Li266 O327 1.970 . S
Li267 N317 1.990 . S
Li267 O325 1.961 . S
Li267 O326 1.970 . S
Li267 O327 1.956 . S
C268 C270 1.348 . S
C268 C271 1.356 . S
C268 O324 1.325 . S
N269 C272 1.314 . S
N269 C273 1.279 . S
C270 C268 1.348 . S
C270 C272 1.353 . S
C270 H328 0.929 . S
C271 C268 1.356 . S
C271 C273 1.358 . S
C271 H329 0.930 . S
C272 N269 1.314 . S
C272 C270 1.353 . S
C272 H330 0.930 . S
C273 N269 1.279 . S
C273 C271 1.358 . S
C273 H331 0.930 . S
C274 C277 1.348 . S
C274 C278 1.356 . S
C274 O325 1.325 . S
C275 N276 1.279 . S
C275 C278 1.358 . S
C275 H332 0.930 . S
N276 C275 1.279 . S
N276 C279 1.314 . S
C277 C274 1.348 . S
C277 C279 1.353 . S
C277 H333 0.929 . S
C278 C274 1.356 . S
C278 C275 1.358 . S
C278 H334 0.930 . S
C279 N276 1.314 . S
C279 C277 1.353 . S
C279 H335 0.930 . S
C280 N281 1.314 . S
C280 C285 1.353 . S
C280 H286 0.930 . S
N281 Li264 1.990 . S
N281 C280 1.314 . S
N281 C283 1.279 . S
C282 C283 1.358 . S
C282 C284 1.356 . S
C282 H336 0.930 . S
C283 N281 1.279 . S
C283 C282 1.358 . S
C283 H287 0.930 . S
C284 C282 1.356 . S
C284 C285 1.348 . S
C285 C280 1.353 . S
C285 C284 1.348 . S
C285 H337 0.929 . S
H286 C280 0.930 . S
H287 C283 0.930 . S
C288 N289 1.314 . S
C288 C290 1.353 . S
C288 H294 0.930 . S
N289 Li265 1.990 . S
N289 C288 1.314 . S
N289 C292 1.279 . S
C290 C288 1.353 . S
C290 C293 1.348 . S
C290 H338 0.929 . S
C291 C292 1.358 . S
C291 C293 1.356 . S
C291 H339 0.930 . S
C292 N289 1.279 . S
C292 C291 1.358 . S
C292 H295 0.930 . S
C293 C290 1.348 . S
C293 C291 1.356 . S
H294 C288 0.930 . S
H295 C292 0.930 . S
C296 C298 1.348 . S
C296 C299 1.356 . S
C296 O326 1.325 . S
N297 C300 1.314 . S
N297 C301 1.279 . S
C298 C296 1.348 . S
C298 C300 1.353 . S
C298 H340 0.929 . S
C299 C296 1.356 . S
C299 C301 1.358 . S
C299 H341 0.930 . S
C300 N297 1.314 . S
C300 C298 1.353 . S
C300 H342 0.930 . S
C301 N297 1.279 . S
C301 C299 1.358 . S
C301 H343 0.930 . S
C302 C303 1.348 . S
C302 C304 1.356 . S
C302 O327 1.325 . S
C303 C302 1.348 . S
C303 C305 1.353 . S
C303 H344 0.929 . S
C304 C302 1.356 . S
C304 C306 1.358 . S
C304 H345 0.930 . S
C305 C303 1.353 . S
C305 N307 1.314 . S
C305 H346 0.930 . S
C306 C304 1.358 . S
C306 N307 1.279 . S
C306 H347 0.930 . S
N307 C305 1.314 . S
N307 C306 1.279 . S
C308 C310 1.353 . S
C308 N311 1.314 . S
C308 H314 0.930 . S
C309 N311 1.279 . S
C309 C312 1.358 . S
C309 H315 0.930 . S
C310 C308 1.353 . S
C310 C313 1.348 . S
C310 H348 0.929 . S
N311 Li266 1.990 . S
N311 C308 1.314 . S
N311 C309 1.279 . S
C312 C309 1.358 . S
C312 C313 1.356 . S
C312 H349 0.930 . S
C313 C310 1.348 . S
C313 C312 1.356 . S
H314 C308 0.930 . S
H315 C309 0.930 . S
C316 N317 1.314 . S
C316 C318 1.353 . S
C316 H322 0.930 . S
N317 Li267 1.990 . S
N317 C316 1.314 . S
N317 C320 1.279 . S
C318 C316 1.353 . S
C318 C321 1.348 . S
C318 H350 0.929 . S
C319 C320 1.358 . S
C319 C321 1.356 . S
C319 H351 0.930 . S
C320 N317 1.279 . S
C320 C319 1.358 . S
C320 H323 0.930 . S
C321 C318 1.348 . S
C321 C319 1.356 . S
H322 C316 0.930 . S
H323 C320 0.930 . S
O324 Li264 1.956 . S
O324 Li265 1.970 . S
O324 Li266 1.961 . S
O324 C268 1.325 . S
O325 Li264 1.970 . S
O325 Li265 1.956 . S
O325 Li267 1.961 . S
O325 C274 1.325 . S
O326 Li264 1.961 . S
O326 Li266 1.956 . S
O326 Li267 1.970 . S
O326 C296 1.325 . S
O327 Li265 1.961 . S
O327 Li266 1.970 . S
O327 Li267 1.956 . S
O327 C302 1.325 . S
H328 C270 0.929 . S
H329 C271 0.930 . S
H330 C272 0.930 . S
H331 C273 0.930 . S
H332 C275 0.930 . S
H333 C277 0.929 . S
H334 C278 0.930 . S
H335 C279 0.930 . S
H336 C282 0.930 . S
H337 C285 0.929 . S
H338 C290 0.929 . S
H339 C291 0.930 . S
H340 C298 0.929 . S
H341 C299 0.930 . S
H342 C300 0.930 . S
H343 C301 0.930 . S
H344 C303 0.929 . S
H345 C304 0.930 . S
H346 C305 0.930 . S
H347 C306 0.930 . S
H348 C310 0.929 . S
H349 C312 0.930 . S
H350 C318 0.929 . S
H351 C319 0.930 . S
Li352 N369 1.990 . S
Li352 O412 1.956 . S
Li352 O413 1.970 . S
Li352 O414 1.961 . S
Li353 N377 1.990 . S
Li353 O412 1.970 . S
Li353 O413 1.956 . S
Li353 O415 1.961 . S
Li354 N399 1.990 . S
Li354 O412 1.961 . S
Li354 O414 1.956 . S
Li354 O415 1.970 . S
Li355 N405 1.990 . S
Li355 O413 1.961 . S
Li355 O414 1.970 . S
Li355 O415 1.956 . S
C356 C358 1.348 . S
C356 C359 1.356 . S
C356 O412 1.325 . S
N357 C360 1.314 . S
N357 C361 1.279 . S
C358 C356 1.348 . S
C358 C360 1.353 . S
C358 H416 0.929 . S
C359 C356 1.356 . S
C359 C361 1.358 . S
C359 H417 0.930 . S
C360 N357 1.314 . S
C360 C358 1.353 . S
C360 H418 0.930 . S
C361 N357 1.279 . S
C361 C359 1.358 . S
C361 H419 0.930 . S
C362 C365 1.348 . S
C362 C366 1.356 . S
C362 O413 1.325 . S
C363 N364 1.279 . S
C363 C366 1.358 . S
C363 H420 0.930 . S
N364 C363 1.279 . S
N364 C367 1.314 . S
C365 C362 1.348 . S
C365 C367 1.353 . S
C365 H421 0.929 . S
C366 C362 1.356 . S
C366 C363 1.358 . S
C366 H422 0.930 . S
C367 N364 1.314 . S
C367 C365 1.353 . S
C367 H423 0.930 . S
C368 N369 1.314 . S
C368 C373 1.353 . S
C368 H374 0.930 . S
N369 Li352 1.990 . S
N369 C368 1.314 . S
N369 C371 1.279 . S
C370 C371 1.358 . S
C370 C372 1.356 . S
C370 H424 0.930 . S
C371 N369 1.279 . S
C371 C370 1.358 . S
C371 H375 0.930 . S
C372 C370 1.356 . S
C372 C373 1.348 . S
C373 C368 1.353 . S
C373 C372 1.348 . S
C373 H425 0.929 . S
H374 C368 0.930 . S
H375 C371 0.930 . S
C376 N377 1.314 . S
C376 C378 1.353 . S
C376 H382 0.930 . S
N377 Li353 1.990 . S
N377 C376 1.314 . S
N377 C380 1.279 . S
C378 C376 1.353 . S
C378 C381 1.348 . S
C378 H426 0.929 . S
C379 C380 1.358 . S
C379 C381 1.356 . S
C379 H427 0.930 . S
C380 N377 1.279 . S
C380 C379 1.358 . S
C380 H383 0.930 . S
C381 C378 1.348 . S
C381 C379 1.356 . S
H382 C376 0.930 . S
H383 C380 0.930 . S
C384 C386 1.348 . S
C384 C387 1.356 . S
C384 O414 1.325 . S
N385 C388 1.314 . S
N385 C389 1.279 . S
C386 C384 1.348 . S
C386 C388 1.353 . S
C386 H428 0.929 . S
C387 C384 1.356 . S
C387 C389 1.358 . S
C387 H429 0.930 . S
C388 N385 1.314 . S
C388 C386 1.353 . S
C388 H430 0.930 . S
C389 N385 1.279 . S
C389 C387 1.358 . S
C389 H431 0.930 . S
C390 C391 1.348 . S
C390 C392 1.356 . S
C390 O415 1.325 . S
C391 C390 1.348 . S
C391 C393 1.353 . S
C391 H432 0.929 . S
C392 C390 1.356 . S
C392 C394 1.358 . S
C392 H433 0.930 . S
C393 C391 1.353 . S
C393 N395 1.314 . S
C393 H434 0.930 . S
C394 C392 1.358 . S
C394 N395 1.279 . S
C394 H435 0.930 . S
N395 C393 1.314 . S
N395 C394 1.279 . S
C396 C398 1.353 . S
C396 N399 1.314 . S
C396 H402 0.930 . S
C397 N399 1.279 . S
C397 C400 1.358 . S
C397 H403 0.930 . S
C398 C396 1.353 . S
C398 C401 1.348 . S
C398 H436 0.929 . S
N399 Li354 1.990 . S
N399 C396 1.314 . S
N399 C397 1.279 . S
C400 C397 1.358 . S
C400 C401 1.356 . S
C400 H437 0.930 . S
C401 C398 1.348 . S
C401 C400 1.356 . S
H402 C396 0.930 . S
H403 C397 0.930 . S
C404 N405 1.314 . S
C404 C406 1.353 . S
C404 H410 0.930 . S
N405 Li355 1.990 . S
N405 C404 1.314 . S
N405 C408 1.279 . S
C406 C404 1.353 . S
C406 C409 1.348 . S
C406 H438 0.929 . S
C407 C408 1.358 . S
C407 C409 1.356 . S
C407 H439 0.930 . S
C408 N405 1.279 . S
C408 C407 1.358 . S
C408 H411 0.930 . S
C409 C406 1.348 . S
C409 C407 1.356 . S
H410 C404 0.930 . S
H411 C408 0.930 . S
O412 Li352 1.956 . S
O412 Li353 1.970 . S
O412 Li354 1.961 . S
O412 C356 1.325 . S
O413 Li352 1.970 . S
O413 Li353 1.956 . S
O413 Li355 1.961 . S
O413 C362 1.325 . S
O414 Li352 1.961 . S
O414 Li354 1.956 . S
O414 Li355 1.970 . S
O414 C384 1.325 . S
O415 Li353 1.961 . S
O415 Li354 1.970 . S
O415 Li355 1.956 . S
O415 C390 1.325 . S
H416 C358 0.929 . S
H417 C359 0.930 . S
H418 C360 0.930 . S
H419 C361 0.930 . S
H420 C363 0.930 . S
H421 C365 0.929 . S
H422 C366 0.930 . S
H423 C367 0.930 . S
H424 C370 0.930 . S
H425 C373 0.929 . S
H426 C378 0.929 . S
H427 C379 0.930 . S
H428 C386 0.929 . S
H429 C387 0.930 . S
H430 C388 0.930 . S
H431 C389 0.930 . S
H432 C391 0.929 . S
H433 C392 0.930 . S
H434 C393 0.930 . S
H435 C394 0.930 . S
H436 C398 0.929 . S
H437 C400 0.930 . S
H438 C406 0.929 . S
H439 C407 0.930 . S
Li440 N457 1.990 . S
Li440 O500 1.956 . S
Li440 O501 1.970 . S
Li440 O502 1.961 . S
Li441 N465 1.990 . S
Li441 O500 1.970 . S
Li441 O501 1.956 . S
Li441 O503 1.961 . S
Li442 N487 1.990 1_556 S
Li442 O500 1.961 . S
Li442 O502 1.956 . S
Li442 O503 1.970 . S
Li443 N493 1.990 . S
Li443 O501 1.961 . S
Li443 O502 1.970 . S
Li443 O503 1.956 . S
C444 C446 1.348 . S
C444 C447 1.356 . S
C444 O500 1.325 . S
N445 C448 1.314 . S
N445 C449 1.279 . S
C446 C444 1.348 . S
C446 C448 1.353 . S
C446 H504 0.929 . S
C447 C444 1.356 . S
C447 C449 1.358 . S
C447 H505 0.930 . S
C448 N445 1.314 . S
C448 C446 1.353 . S
C448 H506 0.930 . S
C449 N445 1.279 . S
C449 C447 1.358 . S
C449 H507 0.930 . S
C450 C453 1.348 . S
C450 C454 1.356 . S
C450 O501 1.325 . S
C451 N452 1.279 . S
C451 C454 1.358 . S
C451 H508 0.930 . S
N452 C451 1.279 . S
N452 C455 1.314 . S
C453 C450 1.348 . S
C453 C455 1.353 . S
C453 H509 0.929 . S
C454 C450 1.356 . S
C454 C451 1.358 . S
C454 H510 0.930 . S
C455 N452 1.314 . S
C455 C453 1.353 . S
C455 H511 0.930 . S
C456 N457 1.314 . S
C456 C461 1.353 . S
C456 H462 0.930 . S
N457 Li440 1.990 . S
N457 C456 1.314 . S
N457 C459 1.279 . S
C458 C459 1.358 . S
C458 C460 1.356 . S
C458 H512 0.930 . S
C459 N457 1.279 . S
C459 C458 1.358 . S
C459 H463 0.930 . S
C460 C458 1.356 . S
C460 C461 1.348 . S
C461 C456 1.353 . S
C461 C460 1.348 . S
C461 H513 0.929 . S
H462 C456 0.930 . S
H463 C459 0.930 . S
C464 N465 1.314 . S
C464 C466 1.353 . S
C464 H470 0.930 . S
N465 Li441 1.990 . S
N465 C464 1.314 . S
N465 C468 1.279 . S
C466 C464 1.353 . S
C466 C469 1.348 . S
C466 H514 0.929 . S
C467 C468 1.358 . S
C467 C469 1.356 . S
C467 H515 0.930 . S
C468 N465 1.279 . S
C468 C467 1.358 . S
C468 H471 0.930 . S
C469 C466 1.348 . S
C469 C467 1.356 . S
H470 C464 0.930 . S
H471 C468 0.930 . S
C472 C474 1.348 . S
C472 C475 1.356 . S
C472 O502 1.325 . S
N473 C476 1.314 . S
N473 C477 1.279 . S
C474 C472 1.348 . S
C474 C476 1.353 . S
C474 H516 0.929 . S
C475 C472 1.356 . S
C475 C477 1.358 . S
C475 H517 0.930 . S
C476 N473 1.314 . S
C476 C474 1.353 . S
C476 H518 0.930 . S
C477 N473 1.279 . S
C477 C475 1.358 . S
C477 H519 0.930 . S
C478 C479 1.348 1_556 S
C478 C480 1.356 . S
C478 O503 1.325 . S
C479 C478 1.348 1_554 S
C479 C481 1.353 . S
C479 H520 0.929 . S
C480 C478 1.356 . S
C480 C482 1.358 1_556 S
C480 H521 0.930 . S
C481 C479 1.353 . S
C481 N483 1.314 . S
C481 H522 0.930 . S
C482 C480 1.358 1_554 S
C482 N483 1.279 . S
C482 H523 0.930 . S
N483 C481 1.314 . S
N483 C482 1.279 . S
C484 C486 1.353 . S
C484 N487 1.314 . S
C484 H490 0.930 . S
C485 N487 1.279 . S
C485 C488 1.358 . S
C485 H491 0.930 1_554 S
C486 C484 1.353 . S
C486 C489 1.348 . S
C486 H524 0.929 . S
N487 Li442 1.990 1_554 S
N487 C484 1.314 . S
N487 C485 1.279 . S
C488 C485 1.358 . S
C488 C489 1.356 . S
C488 H525 0.930 . S
C489 C486 1.348 . S
C489 C488 1.356 . S
H490 C484 0.930 . S
H491 C485 0.930 1_556 S
C492 N493 1.314 . S
C492 C494 1.353 . S
C492 H498 0.930 . S
N493 Li443 1.990 . S
N493 C492 1.314 . S
N493 C496 1.279 . S
C494 C492 1.353 . S
C494 C497 1.348 . S
C494 H526 0.929 . S
C495 C496 1.358 . S
C495 C497 1.356 . S
C495 H527 0.930 . S
C496 N493 1.279 . S
C496 C495 1.358 . S
C496 H499 0.930 . S
C497 C494 1.348 . S
C497 C495 1.356 . S
H498 C492 0.930 . S
H499 C496 0.930 . S
O500 Li440 1.956 . S
O500 Li441 1.970 . S
O500 Li442 1.961 . S
O500 C444 1.325 . S
O501 Li440 1.970 . S
O501 Li441 1.956 . S
O501 Li443 1.961 . S
O501 C450 1.325 . S
O502 Li440 1.961 . S
O502 Li442 1.956 . S
O502 Li443 1.970 . S
O502 C472 1.325 . S
O503 Li441 1.961 . S
O503 Li442 1.970 . S
O503 Li443 1.956 . S
O503 C478 1.325 . S
H504 C446 0.929 . S
H505 C447 0.930 . S
H506 C448 0.930 . S
H507 C449 0.930 . S
H508 C451 0.930 . S
H509 C453 0.929 . S
H510 C454 0.930 . S
H511 C455 0.930 . S
H512 C458 0.930 . S
H513 C461 0.929 . S
H514 C466 0.929 . S
H515 C467 0.930 . S
H516 C474 0.929 . S
H517 C475 0.930 . S
H518 C476 0.930 . S
H519 C477 0.930 . S
H520 C479 0.929 . S
H521 C480 0.930 . S
H522 C481 0.930 . S
H523 C482 0.930 . S
H524 C486 0.929 . S
H525 C488 0.930 . S
H526 C494 0.929 . S
H527 C495 0.930 . S
Li528 N545 1.990 . S
Li528 O588 1.956 . S
Li528 O589 1.970 . S
Li528 O590 1.961 . S
Li529 N553 1.990 . S
Li529 O588 1.970 . S
Li529 O589 1.956 . S
Li529 O591 1.961 . S
Li530 N575 1.990 . S
Li530 O588 1.961 . S
Li530 O590 1.956 . S
Li530 O591 1.970 . S
Li531 N581 1.990 . S
Li531 O589 1.961 . S
Li531 O590 1.970 . S
Li531 O591 1.956 . S
C532 C534 1.348 1_556 S
C532 C535 1.356 . S
C532 O588 1.325 . S
N533 C536 1.314 . S
N533 C537 1.279 . S
C534 C532 1.348 1_554 S
C534 C536 1.353 . S
C534 H592 0.929 . S
C535 C532 1.356 . S
C535 C537 1.358 1_556 S
C535 H593 0.930 . S
C536 N533 1.314 . S
C536 C534 1.353 . S
C536 H594 0.930 . S
C537 N533 1.279 . S
C537 C535 1.358 1_554 S
C537 H595 0.930 . S
C538 C541 1.348 . S
C538 C542 1.356 . S
C538 O589 1.325 . S
C539 N540 1.279 . S
C539 C542 1.358 . S
C539 H596 0.930 . S
N540 C539 1.279 . S
N540 C543 1.314 . S
C541 C538 1.348 . S
C541 C543 1.353 . S
C541 H597 0.929 . S
C542 C538 1.356 . S
C542 C539 1.358 . S
C542 H598 0.930 . S
C543 N540 1.314 . S
C543 C541 1.353 . S
C543 H599 0.930 . S
C544 N545 1.314 . S
C544 C549 1.353 . S
C544 H550 0.930 . S
N545 Li528 1.990 . S
N545 C544 1.314 . S
N545 C547 1.279 . S
C546 C547 1.358 . S
C546 C548 1.356 . S
C546 H600 0.930 . S
C547 N545 1.279 . S
C547 C546 1.358 . S
C547 H551 0.930 . S
C548 C546 1.356 . S
C548 C549 1.348 . S
C549 C544 1.353 . S
C549 C548 1.348 . S
C549 H601 0.929 . S
H550 C544 0.930 . S
H551 C547 0.930 . S
C552 N553 1.314 1_554 S
C552 C554 1.353 . S
C552 H558 0.930 . S
N553 Li529 1.990 . S
N553 C552 1.314 1_556 S
N553 C556 1.279 1_556 S
C554 C552 1.353 . S
C554 C557 1.348 . S
C554 H602 0.929 . S
C555 C556 1.358 . S
C555 C557 1.356 . S
C555 H603 0.930 . S
C556 N553 1.279 1_554 S
C556 C555 1.358 . S
C556 H559 0.930 1_554 S
C557 C554 1.348 . S
C557 C555 1.356 . S
H558 C552 0.930 . S
H559 C556 0.930 1_556 S
C560 C562 1.348 . S
C560 C563 1.356 . S
C560 O590 1.325 . S
N561 C564 1.314 . S
N561 C565 1.279 . S
C562 C560 1.348 . S
C562 C564 1.353 . S
C562 H604 0.929 . S
C563 C560 1.356 . S
C563 C565 1.358 . S
C563 H605 0.930 . S
C564 N561 1.314 . S
C564 C562 1.353 . S
C564 H606 0.930 . S
C565 N561 1.279 . S
C565 C563 1.358 . S
C565 H607 0.930 . S
C566 C567 1.348 . S
C566 C568 1.356 . S
C566 O591 1.325 . S
C567 C566 1.348 . S
C567 C569 1.353 . S
C567 H608 0.929 . S
C568 C566 1.356 . S
C568 C570 1.358 . S
C568 H609 0.930 . S
C569 C567 1.353 . S
C569 N571 1.314 . S
C569 H610 0.930 . S
C570 C568 1.358 . S
C570 N571 1.279 . S
C570 H611 0.930 . S
N571 C569 1.314 . S
N571 C570 1.279 . S
C572 C574 1.353 . S
C572 N575 1.314 . S
C572 H578 0.930 . S
C573 N575 1.279 . S
C573 C576 1.358 . S
C573 H579 0.930 . S
C574 C572 1.353 . S
C574 C577 1.348 . S
C574 H612 0.929 . S
N575 Li530 1.990 . S
N575 C572 1.314 . S
N575 C573 1.279 . S
C576 C573 1.358 . S
C576 C577 1.356 . S
C576 H613 0.930 . S
C577 C574 1.348 . S
C577 C576 1.356 . S
H578 C572 0.930 . S
H579 C573 0.930 . S
C580 N581 1.314 . S
C580 C582 1.353 . S
C580 H586 0.930 . S
N581 Li531 1.990 . S
N581 C580 1.314 . S
N581 C584 1.279 . S
C582 C580 1.353 . S
C582 C585 1.348 . S
C582 H614 0.929 . S
C583 C584 1.358 . S
C583 C585 1.356 . S
C583 H615 0.930 . S
C584 N581 1.279 . S
C584 C583 1.358 . S
C584 H587 0.930 . S
C585 C582 1.348 . S
C585 C583 1.356 . S
H586 C580 0.930 . S
H587 C584 0.930 . S
O588 Li528 1.956 . S
O588 Li529 1.970 . S
O588 Li530 1.961 . S
O588 C532 1.325 . S
O589 Li528 1.970 . S
O589 Li529 1.956 . S
O589 Li531 1.961 . S
O589 C538 1.325 . S
O590 Li528 1.961 . S
O590 Li530 1.956 . S
O590 Li531 1.970 . S
O590 C560 1.325 . S
O591 Li529 1.961 . S
O591 Li530 1.970 . S
O591 Li531 1.956 . S
O591 C566 1.325 . S
H592 C534 0.929 . S
H593 C535 0.930 . S
H594 C536 0.930 . S
H595 C537 0.930 . S
H596 C539 0.930 . S
H597 C541 0.929 . S
H598 C542 0.930 . S
H599 C543 0.930 . S
H600 C546 0.930 . S
H601 C549 0.929 . S
H602 C554 0.929 . S
H603 C555 0.930 . S
H604 C562 0.929 . S
H605 C563 0.930 . S
H606 C564 0.930 . S
H607 C565 0.930 . S
H608 C567 0.929 . S
H609 C568 0.930 . S
H610 C569 0.930 . S
H611 C570 0.930 . S
H612 C574 0.929 . S
H613 C576 0.930 . S
H614 C582 0.929 . S
H615 C583 0.930 . S
Li616 N633 1.990 . S
Li616 O676 1.956 . S
Li616 O677 1.970 . S
Li616 O678 1.961 . S
Li617 N641 1.990 . S
Li617 O676 1.970 . S
Li617 O677 1.956 . S
Li617 O679 1.961 . S
Li618 N663 1.990 . S
Li618 O676 1.961 . S
Li618 O678 1.956 . S
Li618 O679 1.970 . S
Li619 N669 1.990 1_554 S
Li619 O677 1.961 . S
Li619 O678 1.970 . S
Li619 O679 1.956 . S
C620 C622 1.348 . S
C620 C623 1.356 . S
C620 O676 1.325 . S
N621 C624 1.314 . S
N621 C625 1.279 . S
C622 C620 1.348 . S
C622 C624 1.353 . S
C622 H680 0.929 . S
C623 C620 1.356 . S
C623 C625 1.358 . S
C623 H681 0.930 . S
C624 N621 1.314 . S
C624 C622 1.353 . S
C624 H682 0.930 . S
C625 N621 1.279 . S
C625 C623 1.358 . S
C625 H683 0.930 . S
C626 C629 1.348 . S
C626 C630 1.356 . S
C626 O677 1.325 . S
C627 N628 1.279 . S
C627 C630 1.358 . S
C627 H684 0.930 . S
N628 C627 1.279 . S
N628 C631 1.314 . S
C629 C626 1.348 . S
C629 C631 1.353 . S
C629 H685 0.929 . S
C630 C626 1.356 . S
C630 C627 1.358 . S
C630 H686 0.930 . S
C631 N628 1.314 . S
C631 C629 1.353 . S
C631 H687 0.930 . S
C632 N633 1.314 . S
C632 C637 1.353 . S
C632 H638 0.930 1_554 S
N633 Li616 1.990 . S
N633 C632 1.314 . S
N633 C635 1.279 . S
C634 C635 1.358 . S
C634 C636 1.356 . S
C634 H688 0.930 . S
C635 N633 1.279 . S
C635 C634 1.358 . S
C635 H639 0.930 . S
C636 C634 1.356 . S
C636 C637 1.348 . S
C637 C632 1.353 . S
C637 C636 1.348 . S
C637 H689 0.929 1_554 S
H638 C632 0.930 1_556 S
H639 C635 0.930 . S
C640 N641 1.314 . S
C640 C642 1.353 . S
C640 H646 0.930 . S
N641 Li617 1.990 . S
N641 C640 1.314 . S
N641 C644 1.279 . S
C642 C640 1.353 . S
C642 C645 1.348 . S
C642 H690 0.929 . S
C643 C644 1.358 . S
C643 C645 1.356 . S
C643 H691 0.930 . S
C644 N641 1.279 . S
C644 C643 1.358 . S
C644 H647 0.930 . S
C645 C642 1.348 . S
C645 C643 1.356 . S
H646 C640 0.930 . S
H647 C644 0.930 . S
C648 C650 1.348 . S
C648 C651 1.356 . S
C648 O678 1.325 1_556 S
N649 C652 1.314 . S
N649 C653 1.279 . S
C650 C648 1.348 . S
C650 C652 1.353 . S
C650 H692 0.929 . S
C651 C648 1.356 . S
C651 C653 1.358 . S
C651 H693 0.939 . S
C652 N649 1.314 . S
C652 C650 1.353 . S
C652 H694 0.930 . S
C653 N649 1.279 . S
C653 C651 1.358 . S
C653 H695 0.930 . S
C654 C655 1.348 . S
C654 C656 1.356 . S
C654 O679 1.325 . S
C655 C654 1.348 . S
C655 C657 1.353 . S
C655 H696 0.929 . S
C656 C654 1.356 . S
C656 C658 1.358 . S
C656 H697 0.930 . S
C657 C655 1.353 . S
C657 N659 1.314 . S
C657 H698 0.930 . S
C658 C656 1.358 . S
C658 N659 1.279 . S
C658 H699 0.930 . S
N659 C657 1.314 . S
N659 C658 1.279 . S
C660 C662 1.353 . S
C660 N663 1.314 . S
C660 H666 0.930 . S
C661 N663 1.279 . S
C661 C664 1.358 . S
C661 H667 0.952 . S
C662 C660 1.353 . S
C662 C665 1.348 . S
C662 H700 0.929 . S
N663 Li618 1.990 . S
N663 C660 1.314 . S
N663 C661 1.279 . S
C664 C661 1.358 . S
C664 C665 1.356 . S
C664 H701 0.930 . S
C665 C662 1.348 . S
C665 C664 1.356 . S
H666 C660 0.930 . S
H667 C661 0.952 . S
C668 N669 1.314 . S
C668 C670 1.353 . S
C668 H674 0.930 . S
N669 Li619 1.990 1_556 S
N669 C668 1.314 . S
N669 C672 1.279 . S
C670 C668 1.353 . S
C670 C673 1.348 . S
C670 H702 0.929 . S
C671 C672 1.358 . S
C671 C673 1.356 . S
C671 H703 0.930 . S
C672 N669 1.279 . S
C672 C671 1.358 . S
C672 H675 0.930 . S
C673 C670 1.348 . S
C673 C671 1.356 . S
H674 C668 0.930 . S
H675 C672 0.930 . S
O676 Li616 1.956 . S
O676 Li617 1.970 . S
O676 Li618 1.961 . S
O676 C620 1.325 . S
O677 Li616 1.970 . S
O677 Li617 1.956 . S
O677 Li619 1.961 . S
O677 C626 1.325 . S
O678 Li616 1.961 . S
O678 Li618 1.956 . S
O678 Li619 1.970 . S
O678 C648 1.325 1_554 S
O679 Li617 1.961 . S
O679 Li618 1.970 . S
O679 Li619 1.956 . S
O679 C654 1.325 . S
H680 C622 0.929 . S
H681 C623 0.930 . S
H682 C624 0.930 . S
H683 C625 0.930 . S
H684 C627 0.930 . S
H685 C629 0.929 . S
H686 C630 0.930 . S
H687 C631 0.930 . S
H688 C634 0.930 . S
H689 C637 0.929 1_556 S
H690 C642 0.929 . S
H691 C643 0.930 . S
H692 C650 0.929 . S
H693 C651 0.939 . S
H694 C652 0.930 . S
H695 C653 0.930 . S
H696 C655 0.929 . S
H697 C656 0.930 . S
H698 C657 0.930 . S
H699 C658 0.930 . S
H700 C662 0.929 . S
H701 C664 0.930 . S
H702 C670 0.929 . S
H703 C671 0.930 . S
Li704 N721 1.990 . S
Li704 O764 1.956 . S
Li704 O765 1.970 . S
Li704 O766 1.961 . S
Li705 N729 1.990 . S
Li705 O764 1.970 . S
Li705 O765 1.956 . S
Li705 O767 1.961 . S
Li706 N751 1.990 . S
Li706 O764 1.961 . S
Li706 O766 1.956 . S
Li706 O767 1.970 . S
Li707 N757 1.990 . S
Li707 O765 1.961 . S
Li707 O766 1.970 . S
Li707 O767 1.956 . S
C708 C710 1.348 . S
C708 C711 1.356 . S
C708 O764 1.325 . S
N709 C712 1.314 . S
N709 C713 1.279 . S
C710 C708 1.348 . S
C710 C712 1.353 . S
C710 H768 0.929 . S
C711 C708 1.356 . S
C711 C713 1.358 . S
C711 H769 0.930 . S
C712 N709 1.314 . S
C712 C710 1.353 . S
C712 H770 0.930 . S
C713 N709 1.279 . S
C713 C711 1.358 . S
C713 H771 0.930 . S
C714 C717 1.348 . S
C714 C718 1.356 . S
C714 O765 1.325 . S
C715 N716 1.279 . S
C715 C718 1.358 . S
C715 H772 0.930 . S
N716 C715 1.279 . S
N716 C719 1.314 . S
C717 C714 1.348 . S
C717 C719 1.353 . S
C717 H773 0.929 . S
C718 C714 1.356 . S
C718 C715 1.358 . S
C718 H774 0.930 . S
C719 N716 1.314 . S
C719 C717 1.353 . S
C719 H775 0.930 . S
C720 N721 1.314 . S
C720 C725 1.353 . S
C720 H726 0.930 . S
N721 Li704 1.990 . S
N721 C720 1.314 . S
N721 C723 1.279 . S
C722 C723 1.358 . S
C722 C724 1.356 . S
C722 H776 0.930 . S
C723 N721 1.279 . S
C723 C722 1.358 . S
C723 H727 0.930 . S
C724 C722 1.356 . S
C724 C725 1.348 . S
C725 C720 1.353 . S
C725 C724 1.348 . S
C725 H777 0.929 . S
H726 C720 0.930 . S
H727 C723 0.930 . S
C728 N729 1.314 . S
C728 C730 1.353 . S
C728 H734 0.930 . S
N729 Li705 1.990 . S
N729 C728 1.314 . S
N729 C732 1.279 . S
C730 C728 1.353 . S
C730 C733 1.348 . S
C730 H778 0.929 . S
C731 C732 1.358 . S
C731 C733 1.356 . S
C731 H779 0.930 . S
C732 N729 1.279 . S
C732 C731 1.358 . S
C732 H735 0.930 . S
C733 C730 1.348 . S
C733 C731 1.356 . S
H734 C728 0.930 . S
H735 C732 0.930 . S
C736 C738 1.348 . S
C736 C739 1.356 . S
C736 O766 1.325 . S
N737 C740 1.314 . S
N737 C741 1.279 . S
C738 C736 1.348 . S
C738 C740 1.353 . S
C738 H780 0.929 . S
C739 C736 1.356 . S
C739 C741 1.358 . S
C739 H781 0.930 . S
C740 N737 1.314 . S
C740 C738 1.353 . S
C740 H782 0.930 . S
C741 N737 1.279 . S
C741 C739 1.358 . S
C741 H783 0.930 . S
C742 C743 1.348 . S
C742 C744 1.356 . S
C742 O767 1.325 . S
C743 C742 1.348 . S
C743 C745 1.353 . S
C743 H784 0.929 . S
C744 C742 1.356 . S
C744 C746 1.358 . S
C744 H785 0.930 . S
C745 C743 1.353 . S
C745 N747 1.314 . S
C745 H786 0.930 . S
C746 C744 1.358 . S
C746 N747 1.279 . S
C746 H787 0.930 . S
N747 C745 1.314 . S
N747 C746 1.279 . S
C748 C750 1.353 . S
C748 N751 1.314 . S
C748 H754 0.930 . S
C749 N751 1.279 . S
C749 C752 1.358 . S
C749 H755 0.930 . S
C750 C748 1.353 . S
C750 C753 1.348 . S
C750 H788 0.929 . S
N751 Li706 1.990 . S
N751 C748 1.314 . S
N751 C749 1.279 . S
C752 C749 1.358 . S
C752 C753 1.356 . S
C752 H789 0.930 . S
C753 C750 1.348 . S
C753 C752 1.356 . S
H754 C748 0.930 . S
H755 C749 0.930 . S
C756 N757 1.314 . S
C756 C758 1.353 . S
C756 H762 0.930 . S
N757 Li707 1.990 . S
N757 C756 1.314 . S
N757 C760 1.279 . S
C758 C756 1.353 . S
C758 C761 1.348 . S
C758 H790 0.929 . S
C759 C760 1.358 . S
C759 C761 1.356 . S
C759 H791 0.930 . S
C760 N757 1.279 . S
C760 C759 1.358 . S
C760 H763 0.930 . S
C761 C758 1.348 . S
C761 C759 1.356 . S
H762 C756 0.930 . S
H763 C760 0.930 . S
O764 Li704 1.956 . S
O764 Li705 1.970 . S
O764 Li706 1.961 . S
O764 C708 1.325 . S
O765 Li704 1.970 . S
O765 Li705 1.956 . S
O765 Li707 1.961 . S
O765 C714 1.325 . S
O766 Li704 1.961 . S
O766 Li706 1.956 . S
O766 Li707 1.970 . S
O766 C736 1.325 . S
O767 Li705 1.961 . S
O767 Li706 1.970 . S
O767 Li707 1.956 . S
O767 C742 1.325 . S
H768 C710 0.929 . S
H769 C711 0.930 . S
H770 C712 0.930 . S
H771 C713 0.930 . S
H772 C715 0.930 . S
H773 C717 0.929 . S
H774 C718 0.930 . S
H775 C719 0.930 . S
H776 C722 0.930 . S
H777 C725 0.929 . S
H778 C730 0.929 . S
H779 C731 0.930 . S
H780 C738 0.929 . S
H781 C739 0.930 . S
H782 C740 0.930 . S
H783 C741 0.930 . S
H784 C743 0.929 . S
H785 C744 0.930 . S
H786 C745 0.930 . S
H787 C746 0.930 . S
H788 C750 0.929 . S
H789 C752 0.930 . S
H790 C758 0.929 . S
H791 C759 0.930 . S
Li792 N809 1.990 . S
Li792 O852 1.956 . S
Li792 O853 1.970 . S
Li792 O854 1.961 . S
Li793 N817 1.990 . S
Li793 O852 1.970 . S
Li793 O853 1.956 . S
Li793 O855 1.961 . S
Li794 N839 1.990 . S
Li794 O852 1.961 . S
Li794 O854 1.956 . S
Li794 O855 1.970 . S
Li795 N845 1.990 . S
Li795 O853 1.961 . S
Li795 O854 1.970 . S
Li795 O855 1.956 . S
C796 C798 1.348 . S
C796 C799 1.356 . S
C796 O852 1.325 . S
N797 C800 1.314 . S
N797 C801 1.279 . S
C798 C796 1.348 . S
C798 C800 1.353 . S
C798 H856 0.929 . S
C799 C796 1.356 . S
C799 C801 1.358 . S
C799 H857 0.930 . S
C800 N797 1.314 . S
C800 C798 1.353 . S
C800 H858 0.930 . S
C801 N797 1.279 . S
C801 C799 1.358 . S
C801 H859 0.930 . S
C802 C805 1.348 . S
C802 C806 1.356 . S
C802 O853 1.325 . S
C803 N804 1.279 . S
C803 C806 1.358 . S
C803 H860 0.930 . S
N804 C803 1.279 . S
N804 C807 1.314 . S
C805 C802 1.348 . S
C805 C807 1.353 . S
C805 H861 0.929 . S
C806 C802 1.356 . S
C806 C803 1.358 . S
C806 H862 0.930 . S
C807 N804 1.314 . S
C807 C805 1.353 . S
C807 H863 0.930 . S
C808 N809 1.314 . S
C808 C813 1.353 . S
C808 H814 0.930 . S
N809 Li792 1.990 . S
N809 C808 1.314 . S
N809 C811 1.279 . S
C810 C811 1.358 . S
C810 C812 1.356 . S
C810 H864 0.930 . S
C811 N809 1.279 . S
C811 C810 1.358 . S
C811 H815 0.930 . S
C812 C810 1.356 . S
C812 C813 1.348 . S
C813 C808 1.353 . S
C813 C812 1.348 . S
C813 H865 0.929 . S
H814 C808 0.930 . S
H815 C811 0.930 . S
C816 N817 1.314 . S
C816 C818 1.353 . S
C816 H822 0.930 . S
N817 Li793 1.990 . S
N817 C816 1.314 . S
N817 C820 1.279 . S
C818 C816 1.353 . S
C818 C821 1.348 . S
C818 H866 0.929 . S
C819 C820 1.358 . S
C819 C821 1.356 . S
C819 H867 0.930 . S
C820 N817 1.279 . S
C820 C819 1.358 . S
C820 H823 0.930 . S
C821 C818 1.348 . S
C821 C819 1.356 . S
H822 C816 0.930 . S
H823 C820 0.930 . S
C824 C826 1.348 . S
C824 C827 1.356 . S
C824 O854 1.325 . S
N825 C828 1.314 . S
N825 C829 1.279 . S
C826 C824 1.348 . S
C826 C828 1.353 . S
C826 H868 0.929 . S
C827 C824 1.356 . S
C827 C829 1.358 . S
C827 H869 0.930 . S
C828 N825 1.314 . S
C828 C826 1.353 . S
C828 H870 0.930 . S
C829 N825 1.279 . S
C829 C827 1.358 . S
C829 H871 0.930 . S
C830 C831 1.348 . S
C830 C832 1.356 . S
C830 O855 1.325 . S
C831 C830 1.348 . S
C831 C833 1.353 . S
C831 H872 0.929 . S
C832 C830 1.356 . S
C832 C834 1.358 . S
C832 H873 0.930 . S
C833 C831 1.353 . S
C833 N835 1.314 . S
C833 H874 0.930 . S
C834 C832 1.358 . S
C834 N835 1.279 . S
C834 H875 0.930 . S
N835 C833 1.314 . S
N835 C834 1.279 . S
C836 C838 1.353 . S
C836 N839 1.314 . S
C836 H842 0.930 . S
C837 N839 1.279 . S
C837 C840 1.358 . S
C837 H843 0.930 . S
C838 C836 1.353 . S
C838 C841 1.348 . S
C838 H876 0.929 . S
N839 Li794 1.990 . S
N839 C836 1.314 . S
N839 C837 1.279 . S
C840 C837 1.358 . S
C840 C841 1.356 . S
C840 H877 0.930 . S
C841 C838 1.348 . S
C841 C840 1.356 . S
H842 C836 0.930 . S
H843 C837 0.930 . S
C844 N845 1.314 . S
C844 C846 1.353 . S
C844 H850 0.930 . S
N845 Li795 1.990 . S
N845 C844 1.314 . S
N845 C848 1.279 . S
C846 C844 1.353 . S
C846 C849 1.348 . S
C846 H878 0.929 . S
C847 C848 1.358 . S
C847 C849 1.356 . S
C847 H879 0.930 . S
C848 N845 1.279 . S
C848 C847 1.358 . S
C848 H851 0.930 . S
C849 C846 1.348 . S
C849 C847 1.356 . S
H850 C844 0.930 . S
H851 C848 0.930 . S
O852 Li792 1.956 . S
O852 Li793 1.970 . S
O852 Li794 1.961 . S
O852 C796 1.325 . S
O853 Li792 1.970 . S
O853 Li793 1.956 . S
O853 Li795 1.961 . S
O853 C802 1.325 . S
O854 Li792 1.961 . S
O854 Li794 1.956 . S
O854 Li795 1.970 . S
O854 C824 1.325 . S
O855 Li793 1.961 . S
O855 Li794 1.970 . S
O855 Li795 1.956 . S
O855 C830 1.325 . S
H856 C798 0.929 . S
H857 C799 0.930 . S
H858 C800 0.930 . S
H859 C801 0.930 . S
H860 C803 0.930 . S
H861 C805 0.929 . S
H862 C806 0.930 . S
H863 C807 0.930 . S
H864 C810 0.930 . S
H865 C813 0.929 . S
H866 C818 0.929 . S
H867 C819 0.930 . S
H868 C826 0.929 . S
H869 C827 0.930 . S
H870 C828 0.930 . S
H871 C829 0.930 . S
H872 C831 0.929 . S
H873 C832 0.930 . S
H874 C833 0.930 . S
H875 C834 0.930 . S
H876 C838 0.929 . S
H877 C840 0.930 . S
H878 C846 0.929 . S
H879 C847 0.930 . S
Li880 N897 1.990 . S
Li880 O940 1.956 . S
Li880 O941 1.970 . S
Li880 O942 1.961 . S
Li881 N905 1.990 . S
Li881 O940 1.970 . S
Li881 O941 1.956 . S
Li881 O943 1.961 . S
Li882 N927 1.990 . S
Li882 O940 1.961 . S
Li882 O942 1.956 . S
Li882 O943 1.970 . S
Li883 N933 1.990 . S
Li883 O941 1.961 . S
Li883 O942 1.970 . S
Li883 O943 1.956 . S
C884 C886 1.348 . S
C884 C887 1.356 . S
C884 O940 1.325 . S
N885 C888 1.314 . S
N885 C889 1.279 . S
C886 C884 1.348 . S
C886 C888 1.353 . S
C886 H944 0.929 . S
C887 C884 1.356 . S
C887 C889 1.358 . S
C887 H945 0.930 . S
C888 N885 1.314 . S
C888 C886 1.353 . S
C888 H946 0.930 . S
C889 N885 1.279 . S
C889 C887 1.358 . S
C889 H947 0.930 . S
C890 C893 1.348 . S
C890 C894 1.356 . S
C890 O941 1.325 . S
C891 N892 1.279 . S
C891 C894 1.358 . S
C891 H948 0.930 . S
N892 C891 1.279 . S
N892 C895 1.314 . S
C893 C890 1.348 . S
C893 C895 1.353 . S
C893 H949 0.929 . S
C894 C890 1.356 . S
C894 C891 1.358 . S
C894 H950 0.930 . S
C895 N892 1.314 . S
C895 C893 1.353 . S
C895 H951 0.930 . S
C896 N897 1.314 . S
C896 C901 1.353 . S
C896 H902 0.930 . S
N897 Li880 1.990 . S
N897 C896 1.314 . S
N897 C899 1.279 . S
C898 C899 1.358 . S
C898 C900 1.356 . S
C898 H952 0.930 . S
C899 N897 1.279 . S
C899 C898 1.358 . S
C899 H903 0.930 . S
C900 C898 1.356 . S
C900 C901 1.348 . S
C901 C896 1.353 . S
C901 C900 1.348 . S
C901 H953 0.929 . S
H902 C896 0.930 . S
H903 C899 0.930 . S
C904 N905 1.314 . S
C904 C906 1.353 . S
C904 H910 0.930 . S
N905 Li881 1.990 . S
N905 C904 1.314 . S
N905 C908 1.279 . S
C906 C904 1.353 . S
C906 C909 1.348 . S
C906 H954 0.929 . S
C907 C908 1.358 . S
C907 C909 1.356 . S
C907 H955 0.930 . S
C908 N905 1.279 . S
C908 C907 1.358 . S
C908 H911 0.930 . S
C909 C906 1.348 . S
C909 C907 1.356 . S
H910 C904 0.930 . S
H911 C908 0.930 . S
C912 C914 1.348 . S
C912 C915 1.356 . S
C912 O942 1.325 . S
N913 C916 1.314 . S
N913 C917 1.279 . S
C914 C912 1.348 . S
C914 C916 1.353 . S
C914 H956 0.929 . S
C915 C912 1.356 . S
C915 C917 1.358 . S
C915 H957 0.930 . S
C916 N913 1.314 . S
C916 C914 1.353 . S
C916 H958 0.930 . S
C917 N913 1.279 . S
C917 C915 1.358 . S
C917 H959 0.930 . S
C918 C919 1.348 . S
C918 C920 1.356 . S
C918 O943 1.325 . S
C919 C918 1.348 . S
C919 C921 1.353 . S
C919 H960 0.929 . S
C920 C918 1.356 . S
C920 C922 1.358 . S
C920 H961 0.930 . S
C921 C919 1.353 . S
C921 N923 1.314 . S
C921 H962 0.930 . S
C922 C920 1.358 . S
C922 N923 1.279 . S
C922 H963 0.930 . S
N923 C921 1.314 . S
N923 C922 1.279 . S
C924 C926 1.353 . S
C924 N927 1.314 . S
C924 H930 0.930 . S
C925 N927 1.279 . S
C925 C928 1.358 . S
C925 H931 0.930 . S
C926 C924 1.353 . S
C926 C929 1.348 . S
C926 H964 0.929 . S
N927 Li882 1.990 . S
N927 C924 1.314 . S
N927 C925 1.279 . S
C928 C925 1.358 . S
C928 C929 1.356 . S
C928 H965 0.930 . S
C929 C926 1.348 . S
C929 C928 1.356 . S
H930 C924 0.930 . S
H931 C925 0.930 . S
C932 N933 1.314 . S
C932 C934 1.353 . S
C932 H938 0.930 . S
N933 Li883 1.990 . S
N933 C932 1.314 . S
N933 C936 1.279 . S
C934 C932 1.353 . S
C934 C937 1.348 . S
C934 H966 0.929 . S
C935 C936 1.358 . S
C935 C937 1.356 . S
C935 H967 0.930 . S
C936 N933 1.279 . S
C936 C935 1.358 . S
C936 H939 0.930 . S
C937 C934 1.348 . S
C937 C935 1.356 . S
H938 C932 0.930 . S
H939 C936 0.930 . S
O940 Li880 1.956 . S
O940 Li881 1.970 . S
O940 Li882 1.961 . S
O940 C884 1.325 . S
O941 Li880 1.970 . S
O941 Li881 1.956 . S
O941 Li883 1.961 . S
O941 C890 1.325 . S
O942 Li880 1.961 . S
O942 Li882 1.956 . S
O942 Li883 1.970 . S
O942 C912 1.325 . S
O943 Li881 1.961 . S
O943 Li882 1.970 . S
O943 Li883 1.956 . S
O943 C918 1.325 . S
H944 C886 0.929 . S
H945 C887 0.930 . S
H946 C888 0.930 . S
H947 C889 0.930 . S
H948 C891 0.930 . S
H949 C893 0.929 . S
H950 C894 0.930 . S
H951 C895 0.930 . S
H952 C898 0.930 . S
H953 C901 0.929 . S
H954 C906 0.929 . S
H955 C907 0.930 . S
H956 C914 0.929 . S
H957 C915 0.930 . S
H958 C916 0.930 . S
H959 C917 0.930 . S
H960 C919 0.929 . S
H961 C920 0.930 . S
H962 C921 0.930 . S
H963 C922 0.930 . S
H964 C926 0.929 . S
H965 C928 0.930 . S
H966 C934 0.929 . S
H967 C935 0.930 . S
Li968 N985 1.990 . S
Li968 O1028 1.956 . S
Li968 O1029 1.970 . S
Li968 O1030 1.961 . S
Li969 N993 1.990 . S
Li969 O1028 1.970 . S
Li969 O1029 1.956 . S
Li969 O1031 1.961 . S
Li970 N1015 1.990 . S
Li970 O1028 1.961 . S
Li970 O1030 1.956 . S
Li970 O1031 1.970 . S
Li971 N1021 1.990 . S
Li971 O1029 1.961 . S
Li971 O1030 1.970 . S
Li971 O1031 1.956 . S
C972 C974 1.348 . S
C972 C975 1.356 . S
C972 O1028 1.325 . S
N973 C976 1.314 . S
N973 C977 1.279 . S
C974 C972 1.348 . S
C974 C976 1.353 . S
C974 H1032 0.929 . S
C975 C972 1.356 . S
C975 C977 1.358 . S
C975 H1033 0.930 . S
C976 N973 1.314 . S
C976 C974 1.353 . S
C976 H1034 0.930 . S
C977 N973 1.279 . S
C977 C975 1.358 . S
C977 H1035 0.930 . S
C978 C981 1.348 . S
C978 C982 1.356 . S
C978 O1029 1.325 . S
C979 N980 1.279 . S
C979 C982 1.358 . S
C979 H1036 0.930 . S
N980 C979 1.279 . S
N980 C983 1.314 . S
C981 C978 1.348 . S
C981 C983 1.353 . S
C981 H1037 0.929 . S
C982 C978 1.356 . S
C982 C979 1.358 . S
C982 H1038 0.930 . S
C983 N980 1.314 . S
C983 C981 1.353 . S
C983 H1039 0.930 . S
C984 N985 1.314 . S
C984 C989 1.353 . S
C984 H990 0.930 . S
N985 Li968 1.990 . S
N985 C984 1.314 . S
N985 C987 1.279 . S
C986 C987 1.358 . S
C986 C988 1.356 . S
C986 H1040 0.930 . S
C987 N985 1.279 . S
C987 C986 1.358 . S
C987 H991 0.930 . S
C988 C986 1.356 . S
C988 C989 1.348 . S
C989 C984 1.353 . S
C989 C988 1.348 . S
C989 H1041 0.929 . S
H990 C984 0.930 . S
H991 C987 0.930 . S
C992 N993 1.314 . S
C992 C994 1.353 . S
C992 H998 0.930 . S
N993 Li969 1.990 . S
N993 C992 1.314 . S
N993 C996 1.279 . S
C994 C992 1.353 . S
C994 C997 1.348 . S
C994 H1042 0.929 . S
C995 C996 1.358 . S
C995 C997 1.356 . S
C995 H1043 0.930 . S
C996 N993 1.279 . S
C996 C995 1.358 . S
C996 H999 0.930 . S
C997 C994 1.348 . S
C997 C995 1.356 . S
H998 C992 0.930 . S
H999 C996 0.930 . S
C1000 C1002 1.348 . S
C1000 C1003 1.356 . S
C1000 O1030 1.325 . S
N1001 C1004 1.314 . S
N1001 C1005 1.279 . S
C1002 C1000 1.348 . S
C1002 C1004 1.353 . S
C1002 H1044 0.929 . S
C1003 C1000 1.356 . S
C1003 C1005 1.358 . S
C1003 H1045 0.930 . S
C1004 N1001 1.314 . S
C1004 C1002 1.353 . S
C1004 H1046 0.930 . S
C1005 N1001 1.279 . S
C1005 C1003 1.358 . S
C1005 H1047 0.930 . S
C1006 C1007 1.348 . S
C1006 C1008 1.356 . S
C1006 O1031 1.325 . S
C1007 C1006 1.348 . S
C1007 C1009 1.353 . S
C1007 H1048 0.929 . S
C1008 C1006 1.356 . S
C1008 C1010 1.358 . S
C1008 H1049 0.930 . S
C1009 C1007 1.353 . S
C1009 N1011 1.314 . S
C1009 H1050 0.930 . S
C1010 C1008 1.358 . S
C1010 N1011 1.279 . S
C1010 H1051 0.930 . S
N1011 C1009 1.314 . S
N1011 C1010 1.279 . S
C1012 C1014 1.353 . S
C1012 N1015 1.314 . S
C1012 H1018 0.930 . S
C1013 N1015 1.279 . S
C1013 C1016 1.358 . S
C1013 H1019 0.930 . S
C1014 C1012 1.353 . S
C1014 C1017 1.348 . S
C1014 H1052 0.929 . S
N1015 Li970 1.990 . S
N1015 C1012 1.314 . S
N1015 C1013 1.279 . S
C1016 C1013 1.358 . S
C1016 C1017 1.356 . S
C1016 H1053 0.930 . S
C1017 C1014 1.348 . S
C1017 C1016 1.356 . S
H1018 C1012 0.930 . S
H1019 C1013 0.930 . S
C1020 N1021 1.314 . S
C1020 C1022 1.353 . S
C1020 H1026 0.930 . S
N1021 Li971 1.990 . S
N1021 C1020 1.314 . S
N1021 C1024 1.279 . S
C1022 C1020 1.353 . S
C1022 C1025 1.348 . S
C1022 H1054 0.929 . S
C1023 C1024 1.358 . S
C1023 C1025 1.356 . S
C1023 H1055 0.930 . S
C1024 N1021 1.279 . S
C1024 C1023 1.358 . S
C1024 H1027 0.930 . S
C1025 C1022 1.348 . S
C1025 C1023 1.356 . S
H1026 C1020 0.930 . S
H1027 C1024 0.930 . S
O1028 Li968 1.956 . S
O1028 Li969 1.970 . S
O1028 Li970 1.961 . S
O1028 C972 1.325 . S
O1029 Li968 1.970 . S
O1029 Li969 1.956 . S
O1029 Li971 1.961 . S
O1029 C978 1.325 . S
O1030 Li968 1.961 . S
O1030 Li970 1.956 . S
O1030 Li971 1.970 . S
O1030 C1000 1.325 . S
O1031 Li969 1.961 . S
O1031 Li970 1.970 . S
O1031 Li971 1.956 . S
O1031 C1006 1.325 . S
H1032 C974 0.929 . S
H1033 C975 0.930 . S
H1034 C976 0.930 . S
H1035 C977 0.930 . S
H1036 C979 0.930 . S
H1037 C981 0.929 . S
H1038 C982 0.930 . S
H1039 C983 0.930 . S
H1040 C986 0.930 . S
H1041 C989 0.929 . S
H1042 C994 0.929 . S
H1043 C995 0.930 . S
H1044 C1002 0.929 . S
H1045 C1003 0.930 . S
H1046 C1004 0.930 . S
H1047 C1005 0.930 . S
H1048 C1007 0.929 . S
H1049 C1008 0.930 . S
H1050 C1009 0.930 . S
H1051 C1010 0.930 . S
H1052 C1014 0.929 . S
H1053 C1016 0.930 . S
H1054 C1022 0.929 . S
H1055 C1023 0.930 . S
C1056 C1057 1.363 . S
C1056 C1062 1.379 . S
C1056 N1064 1.356 . S
C1057 C1056 1.363 . S
C1057 C1063 1.363 . S
C1058 C1059 1.363 . S
C1058 C1063 1.379 . S
C1058 N1065 1.356 . S
C1059 C1058 1.363 . S
C1059 C1062 1.363 . S
N1060 C1062 1.356 . S
N1060 H1072 0.984 . S
N1060 H1073 0.985 . S
N1061 C1063 1.356 . S
N1061 H1066 0.984 . S
N1061 H1067 0.985 . S
C1062 C1056 1.379 . S
C1062 C1059 1.363 . S
C1062 N1060 1.356 . S
C1063 C1057 1.363 . S
C1063 C1058 1.379 . S
C1063 N1061 1.356 . S
N1064 C1056 1.356 . S
N1064 H1070 0.984 . S
N1064 H1071 0.984 . S
N1065 C1058 1.356 . S
N1065 H1068 0.984 . S
N1065 H1069 0.985 . S
H1066 N1061 0.984 . S
H1067 N1061 0.985 . S
H1068 N1065 0.984 . S
H1069 N1065 0.985 . S
H1070 N1064 0.984 . S
H1071 N1064 0.984 . S
H1072 N1060 0.984 . S
H1073 N1060 0.985 . S
C1074 C1075 1.363 . S
C1074 C1080 1.379 . S
C1074 N1082 1.356 . S
C1075 C1074 1.363 . S
C1075 C1081 1.363 . S
C1076 C1077 1.363 . S
C1076 C1081 1.379 . S
C1076 N1083 1.356 . S
C1077 C1076 1.363 . S
C1077 C1080 1.363 . S
N1078 C1080 1.356 . S
N1078 H1090 0.984 . S
N1078 H1091 0.985 . S
N1079 C1081 1.356 . S
N1079 H1084 0.984 . S
N1079 H1085 0.985 . S
C1080 C1074 1.379 . S
C1080 C1077 1.363 . S
C1080 N1078 1.356 . S
C1081 C1075 1.363 . S
C1081 C1076 1.379 . S
C1081 N1079 1.356 . S
N1082 C1074 1.356 . S
N1082 H1088 0.984 . S
N1082 H1089 0.984 . S
N1083 C1076 1.356 . S
N1083 H1086 0.984 . S
N1083 H1087 0.985 . S
H1084 N1079 0.984 . S
H1085 N1079 0.985 . S
H1086 N1083 0.984 . S
H1087 N1083 0.985 . S
H1088 N1082 0.984 . S
H1089 N1082 0.984 . S
H1090 N1078 0.984 . S
H1091 N1078 0.985 . S
C1092 C1093 1.363 . S
C1092 C1098 1.379 . S
C1092 N1100 1.356 . S
C1093 C1092 1.363 . S
C1093 C1099 1.363 . S
C1094 C1095 1.363 . S
C1094 C1099 1.379 . S
C1094 N1101 1.356 . S
C1095 C1094 1.363 . S
C1095 C1098 1.363 . S
N1096 C1098 1.356 . S
N1096 H1108 0.984 . S
N1096 H1109 0.985 . S
N1097 C1099 1.356 . S
N1097 H1102 0.984 . S
N1097 H1103 0.985 . S
C1098 C1092 1.379 . S
C1098 C1095 1.363 . S
C1098 N1096 1.356 . S
C1099 C1093 1.363 . S
C1099 C1094 1.379 . S
C1099 N1097 1.356 . S
N1100 C1092 1.356 . S
N1100 H1106 0.984 . S
N1100 H1107 0.984 . S
N1101 C1094 1.356 . S
N1101 H1104 0.984 . S
N1101 H1105 0.985 . S
H1102 N1097 0.984 . S
H1103 N1097 0.985 . S
H1104 N1101 0.984 . S
H1105 N1101 0.985 . S
H1106 N1100 0.984 . S
H1107 N1100 0.984 . S
H1108 N1096 0.984 . S
H1109 N1096 0.985 . S
C1110 C1111 1.363 . S
C1110 C1116 1.379 . S
C1110 N1118 1.356 . S
C1111 C1110 1.363 . S
C1111 C1117 1.363 . S
C1112 C1113 1.363 . S
C1112 C1117 1.379 . S
C1112 N1119 1.356 . S
C1113 C1112 1.363 . S
C1113 C1116 1.363 . S
N1114 C1116 1.356 . S
N1114 H1126 0.984 . S
N1114 H1127 0.985 . S
N1115 C1117 1.356 . S
N1115 H1120 0.984 . S
N1115 H1121 0.985 . S
C1116 C1110 1.379 . S
C1116 C1113 1.363 . S
C1116 N1114 1.356 . S
C1117 C1111 1.363 . S
C1117 C1112 1.379 . S
C1117 N1115 1.356 . S
N1118 C1110 1.356 . S
N1118 H1124 0.984 . S
N1118 H1125 0.984 . S
N1119 C1112 1.356 . S
N1119 H1122 0.984 . S
N1119 H1123 0.985 . S
H1120 N1115 0.984 . S
H1121 N1115 0.985 . S
H1122 N1119 0.984 . S
H1123 N1119 0.985 . S
H1124 N1118 0.984 . S
H1125 N1118 0.984 . S
H1126 N1114 0.984 . S
H1127 N1114 0.985 . S
C1128 C1129 1.363 . S
C1128 C1134 1.379 1_554 S
C1128 N1136 1.356 . S
C1129 C1128 1.363 . S
C1129 C1135 1.363 1_554 S
C1130 C1131 1.363 . S
C1130 C1135 1.379 . S
C1130 N1137 1.356 . S
C1131 C1130 1.363 . S
C1131 C1134 1.363 . S
N1132 C1134 1.356 . S
N1132 H1144 0.984 . S
N1132 H1145 0.985 . S
N1133 C1135 1.356 1_554 S
N1133 H1138 0.984 . S
N1133 H1139 0.985 1_554 S
C1134 C1128 1.379 1_556 S
C1134 C1131 1.363 . S
C1134 N1132 1.356 . S
C1135 C1129 1.363 1_556 S
C1135 C1130 1.379 . S
C1135 N1133 1.356 1_556 S
N1136 C1128 1.356 . S
N1136 H1142 0.984 . S
N1136 H1143 0.984 . S
N1137 C1130 1.356 . S
N1137 H1140 0.984 . S
N1137 H1141 0.985 . S
H1138 N1133 0.984 . S
H1139 N1133 0.985 1_556 S
H1140 N1137 0.984 . S
H1141 N1137 0.985 . S
H1142 N1136 0.984 . S
H1143 N1136 0.984 . S
H1144 N1132 0.984 . S
H1145 N1132 0.985 . S
C1146 C1147 1.363 . S
C1146 C1152 1.379 . S
C1146 N1154 1.356 . S
C1147 C1146 1.363 . S
C1147 C1153 1.363 . S
C1148 C1149 1.363 . S
C1148 C1153 1.379 . S
C1148 N1155 1.356 . S
C1149 C1148 1.363 . S
C1149 C1152 1.363 . S
N1150 C1152 1.356 . S
N1150 H1162 0.984 . S
N1150 H1163 0.985 . S
N1151 C1153 1.356 . S
N1151 H1156 0.984 . S
N1151 H1157 0.985 . S
C1152 C1146 1.379 . S
C1152 C1149 1.363 . S
C1152 N1150 1.356 . S
C1153 C1147 1.363 . S
C1153 C1148 1.379 . S
C1153 N1151 1.356 . S
N1154 C1146 1.356 . S
N1154 H1160 0.984 . S
N1154 H1161 0.984 . S
N1155 C1148 1.356 . S
N1155 H1158 0.984 . S
N1155 H1159 0.985 . S
H1156 N1151 0.984 . S
H1157 N1151 0.985 . S
H1158 N1155 0.984 . S
H1159 N1155 0.985 . S
H1160 N1154 0.984 . S
H1161 N1154 0.984 . S
H1162 N1150 0.984 . S
H1163 N1150 0.985 . S
C1164 C1165 1.363 . S
C1164 C1170 1.379 . S
C1164 N1172 1.356 . S
C1165 C1164 1.363 . S
C1165 C1171 1.363 . S
C1166 C1167 1.363 . S
C1166 C1171 1.379 . S
C1166 N1173 1.356 . S
C1167 C1166 1.363 . S
C1167 C1170 1.363 . S
N1168 C1170 1.356 . S
N1168 H1180 0.984 . S
N1168 H1181 0.985 . S
N1169 C1171 1.356 . S
N1169 H1174 0.984 . S
N1169 H1175 0.985 . S
C1170 C1164 1.379 . S
C1170 C1167 1.363 . S
C1170 N1168 1.356 . S
C1171 C1165 1.363 . S
C1171 C1166 1.379 . S
C1171 N1169 1.356 . S
N1172 C1164 1.356 . S
N1172 H1178 0.984 . S
N1172 H1179 0.984 . S
N1173 C1166 1.356 . S
N1173 H1176 0.984 . S
N1173 H1177 0.985 . S
H1174 N1169 0.984 . S
H1175 N1169 0.985 . S
H1176 N1173 0.984 . S
H1177 N1173 0.985 . S
H1178 N1172 0.984 . S
H1179 N1172 0.984 . S
H1180 N1168 0.984 . S
H1181 N1168 0.985 . S
C1182 C1183 1.363 . S
C1182 C1188 1.379 . S
C1182 N1190 1.356 . S
C1183 C1182 1.363 . S
C1183 C1189 1.363 . S
C1184 C1185 1.363 . S
C1184 C1189 1.379 . S
C1184 N1191 1.356 . S
C1185 C1184 1.363 . S
C1185 C1188 1.363 . S
N1186 C1188 1.356 . S
N1186 H1198 0.984 . S
N1186 H1199 0.985 . S
N1187 C1189 1.356 . S
N1187 H1192 0.984 . S
N1187 H1193 0.985 . S
C1188 C1182 1.379 . S
C1188 C1185 1.363 . S
C1188 N1186 1.356 . S
C1189 C1183 1.363 . S
C1189 C1184 1.379 . S
C1189 N1187 1.356 . S
N1190 C1182 1.356 . S
N1190 H1196 0.984 . S
N1190 H1197 0.984 . S
N1191 C1184 1.356 . S
N1191 H1194 0.984 . S
N1191 H1195 0.985 . S
H1192 N1187 0.984 . S
H1193 N1187 0.985 . S
H1194 N1191 0.984 . S
H1195 N1191 0.985 . S
H1196 N1190 0.984 . S
H1197 N1190 0.984 . S
H1198 N1186 0.984 . S
H1199 N1186 0.985 . S
C1200 C1201 1.363 . S
C1200 C1206 1.379 . S
C1200 N1208 1.356 . S
C1201 C1200 1.363 . S
C1201 C1207 1.363 . S
C1202 C1203 1.363 . S
C1202 C1207 1.379 . S
C1202 N1209 1.356 . S
C1203 C1202 1.363 . S
C1203 C1206 1.363 . S
N1204 C1206 1.356 . S
N1204 H1216 0.984 . S
N1204 H1217 0.985 . S
N1205 C1207 1.356 . S
N1205 H1210 0.984 . S
N1205 H1211 0.985 . S
C1206 C1200 1.379 . S
C1206 C1203 1.363 . S
C1206 N1204 1.356 . S
C1207 C1201 1.363 . S
C1207 C1202 1.379 . S
C1207 N1205 1.356 . S
N1208 C1200 1.356 . S
N1208 H1214 0.984 . S
N1208 H1215 0.984 . S
N1209 C1202 1.356 . S
N1209 H1212 0.984 . S
N1209 H1213 0.985 . S
H1210 N1205 0.984 . S
H1211 N1205 0.985 . S
H1212 N1209 0.984 . S
H1213 N1209 0.985 . S
H1214 N1208 0.984 . S
H1215 N1208 0.984 . S
H1216 N1204 0.984 . S
H1217 N1204 0.985 . S
C1218 C1219 1.363 . S
C1218 C1224 1.379 . S
C1218 N1226 1.356 . S
C1219 C1218 1.363 . S
C1219 C1225 1.363 . S
C1220 C1221 1.363 . S
C1220 C1225 1.379 . S
C1220 N1227 1.356 . S
C1221 C1220 1.363 . S
C1221 C1224 1.363 . S
N1222 C1224 1.356 . S
N1222 H1234 0.984 . S
N1222 H1235 0.985 . S
N1223 C1225 1.356 . S
N1223 H1228 0.984 . S
N1223 H1229 0.985 . S
C1224 C1218 1.379 . S
C1224 C1221 1.363 . S
C1224 N1222 1.356 . S
C1225 C1219 1.363 . S
C1225 C1220 1.379 . S
C1225 N1223 1.356 . S
N1226 C1218 1.356 . S
N1226 H1232 0.984 . S
N1226 H1233 0.984 . S
N1227 C1220 1.356 . S
N1227 H1230 0.984 . S
N1227 H1231 0.985 . S
H1228 N1223 0.984 . S
H1229 N1223 0.985 . S
H1230 N1227 0.984 . S
H1231 N1227 0.985 . S
H1232 N1226 0.984 . S
H1233 N1226 0.984 . S
H1234 N1222 0.984 . S
H1235 N1222 0.985 . S
C1236 C1237 1.363 . S
C1236 C1242 1.379 . S
C1236 N1244 1.356 . S
C1237 C1236 1.363 . S
C1237 C1243 1.363 . S
C1238 C1239 1.363 . S
C1238 C1243 1.379 . S
C1238 N1245 1.356 . S
C1239 C1238 1.363 . S
C1239 C1242 1.363 . S
N1240 C1242 1.356 . S
N1240 H1252 0.984 . S
N1240 H1253 0.985 . S
N1241 C1243 1.356 . S
N1241 H1246 0.984 . S
N1241 H1247 0.985 . S
C1242 C1236 1.379 . S
C1242 C1239 1.363 . S
C1242 N1240 1.356 . S
C1243 C1237 1.363 . S
C1243 C1238 1.379 . S
C1243 N1241 1.356 . S
N1244 C1236 1.356 . S
N1244 H1250 0.984 . S
N1244 H1251 0.984 . S
N1245 C1238 1.356 . S
N1245 H1248 0.984 . S
N1245 H1249 0.985 . S
H1246 N1241 0.984 . S
H1247 N1241 0.985 . S
H1248 N1245 0.984 . S
H1249 N1245 0.985 . S
H1250 N1244 0.984 . S
H1251 N1244 0.984 . S
H1252 N1240 0.984 . S
H1253 N1240 0.985 . S
C1254 C1255 1.363 . S
C1254 C1260 1.379 1_556 S
C1254 N1262 1.356 . S
C1255 C1254 1.363 . S
C1255 C1261 1.363 . S
C1256 C1257 1.363 1_556 S
C1256 C1261 1.379 . S
C1256 N1263 1.356 . S
C1257 C1256 1.363 1_554 S
C1257 C1260 1.363 . S
N1258 C1260 1.356 . S
N1258 H1270 0.984 . S
N1258 H1271 0.985 . S
N1259 C1261 1.356 . S
N1259 H1264 0.984 . S
N1259 H1265 0.985 . S
C1260 C1254 1.379 1_554 S
C1260 C1257 1.363 . S
C1260 N1258 1.356 . S
C1261 C1255 1.363 . S
C1261 C1256 1.379 . S
C1261 N1259 1.356 . S
N1262 C1254 1.356 . S
N1262 H1268 0.983 1_556 S
N1262 H1269 0.984 . S
N1263 C1256 1.356 . S
N1263 H1266 0.984 1_556 S
N1263 H1267 0.985 . S
H1264 N1259 0.984 . S
H1265 N1259 0.985 . S
H1266 N1263 0.984 1_554 S
H1267 N1263 0.985 . S
H1268 N1262 0.983 1_554 S
H1269 N1262 0.984 . S
H1270 N1258 0.984 . S
H1271 N1258 0.985 . S
C1272 C1273 1.363 . S
C1272 C1278 1.379 . S
C1272 N1280 1.356 . S
C1273 C1272 1.363 . S
C1273 C1279 1.363 . S
C1274 C1275 1.363 . S
C1274 C1279 1.379 . S
C1274 N1281 1.356 . S
C1275 C1274 1.363 . S
C1275 C1278 1.363 . S
N1276 C1278 1.356 . S
N1276 H1288 0.984 . S
N1276 H1289 0.985 . S
N1277 C1279 1.356 . S
N1277 H1282 0.984 . S
N1277 H1283 0.985 . S
C1278 C1272 1.379 . S
C1278 C1275 1.363 . S
C1278 N1276 1.356 . S
C1279 C1273 1.363 . S
C1279 C1274 1.379 . S
C1279 N1277 1.356 . S
N1280 C1272 1.356 . S
N1280 H1286 0.984 . S
N1280 H1287 0.984 . S
N1281 C1274 1.356 . S
N1281 H1284 0.984 . S
N1281 H1285 0.985 . S
H1282 N1277 0.984 . S
H1283 N1277 0.985 . S
H1284 N1281 0.984 . S
H1285 N1281 0.985 . S
H1286 N1280 0.984 . S
H1287 N1280 0.984 . S
H1288 N1276 0.984 . S
H1289 N1276 0.985 . S
C1290 C1291 1.363 1_554 S
C1290 C1296 1.379 . S
C1290 N1298 1.356 . S
C1291 C1290 1.363 1_556 S
C1291 C1297 1.363 . S
C1292 C1293 1.363 1_556 S
C1292 C1297 1.379 . S
C1292 N1299 1.356 . S
C1293 C1292 1.363 1_554 S
C1293 C1296 1.363 . S
N1294 C1296 1.356 . S
N1294 H1306 0.984 . S
N1294 H1307 0.985 . S
N1295 C1297 1.356 . S
N1295 H1300 0.984 . S
N1295 H1301 0.985 . S
C1296 C1290 1.379 . S
C1296 C1293 1.363 . S
C1296 N1294 1.356 . S
C1297 C1291 1.363 . S
C1297 C1292 1.379 . S
C1297 N1295 1.356 . S
N1298 C1290 1.356 . S
N1298 H1304 0.984 . S
N1298 H1305 0.984 1_554 S
N1299 C1292 1.356 . S
N1299 H1302 0.984 . S
N1299 H1303 0.985 . S
H1300 N1295 0.984 . S
H1301 N1295 0.985 . S
H1302 N1299 0.984 . S
H1303 N1299 0.985 . S
H1304 N1298 0.984 . S
H1305 N1298 0.984 1_556 S
H1306 N1294 0.984 . S
H1307 N1294 0.985 . S
C1308 C1309 1.363 . S
C1308 C1314 1.379 . S
C1308 N1316 1.356 . S
C1309 C1308 1.363 . S
C1309 C1315 1.363 . S
C1310 C1311 1.363 . S
C1310 C1315 1.379 . S
C1310 N1317 1.356 . S
C1311 C1310 1.363 . S
C1311 C1314 1.363 . S
N1312 C1314 1.356 . S
N1312 H1324 0.984 . S
N1312 H1325 0.985 . S
N1313 C1315 1.356 . S
N1313 H1318 0.984 . S
N1313 H1319 0.985 . S
C1314 C1308 1.379 . S
C1314 C1311 1.363 . S
C1314 N1312 1.356 . S
C1315 C1309 1.363 . S
C1315 C1310 1.379 . S
C1315 N1313 1.356 . S
N1316 C1308 1.356 . S
N1316 H1322 0.984 . S
N1316 H1323 0.984 . S
N1317 C1310 1.356 . S
N1317 H1320 0.984 . S
N1317 H1321 0.985 . S
H1318 N1313 0.984 . S
H1319 N1313 0.985 . S
H1320 N1317 0.984 . S
H1321 N1317 0.985 . S
H1322 N1316 0.984 . S
H1323 N1316 0.984 . S
H1324 N1312 0.984 . S
H1325 N1312 0.985 . S
C1326 C1327 1.363 . S
C1326 C1332 1.379 . S
C1326 N1334 1.356 . S
C1327 C1326 1.363 . S
C1327 C1333 1.363 . S
C1328 C1329 1.363 . S
C1328 C1333 1.379 . S
C1328 N1335 1.356 . S
C1329 C1328 1.363 . S
C1329 C1332 1.363 . S
N1330 C1332 1.356 . S
N1330 H1342 0.984 . S
N1330 H1343 0.985 . S
N1331 C1333 1.356 . S
N1331 H1336 0.984 . S
N1331 H1337 0.985 . S
C1332 C1326 1.379 . S
C1332 C1329 1.363 . S
C1332 N1330 1.356 . S
C1333 C1327 1.363 . S
C1333 C1328 1.379 . S
C1333 N1331 1.356 . S
N1334 C1326 1.356 . S
N1334 H1340 0.984 . S
N1334 H1341 0.984 . S
N1335 C1328 1.356 . S
N1335 H1338 0.984 . S
N1335 H1339 0.985 . S
H1336 N1331 0.984 . S
H1337 N1331 0.985 . S
H1338 N1335 0.984 . S
H1339 N1335 0.985 . S
H1340 N1334 0.984 . S
H1341 N1334 0.984 . S
H1342 N1330 0.984 . S
H1343 N1330 0.985 . S
C1344 C1345 1.363 . S
C1344 C1350 1.379 . S
C1344 N1352 1.356 . S
C1345 C1344 1.363 . S
C1345 C1351 1.363 . S
C1346 C1347 1.363 . S
C1346 C1351 1.379 . S
C1346 N1353 1.356 . S
C1347 C1346 1.363 . S
C1347 C1350 1.363 . S
N1348 C1350 1.356 . S
N1348 H1360 0.984 . S
N1348 H1361 0.985 . S
N1349 C1351 1.356 . S
N1349 H1354 0.984 . S
N1349 H1355 0.985 . S
C1350 C1344 1.379 . S
C1350 C1347 1.363 . S
C1350 N1348 1.356 . S
C1351 C1345 1.363 . S
C1351 C1346 1.379 . S
C1351 N1349 1.356 . S
N1352 C1344 1.356 . S
N1352 H1358 0.984 . S
N1352 H1359 0.984 . S
N1353 C1346 1.356 . S
N1353 H1356 0.984 . S
N1353 H1357 0.985 . S
H1354 N1349 0.984 . S
H1355 N1349 0.985 . S
H1356 N1353 0.984 . S
H1357 N1353 0.985 . S
H1358 N1352 0.984 . S
H1359 N1352 0.984 . S
H1360 N1348 0.984 . S
H1361 N1348 0.985 . S
C1362 C1363 1.363 . S
C1362 C1368 1.379 . S
C1362 N1370 1.356 . S
C1363 C1362 1.363 . S
C1363 C1369 1.363 . S
C1364 C1365 1.363 . S
C1364 C1369 1.379 . S
C1364 N1371 1.356 . S
C1365 C1364 1.363 . S
C1365 C1368 1.363 . S
N1366 C1368 1.356 . S
N1366 H1378 0.984 . S
N1366 H1379 0.985 . S
N1367 C1369 1.356 . S
N1367 H1372 0.984 . S
N1367 H1373 0.985 . S
C1368 C1362 1.379 . S
C1368 C1365 1.363 . S
C1368 N1366 1.356 . S
C1369 C1363 1.363 . S
C1369 C1364 1.379 . S
C1369 N1367 1.356 . S
N1370 C1362 1.356 . S
N1370 H1376 0.984 . S
N1370 H1377 0.984 . S
N1371 C1364 1.356 . S
N1371 H1374 0.984 . S
N1371 H1375 0.985 . S
H1372 N1367 0.984 . S
H1373 N1367 0.985 . S
H1374 N1371 0.984 . S
H1375 N1371 0.985 . S
H1376 N1370 0.984 . S
H1377 N1370 0.984 . S
H1378 N1366 0.984 . S
H1379 N1366 0.985 . S
C1380 C1381 1.363 . S
C1380 C1386 1.379 1_545 S
C1380 N1388 1.356 . S
C1381 C1380 1.363 . S
C1381 C1387 1.363 . S
C1382 C1383 1.363 . S
C1382 C1387 1.379 1_565 S
C1382 N1389 1.356 . S
C1383 C1382 1.363 . S
C1383 C1386 1.363 . S
N1384 C1386 1.356 . S
N1384 H1396 0.984 1_554 S
N1384 H1397 0.985 . S
N1385 C1387 1.356 . S
N1385 H1390 0.984 . S
N1385 H1391 0.985 . S
C1386 C1380 1.379 1_565 S
C1386 C1383 1.363 . S
C1386 N1384 1.356 . S
C1387 C1381 1.363 . S
C1387 C1382 1.379 1_545 S
C1387 N1385 1.356 . S
N1388 C1380 1.356 . S
N1388 H1394 0.984 1_554 S
N1388 H1395 0.984 . S
N1389 C1382 1.356 . S
N1389 H1392 0.984 . S
N1389 H1393 0.985 . S
H1390 N1385 0.984 . S
H1391 N1385 0.985 . S
H1392 N1389 0.984 . S
H1393 N1389 0.985 . S
H1394 N1388 0.984 1_556 S
H1395 N1388 0.984 . S
H1396 N1384 0.984 1_556 S
H1397 N1384 0.985 . S
C1398 C1399 1.363 . S
C1398 C1404 1.379 . S
C1398 N1406 1.356 . S
C1399 C1398 1.363 . S
C1399 C1405 1.363 . S
C1400 C1401 1.363 . S
C1400 C1405 1.379 . S
C1400 N1407 1.356 . S
C1401 C1400 1.363 . S
C1401 C1404 1.363 . S
N1402 C1404 1.356 . S
N1402 H1414 0.984 . S
N1402 H1415 0.985 . S
N1403 C1405 1.356 . S
N1403 H1408 0.984 . S
N1403 H1409 0.985 . S
C1404 C1398 1.379 . S
C1404 C1401 1.363 . S
C1404 N1402 1.356 . S
C1405 C1399 1.363 . S
C1405 C1400 1.379 . S
C1405 N1403 1.356 . S
N1406 C1398 1.356 . S
N1406 H1412 0.984 . S
N1406 H1413 0.984 . S
N1407 C1400 1.356 . S
N1407 H1410 0.984 . S
N1407 H1411 0.985 . S
H1408 N1403 0.984 . S
H1409 N1403 0.985 . S
H1410 N1407 0.984 . S
H1411 N1407 0.985 . S
H1412 N1406 0.984 . S
H1413 N1406 0.984 . S
H1414 N1402 0.984 . S
H1415 N1402 0.985 . S
C1416 C1417 1.363 . S
C1416 C1422 1.379 1_455 S
C1416 N1424 1.356 . S
C1417 C1416 1.363 . S
C1417 C1423 1.363 . S
C1418 C1419 1.363 . S
C1418 C1423 1.379 1_655 S
C1418 N1425 1.356 . S
C1419 C1418 1.363 . S
C1419 C1422 1.363 . S
N1420 C1422 1.356 . S
N1420 H1432 0.984 . S
N1420 H1433 0.985 . S
N1421 C1423 1.356 . S
N1421 H1426 0.984 . S
N1421 H1427 0.985 . S
C1422 C1416 1.379 1_655 S
C1422 C1419 1.363 . S
C1422 N1420 1.356 . S
C1423 C1417 1.363 . S
C1423 C1418 1.379 1_455 S
C1423 N1421 1.356 . S
N1424 C1416 1.356 . S
N1424 H1430 0.984 . S
N1424 H1431 0.984 . S
N1425 C1418 1.356 . S
N1425 H1428 0.984 . S
N1425 H1429 0.985 . S
H1426 N1421 0.984 . S
H1427 N1421 0.985 . S
H1428 N1425 0.984 . S
H1429 N1425 0.985 . S
H1430 N1424 0.984 . S
H1431 N1424 0.984 . S
H1432 N1420 0.984 . S
H1433 N1420 0.985 . S
C1434 C1435 1.363 . S
C1434 C1440 1.379 1_565 S
C1434 N1442 1.356 . S
C1435 C1434 1.363 . S
C1435 C1441 1.363 . S
C1436 C1437 1.363 . S
C1436 C1441 1.379 1_545 S
C1436 N1443 1.356 . S
C1437 C1436 1.363 . S
C1437 C1440 1.363 . S
N1438 C1440 1.356 . S
N1438 H1450 0.984 . S
N1438 H1451 0.985 . S
N1439 C1441 1.356 . S
N1439 H1444 0.984 . S
N1439 H1445 0.985 . S
C1440 C1434 1.379 1_545 S
C1440 C1437 1.363 . S
C1440 N1438 1.356 . S
C1441 C1435 1.363 . S
C1441 C1436 1.379 1_565 S
C1441 N1439 1.356 . S
N1442 C1434 1.356 . S
N1442 H1448 0.984 . S
N1442 H1449 0.984 . S
N1443 C1436 1.356 . S
N1443 H1446 0.984 . S
N1443 H1447 0.985 . S
H1444 N1439 0.984 . S
H1445 N1439 0.985 . S
H1446 N1443 0.984 . S
H1447 N1443 0.985 . S
H1448 N1442 0.984 . S
H1449 N1442 0.984 . S
H1450 N1438 0.984 . S
H1451 N1438 0.985 . S
C1452 C1453 1.363 . S
C1452 C1458 1.379 . S
C1452 N1460 1.356 . S
C1453 C1452 1.363 . S
C1453 C1459 1.363 . S
C1454 C1455 1.363 . S
C1454 C1459 1.379 . S
C1454 N1461 1.356 . S
C1455 C1454 1.363 . S
C1455 C1458 1.363 . S
N1456 C1458 1.356 . S
N1456 H1468 0.984 . S
N1456 H1469 0.985 . S
N1457 C1459 1.356 . S
N1457 H1462 0.984 . S
N1457 H1463 0.985 . S
C1458 C1452 1.379 . S
C1458 C1455 1.363 . S
C1458 N1456 1.356 . S
C1459 C1453 1.363 . S
C1459 C1454 1.379 . S
C1459 N1457 1.356 . S
N1460 C1452 1.356 . S
N1460 H1466 0.984 . S
N1460 H1467 0.984 . S
N1461 C1454 1.356 . S
N1461 H1464 0.984 . S
N1461 H1465 0.985 . S
H1462 N1457 0.984 . S
H1463 N1457 0.985 . S
H1464 N1461 0.984 . S
H1465 N1461 0.985 . S
H1466 N1460 0.984 . S
H1467 N1460 0.984 . S
H1468 N1456 0.984 . S
H1469 N1456 0.985 . S
C1470 C1471 1.363 . S
C1470 C1476 1.379 1_455 S
C1470 N1478 1.356 . S
C1471 C1470 1.363 . S
C1471 C1477 1.363 . S
C1472 C1473 1.363 . S
C1472 C1477 1.379 1_655 S
C1472 N1479 1.356 . S
C1473 C1472 1.363 . S
C1473 C1476 1.363 . S
N1474 C1476 1.356 . S
N1474 H1486 0.984 . S
N1474 H1487 0.985 . S
N1475 C1477 1.356 . S
N1475 H1480 0.984 . S
N1475 H1481 0.985 . S
C1476 C1470 1.379 1_655 S
C1476 C1473 1.363 . S
C1476 N1474 1.356 . S
C1477 C1471 1.363 . S
C1477 C1472 1.379 1_455 S
C1477 N1475 1.356 . S
N1478 C1470 1.356 . S
N1478 H1484 0.984 . S
N1478 H1485 0.984 . S
N1479 C1472 1.356 . S
N1479 H1482 0.984 . S
N1479 H1483 0.985 . S
H1480 N1475 0.984 . S
H1481 N1475 0.985 . S
H1482 N1479 0.984 . S
H1483 N1479 0.985 . S
H1484 N1478 0.984 . S
H1485 N1478 0.984 . S
H1486 N1474 0.984 . S
H1487 N1474 0.985 . S
C1057 C29 1.260 . S
C1059 C929 1.260 . S
C1075 C108 1.259 . S
C1077 C1025 1.259 . S
C1093 C585 1.259 . S
C1095 C205 1.259 . S
C1111 C293 1.260 . S
C1113 C673 1.260 . S
C1129 C761 1.259 . S
C1131 C381 1.259 . S
C1147 C841 1.259 . S
C1149 C489 1.259 . S
C1165 C724 1.397 . S
C1167 C49 1.397 . S
C1183 C145 1.395 . S
C1185 C821 1.395 . S
C1201 C909 1.397 . S
C1203 C225 1.397 . S
C1219 C313 1.396 . S
C1221 C988 1.396 . S
C1237 C401 1.395 . S
C1239 C548 1.395 . S
C1255 C469 1.396 . S
C1257 C636 1.396 . S
C1273 C900 1.778 . S
C1275 C57 1.778 . S
C1291 C997 1.779 . S
C1293 C137 1.779 . S
C1309 C557 1.779 . S
C1311 C233 1.779 . S
C1327 C321 1.779 . S
C1329 C645 1.779 . S
C1345 C409 1.779 . S
C1347 C733 1.779 . S
C1363 C812 1.778 . S
C1365 C460 1.778 . S
C1381 C20 1.314 . S
C1383 C665 1.314 . S
C1399 C753 1.313 . S
C1401 C117 1.313 . S
C1417 C849 1.313 . S
C1419 C196 1.313 . S
C1435 C284 1.315 . S
C1437 C937 1.315 . S
C1453 C372 1.314 . S
C1455 C1017 1.314 . S
C1471 C497 1.313 . S
C1473 C577 1.314 . S
