# Generated by pormake.
# Topology whb, (6)-cn, num edge types: 1
# Building blocks:
#     Node 0, Type 0, BuildingBlock: KUMBUR_clean_sbu_1, # of connection points: 6
#     Node 1, Type 0, BuildingBlock: KUMBUR_clean_sbu_1, # of connection points: 6
#     Node 2, Type 0, BuildingBlock: KUMBUR_clean_sbu_1, # of connection points: 6
#     Node 3, Type 0, BuildingBlock: KUMBUR_clean_sbu_1, # of connection points: 6
#     Node 4, Type 0, BuildingBlock: KUMBUR_clean_sbu_1, # of connection points: 6
#     Node 5, Type 0, BuildingBlock: KUMBUR_clean_sbu_1, # of connection points: 6
#     Node 6, Type 0, BuildingBlock: KUMBUR_clean_sbu_1, # of connection points: 6
#     Node 7, Type 0, BuildingBlock: KUMBUR_clean_sbu_1, # of connection points: 6
#     Edge 8, Type (0, 0), BuildingBlock: CIFDUS_clean_linker_0, # of connection points: 2
#     Edge 9, Type (0, 0), BuildingBlock: CIFDUS_clean_linker_0, # of connection points: 2
#     Edge 10, Type (0, 0), BuildingBlock: CIFDUS_clean_linker_0, # of connection points: 2
#     Edge 11, Type (0, 0), BuildingBlock: CIFDUS_clean_linker_0, # of connection points: 2
#     Edge 12, Type (0, 0), BuildingBlock: CIFDUS_clean_linker_0, # of connection points: 2
#     Edge 13, Type (0, 0), BuildingBlock: CIFDUS_clean_linker_0, # of connection points: 2
#     Edge 14, Type (0, 0), BuildingBlock: CIFDUS_clean_linker_0, # of connection points: 2
#     Edge 15, Type (0, 0), BuildingBlock: CIFDUS_clean_linker_0, # of connection points: 2
#     Edge 16, Type (0, 0), BuildingBlock: CIFDUS_clean_linker_0, # of connection points: 2
#     Edge 17, Type (0, 0), BuildingBlock: CIFDUS_clean_linker_0, # of connection points: 2
#     Edge 18, Type (0, 0), BuildingBlock: CIFDUS_clean_linker_0, # of connection points: 2
#     Edge 19, Type (0, 0), BuildingBlock: CIFDUS_clean_linker_0, # of connection points: 2
#     Edge 20, Type (0, 0), BuildingBlock: CIFDUS_clean_linker_0, # of connection points: 2
#     Edge 21, Type (0, 0), BuildingBlock: CIFDUS_clean_linker_0, # of connection points: 2
#     Edge 22, Type (0, 0), BuildingBlock: CIFDUS_clean_linker_0, # of connection points: 2
#     Edge 23, Type (0, 0), BuildingBlock: CIFDUS_clean_linker_0, # of connection points: 2
#     Edge 24, Type (0, 0), BuildingBlock: CIFDUS_clean_linker_0, # of connection points: 2
#     Edge 25, Type (0, 0), BuildingBlock: CIFDUS_clean_linker_0, # of connection points: 2
#     Edge 26, Type (0, 0), BuildingBlock: CIFDUS_clean_linker_0, # of connection points: 2
#     Edge 27, Type (0, 0), BuildingBlock: CIFDUS_clean_linker_0, # of connection points: 2
#     Edge 28, Type (0, 0), BuildingBlock: CIFDUS_clean_linker_0, # of connection points: 2
#     Edge 29, Type (0, 0), BuildingBlock: CIFDUS_clean_linker_0, # of connection points: 2
#     Edge 30, Type (0, 0), BuildingBlock: CIFDUS_clean_linker_0, # of connection points: 2
#     Edge 31, Type (0, 0), BuildingBlock: CIFDUS_clean_linker_0, # of connection points: 2
# Relax obj value: 0.639
# Max RMSD: 0.332
# Mean RMSD: 0.278
data_MOF--net-whb--node1-KUMBUR_clean_sbu_1--edge1-CIFDUS_clean_linker_0
_symmetry_space_group_name_H-M    P1
_symmetry_Int_Tables_number       1
_symmetry_cell_setting            triclinic
loop_
_symmetry_equiv_pos_as_xyz
'x, y, z'
_cell_length_a     27.230806
_cell_length_b     27.388721
_cell_length_c     41.330188
_cell_angle_alpha  106.50737
_cell_angle_beta   90.962125
_cell_angle_gamma 101.58543
loop_
_atom_site_label
_atom_site_type_symbol
_atom_site_fract_x
_atom_site_fract_y
_atom_site_fract_z
_atom_type_partial_charge
Tb0 Tb 0.19871 0.42207 0.09196 0.0
C1 C 0.23821 0.35044 0.22555 0.0
N2 N 0.24464 0.32885 0.19249 0.0
C3 C 0.31834 0.30287 0.20863 0.0
C4 C 0.27288 0.3512 0.25152 0.0
C5 C 0.28211 0.302 0.18394 0.0
C6 C 0.31434 0.32863 0.24255 0.0
C7 C 0.18214 0.38261 0.26732 0.0
C8 C 0.19374 0.36616 0.23333 0.0
C9 C 0.21797 0.387 0.29341 0.0
C10 C 0.26344 0.37151 0.28551 0.0
Tb11 Tb 0.18467 0.33226 0.154 0.0
N12 N 0.16 0.36102 0.20743 0.0
C13 C 0.13407 0.39176 0.27394 0.0
C14 C 0.11212 0.36719 0.2137 0.0
C15 C 0.09864 0.38309 0.24698 0.0
H16 H 0.28416 0.28004 0.1579 0.0
H17 H 1.06073 0.38795 0.25179 0.0
H18 H 1.08025 0.41714 0.06951 0.0
H19 H 0.34848 0.35702 0.01635 0.0
H20 H 1.08407 0.35968 0.19316 0.0
H21 H 0.12343 0.40362 0.29968 0.0
H22 H 0.31399 0.40501 0.06633 0.0
H23 H 0.34884 0.28299 0.20152 0.0
H24 H 0.2101 0.4004 0.3197 0.0
H25 H 0.28991 0.37306 0.30583 0.0
H26 H 1.02097 0.37814 0.01903 0.0
H27 H 0.3419 0.32845 0.26171 0.0
H28 H 0.29345 0.31034 0.96409 0.0
N29 N 0.14088 0.38628 0.04624 0.0
C30 C 0.15776 0.36133 0.01668 0.0
C31 C 1.0592 0.3725 0.01808 0.0
C32 C 0.12546 0.33946 0.98676 0.0
C33 C 0.09277 0.39375 0.04698 0.0
C34 C 1.07547 0.34477 0.98789 0.0
N35 N 0.23779 0.38109 0.04572 0.0
C36 C 0.28827 0.38245 0.04518 0.0
C37 C 0.22662 0.33185 0.98631 0.0
C38 C 0.20768 0.3579 0.01651 0.0
C39 C 0.27751 0.33017 0.98667 0.0
C40 C 0.30856 0.35617 0.01614 0.0
H41 H 1.04945 0.32846 0.96549 0.0
H42 H 0.11975 0.29583 0.93362 0.0
H43 H 0.20834 0.28873 0.93328 0.0
O44 O 0.24172 0.47887 0.07307 0.0
O45 O 0.16053 0.34036 0.07959 0.0
O46 O 0.21436 0.30835 0.10523 0.0
O47 O 0.17015 0.48837 0.09153 0.0
O48 O 0.27335 0.42154 0.11561 0.0
O49 O 0.26532 0.35304 0.13978 0.0
O50 O 0.12803 0.26748 0.12743 0.0
O51 O 0.1805 0.41365 0.17586 0.0
O52 O 0.23084 0.45736 0.14417 0.0
O53 O 0.17414 0.26397 0.16906 0.0
O54 O 0.1117 0.34849 0.13625 0.0
O55 O 0.13049 0.4255 0.12102 0.0
C56 C 0.18644 0.30482 0.07852 0.0
C57 C 0.19335 0.51784 0.04405 0.0
C58 C 0.16195 0.575 0.01653 0.0
C59 C 0.17119 0.543 0.98495 0.0
C60 C 0.20281 0.48719 0.01217 0.0
C61 C 0.19119 0.49936 0.98288 0.0
C62 C 0.17275 0.56169 0.04608 0.0
C63 C 0.29377 0.39029 0.12884 0.0
C64 C 0.20688 0.50551 0.0752 0.0
C65 C 0.14406 0.31321 0.95678 0.0
C66 C 0.19447 0.30911 0.9566 0.0
C67 C 0.21032 0.45569 0.17245 0.0
C68 C 0.09157 0.21106 0.15906 0.0
C69 C 1.04254 0.18778 0.20373 0.0
C70 C 1.01095 0.14706 0.17888 0.0
C71 C 1.05912 0.17034 0.13483 0.0
C72 C 1.08273 0.22027 0.19371 0.0
C73 C 1.01901 0.13874 0.14469 0.0
C74 C 0.09744 0.38839 0.12886 0.0
C75 C 0.13605 0.23998 0.14722 0.0
H76 H 0.16454 0.55251 0.96179 0.0
H77 H 0.22019 0.45439 0.00977 0.0
H78 H 0.19881 0.47551 0.95851 0.0
H79 H 0.16567 0.58556 0.07063 0.0
H80 H 0.97954 0.12201 0.18596 0.0
H81 H 1.06533 0.16242 0.10816 0.0
H82 H 0.10749 0.2515 0.21277 0.0
H83 H 0.9943 0.10734 0.12576 0.0
Tb84 Tb 0.4987 0.24457 0.61634 0.0
C85 C 0.30677 0.12431 0.54266 0.0
N86 N 0.35136 0.11551 0.53105 0.0
C87 C 0.32071 1.02358 0.52227 0.0
C88 C 0.26904 0.0841 0.54742 0.0
C89 C 0.35709 0.0652 0.5184 0.0
C90 C 0.27704 1.03327 0.53777 0.0
C91 C 0.25214 0.18512 0.55882 0.0
C92 C 0.29795 0.17331 0.54757 0.0
C93 C 0.21634 0.14682 0.5672 0.0
C94 C 0.22434 0.096 0.56087 0.0
Tb95 Tb 0.41231 0.1885 0.53223 0.0
N96 N 0.33532 0.20992 0.54167 0.0
C97 C 0.24398 0.23485 0.56112 0.0
C98 C 0.32649 0.25728 0.54159 0.0
C99 C 0.28081 0.27059 0.55155 0.0
H100 H 0.38997 1.0569 0.50551 0.0
H101 H 0.27442 0.30867 0.55242 0.0
H102 H 0.43282 0.2154 0.67846 0.0
H103 H 0.60557 0.42799 0.60614 0.0
H104 H 0.35527 0.28532 0.53493 0.0
H105 H 0.20911 0.24558 0.56951 0.0
H106 H 0.57623 0.33268 0.58915 0.0
H107 H 0.32642 0.98412 0.51328 0.0
H108 H 0.18158 0.15551 0.57728 0.0
H109 H 0.19535 0.06607 0.5657 0.0
H110 H 0.40045 0.26286 0.73066 0.0
H111 H 0.24897 1.0011 0.54087 0.0
H112 H 0.57683 0.48268 0.65777 0.0
N113 N 0.46904 0.28414 0.66664 0.0
C114 C 0.48321 0.33697 0.67795 0.0
C115 C 0.4233 0.28426 0.7159 0.0
C116 C 0.4669 0.3657 0.70829 0.0
C117 C 0.44093 0.25748 0.68584 0.0
C118 C 0.43595 0.33865 0.72704 0.0
N119 N 0.52939 0.33288 0.63003 0.0
C120 C 0.56287 0.35578 0.61156 0.0
C121 C 0.53125 0.41689 0.67007 0.0
C122 C 0.51517 0.36221 0.65933 0.0
C123 C 0.56363 0.44073 0.6504 0.0
C124 C 0.5798 0.40998 0.62118 0.0
H125 H 0.42251 0.35928 0.75046 0.0
H126 H 0.47016 0.4431 0.74226 0.0
H127 H 0.52637 0.48796 0.70868 0.0
O128 O 0.5724 0.23059 0.61539 0.0
O129 O 0.46015 0.30382 0.60227 0.0
O130 O 0.44889 0.27408 0.54418 0.0
O131 O 0.53467 0.24289 0.66121 0.0
O132 O 0.53705 0.24217 0.56901 0.0
O133 O 0.4885 0.1728 0.52902 0.0
O134 O 0.39478 0.14008 0.48255 0.0
O135 O 0.44735 0.12819 0.54561 0.0
O136 O 0.46657 0.15633 0.60357 0.0
O137 O 0.41451 0.22251 0.49194 0.0
O138 O 0.38596 0.22428 0.5818 0.0
O139 O 0.42657 0.19491 0.61752 0.0
C140 C 0.45052 0.31259 0.57283 0.0
C141 C 0.62101 0.27726 0.6668 0.0
C142 C 0.73587 0.34243 0.66843 0.0
C143 C 0.72832 0.38956 0.71346 0.0
C144 C 0.61294 0.32435 0.70711 0.0
C145 C 0.66433 0.37826 0.73097 0.0
C146 C 0.68021 0.28266 0.64655 0.0
C147 C 0.53257 0.20365 0.54078 0.0
C148 C 0.57692 0.23874 0.64804 0.0
C149 C 0.48244 0.42031 0.71908 0.0
C150 C 0.51454 0.44586 0.7 0.0
C151 C 0.45354 0.11725 0.57464 0.0
C152 C 0.35424 0.17339 0.44623 0.0
C153 C 0.26519 0.13882 0.42818 0.0
C154 C 0.27253 0.15396 0.39861 0.0
C155 C 0.3611 0.1889 0.41681 0.0
C156 C 0.30614 0.14899 0.45189 0.0
C157 C 0.32028 0.17934 0.39315 0.0
C158 C 0.38515 0.20386 0.60682 0.0
C159 C 0.39769 0.17794 0.46935 0.0
H160 H 0.7639 0.4232 0.72321 0.0
H161 H 0.57653 0.32045 0.71736 0.0
H162 H 0.6999 0.39074 0.72652 0.0
H163 H 0.68202 0.25846 0.62103 0.0
H164 H 0.24133 0.14685 0.38007 0.0
H165 H 0.39806 0.20743 0.41184 0.0
H166 H 0.30072 0.13623 0.47433 0.0
H167 H 0.32577 0.19119 0.37039 0.0
Tb168 Tb 0.67604 0.3266 0.14904 0.0
C169 C 0.79815 0.44903 0.05952 0.0
N170 N 0.78238 0.46833 0.09056 0.0
C171 C 0.86021 0.53161 0.10676 0.0
C172 C 0.84671 0.46846 0.05128 0.0
C173 C 0.81171 0.51061 0.11373 0.0
C174 C 0.87822 0.50969 0.07564 0.0
C175 C 0.77678 0.39455 0.00179 0.0
C176 C 0.76377 0.41285 0.0353 0.0
C177 C 0.82625 0.41074 -0.00615 0.0
C178 C 0.86118 0.44779 0.01857 0.0
Tb179 Tb 0.70316 0.43151 0.10024 0.0
N180 N 0.71606 0.40008 0.04383 0.0
C181 C 0.73902 0.36301 0.977 0.0
C182 C 0.67825 0.37408 0.01898 0.0
C183 C 0.68931 0.3537 0.98551 0.0
H184 H 0.79805 0.52735 0.13787 0.0
H185 H 0.65939 0.33146 0.96625 0.0
H186 H 0.62634 0.38457 0.21837 0.0
H187 H 0.76775 0.16405 0.12303 0.0
H188 H 0.63943 0.36837 0.02503 0.0
H189 H 0.74741 0.34798 0.95096 0.0
H190 H 0.72139 0.22469 0.10854 0.0
H191 H 0.88377 0.56435 0.12545 0.0
H192 H 0.83719 0.39665 0.96835 0.0
H193 H 0.89858 0.46164 0.01179 0.0
H194 H 0.63224 0.39108 0.27927 0.0
H195 H 0.91579 0.52594 0.07029 0.0
H196 H 0.78713 0.17078 0.1831 0.0
N197 N 0.67728 0.33368 0.20562 0.0
C198 C 0.70457 0.30448 0.21665 0.0
C199 C 0.65308 0.3668 0.26195 0.0
C200 C 0.70842 0.30613 0.25101 0.0
C201 C 0.64988 0.36309 0.22746 0.0
C202 C 0.68299 0.33867 0.27387 0.0
N203 N 0.71662 0.26694 0.15987 0.0
C204 C 0.73024 0.22855 0.13483 0.0
C205 C 0.75066 0.23544 0.20232 0.0
C206 C 0.72513 0.26973 0.19278 0.0
C207 C 0.76729 0.19788 0.17687 0.0
C208 C 0.75634 0.19392 0.14294 0.0
H209 H 0.68493 0.3411 0.30051 0.0
H210 H 0.73952 0.27463 0.28737 0.0
H211 H 0.77671 0.21276 0.24462 0.0
O212 O 0.62183 0.26811 0.15886 0.0
O213 O 0.7087 0.40329 0.18445 0.0
O214 O 0.72694 0.46479 0.15474 0.0
O215 O 0.61111 0.29275 0.1147 0.0
O216 O 0.75551 0.33647 0.13522 0.0
O217 O 0.77462 0.41111 0.11686 0.0
O218 O 0.68037 0.50179 0.12367 0.0
O219 O 0.65937 0.35182 0.07834 0.0
O220 O 0.70163 0.30252 0.09776 0.0
O221 O 0.68311 0.47494 0.06972 0.0
O222 O 0.6221 0.40005 0.10574 0.0
O223 O 0.62925 0.38662 0.15719 0.0
C224 C 0.72758 0.45072 0.18283 0.0
C225 C 0.57777 0.20377 0.11048 0.0
C226 C 0.56451 0.11257 0.10941 0.0
C227 C 0.52849 0.09898 0.08194 0.0
C228 C 0.54326 0.18953 0.08205 0.0
C229 C 0.51942 0.13713 0.0675 0.0
C230 C 0.58989 0.16472 0.12275 0.0
C231 C 0.78861 0.37329 0.12704 0.0
C232 C 0.59475 0.2589 0.13063 0.0
C233 C 0.73579 0.2738 0.26106 0.0
C234 C 0.75697 0.23854 0.23672 0.0
C235 C 0.68011 0.3112 0.07205 0.0
C236 C 0.6964 0.56552 0.09335 0.0
C237 C 0.70016 0.62985 0.06204 0.0
C238 C 0.73509 0.66553 0.08758 0.0
C239 C 0.73112 0.6018 0.11855 0.0
C240 C 0.68094 0.57991 0.06536 0.0
C241 C 0.75032 0.65152 0.11557 0.0
C242 C 0.6011 0.39447 0.1335 0.0
C243 C 0.67535 0.51235 0.0951 0.0
H244 H 0.50669 1.05944 0.07233 0.0
H245 H 0.53309 0.21901 0.07209 0.0
H246 H 0.49187 0.12651 0.04614 0.0
H247 H 0.61567 0.17548 0.14514 0.0
H248 H 0.75122 0.70404 0.08572 0.0
H249 H 0.74347 0.59186 0.14044 0.0
H250 H 0.6534 0.55209 0.04624 0.0
H251 H 0.77731 0.67929 0.135 0.0
Tb252 Tb 0.42559 0.706 0.54759 0.0
C253 C 0.2934 0.62014 0.64679 0.0
N254 N 0.28868 0.62461 0.61503 0.0
C255 C 0.24146 0.53631 0.5952 0.0
C256 C 0.27428 0.57276 0.65373 0.0
C257 C 0.26123 0.58419 0.58955 0.0
C258 C 0.24854 0.53034 0.62731 0.0
C259 C 0.32282 0.66122 0.70572 0.0
C260 C 0.31749 0.66357 0.67225 0.0
C261 C 0.30534 0.61368 0.71273 0.0
C262 C 0.28106 0.56952 0.68678 0.0
Tb263 Tb 0.32264 0.70446 0.60843 0.0
N264 N 0.33313 0.70886 0.66447 0.0
C265 C 0.34413 0.70705 0.73124 0.0
C266 C 0.3502 0.75434 0.6897 0.0
C267 C 0.35712 0.75401 0.72325 0.0
H268 H 0.25524 0.58841 0.56471 0.0
H269 H 0.37161 0.79009 0.74298 0.0
H270 H 0.47082 0.79353 0.51008 0.0
H271 H 0.31443 0.50789 0.48893 0.0
H272 H 0.35712 0.79114 0.68411 0.0
H273 H 0.34895 0.70694 0.75729 0.0
H274 H 0.33769 0.5902 0.53328 0.0
H275 H 0.2207 0.50407 0.57478 0.0
H276 H 0.30943 0.61094 0.73825 0.0
H277 H 0.26702 0.53333 0.69262 0.0
H278 H 0.49824 0.7963 0.45385 0.0
H279 H 0.23325 0.49319 0.63158 0.0
H280 H 0.35127 0.497 0.4338 0.0
N281 N 0.44582 0.71104 0.49516 0.0
C282 C 0.43732 0.66644 0.46934 0.0
C283 C 0.48149 0.75938 0.45788 0.0
C284 C 0.45194 0.66602 0.4367 0.0
C285 C 0.46595 0.75764 0.4897 0.0
C286 C 0.47517 0.7132 0.43134 0.0
N287 N 0.39315 0.62663 0.50641 0.0
C288 C 0.35648 0.58674 0.51043 0.0
C289 C 0.39611 0.57572 0.44822 0.0
C290 C 0.41017 0.62228 0.4752 0.0
C291 C 0.36302 0.53341 0.45379 0.0
C292 C 0.34218 0.53944 0.48482 0.0
H293 H 0.48688 0.71461 0.40663 0.0
H294 H 0.45249 0.61769 0.38514 0.0
H295 H 0.40331 0.5383 0.39523 0.0
O296 O 0.50106 0.70575 0.5367 0.0
O297 O 0.35351 0.71742 0.52757 0.0
O298 O 0.30467 0.66662 0.55396 0.0
O299 O 0.47926 0.77526 0.56706 0.0
O300 O 0.42402 0.63398 0.56411 0.0
O301 O 0.36096 0.63425 0.60155 0.0
O302 O 0.26859 0.7321 0.64042 0.0
O303 O 0.39132 0.76167 0.6288 0.0
O304 O 0.44387 0.71269 0.60191 0.0
O305 O 0.25556 0.71325 0.58667 0.0
O306 O 0.35759 0.78719 0.60559 0.0
O307 O 0.39499 0.77766 0.55496 0.0
C308 C 0.30863 0.69108 0.53078 0.0
C309 C 0.5568 0.76215 0.58396 0.0
C310 C 0.61822 0.73082 0.61242 0.0
C311 C 0.62812 0.77876 0.63803 0.0
C312 C 0.56871 0.81028 0.60932 0.0
C313 C 0.60397 0.81824 0.63613 0.0
C314 C 0.5823 0.72302 0.58537 0.0
C315 C 0.39646 0.61165 0.58459 0.0
C316 C 0.51664 0.75307 0.55705 0.0
C317 C 0.44112 0.61905 0.41032 0.0
C318 C 0.41323 0.57386 0.41609 0.0
C319 C 0.43519 0.74967 0.62812 0.0
C320 C 0.18412 0.70279 0.61846 0.0
C321 C 0.10947 0.70764 0.64978 0.0
C322 C 1.08314 0.66167 0.62629 0.0
C323 C 0.1582 0.65557 0.59572 0.0
C324 C 0.15938 0.72842 0.64525 0.0
C325 C 0.10769 0.63561 0.59936 0.0
C326 C 0.37926 0.80796 0.58198 0.0
C327 C 0.23662 0.72718 0.61557 0.0
H328 H 0.65476 0.7861 0.65949 0.0
H329 H 0.55001 0.84147 0.60881 0.0
H330 H 0.61205 0.85487 0.6558 0.0
H331 H 0.57498 0.68711 0.56478 0.0
H332 H 1.04447 0.64531 0.62935 0.0
H333 H 0.17676 0.63395 0.57546 0.0
H334 H 0.17939 0.76465 0.66311 0.0
H335 H 1.08781 0.59947 0.58156 0.0
Tb336 Tb 0.61667 0.94931 0.8851 0.0
C337 C 0.56438 1.00428 0.74897 0.0
N338 N 0.60574 0.99787 0.7646 0.0
C339 C 0.62832 0.9483 0.71136 0.0
C340 C 0.55187 0.9809 0.71401 0.0
C341 C 0.63883 0.97207 0.74615 0.0
C342 C 0.5841 0.95181 0.69528 0.0
C343 C 0.49511 1.0482 0.75255 0.0
C344 C 0.53658 1.03728 0.76786 0.0
C345 C 0.48033 1.02253 0.71814 0.0
C346 C 0.50874 0.98892 0.69886 0.0
Tb347 Tb 0.62055 1.03906 0.82137 0.0
N348 N 0.55279 0.06182 0.80072 0.0
C349 C 0.47132 0.08622 0.77194 0.0
C350 C 0.53252 0.10204 0.81888 0.0
C351 C 0.49074 0.11398 0.80507 0.0
H352 H 0.67344 0.96993 0.75837 0.0
H353 H 0.47364 0.14458 0.81995 0.0
H354 H 0.50977 0.86527 0.87687 0.0
H355 H 0.73553 1.0587 -0.00132 0.0
H356 H 0.54758 0.12346 0.84451 0.0
H357 H 0.43922 0.09578 0.76119 0.0
H358 H 0.71653 1.01253 0.93757 0.0
H359 H 0.65478 0.92795 0.69703 0.0
H360 H 0.44815 1.02981 0.70594 0.0
H361 H 0.49795 0.97066 0.67211 0.0
H362 H 0.43888 0.84753 0.91177 0.0
H363 H 0.57607 0.93359 0.66828 0.0
H364 H 0.66712 1.05969 0.03741 0.0
N365 N 0.55068 0.92999 0.9159 0.0
C366 C 0.5549 0.95713 0.94912 0.0
C367 C 0.47108 0.87886 0.92254 0.0
C368 C 0.51655 0.94746 0.97038 0.0
C369 C 0.511 0.88905 0.90284 0.0
C370 C 0.47345 0.90886 0.95635 0.0
N371 N 0.63767 0.99236 0.94131 0.0
C372 C 0.68626 1.0142 0.95418 0.0
C373 C 0.60962 1.01368 -0.00242 0.0
C374 C 0.60041 0.98979 0.96241 0.0
C375 C 0.65848 1.04062 0.01053 0.0
C376 C 0.6972 1.03994 0.98879 0.0
H377 H 0.44303 0.9002 0.97178 0.0
H378 H 0.49512 0.96709 0.02204 0.0
H379 H 0.57757 1.02383 0.04591 0.0
O380 O 0.633 0.87717 0.85773 0.0
O381 O 0.65729 1.03044 0.89486 0.0
O382 O 0.60943 0.07523 0.87486 0.0
O383 O 0.64047 0.90312 0.91214 0.0
O384 O 0.69427 0.9732 0.86981 0.0
O385 O 0.69389 1.01588 0.82805 0.0
O386 O 0.6548 0.08188 0.79001 0.0
O387 O 0.6256 0.95697 0.809 0.0
O388 O 0.57135 0.91344 0.83658 0.0
O389 O 0.66683 0.11356 0.8441 0.0
O390 O 0.54374 1.02071 0.83923 0.0
O391 O 0.54147 0.96661 0.87472 0.0
C392 C 0.63494 0.06981 0.90033 0.0
C393 C 0.61868 0.81276 0.88771 0.0
C394 C 0.61277 0.74882 0.91945 0.0
C395 C 0.57588 0.7144 0.89476 0.0
C396 C 0.58155 0.77795 0.86349 0.0
C397 C 0.56044 0.72899 0.86705 0.0
C398 C 0.63414 0.79782 0.91548 0.0
C399 C 0.71746 0.9948 0.84753 0.0
C400 C 0.64191 0.86508 0.88529 0.0
C401 C 0.52407 0.9739 0.0052 0.0
C402 C 0.57079 1.00662 0.0188 0.0
C403 C 0.58624 0.9198 0.80787 0.0
C404 C 0.66545 0.17241 0.81095 0.0
C405 C 0.67549 0.23374 0.77705 0.0
C406 C 0.65072 0.26595 0.80106 0.0
C407 C 0.64092 0.20522 0.83453 0.0
C408 C 0.68215 0.18669 0.78222 0.0
C409 C 0.63341 0.25156 0.82942 0.0
C410 C 0.51953 0.99326 0.85831 0.0
C411 C 0.67367 0.12271 0.81502 0.0
H412 H 0.55833 0.67657 0.89716 0.0
H413 H 0.56873 0.78855 0.84198 0.0
H414 H 0.53174 0.70231 0.84835 0.0
H415 H 0.66319 0.8245 0.93402 0.0
H416 H 0.64581 0.30294 0.79842 0.0
H417 H 0.62754 0.19513 0.85681 0.0
H418 H 0.70054 0.16093 0.76385 0.0
H419 H 0.61464 0.27682 0.84776 0.0
Tb420 Tb 0.98975 0.6653 0.36553 0.0
C421 C 0.96341 0.70583 0.5151 0.0
N422 N 0.93369 0.66358 0.49259 0.0
C423 C 0.92867 0.61577 0.53333 0.0
C424 C 0.9757 0.70492 0.54821 0.0
C425 C 0.91767 0.61824 0.50078 0.0
C426 C 0.95735 0.65947 0.55728 0.0
C427 C 1.01853 0.79116 0.52657 0.0
C428 C 0.98434 0.74863 0.50416 0.0
C429 C 1.02838 0.7916 0.56012 0.0
C430 C 1.00719 0.74853 0.57085 0.0
Tb431 Tb 0.91609 0.67279 0.4409 0.0
N432 N 0.97557 0.7462 0.47095 0.0
C433 C 1.04437 0.83062 0.51416 0.0
C434 C 1.00604 0.7817 0.45835 0.0
C435 C 1.0391 0.82509 0.47972 0.0
H436 H 0.89513 0.58455 0.48244 0.0
H437 H 1.06164 0.85352 0.46938 0.0
H438 H 0.93557 0.69595 0.30385 0.0
H439 H 0.10568 0.52478 0.36004 0.0
H440 H 1.00677 0.77678 0.43185 0.0
H441 H 1.07087 0.86378 0.53053 0.0
H442 H 1.07392 0.6042 0.38621 0.0
H443 H 0.91501 0.58017 0.53992 0.0
H444 H 1.05413 0.82418 0.5776 0.0
H445 H 1.01676 0.74864 0.59638 0.0
H446 H 0.90904 0.65483 0.24293 0.0
H447 H 0.96614 0.65734 0.58245 0.0
H448 H 1.07624 0.47229 0.30119 0.0
N449 N 0.96737 0.63331 0.30873 0.0
C450 C 0.97996 0.58757 0.29259 0.0
C451 C 0.92877 0.63535 0.25663 0.0
C452 C 0.96645 0.56308 0.25781 0.0
C453 C 0.94363 0.6584 0.29112 0.0
C454 C 0.93951 0.58705 0.24001 0.0
N455 N 1.02409 0.59427 0.34351 0.0
C456 C 1.06022 0.58104 0.36076 0.0
C457 C 1.0278 0.5227 0.29427 0.0
C458 C 1.00989 0.56758 0.31053 0.0
C459 C 1.06161 0.50651 0.3127 0.0
C460 C 1.07834 0.53614 0.34595 0.0
H461 H 0.92821 0.56943 0.21327 0.0
H462 H 0.97169 0.49706 0.21509 0.0
H463 H 1.02578 0.46192 0.24698 0.0
O464 O 1.03745 0.69316 0.33231 0.0
O465 O 0.9113 0.66599 0.35619 0.0
O466 O 0.88019 0.62025 0.39106 0.0
O467 O 1.05018 0.72857 0.38634 0.0
O468 O 0.965 0.58365 0.37412 0.0
O469 O 0.92463 0.59075 0.42385 0.0
O470 O 0.83772 0.65505 0.42933 0.0
O471 O 0.98635 0.64605 0.44795 0.0
O472 O 1.03502 0.68455 0.41399 0.0
O473 O 0.86733 0.68151 0.48071 0.0
O474 O 0.91347 0.74558 0.42571 0.0
O475 O 0.95097 0.73431 0.37472 0.0
C476 C 0.87688 0.62974 0.3618 0.0
C477 C 0.12171 0.7275 0.35535 0.0
C478 C 0.1898 0.68558 0.33313 0.0
C479 C 0.22508 0.73044 0.35093 0.0
C480 C 0.15722 0.77205 0.37358 0.0
C481 C 0.2087 0.7734 0.3714 0.0
C482 C 0.13834 0.68422 0.3355 0.0
C483 C 0.9425 0.56187 0.39714 0.0
C484 C 1.06766 0.72682 0.35698 0.0
C485 C 0.98194 0.51673 0.24176 0.0
C486 C 1.01273 0.49667 0.25995 0.0
C487 C 1.03112 0.66351 0.43888 0.0
C488 C 0.80143 0.60694 0.4652 0.0
C489 C 0.75717 0.56109 0.50244 0.0
C490 C 0.75811 0.51312 0.47878 0.0
C491 C 0.80225 0.55843 0.44173 0.0
C492 C 0.77883 0.6078 0.49532 0.0
C493 C 0.78083 0.51194 0.4486 0.0
C494 C 0.92699 0.7623 0.39912 0.0
C495 C 0.82833 0.65643 0.46012 0.0
H496 H 0.26498 0.73208 0.34906 0.0
H497 H 0.14512 0.80583 0.38927 0.0
H498 H 0.23591 0.80795 0.38537 0.0
H499 H 0.11136 0.64967 0.32111 0.0
H500 H 0.74113 0.4768 0.48358 0.0
H501 H 0.82013 0.55621 0.41834 0.0
H502 H 0.77765 0.64521 0.51308 0.0
H503 H 0.7819 0.47491 0.43046 0.0
Tb504 Tb 0.12418 1.04066 0.82428 0.0
C505 C 0.17379 1.02737 0.96996 0.0
N506 N 0.18361 0.99549 0.94018 0.0
C507 C 0.26552 0.99827 0.9641 0.0
C508 C 0.20979 1.04638 -0.00198 0.0
C509 C 0.22868 0.98044 0.93699 0.0
C510 C 0.25611 1.03148 -0.00526 0.0
C511 C 0.11658 0.0757 0.0024 0.0
C512 C 0.12798 1.04217 0.97194 0.0
C513 C 0.15212 0.09447 0.03049 0.0
C514 C 0.19868 0.07996 0.02827 0.0
Tb515 Tb 0.12162 0.96979 0.89698 0.0
N516 N 0.09521 1.02472 0.94377 0.0
C517 C 1.06999 0.0898 0.00369 0.0
C518 C 1.04904 1.03757 0.94545 0.0
C519 C 1.03599 0.07033 0.97517 0.0
H520 H 0.23607 0.95369 0.91379 0.0
H521 H 0.99957 0.08059 0.976 0.0
H522 H 1.01388 0.99905 0.77867 0.0
H523 H 0.31008 0.06647 0.77759 0.0
H524 H 1.02135 1.02305 0.92445 0.0
H525 H 1.05988 0.11555 0.02655 0.0
H526 H 0.24465 0.09163 0.81577 0.0
H527 H 0.30108 0.98616 0.96137 0.0
H528 H 0.14411 0.12058 0.05395 0.0
H529 H 0.22591 0.09509 0.05005 0.0
H530 H 0.9812 0.94182 0.7214 0.0
H531 H 0.28477 1.04531 0.01568 0.0
H532 H 0.28728 0.9914 0.7259 0.0
N533 N 1.08954 0.9914 0.77147 0.0
C534 C 0.12228 0.97214 0.74947 0.0
C535 C 1.0209 0.94979 0.72906 0.0
C536 C 0.10525 0.93907 0.71665 0.0
C537 C 1.03949 0.98213 0.76147 0.0
C538 C 1.05379 0.92751 0.70674 0.0
N539 N 0.18791 1.02569 0.78948 0.0
C540 C 0.23517 1.0568 0.79448 0.0
C541 C 0.20856 0.9751 0.73541 0.0
C542 C 0.17327 0.98938 0.75899 0.0
C543 C 0.25898 1.00105 0.74333 0.0
C544 C 0.27203 1.04338 0.77249 0.0
H545 H 1.03927 0.90249 0.68166 0.0
H546 H 0.12785 0.89415 0.6693 0.0
H547 H 0.21851 0.92628 0.68558 0.0
O548 O 0.14548 0.12249 0.84035 0.0
O549 O 1.08703 0.9575 0.81173 0.0
O550 O 0.13463 0.93023 0.8459 0.0
O551 O 0.10358 0.08328 0.79274 0.0
O552 O 0.19846 1.04001 0.84933 0.0
O553 O 0.18931 0.96581 0.867 0.0
O554 O 1.06162 0.91198 0.90297 0.0
O555 O 0.15904 1.05103 0.90826 0.0
O556 O 0.10616 0.07472 0.87601 0.0
O557 O 0.13783 0.90841 0.91359 0.0
O558 O 1.04528 0.97158 0.87514 0.0
O559 O 1.04628 1.02603 0.84021 0.0
C560 C 0.10394 0.92019 0.81927 0.0
C561 C 0.15683 0.16664 0.799 0.0
C562 C 0.20878 0.19262 0.75638 0.0
C563 C 0.2144 0.24509 0.77583 0.0
C564 C 0.16281 0.21928 0.81752 0.0
C565 C 0.19147 0.25816 0.80603 0.0
C566 C 0.17993 0.15318 0.76833 0.0
C567 C 0.21834 1.00438 0.85806 0.0
C568 C 0.12617 0.12787 0.81307 0.0
C569 C 0.14025 0.9205 0.69437 0.0
C570 C 0.19189 0.93856 0.70373 0.0
C571 C 0.13926 0.08702 0.90178 0.0
C572 C 1.07822 0.87673 0.94712 0.0
C573 C 1.07472 0.81772 0.98195 0.0
C574 C 1.05969 0.8549 0.00874 0.0
C575 C 1.06223 0.91304 0.97394 0.0
C576 C 1.08399 0.82902 0.95117 0.0
C577 C 1.0532 0.90216 0.00461 0.0
C578 C 1.02181 0.99567 0.85746 0.0
C579 C 0.09099 0.88843 0.91525 0.0
H580 H 0.23744 0.27626 0.76807 0.0
H581 H 0.14539 0.23036 0.84115 0.0
H582 H 0.19622 0.29864 0.82072 0.0
H583 H 0.17524 0.11255 0.75387 0.0
H584 H 1.05231 0.84708 0.03266 0.0
H585 H 1.05678 0.94971 0.9713 0.0
H586 H 0.09666 0.80105 0.93056 0.0
H587 H 1.04115 0.93047 0.02524 0.0
Tb588 Tb 0.91429 0.17964 0.4517 0.0
C589 C 0.84843 0.09115 0.30475 0.0
N590 N 0.83518 0.13402 0.32495 0.0
C591 C 0.85543 0.17846 0.28292 0.0
C592 C 0.86806 0.09078 0.27339 0.0
C593 C 0.83534 0.1764 0.31359 0.0
C594 C 0.87289 0.13584 0.26304 0.0
C595 C 0.84415 0.99877 0.29228 0.0
C596 C 0.83725 1.04629 0.31425 0.0
C597 C 0.86776 0.99869 0.26226 0.0
C598 C 0.87985 1.04479 0.25285 0.0
Tb599 Tb 0.81224 0.13067 0.37756 0.0
N600 N 0.81326 1.04821 0.3429 0.0
C601 C 0.82398 0.95261 0.29998 0.0
C602 C 0.78778 1.00274 0.34792 0.0
C603 C 0.79431 0.9545 0.32738 0.0
H604 H 0.822 0.20948 0.3289 0.0
H605 H 0.77611 0.91885 0.33253 0.0
H606 H 0.88427 0.27925 0.50756 0.0
H607 H 0.09709 0.13651 0.42257 0.0
H608 H 0.76376 1.00374 0.36859 0.0
H609 H 0.8284 0.91521 0.28381 0.0
H610 H 1.00596 0.11467 0.42665 0.0
H611 H 0.85768 0.21296 0.27473 0.0
H612 H 0.87439 0.96276 0.24534 0.0
H613 H 0.89592 1.04384 0.22894 0.0
H614 H 0.92534 0.36919 0.54041 0.0
H615 H 0.88819 0.13739 0.23923 0.0
H616 H 0.14554 0.22621 0.44932 0.0
N617 N 0.95084 0.26137 0.48553 0.0
C618 C 1.00097 0.27768 0.48488 0.0
C619 C 0.9471 0.34394 0.52475 0.0
C620 C 1.02633 0.3284 0.5034 0.0
C621 C 0.92391 0.29298 0.5061 0.0
C622 C 0.99848 0.36201 0.52306 0.0
N623 N 1.00071 0.19297 0.45191 0.0
C624 C 1.02587 0.15456 0.43751 0.0
C625 C 1.07974 0.25571 0.4671 0.0
C626 C 1.027 0.24204 0.46723 0.0
C627 C 0.10509 0.21732 0.45037 0.0
C628 C 1.07794 0.16651 0.43557 0.0
H629 H 1.01646 0.40137 0.53765 0.0
H630 H 0.0989 0.38212 0.5162 0.0
H631 H 0.14583 0.31827 0.48421 0.0
O632 O 0.93603 0.17879 0.50031 0.0
O633 O 0.90105 0.2487 0.43667 0.0
O634 O 0.84063 0.21956 0.39064 0.0
O635 O 0.86958 0.12549 0.47282 0.0
O636 O 0.9405 0.15029 0.40116 0.0
O637 O 0.88518 0.17295 0.36932 0.0
O638 O 0.75113 0.16801 0.38712 0.0
O639 O 0.83085 0.07288 0.40382 0.0
O640 O 0.91469 0.09864 0.41859 0.0
O641 O 0.74407 0.09555 0.3482 0.0
O642 O 0.7906 0.12842 0.42789 0.0
O643 O 0.8407 0.20342 0.45895 0.0
C644 C 0.87377 0.25819 0.413 0.0
C645 C 0.92586 0.09095 0.49939 0.0
C646 C 1.00066 1.05369 0.49365 0.0
C647 C 0.9706 1.00399 0.48929 0.0
C648 C 0.89599 1.0413 0.49591 0.0
C649 C 0.91845 0.99814 0.49122 0.0
C650 C 0.97805 0.09656 0.49924 0.0
C651 C 0.92901 0.16323 0.37434 0.0
C652 C 0.90375 0.13534 0.49758 0.0
C653 C 1.07865 0.34318 0.5024 0.0
C654 C 0.10536 0.30684 0.48422 0.0
C655 C 0.87471 1.05996 0.40841 0.0
C656 C 0.69658 0.15406 0.3386 0.0
C657 C 0.65848 0.14327 0.2826 0.0
C658 C 0.64085 0.18926 0.29556 0.0
C659 C 0.67852 0.19991 0.35122 0.0
C660 C 0.68678 0.12614 0.30403 0.0
C661 C 0.65115 0.21756 0.32968 0.0
C662 C 0.79617 0.17162 0.45276 0.0
C663 C 0.72277 0.13394 0.36187 0.0
H664 H 0.98728 0.97014 0.48444 0.0
H665 H 0.85544 1.03558 0.4955 0.0
H666 H 0.8952 0.9598 0.48796 0.0
H667 H 1.00166 0.13442 0.50143 0.0
H668 H 0.61952 0.20348 0.27919 0.0
H669 H 0.68519 0.22185 0.37778 0.0
H670 H 0.70004 0.09047 0.29379 0.0
H671 H 0.63754 0.25303 0.33952 0.0
H672 H 0.95699 0.24179 0.34703 0.0
H673 H 0.97617 0.08719 0.34076 0.0
H674 H 1.0169 0.0823 0.28772 0.0
H675 H 1.03811 0.11873 0.24007 0.0
H676 H 1.02158 0.27469 0.24759 0.0
H677 H 0.98923 0.28295 0.30348 0.0
C678 C 0.97149 0.2077 0.33447 0.0
C679 C 0.964 0.16498 0.34766 0.0
C680 C 0.99482 0.20539 0.30415 0.0
C681 C 0.9824 0.12078 0.33125 0.0
C682 C 1.00513 0.11784 0.30079 0.0
C683 C 1.02837 0.15485 0.25435 0.0
C684 C 1.03191 0.19602 0.23979 0.0
C685 C 1.01027 0.15937 0.28654 0.0
C686 C 1.01936 0.2427 0.25842 0.0
C687 C 1.00064 0.24726 0.29024 0.0
H688 H 0.81111 0.31259 0.66993 0.0
H689 H 0.70374 0.40329 0.6364 0.0
H690 H 0.62921 0.37789 0.67191 0.0
H691 H 0.63415 0.27502 0.73848 0.0
H692 H 0.76602 0.22441 0.7538 0.0
H693 H 0.80664 0.25689 0.71 0.0
C694 C 0.77277 0.32038 0.67359 0.0
C695 C 0.75997 0.35946 0.65133 0.0
C696 C 0.74529 0.28986 0.69965 0.0
C697 C 0.70844 0.3778 0.65159 0.0
C698 C 0.66264 0.36164 0.67282 0.0
C699 C 0.67153 0.27656 0.73005 0.0
C700 C 0.69757 0.2509 0.74805 0.0
C701 C 0.69254 0.30271 0.7043 0.0
C702 C 0.74555 0.24336 0.74011 0.0
C703 C 0.76894 0.26188 0.71556 0.0
H704 H 0.84173 0.64574 0.30373 0.0
H705 H 0.83622 0.52634 0.35345 0.0
H706 H 0.78866 0.46133 0.30361 0.0
H707 H 0.75224 0.43698 0.24441 0.0
H708 H 0.76025 0.55638 0.19416 0.0
H709 H 0.80406 0.62172 0.24492 0.0
C710 C 0.8305 0.60542 0.3036 0.0
C711 C 0.84344 0.59123 0.33243 0.0
C712 C 0.80382 0.56778 0.2744 0.0
C713 C 0.82697 0.53885 0.33192 0.0
C714 C 0.79997 0.5014 0.30319 0.0
C715 C 0.763 0.47733 0.24451 0.0
C716 C 0.75243 0.49113 0.21496 0.0
C717 C 0.78863 0.51519 0.27405 0.0
C718 C 0.76762 0.54393 0.21605 0.0
C719 C 0.79275 0.58163 0.24528 0.0
H720 H 0.14319 0.72186 0.71327 0.0
H721 H 1.02829 0.75367 0.6544 0.0
H722 H 1.01 0.81875 0.70466 0.0
H723 H 1.0383 0.877 0.7627 0.0
H724 H 0.15876 0.84742 0.81868 0.0
H725 H 0.1628 0.77082 0.77266 0.0
C726 C 0.11327 0.74224 0.71178 0.0
C727 C 1.08757 0.73404 0.68044 0.0
C728 C 0.10492 0.78091 0.74011 0.0
C729 C 1.04861 0.75988 0.67843 0.0
C730 C 1.0387 0.79746 0.70703 0.0
C731 C 1.06543 0.85385 0.76465 0.0
C732 C 0.09959 0.86937 0.7934 0.0
C733 C 1.06859 0.81024 0.73754 0.0
C734 C 0.13275 0.83732 0.79651 0.0
C735 C 0.13521 0.79336 0.77017 0.0
H736 H 0.35539 0.13487 0.6417 0.0
H737 H 0.32118 0.27068 0.62125 0.0
H738 H 0.25786 0.27442 0.66269 0.0
H739 H 0.21883 0.24447 0.70866 0.0
H740 H 0.25839 0.11318 0.73266 0.0
H741 H 0.31219 0.10147 0.68553 0.0
C742 C 0.33354 0.16488 0.64613 0.0
C743 C 0.34263 0.20238 0.62845 0.0
C744 C 0.29845 0.16769 0.67076 0.0
C745 C 0.31425 0.24102 0.63422 0.0
C746 C 0.27842 0.2434 0.65813 0.0
C747 C 0.23915 0.2132 0.70361 0.0
C748 C 0.23514 0.18029 0.72465 0.0
C749 C 0.27121 0.20778 0.67716 0.0
C750 C 0.2606 0.13903 0.71698 0.0
C751 C 0.29176 0.13261 0.69017 0.0
H752 H 0.64834 0.08372 0.12664 0.0
H753 H 0.49042 0.06781 0.14116 0.0
H754 H 0.50616 0.06705 0.1992 0.0
H755 H 0.56724 0.09958 0.24916 0.0
H756 H 0.72582 0.12104 0.23571 0.0
H757 H 0.70796 0.09144 0.17409 0.0
C758 C 0.61717 0.07676 0.14195 0.0
C759 C 0.56864 0.07779 0.13033 0.0
C760 C 0.62713 0.0804 0.17605 0.0
C761 C 0.52822 0.06792 0.14985 0.0
C762 C 0.53741 0.06889 0.18338 0.0
C763 C 0.59767 0.09635 0.23259 0.0
C764 C 0.64764 0.11392 0.24648 0.0
C765 C 0.58708 0.07989 0.1974 0.0
C766 C 0.68707 0.10866 0.22522 0.0
C767 C 0.67686 0.09178 0.1901 0.0
H768 H 0.59879 0.8349 0.75589 0.0
H769 H 0.49843 0.93952 0.78834 0.0
H770 H 0.44734 0.90009 0.73478 0.0
H771 H 0.43301 0.83887 0.67771 0.0
H772 H 0.51885 0.71924 0.64914 0.0
H773 H 0.57473 0.76214 0.70128 0.0
C774 C 0.56565 0.84887 0.75115 0.0
C775 C 0.55369 0.8918 0.77575 0.0
C776 C 0.53432 0.82365 0.72066 0.0
C777 C 0.50945 0.90782 0.76975 0.0
C778 C 0.48007 0.88512 0.73899 0.0
C779 C 0.46304 0.82098 0.68303 0.0
C780 C 0.47122 0.77538 0.65917 0.0
C781 C 0.4925 0.84353 0.71409 0.0
C782 C 0.51163 0.75439 0.6666 0.0
C783 C 0.5434 0.77881 0.69665 0.0
H784 H 0.23327 0.6806 0.27446 0.0
H785 H 0.17773 0.58948 0.34074 0.0
H786 H 0.18176 0.5091 0.29677 0.0
H787 H 0.19145 0.46569 0.23784 0.0
H788 H 0.2472 0.55558 0.17077 0.0
H789 H 0.25297 0.63615 0.21674 0.0
C790 C 0.22365 0.64314 0.27942 0.0
C791 C 0.20505 0.64025 0.31041 0.0
C792 C 0.22525 0.59727 0.25381 0.0
C793 C 0.19187 0.59189 0.31679 0.0
C794 C 0.19394 0.5462 0.29168 0.0
C795 C 0.20553 0.50258 0.23328 0.0
C796 C 0.21836 0.50432 0.20084 0.0
C797 C 0.20889 0.54843 0.25975 0.0
C798 C 0.23684 0.55298 0.19551 0.0
C799 C 0.24014 0.59911 0.22177 0.0
H800 H 0.21723 0.13265 0.94797 0.0
H801 H 1.06866 0.14641 0.91943 0.0
H802 H 1.06903 0.21331 0.97342 0.0
H803 H 0.10991 0.26363 0.02985 0.0
H804 H 0.2593 0.25093 0.05742 0.0
H805 H 0.2595 0.18558 0.00297 0.0
C806 C 0.18529 0.15103 0.95336 0.0
C807 C 0.14288 0.13469 0.93005 0.0
C808 C 0.18545 0.18833 0.98447 0.0
C809 C 0.10183 0.15877 0.937 0.0
C810 C 0.10173 0.19629 0.96802 0.0
C811 C 0.14255 0.24665 0.02378 0.0
C812 C 0.18475 0.26221 0.04723 0.0
C813 C 0.14294 0.2105 -0.00784 0.0
C814 C 0.22642 0.23932 0.03964 0.0
C815 C 0.22679 0.20259 0.00843 0.0
H816 H 0.63364 0.2577 0.55293 0.0
H817 H 0.53537 0.12313 0.48423 0.0
H818 H 0.60596 0.10161 0.45202 0.0
H819 H 0.69628 0.11965 0.44227 0.0
H820 H 0.7955 0.25445 0.50952 0.0
H821 H 0.72508 0.27643 0.54257 0.0
C822 C 0.6275 0.2237 0.5309 0.0
C823 C 0.57816 0.19241 0.52143 0.0
C824 C 0.66904 0.21115 0.51184 0.0
C825 C 0.57207 0.14847 0.49258 0.0
C826 C 0.6128 0.13586 0.47391 0.0
C827 C 0.70278 0.15388 0.46417 0.0
C828 C 0.75209 0.18502 0.4731 0.0
C829 C 0.66156 0.16674 0.48316 0.0
C830 C 0.75867 0.22935 0.50167 0.0
C831 C 0.71803 0.24209 0.52076 0.0
H832 H 0.63261 0.65569 0.92129 0.0
H833 H 0.62843 0.80934 0.98542 0.0
H834 H 0.65539 0.78654 0.03486 0.0
H835 H 0.67934 0.7227 0.06014 0.0
H836 H 0.68477 0.5694 -0.00413 0.0
H837 H 0.65719 0.59199 0.94655 0.0
C838 C 0.63722 0.68404 0.94612 0.0
C839 C 0.62859 0.73422 0.94954 0.0
C840 C 0.65276 0.67067 0.97454 0.0
C841 C 0.63541 0.77068 0.98192 0.0
C842 C 0.65061 0.75758 0.01027 0.0
C843 C 0.675 0.69435 0.03532 0.0
C844 C 0.68402 0.6443 0.03191 0.0
C845 C 0.65952 0.70774 0.0069 0.0
C846 C 0.67738 0.60792 -0.00052 0.0
C847 C 0.66188 0.62091 0.97115 0.0
H848 H 0.21227 0.63256 0.52748 0.0
H849 H 0.29846 0.74428 0.4839 0.0
H850 H 0.22214 0.74476 0.4516 0.0
H851 H 0.12936 0.71567 0.43685 0.0
H852 H 1.0422 0.61078 0.48542 0.0
H853 H 0.11915 0.60728 0.51546 0.0
C854 C 0.21433 0.65813 0.51169 0.0
C855 C 0.26181 0.68925 0.50916 0.0
C856 C 0.16944 0.65981 0.49412 0.0
C857 C 0.26321 0.72001 0.48689 0.0
C858 C 0.21916 0.7205 0.46843 0.0
C859 C 0.12692 0.69204 0.45406 0.0
C860 C 1.07901 0.66322 0.45841 0.0
C861 C 0.1718 0.69097 0.47202 0.0
C862 C 1.0777 0.63334 0.4812 0.0
C863 C 0.12206 0.63124 0.49845 0.0
H864 H 0.57906 0.1373 0.93643 0.0
H865 H 0.72794 0.10581 0.93404 0.0
H866 H 0.75428 0.17453 0.98736 0.0
H867 H 0.73531 0.2441 0.03565 0.0
H868 H 0.58828 0.27981 0.03642 0.0
H869 H 0.56117 0.20981 0.98358 0.0
C870 C 0.61732 0.14576 0.94751 0.0
C871 C 0.65102 0.11523 0.93151 0.0
C872 C 0.63263 0.18629 0.97827 0.0
C873 C 0.70067 0.12742 0.94615 0.0
C874 C 0.71593 0.16704 0.97669 0.0
C875 C 0.6973 0.23633 0.02428 0.0
C876 C 0.66391 0.26723 0.04017 0.0
C877 C 0.68219 0.19653 -0.00675 0.0
C878 C 0.6149 0.2569 0.02479 0.0
C879 C 0.59932 0.21676 -0.00554 0.0
H880 H 0.59053 0.62438 0.58717 0.0
H881 H 0.71763 0.74862 0.63514 0.0
H882 H 0.77454 0.69177 0.61386 0.0
H883 H 0.78872 0.62148 0.56606 0.0
H884 H 0.66229 0.50831 0.50698 0.0
H885 H 0.60551 0.54412 0.5478 0.0
C886 C 0.63068 0.63887 0.59331 0.0
C887 C 0.64962 0.69173 0.61106 0.0
C888 C 0.66375 0.60765 0.57812 0.0
C889 C 0.70148 0.70865 0.62087 0.0
C890 C 0.73444 0.67619 0.60832 0.0
C891 C 0.74889 0.60359 0.56293 0.0
C892 C 0.7292 0.5642 0.533 0.0
C893 C 0.71617 0.62771 0.58445 0.0
C894 C 0.67811 0.53957 0.52955 0.0
C895 C 0.64553 0.5606 0.55264 0.0
H896 H 0.12774 0.80211 0.03307 0.0
H897 H 1.03663 0.72063 0.93968 0.0
H898 H 1.05129 0.63751 0.94414 0.0
H899 H 0.09355 0.58883 0.97285 0.0
H900 H 0.19034 0.67086 0.06391 0.0
H901 H 0.16837 0.75253 0.06283 0.0
C902 C 0.11068 0.76601 0.01396 0.0
C903 C 1.08136 0.76735 0.98601 0.0
C904 C 0.12006 0.71849 0.01637 0.0
C905 C 1.05978 0.72048 0.96122 0.0
C906 C 1.06801 0.67302 0.96382 0.0
C907 C 0.11006 0.62455 -0.00756 0.0
C908 C 0.14396 0.62353 0.01823 0.0
C909 C 0.09878 0.67168 -0.00903 0.0
C910 C 0.16378 0.67014 0.0439 0.0
C911 C 0.15165 0.71707 0.04311 0.0
H912 H 0.21918 0.16704 0.48516 0.0
H913 H 0.19958 1.05318 0.387 0.0
H914 H 0.11818 1.00938 0.40088 0.0
H915 H 1.04977 1.00858 0.44002 0.0
H916 H 1.07208 0.12446 0.53769 0.0
H917 H 0.15312 0.16483 0.5236 0.0
C918 C 0.1973 0.13226 0.46697 0.0
C919 C 0.21513 0.11313 0.43527 0.0
C920 C 0.15118 0.10758 0.47512 0.0
C921 C 0.18618 0.0687 0.41155 0.0
C922 C 0.14006 1.04338 0.41963 0.0
C923 C 1.07402 1.04043 0.45906 0.0
C924 C 1.05529 0.06321 0.48998 0.0
C925 C 0.12206 0.0626 0.45141 0.0
C926 C 1.08617 0.10576 0.51399 0.0
C927 C 0.13281 0.1287 0.50615 0.0
H928 H 1.0089 0.31673 0.13457 0.0
H929 H 1.05718 0.47182 0.12544 0.0
H930 H 0.97005 0.48105 0.12342 0.0
H931 H 0.87775 0.44574 0.12369 0.0
H932 H 0.82923 0.29182 0.13419 0.0
H933 H 0.91629 0.2825 0.13643 0.0
C934 C 1.00074 0.35279 0.13228 0.0
C935 C 1.04156 0.39321 0.12982 0.0
C936 C 0.94915 0.35838 0.13127 0.0
C937 C 1.02818 0.43936 0.12707 0.0
C938 C 0.97761 0.44487 0.12591 0.0
C939 C 0.88574 0.40992 0.12617 0.0
C940 C 0.84477 0.36952 0.12831 0.0
C941 C 0.93733 0.40464 0.12774 0.0
C942 C 0.85819 0.32404 0.13227 0.0
C943 C 0.9088 0.3185 0.13358 0.0
H944 H 0.4155 0.06349 0.6229 0.0
H945 H 0.47054 1.03468 0.52351 0.0
H946 H 0.45241 0.94124 0.51675 0.0
H947 H 0.41997 0.86459 0.53767 0.0
H948 H 0.36423 0.89058 0.6367 0.0
H949 H 0.38329 0.98503 0.64446 0.0
C950 C 0.42421 1.0371 0.59982 0.0
C951 C 0.44505 1.05852 0.57373 0.0
C952 C 0.41294 0.98128 0.59571 0.0
C953 C 0.45473 1.02148 0.5442 0.0
C954 C 0.44415 0.96711 0.54021 0.0
C955 C 0.41157 0.89044 0.56109 0.0
C956 C 0.38972 0.86803 0.58638 0.0
C957 C 0.42291 0.946 0.56554 0.0
C958 C 0.38021 0.90449 0.61632 0.0
C959 C 0.39147 0.95943 0.62087 0.0
H960 H 0.46082 0.0677 0.86136 0.0
H961 H 0.44695 0.90618 0.85582 0.0
H962 H 0.35559 0.89476 0.85596 0.0
H963 H 0.27706 0.92978 0.85633 0.0
H964 H 0.29178 0.09227 0.86365 0.0
H965 H 0.38285 0.10318 0.86307 0.0
C966 C 0.43802 1.02983 0.85995 0.0
C967 C 0.46232 0.98805 0.859 0.0
C968 C 0.38435 1.02331 0.85989 0.0
C969 C 0.43076 0.9397 0.85763 0.0
C970 C 0.37783 0.93292 0.85729 0.0
C971 C 0.29999 0.96774 0.85792 0.0
C972 C 0.2758 1.00977 0.8591 0.0
C973 C 0.35377 0.97435 0.8584 0.0
C974 C 0.30768 1.05843 0.86145 0.0
C975 C 0.36051 0.06498 0.86152 0.0
H976 H 0.899 0.30643 0.36012 0.0
H977 H 0.86996 0.34363 0.46558 0.0
H978 H 0.8882 0.43637 0.46988 0.0
H979 H 0.91377 0.50929 0.44504 0.0
H980 H 0.94809 0.47634 0.34074 0.0
H981 H 0.92761 0.38226 0.33511 0.0
C982 C 0.89608 0.33461 0.38404 0.0
C983 C 0.88186 0.31598 0.41254 0.0
C984 C 0.90841 0.38994 0.38676 0.0
C985 C 0.88003 0.35494 0.4431 0.0
C986 C 0.89076 0.40877 0.44563 0.0
C987 C 0.91702 0.48207 0.42085 0.0
C988 C 0.93299 0.50221 0.39338 0.0
C989 C 0.90532 0.42716 0.41784 0.0
C990 C 0.93662 0.46407 0.36267 0.0
C991 C 0.92444 0.40945 0.35939 0.0
H992 H 0.36118 0.33407 0.14934 0.0
H993 H 0.36287 0.46641 0.11219 0.0
H994 H 0.45297 0.47681 0.10753 0.0
H995 H 0.53436 0.44887 0.11312 0.0
H996 H 0.53584 0.32858 0.16101 0.0
H997 H 0.44434 0.31405 0.16253 0.0
C998 C 0.38071 0.36568 0.14058 0.0
C999 C 0.35229 0.39797 0.13005 0.0
C1000 C 0.43478 0.37382 0.13967 0.0
C1001 C 0.38115 0.43901 0.11939 0.0
C1002 C 0.43373 0.4455 0.11688 0.0
C1003 C 0.51492 0.41939 0.12395 0.0
C1004 C 0.54362 0.38898 0.13605 0.0
C1005 C 0.46136 0.41299 0.12661 0.0
C1006 C 0.51624 0.35215 0.15072 0.0
C1007 C 0.46317 0.34386 0.15176 0.0
H1008 H 0.41956 0.39769 0.62199 0.0
H1009 H 0.46442 0.3564 0.51998 0.0
H1010 H 0.45432 0.44068 0.51477 0.0
H1011 H 0.43198 0.52885 0.53809 0.0
H1012 H 0.38044 0.56815 0.63824 0.0
H1013 H 0.39328 0.48503 0.64453 0.0
C1014 C 0.42737 0.4067 0.59847 0.0
C1015 C 0.4436 0.36814 0.57145 0.0
C1016 C 0.41987 0.45652 0.59504 0.0
C1017 C 0.45228 0.38306 0.54152 0.0
C1018 C 0.44637 0.43225 0.53844 0.0
C1019 C 0.42345 0.51979 0.56151 0.0
C1020 C 0.40489 0.55747 0.5877 0.0
C1021 C 0.43008 0.46981 0.56486 0.0
C1022 C 0.39416 0.54201 0.61725 0.0
C1023 C 0.40187 0.49358 0.62097 0.0
H1024 H 0.78343 0.95176 0.87901 0.0
H1025 H 0.7827 1.04565 0.81112 0.0
H1026 H 0.8734 1.05408 0.80799 0.0
H1027 H 0.95526 1.03639 0.8248 0.0
H1028 H 0.9558 0.94036 0.89133 0.0
H1029 H 0.86505 0.93175 0.89441 0.0
C1030 C 0.80279 0.97404 0.86337 0.0
C1031 C 0.77449 0.99799 0.84534 0.0
C1032 C 0.85614 0.97866 0.86139 0.0
C1033 C 0.8019 1.02645 0.82536 0.0
C1034 C 0.85447 1.03145 0.82356 0.0
C1035 C 0.93583 1.01329 0.83994 0.0
C1036 C 0.96419 0.98931 0.85791 0.0
C1037 C 0.88238 1.00792 0.84148 0.0
C1038 C 0.93659 0.95966 0.87716 0.0
C1039 C 0.884 0.95464 0.87899 0.0
H1040 H 0.84778 0.81946 0.41636 0.0
H1041 H 0.99673 0.83669 0.38164 0.0
H1042 H 0.99624 0.92653 0.38284 0.0
H1043 H 0.95404 1.00369 0.39352 0.0
H1044 H 0.80164 0.9834 0.4221 0.0
H1045 H 0.80326 0.8947 0.42311 0.0
C1046 C 0.88026 0.84239 0.40878 0.0
C1047 C 0.92254 0.81876 0.3988 0.0
C1048 C 0.87915 0.89526 0.40829 0.0
C1049 C 0.96332 0.85143 0.38917 0.0
C1050 C 0.96314 0.90384 0.38997 0.0
C1051 C 0.92084 0.98015 0.39992 0.0
C1052 C 0.87749 1.00275 0.40786 0.0
C1053 C 0.92135 0.9268 0.39942 0.0
C1054 C 0.83562 0.96919 0.41567 0.0
C1055 C 0.83658 0.91754 0.41633 0.0
loop_
_geom_bond_atom_site_label_1
_geom_bond_atom_site_label_2
_geom_bond_distance
_geom_bond_site_symmetry_2
_ccdc_geom_bond_type
Tb0 N29 2.617 1_455 S
Tb0 N35 2.572 . S
Tb0 O44 2.465 . S
Tb0 O45 2.387 . S
Tb0 O47 2.428 . S
Tb0 O48 2.308 . S
Tb0 O52 2.349 . S
Tb0 O55 2.393 1_455 S
Tb0 C64 2.802 . S
C1 N2 1.379 . S
C1 C4 1.416 . S
C1 C8 1.424 . S
N2 C1 1.379 . S
N2 C5 1.334 . S
N2 Tb11 2.617 . S
C3 C5 1.390 . S
C3 C6 1.339 . S
C3 H23 0.930 . S
C4 C1 1.416 . S
C4 C6 1.416 . S
C4 C10 1.448 . S
C5 N2 1.334 . S
C5 C3 1.390 . S
C5 H16 0.930 . S
C6 C3 1.339 . S
C6 C4 1.416 . S
C6 H27 0.930 . S
C7 C8 1.413 . S
C7 C9 1.427 . S
C7 C13 1.416 1_455 S
C8 C1 1.424 . S
C8 C7 1.413 . S
C8 N12 1.361 . S
C9 C7 1.427 . S
C9 C10 1.328 . S
C9 H24 0.929 . S
C10 C4 1.448 . S
C10 C9 1.328 . S
C10 H25 0.930 . S
Tb11 N2 2.617 . S
Tb11 N12 2.572 . S
Tb11 O46 2.349 . S
Tb11 O49 2.393 . S
Tb11 O50 2.465 1_455 S
Tb11 O51 2.387 . S
Tb11 O53 2.428 . S
Tb11 O54 2.308 1_455 S
Tb11 C75 2.802 . S
N12 C8 1.361 . S
N12 Tb11 2.572 . S
N12 C14 1.340 1_455 S
C13 C7 1.416 1_655 S
C13 C15 1.332 . S
C13 H21 0.931 . S
C14 N12 1.340 1_655 S
C14 C15 1.407 . S
C14 H20 0.930 . S
C15 C13 1.332 . S
C15 C14 1.407 . S
C15 H17 0.929 . S
H16 C5 0.930 . S
H17 C15 0.929 . S
H18 C33 0.930 . S
H19 C40 0.929 . S
H20 C14 0.930 . S
H21 C13 0.931 . S
H22 C36 0.930 . S
H23 C3 0.930 . S
H24 C9 0.929 . S
H25 C10 0.930 . S
H26 C31 0.930 . S
H27 C6 0.930 . S
H28 C39 0.931 . S
N29 Tb0 2.617 1_655 S
N29 C30 1.379 1_654 S
N29 C33 1.334 . S
C30 N29 1.379 1_456 S
C30 C32 1.416 1_455 S
C30 C38 1.424 . S
C31 H26 0.930 . S
C31 C33 1.390 1_556 S
C31 C34 1.339 . S
C32 C30 1.416 1_655 S
C32 C34 1.416 . S
C32 C65 1.448 1_655 S
C33 H18 0.930 . S
C33 N29 1.334 . S
C33 C31 1.390 1_554 S
C34 C31 1.339 . S
C34 C32 1.416 . S
C34 H41 0.930 . S
N35 Tb0 2.572 . S
N35 C36 1.340 . S
N35 C38 1.361 1_554 S
C36 H22 0.930 . S
C36 N35 1.340 . S
C36 C40 1.407 1_554 S
C37 C38 1.413 . S
C37 C39 1.416 . S
C37 C66 1.427 . S
C38 C30 1.424 . S
C38 N35 1.361 1_556 S
C38 C37 1.413 . S
C39 H28 0.931 . S
C39 C37 1.416 . S
C39 C40 1.332 . S
C40 H19 0.929 . S
C40 C36 1.407 1_556 S
C40 C39 1.332 . S
H41 C34 0.930 . S
H42 C65 0.930 1_655 S
H43 C66 0.929 . S
O44 Tb0 2.465 . S
O44 C64 1.264 . S
O45 Tb0 2.387 . S
O45 C56 1.264 . S
O46 Tb11 2.349 . S
O46 C56 1.243 . S
O47 Tb0 2.428 . S
O47 C64 1.256 . S
O48 Tb0 2.308 . S
O48 C63 1.266 . S
O49 Tb11 2.393 . S
O49 C63 1.248 . S
O50 Tb11 2.465 1_655 S
O50 C75 1.264 1_655 S
O51 Tb11 2.387 . S
O51 C67 1.264 . S
O52 Tb0 2.349 . S
O52 C67 1.243 . S
O53 Tb11 2.428 . S
O53 C75 1.256 . S
O54 Tb11 2.308 1_655 S
O54 C74 1.266 . S
O55 Tb0 2.393 1_655 S
O55 C74 1.248 . S
C56 O45 1.264 . S
C56 O46 1.243 . S
C57 C60 1.399 . S
C57 C62 1.383 . S
C57 C64 1.496 . S
C58 C59 1.399 . S
C58 C62 1.389 . S
C59 C58 1.399 . S
C59 C61 1.380 . S
C59 H76 0.929 . S
C60 C57 1.399 . S
C60 C61 1.392 . S
C60 H77 0.929 . S
C61 C59 1.380 . S
C61 C60 1.392 . S
C61 H78 0.929 . S
C62 C57 1.383 . S
C62 C58 1.389 . S
C62 H79 0.931 . S
C63 O48 1.266 . S
C63 O49 1.248 . S
C64 Tb0 2.802 . S
C64 O44 1.264 . S
C64 O47 1.256 . S
C64 C57 1.496 . S
C65 C32 1.448 1_455 S
C65 H42 0.930 1_455 S
C65 C66 1.328 . S
C66 C37 1.427 . S
C66 H43 0.929 . S
C66 C65 1.328 . S
C67 O51 1.264 . S
C67 O52 1.243 . S
C68 C71 1.399 . S
C68 C72 1.383 1_455 S
C68 C75 1.496 . S
C69 C70 1.399 . S
C69 C72 1.389 . S
C70 C69 1.399 . S
C70 C73 1.380 1_655 S
C70 H80 0.929 . S
C71 C68 1.399 . S
C71 C73 1.392 . S
C71 H81 0.929 . S
C72 C68 1.383 1_655 S
C72 C69 1.389 . S
C72 H82 0.931 . S
C73 C70 1.380 1_455 S
C73 C71 1.392 . S
C73 H83 0.929 . S
C74 O54 1.266 . S
C74 O55 1.248 . S
C75 Tb11 2.802 . S
C75 O50 1.264 1_455 S
C75 O53 1.256 . S
C75 C68 1.496 . S
H76 C59 0.929 . S
H77 C60 0.929 . S
H78 C61 0.929 . S
H79 C62 0.931 . S
H80 C70 0.929 . S
H81 C71 0.929 . S
H82 C72 0.931 . S
H83 C73 0.929 . S
Tb84 N113 2.617 . S
Tb84 N119 2.572 . S
Tb84 O128 2.465 . S
Tb84 O129 2.387 . S
Tb84 O131 2.428 . S
Tb84 O132 2.308 . S
Tb84 O136 2.349 . S
Tb84 O139 2.393 . S
Tb84 C148 2.802 . S
C85 N86 1.379 . S
C85 C88 1.416 . S
C85 C92 1.424 . S
N86 C85 1.379 . S
N86 C89 1.334 . S
N86 Tb95 2.617 . S
C87 C89 1.390 . S
C87 C90 1.339 . S
C87 H107 0.930 . S
C88 C85 1.416 . S
C88 C90 1.416 . S
C88 C94 1.448 1_545 S
C89 N86 1.334 . S
C89 C87 1.390 . S
C89 H100 0.930 . S
C90 C87 1.339 . S
C90 C88 1.416 . S
C90 H111 0.930 . S
C91 C92 1.413 1_565 S
C91 C93 1.427 . S
C91 C97 1.416 . S
C92 C85 1.424 . S
C92 C91 1.413 1_545 S
C92 N96 1.361 . S
C93 C91 1.427 . S
C93 C94 1.328 . S
C93 H108 0.929 . S
C94 C88 1.448 1_565 S
C94 C93 1.328 . S
C94 H109 0.930 . S
Tb95 N86 2.617 . S
Tb95 N96 2.572 . S
Tb95 O130 2.349 . S
Tb95 O133 2.393 . S
Tb95 O134 2.465 . S
Tb95 O135 2.387 . S
Tb95 O137 2.428 . S
Tb95 O138 2.308 . S
Tb95 C159 2.802 . S
N96 C92 1.361 . S
N96 Tb95 2.572 . S
N96 C98 1.340 . S
C97 C91 1.416 . S
C97 C99 1.332 1_565 S
C97 H105 0.931 . S
C98 N96 1.340 . S
C98 C99 1.407 . S
C98 H104 0.930 . S
C99 C97 1.332 1_545 S
C99 C98 1.407 . S
C99 H101 0.929 . S
H100 C89 0.930 . S
H101 C99 0.929 . S
H102 C117 0.930 . S
H103 C124 0.929 . S
H104 C98 0.930 . S
H105 C97 0.931 . S
H106 C120 0.930 . S
H107 C87 0.930 . S
H108 C93 0.929 . S
H109 C94 0.930 . S
H110 C115 0.930 . S
H111 C90 0.930 . S
H112 C123 0.931 . S
N113 Tb84 2.617 . S
N113 C114 1.379 . S
N113 C117 1.334 . S
C114 N113 1.379 . S
C114 C116 1.416 . S
C114 C122 1.424 . S
C115 H110 0.930 . S
C115 C117 1.390 . S
C115 C118 1.339 . S
C116 C114 1.416 . S
C116 C118 1.416 . S
C116 C149 1.448 . S
C117 H102 0.930 . S
C117 N113 1.334 . S
C117 C115 1.390 . S
C118 C115 1.339 . S
C118 C116 1.416 . S
C118 H125 0.930 . S
N119 Tb84 2.572 . S
N119 C120 1.340 . S
N119 C122 1.361 . S
C120 H106 0.930 . S
C120 N119 1.340 . S
C120 C124 1.407 . S
C121 C122 1.413 . S
C121 C123 1.416 . S
C121 C150 1.427 . S
C122 C114 1.424 . S
C122 N119 1.361 . S
C122 C121 1.413 . S
C123 H112 0.931 . S
C123 C121 1.416 . S
C123 C124 1.332 . S
C124 H103 0.929 . S
C124 C120 1.407 . S
C124 C123 1.332 . S
H125 C118 0.930 . S
H126 C149 0.930 . S
H127 C150 0.929 . S
O128 Tb84 2.465 . S
O128 C148 1.264 . S
O129 Tb84 2.387 . S
O129 C140 1.264 . S
O130 Tb95 2.349 . S
O130 C140 1.243 . S
O131 Tb84 2.428 . S
O131 C148 1.256 . S
O132 Tb84 2.308 . S
O132 C147 1.266 . S
O133 Tb95 2.393 . S
O133 C147 1.248 . S
O134 Tb95 2.465 . S
O134 C159 1.264 . S
O135 Tb95 2.387 . S
O135 C151 1.264 . S
O136 Tb84 2.349 . S
O136 C151 1.243 . S
O137 Tb95 2.428 . S
O137 C159 1.256 . S
O138 Tb95 2.308 . S
O138 C158 1.266 . S
O139 Tb84 2.393 . S
O139 C158 1.248 . S
C140 O129 1.264 . S
C140 O130 1.243 . S
C141 C144 1.399 . S
C141 C146 1.383 . S
C141 C148 1.496 . S
C142 C143 1.399 . S
C142 C146 1.389 . S
C143 C142 1.399 . S
C143 C145 1.380 . S
C143 H160 0.929 . S
C144 C141 1.399 . S
C144 C145 1.392 . S
C144 H161 0.929 . S
C145 C143 1.380 . S
C145 C144 1.392 . S
C145 H162 0.929 . S
C146 C141 1.383 . S
C146 C142 1.389 . S
C146 H163 0.931 . S
C147 O132 1.266 . S
C147 O133 1.248 . S
C148 Tb84 2.802 . S
C148 O128 1.264 . S
C148 O131 1.256 . S
C148 C141 1.496 . S
C149 C116 1.448 . S
C149 H126 0.930 . S
C149 C150 1.328 . S
C150 C121 1.427 . S
C150 H127 0.929 . S
C150 C149 1.328 . S
C151 O135 1.264 . S
C151 O136 1.243 . S
C152 C155 1.399 . S
C152 C156 1.383 . S
C152 C159 1.496 . S
C153 C154 1.399 . S
C153 C156 1.389 . S
C154 C153 1.399 . S
C154 C157 1.380 . S
C154 H164 0.929 . S
C155 C152 1.399 . S
C155 C157 1.392 . S
C155 H165 0.929 . S
C156 C152 1.383 . S
C156 C153 1.389 . S
C156 H166 0.931 . S
C157 C154 1.380 . S
C157 C155 1.392 . S
C157 H167 0.929 . S
C158 O138 1.266 . S
C158 O139 1.248 . S
C159 Tb95 2.802 . S
C159 O134 1.264 . S
C159 O137 1.256 . S
C159 C152 1.496 . S
H160 C143 0.929 . S
H161 C144 0.929 . S
H162 C145 0.929 . S
H163 C146 0.931 . S
H164 C154 0.929 . S
H165 C155 0.929 . S
H166 C156 0.931 . S
H167 C157 0.929 . S
Tb168 N197 2.617 . S
Tb168 N203 2.572 . S
Tb168 O212 2.465 . S
Tb168 O213 2.387 . S
Tb168 O215 2.428 . S
Tb168 O216 2.308 . S
Tb168 O220 2.349 . S
Tb168 O223 2.393 . S
Tb168 C232 2.802 . S
C169 N170 1.379 1_556 S
C169 C172 1.416 . S
C169 C176 1.424 . S
N170 C169 1.379 1_554 S
N170 C173 1.334 . S
N170 Tb179 2.617 . S
C171 C173 1.390 1_556 S
C171 C174 1.339 . S
C171 H191 0.930 . S
C172 C169 1.416 . S
C172 C174 1.416 . S
C172 C178 1.448 . S
C173 N170 1.334 . S
C173 C171 1.390 1_554 S
C173 H184 0.930 . S
C174 C171 1.339 . S
C174 C172 1.416 . S
C174 H195 0.930 . S
C175 C176 1.413 . S
C175 C177 1.427 . S
C175 C181 1.416 . S
C176 C169 1.424 . S
C176 C175 1.413 . S
C176 N180 1.361 1_556 S
C177 C175 1.427 . S
C177 C178 1.328 . S
C177 H192 0.929 . S
C178 C172 1.448 . S
C178 C177 1.328 . S
C178 H193 0.930 . S
Tb179 N170 2.617 . S
Tb179 N180 2.572 . S
Tb179 O214 2.349 . S
Tb179 O217 2.393 . S
Tb179 O218 2.465 . S
Tb179 O219 2.387 . S
Tb179 O221 2.428 . S
Tb179 O222 2.308 . S
Tb179 C243 2.802 . S
N180 C176 1.361 1_554 S
N180 Tb179 2.572 . S
N180 C182 1.340 . S
C181 C175 1.416 . S
C181 C183 1.332 . S
C181 H189 0.931 . S
C182 N180 1.340 . S
C182 C183 1.407 1_554 S
C182 H188 0.930 . S
C183 C181 1.332 . S
C183 C182 1.407 1_556 S
C183 H185 0.929 . S
H184 C173 0.930 . S
H185 C183 0.929 . S
H186 C201 0.930 . S
H187 C208 0.929 . S
H188 C182 0.930 . S
H189 C181 0.931 . S
H190 C204 0.930 . S
H191 C171 0.930 . S
H192 C177 0.929 . S
H193 C178 0.930 . S
H194 C199 0.930 . S
H195 C174 0.930 . S
H196 C207 0.931 . S
N197 Tb168 2.617 . S
N197 C198 1.379 . S
N197 C201 1.334 . S
C198 N197 1.379 . S
C198 C200 1.416 . S
C198 C206 1.424 . S
C199 H194 0.930 . S
C199 C201 1.390 . S
C199 C202 1.339 . S
C200 C198 1.416 . S
C200 C202 1.416 . S
C200 C233 1.448 . S
C201 H186 0.930 . S
C201 N197 1.334 . S
C201 C199 1.390 . S
C202 C199 1.339 . S
C202 C200 1.416 . S
C202 H209 0.930 . S
N203 Tb168 2.572 . S
N203 C204 1.340 . S
N203 C206 1.361 . S
C204 H190 0.930 . S
C204 N203 1.340 . S
C204 C208 1.407 . S
C205 C206 1.413 . S
C205 C207 1.416 . S
C205 C234 1.427 . S
C206 C198 1.424 . S
C206 N203 1.361 . S
C206 C205 1.413 . S
C207 H196 0.931 . S
C207 C205 1.416 . S
C207 C208 1.332 . S
C208 H187 0.929 . S
C208 C204 1.407 . S
C208 C207 1.332 . S
H209 C202 0.930 . S
H210 C233 0.930 . S
H211 C234 0.929 . S
O212 Tb168 2.465 . S
O212 C232 1.264 . S
O213 Tb168 2.387 . S
O213 C224 1.264 . S
O214 Tb179 2.349 . S
O214 C224 1.243 . S
O215 Tb168 2.428 . S
O215 C232 1.256 . S
O216 Tb168 2.308 . S
O216 C231 1.266 . S
O217 Tb179 2.393 . S
O217 C231 1.248 . S
O218 Tb179 2.465 . S
O218 C243 1.264 . S
O219 Tb179 2.387 . S
O219 C235 1.264 . S
O220 Tb168 2.349 . S
O220 C235 1.243 . S
O221 Tb179 2.428 . S
O221 C243 1.256 . S
O222 Tb179 2.308 . S
O222 C242 1.266 . S
O223 Tb168 2.393 . S
O223 C242 1.248 . S
C224 O213 1.264 . S
C224 O214 1.243 . S
C225 C228 1.399 . S
C225 C230 1.383 . S
C225 C232 1.496 . S
C226 C227 1.399 . S
C226 C230 1.389 . S
C227 C226 1.399 . S
C227 C229 1.380 . S
C227 H244 0.929 . S
C228 C225 1.399 . S
C228 C229 1.392 . S
C228 H245 0.929 . S
C229 C227 1.380 . S
C229 C228 1.392 . S
C229 H246 0.929 . S
C230 C225 1.383 . S
C230 C226 1.389 . S
C230 H247 0.931 . S
C231 O216 1.266 . S
C231 O217 1.248 . S
C232 Tb168 2.802 . S
C232 O212 1.264 . S
C232 O215 1.256 . S
C232 C225 1.496 . S
C233 C200 1.448 . S
C233 H210 0.930 . S
C233 C234 1.328 . S
C234 C205 1.427 . S
C234 H211 0.929 . S
C234 C233 1.328 . S
C235 O219 1.264 . S
C235 O220 1.243 . S
C236 C239 1.399 . S
C236 C240 1.383 . S
C236 C243 1.496 . S
C237 C238 1.399 . S
C237 C240 1.389 . S
C238 C237 1.399 . S
C238 C241 1.380 . S
C238 H248 0.929 . S
C239 C236 1.399 . S
C239 C241 1.392 . S
C239 H249 0.929 . S
C240 C236 1.383 . S
C240 C237 1.389 . S
C240 H250 0.931 . S
C241 C238 1.380 . S
C241 C239 1.392 . S
C241 H251 0.929 . S
C242 O222 1.266 . S
C242 O223 1.248 . S
C243 Tb179 2.802 . S
C243 O218 1.264 . S
C243 O221 1.256 . S
C243 C236 1.496 . S
H244 C227 0.929 . S
H245 C228 0.929 . S
H246 C229 0.929 . S
H247 C230 0.931 . S
H248 C238 0.929 . S
H249 C239 0.929 . S
H250 C240 0.931 . S
H251 C241 0.929 . S
Tb252 N281 2.617 . S
Tb252 N287 2.572 . S
Tb252 O296 2.465 . S
Tb252 O297 2.387 . S
Tb252 O299 2.428 . S
Tb252 O300 2.308 . S
Tb252 O304 2.349 . S
Tb252 O307 2.393 . S
Tb252 C316 2.802 . S
C253 N254 1.379 . S
C253 C256 1.416 . S
C253 C260 1.424 . S
N254 C253 1.379 . S
N254 C257 1.334 . S
N254 Tb263 2.617 . S
C255 C257 1.390 . S
C255 C258 1.339 . S
C255 H275 0.930 . S
C256 C253 1.416 . S
C256 C258 1.416 . S
C256 C262 1.448 . S
C257 N254 1.334 . S
C257 C255 1.390 . S
C257 H268 0.930 . S
C258 C255 1.339 . S
C258 C256 1.416 . S
C258 H279 0.930 . S
C259 C260 1.413 . S
C259 C261 1.427 . S
C259 C265 1.416 . S
C260 C253 1.424 . S
C260 C259 1.413 . S
C260 N264 1.361 . S
C261 C259 1.427 . S
C261 C262 1.328 . S
C261 H276 0.929 . S
C262 C256 1.448 . S
C262 C261 1.328 . S
C262 H277 0.930 . S
Tb263 N254 2.617 . S
Tb263 N264 2.572 . S
Tb263 O298 2.349 . S
Tb263 O301 2.393 . S
Tb263 O302 2.465 . S
Tb263 O303 2.387 . S
Tb263 O305 2.428 . S
Tb263 O306 2.308 . S
Tb263 C327 2.802 . S
N264 C260 1.361 . S
N264 Tb263 2.572 . S
N264 C266 1.340 . S
C265 C259 1.416 . S
C265 C267 1.332 . S
C265 H273 0.931 . S
C266 N264 1.340 . S
C266 C267 1.407 . S
C266 H272 0.930 . S
C267 C265 1.332 . S
C267 C266 1.407 . S
C267 H269 0.929 . S
H268 C257 0.930 . S
H269 C267 0.929 . S
H270 C285 0.930 . S
H271 C292 0.929 . S
H272 C266 0.930 . S
H273 C265 0.931 . S
H274 C288 0.930 . S
H275 C255 0.930 . S
H276 C261 0.929 . S
H277 C262 0.930 . S
H278 C283 0.930 . S
H279 C258 0.930 . S
H280 C291 0.931 . S
N281 Tb252 2.617 . S
N281 C282 1.379 . S
N281 C285 1.334 . S
C282 N281 1.379 . S
C282 C284 1.416 . S
C282 C290 1.424 . S
C283 H278 0.930 . S
C283 C285 1.390 . S
C283 C286 1.339 . S
C284 C282 1.416 . S
C284 C286 1.416 . S
C284 C317 1.448 . S
C285 H270 0.930 . S
C285 N281 1.334 . S
C285 C283 1.390 . S
C286 C283 1.339 . S
C286 C284 1.416 . S
C286 H293 0.930 . S
N287 Tb252 2.572 . S
N287 C288 1.340 . S
N287 C290 1.361 . S
C288 H274 0.930 . S
C288 N287 1.340 . S
C288 C292 1.407 . S
C289 C290 1.413 . S
C289 C291 1.416 . S
C289 C318 1.427 . S
C290 C282 1.424 . S
C290 N287 1.361 . S
C290 C289 1.413 . S
C291 H280 0.931 . S
C291 C289 1.416 . S
C291 C292 1.332 . S
C292 H271 0.929 . S
C292 C288 1.407 . S
C292 C291 1.332 . S
H293 C286 0.930 . S
H294 C317 0.930 . S
H295 C318 0.929 . S
O296 Tb252 2.465 . S
O296 C316 1.264 . S
O297 Tb252 2.387 . S
O297 C308 1.264 . S
O298 Tb263 2.349 . S
O298 C308 1.243 . S
O299 Tb252 2.428 . S
O299 C316 1.256 . S
O300 Tb252 2.308 . S
O300 C315 1.266 . S
O301 Tb263 2.393 . S
O301 C315 1.248 . S
O302 Tb263 2.465 . S
O302 C327 1.264 . S
O303 Tb263 2.387 . S
O303 C319 1.264 . S
O304 Tb252 2.349 . S
O304 C319 1.243 . S
O305 Tb263 2.428 . S
O305 C327 1.256 . S
O306 Tb263 2.308 . S
O306 C326 1.266 . S
O307 Tb252 2.393 . S
O307 C326 1.248 . S
C308 O297 1.264 . S
C308 O298 1.243 . S
C309 C312 1.399 . S
C309 C314 1.383 . S
C309 C316 1.496 . S
C310 C311 1.399 . S
C310 C314 1.389 . S
C311 C310 1.399 . S
C311 C313 1.380 . S
C311 H328 0.929 . S
C312 C309 1.399 . S
C312 C313 1.392 . S
C312 H329 0.929 . S
C313 C311 1.380 . S
C313 C312 1.392 . S
C313 H330 0.929 . S
C314 C309 1.383 . S
C314 C310 1.389 . S
C314 H331 0.931 . S
C315 O300 1.266 . S
C315 O301 1.248 . S
C316 Tb252 2.802 . S
C316 O296 1.264 . S
C316 O299 1.256 . S
C316 C309 1.496 . S
C317 C284 1.448 . S
C317 H294 0.930 . S
C317 C318 1.328 . S
C318 C289 1.427 . S
C318 H295 0.929 . S
C318 C317 1.328 . S
C319 O303 1.264 . S
C319 O304 1.243 . S
C320 C323 1.399 . S
C320 C324 1.383 . S
C320 C327 1.496 . S
C321 C322 1.399 . S
C321 C324 1.389 . S
C322 C321 1.399 . S
C322 C325 1.380 . S
C322 H332 0.929 . S
C323 C320 1.399 . S
C323 C325 1.392 . S
C323 H333 0.929 . S
C324 C320 1.383 . S
C324 C321 1.389 . S
C324 H334 0.931 . S
C325 C322 1.380 . S
C325 C323 1.392 . S
C325 H335 0.929 . S
C326 O306 1.266 . S
C326 O307 1.248 . S
C327 Tb263 2.802 . S
C327 O302 1.264 . S
C327 O305 1.256 . S
C327 C320 1.496 . S
H328 C311 0.929 . S
H329 C312 0.929 . S
H330 C313 0.929 . S
H331 C314 0.931 . S
H332 C322 0.929 . S
H333 C323 0.929 . S
H334 C324 0.931 . S
H335 C325 0.929 . S
Tb336 N365 2.617 . S
Tb336 N371 2.572 . S
Tb336 O380 2.465 . S
Tb336 O381 2.387 . S
Tb336 O383 2.428 . S
Tb336 O384 2.308 . S
Tb336 O388 2.349 . S
Tb336 O391 2.393 . S
Tb336 C400 2.802 . S
C337 N338 1.379 . S
C337 C340 1.416 . S
C337 C344 1.424 . S
N338 C337 1.379 . S
N338 C341 1.334 . S
N338 Tb347 2.617 . S
C339 C341 1.390 . S
C339 C342 1.339 . S
C339 H359 0.930 . S
C340 C337 1.416 . S
C340 C342 1.416 . S
C340 C346 1.448 . S
C341 N338 1.334 . S
C341 C339 1.390 . S
C341 H352 0.930 . S
C342 C339 1.339 . S
C342 C340 1.416 . S
C342 H363 0.930 . S
C343 C344 1.413 . S
C343 C345 1.427 . S
C343 C349 1.416 . S
C344 C337 1.424 . S
C344 C343 1.413 . S
C344 N348 1.361 . S
C345 C343 1.427 . S
C345 C346 1.328 . S
C345 H360 0.929 . S
C346 C340 1.448 . S
C346 C345 1.328 . S
C346 H361 0.930 . S
Tb347 N338 2.617 . S
Tb347 N348 2.572 . S
Tb347 O382 2.349 1_565 S
Tb347 O385 2.393 . S
Tb347 O386 2.465 1_565 S
Tb347 O387 2.387 . S
Tb347 O389 2.428 1_565 S
Tb347 O390 2.308 . S
Tb347 C411 2.802 1_565 S
N348 C344 1.361 . S
N348 Tb347 2.572 . S
N348 C350 1.340 . S
C349 C343 1.416 . S
C349 C351 1.332 . S
C349 H357 0.931 . S
C350 N348 1.340 . S
C350 C351 1.407 . S
C350 H356 0.930 . S
C351 C349 1.332 . S
C351 C350 1.407 . S
C351 H353 0.929 . S
H352 C341 0.930 . S
H353 C351 0.929 . S
H354 C369 0.930 . S
H355 C376 0.929 . S
H356 C350 0.930 . S
H357 C349 0.931 . S
H358 C372 0.930 . S
H359 C339 0.930 . S
H360 C345 0.929 . S
H361 C346 0.930 . S
H362 C367 0.930 . S
H363 C342 0.930 . S
H364 C375 0.931 . S
N365 Tb336 2.617 . S
N365 C366 1.379 1_556 S
N365 C369 1.334 . S
C366 N365 1.379 1_554 S
C366 C368 1.416 . S
C366 C374 1.424 . S
C367 H362 0.930 . S
C367 C369 1.390 1_554 S
C367 C370 1.339 . S
C368 C366 1.416 . S
C368 C370 1.416 . S
C368 C401 1.448 . S
C369 H354 0.930 . S
C369 N365 1.334 . S
C369 C367 1.390 1_556 S
C370 C367 1.339 . S
C370 C368 1.416 . S
C370 H377 0.930 . S
N371 Tb336 2.572 . S
N371 C372 1.340 . S
N371 C374 1.361 1_556 S
C372 H358 0.930 . S
C372 N371 1.340 . S
C372 C376 1.407 1_556 S
C373 C374 1.413 . S
C373 C375 1.416 . S
C373 C402 1.427 . S
C374 C366 1.424 . S
C374 N371 1.361 1_554 S
C374 C373 1.413 . S
C375 H364 0.931 . S
C375 C373 1.416 . S
C375 C376 1.332 . S
C376 H355 0.929 . S
C376 C372 1.407 1_554 S
C376 C375 1.332 . S
H377 C370 0.930 . S
H378 C401 0.930 . S
H379 C402 0.929 1_545 S
O380 Tb336 2.465 . S
O380 C400 1.264 . S
O381 Tb336 2.387 . S
O381 C392 1.264 1_565 S
O382 Tb347 2.349 1_545 S
O382 C392 1.243 . S
O383 Tb336 2.428 . S
O383 C400 1.256 . S
O384 Tb336 2.308 . S
O384 C399 1.266 . S
O385 Tb347 2.393 . S
O385 C399 1.248 . S
O386 Tb347 2.465 1_545 S
O386 C411 1.264 . S
O387 Tb347 2.387 . S
O387 C403 1.264 . S
O388 Tb336 2.349 . S
O388 C403 1.243 . S
O389 Tb347 2.428 1_545 S
O389 C411 1.256 . S
O390 Tb347 2.308 . S
O390 C410 1.266 . S
O391 Tb336 2.393 . S
O391 C410 1.248 . S
C392 O381 1.264 1_545 S
C392 O382 1.243 . S
C393 C396 1.399 . S
C393 C398 1.383 . S
C393 C400 1.496 . S
C394 C395 1.399 . S
C394 C398 1.389 . S
C395 C394 1.399 . S
C395 C397 1.380 . S
C395 H412 0.929 . S
C396 C393 1.399 . S
C396 C397 1.392 . S
C396 H413 0.929 . S
C397 C395 1.380 . S
C397 C396 1.392 . S
C397 H414 0.929 . S
C398 C393 1.383 . S
C398 C394 1.389 . S
C398 H415 0.931 . S
C399 O384 1.266 . S
C399 O385 1.248 . S
C400 Tb336 2.802 . S
C400 O380 1.264 . S
C400 O383 1.256 . S
C400 C393 1.496 . S
C401 C368 1.448 . S
C401 H378 0.930 . S
C401 C402 1.328 . S
C402 C373 1.427 . S
C402 H379 0.929 1_565 S
C402 C401 1.328 . S
C403 O387 1.264 . S
C403 O388 1.243 . S
C404 C407 1.399 . S
C404 C408 1.383 . S
C404 C411 1.496 . S
C405 C406 1.399 . S
C405 C408 1.389 . S
C406 C405 1.399 . S
C406 C409 1.380 . S
C406 H416 0.929 . S
C407 C404 1.399 . S
C407 C409 1.392 . S
C407 H417 0.929 . S
C408 C404 1.383 . S
C408 C405 1.389 . S
C408 H418 0.931 . S
C409 C406 1.380 . S
C409 C407 1.392 . S
C409 H419 0.929 . S
C410 O390 1.266 . S
C410 O391 1.248 . S
C411 Tb347 2.802 1_545 S
C411 O386 1.264 . S
C411 O389 1.256 . S
C411 C404 1.496 . S
H412 C395 0.929 . S
H413 C396 0.929 . S
H414 C397 0.929 . S
H415 C398 0.931 . S
H416 C406 0.929 . S
H417 C407 0.929 . S
H418 C408 0.931 . S
H419 C409 0.929 . S
Tb420 N449 2.617 . S
Tb420 N455 2.572 . S
Tb420 O464 2.465 . S
Tb420 O465 2.387 . S
Tb420 O467 2.428 . S
Tb420 O468 2.308 . S
Tb420 O472 2.349 . S
Tb420 O475 2.393 . S
Tb420 C484 2.802 . S
C421 N422 1.379 . S
C421 C424 1.416 . S
C421 C428 1.424 . S
N422 C421 1.379 . S
N422 C425 1.334 . S
N422 Tb431 2.617 . S
C423 C425 1.390 . S
C423 C426 1.339 . S
C423 H443 0.930 . S
C424 C421 1.416 . S
C424 C426 1.416 . S
C424 C430 1.448 . S
C425 N422 1.334 . S
C425 C423 1.390 . S
C425 H436 0.930 . S
C426 C423 1.339 . S
C426 C424 1.416 . S
C426 H447 0.930 . S
C427 C428 1.413 . S
C427 C429 1.427 . S
C427 C433 1.416 . S
C428 C421 1.424 . S
C428 C427 1.413 . S
C428 N432 1.361 . S
C429 C427 1.427 . S
C429 C430 1.328 . S
C429 H444 0.929 . S
C430 C424 1.448 . S
C430 C429 1.328 . S
C430 H445 0.930 . S
Tb431 N422 2.617 . S
Tb431 N432 2.572 . S
Tb431 O466 2.349 . S
Tb431 O469 2.393 . S
Tb431 O470 2.465 . S
Tb431 O471 2.387 . S
Tb431 O473 2.428 . S
Tb431 O474 2.308 . S
Tb431 C495 2.802 . S
N432 C428 1.361 . S
N432 Tb431 2.572 . S
N432 C434 1.340 . S
C433 C427 1.416 . S
C433 C435 1.332 . S
C433 H441 0.931 . S
C434 N432 1.340 . S
C434 C435 1.407 . S
C434 H440 0.930 . S
C435 C433 1.332 . S
C435 C434 1.407 . S
C435 H437 0.929 . S
H436 C425 0.930 . S
H437 C435 0.929 . S
H438 C453 0.930 . S
H439 C460 0.929 . S
H440 C434 0.930 . S
H441 C433 0.931 . S
H442 C456 0.930 . S
H443 C423 0.930 . S
H444 C429 0.929 . S
H445 C430 0.930 . S
H446 C451 0.930 . S
H447 C426 0.930 . S
H448 C459 0.931 . S
N449 Tb420 2.617 . S
N449 C450 1.379 . S
N449 C453 1.334 . S
C450 N449 1.379 . S
C450 C452 1.416 . S
C450 C458 1.424 . S
C451 H446 0.930 . S
C451 C453 1.390 . S
C451 C454 1.339 . S
C452 C450 1.416 . S
C452 C454 1.416 . S
C452 C485 1.448 . S
C453 H438 0.930 . S
C453 N449 1.334 . S
C453 C451 1.390 . S
C454 C451 1.339 . S
C454 C452 1.416 . S
C454 H461 0.930 . S
N455 Tb420 2.572 . S
N455 C456 1.340 . S
N455 C458 1.361 . S
C456 H442 0.930 . S
C456 N455 1.340 . S
C456 C460 1.407 . S
C457 C458 1.413 . S
C457 C459 1.416 . S
C457 C486 1.427 . S
C458 C450 1.424 . S
C458 N455 1.361 . S
C458 C457 1.413 . S
C459 H448 0.931 . S
C459 C457 1.416 . S
C459 C460 1.332 . S
C460 H439 0.929 . S
C460 C456 1.407 . S
C460 C459 1.332 . S
H461 C454 0.930 . S
H462 C485 0.930 . S
H463 C486 0.929 . S
O464 Tb420 2.465 . S
O464 C484 1.264 . S
O465 Tb420 2.387 . S
O465 C476 1.264 . S
O466 Tb431 2.349 . S
O466 C476 1.243 . S
O467 Tb420 2.428 . S
O467 C484 1.256 . S
O468 Tb420 2.308 . S
O468 C483 1.266 . S
O469 Tb431 2.393 . S
O469 C483 1.248 . S
O470 Tb431 2.465 . S
O470 C495 1.264 . S
O471 Tb431 2.387 . S
O471 C487 1.264 . S
O472 Tb420 2.349 . S
O472 C487 1.243 . S
O473 Tb431 2.428 . S
O473 C495 1.256 . S
O474 Tb431 2.308 . S
O474 C494 1.266 . S
O475 Tb420 2.393 . S
O475 C494 1.248 . S
C476 O465 1.264 . S
C476 O466 1.243 . S
C477 C480 1.399 . S
C477 C482 1.383 . S
C477 C484 1.496 1_455 S
C478 C479 1.399 . S
C478 C482 1.389 . S
C479 C478 1.399 . S
C479 C481 1.380 . S
C479 H496 0.929 . S
C480 C477 1.399 . S
C480 C481 1.392 . S
C480 H497 0.929 . S
C481 C479 1.380 . S
C481 C480 1.392 . S
C481 H498 0.929 . S
C482 C477 1.383 . S
C482 C478 1.389 . S
C482 H499 0.931 . S
C483 O468 1.266 . S
C483 O469 1.248 . S
C484 Tb420 2.802 . S
C484 O464 1.264 . S
C484 O467 1.256 . S
C484 C477 1.496 1_655 S
C485 C452 1.448 . S
C485 H462 0.930 . S
C485 C486 1.328 . S
C486 C457 1.427 . S
C486 H463 0.929 . S
C486 C485 1.328 . S
C487 O471 1.264 . S
C487 O472 1.243 . S
C488 C491 1.399 . S
C488 C492 1.383 . S
C488 C495 1.496 . S
C489 C490 1.399 . S
C489 C492 1.389 . S
C490 C489 1.399 . S
C490 C493 1.380 . S
C490 H500 0.929 . S
C491 C488 1.399 . S
C491 C493 1.392 . S
C491 H501 0.929 . S
C492 C488 1.383 . S
C492 C489 1.389 . S
C492 H502 0.931 . S
C493 C490 1.380 . S
C493 C491 1.392 . S
C493 H503 0.929 . S
C494 O474 1.266 . S
C494 O475 1.248 . S
C495 Tb431 2.802 . S
C495 O470 1.264 . S
C495 O473 1.256 . S
C495 C488 1.496 . S
H496 C479 0.929 . S
H497 C480 0.929 . S
H498 C481 0.929 . S
H499 C482 0.931 . S
H500 C490 0.929 . S
H501 C491 0.929 . S
H502 C492 0.931 . S
H503 C493 0.929 . S
Tb504 N533 2.617 . S
Tb504 N539 2.572 . S
Tb504 O548 2.465 1_565 S
Tb504 O549 2.387 . S
Tb504 O551 2.428 1_565 S
Tb504 O552 2.308 . S
Tb504 O556 2.349 1_565 S
Tb504 O559 2.393 . S
Tb504 C568 2.802 1_565 S
C505 N506 1.379 1_554 S
C505 C508 1.416 1_565 S
C505 C512 1.424 . S
N506 C505 1.379 1_556 S
N506 C509 1.334 . S
N506 Tb515 2.617 . S
C507 C509 1.390 1_554 S
C507 C510 1.339 1_565 S
C507 H527 0.930 . S
C508 C505 1.416 1_545 S
C508 C510 1.416 . S
C508 C514 1.448 . S
C509 N506 1.334 . S
C509 C507 1.390 1_556 S
C509 H520 0.930 . S
C510 C507 1.339 1_545 S
C510 C508 1.416 . S
C510 H531 0.930 . S
C511 C512 1.413 . S
C511 C513 1.427 1_565 S
C511 C517 1.416 . S
C512 C505 1.424 . S
C512 C511 1.413 . S
C512 N516 1.361 1_554 S
C513 C511 1.427 1_545 S
C513 C514 1.328 . S
C513 H528 0.929 . S
C514 C508 1.448 . S
C514 C513 1.328 . S
C514 H529 0.930 . S
Tb515 N506 2.617 . S
Tb515 N516 2.572 . S
Tb515 O550 2.349 . S
Tb515 O553 2.393 . S
Tb515 O554 2.465 . S
Tb515 O555 2.387 1_565 S
Tb515 O557 2.428 . S
Tb515 O558 2.308 . S
Tb515 C579 2.802 . S
N516 C512 1.361 1_556 S
N516 Tb515 2.572 . S
N516 C518 1.340 . S
C517 C511 1.416 . S
C517 C519 1.332 1_455 S
C517 H525 0.931 1_465 S
C518 N516 1.340 . S
C518 C519 1.407 1_456 S
C518 H524 0.930 1_455 S
C519 C517 1.332 1_655 S
C519 C518 1.407 1_654 S
C519 H521 0.929 . S
H520 C509 0.930 . S
H521 C519 0.929 . S
H522 C537 0.930 . S
H523 C544 0.929 . S
H524 C518 0.930 1_655 S
H525 C517 0.931 1_645 S
H526 C540 0.930 . S
H527 C507 0.930 . S
H528 C513 0.929 . S
H529 C514 0.930 . S
H530 C535 0.930 . S
H531 C510 0.930 . S
H532 C543 0.931 . S
N533 Tb504 2.617 . S
N533 C534 1.379 . S
N533 C537 1.334 1_455 S
C534 N533 1.379 . S
C534 C536 1.416 . S
C534 C542 1.424 . S
C535 H530 0.930 . S
C535 C537 1.390 . S
C535 C538 1.339 . S
C536 C534 1.416 . S
C536 C538 1.416 1_455 S
C536 C569 1.448 . S
C537 H522 0.930 . S
C537 N533 1.334 1_655 S
C537 C535 1.390 . S
C538 C535 1.339 . S
C538 C536 1.416 1_655 S
C538 H545 0.930 . S
N539 Tb504 2.572 . S
N539 C540 1.340 . S
N539 C542 1.361 . S
C540 H526 0.930 . S
C540 N539 1.340 . S
C540 C544 1.407 . S
C541 C542 1.413 . S
C541 C543 1.416 . S
C541 C570 1.427 . S
C542 C534 1.424 . S
C542 N539 1.361 . S
C542 C541 1.413 . S
C543 H532 0.931 . S
C543 C541 1.416 . S
C543 C544 1.332 . S
C544 H523 0.929 . S
C544 C540 1.407 . S
C544 C543 1.332 . S
H545 C538 0.930 . S
H546 C569 0.930 . S
H547 C570 0.929 . S
O548 Tb504 2.465 1_545 S
O548 C568 1.264 . S
O549 Tb504 2.387 . S
O549 C560 1.264 . S
O550 Tb515 2.349 . S
O550 C560 1.243 . S
O551 Tb504 2.428 1_545 S
O551 C568 1.256 . S
O552 Tb504 2.308 . S
O552 C567 1.266 . S
O553 Tb515 2.393 . S
O553 C567 1.248 . S
O554 Tb515 2.465 . S
O554 C579 1.264 . S
O555 Tb515 2.387 1_545 S
O555 C571 1.264 . S
O556 Tb504 2.349 1_545 S
O556 C571 1.243 . S
O557 Tb515 2.428 . S
O557 C579 1.256 . S
O558 Tb515 2.308 . S
O558 C578 1.270 . S
O559 Tb504 2.393 . S
O559 C578 1.248 . S
C560 O549 1.264 . S
C560 O550 1.243 . S
C561 C564 1.399 . S
C561 C566 1.383 . S
C561 C568 1.496 . S
C562 C563 1.399 . S
C562 C566 1.389 . S
C563 C562 1.399 . S
C563 C565 1.380 . S
C563 H580 0.929 . S
C564 C561 1.399 . S
C564 C565 1.392 . S
C564 H581 0.929 . S
C565 C563 1.380 . S
C565 C564 1.392 . S
C565 H582 0.929 . S
C566 C561 1.383 . S
C566 C562 1.389 . S
C566 H583 0.931 . S
C567 O552 1.266 . S
C567 O553 1.248 . S
C568 Tb504 2.802 1_545 S
C568 O548 1.264 . S
C568 O551 1.256 . S
C568 C561 1.496 . S
C569 C536 1.448 . S
C569 H546 0.930 . S
C569 C570 1.328 . S
C570 C541 1.427 . S
C570 H547 0.929 . S
C570 C569 1.328 . S
C571 O555 1.264 . S
C571 O556 1.243 . S
C572 C575 1.399 . S
C572 C576 1.383 . S
C572 C579 1.496 . S
C573 C574 1.399 1_655 S
C573 C576 1.389 1_655 S
C574 C573 1.399 1_455 S
C574 C577 1.380 . S
C574 H584 0.929 . S
C575 C572 1.399 . S
C575 C577 1.392 . S
C575 H585 0.929 . S
C576 C572 1.383 . S
C576 C573 1.389 1_455 S
C576 H586 0.931 1_455 S
C577 C574 1.380 . S
C577 C575 1.392 . S
C577 H587 0.929 . S
C578 O558 1.270 . S
C578 O559 1.248 . S
C579 Tb515 2.802 . S
C579 O554 1.264 . S
C579 O557 1.256 . S
C579 C572 1.496 . S
H580 C563 0.929 . S
H581 C564 0.929 . S
H582 C565 0.929 . S
H583 C566 0.931 . S
H584 C574 0.929 . S
H585 C575 0.929 . S
H586 C576 0.931 1_655 S
H587 C577 0.929 . S
Tb588 N617 2.617 . S
Tb588 N623 2.572 . S
Tb588 O632 2.465 . S
Tb588 O633 2.387 . S
Tb588 O635 2.428 . S
Tb588 O636 2.308 . S
Tb588 O640 2.349 . S
Tb588 O643 2.393 . S
Tb588 C652 2.802 . S
C589 N590 1.379 . S
C589 C592 1.416 . S
C589 C596 1.424 . S
N590 C589 1.379 . S
N590 C593 1.334 . S
N590 Tb599 2.617 1_565 S
C591 C593 1.390 . S
C591 C594 1.339 . S
C591 H611 0.930 . S
C592 C589 1.416 . S
C592 C594 1.416 . S
C592 C598 1.448 . S
C593 N590 1.334 . S
C593 C591 1.390 . S
C593 H604 0.930 1_565 S
C594 C591 1.339 . S
C594 C592 1.416 . S
C594 H615 0.930 . S
C595 C596 1.413 . S
C595 C597 1.427 . S
C595 C601 1.416 . S
C596 C589 1.424 . S
C596 C595 1.413 . S
C596 N600 1.361 . S
C597 C595 1.427 . S
C597 C598 1.328 . S
C597 H612 0.929 . S
C598 C592 1.448 . S
C598 C597 1.328 . S
C598 H613 0.930 . S
Tb599 N590 2.617 1_545 S
Tb599 N600 2.572 1_545 S
Tb599 O634 2.349 . S
Tb599 O637 2.393 . S
Tb599 O638 2.465 . S
Tb599 O639 2.387 1_545 S
Tb599 O641 2.428 . S
Tb599 O642 2.308 . S
Tb599 C663 2.802 . S
N600 C596 1.361 . S
N600 Tb599 2.572 1_565 S
N600 C602 1.340 . S
C601 C595 1.416 . S
C601 C603 1.332 . S
C601 H609 0.931 . S
C602 N600 1.340 . S
C602 C603 1.407 . S
C602 H608 0.930 . S
C603 C601 1.332 . S
C603 C602 1.407 . S
C603 H605 0.929 . S
H604 C593 0.930 1_545 S
H605 C603 0.929 . S
H606 C621 0.930 . S
H607 C628 0.929 . S
H608 C602 0.930 . S
H609 C601 0.931 . S
H610 C624 0.930 . S
H611 C591 0.930 . S
H612 C597 0.929 . S
H613 C598 0.930 . S
H614 C619 0.930 . S
H615 C594 0.930 . S
H616 C627 0.931 . S
N617 Tb588 2.617 . S
N617 C618 1.379 . S
N617 C621 1.334 . S
C618 N617 1.379 . S
C618 C620 1.416 . S
C618 C626 1.424 . S
C619 H614 0.930 . S
C619 C621 1.390 . S
C619 C622 1.339 . S
C620 C618 1.416 . S
C620 C622 1.416 . S
C620 C653 1.448 . S
C621 H606 0.930 . S
C621 N617 1.334 . S
C621 C619 1.390 . S
C622 C619 1.339 . S
C622 C620 1.416 . S
C622 H629 0.930 . S
N623 Tb588 2.572 . S
N623 C624 1.340 . S
N623 C626 1.361 . S
C624 H610 0.930 . S
C624 N623 1.340 . S
C624 C628 1.407 . S
C625 C626 1.413 . S
C625 C627 1.416 . S
C625 C654 1.427 . S
C626 C618 1.424 . S
C626 N623 1.361 . S
C626 C625 1.413 . S
C627 H616 0.931 . S
C627 C625 1.416 . S
C627 C628 1.332 . S
C628 H607 0.929 . S
C628 C624 1.407 . S
C628 C627 1.332 . S
H629 C622 0.930 . S
H630 C653 0.930 . S
H631 C654 0.929 . S
O632 Tb588 2.465 . S
O632 C652 1.264 . S
O633 Tb588 2.387 . S
O633 C644 1.264 . S
O634 Tb599 2.349 . S
O634 C644 1.243 . S
O635 Tb588 2.428 . S
O635 C652 1.256 . S
O636 Tb588 2.308 . S
O636 C651 1.266 . S
O637 Tb599 2.393 . S
O637 C651 1.248 . S
O638 Tb599 2.465 . S
O638 C663 1.264 . S
O639 Tb599 2.387 1_565 S
O639 C655 1.264 . S
O640 Tb588 2.349 . S
O640 C655 1.243 1_545 S
O641 Tb599 2.428 . S
O641 C663 1.256 . S
O642 Tb599 2.308 . S
O642 C662 1.266 . S
O643 Tb588 2.393 . S
O643 C662 1.248 . S
C644 O633 1.264 . S
C644 O634 1.243 . S
C645 C648 1.399 . S
C645 C650 1.383 . S
C645 C652 1.496 . S
C646 C647 1.399 . S
C646 C650 1.389 . S
C647 C646 1.399 . S
C647 C649 1.380 . S
C647 H664 0.929 . S
C648 C645 1.399 . S
C648 C649 1.392 . S
C648 H665 0.929 . S
C649 C647 1.380 . S
C649 C648 1.392 . S
C649 H666 0.929 . S
C650 C645 1.383 . S
C650 C646 1.389 . S
C650 H667 0.931 . S
C651 O636 1.266 . S
C651 O637 1.248 . S
C652 Tb588 2.802 . S
C652 O632 1.264 . S
C652 O635 1.256 . S
C652 C645 1.496 . S
C653 C620 1.448 . S
C653 H630 0.930 . S
C653 C654 1.328 . S
C654 C625 1.427 . S
C654 H631 0.929 . S
C654 C653 1.328 . S
C655 O639 1.264 . S
C655 O640 1.243 1_565 S
C656 C659 1.399 . S
C656 C660 1.383 . S
C656 C663 1.496 . S
C657 C658 1.399 . S
C657 C660 1.389 . S
C658 C657 1.399 . S
C658 C661 1.380 . S
C658 H668 0.929 . S
C659 C656 1.399 . S
C659 C661 1.392 . S
C659 H669 0.929 . S
C660 C656 1.383 . S
C660 C657 1.389 . S
C660 H670 0.931 . S
C661 C658 1.380 . S
C661 C659 1.392 . S
C661 H671 0.929 . S
C662 O642 1.266 . S
C662 O643 1.248 . S
C663 Tb599 2.802 . S
C663 O638 1.264 . S
C663 O641 1.256 . S
C663 C656 1.496 . S
H664 C647 0.929 . S
H665 C648 0.929 . S
H666 C649 0.929 . S
H667 C650 0.931 . S
H668 C658 0.929 . S
H669 C659 0.929 . S
H670 C660 0.931 . S
H671 C661 0.929 . S
H672 C678 0.930 . S
H673 C681 0.930 . S
H674 C682 0.940 . S
H675 C683 0.930 . S
H676 C686 0.930 . S
H677 C687 0.930 . S
C678 H672 0.930 . S
C678 C679 1.355 . S
C678 C680 1.415 . S
C679 C678 1.355 . S
C679 C681 1.419 . S
C680 C678 1.415 . S
C680 C685 1.425 . S
C680 C687 1.409 . S
C681 H673 0.930 . S
C681 C679 1.419 . S
C681 C682 1.362 . S
C682 H674 0.940 . S
C682 C681 1.362 . S
C682 C685 1.409 . S
C683 H675 0.930 . S
C683 C684 1.355 . S
C683 C685 1.415 . S
C684 C683 1.355 . S
C684 C686 1.419 . S
C685 C680 1.425 . S
C685 C682 1.409 . S
C685 C683 1.415 . S
C686 H676 0.930 . S
C686 C684 1.419 . S
C686 C687 1.362 . S
C687 H677 0.930 . S
C687 C680 1.409 . S
C687 C686 1.362 . S
H688 C694 0.930 . S
H689 C697 0.930 . S
H690 C698 0.930 . S
H691 C699 0.930 . S
H692 C702 0.930 . S
H693 C703 0.930 . S
C694 H688 0.930 . S
C694 C695 1.355 . S
C694 C696 1.415 . S
C695 C694 1.355 . S
C695 C697 1.419 . S
C696 C694 1.415 . S
C696 C701 1.425 . S
C696 C703 1.409 . S
C697 H689 0.930 . S
C697 C695 1.419 . S
C697 C698 1.362 . S
C698 H690 0.930 . S
C698 C697 1.362 . S
C698 C701 1.409 . S
C699 H691 0.930 . S
C699 C700 1.355 . S
C699 C701 1.415 . S
C700 C699 1.355 . S
C700 C702 1.419 . S
C701 C696 1.425 . S
C701 C698 1.409 . S
C701 C699 1.415 . S
C702 H692 0.930 . S
C702 C700 1.419 . S
C702 C703 1.362 . S
C703 H693 0.930 . S
C703 C696 1.409 . S
C703 C702 1.362 . S
H704 C710 0.930 . S
H705 C713 0.930 . S
H706 C714 0.930 . S
H707 C715 0.930 . S
H708 C718 0.930 . S
H709 C719 0.930 . S
C710 H704 0.930 . S
C710 C711 1.355 . S
C710 C712 1.415 . S
C711 C710 1.355 . S
C711 C713 1.419 . S
C712 C710 1.415 . S
C712 C717 1.425 . S
C712 C719 1.409 . S
C713 H705 0.930 . S
C713 C711 1.419 . S
C713 C714 1.362 . S
C714 H706 0.930 . S
C714 C713 1.362 . S
C714 C717 1.409 . S
C715 H707 0.930 . S
C715 C716 1.355 . S
C715 C717 1.415 . S
C716 C715 1.355 . S
C716 C718 1.419 . S
C717 C712 1.425 . S
C717 C714 1.409 . S
C717 C715 1.415 . S
C718 H708 0.930 . S
C718 C716 1.419 . S
C718 C719 1.362 . S
C719 H709 0.930 . S
C719 C712 1.409 . S
C719 C718 1.362 . S
H720 C726 0.930 . S
H721 C729 0.930 . S
H722 C730 0.930 . S
H723 C731 0.930 . S
H724 C734 0.930 . S
H725 C735 0.930 . S
C726 H720 0.930 . S
C726 C727 1.355 . S
C726 C728 1.415 . S
C727 C726 1.355 . S
C727 C729 1.419 . S
C728 C726 1.415 . S
C728 C733 1.425 . S
C728 C735 1.409 . S
C729 H721 0.930 . S
C729 C727 1.419 . S
C729 C730 1.362 . S
C730 H722 0.930 . S
C730 C729 1.362 . S
C730 C733 1.409 . S
C731 H723 0.930 . S
C731 C732 1.355 . S
C731 C733 1.415 . S
C732 C731 1.355 . S
C732 C734 1.419 . S
C733 C728 1.425 . S
C733 C730 1.409 . S
C733 C731 1.415 . S
C734 H724 0.930 . S
C734 C732 1.419 . S
C734 C735 1.362 . S
C735 H725 0.930 . S
C735 C728 1.409 . S
C735 C734 1.362 . S
H736 C742 0.930 . S
H737 C745 0.930 . S
H738 C746 0.930 . S
H739 C747 0.930 . S
H740 C750 0.930 . S
H741 C751 0.930 . S
C742 H736 0.930 . S
C742 C743 1.355 . S
C742 C744 1.415 . S
C743 C742 1.355 . S
C743 C745 1.419 . S
C744 C742 1.415 . S
C744 C749 1.425 . S
C744 C751 1.409 . S
C745 H737 0.930 . S
C745 C743 1.419 . S
C745 C746 1.362 . S
C746 H738 0.930 . S
C746 C745 1.362 . S
C746 C749 1.409 . S
C747 H739 0.930 . S
C747 C748 1.355 . S
C747 C749 1.415 . S
C748 C747 1.355 . S
C748 C750 1.419 . S
C749 C744 1.425 . S
C749 C746 1.409 . S
C749 C747 1.415 . S
C750 H740 0.930 . S
C750 C748 1.419 . S
C750 C751 1.362 . S
C751 H741 0.930 . S
C751 C744 1.409 . S
C751 C750 1.362 . S
H752 C758 0.930 . S
H753 C761 0.930 . S
H754 C762 0.930 . S
H755 C763 0.930 . S
H756 C766 0.930 . S
H757 C767 0.930 1_565 S
C758 H752 0.930 . S
C758 C759 1.355 . S
C758 C760 1.415 . S
C759 C758 1.355 . S
C759 C761 1.419 . S
C760 C758 1.415 . S
C760 C765 1.425 . S
C760 C767 1.409 . S
C761 H753 0.930 . S
C761 C759 1.419 . S
C761 C762 1.362 . S
C762 H754 0.930 . S
C762 C761 1.362 . S
C762 C765 1.409 . S
C763 H755 0.930 . S
C763 C764 1.355 . S
C763 C765 1.415 . S
C764 C763 1.355 . S
C764 C766 1.419 . S
C765 C760 1.425 . S
C765 C762 1.409 . S
C765 C763 1.415 . S
C766 H756 0.930 . S
C766 C764 1.419 . S
C766 C767 1.362 . S
C767 H757 0.930 1_545 S
C767 C760 1.409 . S
C767 C766 1.362 . S
H768 C774 0.930 . S
H769 C777 0.930 . S
H770 C778 0.930 . S
H771 C779 0.930 . S
H772 C782 0.930 . S
H773 C783 0.930 . S
C774 H768 0.930 . S
C774 C775 1.355 . S
C774 C776 1.415 . S
C775 C774 1.355 . S
C775 C777 1.419 . S
C776 C774 1.415 . S
C776 C781 1.425 . S
C776 C783 1.409 . S
C777 H769 0.930 . S
C777 C775 1.419 . S
C777 C778 1.362 . S
C778 H770 0.930 . S
C778 C777 1.362 . S
C778 C781 1.409 . S
C779 H771 0.930 . S
C779 C780 1.355 . S
C779 C781 1.415 . S
C780 C779 1.355 . S
C780 C782 1.419 . S
C781 C776 1.425 . S
C781 C778 1.409 . S
C781 C779 1.415 . S
C782 H772 0.930 . S
C782 C780 1.419 . S
C782 C783 1.362 . S
C783 H773 0.930 . S
C783 C776 1.409 . S
C783 C782 1.362 . S
H784 C790 0.930 . S
H785 C793 0.930 . S
H786 C794 0.930 . S
H787 C795 0.930 . S
H788 C798 0.930 . S
H789 C799 0.930 . S
C790 H784 0.930 . S
C790 C791 1.355 . S
C790 C792 1.415 . S
C791 C790 1.355 . S
C791 C793 1.419 . S
C792 C790 1.415 . S
C792 C797 1.425 . S
C792 C799 1.409 . S
C793 H785 0.930 . S
C793 C791 1.419 . S
C793 C794 1.362 . S
C794 H786 0.930 . S
C794 C793 1.362 . S
C794 C797 1.409 . S
C795 H787 0.930 . S
C795 C796 1.355 . S
C795 C797 1.415 . S
C796 C795 1.355 . S
C796 C798 1.419 . S
C797 C792 1.425 . S
C797 C794 1.409 . S
C797 C795 1.415 . S
C798 H788 0.930 . S
C798 C796 1.419 . S
C798 C799 1.362 . S
C799 H789 0.930 . S
C799 C792 1.409 . S
C799 C798 1.362 . S
H800 C806 0.930 . S
H801 C809 0.930 . S
H802 C810 0.930 1_655 S
H803 C811 0.930 1_655 S
H804 C814 0.930 . S
H805 C815 0.930 . S
C806 H800 0.930 . S
C806 C807 1.355 . S
C806 C808 1.400 1_556 S
C807 C806 1.355 . S
C807 C809 1.419 . S
C808 C806 1.400 1_554 S
C808 C813 1.423 1_554 S
C808 C815 1.426 . S
C809 H801 0.930 . S
C809 C807 1.419 . S
C809 C810 1.362 . S
C810 H802 0.930 1_455 S
C810 C809 1.362 . S
C810 C813 1.426 . S
C811 H803 0.930 1_455 S
C811 C812 1.355 . S
C811 C813 1.400 1_554 S
C812 C811 1.355 . S
C812 C814 1.419 . S
C813 C808 1.423 1_556 S
C813 C810 1.426 . S
C813 C811 1.400 1_556 S
C814 H804 0.930 . S
C814 C812 1.419 . S
C814 C815 1.362 . S
C815 H805 0.930 . S
C815 C808 1.426 . S
C815 C814 1.362 . S
H816 C822 0.930 . S
H817 C825 0.930 . S
H818 C826 0.930 . S
H819 C827 0.930 . S
H820 C830 0.930 . S
H821 C831 0.930 . S
C822 H816 0.930 . S
C822 C823 1.355 . S
C822 C824 1.415 . S
C823 C822 1.355 . S
C823 C825 1.419 . S
C824 C822 1.415 . S
C824 C829 1.425 . S
C824 C831 1.409 . S
C825 H817 0.930 . S
C825 C823 1.419 . S
C825 C826 1.362 . S
C826 H818 0.930 . S
C826 C825 1.362 . S
C826 C829 1.409 . S
C827 H819 0.930 . S
C827 C828 1.355 . S
C827 C829 1.415 . S
C828 C827 1.355 . S
C828 C830 1.419 . S
C829 C824 1.425 . S
C829 C826 1.409 . S
C829 C827 1.415 . S
C830 H820 0.930 . S
C830 C828 1.419 . S
C830 C831 1.362 . S
C831 H821 0.930 . S
C831 C824 1.409 . S
C831 C830 1.362 . S
H832 C838 0.930 . S
H833 C841 0.930 . S
H834 C842 0.930 . S
H835 C843 0.930 . S
H836 C846 0.930 . S
H837 C847 0.930 . S
C838 H832 0.930 . S
C838 C839 1.355 . S
C838 C840 1.415 . S
C839 C838 1.355 . S
C839 C841 1.419 . S
C840 C838 1.415 . S
C840 C845 1.425 1_556 S
C840 C847 1.409 . S
C841 H833 0.930 . S
C841 C839 1.419 . S
C841 C842 1.362 1_556 S
C842 H834 0.930 . S
C842 C841 1.362 1_554 S
C842 C845 1.409 . S
C843 H835 0.930 . S
C843 C844 1.355 . S
C843 C845 1.415 . S
C844 C843 1.355 . S
C844 C846 1.419 . S
C845 C840 1.425 1_554 S
C845 C842 1.409 . S
C845 C843 1.415 . S
C846 H836 0.930 . S
C846 C844 1.419 . S
C846 C847 1.362 1_554 S
C847 H837 0.930 . S
C847 C840 1.409 . S
C847 C846 1.362 1_556 S
H848 C854 0.930 . S
H849 C857 0.930 . S
H850 C858 0.930 . S
H851 C859 0.930 . S
H852 C862 0.930 . S
H853 C863 0.930 1_655 S
C854 H848 0.930 . S
C854 C855 1.355 . S
C854 C856 1.415 . S
C855 C854 1.355 . S
C855 C857 1.419 . S
C856 C854 1.415 . S
C856 C861 1.425 . S
C856 C863 1.409 . S
C857 H849 0.930 . S
C857 C855 1.419 . S
C857 C858 1.362 . S
C858 H850 0.930 . S
C858 C857 1.362 . S
C858 C861 1.409 . S
C859 H851 0.930 . S
C859 C860 1.355 . S
C859 C861 1.415 . S
C860 C859 1.355 . S
C860 C862 1.419 1_455 S
C861 C856 1.425 . S
C861 C858 1.409 . S
C861 C859 1.415 . S
C862 H852 0.930 . S
C862 C860 1.419 1_655 S
C862 C863 1.362 1_655 S
C863 H853 0.930 1_455 S
C863 C856 1.409 . S
C863 C862 1.362 1_455 S
H864 C870 0.930 . S
H865 C873 0.930 . S
H866 C874 0.930 1_554 S
H867 C875 0.930 . S
H868 C878 0.930 . S
H869 C879 0.930 1_556 S
C870 H864 0.930 . S
C870 C871 1.355 . S
C870 C872 1.415 . S
C871 C870 1.355 . S
C871 C873 1.419 . S
C872 C870 1.415 . S
C872 C877 1.425 1_556 S
C872 C879 1.409 1_556 S
C873 H865 0.930 . S
C873 C871 1.419 . S
C873 C874 1.362 . S
C874 H866 0.930 1_556 S
C874 C873 1.362 . S
C874 C877 1.409 1_556 S
C875 H867 0.930 . S
C875 C876 1.355 . S
C875 C877 1.415 . S
C876 C875 1.355 . S
C876 C878 1.419 . S
C877 C872 1.425 1_554 S
C877 C874 1.409 1_554 S
C877 C875 1.415 . S
C878 H868 0.930 . S
C878 C876 1.419 . S
C878 C879 1.362 . S
C879 H869 0.930 1_554 S
C879 C872 1.409 1_554 S
C879 C878 1.362 . S
H880 C886 0.930 . S
H881 C889 0.930 . S
H882 C890 0.930 . S
H883 C891 0.930 . S
H884 C894 0.930 . S
H885 C895 0.930 . S
C886 H880 0.930 . S
C886 C887 1.355 . S
C886 C888 1.415 . S
C887 C886 1.355 . S
C887 C889 1.419 . S
C888 C886 1.415 . S
C888 C893 1.425 . S
C888 C895 1.409 . S
C889 H881 0.930 . S
C889 C887 1.419 . S
C889 C890 1.362 . S
C890 H882 0.930 . S
C890 C889 1.362 . S
C890 C893 1.409 . S
C891 H883 0.930 . S
C891 C892 1.355 . S
C891 C893 1.415 . S
C892 C891 1.355 . S
C892 C894 1.419 . S
C893 C888 1.425 . S
C893 C890 1.409 . S
C893 C891 1.415 . S
C894 H884 0.930 . S
C894 C892 1.419 . S
C894 C895 1.362 . S
C895 H885 0.930 . S
C895 C888 1.409 . S
C895 C894 1.362 . S
H896 C902 0.932 . S
H897 C905 0.930 1_655 S
H898 C906 0.930 . S
H899 C907 0.932 . S
H900 C910 0.930 . S
H901 C911 0.930 . S
C902 H896 0.932 . S
C902 C903 1.346 1_554 S
C902 C904 1.422 . S
C903 C902 1.346 1_556 S
C903 C905 1.419 . S
C904 C902 1.422 . S
C904 C909 1.425 1_554 S
C904 C911 1.409 . S
C905 H897 0.930 1_455 S
C905 C903 1.419 . S
C905 C906 1.362 . S
C906 H898 0.930 . S
C906 C905 1.362 . S
C906 C909 1.409 . S
C907 H899 0.932 . S
C907 C908 1.345 1_556 S
C907 C909 1.422 . S
C908 C907 1.345 1_554 S
C908 C910 1.419 . S
C909 C904 1.425 1_556 S
C909 C906 1.409 . S
C909 C907 1.422 . S
C910 H900 0.930 . S
C910 C908 1.419 . S
C910 C911 1.362 . S
C911 H901 0.930 . S
C911 C904 1.409 . S
C911 C910 1.362 . S
H912 C918 0.930 . S
H913 C921 0.930 . S
H914 C922 0.930 . S
H915 C923 0.930 . S
H916 C926 0.930 . S
H917 C927 0.930 . S
C918 H912 0.930 . S
C918 C919 1.355 . S
C918 C920 1.415 . S
C919 C918 1.355 . S
C919 C921 1.419 . S
C920 C918 1.415 . S
C920 C925 1.425 . S
C920 C927 1.409 . S
C921 H913 0.930 . S
C921 C919 1.419 . S
C921 C922 1.362 . S
C922 H914 0.930 . S
C922 C921 1.362 . S
C922 C925 1.409 . S
C923 H915 0.930 . S
C923 C924 1.355 . S
C923 C925 1.415 . S
C924 C923 1.355 . S
C924 C926 1.419 1_455 S
C925 C920 1.425 . S
C925 C922 1.409 . S
C925 C923 1.415 . S
C926 H916 0.930 . S
C926 C924 1.419 1_655 S
C926 C927 1.362 1_655 S
C927 H917 0.930 . S
C927 C920 1.409 . S
C927 C926 1.362 1_455 S
H928 C934 0.930 . S
H929 C937 0.930 . S
H930 C938 0.930 . S
H931 C939 0.930 . S
H932 C942 0.930 . S
H933 C943 0.930 . S
C934 H928 0.930 . S
C934 C935 1.355 . S
C934 C936 1.415 . S
C935 C934 1.355 . S
C935 C937 1.419 . S
C936 C934 1.415 . S
C936 C941 1.425 . S
C936 C943 1.409 . S
C937 H929 0.930 . S
C937 C935 1.419 . S
C937 C938 1.362 . S
C938 H930 0.930 . S
C938 C937 1.362 . S
C938 C941 1.409 . S
C939 H931 0.930 . S
C939 C940 1.355 . S
C939 C941 1.415 . S
C940 C939 1.355 . S
C940 C942 1.419 . S
C941 C936 1.425 . S
C941 C938 1.409 . S
C941 C939 1.415 . S
C942 H932 0.930 . S
C942 C940 1.419 . S
C942 C943 1.362 . S
C943 H933 0.930 . S
C943 C936 1.409 . S
C943 C942 1.362 . S
H944 C950 0.930 . S
H945 C953 0.930 . S
H946 C954 0.930 . S
H947 C955 0.930 . S
H948 C958 0.930 . S
H949 C959 0.930 . S
C950 H944 0.930 . S
C950 C951 1.355 . S
C950 C952 1.415 . S
C951 C950 1.355 . S
C951 C953 1.419 . S
C952 C950 1.415 . S
C952 C957 1.425 . S
C952 C959 1.409 . S
C953 H945 0.930 . S
C953 C951 1.419 . S
C953 C954 1.362 . S
C954 H946 0.930 . S
C954 C953 1.362 . S
C954 C957 1.409 . S
C955 H947 0.930 . S
C955 C956 1.355 . S
C955 C957 1.415 . S
C956 C955 1.355 . S
C956 C958 1.419 . S
C957 C952 1.425 . S
C957 C954 1.409 . S
C957 C955 1.415 . S
C958 H948 0.930 . S
C958 C956 1.419 . S
C958 C959 1.362 . S
C959 H949 0.930 . S
C959 C952 1.409 . S
C959 C958 1.362 . S
H960 C966 0.930 . S
H961 C969 0.930 . S
H962 C970 0.930 . S
H963 C971 0.930 . S
H964 C974 0.930 . S
H965 C975 0.940 . S
C966 H960 0.930 . S
C966 C967 1.355 . S
C966 C968 1.415 . S
C967 C966 1.355 . S
C967 C969 1.419 . S
C968 C966 1.415 . S
C968 C973 1.425 . S
C968 C975 1.396 1_565 S
C969 H961 0.930 . S
C969 C967 1.419 . S
C969 C970 1.362 . S
C970 H962 0.930 . S
C970 C969 1.362 . S
C970 C973 1.409 . S
C971 H963 0.930 . S
C971 C972 1.355 . S
C971 C973 1.415 . S
C972 C971 1.355 . S
C972 C974 1.419 1_565 S
C973 C968 1.425 . S
C973 C970 1.409 . S
C973 C971 1.415 . S
C974 H964 0.930 . S
C974 C972 1.419 1_545 S
C974 C975 1.366 . S
C975 H965 0.940 . S
C975 C968 1.396 1_545 S
C975 C974 1.366 . S
H976 C982 0.930 . S
H977 C985 0.930 . S
H978 C986 0.930 . S
H979 C987 0.930 . S
H980 C990 0.930 . S
H981 C991 0.930 . S
C982 H976 0.930 . S
C982 C983 1.355 . S
C982 C984 1.415 . S
C983 C982 1.355 . S
C983 C985 1.419 . S
C984 C982 1.415 . S
C984 C989 1.425 . S
C984 C991 1.409 . S
C985 H977 0.930 . S
C985 C983 1.419 . S
C985 C986 1.362 . S
C986 H978 0.930 . S
C986 C985 1.362 . S
C986 C989 1.409 . S
C987 H979 0.930 . S
C987 C988 1.355 . S
C987 C989 1.415 . S
C988 C987 1.355 . S
C988 C990 1.419 . S
C989 C984 1.425 . S
C989 C986 1.409 . S
C989 C987 1.415 . S
C990 H980 0.930 . S
C990 C988 1.419 . S
C990 C991 1.362 . S
C991 H981 0.930 . S
C991 C984 1.409 . S
C991 C990 1.362 . S
H992 C998 0.930 . S
H993 C1001 0.930 . S
H994 C1002 0.930 . S
H995 C1003 0.930 . S
H996 C1006 0.930 . S
H997 C1007 0.930 . S
C998 H992 0.930 . S
C998 C999 1.355 . S
C998 C1000 1.415 . S
C999 C998 1.355 . S
C999 C1001 1.419 . S
C1000 C998 1.415 . S
C1000 C1005 1.425 . S
C1000 C1007 1.409 . S
C1001 H993 0.930 . S
C1001 C999 1.419 . S
C1001 C1002 1.362 . S
C1002 H994 0.930 . S
C1002 C1001 1.362 . S
C1002 C1005 1.409 . S
C1003 H995 0.930 . S
C1003 C1004 1.355 . S
C1003 C1005 1.415 . S
C1004 C1003 1.355 . S
C1004 C1006 1.419 . S
C1005 C1000 1.425 . S
C1005 C1002 1.409 . S
C1005 C1003 1.415 . S
C1006 H996 0.930 . S
C1006 C1004 1.419 . S
C1006 C1007 1.362 . S
C1007 H997 0.930 . S
C1007 C1000 1.409 . S
C1007 C1006 1.362 . S
H1008 C1014 0.930 . S
H1009 C1017 0.930 . S
H1010 C1018 0.930 . S
H1011 C1019 0.930 . S
H1012 C1022 0.930 . S
H1013 C1023 0.930 . S
C1014 H1008 0.930 . S
C1014 C1015 1.355 . S
C1014 C1016 1.415 . S
C1015 C1014 1.355 . S
C1015 C1017 1.419 . S
C1016 C1014 1.415 . S
C1016 C1021 1.425 . S
C1016 C1023 1.409 . S
C1017 H1009 0.930 . S
C1017 C1015 1.419 . S
C1017 C1018 1.362 . S
C1018 H1010 0.930 . S
C1018 C1017 1.362 . S
C1018 C1021 1.409 . S
C1019 H1011 0.930 . S
C1019 C1020 1.355 . S
C1019 C1021 1.415 . S
C1020 C1019 1.355 . S
C1020 C1022 1.419 . S
C1021 C1016 1.425 . S
C1021 C1018 1.409 . S
C1021 C1019 1.415 . S
C1022 H1012 0.930 . S
C1022 C1020 1.419 . S
C1022 C1023 1.362 . S
C1023 H1013 0.930 . S
C1023 C1016 1.409 . S
C1023 C1022 1.362 . S
H1024 C1030 0.930 . S
H1025 C1033 0.930 . S
H1026 C1034 0.930 . S
H1027 C1035 0.930 . S
H1028 C1038 0.930 . S
H1029 C1039 0.930 . S
C1030 H1024 0.930 . S
C1030 C1031 1.355 . S
C1030 C1032 1.415 . S
C1031 C1030 1.355 . S
C1031 C1033 1.419 . S
C1032 C1030 1.415 . S
C1032 C1037 1.425 . S
C1032 C1039 1.409 . S
C1033 H1025 0.930 . S
C1033 C1031 1.419 . S
C1033 C1034 1.362 . S
C1034 H1026 0.930 . S
C1034 C1033 1.362 . S
C1034 C1037 1.409 . S
C1035 H1027 0.930 . S
C1035 C1036 1.355 . S
C1035 C1037 1.415 . S
C1036 C1035 1.355 . S
C1036 C1038 1.419 . S
C1037 C1032 1.425 . S
C1037 C1034 1.409 . S
C1037 C1035 1.415 . S
C1038 H1028 0.930 . S
C1038 C1036 1.419 . S
C1038 C1039 1.362 . S
C1039 H1029 0.930 . S
C1039 C1032 1.409 . S
C1039 C1038 1.362 . S
H1040 C1046 0.930 . S
H1041 C1049 0.930 . S
H1042 C1050 0.930 . S
H1043 C1051 0.930 . S
H1044 C1054 0.930 . S
H1045 C1055 0.930 . S
C1046 H1040 0.930 . S
C1046 C1047 1.355 . S
C1046 C1048 1.415 . S
C1047 C1046 1.355 . S
C1047 C1049 1.419 . S
C1048 C1046 1.415 . S
C1048 C1053 1.425 . S
C1048 C1055 1.409 . S
C1049 H1041 0.930 . S
C1049 C1047 1.419 . S
C1049 C1050 1.362 . S
C1050 H1042 0.930 . S
C1050 C1049 1.362 . S
C1050 C1053 1.409 . S
C1051 H1043 0.930 . S
C1051 C1052 1.355 . S
C1051 C1053 1.415 . S
C1052 C1051 1.355 . S
C1052 C1054 1.419 . S
C1053 C1048 1.425 . S
C1053 C1050 1.409 . S
C1053 C1051 1.415 . S
C1054 H1044 0.930 . S
C1054 C1052 1.419 . S
C1054 C1055 1.362 . S
C1055 H1045 0.930 . S
C1055 C1048 1.409 . S
C1055 C1054 1.362 . S
C679 C651 1.405 . S
C684 C69 1.250 . S
C695 C142 0.888 . S
C700 C405 0.736 . S
C711 C476 1.967 . S
C716 C224 1.838 . S
C727 C321 0.584 . S
C732 C560 0.436 . S
C743 C158 1.426 . S
C748 C562 1.315 . S
C759 C226 0.754 . S
C764 C657 0.911 . S
C775 C403 1.837 . S
C780 C319 1.971 . S
C791 C478 0.728 . S
C796 C67 0.501 . S
C807 C571 0.944 . S
C812 C56 0.944 . S
C823 C147 3.154 . S
C828 C662 3.154 . S
C839 C394 1.308 . S
C844 C237 1.308 . S
C855 C308 3.486 . S
C860 C487 3.486 1_455 S
C871 C392 1.967 . S
C876 C235 1.967 . S
C887 C310 0.974 . S
C892 C489 0.974 . S
C903 C573 2.660 1_455 S
C908 C58 2.660 . S
C919 C153 1.203 . S
C924 C646 1.203 1_455 S
C935 C74 2.926 . S
C940 C231 3.098 . S
C951 C151 3.218 1_565 S
C956 C326 3.114 . S
C967 C410 3.083 . S
C972 C567 2.958 . S
C983 C644 3.215 . S
C988 C483 3.108 . S
C999 C63 2.610 . S
C1004 C242 2.656 . S
C1015 C140 2.847 . S
C1020 C315 2.909 . S
C1031 C399 2.650 . S
C1036 C578 2.616 1_655 S
C1047 C494 2.915 . S
C1052 C655 2.874 . S
