# Generated by pormake.
# Topology fcn, (5)-cn, num edge types: 1
# Building blocks:
#     Node 0, Type 0, BuildingBlock: XOMCOT_clean_sbu_0, # of connection points: 5
#     Node 1, Type 0, BuildingBlock: XOMCOT_clean_sbu_0, # of connection points: 5
#     Node 2, Type 0, BuildingBlock: XOMCOT_clean_sbu_0, # of connection points: 5
#     Node 3, Type 0, BuildingBlock: XOMCOT_clean_sbu_0, # of connection points: 5
#     Node 4, Type 0, BuildingBlock: XOMCOT_clean_sbu_0, # of connection points: 5
#     Node 5, Type 0, BuildingBlock: XOMCOT_clean_sbu_0, # of connection points: 5
#     Node 6, Type 0, BuildingBlock: XOMCOT_clean_sbu_0, # of connection points: 5
#     Node 7, Type 0, BuildingBlock: XOMCOT_clean_sbu_0, # of connection points: 5
#     Node 8, Type 0, BuildingBlock: XOMCOT_clean_sbu_0, # of connection points: 5
#     Node 9, Type 0, BuildingBlock: XOMCOT_clean_sbu_0, # of connection points: 5
#     Node 10, Type 0, BuildingBlock: XOMCOT_clean_sbu_0, # of connection points: 5
#     Node 11, Type 0, BuildingBlock: XOMCOT_clean_sbu_0, # of connection points: 5
#     Node 12, Type 0, BuildingBlock: XOMCOT_clean_sbu_0, # of connection points: 5
#     Node 13, Type 0, BuildingBlock: XOMCOT_clean_sbu_0, # of connection points: 5
#     Node 14, Type 0, BuildingBlock: XOMCOT_clean_sbu_0, # of connection points: 5
#     Node 15, Type 0, BuildingBlock: XOMCOT_clean_sbu_0, # of connection points: 5
#     Node 16, Type 0, BuildingBlock: XOMCOT_clean_sbu_0, # of connection points: 5
#     Node 17, Type 0, BuildingBlock: XOMCOT_clean_sbu_0, # of connection points: 5
#     Node 18, Type 0, BuildingBlock: XOMCOT_clean_sbu_0, # of connection points: 5
#     Node 19, Type 0, BuildingBlock: XOMCOT_clean_sbu_0, # of connection points: 5
#     Node 20, Type 0, BuildingBlock: XOMCOT_clean_sbu_0, # of connection points: 5
#     Node 21, Type 0, BuildingBlock: XOMCOT_clean_sbu_0, # of connection points: 5
#     Node 22, Type 0, BuildingBlock: XOMCOT_clean_sbu_0, # of connection points: 5
#     Node 23, Type 0, BuildingBlock: XOMCOT_clean_sbu_0, # of connection points: 5
#     Node 24, Type 0, BuildingBlock: XOMCOT_clean_sbu_0, # of connection points: 5
#     Node 25, Type 0, BuildingBlock: XOMCOT_clean_sbu_0, # of connection points: 5
#     Node 26, Type 0, BuildingBlock: XOMCOT_clean_sbu_0, # of connection points: 5
#     Node 27, Type 0, BuildingBlock: XOMCOT_clean_sbu_0, # of connection points: 5
#     Node 28, Type 0, BuildingBlock: XOMCOT_clean_sbu_0, # of connection points: 5
#     Node 29, Type 0, BuildingBlock: XOMCOT_clean_sbu_0, # of connection points: 5
#     Node 30, Type 0, BuildingBlock: XOMCOT_clean_sbu_0, # of connection points: 5
#     Node 31, Type 0, BuildingBlock: XOMCOT_clean_sbu_0, # of connection points: 5
#     Node 32, Type 0, BuildingBlock: XOMCOT_clean_sbu_0, # of connection points: 5
#     Node 33, Type 0, BuildingBlock: XOMCOT_clean_sbu_0, # of connection points: 5
#     Node 34, Type 0, BuildingBlock: XOMCOT_clean_sbu_0, # of connection points: 5
#     Node 35, Type 0, BuildingBlock: XOMCOT_clean_sbu_0, # of connection points: 5
#     Node 36, Type 0, BuildingBlock: XOMCOT_clean_sbu_0, # of connection points: 5
#     Node 37, Type 0, BuildingBlock: XOMCOT_clean_sbu_0, # of connection points: 5
#     Node 38, Type 0, BuildingBlock: XOMCOT_clean_sbu_0, # of connection points: 5
#     Node 39, Type 0, BuildingBlock: XOMCOT_clean_sbu_0, # of connection points: 5
#     Node 40, Type 0, BuildingBlock: XOMCOT_clean_sbu_0, # of connection points: 5
#     Node 41, Type 0, BuildingBlock: XOMCOT_clean_sbu_0, # of connection points: 5
#     Node 42, Type 0, BuildingBlock: XOMCOT_clean_sbu_0, # of connection points: 5
#     Node 43, Type 0, BuildingBlock: XOMCOT_clean_sbu_0, # of connection points: 5
#     Node 44, Type 0, BuildingBlock: XOMCOT_clean_sbu_0, # of connection points: 5
#     Node 45, Type 0, BuildingBlock: XOMCOT_clean_sbu_0, # of connection points: 5
#     Node 46, Type 0, BuildingBlock: XOMCOT_clean_sbu_0, # of connection points: 5
#     Node 47, Type 0, BuildingBlock: XOMCOT_clean_sbu_0, # of connection points: 5
#     Edge 48, Type (0, 0), BuildingBlock: KIFKEQ_clean_linker_1, # of connection points: 2
#     Edge 49, Type (0, 0), BuildingBlock: KIFKEQ_clean_linker_1, # of connection points: 2
#     Edge 50, Type (0, 0), BuildingBlock: KIFKEQ_clean_linker_1, # of connection points: 2
#     Edge 51, Type (0, 0), BuildingBlock: KIFKEQ_clean_linker_1, # of connection points: 2
#     Edge 52, Type (0, 0), BuildingBlock: KIFKEQ_clean_linker_1, # of connection points: 2
#     Edge 53, Type (0, 0), BuildingBlock: KIFKEQ_clean_linker_1, # of connection points: 2
#     Edge 54, Type (0, 0), BuildingBlock: KIFKEQ_clean_linker_1, # of connection points: 2
#     Edge 55, Type (0, 0), BuildingBlock: KIFKEQ_clean_linker_1, # of connection points: 2
#     Edge 56, Type (0, 0), BuildingBlock: KIFKEQ_clean_linker_1, # of connection points: 2
#     Edge 57, Type (0, 0), BuildingBlock: KIFKEQ_clean_linker_1, # of connection points: 2
#     Edge 58, Type (0, 0), BuildingBlock: KIFKEQ_clean_linker_1, # of connection points: 2
#     Edge 59, Type (0, 0), BuildingBlock: KIFKEQ_clean_linker_1, # of connection points: 2
#     Edge 60, Type (0, 0), BuildingBlock: KIFKEQ_clean_linker_1, # of connection points: 2
#     Edge 61, Type (0, 0), BuildingBlock: KIFKEQ_clean_linker_1, # of connection points: 2
#     Edge 62, Type (0, 0), BuildingBlock: KIFKEQ_clean_linker_1, # of connection points: 2
#     Edge 63, Type (0, 0), BuildingBlock: KIFKEQ_clean_linker_1, # of connection points: 2
#     Edge 64, Type (0, 0), BuildingBlock: KIFKEQ_clean_linker_1, # of connection points: 2
#     Edge 65, Type (0, 0), BuildingBlock: KIFKEQ_clean_linker_1, # of connection points: 2
#     Edge 66, Type (0, 0), BuildingBlock: KIFKEQ_clean_linker_1, # of connection points: 2
#     Edge 67, Type (0, 0), BuildingBlock: KIFKEQ_clean_linker_1, # of connection points: 2
#     Edge 68, Type (0, 0), BuildingBlock: KIFKEQ_clean_linker_1, # of connection points: 2
#     Edge 69, Type (0, 0), BuildingBlock: KIFKEQ_clean_linker_1, # of connection points: 2
#     Edge 70, Type (0, 0), BuildingBlock: KIFKEQ_clean_linker_1, # of connection points: 2
#     Edge 71, Type (0, 0), BuildingBlock: KIFKEQ_clean_linker_1, # of connection points: 2
#     Edge 72, Type (0, 0), BuildingBlock: KIFKEQ_clean_linker_1, # of connection points: 2
#     Edge 73, Type (0, 0), BuildingBlock: KIFKEQ_clean_linker_1, # of connection points: 2
#     Edge 74, Type (0, 0), BuildingBlock: KIFKEQ_clean_linker_1, # of connection points: 2
#     Edge 75, Type (0, 0), BuildingBlock: KIFKEQ_clean_linker_1, # of connection points: 2
#     Edge 76, Type (0, 0), BuildingBlock: KIFKEQ_clean_linker_1, # of connection points: 2
#     Edge 77, Type (0, 0), BuildingBlock: KIFKEQ_clean_linker_1, # of connection points: 2
#     Edge 78, Type (0, 0), BuildingBlock: KIFKEQ_clean_linker_1, # of connection points: 2
#     Edge 79, Type (0, 0), BuildingBlock: KIFKEQ_clean_linker_1, # of connection points: 2
#     Edge 80, Type (0, 0), BuildingBlock: KIFKEQ_clean_linker_1, # of connection points: 2
#     Edge 81, Type (0, 0), BuildingBlock: KIFKEQ_clean_linker_1, # of connection points: 2
#     Edge 82, Type (0, 0), BuildingBlock: KIFKEQ_clean_linker_1, # of connection points: 2
#     Edge 83, Type (0, 0), BuildingBlock: KIFKEQ_clean_linker_1, # of connection points: 2
#     Edge 84, Type (0, 0), BuildingBlock: KIFKEQ_clean_linker_1, # of connection points: 2
#     Edge 85, Type (0, 0), BuildingBlock: KIFKEQ_clean_linker_1, # of connection points: 2
#     Edge 86, Type (0, 0), BuildingBlock: KIFKEQ_clean_linker_1, # of connection points: 2
#     Edge 87, Type (0, 0), BuildingBlock: KIFKEQ_clean_linker_1, # of connection points: 2
#     Edge 88, Type (0, 0), BuildingBlock: KIFKEQ_clean_linker_1, # of connection points: 2
#     Edge 89, Type (0, 0), BuildingBlock: KIFKEQ_clean_linker_1, # of connection points: 2
#     Edge 90, Type (0, 0), BuildingBlock: KIFKEQ_clean_linker_1, # of connection points: 2
#     Edge 91, Type (0, 0), BuildingBlock: KIFKEQ_clean_linker_1, # of connection points: 2
#     Edge 92, Type (0, 0), BuildingBlock: KIFKEQ_clean_linker_1, # of connection points: 2
#     Edge 93, Type (0, 0), BuildingBlock: KIFKEQ_clean_linker_1, # of connection points: 2
#     Edge 94, Type (0, 0), BuildingBlock: KIFKEQ_clean_linker_1, # of connection points: 2
#     Edge 95, Type (0, 0), BuildingBlock: KIFKEQ_clean_linker_1, # of connection points: 2
#     Edge 96, Type (0, 0), BuildingBlock: KIFKEQ_clean_linker_1, # of connection points: 2
#     Edge 97, Type (0, 0), BuildingBlock: KIFKEQ_clean_linker_1, # of connection points: 2
#     Edge 98, Type (0, 0), BuildingBlock: KIFKEQ_clean_linker_1, # of connection points: 2
#     Edge 99, Type (0, 0), BuildingBlock: KIFKEQ_clean_linker_1, # of connection points: 2
#     Edge 100, Type (0, 0), BuildingBlock: KIFKEQ_clean_linker_1, # of connection points: 2
#     Edge 101, Type (0, 0), BuildingBlock: KIFKEQ_clean_linker_1, # of connection points: 2
#     Edge 102, Type (0, 0), BuildingBlock: KIFKEQ_clean_linker_1, # of connection points: 2
#     Edge 103, Type (0, 0), BuildingBlock: KIFKEQ_clean_linker_1, # of connection points: 2
#     Edge 104, Type (0, 0), BuildingBlock: KIFKEQ_clean_linker_1, # of connection points: 2
#     Edge 105, Type (0, 0), BuildingBlock: KIFKEQ_clean_linker_1, # of connection points: 2
#     Edge 106, Type (0, 0), BuildingBlock: KIFKEQ_clean_linker_1, # of connection points: 2
#     Edge 107, Type (0, 0), BuildingBlock: KIFKEQ_clean_linker_1, # of connection points: 2
#     Edge 108, Type (0, 0), BuildingBlock: KIFKEQ_clean_linker_1, # of connection points: 2
#     Edge 109, Type (0, 0), BuildingBlock: KIFKEQ_clean_linker_1, # of connection points: 2
#     Edge 110, Type (0, 0), BuildingBlock: KIFKEQ_clean_linker_1, # of connection points: 2
#     Edge 111, Type (0, 0), BuildingBlock: KIFKEQ_clean_linker_1, # of connection points: 2
#     Edge 112, Type (0, 0), BuildingBlock: KIFKEQ_clean_linker_1, # of connection points: 2
#     Edge 113, Type (0, 0), BuildingBlock: KIFKEQ_clean_linker_1, # of connection points: 2
#     Edge 114, Type (0, 0), BuildingBlock: KIFKEQ_clean_linker_1, # of connection points: 2
#     Edge 115, Type (0, 0), BuildingBlock: KIFKEQ_clean_linker_1, # of connection points: 2
#     Edge 116, Type (0, 0), BuildingBlock: KIFKEQ_clean_linker_1, # of connection points: 2
#     Edge 117, Type (0, 0), BuildingBlock: KIFKEQ_clean_linker_1, # of connection points: 2
#     Edge 118, Type (0, 0), BuildingBlock: KIFKEQ_clean_linker_1, # of connection points: 2
#     Edge 119, Type (0, 0), BuildingBlock: KIFKEQ_clean_linker_1, # of connection points: 2
#     Edge 120, Type (0, 0), BuildingBlock: KIFKEQ_clean_linker_1, # of connection points: 2
#     Edge 121, Type (0, 0), BuildingBlock: KIFKEQ_clean_linker_1, # of connection points: 2
#     Edge 122, Type (0, 0), BuildingBlock: KIFKEQ_clean_linker_1, # of connection points: 2
#     Edge 123, Type (0, 0), BuildingBlock: KIFKEQ_clean_linker_1, # of connection points: 2
#     Edge 124, Type (0, 0), BuildingBlock: KIFKEQ_clean_linker_1, # of connection points: 2
#     Edge 125, Type (0, 0), BuildingBlock: KIFKEQ_clean_linker_1, # of connection points: 2
#     Edge 126, Type (0, 0), BuildingBlock: KIFKEQ_clean_linker_1, # of connection points: 2
#     Edge 127, Type (0, 0), BuildingBlock: KIFKEQ_clean_linker_1, # of connection points: 2
#     Edge 128, Type (0, 0), BuildingBlock: KIFKEQ_clean_linker_1, # of connection points: 2
#     Edge 129, Type (0, 0), BuildingBlock: KIFKEQ_clean_linker_1, # of connection points: 2
#     Edge 130, Type (0, 0), BuildingBlock: KIFKEQ_clean_linker_1, # of connection points: 2
#     Edge 131, Type (0, 0), BuildingBlock: KIFKEQ_clean_linker_1, # of connection points: 2
#     Edge 132, Type (0, 0), BuildingBlock: KIFKEQ_clean_linker_1, # of connection points: 2
#     Edge 133, Type (0, 0), BuildingBlock: KIFKEQ_clean_linker_1, # of connection points: 2
#     Edge 134, Type (0, 0), BuildingBlock: KIFKEQ_clean_linker_1, # of connection points: 2
#     Edge 135, Type (0, 0), BuildingBlock: KIFKEQ_clean_linker_1, # of connection points: 2
#     Edge 136, Type (0, 0), BuildingBlock: KIFKEQ_clean_linker_1, # of connection points: 2
#     Edge 137, Type (0, 0), BuildingBlock: KIFKEQ_clean_linker_1, # of connection points: 2
#     Edge 138, Type (0, 0), BuildingBlock: KIFKEQ_clean_linker_1, # of connection points: 2
#     Edge 139, Type (0, 0), BuildingBlock: KIFKEQ_clean_linker_1, # of connection points: 2
#     Edge 140, Type (0, 0), BuildingBlock: KIFKEQ_clean_linker_1, # of connection points: 2
#     Edge 141, Type (0, 0), BuildingBlock: KIFKEQ_clean_linker_1, # of connection points: 2
#     Edge 142, Type (0, 0), BuildingBlock: KIFKEQ_clean_linker_1, # of connection points: 2
#     Edge 143, Type (0, 0), BuildingBlock: KIFKEQ_clean_linker_1, # of connection points: 2
#     Edge 144, Type (0, 0), BuildingBlock: KIFKEQ_clean_linker_1, # of connection points: 2
#     Edge 145, Type (0, 0), BuildingBlock: KIFKEQ_clean_linker_1, # of connection points: 2
#     Edge 146, Type (0, 0), BuildingBlock: KIFKEQ_clean_linker_1, # of connection points: 2
#     Edge 147, Type (0, 0), BuildingBlock: KIFKEQ_clean_linker_1, # of connection points: 2
#     Edge 148, Type (0, 0), BuildingBlock: KIFKEQ_clean_linker_1, # of connection points: 2
#     Edge 149, Type (0, 0), BuildingBlock: KIFKEQ_clean_linker_1, # of connection points: 2
#     Edge 150, Type (0, 0), BuildingBlock: KIFKEQ_clean_linker_1, # of connection points: 2
#     Edge 151, Type (0, 0), BuildingBlock: KIFKEQ_clean_linker_1, # of connection points: 2
#     Edge 152, Type (0, 0), BuildingBlock: KIFKEQ_clean_linker_1, # of connection points: 2
#     Edge 153, Type (0, 0), BuildingBlock: KIFKEQ_clean_linker_1, # of connection points: 2
#     Edge 154, Type (0, 0), BuildingBlock: KIFKEQ_clean_linker_1, # of connection points: 2
#     Edge 155, Type (0, 0), BuildingBlock: KIFKEQ_clean_linker_1, # of connection points: 2
#     Edge 156, Type (0, 0), BuildingBlock: KIFKEQ_clean_linker_1, # of connection points: 2
#     Edge 157, Type (0, 0), BuildingBlock: KIFKEQ_clean_linker_1, # of connection points: 2
#     Edge 158, Type (0, 0), BuildingBlock: KIFKEQ_clean_linker_1, # of connection points: 2
#     Edge 159, Type (0, 0), BuildingBlock: KIFKEQ_clean_linker_1, # of connection points: 2
#     Edge 160, Type (0, 0), BuildingBlock: KIFKEQ_clean_linker_1, # of connection points: 2
#     Edge 161, Type (0, 0), BuildingBlock: KIFKEQ_clean_linker_1, # of connection points: 2
#     Edge 162, Type (0, 0), BuildingBlock: KIFKEQ_clean_linker_1, # of connection points: 2
#     Edge 163, Type (0, 0), BuildingBlock: KIFKEQ_clean_linker_1, # of connection points: 2
#     Edge 164, Type (0, 0), BuildingBlock: KIFKEQ_clean_linker_1, # of connection points: 2
#     Edge 165, Type (0, 0), BuildingBlock: KIFKEQ_clean_linker_1, # of connection points: 2
#     Edge 166, Type (0, 0), BuildingBlock: KIFKEQ_clean_linker_1, # of connection points: 2
#     Edge 167, Type (0, 0), BuildingBlock: KIFKEQ_clean_linker_1, # of connection points: 2
# Relax obj value: 0.233
# Max RMSD: 0.210
# Mean RMSD: 0.210
data_MOF--net-fcn--node1-XOMCOT_clean_sbu_0--edge1-KIFKEQ_clean_linker_1
_symmetry_space_group_name_H-M    P1
_symmetry_Int_Tables_number       1
_symmetry_cell_setting            triclinic
loop_
_symmetry_equiv_pos_as_xyz
'x, y, z'
_cell_length_a     76.096104
_cell_length_b     76.089731
_cell_length_c     76.105148
_cell_angle_alpha  89.977911
_cell_angle_beta   89.986785
_cell_angle_gamma 90.021534
loop_
_atom_site_label
_atom_site_type_symbol
_atom_site_fract_x
_atom_site_fract_y
_atom_site_fract_z
_atom_type_partial_charge
Co0 Co 0.09177 0.18027 0.26063 0.0
C1 C 0.12374 0.16127 0.25046 0.0
C2 C 0.10169 0.15364 0.23454 0.0
C3 C 0.11629 0.14456 0.22893 0.0
N4 N 0.10641 0.16396 0.2481 0.0
N5 N 0.13011 0.14943 0.23893 0.0
H6 H 0.13148 0.16786 0.2604 0.0
H7 H 0.08866 0.15301 0.22892 0.0
C8 C 0.05708 0.16064 0.26531 0.0
O9 O 0.05318 0.16876 0.28002 0.0
N10 N 0.07702 0.1969 0.27294 0.0
C11 C 0.07955 0.20482 0.28861 0.0
C12 C 0.06546 0.21557 0.29205 0.0
C13 C 0.06171 0.20342 0.26684 0.0
N14 N 0.05427 0.2146 0.27838 0.0
C15 C 0.11124 0.17695 0.29283 0.0
C16 C 0.09834 0.14436 0.30222 0.0
C17 C 0.10994 0.15294 0.31363 0.0
C18 C 0.11672 0.16931 0.30861 0.0
C19 C 0.09329 0.15242 0.28658 0.0
N20 N 0.09893 0.16898 0.28248 0.0
H21 H 0.11675 0.18948 0.28906 0.0
H22 H 0.08529 0.14493 0.27766 0.0
H23 H 0.09071 0.20321 0.29711 0.0
H24 H 0.05583 0.19949 0.2545 0.0
O25 O 0.11011 0.19785 0.25831 0.0
O26 O 0.08841 0.19339 0.23935 0.0
O27 O 0.0714 0.16378 0.25715 0.0
C28 C 0.10265 0.20185 0.24343 0.0
H29 H 0.11679 0.13544 0.21803 0.0
H30 H 0.06361 0.22353 0.30369 0.0
H31 H 0.09354 0.13127 0.30511 0.0
H32 H 0.12605 0.17622 0.31684 0.0
Co33 Co 0.06265 0.84252 0.51422 0.0
C34 C 0.08351 0.87406 0.50408 0.0
C35 C 0.08873 0.85188 0.48758 0.0
C36 C 0.09682 0.86637 0.48039 0.0
N37 N 0.08055 0.85659 0.5026 0.0
N38 N 0.0935 0.88024 0.49083 0.0
H39 H 0.07716 0.88255 0.51344 0.0
H40 H 0.08779 0.83907 0.48151 0.0
C41 C 0.09384 0.81895 0.51241 0.0
O42 O 0.10322 0.83167 0.51934 0.0
N43 N 0.04459 0.82862 0.5251 0.0
C44 C 0.03498 0.8329 0.53929 0.0
C45 C 0.02326 0.81951 0.5425 0.0
C46 C 0.03857 0.81291 0.51971 0.0
N47 N 0.02547 0.80693 0.53014 0.0
C48 C 0.07281 0.86306 0.54451 0.0
C49 C 0.08667 0.8353 0.56339 0.0
C50 C 0.08871 0.85239 0.56985 0.0
C51 C 0.08101 0.86632 0.56062 0.0
C52 C 0.07816 0.83265 0.54739 0.0
N53 N 0.07275 0.84658 0.53742 0.0
H54 H 0.06636 0.87376 0.5379 0.0
H55 H 0.07621 0.81934 0.5429 0.0
H56 H 0.03641 0.84489 0.54678 0.0
H57 H 0.04352 0.80622 0.50819 0.0
O58 O 0.04668 0.86232 0.51271 0.0
O59 O 0.05011 0.84157 0.49245 0.0
O60 O 0.07728 0.82076 0.51023 0.0
C61 C 0.04259 0.8561 0.49727 0.0
H62 H 0.10389 0.86686 0.46806 0.0
H63 H 0.01398 0.81908 0.55326 0.0
H64 H 0.09175 0.82411 0.57057 0.0
H65 H 0.08174 0.87966 0.56552 0.0
Co66 Co 0.40453 0.81706 0.7604 0.0
C67 C 0.37406 0.83802 0.7498 0.0
C68 C 0.39442 0.83881 0.73024 0.0
C69 C 0.37972 0.84707 0.72363 0.0
N70 N 0.39076 0.83312 0.74659 0.0
N71 N 0.36702 0.84653 0.73598 0.0
H72 H 0.36685 0.83437 0.76151 0.0
H73 H 0.40655 0.83626 0.72328 0.0
C74 C 0.43988 0.8352 0.76315 0.0
O75 O 0.44208 0.82982 0.7794 0.0
N76 N 0.41832 0.80045 0.77392 0.0
C77 C 0.41346 0.79083 0.78802 0.0
C78 C 0.42677 0.77935 0.79217 0.0
C79 C 0.43422 0.79412 0.76931 0.0
N80 N 0.43984 0.78151 0.78043 0.0
C81 C 0.38871 0.82511 0.79392 0.0
C82 C 0.40183 0.85886 0.79625 0.0
C83 C 0.39215 0.85212 0.81039 0.0
C84 C 0.38519 0.83511 0.80892 0.0
C85 C 0.40508 0.8484 0.78162 0.0
N86 N 0.39951 0.83134 0.78103 0.0
H87 H 0.38235 0.81254 0.7925 0.0
H88 H 0.41165 0.85434 0.77056 0.0
H89 H 0.40094 0.7913 0.79454 0.0
H90 H 0.44134 0.79838 0.75776 0.0
O91 O 0.38457 0.8012 0.76074 0.0
O92 O 0.40582 0.80145 0.74073 0.0
O93 O 0.42606 0.83123 0.75451 0.0
C94 C 0.39096 0.79499 0.7461 0.0
H95 H 0.37827 0.85256 0.71058 0.0
H96 H 0.42677 0.77007 0.80295 0.0
H97 H 0.40651 0.87231 0.79626 0.0
H98 H 0.3771 0.82954 0.81922 0.0
Co99 Co 0.43099 0.15735 0.01063 0.0
C100 C 0.41267 0.12509 0.00081 0.0
C101 C 0.40501 0.14643 0.984 0.0
C102 C 0.39606 0.13151 0.97891 0.0
N103 N 0.41527 0.14232 0.99779 0.0
N104 N 0.40095 0.11813 0.98951 0.0
H105 H 0.4191 0.11785 0.01122 0.0
H106 H 0.40419 0.15928 0.97798 0.0
C107 C 0.41117 0.19168 0.01489 0.0
O108 O 0.41708 0.1939 0.03096 0.0
N109 N 0.44704 0.17237 0.02344 0.0
C110 C 0.45437 0.17002 0.03942 0.0
C111 C 0.46465 0.18435 0.04329 0.0
C112 C 0.45341 0.18786 0.01763 0.0
N113 N 0.46399 0.19551 0.02959 0.0
C114 C 0.42664 0.13811 0.04285 0.0
C115 C 0.39326 0.15017 0.05038 0.0
C116 C 0.40143 0.13866 0.06217 0.0
C117 C 0.41822 0.13232 0.05811 0.0
C118 C 0.40208 0.15548 0.03525 0.0
N119 N 0.41896 0.15026 0.03209 0.0
H120 H 0.43943 0.13283 0.0397 0.0
H121 H 0.39493 0.16329 0.02588 0.0
H122 H 0.45267 0.15882 0.04787 0.0
H123 H 0.4499 0.19366 0.00512 0.0
O124 O 0.44889 0.13915 0.00895 0.0
O125 O 0.44472 0.16081 0.98987 0.0
O126 O 0.41482 0.17776 0.00627 0.0
C127 C 0.45325 0.14672 0.9942 0.0
H128 H 0.38689 0.13053 0.96808 0.0
H129 H 0.47216 0.18635 0.05521 0.0
H130 H 0.37991 0.15463 0.05255 0.0
H131 H 0.42481 0.12305 0.06665 0.0
Co132 Co 0.09521 0.81589 0.23572 0.0
C133 C 0.12627 0.83804 0.24377 0.0
C134 C 0.10484 0.84294 0.26134 0.0
C135 C 0.11939 0.85182 0.26743 0.0
N136 N 0.1091 0.83443 0.24637 0.0
N137 N 0.13276 0.84871 0.25628 0.0
H138 H 0.13447 0.83177 0.23413 0.0
H139 H 0.09234 0.84183 0.26802 0.0
C140 C 0.07191 0.84737 0.23585 0.0
O141 O 0.08527 0.85641 0.22963 0.0
N142 N 0.08162 0.79726 0.22567 0.0
C143 C 0.08673 0.78589 0.21314 0.0
C144 C 0.0731 0.77442 0.20995 0.0
C145 C 0.06517 0.79264 0.23006 0.0
N146 N 0.05958 0.77874 0.2206 0.0
C147 C 0.11624 0.82349 0.20487 0.0
C148 C 0.08914 0.83814 0.18569 0.0
C149 C 0.10633 0.83963 0.17937 0.0
C150 C 0.11991 0.83138 0.18866 0.0
C151 C 0.08611 0.83001 0.2018 0.0
N152 N 0.0998 0.82444 0.21199 0.0
H153 H 0.12663 0.81668 0.21166 0.0
H154 H 0.07271 0.82858 0.2062 0.0
H155 H 0.09944 0.78597 0.20678 0.0
H156 H 0.0576 0.79916 0.24018 0.0
O157 O 0.11493 0.79998 0.23896 0.0
O158 O 0.09354 0.80482 0.25825 0.0
O159 O 0.07335 0.8308 0.23816 0.0
C160 C 0.10811 0.79687 0.25438 0.0
H161 H 0.12031 0.8593 0.27949 0.0
H162 H 0.07308 0.7639 0.20039 0.0
H163 H 0.07816 0.84353 0.1784 0.0
H164 H 0.13329 0.83159 0.1838 0.0
Co165 Co 0.43557 0.84302 0.48378 0.0
C166 C 0.41494 0.8747 0.4933 0.0
C167 C 0.40523 0.85179 0.50638 0.0
C168 C 0.39562 0.86608 0.51194 0.0
N169 N 0.41692 0.85709 0.49413 0.0
N170 N 0.4018 0.88046 0.50365 0.0
H171 H 0.42344 0.88335 0.48607 0.0
H172 H 0.40416 0.83857 0.51148 0.0
C173 C 0.40369 0.82035 0.48044 0.0
O174 O 0.39553 0.83384 0.47338 0.0
N175 N 0.45428 0.82922 0.47414 0.0
C176 C 0.46662 0.83456 0.46265 0.0
C177 C 0.47777 0.82068 0.45943 0.0
C178 C 0.45797 0.81237 0.47784 0.0
N179 N 0.47225 0.80678 0.46898 0.0
C180 C 0.42732 0.86554 0.45403 0.0
C181 C 0.41526 0.83857 0.433 0.0
C182 C 0.41107 0.85592 0.42844 0.0
C183 C 0.41826 0.86957 0.43857 0.0
C184 C 0.42409 0.83524 0.44867 0.0
N185 N 0.42819 0.84864 0.45989 0.0
H186 H 0.43329 0.87602 0.46136 0.0
H187 H 0.42665 0.82175 0.4523 0.0
H188 H 0.46742 0.8476 0.45704 0.0
H189 H 0.45056 0.8045 0.48709 0.0
O190 O 0.45198 0.86205 0.48852 0.0
O191 O 0.44538 0.84013 0.50669 0.0
O192 O 0.41994 0.82157 0.48451 0.0
C193 C 0.45411 0.85449 0.50378 0.0
H194 H 0.38542 0.86598 0.52184 0.0
H195 H 0.48893 0.82077 0.45061 0.0
H196 H 0.41102 0.8276 0.42499 0.0
H197 H 0.41618 0.88323 0.43517 0.0
Co198 Co 0.40749 0.17442 0.73708 0.0
C199 C 0.37845 0.15499 0.75449 0.0
C200 C 0.39864 0.13776 0.74512 0.0
C201 C 0.38468 0.12773 0.75061 0.0
N202 N 0.39483 0.1549 0.74759 0.0
N203 N 0.37194 0.13859 0.75633 0.0
H204 H 0.37076 0.16673 0.75666 0.0
H205 H 0.41005 0.1328 0.73832 0.0
C206 C 0.44518 0.16073 0.73219 0.0
O207 O 0.45028 0.17418 0.72269 0.0
N208 N 0.41954 0.19402 0.72628 0.0
C209 C 0.41547 0.20171 0.71085 0.0
C210 C 0.42669 0.21557 0.70811 0.0
C211 C 0.43261 0.20385 0.73311 0.0
N212 N 0.43758 0.21684 0.72205 0.0
C213 C 0.38201 0.16536 0.71133 0.0
C214 C 0.40519 0.15157 0.68698 0.0
C215 C 0.38709 0.14944 0.68435 0.0
C216 C 0.37543 0.15695 0.69645 0.0
C217 C 0.41122 0.16 0.70208 0.0
N218 N 0.39966 0.16615 0.71433 0.0
H219 H 0.3729 0.17054 0.72089 0.0
H220 H 0.42515 0.16119 0.70399 0.0
H221 H 0.40508 0.19758 0.70209 0.0
H222 H 0.43863 0.20117 0.7457 0.0
O223 O 0.38851 0.19046 0.74302 0.0
O224 O 0.41156 0.18432 0.75981 0.0
O225 O 0.42914 0.15897 0.7369 0.0
C226 C 0.39695 0.19287 0.75775 0.0
H227 H 0.38364 0.11358 0.74958 0.0
H228 H 0.4271 0.22368 0.69644 0.0
H229 H 0.41466 0.14599 0.67794 0.0
H230 H 0.36134 0.15585 0.69473 0.0
Co231 Co 0.06019 0.15559 0.98876 0.0
C232 C 0.0802 0.12465 -0.00027 0.0
C233 C 0.08044 0.14461 0.0197 0.0
C234 C 0.08831 0.12968 0.02632 0.0
N235 N 0.07538 0.14135 0.00307 0.0
N236 N 0.08811 0.11722 0.01371 0.0
H237 H 0.077 0.11774 0.98772 0.0
H238 H 0.0778 0.15665 0.02677 0.0
C239 C 0.07886 0.19068 0.98735 0.0
O240 O 0.07606 0.19217 0.97038 0.0
N241 N 0.04458 0.16993 0.97471 0.0
C242 C 0.03697 0.16642 0.95907 0.0
C243 C 0.02634 0.1803 0.95451 0.0
C244 C 0.03794 0.18558 0.97968 0.0
N245 N 0.027 0.19231 0.96748 0.0
C246 C 0.06928 0.13921 0.95601 0.0
C247 C 0.10277 0.15299 0.95354 0.0
C248 C 0.0963 0.14275 0.9397 0.0
C249 C 0.07949 0.13542 0.94126 0.0
C250 C 0.09218 0.15628 0.96812 0.0
N251 N 0.07519 0.15046 0.96867 0.0
H252 H 0.05665 0.13291 0.95733 0.0
H253 H 0.09787 0.1632 0.97908 0.0
H254 H 0.03842 0.15456 0.95154 0.0
H255 H 0.04123 0.192 0.99193 0.0
O256 O 0.044 0.13592 0.98749 0.0
O257 O 0.04372 0.1569 0.00774 0.0
O258 O 0.07406 0.17695 0.99571 0.0
C259 C 0.03727 0.14222 0.00193 0.0
H260 H 0.09339 0.12797 0.0395 0.0
H261 H 0.01841 0.18128 0.94274 0.0
H262 H 0.11607 0.15808 0.95329 0.0
H263 H 0.07421 0.12693 0.93112 0.0
Co264 Co 0.26133 0.08967 0.18293 0.0
C265 C 0.24951 0.11954 0.16051 0.0
C266 C 0.23231 0.09733 0.15884 0.0
C267 C 0.22474 0.11112 0.14989 0.0
N268 N 0.24797 0.10253 0.16537 0.0
N269 N 0.23566 0.12499 0.15095 0.0
H270 H 0.25959 0.12837 0.16499 0.0
H271 H 0.22631 0.08467 0.1613 0.0
C272 C 0.25827 0.0652 0.1525 0.0
O273 O 0.26373 0.07801 0.14228 0.0
N274 N 0.27403 0.07702 0.20066 0.0
C275 C 0.28831 0.08256 0.20951 0.0
C276 C 0.29311 0.06967 0.22126 0.0
C277 C 0.27014 0.06107 0.20718 0.0
N278 N 0.28163 0.05623 0.21978 0.0
C279 C 0.29013 0.11147 0.17131 0.0
C280 C 0.30955 0.0846 0.15658 0.0
C281 C 0.31525 0.10195 0.15428 0.0
C282 C 0.30564 0.11546 0.16236 0.0
C283 C 0.29391 0.08127 0.16551 0.0
N284 N 0.28365 0.09475 0.17147 0.0
H285 H 0.28346 0.12182 0.17828 0.0
H286 H 0.29008 0.06778 0.16761 0.0
H287 H 0.2947 0.09512 0.20762 0.0
H288 H 0.25921 0.05314 0.2027 0.0
O289 O 0.25938 0.10979 0.19857 0.0
O290 O 0.24042 0.08765 0.19668 0.0
O291 O 0.25774 0.06731 0.16916 0.0
C292 C 0.24473 0.10255 0.20377 0.0
H293 H 0.21196 0.11115 0.14364 0.0
H294 H 0.304 0.07026 0.23039 0.0
H295 H 0.31707 0.07364 0.15148 0.0
H296 H 0.30981 0.12903 0.1615 0.0
Co297 Co 0.15347 0.01302 0.43321 0.0
C298 C 0.12234 0.00374 0.41177 0.0
C299 C 0.14481 0.98857 0.40436 0.0
C300 C 0.13056 0.98277 0.39483 0.0
N301 N 0.13977 0.00216 0.4146 0.0
N302 N 0.11644 0.99233 0.3996 0.0
H303 H 0.11381 0.01228 0.41909 0.0
H304 H 0.15775 0.98271 0.40439 0.0
C305 C 0.17739 0.01338 0.40215 0.0
O306 O 0.16434 0.0203 0.39319 0.0
N307 N 0.16671 0.02336 0.45197 0.0
C308 C 0.16137 0.03648 0.46256 0.0
C309 C 0.17481 0.04046 0.47396 0.0
C310 C 0.1831 0.0193 0.45708 0.0
N311 N 0.1884 0.02962 0.47048 0.0
C312 C 0.13255 0.04346 0.42386 0.0
C313 C 0.16039 0.06337 0.41178 0.0
C314 C 0.14325 0.06937 0.4088 0.0
C315 C 0.12923 0.05958 0.41572 0.0
C316 C 0.16303 0.04714 0.41985 0.0
N317 N 0.14912 0.03666 0.42427 0.0
H318 H 0.12179 0.03657 0.4299 0.0
H319 H 0.17635 0.04284 0.42217 0.0
H320 H 0.14865 0.0428 0.46191 0.0
H321 H 0.19109 0.00927 0.45093 0.0
O322 O 0.13353 0.01014 0.4489 0.0
O323 O 0.15483 0.99062 0.44461 0.0
O324 O 0.17558 0.01044 0.41861 0.0
C325 C 0.14018 0.99471 0.45233 0.0
H326 H 0.13042 0.97179 0.3858 0.0
H327 H 0.17458 0.05043 0.4841 0.0
H328 H 0.17169 0.07096 0.40761 0.0
H329 H 0.11577 0.06399 0.4144 0.0
Co330 Co 0.232 0.90413 0.68445 0.0
C331 C 0.24141 0.87162 0.66462 0.0
C332 C 0.25942 0.89279 0.66 0.0
C333 C 0.26593 0.8779 0.65208 0.0
N334 N 0.24394 0.88893 0.66777 0.0
N335 N 0.25455 0.86467 0.65502 0.0
H336 H 0.23103 0.86381 0.67022 0.0
H337 H 0.26595 0.9054 0.6608 0.0
C338 C 0.23276 0.92395 0.6507 0.0
O339 O 0.22771 0.90942 0.64284 0.0
N340 N 0.22068 0.9191 0.70129 0.0
C341 C 0.20796 0.91445 0.71267 0.0
C342 C 0.2045 0.92854 0.72345 0.0
C343 C 0.22484 0.93584 0.70521 0.0
N344 N 0.21514 0.94194 0.71875 0.0
C345 C 0.20248 0.88092 0.67966 0.0
C346 C 0.1824 0.90386 0.66001 0.0
C347 C 0.17662 0.88642 0.66188 0.0
C348 C 0.18653 0.87516 0.67263 0.0
C349 C 0.19822 0.90912 0.66761 0.0
N350 N 0.20885 0.89725 0.67586 0.0
H351 H 0.20975 0.87215 0.6881 0.0
H352 H 0.20196 0.92274 0.66655 0.0
H353 H 0.20193 0.9016 0.71332 0.0
H354 H 0.23522 0.94313 0.69876 0.0
O355 O 0.23563 0.88633 0.70235 0.0
O356 O 0.25412 0.90798 0.69596 0.0
O357 O 0.23395 0.92444 0.66745 0.0
C358 C 0.25072 0.89397 0.70509 0.0
H359 H 0.2783 0.87675 0.64515 0.0
H360 H 0.195 0.92885 0.73403 0.0
H361 H 0.17515 0.91333 0.65227 0.0
H362 H 0.18216 0.86192 0.67548 0.0
Co363 Co 0.34257 0.98828 0.93852 0.0
C364 C 0.37335 0.0013 0.9195 0.0
C365 C 0.35243 0.02026 0.91914 0.0
C366 C 0.36708 0.02763 0.91139 0.0
N367 N 0.35647 0.00379 0.92418 0.0
N368 N 0.38013 0.01563 0.91163 0.0
H369 H 0.38076 0.98954 0.92254 0.0
H370 H 0.33997 0.02665 0.92154 0.0
C371 C 0.30932 0.984 0.91711 0.0
O372 O 0.30929 0.96693 0.91975 0.0
N373 N 0.3286 0.97302 0.9534 0.0
C374 C 0.33396 0.95979 0.96393 0.0
C375 C 0.31997 0.95412 0.97387 0.0
C376 C 0.31163 0.97569 0.95773 0.0
N377 N 0.30593 0.96412 0.9699 0.0
C378 C 0.36022 0.95575 0.93023 0.0
C379 C 0.35212 0.95605 0.89484 0.0
C380 C 0.3616 0.94189 0.90171 0.0
C381 C 0.3658 0.94185 0.91961 0.0
C382 C 0.34657 0.96947 0.90597 0.0
N383 N 0.34988 0.96883 0.92361 0.0
H384 H 0.36487 0.95632 0.94355 0.0
H385 H 0.34003 0.98066 0.90022 0.0
H386 H 0.34724 0.95515 0.96536 0.0
H387 H 0.30384 0.98648 0.95275 0.0
O388 O 0.36146 0.98844 0.95568 0.0
O389 O 0.33887 0.00691 0.95492 0.0
O390 O 0.32159 0.99359 0.92337 0.0
C391 C 0.35362 0.00228 0.96212 0.0
H392 H 0.36812 0.04083 0.90617 0.0
H393 H 0.32028 0.94374 0.98358 0.0
H394 H 0.34905 0.95678 0.88096 0.0
H395 H 0.37383 0.93151 0.92519 0.0
Co396 Co 0.26049 0.90385 0.31532 0.0
C397 C 0.24828 0.87158 0.33247 0.0
C398 C 0.22896 0.8921 0.33419 0.0
C399 C 0.22182 0.87684 0.34089 0.0
N400 N 0.24552 0.88871 0.32895 0.0
N401 N 0.23402 0.86402 0.33976 0.0
H402 H 0.26013 0.86458 0.3289 0.0
H403 H 0.22234 0.90457 0.33258 0.0
C404 C 0.2618 0.93772 0.33631 0.0
O405 O 0.27869 0.93981 0.33339 0.0
N406 N 0.2753 0.91909 0.30131 0.0
C407 C 0.29161 0.91624 0.29497 0.0
C408 C 0.29651 0.93038 0.28488 0.0
C409 C 0.27041 0.93476 0.29463 0.0
N410 N 0.28317 0.94203 0.28464 0.0
C411 C 0.29202 0.88496 0.32326 0.0
C412 C 0.29627 0.89716 0.35714 0.0
C413 C 0.30928 0.88636 0.34984 0.0
C414 C 0.30678 0.87988 0.33282 0.0
C415 C 0.28165 0.90186 0.3471 0.0
N416 N 0.28025 0.89672 0.32996 0.0
H417 H 0.29024 0.87963 0.31024 0.0
H418 H 0.2714 0.90936 0.35334 0.0
H419 H 0.29949 0.9047 0.29696 0.0
H420 H 0.25758 0.9405 0.2968 0.0
O421 O 0.26143 0.88574 0.29738 0.0
O422 O 0.2418 0.90723 0.29879 0.0
O423 O 0.25375 0.92403 0.33093 0.0
C424 C 0.2473 0.89307 0.29107 0.0
H425 H 0.20863 0.87524 0.34596 0.0
H426 H 0.30899 0.93188 0.27824 0.0
H427 H 0.29725 0.90172 0.37059 0.0
H428 H 0.3163 0.87119 0.32677 0.0
Co429 Co 0.34186 0.00608 0.56223 0.0
C430 C 0.37326 0.99378 0.58064 0.0
C431 C 0.35312 0.97398 0.5805 0.0
C432 C 0.36809 0.96696 0.58793 0.0
N433 N 0.35647 0.99076 0.57598 0.0
N434 N 0.38066 0.97948 0.58799 0.0
H435 H 0.38019 0.0059 0.57792 0.0
H436 H 0.34091 0.96717 0.57797 0.0
C437 C 0.30733 0.00693 0.58205 0.0
O438 O 0.30553 0.02392 0.57949 0.0
N439 N 0.32716 0.02124 0.5481 0.0
C440 C 0.33017 0.03765 0.54208 0.0
C441 C 0.31619 0.04275 0.53186 0.0
C442 C 0.31166 0.01647 0.54105 0.0
N443 N 0.30454 0.02942 0.53124 0.0
C444 C 0.35991 0.03768 0.57194 0.0
C445 C 0.34653 0.04007 0.60558 0.0
C446 C 0.35705 0.05372 0.59914 0.0
C447 C 0.36425 0.05216 0.58229 0.0
C448 C 0.34266 0.02576 0.59482 0.0
N449 N 0.34827 0.02533 0.57778 0.0
H450 H 0.36576 0.03653 0.55908 0.0
H451 H 0.33536 0.01499 0.6004 0.0
H452 H 0.34169 0.04548 0.54443 0.0
H453 H 0.30589 0.00361 0.54292 0.0
O454 O 0.36066 0.00764 0.54504 0.0
O455 O 0.33912 0.98796 0.54507 0.0
O456 O 0.32109 -0.00112 0.57684 0.0
C457 C 0.35351 0.99376 0.53799 0.0
H458 H 0.36968 0.95366 0.59273 0.0
H459 H 0.31477 0.05537 0.52548 0.0
H460 H 0.34151 0.04033 0.6189 0.0
H461 H 0.37287 0.06219 0.57701 0.0
Co462 Co 0.23597 0.08882 0.82235 0.0
C463 C 0.25107 0.11956 0.84105 0.0
C464 C 0.25493 0.09578 0.85566 0.0
C465 C 0.26231 0.10948 0.86487 0.0
N466 N 0.24767 0.10211 0.84078 0.0
N467 N 0.25985 0.12443 0.85568 0.0
H468 H 0.2477 0.12848 0.83054 0.0
H469 H 0.25523 0.08216 0.85958 0.0
C470 C 0.23025 0.05199 0.8382 0.0
O471 O 0.2215 0.0459 0.82468 0.0
N472 N 0.22457 0.07602 0.80355 0.0
C473 C 0.20925 0.07997 0.79557 0.0
C474 C 0.20638 0.06806 0.78226 0.0
C475 C 0.23118 0.06232 0.79446 0.0
N476 N 0.22011 0.05687 0.78172 0.0
C477 C 0.21009 0.11524 0.82965 0.0
C478 C 0.18602 0.09307 0.84544 0.0
C479 C 0.18318 0.11123 0.84607 0.0
C480 C 0.19517 0.12237 0.83763 0.0
C481 C 0.20119 0.08654 0.83754 0.0
N482 N 0.21341 0.09763 0.83049 0.0
H483 H 0.21917 0.12395 0.82316 0.0
H484 H 0.20302 0.07256 0.83731 0.0
H485 H 0.20068 0.09073 0.79911 0.0
H486 H 0.24361 0.05611 0.7975 0.0
O487 O 0.24227 0.10682 0.80539 0.0
O488 O 0.25845 0.08357 0.81237 0.0
O489 O 0.23504 0.06809 0.83905 0.0
C490 C 0.2568 0.09796 0.80335 0.0
H491 H 0.26889 0.10845 0.87743 0.0
H492 H 0.19481 0.06734 0.77402 0.0
H493 H 0.17701 0.08398 0.85168 0.0
H494 H 0.1932 0.13646 0.83745 0.0
Co495 Co 0.15134 0.98298 0.06075 0.0
C496 C 0.12086 0.99242 0.08314 0.0
C497 C 0.14222 0.01056 0.08595 0.0
C498 C 0.12789 0.01716 0.0948 0.0
N499 N 0.13786 0.99496 0.07872 0.0
N500 N 0.11455 0.00569 0.09298 0.0
H501 H 0.11269 0.98203 0.0781 0.0
H502 H 0.15464 0.0172 0.08399 0.0
C503 C 0.17493 0.98492 0.09214 0.0
O504 O 0.1618 0.97957 0.10201 0.0
N505 N 0.16458 0.97148 0.04267 0.0
C506 C 0.15887 0.95881 0.03174 0.0
C507 C 0.17249 0.95415 0.02078 0.0
C508 C 0.18142 0.97447 0.03829 0.0
N509 N 0.18665 0.964 0.02497 0.0
C510 C 0.12922 0.9532 0.06795 0.0
C511 C 0.15393 0.93387 0.08616 0.0
C512 C 0.13653 0.92772 0.08563 0.0
C513 C 0.12434 0.93724 0.07556 0.0
C514 C 0.15831 0.94966 0.07794 0.0
N515 N 0.14566 0.95993 0.0704 0.0
H516 H 0.11969 0.96017 0.06012 0.0
H517 H 0.1719 0.95364 0.07789 0.0
H518 H 0.14576 0.95331 0.03179 0.0
H519 H 0.18957 0.98429 0.04457 0.0
O520 O 0.13174 0.98619 0.04472 0.0
O521 O 0.15376 0.00492 0.04856 0.0
O522 O 0.17326 0.98561 0.07544 0.0
C523 C 0.13891 0.0013 0.041 0.0
H524 H 0.12711 0.02972 0.10143 0.0
H525 H 0.17207 0.94411 0.01072 0.0
H526 H 0.16408 0.92693 0.09329 0.0
H527 H 0.11103 0.93256 0.07369 0.0
Co528 Co 0.18182 0.26057 0.0915 0.0
C529 C 0.16011 0.25098 0.12278 0.0
C530 C 0.1548 0.23471 0.10045 0.0
C531 C 0.14582 0.22801 0.11465 0.0
N532 N 0.16364 0.24927 0.10545 0.0
N533 N 0.14917 0.23835 0.12859 0.0
H534 H 0.16642 0.26015 0.13147 0.0
H535 H 0.1556 0.2288 0.08754 0.0
C536 C 0.14931 0.26269 0.06998 0.0
O537 O 0.14129 0.26843 0.08416 0.0
N538 N 0.20005 0.27113 0.07766 0.0
C539 C 0.21184 0.2832 0.08294 0.0
C540 C 0.22305 0.28665 0.06916 0.0
C541 C 0.20415 0.26732 0.0609 0.0
N542 N 0.21817 0.27665 0.05534 0.0
C543 C 0.17548 0.28972 0.11495 0.0
C544 C 0.15999 0.31122 0.09014 0.0
C545 C 0.15868 0.31575 0.10793 0.0
C546 C 0.16742 0.3053 0.12033 0.0
C547 C 0.16809 0.29547 0.08544 0.0
N548 N 0.17398 0.28407 0.09801 0.0
H549 H 0.18266 0.28208 0.12446 0.0
H550 H 0.16895 0.29213 0.07167 0.0
H551 H 0.21232 0.28896 0.09592 0.0
H552 H 0.19729 0.25757 0.05315 0.0
O553 O 0.19843 0.25594 0.11027 0.0
O554 O 0.19243 0.23795 0.08809 0.0
O555 O 0.16587 0.25984 0.07029 0.0
C556 C 0.20091 0.24082 0.10261 0.0
H557 H 0.13797 0.21615 0.1149 0.0
H558 H 0.23389 0.29586 0.06929 0.0
H559 H 0.15395 0.31919 0.08002 0.0
H560 H 0.1676 0.30888 0.1341 0.0
Co561 Co 0.67856 0.24194 0.90602 0.0
C562 C 0.65769 0.2531 0.87567 0.0
C563 C 0.65671 0.27224 0.8964 0.0
C564 C 0.64818 0.27897 0.8819 0.0
N565 N 0.66267 0.25607 0.89238 0.0
N566 N 0.64881 0.26686 0.86897 0.0
H567 H 0.66137 0.24155 0.86822 0.0
H568 H 0.65912 0.27894 0.9087 0.0
C569 C 0.6591 0.23736 0.9406 0.0
O570 O 0.66242 0.22043 0.94126 0.0
N571 N 0.69487 0.22801 0.9197 0.0
C572 C 0.70523 0.21467 0.91428 0.0
C573 C 0.71654 0.21023 0.92763 0.0
C574 C 0.70042 0.2318 0.93609 0.0
N575 N 0.71347 0.22101 0.94132 0.0
C576 C 0.67252 0.20976 0.88745 0.0
C577 C 0.63887 0.20386 0.8997 0.0
C578 C 0.64672 0.19131 0.88874 0.0
C579 C 0.66363 0.19459 0.8823 0.0
C580 C 0.64823 0.2189 0.90445 0.0
N581 N 0.66526 0.22118 0.89922 0.0
H582 H 0.68513 0.21248 0.88162 0.0
H583 H 0.64155 0.22885 0.91199 0.0
H584 H 0.70547 0.20903 0.90133 0.0
H585 H 0.6956 0.24278 0.94373 0.0
O586 O 0.69529 0.24313 0.88676 0.0
O587 O 0.69363 0.26184 0.90906 0.0
O588 O 0.66384 0.2466 0.92743 0.0
C589 C 0.70102 0.25737 0.89437 0.0
H590 H 0.64231 0.29188 0.88079 0.0
H591 H 0.7265 0.20009 0.92716 0.0
H592 H 0.62547 0.20228 0.90422 0.0
H593 H 0.67001 0.18551 0.87339 0.0
Co594 Co 0.0089 0.42886 0.15557 0.0
C595 C 0.9974 0.41172 0.12304 0.0
C596 C 0.97814 0.40904 0.14353 0.0
C597 C 0.9713 0.40216 0.12824 0.0
N598 N 0.99445 0.41501 0.14018 0.0
N599 N 0.98346 0.40387 0.11546 0.0
H600 H 0.00911 0.41578 0.11606 0.0
H601 H 0.97145 0.41025 0.15602 0.0
C602 C 0.01242 0.40656 0.18839 0.0
O603 O 0.02871 0.4117 0.19087 0.0
N604 N 0.02304 0.44309 0.17121 0.0
C605 C 0.03901 0.45042 0.16876 0.0
C606 C 0.04335 0.45999 0.18346 0.0
C607 C 0.01774 0.44873 0.18714 0.0
N608 N 0.02996 0.45887 0.195 0.0
C609 C 0.04108 0.42302 0.13644 0.0
C610 C 0.04513 0.38828 0.14613 0.0
C611 C 0.05815 0.39615 0.13575 0.0
C612 C 0.05583 0.41371 0.13063 0.0
C613 C 0.03062 0.39801 0.15153 0.0
N614 N 0.02924 0.41548 0.14763 0.0
H615 H 0.03915 0.43632 0.13188 0.0
H616 H 0.02036 0.3912 0.1585 0.0
H617 H 0.04699 0.44946 0.15714 0.0
H618 H 0.00523 0.44523 0.19293 0.0
O619 O 0.00846 0.4476 0.13818 0.0
O620 O 0.98937 0.44411 0.15996 0.0
O621 O 0.00365 0.41189 0.17511 0.0
C622 C 0.99417 0.4528 0.1461 0.0
H623 H 0.95832 0.39658 0.12656 0.0
H624 H 0.05524 0.46757 0.18531 0.0
H625 H 0.04609 0.37468 0.15021 0.0
H626 H 0.06516 0.42013 0.122 0.0
Co627 Co 0.81304 0.76306 0.40624 0.0
C628 C 0.83484 0.75118 0.37628 0.0
C629 C 0.84237 0.73836 0.40012 0.0
C630 C 0.85189 0.73121 0.3865 0.0
N631 N 0.83205 0.75134 0.39381 0.0
N632 N 0.84704 0.73928 0.3715 0.0
H633 H 0.82738 0.75874 0.36698 0.0
H634 H 0.8423 0.73368 0.41354 0.0
C635 C 0.843 0.76485 0.43172 0.0
O636 O 0.85295 0.77089 0.41895 0.0
N637 N 0.79392 0.77409 0.41835 0.0
C638 C 0.78285 0.78633 0.412 0.0
C639 C 0.77088 0.79046 0.42494 0.0
C640 C 0.78863 0.77082 0.43487 0.0
N641 N 0.77461 0.78071 0.43929 0.0
C642 C 0.8241 0.7918 0.38389 0.0
C643 C 0.8353 0.81324 0.41093 0.0
C644 C 0.83973 0.81774 0.39362 0.0
C645 C 0.8332 0.80725 0.37994 0.0
C646 C 0.82629 0.79762 0.41422 0.0
N647 N 0.82234 0.78631 0.40085 0.0
H648 H 0.81857 0.7843 0.37329 0.0
H649 H 0.82307 0.79433 0.42765 0.0
H650 H 0.78349 0.79187 0.39893 0.0
H651 H 0.79477 0.76119 0.44334 0.0
O652 O 0.79803 0.75918 0.38598 0.0
O653 O 0.80148 0.74081 0.40843 0.0
O654 O 0.82673 0.76172 0.42895 0.0
C655 C 0.79434 0.74411 0.39329 0.0
H656 H 0.86093 0.72027 0.38743 0.0
H657 H 0.76044 0.80007 0.42395 0.0
H658 H 0.83915 0.82147 0.42188 0.0
H659 H 0.83564 0.81049 0.36631 0.0
Co660 Co 0.98592 0.06257 0.15456 0.0
C661 C 0.99559 0.08224 0.12305 0.0
C662 C 0.01526 0.08493 0.14311 0.0
C663 C 0.02133 0.09279 0.12795 0.0
N664 N -0.00085 0.07835 0.13993 0.0
N665 N 0.00891 0.09105 0.11542 0.0
H666 H 0.984 0.07773 0.11616 0.0
H667 H 0.02242 0.08332 0.15528 0.0
C668 C 0.98362 0.08166 0.1897 0.0
O669 O 0.96776 0.07565 0.19294 0.0
N670 N 0.97285 0.04636 0.16907 0.0
C671 C 0.95815 0.0373 0.16501 0.0
C672 C 0.95452 0.02573 0.17841 0.0
C673 C 0.97819 0.03983 0.18463 0.0
N674 N 0.96711 0.02742 0.19072 0.0
C675 C 0.95341 0.0689 0.13648 0.0
C676 C 0.94705 0.10174 0.15057 0.0
C677 C 0.93494 0.09453 0.13884 0.0
C678 C 0.93835 0.07809 0.13143 0.0
C679 C 0.96213 0.09233 0.15491 0.0
N680 N 0.96474 0.07568 0.14866 0.0
H681 H 0.95614 0.05646 0.13027 0.0
H682 H 0.97188 0.09887 0.16276 0.0
H683 H 0.95076 0.03837 0.153 0.0
H684 H 0.99019 0.0438 0.19115 0.0
O685 O 0.9863 0.04557 0.13554 0.0
O686 O 0.00617 0.04775 0.15677 0.0
O687 O 0.99149 0.0779 0.17536 0.0
C688 C 0.00106 0.0402 0.14236 0.0
H689 H 0.03405 0.09891 0.12614 0.0
H690 H 0.9435 0.01676 0.17903 0.0
H691 H 0.94517 0.11484 0.15585 0.0
H692 H 0.9295 0.07245 0.12182 0.0
Co693 Co 0.31476 0.7414 0.59198 0.0
C694 C 0.33208 0.75267 0.62432 0.0
C695 C 0.33296 0.77301 0.60475 0.0
C696 C 0.33971 0.77957 0.62024 0.0
N697 N 0.32822 0.75618 0.60742 0.0
N698 N 0.33911 0.76672 0.63247 0.0
H699 H 0.32893 0.74038 0.63076 0.0
H700 H 0.33096 0.78019 0.59264 0.0
C701 C 0.33635 0.74058 0.55887 0.0
O702 O 0.3348 0.72339 0.55817 0.0
N703 N 0.30077 0.72694 0.57637 0.0
C704 C 0.29186 0.71195 0.57963 0.0
C705 C 0.28277 0.70718 0.56473 0.0
C706 C 0.29626 0.73145 0.55984 0.0
N707 N 0.28562 0.71947 0.55229 0.0
C708 C 0.32472 0.70789 0.60686 0.0
C709 C 0.35997 0.71053 0.59861 0.0
C710 C 0.35388 0.6951 0.60662 0.0
C711 C 0.33602 0.69404 0.6111 0.0
C712 C 0.34822 0.72395 0.59456 0.0
N713 N 0.33062 0.72212 0.59766 0.0
H714 H 0.31137 0.7074 0.6115 0.0
H715 H 0.35342 0.73603 0.58924 0.0
H716 H 0.2911 0.70523 0.59204 0.0
H717 H 0.30063 0.7434 0.55349 0.0
O718 O 0.29753 0.73888 0.61063 0.0
O719 O 0.2974 0.75953 0.59001 0.0
O720 O 0.32967 0.74926 0.57159 0.0
C721 C 0.29047 0.75313 0.60424 0.0
H722 H 0.34443 0.79281 0.62242 0.0
H723 H 0.27419 0.69591 0.56341 0.0
H724 H 0.3738 0.71243 0.59583 0.0
H725 H 0.33079 0.68265 0.61785 0.0
Co726 Co 0.01106 0.5669 0.33822 0.0
C727 C 0.99738 0.58714 0.36848 0.0
C728 C 0.98902 0.59825 0.344 0.0
C729 C 0.98194 0.608 0.3575 0.0
N730 N -0.0011 0.58531 0.35091 0.0
N731 N 0.98726 0.60103 0.37294 0.0
H732 H 0.00329 0.57831 0.37782 0.0
H733 H 0.9867 0.60028 0.33014 0.0
C734 C 0.01673 0.58245 0.30144 0.0
O735 O 0.02331 0.56793 0.29496 0.0
N736 N 0.02304 0.54809 0.3259 0.0
C737 C 0.03918 0.5415 0.32918 0.0
C738 C 0.04233 0.52782 0.31781 0.0
C739 C 0.01635 0.53778 0.31311 0.0
N740 N 0.02802 0.5256 0.30762 0.0
C741 C 0.03695 0.57199 0.36525 0.0
C742 C 0.06038 0.59099 0.345 0.0
C743 C 0.06335 0.58942 0.36303 0.0
C744 C 0.05169 0.57952 0.37321 0.0
C745 C 0.04526 0.5837 0.33769 0.0
N746 N 0.03333 0.57499 0.34793 0.0
H747 H 0.02828 0.56403 0.37314 0.0
H748 H 0.04336 0.58517 0.32378 0.0
H749 H 0.04819 0.54618 0.33909 0.0
H750 H 0.00338 0.53953 0.30758 0.0
O751 O 0.00382 0.55 0.35598 0.0
O752 O 0.98871 0.55702 0.33209 0.0
O753 O 0.01282 0.58375 0.31773 0.0
C754 C 0.98962 0.54807 0.34659 0.0
H755 H 0.97319 0.61909 0.35594 0.0
H756 H 0.05446 0.52048 0.31679 0.0
H757 H 0.0693 0.59842 0.33675 0.0
H758 H 0.05384 0.57782 0.38718 0.0
Co759 Co 0.48945 0.43716 0.84157 0.0
C760 C 0.5017 0.41637 0.87145 0.0
C761 C 0.52061 0.41633 0.85048 0.0
C762 C 0.528 0.40832 0.86495 0.0
N763 N 0.50417 0.42137 0.85466 0.0
N764 N 0.51606 0.40841 0.87806 0.0
H765 H 0.49011 0.4196 0.87904 0.0
H766 H 0.52708 0.41919 0.83815 0.0
C767 C 0.4865 0.41867 0.80627 0.0
O768 O 0.46941 0.42096 0.80552 0.0
N769 N 0.47498 0.45344 0.8284 0.0
C770 C 0.46141 0.46335 0.83408 0.0
C771 C 0.45632 0.4745 0.82079 0.0
C772 C 0.47832 0.45921 0.81198 0.0
N773 N 0.46695 0.47181 0.8069 0.0
C774 C 0.45669 0.42841 0.85826 0.0
C775 C 0.454 0.39481 0.84482 0.0
C776 C 0.44015 0.40146 0.85496 0.0
C777 C 0.44183 0.41833 0.86212 0.0
C778 C 0.46866 0.40529 0.84142 0.0
N779 N 0.46934 0.42231 0.84711 0.0
H780 H 0.45815 0.44098 0.86458 0.0
H781 H 0.47956 0.39955 0.83442 0.0
H782 H 0.45601 0.46335 0.84715 0.0
H783 H 0.48937 0.45483 0.80419 0.0
O784 O 0.48938 0.45275 0.86178 0.0
O785 O 0.50859 0.4534 0.83984 0.0
O786 O 0.49531 0.42378 0.81958 0.0
C787 C 0.50361 0.45946 0.85497 0.0
H788 H 0.54128 0.40331 0.86595 0.0
H789 H 0.44578 0.48403 0.82144 0.0
H790 H 0.45367 0.38148 0.83982 0.0
H791 H 0.43172 0.42378 0.87052 0.0
Co792 Co 0.59261 0.68567 0.76594 0.0
C793 C 0.62438 0.6658 0.75465 0.0
C794 C 0.60196 0.6604 0.7385 0.0
C795 C 0.61644 0.65262 0.73097 0.0
N796 N 0.60687 0.66855 0.75348 0.0
N797 N 0.63048 0.65606 0.74118 0.0
H798 H 0.63289 0.67194 0.76413 0.0
H799 H 0.58892 0.66098 0.73288 0.0
C800 C 0.57156 0.65261 0.7662 0.0
O801 O 0.58587 0.64422 0.77099 0.0
N802 N 0.57857 0.70295 0.77773 0.0
C803 C 0.58381 0.71405 0.79045 0.0
C804 C 0.57005 0.72511 0.79441 0.0
C805 C 0.56186 0.70732 0.77403 0.0
N806 N 0.55629 0.72084 0.78405 0.0
C807 C 0.61667 0.67951 0.79459 0.0
C808 C 0.59317 0.66145 0.81556 0.0
C809 C 0.6109 0.66204 0.82063 0.0
C810 C 0.62251 0.67204 0.81032 0.0
C811 C 0.58789 0.66942 0.79994 0.0
N812 N 0.59991 0.67681 0.78885 0.0
H813 H 0.62565 0.68748 0.78707 0.0
H814 H 0.5741 0.66928 0.79668 0.0
H815 H 0.59679 0.71427 0.79622 0.0
H816 H 0.55418 0.70111 0.7638 0.0
O817 O 0.61078 0.70312 0.76163 0.0
O818 O 0.58828 0.69722 0.74403 0.0
O819 O 0.57173 0.66934 0.76471 0.0
C820 C 0.60258 0.70607 0.74687 0.0
H821 H 0.61676 0.64553 0.71865 0.0
H822 H 0.57019 0.7355 0.80412 0.0
H823 H 0.58346 0.65436 0.82316 0.0
H824 H 0.63607 0.67392 0.81419 0.0
Co825 Co 0.56498 0.34481 0.0137 0.0
C826 C 0.58702 0.3753 0.00347 0.0
C827 C 0.59825 0.35131 0.99406 0.0
C828 C 0.6088 0.36504 0.98877 0.0
N829 N 0.58498 0.35765 0.00404 0.0
N830 N 0.6016 0.38002 0.99471 0.0
H831 H 0.57773 0.38471 0.0086 0.0
H832 H 0.59984 0.33778 0.99011 0.0
C833 C 0.59432 0.31885 0.01848 0.0
O834 O 0.60332 0.33115 0.02661 0.0
N835 N 0.54492 0.33248 0.02273 0.0
C836 C 0.53353 0.33834 0.0349 0.0
C837 C 0.52109 0.32555 0.03771 0.0
C838 C 0.53925 0.3164 0.0181 0.0
N839 N 0.52467 0.31173 0.02712 0.0
C840 C 0.57491 0.36652 0.0433 0.0
C841 C 0.58199 0.3389 0.06577 0.0
C842 C 0.58724 0.35588 0.0706 0.0
C843 C 0.58277 0.36992 0.05952 0.0
C844 C 0.5742 0.33614 0.04941 0.0
N845 N 0.57224 0.3497 0.03778 0.0
H846 H 0.57128 0.37745 0.03515 0.0
H847 H 0.57058 0.32291 0.04573 0.0
H848 H 0.53437 0.35096 0.04138 0.0
H849 H 0.54565 0.30846 0.00821 0.0
O850 O 0.55024 0.3651 0.00908 0.0
O851 O 0.55543 0.34316 0.99049 0.0
O852 O 0.57872 0.32204 0.01309 0.0
C853 C 0.54785 0.35813 0.9936 0.0
H854 H 0.62037 0.3642 0.98053 0.0
H855 H 0.51047 0.32632 0.04711 0.0
H856 H 0.58443 0.32775 0.07428 0.0
H857 H 0.58606 0.38334 0.06289 0.0
Co858 Co 0.90277 0.31214 0.26227 0.0
C859 C 0.87193 0.33379 0.25438 0.0
C860 C 0.89359 0.34031 0.23747 0.0
C861 C 0.87933 0.35041 0.23277 0.0
N862 N 0.88889 0.33001 0.25105 0.0
N863 N 0.86573 0.34623 0.24339 0.0
H864 H 0.86427 0.32739 0.26451 0.0
H865 H 0.90629 0.34014 0.2311 0.0
C866 C 0.93926 0.32857 0.26512 0.0
O867 O 0.9432 0.32007 0.27961 0.0
N868 N 0.91661 0.2939 0.27329 0.0
C869 C 0.91319 0.2847 0.28805 0.0
C870 C 0.92616 0.27239 0.29039 0.0
C871 C 0.9313 0.28663 0.26657 0.0
N872 N 0.93758 0.27365 0.2769 0.0
C873 C 0.88626 0.31654 0.29607 0.0
C874 C 0.90306 0.34754 0.30468 0.0
C875 C 0.89194 0.33973 0.31706 0.0
C876 C 0.88309 0.32425 0.31245 0.0
C877 C 0.9057 0.3395 0.28848 0.0
N878 N 0.89827 0.32359 0.28473 0.0
H879 H 0.87909 0.30482 0.29253 0.0
H880 H 0.91334 0.34654 0.27889 0.0
H881 H 0.90203 0.28636 0.29656 0.0
H882 H 0.93722 0.29082 0.25434 0.0
O883 O 0.88277 0.2963 0.26086 0.0
O884 O 0.90363 0.29929 0.24067 0.0
O885 O 0.92433 0.32671 0.2577 0.0
C886 C 0.88903 0.29193 0.24552 0.0
H887 H 0.87884 0.35963 0.22194 0.0
H888 H 0.92721 0.26342 0.30137 0.0
H889 H 0.90931 0.36007 0.3073 0.0
H890 H 0.8739 0.31811 0.32142 0.0
Co891 Co 0.92563 0.65699 0.5077 0.0
C892 C 0.9057 0.62629 0.49555 0.0
C893 C 0.8948 0.65018 0.48516 0.0
C894 C 0.88472 0.63627 0.47945 0.0
N895 N 0.90783 0.64388 0.49536 0.0
N896 N 0.89167 0.62133 0.48596 0.0
H897 H 0.91409 0.61732 0.50272 0.0
H898 H 0.89277 0.66387 0.48197 0.0
C899 C 0.90858 0.6924 0.51558 0.0
O900 O 0.91773 0.69486 0.52999 0.0
N901 N 0.94374 0.67006 0.51996 0.0
C902 C 0.95219 0.66594 0.535 0.0
C903 C 0.96377 0.67918 0.53903 0.0
C904 C 0.95083 0.68548 0.51474 0.0
N905 N 0.96282 0.69148 0.52635 0.0
C906 C 0.9228 0.63543 0.5387 0.0
C907 C 0.89171 0.64971 0.55079 0.0
C908 C 0.90008 0.63685 0.56094 0.0
C909 C 0.91564 0.62937 0.55452 0.0
C910 C 0.89927 0.65532 0.5351 0.0
N911 N 0.91516 0.64895 0.52968 0.0
H912 H 0.93469 0.62941 0.53383 0.0
H913 H 0.89186 0.66438 0.52718 0.0
H914 H 0.95035 0.65424 0.54271 0.0
H915 H 0.94668 0.69253 0.5031 0.0
O916 O 0.94222 0.6381 0.50314 0.0
O917 O 0.93763 0.66122 0.48596 0.0
O918 O 0.91017 0.6784 0.50648 0.0
C919 C 0.94575 0.64646 0.48861 0.0
H920 H 0.87337 0.637 0.4709 0.0
H921 H 0.97224 0.67974 0.55045 0.0
H922 H 0.87915 0.65513 0.55471 0.0
H923 H 0.92233 0.61908 0.56172 0.0
Co924 Co 0.58894 0.31613 0.73326 0.0
C925 C 0.62132 0.33593 0.74278 0.0
C926 C 0.59927 0.34313 0.75872 0.0
C927 C 0.61385 0.35189 0.76483 0.0
N928 N 0.60384 0.33345 0.7446 0.0
N929 N 0.6277 0.34727 0.75481 0.0
H930 H 0.62946 0.32917 0.73341 0.0
H931 H 0.58633 0.34329 0.7646 0.0
C932 C 0.56839 0.34957 0.73209 0.0
O933 O 0.5827 0.35751 0.72653 0.0
N934 N 0.57415 0.29875 0.72259 0.0
C935 C 0.57796 0.28826 0.70886 0.0
C936 C 0.56357 0.27781 0.7055 0.0
C937 C 0.55775 0.29448 0.72759 0.0
N938 N 0.55096 0.28174 0.71733 0.0
C939 C 0.61241 0.32047 0.70389 0.0
C940 C 0.58935 0.33891 0.68283 0.0
C941 C 0.60697 0.33749 0.6775 0.0
C942 C 0.61829 0.32724 0.68787 0.0
C943 C 0.58398 0.33152 0.69872 0.0
N944 N 0.59588 0.32398 0.70984 0.0
H945 H 0.62124 0.31242 0.7115 0.0
H946 H 0.57025 0.33225 0.70218 0.0
H947 H 0.59032 0.28818 0.70185 0.0
H948 H 0.5509 0.30068 0.7384 0.0
O949 O 0.60688 0.29858 0.73759 0.0
O950 O 0.58517 0.30545 0.75582 0.0
O951 O 0.56838 0.33292 0.73439 0.0
C952 C 0.59928 0.29635 0.75277 0.0
H953 H 0.61436 0.36035 0.77624 0.0
H954 H 0.56256 0.26787 0.69538 0.0
H955 H 0.57981 0.34619 0.67521 0.0
H956 H 0.63168 0.32463 0.68384 0.0
Co957 Co 0.92886 0.34373 0.98432 0.0
C958 C 0.90881 0.37501 0.99502 0.0
C959 C 0.9026 0.3526 0.01106 0.0
C960 C 0.89329 0.36683 0.01718 0.0
N961 N 0.91219 0.35775 0.99713 0.0
N962 N 0.89724 0.38091 0.00711 0.0
H963 H 0.91484 0.38306 0.98497 0.0
H964 H 0.90274 0.33955 0.01668 0.0
C965 C 0.91053 0.30823 0.98026 0.0
O966 O 0.91872 0.30434 0.96558 0.0
N967 N 0.94588 0.32959 0.97177 0.0
C968 C 0.95387 0.33272 0.95625 0.0
C969 C 0.96556 0.31939 0.95291 0.0
C970 C 0.9532 0.31463 0.97782 0.0
N971 N 0.9651 0.30799 0.96646 0.0
C972 C 0.92438 0.36287 0.95211 0.0
C973 C 0.89234 0.34848 0.94302 0.0
C974 C 0.90042 0.36025 0.9314 0.0
C975 C 0.9165 0.36777 0.93628 0.0
C976 C 0.90066 0.34396 0.95869 0.0
N977 N 0.91698 0.35034 0.96263 0.0
H978 H 0.93666 0.36896 0.95575 0.0
H979 H 0.89358 0.33572 0.96773 0.0
H980 H 0.95177 0.34387 0.94783 0.0
H981 H 0.94982 0.30877 0.99033 0.0
O982 O 0.94575 0.36274 0.98622 0.0
O983 O 0.94247 0.34098 0.00537 0.0
O984 O 0.91322 0.32278 0.98815 0.0
C985 C 0.9503 0.35552 0.00107 0.0
H986 H 0.88476 0.36692 0.02856 0.0
H987 H 0.97358 0.31811 0.94124 0.0
H988 H 0.87945 0.34311 0.94025 0.0
H989 H 0.92305 0.37723 0.92789 0.0
Co990 Co 0.90701 0.68251 0.23802 0.0
C991 C 0.87537 0.66349 0.24887 0.0
C992 C 0.8985 0.64884 0.25571 0.0
C993 C 0.88392 0.63881 0.25966 0.0
N994 N 0.89307 0.6643 0.24888 0.0
N995 N 0.86953 0.64816 0.2554 0.0
H996 H 0.86686 0.67352 0.24346 0.0
H997 H 0.91201 0.64479 0.25724 0.0
C998 C 0.94314 0.66568 0.23326 0.0
O999 O 0.94548 0.67246 0.21755 0.0
N1000 N 0.92066 0.70089 0.22707 0.0
C1001 C 0.91617 0.71127 0.21341 0.0
C1002 C 0.92947 0.72313 0.21049 0.0
C1003 C 0.93633 0.70697 0.2326 0.0
N1004 N 0.94216 0.72033 0.22251 0.0
C1005 C 0.88883 0.67944 0.20501 0.0
C1006 C 0.90494 0.64868 0.19444 0.0
C1007 C 0.89291 0.65675 0.18316 0.0
C1008 C 0.88445 0.67211 0.18874 0.0
C1009 C 0.90866 0.65624 0.21065 0.0
N1010 N 0.90148 0.67201 0.21536 0.0
H1011 H 0.88192 0.69104 0.20935 0.0
H1012 H 0.91687 0.64894 0.21952 0.0
H1013 H 0.90405 0.71068 0.20615 0.0
H1014 H 0.94325 0.70177 0.24389 0.0
O1015 O 0.88747 0.69885 0.24083 0.0
O1016 O 0.909 0.69445 0.25999 0.0
O1017 O 0.92874 0.66794 0.24156 0.0
C1018 C 0.89452 0.70246 0.25603 0.0
H1019 H 0.88386 0.62566 0.26508 0.0
H1020 H 0.92985 0.73289 0.20014 0.0
H1021 H 0.91098 0.63625 0.19101 0.0
H1022 H 0.87458 0.67837 0.18061 0.0
Co1023 Co 0.56967 0.65573 0.48265 0.0
C1024 C 0.58956 0.6242 0.49304 0.0
C1025 C 0.60101 0.64752 0.50395 0.0
C1026 C 0.61028 0.63316 0.50993 0.0
N1027 N 0.58814 0.64186 0.49321 0.0
N1028 N 0.60301 0.6185 0.50307 0.0
H1029 H 0.58066 0.61563 0.48609 0.0
H1030 H 0.60312 0.66103 0.50778 0.0
C1031 C 0.58534 0.69272 0.47833 0.0
O1032 O 0.57267 0.69834 0.4681 0.0
N1033 N 0.55083 0.66912 0.47227 0.0
C1034 C 0.54281 0.66633 0.45672 0.0
C1035 C 0.5299 0.67878 0.45455 0.0
C1036 C 0.54224 0.68273 0.47964 0.0
N1037 N 0.52972 0.68917 0.46889 0.0
C1038 C 0.57335 0.63168 0.45378 0.0
C1039 C 0.59381 0.65314 0.43283 0.0
C1040 C 0.59062 0.63587 0.42744 0.0
C1041 C 0.58001 0.62513 0.43796 0.0
C1042 C 0.58719 0.65904 0.44881 0.0
N1043 N 0.57751 0.64823 0.45941 0.0
H1044 H 0.56504 0.62329 0.46163 0.0
H1045 H 0.59023 0.67226 0.45246 0.0
H1046 H 0.54617 0.65614 0.44743 0.0
H1047 H 0.54562 0.68823 0.4923 0.0
O1048 O 0.5529 0.63724 0.4883 0.0
O1049 O 0.55995 0.65964 0.50554 0.0
O1050 O 0.58617 0.67663 0.4832 0.0
C1051 C 0.55107 0.64526 0.50333 0.0
H1052 H 0.62108 0.6335 0.51917 0.0
H1053 H 0.52182 0.68052 0.44297 0.0
H1054 H 0.60203 0.66185 0.42511 0.0
H1055 H 0.57707 0.61175 0.43411 0.0
Co1056 Co 0.76266 0.59506 0.68374 0.0
C1057 C 0.75365 0.6252 0.66076 0.0
C1058 C 0.73792 0.60261 0.65499 0.0
C1059 C 0.73206 0.61642 0.64489 0.0
N1060 N 0.75181 0.60798 0.66461 0.0
N1061 N 0.74196 0.63062 0.64862 0.0
H1062 H 0.76256 0.63393 0.66737 0.0
H1063 H 0.7318 0.58982 0.65593 0.0
C1064 C 0.76159 0.56893 0.65417 0.0
O1065 O 0.76878 0.58065 0.6437 0.0
N1066 N 0.77294 0.58234 0.70289 0.0
C1067 C 0.78557 0.58785 0.71397 0.0
C1068 C 0.78973 0.57418 0.72511 0.0
C1069 C 0.76945 0.56564 0.70738 0.0
N1070 N 0.77957 0.56024 0.72089 0.0
C1071 C 0.79329 0.615 0.67334 0.0
C1072 C 0.81232 0.58655 0.66126 0.0
C1073 C 0.81865 0.60352 0.65793 0.0
C1074 C 0.80932 0.61784 0.66482 0.0
C1075 C 0.79626 0.58437 0.66981 0.0
N1076 N 0.7862 0.59857 0.67425 0.0
H1077 H 0.78667 0.62602 0.67919 0.0
H1078 H 0.79176 0.57118 0.67251 0.0
H1079 H 0.79151 0.60076 0.71375 0.0
H1080 H 0.76005 0.55748 0.70054 0.0
O1081 O 0.76032 0.61577 0.69854 0.0
O1082 O 0.74042 0.5946 0.69548 0.0
O1083 O 0.75925 0.57239 0.67042 0.0
C1084 C 0.74485 0.6095 0.7025 0.0
H1085 H 0.72076 0.61626 0.63626 0.0
H1086 H 0.79947 0.5745 0.73546 0.0
H1087 H 0.81957 0.57505 0.65703 0.0
H1088 H 0.81399 0.63118 0.66317 0.0
Co1089 Co 0.66015 0.51074 0.92861 0.0
C1090 C 0.62749 0.5017 0.90925 0.0
C1091 C 0.64838 0.48366 0.90379 0.0
C1092 C 0.63324 0.47741 0.89609 0.0
N1093 N 0.64484 0.49904 0.91188 0.0
N1094 N 0.62018 0.48883 0.89956 0.0
H1095 H 0.61987 0.51187 0.91541 0.0
H1096 H 0.66092 0.47698 0.90425 0.0
C1097 C 0.68086 0.50905 0.89521 0.0
O1098 O 0.66672 0.51369 0.88646 0.0
N1099 N 0.67512 0.52193 0.94549 0.0
C1100 C 0.67079 0.53536 0.95614 0.0
C1101 C 0.68526 0.53972 0.96603 0.0
C1102 C 0.69199 0.5181 0.94909 0.0
N1103 N 0.69854 0.52884 0.96157 0.0
C1104 C 0.63773 0.541 0.92247 0.0
C1105 C 0.66258 0.55987 0.90389 0.0
C1106 C 0.64532 0.56612 0.9045 0.0
C1107 C 0.63295 0.55698 0.91464 0.0
C1108 C 0.66673 0.54402 0.91196 0.0
N1109 N 0.65401 0.53397 0.91969 0.0
H1110 H 0.62834 0.5343 0.9307 0.0
H1111 H 0.68027 0.53987 0.91186 0.0
H1112 H 0.658 0.54153 0.95666 0.0
H1113 H 0.69934 0.5078 0.94258 0.0
O1114 O 0.64227 0.50717 0.94669 0.0
O1115 O 0.6638 0.48874 0.93994 0.0
O1116 O 0.6806 0.50837 0.91197 0.0
C1117 C 0.65003 0.49208 0.94937 0.0
H1118 H 0.63181 0.46516 0.889 0.0
H1119 H 0.68589 0.54988 0.97596 0.0
H1120 H 0.67276 0.56708 0.89701 0.0
H1121 H 0.61964 0.56181 0.91604 0.0
Co1122 Co 0.73688 0.40321 0.18307 0.0
C1123 C 0.74714 0.37118 0.16442 0.0
C1124 C 0.76677 0.39134 0.16184 0.0
C1125 C 0.77303 0.37616 0.1542 0.0
N1126 N 0.75058 0.38811 0.16821 0.0
N1127 N 0.76063 0.36359 0.15586 0.0
H1128 H 0.73544 0.36429 0.16865 0.0
H1129 H 0.77378 0.40361 0.16331 0.0
C1130 C 0.73379 0.43716 0.16223 0.0
O1131 O 0.71759 0.43984 0.16756 0.0
N1132 N 0.72338 0.41835 0.19836 0.0
C1133 C 0.7086 0.4147 0.20748 0.0
C1134 C 0.70495 0.42853 0.21848 0.0
C1135 C 0.7287 0.43417 0.20429 0.0
N1136 N 0.71761 0.44074 0.21643 0.0
C1137 C 0.70448 0.38452 0.17792 0.0
C1138 C 0.69805 0.39635 0.14424 0.0
C1139 C 0.68547 0.38573 0.1525 0.0
C1140 C 0.68904 0.37944 0.16942 0.0
C1141 C 0.71331 0.40108 0.15321 0.0
N1142 N 0.71589 0.39607 0.17026 0.0
H1143 H 0.70727 0.37911 0.19073 0.0
H1144 H 0.72315 0.40841 0.14616 0.0
H1145 H 0.70123 0.40265 0.20698 0.0
H1146 H 0.74082 0.44044 0.20025 0.0
O1147 O 0.73767 0.38521 0.20123 0.0
O1148 O 0.75693 0.40684 0.1978 0.0
O1149 O 0.74208 0.42328 0.1667 0.0
C1150 C 0.75212 0.39288 0.20632 0.0
H1151 H 0.7858 0.37439 0.14818 0.0
H1152 H 0.69397 0.42942 0.22748 0.0
H1153 H 0.6963 0.40072 0.13081 0.0
H1154 H 0.67992 0.37081 0.17614 0.0
Co1155 Co 0.83935 0.48241 0.42559 0.0
C1156 C 0.86934 0.49524 0.40435 0.0
C1157 C 0.84485 0.49951 0.39111 0.0
C1158 C 0.8582 0.50595 0.38075 0.0
N1159 N 0.85185 0.49258 0.40584 0.0
N1160 N 0.8736 0.50325 0.3891 0.0
H1161 H 0.87873 0.49201 0.41448 0.0
H1162 H 0.831 0.50027 0.38814 0.0
C1163 C 0.8022 0.47494 0.41156 0.0
O1164 O 0.79675 0.46733 0.42602 0.0
N1165 N 0.82732 0.47243 0.44566 0.0
C1166 C 0.83112 0.45729 0.45405 0.0
C1167 C 0.8195 0.45511 0.46768 0.0
C1168 C 0.81404 0.47967 0.45489 0.0
N1169 N 0.80862 0.46912 0.46811 0.0
C1170 C 0.86596 0.45594 0.42144 0.0
C1171 C 0.8443 0.43067 0.4069 0.0
C1172 C 0.86237 0.42742 0.40782 0.0
C1173 C 0.87324 0.44013 0.41556 0.0
C1174 C 0.83763 0.44665 0.41276 0.0
N1175 N 0.84847 0.45935 0.41932 0.0
H1176 H 0.87445 0.46552 0.42751 0.0
H1177 H 0.82369 0.44859 0.41193 0.0
H1178 H 0.84148 0.44825 0.45051 0.0
H1179 H 0.80805 0.49209 0.45148 0.0
O1180 O 0.85754 0.4908 0.44152 0.0
O1181 O 0.83379 0.50562 0.43347 0.0
O1182 O 0.81823 0.47966 0.40962 0.0
C1183 C 0.84838 0.50528 0.44228 0.0
H1184 H 0.85661 0.51217 0.36807 0.0
H1185 H 0.81875 0.44371 0.47615 0.0
H1186 H 0.83539 0.42123 0.40105 0.0
H1187 H 0.88725 0.43797 0.41684 0.0
Co1188 Co 0.76385 0.40359 0.80735 0.0
C1189 C 0.75338 0.37341 0.83004 0.0
C1190 C 0.73849 0.39661 0.83557 0.0
C1191 C 0.73209 0.38316 0.84579 0.0
N1192 N 0.75224 0.39068 0.82607 0.0
N1193 N 0.74149 0.36857 0.84226 0.0
H1194 H 0.76203 0.36428 0.82364 0.0
H1195 H 0.73297 0.40967 0.8346 0.0
C1196 C 0.76447 0.42811 0.83807 0.0
O1197 O 0.77052 0.41516 0.84778 0.0
N1198 N 0.77468 0.41645 0.7886 0.0
C1199 C 0.78721 0.41101 0.77737 0.0
C1200 C 0.79126 0.42477 0.76627 0.0
C1201 C 0.77115 0.43316 0.78424 0.0
N1202 N 0.78109 0.43865 0.77065 0.0
C1203 C 0.7933 0.38157 0.81726 0.0
C1204 C 0.81385 0.40882 0.8296 0.0
C1205 C 0.81903 0.39151 0.83312 0.0
C1206 C 0.809 0.37776 0.82601 0.0
C1207 C 0.79802 0.41196 0.82099 0.0
N1208 N 0.78717 0.39839 0.81647 0.0
H1209 H 0.78611 0.37101 0.81121 0.0
H1210 H 0.79429 0.4254 0.8184 0.0
H1211 H 0.79302 0.39804 0.77735 0.0
H1212 H 0.76168 0.44119 0.79115 0.0
O1213 O 0.76011 0.38367 0.79176 0.0
O1214 O 0.74166 0.40594 0.79592 0.0
O1215 O 0.76209 0.42587 0.82161 0.0
C1216 C 0.74507 0.39113 0.78821 0.0
H1217 H 0.72086 0.38386 0.85448 0.0
H1218 H 0.80081 0.42451 0.75574 0.0
H1219 H 0.82172 0.41989 0.83386 0.0
H1220 H 0.81283 0.36416 0.82773 0.0
Co1221 Co 0.84266 0.51441 0.06839 0.0
C1222 C 0.87419 0.50328 0.08808 0.0
C1223 C 0.85111 0.48977 0.09703 0.0
C1224 C 0.86535 0.48378 0.10646 0.0
N1225 N 0.85666 0.50215 0.08566 0.0
N1226 N 0.87986 0.49231 0.10081 0.0
H1227 H 0.88267 0.51182 0.08057 0.0
H1228 H 0.83775 0.48508 0.09813 0.0
C1229 C 0.80552 0.51537 0.08391 0.0
O1230 O 0.79903 0.52428 0.07067 0.0
N1231 N 0.82906 0.5267 0.05067 0.0
C1232 C 0.83028 0.54375 0.04593 0.0
C1233 C 0.81879 0.54689 0.03238 0.0
C1234 C 0.81724 0.51962 0.0395 0.0
N1235 N 0.81053 0.53173 0.0284 0.0
C1236 C 0.86604 0.54347 0.07425 0.0
C1237 C 0.84444 0.56192 0.09685 0.0
C1238 C 0.86111 0.56862 0.09303 0.0
C1239 C 0.87199 0.55926 0.08152 0.0
C1240 C 0.83912 0.54601 0.08956 0.0
N1241 N 0.84995 0.53678 0.07859 0.0
H1242 H 0.87444 0.53665 0.06509 0.0
H1243 H 0.82618 0.54146 0.09282 0.0
H1244 H 0.83881 0.55344 0.0518 0.0
H1245 H 0.81333 0.50596 0.03978 0.0
O1246 O 0.86115 0.51071 0.05108 0.0
O1247 O 0.83892 0.4926 0.05638 0.0
O1248 O 0.82196 0.51205 0.08492 0.0
C1249 C 0.85317 0.49594 0.04766 0.0
H1250 H 0.86507 0.47356 0.11635 0.0
H1251 H 0.81635 0.55953 0.02632 0.0
H1252 H 0.83568 0.56872 0.10578 0.0
H1253 H 0.88493 0.56414 0.07811 0.0
Co1254 Co 0.73936 0.58972 0.31711 0.0
C1255 C 0.74986 0.62052 0.33752 0.0
C1256 C 0.76782 0.59907 0.34139 0.0
C1257 C 0.77448 0.61377 0.34964 0.0
N1258 N 0.75244 0.60341 0.3338 0.0
N1259 N 0.76314 0.62716 0.34716 0.0
H1260 H 0.73911 0.62823 0.3323 0.0
H1261 H 0.77417 0.58642 0.3402 0.0
C1262 C 0.73346 0.55474 0.33546 0.0
O1263 O 0.71728 0.55347 0.32959 0.0
N1264 N 0.72649 0.57609 0.29997 0.0
C1265 C 0.71305 0.58123 0.2896 0.0
C1266 C 0.70942 0.56808 0.27778 0.0
C1267 C 0.73116 0.56011 0.29393 0.0
N1268 N 0.72081 0.55483 0.28058 0.0
C1269 C 0.707 0.6089 0.32123 0.0
C1270 C 0.69785 0.59428 0.35317 0.0
C1271 C 0.68588 0.60532 0.34467 0.0
C1272 C 0.69083 0.61322 0.3288 0.0
C1273 C 0.71392 0.59057 0.34528 0.0
N1274 N 0.71777 0.59676 0.32888 0.0
H1275 H 0.71084 0.61529 0.30916 0.0
H1276 H 0.72327 0.58286 0.35259 0.0
H1277 H 0.70668 0.59385 0.28984 0.0
H1278 H 0.7423 0.55277 0.29884 0.0
O1279 O 0.74219 0.60864 0.30003 0.0
O1280 O 0.76024 0.58609 0.30379 0.0
O1281 O 0.74268 0.56842 0.33236 0.0
C1282 C 0.75668 0.60059 0.2956 0.0
H1283 H 0.78692 0.61469 0.35649 0.0
H1284 H 0.6993 0.56833 0.26779 0.0
H1285 H 0.6949 0.58875 0.36596 0.0
H1286 H 0.68219 0.62241 0.3222 0.0
Co1287 Co 0.6559 0.48447 0.56414 0.0
C1288 C 0.62412 0.49417 0.58462 0.0
C1289 C 0.64631 0.51005 0.59151 0.0
C1290 C 0.63192 0.51599 0.60072 0.0
N1291 N 0.64155 0.496 0.5818 0.0
N1292 N 0.61799 0.50599 0.59629 0.0
H1293 H 0.61581 0.485 0.5778 0.0
H1294 H 0.65918 0.51607 0.59137 0.0
C1295 C 0.6795 0.48604 0.59582 0.0
O1296 O 0.66678 0.4797 0.60564 0.0
N1297 N 0.67008 0.47353 0.54642 0.0
C1298 C 0.66608 0.45935 0.53662 0.0
C1299 C 0.68025 0.45559 0.526 0.0
C1300 C 0.68634 0.4784 0.54156 0.0
N1301 N 0.69289 0.46763 0.52914 0.0
C1302 C 0.63434 0.45433 0.57265 0.0
C1303 C 0.66076 0.43531 0.5887 0.0
C1304 C 0.64348 0.42913 0.58971 0.0
C1305 C 0.63026 0.43839 0.58086 0.0
C1306 C 0.66423 0.45115 0.5802 0.0
N1307 N 0.65086 0.46125 0.57374 0.0
H1308 H 0.62421 0.46104 0.56539 0.0
H1309 H 0.67772 0.45537 0.57905 0.0
H1310 H 0.65382 0.45218 0.53729 0.0
H1311 H 0.69335 0.48939 0.54726 0.0
O1312 O 0.63672 0.48707 0.54741 0.0
O1313 O 0.6581 0.50641 0.55215 0.0
O1314 O 0.67744 0.48763 0.57924 0.0
C1315 C 0.64386 0.50224 0.54378 0.0
H1316 H 0.63155 0.52728 0.60935 0.0
H1317 H 0.68115 0.44494 0.51661 0.0
H1318 H 0.67149 0.42806 0.59462 0.0
H1319 H 0.61683 0.43367 0.58076 0.0
Co1320 Co 0.68033 0.76078 0.59227 0.0
C1321 C 0.66119 0.74931 0.62372 0.0
C1322 C 0.65673 0.73181 0.60204 0.0
C1323 C 0.64775 0.72555 0.61646 0.0
N1324 N 0.66499 0.74674 0.60663 0.0
N1325 N 0.6506 0.73658 0.63007 0.0
H1326 H 0.6661 0.76027 0.63132 0.0
H1327 H 0.6575 0.7257 0.58924 0.0
C1328 C 0.65987 0.76546 0.55814 0.0
O1329 O 0.66532 0.78171 0.55596 0.0
N1330 N 0.69602 0.77468 0.57788 0.0
C1331 C 0.70505 0.78932 0.58218 0.0
C1332 C 0.71571 0.7939 0.56835 0.0
C1333 C 0.70172 0.77031 0.56169 0.0
N1334 N 0.71355 0.78195 0.55548 0.0
C1335 C 0.67556 0.79223 0.61246 0.0
C1336 C 0.64229 0.8001 0.60035 0.0
C1337 C 0.65062 0.81185 0.6118 0.0
C1338 C 0.66732 0.80756 0.61822 0.0
C1339 C 0.65099 0.78491 0.59498 0.0
N1340 N 0.66786 0.78165 0.60019 0.0
H1341 H 0.68821 0.78889 0.6179 0.0
H1342 H 0.64386 0.77565 0.58701 0.0
H1343 H 0.70459 0.79609 0.59457 0.0
H1344 H 0.69755 0.75859 0.55479 0.0
O1345 O 0.69823 0.7589 0.61038 0.0
O1346 O 0.69468 0.74062 0.58794 0.0
O1347 O 0.66413 0.75674 0.57182 0.0
C1348 C 0.70311 0.74467 0.60218 0.0
H1349 H 0.6401 0.71357 0.61698 0.0
H1350 H 0.72443 0.80513 0.56786 0.0
H1351 H 0.62899 0.80243 0.59583 0.0
H1352 H 0.67405 0.81603 0.62745 0.0
Co1353 Co 0.18272 0.73377 0.40658 0.0
C1354 C 0.16221 0.74572 0.37586 0.0
C1355 C 0.15345 0.75831 0.39948 0.0
C1356 C 0.14475 0.76573 0.3854 0.0
N1357 N 0.16434 0.74566 0.39348 0.0
N1358 N 0.15028 0.75767 0.37066 0.0
H1359 H 0.17015 0.73827 0.36678 0.0
H1360 H 0.15253 0.7626 0.41299 0.0
C1361 C 0.17106 0.73705 0.44509 0.0
O1362 O 0.18545 0.73004 0.45138 0.0
N1363 N 0.20164 0.7221 0.41904 0.0
C1364 C 0.20677 0.70519 0.41758 0.0
C1365 C 0.22085 0.7024 0.42855 0.0
C1366 C 0.21342 0.72957 0.42997 0.0
N1367 N 0.22485 0.7177 0.43655 0.0
C1368 C 0.16947 0.7047 0.38621 0.0
C1369 C 0.15589 0.68613 0.4143 0.0
C1370 C 0.15264 0.67992 0.39725 0.0
C1371 C 0.15991 0.68933 0.3831 0.0
C1372 C 0.16497 0.70183 0.41676 0.0
N1373 N 0.17113 0.71127 0.40279 0.0
H1374 H 0.17547 0.71131 0.37525 0.0
H1375 H 0.1674 0.70606 0.43002 0.0
H1376 H 0.20067 0.6954 0.4093 0.0
H1377 H 0.21303 0.74328 0.43372 0.0
O1378 O 0.19789 0.73509 0.38608 0.0
O1379 O 0.19569 0.75535 0.40697 0.0
O1380 O 0.16826 0.73806 0.42856 0.0
C1381 C 0.20249 0.75046 0.39211 0.0
H1382 H 0.13547 0.7765 0.3859 0.0
H1383 H 0.22706 0.68985 0.43107 0.0
H1384 H 0.1515 0.67897 0.42579 0.0
H1385 H 0.158 0.68519 0.36964 0.0
Co1386 Co 0.5135 0.93389 0.65628 0.0
C1387 C 0.50287 0.91188 0.62584 0.0
C1388 C 0.48912 0.90463 0.64926 0.0
C1389 C 0.48234 0.89512 0.63546 0.0
N1390 N 0.50241 0.9148 0.64335 0.0
N1391 N 0.49099 0.89976 0.62071 0.0
H1392 H 0.51084 0.91922 0.61677 0.0
H1393 H 0.48391 0.90488 0.66247 0.0
C1394 C 0.51453 0.90376 0.68157 0.0
O1395 O 0.52146 0.89407 0.66907 0.0
N1396 N 0.52391 0.95303 0.66896 0.0
C1397 C 0.53639 0.96414 0.66316 0.0
C1398 C 0.54071 0.97542 0.67664 0.0
C1399 C 0.52067 0.95765 0.68569 0.0
N1400 N 0.53085 0.97125 0.6908 0.0
C1401 C 0.54322 0.92352 0.63507 0.0
C1402 C 0.56398 0.91284 0.66286 0.0
C1403 C 0.56941 0.90899 0.6457 0.0
C1404 C 0.5592 0.9152 0.63166 0.0
C1405 C 0.54788 0.92111 0.66561 0.0
N1406 N 0.53701 0.92487 0.65182 0.0
H1407 H 0.53591 0.92883 0.62423 0.0
H1408 H 0.54392 0.92402 0.67892 0.0
H1409 H 0.54216 0.96382 0.65018 0.0
H1410 H 0.51103 0.95118 0.6939 0.0
O1411 O 0.51041 0.9489 0.63594 0.0
O1412 O 0.49109 0.94526 0.65755 0.0
O1413 O 0.51129 0.92002 0.67881 0.0
C1414 C 0.49498 0.95239 0.64253 0.0
H1415 H 0.47121 0.88629 0.6361 0.0
H1416 H 0.55067 0.98557 0.67617 0.0
H1417 H 0.57189 0.90912 0.67409 0.0
H1418 H 0.56313 0.9131 0.61815 0.0
Co1419 Co 0.3203 0.26407 0.90654 0.0
C1420 C 0.3399 0.24708 0.87731 0.0
C1421 C 0.35709 0.25904 0.89613 0.0
C1422 C 0.36697 0.25352 0.88209 0.0
N1423 N 0.34008 0.25496 0.89323 0.0
N1424 N 0.35613 0.24614 0.8702 0.0
H1425 H 0.32809 0.24337 0.87036 0.0
H1426 H 0.36192 0.26678 0.90699 0.0
C1427 C 0.33536 0.27095 0.94353 0.0
O1428 O 0.32158 0.27962 0.94917 0.0
N1429 N 0.30043 0.27331 0.91936 0.0
C1430 C 0.29088 0.28768 0.91535 0.0
C1431 C 0.27761 0.28939 0.92752 0.0
C1432 C 0.29237 0.26603 0.93335 0.0
N1433 N 0.2787 0.27586 0.93893 0.0
C1434 C 0.32736 0.28992 0.8804 0.0
C1435 C 0.34 0.31538 0.90302 0.0
C1436 C 0.34271 0.31741 0.88491 0.0
C1437 C 0.3356 0.3048 0.8735 0.0
C1438 C 0.33178 0.30026 0.90935 0.0
N1439 N 0.32642 0.28737 0.89812 0.0
H1440 H 0.32274 0.27986 0.87151 0.0
H1441 H 0.33037 0.29873 0.92331 0.0
H1442 H 0.29342 0.29643 0.90445 0.0
H1443 H 0.29685 0.2541 0.93967 0.0
O1444 O 0.30403 0.25645 0.88831 0.0
O1445 O 0.31246 0.24065 0.9113 0.0
O1446 O 0.33658 0.26589 0.92754 0.0
C1447 C 0.30321 0.24168 0.89702 0.0
H1448 H 0.38096 0.25549 0.88044 0.0
H1449 H 0.26832 0.30013 0.92828 0.0
H1450 H 0.34516 0.32483 0.91233 0.0
H1451 H 0.33705 0.30604 0.8594 0.0
Co1452 Co 0.49151 0.56657 0.65589 0.0
C1453 C 0.50551 0.58568 0.62559 0.0
C1454 C 0.52274 0.58799 0.64783 0.0
C1455 C 0.53014 0.59677 0.6338 0.0
N1456 N 0.50729 0.58119 0.6426 0.0
N1457 N 0.51929 0.59524 0.61984 0.0
H1458 H 0.4943 0.58203 0.61764 0.0
H1459 H 0.52836 0.58642 0.66078 0.0
C1460 C 0.48862 0.58682 0.69019 0.0
O1461 O 0.47138 0.5859 0.69022 0.0
N1462 N 0.47595 0.55145 0.66926 0.0
C1463 C 0.46296 0.54095 0.66325 0.0
C1464 C 0.45723 0.53035 0.67672 0.0
C1465 C 0.47836 0.54651 0.68611 0.0
N1466 N 0.46693 0.5339 0.69108 0.0
C1467 C 0.45896 0.57658 0.63925 0.0
C1468 C 0.4605 0.61162 0.64867 0.0
C1469 C 0.44598 0.6056 0.63912 0.0
C1470 C 0.44536 0.58786 0.63425 0.0
C1471 C 0.47368 0.59987 0.65353 0.0
N1472 N 0.47244 0.5824 0.64954 0.0
H1473 H 0.45895 0.56339 0.63421 0.0
H1474 H 0.48513 0.60498 0.66016 0.0
H1475 H 0.45868 0.53992 0.64981 0.0
H1476 H 0.48903 0.55118 0.69424 0.0
O1477 O 0.491 0.55033 0.63616 0.0
O1478 O 0.50968 0.54949 0.65857 0.0
O1479 O 0.49756 0.58032 0.67758 0.0
C1480 C 0.50464 0.54306 0.64361 0.0
H1481 H 0.54274 0.60337 0.6338 0.0
H1482 H 0.44712 0.52039 0.67581 0.0
H1483 H 0.4617 0.62532 0.65234 0.0
H1484 H 0.43476 0.58287 0.62617 0.0
Co1485 Co 0.81334 0.23605 0.09146 0.0
C1486 C 0.83236 0.24644 0.12324 0.0
C1487 C 0.83512 0.26573 0.1028 0.0
C1488 C 0.84242 0.27233 0.118 0.0
N1489 N 0.82882 0.24954 0.10618 0.0
N1490 N 0.84062 0.26016 0.13078 0.0
H1491 H 0.82789 0.23492 0.1303 0.0
H1492 H 0.83358 0.27263 0.09047 0.0
C1493 C 0.83249 0.23412 0.05638 0.0
O1494 O 0.82662 0.21821 0.05315 0.0
N1495 N 0.79741 0.22281 0.07678 0.0
C1496 C 0.78889 0.20767 0.08038 0.0
C1497 C 0.77733 0.20415 0.06694 0.0
C1498 C 0.79059 0.22847 0.06145 0.0
N1499 N 0.77848 0.21723 0.05507 0.0
C1500 C 0.8201 0.20358 0.10942 0.0
C1501 C 0.853 0.19763 0.09529 0.0
C1502 C 0.84585 0.18532 0.10687 0.0
C1503 C 0.82939 0.18854 0.11432 0.0
C1504 C 0.84346 0.21268 0.09109 0.0
N1505 N 0.82678 0.21506 0.09733 0.0
H1506 H 0.80756 0.20608 0.11556 0.0
H1507 H 0.84992 0.22256 0.08331 0.0
H1508 H 0.79033 0.19989 0.0921 0.0
H1509 H 0.79414 0.24082 0.05533 0.0
O1510 O 0.7963 0.23595 0.11042 0.0
O1511 O 0.79815 0.25605 0.08938 0.0
O1512 O 0.82865 0.24195 0.07072 0.0
C1513 C 0.79071 0.2507 0.10377 0.0
H1514 H 0.84813 0.28525 0.11967 0.0
H1515 H 0.76869 0.19288 0.06603 0.0
H1516 H 0.8661 0.19589 0.08997 0.0
H1517 H 0.82377 0.17952 0.1238 0.0
Co1518 Co 0.51312 0.06412 0.84435 0.0
C1519 C 0.50253 0.08633 0.87465 0.0
C1520 C 0.48844 0.09318 0.85132 0.0
C1521 C 0.48193 0.103 0.86504 0.0
N1522 N 0.50179 0.0831 0.85721 0.0
N1523 N 0.49081 0.09861 0.87972 0.0
H1524 H 0.51065 0.07921 0.88373 0.0
H1525 H 0.48316 0.09281 0.83814 0.0
C1526 C 0.5143 0.0944 0.81927 0.0
O1527 O 0.52046 0.10417 0.83211 0.0
N1528 N 0.52379 0.04509 0.83173 0.0
C1529 C 0.53638 0.03411 0.83752 0.0
C1530 C 0.5408 0.02288 0.82403 0.0
C1531 C 0.5206 0.04045 0.815 0.0
N1532 N 0.5309 0.02696 0.80988 0.0
C1533 C 0.5425 0.07449 0.86608 0.0
C1534 C 0.56307 0.08666 0.83878 0.0
C1535 C 0.56793 0.09074 0.85607 0.0
C1536 C 0.55793 0.08366 0.86986 0.0
C1537 C 0.54746 0.07759 0.83568 0.0
N1538 N 0.53653 0.07326 0.84924 0.0
H1539 H 0.53534 0.06855 0.87671 0.0
H1540 H 0.54386 0.07466 0.82227 0.0
H1541 H 0.54213 0.03448 0.85051 0.0
H1542 H 0.51088 0.04681 0.80681 0.0
O1543 O 0.50973 0.04901 0.86459 0.0
O1544 O 0.49076 0.05266 0.84269 0.0
O1545 O 0.51128 0.07807 0.82182 0.0
C1546 C 0.49442 0.04548 0.85774 0.0
H1547 H 0.47091 0.11196 0.86442 0.0
H1548 H 0.55084 0.01282 0.8245 0.0
H1549 H 0.57095 0.09092 0.82771 0.0
H1550 H 0.5615 0.08578 0.88346 0.0
Co1551 Co 0.98755 0.93298 0.34348 0.0
C1552 C -0.00095 0.9151 0.37547 0.0
C1553 C 0.01846 0.91303 0.35506 0.0
C1554 C 0.02526 0.90591 0.37028 0.0
N1555 N 0.00206 0.91875 0.35843 0.0
N1556 N 0.01299 0.90726 0.38301 0.0
H1557 H 0.98727 0.91897 0.38244 0.0
H1558 H 0.02522 0.91459 0.34266 0.0
C1559 C 0.9854 0.91165 0.30973 0.0
O1560 O 0.96847 0.91445 0.30781 0.0
N1561 N 0.97322 0.94763 0.32848 0.0
C1562 C 0.95876 0.95702 0.33266 0.0
C1563 C 0.95438 0.96756 0.31867 0.0
C1564 C 0.97764 0.95294 0.31217 0.0
N1565 N 0.96627 0.96494 0.30583 0.0
C1566 C 0.9554 0.92624 0.36196 0.0
C1567 C 0.95107 0.89199 0.35079 0.0
C1568 C 0.93802 0.89966 0.36127 0.0
C1569 C 0.94052 0.9169 0.36721 0.0
C1570 C 0.96579 0.90179 0.34594 0.0
N1571 N 0.9673 0.91906 0.35062 0.0
H1572 H 0.95745 0.93922 0.36724 0.0
H1573 H 0.9761 0.89526 0.33877 0.0
H1574 H 0.95223 0.95711 0.34519 0.0
H1575 H 0.98944 0.94875 0.30543 0.0
O1576 O 0.98752 0.95096 0.36165 0.0
O1577 O 0.00677 0.94873 0.33986 0.0
O1578 O 0.9936 0.91723 0.32324 0.0
C1579 C 0.00171 0.95677 0.35399 0.0
H1580 H 0.03828 0.90043 0.37193 0.0
H1581 H 0.94351 0.97672 0.31813 0.0
H1582 H 0.9501 0.8784 0.34668 0.0
H1583 H 0.93102 0.92318 0.37573 0.0
H1584 H 0.02102 0.15869 0.26765 0.0
H1585 H 0.06638 0.13245 0.24589 0.0
H1586 H 0.00169 0.13902 0.25075 0.0
H1587 H 0.04733 0.11283 0.22949 0.0
H1588 H 0.97502 0.08898 0.2242 0.0
H1589 H 0.99181 0.10722 0.24496 0.0
H1590 H 0.029 0.11942 0.20384 0.0
H1591 H 0.01266 0.10135 0.18347 0.0
C1592 C 0.02682 0.1485 0.25958 0.0
C1593 C 0.04517 0.1473 0.25778 0.0
C1594 C 0.01579 0.13726 0.24994 0.0
C1595 C 0.02302 0.12466 0.2385 0.0
C1596 C 0.04136 0.12272 0.23781 0.0
C1597 C 0.05228 0.13394 0.24724 0.0
C1598 C 0.98674 0.09567 0.21965 0.0
C1599 C 0.99263 0.09351 0.20225 0.0
C1600 C 0.99631 0.10611 0.2315 0.0
C1601 C 0.0119 0.11446 0.22611 0.0
C1602 C 0.01731 0.11277 0.20855 0.0
C1603 C 0.00786 0.10243 0.19682 0.0
H1604 H 0.13533 0.73785 0.44267 0.0
H1605 H 0.17874 0.75547 0.4745 0.0
H1606 H 0.11496 0.75407 0.46128 0.0
H1607 H 0.15893 0.77305 0.49211 0.0
H1608 H 0.12116 0.80064 0.5264 0.0
H1609 H 0.13808 0.77733 0.51246 0.0
H1610 H 0.10472 0.78121 0.46646 0.0
H1611 H 0.08703 0.80313 0.48129 0.0
C1612 C 0.14046 0.74524 0.4537 0.0
C1613 C 0.15853 0.74543 0.45721 0.0
C1614 C 0.12884 0.75476 0.46429 0.0
C1615 C 0.13513 0.76525 0.47823 0.0
C1616 C 0.1533 0.76497 0.48187 0.0
C1617 C 0.16479 0.75496 0.47166 0.0
C1618 C 0.11733 0.79613 0.51345 0.0
C1619 C 0.10287 0.80361 0.50488 0.0
C1620 C 0.12714 0.78291 0.50529 0.0
C1621 C 0.12314 0.7774 0.48804 0.0
C1622 C 0.10822 0.78466 0.47979 0.0
C1623 C 0.09806 0.7974 0.48824 0.0
H1624 H 0.51948 0.86983 0.69256 0.0
H1625 H 0.49379 0.91842 0.70695 0.0
H1626 H 0.50356 0.85457 0.71594 0.0
H1627 H 0.47786 0.90307 0.73014 0.0
H1628 H 0.43302 0.86136 0.74019 0.0
H1629 H 0.45396 0.8794 0.72407 0.0
H1630 H 0.49693 0.85331 0.75037 0.0
H1631 H 0.47573 0.83531 0.76697 0.0
C1632 C 0.51075 0.87733 0.70093 0.0
C1633 C 0.50768 0.89527 0.69769 0.0
C1634 C 0.50173 0.8686 0.71438 0.0
C1635 C 0.48939 0.87763 0.72469 0.0
C1636 C 0.48723 0.8958 0.72225 0.0
C1637 C 0.49637 0.90456 0.70897 0.0
C1638 C 0.44693 0.85962 0.74273 0.0
C1639 C 0.4528 0.84694 0.75477 0.0
C1640 C 0.4589 0.87003 0.7336 0.0
C1641 C 0.47704 0.86779 0.73605 0.0
C1642 C 0.48299 0.85529 0.74831 0.0
C1643 C 0.47091 0.84509 0.75781 0.0
H1644 H 0.39813 0.22264 0.02869 0.0
H1645 H 0.40014 0.19186 0.98099 0.0
H1646 H 0.3813 0.24537 0.01305 0.0
H1647 H 0.38352 0.21417 0.96573 0.0
H1648 H 0.36912 0.26135 0.93665 0.0
H1649 H 0.38865 0.2447 0.95564 0.0
H1650 H 0.35114 0.24872 0.99801 0.0
H1651 H 0.33155 0.26573 0.97896 0.0
C1652 C 0.39498 0.22069 0.01496 0.0
C1653 C 0.40051 0.20542 0.00612 0.0
C1654 C 0.38536 0.23368 0.00603 0.0
C1655 C 0.38135 0.23167 0.9881 0.0
C1656 C 0.38674 0.21631 0.97943 0.0
C1657 C 0.39615 0.2034 0.98828 0.0
C1658 C 0.36515 0.25902 0.9501 0.0
C1659 C 0.34865 0.26458 0.95618 0.0
C1660 C 0.37634 0.24944 0.96098 0.0
C1661 C 0.37123 0.24506 0.97817 0.0
C1662 C 0.35541 0.25189 0.98481 0.0
C1663 C 0.3442 0.26163 0.97389 0.0
H1664 H 0.04257 0.83338 0.25153 0.0
H1665 H 0.06532 0.88259 0.23447 0.0
H1666 H 0.01909 0.84949 0.26645 0.0
H1667 H 0.04186 0.89852 0.24926 0.0
H1668 H 0.02006 0.91568 0.30347 0.0
H1669 H 0.03825 0.90045 0.28225 0.0
H1670 H 0.99294 0.87185 0.26358 0.0
H1671 H 0.97437 0.88745 0.28504 0.0
C1672 C 0.04237 0.84759 0.25063 0.0
C1673 C 0.05602 0.85672 0.2421 0.0
C1674 C 0.02885 0.85678 0.25908 0.0
C1675 C 0.0288 0.87524 0.25919 0.0
C1676 C 0.04172 0.88429 0.24957 0.0
C1677 C 0.05516 0.87514 0.24109 0.0
C1678 C 0.01387 0.90623 0.29481 0.0
C1679 C 0.99578 0.90268 0.29599 0.0
C1680 C 0.02429 0.89762 0.28252 0.0
C1681 C 0.01699 0.88506 0.27118 0.0
C1682 C -0.00114 0.88151 0.27218 0.0
C1683 C 0.98827 0.89044 0.28438 0.0
H1684 H 0.35944 0.72776 0.53426 0.0
H1685 H 0.33379 0.77538 0.55154 0.0
H1686 H 0.37513 0.7446 0.51161 0.0
H1687 H 0.34925 0.79197 0.52907 0.0
H1688 H 0.36805 0.81618 0.4798 0.0
H1689 H 0.35089 0.79457 0.49606 0.0
H1690 H 0.39866 0.76887 0.51261 0.0
H1691 H 0.41594 0.79044 0.49629 0.0
C1692 C 0.35705 0.74175 0.53313 0.0
C1693 C 0.34548 0.75027 0.54473 0.0
C1694 C 0.36603 0.75135 0.52022 0.0
C1695 C 0.36328 0.76954 0.51851 0.0
C1696 C 0.35142 0.77792 0.52988 0.0
C1697 C 0.34269 0.76843 0.54288 0.0
C1698 C 0.37492 0.8057 0.48656 0.0
C1699 C 0.39337 0.80523 0.48702 0.0
C1700 C 0.36507 0.79337 0.49592 0.0
C1701 C 0.37347 0.78023 0.50581 0.0
C1702 C 0.39185 0.77884 0.50508 0.0
C1703 C 0.40173 0.79126 0.49579 0.0
H1704 H 0.48066 0.16582 0.7356 0.0
H1705 H 0.43947 0.12818 0.74611 0.0
H1706 H 0.50105 0.14824 0.75316 0.0
H1707 H 0.4596 0.11088 0.7637 0.0
H1708 H 0.51618 0.12914 0.81026 0.0
H1709 H 0.50247 0.14342 0.78515 0.0
H1710 H 0.48607 0.09285 0.76526 0.0
H1711 H 0.49956 0.07852 0.79055 0.0
C1712 C 0.47605 0.15361 0.74127 0.0
C1713 C 0.45837 0.14851 0.73962 0.0
C1714 C 0.4877 0.14361 0.75144 0.0
C1715 C 0.48191 0.12826 0.75996 0.0
C1716 C 0.46457 0.12255 0.75721 0.0
C1717 C 0.45294 0.13257 0.74721 0.0
C1718 C 0.50994 0.12102 0.80038 0.0
C1719 C 0.50869 0.10272 0.80259 0.0
C1720 C 0.50218 0.12921 0.78589 0.0
C1721 C 0.49302 0.11928 0.77329 0.0
C1722 C 0.49281 0.10087 0.77489 0.0
C1723 C 0.50058 0.09267 0.78937 0.0
H1724 H 0.10247 0.21519 0.97505 0.0
H1725 H 0.07606 0.19745 0.02208 0.0
H1726 H 0.11922 0.23652 0.99267 0.0
H1727 H 0.09249 0.21858 0.03942 0.0
H1728 H 0.11383 0.26536 0.06573 0.0
H1729 H 0.0959 0.25127 0.04329 0.0
H1730 H 0.14278 0.23306 0.01707 0.0
H1731 H 0.16086 0.24725 0.03951 0.0
C1732 C 0.10008 0.21603 0.98906 0.0
C1733 C 0.08805 0.20462 0.99723 0.0
C1734 C 0.10968 0.22814 -0.00089 0.0
C1735 C 0.10706 0.22926 0.01738 0.0
C1736 C 0.09461 0.21821 0.02534 0.0
C1737 C 0.0853 0.206 0.01542 0.0
C1738 C 0.12037 0.25867 0.05501 0.0
C1739 C 0.13877 0.25714 0.0546 0.0
C1740 C 0.11008 0.25059 0.04217 0.0
C1741 C 0.11796 0.24087 0.0286 0.0
C1742 C 0.13637 0.24052 0.02736 0.0
C1743 C 0.14671 0.24857 0.04027 0.0
H1744 H 0.23327 0.04413 0.16698 0.0
H1745 H 0.26435 0.05112 0.12006 0.0
H1746 H 0.21584 0.0219 0.15231 0.0
H1747 H 0.2477 0.0279 0.10556 0.0
H1748 H 0.19787 0.0083 0.07781 0.0
H1749 H 0.22063 0.02476 0.09274 0.0
H1750 H 0.2112 0.99471 0.14012 0.0
H1751 H 0.1875 0.97905 0.1253 0.0
C1752 C 0.23673 0.04049 0.15366 0.0
C1753 C 0.25004 0.0495 0.14459 0.0
C1754 C 0.22677 0.0276 0.14521 0.0
C1755 C 0.23011 0.02311 0.12756 0.0
C1756 C 0.24433 0.0313 0.11895 0.0
C1757 C 0.25402 0.04451 0.1273 0.0
C1758 C 0.20084 0.00502 0.09134 0.0
C1759 C 0.19076 0.99253 0.10045 0.0
C1760 C 0.21405 0.01441 0.09995 0.0
C1761 C 0.21779 0.0113 0.11781 0.0
C1762 C 0.20844 0.99789 0.12653 0.0
C1763 C 0.19494 0.98876 0.11801 0.0
H1764 H 0.18347 0.01409 0.36684 0.0
H1765 H 0.20638 0.99677 0.41586 0.0
H1766 H 0.2061 0.99826 0.3507 0.0
H1767 H 0.22912 0.98093 0.39952 0.0
H1768 H 0.27331 0.96253 0.36009 0.0
H1769 H 0.25512 0.98391 0.37621 0.0
H1770 H 0.20899 0.96463 0.34942 0.0
H1771 H 0.22683 0.94338 0.3337 0.0
C1772 C 0.19351 0.0072 0.37421 0.0
C1773 C 0.19293 0.00647 0.39266 0.0
C1774 C 0.20646 0.99812 0.36493 0.0
C1775 C 0.21922 0.98822 0.37386 0.0
C1776 C 0.21947 0.98851 0.39232 0.0
C1777 C 0.20639 0.99751 0.40165 0.0
C1778 C 0.2593 0.963 0.35763 0.0
C1779 C 0.25148 0.95125 0.34571 0.0
C1780 C 0.24892 0.97515 0.36686 0.0
C1781 C 0.23069 0.97599 0.36394 0.0
C1782 C 0.22303 0.96445 0.35177 0.0
C1783 C 0.23326 0.95217 0.34287 0.0
H1784 H 0.30258 0.97172 0.58062 0.0
H1785 H 0.28122 0.01874 0.60419 0.0
H1786 H 0.28135 0.95398 0.59643 0.0
H1787 H 0.25972 0.0007 0.62027 0.0
H1788 H 0.24651 0.95521 0.66231 0.0
H1789 H 0.26181 0.97733 0.64473 0.0
H1790 H 0.24889 0.9487 0.5975 0.0
H1791 H 0.23374 0.92656 0.61495 0.0
C1792 C 0.29327 0.9783 0.58914 0.0
C1793 C 0.29364 0.99664 0.59123 0.0
C1794 C 0.28097 0.96811 0.59808 0.0
C1795 C 0.26879 0.97596 0.60949 0.0
C1796 C 0.26899 0.99433 0.61154 0.0
C1797 C 0.28122 0.00463 0.60232 0.0
C1798 C 0.24662 0.95381 0.64814 0.0
C1799 C 0.23916 0.93894 0.64006 0.0
C1800 C 0.25531 0.96654 0.63808 0.0
C1801 C 0.25674 0.96459 0.61978 0.0
C1802 C 0.24822 0.95039 0.61162 0.0
C1803 C 0.2395 0.93772 0.62164 0.0
H1804 H 0.2366 0.0593 0.87261 0.0
H1805 H 0.23845 0.01726 0.83459 0.0
H1806 H 0.25298 0.04128 0.89339 0.0
H1807 H 0.25521 -0.00072 0.85526 0.0
H1808 H 0.28078 0.96875 0.9008 0.0
H1809 H 0.25795 0.98361 0.88356 0.0
H1810 H 0.28365 0.0334 0.8928 0.0
H1811 H 0.30599 0.01884 0.91002 0.0
C1812 C 0.24034 0.04611 0.86879 0.0
C1813 C 0.23658 0.0398 0.85189 0.0
C1814 C 0.24975 0.03579 0.88066 0.0
C1815 C 0.25578 0.01901 0.87582 0.0
C1816 C 0.25076 0.01214 0.85941 0.0
C1817 C 0.24116 0.02245 0.84756 0.0
C1818 C 0.28145 0.98287 0.89919 0.0
C1819 C 0.29523 0.99258 0.90679 0.0
C1820 C 0.2684 0.99137 0.88931 0.0
C1821 C 0.26886 0.00971 0.88697 0.0
C1822 C 0.28261 0.01932 0.89467 0.0
C1823 C 0.29557 0.0109 0.90443 0.0
H1824 H 0.62902 0.31049 0.02236 0.0
H1825 H 0.5805 0.2911 4e-05 0.0
H1826 H 0.64524 0.28775 0.00673 0.0
H1827 H 0.59688 0.26832 0.98441 0.0
H1828 H 0.63426 0.22449 0.96361 0.0
H1829 H 0.61845 0.24124 0.98639 0.0
H1830 H 0.64892 0.28732 0.97335 0.0
H1831 H 0.66429 0.27091 0.95072 0.0
C1832 C 0.62174 0.30115 0.01447 0.0
C1833 C 0.60349 0.30285 0.01218 0.0
C1834 C 0.63106 0.28813 0.00551 0.0
C1835 C 0.62234 0.27644 0.99419 0.0
C1836 C 0.60393 0.27713 0.99309 0.0
C1837 C 0.59458 0.29026 0.00197 0.0
C1838 C 0.63764 0.23814 0.96583 0.0
C1839 C 0.65038 0.24646 0.95535 0.0
C1840 C 0.6286 0.2477 0.97878 0.0
C1841 C 0.63256 0.26553 0.98169 0.0
C1842 C 0.64575 0.27355 0.97158 0.0
C1843 C 0.65444 0.26418 0.95851 0.0
H1844 H 0.02296 0.39675 0.22168 0.0
H1845 H 0.98234 0.38832 0.18287 0.0
H1846 H 0.00661 0.37823 0.24254 0.0
H1847 H 0.96641 0.36995 0.20337 0.0
H1848 H 0.93089 0.35816 0.24751 0.0
H1849 H 0.95023 0.377 0.23056 0.0
H1850 H 0.99505 0.34657 0.24748 0.0
H1851 H 0.97543 0.32763 0.26494 0.0
C1852 C 0.01069 0.39083 0.21755 0.0
C1853 C 0.00381 0.39423 0.20072 0.0
C1854 C 0.00138 0.38023 0.22946 0.0
C1855 C 0.98508 0.37296 0.22469 0.0
C1856 C 0.97871 0.37575 0.2076 0.0
C1857 C 0.9879 0.38626 0.19582 0.0
C1858 C 0.94489 0.35554 0.24778 0.0
C1859 C 0.95165 0.34125 0.25727 0.0
C1860 C 0.95597 0.36632 0.23804 0.0
C1861 C 0.9741 0.36299 0.23735 0.0
C1862 C 0.98111 0.34939 0.24775 0.0
C1863 C 0.96992 0.33858 0.2577 0.0
H1864 H 0.91315 0.72808 0.51557 0.0
H1865 H 0.87702 0.68714 0.50026 0.0
H1866 H 0.89566 0.7496 0.499 0.0
H1867 H 0.85968 0.70836 0.48386 0.0
H1868 H 0.82688 0.74931 0.45987 0.0
H1869 H 0.84102 0.735 0.4848 0.0
H1870 H 0.89166 0.75273 0.46629 0.0
H1871 H 0.87756 0.76719 0.44143 0.0
C1872 C 0.9012 0.72382 0.5091 0.0
C1873 C 0.89645 0.70599 0.50903 0.0
C1874 C 0.89129 0.73606 0.49953 0.0
C1875 C 0.87634 0.73066 0.49007 0.0
C1876 C 0.871 0.71301 0.49113 0.0
C1877 C 0.881 0.70081 0.50041 0.0
C1878 C 0.84099 0.75048 0.46129 0.0
C1879 C 0.85113 0.7591 0.44845 0.0
C1880 C 0.84908 0.74226 0.47558 0.0
C1881 C 0.86746 0.74256 0.47739 0.0
C1882 C 0.87746 0.75236 0.46533 0.0
C1883 C 0.86938 0.76054 0.45099 0.0
H1884 H 0.01071 0.61664 0.31013 0.0
H1885 H 0.01102 0.58102 0.26593 0.0
H1886 H 0.99639 0.63887 0.29213 0.0
H1887 H 0.99629 0.60322 0.24798 0.0
H1888 H 0.97331 0.65146 0.21885 0.0
H1889 H 0.99535 0.63329 0.234 0.0
H1890 H 0.96592 0.63823 0.28229 0.0
H1891 H 0.94437 0.6562 0.26752 0.0
C1892 C 0.00798 0.61366 0.29648 0.0
C1893 C 0.01167 0.59697 0.28954 0.0
C1894 C -0.00025 0.62638 0.28617 0.0
C1895 C 0.99485 0.62265 0.26875 0.0
C1896 C -0.0001 0.6065 0.26135 0.0
C1897 C 0.0083 0.59377 0.27166 0.0
C1898 C 0.9717 0.64873 0.23273 0.0
C1899 C 0.95703 0.65518 0.24193 0.0
C1900 C 0.98427 0.63833 0.24137 0.0
C1901 C 0.98247 0.63448 0.25938 0.0
C1902 C 0.96793 0.64122 0.26851 0.0
C1903 C 0.95542 0.65139 0.25994 0.0
H1904 H 0.52091 0.42248 0.79836 0.0
H1905 H 0.47402 0.39508 0.7818 0.0
H1906 H 0.53804 0.40657 0.77674 0.0
H1907 H 0.49143 0.37891 0.75987 0.0
H1908 H 0.53793 0.33798 0.7475 0.0
H1909 H 0.51567 0.35588 0.76211 0.0
H1910 H 0.54207 0.40297 0.74461 0.0
H1911 H 0.56442 0.38518 0.73019 0.0
C1912 C 0.51421 0.41315 0.78994 0.0
C1913 C 0.49614 0.40993 0.79185 0.0
C1914 C 0.52403 0.40414 0.77742 0.0
C1915 C 0.51608 0.39154 0.76654 0.0
C1916 C 0.49789 0.38855 0.76812 0.0
C1917 C 0.48794 0.39782 0.78058 0.0
C1918 C 0.53879 0.35215 0.74645 0.0
C1919 C 0.55315 0.36016 0.73796 0.0
C1920 C 0.52596 0.3624 0.75474 0.0
C1921 C 0.52728 0.38082 0.75471 0.0
C1922 C 0.54089 0.38879 0.74508 0.0
C1923 C 0.55368 0.37858 0.73679 0.0
H1924 H 0.47661 0.61098 0.71436 0.0
H1925 H 0.5227 0.58168 0.69887 0.0
H1926 H 0.49411 0.62629 0.7368 0.0
H1927 H 0.53993 0.59681 0.7209 0.0
H1928 H 0.56655 0.61709 0.76757 0.0
H1929 H 0.54379 0.60017 0.75274 0.0
H1930 H 0.5189 0.64827 0.73582 0.0
H1931 H 0.54149 0.66528 0.75093 0.0
C1932 C 0.49036 0.60767 0.71589 0.0
C1933 C 0.49831 0.59525 0.70477 0.0
C1934 C 0.50037 0.61645 0.72866 0.0
C1935 C 0.51838 0.61269 0.73068 0.0
C1936 C 0.52605 0.59983 0.71992 0.0
C1937 C 0.51618 0.59127 0.70713 0.0
C1938 C 0.55603 0.62409 0.76101 0.0
C1939 C 0.55604 0.64253 0.76015 0.0
C1940 C 0.54301 0.61438 0.75247 0.0
C1941 C 0.52973 0.62289 0.74285 0.0
C1942 C 0.52892 0.64134 0.74316 0.0
C1943 C 0.54195 0.65107 0.75175 0.0
H1944 H 0.85174 0.26349 0.06248 0.0
H1945 H 0.84017 0.22535 0.02201 0.0
H1946 H 0.86974 0.27989 0.04207 0.0
H1947 H 0.85835 0.2422 0.00123 0.0
H1948 H 0.88214 0.31713 -0.00044 0.0
H1949 H 0.86289 0.29787 0.01616 0.0
H1950 H 0.89012 0.25254 0.99557 0.0
H1951 H 0.90944 0.27208 0.97848 0.0
C1952 C 0.85299 0.25859 0.04918 0.0
C1953 C 0.84429 0.24321 0.04383 0.0
C1954 C 0.8633 0.26807 0.03743 0.0
C1955 C 0.86518 0.26254 0.01994 0.0
C1956 C 0.85707 0.24679 0.01464 0.0
C1957 C 0.84667 0.23719 0.0265 0.0
C1958 C 0.88396 0.30305 0.99841 0.0
C1959 C 0.89749 0.2961 0.98798 0.0
C1960 C 0.87294 0.29201 0.00795 0.0
C1961 C 0.87527 0.27371 0.0075 0.0
C1962 C 0.88807 0.26661 0.9962 0.0
C1963 C 0.89911 0.27776 0.98645 0.0
H1964 H 0.58211 0.72839 0.48213 0.0
H1965 H 0.61797 0.68527 0.49085 0.0
H1966 H 0.6012 0.74769 0.49947 0.0
H1967 H 0.63698 0.70449 0.50792 0.0
H1968 H 0.64669 0.73235 0.55966 0.0
H1969 H 0.63037 0.71654 0.53756 0.0
H1970 H 0.63187 0.76191 0.50351 0.0
H1971 H 0.6485 0.77812 0.52601 0.0
C1972 C 0.59429 0.72316 0.48734 0.0
C1973 C 0.59839 0.70523 0.48546 0.0
C1974 C 0.6052 0.73422 0.49724 0.0
C1975 C 0.62037 0.72749 0.50533 0.0
C1976 C 0.62515 0.70993 0.50217 0.0
C1977 C 0.61427 0.69892 0.49239 0.0
C1978 C 0.64363 0.7391 0.54753 0.0
C1979 C 0.64904 0.75654 0.54463 0.0
C1980 C 0.63434 0.72992 0.53476 0.0
C1981 C 0.63012 0.73786 0.51867 0.0
C1982 C 0.63504 0.75545 0.5158 0.0
C1983 C 0.64453 0.76471 0.52866 0.0
H1984 H 0.69179 0.48125 0.62934 0.0
H1985 H 0.70254 0.50907 0.58105 0.0
H1986 H 0.7153 0.49751 0.64387 0.0
H1987 H 0.72511 0.526 0.59563 0.0
H1988 H 0.76846 0.55337 0.62247 0.0
H1989 H 0.75219 0.52942 0.60871 0.0
H1990 H 0.71933 0.52544 0.65495 0.0
H1991 H 0.73626 0.54843 0.66893 0.0
C1992 C 0.69925 0.49076 0.62181 0.0
C1993 C 0.69519 0.49398 0.60411 0.0
C1994 C 0.71266 0.5002 0.63015 0.0
C1995 C 0.72205 0.51335 0.62107 0.0
C1996 C 0.71847 0.51588 0.6031 0.0
C1997 C 0.70535 0.50621 0.59471 0.0
C1998 C 0.75797 0.54708 0.62977 0.0
C1999 C 0.75354 0.5529 0.6467 0.0
C2000 C 0.74852 0.53344 0.62185 0.0
C2001 C 0.73415 0.52558 0.63053 0.0
C2002 C 0.73038 0.53088 0.64784 0.0
C2003 C 0.74005 0.54423 0.65587 0.0
H2004 H 0.7589 0.43377 0.87305 0.0
H2005 H 0.75319 0.4583 0.82215 0.0
H2006 H 0.74152 0.45704 0.88623 0.0
H2007 H 0.73622 0.48197 0.83546 0.0
H2008 H 0.68332 0.49979 0.86063 0.0
H2009 H 0.70701 0.48357 0.84666 0.0
H2010 H 0.73758 0.48694 0.89442 0.0
H2011 H 0.71357 0.50269 0.90858 0.0
C2012 C 0.75436 0.44441 0.86474 0.0
C2013 C 0.7572 0.44403 0.84652 0.0
C2014 C 0.74443 0.45785 0.87233 0.0
C2015 C 0.73724 0.47131 0.86188 0.0
C2016 C 0.74122 0.47161 0.84383 0.0
C2017 C 0.75105 0.45809 0.83622 0.0
C2018 C 0.69523 0.49739 0.86804 0.0
C2019 C 0.69645 0.5023 0.88578 0.0
C2020 C 0.7089 0.48814 0.86 0.0
C2021 C 0.72417 0.48373 0.86948 0.0
C2022 C 0.72587 0.48977 0.88685 0.0
C2023 C 0.71213 0.49889 0.89494 0.0
H2024 H 0.7217 0.46908 0.14986 0.0
H2025 H 0.76695 0.43473 0.1492 0.0
H2026 H 0.73806 0.49063 0.13224 0.0
H2027 H 0.78295 0.45592 0.13175 0.0
H2028 H 0.76975 0.51114 0.08206 0.0
H2029 H 0.75123 0.49389 0.10192 0.0
H2030 H 0.79591 0.48513 0.13579 0.0
H2031 H 0.81438 0.50209 0.11597 0.0
C2032 C 0.73505 0.46609 0.14594 0.0
C2033 C 0.74301 0.45019 0.15102 0.0
C2034 C 0.74439 0.47841 0.13585 0.0
C2035 C 0.76188 0.47509 0.13083 0.0
C2036 C 0.76965 0.45909 0.13574 0.0
C2037 C 0.76038 0.44684 0.14567 0.0
C2038 C 0.77552 0.50581 0.09393 0.0
C2039 C 0.79361 0.50771 0.09727 0.0
C2040 C 0.7649 0.49596 0.10531 0.0
C2041 C 0.77219 0.48787 0.12024 0.0
C2042 C 0.78999 0.49084 0.12417 0.0
C2043 C 0.80058 0.5006 0.11282 0.0
H2044 H 0.76739 0.48252 0.41612 0.0
H2045 H 0.80814 0.48021 0.3767 0.0
H2046 H 0.74869 0.49898 0.3958 0.0
H2047 H 0.78944 0.49645 0.35639 0.0
H2048 H 0.768 0.55126 0.34337 0.0
H2049 H 0.78229 0.52804 0.35962 0.0
H2050 H 0.7325 0.50165 0.36641 0.0
H2051 H 0.71787 0.52529 0.3499 0.0
C2052 C 0.77211 0.485 0.40292 0.0
C2053 C 0.78937 0.48048 0.3981 0.0
C2054 C 0.76139 0.49442 0.39129 0.0
C2055 C 0.76778 0.49934 0.37467 0.0
C2056 C 0.78434 0.49319 0.36928 0.0
C2057 C 0.79505 0.4839 0.38089 0.0
C2058 C 0.75998 0.54055 0.34824 0.0
C2059 C 0.74174 0.5402 0.34538 0.0
C2060 C 0.76826 0.52709 0.35741 0.0
C2061 C 0.75857 0.51288 0.36408 0.0
C2062 C 0.74029 0.51244 0.36134 0.0
C2063 C 0.73194 0.52593 0.35191 0.0
H2064 H 0.14938 0.20753 0.14596 0.0
H2065 H 0.13753 0.26265 0.15151 0.0
H2066 H 0.14028 0.20245 0.17645 0.0
H2067 H 0.12789 0.25751 0.18196 0.0
H2068 H 0.08701 0.22343 0.2198 0.0
H2069 H 0.10038 0.23529 0.19303 0.0
H2070 H 0.15083 0.21523 0.20935 0.0
H2071 H 0.13757 0.20386 0.23644 0.0
C2072 C 0.14478 0.21851 0.15375 0.0
C2073 C 0.14398 0.23543 0.14648 0.0
C2074 C 0.13978 0.21567 0.17117 0.0
C2075 C 0.13355 0.22964 0.18148 0.0
C2076 C 0.13278 0.24659 0.17424 0.0
C2077 C 0.13822 0.24951 0.15693 0.0
C2078 C 0.10107 0.22219 0.21797 0.0
C2079 C 0.11131 0.21286 0.23015 0.0
C2080 C 0.10869 0.22894 0.20269 0.0
C2081 C 0.12656 0.22604 0.1992 0.0
C2082 C 0.13702 0.21762 0.21185 0.0
C2083 C 0.12948 0.21127 0.22737 0.0
H2084 H 0.04209 0.90969 0.40312 0.0
H2085 H 0.98765 0.89385 0.40386 0.0
H2086 H 0.04531 0.90008 0.43363 0.0
H2087 H 0.99086 0.88411 0.4344 0.0
H2088 H 0.02017 0.84321 0.47295 0.0
H2089 H 0.00993 0.85841 0.44661 0.0
H2090 H 0.03338 0.90659 0.46527 0.0
H2091 H 0.04332 0.89138 0.49189 0.0
C2092 C 0.03082 0.9042 0.40987 0.0
C2093 C 0.01468 0.90232 0.40115 0.0
C2094 C 0.03258 0.89895 0.42735 0.0
C2095 C 0.01828 0.89147 0.43635 0.0
C2096 C 0.00204 0.8899 0.42775 0.0
C2097 C 0.00021 0.89545 0.41034 0.0
C2098 C 0.02251 0.8572 0.47171 0.0
C2099 C 0.03242 0.86619 0.48438 0.0
C2100 C 0.01667 0.86589 0.45667 0.0
C2101 C 0.02101 0.88361 0.4539 0.0
C2102 C 0.02993 0.8929 0.46714 0.0
C2103 C 0.03544 0.88427 0.4824 0.0
H2104 H 0.3361 0.7951 0.65357 0.0
H2105 H 0.35296 0.74096 0.65256 0.0
H2106 H 0.3457 0.79753 0.6841 0.0
H2107 H 0.36251 0.74334 0.68319 0.0
H2108 H 0.40304 0.77119 0.7226 0.0
H2109 H 0.38752 0.76108 0.69646 0.0
H2110 H 0.34 0.78587 0.71509 0.0
H2111 H 0.35557 0.79584 0.74141 0.0
C2112 C 0.34179 0.78372 0.65993 0.0
C2113 C 0.34398 0.76791 0.65068 0.0
C2114 C 0.34703 0.78501 0.67746 0.0
C2115 C 0.35475 0.77058 0.68603 0.0
C2116 C 0.35657 0.75464 0.6769 0.0
C2117 C 0.3511 0.75328 0.65942 0.0
C2118 C 0.3891 0.77382 0.72144 0.0
C2119 C 0.38047 0.78426 0.73396 0.0
C2120 C 0.38021 0.76806 0.70648 0.0
C2121 C 0.36263 0.77291 0.70367 0.0
C2122 C 0.3536 0.78209 0.71691 0.0
C2123 C 0.36244 0.7876 0.73206 0.0
H2124 H 0.47461 0.16336 0.97126 0.0
H2125 H 0.45715 0.11182 0.9872 0.0
H2126 H 0.48683 0.15105 0.94436 0.0
H2127 H 0.4688 0.09946 0.95993 0.0
H2128 H 0.49742 0.08154 0.9105 0.0
H2129 H 0.49282 0.09269 0.94014 0.0
H2130 H 0.47195 0.1409 0.91857 0.0
H2131 H 0.47734 0.13011 0.88903 0.0
C2132 C 0.47384 0.14929 0.96918 0.0
C2133 C 0.46494 0.13852 0.98121 0.0
C2134 C 0.48062 0.14227 0.95369 0.0
C2135 C 0.47835 0.12436 0.94976 0.0
C2136 C 0.47079 0.11331 0.96255 0.0
C2137 C 0.46419 0.12034 0.97822 0.0
C2138 C 0.49214 0.09464 0.91206 0.0
C2139 C 0.48783 0.10498 0.89732 0.0
C2140 C 0.48934 0.10095 0.92909 0.0
C2141 C 0.48218 0.11775 0.93178 0.0
C2142 C 0.47785 0.12804 0.91703 0.0
C2143 C 0.48067 0.12176 0.90004 0.0
H2144 H 0.14406 0.73471 0.34452 0.0
H2145 H 0.1467 0.79001 0.35656 0.0
H2146 H 0.13614 0.7417 0.31401 0.0
H2147 H 0.13926 0.79704 0.32597 0.0
H2148 H 0.14179 0.80083 0.2653 0.0
H2149 H 0.15411 0.7899 0.2931 0.0
H2150 H 0.10674 0.7601 0.30235 0.0
H2151 H 0.09423 0.77152 0.27498 0.0
C2152 C 0.14308 0.74834 0.34054 0.0
C2153 C 0.14579 0.76185 0.35281 0.0
C2154 C 0.13861 0.75231 0.32317 0.0
C2155 C 0.13729 0.76988 0.31771 0.0
C2156 C 0.14041 0.7834 0.32988 0.0
C2157 C 0.14445 0.77941 0.34735 0.0
C2158 C 0.13433 0.79145 0.27301 0.0
C2159 C 0.11721 0.78678 0.26803 0.0
C2160 C 0.14127 0.78538 0.28893 0.0
C2161 C 0.13131 0.77422 0.29977 0.0
C2162 C 0.11468 0.76859 0.29412 0.0
C2163 C 0.10758 0.77504 0.27849 0.0
H2164 H 0.45735 0.88923 0.51225 0.0
H2165 H 0.47313 0.83713 0.52807 0.0
H2166 H 0.46807 0.90094 0.54026 0.0
H2167 H 0.48446 0.84874 0.55561 0.0
H2168 H 0.47635 0.86889 0.61098 0.0
H2169 H 0.47001 0.85894 0.58137 0.0
H2170 H 0.49197 0.90694 0.56037 0.0
H2171 H 0.49745 0.91733 0.59014 0.0
C2172 C 0.46372 0.88043 0.52146 0.0
C2173 C 0.46438 0.86231 0.51814 0.0
C2174 C 0.4698 0.88709 0.53752 0.0
C2175 C 0.47676 0.8757 0.55036 0.0
C2176 C 0.47869 0.85779 0.54627 0.0
C2177 C 0.4724 0.85116 0.53041 0.0
C2178 C 0.47969 0.87741 0.6001 0.0
C2179 C 0.48746 0.89388 0.60303 0.0
C2180 C 0.47631 0.87159 0.58305 0.0
C2181 C 0.48071 0.88204 0.56843 0.0
C2182 C 0.4884 0.89857 0.57132 0.0
C2183 C 0.49173 0.90444 0.58843 0.0
H2184 H 0.33982 0.22115 0.85075 0.0
H2185 H 0.38236 0.25872 0.84976 0.0
H2186 H 0.34846 0.21069 0.82161 0.0
H2187 H 0.39093 0.24836 0.82077 0.0
H2188 H 0.4155 0.2064 0.78478 0.0
H2189 H 0.40432 0.22105 0.81078 0.0
H2190 H 0.35164 0.2185 0.78976 0.0
H2191 H 0.36296 0.20349 0.76352 0.0
C2192 C 0.35087 0.2273 0.84423 0.0
C2193 C 0.36061 0.24051 0.8527 0.0
C2194 C 0.35576 0.22139 0.82752 0.0
C2195 C 0.37046 0.22861 0.81897 0.0
C2196 C 0.37974 0.24231 0.82717 0.0
C2197 C 0.37489 0.24817 0.84383 0.0
C2198 C 0.40155 0.20915 0.78557 0.0
C2199 C 0.39008 0.20378 0.77218 0.0
C2200 C 0.39515 0.21765 0.80044 0.0
C2201 C 0.37709 0.22093 0.80233 0.0
C2202 C 0.36561 0.21602 0.78869 0.0
C2203 C 0.37208 0.2076 0.77365 0.0
H2204 H 0.03857 0.10692 0.0068 0.0
H2205 H 0.01233 0.15399 0.02442 0.0
H2206 H 0.02854 0.09148 0.03318 0.0
H2207 H 0.00207 0.13854 0.05059 0.0
H2208 H 0.98266 0.10304 0.09483 0.0
H2209 H 0.98492 0.11238 0.06405 0.0
H2210 H 0.04011 0.09921 0.06426 0.0
H2211 H 0.03783 0.09 0.09494 0.0
C2212 C 0.02992 0.11368 0.01586 0.0
C2213 C 0.02619 0.13161 0.01366 0.0
C2214 C 0.02437 0.10493 0.03103 0.0
C2215 C 0.01475 0.11391 0.04398 0.0
C2216 C 0.00942 0.13129 0.04079 0.0
C2217 C 0.01524 0.14012 0.02581 0.0
C2218 C 0.99519 0.102 0.08817 0.0
C2219 C 0.01012 0.09601 0.09724 0.0
C2220 C 0.99648 0.10731 0.07063 0.0
C2221 C 0.01264 0.10636 0.06178 0.0
C2222 C 0.02743 0.09983 0.0707 0.0
C2223 C 0.0262 0.09482 0.0883 0.0
H2224 H 0.23673 0.13747 0.20494 0.0
H2225 H 0.22371 0.08724 0.2278 0.0
H2226 H 0.20969 0.14998 0.21713 0.0
H2227 H 0.19708 0.09973 0.24042 0.0
H2228 H 0.1408 0.11753 0.22796 0.0
H2229 H 0.17083 0.10758 0.2238 0.0
H2230 H 0.19018 0.15759 0.24249 0.0
H2231 H 0.15985 0.16774 0.24625 0.0
C2232 C 0.22848 0.12935 0.21324 0.0
C2233 C 0.23211 0.1114 0.21535 0.0
C2234 C 0.21298 0.13647 0.22017 0.0
C2235 C 0.20107 0.1257 0.22938 0.0
C2236 C 0.20578 0.10822 0.23301 0.0
C2237 C 0.22108 0.10111 0.22593 0.0
C2238 C 0.15144 0.12641 0.23117 0.0
C2239 C 0.14797 0.14341 0.23735 0.0
C2240 C 0.16867 0.12064 0.22904 0.0
C2241 C 0.1829 0.13175 0.23301 0.0
C2242 C 0.17948 0.14874 0.23936 0.0
C2243 C 0.16215 0.15449 0.24161 0.0
H2244 H 0.10484 0.90417 0.5143 0.0
H2245 H 0.09159 0.89702 0.45969 0.0
H2246 H 0.11385 0.9346 0.50812 0.0
H2247 H 0.10019 0.92744 0.45355 0.0
H2248 H 0.10523 0.98719 0.45174 0.0
H2249 H 0.09128 0.96045 0.46332 0.0
H2250 H 0.14042 0.94521 0.48718 0.0
H2251 H 0.15442 0.97156 0.47519 0.0
C2252 C 0.10365 0.90924 0.50106 0.0
C2253 C 0.09778 0.89831 0.48741 0.0
C2254 C 0.10876 0.92656 0.49754 0.0
C2255 C 0.10758 0.93332 0.4804 0.0
C2256 C 0.10102 0.92258 0.46691 0.0
C2257 C 0.09632 0.90517 0.47035 0.0
C2258 C 0.11283 0.97839 0.45995 0.0
C2259 C 0.13082 0.98136 0.46269 0.0
C2260 C 0.10493 0.96308 0.46643 0.0
C2261 C 0.11483 0.95083 0.47609 0.0
C2262 C 0.13249 0.95453 0.47989 0.0
C2263 C 0.14048 0.96956 0.47305 0.0
H2264 H 0.34641 0.84223 0.70756 0.0
H2265 H 0.34714 0.86287 0.76031 0.0
H2266 H 0.31594 0.85197 0.70411 0.0
H2267 H 0.31666 0.87302 0.75677 0.0
H2268 H 0.27656 0.91035 0.72335 0.0
H2269 H 0.30381 0.89705 0.73401 0.0
H2270 H 0.28456 0.84578 0.71926 0.0
H2271 H 0.25705 0.85905 0.70901 0.0
C2272 C 0.34 0.84888 0.71838 0.0
C2273 C 0.34906 0.85199 0.73412 0.0
C2274 C 0.32256 0.85425 0.7165 0.0
C2275 C 0.314 0.86312 0.73023 0.0
C2276 C 0.32301 0.86613 0.74605 0.0
C2277 C 0.34035 0.86038 0.74806 0.0
C2278 C 0.27792 0.89618 0.723 0.0
C2279 C 0.26475 0.88569 0.71546 0.0
C2280 C 0.29348 0.88859 0.72908 0.0
C2281 C 0.29626 0.87045 0.72731 0.0
C2282 C 0.28267 0.85982 0.72072 0.0
C2283 C 0.26692 0.86737 0.71502 0.0
H2284 H 0.36912 0.10669 0.97882 0.0
H2285 H 0.41903 0.08895 -0.00087 0.0
H2286 H 0.35895 0.07643 0.97734 0.0
H2287 H 0.40868 0.05852 0.99805 0.0
H2288 H 0.38863 0.00939 0.96402 0.0
H2289 H 0.40117 0.03706 0.97442 0.0
H2290 H 0.35084 0.05156 0.99631 0.0
H2291 H 0.33829 0.02413 0.98556 0.0
C2292 C 0.3779 0.09632 0.98302 0.0
C2293 C 0.39488 0.10022 0.98903 0.0
C2294 C 0.37199 0.07898 0.98244 0.0
C2295 C 0.38295 0.06508 0.9878 0.0
C2296 C 0.39993 0.06895 0.99389 0.0
C2297 C 0.40581 0.08637 0.99458 0.0
C2298 C 0.3805 0.01813 0.97178 0.0
C2299 C 0.36248 0.01476 0.97389 0.0
C2300 C 0.38764 0.03404 0.97764 0.0
C2301 C 0.37685 0.04667 0.98576 0.0
C2302 C 0.35935 0.04227 0.98969 0.0
C2303 C 0.35222 0.02649 0.98373 0.0
H2304 H 0.22627 0.90765 0.26633 0.0
H2305 H 0.24066 0.85812 0.28992 0.0
H2306 H 0.19964 0.89424 0.25437 0.0
H2307 H 0.21375 0.84482 0.27834 0.0
H2308 H 0.15129 0.84802 0.28641 0.0
H2309 H 0.18227 0.85585 0.2902 0.0
H2310 H 0.18613 0.86774 0.23486 0.0
H2311 H 0.15511 0.8595 0.23105 0.0
C2312 C 0.22409 0.89371 0.26828 0.0
C2313 C 0.23546 0.88387 0.27896 0.0
C2314 C 0.20885 0.88606 0.2615 0.0
C2315 C 0.20463 0.8686 0.26566 0.0
C2316 C 0.21677 0.85834 0.27503 0.0
C2317 C 0.23223 0.86589 0.28147 0.0
C2318 C 0.1588 0.85229 0.2751 0.0
C2319 C 0.15089 0.85338 0.2585 0.0
C2320 C 0.17652 0.85651 0.27719 0.0
C2321 C 0.18655 0.86219 0.26276 0.0
C2322 C 0.17867 0.86325 0.24612 0.0
C2323 C 0.16101 0.85863 0.24397 0.0
H2324 H 0.3392 0.97413 0.5121 0.0
H2325 H 0.38849 0.98698 0.53698 0.0
H2326 H 0.35228 0.94767 0.49965 0.0
H2327 H 0.40148 0.96018 0.52514 0.0
H2328 H 0.42094 0.91033 0.49905 0.0
H2329 H 0.41054 0.9405 0.50164 0.0
H2330 H 0.35901 0.92129 0.51588 0.0
H2331 H 0.36919 0.89122 0.51252 0.0
C2332 C 0.35304 0.9716 0.51432 0.0
C2333 C 0.36285 0.98245 0.52551 0.0
C2334 C 0.36047 0.95635 0.50743 0.0
C2335 C 0.37773 0.95155 0.51188 0.0
C2336 C 0.38813 0.96348 0.52146 0.0
C2337 C 0.38074 0.97891 0.52817 0.0
C2338 C 0.40732 0.91253 0.50244 0.0
C2339 C 0.39586 0.89833 0.50555 0.0
C2340 C 0.40141 0.92985 0.50404 0.0
C2341 C 0.38391 0.93333 0.50876 0.0
C2342 C 0.37248 0.91911 0.51182 0.0
C2343 C 0.37838 0.90184 0.51021 0.0
H2344 H 0.26277 0.13146 0.79147 0.0
H2345 H 0.28451 0.07904 0.7917 0.0
H2346 H 0.28973 0.14249 0.77763 0.0
H2347 H 0.31129 0.08995 0.77829 0.0
H2348 H 0.35325 0.11121 0.74353 0.0
H2349 H 0.32366 0.10243 0.75184 0.0
H2350 H 0.32052 0.14658 0.78739 0.0
H2351 H 0.35022 0.15548 0.77887 0.0
C2352 C 0.27316 0.12228 0.78826 0.0
C2353 C 0.27161 0.10442 0.79268 0.0
C2354 C 0.28863 0.12859 0.78052 0.0
C2355 C 0.30267 0.1171 0.77694 0.0
C2356 C 0.30068 0.09913 0.78067 0.0
C2357 C 0.28535 0.09288 0.78846 0.0
C2358 C 0.3463 0.119 0.75319 0.0
C2359 C 0.35419 0.13384 0.76082 0.0
C2360 C 0.3293 0.11402 0.75787 0.0
C2361 C 0.3198 0.12372 0.77037 0.0
C2362 C 0.32743 0.13894 0.77757 0.0
C2363 C 0.34446 0.14398 0.77279 0.0
H2364 H 0.1037 0.0074 0.04058 0.0
H2365 H 0.15317 0.02703 0.02093 0.0
H2366 H 0.0893 0.03473 0.03146 0.0
H2367 H 0.13876 0.05414 0.01152 0.0
H2368 H 0.1037 0.0976 0.98866 0.0
H2369 H 0.11407 0.0672 0.99154 0.0
H2370 H 0.0951 0.06588 0.04499 0.0
H2371 H 0.08492 0.09625 0.04213 0.0
C2372 C 0.11132 0.01726 0.03368 0.0
C2373 C 0.1295 0.01517 0.03139 0.0
C2374 C 0.10314 0.03293 0.02864 0.0
C2375 C 0.11297 0.04654 0.02091 0.0
C2376 C 0.13087 0.04381 0.01736 0.0
C2377 C 0.1391 0.02833 0.02272 0.0
C2378 C 0.10165 0.09071 0.00094 0.0
C2379 C 0.09371 0.09926 0.01524 0.0
C2380 C 0.10756 0.07339 0.00258 0.0
C2381 C 0.10526 0.06421 0.01843 0.0
C2382 C 0.09683 0.0726 0.03255 0.0
C2383 C 0.09123 0.09001 0.03101 0.0
H2384 H 0.25904 0.14688 0.1359 0.0
H2385 H 0.20511 0.14286 0.15284 0.0
H2386 H 0.25353 0.17693 0.12538 0.0
H2387 H 0.19968 0.17298 0.14274 0.0
H2388 H 0.20262 0.2333 0.13749 0.0
H2389 H 0.21288 0.20568 0.15064 0.0
H2390 H 0.23067 0.18806 0.09978 0.0
H2391 H 0.21995 0.21537 0.08655 0.0
C2392 C 0.24608 0.15253 0.13747 0.0
C2393 C 0.23244 0.14261 0.14499 0.0
C2394 C 0.24294 0.16963 0.1315 0.0
C2395 C 0.22624 0.17721 0.13342 0.0
C2396 C 0.21272 0.16744 0.1413 0.0
C2397 C 0.21574 0.1502 0.14688 0.0
C2398 C 0.2092 0.22373 0.12925 0.0
C2399 C 0.21061 0.22641 0.11106 0.0
C2400 C 0.2149 0.20792 0.13673 0.0
C2401 C 0.22248 0.19482 0.12616 0.0
C2402 C 0.22495 0.19803 0.10818 0.0
C2403 C 0.21885 0.21361 0.10064 0.0
H2404 H 0.70502 0.26324 0.85927 0.0
H2405 H 0.72353 0.27979 0.91024 0.0
H2406 H 0.71811 0.28942 0.84602 0.0
H2407 H 0.73712 0.30561 0.89703 0.0
H2408 H 0.72831 0.3606 0.87418 0.0
H2409 H 0.72261 0.33154 0.88607 0.0
H2410 H 0.74339 0.30797 0.83877 0.0
H2411 H 0.74844 0.33721 0.82655 0.0
C2412 C 0.71254 0.2721 0.86749 0.0
C2413 C 0.71315 0.26967 0.88575 0.0
C2414 C 0.72 0.28712 0.85994 0.0
C2415 C 0.72828 0.2998 0.87056 0.0
C2416 C 0.7304 0.29633 0.88857 0.0
C2417 C 0.72279 0.28148 0.89611 0.0
C2418 C 0.7316 0.34925 0.86628 0.0
C2419 C 0.73876 0.35126 0.84941 0.0
C2420 C 0.7286 0.33255 0.8732 0.0
C2421 C 0.73274 0.31741 0.86343 0.0
C2422 C 0.74006 0.31938 0.84661 0.0
C2423 C 0.74309 0.33614 0.83967 0.0
H2424 H 0.9866 0.45723 0.11143 0.0
H2425 H 0.97305 0.47562 0.16329 0.0
H2426 H 0.95961 0.47013 0.09979 0.0
H2427 H 0.94648 0.48917 0.15166 0.0
H2428 H 0.89016 0.48043 0.1327 0.0
H2429 H 0.91993 0.4752 0.14271 0.0
H2430 H 0.94014 0.4944 0.09322 0.0
H2431 H 0.91013 0.49888 0.08285 0.0
C2432 C 0.97826 0.46478 0.12015 0.0
C2433 C 0.9818 0.4654 0.13824 0.0
C2434 C 0.96273 0.47211 0.11352 0.0
C2435 C 0.95063 0.4803 0.12488 0.0
C2436 C 0.95523 0.4825 0.14264 0.0
C2437 C 0.97057 0.47496 0.14928 0.0
C2438 C 0.9009 0.48346 0.12388 0.0
C2439 C 0.89766 0.48997 0.10693 0.0
C2440 C 0.91805 0.48075 0.12974 0.0
C2441 C 0.93251 0.48455 0.11884 0.0
C2442 C 0.92933 0.49129 0.10194 0.0
C2443 C 0.9121 0.494 0.09605 0.0
H2444 H 0.79339 0.64559 0.34626 0.0
H2445 H 0.73824 0.64954 0.35875 0.0
H2446 H 0.7976 0.6763 0.35489 0.0
H2447 H 0.74249 0.68027 0.36773 0.0
H2448 H 0.77215 0.72032 0.40764 0.0
H2449 H 0.76197 0.693 0.39414 0.0
H2450 H 0.7862 0.70822 0.34515 0.0
H2451 H 0.796 0.73586 0.35858 0.0
C2452 C 0.7822 0.65307 0.35088 0.0
C2453 C 0.76553 0.64525 0.35202 0.0
C2454 C 0.78455 0.67065 0.35559 0.0
C2455 C 0.77033 0.68062 0.36183 0.0
C2456 C 0.75362 0.67284 0.36287 0.0
C2457 C 0.7512 0.65535 0.35778 0.0
C2458 C 0.77474 0.71808 0.39382 0.0
C2459 C 0.78473 0.73015 0.38408 0.0
C2460 C 0.76893 0.70248 0.38612 0.0
C2461 C 0.77342 0.69853 0.36868 0.0
C2462 C 0.78261 0.71103 0.35864 0.0
C2463 C 0.78806 0.72686 0.36625 0.0
H2464 H 0.02388 0.01668 0.15621 0.0
H2465 H 0.00688 0.03957 0.10719 0.0
H2466 H 0.05013 0.00511 0.14176 0.0
H2467 H 0.0334 0.02833 0.09279 0.0
H2468 H 0.09584 0.03572 0.09164 0.0
H2469 H 0.06536 0.03991 0.10101 0.0
H2470 H 0.06224 0.98517 0.11563 0.0
H2471 H 0.09276 0.98095 0.10593 0.0
C2472 C 0.02547 0.01864 0.1422 0.0
C2473 C 0.01341 0.02892 0.13276 0.0
C2474 C 0.04047 0.01206 0.13395 0.0
C2475 C 0.0438 0.01601 0.11624 0.0
C2476 C 0.03108 0.02518 0.10648 0.0
C2477 C 0.01586 0.03143 0.11466 0.0
C2478 C 0.0886 0.02461 0.09682 0.0
C2479 C 0.0966 0.00807 0.09828 0.0
C2480 C 0.07114 0.02693 0.10194 0.0
C2481 C 0.06147 0.0128 0.10888 0.0
C2482 C 0.06942 0.99621 0.11021 0.0
C2483 C 0.0868 0.99381 0.10473 0.0
H2484 H 0.2649 0.7746 0.59178 0.0
H2485 H 0.29029 0.75772 0.63959 0.0
H2486 H 0.2527 0.8 0.60717 0.0
H2487 H 0.27842 0.78339 0.65491 0.0
H2488 H 0.2846 0.84599 0.65619 0.0
H2489 H 0.2888 0.8155 0.64693 0.0
H2490 H 0.23371 0.81181 0.63388 0.0
H2491 H 0.2295 0.84237 0.64349 0.0
C2492 C 0.26722 0.77594 0.60577 0.0
C2493 C 0.27845 0.76422 0.61453 0.0
C2494 C 0.2603 0.79049 0.61456 0.0
C2495 C 0.26481 0.79373 0.63215 0.0
C2496 C 0.27481 0.78119 0.64131 0.0
C2497 C 0.28143 0.76641 0.63261 0.0
C2498 C 0.2734 0.8386 0.65146 0.0
C2499 C 0.25678 0.8465 0.65036 0.0
C2500 C 0.27573 0.82112 0.64639 0.0
C2501 C 0.26153 0.8113 0.63982 0.0
C2502 C 0.24482 0.8191 0.63899 0.0
C2503 C 0.24242 0.83651 0.64444 0.0
H2504 H 0.90492 0.48892 0.39871 0.0
H2505 H 0.88172 0.52925 0.36614 0.0
H2506 H 0.93412 0.49756 0.38849 0.0
H2507 H 0.91072 0.53766 0.35587 0.0
H2508 H 0.98283 0.53549 0.3797 0.0
H2509 H 0.95503 0.52305 0.39024 0.0
H2510 H 0.93418 0.52527 0.3375 0.0
H2511 H 0.96166 0.53781 0.32709 0.0
C2512 C 0.90601 0.49967 0.38947 0.0
C2513 C 0.8909 0.50833 0.38319 0.0
C2514 C 0.92275 0.50458 0.3836 0.0
C2515 C 0.92471 0.51816 0.37124 0.0
C2516 C 0.90963 0.52688 0.3651 0.0
C2517 C 0.89297 0.52204 0.371 0.0
C2518 C 0.97241 0.53296 0.37035 0.0
C2519 C 0.97433 0.53778 0.35263 0.0
C2520 C 0.9565 0.52586 0.37636 0.0
C2521 C 0.94232 0.52349 0.36474 0.0
C2522 C 0.94471 0.52733 0.34685 0.0
C2523 C 0.96051 0.53441 0.34087 0.0
H2524 H 0.52454 0.48565 0.84305 0.0
H2525 H 0.51171 0.45569 0.88946 0.0
H2526 H 0.55175 0.49557 0.85687 0.0
H2527 H 0.53917 0.46531 0.9032 0.0
H2528 H 0.6013 0.45877 0.89921 0.0
H2529 H 0.57017 0.45559 0.89188 0.0
H2530 H 0.56639 0.51158 0.88345 0.0
H2531 H 0.59759 0.51474 0.89096 0.0
C2532 C 0.52721 0.48182 0.8565 0.0
C2533 C 0.51605 0.47003 0.86526 0.0
C2534 C 0.5428 0.48742 0.86438 0.0
C2535 C 0.54762 0.48101 0.88099 0.0
C2536 C 0.53575 0.47035 0.89033 0.0
C2537 C 0.51996 0.46505 0.88258 0.0
C2538 C 0.59379 0.47037 0.89583 0.0
C2539 C 0.60183 0.48697 0.89549 0.0
C2540 C 0.57595 0.46861 0.89189 0.0
C2541 C 0.56588 0.48338 0.88727 0.0
C2542 C 0.57387 0.50001 0.88707 0.0
C2543 C 0.59165 0.50181 0.89133 0.0
H2544 H 0.58487 0.7232 0.72131 0.0
H2545 H 0.63728 0.7119 0.73978 0.0
H2546 H 0.59682 0.7339 0.69361 0.0
H2547 H 0.64933 0.72217 0.71177 0.0
H2548 H 0.66542 0.74888 0.66014 0.0
H2549 H 0.65396 0.74582 0.69 0.0
H2550 H 0.60941 0.71703 0.66975 0.0
H2551 H 0.6205 0.72061 0.64004 0.0
C2552 C 0.599 0.72342 0.71957 0.0
C2553 C 0.61017 0.71666 0.73258 0.0
C2554 C 0.60584 0.72938 0.70366 0.0
C2555 C 0.62398 0.72847 0.70034 0.0
C2556 C 0.63529 0.72306 0.71394 0.0
C2557 C 0.62842 0.71724 0.73 0.0
C2558 C 0.65306 0.74213 0.66207 0.0
C2559 C 0.64386 0.73498 0.6477 0.0
C2560 C 0.64658 0.74026 0.67918 0.0
C2561 C 0.63072 0.73131 0.68224 0.0
C2562 C 0.62151 0.72429 0.66784 0.0
C2563 C 0.62799 0.72611 0.6508 0.0
H2564 H 0.52843 0.3435 0.96772 0.0
H2565 H 0.54759 0.3933 0.98694 0.0
H2566 H 0.51826 0.35771 0.9408 0.0
H2567 H 0.53774 0.40754 0.9597 0.0
H2568 H 0.54549 0.4121 0.89748 0.0
H2569 H 0.55008 0.40199 0.92768 0.0
H2570 H 0.49693 0.38221 0.92918 0.0
H2571 H 0.49231 0.39252 0.89897 0.0
C2572 C 0.53006 0.35757 0.96632 0.0
C2573 C 0.5387 0.36736 0.97934 0.0
C2574 C 0.52424 0.3657 0.95096 0.0
C2575 C 0.52731 0.38367 0.94819 0.0
C2576 C 0.53527 0.39364 0.96156 0.0
C2577 C 0.54075 0.38556 0.97715 0.0
C2578 C 0.53481 0.40562 0.90431 0.0
C2579 C 0.51862 0.40288 0.89592 0.0
C2580 C 0.53735 0.40006 0.92161 0.0
C2581 C 0.52382 0.39141 0.93072 0.0
C2582 C 0.50753 0.38888 0.92241 0.0
C2583 C 0.5049 0.39475 0.90521 0.0
H2584 H 0.90225 0.26873 0.22215 0.0
H2585 H 0.85381 0.29258 0.23945 0.0
H2586 H 0.88758 0.25785 0.19578 0.0
H2587 H 0.83913 0.28196 0.21279 0.0
H2588 H 0.83758 0.28949 0.15044 0.0
H2589 H 0.84632 0.29314 0.18113 0.0
H2590 H 0.86221 0.23871 0.18314 0.0
H2591 H 0.85329 0.23505 0.15237 0.0
C2592 C 0.88829 0.27108 0.22056 0.0
C2593 C 0.8791 0.28139 0.23277 0.0
C2594 C 0.8799 0.26487 0.2055 0.0
C2595 C 0.86228 0.26921 0.20221 0.0
C2596 C 0.85275 0.2785 0.21503 0.0
C2597 C 0.86108 0.28441 0.23033 0.0
C2598 C 0.84286 0.27831 0.15749 0.0
C2599 C 0.84499 0.26206 0.14904 0.0
C2600 C 0.84762 0.28032 0.17509 0.0
C2601 C 0.85484 0.26617 0.18451 0.0
C2602 C 0.85662 0.24979 0.17617 0.0
C2603 C 0.85155 0.24771 0.15863 0.0
H2604 H 0.96587 0.66402 0.46516 0.0
H2605 H 0.94899 0.6119 0.47976 0.0
H2606 H 0.97842 0.65253 0.43808 0.0
H2607 H 0.96074 0.60037 0.4522 0.0
H2608 H 0.99103 0.58315 0.40392 0.0
H2609 H 0.9846 0.59375 0.43326 0.0
H2610 H 0.96638 0.64289 0.4114 0.0
H2611 H 0.97388 0.63284 0.38225 0.0
C2612 C 0.96512 0.65002 0.46264 0.0
C2613 C 0.95649 0.63883 0.47447 0.0
C2614 C 0.9721 0.64345 0.44703 0.0
C2615 C 0.97022 0.62558 0.44269 0.0
C2616 C 0.96252 0.61418 0.4551 0.0
C2617 C 0.95581 0.62075 0.47093 0.0
C2618 C 0.98593 0.59632 0.40528 0.0
C2619 C 0.98306 0.60709 0.39047 0.0
C2620 C 0.98204 0.60234 0.42221 0.0
C2621 C 0.97506 0.61923 0.4248 0.0
C2622 C 0.9721 0.62994 0.41002 0.0
C2623 C 0.97614 0.62402 0.39315 0.0
H2624 H 0.63265 0.24227 0.84925 0.0
H2625 H 0.65159 0.29569 0.84863 0.0
H2626 H 0.62173 0.2458 0.81904 0.0
H2627 H 0.64112 0.29911 0.81838 0.0
H2628 H 0.63424 0.29287 0.75908 0.0
H2629 H 0.64775 0.28327 0.78671 0.0
H2630 H 0.59669 0.26884 0.80674 0.0
H2631 H 0.58312 0.2789 0.77935 0.0
C2632 C 0.6346 0.25468 0.84254 0.0
C2633 C 0.64278 0.26878 0.8512 0.0
C2634 C 0.6284 0.25668 0.82535 0.0
C2635 C 0.63077 0.27266 0.81643 0.0
C2636 C 0.63934 0.2866 0.82495 0.0
C2637 C 0.64514 0.28473 0.84226 0.0
C2638 C 0.626 0.2871 0.76917 0.0
C2639 C 0.60768 0.28655 0.76715 0.0
C2640 C 0.6337 0.28177 0.78498 0.0
C2641 C 0.62321 0.27542 0.79878 0.0
C2642 C 0.60504 0.2736 0.79622 0.0
C2643 C 0.5973 0.27933 0.7806 0.0
H2644 H 0.97156 0.34073 0.0255 0.0
H2645 H 0.95265 0.39073 0.00652 0.0
H2646 H 0.98311 0.35504 0.05183 0.0
H2647 H 0.96388 0.40502 0.03311 0.0
H2648 H 0.95458 0.40783 0.09542 0.0
H2649 H 0.95086 0.39856 0.06487 0.0
H2650 H 0.00444 0.37996 0.06393 0.0
H2651 H 0.00822 0.38955 0.09453 0.0
C2652 C 0.97041 0.35487 0.02673 0.0
C2653 C 0.96127 0.36466 0.01406 0.0
C2654 C 0.97702 0.36305 0.04175 0.0
C2655 C 0.97422 0.38107 0.0445 0.0
C2656 C 0.96614 0.39108 0.03125 0.0
C2657 C 0.95987 0.38295 0.01602 0.0
C2658 C 0.96557 0.40188 0.08861 0.0
C2659 C 0.98161 0.39923 0.09728 0.0
C2660 C 0.96353 0.39679 0.07112 0.0
C2661 C 0.97742 0.38867 0.06208 0.0
C2662 C 0.99359 0.38628 0.07063 0.0
C2663 C 0.99574 0.39174 0.08805 0.0
H2664 H 0.91026 0.72425 0.27903 0.0
H2665 H 0.85957 0.70384 0.26394 0.0
H2666 H 0.89779 0.73545 0.30628 0.0
H2667 H 0.84706 0.71451 0.2916 0.0
H2668 H 0.82887 0.74387 0.34102 0.0
H2669 H 0.83947 0.73864 0.31127 0.0
H2670 H 0.88878 0.71995 0.33229 0.0
H2671 H 0.87851 0.72595 0.36194 0.0
C2672 C 0.89631 0.72257 0.28141 0.0
C2673 C 0.88584 0.71321 0.26949 0.0
C2674 C 0.88922 0.72877 0.29709 0.0
C2675 C 0.87155 0.72545 0.30133 0.0
C2676 C 0.86072 0.71729 0.28873 0.0
C2677 C 0.86782 0.71127 0.27285 0.0
C2678 C 0.84207 0.73889 0.3393 0.0
C2679 C 0.85293 0.73549 0.3539 0.0
C2680 C 0.84806 0.73573 0.32223 0.0
C2681 C 0.86504 0.72909 0.31937 0.0
C2682 C 0.87577 0.72545 0.33399 0.0
C2683 C 0.8698 0.72863 0.35102 0.0
H2684 H 0.53697 0.66284 0.53076 0.0
H2685 H 0.54401 0.6106 0.50981 0.0
H2686 H 0.52685 0.65048 0.55847 0.0
H2687 H 0.53424 0.59809 0.53783 0.0
H2688 H 0.50632 0.58231 0.58919 0.0
H2689 H 0.51057 0.5944 0.55976 0.0
H2690 H 0.54301 0.6356 0.58154 0.0
H2691 H 0.53824 0.62393 0.61089 0.0
C2692 C 0.53604 0.64868 0.53201 0.0
C2693 C 0.54136 0.63765 0.51823 0.0
C2694 C 0.53039 0.6416 0.54792 0.0
C2695 C 0.53013 0.62332 0.55048 0.0
C2696 C 0.53427 0.61224 0.53625 0.0
C2697 C 0.53981 0.61937 0.5202 0.0
C2698 C 0.51416 0.59408 0.58771 0.0
C2699 C 0.5219 0.6022 0.60242 0.0
C2700 C 0.51673 0.6009 0.57082 0.0
C2701 C 0.527 0.61604 0.56832 0.0
C2702 C 0.53475 0.6241 0.58304 0.0
C2703 C 0.53223 0.61727 0.59986 0.0
H2704 H 0.64658 0.65669 0.70959 0.0
H2705 H 0.65513 0.64614 0.76461 0.0
H2706 H 0.67701 0.64842 0.70322 0.0
H2707 H 0.68559 0.63756 0.75822 0.0
H2708 H 0.72309 0.59648 0.72729 0.0
H2709 H 0.69675 0.61058 0.73909 0.0
H2710 H 0.70978 0.65822 0.71115 0.0
H2711 H 0.73652 0.64417 0.69971 0.0
C2712 C 0.65502 0.65262 0.72029 0.0
C2713 C 0.64854 0.65186 0.73755 0.0
C2714 C 0.67245 0.64812 0.7167 0.0
C2715 C 0.68363 0.64247 0.73026 0.0
C2716 C 0.67723 0.64196 0.74757 0.0
C2717 C 0.65988 0.64683 0.75121 0.0
C2718 C 0.72063 0.61017 0.72422 0.0
C2719 C 0.73181 0.61933 0.71277 0.0
C2720 C 0.70559 0.61822 0.73094 0.0
C2721 C 0.70124 0.63543 0.72594 0.0
C2722 C 0.7129 0.64492 0.71518 0.0
C2723 C 0.72823 0.63698 0.70879 0.0
H2724 H 0.61744 0.48995 0.96523 0.0
H2725 H 0.66673 0.46248 0.95924 0.0
H2726 H 0.60506 0.46413 0.98008 0.0
H2727 H 0.65439 0.43679 0.97279 0.0
H2728 H 0.63336 0.39267 0.00285 0.0
H2729 H 0.64453 0.42214 0.99698 0.0
H2730 H 0.59489 0.43588 0.9728 0.0
H2731 H 0.58352 0.40668 0.98013 0.0
C2732 C 0.62568 0.47854 0.96733 0.0
C2733 C 0.643 0.4782 0.96098 0.0
C2734 C 0.61856 0.46366 0.97563 0.0
C2735 C 0.62863 0.4482 0.97758 0.0
C2736 C 0.64621 0.44839 0.97193 0.0
C2737 C 0.6533 0.46319 0.96391 0.0
C2738 C 0.62491 0.40216 0.99645 0.0
C2739 C 0.60778 0.39754 0.99168 0.0
C2740 C 0.63125 0.41901 0.99298 0.0
C2741 C 0.62077 0.43143 0.98406 0.0
C2742 C 0.60333 0.42685 0.97985 0.0
C2743 C 0.59683 0.4101 0.98383 0.0
H2744 H 0.85567 0.37823 0.23188 0.0
H2745 H 0.83563 0.32928 0.25248 0.0
H2746 H 0.82585 0.38879 0.22786 0.0
H2747 H 0.80559 0.34012 0.24904 0.0
H2748 H 0.75921 0.35814 0.2111 0.0
H2749 H 0.786 0.34632 0.2243 0.0
H2750 H 0.79967 0.39825 0.24282 0.0
H2751 H 0.77327 0.41004 0.22905 0.0
C2752 C 0.84488 0.36978 0.2357 0.0
C2753 C 0.84804 0.35289 0.24238 0.0
C2754 C 0.82775 0.37593 0.23366 0.0
C2755 C 0.81329 0.36534 0.23826 0.0
C2756 C 0.81643 0.34857 0.24534 0.0
C2757 C 0.83364 0.34243 0.24743 0.0
C2758 C 0.76761 0.36684 0.21861 0.0
C2759 C 0.76435 0.38498 0.21898 0.0
C2760 C 0.783 0.36011 0.22613 0.0
C2761 C 0.79519 0.37144 0.23423 0.0
C2762 C 0.7908 0.38927 0.23625 0.0
C2763 C 0.7756 0.39599 0.22855 0.0
H2764 H 0.91157 0.59289 0.47879 0.0
H2765 H 0.85818 0.61022 0.48612 0.0
H2766 H 0.90106 0.56369 0.47044 0.0
H2767 H 0.84752 0.58091 0.47884 0.0
H2768 H 0.83366 0.53756 0.44087 0.0
H2769 H 0.84432 0.56462 0.45342 0.0
H2770 H 0.88747 0.53658 0.47756 0.0
H2771 H 0.87707 0.50926 0.46402 0.0
C2772 C 0.89759 0.59026 0.47896 0.0
C2773 C 0.88562 0.60375 0.48281 0.0
C2774 C 0.89153 0.57353 0.47429 0.0
C2775 C 0.87339 0.56992 0.4737 0.0
C2776 C 0.86155 0.58328 0.4786 0.0
C2777 C 0.86759 0.60005 0.48286 0.0
C2778 C 0.84536 0.53706 0.44897 0.0
C2779 C 0.85453 0.52124 0.45145 0.0
C2780 C 0.85142 0.55264 0.45634 0.0
C2781 C 0.86671 0.55288 0.4667 0.0
C2782 C 0.87575 0.53695 0.46952 0.0
C2783 C 0.86975 0.52127 0.46188 0.0
H2784 H 0.639 0.37824 0.76773 0.0
H2785 H 0.65719 0.32862 0.74709 0.0
H2786 H 0.66923 0.38748 0.77225 0.0
H2787 H 0.68766 0.33811 0.75113 0.0
H2788 H 0.73616 0.35636 0.78681 0.0
H2789 H 0.70817 0.34462 0.77594 0.0
H2790 H 0.69497 0.39579 0.75515 0.0
H2791 H 0.72254 0.40748 0.76641 0.0
C2792 C 0.64948 0.36932 0.76411 0.0
C2793 C 0.64569 0.35273 0.75705 0.0
C2794 C 0.66683 0.37469 0.76647 0.0
C2795 C 0.68086 0.3636 0.76183 0.0
C2796 C 0.67713 0.34694 0.7548 0.0
C2797 C 0.65969 0.34159 0.75235 0.0
C2798 C 0.72751 0.36486 0.77935 0.0
C2799 C 0.73134 0.3828 0.77751 0.0
C2800 C 0.71147 0.35819 0.7732 0.0
C2801 C 0.6992 0.36941 0.76507 0.0
C2802 C 0.70394 0.38694 0.76177 0.0
C2803 C 0.71978 0.3936 0.76806 0.0
H2804 H 0.86629 0.39076 0.02132 0.0
H2805 H 0.91395 0.41128 0.99832 0.0
H2806 H 0.85635 0.42041 0.02732 0.0
H2807 H 0.90363 0.44125 0.00371 0.0
H2808 H 0.88769 0.4878 0.04213 0.0
H2809 H 0.89879 0.46063 0.02893 0.0
H2810 H 0.84591 0.44665 0.01359 0.0
H2811 H 0.8349 0.47334 0.02736 0.0
C2812 C 0.8746 0.40163 0.01743 0.0
C2813 C 0.89095 0.39862 0.00945 0.0
C2814 C 0.86879 0.41869 0.02063 0.0
C2815 C 0.87912 0.43326 0.01586 0.0
C2816 C 0.89538 0.43031 0.00759 0.0
C2817 C 0.90122 0.41315 0.00436 0.0
C2818 C 0.87859 0.47913 0.03545 0.0
C2819 C 0.86046 0.48248 0.03588 0.0
C2820 C 0.88491 0.46356 0.02791 0.0
C2821 C 0.87317 0.45127 0.02056 0.0
C2822 C 0.85524 0.45558 0.01958 0.0
C2823 C 0.84894 0.47093 0.02732 0.0
H2824 H 0.75946 0.63453 0.2833 0.0
H2825 H 0.78406 0.58345 0.28117 0.0
H2826 H 0.78515 0.64737 0.26872 0.0
H2827 H 0.80977 0.59609 0.26788 0.0
H2828 H 0.85526 0.61894 0.24187 0.0
H2829 H 0.82505 0.60877 0.24554 0.0
H2830 H 0.81371 0.65483 0.27699 0.0
H2831 H 0.84359 0.66542 0.27185 0.0
C2832 C 0.77018 0.62602 0.27939 0.0
C2833 C 0.76988 0.60806 0.28355 0.0
C2834 C 0.78501 0.63337 0.27126 0.0
C2835 C 0.79978 0.62287 0.26731 0.0
C2836 C 0.79873 0.60469 0.27041 0.0
C2837 C 0.78395 0.59739 0.27827 0.0
C2838 C 0.84611 0.62686 0.24935 0.0
C2839 C 0.85159 0.64272 0.25685 0.0
C2840 C 0.82885 0.62109 0.25155 0.0
C2841 C 0.81689 0.63075 0.2619 0.0
C2842 C 0.82234 0.64707 0.26877 0.0
C2843 C 0.83949 0.65308 0.26606 0.0
H2844 H 0.60958 0.51249 0.54292 0.0
H2845 H 0.66032 0.52209 0.51958 0.0
H2846 H 0.59866 0.54008 0.53047 0.0
H2847 H 0.64937 0.54915 0.50645 0.0
H2848 H 0.63499 0.60675 0.51325 0.0
H2849 H 0.64339 0.57672 0.51975 0.0
H2850 H 0.59122 0.55895 0.50605 0.0
H2851 H 0.58251 0.58924 0.50042 0.0
C2852 C 0.61811 0.52013 0.53445 0.0
C2853 C 0.63575 0.51531 0.53217 0.0
C2854 C 0.61192 0.53597 0.52737 0.0
C2855 C 0.62328 0.54706 0.51781 0.0
C2856 C 0.64043 0.54122 0.51419 0.0
C2857 C 0.64665 0.52562 0.52148 0.0
C2858 C 0.62525 0.5965 0.51172 0.0
C2859 C 0.60807 0.60051 0.50634 0.0
C2860 C 0.63014 0.57918 0.51517 0.0
C2861 C 0.61803 0.56533 0.51322 0.0
C2862 C 0.60086 0.56928 0.50772 0.0
C2863 C 0.59593 0.58667 0.50432 0.0
H2864 H 0.75015 0.66122 0.66523 0.0
H2865 H 0.72837 0.6401 0.61726 0.0
H2866 H 0.74579 0.69095 0.65418 0.0
H2867 H 0.72325 0.66975 0.60657 0.0
H2868 H 0.72445 0.72246 0.58455 0.0
H2869 H 0.73777 0.69577 0.59618 0.0
H2870 H 0.72121 0.71044 0.6485 0.0
H2871 H 0.70846 0.73748 0.63682 0.0
C2872 C 0.74459 0.66288 0.65226 0.0
C2873 C 0.73963 0.64824 0.64209 0.0
C2874 C 0.74194 0.67995 0.64601 0.0
C2875 C 0.73429 0.68275 0.62946 0.0
C2876 C 0.72951 0.66809 0.61924 0.0
C2877 C 0.73218 0.65107 0.62547 0.0
C2878 C 0.72423 0.72024 0.59861 0.0
C2879 C 0.71537 0.73189 0.60981 0.0
C2880 C 0.73167 0.70488 0.60525 0.0
C2881 C 0.73011 0.70075 0.62318 0.0
C2882 C 0.72266 0.71323 0.63462 0.0
C2883 C 0.7154 0.72876 0.62797 0.0
H2884 H 0.22552 0.77456 0.40437 0.0
H2885 H 0.20117 0.75574 0.35676 0.0
H2886 H 0.23605 0.80057 0.38881 0.0
H2887 H 0.21145 0.78203 0.34117 0.0
H2888 H 0.20467 0.84425 0.33688 0.0
H2889 H 0.20076 0.81391 0.34673 0.0
H2890 H 0.25499 0.81231 0.36333 0.0
H2891 H 0.25888 0.84271 0.3534 0.0
C2892 C 0.22294 0.77575 0.39041 0.0
C2893 C 0.21263 0.7632 0.38171 0.0
C2894 C 0.22896 0.79061 0.38151 0.0
C2895 C 0.22444 0.79335 0.36384 0.0
C2896 C 0.21505 0.78023 0.35482 0.0
C2897 C 0.20933 0.76514 0.36367 0.0
C2898 C 0.21575 0.83736 0.34254 0.0
C2899 C 0.23201 0.84585 0.34458 0.0
C2900 C 0.2136 0.81995 0.34795 0.0
C2901 C 0.2276 0.81077 0.35573 0.0
C2902 C 0.244 0.8191 0.35735 0.0
C2903 C 0.24622 0.83644 0.35167 0.0
H2904 H 0.46872 0.9725 0.65555 0.0
H2905 H 0.48986 0.95181 0.60716 0.0
H2906 H 0.44215 0.98169 0.64009 0.0
H2907 H 0.46303 0.96074 0.59169 0.0
H2908 H 0.40146 0.95085 0.5854 0.0
H2909 H 0.43152 0.94777 0.59641 0.0
H2910 H 0.43027 0.0014 0.61489 0.0
H2911 H 0.4002 0.00447 0.60379 0.0
C2912 C 0.46785 0.9704 0.64149 0.0
C2913 C 0.48128 0.96154 0.6325 0.0
C2914 C 0.45268 0.97565 0.63266 0.0
C2915 C 0.45054 0.97179 0.61475 0.0
C2916 C 0.46439 0.96379 0.60553 0.0
C2917 C 0.47976 0.95886 0.61431 0.0
C2918 C 0.40765 0.96196 0.59176 0.0
C2919 C 0.39851 0.97784 0.5939 0.0
C2920 C 0.42489 0.96029 0.59784 0.0
C2921 C 0.43319 0.97439 0.6064 0.0
C2922 C 0.42415 0.99036 0.6083 0.0
C2923 C 0.40701 0.99212 0.60195 0.0
H2924 H 0.29426 0.21294 0.9159 0.0
H2925 H 0.29103 0.23488 0.86365 0.0
H2926 H 0.28276 0.1852 0.90512 0.0
H2927 H 0.27958 0.20674 0.85271 0.0
H2928 H 0.24554 0.15555 0.84534 0.0
H2929 H 0.25442 0.185 0.85468 0.0
H2930 H 0.29571 0.16235 0.8863 0.0
H2931 H 0.28703 0.13311 0.87692 0.0
C2932 C 0.29093 0.21188 0.9021 0.0
C2933 C 0.2937 0.22603 0.89058 0.0
C2934 C 0.28444 0.19593 0.89591 0.0
C2935 C 0.28061 0.19366 0.87801 0.0
C2936 C 0.28244 0.20811 0.86658 0.0
C2937 C 0.28895 0.2242 0.87283 0.0
C2938 C 0.25664 0.15687 0.85412 0.0
C2939 C 0.26546 0.1419 0.86052 0.0
C2940 C 0.26169 0.17375 0.85948 0.0
C2941 C 0.2756 0.17598 0.87141 0.0
C2942 C 0.28467 0.16105 0.87742 0.0
C2943 C 0.27967 0.14425 0.87205 0.0
H2944 H 0.60738 0.51727 0.62809 0.0
H2945 H 0.58818 0.49945 0.57779 0.0
H2946 H 0.5773 0.52155 0.63808 0.0
H2947 H 0.55789 0.50341 0.58792 0.0
H2948 H 0.51203 0.54176 0.60859 0.0
H2949 H 0.53872 0.52914 0.59586 0.0
H2950 H 0.55074 0.50459 0.64561 0.0
H2951 H 0.52434 0.51749 0.65833 0.0
C2952 C 0.5967 0.51421 0.6192 0.0
C2953 C 0.60014 0.50805 0.60219 0.0
C2954 C 0.57946 0.51642 0.62498 0.0
C2955 C 0.5652 0.5126 0.61384 0.0
C2956 C 0.5686 0.50639 0.5968 0.0
C2957 C 0.58592 0.50403 0.59106 0.0
C2958 C 0.51997 0.53301 0.61653 0.0
C2959 C 0.51627 0.53067 0.63445 0.0
C2960 C 0.53532 0.52587 0.60929 0.0
C2961 C 0.54703 0.51627 0.6199 0.0
C2962 C 0.54217 0.5123 0.63726 0.0
C2963 C 0.52698 0.51952 0.64449 0.0
H2964 H 0.78929 0.34293 0.15793 0.0
H2965 H 0.73484 0.34347 0.14222 0.0
H2966 H 0.79191 0.31249 0.14798 0.0
H2967 H 0.73748 0.31297 0.13198 0.0
H2968 H 0.76799 0.27475 0.09058 0.0
H2969 H 0.75706 0.3007 0.10598 0.0
H2970 H 0.77882 0.28102 0.15453 0.0
H2971 H 0.78945 0.25484 0.13916 0.0
C2972 C 0.77789 0.33647 0.15239 0.0
C2973 C 0.76192 0.3455 0.15066 0.0
C2974 C 0.7793 0.31903 0.14693 0.0
C2975 C 0.76484 0.3104 0.13936 0.0
C2976 C 0.74877 0.31934 0.13787 0.0
C2977 C 0.74727 0.3367 0.14369 0.0
C2978 C 0.76975 0.27563 0.10468 0.0
C2979 C 0.77952 0.26287 0.11372 0.0
C2980 C 0.76352 0.29046 0.11348 0.0
C2981 C 0.7673 0.29288 0.13137 0.0
C2982 C 0.77582 0.27943 0.14071 0.0
C2983 C 0.78173 0.2644 0.13196 0.0
H2984 H 0.40036 0.9912 0.89587 0.0
H2985 H 0.39998 0.04495 0.91388 0.0
H2986 H 0.43032 0.99516 0.88466 0.0
H2987 H 0.42996 0.04888 0.90285 0.0
H2988 H 0.48876 0.04575 0.89303 0.0
H2989 H 0.46187 0.03631 0.90812 0.0
H2990 H 0.4418 0.01556 0.8593 0.0
H2991 H 0.46843 0.0253 0.8442 0.0
C2992 C 0.40679 0.00377 0.89758 0.0
C2993 C 0.39788 0.01782 0.90558 0.0
C2994 C 0.42386 0.00603 0.89119 0.0
C2995 C 0.43243 0.02228 0.89302 0.0
C2996 C 0.4237 0.03617 0.90147 0.0
C2997 C 0.40652 0.034 0.90757 0.0
C2998 C 0.47883 0.03866 0.88569 0.0
C2999 C 0.4806 0.03617 0.86751 0.0
C3000 C 0.46342 0.03344 0.89426 0.0
C3001 C 0.44978 0.02532 0.88482 0.0
C3002 C 0.45216 0.02169 0.86689 0.0
C3003 C 0.46736 0.02726 0.85827 0.0
H3004 H 0.02248 0.98054 0.33777 0.0
H3005 H 0.00911 0.95977 0.38881 0.0
H3006 H 0.04945 0.99297 0.34977 0.0
H3007 H 0.03639 0.9717 0.40079 0.0
H3008 H 0.08661 -0.00083 0.41805 0.0
H3009 H 0.05641 0.99588 0.40785 0.0
H3010 H 0.07556 0.97669 0.35797 0.0
H3011 H 0.10568 0.98064 0.36791 0.0
C3012 C 0.02505 0.9792 0.35172 0.0
C3013 C 0.01384 0.96919 0.36238 0.0
C3014 C 0.04059 0.98609 0.35854 0.0
C3015 C 0.0453 0.98286 0.37609 0.0
C3016 C 0.03315 0.97442 0.38721 0.0
C3017 C 0.01745 0.96768 0.38039 0.0
C3018 C 0.08438 0.99454 0.4048 0.0
C3019 C 0.09857 0.99023 0.39373 0.0
C3020 C 0.06706 0.99253 0.39902 0.0
C3021 C 0.06357 0.98621 0.38205 0.0
C3022 C 0.07777 0.98196 0.371 0.0
C3023 C 0.09506 0.98394 0.37677 0.0
H3024 H 0.1608 0.07872 0.37902 0.0
H3025 H 0.11824 0.09522 0.41283 0.0
H3026 H 0.15366 0.10205 0.35852 0.0
H3027 H 0.11096 0.11861 0.39206 0.0
H3028 H 0.08908 0.13572 0.33711 0.0
H3029 H 0.09827 0.1184 0.3624 0.0
H3030 H 0.15219 0.13376 0.35331 0.0
H3031 H 0.14302 0.15068 0.32761 0.0
C3032 C 0.15018 0.0876 0.38232 0.0
C3033 C 0.14004 0.08502 0.39756 0.0
C3034 C 0.14609 0.10101 0.37053 0.0
C3035 C 0.13171 0.11215 0.37363 0.0
C3036 C 0.12199 0.11008 0.38921 0.0
C3037 C 0.12612 0.09666 0.40107 0.0
C3038 C 0.10289 0.13548 0.34059 0.0
C3039 C 0.11536 0.14435 0.33025 0.0
C3040 C 0.10813 0.12574 0.35521 0.0
C3041 C 0.12597 0.12464 0.3598 0.0
C3042 C 0.13836 0.13422 0.34997 0.0
C3043 C 0.1331 0.14402 0.33535 0.0
H3044 H 0.17121 0.85333 0.64858 0.0
H3045 H 0.14662 0.90446 0.65223 0.0
H3046 H 0.14789 0.84349 0.62941 0.0
H3047 H 0.12432 0.89514 0.63153 0.0
H3048 H 0.08068 0.87211 0.5989 0.0
H3049 H 0.09976 0.87854 0.62395 0.0
H3050 H 0.14095 0.84736 0.60017 0.0
H3051 H 0.12158 0.84034 0.57588 0.0
C3052 C 0.16078 0.86249 0.6455 0.0
C3053 C 0.1611 0.87985 0.65186 0.0
C3054 C 0.14751 0.8569 0.63415 0.0
C3055 C 0.13439 0.86861 0.62846 0.0
C3056 C 0.13414 0.88568 0.63556 0.0
C3057 C 0.14721 0.89116 0.64724 0.0
C3058 C 0.09377 0.86653 0.59925 0.0
C3059 C 0.09968 0.85569 0.58555 0.0
C3060 C 0.10475 0.87026 0.61352 0.0
C3061 C 0.12197 0.86349 0.6142 0.0
C3062 C 0.12769 0.85249 0.60047 0.0
C3063 C 0.11663 0.84853 0.58642 0.0
H3064 H 0.41494 0.87464 0.82654 0.0
H3065 H 0.36179 0.85479 0.82978 0.0
H3066 H 0.40863 0.89533 0.85015 0.0
H3067 H 0.35573 0.8752 0.8538 0.0
H3068 H 0.35719 0.90659 0.90612 0.0
H3069 H 0.36559 0.88313 0.88562 0.0
H3070 H 0.38786 0.92188 0.85062 0.0
H3071 H 0.3794 0.9452 0.87097 0.0
C3072 C 0.40194 0.87462 0.83233 0.0
C3073 C 0.38879 0.86323 0.82608 0.0
C3074 C 0.39839 0.8864 0.8459 0.0
C3075 C 0.38168 0.88691 0.85367 0.0
C3076 C 0.36877 0.87496 0.84809 0.0
C3077 C 0.37226 0.86326 0.83436 0.0
C3078 C 0.36404 0.90999 0.89411 0.0
C3079 C 0.36761 0.92763 0.89002 0.0
C3080 C 0.36873 0.89664 0.88239 0.0
C3081 C 0.37737 0.90074 0.86659 0.0
C3082 C 0.38135 0.91836 0.86278 0.0
C3083 C 0.37641 0.93169 0.87433 0.0
H3084 H 0.38291 0.15886 0.08517 0.0
H3085 H 0.39845 0.10523 0.07505 0.0
H3086 H 0.36446 0.14897 0.10943 0.0
H3087 H 0.38025 0.09533 0.09961 0.0
H3088 H 0.32438 0.08609 0.12346 0.0
H3089 H 0.34793 0.09409 0.10346 0.0
H3090 H 0.36438 0.13516 0.139 0.0
H3091 H 0.3409 0.12696 0.1593 0.0
C3092 C 0.38253 0.14497 0.0883 0.0
C3093 C 0.39197 0.13279 0.07813 0.0
C3094 C 0.37213 0.13933 0.1023 0.0
C3095 C 0.37086 0.12137 0.10637 0.0
C3096 C 0.38086 0.10924 0.09666 0.0
C3097 C 0.39138 0.11491 0.0827 0.0
C3098 C 0.33326 0.09655 0.12727 0.0
C3099 C 0.33067 0.10594 0.14298 0.0
C3100 C 0.34677 0.10113 0.11577 0.0
C3101 C 0.35798 0.11527 0.11964 0.0
C3102 C 0.3558 0.12432 0.13559 0.0
C3103 C 0.34231 0.11967 0.14717 0.0
H3104 H 0.09538 0.87294 0.17429 0.0
H3105 H 0.12587 0.83178 0.15003 0.0
H3106 H 0.10198 0.89243 0.15001 0.0
H3107 H 0.13192 0.85108 0.12496 0.0
H3108 H 0.15582 0.89829 0.09487 0.0
H3109 H 0.14805 0.87603 0.11636 0.0
H3110 H 0.09612 0.89861 0.12087 0.0
H3111 H 0.10442 0.92185 0.10096 0.0
C3112 C 0.10323 0.86798 0.16351 0.0
C3113 C 0.11002 0.85086 0.16395 0.0
C3114 C 0.10694 0.87911 0.14947 0.0
C3115 C 0.11731 0.87332 0.1353 0.0
C3116 C 0.12403 0.85607 0.13569 0.0
C3117 C 0.12053 0.84498 0.14998 0.0
C3118 C 0.1428 0.89867 0.10057 0.0
C3119 C 0.13094 0.91225 0.09634 0.0
C3120 C 0.13822 0.88564 0.11271 0.0
C3121 C 0.12154 0.88566 0.12068 0.0
C3122 C 0.10928 0.89845 0.11545 0.0
C3123 C 0.11397 0.91167 0.10366 0.0
H3124 H 0.32945 0.90801 0.37013 0.0
H3125 H 0.32527 0.85427 0.35232 0.0
H3126 H 0.35545 0.90029 0.38728 0.0
H3127 H 0.35152 0.84668 0.36905 0.0
H3128 H 0.38155 0.83708 0.42105 0.0
H3129 H 0.35827 0.8442 0.40056 0.0
H3130 H 0.38662 0.89057 0.38417 0.0
H3131 H 0.41033 0.88328 0.4046 0.0
C3132 C 0.33411 0.89457 0.36987 0.0
C3133 C 0.32526 0.88172 0.35997 0.0
C3134 C 0.34912 0.89021 0.37948 0.0
C3135 C 0.35553 0.87289 0.37947 0.0
C3136 C 0.34682 0.86011 0.36939 0.0
C3137 C 0.33186 0.86448 0.35973 0.0
C3138 C 0.38315 0.84855 0.41277 0.0
C3139 C 0.39792 0.85956 0.41446 0.0
C3140 C 0.36971 0.85266 0.40105 0.0
C3141 C 0.3706 0.86795 0.39078 0.0
C3142 C 0.38551 0.87879 0.3921 0.0
C3143 C 0.39907 0.87461 0.40379 0.0
H3144 H 0.33346 0.07268 0.61814 0.0
H3145 H 0.38852 0.07014 0.60461 0.0
H3146 H 0.33921 0.09798 0.63695 0.0
H3147 H 0.39438 0.09523 0.62366 0.0
H3148 H 0.39816 0.14806 0.6501 0.0
H3149 H 0.3898 0.12645 0.62787 0.0
H3150 H 0.35347 0.10286 0.66465 0.0
H3151 H 0.36165 0.12447 0.68664 0.0
C3152 C 0.3468 0.07752 0.61927 0.0
C3153 C 0.36057 0.0694 0.61006 0.0
C3154 C 0.3501 0.092 0.63001 0.0
C3155 C 0.36726 0.09858 0.63185 0.0
C3156 C 0.38097 0.09067 0.62232 0.0
C3157 C 0.37764 0.07625 0.61147 0.0
C3158 C 0.38826 0.13835 0.65331 0.0
C3159 C 0.38057 0.13794 0.67009 0.0
C3160 C 0.38351 0.12596 0.64063 0.0
C3161 C 0.37104 0.11288 0.64453 0.0
C3162 C 0.36291 0.11291 0.66111 0.0
C3163 C 0.3676 0.12532 0.67373 0.0
H3164 H 0.11546 0.16639 0.9208 0.0
H3165 H 0.10197 0.11134 0.92336 0.0
H3166 H 0.13463 0.1606 0.89576 0.0
H3167 H 0.12141 0.1054 0.89864 0.0
H3168 H 0.14895 0.10024 0.84705 0.0
H3169 H 0.12625 0.10927 0.86784 0.0
H3170 H 0.16228 0.14684 0.89061 0.0
H3171 H 0.18471 0.13808 0.8696 0.0
C3172 C 0.11665 0.15304 0.916 0.0
C3173 C 0.10731 0.1393 0.92404 0.0
C3174 C 0.12762 0.14971 0.90168 0.0
C3175 C 0.12961 0.13252 0.89519 0.0
C3176 C 0.11996 0.11884 0.90306 0.0
C3177 C 0.10888 0.12221 0.91729 0.0
C3178 C 0.15188 0.11059 0.85636 0.0
C3179 C 0.1686 0.1184 0.85678 0.0
C3180 C 0.13893 0.11571 0.86832 0.0
C3181 C 0.14249 0.12864 0.88104 0.0
C3182 C 0.15898 0.137 0.88087 0.0
C3183 C 0.17187 0.13198 0.86883 0.0
H3184 H 0.13507 0.31454 0.13459 0.0
H3185 H 0.15458 0.34873 0.09364 0.0
H3186 H 0.11177 0.3355 0.14101 0.0
H3187 H 0.13103 0.36979 0.10014 0.0
H3188 H 0.0924 0.40744 0.13322 0.0
H3189 H 0.11845 0.3896 0.12684 0.0
H3190 H 0.08551 0.34393 0.12021 0.0
H3191 H 0.05953 0.36165 0.12583 0.0
C3192 C 0.13466 0.32674 0.12726 0.0
C3193 C 0.14663 0.32997 0.11357 0.0
C3194 C 0.12121 0.33863 0.13082 0.0
C3195 C 0.11954 0.3541 0.12091 0.0
C3196 C 0.13208 0.35792 0.10793 0.0
C3197 C 0.14547 0.34587 0.10419 0.0
C3198 C 0.09069 0.39366 0.13007 0.0
C3199 C 0.07388 0.38592 0.13033 0.0
C3200 C 0.1056 0.38348 0.12652 0.0
C3201 C 0.10394 0.36539 0.12338 0.0
C3202 C 0.08714 0.3578 0.12298 0.0
C3203 C 0.07228 0.36796 0.12628 0.0
H3204 H 0.57572 0.12043 0.83762 0.0
H3205 H 0.59234 0.09023 0.88279 0.0
H3206 H 0.59669 0.14326 0.84509 0.0
H3207 H 0.61325 0.11339 0.89042 0.0
H3208 H 0.62702 0.16996 0.90979 0.0
H3209 H 0.61012 0.14408 0.90121 0.0
H3210 H 0.62821 0.15004 0.84773 0.0
H3211 H 0.6447 0.17621 0.8562 0.0
C3212 C 0.58414 0.11843 0.84892 0.0
C3213 C 0.5823 0.10347 0.85962 0.0
C3214 C 0.59614 0.13158 0.85322 0.0
C3215 C 0.60655 0.13015 0.86838 0.0
C3216 C 0.6052 0.11494 0.87878 0.0
C3217 C 0.59323 0.1017 0.87442 0.0
C3218 C 0.62735 0.16575 0.8962 0.0
C3219 C 0.63709 0.17516 0.88365 0.0
C3220 C 0.61787 0.1508 0.89134 0.0
C3221 C 0.61788 0.14503 0.8738 0.0
C3222 C 0.62788 0.15426 0.86132 0.0
C3223 C 0.63742 0.16915 0.8662 0.0
H3224 H 0.92227 0.89782 0.39355 0.0
H3225 H 0.91792 0.8787 0.34029 0.0
H3226 H 0.89664 0.88039 0.4019 0.0
H3227 H 0.89259 0.86094 0.34873 0.0
H3228 H 0.83907 0.84149 0.36631 0.0
H3229 H 0.8616 0.86309 0.35877 0.0
H3230 H 0.89097 0.84861 0.40511 0.0
H3231 H 0.86875 0.82693 0.41251 0.0
C3232 C 0.91575 0.89002 0.3836 0.0
C3233 C 0.92214 0.88955 0.36629 0.0
C3234 C 0.90116 0.87995 0.38841 0.0
C3235 C 0.89262 0.86929 0.37597 0.0
C3236 C 0.89877 0.86916 0.35856 0.0
C3237 C 0.9134 0.87915 0.35378 0.0
C3238 C 0.8503 0.84296 0.37492 0.0
C3239 C 0.85211 0.83241 0.38999 0.0
C3240 C 0.86318 0.85534 0.3706 0.0
C3241 C 0.87807 0.85749 0.38132 0.0
C3242 C 0.87953 0.84744 0.39672 0.0
C3243 C 0.86673 0.83502 0.40098 0.0
H3244 H 0.8563 0.15874 0.08561 0.0
H3245 H 0.85861 0.1772 0.13909 0.0
H3246 H 0.87531 0.13402 0.09318 0.0
H3247 H 0.87853 0.1533 0.14661 0.0
H3248 H 0.90749 0.10417 0.15937 0.0
H3249 H 0.88324 0.12367 0.15154 0.0
H3250 H 0.90464 0.12867 0.09904 0.0
H3251 H 0.92807 0.10826 0.10677 0.0
C3252 C 0.86092 0.15739 0.09901 0.0
C3253 C 0.8561 0.1697 0.11181 0.0
C3254 C 0.87191 0.14336 0.10335 0.0
C3255 C 0.87867 0.14166 0.12049 0.0
C3256 C 0.8734 0.1539 0.13336 0.0
C3257 C 0.86209 0.16768 0.12908 0.0
C3258 C 0.90668 0.10925 0.14609 0.0
C3259 C 0.91946 0.10481 0.13361 0.0
C3260 C 0.89293 0.12054 0.14162 0.0
C3261 C 0.892 0.12797 0.12469 0.0
C3262 C 0.90466 0.12303 0.1121 0.0
C3263 C 0.91817 0.11143 0.1165 0.0
H3264 H 0.38108 0.68321 0.58643 0.0
H3265 H 0.3549 0.67412 0.63603 0.0
H3266 H 0.40282 0.66092 0.59384 0.0
H3267 H 0.3765 0.65149 0.64321 0.0
H3268 H 0.44985 0.63814 0.62464 0.0
H3269 H 0.42681 0.65884 0.61639 0.0
H3270 H 0.3873 0.62159 0.63293 0.0
H3271 H 0.41045 0.60086 0.64138 0.0
C3272 C 0.37996 0.67648 0.59893 0.0
C3273 C 0.36632 0.6806 0.61071 0.0
C3274 C 0.39239 0.66368 0.60313 0.0
C3275 C 0.3914 0.65457 0.61914 0.0
C3276 C 0.37748 0.65822 0.6307 0.0
C3277 C 0.36509 0.67116 0.62656 0.0
C3278 C 0.43625 0.6344 0.62657 0.0
C3279 C 0.43192 0.61793 0.6337 0.0
C3280 C 0.42307 0.64617 0.6217 0.0
C3281 C 0.40527 0.6418 0.624 0.0
C3282 C 0.40092 0.62532 0.63112 0.0
C3283 C 0.41413 0.61344 0.63582 0.0
H3284 H 0.15402 0.65574 0.37017 0.0
H3285 H 0.12523 0.66803 0.41766 0.0
H3286 H 0.13333 0.6325 0.36378 0.0
H3287 H 0.10601 0.64343 0.41242 0.0
H3288 H 0.05985 0.61638 0.38565 0.0
H3289 H 0.08251 0.63664 0.39534 0.0
H3290 H 0.12183 0.60511 0.36888 0.0
H3291 H 0.09863 0.58566 0.35813 0.0
C3292 C 0.14344 0.65345 0.37939 0.0
C3293 C 0.14129 0.66416 0.39431 0.0
C3294 C 0.13171 0.63975 0.3759 0.0
C3295 C 0.11776 0.63604 0.38748 0.0
C3296 C 0.11624 0.64609 0.4029 0.0
C3297 C 0.12762 0.6601 0.40612 0.0
C3298 C 0.07341 0.61371 0.3822 0.0
C3299 C 0.07762 0.59956 0.37124 0.0
C3300 C 0.08649 0.62525 0.38782 0.0
C3301 C 0.10416 0.62266 0.3829 0.0
C3302 C 0.10839 0.60784 0.37262 0.0
C3303 C 0.09519 0.59655 0.36663 0.0
H3304 H 0.34432 0.352 0.89509 0.0
H3305 H 0.36826 0.31431 0.86006 0.0
H3306 H 0.36644 0.37374 0.88674 0.0
H3307 H 0.39036 0.33583 0.85188 0.0
H3308 H 0.42173 0.38163 0.83146 0.0
H3309 H 0.39626 0.363 0.8371 0.0
H3310 H 0.39746 0.37805 0.89185 0.0
H3311 H 0.42274 0.39688 0.8861 0.0
C3312 C 0.35421 0.34841 0.88551 0.0
C3313 C 0.35453 0.33143 0.87824 0.0
C3314 C 0.36692 0.36083 0.88077 0.0
C3315 C 0.38026 0.3565 0.86872 0.0
C3316 C 0.38015 0.33973 0.86099 0.0
C3317 C 0.36743 0.32736 0.86567 0.0
C3318 C 0.41653 0.38094 0.84469 0.0
C3319 C 0.42429 0.39064 0.85836 0.0
C3320 C 0.40194 0.37028 0.84793 0.0
C3321 C 0.39483 0.36897 0.86494 0.0
C3322 C 0.4024 0.37896 0.87853 0.0
C3323 C 0.41694 0.38971 0.87527 0.0
H3324 H 0.62723 0.59574 0.91457 0.0
H3325 H 0.65212 0.57096 0.87007 0.0
H3326 H 0.62022 0.62138 0.8963 0.0
H3327 H 0.64465 0.59591 0.85174 0.0
H3328 H 0.64294 0.646 0.82412 0.0
H3329 H 0.65208 0.62519 0.84629 0.0
H3330 H 0.60216 0.63115 0.87272 0.0
H3331 H 0.59359 0.65333 0.8514 0.0
C3332 C 0.63107 0.59577 0.90086 0.0
C3333 C 0.64037 0.58152 0.89373 0.0
C3334 C 0.62706 0.6104 0.89039 0.0
C3335 C 0.6321 0.61088 0.87258 0.0
C3336 C 0.64106 0.59634 0.8655 0.0
C3337 C 0.64523 0.58194 0.87596 0.0
C3338 C 0.63407 0.64341 0.83493 0.0
C3339 C 0.61735 0.65125 0.83568 0.0
C3340 C 0.63921 0.63114 0.84753 0.0
C3341 C 0.62766 0.62604 0.86103 0.0
C3342 C 0.61139 0.63466 0.86248 0.0
C3343 C 0.60636 0.64722 0.85003 0.0
H3344 H 0.66466 0.40709 0.13263 0.0
H3345 H 0.66899 0.3537 0.15147 0.0
H3346 H 0.63885 0.399 0.11556 0.0
H3347 H 0.64272 0.34573 0.13487 0.0
H3348 H 0.61458 0.33548 0.08141 0.0
H3349 H 0.63631 0.34215 0.10377 0.0
H3350 H 0.60822 0.38967 0.117 0.0
H3351 H 0.58632 0.38295 0.09451 0.0
C3352 C 0.66001 0.39365 0.13322 0.0
C3353 C 0.66898 0.38099 0.14324 0.0
C3354 C 0.64506 0.38906 0.12364 0.0
C3355 C 0.63873 0.37171 0.12385 0.0
C3356 C 0.64737 0.35917 0.13432 0.0
C3357 C 0.66233 0.36377 0.14394 0.0
C3358 C 0.61272 0.3471 0.0894 0.0
C3359 C 0.59875 0.35874 0.08609 0.0
C3360 C 0.62523 0.35094 0.10223 0.0
C3361 C 0.62408 0.36652 0.11207 0.0
C3362 C 0.60962 0.37772 0.10941 0.0
C3363 C 0.59708 0.37387 0.09655 0.0
H3364 H 0.86061 0.34587 0.33346 0.0
H3365 H 0.91655 0.35352 0.33908 0.0
H3366 H 0.8555 0.36431 0.35913 0.0
H3367 H 0.91152 0.37177 0.36496 0.0
H3368 H 0.89125 0.42547 0.38679 0.0
H3369 H 0.8999 0.4011 0.36808 0.0
H3370 H 0.85864 0.3691 0.39049 0.0
H3371 H 0.84989 0.39367 0.40919 0.0
C3372 C 0.87183 0.35111 0.34049 0.0
C3373 C 0.88895 0.34848 0.33417 0.0
C3374 C 0.86893 0.36164 0.35524 0.0
C3375 C 0.88311 0.36966 0.364 0.0
C3376 C 0.9003 0.36606 0.35831 0.0
C3377 C 0.90319 0.35561 0.34352 0.0
C3378 C 0.88436 0.41308 0.38812 0.0
C3379 C 0.86976 0.41155 0.3993 0.0
C3380 C 0.88932 0.39907 0.37738 0.0
C3381 C 0.87981 0.38321 0.37763 0.0
C3382 C 0.866 0.38127 0.38974 0.0
C3383 C 0.86102 0.39531 0.40046 0.0
H3384 H 0.82653 0.58611 0.62769 0.0
H3385 H 0.84553 0.62738 0.66173 0.0
H3386 H 0.84942 0.59292 0.60654 0.0
H3387 H 0.86863 0.63418 0.64049 0.0
H3388 H 0.88529 0.65728 0.58634 0.0
H3389 H 0.86853 0.64775 0.61181 0.0
H3390 H 0.88037 0.59361 0.59941 0.0
H3391 H 0.89661 0.60319 0.57341 0.0
C3392 C 0.83589 0.59634 0.63088 0.0
C3393 C 0.83412 0.60629 0.64635 0.0
C3394 C 0.84907 0.60024 0.61873 0.0
C3395 C 0.86081 0.61417 0.62175 0.0
C3396 C 0.8596 0.62355 0.63763 0.0
C3397 C 0.84637 0.61967 0.64979 0.0
C3398 C 0.88439 0.64334 0.58909 0.0
C3399 C 0.89203 0.63098 0.57771 0.0
C3400 C 0.87497 0.63788 0.60385 0.0
C3401 C 0.87301 0.6199 0.60761 0.0
C3402 C 0.88145 0.60755 0.59674 0.0
C3403 C 0.89089 0.61304 0.58194 0.0
H3404 H 0.62366 0.40014 0.58138 0.0
H3405 H 0.65352 0.42381 0.62334 0.0
H3406 H 0.61632 0.37537 0.60057 0.0
H3407 H 0.64564 0.39981 0.64272 0.0
H3408 H 0.63994 0.35136 0.67275 0.0
H3409 H 0.65 0.37058 0.64963 0.0
H3410 H 0.59898 0.36761 0.62483 0.0
H3411 H 0.58944 0.34679 0.64701 0.0
C3412 C 0.6286 0.40002 0.59472 0.0
C3413 C 0.63925 0.41377 0.60087 0.0
C3414 C 0.62436 0.3859 0.60576 0.0
C3415 C 0.63045 0.38544 0.62324 0.0
C3416 C 0.64109 0.39933 0.62925 0.0
C3417 C 0.64554 0.41321 0.61818 0.0
C3418 C 0.63096 0.35424 0.66211 0.0
C3419 C 0.61371 0.34758 0.66206 0.0
C3420 C 0.63668 0.36564 0.64895 0.0
C3421 C 0.62519 0.37113 0.63556 0.0
C3422 C 0.60825 0.36376 0.63491 0.0
C3423 C 0.60264 0.352 0.64789 0.0
H3424 H 0.89771 0.39287 0.91643 0.0
H3425 H 0.88333 0.3385 0.90857 0.0
H3426 H 0.88109 0.40103 0.89027 0.0
H3427 H 0.86616 0.34674 0.88284 0.0
H3428 H 0.84417 0.36553 0.83094 0.0
H3429 H 0.86667 0.3584 0.85276 0.0
H3430 H 0.84968 0.40227 0.88451 0.0
H3431 H 0.8273 0.40929 0.863 0.0
C3432 C 0.89121 0.38263 0.90899 0.0
C3433 C 0.89167 0.36507 0.91467 0.0
C3434 C 0.88157 0.38732 0.8941 0.0
C3435 C 0.87219 0.37455 0.88458 0.0
C3436 C 0.87334 0.35688 0.8898 0.0
C3437 C 0.88297 0.35219 0.90468 0.0
C3438 C 0.84533 0.37369 0.84254 0.0
C3439 C 0.83393 0.38798 0.8452 0.0
C3440 C 0.85822 0.36962 0.85501 0.0
C3441 C 0.85997 0.37979 0.87034 0.0
C3442 C 0.84893 0.39438 0.87269 0.0
C3443 C 0.83607 0.39841 0.86031 0.0
H3444 H 0.89221 0.57352 0.10989 0.0
H3445 H 0.84378 0.59982 0.09657 0.0
H3446 H 0.90039 0.59798 0.12874 0.0
H3447 H 0.85214 0.62471 0.11502 0.0
H3448 H 0.86042 0.64825 0.17083 0.0
H3449 H 0.8536 0.62957 0.14575 0.0
H3450 H 0.90879 0.62765 0.13224 0.0
H3451 H 0.91554 0.64578 0.15782 0.0
C3452 C 0.88357 0.58481 0.11061 0.0
C3453 C 0.86731 0.58474 0.10194 0.0
C3454 C 0.88825 0.59889 0.12138 0.0
C3455 C 0.87685 0.6133 0.12355 0.0
C3456 C 0.86106 0.61367 0.11395 0.0
C3457 C 0.8563 0.59948 0.10333 0.0
C3458 C 0.871 0.64412 0.16225 0.0
C3459 C 0.88849 0.64825 0.16629 0.0
C3460 C 0.86713 0.63346 0.14782 0.0
C3461 C 0.88068 0.6269 0.13705 0.0
C3462 C 0.89808 0.63211 0.14048 0.0
C3463 C 0.90195 0.64257 0.15503 0.0
H3464 H 0.59339 0.6508 0.39489 0.0
H3465 H 0.60918 0.6055 0.42514 0.0
H3466 H 0.61339 0.64212 0.37134 0.0
H3467 H 0.62952 0.59707 0.40203 0.0
H3468 H 0.66225 0.58143 0.35671 0.0
H3469 H 0.63539 0.58711 0.37326 0.0
H3470 H 0.64443 0.64303 0.36824 0.0
H3471 H 0.67086 0.6372 0.35111 0.0
C3472 C 0.60096 0.63883 0.39635 0.0
C3473 C 0.59986 0.62887 0.41185 0.0
C3474 C 0.61249 0.63391 0.38294 0.0
C3475 C 0.62329 0.61904 0.38487 0.0
C3476 C 0.62129 0.60848 0.39994 0.0
C3477 C 0.60963 0.61331 0.41324 0.0
C3478 C 0.65828 0.59492 0.35897 0.0
C3479 C 0.66864 0.6089 0.35283 0.0
C3480 C 0.64295 0.59819 0.36848 0.0
C3481 C 0.63782 0.61552 0.37229 0.0
C3482 C 0.6478 0.62951 0.36538 0.0
C3483 C 0.66302 0.62621 0.35564 0.0
H3484 H 0.64896 0.82611 0.64479 0.0
H3485 H 0.63203 0.83452 0.59126 0.0
H3486 H 0.63255 0.85209 0.65402 0.0
H3487 H 0.6152 0.86009 0.60056 0.0
H3488 H 0.59454 0.91173 0.61987 0.0
H3489 H 0.61702 0.89007 0.61237 0.0
H3490 H 0.6011 0.85829 0.65665 0.0
H3491 H 0.57869 0.87972 0.66406 0.0
C3492 C 0.64191 0.83363 0.63497 0.0
C3493 C 0.64164 0.82821 0.61732 0.0
C3494 C 0.63242 0.84842 0.64028 0.0
C3495 C 0.62255 0.85809 0.62803 0.0
C3496 C 0.62283 0.85303 0.61028 0.0
C3497 C 0.63227 0.83824 0.60499 0.0
C3498 C 0.59596 0.90019 0.62808 0.0
C3499 C 0.58475 0.8974 0.64249 0.0
C3500 C 0.60883 0.88781 0.62379 0.0
C3501 C 0.61075 0.87244 0.63386 0.0
C3502 C 0.60013 0.87011 0.64878 0.0
C3503 C 0.58727 0.88243 0.65303 0.0
H3504 H 0.96668 0.28379 0.25886 0.0
H3505 H 0.94517 0.24151 0.29018 0.0
H3506 H 0.99485 0.26854 0.25772 0.0
H3507 H 0.97344 0.22657 0.28935 0.0
H3508 H 0.03183 0.2212 0.30494 0.0
H3509 H 0.00291 0.23479 0.30287 0.0
H3510 H 0.00917 0.23979 0.24669 0.0
H3511 H 0.03834 0.22623 0.24881 0.0
C3512 C 0.96783 0.27114 0.26525 0.0
C3513 C 0.95369 0.26397 0.27478 0.0
C3514 C 0.98398 0.26244 0.26461 0.0
C3515 C 0.98631 0.24651 0.27361 0.0
C3516 C 0.97203 0.23901 0.28255 0.0
C3517 C 0.95588 0.24761 0.28307 0.0
C3518 C 0.02709 0.22531 0.29217 0.0
C3519 C 0.03731 0.22275 0.27704 0.0
C3520 C 0.01048 0.2329 0.29096 0.0
C3521 C 0.00382 0.23822 0.27461 0.0
C3522 C 0.01406 0.2358 0.25945 0.0
C3523 C 0.03064 0.22799 0.26064 0.0
H3524 H 0.0349 0.7779 0.51135 0.0
H3525 H 0.9941 0.79856 0.54515 0.0
H3526 H 0.01907 0.75017 0.50939 0.0
H3527 H 0.97872 0.77064 0.54353 0.0
H3528 H 0.971 0.71136 0.55447 0.0
H3529 H 0.98591 0.73973 0.55447 0.0
H3530 H 0.98934 0.73803 0.49786 0.0
H3531 H 0.97437 0.70944 0.49789 0.0
C3532 C 0.02254 0.7767 0.51825 0.0
C3533 C 0.01592 0.7906 0.52853 0.0
C3534 C 0.01349 0.76075 0.51711 0.0
C3535 C 0.99775 0.75827 0.52638 0.0
C3536 C 0.99097 0.77215 0.53644 0.0
C3537 C -0.00012 0.78815 0.53742 0.0
C3538 C 0.97504 0.71698 0.54204 0.0
C3539 C 0.97163 0.70819 0.52618 0.0
C3540 C 0.98341 0.73328 0.54203 0.0
C3541 C 0.98872 0.74105 0.52617 0.0
C3542 C 0.98543 0.73225 0.51027 0.0
C3543 C 0.9768 0.71601 0.51027 0.0
H3544 H 0.52527 0.70632 0.77446 0.0
H3545 H 0.54913 0.75483 0.79178 0.0
H3546 H 0.49683 0.72098 0.7726 0.0
H3547 H 0.52062 0.76934 0.79043 0.0
H3548 H 0.47074 0.7939 0.76796 0.0
H3549 H 0.49906 0.77887 0.76816 0.0
H3550 H 0.4749 0.73374 0.79276 0.0
H3551 H 0.44652 0.74856 0.79207 0.0
C3552 C 0.52445 0.72011 0.77783 0.0
C3553 C 0.53945 0.72941 0.78326 0.0
C3554 C 0.50814 0.72846 0.77692 0.0
C3555 C 0.50651 0.74631 0.78135 0.0
C3556 C 0.52151 0.75562 0.78676 0.0
C3557 C 0.5378 0.74725 0.78774 0.0
C3558 C 0.47144 0.78069 0.77318 0.0
C3559 C 0.45641 0.77242 0.78002 0.0
C3560 C 0.48768 0.77216 0.77348 0.0
C3561 C 0.4892 0.75516 0.78055 0.0
C3562 C 0.47411 0.74679 0.78712 0.0
C3563 C 0.45789 0.75534 0.78689 0.0
H3564 H 0.53608 0.28087 0.01295 0.0
H3565 H 0.49159 0.30497 0.03895 0.0
H3566 H 0.52049 0.25298 0.01236 0.0
H3567 H 0.47642 0.27686 0.03882 0.0
H3568 H 0.46871 0.21855 0.05601 0.0
H3569 H 0.4829 0.24729 0.0543 0.0
H3570 H 0.49192 0.2396 -0.00119 0.0
H3571 H 0.47763 0.21074 0.00056 0.0
C3572 C 0.52297 0.28038 0.01838 0.0
C3573 C 0.51522 0.29531 0.02611 0.0
C3574 C 0.51406 0.26434 0.01805 0.0
C3575 C 0.49733 0.26282 0.02562 0.0
C3576 C 0.48942 0.27769 0.03308 0.0
C3577 C 0.4982 0.29378 0.03322 0.0
C3578 C 0.47378 0.22299 0.04349 0.0
C3579 C 0.47217 0.21246 0.02843 0.0
C3580 C 0.48174 0.23946 0.04247 0.0
C3581 C 0.48845 0.2456 0.02642 0.0
C3582 C 0.48689 0.23508 0.01134 0.0
C3583 C 0.47866 0.21869 0.01231 0.0
H3584 H 0.94959 0.75357 0.21236 0.0
H3585 H 0.97259 0.7069 0.23507 0.0
H3586 H 0.97828 0.76775 0.21238 0.0
H3587 H 0.00118 0.72132 0.23572 0.0
H3588 H 0.05189 0.74488 0.21284 0.0
H3589 H 0.02311 0.73087 0.2141 0.0
H3590 H 0.00029 0.77943 0.23265 0.0
H3591 H 0.0289 0.79361 0.23073 0.0
C3592 C 0.96075 0.74638 0.21743 0.0
C3593 C 0.95884 0.72911 0.22365 0.0
C3594 C 0.97715 0.75456 0.21762 0.0
C3595 C 0.99197 0.74562 0.22402 0.0
C3596 C 0.99001 0.72845 0.23053 0.0
C3597 C 0.9736 0.72028 0.23036 0.0
C3598 C 0.04071 0.75259 0.21704 0.0
C3599 C 0.04267 0.77036 0.22165 0.0
C3600 C 0.02428 0.74451 0.21798 0.0
C3601 C 0.00948 0.75405 0.22351 0.0
C3602 C 0.01144 0.77179 0.2282 0.0
C3603 C 0.02787 0.77986 0.22728 0.0
H3604 H 0.49777 0.69712 0.45554 0.0
H3605 H 0.54044 0.71809 0.48655 0.0
H3606 H 0.48321 0.72573 0.45633 0.0
H3607 H 0.52571 0.74643 0.48775 0.0
H3608 H 0.50651 0.79866 0.46442 0.0
H3609 H 0.51971 0.7695 0.46557 0.0
H3610 H 0.4689 0.74684 0.4769 0.0
H3611 H 0.4556 0.77599 0.47528 0.0
C3612 C 0.50392 0.70778 0.46267 0.0
C3613 C 0.52024 0.70537 0.47094 0.0
C3614 C 0.49555 0.72409 0.46324 0.0
C3615 C 0.50342 0.7383 0.472 0.0
C3616 C 0.51946 0.73574 0.48073 0.0
C3617 C 0.52778 0.71944 0.48022 0.0
C3618 C 0.49815 0.78744 0.46702 0.0
C3619 C 0.48003 0.7896 0.46975 0.0
C3620 C 0.50573 0.77079 0.46789 0.0
C3621 C 0.49533 0.75595 0.47142 0.0
C3622 C 0.4772 0.75806 0.47409 0.0
C3623 C 0.46963 0.77475 0.47331 0.0
H3624 H 0.53316 0.2751 0.74731 0.0
H3625 H 0.53034 0.27042 0.69087 0.0
H3626 H 0.5044 0.26087 0.74996 0.0
H3627 H 0.50162 0.25623 0.69348 0.0
H3628 H 0.44338 0.24753 0.70473 0.0
H3629 H 0.47049 0.26455 0.70435 0.0
H3630 H 0.49313 0.2295 0.74273 0.0
H3631 H 0.46635 0.21205 0.74276 0.0
C3632 C 0.52629 0.27117 0.73549 0.0
C3633 C 0.53392 0.27379 0.71888 0.0
C3634 C 0.50994 0.26297 0.73701 0.0
C3635 C 0.50084 0.25754 0.72192 0.0
C3636 C 0.50833 0.26045 0.7053 0.0
C3637 C 0.52478 0.2684 0.70381 0.0
C3638 C 0.4541 0.24338 0.71308 0.0
C3639 C 0.45267 0.22821 0.72359 0.0
C3640 C 0.46959 0.25319 0.7129 0.0
C3641 C 0.48388 0.24822 0.72341 0.0
C3642 C 0.48222 0.23365 0.73459 0.0
C3643 C 0.46681 0.22369 0.73462 0.0
H3644 H 0.01523 0.20952 0.9963 0.0
H3645 H 0.01895 0.21293 0.93979 0.0
H3646 H 0.00068 0.23819 0.99704 0.0
H3647 H 0.00421 0.24137 0.94049 0.0
H3648 H 0.99596 0.29981 0.95068 0.0
H3649 H 0.01121 0.27172 0.95154 0.0
H3650 H 0.97173 0.25123 0.98677 0.0
H3651 H 0.95619 0.27923 0.98567 0.0
C3652 C 0.01297 0.21642 0.98407 0.0
C3653 C 0.0182 0.20901 0.96798 0.0
C3654 C 0.00454 0.23272 0.98448 0.0
C3655 C 0.00139 0.24198 0.96883 0.0
C3656 C 0.00664 0.23458 0.95277 0.0
C3657 C 0.0149 0.21823 0.95234 0.0
C3658 C 0.99044 0.28932 0.95853 0.0
C3659 C 0.97475 0.29177 0.96798 0.0
C3660 C -0.00079 0.27325 0.95905 0.0
C3661 C 0.99257 0.2593 0.96913 0.0
C3662 C 0.9772 0.26184 0.97901 0.0
C3663 C 0.96833 0.2779 0.9784 0.0
H3664 H 0.30999 0.03895 0.23225 0.0
H3665 H 0.25336 0.037 0.22945 0.0
H3666 H 0.31014 0.01129 0.24853 0.0
H3667 H 0.2535 0.00919 0.24555 0.0
H3668 H 0.26215 0.97006 0.29164 0.0
H3669 H 0.26149 0.99805 0.27604 0.0
H3670 H 0.3025 0.9798 0.24138 0.0
H3671 H 0.30293 0.95172 0.25656 0.0
C3672 C 0.29758 0.03265 0.23521 0.0
C3673 C 0.28167 0.04008 0.22956 0.0
C3674 C 0.29767 0.01677 0.24438 0.0
C3675 C 0.28183 0.00811 0.24823 0.0
C3676 C 0.26589 0.01566 0.24282 0.0
C3677 C 0.26582 0.03146 0.23348 0.0
C3678 C 0.27088 0.97189 0.28058 0.0
C3679 C 0.28263 0.95857 0.27542 0.0
C3680 C 0.27052 0.98796 0.27169 0.0
C3681 C 0.282 0.99108 0.25758 0.0
C3682 C 0.2937 0.97782 0.25239 0.0
C3683 C 0.29396 0.96172 0.26115 0.0
H3684 H 0.20594 0.0575 0.48353 0.0
H3685 H 0.20875 0.00125 0.47668 0.0
H3686 H 0.23452 0.05717 0.49817 0.0
H3687 H 0.23742 0.00092 0.49125 0.0
H3688 H 0.27671 0.00798 0.53774 0.0
H3689 H 0.24864 0.00766 0.52244 0.0
H3690 H 0.2662 0.05008 0.48911 0.0
H3691 H 0.29451 0.05014 0.50395 0.0
C3692 C 0.21266 0.04508 0.48524 0.0
C3693 C 0.20519 0.0294 0.47903 0.0
C3694 C 0.22903 0.04491 0.49345 0.0
C3695 C 0.2381 0.02902 0.49578 0.0
C3696 C 0.2306 0.01332 0.48967 0.0
C3697 C 0.21432 0.01352 0.48124 0.0
C3698 C 0.27477 0.01707 0.52699 0.0
C3699 C 0.28796 0.02909 0.52211 0.0
C3700 C 0.25865 0.0169 0.51828 0.0
C3701 C 0.25532 0.02887 0.50466 0.0
C3702 C 0.26842 0.04086 0.49973 0.0
C3703 C 0.28462 0.04091 0.50829 0.0
H3704 H 0.20971 0.9491 0.75308 0.0
H3705 H 0.22405 0.9729 0.7036 0.0
H3706 H 0.21216 0.97756 0.76753 0.0
H3707 H 0.22676 0.00148 0.71816 0.0
H3708 H 0.20681 0.05116 0.74922 0.0
H3709 H 0.20649 0.0233 0.73317 0.0
H3710 H 0.23602 -0.00109 0.77503 0.0
H3711 H 0.23606 0.02655 0.79116 0.0
C3712 C 0.21331 0.96044 0.74528 0.0
C3713 C 0.21663 0.95879 0.7272 0.0
C3714 C 0.21491 0.9767 0.75359 0.0
C3715 C 0.21974 0.9917 0.74398 0.0
C3716 C 0.22296 0.99012 0.72587 0.0
C3717 C 0.22154 0.97378 0.71758 0.0
C3718 C 0.2133 0.03986 0.75491 0.0
C3719 C 0.22141 0.04104 0.77146 0.0
C3720 C 0.21323 0.02397 0.74568 0.0
C3721 C 0.22113 0.00894 0.75292 0.0
C3722 C 0.22967 0.01026 0.76922 0.0
C3723 C 0.22987 0.02614 0.77837 0.0
H3724 H 0.27531 0.97426 0.95497 0.0
H3725 H 0.29744 0.95225 0.0024 0.0
H3726 H 0.24624 0.97393 0.96841 0.0
H3727 H 0.26829 0.95129 0.01557 0.0
H3728 H 0.21766 0.97251 0.04019 0.0
H3729 H 0.24658 0.97223 0.02654 0.0
H3730 H 0.22363 0.95322 0.97823 0.0
H3731 H 0.19456 0.95414 0.9917 0.0
C3732 C 0.27397 0.96935 0.96826 0.0
C3733 C 0.2887 0.96337 0.97765 0.0
C3734 C 0.25729 0.96897 0.97587 0.0
C3735 C 0.25499 0.9626 0.99305 0.0
C3736 C 0.26968 0.95645 0.00238 0.0
C3737 C 0.28636 0.95682 0.99476 0.0
C3738 C 0.21874 0.96844 0.02661 0.0
C3739 C 0.20379 0.96343 0.017 0.0
C3740 C 0.23535 0.96806 0.01886 0.0
C3741 C 0.23737 0.96268 0.00133 0.0
C3742 C 0.22245 0.95759 0.99173 0.0
C3743 C 0.20583 0.95793 -0.00051 0.0
H3744 H 0.29006 0.26059 0.969 0.0
H3745 H 0.24556 0.28693 0.9456 0.0
H3746 H 0.27474 0.25954 0.99704 0.0
H3747 H 0.23041 0.28638 0.97388 0.0
H3748 H 0.20282 0.26821 0.02435 0.0
H3749 H 0.21702 0.26631 0.99564 0.0
H3750 H 0.2664 0.28157 0.01911 0.0
H3751 H 0.25235 0.28294 0.04782 0.0
C3752 C 0.27691 0.26593 0.96976 0.0
C3753 C 0.26903 0.27387 0.95506 0.0
C3754 C 0.26822 0.26553 0.9859 0.0
C3755 C 0.25145 0.27302 0.9877 0.0
C3756 C 0.2433 0.28042 0.97287 0.0
C3757 C 0.25202 0.28088 0.95673 0.0
C3758 C 0.21674 0.27098 0.02339 0.0
C3759 C 0.22647 0.27572 0.03837 0.0
C3760 C 0.22482 0.27005 0.00694 0.0
C3761 C 0.24282 0.27374 0.00514 0.0
C3762 C 0.25255 0.27844 0.02011 0.0
C3763 C 0.24446 0.27944 0.03653 0.0
H3764 H 0.78965 0.23234 0.02496 0.0
H3765 H 0.74545 0.20582 0.04871 0.0
H3766 H 0.77353 0.23445 0.99729 0.0
H3767 H 0.72943 0.20765 0.02096 0.0
H3768 H 0.70041 0.23031 0.97299 0.0
H3769 H 0.71613 0.23055 0.00103 0.0
H3770 H 0.76317 0.21272 0.97475 0.0
H3771 H 0.74757 0.21276 0.94677 0.0
C3772 C 0.77644 0.2271 0.02429 0.0
C3773 C 0.7688 0.21888 0.03895 0.0
C3774 C 0.76729 0.22817 0.00844 0.0
C3775 C 0.75026 0.22118 0.00701 0.0
C3776 C 0.74249 0.21325 0.02176 0.0
C3777 C 0.75171 0.21204 0.03756 0.0
C3778 C 0.71414 0.22661 0.97322 0.0
C3779 C 0.72276 0.22147 0.95774 0.0
C3780 C 0.72308 0.22661 0.98925 0.0
C3781 C 0.74084 0.22165 0.99002 0.0
C3782 C 0.74952 0.21674 0.9745 0.0
C3783 C 0.74054 0.21659 0.95853 0.0
H3784 H 0.05696 0.46689 0.21664 0.0
H3785 H 0.00045 0.46929 0.21197 0.0
H3786 H 0.05526 0.48172 0.24496 0.0
H3787 H 0.99869 0.48368 0.24056 0.0
H3788 H 0.00754 0.53052 0.27887 0.0
H3789 H 0.00706 0.51276 0.25235 0.0
H3790 H 0.04477 0.47716 0.27539 0.0
H3791 H 0.04515 0.49487 0.3021 0.0
C3792 C 0.04418 0.47055 0.22168 0.0
C3793 C 0.02885 0.46702 0.21202 0.0
C3794 C 0.04318 0.47883 0.238 0.0
C3795 C 0.02684 0.48382 0.24498 0.0
C3796 C 0.01148 0.48008 0.23544 0.0
C3797 C 0.01248 0.47172 0.21915 0.0
C3798 C 0.01544 0.51871 0.27849 0.0
C3799 C 0.02646 0.51417 0.29262 0.0
C3800 C 0.01518 0.50854 0.26324 0.0
C3801 C 0.02595 0.49363 0.26176 0.0
C3802 C 0.03653 0.48874 0.27607 0.0
C3803 C 0.03676 0.49889 0.29135 0.0
H3804 H 0.70097 0.76845 0.5251 0.0
H3805 H 0.74583 0.79473 0.54789 0.0
H3806 H 0.7158 0.7679 0.49665 0.0
H3807 H 0.76039 0.79469 0.5194 0.0
H3808 H 0.7886 0.77328 0.47108 0.0
H3809 H 0.77348 0.77312 0.49926 0.0
H3810 H 0.72537 0.78889 0.47359 0.0
H3811 H 0.7404 0.7885 0.44525 0.0
C3812 C 0.71401 0.77404 0.52404 0.0
C3813 C 0.72226 0.7816 0.53872 0.0
C3814 C 0.7224 0.77391 0.50773 0.0
C3815 C 0.73924 0.78126 0.50583 0.0
C3816 C 0.74748 0.78878 0.52052 0.0
C3817 C 0.73907 0.78897 0.53679 0.0
C3818 C 0.77476 0.77654 0.47141 0.0
C3819 C 0.76568 0.78086 0.45594 0.0
C3820 C 0.76615 0.77663 0.48758 0.0
C3821 C 0.74826 0.78102 0.48861 0.0
C3822 C 0.73914 0.7853 0.47315 0.0
C3823 C 0.74778 0.78527 0.45697 0.0
H3824 H 0.98006 0.0397 0.22135 0.0
H3825 H 0.95684 0.99402 0.19699 0.0
H3826 H 0.98099 0.02421 0.24948 0.0
H3827 H 0.95755 0.9786 0.22515 0.0
H3828 H 0.97842 0.9517 0.27526 0.0
H3829 H 0.97992 0.96682 0.24691 0.0
H3830 H 0.95769 0.01335 0.2706 0.0
H3831 H 0.95641 0.99833 0.29892 0.0
C3832 C 0.97533 0.0263 0.222 0.0
C3833 C 0.96834 0.01805 0.20705 0.0
C3834 C 0.97571 0.01751 0.23809 0.0
C3835 C 0.96929 0.00025 0.23945 0.0
C3836 C 0.96268 0.99186 0.22441 0.0
C3837 C 0.96213 0.00072 0.20837 0.0
C3838 C 0.974 0.96519 0.27438 0.0
C3839 C 0.96726 0.97384 0.28922 0.0
C3840 C 0.97474 0.97378 0.25819 0.0
C3841 C 0.96893 0.99123 0.25663 0.0
C3842 C 0.96238 -6e-05 0.27151 0.0
C3843 C 0.96148 0.9913 0.28764 0.0
H3844 H 0.27588 0.69164 0.53242 0.0
H3845 H 0.27943 0.74831 0.53226 0.0
H3846 H 0.26318 0.69239 0.50303 0.0
H3847 H 0.26734 0.74901 0.50265 0.0
H3848 H 0.22191 0.74196 0.46251 0.0
H3849 H 0.23855 0.7431 0.48963 0.0
H3850 H 0.27025 0.69938 0.47218 0.0
H3851 H 0.25358 0.69827 0.4448 0.0
C3852 C 0.27399 0.70425 0.52611 0.0
C3853 C 0.27856 0.71991 0.53474 0.0
C3854 C 0.26696 0.70466 0.50917 0.0
C3855 C 0.26431 0.72076 0.50052 0.0
C3856 C 0.26912 0.73641 0.50904 0.0
C3857 C 0.27619 0.73599 0.52596 0.0
C3858 C 0.23269 0.73286 0.46416 0.0
C3859 C 0.23631 0.71993 0.45146 0.0
C3860 C 0.24223 0.7335 0.47979 0.0
C3861 C 0.2556 0.72123 0.48311 0.0
C3862 C 0.25979 0.70881 0.4701 0.0
C3863 C 0.25026 0.70819 0.45443 0.0
H3864 H 0.45554 0.50496 0.8006 0.0
H3865 H 0.47762 0.45909 0.7755 0.0
H3866 H 0.45486 0.52009 0.77235 0.0
H3867 H 0.47744 0.4744 0.74736 0.0
H3868 H 0.45657 0.50041 0.69747 0.0
H3869 H 0.45599 0.48546 0.72578 0.0
H3870 H 0.47591 0.5323 0.75091 0.0
H3871 H 0.47598 0.54744 0.72264 0.0
C3872 C 0.4602 0.49809 0.78905 0.0
C3873 C 0.46664 0.48083 0.79028 0.0
C3874 C 0.45998 0.50682 0.77292 0.0
C3875 C 0.4661 0.49843 0.75766 0.0
C3876 C 0.47247 0.48114 0.75887 0.0
C3877 C 0.47277 0.47245 0.77501 0.0
C3878 C 0.46063 0.50759 0.70905 0.0
C3879 C 0.46633 0.52511 0.70781 0.0
C3880 C 0.46048 0.49896 0.72523 0.0
C3881 C 0.46596 0.50769 0.74054 0.0
C3882 C 0.47148 0.52528 0.73935 0.0
C3883 C 0.4717 0.53388 0.72315 0.0
H3884 H 0.75314 0.53644 0.72085 0.0
H3885 H 0.80666 0.54458 0.73805 0.0
H3886 H 0.75403 0.50662 0.73197 0.0
H3887 H 0.8072 0.51491 0.75013 0.0
H3888 H 0.80766 0.45471 0.75303 0.0
H3889 H 0.80746 0.48433 0.74073 0.0
H3890 H 0.75433 0.4916 0.75945 0.0
H3891 H 0.75418 0.46187 0.77077 0.0
C3892 C 0.76511 0.5319 0.72702 0.0
C3893 C 0.77987 0.54291 0.72845 0.0
C3894 C 0.76554 0.51483 0.7336 0.0
C3895 C 0.78068 0.5084 0.74196 0.0
C3896 C 0.79541 0.51943 0.74357 0.0
C3897 C 0.79501 0.53652 0.73687 0.0
C3898 C 0.79587 0.46255 0.75428 0.0
C3899 C 0.78096 0.45591 0.76294 0.0
C3900 C 0.79584 0.4796 0.74745 0.0
C3901 C 0.78089 0.49032 0.74916 0.0
C3902 C 0.76599 0.48362 0.75773 0.0
C3903 C 0.76599 0.46661 0.76444 0.0
H3904 H 0.78482 0.507 0.02959 0.0
H3905 H 0.80347 0.55157 -0.00034 0.0
H3906 H 0.75889 0.50538 0.011 0.0
H3907 H 0.77728 0.55008 0.98127 0.0
H3908 H 0.71686 0.55666 0.97369 0.0
H3909 H 0.74558 0.55615 0.98786 0.0
H3910 H 0.74848 0.5 0.98006 0.0
H3911 H 0.71953 0.5005 0.9661 0.0
C3912 C 0.78361 0.51623 0.01885 0.0
C3913 C 0.79618 0.52954 0.01625 0.0
C3914 C 0.76871 0.5153 0.0082 0.0
C3915 C 0.76603 0.52769 0.9948 0.0
C3916 C 0.77892 0.54053 0.9917 0.0
C3917 C 0.79387 0.5414 0.00227 0.0
C3918 C 0.72364 0.54423 0.975 0.0
C3919 C 0.71593 0.52861 0.96892 0.0
C3920 C 0.74016 0.54396 0.98291 0.0
C3921 C 0.74924 0.52803 0.98502 0.0
C3922 C 0.7417 0.51244 0.97865 0.0
C3923 C 0.72522 0.51274 0.97057 0.0
H3924 H 0.7126 0.54936 0.24647 0.0
H3925 H 0.73127 0.52342 0.29336 0.0
H3926 H 0.71294 0.52138 0.23083 0.0
H3927 H 0.73197 0.49546 0.27761 0.0
H3928 H 0.70707 0.44748 0.24964 0.0
H3929 H 0.70905 0.47543 0.26518 0.0
H3930 H 0.73431 0.49879 0.22 0.0
H3931 H 0.73198 0.47086 0.20431 0.0
C3932 C 0.7168 0.53768 0.2534 0.0
C3933 C 0.72182 0.53852 0.27114 0.0
C3934 C 0.71718 0.52172 0.24441 0.0
C3935 C 0.72246 0.50629 0.25303 0.0
C3936 C 0.72771 0.50716 0.2707 0.0
C3937 C 0.72746 0.52315 0.27966 0.0
C3938 C 0.71296 0.4586 0.24301 0.0
C3939 C 0.71929 0.45705 0.22575 0.0
C3940 C 0.71428 0.47453 0.25197 0.0
C3941 C 0.72185 0.48923 0.24378 0.0
C3942 C 0.72831 0.48766 0.22657 0.0
C3943 C 0.72711 0.47168 0.21765 0.0
H3944 H 0.80124 0.45259 0.49891 0.0
H3945 H 0.78017 0.48974 0.46135 0.0
H3946 H 0.77336 0.45285 0.51464 0.0
H3947 H 0.75264 0.49035 0.4775 0.0
H3948 H 0.71112 0.49707 0.52144 0.0
H3949 H 0.74029 0.49878 0.50798 0.0
H3950 H 0.7424 0.44212 0.50558 0.0
H3951 H 0.71326 0.44044 0.51905 0.0
C3952 C 0.79079 0.46088 0.49403 0.0
C3953 C 0.793 0.47098 0.47869 0.0
C3954 C 0.77485 0.46105 0.50309 0.0
C3955 C 0.76088 0.47152 0.49717 0.0
C3956 C 0.76328 0.48225 0.48238 0.0
C3957 C 0.77914 0.48193 0.47318 0.0
C3958 C 0.7179 0.48501 0.51812 0.0
C3959 C 0.70998 0.46862 0.52122 0.0
C3960 C 0.7345 0.48599 0.51037 0.0
C3961 C 0.74355 0.47058 0.50585 0.0
C3962 C 0.73572 0.45418 0.50912 0.0
C3963 C 0.71902 0.45322 0.51664 0.0
H3964 H 0.52189 0.95621 0.72184 0.0
H3965 H 0.5412 0.0044 0.69877 0.0
H3966 H 0.52216 0.96988 0.7507 0.0
H3967 H 0.54223 0.01783 0.7278 0.0
H3968 H 0.52175 0.04193 0.77887 0.0
H3969 H 0.52197 0.02825 0.75003 0.0
H3970 H 0.54247 0.98046 0.77283 0.0
H3971 H 0.54149 0.9939 0.80187 0.0
C3972 C 0.52617 0.96972 0.72289 0.0
C3973 C 0.53141 0.97924 0.70794 0.0
C3974 C 0.52656 0.97748 0.73949 0.0
C3975 C 0.53223 0.99493 0.74154 0.0
C3976 C 0.53761 0.00442 0.72663 0.0
C3977 C 0.5372 0.99666 0.71001 0.0
C3978 C 0.52612 0.02845 0.77781 0.0
C3979 C 0.53149 0.01897 0.79274 0.0
C3980 C 0.52648 0.02068 0.76121 0.0
C3981 C 0.53225 0.00328 0.75914 0.0
C3982 C 0.53777 0.99384 0.77403 0.0
C3983 C 0.53739 0.0016 0.79064 0.0
loop_
_geom_bond_atom_site_label_1
_geom_bond_atom_site_label_2
_geom_bond_distance
_geom_bond_site_symmetry_2
_ccdc_geom_bond_type
Co0 N4 2.148 . S
Co0 N10 2.128 . S
Co0 N20 2.194 . S
Co0 O25 2.351 . S
Co0 O26 2.155 . S
Co0 O27 2.096 . S
C1 N4 1.301 . S
C1 N5 1.328 . S
C1 H6 0.930 . S
C2 C3 1.333 . S
C2 N4 1.317 . S
C2 H7 0.930 . S
C3 C2 1.333 . S
C3 N5 1.350 . S
C3 H29 0.931 . S
N4 Co0 2.148 . S
N4 C1 1.301 . S
N4 C2 1.317 . S
N5 C1 1.328 . S
N5 C3 1.350 . S
H6 C1 0.930 . S
H7 C2 0.930 . S
C8 O9 1.224 . S
C8 O27 1.247 . S
O9 C8 1.224 . S
N10 Co0 2.128 . S
N10 C11 1.355 . S
N10 C13 1.311 . S
C11 N10 1.355 . S
C11 C12 1.363 . S
C11 H23 0.929 . S
C12 C11 1.363 . S
C12 N14 1.375 . S
C12 H30 0.931 . S
C13 N10 1.311 . S
C13 N14 1.347 . S
C13 H24 0.929 . S
N14 C12 1.375 . S
N14 C13 1.347 . S
C15 C18 1.365 . S
C15 N20 1.328 . S
C15 H21 0.929 . S
C16 C17 1.362 . S
C16 C19 1.378 . S
C16 H31 0.929 . S
C17 C16 1.362 . S
C17 C18 1.366 . S
C18 C15 1.365 . S
C18 C17 1.366 . S
C18 H32 0.930 . S
C19 C16 1.378 . S
C19 N20 1.315 . S
C19 H22 0.930 . S
N20 Co0 2.194 . S
N20 C15 1.328 . S
N20 C19 1.315 . S
H21 C15 0.929 . S
H22 C19 0.930 . S
H23 C11 0.929 . S
H24 C13 0.929 . S
O25 Co0 2.351 . S
O25 C28 1.244 . S
O26 Co0 2.155 . S
O26 C28 1.240 . S
O27 Co0 2.096 . S
O27 C8 1.247 . S
C28 O25 1.244 . S
C28 O26 1.240 . S
H29 C3 0.931 . S
H30 C12 0.931 . S
H31 C16 0.929 . S
H32 C18 0.930 . S
Co33 N37 2.148 . S
Co33 N43 2.128 . S
Co33 N53 2.194 . S
Co33 O58 2.351 . S
Co33 O59 2.155 . S
Co33 O60 2.096 . S
C34 N37 1.301 . S
C34 N38 1.328 . S
C34 H39 0.930 . S
C35 C36 1.333 . S
C35 N37 1.317 . S
C35 H40 0.930 . S
C36 C35 1.333 . S
C36 N38 1.350 . S
C36 H62 0.931 . S
N37 Co33 2.148 . S
N37 C34 1.301 . S
N37 C35 1.317 . S
N38 C34 1.328 . S
N38 C36 1.350 . S
H39 C34 0.930 . S
H40 C35 0.930 . S
C41 O42 1.224 . S
C41 O60 1.247 . S
O42 C41 1.224 . S
N43 Co33 2.128 . S
N43 C44 1.355 . S
N43 C46 1.311 . S
C44 N43 1.355 . S
C44 C45 1.363 . S
C44 H56 0.929 . S
C45 C44 1.363 . S
C45 N47 1.375 . S
C45 H63 0.931 . S
C46 N43 1.311 . S
C46 N47 1.347 . S
C46 H57 0.929 . S
N47 C45 1.375 . S
N47 C46 1.347 . S
C48 C51 1.365 . S
C48 N53 1.328 . S
C48 H54 0.929 . S
C49 C50 1.362 . S
C49 C52 1.378 . S
C49 H64 0.929 . S
C50 C49 1.362 . S
C50 C51 1.366 . S
C51 C48 1.365 . S
C51 C50 1.366 . S
C51 H65 0.930 . S
C52 C49 1.378 . S
C52 N53 1.315 . S
C52 H55 0.930 . S
N53 Co33 2.194 . S
N53 C48 1.328 . S
N53 C52 1.315 . S
H54 C48 0.929 . S
H55 C52 0.930 . S
H56 C44 0.929 . S
H57 C46 0.929 . S
O58 Co33 2.351 . S
O58 C61 1.244 . S
O59 Co33 2.155 . S
O59 C61 1.240 . S
O60 Co33 2.096 . S
O60 C41 1.247 . S
C61 O58 1.244 . S
C61 O59 1.240 . S
H62 C36 0.931 . S
H63 C45 0.931 . S
H64 C49 0.929 . S
H65 C51 0.930 . S
Co66 N70 2.148 . S
Co66 N76 2.128 . S
Co66 N86 2.194 . S
Co66 O91 2.351 . S
Co66 O92 2.155 . S
Co66 O93 2.096 . S
C67 N70 1.301 . S
C67 N71 1.328 . S
C67 H72 0.930 . S
C68 C69 1.333 . S
C68 N70 1.317 . S
C68 H73 0.930 . S
C69 C68 1.333 . S
C69 N71 1.350 . S
C69 H95 0.931 . S
N70 Co66 2.148 . S
N70 C67 1.301 . S
N70 C68 1.317 . S
N71 C67 1.328 . S
N71 C69 1.350 . S
H72 C67 0.930 . S
H73 C68 0.930 . S
C74 O75 1.224 . S
C74 O93 1.247 . S
O75 C74 1.224 . S
N76 Co66 2.128 . S
N76 C77 1.355 . S
N76 C79 1.311 . S
C77 N76 1.355 . S
C77 C78 1.363 . S
C77 H89 0.929 . S
C78 C77 1.363 . S
C78 N80 1.375 . S
C78 H96 0.931 . S
C79 N76 1.311 . S
C79 N80 1.347 . S
C79 H90 0.929 . S
N80 C78 1.375 . S
N80 C79 1.347 . S
C81 C84 1.365 . S
C81 N86 1.328 . S
C81 H87 0.929 . S
C82 C83 1.362 . S
C82 C85 1.378 . S
C82 H97 0.929 . S
C83 C82 1.362 . S
C83 C84 1.366 . S
C84 C81 1.365 . S
C84 C83 1.366 . S
C84 H98 0.930 . S
C85 C82 1.378 . S
C85 N86 1.315 . S
C85 H88 0.930 . S
N86 Co66 2.194 . S
N86 C81 1.328 . S
N86 C85 1.315 . S
H87 C81 0.929 . S
H88 C85 0.930 . S
H89 C77 0.929 . S
H90 C79 0.929 . S
O91 Co66 2.351 . S
O91 C94 1.244 . S
O92 Co66 2.155 . S
O92 C94 1.240 . S
O93 Co66 2.096 . S
O93 C74 1.247 . S
C94 O91 1.244 . S
C94 O92 1.240 . S
H95 C69 0.931 . S
H96 C78 0.931 . S
H97 C82 0.929 . S
H98 C84 0.930 . S
Co99 N103 2.148 . S
Co99 N109 2.128 . S
Co99 N119 2.194 . S
Co99 O124 2.351 . S
Co99 O125 2.155 . S
Co99 O126 2.096 . S
C100 N103 1.301 . S
C100 N104 1.328 . S
C100 H105 0.930 . S
C101 C102 1.333 1_554 S
C101 N103 1.317 . S
C101 H106 0.930 1_554 S
C102 C101 1.333 1_556 S
C102 N104 1.350 1_556 S
C102 H128 0.931 . S
N103 Co99 2.148 . S
N103 C100 1.301 . S
N103 C101 1.317 . S
N104 C100 1.328 . S
N104 C102 1.350 1_554 S
H105 C100 0.930 . S
H106 C101 0.930 1_556 S
C107 O108 1.224 . S
C107 O126 1.247 . S
O108 C107 1.224 . S
N109 Co99 2.128 . S
N109 C110 1.355 . S
N109 C112 1.311 . S
C110 N109 1.355 . S
C110 C111 1.363 . S
C110 H122 0.929 . S
C111 C110 1.363 . S
C111 N113 1.375 . S
C111 H129 0.931 . S
C112 N109 1.311 . S
C112 N113 1.347 . S
C112 H123 0.929 . S
N113 C111 1.375 . S
N113 C112 1.347 . S
C114 C117 1.365 . S
C114 N119 1.328 . S
C114 H120 0.929 . S
C115 C116 1.362 . S
C115 C118 1.378 . S
C115 H130 0.929 . S
C116 C115 1.362 . S
C116 C117 1.366 . S
C117 C114 1.365 . S
C117 C116 1.366 . S
C117 H131 0.930 . S
C118 C115 1.378 . S
C118 N119 1.315 . S
C118 H121 0.930 . S
N119 Co99 2.194 . S
N119 C114 1.328 . S
N119 C118 1.315 . S
H120 C114 0.929 . S
H121 C118 0.930 . S
H122 C110 0.929 . S
H123 C112 0.929 . S
O124 Co99 2.351 . S
O124 C127 1.244 . S
O125 Co99 2.155 . S
O125 C127 1.240 . S
O126 Co99 2.096 . S
O126 C107 1.247 . S
C127 O124 1.244 . S
C127 O125 1.240 . S
H128 C102 0.931 . S
H129 C111 0.931 . S
H130 C115 0.929 . S
H131 C117 0.930 . S
Co132 N136 2.148 . S
Co132 N142 2.128 . S
Co132 N152 2.194 . S
Co132 O157 2.351 . S
Co132 O158 2.155 . S
Co132 O159 2.096 . S
C133 N136 1.301 . S
C133 N137 1.328 . S
C133 H138 0.930 . S
C134 C135 1.333 . S
C134 N136 1.317 . S
C134 H139 0.930 . S
C135 C134 1.333 . S
C135 N137 1.350 . S
C135 H161 0.931 . S
N136 Co132 2.148 . S
N136 C133 1.301 . S
N136 C134 1.317 . S
N137 C133 1.328 . S
N137 C135 1.350 . S
H138 C133 0.930 . S
H139 C134 0.930 . S
C140 O141 1.224 . S
C140 O159 1.247 . S
O141 C140 1.224 . S
N142 Co132 2.128 . S
N142 C143 1.355 . S
N142 C145 1.311 . S
C143 N142 1.355 . S
C143 C144 1.363 . S
C143 H155 0.929 . S
C144 C143 1.363 . S
C144 N146 1.375 . S
C144 H162 0.931 . S
C145 N142 1.311 . S
C145 N146 1.347 . S
C145 H156 0.929 . S
N146 C144 1.375 . S
N146 C145 1.347 . S
C147 C150 1.365 . S
C147 N152 1.328 . S
C147 H153 0.929 . S
C148 C149 1.362 . S
C148 C151 1.378 . S
C148 H163 0.929 . S
C149 C148 1.362 . S
C149 C150 1.366 . S
C150 C147 1.365 . S
C150 C149 1.366 . S
C150 H164 0.930 . S
C151 C148 1.378 . S
C151 N152 1.315 . S
C151 H154 0.930 . S
N152 Co132 2.194 . S
N152 C147 1.328 . S
N152 C151 1.315 . S
H153 C147 0.929 . S
H154 C151 0.930 . S
H155 C143 0.929 . S
H156 C145 0.929 . S
O157 Co132 2.351 . S
O157 C160 1.244 . S
O158 Co132 2.155 . S
O158 C160 1.240 . S
O159 Co132 2.096 . S
O159 C140 1.247 . S
C160 O157 1.244 . S
C160 O158 1.240 . S
H161 C135 0.931 . S
H162 C144 0.931 . S
H163 C148 0.929 . S
H164 C150 0.930 . S
Co165 N169 2.148 . S
Co165 N175 2.128 . S
Co165 N185 2.194 . S
Co165 O190 2.351 . S
Co165 O191 2.155 . S
Co165 O192 2.096 . S
C166 N169 1.301 . S
C166 N170 1.328 . S
C166 H171 0.930 . S
C167 C168 1.333 . S
C167 N169 1.317 . S
C167 H172 0.930 . S
C168 C167 1.333 . S
C168 N170 1.350 . S
C168 H194 0.931 . S
N169 Co165 2.148 . S
N169 C166 1.301 . S
N169 C167 1.317 . S
N170 C166 1.328 . S
N170 C168 1.350 . S
H171 C166 0.930 . S
H172 C167 0.930 . S
C173 O174 1.224 . S
C173 O192 1.247 . S
O174 C173 1.224 . S
N175 Co165 2.128 . S
N175 C176 1.355 . S
N175 C178 1.311 . S
C176 N175 1.355 . S
C176 C177 1.363 . S
C176 H188 0.929 . S
C177 C176 1.363 . S
C177 N179 1.375 . S
C177 H195 0.931 . S
C178 N175 1.311 . S
C178 N179 1.347 . S
C178 H189 0.929 . S
N179 C177 1.375 . S
N179 C178 1.347 . S
C180 C183 1.365 . S
C180 N185 1.328 . S
C180 H186 0.929 . S
C181 C182 1.362 . S
C181 C184 1.378 . S
C181 H196 0.929 . S
C182 C181 1.362 . S
C182 C183 1.366 . S
C183 C180 1.365 . S
C183 C182 1.366 . S
C183 H197 0.930 . S
C184 C181 1.378 . S
C184 N185 1.315 . S
C184 H187 0.930 . S
N185 Co165 2.194 . S
N185 C180 1.328 . S
N185 C184 1.315 . S
H186 C180 0.929 . S
H187 C184 0.930 . S
H188 C176 0.929 . S
H189 C178 0.929 . S
O190 Co165 2.351 . S
O190 C193 1.244 . S
O191 Co165 2.155 . S
O191 C193 1.240 . S
O192 Co165 2.096 . S
O192 C173 1.247 . S
C193 O190 1.244 . S
C193 O191 1.240 . S
H194 C168 0.931 . S
H195 C177 0.931 . S
H196 C181 0.929 . S
H197 C183 0.930 . S
Co198 N202 2.148 . S
Co198 N208 2.128 . S
Co198 N218 2.194 . S
Co198 O223 2.351 . S
Co198 O224 2.155 . S
Co198 O225 2.096 . S
C199 N202 1.301 . S
C199 N203 1.328 . S
C199 H204 0.930 . S
C200 C201 1.333 . S
C200 N202 1.317 . S
C200 H205 0.930 . S
C201 C200 1.333 . S
C201 N203 1.350 . S
C201 H227 0.931 . S
N202 Co198 2.148 . S
N202 C199 1.301 . S
N202 C200 1.317 . S
N203 C199 1.328 . S
N203 C201 1.350 . S
H204 C199 0.930 . S
H205 C200 0.930 . S
C206 O207 1.224 . S
C206 O225 1.247 . S
O207 C206 1.224 . S
N208 Co198 2.128 . S
N208 C209 1.355 . S
N208 C211 1.311 . S
C209 N208 1.355 . S
C209 C210 1.363 . S
C209 H221 0.929 . S
C210 C209 1.363 . S
C210 N212 1.375 . S
C210 H228 0.931 . S
C211 N208 1.311 . S
C211 N212 1.347 . S
C211 H222 0.929 . S
N212 C210 1.375 . S
N212 C211 1.347 . S
C213 C216 1.365 . S
C213 N218 1.328 . S
C213 H219 0.929 . S
C214 C215 1.362 . S
C214 C217 1.378 . S
C214 H229 0.929 . S
C215 C214 1.362 . S
C215 C216 1.366 . S
C216 C213 1.365 . S
C216 C215 1.366 . S
C216 H230 0.930 . S
C217 C214 1.378 . S
C217 N218 1.315 . S
C217 H220 0.930 . S
N218 Co198 2.194 . S
N218 C213 1.328 . S
N218 C217 1.315 . S
H219 C213 0.929 . S
H220 C217 0.930 . S
H221 C209 0.929 . S
H222 C211 0.929 . S
O223 Co198 2.351 . S
O223 C226 1.244 . S
O224 Co198 2.155 . S
O224 C226 1.240 . S
O225 Co198 2.096 . S
O225 C206 1.247 . S
C226 O223 1.244 . S
C226 O224 1.240 . S
H227 C201 0.931 . S
H228 C210 0.931 . S
H229 C214 0.929 . S
H230 C216 0.930 . S
Co231 N235 2.148 . S
Co231 N241 2.128 . S
Co231 N251 2.194 . S
Co231 O256 2.351 . S
Co231 O257 2.155 . S
Co231 O258 2.096 . S
C232 N235 1.301 . S
C232 N236 1.328 . S
C232 H237 0.930 . S
C233 C234 1.333 1_556 S
C233 N235 1.317 . S
C233 H238 0.930 1_556 S
C234 C233 1.333 1_554 S
C234 N236 1.350 1_554 S
C234 H260 0.931 . S
N235 Co231 2.148 . S
N235 C232 1.301 . S
N235 C233 1.317 . S
N236 C232 1.328 . S
N236 C234 1.350 1_556 S
H237 C232 0.930 . S
H238 C233 0.930 1_554 S
C239 O240 1.224 . S
C239 O258 1.247 . S
O240 C239 1.224 . S
N241 Co231 2.128 . S
N241 C242 1.355 . S
N241 C244 1.311 . S
C242 N241 1.355 . S
C242 C243 1.363 . S
C242 H254 0.929 . S
C243 C242 1.363 . S
C243 N245 1.375 . S
C243 H261 0.931 . S
C244 N241 1.311 . S
C244 N245 1.347 . S
C244 H255 0.929 . S
N245 C243 1.375 . S
N245 C244 1.347 . S
C246 C249 1.365 . S
C246 N251 1.328 . S
C246 H252 0.929 . S
C247 C248 1.362 . S
C247 C250 1.378 . S
C247 H262 0.929 . S
C248 C247 1.362 . S
C248 C249 1.366 . S
C249 C246 1.365 . S
C249 C248 1.366 . S
C249 H263 0.930 . S
C250 C247 1.378 . S
C250 N251 1.315 . S
C250 H253 0.930 . S
N251 Co231 2.194 . S
N251 C246 1.328 . S
N251 C250 1.315 . S
H252 C246 0.929 . S
H253 C250 0.930 . S
H254 C242 0.929 . S
H255 C244 0.929 . S
O256 Co231 2.351 . S
O256 C259 1.244 . S
O257 Co231 2.155 . S
O257 C259 1.240 . S
O258 Co231 2.096 . S
O258 C239 1.247 . S
C259 O256 1.244 . S
C259 O257 1.240 . S
H260 C234 0.931 . S
H261 C243 0.931 . S
H262 C247 0.929 . S
H263 C249 0.930 . S
Co264 N268 2.148 . S
Co264 N274 2.128 . S
Co264 N284 2.194 . S
Co264 O289 2.351 . S
Co264 O290 2.155 . S
Co264 O291 2.096 . S
C265 N268 1.301 . S
C265 N269 1.328 . S
C265 H270 0.930 . S
C266 C267 1.333 . S
C266 N268 1.317 . S
C266 H271 0.930 . S
C267 C266 1.333 . S
C267 N269 1.350 . S
C267 H293 0.931 . S
N268 Co264 2.148 . S
N268 C265 1.301 . S
N268 C266 1.317 . S
N269 C265 1.328 . S
N269 C267 1.350 . S
H270 C265 0.930 . S
H271 C266 0.930 . S
C272 O273 1.224 . S
C272 O291 1.247 . S
O273 C272 1.224 . S
N274 Co264 2.128 . S
N274 C275 1.355 . S
N274 C277 1.311 . S
C275 N274 1.355 . S
C275 C276 1.363 . S
C275 H287 0.929 . S
C276 C275 1.363 . S
C276 N278 1.375 . S
C276 H294 0.931 . S
C277 N274 1.311 . S
C277 N278 1.347 . S
C277 H288 0.929 . S
N278 C276 1.375 . S
N278 C277 1.347 . S
C279 C282 1.365 . S
C279 N284 1.328 . S
C279 H285 0.929 . S
C280 C281 1.362 . S
C280 C283 1.378 . S
C280 H295 0.929 . S
C281 C280 1.362 . S
C281 C282 1.366 . S
C282 C279 1.365 . S
C282 C281 1.366 . S
C282 H296 0.930 . S
C283 C280 1.378 . S
C283 N284 1.315 . S
C283 H286 0.930 . S
N284 Co264 2.194 . S
N284 C279 1.328 . S
N284 C283 1.315 . S
H285 C279 0.929 . S
H286 C283 0.930 . S
H287 C275 0.929 . S
H288 C277 0.929 . S
O289 Co264 2.351 . S
O289 C292 1.244 . S
O290 Co264 2.155 . S
O290 C292 1.240 . S
O291 Co264 2.096 . S
O291 C272 1.247 . S
C292 O289 1.244 . S
C292 O290 1.240 . S
H293 C267 0.931 . S
H294 C276 0.931 . S
H295 C280 0.929 . S
H296 C282 0.930 . S
Co297 N301 2.148 . S
Co297 N307 2.128 . S
Co297 N317 2.194 . S
Co297 O322 2.351 . S
Co297 O323 2.155 . S
Co297 O324 2.096 . S
C298 N301 1.301 . S
C298 N302 1.328 . S
C298 H303 0.930 . S
C299 C300 1.333 1_545 S
C299 N301 1.317 . S
C299 H304 0.930 1_545 S
C300 C299 1.333 1_565 S
C300 N302 1.350 1_565 S
C300 H326 0.931 . S
N301 Co297 2.148 . S
N301 C298 1.301 . S
N301 C299 1.317 . S
N302 C298 1.328 . S
N302 C300 1.350 1_545 S
H303 C298 0.930 . S
H304 C299 0.930 1_565 S
C305 O306 1.224 . S
C305 O324 1.247 . S
O306 C305 1.224 . S
N307 Co297 2.128 . S
N307 C308 1.355 . S
N307 C310 1.311 . S
C308 N307 1.355 . S
C308 C309 1.363 . S
C308 H320 0.929 . S
C309 C308 1.363 . S
C309 N311 1.375 . S
C309 H327 0.931 . S
C310 N307 1.311 . S
C310 N311 1.347 . S
C310 H321 0.929 . S
N311 C309 1.375 . S
N311 C310 1.347 . S
C312 C315 1.365 . S
C312 N317 1.328 . S
C312 H318 0.929 . S
C313 C314 1.362 . S
C313 C316 1.378 . S
C313 H328 0.929 . S
C314 C313 1.362 . S
C314 C315 1.366 . S
C315 C312 1.365 . S
C315 C314 1.366 . S
C315 H329 0.930 . S
C316 C313 1.378 . S
C316 N317 1.315 . S
C316 H319 0.930 . S
N317 Co297 2.194 . S
N317 C312 1.328 . S
N317 C316 1.315 . S
H318 C312 0.929 . S
H319 C316 0.930 . S
H320 C308 0.929 . S
H321 C310 0.929 . S
O322 Co297 2.351 . S
O322 C325 1.244 . S
O323 Co297 2.155 . S
O323 C325 1.240 . S
O324 Co297 2.096 . S
O324 C305 1.247 . S
C325 O322 1.244 . S
C325 O323 1.240 . S
H326 C300 0.931 . S
H327 C309 0.931 . S
H328 C313 0.929 . S
H329 C315 0.930 . S
Co330 N334 2.148 . S
Co330 N340 2.128 . S
Co330 N350 2.194 . S
Co330 O355 2.351 . S
Co330 O356 2.155 . S
Co330 O357 2.096 . S
C331 N334 1.301 . S
C331 N335 1.328 . S
C331 H336 0.930 . S
C332 C333 1.333 . S
C332 N334 1.317 . S
C332 H337 0.930 . S
C333 C332 1.333 . S
C333 N335 1.350 . S
C333 H359 0.931 . S
N334 Co330 2.148 . S
N334 C331 1.301 . S
N334 C332 1.317 . S
N335 C331 1.328 . S
N335 C333 1.350 . S
H336 C331 0.930 . S
H337 C332 0.930 . S
C338 O339 1.224 . S
C338 O357 1.247 . S
O339 C338 1.224 . S
N340 Co330 2.128 . S
N340 C341 1.355 . S
N340 C343 1.311 . S
C341 N340 1.355 . S
C341 C342 1.363 . S
C341 H353 0.929 . S
C342 C341 1.363 . S
C342 N344 1.375 . S
C342 H360 0.931 . S
C343 N340 1.311 . S
C343 N344 1.347 . S
C343 H354 0.929 . S
N344 C342 1.375 . S
N344 C343 1.347 . S
C345 C348 1.365 . S
C345 N350 1.328 . S
C345 H351 0.929 . S
C346 C347 1.362 . S
C346 C349 1.378 . S
C346 H361 0.929 . S
C347 C346 1.362 . S
C347 C348 1.366 . S
C348 C345 1.365 . S
C348 C347 1.366 . S
C348 H362 0.930 . S
C349 C346 1.378 . S
C349 N350 1.315 . S
C349 H352 0.930 . S
N350 Co330 2.194 . S
N350 C345 1.328 . S
N350 C349 1.315 . S
H351 C345 0.929 . S
H352 C349 0.930 . S
H353 C341 0.929 . S
H354 C343 0.929 . S
O355 Co330 2.351 . S
O355 C358 1.244 . S
O356 Co330 2.155 . S
O356 C358 1.240 . S
O357 Co330 2.096 . S
O357 C338 1.247 . S
C358 O355 1.244 . S
C358 O356 1.240 . S
H359 C333 0.931 . S
H360 C342 0.931 . S
H361 C346 0.929 . S
H362 C348 0.930 . S
Co363 N367 2.148 . S
Co363 N373 2.128 . S
Co363 N383 2.194 . S
Co363 O388 2.351 . S
Co363 O389 2.155 . S
Co363 O390 2.096 . S
C364 N367 1.301 . S
C364 N368 1.328 . S
C364 H369 0.930 . S
C365 C366 1.333 1_565 S
C365 N367 1.317 . S
C365 H370 0.930 1_565 S
C366 C365 1.333 1_545 S
C366 N368 1.350 1_545 S
C366 H392 0.931 . S
N367 Co363 2.148 . S
N367 C364 1.301 . S
N367 C365 1.317 . S
N368 C364 1.328 . S
N368 C366 1.350 1_565 S
H369 C364 0.930 . S
H370 C365 0.930 1_545 S
C371 O372 1.224 . S
C371 O390 1.247 . S
O372 C371 1.224 . S
N373 Co363 2.128 . S
N373 C374 1.355 . S
N373 C376 1.311 . S
C374 N373 1.355 . S
C374 C375 1.363 . S
C374 H386 0.929 . S
C375 C374 1.363 . S
C375 N377 1.375 . S
C375 H393 0.931 . S
C376 N373 1.311 . S
C376 N377 1.347 . S
C376 H387 0.929 . S
N377 C375 1.375 . S
N377 C376 1.347 . S
C378 C381 1.365 . S
C378 N383 1.328 . S
C378 H384 0.929 . S
C379 C380 1.362 . S
C379 C382 1.378 . S
C379 H394 0.929 . S
C380 C379 1.362 . S
C380 C381 1.366 . S
C381 C378 1.365 . S
C381 C380 1.366 . S
C381 H395 0.930 . S
C382 C379 1.378 . S
C382 N383 1.315 . S
C382 H385 0.930 . S
N383 Co363 2.194 . S
N383 C378 1.328 . S
N383 C382 1.315 . S
H384 C378 0.929 . S
H385 C382 0.930 . S
H386 C374 0.929 . S
H387 C376 0.929 . S
O388 Co363 2.351 . S
O388 C391 1.244 . S
O389 Co363 2.155 . S
O389 C391 1.240 . S
O390 Co363 2.096 . S
O390 C371 1.247 . S
C391 O388 1.244 . S
C391 O389 1.240 . S
H392 C366 0.931 . S
H393 C375 0.931 . S
H394 C379 0.929 . S
H395 C381 0.930 . S
Co396 N400 2.148 . S
Co396 N406 2.128 . S
Co396 N416 2.194 . S
Co396 O421 2.351 . S
Co396 O422 2.155 . S
Co396 O423 2.096 . S
C397 N400 1.301 . S
C397 N401 1.328 . S
C397 H402 0.930 . S
C398 C399 1.333 . S
C398 N400 1.317 . S
C398 H403 0.930 . S
C399 C398 1.333 . S
C399 N401 1.350 . S
C399 H425 0.931 . S
N400 Co396 2.148 . S
N400 C397 1.301 . S
N400 C398 1.317 . S
N401 C397 1.328 . S
N401 C399 1.350 . S
H402 C397 0.930 . S
H403 C398 0.930 . S
C404 O405 1.224 . S
C404 O423 1.247 . S
O405 C404 1.224 . S
N406 Co396 2.128 . S
N406 C407 1.355 . S
N406 C409 1.311 . S
C407 N406 1.355 . S
C407 C408 1.363 . S
C407 H419 0.929 . S
C408 C407 1.363 . S
C408 N410 1.375 . S
C408 H426 0.931 . S
C409 N406 1.311 . S
C409 N410 1.347 . S
C409 H420 0.929 . S
N410 C408 1.375 . S
N410 C409 1.347 . S
C411 C414 1.365 . S
C411 N416 1.328 . S
C411 H417 0.929 . S
C412 C413 1.362 . S
C412 C415 1.378 . S
C412 H427 0.929 . S
C413 C412 1.362 . S
C413 C414 1.366 . S
C414 C411 1.365 . S
C414 C413 1.366 . S
C414 H428 0.930 . S
C415 C412 1.378 . S
C415 N416 1.315 . S
C415 H418 0.930 . S
N416 Co396 2.194 . S
N416 C411 1.328 . S
N416 C415 1.315 . S
H417 C411 0.929 . S
H418 C415 0.930 . S
H419 C407 0.929 . S
H420 C409 0.929 . S
O421 Co396 2.351 . S
O421 C424 1.244 . S
O422 Co396 2.155 . S
O422 C424 1.240 . S
O423 Co396 2.096 . S
O423 C404 1.247 . S
C424 O421 1.244 . S
C424 O422 1.240 . S
H425 C399 0.931 . S
H426 C408 0.931 . S
H427 C412 0.929 . S
H428 C414 0.930 . S
Co429 N433 2.148 . S
Co429 N439 2.128 . S
Co429 N449 2.194 . S
Co429 O454 2.351 . S
Co429 O455 2.155 . S
Co429 O456 2.096 . S
C430 N433 1.301 . S
C430 N434 1.328 . S
C430 H435 0.930 . S
C431 C432 1.333 1_545 S
C431 N433 1.317 . S
C431 H436 0.930 1_545 S
C432 C431 1.333 1_565 S
C432 N434 1.350 1_565 S
C432 H458 0.931 . S
N433 Co429 2.148 . S
N433 C430 1.301 . S
N433 C431 1.317 . S
N434 C430 1.328 . S
N434 C432 1.350 1_545 S
H435 C430 0.930 . S
H436 C431 0.930 1_565 S
C437 O438 1.224 . S
C437 O456 1.247 . S
O438 C437 1.224 . S
N439 Co429 2.128 . S
N439 C440 1.355 . S
N439 C442 1.311 . S
C440 N439 1.355 . S
C440 C441 1.363 . S
C440 H452 0.929 . S
C441 C440 1.363 . S
C441 N443 1.375 . S
C441 H459 0.931 . S
C442 N439 1.311 . S
C442 N443 1.347 . S
C442 H453 0.929 . S
N443 C441 1.375 . S
N443 C442 1.347 . S
C444 C447 1.365 . S
C444 N449 1.328 . S
C444 H450 0.929 . S
C445 C446 1.362 . S
C445 C448 1.378 . S
C445 H460 0.929 . S
C446 C445 1.362 . S
C446 C447 1.366 . S
C447 C444 1.365 . S
C447 C446 1.366 . S
C447 H461 0.930 . S
C448 C445 1.378 . S
C448 N449 1.315 . S
C448 H451 0.930 . S
N449 Co429 2.194 . S
N449 C444 1.328 . S
N449 C448 1.315 . S
H450 C444 0.929 . S
H451 C448 0.930 . S
H452 C440 0.929 . S
H453 C442 0.929 . S
O454 Co429 2.351 . S
O454 C457 1.244 . S
O455 Co429 2.155 . S
O455 C457 1.240 . S
O456 Co429 2.096 . S
O456 C437 1.247 . S
C457 O454 1.244 . S
C457 O455 1.240 . S
H458 C432 0.931 . S
H459 C441 0.931 . S
H460 C445 0.929 . S
H461 C447 0.930 . S
Co462 N466 2.148 . S
Co462 N472 2.128 . S
Co462 N482 2.194 . S
Co462 O487 2.351 . S
Co462 O488 2.155 . S
Co462 O489 2.096 . S
C463 N466 1.301 . S
C463 N467 1.328 . S
C463 H468 0.930 . S
C464 C465 1.333 . S
C464 N466 1.317 . S
C464 H469 0.930 . S
C465 C464 1.333 . S
C465 N467 1.350 . S
C465 H491 0.931 . S
N466 Co462 2.148 . S
N466 C463 1.301 . S
N466 C464 1.317 . S
N467 C463 1.328 . S
N467 C465 1.350 . S
H468 C463 0.930 . S
H469 C464 0.930 . S
C470 O471 1.224 . S
C470 O489 1.247 . S
O471 C470 1.224 . S
N472 Co462 2.128 . S
N472 C473 1.355 . S
N472 C475 1.311 . S
C473 N472 1.355 . S
C473 C474 1.363 . S
C473 H485 0.929 . S
C474 C473 1.363 . S
C474 N476 1.375 . S
C474 H492 0.931 . S
C475 N472 1.311 . S
C475 N476 1.347 . S
C475 H486 0.929 . S
N476 C474 1.375 . S
N476 C475 1.347 . S
C477 C480 1.365 . S
C477 N482 1.328 . S
C477 H483 0.929 . S
C478 C479 1.362 . S
C478 C481 1.378 . S
C478 H493 0.929 . S
C479 C478 1.362 . S
C479 C480 1.366 . S
C480 C477 1.365 . S
C480 C479 1.366 . S
C480 H494 0.930 . S
C481 C478 1.378 . S
C481 N482 1.315 . S
C481 H484 0.930 . S
N482 Co462 2.194 . S
N482 C477 1.328 . S
N482 C481 1.315 . S
H483 C477 0.929 . S
H484 C481 0.930 . S
H485 C473 0.929 . S
H486 C475 0.929 . S
O487 Co462 2.351 . S
O487 C490 1.244 . S
O488 Co462 2.155 . S
O488 C490 1.240 . S
O489 Co462 2.096 . S
O489 C470 1.247 . S
C490 O487 1.244 . S
C490 O488 1.240 . S
H491 C465 0.931 . S
H492 C474 0.931 . S
H493 C478 0.929 . S
H494 C480 0.930 . S
Co495 N499 2.148 . S
Co495 N505 2.128 . S
Co495 N515 2.194 . S
Co495 O520 2.351 . S
Co495 O521 2.155 . S
Co495 O522 2.096 . S
C496 N499 1.301 . S
C496 N500 1.328 . S
C496 H501 0.930 . S
C497 C498 1.333 1_565 S
C497 N499 1.317 . S
C497 H502 0.930 1_565 S
C498 C497 1.333 1_545 S
C498 N500 1.350 1_545 S
C498 H524 0.931 . S
N499 Co495 2.148 . S
N499 C496 1.301 . S
N499 C497 1.317 . S
N500 C496 1.328 . S
N500 C498 1.350 1_565 S
H501 C496 0.930 . S
H502 C497 0.930 1_545 S
C503 O504 1.224 . S
C503 O522 1.247 . S
O504 C503 1.224 . S
N505 Co495 2.128 . S
N505 C506 1.355 . S
N505 C508 1.311 . S
C506 N505 1.355 . S
C506 C507 1.363 . S
C506 H518 0.929 . S
C507 C506 1.363 . S
C507 N509 1.375 . S
C507 H525 0.931 . S
C508 N505 1.311 . S
C508 N509 1.347 . S
C508 H519 0.929 . S
N509 C507 1.375 . S
N509 C508 1.347 . S
C510 C513 1.365 . S
C510 N515 1.328 . S
C510 H516 0.929 . S
C511 C512 1.362 . S
C511 C514 1.378 . S
C511 H526 0.929 . S
C512 C511 1.362 . S
C512 C513 1.366 . S
C513 C510 1.365 . S
C513 C512 1.366 . S
C513 H527 0.930 . S
C514 C511 1.378 . S
C514 N515 1.315 . S
C514 H517 0.930 . S
N515 Co495 2.194 . S
N515 C510 1.328 . S
N515 C514 1.315 . S
H516 C510 0.929 . S
H517 C514 0.930 . S
H518 C506 0.929 . S
H519 C508 0.929 . S
O520 Co495 2.351 . S
O520 C523 1.244 . S
O521 Co495 2.155 . S
O521 C523 1.240 . S
O522 Co495 2.096 . S
O522 C503 1.247 . S
C523 O520 1.244 . S
C523 O521 1.240 . S
H524 C498 0.931 . S
H525 C507 0.931 . S
H526 C511 0.929 . S
H527 C513 0.930 . S
Co528 N532 2.148 . S
Co528 N538 2.128 . S
Co528 N548 2.194 . S
Co528 O553 2.351 . S
Co528 O554 2.155 . S
Co528 O555 2.096 . S
C529 N532 1.301 . S
C529 N533 1.328 . S
C529 H534 0.930 . S
C530 C531 1.333 . S
C530 N532 1.317 . S
C530 H535 0.930 . S
C531 C530 1.333 . S
C531 N533 1.350 . S
C531 H557 0.931 . S
N532 Co528 2.148 . S
N532 C529 1.301 . S
N532 C530 1.317 . S
N533 C529 1.328 . S
N533 C531 1.350 . S
H534 C529 0.930 . S
H535 C530 0.930 . S
C536 O537 1.224 . S
C536 O555 1.247 . S
O537 C536 1.224 . S
N538 Co528 2.128 . S
N538 C539 1.355 . S
N538 C541 1.311 . S
C539 N538 1.355 . S
C539 C540 1.363 . S
C539 H551 0.929 . S
C540 C539 1.363 . S
C540 N542 1.375 . S
C540 H558 0.931 . S
C541 N538 1.311 . S
C541 N542 1.347 . S
C541 H552 0.929 . S
N542 C540 1.375 . S
N542 C541 1.347 . S
C543 C546 1.365 . S
C543 N548 1.328 . S
C543 H549 0.929 . S
C544 C545 1.362 . S
C544 C547 1.378 . S
C544 H559 0.929 . S
C545 C544 1.362 . S
C545 C546 1.366 . S
C546 C543 1.365 . S
C546 C545 1.366 . S
C546 H560 0.930 . S
C547 C544 1.378 . S
C547 N548 1.315 . S
C547 H550 0.930 . S
N548 Co528 2.194 . S
N548 C543 1.328 . S
N548 C547 1.315 . S
H549 C543 0.929 . S
H550 C547 0.930 . S
H551 C539 0.929 . S
H552 C541 0.929 . S
O553 Co528 2.351 . S
O553 C556 1.244 . S
O554 Co528 2.155 . S
O554 C556 1.240 . S
O555 Co528 2.096 . S
O555 C536 1.247 . S
C556 O553 1.244 . S
C556 O554 1.240 . S
H557 C531 0.931 . S
H558 C540 0.931 . S
H559 C544 0.929 . S
H560 C546 0.930 . S
Co561 N565 2.148 . S
Co561 N571 2.128 . S
Co561 N581 2.194 . S
Co561 O586 2.351 . S
Co561 O587 2.155 . S
Co561 O588 2.096 . S
C562 N565 1.301 . S
C562 N566 1.328 . S
C562 H567 0.930 . S
C563 C564 1.333 . S
C563 N565 1.317 . S
C563 H568 0.930 . S
C564 C563 1.333 . S
C564 N566 1.350 . S
C564 H590 0.931 . S
N565 Co561 2.148 . S
N565 C562 1.301 . S
N565 C563 1.317 . S
N566 C562 1.328 . S
N566 C564 1.350 . S
H567 C562 0.930 . S
H568 C563 0.930 . S
C569 O570 1.224 . S
C569 O588 1.247 . S
O570 C569 1.224 . S
N571 Co561 2.128 . S
N571 C572 1.355 . S
N571 C574 1.311 . S
C572 N571 1.355 . S
C572 C573 1.363 . S
C572 H584 0.929 . S
C573 C572 1.363 . S
C573 N575 1.375 . S
C573 H591 0.931 . S
C574 N571 1.311 . S
C574 N575 1.347 . S
C574 H585 0.929 . S
N575 C573 1.375 . S
N575 C574 1.347 . S
C576 C579 1.365 . S
C576 N581 1.328 . S
C576 H582 0.929 . S
C577 C578 1.362 . S
C577 C580 1.378 . S
C577 H592 0.929 . S
C578 C577 1.362 . S
C578 C579 1.366 . S
C579 C576 1.365 . S
C579 C578 1.366 . S
C579 H593 0.930 . S
C580 C577 1.378 . S
C580 N581 1.315 . S
C580 H583 0.930 . S
N581 Co561 2.194 . S
N581 C576 1.328 . S
N581 C580 1.315 . S
H582 C576 0.929 . S
H583 C580 0.930 . S
H584 C572 0.929 . S
H585 C574 0.929 . S
O586 Co561 2.351 . S
O586 C589 1.244 . S
O587 Co561 2.155 . S
O587 C589 1.240 . S
O588 Co561 2.096 . S
O588 C569 1.247 . S
C589 O586 1.244 . S
C589 O587 1.240 . S
H590 C564 0.931 . S
H591 C573 0.931 . S
H592 C577 0.929 . S
H593 C579 0.930 . S
Co594 N598 2.148 . S
Co594 N604 2.128 . S
Co594 N614 2.194 . S
Co594 O619 2.351 . S
Co594 O620 2.155 . S
Co594 O621 2.096 . S
C595 N598 1.301 . S
C595 N599 1.328 . S
C595 H600 0.930 . S
C596 C597 1.333 1_455 S
C596 N598 1.317 . S
C596 H601 0.930 1_455 S
C597 C596 1.333 1_655 S
C597 N599 1.350 1_655 S
C597 H623 0.931 . S
N598 Co594 2.148 . S
N598 C595 1.301 . S
N598 C596 1.317 . S
N599 C595 1.328 . S
N599 C597 1.350 1_455 S
H600 C595 0.930 . S
H601 C596 0.930 1_655 S
C602 O603 1.224 . S
C602 O621 1.247 . S
O603 C602 1.224 . S
N604 Co594 2.128 . S
N604 C605 1.355 . S
N604 C607 1.311 . S
C605 N604 1.355 . S
C605 C606 1.363 . S
C605 H617 0.929 . S
C606 C605 1.363 . S
C606 N608 1.375 . S
C606 H624 0.931 . S
C607 N604 1.311 . S
C607 N608 1.347 . S
C607 H618 0.929 . S
N608 C606 1.375 . S
N608 C607 1.347 . S
C609 C612 1.365 . S
C609 N614 1.328 . S
C609 H615 0.929 . S
C610 C611 1.362 . S
C610 C613 1.378 . S
C610 H625 0.929 . S
C611 C610 1.362 . S
C611 C612 1.366 . S
C612 C609 1.365 . S
C612 C611 1.366 . S
C612 H626 0.930 . S
C613 C610 1.378 . S
C613 N614 1.315 . S
C613 H616 0.930 . S
N614 Co594 2.194 . S
N614 C609 1.328 . S
N614 C613 1.315 . S
H615 C609 0.929 . S
H616 C613 0.930 . S
H617 C605 0.929 . S
H618 C607 0.929 . S
O619 Co594 2.351 . S
O619 C622 1.244 . S
O620 Co594 2.155 . S
O620 C622 1.240 . S
O621 Co594 2.096 . S
O621 C602 1.247 . S
C622 O619 1.244 . S
C622 O620 1.240 . S
H623 C597 0.931 . S
H624 C606 0.931 . S
H625 C610 0.929 . S
H626 C612 0.930 . S
Co627 N631 2.148 . S
Co627 N637 2.128 . S
Co627 N647 2.194 . S
Co627 O652 2.351 . S
Co627 O653 2.155 . S
Co627 O654 2.096 . S
C628 N631 1.301 . S
C628 N632 1.328 . S
C628 H633 0.930 . S
C629 C630 1.333 . S
C629 N631 1.317 . S
C629 H634 0.930 . S
C630 C629 1.333 . S
C630 N632 1.350 . S
C630 H656 0.931 . S
N631 Co627 2.148 . S
N631 C628 1.301 . S
N631 C629 1.317 . S
N632 C628 1.328 . S
N632 C630 1.350 . S
H633 C628 0.930 . S
H634 C629 0.930 . S
C635 O636 1.224 . S
C635 O654 1.247 . S
O636 C635 1.224 . S
N637 Co627 2.128 . S
N637 C638 1.355 . S
N637 C640 1.311 . S
C638 N637 1.355 . S
C638 C639 1.363 . S
C638 H650 0.929 . S
C639 C638 1.363 . S
C639 N641 1.375 . S
C639 H657 0.931 . S
C640 N637 1.311 . S
C640 N641 1.347 . S
C640 H651 0.929 . S
N641 C639 1.375 . S
N641 C640 1.347 . S
C642 C645 1.365 . S
C642 N647 1.328 . S
C642 H648 0.929 . S
C643 C644 1.362 . S
C643 C646 1.378 . S
C643 H658 0.929 . S
C644 C643 1.362 . S
C644 C645 1.366 . S
C645 C642 1.365 . S
C645 C644 1.366 . S
C645 H659 0.930 . S
C646 C643 1.378 . S
C646 N647 1.315 . S
C646 H649 0.930 . S
N647 Co627 2.194 . S
N647 C642 1.328 . S
N647 C646 1.315 . S
H648 C642 0.929 . S
H649 C646 0.930 . S
H650 C638 0.929 . S
H651 C640 0.929 . S
O652 Co627 2.351 . S
O652 C655 1.244 . S
O653 Co627 2.155 . S
O653 C655 1.240 . S
O654 Co627 2.096 . S
O654 C635 1.247 . S
C655 O652 1.244 . S
C655 O653 1.240 . S
H656 C630 0.931 . S
H657 C639 0.931 . S
H658 C643 0.929 . S
H659 C645 0.930 . S
Co660 N664 2.148 . S
Co660 N670 2.128 . S
Co660 N680 2.194 . S
Co660 O685 2.351 . S
Co660 O686 2.155 . S
Co660 O687 2.096 . S
C661 N664 1.301 . S
C661 N665 1.328 . S
C661 H666 0.930 . S
C662 C663 1.333 1_655 S
C662 N664 1.317 . S
C662 H667 0.930 1_655 S
C663 C662 1.333 1_455 S
C663 N665 1.350 1_455 S
C663 H689 0.931 . S
N664 Co660 2.148 . S
N664 C661 1.301 . S
N664 C662 1.317 . S
N665 C661 1.328 . S
N665 C663 1.350 1_655 S
H666 C661 0.930 . S
H667 C662 0.930 1_455 S
C668 O669 1.224 . S
C668 O687 1.247 . S
O669 C668 1.224 . S
N670 Co660 2.128 . S
N670 C671 1.355 . S
N670 C673 1.311 . S
C671 N670 1.355 . S
C671 C672 1.363 . S
C671 H683 0.929 . S
C672 C671 1.363 . S
C672 N674 1.375 . S
C672 H690 0.931 . S
C673 N670 1.311 . S
C673 N674 1.347 . S
C673 H684 0.929 . S
N674 C672 1.375 . S
N674 C673 1.347 . S
C675 C678 1.365 . S
C675 N680 1.328 . S
C675 H681 0.929 . S
C676 C677 1.362 . S
C676 C679 1.378 . S
C676 H691 0.929 . S
C677 C676 1.362 . S
C677 C678 1.366 . S
C678 C675 1.365 . S
C678 C677 1.366 . S
C678 H692 0.930 . S
C679 C676 1.378 . S
C679 N680 1.315 . S
C679 H682 0.930 . S
N680 Co660 2.194 . S
N680 C675 1.328 . S
N680 C679 1.315 . S
H681 C675 0.929 . S
H682 C679 0.930 . S
H683 C671 0.929 . S
H684 C673 0.929 . S
O685 Co660 2.351 . S
O685 C688 1.244 . S
O686 Co660 2.155 . S
O686 C688 1.240 . S
O687 Co660 2.096 . S
O687 C668 1.247 . S
C688 O685 1.244 . S
C688 O686 1.240 . S
H689 C663 0.931 . S
H690 C672 0.931 . S
H691 C676 0.929 . S
H692 C678 0.930 . S
Co693 N697 2.148 . S
Co693 N703 2.128 . S
Co693 N713 2.194 . S
Co693 O718 2.351 . S
Co693 O719 2.155 . S
Co693 O720 2.096 . S
C694 N697 1.301 . S
C694 N698 1.328 . S
C694 H699 0.930 . S
C695 C696 1.333 . S
C695 N697 1.317 . S
C695 H700 0.930 . S
C696 C695 1.333 . S
C696 N698 1.350 . S
C696 H722 0.931 . S
N697 Co693 2.148 . S
N697 C694 1.301 . S
N697 C695 1.317 . S
N698 C694 1.328 . S
N698 C696 1.350 . S
H699 C694 0.930 . S
H700 C695 0.930 . S
C701 O702 1.224 . S
C701 O720 1.247 . S
O702 C701 1.224 . S
N703 Co693 2.128 . S
N703 C704 1.355 . S
N703 C706 1.311 . S
C704 N703 1.355 . S
C704 C705 1.363 . S
C704 H716 0.929 . S
C705 C704 1.363 . S
C705 N707 1.375 . S
C705 H723 0.931 . S
C706 N703 1.311 . S
C706 N707 1.347 . S
C706 H717 0.929 . S
N707 C705 1.375 . S
N707 C706 1.347 . S
C708 C711 1.365 . S
C708 N713 1.328 . S
C708 H714 0.929 . S
C709 C710 1.362 . S
C709 C712 1.378 . S
C709 H724 0.929 . S
C710 C709 1.362 . S
C710 C711 1.366 . S
C711 C708 1.365 . S
C711 C710 1.366 . S
C711 H725 0.930 . S
C712 C709 1.378 . S
C712 N713 1.315 . S
C712 H715 0.930 . S
N713 Co693 2.194 . S
N713 C708 1.328 . S
N713 C712 1.315 . S
H714 C708 0.929 . S
H715 C712 0.930 . S
H716 C704 0.929 . S
H717 C706 0.929 . S
O718 Co693 2.351 . S
O718 C721 1.244 . S
O719 Co693 2.155 . S
O719 C721 1.240 . S
O720 Co693 2.096 . S
O720 C701 1.247 . S
C721 O718 1.244 . S
C721 O719 1.240 . S
H722 C696 0.931 . S
H723 C705 0.931 . S
H724 C709 0.929 . S
H725 C711 0.930 . S
Co726 N730 2.148 . S
Co726 N736 2.128 . S
Co726 N746 2.194 . S
Co726 O751 2.351 . S
Co726 O752 2.155 . S
Co726 O753 2.096 . S
C727 N730 1.301 . S
C727 N731 1.328 . S
C727 H732 0.930 . S
C728 C729 1.333 1_455 S
C728 N730 1.317 . S
C728 H733 0.930 1_455 S
C729 C728 1.333 1_655 S
C729 N731 1.350 1_655 S
C729 H755 0.931 . S
N730 Co726 2.148 . S
N730 C727 1.301 . S
N730 C728 1.317 . S
N731 C727 1.328 . S
N731 C729 1.350 1_455 S
H732 C727 0.930 . S
H733 C728 0.930 1_655 S
C734 O735 1.224 . S
C734 O753 1.247 . S
O735 C734 1.224 . S
N736 Co726 2.128 . S
N736 C737 1.355 . S
N736 C739 1.311 . S
C737 N736 1.355 . S
C737 C738 1.363 . S
C737 H749 0.929 . S
C738 C737 1.363 . S
C738 N740 1.375 . S
C738 H756 0.931 . S
C739 N736 1.311 . S
C739 N740 1.347 . S
C739 H750 0.929 . S
N740 C738 1.375 . S
N740 C739 1.347 . S
C741 C744 1.365 . S
C741 N746 1.328 . S
C741 H747 0.929 . S
C742 C743 1.362 . S
C742 C745 1.378 . S
C742 H757 0.929 . S
C743 C742 1.362 . S
C743 C744 1.366 . S
C744 C741 1.365 . S
C744 C743 1.366 . S
C744 H758 0.930 . S
C745 C742 1.378 . S
C745 N746 1.315 . S
C745 H748 0.930 . S
N746 Co726 2.194 . S
N746 C741 1.328 . S
N746 C745 1.315 . S
H747 C741 0.929 . S
H748 C745 0.930 . S
H749 C737 0.929 . S
H750 C739 0.929 . S
O751 Co726 2.351 . S
O751 C754 1.244 . S
O752 Co726 2.155 . S
O752 C754 1.240 . S
O753 Co726 2.096 . S
O753 C734 1.247 . S
C754 O751 1.244 . S
C754 O752 1.240 . S
H755 C729 0.931 . S
H756 C738 0.931 . S
H757 C742 0.929 . S
H758 C744 0.930 . S
Co759 N763 2.148 . S
Co759 N769 2.128 . S
Co759 N779 2.194 . S
Co759 O784 2.351 . S
Co759 O785 2.155 . S
Co759 O786 2.096 . S
C760 N763 1.301 . S
C760 N764 1.328 . S
C760 H765 0.930 . S
C761 C762 1.333 . S
C761 N763 1.317 . S
C761 H766 0.930 . S
C762 C761 1.333 . S
C762 N764 1.350 . S
C762 H788 0.931 . S
N763 Co759 2.148 . S
N763 C760 1.301 . S
N763 C761 1.317 . S
N764 C760 1.328 . S
N764 C762 1.350 . S
H765 C760 0.930 . S
H766 C761 0.930 . S
C767 O768 1.224 . S
C767 O786 1.247 . S
O768 C767 1.224 . S
N769 Co759 2.128 . S
N769 C770 1.355 . S
N769 C772 1.311 . S
C770 N769 1.355 . S
C770 C771 1.363 . S
C770 H782 0.929 . S
C771 C770 1.363 . S
C771 N773 1.375 . S
C771 H789 0.931 . S
C772 N769 1.311 . S
C772 N773 1.347 . S
C772 H783 0.929 . S
N773 C771 1.375 . S
N773 C772 1.347 . S
C774 C777 1.365 . S
C774 N779 1.328 . S
C774 H780 0.929 . S
C775 C776 1.362 . S
C775 C778 1.378 . S
C775 H790 0.929 . S
C776 C775 1.362 . S
C776 C777 1.366 . S
C777 C774 1.365 . S
C777 C776 1.366 . S
C777 H791 0.930 . S
C778 C775 1.378 . S
C778 N779 1.315 . S
C778 H781 0.930 . S
N779 Co759 2.194 . S
N779 C774 1.328 . S
N779 C778 1.315 . S
H780 C774 0.929 . S
H781 C778 0.930 . S
H782 C770 0.929 . S
H783 C772 0.929 . S
O784 Co759 2.351 . S
O784 C787 1.244 . S
O785 Co759 2.155 . S
O785 C787 1.240 . S
O786 Co759 2.096 . S
O786 C767 1.247 . S
C787 O784 1.244 . S
C787 O785 1.240 . S
H788 C762 0.931 . S
H789 C771 0.931 . S
H790 C775 0.929 . S
H791 C777 0.930 . S
Co792 N796 2.148 . S
Co792 N802 2.128 . S
Co792 N812 2.194 . S
Co792 O817 2.351 . S
Co792 O818 2.155 . S
Co792 O819 2.096 . S
C793 N796 1.301 . S
C793 N797 1.328 . S
C793 H798 0.930 . S
C794 C795 1.333 . S
C794 N796 1.317 . S
C794 H799 0.930 . S
C795 C794 1.333 . S
C795 N797 1.350 . S
C795 H821 0.931 . S
N796 Co792 2.148 . S
N796 C793 1.301 . S
N796 C794 1.317 . S
N797 C793 1.328 . S
N797 C795 1.350 . S
H798 C793 0.930 . S
H799 C794 0.930 . S
C800 O801 1.224 . S
C800 O819 1.247 . S
O801 C800 1.224 . S
N802 Co792 2.128 . S
N802 C803 1.355 . S
N802 C805 1.311 . S
C803 N802 1.355 . S
C803 C804 1.363 . S
C803 H815 0.929 . S
C804 C803 1.363 . S
C804 N806 1.375 . S
C804 H822 0.931 . S
C805 N802 1.311 . S
C805 N806 1.347 . S
C805 H816 0.929 . S
N806 C804 1.375 . S
N806 C805 1.347 . S
C807 C810 1.365 . S
C807 N812 1.328 . S
C807 H813 0.929 . S
C808 C809 1.362 . S
C808 C811 1.378 . S
C808 H823 0.929 . S
C809 C808 1.362 . S
C809 C810 1.366 . S
C810 C807 1.365 . S
C810 C809 1.366 . S
C810 H824 0.930 . S
C811 C808 1.378 . S
C811 N812 1.315 . S
C811 H814 0.930 . S
N812 Co792 2.194 . S
N812 C807 1.328 . S
N812 C811 1.315 . S
H813 C807 0.929 . S
H814 C811 0.930 . S
H815 C803 0.929 . S
H816 C805 0.929 . S
O817 Co792 2.351 . S
O817 C820 1.244 . S
O818 Co792 2.155 . S
O818 C820 1.240 . S
O819 Co792 2.096 . S
O819 C800 1.247 . S
C820 O817 1.244 . S
C820 O818 1.240 . S
H821 C795 0.931 . S
H822 C804 0.931 . S
H823 C808 0.929 . S
H824 C810 0.930 . S
Co825 N829 2.148 . S
Co825 N835 2.128 . S
Co825 N845 2.194 . S
Co825 O850 2.351 . S
Co825 O851 2.155 . S
Co825 O852 2.096 . S
C826 N829 1.301 . S
C826 N830 1.328 . S
C826 H831 0.930 . S
C827 C828 1.333 1_554 S
C827 N829 1.317 . S
C827 H832 0.930 1_554 S
C828 C827 1.333 1_556 S
C828 N830 1.350 1_556 S
C828 H854 0.931 . S
N829 Co825 2.148 . S
N829 C826 1.301 . S
N829 C827 1.317 . S
N830 C826 1.328 . S
N830 C828 1.350 1_554 S
H831 C826 0.930 . S
H832 C827 0.930 1_556 S
C833 O834 1.224 . S
C833 O852 1.247 . S
O834 C833 1.224 . S
N835 Co825 2.128 . S
N835 C836 1.355 . S
N835 C838 1.311 . S
C836 N835 1.355 . S
C836 C837 1.363 . S
C836 H848 0.929 . S
C837 C836 1.363 . S
C837 N839 1.375 . S
C837 H855 0.931 . S
C838 N835 1.311 . S
C838 N839 1.347 . S
C838 H849 0.929 . S
N839 C837 1.375 . S
N839 C838 1.347 . S
C840 C843 1.365 . S
C840 N845 1.328 . S
C840 H846 0.929 . S
C841 C842 1.362 . S
C841 C844 1.378 . S
C841 H856 0.929 . S
C842 C841 1.362 . S
C842 C843 1.366 . S
C843 C840 1.365 . S
C843 C842 1.366 . S
C843 H857 0.930 . S
C844 C841 1.378 . S
C844 N845 1.315 . S
C844 H847 0.930 . S
N845 Co825 2.194 . S
N845 C840 1.328 . S
N845 C844 1.315 . S
H846 C840 0.929 . S
H847 C844 0.930 . S
H848 C836 0.929 . S
H849 C838 0.929 . S
O850 Co825 2.351 . S
O850 C853 1.244 . S
O851 Co825 2.155 . S
O851 C853 1.240 . S
O852 Co825 2.096 . S
O852 C833 1.247 . S
C853 O850 1.244 . S
C853 O851 1.240 . S
H854 C828 0.931 . S
H855 C837 0.931 . S
H856 C841 0.929 . S
H857 C843 0.930 . S
Co858 N862 2.148 . S
Co858 N868 2.128 . S
Co858 N878 2.194 . S
Co858 O883 2.351 . S
Co858 O884 2.155 . S
Co858 O885 2.096 . S
C859 N862 1.301 . S
C859 N863 1.328 . S
C859 H864 0.930 . S
C860 C861 1.333 . S
C860 N862 1.317 . S
C860 H865 0.930 . S
C861 C860 1.333 . S
C861 N863 1.350 . S
C861 H887 0.931 . S
N862 Co858 2.148 . S
N862 C859 1.301 . S
N862 C860 1.317 . S
N863 C859 1.328 . S
N863 C861 1.350 . S
H864 C859 0.930 . S
H865 C860 0.930 . S
C866 O867 1.224 . S
C866 O885 1.247 . S
O867 C866 1.224 . S
N868 Co858 2.128 . S
N868 C869 1.355 . S
N868 C871 1.311 . S
C869 N868 1.355 . S
C869 C870 1.363 . S
C869 H881 0.929 . S
C870 C869 1.363 . S
C870 N872 1.375 . S
C870 H888 0.931 . S
C871 N868 1.311 . S
C871 N872 1.347 . S
C871 H882 0.929 . S
N872 C870 1.375 . S
N872 C871 1.347 . S
C873 C876 1.365 . S
C873 N878 1.328 . S
C873 H879 0.929 . S
C874 C875 1.362 . S
C874 C877 1.378 . S
C874 H889 0.929 . S
C875 C874 1.362 . S
C875 C876 1.366 . S
C876 C873 1.365 . S
C876 C875 1.366 . S
C876 H890 0.930 . S
C877 C874 1.378 . S
C877 N878 1.315 . S
C877 H880 0.930 . S
N878 Co858 2.194 . S
N878 C873 1.328 . S
N878 C877 1.315 . S
H879 C873 0.929 . S
H880 C877 0.930 . S
H881 C869 0.929 . S
H882 C871 0.929 . S
O883 Co858 2.351 . S
O883 C886 1.244 . S
O884 Co858 2.155 . S
O884 C886 1.240 . S
O885 Co858 2.096 . S
O885 C866 1.247 . S
C886 O883 1.244 . S
C886 O884 1.240 . S
H887 C861 0.931 . S
H888 C870 0.931 . S
H889 C874 0.929 . S
H890 C876 0.930 . S
Co891 N895 2.148 . S
Co891 N901 2.128 . S
Co891 N911 2.194 . S
Co891 O916 2.351 . S
Co891 O917 2.155 . S
Co891 O918 2.096 . S
C892 N895 1.301 . S
C892 N896 1.328 . S
C892 H897 0.930 . S
C893 C894 1.333 . S
C893 N895 1.317 . S
C893 H898 0.930 . S
C894 C893 1.333 . S
C894 N896 1.350 . S
C894 H920 0.931 . S
N895 Co891 2.148 . S
N895 C892 1.301 . S
N895 C893 1.317 . S
N896 C892 1.328 . S
N896 C894 1.350 . S
H897 C892 0.930 . S
H898 C893 0.930 . S
C899 O900 1.224 . S
C899 O918 1.247 . S
O900 C899 1.224 . S
N901 Co891 2.128 . S
N901 C902 1.355 . S
N901 C904 1.311 . S
C902 N901 1.355 . S
C902 C903 1.363 . S
C902 H914 0.929 . S
C903 C902 1.363 . S
C903 N905 1.375 . S
C903 H921 0.931 . S
C904 N901 1.311 . S
C904 N905 1.347 . S
C904 H915 0.929 . S
N905 C903 1.375 . S
N905 C904 1.347 . S
C906 C909 1.365 . S
C906 N911 1.328 . S
C906 H912 0.929 . S
C907 C908 1.362 . S
C907 C910 1.378 . S
C907 H922 0.929 . S
C908 C907 1.362 . S
C908 C909 1.366 . S
C909 C906 1.365 . S
C909 C908 1.366 . S
C909 H923 0.930 . S
C910 C907 1.378 . S
C910 N911 1.315 . S
C910 H913 0.930 . S
N911 Co891 2.194 . S
N911 C906 1.328 . S
N911 C910 1.315 . S
H912 C906 0.929 . S
H913 C910 0.930 . S
H914 C902 0.929 . S
H915 C904 0.929 . S
O916 Co891 2.351 . S
O916 C919 1.244 . S
O917 Co891 2.155 . S
O917 C919 1.240 . S
O918 Co891 2.096 . S
O918 C899 1.247 . S
C919 O916 1.244 . S
C919 O917 1.240 . S
H920 C894 0.931 . S
H921 C903 0.931 . S
H922 C907 0.929 . S
H923 C909 0.930 . S
Co924 N928 2.148 . S
Co924 N934 2.128 . S
Co924 N944 2.194 . S
Co924 O949 2.351 . S
Co924 O950 2.155 . S
Co924 O951 2.096 . S
C925 N928 1.301 . S
C925 N929 1.328 . S
C925 H930 0.930 . S
C926 C927 1.333 . S
C926 N928 1.317 . S
C926 H931 0.930 . S
C927 C926 1.333 . S
C927 N929 1.350 . S
C927 H953 0.931 . S
N928 Co924 2.148 . S
N928 C925 1.301 . S
N928 C926 1.317 . S
N929 C925 1.328 . S
N929 C927 1.350 . S
H930 C925 0.930 . S
H931 C926 0.930 . S
C932 O933 1.224 . S
C932 O951 1.247 . S
O933 C932 1.224 . S
N934 Co924 2.128 . S
N934 C935 1.355 . S
N934 C937 1.311 . S
C935 N934 1.355 . S
C935 C936 1.363 . S
C935 H947 0.929 . S
C936 C935 1.363 . S
C936 N938 1.375 . S
C936 H954 0.931 . S
C937 N934 1.311 . S
C937 N938 1.347 . S
C937 H948 0.929 . S
N938 C936 1.375 . S
N938 C937 1.347 . S
C939 C942 1.365 . S
C939 N944 1.328 . S
C939 H945 0.929 . S
C940 C941 1.362 . S
C940 C943 1.378 . S
C940 H955 0.929 . S
C941 C940 1.362 . S
C941 C942 1.366 . S
C942 C939 1.365 . S
C942 C941 1.366 . S
C942 H956 0.930 . S
C943 C940 1.378 . S
C943 N944 1.315 . S
C943 H946 0.930 . S
N944 Co924 2.194 . S
N944 C939 1.328 . S
N944 C943 1.315 . S
H945 C939 0.929 . S
H946 C943 0.930 . S
H947 C935 0.929 . S
H948 C937 0.929 . S
O949 Co924 2.351 . S
O949 C952 1.244 . S
O950 Co924 2.155 . S
O950 C952 1.240 . S
O951 Co924 2.096 . S
O951 C932 1.247 . S
C952 O949 1.244 . S
C952 O950 1.240 . S
H953 C927 0.931 . S
H954 C936 0.931 . S
H955 C940 0.929 . S
H956 C942 0.930 . S
Co957 N961 2.148 . S
Co957 N967 2.128 . S
Co957 N977 2.194 . S
Co957 O982 2.351 . S
Co957 O983 2.155 . S
Co957 O984 2.096 . S
C958 N961 1.301 . S
C958 N962 1.328 . S
C958 H963 0.930 . S
C959 C960 1.333 1_556 S
C959 N961 1.317 . S
C959 H964 0.930 1_556 S
C960 C959 1.333 1_554 S
C960 N962 1.350 1_554 S
C960 H986 0.931 . S
N961 Co957 2.148 . S
N961 C958 1.301 . S
N961 C959 1.317 . S
N962 C958 1.328 . S
N962 C960 1.350 1_556 S
H963 C958 0.930 . S
H964 C959 0.930 1_554 S
C965 O966 1.224 . S
C965 O984 1.247 . S
O966 C965 1.224 . S
N967 Co957 2.128 . S
N967 C968 1.355 . S
N967 C970 1.311 . S
C968 N967 1.355 . S
C968 C969 1.363 . S
C968 H980 0.929 . S
C969 C968 1.363 . S
C969 N971 1.375 . S
C969 H987 0.931 . S
C970 N967 1.311 . S
C970 N971 1.347 . S
C970 H981 0.929 . S
N971 C969 1.375 . S
N971 C970 1.347 . S
C972 C975 1.365 . S
C972 N977 1.328 . S
C972 H978 0.929 . S
C973 C974 1.362 . S
C973 C976 1.378 . S
C973 H988 0.929 . S
C974 C973 1.362 . S
C974 C975 1.366 . S
C975 C972 1.365 . S
C975 C974 1.366 . S
C975 H989 0.930 . S
C976 C973 1.378 . S
C976 N977 1.315 . S
C976 H979 0.930 . S
N977 Co957 2.194 . S
N977 C972 1.328 . S
N977 C976 1.315 . S
H978 C972 0.929 . S
H979 C976 0.930 . S
H980 C968 0.929 . S
H981 C970 0.929 . S
O982 Co957 2.351 . S
O982 C985 1.244 . S
O983 Co957 2.155 . S
O983 C985 1.240 . S
O984 Co957 2.096 . S
O984 C965 1.247 . S
C985 O982 1.244 . S
C985 O983 1.240 . S
H986 C960 0.931 . S
H987 C969 0.931 . S
H988 C973 0.929 . S
H989 C975 0.930 . S
Co990 N994 2.148 . S
Co990 N1000 2.128 . S
Co990 N1010 2.194 . S
Co990 O1015 2.351 . S
Co990 O1016 2.155 . S
Co990 O1017 2.096 . S
C991 N994 1.301 . S
C991 N995 1.328 . S
C991 H996 0.930 . S
C992 C993 1.333 . S
C992 N994 1.317 . S
C992 H997 0.930 . S
C993 C992 1.333 . S
C993 N995 1.350 . S
C993 H1019 0.931 . S
N994 Co990 2.148 . S
N994 C991 1.301 . S
N994 C992 1.317 . S
N995 C991 1.328 . S
N995 C993 1.350 . S
H996 C991 0.930 . S
H997 C992 0.930 . S
C998 O999 1.224 . S
C998 O1017 1.247 . S
O999 C998 1.224 . S
N1000 Co990 2.128 . S
N1000 C1001 1.355 . S
N1000 C1003 1.311 . S
C1001 N1000 1.355 . S
C1001 C1002 1.363 . S
C1001 H1013 0.929 . S
C1002 C1001 1.363 . S
C1002 N1004 1.375 . S
C1002 H1020 0.931 . S
C1003 N1000 1.311 . S
C1003 N1004 1.347 . S
C1003 H1014 0.929 . S
N1004 C1002 1.375 . S
N1004 C1003 1.347 . S
C1005 C1008 1.365 . S
C1005 N1010 1.328 . S
C1005 H1011 0.929 . S
C1006 C1007 1.362 . S
C1006 C1009 1.378 . S
C1006 H1021 0.929 . S
C1007 C1006 1.362 . S
C1007 C1008 1.366 . S
C1008 C1005 1.365 . S
C1008 C1007 1.366 . S
C1008 H1022 0.930 . S
C1009 C1006 1.378 . S
C1009 N1010 1.315 . S
C1009 H1012 0.930 . S
N1010 Co990 2.194 . S
N1010 C1005 1.328 . S
N1010 C1009 1.315 . S
H1011 C1005 0.929 . S
H1012 C1009 0.930 . S
H1013 C1001 0.929 . S
H1014 C1003 0.929 . S
O1015 Co990 2.351 . S
O1015 C1018 1.244 . S
O1016 Co990 2.155 . S
O1016 C1018 1.240 . S
O1017 Co990 2.096 . S
O1017 C998 1.247 . S
C1018 O1015 1.244 . S
C1018 O1016 1.240 . S
H1019 C993 0.931 . S
H1020 C1002 0.931 . S
H1021 C1006 0.929 . S
H1022 C1008 0.930 . S
Co1023 N1027 2.148 . S
Co1023 N1033 2.128 . S
Co1023 N1043 2.194 . S
Co1023 O1048 2.351 . S
Co1023 O1049 2.155 . S
Co1023 O1050 2.096 . S
C1024 N1027 1.301 . S
C1024 N1028 1.328 . S
C1024 H1029 0.930 . S
C1025 C1026 1.333 . S
C1025 N1027 1.317 . S
C1025 H1030 0.930 . S
C1026 C1025 1.333 . S
C1026 N1028 1.350 . S
C1026 H1052 0.931 . S
N1027 Co1023 2.148 . S
N1027 C1024 1.301 . S
N1027 C1025 1.317 . S
N1028 C1024 1.328 . S
N1028 C1026 1.350 . S
H1029 C1024 0.930 . S
H1030 C1025 0.930 . S
C1031 O1032 1.224 . S
C1031 O1050 1.247 . S
O1032 C1031 1.224 . S
N1033 Co1023 2.128 . S
N1033 C1034 1.355 . S
N1033 C1036 1.311 . S
C1034 N1033 1.355 . S
C1034 C1035 1.363 . S
C1034 H1046 0.929 . S
C1035 C1034 1.363 . S
C1035 N1037 1.375 . S
C1035 H1053 0.931 . S
C1036 N1033 1.311 . S
C1036 N1037 1.347 . S
C1036 H1047 0.929 . S
N1037 C1035 1.375 . S
N1037 C1036 1.347 . S
C1038 C1041 1.365 . S
C1038 N1043 1.328 . S
C1038 H1044 0.929 . S
C1039 C1040 1.362 . S
C1039 C1042 1.378 . S
C1039 H1054 0.929 . S
C1040 C1039 1.362 . S
C1040 C1041 1.366 . S
C1041 C1038 1.365 . S
C1041 C1040 1.366 . S
C1041 H1055 0.930 . S
C1042 C1039 1.378 . S
C1042 N1043 1.315 . S
C1042 H1045 0.930 . S
N1043 Co1023 2.194 . S
N1043 C1038 1.328 . S
N1043 C1042 1.315 . S
H1044 C1038 0.929 . S
H1045 C1042 0.930 . S
H1046 C1034 0.929 . S
H1047 C1036 0.929 . S
O1048 Co1023 2.351 . S
O1048 C1051 1.244 . S
O1049 Co1023 2.155 . S
O1049 C1051 1.240 . S
O1050 Co1023 2.096 . S
O1050 C1031 1.247 . S
C1051 O1048 1.244 . S
C1051 O1049 1.240 . S
H1052 C1026 0.931 . S
H1053 C1035 0.931 . S
H1054 C1039 0.929 . S
H1055 C1041 0.930 . S
Co1056 N1060 2.148 . S
Co1056 N1066 2.128 . S
Co1056 N1076 2.194 . S
Co1056 O1081 2.351 . S
Co1056 O1082 2.155 . S
Co1056 O1083 2.096 . S
C1057 N1060 1.301 . S
C1057 N1061 1.328 . S
C1057 H1062 0.930 . S
C1058 C1059 1.333 . S
C1058 N1060 1.317 . S
C1058 H1063 0.930 . S
C1059 C1058 1.333 . S
C1059 N1061 1.350 . S
C1059 H1085 0.931 . S
N1060 Co1056 2.148 . S
N1060 C1057 1.301 . S
N1060 C1058 1.317 . S
N1061 C1057 1.328 . S
N1061 C1059 1.350 . S
H1062 C1057 0.930 . S
H1063 C1058 0.930 . S
C1064 O1065 1.224 . S
C1064 O1083 1.247 . S
O1065 C1064 1.224 . S
N1066 Co1056 2.128 . S
N1066 C1067 1.355 . S
N1066 C1069 1.311 . S
C1067 N1066 1.355 . S
C1067 C1068 1.363 . S
C1067 H1079 0.929 . S
C1068 C1067 1.363 . S
C1068 N1070 1.375 . S
C1068 H1086 0.931 . S
C1069 N1066 1.311 . S
C1069 N1070 1.347 . S
C1069 H1080 0.929 . S
N1070 C1068 1.375 . S
N1070 C1069 1.347 . S
C1071 C1074 1.365 . S
C1071 N1076 1.328 . S
C1071 H1077 0.929 . S
C1072 C1073 1.362 . S
C1072 C1075 1.378 . S
C1072 H1087 0.929 . S
C1073 C1072 1.362 . S
C1073 C1074 1.366 . S
C1074 C1071 1.365 . S
C1074 C1073 1.366 . S
C1074 H1088 0.930 . S
C1075 C1072 1.378 . S
C1075 N1076 1.315 . S
C1075 H1078 0.930 . S
N1076 Co1056 2.194 . S
N1076 C1071 1.328 . S
N1076 C1075 1.315 . S
H1077 C1071 0.929 . S
H1078 C1075 0.930 . S
H1079 C1067 0.929 . S
H1080 C1069 0.929 . S
O1081 Co1056 2.351 . S
O1081 C1084 1.244 . S
O1082 Co1056 2.155 . S
O1082 C1084 1.240 . S
O1083 Co1056 2.096 . S
O1083 C1064 1.247 . S
C1084 O1081 1.244 . S
C1084 O1082 1.240 . S
H1085 C1059 0.931 . S
H1086 C1068 0.931 . S
H1087 C1072 0.929 . S
H1088 C1074 0.930 . S
Co1089 N1093 2.148 . S
Co1089 N1099 2.128 . S
Co1089 N1109 2.194 . S
Co1089 O1114 2.351 . S
Co1089 O1115 2.155 . S
Co1089 O1116 2.096 . S
C1090 N1093 1.301 . S
C1090 N1094 1.328 . S
C1090 H1095 0.930 . S
C1091 C1092 1.333 . S
C1091 N1093 1.317 . S
C1091 H1096 0.930 . S
C1092 C1091 1.333 . S
C1092 N1094 1.350 . S
C1092 H1118 0.931 . S
N1093 Co1089 2.148 . S
N1093 C1090 1.301 . S
N1093 C1091 1.317 . S
N1094 C1090 1.328 . S
N1094 C1092 1.350 . S
H1095 C1090 0.930 . S
H1096 C1091 0.930 . S
C1097 O1098 1.224 . S
C1097 O1116 1.247 . S
O1098 C1097 1.224 . S
N1099 Co1089 2.128 . S
N1099 C1100 1.355 . S
N1099 C1102 1.311 . S
C1100 N1099 1.355 . S
C1100 C1101 1.363 . S
C1100 H1112 0.929 . S
C1101 C1100 1.363 . S
C1101 N1103 1.375 . S
C1101 H1119 0.931 . S
C1102 N1099 1.311 . S
C1102 N1103 1.347 . S
C1102 H1113 0.929 . S
N1103 C1101 1.375 . S
N1103 C1102 1.347 . S
C1104 C1107 1.365 . S
C1104 N1109 1.328 . S
C1104 H1110 0.929 . S
C1105 C1106 1.362 . S
C1105 C1108 1.378 . S
C1105 H1120 0.929 . S
C1106 C1105 1.362 . S
C1106 C1107 1.366 . S
C1107 C1104 1.365 . S
C1107 C1106 1.366 . S
C1107 H1121 0.930 . S
C1108 C1105 1.378 . S
C1108 N1109 1.315 . S
C1108 H1111 0.930 . S
N1109 Co1089 2.194 . S
N1109 C1104 1.328 . S
N1109 C1108 1.315 . S
H1110 C1104 0.929 . S
H1111 C1108 0.930 . S
H1112 C1100 0.929 . S
H1113 C1102 0.929 . S
O1114 Co1089 2.351 . S
O1114 C1117 1.244 . S
O1115 Co1089 2.155 . S
O1115 C1117 1.240 . S
O1116 Co1089 2.096 . S
O1116 C1097 1.247 . S
C1117 O1114 1.244 . S
C1117 O1115 1.240 . S
H1118 C1092 0.931 . S
H1119 C1101 0.931 . S
H1120 C1105 0.929 . S
H1121 C1107 0.930 . S
Co1122 N1126 2.148 . S
Co1122 N1132 2.128 . S
Co1122 N1142 2.194 . S
Co1122 O1147 2.351 . S
Co1122 O1148 2.155 . S
Co1122 O1149 2.096 . S
C1123 N1126 1.301 . S
C1123 N1127 1.328 . S
C1123 H1128 0.930 . S
C1124 C1125 1.333 . S
C1124 N1126 1.317 . S
C1124 H1129 0.930 . S
C1125 C1124 1.333 . S
C1125 N1127 1.350 . S
C1125 H1151 0.931 . S
N1126 Co1122 2.148 . S
N1126 C1123 1.301 . S
N1126 C1124 1.317 . S
N1127 C1123 1.328 . S
N1127 C1125 1.350 . S
H1128 C1123 0.930 . S
H1129 C1124 0.930 . S
C1130 O1131 1.224 . S
C1130 O1149 1.247 . S
O1131 C1130 1.224 . S
N1132 Co1122 2.128 . S
N1132 C1133 1.355 . S
N1132 C1135 1.311 . S
C1133 N1132 1.355 . S
C1133 C1134 1.363 . S
C1133 H1145 0.929 . S
C1134 C1133 1.363 . S
C1134 N1136 1.375 . S
C1134 H1152 0.931 . S
C1135 N1132 1.311 . S
C1135 N1136 1.347 . S
C1135 H1146 0.929 . S
N1136 C1134 1.375 . S
N1136 C1135 1.347 . S
C1137 C1140 1.365 . S
C1137 N1142 1.328 . S
C1137 H1143 0.929 . S
C1138 C1139 1.362 . S
C1138 C1141 1.378 . S
C1138 H1153 0.929 . S
C1139 C1138 1.362 . S
C1139 C1140 1.366 . S
C1140 C1137 1.365 . S
C1140 C1139 1.366 . S
C1140 H1154 0.930 . S
C1141 C1138 1.378 . S
C1141 N1142 1.315 . S
C1141 H1144 0.930 . S
N1142 Co1122 2.194 . S
N1142 C1137 1.328 . S
N1142 C1141 1.315 . S
H1143 C1137 0.929 . S
H1144 C1141 0.930 . S
H1145 C1133 0.929 . S
H1146 C1135 0.929 . S
O1147 Co1122 2.351 . S
O1147 C1150 1.244 . S
O1148 Co1122 2.155 . S
O1148 C1150 1.240 . S
O1149 Co1122 2.096 . S
O1149 C1130 1.247 . S
C1150 O1147 1.244 . S
C1150 O1148 1.240 . S
H1151 C1125 0.931 . S
H1152 C1134 0.931 . S
H1153 C1138 0.929 . S
H1154 C1140 0.930 . S
Co1155 N1159 2.148 . S
Co1155 N1165 2.128 . S
Co1155 N1175 2.194 . S
Co1155 O1180 2.351 . S
Co1155 O1181 2.155 . S
Co1155 O1182 2.096 . S
C1156 N1159 1.301 . S
C1156 N1160 1.328 . S
C1156 H1161 0.930 . S
C1157 C1158 1.333 . S
C1157 N1159 1.317 . S
C1157 H1162 0.930 . S
C1158 C1157 1.333 . S
C1158 N1160 1.350 . S
C1158 H1184 0.931 . S
N1159 Co1155 2.148 . S
N1159 C1156 1.301 . S
N1159 C1157 1.317 . S
N1160 C1156 1.328 . S
N1160 C1158 1.350 . S
H1161 C1156 0.930 . S
H1162 C1157 0.930 . S
C1163 O1164 1.224 . S
C1163 O1182 1.247 . S
O1164 C1163 1.224 . S
N1165 Co1155 2.128 . S
N1165 C1166 1.355 . S
N1165 C1168 1.311 . S
C1166 N1165 1.355 . S
C1166 C1167 1.363 . S
C1166 H1178 0.929 . S
C1167 C1166 1.363 . S
C1167 N1169 1.375 . S
C1167 H1185 0.931 . S
C1168 N1165 1.311 . S
C1168 N1169 1.347 . S
C1168 H1179 0.929 . S
N1169 C1167 1.375 . S
N1169 C1168 1.347 . S
C1170 C1173 1.365 . S
C1170 N1175 1.328 . S
C1170 H1176 0.929 . S
C1171 C1172 1.362 . S
C1171 C1174 1.378 . S
C1171 H1186 0.929 . S
C1172 C1171 1.362 . S
C1172 C1173 1.366 . S
C1173 C1170 1.365 . S
C1173 C1172 1.366 . S
C1173 H1187 0.930 . S
C1174 C1171 1.378 . S
C1174 N1175 1.315 . S
C1174 H1177 0.930 . S
N1175 Co1155 2.194 . S
N1175 C1170 1.328 . S
N1175 C1174 1.315 . S
H1176 C1170 0.929 . S
H1177 C1174 0.930 . S
H1178 C1166 0.929 . S
H1179 C1168 0.929 . S
O1180 Co1155 2.351 . S
O1180 C1183 1.244 . S
O1181 Co1155 2.155 . S
O1181 C1183 1.240 . S
O1182 Co1155 2.096 . S
O1182 C1163 1.247 . S
C1183 O1180 1.244 . S
C1183 O1181 1.240 . S
H1184 C1158 0.931 . S
H1185 C1167 0.931 . S
H1186 C1171 0.929 . S
H1187 C1173 0.930 . S
Co1188 N1192 2.148 . S
Co1188 N1198 2.128 . S
Co1188 N1208 2.194 . S
Co1188 O1213 2.351 . S
Co1188 O1214 2.155 . S
Co1188 O1215 2.096 . S
C1189 N1192 1.301 . S
C1189 N1193 1.328 . S
C1189 H1194 0.930 . S
C1190 C1191 1.333 . S
C1190 N1192 1.317 . S
C1190 H1195 0.930 . S
C1191 C1190 1.333 . S
C1191 N1193 1.350 . S
C1191 H1217 0.931 . S
N1192 Co1188 2.148 . S
N1192 C1189 1.301 . S
N1192 C1190 1.317 . S
N1193 C1189 1.328 . S
N1193 C1191 1.350 . S
H1194 C1189 0.930 . S
H1195 C1190 0.930 . S
C1196 O1197 1.224 . S
C1196 O1215 1.247 . S
O1197 C1196 1.224 . S
N1198 Co1188 2.128 . S
N1198 C1199 1.355 . S
N1198 C1201 1.311 . S
C1199 N1198 1.355 . S
C1199 C1200 1.363 . S
C1199 H1211 0.929 . S
C1200 C1199 1.363 . S
C1200 N1202 1.375 . S
C1200 H1218 0.931 . S
C1201 N1198 1.311 . S
C1201 N1202 1.347 . S
C1201 H1212 0.929 . S
N1202 C1200 1.375 . S
N1202 C1201 1.347 . S
C1203 C1206 1.365 . S
C1203 N1208 1.328 . S
C1203 H1209 0.929 . S
C1204 C1205 1.362 . S
C1204 C1207 1.378 . S
C1204 H1219 0.929 . S
C1205 C1204 1.362 . S
C1205 C1206 1.366 . S
C1206 C1203 1.365 . S
C1206 C1205 1.366 . S
C1206 H1220 0.930 . S
C1207 C1204 1.378 . S
C1207 N1208 1.315 . S
C1207 H1210 0.930 . S
N1208 Co1188 2.194 . S
N1208 C1203 1.328 . S
N1208 C1207 1.315 . S
H1209 C1203 0.929 . S
H1210 C1207 0.930 . S
H1211 C1199 0.929 . S
H1212 C1201 0.929 . S
O1213 Co1188 2.351 . S
O1213 C1216 1.244 . S
O1214 Co1188 2.155 . S
O1214 C1216 1.240 . S
O1215 Co1188 2.096 . S
O1215 C1196 1.247 . S
C1216 O1213 1.244 . S
C1216 O1214 1.240 . S
H1217 C1191 0.931 . S
H1218 C1200 0.931 . S
H1219 C1204 0.929 . S
H1220 C1206 0.930 . S
Co1221 N1225 2.148 . S
Co1221 N1231 2.128 . S
Co1221 N1241 2.194 . S
Co1221 O1246 2.351 . S
Co1221 O1247 2.155 . S
Co1221 O1248 2.096 . S
C1222 N1225 1.301 . S
C1222 N1226 1.328 . S
C1222 H1227 0.930 . S
C1223 C1224 1.333 . S
C1223 N1225 1.317 . S
C1223 H1228 0.930 . S
C1224 C1223 1.333 . S
C1224 N1226 1.350 . S
C1224 H1250 0.931 . S
N1225 Co1221 2.148 . S
N1225 C1222 1.301 . S
N1225 C1223 1.317 . S
N1226 C1222 1.328 . S
N1226 C1224 1.350 . S
H1227 C1222 0.930 . S
H1228 C1223 0.930 . S
C1229 O1230 1.224 . S
C1229 O1248 1.247 . S
O1230 C1229 1.224 . S
N1231 Co1221 2.128 . S
N1231 C1232 1.355 . S
N1231 C1234 1.311 . S
C1232 N1231 1.355 . S
C1232 C1233 1.363 . S
C1232 H1244 0.929 . S
C1233 C1232 1.363 . S
C1233 N1235 1.375 . S
C1233 H1251 0.931 . S
C1234 N1231 1.311 . S
C1234 N1235 1.347 . S
C1234 H1245 0.929 . S
N1235 C1233 1.375 . S
N1235 C1234 1.347 . S
C1236 C1239 1.365 . S
C1236 N1241 1.328 . S
C1236 H1242 0.929 . S
C1237 C1238 1.362 . S
C1237 C1240 1.378 . S
C1237 H1252 0.929 . S
C1238 C1237 1.362 . S
C1238 C1239 1.366 . S
C1239 C1236 1.365 . S
C1239 C1238 1.366 . S
C1239 H1253 0.930 . S
C1240 C1237 1.378 . S
C1240 N1241 1.315 . S
C1240 H1243 0.930 . S
N1241 Co1221 2.194 . S
N1241 C1236 1.328 . S
N1241 C1240 1.315 . S
H1242 C1236 0.929 . S
H1243 C1240 0.930 . S
H1244 C1232 0.929 . S
H1245 C1234 0.929 . S
O1246 Co1221 2.351 . S
O1246 C1249 1.244 . S
O1247 Co1221 2.155 . S
O1247 C1249 1.240 . S
O1248 Co1221 2.096 . S
O1248 C1229 1.247 . S
C1249 O1246 1.244 . S
C1249 O1247 1.240 . S
H1250 C1224 0.931 . S
H1251 C1233 0.931 . S
H1252 C1237 0.929 . S
H1253 C1239 0.930 . S
Co1254 N1258 2.148 . S
Co1254 N1264 2.128 . S
Co1254 N1274 2.194 . S
Co1254 O1279 2.351 . S
Co1254 O1280 2.155 . S
Co1254 O1281 2.096 . S
C1255 N1258 1.301 . S
C1255 N1259 1.328 . S
C1255 H1260 0.930 . S
C1256 C1257 1.333 . S
C1256 N1258 1.317 . S
C1256 H1261 0.930 . S
C1257 C1256 1.333 . S
C1257 N1259 1.350 . S
C1257 H1283 0.931 . S
N1258 Co1254 2.148 . S
N1258 C1255 1.301 . S
N1258 C1256 1.317 . S
N1259 C1255 1.328 . S
N1259 C1257 1.350 . S
H1260 C1255 0.930 . S
H1261 C1256 0.930 . S
C1262 O1263 1.224 . S
C1262 O1281 1.247 . S
O1263 C1262 1.224 . S
N1264 Co1254 2.128 . S
N1264 C1265 1.355 . S
N1264 C1267 1.311 . S
C1265 N1264 1.355 . S
C1265 C1266 1.363 . S
C1265 H1277 0.929 . S
C1266 C1265 1.363 . S
C1266 N1268 1.375 . S
C1266 H1284 0.931 . S
C1267 N1264 1.311 . S
C1267 N1268 1.347 . S
C1267 H1278 0.929 . S
N1268 C1266 1.375 . S
N1268 C1267 1.347 . S
C1269 C1272 1.365 . S
C1269 N1274 1.328 . S
C1269 H1275 0.929 . S
C1270 C1271 1.362 . S
C1270 C1273 1.378 . S
C1270 H1285 0.929 . S
C1271 C1270 1.362 . S
C1271 C1272 1.366 . S
C1272 C1269 1.365 . S
C1272 C1271 1.366 . S
C1272 H1286 0.930 . S
C1273 C1270 1.378 . S
C1273 N1274 1.315 . S
C1273 H1276 0.930 . S
N1274 Co1254 2.194 . S
N1274 C1269 1.328 . S
N1274 C1273 1.315 . S
H1275 C1269 0.929 . S
H1276 C1273 0.930 . S
H1277 C1265 0.929 . S
H1278 C1267 0.929 . S
O1279 Co1254 2.351 . S
O1279 C1282 1.244 . S
O1280 Co1254 2.155 . S
O1280 C1282 1.240 . S
O1281 Co1254 2.096 . S
O1281 C1262 1.247 . S
C1282 O1279 1.244 . S
C1282 O1280 1.240 . S
H1283 C1257 0.931 . S
H1284 C1266 0.931 . S
H1285 C1270 0.929 . S
H1286 C1272 0.930 . S
Co1287 N1291 2.148 . S
Co1287 N1297 2.128 . S
Co1287 N1307 2.194 . S
Co1287 O1312 2.351 . S
Co1287 O1313 2.155 . S
Co1287 O1314 2.096 . S
C1288 N1291 1.301 . S
C1288 N1292 1.328 . S
C1288 H1293 0.930 . S
C1289 C1290 1.333 . S
C1289 N1291 1.317 . S
C1289 H1294 0.930 . S
C1290 C1289 1.333 . S
C1290 N1292 1.350 . S
C1290 H1316 0.931 . S
N1291 Co1287 2.148 . S
N1291 C1288 1.301 . S
N1291 C1289 1.317 . S
N1292 C1288 1.328 . S
N1292 C1290 1.350 . S
H1293 C1288 0.930 . S
H1294 C1289 0.930 . S
C1295 O1296 1.224 . S
C1295 O1314 1.247 . S
O1296 C1295 1.224 . S
N1297 Co1287 2.128 . S
N1297 C1298 1.355 . S
N1297 C1300 1.311 . S
C1298 N1297 1.355 . S
C1298 C1299 1.363 . S
C1298 H1310 0.929 . S
C1299 C1298 1.363 . S
C1299 N1301 1.375 . S
C1299 H1317 0.931 . S
C1300 N1297 1.311 . S
C1300 N1301 1.347 . S
C1300 H1311 0.929 . S
N1301 C1299 1.375 . S
N1301 C1300 1.347 . S
C1302 C1305 1.365 . S
C1302 N1307 1.328 . S
C1302 H1308 0.929 . S
C1303 C1304 1.362 . S
C1303 C1306 1.378 . S
C1303 H1318 0.929 . S
C1304 C1303 1.362 . S
C1304 C1305 1.366 . S
C1305 C1302 1.365 . S
C1305 C1304 1.366 . S
C1305 H1319 0.930 . S
C1306 C1303 1.378 . S
C1306 N1307 1.315 . S
C1306 H1309 0.930 . S
N1307 Co1287 2.194 . S
N1307 C1302 1.328 . S
N1307 C1306 1.315 . S
H1308 C1302 0.929 . S
H1309 C1306 0.930 . S
H1310 C1298 0.929 . S
H1311 C1300 0.929 . S
O1312 Co1287 2.351 . S
O1312 C1315 1.244 . S
O1313 Co1287 2.155 . S
O1313 C1315 1.240 . S
O1314 Co1287 2.096 . S
O1314 C1295 1.247 . S
C1315 O1312 1.244 . S
C1315 O1313 1.240 . S
H1316 C1290 0.931 . S
H1317 C1299 0.931 . S
H1318 C1303 0.929 . S
H1319 C1305 0.930 . S
Co1320 N1324 2.148 . S
Co1320 N1330 2.128 . S
Co1320 N1340 2.194 . S
Co1320 O1345 2.351 . S
Co1320 O1346 2.155 . S
Co1320 O1347 2.096 . S
C1321 N1324 1.301 . S
C1321 N1325 1.328 . S
C1321 H1326 0.930 . S
C1322 C1323 1.333 . S
C1322 N1324 1.317 . S
C1322 H1327 0.930 . S
C1323 C1322 1.333 . S
C1323 N1325 1.350 . S
C1323 H1349 0.931 . S
N1324 Co1320 2.148 . S
N1324 C1321 1.301 . S
N1324 C1322 1.317 . S
N1325 C1321 1.328 . S
N1325 C1323 1.350 . S
H1326 C1321 0.930 . S
H1327 C1322 0.930 . S
C1328 O1329 1.224 . S
C1328 O1347 1.247 . S
O1329 C1328 1.224 . S
N1330 Co1320 2.128 . S
N1330 C1331 1.355 . S
N1330 C1333 1.311 . S
C1331 N1330 1.355 . S
C1331 C1332 1.363 . S
C1331 H1343 0.929 . S
C1332 C1331 1.363 . S
C1332 N1334 1.375 . S
C1332 H1350 0.931 . S
C1333 N1330 1.311 . S
C1333 N1334 1.347 . S
C1333 H1344 0.929 . S
N1334 C1332 1.375 . S
N1334 C1333 1.347 . S
C1335 C1338 1.365 . S
C1335 N1340 1.328 . S
C1335 H1341 0.929 . S
C1336 C1337 1.362 . S
C1336 C1339 1.378 . S
C1336 H1351 0.929 . S
C1337 C1336 1.362 . S
C1337 C1338 1.366 . S
C1338 C1335 1.365 . S
C1338 C1337 1.366 . S
C1338 H1352 0.930 . S
C1339 C1336 1.378 . S
C1339 N1340 1.315 . S
C1339 H1342 0.930 . S
N1340 Co1320 2.194 . S
N1340 C1335 1.328 . S
N1340 C1339 1.315 . S
H1341 C1335 0.929 . S
H1342 C1339 0.930 . S
H1343 C1331 0.929 . S
H1344 C1333 0.929 . S
O1345 Co1320 2.351 . S
O1345 C1348 1.244 . S
O1346 Co1320 2.155 . S
O1346 C1348 1.240 . S
O1347 Co1320 2.096 . S
O1347 C1328 1.247 . S
C1348 O1345 1.244 . S
C1348 O1346 1.240 . S
H1349 C1323 0.931 . S
H1350 C1332 0.931 . S
H1351 C1336 0.929 . S
H1352 C1338 0.930 . S
Co1353 N1357 2.148 . S
Co1353 N1363 2.128 . S
Co1353 N1373 2.194 . S
Co1353 O1378 2.351 . S
Co1353 O1379 2.155 . S
Co1353 O1380 2.096 . S
C1354 N1357 1.301 . S
C1354 N1358 1.328 . S
C1354 H1359 0.930 . S
C1355 C1356 1.333 . S
C1355 N1357 1.317 . S
C1355 H1360 0.930 . S
C1356 C1355 1.333 . S
C1356 N1358 1.350 . S
C1356 H1382 0.931 . S
N1357 Co1353 2.148 . S
N1357 C1354 1.301 . S
N1357 C1355 1.317 . S
N1358 C1354 1.328 . S
N1358 C1356 1.350 . S
H1359 C1354 0.930 . S
H1360 C1355 0.930 . S
C1361 O1362 1.224 . S
C1361 O1380 1.247 . S
O1362 C1361 1.224 . S
N1363 Co1353 2.128 . S
N1363 C1364 1.355 . S
N1363 C1366 1.311 . S
C1364 N1363 1.355 . S
C1364 C1365 1.363 . S
C1364 H1376 0.929 . S
C1365 C1364 1.363 . S
C1365 N1367 1.375 . S
C1365 H1383 0.931 . S
C1366 N1363 1.311 . S
C1366 N1367 1.347 . S
C1366 H1377 0.929 . S
N1367 C1365 1.375 . S
N1367 C1366 1.347 . S
C1368 C1371 1.365 . S
C1368 N1373 1.328 . S
C1368 H1374 0.929 . S
C1369 C1370 1.362 . S
C1369 C1372 1.378 . S
C1369 H1384 0.929 . S
C1370 C1369 1.362 . S
C1370 C1371 1.366 . S
C1371 C1368 1.365 . S
C1371 C1370 1.366 . S
C1371 H1385 0.930 . S
C1372 C1369 1.378 . S
C1372 N1373 1.315 . S
C1372 H1375 0.930 . S
N1373 Co1353 2.194 . S
N1373 C1368 1.328 . S
N1373 C1372 1.315 . S
H1374 C1368 0.929 . S
H1375 C1372 0.930 . S
H1376 C1364 0.929 . S
H1377 C1366 0.929 . S
O1378 Co1353 2.351 . S
O1378 C1381 1.244 . S
O1379 Co1353 2.155 . S
O1379 C1381 1.240 . S
O1380 Co1353 2.096 . S
O1380 C1361 1.247 . S
C1381 O1378 1.244 . S
C1381 O1379 1.240 . S
H1382 C1356 0.931 . S
H1383 C1365 0.931 . S
H1384 C1369 0.929 . S
H1385 C1371 0.930 . S
Co1386 N1390 2.148 . S
Co1386 N1396 2.128 . S
Co1386 N1406 2.194 . S
Co1386 O1411 2.351 . S
Co1386 O1412 2.155 . S
Co1386 O1413 2.096 . S
C1387 N1390 1.301 . S
C1387 N1391 1.328 . S
C1387 H1392 0.930 . S
C1388 C1389 1.333 . S
C1388 N1390 1.317 . S
C1388 H1393 0.930 . S
C1389 C1388 1.333 . S
C1389 N1391 1.350 . S
C1389 H1415 0.931 . S
N1390 Co1386 2.148 . S
N1390 C1387 1.301 . S
N1390 C1388 1.317 . S
N1391 C1387 1.328 . S
N1391 C1389 1.350 . S
H1392 C1387 0.930 . S
H1393 C1388 0.930 . S
C1394 O1395 1.224 . S
C1394 O1413 1.247 . S
O1395 C1394 1.224 . S
N1396 Co1386 2.128 . S
N1396 C1397 1.355 . S
N1396 C1399 1.311 . S
C1397 N1396 1.355 . S
C1397 C1398 1.363 . S
C1397 H1409 0.929 . S
C1398 C1397 1.363 . S
C1398 N1400 1.375 . S
C1398 H1416 0.931 . S
C1399 N1396 1.311 . S
C1399 N1400 1.347 . S
C1399 H1410 0.929 . S
N1400 C1398 1.375 . S
N1400 C1399 1.347 . S
C1401 C1404 1.365 . S
C1401 N1406 1.328 . S
C1401 H1407 0.929 . S
C1402 C1403 1.362 . S
C1402 C1405 1.378 . S
C1402 H1417 0.929 . S
C1403 C1402 1.362 . S
C1403 C1404 1.366 . S
C1404 C1401 1.365 . S
C1404 C1403 1.366 . S
C1404 H1418 0.930 . S
C1405 C1402 1.378 . S
C1405 N1406 1.315 . S
C1405 H1408 0.930 . S
N1406 Co1386 2.194 . S
N1406 C1401 1.328 . S
N1406 C1405 1.315 . S
H1407 C1401 0.929 . S
H1408 C1405 0.930 . S
H1409 C1397 0.929 . S
H1410 C1399 0.929 . S
O1411 Co1386 2.351 . S
O1411 C1414 1.244 . S
O1412 Co1386 2.155 . S
O1412 C1414 1.240 . S
O1413 Co1386 2.096 . S
O1413 C1394 1.247 . S
C1414 O1411 1.244 . S
C1414 O1412 1.240 . S
H1415 C1389 0.931 . S
H1416 C1398 0.931 . S
H1417 C1402 0.929 . S
H1418 C1404 0.930 . S
Co1419 N1423 2.148 . S
Co1419 N1429 2.128 . S
Co1419 N1439 2.194 . S
Co1419 O1444 2.351 . S
Co1419 O1445 2.155 . S
Co1419 O1446 2.096 . S
C1420 N1423 1.301 . S
C1420 N1424 1.328 . S
C1420 H1425 0.930 . S
C1421 C1422 1.333 . S
C1421 N1423 1.317 . S
C1421 H1426 0.930 . S
C1422 C1421 1.333 . S
C1422 N1424 1.350 . S
C1422 H1448 0.931 . S
N1423 Co1419 2.148 . S
N1423 C1420 1.301 . S
N1423 C1421 1.317 . S
N1424 C1420 1.328 . S
N1424 C1422 1.350 . S
H1425 C1420 0.930 . S
H1426 C1421 0.930 . S
C1427 O1428 1.224 . S
C1427 O1446 1.247 . S
O1428 C1427 1.224 . S
N1429 Co1419 2.128 . S
N1429 C1430 1.355 . S
N1429 C1432 1.311 . S
C1430 N1429 1.355 . S
C1430 C1431 1.363 . S
C1430 H1442 0.929 . S
C1431 C1430 1.363 . S
C1431 N1433 1.375 . S
C1431 H1449 0.931 . S
C1432 N1429 1.311 . S
C1432 N1433 1.347 . S
C1432 H1443 0.929 . S
N1433 C1431 1.375 . S
N1433 C1432 1.347 . S
C1434 C1437 1.365 . S
C1434 N1439 1.328 . S
C1434 H1440 0.929 . S
C1435 C1436 1.362 . S
C1435 C1438 1.378 . S
C1435 H1450 0.929 . S
C1436 C1435 1.362 . S
C1436 C1437 1.366 . S
C1437 C1434 1.365 . S
C1437 C1436 1.366 . S
C1437 H1451 0.930 . S
C1438 C1435 1.378 . S
C1438 N1439 1.315 . S
C1438 H1441 0.930 . S
N1439 Co1419 2.194 . S
N1439 C1434 1.328 . S
N1439 C1438 1.315 . S
H1440 C1434 0.929 . S
H1441 C1438 0.930 . S
H1442 C1430 0.929 . S
H1443 C1432 0.929 . S
O1444 Co1419 2.351 . S
O1444 C1447 1.244 . S
O1445 Co1419 2.155 . S
O1445 C1447 1.240 . S
O1446 Co1419 2.096 . S
O1446 C1427 1.247 . S
C1447 O1444 1.244 . S
C1447 O1445 1.240 . S
H1448 C1422 0.931 . S
H1449 C1431 0.931 . S
H1450 C1435 0.929 . S
H1451 C1437 0.930 . S
Co1452 N1456 2.148 . S
Co1452 N1462 2.128 . S
Co1452 N1472 2.194 . S
Co1452 O1477 2.351 . S
Co1452 O1478 2.155 . S
Co1452 O1479 2.096 . S
C1453 N1456 1.301 . S
C1453 N1457 1.328 . S
C1453 H1458 0.930 . S
C1454 C1455 1.333 . S
C1454 N1456 1.317 . S
C1454 H1459 0.930 . S
C1455 C1454 1.333 . S
C1455 N1457 1.350 . S
C1455 H1481 0.931 . S
N1456 Co1452 2.148 . S
N1456 C1453 1.301 . S
N1456 C1454 1.317 . S
N1457 C1453 1.328 . S
N1457 C1455 1.350 . S
H1458 C1453 0.930 . S
H1459 C1454 0.930 . S
C1460 O1461 1.224 . S
C1460 O1479 1.247 . S
O1461 C1460 1.224 . S
N1462 Co1452 2.128 . S
N1462 C1463 1.355 . S
N1462 C1465 1.311 . S
C1463 N1462 1.355 . S
C1463 C1464 1.363 . S
C1463 H1475 0.929 . S
C1464 C1463 1.363 . S
C1464 N1466 1.375 . S
C1464 H1482 0.931 . S
C1465 N1462 1.311 . S
C1465 N1466 1.347 . S
C1465 H1476 0.929 . S
N1466 C1464 1.375 . S
N1466 C1465 1.347 . S
C1467 C1470 1.365 . S
C1467 N1472 1.328 . S
C1467 H1473 0.929 . S
C1468 C1469 1.362 . S
C1468 C1471 1.378 . S
C1468 H1483 0.929 . S
C1469 C1468 1.362 . S
C1469 C1470 1.366 . S
C1470 C1467 1.365 . S
C1470 C1469 1.366 . S
C1470 H1484 0.930 . S
C1471 C1468 1.378 . S
C1471 N1472 1.315 . S
C1471 H1474 0.930 . S
N1472 Co1452 2.194 . S
N1472 C1467 1.328 . S
N1472 C1471 1.315 . S
H1473 C1467 0.929 . S
H1474 C1471 0.930 . S
H1475 C1463 0.929 . S
H1476 C1465 0.929 . S
O1477 Co1452 2.351 . S
O1477 C1480 1.244 . S
O1478 Co1452 2.155 . S
O1478 C1480 1.240 . S
O1479 Co1452 2.096 . S
O1479 C1460 1.247 . S
C1480 O1477 1.244 . S
C1480 O1478 1.240 . S
H1481 C1455 0.931 . S
H1482 C1464 0.931 . S
H1483 C1468 0.929 . S
H1484 C1470 0.930 . S
Co1485 N1489 2.148 . S
Co1485 N1495 2.128 . S
Co1485 N1505 2.194 . S
Co1485 O1510 2.351 . S
Co1485 O1511 2.155 . S
Co1485 O1512 2.096 . S
C1486 N1489 1.301 . S
C1486 N1490 1.328 . S
C1486 H1491 0.930 . S
C1487 C1488 1.333 . S
C1487 N1489 1.317 . S
C1487 H1492 0.930 . S
C1488 C1487 1.333 . S
C1488 N1490 1.350 . S
C1488 H1514 0.931 . S
N1489 Co1485 2.148 . S
N1489 C1486 1.301 . S
N1489 C1487 1.317 . S
N1490 C1486 1.328 . S
N1490 C1488 1.350 . S
H1491 C1486 0.930 . S
H1492 C1487 0.930 . S
C1493 O1494 1.224 . S
C1493 O1512 1.247 . S
O1494 C1493 1.224 . S
N1495 Co1485 2.128 . S
N1495 C1496 1.355 . S
N1495 C1498 1.311 . S
C1496 N1495 1.355 . S
C1496 C1497 1.363 . S
C1496 H1508 0.929 . S
C1497 C1496 1.363 . S
C1497 N1499 1.375 . S
C1497 H1515 0.931 . S
C1498 N1495 1.311 . S
C1498 N1499 1.347 . S
C1498 H1509 0.929 . S
N1499 C1497 1.375 . S
N1499 C1498 1.347 . S
C1500 C1503 1.365 . S
C1500 N1505 1.328 . S
C1500 H1506 0.929 . S
C1501 C1502 1.362 . S
C1501 C1504 1.378 . S
C1501 H1516 0.929 . S
C1502 C1501 1.362 . S
C1502 C1503 1.366 . S
C1503 C1500 1.365 . S
C1503 C1502 1.366 . S
C1503 H1517 0.930 . S
C1504 C1501 1.378 . S
C1504 N1505 1.315 . S
C1504 H1507 0.930 . S
N1505 Co1485 2.194 . S
N1505 C1500 1.328 . S
N1505 C1504 1.315 . S
H1506 C1500 0.929 . S
H1507 C1504 0.930 . S
H1508 C1496 0.929 . S
H1509 C1498 0.929 . S
O1510 Co1485 2.351 . S
O1510 C1513 1.244 . S
O1511 Co1485 2.155 . S
O1511 C1513 1.240 . S
O1512 Co1485 2.096 . S
O1512 C1493 1.247 . S
C1513 O1510 1.244 . S
C1513 O1511 1.240 . S
H1514 C1488 0.931 . S
H1515 C1497 0.931 . S
H1516 C1501 0.929 . S
H1517 C1503 0.930 . S
Co1518 N1522 2.148 . S
Co1518 N1528 2.128 . S
Co1518 N1538 2.194 . S
Co1518 O1543 2.351 . S
Co1518 O1544 2.155 . S
Co1518 O1545 2.096 . S
C1519 N1522 1.301 . S
C1519 N1523 1.328 . S
C1519 H1524 0.930 . S
C1520 C1521 1.333 . S
C1520 N1522 1.317 . S
C1520 H1525 0.930 . S
C1521 C1520 1.333 . S
C1521 N1523 1.350 . S
C1521 H1547 0.931 . S
N1522 Co1518 2.148 . S
N1522 C1519 1.301 . S
N1522 C1520 1.317 . S
N1523 C1519 1.328 . S
N1523 C1521 1.350 . S
H1524 C1519 0.930 . S
H1525 C1520 0.930 . S
C1526 O1527 1.224 . S
C1526 O1545 1.247 . S
O1527 C1526 1.224 . S
N1528 Co1518 2.128 . S
N1528 C1529 1.355 . S
N1528 C1531 1.311 . S
C1529 N1528 1.355 . S
C1529 C1530 1.363 . S
C1529 H1541 0.929 . S
C1530 C1529 1.363 . S
C1530 N1532 1.375 . S
C1530 H1548 0.931 . S
C1531 N1528 1.311 . S
C1531 N1532 1.347 . S
C1531 H1542 0.929 . S
N1532 C1530 1.375 . S
N1532 C1531 1.347 . S
C1533 C1536 1.365 . S
C1533 N1538 1.328 . S
C1533 H1539 0.929 . S
C1534 C1535 1.362 . S
C1534 C1537 1.378 . S
C1534 H1549 0.929 . S
C1535 C1534 1.362 . S
C1535 C1536 1.366 . S
C1536 C1533 1.365 . S
C1536 C1535 1.366 . S
C1536 H1550 0.930 . S
C1537 C1534 1.378 . S
C1537 N1538 1.315 . S
C1537 H1540 0.930 . S
N1538 Co1518 2.194 . S
N1538 C1533 1.328 . S
N1538 C1537 1.315 . S
H1539 C1533 0.929 . S
H1540 C1537 0.930 . S
H1541 C1529 0.929 . S
H1542 C1531 0.929 . S
O1543 Co1518 2.351 . S
O1543 C1546 1.244 . S
O1544 Co1518 2.155 . S
O1544 C1546 1.240 . S
O1545 Co1518 2.096 . S
O1545 C1526 1.247 . S
C1546 O1543 1.244 . S
C1546 O1544 1.240 . S
H1547 C1521 0.931 . S
H1548 C1530 0.931 . S
H1549 C1534 0.929 . S
H1550 C1536 0.930 . S
Co1551 N1555 2.148 . S
Co1551 N1561 2.128 . S
Co1551 N1571 2.194 . S
Co1551 O1576 2.351 . S
Co1551 O1577 2.155 . S
Co1551 O1578 2.096 . S
C1552 N1555 1.301 . S
C1552 N1556 1.328 . S
C1552 H1557 0.930 . S
C1553 C1554 1.333 1_655 S
C1553 N1555 1.317 . S
C1553 H1558 0.930 1_655 S
C1554 C1553 1.333 1_455 S
C1554 N1556 1.350 1_455 S
C1554 H1580 0.931 . S
N1555 Co1551 2.148 . S
N1555 C1552 1.301 . S
N1555 C1553 1.317 . S
N1556 C1552 1.328 . S
N1556 C1554 1.350 1_655 S
H1557 C1552 0.930 . S
H1558 C1553 0.930 1_455 S
C1559 O1560 1.224 . S
C1559 O1578 1.247 . S
O1560 C1559 1.224 . S
N1561 Co1551 2.128 . S
N1561 C1562 1.355 . S
N1561 C1564 1.311 . S
C1562 N1561 1.355 . S
C1562 C1563 1.363 . S
C1562 H1574 0.929 . S
C1563 C1562 1.363 . S
C1563 N1565 1.375 . S
C1563 H1581 0.931 . S
C1564 N1561 1.311 . S
C1564 N1565 1.347 . S
C1564 H1575 0.929 . S
N1565 C1563 1.375 . S
N1565 C1564 1.347 . S
C1566 C1569 1.365 . S
C1566 N1571 1.328 . S
C1566 H1572 0.929 . S
C1567 C1568 1.362 . S
C1567 C1570 1.378 . S
C1567 H1582 0.929 . S
C1568 C1567 1.362 . S
C1568 C1569 1.366 . S
C1569 C1566 1.365 . S
C1569 C1568 1.366 . S
C1569 H1583 0.930 . S
C1570 C1567 1.378 . S
C1570 N1571 1.315 . S
C1570 H1573 0.930 . S
N1571 Co1551 2.194 . S
N1571 C1566 1.328 . S
N1571 C1570 1.315 . S
H1572 C1566 0.929 . S
H1573 C1570 0.930 . S
H1574 C1562 0.929 . S
H1575 C1564 0.929 . S
O1576 Co1551 2.351 . S
O1576 C1579 1.244 . S
O1577 Co1551 2.155 . S
O1577 C1579 1.240 . S
O1578 Co1551 2.096 . S
O1578 C1559 1.247 . S
C1579 O1576 1.244 . S
C1579 O1577 1.240 . S
H1580 C1554 0.931 . S
H1581 C1563 0.931 . S
H1582 C1567 0.929 . S
H1583 C1569 0.930 . S
H1584 C1592 0.950 . S
H1585 C1597 0.950 . S
H1586 C1594 0.950 . S
H1587 C1596 0.950 . S
H1588 C1598 0.950 . S
H1589 C1600 0.950 . S
H1590 C1602 0.950 . S
H1591 C1603 0.950 1_655 S
C1592 H1584 0.950 . S
C1592 C1593 1.386 . S
C1592 C1594 1.391 . S
C1593 C1592 1.386 . S
C1593 C1597 1.393 . S
C1594 H1586 0.950 . S
C1594 C1592 1.391 . S
C1594 C1595 1.400 . S
C1595 C1594 1.400 . S
C1595 C1596 1.398 . S
C1595 C1601 1.491 . S
C1596 H1587 0.950 . S
C1596 C1595 1.398 . S
C1596 C1597 1.391 . S
C1597 H1585 0.950 . S
C1597 C1593 1.393 . S
C1597 C1596 1.391 . S
C1598 H1588 0.950 . S
C1598 C1599 1.386 . S
C1598 C1600 1.391 . S
C1599 C1598 1.386 . S
C1599 C1603 1.393 . S
C1600 H1589 0.950 . S
C1600 C1598 1.391 . S
C1600 C1601 1.400 . S
C1601 C1595 1.491 . S
C1601 C1600 1.400 . S
C1601 C1602 1.398 . S
C1602 H1590 0.950 . S
C1602 C1601 1.398 . S
C1602 C1603 1.391 . S
C1603 H1591 0.950 1_455 S
C1603 C1599 1.393 . S
C1603 C1602 1.391 . S
H1604 C1612 0.950 . S
H1605 C1617 0.950 . S
H1606 C1614 0.950 . S
H1607 C1616 0.950 . S
H1608 C1618 0.950 . S
H1609 C1620 0.950 . S
H1610 C1622 0.950 . S
H1611 C1623 0.950 . S
C1612 H1604 0.950 . S
C1612 C1613 1.386 . S
C1612 C1614 1.391 . S
C1613 C1612 1.386 . S
C1613 C1617 1.393 . S
C1614 H1606 0.950 . S
C1614 C1612 1.391 . S
C1614 C1615 1.400 . S
C1615 C1614 1.400 . S
C1615 C1616 1.398 . S
C1615 C1621 1.491 . S
C1616 H1607 0.950 . S
C1616 C1615 1.398 . S
C1616 C1617 1.391 . S
C1617 H1605 0.950 . S
C1617 C1613 1.393 . S
C1617 C1616 1.391 . S
C1618 H1608 0.950 . S
C1618 C1619 1.386 . S
C1618 C1620 1.391 . S
C1619 C1618 1.386 . S
C1619 C1623 1.393 . S
C1620 H1609 0.950 . S
C1620 C1618 1.391 . S
C1620 C1621 1.400 . S
C1621 C1615 1.491 . S
C1621 C1620 1.400 . S
C1621 C1622 1.398 . S
C1622 H1610 0.950 . S
C1622 C1621 1.398 . S
C1622 C1623 1.391 . S
C1623 H1611 0.950 . S
C1623 C1619 1.393 . S
C1623 C1622 1.391 . S
H1624 C1632 0.950 . S
H1625 C1637 0.950 . S
H1626 C1634 0.950 . S
H1627 C1636 0.950 . S
H1628 C1638 0.950 . S
H1629 C1640 0.950 . S
H1630 C1642 0.950 . S
H1631 C1643 0.950 . S
C1632 H1624 0.950 . S
C1632 C1633 1.386 . S
C1632 C1634 1.391 . S
C1633 C1632 1.386 . S
C1633 C1637 1.393 . S
C1634 H1626 0.950 . S
C1634 C1632 1.391 . S
C1634 C1635 1.400 . S
C1635 C1634 1.400 . S
C1635 C1636 1.398 . S
C1635 C1641 1.491 . S
C1636 H1627 0.950 . S
C1636 C1635 1.398 . S
C1636 C1637 1.391 . S
C1637 H1625 0.950 . S
C1637 C1633 1.393 . S
C1637 C1636 1.391 . S
C1638 H1628 0.950 . S
C1638 C1639 1.386 . S
C1638 C1640 1.391 . S
C1639 C1638 1.386 . S
C1639 C1643 1.393 . S
C1640 H1629 0.950 . S
C1640 C1638 1.391 . S
C1640 C1641 1.400 . S
C1641 C1635 1.491 . S
C1641 C1640 1.400 . S
C1641 C1642 1.398 . S
C1642 H1630 0.950 . S
C1642 C1641 1.398 . S
C1642 C1643 1.391 . S
C1643 H1631 0.950 . S
C1643 C1639 1.393 . S
C1643 C1642 1.391 . S
H1644 C1652 1.013 . S
H1645 C1657 0.950 . S
H1646 C1654 0.950 . S
H1647 C1656 0.950 . S
H1648 C1658 0.950 . S
H1649 C1660 0.950 . S
H1650 C1662 0.950 . S
H1651 C1663 0.950 . S
C1652 H1644 1.013 . S
C1652 C1653 1.361 1_554 S
C1652 C1654 1.355 1_554 S
C1653 C1652 1.361 1_556 S
C1653 C1657 1.393 . S
C1654 H1646 0.950 . S
C1654 C1652 1.355 1_556 S
C1654 C1655 1.400 . S
C1655 C1654 1.400 . S
C1655 C1656 1.398 . S
C1655 C1661 1.491 . S
C1656 H1647 0.950 . S
C1656 C1655 1.398 . S
C1656 C1657 1.391 . S
C1657 H1645 0.950 . S
C1657 C1653 1.393 . S
C1657 C1656 1.391 . S
C1658 H1648 0.950 . S
C1658 C1659 1.386 . S
C1658 C1660 1.391 . S
C1659 C1658 1.386 . S
C1659 C1663 1.393 . S
C1660 H1649 0.950 . S
C1660 C1658 1.391 . S
C1660 C1661 1.400 . S
C1661 C1655 1.491 . S
C1661 C1660 1.400 . S
C1661 C1662 1.398 . S
C1662 H1650 0.950 . S
C1662 C1661 1.398 . S
C1662 C1663 1.391 . S
C1663 H1651 0.950 . S
C1663 C1659 1.393 . S
C1663 C1662 1.391 . S
H1664 C1672 0.950 . S
H1665 C1677 0.950 . S
H1666 C1674 0.950 . S
H1667 C1676 0.950 . S
H1668 C1678 0.950 . S
H1669 C1680 0.950 . S
H1670 C1682 0.950 . S
H1671 C1683 0.950 1_655 S
C1672 H1664 0.950 . S
C1672 C1673 1.386 . S
C1672 C1674 1.391 . S
C1673 C1672 1.386 . S
C1673 C1677 1.393 . S
C1674 H1666 0.950 . S
C1674 C1672 1.391 . S
C1674 C1675 1.400 . S
C1675 C1674 1.400 . S
C1675 C1676 1.398 . S
C1675 C1681 1.491 . S
C1676 H1667 0.950 . S
C1676 C1675 1.398 . S
C1676 C1677 1.391 . S
C1677 H1665 0.950 . S
C1677 C1673 1.393 . S
C1677 C1676 1.391 . S
C1678 H1668 0.950 . S
C1678 C1679 1.386 . S
C1678 C1680 1.391 . S
C1679 C1678 1.386 . S
C1679 C1683 1.393 . S
C1680 H1669 0.950 . S
C1680 C1678 1.391 . S
C1680 C1681 1.400 . S
C1681 C1675 1.491 . S
C1681 C1680 1.400 . S
C1681 C1682 1.398 . S
C1682 H1670 0.950 . S
C1682 C1681 1.398 . S
C1682 C1683 1.391 . S
C1683 H1671 0.950 1_455 S
C1683 C1679 1.393 . S
C1683 C1682 1.391 . S
H1684 C1692 0.950 . S
H1685 C1697 0.950 . S
H1686 C1694 0.950 . S
H1687 C1696 0.950 . S
H1688 C1698 0.950 . S
H1689 C1700 0.950 . S
H1690 C1702 0.950 . S
H1691 C1703 0.950 . S
C1692 H1684 0.950 . S
C1692 C1693 1.386 . S
C1692 C1694 1.391 . S
C1693 C1692 1.386 . S
C1693 C1697 1.393 . S
C1694 H1686 0.950 . S
C1694 C1692 1.391 . S
C1694 C1695 1.400 . S
C1695 C1694 1.400 . S
C1695 C1696 1.398 . S
C1695 C1701 1.491 . S
C1696 H1687 0.950 . S
C1696 C1695 1.398 . S
C1696 C1697 1.391 . S
C1697 H1685 0.950 . S
C1697 C1693 1.393 . S
C1697 C1696 1.391 . S
C1698 H1688 0.950 . S
C1698 C1699 1.386 . S
C1698 C1700 1.391 . S
C1699 C1698 1.386 . S
C1699 C1703 1.393 . S
C1700 H1689 0.950 . S
C1700 C1698 1.391 . S
C1700 C1701 1.400 . S
C1701 C1695 1.491 . S
C1701 C1700 1.400 . S
C1701 C1702 1.398 . S
C1702 H1690 0.950 . S
C1702 C1701 1.398 . S
C1702 C1703 1.391 . S
C1703 H1691 0.950 . S
C1703 C1699 1.393 . S
C1703 C1702 1.391 . S
H1704 C1712 0.950 . S
H1705 C1717 0.950 . S
H1706 C1714 0.950 . S
H1707 C1716 0.950 . S
H1708 C1718 0.950 . S
H1709 C1720 0.950 . S
H1710 C1722 0.950 . S
H1711 C1723 0.950 . S
C1712 H1704 0.950 . S
C1712 C1713 1.386 . S
C1712 C1714 1.391 . S
C1713 C1712 1.386 . S
C1713 C1717 1.393 . S
C1714 H1706 0.950 . S
C1714 C1712 1.391 . S
C1714 C1715 1.400 . S
C1715 C1714 1.400 . S
C1715 C1716 1.398 . S
C1715 C1721 1.491 . S
C1716 H1707 0.950 . S
C1716 C1715 1.398 . S
C1716 C1717 1.391 . S
C1717 H1705 0.950 . S
C1717 C1713 1.393 . S
C1717 C1716 1.391 . S
C1718 H1708 0.950 . S
C1718 C1719 1.386 . S
C1718 C1720 1.391 . S
C1719 C1718 1.386 . S
C1719 C1723 1.393 . S
C1720 H1709 0.950 . S
C1720 C1718 1.391 . S
C1720 C1721 1.400 . S
C1721 C1715 1.491 . S
C1721 C1720 1.400 . S
C1721 C1722 1.398 . S
C1722 H1710 0.950 . S
C1722 C1721 1.398 . S
C1722 C1723 1.391 . S
C1723 H1711 0.950 . S
C1723 C1719 1.393 . S
C1723 C1722 1.391 . S
H1724 C1732 0.950 . S
H1725 C1737 0.950 . S
H1726 C1734 0.950 . S
H1727 C1736 0.950 . S
H1728 C1738 0.950 . S
H1729 C1740 0.950 . S
H1730 C1742 0.950 . S
H1731 C1743 0.950 . S
C1732 H1724 0.950 . S
C1732 C1733 1.386 1_556 S
C1732 C1734 1.391 1_556 S
C1733 C1732 1.386 1_554 S
C1733 C1737 1.393 . S
C1734 H1726 0.950 . S
C1734 C1732 1.391 1_554 S
C1734 C1735 1.400 . S
C1735 C1734 1.400 . S
C1735 C1736 1.398 . S
C1735 C1741 1.491 . S
C1736 H1727 0.950 . S
C1736 C1735 1.398 . S
C1736 C1737 1.391 . S
C1737 H1725 0.950 . S
C1737 C1733 1.393 . S
C1737 C1736 1.391 . S
C1738 H1728 0.950 . S
C1738 C1739 1.386 . S
C1738 C1740 1.391 . S
C1739 C1738 1.386 . S
C1739 C1743 1.393 . S
C1740 H1729 0.950 . S
C1740 C1738 1.391 . S
C1740 C1741 1.400 . S
C1741 C1735 1.491 . S
C1741 C1740 1.400 . S
C1741 C1742 1.398 . S
C1742 H1730 0.950 . S
C1742 C1741 1.398 . S
C1742 C1743 1.391 . S
C1743 H1731 0.950 . S
C1743 C1739 1.393 . S
C1743 C1742 1.391 . S
H1744 C1752 0.950 . S
H1745 C1757 0.950 . S
H1746 C1754 0.950 . S
H1747 C1756 0.950 . S
H1748 C1758 0.950 . S
H1749 C1760 0.950 . S
H1750 C1762 0.950 . S
H1751 C1763 0.950 . S
C1752 H1744 0.950 . S
C1752 C1753 1.386 . S
C1752 C1754 1.391 . S
C1753 C1752 1.386 . S
C1753 C1757 1.393 . S
C1754 H1746 0.950 . S
C1754 C1752 1.391 . S
C1754 C1755 1.400 . S
C1755 C1754 1.400 . S
C1755 C1756 1.398 . S
C1755 C1761 1.491 . S
C1756 H1747 0.950 . S
C1756 C1755 1.398 . S
C1756 C1757 1.391 . S
C1757 H1745 0.950 . S
C1757 C1753 1.393 . S
C1757 C1756 1.391 . S
C1758 H1748 0.950 . S
C1758 C1759 1.386 . S
C1758 C1760 1.391 . S
C1759 C1758 1.386 . S
C1759 C1763 1.393 . S
C1760 H1749 0.950 . S
C1760 C1758 1.391 . S
C1760 C1761 1.400 . S
C1761 C1755 1.491 . S
C1761 C1760 1.400 . S
C1761 C1762 1.398 . S
C1762 H1750 0.950 . S
C1762 C1761 1.398 . S
C1762 C1763 1.391 . S
C1763 H1751 0.950 . S
C1763 C1759 1.393 . S
C1763 C1762 1.391 . S
H1764 C1772 0.950 . S
H1765 C1777 0.950 1_545 S
H1766 C1774 0.950 . S
H1767 C1776 0.950 . S
H1768 C1778 0.950 . S
H1769 C1780 0.950 . S
H1770 C1782 0.950 . S
H1771 C1783 0.950 . S
C1772 H1764 0.950 . S
C1772 C1773 1.386 . S
C1772 C1774 1.391 . S
C1773 C1772 1.386 . S
C1773 C1777 1.393 . S
C1774 H1766 0.950 . S
C1774 C1772 1.391 . S
C1774 C1775 1.400 . S
C1775 C1774 1.400 . S
C1775 C1776 1.398 . S
C1775 C1781 1.491 . S
C1776 H1767 0.950 . S
C1776 C1775 1.398 . S
C1776 C1777 1.391 . S
C1777 H1765 0.950 1_565 S
C1777 C1773 1.393 . S
C1777 C1776 1.391 . S
C1778 H1768 0.950 . S
C1778 C1779 1.386 . S
C1778 C1780 1.391 . S
C1779 C1778 1.386 . S
C1779 C1783 1.393 . S
C1780 H1769 0.950 . S
C1780 C1778 1.391 . S
C1780 C1781 1.400 . S
C1781 C1775 1.491 . S
C1781 C1780 1.400 . S
C1781 C1782 1.398 . S
C1782 H1770 0.950 . S
C1782 C1781 1.398 . S
C1782 C1783 1.391 . S
C1783 H1771 0.950 . S
C1783 C1779 1.393 . S
C1783 C1782 1.391 . S
H1784 C1792 0.950 . S
H1785 C1797 0.950 1_545 S
H1786 C1794 0.950 . S
H1787 C1796 0.950 . S
H1788 C1798 0.950 . S
H1789 C1800 0.950 . S
H1790 C1802 0.950 . S
H1791 C1803 0.950 . S
C1792 H1784 0.950 . S
C1792 C1793 1.386 . S
C1792 C1794 1.391 . S
C1793 C1792 1.386 . S
C1793 C1797 1.393 . S
C1794 H1786 0.950 . S
C1794 C1792 1.391 . S
C1794 C1795 1.400 . S
C1795 C1794 1.400 . S
C1795 C1796 1.398 . S
C1795 C1801 1.491 . S
C1796 H1787 0.950 . S
C1796 C1795 1.398 . S
C1796 C1797 1.391 . S
C1797 H1785 0.950 1_565 S
C1797 C1793 1.393 . S
C1797 C1796 1.391 . S
C1798 H1788 0.950 . S
C1798 C1799 1.386 . S
C1798 C1800 1.391 . S
C1799 C1798 1.386 . S
C1799 C1803 1.393 . S
C1800 H1789 0.950 . S
C1800 C1798 1.391 . S
C1800 C1801 1.400 . S
C1801 C1795 1.491 . S
C1801 C1800 1.400 . S
C1801 C1802 1.398 . S
C1802 H1790 0.950 . S
C1802 C1801 1.398 . S
C1802 C1803 1.391 . S
C1803 H1791 0.950 . S
C1803 C1799 1.393 . S
C1803 C1802 1.391 . S
H1804 C1812 0.950 . S
H1805 C1817 0.950 . S
H1806 C1814 0.950 . S
H1807 C1816 0.950 . S
H1808 C1818 0.950 1_565 S
H1809 C1820 0.950 . S
H1810 C1822 0.950 . S
H1811 C1823 0.950 . S
C1812 H1804 0.950 . S
C1812 C1813 1.386 . S
C1812 C1814 1.391 . S
C1813 C1812 1.386 . S
C1813 C1817 1.393 . S
C1814 H1806 0.950 . S
C1814 C1812 1.391 . S
C1814 C1815 1.400 . S
C1815 C1814 1.400 . S
C1815 C1816 1.398 . S
C1815 C1821 1.491 . S
C1816 H1807 0.950 . S
C1816 C1815 1.398 . S
C1816 C1817 1.391 . S
C1817 H1805 0.950 . S
C1817 C1813 1.393 . S
C1817 C1816 1.391 . S
C1818 H1808 0.950 1_545 S
C1818 C1819 1.386 . S
C1818 C1820 1.391 . S
C1819 C1818 1.386 . S
C1819 C1823 1.393 . S
C1820 H1809 0.950 . S
C1820 C1818 1.391 . S
C1820 C1821 1.400 . S
C1821 C1815 1.491 . S
C1821 C1820 1.400 . S
C1821 C1822 1.398 . S
C1822 H1810 0.950 . S
C1822 C1821 1.398 . S
C1822 C1823 1.391 . S
C1823 H1811 0.950 . S
C1823 C1819 1.393 . S
C1823 C1822 1.391 . S
H1824 C1832 0.950 1_554 S
H1825 C1837 0.950 . S
H1826 C1834 0.950 . S
H1827 C1836 0.950 . S
H1828 C1838 0.950 . S
H1829 C1840 0.950 . S
H1830 C1842 0.950 . S
H1831 C1843 0.950 . S
C1832 H1824 0.950 1_556 S
C1832 C1833 1.386 . S
C1832 C1834 1.391 . S
C1833 C1832 1.386 . S
C1833 C1837 1.393 . S
C1834 H1826 0.950 . S
C1834 C1832 1.391 . S
C1834 C1835 1.400 . S
C1835 C1834 1.400 . S
C1835 C1836 1.398 . S
C1835 C1841 1.491 . S
C1836 H1827 0.950 . S
C1836 C1835 1.398 . S
C1836 C1837 1.391 . S
C1837 H1825 0.950 . S
C1837 C1833 1.393 . S
C1837 C1836 1.391 . S
C1838 H1828 0.950 . S
C1838 C1839 1.386 . S
C1838 C1840 1.391 . S
C1839 C1838 1.386 . S
C1839 C1843 1.393 . S
C1840 H1829 0.950 . S
C1840 C1838 1.391 . S
C1840 C1841 1.400 . S
C1841 C1835 1.491 . S
C1841 C1840 1.400 . S
C1841 C1842 1.398 . S
C1842 H1830 0.950 . S
C1842 C1841 1.398 . S
C1842 C1843 1.391 . S
C1843 H1831 0.950 . S
C1843 C1839 1.393 . S
C1843 C1842 1.391 . S
H1844 C1852 0.966 . S
H1845 C1857 0.950 . S
H1846 C1854 0.950 . S
H1847 C1856 0.950 . S
H1848 C1858 0.950 . S
H1849 C1860 0.950 . S
H1850 C1862 0.950 . S
H1851 C1863 0.950 . S
C1852 H1844 0.966 . S
C1852 C1853 1.379 1_455 S
C1852 C1854 1.381 1_455 S
C1853 C1852 1.379 1_655 S
C1853 C1857 1.393 . S
C1854 H1846 0.950 . S
C1854 C1852 1.381 1_655 S
C1854 C1855 1.400 . S
C1855 C1854 1.400 . S
C1855 C1856 1.398 . S
C1855 C1861 1.491 . S
C1856 H1847 0.950 . S
C1856 C1855 1.398 . S
C1856 C1857 1.391 . S
C1857 H1845 0.950 . S
C1857 C1853 1.393 . S
C1857 C1856 1.391 . S
C1858 H1848 0.950 . S
C1858 C1859 1.386 . S
C1858 C1860 1.391 . S
C1859 C1858 1.386 . S
C1859 C1863 1.393 . S
C1860 H1849 0.950 . S
C1860 C1858 1.391 . S
C1860 C1861 1.400 . S
C1861 C1855 1.491 . S
C1861 C1860 1.400 . S
C1861 C1862 1.398 . S
C1862 H1850 0.950 . S
C1862 C1861 1.398 . S
C1862 C1863 1.391 . S
C1863 H1851 0.950 . S
C1863 C1859 1.393 . S
C1863 C1862 1.391 . S
H1864 C1872 0.950 . S
H1865 C1877 0.950 . S
H1866 C1874 0.950 . S
H1867 C1876 0.950 . S
H1868 C1878 0.950 . S
H1869 C1880 0.950 . S
H1870 C1882 0.950 . S
H1871 C1883 0.950 . S
C1872 H1864 0.950 . S
C1872 C1873 1.386 . S
C1872 C1874 1.391 . S
C1873 C1872 1.386 . S
C1873 C1877 1.393 . S
C1874 H1866 0.950 . S
C1874 C1872 1.391 . S
C1874 C1875 1.400 . S
C1875 C1874 1.400 . S
C1875 C1876 1.398 . S
C1875 C1881 1.491 . S
C1876 H1867 0.950 . S
C1876 C1875 1.398 . S
C1876 C1877 1.391 . S
C1877 H1865 0.950 . S
C1877 C1873 1.393 . S
C1877 C1876 1.391 . S
C1878 H1868 0.950 . S
C1878 C1879 1.386 . S
C1878 C1880 1.391 . S
C1879 C1878 1.386 . S
C1879 C1883 1.393 . S
C1880 H1869 0.950 . S
C1880 C1878 1.391 . S
C1880 C1881 1.400 . S
C1881 C1875 1.491 . S
C1881 C1880 1.400 . S
C1881 C1882 1.398 . S
C1882 H1870 0.950 . S
C1882 C1881 1.398 . S
C1882 C1883 1.391 . S
C1883 H1871 0.950 . S
C1883 C1879 1.393 . S
C1883 C1882 1.391 . S
H1884 C1892 0.950 . S
H1885 C1897 0.950 . S
H1886 C1894 0.950 . S
H1887 C1896 0.950 . S
H1888 C1898 0.950 . S
H1889 C1900 0.950 . S
H1890 C1902 0.950 . S
H1891 C1903 0.950 . S
C1892 H1884 0.950 . S
C1892 C1893 1.386 . S
C1892 C1894 1.391 . S
C1893 C1892 1.386 . S
C1893 C1897 1.393 . S
C1894 H1886 0.950 . S
C1894 C1892 1.391 . S
C1894 C1895 1.400 . S
C1895 C1894 1.400 . S
C1895 C1896 1.398 . S
C1895 C1901 1.491 . S
C1896 H1887 0.950 . S
C1896 C1895 1.398 . S
C1896 C1897 1.391 . S
C1897 H1885 0.950 . S
C1897 C1893 1.393 . S
C1897 C1896 1.391 . S
C1898 H1888 0.950 . S
C1898 C1899 1.386 . S
C1898 C1900 1.391 . S
C1899 C1898 1.386 . S
C1899 C1903 1.393 . S
C1900 H1889 0.950 . S
C1900 C1898 1.391 . S
C1900 C1901 1.400 . S
C1901 C1895 1.491 . S
C1901 C1900 1.400 . S
C1901 C1902 1.398 . S
C1902 H1890 0.950 . S
C1902 C1901 1.398 . S
C1902 C1903 1.391 . S
C1903 H1891 0.950 . S
C1903 C1899 1.393 . S
C1903 C1902 1.391 . S
H1904 C1912 0.950 . S
H1905 C1917 0.950 . S
H1906 C1914 0.950 . S
H1907 C1916 0.950 . S
H1908 C1918 0.950 . S
H1909 C1920 0.950 . S
H1910 C1922 0.950 . S
H1911 C1923 0.950 . S
C1912 H1904 0.950 . S
C1912 C1913 1.386 . S
C1912 C1914 1.391 . S
C1913 C1912 1.386 . S
C1913 C1917 1.393 . S
C1914 H1906 0.950 . S
C1914 C1912 1.391 . S
C1914 C1915 1.400 . S
C1915 C1914 1.400 . S
C1915 C1916 1.398 . S
C1915 C1921 1.491 . S
C1916 H1907 0.950 . S
C1916 C1915 1.398 . S
C1916 C1917 1.391 . S
C1917 H1905 0.950 . S
C1917 C1913 1.393 . S
C1917 C1916 1.391 . S
C1918 H1908 0.950 . S
C1918 C1919 1.386 . S
C1918 C1920 1.391 . S
C1919 C1918 1.386 . S
C1919 C1923 1.393 . S
C1920 H1909 0.950 . S
C1920 C1918 1.391 . S
C1920 C1921 1.400 . S
C1921 C1915 1.491 . S
C1921 C1920 1.400 . S
C1921 C1922 1.398 . S
C1922 H1910 0.950 . S
C1922 C1921 1.398 . S
C1922 C1923 1.391 . S
C1923 H1911 0.950 . S
C1923 C1919 1.393 . S
C1923 C1922 1.391 . S
H1924 C1932 0.950 . S
H1925 C1937 0.950 . S
H1926 C1934 0.950 . S
H1927 C1936 0.950 . S
H1928 C1938 0.950 . S
H1929 C1940 0.950 . S
H1930 C1942 0.950 . S
H1931 C1943 0.950 . S
C1932 H1924 0.950 . S
C1932 C1933 1.386 . S
C1932 C1934 1.391 . S
C1933 C1932 1.386 . S
C1933 C1937 1.393 . S
C1934 H1926 0.950 . S
C1934 C1932 1.391 . S
C1934 C1935 1.400 . S
C1935 C1934 1.400 . S
C1935 C1936 1.398 . S
C1935 C1941 1.491 . S
C1936 H1927 0.950 . S
C1936 C1935 1.398 . S
C1936 C1937 1.391 . S
C1937 H1925 0.950 . S
C1937 C1933 1.393 . S
C1937 C1936 1.391 . S
C1938 H1928 0.950 . S
C1938 C1939 1.386 . S
C1938 C1940 1.391 . S
C1939 C1938 1.386 . S
C1939 C1943 1.393 . S
C1940 H1929 0.950 . S
C1940 C1938 1.391 . S
C1940 C1941 1.400 . S
C1941 C1935 1.491 . S
C1941 C1940 1.400 . S
C1941 C1942 1.398 . S
C1942 H1930 0.950 . S
C1942 C1941 1.398 . S
C1942 C1943 1.391 . S
C1943 H1931 0.950 . S
C1943 C1939 1.393 . S
C1943 C1942 1.391 . S
H1944 C1952 0.950 . S
H1945 C1957 0.950 . S
H1946 C1954 0.950 . S
H1947 C1956 0.950 . S
H1948 C1958 0.950 1_556 S
H1949 C1960 0.950 . S
H1950 C1962 0.950 . S
H1951 C1963 0.950 . S
C1952 H1944 0.950 . S
C1952 C1953 1.386 . S
C1952 C1954 1.391 . S
C1953 C1952 1.386 . S
C1953 C1957 1.393 . S
C1954 H1946 0.950 . S
C1954 C1952 1.391 . S
C1954 C1955 1.400 . S
C1955 C1954 1.400 . S
C1955 C1956 1.398 . S
C1955 C1961 1.491 . S
C1956 H1947 0.950 . S
C1956 C1955 1.398 . S
C1956 C1957 1.391 . S
C1957 H1945 0.950 . S
C1957 C1953 1.393 . S
C1957 C1956 1.391 . S
C1958 H1948 0.950 1_554 S
C1958 C1959 1.386 . S
C1958 C1960 1.391 . S
C1959 C1958 1.386 . S
C1959 C1963 1.393 . S
C1960 H1949 0.950 . S
C1960 C1958 1.391 . S
C1960 C1961 1.400 . S
C1961 C1955 1.491 . S
C1961 C1960 1.400 . S
C1961 C1962 1.398 . S
C1962 H1950 0.950 . S
C1962 C1961 1.398 . S
C1962 C1963 1.391 . S
C1963 H1951 0.950 . S
C1963 C1959 1.393 . S
C1963 C1962 1.391 . S
H1964 C1972 0.950 . S
H1965 C1977 0.950 . S
H1966 C1974 0.950 . S
H1967 C1976 0.950 . S
H1968 C1978 0.950 . S
H1969 C1980 0.950 . S
H1970 C1982 0.950 . S
H1971 C1983 0.950 . S
C1972 H1964 0.950 . S
C1972 C1973 1.386 . S
C1972 C1974 1.391 . S
C1973 C1972 1.386 . S
C1973 C1977 1.393 . S
C1974 H1966 0.950 . S
C1974 C1972 1.391 . S
C1974 C1975 1.400 . S
C1975 C1974 1.400 . S
C1975 C1976 1.398 . S
C1975 C1981 1.491 . S
C1976 H1967 0.950 . S
C1976 C1975 1.398 . S
C1976 C1977 1.391 . S
C1977 H1965 0.950 . S
C1977 C1973 1.393 . S
C1977 C1976 1.391 . S
C1978 H1968 0.950 . S
C1978 C1979 1.386 . S
C1978 C1980 1.391 . S
C1979 C1978 1.386 . S
C1979 C1983 1.393 . S
C1980 H1969 0.950 . S
C1980 C1978 1.391 . S
C1980 C1981 1.400 . S
C1981 C1975 1.491 . S
C1981 C1980 1.400 . S
C1981 C1982 1.398 . S
C1982 H1970 0.950 . S
C1982 C1981 1.398 . S
C1982 C1983 1.391 . S
C1983 H1971 0.950 . S
C1983 C1979 1.393 . S
C1983 C1982 1.391 . S
H1984 C1992 0.950 . S
H1985 C1997 0.950 . S
H1986 C1994 0.950 . S
H1987 C1996 0.950 . S
H1988 C1998 0.950 . S
H1989 C2000 0.950 . S
H1990 C2002 0.950 . S
H1991 C2003 0.950 . S
C1992 H1984 0.950 . S
C1992 C1993 1.386 . S
C1992 C1994 1.391 . S
C1993 C1992 1.386 . S
C1993 C1997 1.393 . S
C1994 H1986 0.950 . S
C1994 C1992 1.391 . S
C1994 C1995 1.400 . S
C1995 C1994 1.400 . S
C1995 C1996 1.398 . S
C1995 C2001 1.491 . S
C1996 H1987 0.950 . S
C1996 C1995 1.398 . S
C1996 C1997 1.391 . S
C1997 H1985 0.950 . S
C1997 C1993 1.393 . S
C1997 C1996 1.391 . S
C1998 H1988 0.950 . S
C1998 C1999 1.386 . S
C1998 C2000 1.391 . S
C1999 C1998 1.386 . S
C1999 C2003 1.393 . S
C2000 H1989 0.950 . S
C2000 C1998 1.391 . S
C2000 C2001 1.400 . S
C2001 C1995 1.491 . S
C2001 C2000 1.400 . S
C2001 C2002 1.398 . S
C2002 H1990 0.950 . S
C2002 C2001 1.398 . S
C2002 C2003 1.391 . S
C2003 H1991 0.950 . S
C2003 C1999 1.393 . S
C2003 C2002 1.391 . S
H2004 C2012 0.950 . S
H2005 C2017 0.950 . S
H2006 C2014 0.950 . S
H2007 C2016 0.950 . S
H2008 C2018 0.950 . S
H2009 C2020 0.950 . S
H2010 C2022 0.950 . S
H2011 C2023 0.950 . S
C2012 H2004 0.950 . S
C2012 C2013 1.386 . S
C2012 C2014 1.391 . S
C2013 C2012 1.386 . S
C2013 C2017 1.393 . S
C2014 H2006 0.950 . S
C2014 C2012 1.391 . S
C2014 C2015 1.400 . S
C2015 C2014 1.400 . S
C2015 C2016 1.398 . S
C2015 C2021 1.491 . S
C2016 H2007 0.950 . S
C2016 C2015 1.398 . S
C2016 C2017 1.391 . S
C2017 H2005 0.950 . S
C2017 C2013 1.393 . S
C2017 C2016 1.391 . S
C2018 H2008 0.950 . S
C2018 C2019 1.386 . S
C2018 C2020 1.391 . S
C2019 C2018 1.386 . S
C2019 C2023 1.393 . S
C2020 H2009 0.950 . S
C2020 C2018 1.391 . S
C2020 C2021 1.400 . S
C2021 C2015 1.491 . S
C2021 C2020 1.400 . S
C2021 C2022 1.398 . S
C2022 H2010 0.950 . S
C2022 C2021 1.398 . S
C2022 C2023 1.391 . S
C2023 H2011 0.950 . S
C2023 C2019 1.393 . S
C2023 C2022 1.391 . S
H2024 C2032 0.950 . S
H2025 C2037 0.950 . S
H2026 C2034 0.950 . S
H2027 C2036 0.950 . S
H2028 C2038 0.950 . S
H2029 C2040 0.950 . S
H2030 C2042 0.950 . S
H2031 C2043 0.950 . S
C2032 H2024 0.950 . S
C2032 C2033 1.386 . S
C2032 C2034 1.391 . S
C2033 C2032 1.386 . S
C2033 C2037 1.393 . S
C2034 H2026 0.950 . S
C2034 C2032 1.391 . S
C2034 C2035 1.400 . S
C2035 C2034 1.400 . S
C2035 C2036 1.398 . S
C2035 C2041 1.491 . S
C2036 H2027 0.950 . S
C2036 C2035 1.398 . S
C2036 C2037 1.391 . S
C2037 H2025 0.950 . S
C2037 C2033 1.393 . S
C2037 C2036 1.391 . S
C2038 H2028 0.950 . S
C2038 C2039 1.386 . S
C2038 C2040 1.391 . S
C2039 C2038 1.386 . S
C2039 C2043 1.393 . S
C2040 H2029 0.950 . S
C2040 C2038 1.391 . S
C2040 C2041 1.400 . S
C2041 C2035 1.491 . S
C2041 C2040 1.400 . S
C2041 C2042 1.398 . S
C2042 H2030 0.950 . S
C2042 C2041 1.398 . S
C2042 C2043 1.391 . S
C2043 H2031 0.950 . S
C2043 C2039 1.393 . S
C2043 C2042 1.391 . S
H2044 C2052 0.950 . S
H2045 C2057 0.950 . S
H2046 C2054 0.950 . S
H2047 C2056 0.950 . S
H2048 C2058 0.950 . S
H2049 C2060 0.950 . S
H2050 C2062 0.950 . S
H2051 C2063 0.950 . S
C2052 H2044 0.950 . S
C2052 C2053 1.386 . S
C2052 C2054 1.391 . S
C2053 C2052 1.386 . S
C2053 C2057 1.393 . S
C2054 H2046 0.950 . S
C2054 C2052 1.391 . S
C2054 C2055 1.400 . S
C2055 C2054 1.400 . S
C2055 C2056 1.398 . S
C2055 C2061 1.491 . S
C2056 H2047 0.950 . S
C2056 C2055 1.398 . S
C2056 C2057 1.391 . S
C2057 H2045 0.950 . S
C2057 C2053 1.393 . S
C2057 C2056 1.391 . S
C2058 H2048 0.950 . S
C2058 C2059 1.386 . S
C2058 C2060 1.391 . S
C2059 C2058 1.386 . S
C2059 C2063 1.393 . S
C2060 H2049 0.950 . S
C2060 C2058 1.391 . S
C2060 C2061 1.400 . S
C2061 C2055 1.491 . S
C2061 C2060 1.400 . S
C2061 C2062 1.398 . S
C2062 H2050 0.950 . S
C2062 C2061 1.398 . S
C2062 C2063 1.391 . S
C2063 H2051 0.950 . S
C2063 C2059 1.393 . S
C2063 C2062 1.391 . S
H2064 C2072 0.950 . S
H2065 C2077 0.950 . S
H2066 C2074 0.950 . S
H2067 C2076 0.950 . S
H2068 C2078 0.950 . S
H2069 C2080 0.950 . S
H2070 C2082 0.950 . S
H2071 C2083 0.950 . S
C2072 H2064 0.950 . S
C2072 C2073 1.386 . S
C2072 C2074 1.391 . S
C2073 C2072 1.386 . S
C2073 C2077 1.393 . S
C2074 H2066 0.950 . S
C2074 C2072 1.391 . S
C2074 C2075 1.400 . S
C2075 C2074 1.400 . S
C2075 C2076 1.398 . S
C2075 C2081 1.491 . S
C2076 H2067 0.950 . S
C2076 C2075 1.398 . S
C2076 C2077 1.391 . S
C2077 H2065 0.950 . S
C2077 C2073 1.393 . S
C2077 C2076 1.391 . S
C2078 H2068 0.950 . S
C2078 C2079 1.386 . S
C2078 C2080 1.391 . S
C2079 C2078 1.386 . S
C2079 C2083 1.393 . S
C2080 H2069 0.950 . S
C2080 C2078 1.391 . S
C2080 C2081 1.400 . S
C2081 C2075 1.491 . S
C2081 C2080 1.400 . S
C2081 C2082 1.398 . S
C2082 H2070 0.950 . S
C2082 C2081 1.398 . S
C2082 C2083 1.391 . S
C2083 H2071 0.950 . S
C2083 C2079 1.393 . S
C2083 C2082 1.391 . S
H2084 C2092 0.950 . S
H2085 C2097 0.950 . S
H2086 C2094 0.950 . S
H2087 C2096 0.950 . S
H2088 C2098 0.950 1_655 S
H2089 C2100 0.910 1_655 S
H2090 C2102 0.950 . S
H2091 C2103 0.950 . S
C2092 H2084 0.950 . S
C2092 C2093 1.386 1_455 S
C2092 C2094 1.391 . S
C2093 C2092 1.386 1_655 S
C2093 C2097 1.393 . S
C2094 H2086 0.950 . S
C2094 C2092 1.391 . S
C2094 C2095 1.400 . S
C2095 C2094 1.400 . S
C2095 C2096 1.398 1_455 S
C2095 C2101 1.491 . S
C2096 H2087 0.950 . S
C2096 C2095 1.398 1_655 S
C2096 C2097 1.391 . S
C2097 H2085 0.950 . S
C2097 C2093 1.393 . S
C2097 C2096 1.391 . S
C2098 H2088 0.950 1_455 S
C2098 C2099 1.386 . S
C2098 C2100 1.403 . S
C2099 C2098 1.386 . S
C2099 C2103 1.393 . S
C2100 H2089 0.910 1_455 S
C2100 C2098 1.403 . S
C2100 C2101 1.428 . S
C2101 C2095 1.491 . S
C2101 C2100 1.428 . S
C2101 C2102 1.398 . S
C2102 H2090 0.950 . S
C2102 C2101 1.398 . S
C2102 C2103 1.391 . S
C2103 H2091 0.950 . S
C2103 C2099 1.393 . S
C2103 C2102 1.391 . S
H2104 C2112 0.950 . S
H2105 C2117 0.950 . S
H2106 C2114 0.950 . S
H2107 C2116 0.950 . S
H2108 C2118 0.950 . S
H2109 C2120 0.950 . S
H2110 C2122 0.950 . S
H2111 C2123 0.950 . S
C2112 H2104 0.950 . S
C2112 C2113 1.386 . S
C2112 C2114 1.391 . S
C2113 C2112 1.386 . S
C2113 C2117 1.393 . S
C2114 H2106 0.950 . S
C2114 C2112 1.391 . S
C2114 C2115 1.400 . S
C2115 C2114 1.400 . S
C2115 C2116 1.398 . S
C2115 C2121 1.491 . S
C2116 H2107 0.950 . S
C2116 C2115 1.398 . S
C2116 C2117 1.391 . S
C2117 H2105 0.950 . S
C2117 C2113 1.393 . S
C2117 C2116 1.391 . S
C2118 H2108 0.950 . S
C2118 C2119 1.386 . S
C2118 C2120 1.391 . S
C2119 C2118 1.386 . S
C2119 C2123 1.393 . S
C2120 H2109 0.950 . S
C2120 C2118 1.391 . S
C2120 C2121 1.400 . S
C2121 C2115 1.491 . S
C2121 C2120 1.400 . S
C2121 C2122 1.398 . S
C2122 H2110 0.950 . S
C2122 C2121 1.398 . S
C2122 C2123 1.391 . S
C2123 H2111 0.950 . S
C2123 C2119 1.393 . S
C2123 C2122 1.391 . S
H2124 C2132 0.950 . S
H2125 C2137 0.950 1_554 S
H2126 C2134 0.950 . S
H2127 C2136 0.950 . S
H2128 C2138 0.950 . S
H2129 C2140 0.950 . S
H2130 C2142 0.950 . S
H2131 C2143 0.950 . S
C2132 H2124 0.950 . S
C2132 C2133 1.386 1_556 S
C2132 C2134 1.391 . S
C2133 C2132 1.386 1_554 S
C2133 C2137 1.393 1_554 S
C2134 H2126 0.950 . S
C2134 C2132 1.391 . S
C2134 C2135 1.400 . S
C2135 C2134 1.400 . S
C2135 C2136 1.398 . S
C2135 C2141 1.491 . S
C2136 H2127 0.950 . S
C2136 C2135 1.398 . S
C2136 C2137 1.391 . S
C2137 H2125 0.950 1_556 S
C2137 C2133 1.393 1_556 S
C2137 C2136 1.391 . S
C2138 H2128 0.950 . S
C2138 C2139 1.386 . S
C2138 C2140 1.391 . S
C2139 C2138 1.386 . S
C2139 C2143 1.393 . S
C2140 H2129 0.950 . S
C2140 C2138 1.391 . S
C2140 C2141 1.400 . S
C2141 C2135 1.491 . S
C2141 C2140 1.400 . S
C2141 C2142 1.398 . S
C2142 H2130 0.950 . S
C2142 C2141 1.398 . S
C2142 C2143 1.391 . S
C2143 H2131 0.950 . S
C2143 C2139 1.393 . S
C2143 C2142 1.391 . S
H2144 C2152 0.950 . S
H2145 C2157 0.950 . S
H2146 C2154 0.950 . S
H2147 C2156 0.950 . S
H2148 C2158 0.950 . S
H2149 C2160 0.950 . S
H2150 C2162 0.950 . S
H2151 C2163 0.950 . S
C2152 H2144 0.950 . S
C2152 C2153 1.386 . S
C2152 C2154 1.391 . S
C2153 C2152 1.386 . S
C2153 C2157 1.393 . S
C2154 H2146 0.950 . S
C2154 C2152 1.391 . S
C2154 C2155 1.400 . S
C2155 C2154 1.400 . S
C2155 C2156 1.398 . S
C2155 C2161 1.491 . S
C2156 H2147 0.950 . S
C2156 C2155 1.398 . S
C2156 C2157 1.391 . S
C2157 H2145 0.950 . S
C2157 C2153 1.393 . S
C2157 C2156 1.391 . S
C2158 H2148 0.950 . S
C2158 C2159 1.386 . S
C2158 C2160 1.391 . S
C2159 C2158 1.386 . S
C2159 C2163 1.393 . S
C2160 H2149 0.950 . S
C2160 C2158 1.391 . S
C2160 C2161 1.400 . S
C2161 C2155 1.491 . S
C2161 C2160 1.400 . S
C2161 C2162 1.398 . S
C2162 H2150 0.950 . S
C2162 C2161 1.398 . S
C2162 C2163 1.391 . S
C2163 H2151 0.950 . S
C2163 C2159 1.393 . S
C2163 C2162 1.391 . S
H2164 C2172 0.950 . S
H2165 C2177 0.950 . S
H2166 C2174 0.950 . S
H2167 C2176 0.950 . S
H2168 C2178 0.950 . S
H2169 C2180 0.950 . S
H2170 C2182 0.950 . S
H2171 C2183 0.950 . S
C2172 H2164 0.950 . S
C2172 C2173 1.386 . S
C2172 C2174 1.391 . S
C2173 C2172 1.386 . S
C2173 C2177 1.393 . S
C2174 H2166 0.950 . S
C2174 C2172 1.391 . S
C2174 C2175 1.400 . S
C2175 C2174 1.400 . S
C2175 C2176 1.398 . S
C2175 C2181 1.491 . S
C2176 H2167 0.950 . S
C2176 C2175 1.398 . S
C2176 C2177 1.391 . S
C2177 H2165 0.950 . S
C2177 C2173 1.393 . S
C2177 C2176 1.391 . S
C2178 H2168 0.950 . S
C2178 C2179 1.386 . S
C2178 C2180 1.391 . S
C2179 C2178 1.386 . S
C2179 C2183 1.393 . S
C2180 H2169 0.950 . S
C2180 C2178 1.391 . S
C2180 C2181 1.400 . S
C2181 C2175 1.491 . S
C2181 C2180 1.400 . S
C2181 C2182 1.398 . S
C2182 H2170 0.950 . S
C2182 C2181 1.398 . S
C2182 C2183 1.391 . S
C2183 H2171 0.950 . S
C2183 C2179 1.393 . S
C2183 C2182 1.391 . S
H2184 C2192 0.950 . S
H2185 C2197 0.950 . S
H2186 C2194 0.950 . S
H2187 C2196 0.950 . S
H2188 C2198 0.950 . S
H2189 C2200 0.950 . S
H2190 C2202 0.950 . S
H2191 C2203 0.950 . S
C2192 H2184 0.950 . S
C2192 C2193 1.386 . S
C2192 C2194 1.391 . S
C2193 C2192 1.386 . S
C2193 C2197 1.393 . S
C2194 H2186 0.950 . S
C2194 C2192 1.391 . S
C2194 C2195 1.400 . S
C2195 C2194 1.400 . S
C2195 C2196 1.398 . S
C2195 C2201 1.491 . S
C2196 H2187 0.950 . S
C2196 C2195 1.398 . S
C2196 C2197 1.391 . S
C2197 H2185 0.950 . S
C2197 C2193 1.393 . S
C2197 C2196 1.391 . S
C2198 H2188 0.950 . S
C2198 C2199 1.386 . S
C2198 C2200 1.391 . S
C2199 C2198 1.386 . S
C2199 C2203 1.393 . S
C2200 H2189 0.950 . S
C2200 C2198 1.391 . S
C2200 C2201 1.400 . S
C2201 C2195 1.491 . S
C2201 C2200 1.400 . S
C2201 C2202 1.398 . S
C2202 H2190 0.950 . S
C2202 C2201 1.398 . S
C2202 C2203 1.391 . S
C2203 H2191 0.950 . S
C2203 C2199 1.393 . S
C2203 C2202 1.391 . S
H2204 C2212 0.950 . S
H2205 C2217 0.950 1_656 S
H2206 C2214 0.950 . S
H2207 C2216 0.906 1_655 S
H2208 C2218 0.950 . S
H2209 C2220 0.950 . S
H2210 C2222 0.950 . S
H2211 C2223 0.950 . S
C2212 H2204 0.950 . S
C2212 C2213 1.386 1_554 S
C2212 C2214 1.391 . S
C2213 C2212 1.386 1_556 S
C2213 C2217 1.393 1_556 S
C2214 H2206 0.950 . S
C2214 C2212 1.391 . S
C2214 C2215 1.400 . S
C2215 C2214 1.400 . S
C2215 C2216 1.429 . S
C2215 C2221 1.491 . S
C2216 H2207 0.906 1_455 S
C2216 C2215 1.429 . S
C2216 C2217 1.404 . S
C2217 H2205 0.950 1_454 S
C2217 C2213 1.393 1_554 S
C2217 C2216 1.404 . S
C2218 H2208 0.950 . S
C2218 C2219 1.386 . S
C2218 C2220 1.391 . S
C2219 C2218 1.386 . S
C2219 C2223 1.393 1_655 S
C2220 H2209 0.950 . S
C2220 C2218 1.391 . S
C2220 C2221 1.400 1_655 S
C2221 C2215 1.491 . S
C2221 C2220 1.400 1_455 S
C2221 C2222 1.398 . S
C2222 H2210 0.950 . S
C2222 C2221 1.398 . S
C2222 C2223 1.391 . S
C2223 H2211 0.950 . S
C2223 C2219 1.393 1_455 S
C2223 C2222 1.391 . S
H2224 C2232 0.950 . S
H2225 C2237 0.950 . S
H2226 C2234 0.950 . S
H2227 C2236 0.950 . S
H2228 C2238 0.950 . S
H2229 C2240 0.950 . S
H2230 C2242 0.950 . S
H2231 C2243 0.950 . S
C2232 H2224 0.950 . S
C2232 C2233 1.386 . S
C2232 C2234 1.391 . S
C2233 C2232 1.386 . S
C2233 C2237 1.393 . S
C2234 H2226 0.950 . S
C2234 C2232 1.391 . S
C2234 C2235 1.400 . S
C2235 C2234 1.400 . S
C2235 C2236 1.398 . S
C2235 C2241 1.491 . S
C2236 H2227 0.950 . S
C2236 C2235 1.398 . S
C2236 C2237 1.391 . S
C2237 H2225 0.950 . S
C2237 C2233 1.393 . S
C2237 C2236 1.391 . S
C2238 H2228 0.950 . S
C2238 C2239 1.386 . S
C2238 C2240 1.391 . S
C2239 C2238 1.386 . S
C2239 C2243 1.393 . S
C2240 H2229 0.950 . S
C2240 C2238 1.391 . S
C2240 C2241 1.400 . S
C2241 C2235 1.491 . S
C2241 C2240 1.400 . S
C2241 C2242 1.398 . S
C2242 H2230 0.950 . S
C2242 C2241 1.398 . S
C2242 C2243 1.391 . S
C2243 H2231 0.950 . S
C2243 C2239 1.393 . S
C2243 C2242 1.391 . S
H2244 C2252 0.950 . S
H2245 C2257 0.950 . S
H2246 C2254 0.950 . S
H2247 C2256 0.950 . S
H2248 C2258 0.950 . S
H2249 C2260 0.950 . S
H2250 C2262 0.950 . S
H2251 C2263 0.950 1_545 S
C2252 H2244 0.950 . S
C2252 C2253 1.386 . S
C2252 C2254 1.391 . S
C2253 C2252 1.386 . S
C2253 C2257 1.393 . S
C2254 H2246 0.950 . S
C2254 C2252 1.391 . S
C2254 C2255 1.400 . S
C2255 C2254 1.400 . S
C2255 C2256 1.398 . S
C2255 C2261 1.491 . S
C2256 H2247 0.950 . S
C2256 C2255 1.398 . S
C2256 C2257 1.391 . S
C2257 H2245 0.950 . S
C2257 C2253 1.393 . S
C2257 C2256 1.391 . S
C2258 H2248 0.950 . S
C2258 C2259 1.386 1_565 S
C2258 C2260 1.391 . S
C2259 C2258 1.386 1_545 S
C2259 C2263 1.393 1_545 S
C2260 H2249 0.950 . S
C2260 C2258 1.391 . S
C2260 C2261 1.400 . S
C2261 C2255 1.491 . S
C2261 C2260 1.400 . S
C2261 C2262 1.398 . S
C2262 H2250 0.950 . S
C2262 C2261 1.398 . S
C2262 C2263 1.391 . S
C2263 H2251 0.950 1_565 S
C2263 C2259 1.393 1_565 S
C2263 C2262 1.391 . S
H2264 C2272 0.950 . S
H2265 C2277 0.950 . S
H2266 C2274 0.950 . S
H2267 C2276 0.950 . S
H2268 C2278 0.950 . S
H2269 C2280 0.950 . S
H2270 C2282 0.950 . S
H2271 C2283 0.950 . S
C2272 H2264 0.950 . S
C2272 C2273 1.386 . S
C2272 C2274 1.391 . S
C2273 C2272 1.386 . S
C2273 C2277 1.393 . S
C2274 H2266 0.950 . S
C2274 C2272 1.391 . S
C2274 C2275 1.400 . S
C2275 C2274 1.400 . S
C2275 C2276 1.398 . S
C2275 C2281 1.491 . S
C2276 H2267 0.950 . S
C2276 C2275 1.398 . S
C2276 C2277 1.391 . S
C2277 H2265 0.950 . S
C2277 C2273 1.393 . S
C2277 C2276 1.391 . S
C2278 H2268 0.950 . S
C2278 C2279 1.386 . S
C2278 C2280 1.391 . S
C2279 C2278 1.386 . S
C2279 C2283 1.393 . S
C2280 H2269 0.950 . S
C2280 C2278 1.391 . S
C2280 C2281 1.400 . S
C2281 C2275 1.491 . S
C2281 C2280 1.400 . S
C2281 C2282 1.398 . S
C2282 H2270 0.950 . S
C2282 C2281 1.398 . S
C2282 C2283 1.391 . S
C2283 H2271 0.950 . S
C2283 C2279 1.393 . S
C2283 C2282 1.391 . S
H2284 C2292 0.950 . S
H2285 C2297 0.950 . S
H2286 C2294 0.950 . S
H2287 C2296 0.950 . S
H2288 C2298 0.950 1_565 S
H2289 C2300 0.950 . S
H2290 C2302 0.950 . S
H2291 C2303 0.950 . S
C2292 H2284 0.950 . S
C2292 C2293 1.386 . S
C2292 C2294 1.391 1_554 S
C2293 C2292 1.386 . S
C2293 C2297 1.393 1_554 S
C2294 H2286 0.950 . S
C2294 C2292 1.391 1_556 S
C2294 C2295 1.400 . S
C2295 C2294 1.400 . S
C2295 C2296 1.398 . S
C2295 C2301 1.491 . S
C2296 H2287 0.950 . S
C2296 C2295 1.398 . S
C2296 C2297 1.391 . S
C2297 H2285 0.950 . S
C2297 C2293 1.393 1_556 S
C2297 C2296 1.391 . S
C2298 H2288 0.950 1_545 S
C2298 C2299 1.386 1_545 S
C2298 C2300 1.391 . S
C2299 C2298 1.386 1_565 S
C2299 C2303 1.393 1_565 S
C2300 H2289 0.950 . S
C2300 C2298 1.391 . S
C2300 C2301 1.400 . S
C2301 C2295 1.491 . S
C2301 C2300 1.400 . S
C2301 C2302 1.398 . S
C2302 H2290 0.950 . S
C2302 C2301 1.398 . S
C2302 C2303 1.391 . S
C2303 H2291 0.950 . S
C2303 C2299 1.393 1_545 S
C2303 C2302 1.391 . S
H2304 C2312 0.950 . S
H2305 C2317 0.950 . S
H2306 C2314 0.950 . S
H2307 C2316 0.950 . S
H2308 C2318 0.950 . S
H2309 C2320 0.950 . S
H2310 C2322 0.950 . S
H2311 C2323 0.950 . S
C2312 H2304 0.950 . S
C2312 C2313 1.386 . S
C2312 C2314 1.391 . S
C2313 C2312 1.386 . S
C2313 C2317 1.393 . S
C2314 H2306 0.950 . S
C2314 C2312 1.391 . S
C2314 C2315 1.400 . S
C2315 C2314 1.400 . S
C2315 C2316 1.398 . S
C2315 C2321 1.491 . S
C2316 H2307 0.950 . S
C2316 C2315 1.398 . S
C2316 C2317 1.391 . S
C2317 H2305 0.950 . S
C2317 C2313 1.393 . S
C2317 C2316 1.391 . S
C2318 H2308 0.950 . S
C2318 C2319 1.386 . S
C2318 C2320 1.391 . S
C2319 C2318 1.386 . S
C2319 C2323 1.393 . S
C2320 H2309 0.950 . S
C2320 C2318 1.391 . S
C2320 C2321 1.400 . S
C2321 C2315 1.491 . S
C2321 C2320 1.400 . S
C2321 C2322 1.398 . S
C2322 H2310 0.950 . S
C2322 C2321 1.398 . S
C2322 C2323 1.391 . S
C2323 H2311 0.950 . S
C2323 C2319 1.393 . S
C2323 C2322 1.391 . S
H2324 C2332 0.950 . S
H2325 C2337 0.950 1_545 S
H2326 C2334 0.950 . S
H2327 C2336 0.950 . S
H2328 C2338 0.950 . S
H2329 C2340 0.950 . S
H2330 C2342 0.950 . S
H2331 C2343 0.950 . S
C2332 H2324 0.950 . S
C2332 C2333 1.386 1_565 S
C2332 C2334 1.391 . S
C2333 C2332 1.386 1_545 S
C2333 C2337 1.393 1_545 S
C2334 H2326 0.950 . S
C2334 C2332 1.391 . S
C2334 C2335 1.400 . S
C2335 C2334 1.400 . S
C2335 C2336 1.398 . S
C2335 C2341 1.491 . S
C2336 H2327 0.950 . S
C2336 C2335 1.398 . S
C2336 C2337 1.391 . S
C2337 H2325 0.950 1_565 S
C2337 C2333 1.393 1_565 S
C2337 C2336 1.391 . S
C2338 H2328 0.950 . S
C2338 C2339 1.386 . S
C2338 C2340 1.391 . S
C2339 C2338 1.386 . S
C2339 C2343 1.393 . S
C2340 H2329 0.950 . S
C2340 C2338 1.391 . S
C2340 C2341 1.400 . S
C2341 C2335 1.491 . S
C2341 C2340 1.400 . S
C2341 C2342 1.398 . S
C2342 H2330 0.950 . S
C2342 C2341 1.398 . S
C2342 C2343 1.391 . S
C2343 H2331 0.950 . S
C2343 C2339 1.393 . S
C2343 C2342 1.391 . S
H2344 C2352 0.950 . S
H2345 C2357 0.950 . S
H2346 C2354 0.950 . S
H2347 C2356 0.950 . S
H2348 C2358 0.950 . S
H2349 C2360 0.950 . S
H2350 C2362 0.950 . S
H2351 C2363 0.950 . S
C2352 H2344 0.950 . S
C2352 C2353 1.386 . S
C2352 C2354 1.391 . S
C2353 C2352 1.386 . S
C2353 C2357 1.393 . S
C2354 H2346 0.950 . S
C2354 C2352 1.391 . S
C2354 C2355 1.400 . S
C2355 C2354 1.400 . S
C2355 C2356 1.398 . S
C2355 C2361 1.491 . S
C2356 H2347 0.950 . S
C2356 C2355 1.398 . S
C2356 C2357 1.391 . S
C2357 H2345 0.950 . S
C2357 C2353 1.393 . S
C2357 C2356 1.391 . S
C2358 H2348 0.950 . S
C2358 C2359 1.386 . S
C2358 C2360 1.391 . S
C2359 C2358 1.386 . S
C2359 C2363 1.393 . S
C2360 H2349 0.950 . S
C2360 C2358 1.391 . S
C2360 C2361 1.400 . S
C2361 C2355 1.491 . S
C2361 C2360 1.400 . S
C2361 C2362 1.398 . S
C2362 H2350 0.950 . S
C2362 C2361 1.398 . S
C2362 C2363 1.391 . S
C2363 H2351 0.950 . S
C2363 C2359 1.393 . S
C2363 C2362 1.391 . S
H2364 C2372 0.950 . S
H2365 C2377 0.950 1_566 S
H2366 C2374 0.950 . S
H2367 C2376 0.950 1_556 S
H2368 C2378 0.950 . S
H2369 C2380 0.950 . S
H2370 C2382 0.950 . S
H2371 C2383 0.950 . S
C2372 H2364 0.950 . S
C2372 C2373 1.386 1_545 S
C2372 C2374 1.391 . S
C2373 C2372 1.386 1_565 S
C2373 C2377 1.393 1_565 S
C2374 H2366 0.950 . S
C2374 C2372 1.391 . S
C2374 C2375 1.400 . S
C2375 C2374 1.400 . S
C2375 C2376 1.398 . S
C2375 C2381 1.491 . S
C2376 H2367 0.950 1_554 S
C2376 C2375 1.398 . S
C2376 C2377 1.391 . S
C2377 H2365 0.950 1_544 S
C2377 C2373 1.393 1_545 S
C2377 C2376 1.391 . S
C2378 H2368 0.950 . S
C2378 C2379 1.386 . S
C2378 C2380 1.391 . S
C2379 C2378 1.386 . S
C2379 C2383 1.393 1_556 S
C2380 H2369 0.950 . S
C2380 C2378 1.391 . S
C2380 C2381 1.400 1_556 S
C2381 C2375 1.491 . S
C2381 C2380 1.400 1_554 S
C2381 C2382 1.398 . S
C2382 H2370 0.950 . S
C2382 C2381 1.398 . S
C2382 C2383 1.391 . S
C2383 H2371 0.950 . S
C2383 C2379 1.393 1_554 S
C2383 C2382 1.391 . S
H2384 C2392 0.950 . S
H2385 C2397 0.950 . S
H2386 C2394 0.950 . S
H2387 C2396 0.950 . S
H2388 C2398 0.950 . S
H2389 C2400 0.950 . S
H2390 C2402 0.950 . S
H2391 C2403 0.950 . S
C2392 H2384 0.950 . S
C2392 C2393 1.386 . S
C2392 C2394 1.391 . S
C2393 C2392 1.386 . S
C2393 C2397 1.393 . S
C2394 H2386 0.950 . S
C2394 C2392 1.391 . S
C2394 C2395 1.400 . S
C2395 C2394 1.400 . S
C2395 C2396 1.398 . S
C2395 C2401 1.491 . S
C2396 H2387 0.950 . S
C2396 C2395 1.398 . S
C2396 C2397 1.391 . S
C2397 H2385 0.950 . S
C2397 C2393 1.393 . S
C2397 C2396 1.391 . S
C2398 H2388 0.950 . S
C2398 C2399 1.386 . S
C2398 C2400 1.391 . S
C2399 C2398 1.386 . S
C2399 C2403 1.393 . S
C2400 H2389 0.950 . S
C2400 C2398 1.391 . S
C2400 C2401 1.400 . S
C2401 C2395 1.491 . S
C2401 C2400 1.400 . S
C2401 C2402 1.398 . S
C2402 H2390 0.950 . S
C2402 C2401 1.398 . S
C2402 C2403 1.391 . S
C2403 H2391 0.950 . S
C2403 C2399 1.393 . S
C2403 C2402 1.391 . S
H2404 C2412 0.950 . S
H2405 C2417 0.950 . S
H2406 C2414 0.950 . S
H2407 C2416 0.950 . S
H2408 C2418 0.950 . S
H2409 C2420 0.950 . S
H2410 C2422 0.950 . S
H2411 C2423 0.950 . S
C2412 H2404 0.950 . S
C2412 C2413 1.386 . S
C2412 C2414 1.391 . S
C2413 C2412 1.386 . S
C2413 C2417 1.393 . S
C2414 H2406 0.950 . S
C2414 C2412 1.391 . S
C2414 C2415 1.400 . S
C2415 C2414 1.400 . S
C2415 C2416 1.398 . S
C2415 C2421 1.491 . S
C2416 H2407 0.950 . S
C2416 C2415 1.398 . S
C2416 C2417 1.391 . S
C2417 H2405 0.950 . S
C2417 C2413 1.393 . S
C2417 C2416 1.391 . S
C2418 H2408 0.950 . S
C2418 C2419 1.386 . S
C2418 C2420 1.391 . S
C2419 C2418 1.386 . S
C2419 C2423 1.393 . S
C2420 H2409 0.950 . S
C2420 C2418 1.391 . S
C2420 C2421 1.400 . S
C2421 C2415 1.491 . S
C2421 C2420 1.400 . S
C2421 C2422 1.398 . S
C2422 H2410 0.950 . S
C2422 C2421 1.398 . S
C2422 C2423 1.391 . S
C2423 H2411 0.950 . S
C2423 C2419 1.393 . S
C2423 C2422 1.391 . S
H2424 C2432 0.950 1_455 S
H2425 C2437 0.950 . S
H2426 C2434 0.950 . S
H2427 C2436 0.950 . S
H2428 C2438 0.950 . S
H2429 C2440 0.950 . S
H2430 C2442 0.950 . S
H2431 C2443 0.950 . S
C2432 H2424 0.950 1_655 S
C2432 C2433 1.386 1_655 S
C2432 C2434 1.391 . S
C2433 C2432 1.386 1_455 S
C2433 C2437 1.393 1_455 S
C2434 H2426 0.950 . S
C2434 C2432 1.391 . S
C2434 C2435 1.400 . S
C2435 C2434 1.400 . S
C2435 C2436 1.398 . S
C2435 C2441 1.491 . S
C2436 H2427 0.950 . S
C2436 C2435 1.398 . S
C2436 C2437 1.391 . S
C2437 H2425 0.950 . S
C2437 C2433 1.393 1_655 S
C2437 C2436 1.391 . S
C2438 H2428 0.950 . S
C2438 C2439 1.386 . S
C2438 C2440 1.391 . S
C2439 C2438 1.386 . S
C2439 C2443 1.393 . S
C2440 H2429 0.950 . S
C2440 C2438 1.391 . S
C2440 C2441 1.400 . S
C2441 C2435 1.491 . S
C2441 C2440 1.400 . S
C2441 C2442 1.398 . S
C2442 H2430 0.950 . S
C2442 C2441 1.398 . S
C2442 C2443 1.391 . S
C2443 H2431 0.950 . S
C2443 C2439 1.393 . S
C2443 C2442 1.391 . S
H2444 C2452 0.950 . S
H2445 C2457 0.950 . S
H2446 C2454 0.950 . S
H2447 C2456 0.950 . S
H2448 C2458 0.950 . S
H2449 C2460 0.950 . S
H2450 C2462 0.950 . S
H2451 C2463 0.950 . S
C2452 H2444 0.950 . S
C2452 C2453 1.386 . S
C2452 C2454 1.391 . S
C2453 C2452 1.386 . S
C2453 C2457 1.393 . S
C2454 H2446 0.950 . S
C2454 C2452 1.391 . S
C2454 C2455 1.400 . S
C2455 C2454 1.400 . S
C2455 C2456 1.398 . S
C2455 C2461 1.491 . S
C2456 H2447 0.950 . S
C2456 C2455 1.398 . S
C2456 C2457 1.391 . S
C2457 H2445 0.950 . S
C2457 C2453 1.393 . S
C2457 C2456 1.391 . S
C2458 H2448 0.950 . S
C2458 C2459 1.386 . S
C2458 C2460 1.391 . S
C2459 C2458 1.386 . S
C2459 C2463 1.393 . S
C2460 H2449 0.950 . S
C2460 C2458 1.391 . S
C2460 C2461 1.400 . S
C2461 C2455 1.491 . S
C2461 C2460 1.400 . S
C2461 C2462 1.398 . S
C2462 H2450 0.950 . S
C2462 C2461 1.398 . S
C2462 C2463 1.391 . S
C2463 H2451 0.950 . S
C2463 C2459 1.393 . S
C2463 C2462 1.391 . S
H2464 C2472 0.950 1_665 S
H2465 C2477 0.950 . S
H2466 C2474 0.889 1_565 S
H2467 C2476 0.950 . S
H2468 C2478 0.950 . S
H2469 C2480 0.950 . S
H2470 C2482 0.950 . S
H2471 C2483 0.950 . S
C2472 H2464 0.950 1_445 S
C2472 C2473 1.386 1_455 S
C2472 C2474 1.411 . S
C2473 C2472 1.386 1_655 S
C2473 C2477 1.393 1_655 S
C2474 H2466 0.889 1_545 S
C2474 C2472 1.411 . S
C2474 C2475 1.443 . S
C2475 C2474 1.443 . S
C2475 C2476 1.398 . S
C2475 C2481 1.491 . S
C2476 H2467 0.950 . S
C2476 C2475 1.398 . S
C2476 C2477 1.391 . S
C2477 H2465 0.950 . S
C2477 C2473 1.393 1_455 S
C2477 C2476 1.391 . S
C2478 H2468 0.950 . S
C2478 C2479 1.386 1_545 S
C2478 C2480 1.391 . S
C2479 C2478 1.386 1_565 S
C2479 C2483 1.393 . S
C2480 H2469 0.950 . S
C2480 C2478 1.391 . S
C2480 C2481 1.400 . S
C2481 C2475 1.491 . S
C2481 C2480 1.400 . S
C2481 C2482 1.398 1_545 S
C2482 H2470 0.950 . S
C2482 C2481 1.398 1_565 S
C2482 C2483 1.391 . S
C2483 H2471 0.950 . S
C2483 C2479 1.393 . S
C2483 C2482 1.391 . S
H2484 C2492 0.950 . S
H2485 C2497 0.950 . S
H2486 C2494 0.950 . S
H2487 C2496 0.950 . S
H2488 C2498 0.950 . S
H2489 C2500 0.950 . S
H2490 C2502 0.950 . S
H2491 C2503 0.950 . S
C2492 H2484 0.950 . S
C2492 C2493 1.386 . S
C2492 C2494 1.391 . S
C2493 C2492 1.386 . S
C2493 C2497 1.393 . S
C2494 H2486 0.950 . S
C2494 C2492 1.391 . S
C2494 C2495 1.400 . S
C2495 C2494 1.400 . S
C2495 C2496 1.398 . S
C2495 C2501 1.491 . S
C2496 H2487 0.950 . S
C2496 C2495 1.398 . S
C2496 C2497 1.391 . S
C2497 H2485 0.950 . S
C2497 C2493 1.393 . S
C2497 C2496 1.391 . S
C2498 H2488 0.950 . S
C2498 C2499 1.386 . S
C2498 C2500 1.391 . S
C2499 C2498 1.386 . S
C2499 C2503 1.393 . S
C2500 H2489 0.950 . S
C2500 C2498 1.391 . S
C2500 C2501 1.400 . S
C2501 C2495 1.491 . S
C2501 C2500 1.400 . S
C2501 C2502 1.398 . S
C2502 H2490 0.950 . S
C2502 C2501 1.398 . S
C2502 C2503 1.391 . S
C2503 H2491 0.950 . S
C2503 C2499 1.393 . S
C2503 C2502 1.391 . S
H2504 C2512 0.950 . S
H2505 C2517 0.950 . S
H2506 C2514 0.950 . S
H2507 C2516 0.950 . S
H2508 C2518 0.950 . S
H2509 C2520 0.950 . S
H2510 C2522 0.950 . S
H2511 C2523 0.950 1_455 S
C2512 H2504 0.950 . S
C2512 C2513 1.386 . S
C2512 C2514 1.391 . S
C2513 C2512 1.386 . S
C2513 C2517 1.393 . S
C2514 H2506 0.950 . S
C2514 C2512 1.391 . S
C2514 C2515 1.400 . S
C2515 C2514 1.400 . S
C2515 C2516 1.398 . S
C2515 C2521 1.491 . S
C2516 H2507 0.950 . S
C2516 C2515 1.398 . S
C2516 C2517 1.391 . S
C2517 H2505 0.950 . S
C2517 C2513 1.393 . S
C2517 C2516 1.391 . S
C2518 H2508 0.950 . S
C2518 C2519 1.386 1_655 S
C2518 C2520 1.391 . S
C2519 C2518 1.386 1_455 S
C2519 C2523 1.393 1_455 S
C2520 H2509 0.950 . S
C2520 C2518 1.391 . S
C2520 C2521 1.400 . S
C2521 C2515 1.491 . S
C2521 C2520 1.400 . S
C2521 C2522 1.398 . S
C2522 H2510 0.950 . S
C2522 C2521 1.398 . S
C2522 C2523 1.391 . S
C2523 H2511 0.950 1_655 S
C2523 C2519 1.393 1_655 S
C2523 C2522 1.391 . S
H2524 C2532 0.950 . S
H2525 C2537 0.950 . S
H2526 C2534 0.950 . S
H2527 C2536 0.950 . S
H2528 C2538 0.950 . S
H2529 C2540 0.950 . S
H2530 C2542 0.950 . S
H2531 C2543 0.950 . S
C2532 H2524 0.950 . S
C2532 C2533 1.386 . S
C2532 C2534 1.391 . S
C2533 C2532 1.386 . S
C2533 C2537 1.393 . S
C2534 H2526 0.950 . S
C2534 C2532 1.391 . S
C2534 C2535 1.400 . S
C2535 C2534 1.400 . S
C2535 C2536 1.398 . S
C2535 C2541 1.491 . S
C2536 H2527 0.950 . S
C2536 C2535 1.398 . S
C2536 C2537 1.391 . S
C2537 H2525 0.950 . S
C2537 C2533 1.393 . S
C2537 C2536 1.391 . S
C2538 H2528 0.950 . S
C2538 C2539 1.386 . S
C2538 C2540 1.391 . S
C2539 C2538 1.386 . S
C2539 C2543 1.393 . S
C2540 H2529 0.950 . S
C2540 C2538 1.391 . S
C2540 C2541 1.400 . S
C2541 C2535 1.491 . S
C2541 C2540 1.400 . S
C2541 C2542 1.398 . S
C2542 H2530 0.950 . S
C2542 C2541 1.398 . S
C2542 C2543 1.391 . S
C2543 H2531 0.950 . S
C2543 C2539 1.393 . S
C2543 C2542 1.391 . S
H2544 C2552 0.950 . S
H2545 C2557 0.950 . S
H2546 C2554 0.950 . S
H2547 C2556 0.950 . S
H2548 C2558 0.950 . S
H2549 C2560 0.950 . S
H2550 C2562 0.950 . S
H2551 C2563 0.950 . S
C2552 H2544 0.950 . S
C2552 C2553 1.386 . S
C2552 C2554 1.391 . S
C2553 C2552 1.386 . S
C2553 C2557 1.393 . S
C2554 H2546 0.950 . S
C2554 C2552 1.391 . S
C2554 C2555 1.400 . S
C2555 C2554 1.400 . S
C2555 C2556 1.398 . S
C2555 C2561 1.491 . S
C2556 H2547 0.950 . S
C2556 C2555 1.398 . S
C2556 C2557 1.391 . S
C2557 H2545 0.950 . S
C2557 C2553 1.393 . S
C2557 C2556 1.391 . S
C2558 H2548 0.950 . S
C2558 C2559 1.386 . S
C2558 C2560 1.391 . S
C2559 C2558 1.386 . S
C2559 C2563 1.393 . S
C2560 H2549 0.950 . S
C2560 C2558 1.391 . S
C2560 C2561 1.400 . S
C2561 C2555 1.491 . S
C2561 C2560 1.400 . S
C2561 C2562 1.398 . S
C2562 H2550 0.950 . S
C2562 C2561 1.398 . S
C2562 C2563 1.391 . S
C2563 H2551 0.950 . S
C2563 C2559 1.393 . S
C2563 C2562 1.391 . S
H2564 C2572 0.950 1_554 S
H2565 C2577 0.950 . S
H2566 C2574 0.950 . S
H2567 C2576 0.950 . S
H2568 C2578 0.950 . S
H2569 C2580 0.950 . S
H2570 C2582 0.950 . S
H2571 C2583 0.950 . S
C2572 H2564 0.950 1_556 S
C2572 C2573 1.386 1_556 S
C2572 C2574 1.391 . S
C2573 C2572 1.386 1_554 S
C2573 C2577 1.393 1_554 S
C2574 H2566 0.950 . S
C2574 C2572 1.391 . S
C2574 C2575 1.400 . S
C2575 C2574 1.400 . S
C2575 C2576 1.398 . S
C2575 C2581 1.491 . S
C2576 H2567 0.950 . S
C2576 C2575 1.398 . S
C2576 C2577 1.391 . S
C2577 H2565 0.950 . S
C2577 C2573 1.393 1_556 S
C2577 C2576 1.391 . S
C2578 H2568 0.950 . S
C2578 C2579 1.386 . S
C2578 C2580 1.391 . S
C2579 C2578 1.386 . S
C2579 C2583 1.393 . S
C2580 H2569 0.950 . S
C2580 C2578 1.391 . S
C2580 C2581 1.400 . S
C2581 C2575 1.491 . S
C2581 C2580 1.400 . S
C2581 C2582 1.398 . S
C2582 H2570 0.950 . S
C2582 C2581 1.398 . S
C2582 C2583 1.391 . S
C2583 H2571 0.950 . S
C2583 C2579 1.393 . S
C2583 C2582 1.391 . S
H2584 C2592 0.950 . S
H2585 C2597 0.950 . S
H2586 C2594 0.950 . S
H2587 C2596 0.950 . S
H2588 C2598 0.950 . S
H2589 C2600 0.950 . S
H2590 C2602 0.950 . S
H2591 C2603 0.950 . S
C2592 H2584 0.950 . S
C2592 C2593 1.386 . S
C2592 C2594 1.391 . S
C2593 C2592 1.386 . S
C2593 C2597 1.393 . S
C2594 H2586 0.950 . S
C2594 C2592 1.391 . S
C2594 C2595 1.400 . S
C2595 C2594 1.400 . S
C2595 C2596 1.398 . S
C2595 C2601 1.491 . S
C2596 H2587 0.950 . S
C2596 C2595 1.398 . S
C2596 C2597 1.391 . S
C2597 H2585 0.950 . S
C2597 C2593 1.393 . S
C2597 C2596 1.391 . S
C2598 H2588 0.950 . S
C2598 C2599 1.386 . S
C2598 C2600 1.391 . S
C2599 C2598 1.386 . S
C2599 C2603 1.393 . S
C2600 H2589 0.950 . S
C2600 C2598 1.391 . S
C2600 C2601 1.400 . S
C2601 C2595 1.491 . S
C2601 C2600 1.400 . S
C2601 C2602 1.398 . S
C2602 H2590 0.950 . S
C2602 C2601 1.398 . S
C2602 C2603 1.391 . S
C2603 H2591 0.950 . S
C2603 C2599 1.393 . S
C2603 C2602 1.391 . S
H2604 C2612 0.950 . S
H2605 C2617 0.950 . S
H2606 C2614 0.950 . S
H2607 C2616 0.950 . S
H2608 C2618 0.950 . S
H2609 C2620 0.950 . S
H2610 C2622 0.950 . S
H2611 C2623 0.950 . S
C2612 H2604 0.950 . S
C2612 C2613 1.386 . S
C2612 C2614 1.391 . S
C2613 C2612 1.386 . S
C2613 C2617 1.393 . S
C2614 H2606 0.950 . S
C2614 C2612 1.391 . S
C2614 C2615 1.400 . S
C2615 C2614 1.400 . S
C2615 C2616 1.398 . S
C2615 C2621 1.491 . S
C2616 H2607 0.950 . S
C2616 C2615 1.398 . S
C2616 C2617 1.391 . S
C2617 H2605 0.950 . S
C2617 C2613 1.393 . S
C2617 C2616 1.391 . S
C2618 H2608 0.950 . S
C2618 C2619 1.386 1_655 S
C2618 C2620 1.391 . S
C2619 C2618 1.386 1_455 S
C2619 C2623 1.393 . S
C2620 H2609 0.950 . S
C2620 C2618 1.391 . S
C2620 C2621 1.400 . S
C2621 C2615 1.491 . S
C2621 C2620 1.400 . S
C2621 C2622 1.398 1_655 S
C2622 H2610 0.950 . S
C2622 C2621 1.398 1_455 S
C2622 C2623 1.391 . S
C2623 H2611 0.950 . S
C2623 C2619 1.393 . S
C2623 C2622 1.391 . S
H2624 C2632 0.950 . S
H2625 C2637 0.950 . S
H2626 C2634 0.950 . S
H2627 C2636 0.950 . S
H2628 C2638 0.950 . S
H2629 C2640 0.950 . S
H2630 C2642 0.950 . S
H2631 C2643 0.950 . S
C2632 H2624 0.950 . S
C2632 C2633 1.386 . S
C2632 C2634 1.391 . S
C2633 C2632 1.386 . S
C2633 C2637 1.393 . S
C2634 H2626 0.950 . S
C2634 C2632 1.391 . S
C2634 C2635 1.400 . S
C2635 C2634 1.400 . S
C2635 C2636 1.398 . S
C2635 C2641 1.491 . S
C2636 H2627 0.950 . S
C2636 C2635 1.398 . S
C2636 C2637 1.391 . S
C2637 H2625 0.950 . S
C2637 C2633 1.393 . S
C2637 C2636 1.391 . S
C2638 H2628 0.950 . S
C2638 C2639 1.386 . S
C2638 C2640 1.391 . S
C2639 C2638 1.386 . S
C2639 C2643 1.393 . S
C2640 H2629 0.950 . S
C2640 C2638 1.391 . S
C2640 C2641 1.400 . S
C2641 C2635 1.491 . S
C2641 C2640 1.400 . S
C2641 C2642 1.398 . S
C2642 H2630 0.950 . S
C2642 C2641 1.398 . S
C2642 C2643 1.391 . S
C2643 H2631 0.950 . S
C2643 C2639 1.393 . S
C2643 C2642 1.391 . S
H2644 C2652 0.950 1_456 S
H2645 C2657 0.950 . S
H2646 C2654 0.917 1_455 S
H2647 C2656 0.950 . S
H2648 C2658 0.950 . S
H2649 C2660 0.950 . S
H2650 C2662 0.950 . S
H2651 C2663 0.950 . S
C2652 H2644 0.950 1_654 S
C2652 C2653 1.386 1_554 S
C2652 C2654 1.401 . S
C2653 C2652 1.386 1_556 S
C2653 C2657 1.393 1_556 S
C2654 H2646 0.917 1_655 S
C2654 C2652 1.401 . S
C2654 C2655 1.423 . S
C2655 C2654 1.423 . S
C2655 C2656 1.398 . S
C2655 C2661 1.491 . S
C2656 H2647 0.950 . S
C2656 C2655 1.398 . S
C2656 C2657 1.391 . S
C2657 H2645 0.950 . S
C2657 C2653 1.393 1_554 S
C2657 C2656 1.391 . S
C2658 H2648 0.950 . S
C2658 C2659 1.386 1_655 S
C2658 C2660 1.391 . S
C2659 C2658 1.386 1_455 S
C2659 C2663 1.393 . S
C2660 H2649 0.950 . S
C2660 C2658 1.391 . S
C2660 C2661 1.400 . S
C2661 C2655 1.491 . S
C2661 C2660 1.400 . S
C2661 C2662 1.398 1_655 S
C2662 H2650 0.950 . S
C2662 C2661 1.398 1_455 S
C2662 C2663 1.391 . S
C2663 H2651 0.950 . S
C2663 C2659 1.393 . S
C2663 C2662 1.391 . S
H2664 C2672 0.950 . S
H2665 C2677 0.950 . S
H2666 C2674 0.950 . S
H2667 C2676 0.950 . S
H2668 C2678 0.950 . S
H2669 C2680 0.950 . S
H2670 C2682 0.950 . S
H2671 C2683 0.950 . S
C2672 H2664 0.950 . S
C2672 C2673 1.386 . S
C2672 C2674 1.391 . S
C2673 C2672 1.386 . S
C2673 C2677 1.393 . S
C2674 H2666 0.950 . S
C2674 C2672 1.391 . S
C2674 C2675 1.400 . S
C2675 C2674 1.400 . S
C2675 C2676 1.398 . S
C2675 C2681 1.491 . S
C2676 H2667 0.950 . S
C2676 C2675 1.398 . S
C2676 C2677 1.391 . S
C2677 H2665 0.950 . S
C2677 C2673 1.393 . S
C2677 C2676 1.391 . S
C2678 H2668 0.950 . S
C2678 C2679 1.386 . S
C2678 C2680 1.391 . S
C2679 C2678 1.386 . S
C2679 C2683 1.393 . S
C2680 H2669 0.950 . S
C2680 C2678 1.391 . S
C2680 C2681 1.400 . S
C2681 C2675 1.491 . S
C2681 C2680 1.400 . S
C2681 C2682 1.398 . S
C2682 H2670 0.950 . S
C2682 C2681 1.398 . S
C2682 C2683 1.391 . S
C2683 H2671 0.950 . S
C2683 C2679 1.393 . S
C2683 C2682 1.391 . S
H2684 C2692 0.950 . S
H2685 C2697 0.950 . S
H2686 C2694 0.950 . S
H2687 C2696 0.950 . S
H2688 C2698 0.950 . S
H2689 C2700 0.950 . S
H2690 C2702 0.950 . S
H2691 C2703 0.950 . S
C2692 H2684 0.950 . S
C2692 C2693 1.386 . S
C2692 C2694 1.391 . S
C2693 C2692 1.386 . S
C2693 C2697 1.393 . S
C2694 H2686 0.950 . S
C2694 C2692 1.391 . S
C2694 C2695 1.400 . S
C2695 C2694 1.400 . S
C2695 C2696 1.398 . S
C2695 C2701 1.491 . S
C2696 H2687 0.950 . S
C2696 C2695 1.398 . S
C2696 C2697 1.391 . S
C2697 H2685 0.950 . S
C2697 C2693 1.393 . S
C2697 C2696 1.391 . S
C2698 H2688 0.950 . S
C2698 C2699 1.386 . S
C2698 C2700 1.391 . S
C2699 C2698 1.386 . S
C2699 C2703 1.393 . S
C2700 H2689 0.950 . S
C2700 C2698 1.391 . S
C2700 C2701 1.400 . S
C2701 C2695 1.491 . S
C2701 C2700 1.400 . S
C2701 C2702 1.398 . S
C2702 H2690 0.950 . S
C2702 C2701 1.398 . S
C2702 C2703 1.391 . S
C2703 H2691 0.950 . S
C2703 C2699 1.393 . S
C2703 C2702 1.391 . S
H2704 C2712 0.950 . S
H2705 C2717 0.950 . S
H2706 C2714 0.950 . S
H2707 C2716 0.950 . S
H2708 C2718 0.950 . S
H2709 C2720 0.950 . S
H2710 C2722 0.950 . S
H2711 C2723 0.950 . S
C2712 H2704 0.950 . S
C2712 C2713 1.386 . S
C2712 C2714 1.391 . S
C2713 C2712 1.386 . S
C2713 C2717 1.393 . S
C2714 H2706 0.950 . S
C2714 C2712 1.391 . S
C2714 C2715 1.400 . S
C2715 C2714 1.400 . S
C2715 C2716 1.398 . S
C2715 C2721 1.491 . S
C2716 H2707 0.950 . S
C2716 C2715 1.398 . S
C2716 C2717 1.391 . S
C2717 H2705 0.950 . S
C2717 C2713 1.393 . S
C2717 C2716 1.391 . S
C2718 H2708 0.950 . S
C2718 C2719 1.386 . S
C2718 C2720 1.391 . S
C2719 C2718 1.386 . S
C2719 C2723 1.393 . S
C2720 H2709 0.950 . S
C2720 C2718 1.391 . S
C2720 C2721 1.400 . S
C2721 C2715 1.491 . S
C2721 C2720 1.400 . S
C2721 C2722 1.398 . S
C2722 H2710 0.950 . S
C2722 C2721 1.398 . S
C2722 C2723 1.391 . S
C2723 H2711 0.950 . S
C2723 C2719 1.393 . S
C2723 C2722 1.391 . S
H2724 C2732 0.950 . S
H2725 C2737 0.950 . S
H2726 C2734 0.926 1_554 S
H2727 C2736 0.950 . S
H2728 C2738 0.950 . S
H2729 C2740 0.950 . S
H2730 C2742 0.950 . S
H2731 C2743 0.950 . S
C2732 H2724 0.950 . S
C2732 C2733 1.386 . S
C2732 C2734 1.391 . S
C2733 C2732 1.386 . S
C2733 C2737 1.393 . S
C2734 H2726 0.926 1_556 S
C2734 C2732 1.391 . S
C2734 C2735 1.400 . S
C2735 C2734 1.400 . S
C2735 C2736 1.398 . S
C2735 C2741 1.491 . S
C2736 H2727 0.950 . S
C2736 C2735 1.398 . S
C2736 C2737 1.391 . S
C2737 H2725 0.950 . S
C2737 C2733 1.393 . S
C2737 C2736 1.391 . S
C2738 H2728 0.950 . S
C2738 C2739 1.386 1_556 S
C2738 C2740 1.391 . S
C2739 C2738 1.386 1_554 S
C2739 C2743 1.393 . S
C2740 H2729 0.950 . S
C2740 C2738 1.391 . S
C2740 C2741 1.400 . S
C2741 C2735 1.491 . S
C2741 C2740 1.400 . S
C2741 C2742 1.398 1_556 S
C2742 H2730 0.950 . S
C2742 C2741 1.398 1_554 S
C2742 C2743 1.391 . S
C2743 H2731 0.950 . S
C2743 C2739 1.393 . S
C2743 C2742 1.391 . S
H2744 C2752 0.950 . S
H2745 C2757 0.950 . S
H2746 C2754 0.950 . S
H2747 C2756 0.950 . S
H2748 C2758 0.950 . S
H2749 C2760 0.950 . S
H2750 C2762 0.950 . S
H2751 C2763 0.950 . S
C2752 H2744 0.950 . S
C2752 C2753 1.386 . S
C2752 C2754 1.391 . S
C2753 C2752 1.386 . S
C2753 C2757 1.393 . S
C2754 H2746 0.950 . S
C2754 C2752 1.391 . S
C2754 C2755 1.400 . S
C2755 C2754 1.400 . S
C2755 C2756 1.398 . S
C2755 C2761 1.491 . S
C2756 H2747 0.950 . S
C2756 C2755 1.398 . S
C2756 C2757 1.391 . S
C2757 H2745 0.950 . S
C2757 C2753 1.393 . S
C2757 C2756 1.391 . S
C2758 H2748 0.950 . S
C2758 C2759 1.386 . S
C2758 C2760 1.391 . S
C2759 C2758 1.386 . S
C2759 C2763 1.393 . S
C2760 H2749 0.950 . S
C2760 C2758 1.391 . S
C2760 C2761 1.400 . S
C2761 C2755 1.491 . S
C2761 C2760 1.400 . S
C2761 C2762 1.398 . S
C2762 H2750 0.950 . S
C2762 C2761 1.398 . S
C2762 C2763 1.391 . S
C2763 H2751 0.950 . S
C2763 C2759 1.393 . S
C2763 C2762 1.391 . S
H2764 C2772 0.950 . S
H2765 C2777 0.950 . S
H2766 C2774 0.950 . S
H2767 C2776 0.950 . S
H2768 C2778 0.950 . S
H2769 C2780 0.950 . S
H2770 C2782 0.950 . S
H2771 C2783 0.950 . S
C2772 H2764 0.950 . S
C2772 C2773 1.386 . S
C2772 C2774 1.391 . S
C2773 C2772 1.386 . S
C2773 C2777 1.393 . S
C2774 H2766 0.950 . S
C2774 C2772 1.391 . S
C2774 C2775 1.400 . S
C2775 C2774 1.400 . S
C2775 C2776 1.398 . S
C2775 C2781 1.491 . S
C2776 H2767 0.950 . S
C2776 C2775 1.398 . S
C2776 C2777 1.391 . S
C2777 H2765 0.950 . S
C2777 C2773 1.393 . S
C2777 C2776 1.391 . S
C2778 H2768 0.950 . S
C2778 C2779 1.386 . S
C2778 C2780 1.391 . S
C2779 C2778 1.386 . S
C2779 C2783 1.393 . S
C2780 H2769 0.950 . S
C2780 C2778 1.391 . S
C2780 C2781 1.400 . S
C2781 C2775 1.491 . S
C2781 C2780 1.400 . S
C2781 C2782 1.398 . S
C2782 H2770 0.950 . S
C2782 C2781 1.398 . S
C2782 C2783 1.391 . S
C2783 H2771 0.950 . S
C2783 C2779 1.393 . S
C2783 C2782 1.391 . S
H2784 C2792 0.950 . S
H2785 C2797 0.950 . S
H2786 C2794 0.950 . S
H2787 C2796 0.950 . S
H2788 C2798 0.950 . S
H2789 C2800 0.950 . S
H2790 C2802 0.950 . S
H2791 C2803 0.950 . S
C2792 H2784 0.950 . S
C2792 C2793 1.386 . S
C2792 C2794 1.391 . S
C2793 C2792 1.386 . S
C2793 C2797 1.393 . S
C2794 H2786 0.950 . S
C2794 C2792 1.391 . S
C2794 C2795 1.400 . S
C2795 C2794 1.400 . S
C2795 C2796 1.398 . S
C2795 C2801 1.491 . S
C2796 H2787 0.950 . S
C2796 C2795 1.398 . S
C2796 C2797 1.391 . S
C2797 H2785 0.950 . S
C2797 C2793 1.393 . S
C2797 C2796 1.391 . S
C2798 H2788 0.950 . S
C2798 C2799 1.386 . S
C2798 C2800 1.391 . S
C2799 C2798 1.386 . S
C2799 C2803 1.393 . S
C2800 H2789 0.950 . S
C2800 C2798 1.391 . S
C2800 C2801 1.400 . S
C2801 C2795 1.491 . S
C2801 C2800 1.400 . S
C2801 C2802 1.398 . S
C2802 H2790 0.950 . S
C2802 C2801 1.398 . S
C2802 C2803 1.391 . S
C2803 H2791 0.950 . S
C2803 C2799 1.393 . S
C2803 C2802 1.391 . S
H2804 C2812 0.950 . S
H2805 C2817 0.950 . S
H2806 C2814 0.950 . S
H2807 C2816 0.950 . S
H2808 C2818 0.950 . S
H2809 C2820 0.950 . S
H2810 C2822 0.950 . S
H2811 C2823 0.950 . S
C2812 H2804 0.950 . S
C2812 C2813 1.386 . S
C2812 C2814 1.391 . S
C2813 C2812 1.386 . S
C2813 C2817 1.393 1_556 S
C2814 H2806 0.950 . S
C2814 C2812 1.391 . S
C2814 C2815 1.400 1_556 S
C2815 C2814 1.400 1_554 S
C2815 C2816 1.398 . S
C2815 C2821 1.491 . S
C2816 H2807 0.950 . S
C2816 C2815 1.398 . S
C2816 C2817 1.391 . S
C2817 H2805 0.950 . S
C2817 C2813 1.393 1_554 S
C2817 C2816 1.391 . S
C2818 H2808 0.950 . S
C2818 C2819 1.386 . S
C2818 C2820 1.391 . S
C2819 C2818 1.386 . S
C2819 C2823 1.393 . S
C2820 H2809 0.950 . S
C2820 C2818 1.391 . S
C2820 C2821 1.400 . S
C2821 C2815 1.491 . S
C2821 C2820 1.400 . S
C2821 C2822 1.398 . S
C2822 H2810 0.950 . S
C2822 C2821 1.398 . S
C2822 C2823 1.391 . S
C2823 H2811 0.950 . S
C2823 C2819 1.393 . S
C2823 C2822 1.391 . S
H2824 C2832 0.950 . S
H2825 C2837 0.950 . S
H2826 C2834 0.950 . S
H2827 C2836 0.950 . S
H2828 C2838 0.950 . S
H2829 C2840 0.950 . S
H2830 C2842 0.950 . S
H2831 C2843 0.950 . S
C2832 H2824 0.950 . S
C2832 C2833 1.386 . S
C2832 C2834 1.391 . S
C2833 C2832 1.386 . S
C2833 C2837 1.393 . S
C2834 H2826 0.950 . S
C2834 C2832 1.391 . S
C2834 C2835 1.400 . S
C2835 C2834 1.400 . S
C2835 C2836 1.398 . S
C2835 C2841 1.491 . S
C2836 H2827 0.950 . S
C2836 C2835 1.398 . S
C2836 C2837 1.391 . S
C2837 H2825 0.950 . S
C2837 C2833 1.393 . S
C2837 C2836 1.391 . S
C2838 H2828 0.950 . S
C2838 C2839 1.386 . S
C2838 C2840 1.391 . S
C2839 C2838 1.386 . S
C2839 C2843 1.393 . S
C2840 H2829 0.950 . S
C2840 C2838 1.391 . S
C2840 C2841 1.400 . S
C2841 C2835 1.491 . S
C2841 C2840 1.400 . S
C2841 C2842 1.398 . S
C2842 H2830 0.950 . S
C2842 C2841 1.398 . S
C2842 C2843 1.391 . S
C2843 H2831 0.950 . S
C2843 C2839 1.393 . S
C2843 C2842 1.391 . S
H2844 C2852 0.950 . S
H2845 C2857 0.950 . S
H2846 C2854 0.950 . S
H2847 C2856 0.950 . S
H2848 C2858 0.950 . S
H2849 C2860 0.950 . S
H2850 C2862 0.950 . S
H2851 C2863 0.950 . S
C2852 H2844 0.950 . S
C2852 C2853 1.386 . S
C2852 C2854 1.391 . S
C2853 C2852 1.386 . S
C2853 C2857 1.393 . S
C2854 H2846 0.950 . S
C2854 C2852 1.391 . S
C2854 C2855 1.400 . S
C2855 C2854 1.400 . S
C2855 C2856 1.398 . S
C2855 C2861 1.491 . S
C2856 H2847 0.950 . S
C2856 C2855 1.398 . S
C2856 C2857 1.391 . S
C2857 H2845 0.950 . S
C2857 C2853 1.393 . S
C2857 C2856 1.391 . S
C2858 H2848 0.950 . S
C2858 C2859 1.386 . S
C2858 C2860 1.391 . S
C2859 C2858 1.386 . S
C2859 C2863 1.393 . S
C2860 H2849 0.950 . S
C2860 C2858 1.391 . S
C2860 C2861 1.400 . S
C2861 C2855 1.491 . S
C2861 C2860 1.400 . S
C2861 C2862 1.398 . S
C2862 H2850 0.950 . S
C2862 C2861 1.398 . S
C2862 C2863 1.391 . S
C2863 H2851 0.950 . S
C2863 C2859 1.393 . S
C2863 C2862 1.391 . S
H2864 C2872 0.950 . S
H2865 C2877 0.950 . S
H2866 C2874 0.950 . S
H2867 C2876 0.950 . S
H2868 C2878 0.950 . S
H2869 C2880 0.950 . S
H2870 C2882 0.950 . S
H2871 C2883 0.950 . S
C2872 H2864 0.950 . S
C2872 C2873 1.386 . S
C2872 C2874 1.391 . S
C2873 C2872 1.386 . S
C2873 C2877 1.393 . S
C2874 H2866 0.950 . S
C2874 C2872 1.391 . S
C2874 C2875 1.400 . S
C2875 C2874 1.400 . S
C2875 C2876 1.398 . S
C2875 C2881 1.491 . S
C2876 H2867 0.950 . S
C2876 C2875 1.398 . S
C2876 C2877 1.391 . S
C2877 H2865 0.950 . S
C2877 C2873 1.393 . S
C2877 C2876 1.391 . S
C2878 H2868 0.950 . S
C2878 C2879 1.386 . S
C2878 C2880 1.391 . S
C2879 C2878 1.386 . S
C2879 C2883 1.393 . S
C2880 H2869 0.950 . S
C2880 C2878 1.391 . S
C2880 C2881 1.400 . S
C2881 C2875 1.491 . S
C2881 C2880 1.400 . S
C2881 C2882 1.398 . S
C2882 H2870 0.950 . S
C2882 C2881 1.398 . S
C2882 C2883 1.391 . S
C2883 H2871 0.950 . S
C2883 C2879 1.393 . S
C2883 C2882 1.391 . S
H2884 C2892 0.950 . S
H2885 C2897 0.950 . S
H2886 C2894 0.950 . S
H2887 C2896 0.950 . S
H2888 C2898 0.950 . S
H2889 C2900 0.950 . S
H2890 C2902 0.950 . S
H2891 C2903 0.950 . S
C2892 H2884 0.950 . S
C2892 C2893 1.386 . S
C2892 C2894 1.391 . S
C2893 C2892 1.386 . S
C2893 C2897 1.393 . S
C2894 H2886 0.950 . S
C2894 C2892 1.391 . S
C2894 C2895 1.400 . S
C2895 C2894 1.400 . S
C2895 C2896 1.398 . S
C2895 C2901 1.491 . S
C2896 H2887 0.950 . S
C2896 C2895 1.398 . S
C2896 C2897 1.391 . S
C2897 H2885 0.950 . S
C2897 C2893 1.393 . S
C2897 C2896 1.391 . S
C2898 H2888 0.950 . S
C2898 C2899 1.386 . S
C2898 C2900 1.391 . S
C2899 C2898 1.386 . S
C2899 C2903 1.393 . S
C2900 H2889 0.950 . S
C2900 C2898 1.391 . S
C2900 C2901 1.400 . S
C2901 C2895 1.491 . S
C2901 C2900 1.400 . S
C2901 C2902 1.398 . S
C2902 H2890 0.950 . S
C2902 C2901 1.398 . S
C2902 C2903 1.391 . S
C2903 H2891 0.950 . S
C2903 C2899 1.393 . S
C2903 C2902 1.391 . S
H2904 C2912 0.950 1_545 S
H2905 C2917 0.950 . S
H2906 C2914 0.950 1_545 S
H2907 C2916 0.950 . S
H2908 C2918 0.950 . S
H2909 C2920 0.950 . S
H2910 C2922 0.950 . S
H2911 C2923 0.950 . S
C2912 H2904 0.950 1_565 S
C2912 C2913 1.386 . S
C2912 C2914 1.391 . S
C2913 C2912 1.386 . S
C2913 C2917 1.393 . S
C2914 H2906 0.950 1_565 S
C2914 C2912 1.391 . S
C2914 C2915 1.400 . S
C2915 C2914 1.400 . S
C2915 C2916 1.398 . S
C2915 C2921 1.491 . S
C2916 H2907 0.950 . S
C2916 C2915 1.398 . S
C2916 C2917 1.391 . S
C2917 H2905 0.950 . S
C2917 C2913 1.393 . S
C2917 C2916 1.391 . S
C2918 H2908 0.950 . S
C2918 C2919 1.386 1_565 S
C2918 C2920 1.391 . S
C2919 C2918 1.386 1_545 S
C2919 C2923 1.393 . S
C2920 H2909 0.950 . S
C2920 C2918 1.391 . S
C2920 C2921 1.400 . S
C2921 C2915 1.491 . S
C2921 C2920 1.400 . S
C2921 C2922 1.398 1_565 S
C2922 H2910 0.950 . S
C2922 C2921 1.398 1_545 S
C2922 C2923 1.391 . S
C2923 H2911 0.950 . S
C2923 C2919 1.393 . S
C2923 C2922 1.391 . S
H2924 C2932 0.950 . S
H2925 C2937 0.950 . S
H2926 C2934 0.950 . S
H2927 C2936 0.950 . S
H2928 C2938 0.950 . S
H2929 C2940 0.950 . S
H2930 C2942 0.950 . S
H2931 C2943 0.950 . S
C2932 H2924 0.950 . S
C2932 C2933 1.386 . S
C2932 C2934 1.391 . S
C2933 C2932 1.386 . S
C2933 C2937 1.393 . S
C2934 H2926 0.950 . S
C2934 C2932 1.391 . S
C2934 C2935 1.400 . S
C2935 C2934 1.400 . S
C2935 C2936 1.398 . S
C2935 C2941 1.491 . S
C2936 H2927 0.950 . S
C2936 C2935 1.398 . S
C2936 C2937 1.391 . S
C2937 H2925 0.950 . S
C2937 C2933 1.393 . S
C2937 C2936 1.391 . S
C2938 H2928 0.950 . S
C2938 C2939 1.386 . S
C2938 C2940 1.391 . S
C2939 C2938 1.386 . S
C2939 C2943 1.393 . S
C2940 H2929 0.950 . S
C2940 C2938 1.391 . S
C2940 C2941 1.400 . S
C2941 C2935 1.491 . S
C2941 C2940 1.400 . S
C2941 C2942 1.398 . S
C2942 H2930 0.950 . S
C2942 C2941 1.398 . S
C2942 C2943 1.391 . S
C2943 H2931 0.950 . S
C2943 C2939 1.393 . S
C2943 C2942 1.391 . S
H2944 C2952 0.950 . S
H2945 C2957 0.950 . S
H2946 C2954 0.950 . S
H2947 C2956 0.950 . S
H2948 C2958 0.950 . S
H2949 C2960 0.950 . S
H2950 C2962 0.950 . S
H2951 C2963 0.950 . S
C2952 H2944 0.950 . S
C2952 C2953 1.386 . S
C2952 C2954 1.391 . S
C2953 C2952 1.386 . S
C2953 C2957 1.393 . S
C2954 H2946 0.950 . S
C2954 C2952 1.391 . S
C2954 C2955 1.400 . S
C2955 C2954 1.400 . S
C2955 C2956 1.398 . S
C2955 C2961 1.491 . S
C2956 H2947 0.950 . S
C2956 C2955 1.398 . S
C2956 C2957 1.391 . S
C2957 H2945 0.950 . S
C2957 C2953 1.393 . S
C2957 C2956 1.391 . S
C2958 H2948 0.950 . S
C2958 C2959 1.386 . S
C2958 C2960 1.391 . S
C2959 C2958 1.386 . S
C2959 C2963 1.393 . S
C2960 H2949 0.950 . S
C2960 C2958 1.391 . S
C2960 C2961 1.400 . S
C2961 C2955 1.491 . S
C2961 C2960 1.400 . S
C2961 C2962 1.398 . S
C2962 H2950 0.950 . S
C2962 C2961 1.398 . S
C2962 C2963 1.391 . S
C2963 H2951 0.950 . S
C2963 C2959 1.393 . S
C2963 C2962 1.391 . S
H2964 C2972 0.950 . S
H2965 C2977 0.950 . S
H2966 C2974 0.950 . S
H2967 C2976 0.950 . S
H2968 C2978 0.950 . S
H2969 C2980 0.950 . S
H2970 C2982 0.950 . S
H2971 C2983 0.950 . S
C2972 H2964 0.950 . S
C2972 C2973 1.386 . S
C2972 C2974 1.391 . S
C2973 C2972 1.386 . S
C2973 C2977 1.393 . S
C2974 H2966 0.950 . S
C2974 C2972 1.391 . S
C2974 C2975 1.400 . S
C2975 C2974 1.400 . S
C2975 C2976 1.398 . S
C2975 C2981 1.491 . S
C2976 H2967 0.950 . S
C2976 C2975 1.398 . S
C2976 C2977 1.391 . S
C2977 H2965 0.950 . S
C2977 C2973 1.393 . S
C2977 C2976 1.391 . S
C2978 H2968 0.950 . S
C2978 C2979 1.386 . S
C2978 C2980 1.391 . S
C2979 C2978 1.386 . S
C2979 C2983 1.393 . S
C2980 H2969 0.950 . S
C2980 C2978 1.391 . S
C2980 C2981 1.400 . S
C2981 C2975 1.491 . S
C2981 C2980 1.400 . S
C2981 C2982 1.398 . S
C2982 H2970 0.950 . S
C2982 C2981 1.398 . S
C2982 C2983 1.391 . S
C2983 H2971 0.950 . S
C2983 C2979 1.393 . S
C2983 C2982 1.391 . S
H2984 C2992 0.950 . S
H2985 C2997 0.950 . S
H2986 C2994 0.950 . S
H2987 C2996 0.950 . S
H2988 C2998 0.950 . S
H2989 C3000 0.950 . S
H2990 C3002 0.905 1_565 S
H2991 C3003 0.950 1_565 S
C2992 H2984 0.950 . S
C2992 C2993 1.386 . S
C2992 C2994 1.391 . S
C2993 C2992 1.386 . S
C2993 C2997 1.393 1_565 S
C2994 H2986 0.950 . S
C2994 C2992 1.391 . S
C2994 C2995 1.400 1_565 S
C2995 C2994 1.400 1_545 S
C2995 C2996 1.398 . S
C2995 C3001 1.491 . S
C2996 H2987 0.950 . S
C2996 C2995 1.398 . S
C2996 C2997 1.391 . S
C2997 H2985 0.950 . S
C2997 C2993 1.393 1_545 S
C2997 C2996 1.391 . S
C2998 H2988 0.950 . S
C2998 C2999 1.386 . S
C2998 C3000 1.391 . S
C2999 C2998 1.386 . S
C2999 C3003 1.393 . S
C3000 H2989 0.950 . S
C3000 C2998 1.391 . S
C3000 C3001 1.400 . S
C3001 C2995 1.491 . S
C3001 C3000 1.400 . S
C3001 C3002 1.430 . S
C3002 H2990 0.905 1_545 S
C3002 C3001 1.430 . S
C3002 C3003 1.404 . S
C3003 H2991 0.950 1_545 S
C3003 C2999 1.393 . S
C3003 C3002 1.404 . S
H3004 C3012 0.950 . S
H3005 C3017 0.950 1_655 S
H3006 C3014 0.950 . S
H3007 C3016 0.950 . S
H3008 C3018 0.950 . S
H3009 C3020 0.950 . S
H3010 C3022 0.950 . S
H3011 C3023 0.950 . S
C3012 H3004 0.950 . S
C3012 C3013 1.386 1_455 S
C3012 C3014 1.391 . S
C3013 C3012 1.386 1_655 S
C3013 C3017 1.393 1_655 S
C3014 H3006 0.950 . S
C3014 C3012 1.391 . S
C3014 C3015 1.400 . S
C3015 C3014 1.400 . S
C3015 C3016 1.398 . S
C3015 C3021 1.491 . S
C3016 H3007 0.950 . S
C3016 C3015 1.398 . S
C3016 C3017 1.391 . S
C3017 H3005 0.950 1_455 S
C3017 C3013 1.393 1_455 S
C3017 C3016 1.391 . S
C3018 H3008 0.950 . S
C3018 C3019 1.386 1_565 S
C3018 C3020 1.391 . S
C3019 C3018 1.386 1_545 S
C3019 C3023 1.393 . S
C3020 H3009 0.950 . S
C3020 C3018 1.391 . S
C3020 C3021 1.400 . S
C3021 C3015 1.491 . S
C3021 C3020 1.400 . S
C3021 C3022 1.398 . S
C3022 H3010 0.950 . S
C3022 C3021 1.398 . S
C3022 C3023 1.391 1_565 S
C3023 H3011 0.950 . S
C3023 C3019 1.393 . S
C3023 C3022 1.391 1_545 S
H3024 C3032 0.950 . S
H3025 C3037 0.950 . S
H3026 C3034 0.950 . S
H3027 C3036 0.950 . S
H3028 C3038 0.950 . S
H3029 C3040 0.950 . S
H3030 C3042 0.950 . S
H3031 C3043 0.950 . S
C3032 H3024 0.950 . S
C3032 C3033 1.386 . S
C3032 C3034 1.391 . S
C3033 C3032 1.386 . S
C3033 C3037 1.393 . S
C3034 H3026 0.950 . S
C3034 C3032 1.391 . S
C3034 C3035 1.400 . S
C3035 C3034 1.400 . S
C3035 C3036 1.398 . S
C3035 C3041 1.491 . S
C3036 H3027 0.950 . S
C3036 C3035 1.398 . S
C3036 C3037 1.391 . S
C3037 H3025 0.950 . S
C3037 C3033 1.393 . S
C3037 C3036 1.391 . S
C3038 H3028 0.950 . S
C3038 C3039 1.386 . S
C3038 C3040 1.391 . S
C3039 C3038 1.386 . S
C3039 C3043 1.393 . S
C3040 H3029 0.950 . S
C3040 C3038 1.391 . S
C3040 C3041 1.400 . S
C3041 C3035 1.491 . S
C3041 C3040 1.400 . S
C3041 C3042 1.398 . S
C3042 H3030 0.950 . S
C3042 C3041 1.398 . S
C3042 C3043 1.391 . S
C3043 H3031 0.950 . S
C3043 C3039 1.393 . S
C3043 C3042 1.391 . S
H3044 C3052 0.950 . S
H3045 C3057 0.950 . S
H3046 C3054 0.950 . S
H3047 C3056 0.950 . S
H3048 C3058 0.950 . S
H3049 C3060 0.950 . S
H3050 C3062 0.950 . S
H3051 C3063 0.950 . S
C3052 H3044 0.950 . S
C3052 C3053 1.386 . S
C3052 C3054 1.391 . S
C3053 C3052 1.386 . S
C3053 C3057 1.393 . S
C3054 H3046 0.950 . S
C3054 C3052 1.391 . S
C3054 C3055 1.400 . S
C3055 C3054 1.400 . S
C3055 C3056 1.398 . S
C3055 C3061 1.491 . S
C3056 H3047 0.950 . S
C3056 C3055 1.398 . S
C3056 C3057 1.391 . S
C3057 H3045 0.950 . S
C3057 C3053 1.393 . S
C3057 C3056 1.391 . S
C3058 H3048 0.950 . S
C3058 C3059 1.386 . S
C3058 C3060 1.391 . S
C3059 C3058 1.386 . S
C3059 C3063 1.393 . S
C3060 H3049 0.950 . S
C3060 C3058 1.391 . S
C3060 C3061 1.400 . S
C3061 C3055 1.491 . S
C3061 C3060 1.400 . S
C3061 C3062 1.398 . S
C3062 H3050 0.950 . S
C3062 C3061 1.398 . S
C3062 C3063 1.391 . S
C3063 H3051 0.950 . S
C3063 C3059 1.393 . S
C3063 C3062 1.391 . S
H3064 C3072 0.950 . S
H3065 C3077 0.950 . S
H3066 C3074 0.950 . S
H3067 C3076 0.950 . S
H3068 C3078 0.950 . S
H3069 C3080 0.950 . S
H3070 C3082 0.950 . S
H3071 C3083 0.950 . S
C3072 H3064 0.950 . S
C3072 C3073 1.386 . S
C3072 C3074 1.391 . S
C3073 C3072 1.386 . S
C3073 C3077 1.393 . S
C3074 H3066 0.950 . S
C3074 C3072 1.391 . S
C3074 C3075 1.400 . S
C3075 C3074 1.400 . S
C3075 C3076 1.398 . S
C3075 C3081 1.491 . S
C3076 H3067 0.950 . S
C3076 C3075 1.398 . S
C3076 C3077 1.391 . S
C3077 H3065 0.950 . S
C3077 C3073 1.393 . S
C3077 C3076 1.391 . S
C3078 H3068 0.950 . S
C3078 C3079 1.386 . S
C3078 C3080 1.391 . S
C3079 C3078 1.386 . S
C3079 C3083 1.393 . S
C3080 H3069 0.950 . S
C3080 C3078 1.391 . S
C3080 C3081 1.400 . S
C3081 C3075 1.491 . S
C3081 C3080 1.400 . S
C3081 C3082 1.398 . S
C3082 H3070 0.950 . S
C3082 C3081 1.398 . S
C3082 C3083 1.391 . S
C3083 H3071 0.950 . S
C3083 C3079 1.393 . S
C3083 C3082 1.391 . S
H3084 C3092 0.950 . S
H3085 C3097 0.950 . S
H3086 C3094 0.950 . S
H3087 C3096 0.950 . S
H3088 C3098 0.950 . S
H3089 C3100 0.950 . S
H3090 C3102 0.950 . S
H3091 C3103 0.950 . S
C3092 H3084 0.950 . S
C3092 C3093 1.386 . S
C3092 C3094 1.391 . S
C3093 C3092 1.386 . S
C3093 C3097 1.393 . S
C3094 H3086 0.950 . S
C3094 C3092 1.391 . S
C3094 C3095 1.400 . S
C3095 C3094 1.400 . S
C3095 C3096 1.398 . S
C3095 C3101 1.491 . S
C3096 H3087 0.950 . S
C3096 C3095 1.398 . S
C3096 C3097 1.391 . S
C3097 H3085 0.950 . S
C3097 C3093 1.393 . S
C3097 C3096 1.391 . S
C3098 H3088 0.950 . S
C3098 C3099 1.386 . S
C3098 C3100 1.391 . S
C3099 C3098 1.386 . S
C3099 C3103 1.393 . S
C3100 H3089 0.950 . S
C3100 C3098 1.391 . S
C3100 C3101 1.400 . S
C3101 C3095 1.491 . S
C3101 C3100 1.400 . S
C3101 C3102 1.398 . S
C3102 H3090 0.950 . S
C3102 C3101 1.398 . S
C3102 C3103 1.391 . S
C3103 H3091 0.950 . S
C3103 C3099 1.393 . S
C3103 C3102 1.391 . S
H3104 C3112 0.950 . S
H3105 C3117 0.950 . S
H3106 C3114 0.950 . S
H3107 C3116 0.950 . S
H3108 C3118 0.950 . S
H3109 C3120 0.950 . S
H3110 C3122 0.950 . S
H3111 C3123 0.950 . S
C3112 H3104 0.950 . S
C3112 C3113 1.386 . S
C3112 C3114 1.391 . S
C3113 C3112 1.386 . S
C3113 C3117 1.393 . S
C3114 H3106 0.950 . S
C3114 C3112 1.391 . S
C3114 C3115 1.400 . S
C3115 C3114 1.400 . S
C3115 C3116 1.398 . S
C3115 C3121 1.491 . S
C3116 H3107 0.950 . S
C3116 C3115 1.398 . S
C3116 C3117 1.391 . S
C3117 H3105 0.950 . S
C3117 C3113 1.393 . S
C3117 C3116 1.391 . S
C3118 H3108 0.950 . S
C3118 C3119 1.386 . S
C3118 C3120 1.391 . S
C3119 C3118 1.386 . S
C3119 C3123 1.393 . S
C3120 H3109 0.950 . S
C3120 C3118 1.391 . S
C3120 C3121 1.400 . S
C3121 C3115 1.491 . S
C3121 C3120 1.400 . S
C3121 C3122 1.398 . S
C3122 H3110 0.950 . S
C3122 C3121 1.398 . S
C3122 C3123 1.391 . S
C3123 H3111 0.950 . S
C3123 C3119 1.393 . S
C3123 C3122 1.391 . S
H3124 C3132 0.950 . S
H3125 C3137 0.950 . S
H3126 C3134 0.950 . S
H3127 C3136 0.950 . S
H3128 C3138 0.950 . S
H3129 C3140 0.950 . S
H3130 C3142 0.950 . S
H3131 C3143 0.950 . S
C3132 H3124 0.950 . S
C3132 C3133 1.386 . S
C3132 C3134 1.391 . S
C3133 C3132 1.386 . S
C3133 C3137 1.393 . S
C3134 H3126 0.950 . S
C3134 C3132 1.391 . S
C3134 C3135 1.400 . S
C3135 C3134 1.400 . S
C3135 C3136 1.398 . S
C3135 C3141 1.491 . S
C3136 H3127 0.950 . S
C3136 C3135 1.398 . S
C3136 C3137 1.391 . S
C3137 H3125 0.950 . S
C3137 C3133 1.393 . S
C3137 C3136 1.391 . S
C3138 H3128 0.950 . S
C3138 C3139 1.386 . S
C3138 C3140 1.391 . S
C3139 C3138 1.386 . S
C3139 C3143 1.393 . S
C3140 H3129 0.950 . S
C3140 C3138 1.391 . S
C3140 C3141 1.400 . S
C3141 C3135 1.491 . S
C3141 C3140 1.400 . S
C3141 C3142 1.398 . S
C3142 H3130 0.950 . S
C3142 C3141 1.398 . S
C3142 C3143 1.391 . S
C3143 H3131 0.950 . S
C3143 C3139 1.393 . S
C3143 C3142 1.391 . S
H3144 C3152 0.950 . S
H3145 C3157 0.950 . S
H3146 C3154 0.950 . S
H3147 C3156 0.950 . S
H3148 C3158 0.950 . S
H3149 C3160 0.950 . S
H3150 C3162 0.950 . S
H3151 C3163 0.950 . S
C3152 H3144 0.950 . S
C3152 C3153 1.386 . S
C3152 C3154 1.391 . S
C3153 C3152 1.386 . S
C3153 C3157 1.393 . S
C3154 H3146 0.950 . S
C3154 C3152 1.391 . S
C3154 C3155 1.400 . S
C3155 C3154 1.400 . S
C3155 C3156 1.398 . S
C3155 C3161 1.491 . S
C3156 H3147 0.950 . S
C3156 C3155 1.398 . S
C3156 C3157 1.391 . S
C3157 H3145 0.950 . S
C3157 C3153 1.393 . S
C3157 C3156 1.391 . S
C3158 H3148 0.950 . S
C3158 C3159 1.386 . S
C3158 C3160 1.391 . S
C3159 C3158 1.386 . S
C3159 C3163 1.393 . S
C3160 H3149 0.950 . S
C3160 C3158 1.391 . S
C3160 C3161 1.400 . S
C3161 C3155 1.491 . S
C3161 C3160 1.400 . S
C3161 C3162 1.398 . S
C3162 H3150 0.950 . S
C3162 C3161 1.398 . S
C3162 C3163 1.391 . S
C3163 H3151 0.950 . S
C3163 C3159 1.393 . S
C3163 C3162 1.391 . S
H3164 C3172 0.950 . S
H3165 C3177 0.950 . S
H3166 C3174 0.950 . S
H3167 C3176 0.950 . S
H3168 C3178 0.950 . S
H3169 C3180 0.950 . S
H3170 C3182 0.950 . S
H3171 C3183 0.950 . S
C3172 H3164 0.950 . S
C3172 C3173 1.386 . S
C3172 C3174 1.391 . S
C3173 C3172 1.386 . S
C3173 C3177 1.393 . S
C3174 H3166 0.950 . S
C3174 C3172 1.391 . S
C3174 C3175 1.400 . S
C3175 C3174 1.400 . S
C3175 C3176 1.398 . S
C3175 C3181 1.491 . S
C3176 H3167 0.950 . S
C3176 C3175 1.398 . S
C3176 C3177 1.391 . S
C3177 H3165 0.950 . S
C3177 C3173 1.393 . S
C3177 C3176 1.391 . S
C3178 H3168 0.950 . S
C3178 C3179 1.386 . S
C3178 C3180 1.391 . S
C3179 C3178 1.386 . S
C3179 C3183 1.393 . S
C3180 H3169 0.950 . S
C3180 C3178 1.391 . S
C3180 C3181 1.400 . S
C3181 C3175 1.491 . S
C3181 C3180 1.400 . S
C3181 C3182 1.398 . S
C3182 H3170 0.950 . S
C3182 C3181 1.398 . S
C3182 C3183 1.391 . S
C3183 H3171 0.950 . S
C3183 C3179 1.393 . S
C3183 C3182 1.391 . S
H3184 C3192 0.950 . S
H3185 C3197 0.950 . S
H3186 C3194 0.950 . S
H3187 C3196 0.950 . S
H3188 C3198 0.950 . S
H3189 C3200 0.950 . S
H3190 C3202 0.950 . S
H3191 C3203 0.950 . S
C3192 H3184 0.950 . S
C3192 C3193 1.386 . S
C3192 C3194 1.391 . S
C3193 C3192 1.386 . S
C3193 C3197 1.393 . S
C3194 H3186 0.950 . S
C3194 C3192 1.391 . S
C3194 C3195 1.400 . S
C3195 C3194 1.400 . S
C3195 C3196 1.398 . S
C3195 C3201 1.491 . S
C3196 H3187 0.950 . S
C3196 C3195 1.398 . S
C3196 C3197 1.391 . S
C3197 H3185 0.950 . S
C3197 C3193 1.393 . S
C3197 C3196 1.391 . S
C3198 H3188 0.950 . S
C3198 C3199 1.386 . S
C3198 C3200 1.391 . S
C3199 C3198 1.386 . S
C3199 C3203 1.393 . S
C3200 H3189 0.950 . S
C3200 C3198 1.391 . S
C3200 C3201 1.400 . S
C3201 C3195 1.491 . S
C3201 C3200 1.400 . S
C3201 C3202 1.398 . S
C3202 H3190 0.950 . S
C3202 C3201 1.398 . S
C3202 C3203 1.391 . S
C3203 H3191 0.950 . S
C3203 C3199 1.393 . S
C3203 C3202 1.391 . S
H3204 C3212 0.950 . S
H3205 C3217 0.950 . S
H3206 C3214 0.950 . S
H3207 C3216 0.950 . S
H3208 C3218 0.950 . S
H3209 C3220 0.950 . S
H3210 C3222 0.950 . S
H3211 C3223 0.950 . S
C3212 H3204 0.950 . S
C3212 C3213 1.386 . S
C3212 C3214 1.391 . S
C3213 C3212 1.386 . S
C3213 C3217 1.393 . S
C3214 H3206 0.950 . S
C3214 C3212 1.391 . S
C3214 C3215 1.400 . S
C3215 C3214 1.400 . S
C3215 C3216 1.398 . S
C3215 C3221 1.491 . S
C3216 H3207 0.950 . S
C3216 C3215 1.398 . S
C3216 C3217 1.391 . S
C3217 H3205 0.950 . S
C3217 C3213 1.393 . S
C3217 C3216 1.391 . S
C3218 H3208 0.950 . S
C3218 C3219 1.386 . S
C3218 C3220 1.391 . S
C3219 C3218 1.386 . S
C3219 C3223 1.393 . S
C3220 H3209 0.950 . S
C3220 C3218 1.391 . S
C3220 C3221 1.400 . S
C3221 C3215 1.491 . S
C3221 C3220 1.400 . S
C3221 C3222 1.398 . S
C3222 H3210 0.950 . S
C3222 C3221 1.398 . S
C3222 C3223 1.391 . S
C3223 H3211 0.950 . S
C3223 C3219 1.393 . S
C3223 C3222 1.391 . S
H3224 C3232 0.950 . S
H3225 C3237 0.950 . S
H3226 C3234 0.950 . S
H3227 C3236 0.950 . S
H3228 C3238 0.950 . S
H3229 C3240 0.950 . S
H3230 C3242 0.950 . S
H3231 C3243 0.950 . S
C3232 H3224 0.950 . S
C3232 C3233 1.386 . S
C3232 C3234 1.391 . S
C3233 C3232 1.386 . S
C3233 C3237 1.393 . S
C3234 H3226 0.950 . S
C3234 C3232 1.391 . S
C3234 C3235 1.400 . S
C3235 C3234 1.400 . S
C3235 C3236 1.398 . S
C3235 C3241 1.491 . S
C3236 H3227 0.950 . S
C3236 C3235 1.398 . S
C3236 C3237 1.391 . S
C3237 H3225 0.950 . S
C3237 C3233 1.393 . S
C3237 C3236 1.391 . S
C3238 H3228 0.950 . S
C3238 C3239 1.386 . S
C3238 C3240 1.391 . S
C3239 C3238 1.386 . S
C3239 C3243 1.393 . S
C3240 H3229 0.950 . S
C3240 C3238 1.391 . S
C3240 C3241 1.400 . S
C3241 C3235 1.491 . S
C3241 C3240 1.400 . S
C3241 C3242 1.398 . S
C3242 H3230 0.950 . S
C3242 C3241 1.398 . S
C3242 C3243 1.391 . S
C3243 H3231 0.950 . S
C3243 C3239 1.393 . S
C3243 C3242 1.391 . S
H3244 C3252 0.950 . S
H3245 C3257 0.950 . S
H3246 C3254 0.950 . S
H3247 C3256 0.950 . S
H3248 C3258 0.950 . S
H3249 C3260 0.950 . S
H3250 C3262 0.950 . S
H3251 C3263 0.950 . S
C3252 H3244 0.950 . S
C3252 C3253 1.386 . S
C3252 C3254 1.391 . S
C3253 C3252 1.386 . S
C3253 C3257 1.393 . S
C3254 H3246 0.950 . S
C3254 C3252 1.391 . S
C3254 C3255 1.400 . S
C3255 C3254 1.400 . S
C3255 C3256 1.398 . S
C3255 C3261 1.491 . S
C3256 H3247 0.950 . S
C3256 C3255 1.398 . S
C3256 C3257 1.391 . S
C3257 H3245 0.950 . S
C3257 C3253 1.393 . S
C3257 C3256 1.391 . S
C3258 H3248 0.950 . S
C3258 C3259 1.386 . S
C3258 C3260 1.391 . S
C3259 C3258 1.386 . S
C3259 C3263 1.393 . S
C3260 H3249 0.950 . S
C3260 C3258 1.391 . S
C3260 C3261 1.400 . S
C3261 C3255 1.491 . S
C3261 C3260 1.400 . S
C3261 C3262 1.398 . S
C3262 H3250 0.950 . S
C3262 C3261 1.398 . S
C3262 C3263 1.391 . S
C3263 H3251 0.950 . S
C3263 C3259 1.393 . S
C3263 C3262 1.391 . S
H3264 C3272 0.950 . S
H3265 C3277 0.950 . S
H3266 C3274 0.950 . S
H3267 C3276 0.950 . S
H3268 C3278 0.950 . S
H3269 C3280 0.950 . S
H3270 C3282 0.950 . S
H3271 C3283 0.950 . S
C3272 H3264 0.950 . S
C3272 C3273 1.386 . S
C3272 C3274 1.391 . S
C3273 C3272 1.386 . S
C3273 C3277 1.393 . S
C3274 H3266 0.950 . S
C3274 C3272 1.391 . S
C3274 C3275 1.400 . S
C3275 C3274 1.400 . S
C3275 C3276 1.398 . S
C3275 C3281 1.491 . S
C3276 H3267 0.950 . S
C3276 C3275 1.398 . S
C3276 C3277 1.391 . S
C3277 H3265 0.950 . S
C3277 C3273 1.393 . S
C3277 C3276 1.391 . S
C3278 H3268 0.950 . S
C3278 C3279 1.386 . S
C3278 C3280 1.391 . S
C3279 C3278 1.386 . S
C3279 C3283 1.393 . S
C3280 H3269 0.950 . S
C3280 C3278 1.391 . S
C3280 C3281 1.400 . S
C3281 C3275 1.491 . S
C3281 C3280 1.400 . S
C3281 C3282 1.398 . S
C3282 H3270 0.950 . S
C3282 C3281 1.398 . S
C3282 C3283 1.391 . S
C3283 H3271 0.950 . S
C3283 C3279 1.393 . S
C3283 C3282 1.391 . S
H3284 C3292 0.950 . S
H3285 C3297 0.950 . S
H3286 C3294 0.950 . S
H3287 C3296 0.950 . S
H3288 C3298 0.950 . S
H3289 C3300 0.950 . S
H3290 C3302 0.950 . S
H3291 C3303 0.950 . S
C3292 H3284 0.950 . S
C3292 C3293 1.386 . S
C3292 C3294 1.391 . S
C3293 C3292 1.386 . S
C3293 C3297 1.393 . S
C3294 H3286 0.950 . S
C3294 C3292 1.391 . S
C3294 C3295 1.400 . S
C3295 C3294 1.400 . S
C3295 C3296 1.398 . S
C3295 C3301 1.491 . S
C3296 H3287 0.950 . S
C3296 C3295 1.398 . S
C3296 C3297 1.391 . S
C3297 H3285 0.950 . S
C3297 C3293 1.393 . S
C3297 C3296 1.391 . S
C3298 H3288 0.950 . S
C3298 C3299 1.386 . S
C3298 C3300 1.391 . S
C3299 C3298 1.386 . S
C3299 C3303 1.393 . S
C3300 H3289 0.950 . S
C3300 C3298 1.391 . S
C3300 C3301 1.400 . S
C3301 C3295 1.491 . S
C3301 C3300 1.400 . S
C3301 C3302 1.398 . S
C3302 H3290 0.950 . S
C3302 C3301 1.398 . S
C3302 C3303 1.391 . S
C3303 H3291 0.950 . S
C3303 C3299 1.393 . S
C3303 C3302 1.391 . S
H3304 C3312 0.950 . S
H3305 C3317 0.950 . S
H3306 C3314 0.950 . S
H3307 C3316 0.950 . S
H3308 C3318 0.950 . S
H3309 C3320 0.950 . S
H3310 C3322 0.950 . S
H3311 C3323 0.950 . S
C3312 H3304 0.950 . S
C3312 C3313 1.386 . S
C3312 C3314 1.391 . S
C3313 C3312 1.386 . S
C3313 C3317 1.393 . S
C3314 H3306 0.950 . S
C3314 C3312 1.391 . S
C3314 C3315 1.400 . S
C3315 C3314 1.400 . S
C3315 C3316 1.398 . S
C3315 C3321 1.491 . S
C3316 H3307 0.950 . S
C3316 C3315 1.398 . S
C3316 C3317 1.391 . S
C3317 H3305 0.950 . S
C3317 C3313 1.393 . S
C3317 C3316 1.391 . S
C3318 H3308 0.950 . S
C3318 C3319 1.386 . S
C3318 C3320 1.391 . S
C3319 C3318 1.386 . S
C3319 C3323 1.393 . S
C3320 H3309 0.950 . S
C3320 C3318 1.391 . S
C3320 C3321 1.400 . S
C3321 C3315 1.491 . S
C3321 C3320 1.400 . S
C3321 C3322 1.398 . S
C3322 H3310 0.950 . S
C3322 C3321 1.398 . S
C3322 C3323 1.391 . S
C3323 H3311 0.950 . S
C3323 C3319 1.393 . S
C3323 C3322 1.391 . S
H3324 C3332 0.950 . S
H3325 C3337 0.950 . S
H3326 C3334 0.950 . S
H3327 C3336 0.950 . S
H3328 C3338 0.950 . S
H3329 C3340 0.950 . S
H3330 C3342 0.950 . S
H3331 C3343 0.950 . S
C3332 H3324 0.950 . S
C3332 C3333 1.386 . S
C3332 C3334 1.391 . S
C3333 C3332 1.386 . S
C3333 C3337 1.393 . S
C3334 H3326 0.950 . S
C3334 C3332 1.391 . S
C3334 C3335 1.400 . S
C3335 C3334 1.400 . S
C3335 C3336 1.398 . S
C3335 C3341 1.491 . S
C3336 H3327 0.950 . S
C3336 C3335 1.398 . S
C3336 C3337 1.391 . S
C3337 H3325 0.950 . S
C3337 C3333 1.393 . S
C3337 C3336 1.391 . S
C3338 H3328 0.950 . S
C3338 C3339 1.386 . S
C3338 C3340 1.391 . S
C3339 C3338 1.386 . S
C3339 C3343 1.393 . S
C3340 H3329 0.950 . S
C3340 C3338 1.391 . S
C3340 C3341 1.400 . S
C3341 C3335 1.491 . S
C3341 C3340 1.400 . S
C3341 C3342 1.398 . S
C3342 H3330 0.950 . S
C3342 C3341 1.398 . S
C3342 C3343 1.391 . S
C3343 H3331 0.950 . S
C3343 C3339 1.393 . S
C3343 C3342 1.391 . S
H3344 C3352 0.950 . S
H3345 C3357 0.950 . S
H3346 C3354 0.950 . S
H3347 C3356 0.950 . S
H3348 C3358 0.950 . S
H3349 C3360 0.950 . S
H3350 C3362 0.950 . S
H3351 C3363 0.950 . S
C3352 H3344 0.950 . S
C3352 C3353 1.386 . S
C3352 C3354 1.391 . S
C3353 C3352 1.386 . S
C3353 C3357 1.393 . S
C3354 H3346 0.950 . S
C3354 C3352 1.391 . S
C3354 C3355 1.400 . S
C3355 C3354 1.400 . S
C3355 C3356 1.398 . S
C3355 C3361 1.491 . S
C3356 H3347 0.950 . S
C3356 C3355 1.398 . S
C3356 C3357 1.391 . S
C3357 H3345 0.950 . S
C3357 C3353 1.393 . S
C3357 C3356 1.391 . S
C3358 H3348 0.950 . S
C3358 C3359 1.386 . S
C3358 C3360 1.391 . S
C3359 C3358 1.386 . S
C3359 C3363 1.393 . S
C3360 H3349 0.950 . S
C3360 C3358 1.391 . S
C3360 C3361 1.400 . S
C3361 C3355 1.491 . S
C3361 C3360 1.400 . S
C3361 C3362 1.398 . S
C3362 H3350 0.950 . S
C3362 C3361 1.398 . S
C3362 C3363 1.391 . S
C3363 H3351 0.950 . S
C3363 C3359 1.393 . S
C3363 C3362 1.391 . S
H3364 C3372 0.950 . S
H3365 C3377 0.950 . S
H3366 C3374 0.950 . S
H3367 C3376 0.950 . S
H3368 C3378 0.950 . S
H3369 C3380 0.950 . S
H3370 C3382 0.950 . S
H3371 C3383 0.950 . S
C3372 H3364 0.950 . S
C3372 C3373 1.386 . S
C3372 C3374 1.391 . S
C3373 C3372 1.386 . S
C3373 C3377 1.393 . S
C3374 H3366 0.950 . S
C3374 C3372 1.391 . S
C3374 C3375 1.400 . S
C3375 C3374 1.400 . S
C3375 C3376 1.398 . S
C3375 C3381 1.491 . S
C3376 H3367 0.950 . S
C3376 C3375 1.398 . S
C3376 C3377 1.391 . S
C3377 H3365 0.950 . S
C3377 C3373 1.393 . S
C3377 C3376 1.391 . S
C3378 H3368 0.950 . S
C3378 C3379 1.386 . S
C3378 C3380 1.391 . S
C3379 C3378 1.386 . S
C3379 C3383 1.393 . S
C3380 H3369 0.950 . S
C3380 C3378 1.391 . S
C3380 C3381 1.400 . S
C3381 C3375 1.491 . S
C3381 C3380 1.400 . S
C3381 C3382 1.398 . S
C3382 H3370 0.950 . S
C3382 C3381 1.398 . S
C3382 C3383 1.391 . S
C3383 H3371 0.950 . S
C3383 C3379 1.393 . S
C3383 C3382 1.391 . S
H3384 C3392 0.950 . S
H3385 C3397 0.950 . S
H3386 C3394 0.950 . S
H3387 C3396 0.950 . S
H3388 C3398 0.950 . S
H3389 C3400 0.950 . S
H3390 C3402 0.950 . S
H3391 C3403 0.950 . S
C3392 H3384 0.950 . S
C3392 C3393 1.386 . S
C3392 C3394 1.391 . S
C3393 C3392 1.386 . S
C3393 C3397 1.393 . S
C3394 H3386 0.950 . S
C3394 C3392 1.391 . S
C3394 C3395 1.400 . S
C3395 C3394 1.400 . S
C3395 C3396 1.398 . S
C3395 C3401 1.491 . S
C3396 H3387 0.950 . S
C3396 C3395 1.398 . S
C3396 C3397 1.391 . S
C3397 H3385 0.950 . S
C3397 C3393 1.393 . S
C3397 C3396 1.391 . S
C3398 H3388 0.950 . S
C3398 C3399 1.386 . S
C3398 C3400 1.391 . S
C3399 C3398 1.386 . S
C3399 C3403 1.393 . S
C3400 H3389 0.950 . S
C3400 C3398 1.391 . S
C3400 C3401 1.400 . S
C3401 C3395 1.491 . S
C3401 C3400 1.400 . S
C3401 C3402 1.398 . S
C3402 H3390 0.950 . S
C3402 C3401 1.398 . S
C3402 C3403 1.391 . S
C3403 H3391 0.950 . S
C3403 C3399 1.393 . S
C3403 C3402 1.391 . S
H3404 C3412 0.950 . S
H3405 C3417 0.950 . S
H3406 C3414 0.950 . S
H3407 C3416 0.950 . S
H3408 C3418 0.950 . S
H3409 C3420 0.950 . S
H3410 C3422 0.950 . S
H3411 C3423 0.950 . S
C3412 H3404 0.950 . S
C3412 C3413 1.386 . S
C3412 C3414 1.391 . S
C3413 C3412 1.386 . S
C3413 C3417 1.393 . S
C3414 H3406 0.950 . S
C3414 C3412 1.391 . S
C3414 C3415 1.400 . S
C3415 C3414 1.400 . S
C3415 C3416 1.398 . S
C3415 C3421 1.491 . S
C3416 H3407 0.950 . S
C3416 C3415 1.398 . S
C3416 C3417 1.391 . S
C3417 H3405 0.950 . S
C3417 C3413 1.393 . S
C3417 C3416 1.391 . S
C3418 H3408 0.950 . S
C3418 C3419 1.386 . S
C3418 C3420 1.391 . S
C3419 C3418 1.386 . S
C3419 C3423 1.393 . S
C3420 H3409 0.950 . S
C3420 C3418 1.391 . S
C3420 C3421 1.400 . S
C3421 C3415 1.491 . S
C3421 C3420 1.400 . S
C3421 C3422 1.398 . S
C3422 H3410 0.950 . S
C3422 C3421 1.398 . S
C3422 C3423 1.391 . S
C3423 H3411 0.950 . S
C3423 C3419 1.393 . S
C3423 C3422 1.391 . S
H3424 C3432 0.950 . S
H3425 C3437 0.950 . S
H3426 C3434 0.950 . S
H3427 C3436 0.950 . S
H3428 C3438 0.950 . S
H3429 C3440 0.950 . S
H3430 C3442 0.950 . S
H3431 C3443 0.950 . S
C3432 H3424 0.950 . S
C3432 C3433 1.386 . S
C3432 C3434 1.391 . S
C3433 C3432 1.386 . S
C3433 C3437 1.393 . S
C3434 H3426 0.950 . S
C3434 C3432 1.391 . S
C3434 C3435 1.400 . S
C3435 C3434 1.400 . S
C3435 C3436 1.398 . S
C3435 C3441 1.491 . S
C3436 H3427 0.950 . S
C3436 C3435 1.398 . S
C3436 C3437 1.391 . S
C3437 H3425 0.950 . S
C3437 C3433 1.393 . S
C3437 C3436 1.391 . S
C3438 H3428 0.950 . S
C3438 C3439 1.386 . S
C3438 C3440 1.391 . S
C3439 C3438 1.386 . S
C3439 C3443 1.393 . S
C3440 H3429 0.950 . S
C3440 C3438 1.391 . S
C3440 C3441 1.400 . S
C3441 C3435 1.491 . S
C3441 C3440 1.400 . S
C3441 C3442 1.398 . S
C3442 H3430 0.950 . S
C3442 C3441 1.398 . S
C3442 C3443 1.391 . S
C3443 H3431 0.950 . S
C3443 C3439 1.393 . S
C3443 C3442 1.391 . S
H3444 C3452 0.950 . S
H3445 C3457 0.950 . S
H3446 C3454 0.950 . S
H3447 C3456 0.950 . S
H3448 C3458 0.950 . S
H3449 C3460 0.950 . S
H3450 C3462 0.950 . S
H3451 C3463 0.950 . S
C3452 H3444 0.950 . S
C3452 C3453 1.386 . S
C3452 C3454 1.391 . S
C3453 C3452 1.386 . S
C3453 C3457 1.393 . S
C3454 H3446 0.950 . S
C3454 C3452 1.391 . S
C3454 C3455 1.400 . S
C3455 C3454 1.400 . S
C3455 C3456 1.398 . S
C3455 C3461 1.491 . S
C3456 H3447 0.950 . S
C3456 C3455 1.398 . S
C3456 C3457 1.391 . S
C3457 H3445 0.950 . S
C3457 C3453 1.393 . S
C3457 C3456 1.391 . S
C3458 H3448 0.950 . S
C3458 C3459 1.386 . S
C3458 C3460 1.391 . S
C3459 C3458 1.386 . S
C3459 C3463 1.393 . S
C3460 H3449 0.950 . S
C3460 C3458 1.391 . S
C3460 C3461 1.400 . S
C3461 C3455 1.491 . S
C3461 C3460 1.400 . S
C3461 C3462 1.398 . S
C3462 H3450 0.950 . S
C3462 C3461 1.398 . S
C3462 C3463 1.391 . S
C3463 H3451 0.950 . S
C3463 C3459 1.393 . S
C3463 C3462 1.391 . S
H3464 C3472 0.950 . S
H3465 C3477 0.950 . S
H3466 C3474 0.950 . S
H3467 C3476 0.950 . S
H3468 C3478 0.950 . S
H3469 C3480 0.950 . S
H3470 C3482 0.950 . S
H3471 C3483 0.950 . S
C3472 H3464 0.950 . S
C3472 C3473 1.386 . S
C3472 C3474 1.391 . S
C3473 C3472 1.386 . S
C3473 C3477 1.393 . S
C3474 H3466 0.950 . S
C3474 C3472 1.391 . S
C3474 C3475 1.400 . S
C3475 C3474 1.400 . S
C3475 C3476 1.398 . S
C3475 C3481 1.491 . S
C3476 H3467 0.950 . S
C3476 C3475 1.398 . S
C3476 C3477 1.391 . S
C3477 H3465 0.950 . S
C3477 C3473 1.393 . S
C3477 C3476 1.391 . S
C3478 H3468 0.950 . S
C3478 C3479 1.386 . S
C3478 C3480 1.391 . S
C3479 C3478 1.386 . S
C3479 C3483 1.393 . S
C3480 H3469 0.950 . S
C3480 C3478 1.391 . S
C3480 C3481 1.400 . S
C3481 C3475 1.491 . S
C3481 C3480 1.400 . S
C3481 C3482 1.398 . S
C3482 H3470 0.950 . S
C3482 C3481 1.398 . S
C3482 C3483 1.391 . S
C3483 H3471 0.950 . S
C3483 C3479 1.393 . S
C3483 C3482 1.391 . S
H3484 C3492 0.950 . S
H3485 C3497 0.950 . S
H3486 C3494 0.950 . S
H3487 C3496 0.950 . S
H3488 C3498 0.950 . S
H3489 C3500 0.950 . S
H3490 C3502 0.950 . S
H3491 C3503 0.950 . S
C3492 H3484 0.950 . S
C3492 C3493 1.386 . S
C3492 C3494 1.391 . S
C3493 C3492 1.386 . S
C3493 C3497 1.393 . S
C3494 H3486 0.950 . S
C3494 C3492 1.391 . S
C3494 C3495 1.400 . S
C3495 C3494 1.400 . S
C3495 C3496 1.398 . S
C3495 C3501 1.491 . S
C3496 H3487 0.950 . S
C3496 C3495 1.398 . S
C3496 C3497 1.391 . S
C3497 H3485 0.950 . S
C3497 C3493 1.393 . S
C3497 C3496 1.391 . S
C3498 H3488 0.950 . S
C3498 C3499 1.386 . S
C3498 C3500 1.391 . S
C3499 C3498 1.386 . S
C3499 C3503 1.393 . S
C3500 H3489 0.950 . S
C3500 C3498 1.391 . S
C3500 C3501 1.400 . S
C3501 C3495 1.491 . S
C3501 C3500 1.400 . S
C3501 C3502 1.398 . S
C3502 H3490 0.950 . S
C3502 C3501 1.398 . S
C3502 C3503 1.391 . S
C3503 H3491 0.950 . S
C3503 C3499 1.393 . S
C3503 C3502 1.391 . S
H3504 C3512 0.950 . S
H3505 C3517 0.950 . S
H3506 C3514 0.950 . S
H3507 C3516 0.950 . S
H3508 C3518 0.950 . S
H3509 C3520 0.950 . S
H3510 C3522 0.950 . S
H3511 C3523 0.950 . S
C3512 H3504 0.950 . S
C3512 C3513 1.386 . S
C3512 C3514 1.391 . S
C3513 C3512 1.386 . S
C3513 C3517 1.393 . S
C3514 H3506 0.950 . S
C3514 C3512 1.391 . S
C3514 C3515 1.400 . S
C3515 C3514 1.400 . S
C3515 C3516 1.398 . S
C3515 C3521 1.491 1_655 S
C3516 H3507 0.950 . S
C3516 C3515 1.398 . S
C3516 C3517 1.391 . S
C3517 H3505 0.950 . S
C3517 C3513 1.393 . S
C3517 C3516 1.391 . S
C3518 H3508 0.950 . S
C3518 C3519 1.386 . S
C3518 C3520 1.391 . S
C3519 C3518 1.386 . S
C3519 C3523 1.393 . S
C3520 H3509 0.950 . S
C3520 C3518 1.391 . S
C3520 C3521 1.400 . S
C3521 C3515 1.491 1_455 S
C3521 C3520 1.400 . S
C3521 C3522 1.398 . S
C3522 H3510 0.950 . S
C3522 C3521 1.398 . S
C3522 C3523 1.391 . S
C3523 H3511 0.950 . S
C3523 C3519 1.393 . S
C3523 C3522 1.391 . S
H3524 C3532 0.950 . S
H3525 C3537 0.950 . S
H3526 C3534 0.950 . S
H3527 C3536 0.950 1_655 S
H3528 C3538 0.950 . S
H3529 C3540 0.950 . S
H3530 C3542 0.950 1_455 S
H3531 C3543 0.950 . S
C3532 H3524 0.950 . S
C3532 C3533 1.386 . S
C3532 C3534 1.391 . S
C3533 C3532 1.386 . S
C3533 C3537 1.393 . S
C3534 H3526 0.950 . S
C3534 C3532 1.391 . S
C3534 C3535 1.400 . S
C3535 C3534 1.400 . S
C3535 C3536 1.398 . S
C3535 C3541 1.491 1_455 S
C3536 H3527 0.950 1_455 S
C3536 C3535 1.398 . S
C3536 C3537 1.391 . S
C3537 H3525 0.950 . S
C3537 C3533 1.393 . S
C3537 C3536 1.391 . S
C3538 H3528 0.950 . S
C3538 C3539 1.386 . S
C3538 C3540 1.391 . S
C3539 C3538 1.386 . S
C3539 C3543 1.393 . S
C3540 H3529 0.950 . S
C3540 C3538 1.391 . S
C3540 C3541 1.400 . S
C3541 C3535 1.491 1_655 S
C3541 C3540 1.400 . S
C3541 C3542 1.398 . S
C3542 H3530 0.950 1_655 S
C3542 C3541 1.398 . S
C3542 C3543 1.391 . S
C3543 H3531 0.950 . S
C3543 C3539 1.393 . S
C3543 C3542 1.391 . S
H3544 C3552 0.950 . S
H3545 C3557 0.950 . S
H3546 C3554 0.950 . S
H3547 C3556 0.950 . S
H3548 C3558 0.950 . S
H3549 C3560 0.950 . S
H3550 C3562 0.950 . S
H3551 C3563 0.950 . S
C3552 H3544 0.950 . S
C3552 C3553 1.386 . S
C3552 C3554 1.391 . S
C3553 C3552 1.386 . S
C3553 C3557 1.393 . S
C3554 H3546 0.950 . S
C3554 C3552 1.391 . S
C3554 C3555 1.400 . S
C3555 C3554 1.400 . S
C3555 C3556 1.398 . S
C3555 C3561 1.491 . S
C3556 H3547 0.950 . S
C3556 C3555 1.398 . S
C3556 C3557 1.391 . S
C3557 H3545 0.950 . S
C3557 C3553 1.393 . S
C3557 C3556 1.391 . S
C3558 H3548 0.950 . S
C3558 C3559 1.386 . S
C3558 C3560 1.391 . S
C3559 C3558 1.386 . S
C3559 C3563 1.393 . S
C3560 H3549 0.950 . S
C3560 C3558 1.391 . S
C3560 C3561 1.400 . S
C3561 C3555 1.491 . S
C3561 C3560 1.400 . S
C3561 C3562 1.398 . S
C3562 H3550 0.950 . S
C3562 C3561 1.398 . S
C3562 C3563 1.391 . S
C3563 H3551 0.950 . S
C3563 C3559 1.393 . S
C3563 C3562 1.391 . S
H3564 C3572 0.950 . S
H3565 C3577 0.950 . S
H3566 C3574 0.950 . S
H3567 C3576 0.950 . S
H3568 C3578 0.950 . S
H3569 C3580 0.950 . S
H3570 C3582 0.950 . S
H3571 C3583 0.950 . S
C3572 H3564 0.950 . S
C3572 C3573 1.386 . S
C3572 C3574 1.391 . S
C3573 C3572 1.386 . S
C3573 C3577 1.393 . S
C3574 H3566 0.950 . S
C3574 C3572 1.391 . S
C3574 C3575 1.400 . S
C3575 C3574 1.400 . S
C3575 C3576 1.398 . S
C3575 C3581 1.491 . S
C3576 H3567 0.950 . S
C3576 C3575 1.398 . S
C3576 C3577 1.391 . S
C3577 H3565 0.950 . S
C3577 C3573 1.393 . S
C3577 C3576 1.391 . S
C3578 H3568 0.950 . S
C3578 C3579 1.386 . S
C3578 C3580 1.391 . S
C3579 C3578 1.386 . S
C3579 C3583 1.393 . S
C3580 H3569 0.950 . S
C3580 C3578 1.391 . S
C3580 C3581 1.400 . S
C3581 C3575 1.491 . S
C3581 C3580 1.400 . S
C3581 C3582 1.398 . S
C3582 H3570 0.950 . S
C3582 C3581 1.398 . S
C3582 C3583 1.391 . S
C3583 H3571 0.950 . S
C3583 C3579 1.393 . S
C3583 C3582 1.391 . S
H3584 C3592 0.950 . S
H3585 C3597 0.950 . S
H3586 C3594 0.950 . S
H3587 C3596 0.950 1_455 S
H3588 C3598 0.950 . S
H3589 C3600 0.950 . S
H3590 C3602 0.950 1_655 S
H3591 C3603 0.950 . S
C3592 H3584 0.950 . S
C3592 C3593 1.386 . S
C3592 C3594 1.391 . S
C3593 C3592 1.386 . S
C3593 C3597 1.393 . S
C3594 H3586 0.950 . S
C3594 C3592 1.391 . S
C3594 C3595 1.400 . S
C3595 C3594 1.400 . S
C3595 C3596 1.398 . S
C3595 C3601 1.491 1_655 S
C3596 H3587 0.950 1_655 S
C3596 C3595 1.398 . S
C3596 C3597 1.391 . S
C3597 H3585 0.950 . S
C3597 C3593 1.393 . S
C3597 C3596 1.391 . S
C3598 H3588 0.950 . S
C3598 C3599 1.386 . S
C3598 C3600 1.391 . S
C3599 C3598 1.386 . S
C3599 C3603 1.393 . S
C3600 H3589 0.950 . S
C3600 C3598 1.391 . S
C3600 C3601 1.400 . S
C3601 C3595 1.491 1_455 S
C3601 C3600 1.400 . S
C3601 C3602 1.398 . S
C3602 H3590 0.950 1_455 S
C3602 C3601 1.398 . S
C3602 C3603 1.391 . S
C3603 H3591 0.950 . S
C3603 C3599 1.393 . S
C3603 C3602 1.391 . S
H3604 C3612 0.950 . S
H3605 C3617 0.950 . S
H3606 C3614 0.950 . S
H3607 C3616 0.950 . S
H3608 C3618 0.950 . S
H3609 C3620 0.950 . S
H3610 C3622 0.950 . S
H3611 C3623 0.950 . S
C3612 H3604 0.950 . S
C3612 C3613 1.386 . S
C3612 C3614 1.391 . S
C3613 C3612 1.386 . S
C3613 C3617 1.393 . S
C3614 H3606 0.950 . S
C3614 C3612 1.391 . S
C3614 C3615 1.400 . S
C3615 C3614 1.400 . S
C3615 C3616 1.398 . S
C3615 C3621 1.491 . S
C3616 H3607 0.950 . S
C3616 C3615 1.398 . S
C3616 C3617 1.391 . S
C3617 H3605 0.950 . S
C3617 C3613 1.393 . S
C3617 C3616 1.391 . S
C3618 H3608 0.950 . S
C3618 C3619 1.386 . S
C3618 C3620 1.391 . S
C3619 C3618 1.386 . S
C3619 C3623 1.393 . S
C3620 H3609 0.950 . S
C3620 C3618 1.391 . S
C3620 C3621 1.400 . S
C3621 C3615 1.491 . S
C3621 C3620 1.400 . S
C3621 C3622 1.398 . S
C3622 H3610 0.950 . S
C3622 C3621 1.398 . S
C3622 C3623 1.391 . S
C3623 H3611 0.950 . S
C3623 C3619 1.393 . S
C3623 C3622 1.391 . S
H3624 C3632 0.950 . S
H3625 C3637 0.950 . S
H3626 C3634 0.950 . S
H3627 C3636 0.950 . S
H3628 C3638 0.950 . S
H3629 C3640 0.950 . S
H3630 C3642 0.950 . S
H3631 C3643 0.950 . S
C3632 H3624 0.950 . S
C3632 C3633 1.386 . S
C3632 C3634 1.391 . S
C3633 C3632 1.386 . S
C3633 C3637 1.393 . S
C3634 H3626 0.950 . S
C3634 C3632 1.391 . S
C3634 C3635 1.400 . S
C3635 C3634 1.400 . S
C3635 C3636 1.398 . S
C3635 C3641 1.491 . S
C3636 H3627 0.950 . S
C3636 C3635 1.398 . S
C3636 C3637 1.391 . S
C3637 H3625 0.950 . S
C3637 C3633 1.393 . S
C3637 C3636 1.391 . S
C3638 H3628 0.950 . S
C3638 C3639 1.386 . S
C3638 C3640 1.391 . S
C3639 C3638 1.386 . S
C3639 C3643 1.393 . S
C3640 H3629 0.950 . S
C3640 C3638 1.391 . S
C3640 C3641 1.400 . S
C3641 C3635 1.491 . S
C3641 C3640 1.400 . S
C3641 C3642 1.398 . S
C3642 H3630 0.950 . S
C3642 C3641 1.398 . S
C3642 C3643 1.391 . S
C3643 H3631 0.950 . S
C3643 C3639 1.393 . S
C3643 C3642 1.391 . S
H3644 C3652 0.950 . S
H3645 C3657 0.950 . S
H3646 C3654 0.950 . S
H3647 C3656 0.950 . S
H3648 C3658 0.950 . S
H3649 C3660 0.950 . S
H3650 C3662 0.950 . S
H3651 C3663 0.950 . S
C3652 H3644 0.950 . S
C3652 C3653 1.386 . S
C3652 C3654 1.391 . S
C3653 C3652 1.386 . S
C3653 C3657 1.393 . S
C3654 H3646 0.950 . S
C3654 C3652 1.391 . S
C3654 C3655 1.400 . S
C3655 C3654 1.400 . S
C3655 C3656 1.398 . S
C3655 C3661 1.491 1_455 S
C3656 H3647 0.950 . S
C3656 C3655 1.398 . S
C3656 C3657 1.391 . S
C3657 H3645 0.950 . S
C3657 C3653 1.393 . S
C3657 C3656 1.391 . S
C3658 H3648 0.950 . S
C3658 C3659 1.386 . S
C3658 C3660 1.391 . S
C3659 C3658 1.386 . S
C3659 C3663 1.393 . S
C3660 H3649 0.950 . S
C3660 C3658 1.391 . S
C3660 C3661 1.400 . S
C3661 C3655 1.491 1_655 S
C3661 C3660 1.400 . S
C3661 C3662 1.398 . S
C3662 H3650 0.950 . S
C3662 C3661 1.398 . S
C3662 C3663 1.391 . S
C3663 H3651 0.950 . S
C3663 C3659 1.393 . S
C3663 C3662 1.391 . S
H3664 C3672 0.950 . S
H3665 C3677 0.950 . S
H3666 C3674 0.950 . S
H3667 C3676 0.950 . S
H3668 C3678 0.950 . S
H3669 C3680 0.950 . S
H3670 C3682 0.950 . S
H3671 C3683 0.950 . S
C3672 H3664 0.950 . S
C3672 C3673 1.386 . S
C3672 C3674 1.391 . S
C3673 C3672 1.386 . S
C3673 C3677 1.393 . S
C3674 H3666 0.950 . S
C3674 C3672 1.391 . S
C3674 C3675 1.400 . S
C3675 C3674 1.400 . S
C3675 C3676 1.398 . S
C3675 C3681 1.491 1_545 S
C3676 H3667 0.950 . S
C3676 C3675 1.398 . S
C3676 C3677 1.391 . S
C3677 H3665 0.950 . S
C3677 C3673 1.393 . S
C3677 C3676 1.391 . S
C3678 H3668 0.950 . S
C3678 C3679 1.386 . S
C3678 C3680 1.391 . S
C3679 C3678 1.386 . S
C3679 C3683 1.393 . S
C3680 H3669 0.950 . S
C3680 C3678 1.391 . S
C3680 C3681 1.400 . S
C3681 C3675 1.491 1_565 S
C3681 C3680 1.400 . S
C3681 C3682 1.398 . S
C3682 H3670 0.950 . S
C3682 C3681 1.398 . S
C3682 C3683 1.391 . S
C3683 H3671 0.950 . S
C3683 C3679 1.393 . S
C3683 C3682 1.391 . S
H3684 C3692 0.950 . S
H3685 C3697 0.950 . S
H3686 C3694 0.950 . S
H3687 C3696 0.950 . S
H3688 C3698 0.950 . S
H3689 C3700 0.950 . S
H3690 C3702 0.950 . S
H3691 C3703 0.950 . S
C3692 H3684 0.950 . S
C3692 C3693 1.386 . S
C3692 C3694 1.391 . S
C3693 C3692 1.386 . S
C3693 C3697 1.393 . S
C3694 H3686 0.950 . S
C3694 C3692 1.391 . S
C3694 C3695 1.400 . S
C3695 C3694 1.400 . S
C3695 C3696 1.398 . S
C3695 C3701 1.491 . S
C3696 H3687 0.950 . S
C3696 C3695 1.398 . S
C3696 C3697 1.391 . S
C3697 H3685 0.950 . S
C3697 C3693 1.393 . S
C3697 C3696 1.391 . S
C3698 H3688 0.950 . S
C3698 C3699 1.386 . S
C3698 C3700 1.391 . S
C3699 C3698 1.386 . S
C3699 C3703 1.393 . S
C3700 H3689 0.950 . S
C3700 C3698 1.391 . S
C3700 C3701 1.400 . S
C3701 C3695 1.491 . S
C3701 C3700 1.400 . S
C3701 C3702 1.398 . S
C3702 H3690 0.950 . S
C3702 C3701 1.398 . S
C3702 C3703 1.391 . S
C3703 H3691 0.950 . S
C3703 C3699 1.393 . S
C3703 C3702 1.391 . S
H3704 C3712 0.950 . S
H3705 C3717 0.950 . S
H3706 C3714 0.950 . S
H3707 C3716 0.950 1_545 S
H3708 C3718 0.950 . S
H3709 C3720 0.950 . S
H3710 C3722 0.950 1_565 S
H3711 C3723 0.950 . S
C3712 H3704 0.950 . S
C3712 C3713 1.386 . S
C3712 C3714 1.391 . S
C3713 C3712 1.386 . S
C3713 C3717 1.393 . S
C3714 H3706 0.950 . S
C3714 C3712 1.391 . S
C3714 C3715 1.400 . S
C3715 C3714 1.400 . S
C3715 C3716 1.398 . S
C3715 C3721 1.491 1_565 S
C3716 H3707 0.950 1_565 S
C3716 C3715 1.398 . S
C3716 C3717 1.391 . S
C3717 H3705 0.950 . S
C3717 C3713 1.393 . S
C3717 C3716 1.391 . S
C3718 H3708 0.950 . S
C3718 C3719 1.386 . S
C3718 C3720 1.391 . S
C3719 C3718 1.386 . S
C3719 C3723 1.393 . S
C3720 H3709 0.950 . S
C3720 C3718 1.391 . S
C3720 C3721 1.400 . S
C3721 C3715 1.491 1_545 S
C3721 C3720 1.400 . S
C3721 C3722 1.398 . S
C3722 H3710 0.950 1_545 S
C3722 C3721 1.398 . S
C3722 C3723 1.391 . S
C3723 H3711 0.950 . S
C3723 C3719 1.393 . S
C3723 C3722 1.391 . S
H3724 C3732 0.950 . S
H3725 C3737 0.950 . S
H3726 C3734 0.950 . S
H3727 C3736 0.950 . S
H3728 C3738 0.950 . S
H3729 C3740 0.950 . S
H3730 C3742 0.950 . S
H3731 C3743 0.950 . S
C3732 H3724 0.950 . S
C3732 C3733 1.386 . S
C3732 C3734 1.391 . S
C3733 C3732 1.386 . S
C3733 C3737 1.393 . S
C3734 H3726 0.950 . S
C3734 C3732 1.391 . S
C3734 C3735 1.400 . S
C3735 C3734 1.400 . S
C3735 C3736 1.398 1_556 S
C3735 C3741 1.491 1_556 S
C3736 H3727 0.950 . S
C3736 C3735 1.398 1_554 S
C3736 C3737 1.391 1_554 S
C3737 H3725 0.950 . S
C3737 C3733 1.393 . S
C3737 C3736 1.391 1_556 S
C3738 H3728 0.950 . S
C3738 C3739 1.386 . S
C3738 C3740 1.391 . S
C3739 C3738 1.386 . S
C3739 C3743 1.393 . S
C3740 H3729 0.950 . S
C3740 C3738 1.391 . S
C3740 C3741 1.400 . S
C3741 C3735 1.491 1_554 S
C3741 C3740 1.400 . S
C3741 C3742 1.398 1_554 S
C3742 H3730 0.950 . S
C3742 C3741 1.398 1_556 S
C3742 C3743 1.391 1_556 S
C3743 H3731 0.950 . S
C3743 C3739 1.393 . S
C3743 C3742 1.391 1_554 S
H3744 C3752 0.950 . S
H3745 C3757 0.950 . S
H3746 C3754 0.950 1_554 S
H3747 C3756 0.950 . S
H3748 C3758 0.950 . S
H3749 C3760 0.950 1_556 S
H3750 C3762 0.950 . S
H3751 C3763 0.950 . S
C3752 H3744 0.950 . S
C3752 C3753 1.386 . S
C3752 C3754 1.391 . S
C3753 C3752 1.386 . S
C3753 C3757 1.393 . S
C3754 H3746 0.950 1_556 S
C3754 C3752 1.391 . S
C3754 C3755 1.400 . S
C3755 C3754 1.400 . S
C3755 C3756 1.398 . S
C3755 C3761 1.491 1_556 S
C3756 H3747 0.950 . S
C3756 C3755 1.398 . S
C3756 C3757 1.391 . S
C3757 H3745 0.950 . S
C3757 C3753 1.393 . S
C3757 C3756 1.391 . S
C3758 H3748 0.950 . S
C3758 C3759 1.386 . S
C3758 C3760 1.391 . S
C3759 C3758 1.386 . S
C3759 C3763 1.393 . S
C3760 H3749 0.950 1_554 S
C3760 C3758 1.391 . S
C3760 C3761 1.400 . S
C3761 C3755 1.491 1_554 S
C3761 C3760 1.400 . S
C3761 C3762 1.398 . S
C3762 H3750 0.950 . S
C3762 C3761 1.398 . S
C3762 C3763 1.391 . S
C3763 H3751 0.950 . S
C3763 C3759 1.393 . S
C3763 C3762 1.391 . S
H3764 C3772 0.950 . S
H3765 C3777 0.950 . S
H3766 C3774 0.900 1_556 S
H3767 C3776 0.950 . S
H3768 C3778 0.950 . S
H3769 C3780 0.900 1_554 S
H3770 C3782 0.950 . S
H3771 C3783 0.950 . S
C3772 H3764 0.950 . S
C3772 C3773 1.386 . S
C3772 C3774 1.391 . S
C3773 C3772 1.386 . S
C3773 C3777 1.393 . S
C3774 H3766 0.900 1_554 S
C3774 C3772 1.391 . S
C3774 C3775 1.400 . S
C3775 C3774 1.400 . S
C3775 C3776 1.398 . S
C3775 C3781 1.491 1_554 S
C3776 H3767 0.950 . S
C3776 C3775 1.398 . S
C3776 C3777 1.391 . S
C3777 H3765 0.950 . S
C3777 C3773 1.393 . S
C3777 C3776 1.391 . S
C3778 H3768 0.950 . S
C3778 C3779 1.386 . S
C3778 C3780 1.391 . S
C3779 C3778 1.386 . S
C3779 C3783 1.393 . S
C3780 H3769 0.900 1_556 S
C3780 C3778 1.391 . S
C3780 C3781 1.400 . S
C3781 C3775 1.491 1_556 S
C3781 C3780 1.400 . S
C3781 C3782 1.398 . S
C3782 H3770 0.950 . S
C3782 C3781 1.398 . S
C3782 C3783 1.391 . S
C3783 H3771 0.950 . S
C3783 C3779 1.393 . S
C3783 C3782 1.391 . S
H3784 C3792 0.950 . S
H3785 C3797 0.950 . S
H3786 C3794 0.950 . S
H3787 C3796 0.950 . S
H3788 C3798 0.950 . S
H3789 C3800 0.950 . S
H3790 C3802 0.950 . S
H3791 C3803 0.950 . S
C3792 H3784 0.950 . S
C3792 C3793 1.386 . S
C3792 C3794 1.391 . S
C3793 C3792 1.386 . S
C3793 C3797 1.393 . S
C3794 H3786 0.950 . S
C3794 C3792 1.391 . S
C3794 C3795 1.400 . S
C3795 C3794 1.400 . S
C3795 C3796 1.398 . S
C3795 C3801 1.491 . S
C3796 H3787 0.950 . S
C3796 C3795 1.398 . S
C3796 C3797 1.391 . S
C3797 H3785 0.950 . S
C3797 C3793 1.393 . S
C3797 C3796 1.391 . S
C3798 H3788 0.950 . S
C3798 C3799 1.386 . S
C3798 C3800 1.391 . S
C3799 C3798 1.386 . S
C3799 C3803 1.393 . S
C3800 H3789 0.950 . S
C3800 C3798 1.391 . S
C3800 C3801 1.400 . S
C3801 C3795 1.491 . S
C3801 C3800 1.400 . S
C3801 C3802 1.398 . S
C3802 H3790 0.950 . S
C3802 C3801 1.398 . S
C3802 C3803 1.391 . S
C3803 H3791 0.950 . S
C3803 C3799 1.393 . S
C3803 C3802 1.391 . S
H3804 C3812 0.950 . S
H3805 C3817 0.950 . S
H3806 C3814 0.950 . S
H3807 C3816 0.950 . S
H3808 C3818 0.950 . S
H3809 C3820 0.950 . S
H3810 C3822 0.950 . S
H3811 C3823 0.950 . S
C3812 H3804 0.950 . S
C3812 C3813 1.386 . S
C3812 C3814 1.391 . S
C3813 C3812 1.386 . S
C3813 C3817 1.393 . S
C3814 H3806 0.950 . S
C3814 C3812 1.391 . S
C3814 C3815 1.400 . S
C3815 C3814 1.400 . S
C3815 C3816 1.398 . S
C3815 C3821 1.491 . S
C3816 H3807 0.950 . S
C3816 C3815 1.398 . S
C3816 C3817 1.391 . S
C3817 H3805 0.950 . S
C3817 C3813 1.393 . S
C3817 C3816 1.391 . S
C3818 H3808 0.950 . S
C3818 C3819 1.386 . S
C3818 C3820 1.391 . S
C3819 C3818 1.386 . S
C3819 C3823 1.393 . S
C3820 H3809 0.950 . S
C3820 C3818 1.391 . S
C3820 C3821 1.400 . S
C3821 C3815 1.491 . S
C3821 C3820 1.400 . S
C3821 C3822 1.398 . S
C3822 H3810 0.950 . S
C3822 C3821 1.398 . S
C3822 C3823 1.391 . S
C3823 H3811 0.950 . S
C3823 C3819 1.393 . S
C3823 C3822 1.391 . S
H3824 C3832 0.950 . S
H3825 C3837 0.969 . S
H3826 C3834 0.950 . S
H3827 C3836 0.950 . S
H3828 C3838 0.950 . S
H3829 C3840 0.950 . S
H3830 C3842 0.950 . S
H3831 C3843 0.969 . S
C3832 H3824 0.950 . S
C3832 C3833 1.386 . S
C3832 C3834 1.391 . S
C3833 C3832 1.386 . S
C3833 C3837 1.393 . S
C3834 H3826 0.950 . S
C3834 C3832 1.391 . S
C3834 C3835 1.400 . S
C3835 C3834 1.400 . S
C3835 C3836 1.398 1_545 S
C3835 C3841 1.491 1_545 S
C3836 H3827 0.950 . S
C3836 C3835 1.398 1_565 S
C3836 C3837 1.391 1_565 S
C3837 H3825 0.969 . S
C3837 C3833 1.393 . S
C3837 C3836 1.391 1_545 S
C3838 H3828 0.950 . S
C3838 C3839 1.386 . S
C3838 C3840 1.391 . S
C3839 C3838 1.386 . S
C3839 C3843 1.393 . S
C3840 H3829 0.950 . S
C3840 C3838 1.391 . S
C3840 C3841 1.400 . S
C3841 C3835 1.491 1_565 S
C3841 C3840 1.400 . S
C3841 C3842 1.398 1_565 S
C3842 H3830 0.950 . S
C3842 C3841 1.398 1_545 S
C3842 C3843 1.391 1_545 S
C3843 H3831 0.969 . S
C3843 C3839 1.393 . S
C3843 C3842 1.391 1_565 S
H3844 C3852 0.950 . S
H3845 C3857 0.950 . S
H3846 C3854 0.950 . S
H3847 C3856 0.950 . S
H3848 C3858 0.950 . S
H3849 C3860 0.950 . S
H3850 C3862 0.950 . S
H3851 C3863 0.950 . S
C3852 H3844 0.950 . S
C3852 C3853 1.386 . S
C3852 C3854 1.391 . S
C3853 C3852 1.386 . S
C3853 C3857 1.393 . S
C3854 H3846 0.950 . S
C3854 C3852 1.391 . S
C3854 C3855 1.400 . S
C3855 C3854 1.400 . S
C3855 C3856 1.398 . S
C3855 C3861 1.491 . S
C3856 H3847 0.950 . S
C3856 C3855 1.398 . S
C3856 C3857 1.391 . S
C3857 H3845 0.950 . S
C3857 C3853 1.393 . S
C3857 C3856 1.391 . S
C3858 H3848 0.950 . S
C3858 C3859 1.386 . S
C3858 C3860 1.391 . S
C3859 C3858 1.386 . S
C3859 C3863 1.393 . S
C3860 H3849 0.950 . S
C3860 C3858 1.391 . S
C3860 C3861 1.400 . S
C3861 C3855 1.491 . S
C3861 C3860 1.400 . S
C3861 C3862 1.398 . S
C3862 H3850 0.950 . S
C3862 C3861 1.398 . S
C3862 C3863 1.391 . S
C3863 H3851 0.950 . S
C3863 C3859 1.393 . S
C3863 C3862 1.391 . S
H3864 C3872 0.950 . S
H3865 C3877 0.950 . S
H3866 C3874 0.950 . S
H3867 C3876 0.950 . S
H3868 C3878 0.950 . S
H3869 C3880 0.950 . S
H3870 C3882 0.950 . S
H3871 C3883 0.950 . S
C3872 H3864 0.950 . S
C3872 C3873 1.386 . S
C3872 C3874 1.391 . S
C3873 C3872 1.386 . S
C3873 C3877 1.393 . S
C3874 H3866 0.950 . S
C3874 C3872 1.391 . S
C3874 C3875 1.400 . S
C3875 C3874 1.400 . S
C3875 C3876 1.398 . S
C3875 C3881 1.491 . S
C3876 H3867 0.950 . S
C3876 C3875 1.398 . S
C3876 C3877 1.391 . S
C3877 H3865 0.950 . S
C3877 C3873 1.393 . S
C3877 C3876 1.391 . S
C3878 H3868 0.950 . S
C3878 C3879 1.386 . S
C3878 C3880 1.391 . S
C3879 C3878 1.386 . S
C3879 C3883 1.393 . S
C3880 H3869 0.950 . S
C3880 C3878 1.391 . S
C3880 C3881 1.400 . S
C3881 C3875 1.491 . S
C3881 C3880 1.400 . S
C3881 C3882 1.398 . S
C3882 H3870 0.950 . S
C3882 C3881 1.398 . S
C3882 C3883 1.391 . S
C3883 H3871 0.950 . S
C3883 C3879 1.393 . S
C3883 C3882 1.391 . S
H3884 C3892 0.950 . S
H3885 C3897 0.950 . S
H3886 C3894 0.950 . S
H3887 C3896 0.950 . S
H3888 C3898 0.950 . S
H3889 C3900 0.950 . S
H3890 C3902 0.950 . S
H3891 C3903 0.950 . S
C3892 H3884 0.950 . S
C3892 C3893 1.386 . S
C3892 C3894 1.391 . S
C3893 C3892 1.386 . S
C3893 C3897 1.393 . S
C3894 H3886 0.950 . S
C3894 C3892 1.391 . S
C3894 C3895 1.400 . S
C3895 C3894 1.400 . S
C3895 C3896 1.398 . S
C3895 C3901 1.491 . S
C3896 H3887 0.950 . S
C3896 C3895 1.398 . S
C3896 C3897 1.391 . S
C3897 H3885 0.950 . S
C3897 C3893 1.393 . S
C3897 C3896 1.391 . S
C3898 H3888 0.950 . S
C3898 C3899 1.386 . S
C3898 C3900 1.391 . S
C3899 C3898 1.386 . S
C3899 C3903 1.393 . S
C3900 H3889 0.950 . S
C3900 C3898 1.391 . S
C3900 C3901 1.400 . S
C3901 C3895 1.491 . S
C3901 C3900 1.400 . S
C3901 C3902 1.398 . S
C3902 H3890 0.950 . S
C3902 C3901 1.398 . S
C3902 C3903 1.391 . S
C3903 H3891 0.950 . S
C3903 C3899 1.393 . S
C3903 C3902 1.391 . S
H3904 C3912 0.950 . S
H3905 C3917 0.950 . S
H3906 C3914 0.950 . S
H3907 C3916 0.950 . S
H3908 C3918 0.950 . S
H3909 C3920 0.950 . S
H3910 C3922 0.950 . S
H3911 C3923 0.950 . S
C3912 H3904 0.950 . S
C3912 C3913 1.386 . S
C3912 C3914 1.391 . S
C3913 C3912 1.386 . S
C3913 C3917 1.393 . S
C3914 H3906 0.950 . S
C3914 C3912 1.391 . S
C3914 C3915 1.400 . S
C3915 C3914 1.400 . S
C3915 C3916 1.398 . S
C3915 C3921 1.491 1_554 S
C3916 H3907 0.950 . S
C3916 C3915 1.398 . S
C3916 C3917 1.391 . S
C3917 H3905 0.950 . S
C3917 C3913 1.393 . S
C3917 C3916 1.391 . S
C3918 H3908 0.950 . S
C3918 C3919 1.386 . S
C3918 C3920 1.391 . S
C3919 C3918 1.386 . S
C3919 C3923 1.393 . S
C3920 H3909 0.950 . S
C3920 C3918 1.391 . S
C3920 C3921 1.400 . S
C3921 C3915 1.491 1_556 S
C3921 C3920 1.400 . S
C3921 C3922 1.398 . S
C3922 H3910 0.950 . S
C3922 C3921 1.398 . S
C3922 C3923 1.391 . S
C3923 H3911 0.950 . S
C3923 C3919 1.393 . S
C3923 C3922 1.391 . S
H3924 C3932 0.950 . S
H3925 C3937 0.950 . S
H3926 C3934 0.950 . S
H3927 C3936 0.950 . S
H3928 C3938 0.950 . S
H3929 C3940 0.950 . S
H3930 C3942 0.950 . S
H3931 C3943 0.950 . S
C3932 H3924 0.950 . S
C3932 C3933 1.386 . S
C3932 C3934 1.391 . S
C3933 C3932 1.386 . S
C3933 C3937 1.393 . S
C3934 H3926 0.950 . S
C3934 C3932 1.391 . S
C3934 C3935 1.400 . S
C3935 C3934 1.400 . S
C3935 C3936 1.398 . S
C3935 C3941 1.491 . S
C3936 H3927 0.950 . S
C3936 C3935 1.398 . S
C3936 C3937 1.391 . S
C3937 H3925 0.950 . S
C3937 C3933 1.393 . S
C3937 C3936 1.391 . S
C3938 H3928 0.950 . S
C3938 C3939 1.386 . S
C3938 C3940 1.391 . S
C3939 C3938 1.386 . S
C3939 C3943 1.393 . S
C3940 H3929 0.950 . S
C3940 C3938 1.391 . S
C3940 C3941 1.400 . S
C3941 C3935 1.491 . S
C3941 C3940 1.400 . S
C3941 C3942 1.398 . S
C3942 H3930 0.950 . S
C3942 C3941 1.398 . S
C3942 C3943 1.391 . S
C3943 H3931 0.950 . S
C3943 C3939 1.393 . S
C3943 C3942 1.391 . S
H3944 C3952 0.950 . S
H3945 C3957 0.950 . S
H3946 C3954 0.950 . S
H3947 C3956 0.950 . S
H3948 C3958 0.950 . S
H3949 C3960 0.950 . S
H3950 C3962 0.950 . S
H3951 C3963 0.950 . S
C3952 H3944 0.950 . S
C3952 C3953 1.386 . S
C3952 C3954 1.391 . S
C3953 C3952 1.386 . S
C3953 C3957 1.393 . S
C3954 H3946 0.950 . S
C3954 C3952 1.391 . S
C3954 C3955 1.400 . S
C3955 C3954 1.400 . S
C3955 C3956 1.398 . S
C3955 C3961 1.491 . S
C3956 H3947 0.950 . S
C3956 C3955 1.398 . S
C3956 C3957 1.391 . S
C3957 H3945 0.950 . S
C3957 C3953 1.393 . S
C3957 C3956 1.391 . S
C3958 H3948 0.950 . S
C3958 C3959 1.386 . S
C3958 C3960 1.391 . S
C3959 C3958 1.386 . S
C3959 C3963 1.393 . S
C3960 H3949 0.950 . S
C3960 C3958 1.391 . S
C3960 C3961 1.400 . S
C3961 C3955 1.491 . S
C3961 C3960 1.400 . S
C3961 C3962 1.398 . S
C3962 H3950 0.950 . S
C3962 C3961 1.398 . S
C3962 C3963 1.391 . S
C3963 H3951 0.950 . S
C3963 C3959 1.393 . S
C3963 C3962 1.391 . S
H3964 C3972 0.950 . S
H3965 C3977 0.950 . S
H3966 C3974 0.950 . S
H3967 C3976 0.950 . S
H3968 C3978 0.950 . S
H3969 C3980 0.950 . S
H3970 C3982 0.950 . S
H3971 C3983 0.950 . S
C3972 H3964 0.950 . S
C3972 C3973 1.386 . S
C3972 C3974 1.391 . S
C3973 C3972 1.386 . S
C3973 C3977 1.393 . S
C3974 H3966 0.950 . S
C3974 C3972 1.391 . S
C3974 C3975 1.400 . S
C3975 C3974 1.400 . S
C3975 C3976 1.398 1_565 S
C3975 C3981 1.491 1_565 S
C3976 H3967 0.950 . S
C3976 C3975 1.398 1_545 S
C3976 C3977 1.391 1_545 S
C3977 H3965 0.950 . S
C3977 C3973 1.393 . S
C3977 C3976 1.391 1_565 S
C3978 H3968 0.950 . S
C3978 C3979 1.386 . S
C3978 C3980 1.391 . S
C3979 C3978 1.386 . S
C3979 C3983 1.393 . S
C3980 H3969 0.950 . S
C3980 C3978 1.391 . S
C3980 C3981 1.400 . S
C3981 C3975 1.491 1_545 S
C3981 C3980 1.400 . S
C3981 C3982 1.398 1_545 S
C3982 H3970 0.950 . S
C3982 C3981 1.398 1_565 S
C3982 C3983 1.391 1_565 S
C3983 H3971 0.950 . S
C3983 C3979 1.393 . S
C3983 C3982 1.391 1_545 S
C1593 C8 2.200 . S
C1599 C668 2.203 1_455 S
C1613 C1361 2.203 . S
C1619 C41 2.200 . S
C1633 C1394 2.204 . S
C1639 C74 2.204 . S
C1653 C107 2.204 1_556 S
C1659 C1427 2.203 . S
C1673 C140 2.201 . S
C1679 C1559 2.204 1_455 S
C1693 C701 2.204 . S
C1699 C173 2.202 . S
C1713 C206 2.204 . S
C1719 C1526 2.203 . S
C1733 C239 2.204 1_554 S
C1739 C536 2.203 . S
C1753 C272 2.200 . S
C1759 C503 2.202 1_545 S
C1773 C305 2.201 1_565 S
C1779 C404 2.199 . S
C1793 C437 2.199 1_565 S
C1799 C338 2.202 . S
C1813 C470 2.200 . S
C1819 C371 2.200 1_545 S
C1833 C833 2.204 1_556 S
C1839 C569 2.201 . S
C1853 C602 2.204 1_655 S
C1859 C866 2.202 . S
C1873 C899 2.203 . S
C1879 C635 2.204 . S
C1893 C734 2.203 1_655 S
C1899 C998 2.200 . S
C1913 C767 2.199 . S
C1919 C932 2.202 . S
C1933 C1460 2.204 . S
C1939 C800 2.202 . S
C1953 C1493 2.203 . S
C1959 C965 2.201 1_554 S
C1973 C1031 2.201 . S
C1979 C1328 2.203 . S
C1993 C1295 2.203 . S
C1999 C1064 2.200 . S
C2013 C1196 2.201 . S
C2019 C1097 2.199 . S
C2033 C1130 2.200 . S
C2039 C1229 2.203 . S
C2053 C1163 2.202 . S
C2059 C1262 2.204 . S
C2073 N533 1.278 . S
C2079 C28 1.189 . S
C2093 N1556 1.278 . S
C2099 C61 1.180 . S
C2113 N698 1.281 . S
C2119 C94 1.172 . S
C2133 C127 1.205 . S
C2139 N1523 1.270 . S
C2153 N1358 1.271 . S
C2159 C160 1.208 . S
C2173 C193 1.171 . S
C2179 N1391 1.282 . S
C2193 N1424 1.282 . S
C2199 C226 1.171 . S
C2213 C259 1.187 . S
C2219 N665 1.275 . S
C2233 C292 1.174 . S
C2239 N5 1.282 . S
C2253 N38 1.273 . S
C2259 C325 1.205 . S
C2273 N71 1.278 . S
C2279 C358 1.179 . S
C2293 N104 1.269 . S
C2299 C391 1.210 . S
C2313 C424 1.213 . S
C2319 N137 1.269 . S
C2333 C457 1.214 . S
C2339 N170 1.268 . S
C2353 C490 1.185 . S
C2359 N203 1.279 . S
C2373 C523 1.178 . S
C2379 N236 1.279 . S
C2393 N269 1.271 . S
C2399 C556 1.208 . S
C2413 C589 1.172 . S
C2419 N1193 1.282 . S
C2433 C622 1.172 . S
C2439 N1226 1.282 . S
C2453 N1259 1.274 . S
C2459 C655 1.192 . S
C2473 C688 1.200 . S
C2479 N500 1.274 . S
C2493 C721 1.193 . S
C2499 N335 1.276 . S
C2513 N1160 1.275 . S
C2519 C754 1.199 . S
C2533 C787 1.193 . S
C2539 N1094 1.277 . S
C2553 C820 1.205 . S
C2559 N1325 1.270 . S
C2573 C853 1.211 . S
C2579 N764 1.270 . S
C2593 C886 1.213 . S
C2599 N1490 1.269 . S
C2613 C919 1.214 . S
C2619 N731 1.268 . S
C2633 N566 1.269 . S
C2639 C952 1.213 . S
C2653 C985 1.203 . S
C2659 N599 1.273 . S
C2673 C1018 1.210 . S
C2679 N632 1.269 . S
C2693 C1051 1.201 . S
C2699 N1457 1.271 . S
C2713 N797 1.278 . S
C2719 C1084 1.189 . S
C2733 C1117 1.184 . S
C2739 N830 1.279 . S
C2753 N863 1.268 . S
C2759 C1150 1.214 . S
C2773 N896 1.278 . S
C2779 C1183 1.190 . S
C2793 N929 1.270 . S
C2799 C1216 1.203 . S
C2813 N962 1.268 . S
C2819 C1249 1.213 . S
C2833 C1282 1.187 . S
C2839 N995 1.279 . S
C2853 C1315 1.178 . S
C2859 N1028 1.281 . S
C2873 N1061 1.282 . S
C2879 C1348 1.171 . S
C2893 C1381 1.201 . S
C2899 N401 1.274 . S
C2913 C1414 1.197 . S
C2919 N434 1.275 . S
C2933 C1447 1.202 . S
C2939 N467 1.271 . S
C2953 N1292 1.269 . S
C2959 C1480 1.208 . S
C2973 N1127 1.281 . S
C2979 C1513 1.172 . S
C2993 N368 1.272 . S
C2999 C1546 1.206 . S
C3013 C1579 1.213 . S
C3019 N302 1.268 . S
C3033 C314 1.252 . S
C3039 C17 1.267 . S
C3053 C347 1.269 . S
C3059 C50 1.250 . S
C3073 C83 1.244 . S
C3079 C380 1.274 . S
C3093 C116 1.251 . S
C3099 C281 1.268 . S
C3113 C149 1.260 . S
C3119 C512 1.259 . S
C3133 C413 1.253 . S
C3139 C182 1.266 . S
C3153 C446 1.246 . S
C3159 C215 1.272 . S
C3173 C248 1.244 . S
C3179 C479 1.275 . S
C3193 C545 1.265 . S
C3199 C611 1.253 . S
C3213 C1535 1.258 . S
C3219 C578 1.260 . S
C3233 C1568 1.268 . S
C3239 C644 1.250 . S
C3253 C1502 1.246 . S
C3259 C677 1.272 . S
C3273 C710 1.255 . S
C3279 C1469 1.264 . S
C3293 C1370 1.269 . S
C3299 C743 1.249 . S
C3313 C1436 1.245 . S
C3319 C776 1.273 . S
C3333 C1106 1.260 . S
C3339 C809 1.259 . S
C3353 C1139 1.252 . S
C3359 C842 1.267 . S
C3373 C875 1.274 . S
C3379 C1172 1.245 . S
C3393 C1073 1.257 . S
C3399 C908 1.262 . S
C3413 C1304 1.265 . S
C3419 C941 1.254 . S
C3433 C974 1.272 . S
C3439 C1205 1.247 . S
C3453 C1238 1.274 . S
C3459 C1007 1.245 . S
C3473 C1040 1.244 . S
C3479 C1271 1.275 . S
C3493 C1337 1.270 . S
C3499 C1403 1.248 . S
C3513 N872 1.560 . S
C3519 N14 1.560 . S
C3533 N47 1.559 . S
C3539 N905 1.559 . S
C3553 N806 1.555 . S
C3559 N80 1.554 . S
C3573 N839 1.559 . S
C3579 N113 1.559 . S
C3593 N1004 1.557 . S
C3599 N146 1.557 . S
C3613 N1037 1.557 . S
C3619 N179 1.558 . S
C3633 N938 1.561 . S
C3639 N212 1.561 . S
C3653 N245 1.562 . S
C3659 N971 1.562 . S
C3673 N278 1.547 . S
C3679 N410 1.547 . S
C3693 N311 1.546 . S
C3699 N443 1.546 . S
C3713 N344 1.554 . S
C3719 N476 1.554 . S
C3733 N377 1.555 . S
C3739 N509 1.554 . S
C3753 N1433 1.551 . S
C3759 N542 1.551 . S
C3773 N1499 1.557 . S
C3779 N575 1.557 . S
C3793 N608 1.545 . S
C3799 N740 1.545 . S
C3813 N1334 1.550 . S
C3819 N641 1.550 . S
C3833 N674 1.551 . S
C3839 N1565 1.551 . S
C3853 N707 1.545 . S
C3859 N1367 1.545 . S
C3873 N773 1.557 . S
C3879 N1466 1.558 . S
C3893 N1070 1.561 . S
C3899 N1202 1.561 . S
C3913 N1235 1.561 . S
C3919 N1103 1.561 . S
C3933 N1268 1.557 . S
C3939 N1136 1.557 . S
C3953 N1169 1.550 . S
C3959 N1301 1.550 . S
C3973 N1400 1.550 . S
C3979 N1532 1.550 . S
