# Generated by pormake.
# Topology cbo, (4)-cn, num edge types: 1
# Building blocks:
#     Node 0, Type 0, BuildingBlock: CEKHIL_clean_sbu_0, # of connection points: 4
#     Node 1, Type 0, BuildingBlock: CEKHIL_clean_sbu_0, # of connection points: 4
#     Node 2, Type 0, BuildingBlock: CEKHIL_clean_sbu_0, # of connection points: 4
#     Node 3, Type 0, BuildingBlock: CEKHIL_clean_sbu_0, # of connection points: 4
#     Node 4, Type 0, BuildingBlock: CEKHIL_clean_sbu_0, # of connection points: 4
#     Node 5, Type 0, BuildingBlock: CEKHIL_clean_sbu_0, # of connection points: 4
#     Node 6, Type 0, BuildingBlock: CEKHIL_clean_sbu_0, # of connection points: 4
#     Node 7, Type 0, BuildingBlock: CEKHIL_clean_sbu_0, # of connection points: 4
#     Node 8, Type 0, BuildingBlock: CEKHIL_clean_sbu_0, # of connection points: 4
#     Node 9, Type 0, BuildingBlock: CEKHIL_clean_sbu_0, # of connection points: 4
#     Node 10, Type 0, BuildingBlock: CEKHIL_clean_sbu_0, # of connection points: 4
#     Node 11, Type 0, BuildingBlock: CEKHIL_clean_sbu_0, # of connection points: 4
#     Node 12, Type 0, BuildingBlock: CEKHIL_clean_sbu_0, # of connection points: 4
#     Node 13, Type 0, BuildingBlock: CEKHIL_clean_sbu_0, # of connection points: 4
#     Node 14, Type 0, BuildingBlock: CEKHIL_clean_sbu_0, # of connection points: 4
#     Node 15, Type 0, BuildingBlock: CEKHIL_clean_sbu_0, # of connection points: 4
#     Node 16, Type 0, BuildingBlock: CEKHIL_clean_sbu_0, # of connection points: 4
#     Node 17, Type 0, BuildingBlock: CEKHIL_clean_sbu_0, # of connection points: 4
#     Node 18, Type 0, BuildingBlock: CEKHIL_clean_sbu_0, # of connection points: 4
#     Node 19, Type 0, BuildingBlock: CEKHIL_clean_sbu_0, # of connection points: 4
#     Node 20, Type 0, BuildingBlock: CEKHIL_clean_sbu_0, # of connection points: 4
#     Node 21, Type 0, BuildingBlock: CEKHIL_clean_sbu_0, # of connection points: 4
#     Node 22, Type 0, BuildingBlock: CEKHIL_clean_sbu_0, # of connection points: 4
#     Node 23, Type 0, BuildingBlock: CEKHIL_clean_sbu_0, # of connection points: 4
#     Edge 24, Type (0, 0), BuildingBlock: XUDNAN_clean_linker_2, # of connection points: 2
#     Edge 25, Type (0, 0), BuildingBlock: XUDNAN_clean_linker_2, # of connection points: 2
#     Edge 26, Type (0, 0), BuildingBlock: XUDNAN_clean_linker_2, # of connection points: 2
#     Edge 27, Type (0, 0), BuildingBlock: XUDNAN_clean_linker_2, # of connection points: 2
#     Edge 28, Type (0, 0), BuildingBlock: XUDNAN_clean_linker_2, # of connection points: 2
#     Edge 29, Type (0, 0), BuildingBlock: XUDNAN_clean_linker_2, # of connection points: 2
#     Edge 30, Type (0, 0), BuildingBlock: XUDNAN_clean_linker_2, # of connection points: 2
#     Edge 31, Type (0, 0), BuildingBlock: XUDNAN_clean_linker_2, # of connection points: 2
#     Edge 32, Type (0, 0), BuildingBlock: XUDNAN_clean_linker_2, # of connection points: 2
#     Edge 33, Type (0, 0), BuildingBlock: XUDNAN_clean_linker_2, # of connection points: 2
#     Edge 34, Type (0, 0), BuildingBlock: XUDNAN_clean_linker_2, # of connection points: 2
#     Edge 35, Type (0, 0), BuildingBlock: XUDNAN_clean_linker_2, # of connection points: 2
#     Edge 36, Type (0, 0), BuildingBlock: XUDNAN_clean_linker_2, # of connection points: 2
#     Edge 37, Type (0, 0), BuildingBlock: XUDNAN_clean_linker_2, # of connection points: 2
#     Edge 38, Type (0, 0), BuildingBlock: XUDNAN_clean_linker_2, # of connection points: 2
#     Edge 39, Type (0, 0), BuildingBlock: XUDNAN_clean_linker_2, # of connection points: 2
#     Edge 40, Type (0, 0), BuildingBlock: XUDNAN_clean_linker_2, # of connection points: 2
#     Edge 41, Type (0, 0), BuildingBlock: XUDNAN_clean_linker_2, # of connection points: 2
#     Edge 42, Type (0, 0), BuildingBlock: XUDNAN_clean_linker_2, # of connection points: 2
#     Edge 43, Type (0, 0), BuildingBlock: XUDNAN_clean_linker_2, # of connection points: 2
#     Edge 44, Type (0, 0), BuildingBlock: XUDNAN_clean_linker_2, # of connection points: 2
#     Edge 45, Type (0, 0), BuildingBlock: XUDNAN_clean_linker_2, # of connection points: 2
#     Edge 46, Type (0, 0), BuildingBlock: XUDNAN_clean_linker_2, # of connection points: 2
#     Edge 47, Type (0, 0), BuildingBlock: XUDNAN_clean_linker_2, # of connection points: 2
#     Edge 48, Type (0, 0), BuildingBlock: XUDNAN_clean_linker_2, # of connection points: 2
#     Edge 49, Type (0, 0), BuildingBlock: XUDNAN_clean_linker_2, # of connection points: 2
#     Edge 50, Type (0, 0), BuildingBlock: XUDNAN_clean_linker_2, # of connection points: 2
#     Edge 51, Type (0, 0), BuildingBlock: XUDNAN_clean_linker_2, # of connection points: 2
#     Edge 52, Type (0, 0), BuildingBlock: XUDNAN_clean_linker_2, # of connection points: 2
#     Edge 53, Type (0, 0), BuildingBlock: XUDNAN_clean_linker_2, # of connection points: 2
#     Edge 54, Type (0, 0), BuildingBlock: XUDNAN_clean_linker_2, # of connection points: 2
#     Edge 55, Type (0, 0), BuildingBlock: XUDNAN_clean_linker_2, # of connection points: 2
#     Edge 56, Type (0, 0), BuildingBlock: XUDNAN_clean_linker_2, # of connection points: 2
#     Edge 57, Type (0, 0), BuildingBlock: XUDNAN_clean_linker_2, # of connection points: 2
#     Edge 58, Type (0, 0), BuildingBlock: XUDNAN_clean_linker_2, # of connection points: 2
#     Edge 59, Type (0, 0), BuildingBlock: XUDNAN_clean_linker_2, # of connection points: 2
#     Edge 60, Type (0, 0), BuildingBlock: XUDNAN_clean_linker_2, # of connection points: 2
#     Edge 61, Type (0, 0), BuildingBlock: XUDNAN_clean_linker_2, # of connection points: 2
#     Edge 62, Type (0, 0), BuildingBlock: XUDNAN_clean_linker_2, # of connection points: 2
#     Edge 63, Type (0, 0), BuildingBlock: XUDNAN_clean_linker_2, # of connection points: 2
#     Edge 64, Type (0, 0), BuildingBlock: XUDNAN_clean_linker_2, # of connection points: 2
#     Edge 65, Type (0, 0), BuildingBlock: XUDNAN_clean_linker_2, # of connection points: 2
#     Edge 66, Type (0, 0), BuildingBlock: XUDNAN_clean_linker_2, # of connection points: 2
#     Edge 67, Type (0, 0), BuildingBlock: XUDNAN_clean_linker_2, # of connection points: 2
#     Edge 68, Type (0, 0), BuildingBlock: XUDNAN_clean_linker_2, # of connection points: 2
#     Edge 69, Type (0, 0), BuildingBlock: XUDNAN_clean_linker_2, # of connection points: 2
#     Edge 70, Type (0, 0), BuildingBlock: XUDNAN_clean_linker_2, # of connection points: 2
#     Edge 71, Type (0, 0), BuildingBlock: XUDNAN_clean_linker_2, # of connection points: 2
# Relax obj value: 0.197
# Max RMSD: 0.203
# Mean RMSD: 0.197
data_MOF--net-cbo--node1-CEKHIL_clean_sbu_0--edge1-XUDNAN_clean_linker_2
_symmetry_space_group_name_H-M    P1
_symmetry_Int_Tables_number       1
_symmetry_cell_setting            triclinic
loop_
_symmetry_equiv_pos_as_xyz
'x, y, z'
_cell_length_a     51.998817
_cell_length_b     51.276672
_cell_length_c     50.626507
_cell_angle_alpha  89.992973
_cell_angle_beta   89.987282
_cell_angle_gamma 89.988419
loop_
_atom_site_label
_atom_site_type_symbol
_atom_site_fract_x
_atom_site_fract_y
_atom_site_fract_z
_atom_type_partial_charge
Co0 Co 0.10148 0.18791 0.31843 0.0
O1 O 0.06508 0.18882 0.32397 0.0
O2 O 0.08746 0.15318 0.31425 0.0
C3 C 0.10436 0.2225 0.29132 0.0
O4 O 0.13913 0.18011 0.31054 0.0
Co5 Co 0.13468 0.23468 0.33828 0.0
O6 O 0.16285 0.21571 0.3202 0.0
C7 C 0.11295 0.19764 0.37646 0.0
C8 C 0.06534 0.16394 0.31933 0.0
C9 C 0.1606 0.19263 0.31111 0.0
O10 O 0.10696 0.18204 0.35751 0.0
O11 O 0.12158 0.22071 0.37265 0.0
O12 O 0.09741 0.19994 0.28208 0.0
O13 O 0.10594 0.22398 0.31671 0.0
Co14 Co 0.39796 0.831 0.81929 0.0
O15 O 0.43399 0.83021 0.82692 0.0
O16 O 0.41101 0.86635 0.82159 0.0
C17 C 0.39805 0.80134 0.78659 0.0
O18 O 0.36049 0.8386 0.81056 0.0
Co19 Co 0.36627 0.7804 0.83006 0.0
O20 O 0.33777 0.80129 0.81504 0.0
C21 C 0.38243 0.81314 0.87457 0.0
C22 C 0.43318 0.85547 0.82616 0.0
C23 C 0.33943 0.82543 0.80924 0.0
O24 O 0.38997 0.8308 0.85828 0.0
O25 O 0.37482 0.79053 0.86727 0.0
O26 O 0.40463 0.82531 0.78193 0.0
O27 O 0.39505 0.79543 0.81124 0.0
Co28 Co 0.60096 0.30194 0.67453 0.0
O29 O 0.56543 0.29133 0.67363 0.0
O30 O 0.57922 0.33192 0.67971 0.0
C31 C 0.61525 0.26999 0.70112 0.0
O32 O 0.63533 0.32021 0.6788 0.0
Co33 Co 0.64513 0.2673 0.65264 0.0
O34 O 0.66752 0.2916 0.67283 0.0
C35 C 0.61062 0.29475 0.61587 0.0
C36 C 0.56012 0.31569 0.6781 0.0
C37 C 0.65919 0.31374 0.68043 0.0
O38 O 0.60106 0.30796 0.63513 0.0
O39 O 0.62655 0.27598 0.61907 0.0
O40 O 0.6036 0.29016 0.71106 0.0
O41 O 0.61534 0.26854 0.67565 0.0
Co42 Co 0.89808 0.68002 0.1824 0.0
O43 O 0.93463 0.67877 0.1779 0.0
O44 O 0.90972 0.64406 0.18363 0.0
C45 C 0.89758 0.71309 0.21156 0.0
O46 O 0.85975 0.67452 0.18911 0.0
Co47 Co 0.86851 0.73042 0.16571 0.0
O48 O 0.83887 0.71255 0.18241 0.0
C49 C 0.88657 0.69377 0.12504 0.0
C50 C 0.93263 0.65369 0.18013 0.0
C51 C 0.83926 0.6887 0.18953 0.0
O52 O 0.89274 0.6771 0.14297 0.0
O53 O 0.87909 0.71699 0.13024 0.0
O54 O 0.90223 0.68948 0.21964 0.0
O55 O 0.89632 0.71605 0.18633 0.0
Co56 Co 0.33031 0.10575 0.17872 0.0
O57 O 0.335 0.06909 0.18552 0.0
O58 O 0.32987 0.08684 0.14585 0.0
C59 C 0.30135 0.11317 0.21092 0.0
O60 O 0.32327 0.14185 0.16369 0.0
Co61 Co 0.34383 0.14865 0.2197 0.0
O62 O 0.32449 0.17214 0.1957 0.0
C63 C 0.38538 0.1223 0.19015 0.0
C64 C 0.33332 0.06606 0.16009 0.0
C65 C 0.31952 0.16525 0.17207 0.0
O66 O 0.36871 0.11067 0.1755 0.0
O67 O 0.37921 0.13661 0.20989 0.0
O68 O 0.29398 0.10311 0.18857 0.0
O69 O 0.32583 0.11607 0.21377 0.0
Co70 Co 0.16791 0.89308 0.67192 0.0
O71 O 0.16674 0.93036 0.67032 0.0
O72 O 0.16992 0.90433 0.6354 0.0
C73 C 0.1964 0.89039 0.7051 0.0
O74 O 0.17125 0.85367 0.66675 0.0
Co75 Co 0.14824 0.8654 0.72264 0.0
O76 O 0.16299 0.83391 0.70564 0.0
C77 C 0.11099 0.88801 0.68574 0.0
C78 C 0.16858 0.92787 0.64493 0.0
C79 C 0.17027 0.83322 0.68159 0.0
O80 O 0.12928 0.89144 0.66902 0.0
O81 O 0.11486 0.88007 0.70938 0.0
O82 O 0.20428 0.89435 0.68106 0.0
O83 O 0.17179 0.89117 0.70854 0.0
Co84 Co 0.82545 0.39773 0.81689 0.0
O85 O 0.83086 0.43466 0.81326 0.0
O86 O 0.82832 0.41324 0.85135 0.0
C87 C 0.7928 0.39427 0.78813 0.0
O88 O 0.81939 0.36054 0.82879 0.0
Co89 Co 0.83421 0.3595 0.77025 0.0
O90 O 0.82067 0.33248 0.79476 0.0
C91 C 0.87832 0.38392 0.7967 0.0
C92 C 0.83101 0.43523 0.83892 0.0
C93 C 0.81717 0.33746 0.81917 0.0
O94 O 0.86355 0.39169 0.81541 0.0
O95 O 0.87018 0.37303 0.77556 0.0
O96 O 0.78869 0.40235 0.81206 0.0
O97 O 0.81662 0.39101 0.78151 0.0
Co98 Co 0.66525 0.60195 0.31594 0.0
O99 O 0.66268 0.56487 0.31082 0.0
O100 O 0.66766 0.58462 0.34953 0.0
C101 C 0.69382 0.61042 0.28369 0.0
O102 O 0.66981 0.63893 0.32925 0.0
Co103 Co 0.64767 0.64156 0.27349 0.0
O104 O 0.66528 0.6677 0.29616 0.0
C105 C 0.60884 0.61255 0.30407 0.0
C106 C 0.66525 0.56305 0.33631 0.0
C107 C 0.67134 0.66218 0.3199 0.0
O108 O 0.62669 0.60421 0.31948 0.0
O109 O 0.61347 0.62597 0.28326 0.0
O110 O 0.7015 0.60135 0.30632 0.0
O111 O 0.66916 0.61128 0.28031 0.0
Co112 Co 0.1883 0.33437 0.09462 0.0
O113 O 0.18806 0.34511 0.0583 0.0
O114 O 0.15332 0.33524 0.0819 0.0
C115 C 0.21991 0.30466 0.09176 0.0
O116 O 0.18138 0.3221 0.1321 0.0
Co117 Co 0.2367 0.34616 0.12877 0.0
O118 O 0.21678 0.32854 0.15702 0.0
C119 C 0.20156 0.38866 0.11492 0.0
C120 C 0.16325 0.34267 0.05957 0.0
C121 C 0.19369 0.32071 0.1541 0.0
O122 O 0.18552 0.37178 0.10606 0.0
O123 O 0.22436 0.3828 0.12239 0.0
O124 O 0.19668 0.29883 0.08449 0.0
O125 O 0.22395 0.32897 0.09725 0.0
Co126 Co 0.70299 0.16281 0.89611 0.0
O127 O 0.69991 0.15234 0.93231 0.0
O128 O 0.66738 0.16455 0.90656 0.0
C129 C 0.73636 0.19 0.90094 0.0
O130 O 0.6991 0.17545 0.85831 0.0
Co131 Co 0.75193 0.14724 0.86461 0.0
O132 O 0.73494 0.16613 0.83515 0.0
C133 C 0.71394 0.10749 0.87834 0.0
C134 C 0.67546 0.15655 0.92945 0.0
C135 C 0.7125 0.17597 0.83694 0.0
O136 O 0.69827 0.12572 0.88474 0.0
O137 O 0.73754 0.11163 0.87252 0.0
O138 O 0.71322 0.19759 0.90674 0.0
O139 O 0.73901 0.16547 0.89554 0.0
Co140 Co 0.79967 0.83593 0.39718 0.0
O141 O 0.79382 0.84598 0.43323 0.0
O142 O 0.83209 0.83826 0.41534 0.0
C143 C 0.769 0.80529 0.39547 0.0
O144 O 0.81338 0.82364 0.3617 0.0
Co145 Co 0.75802 0.84393 0.35394 0.0
O146 O 0.78209 0.82455 0.33094 0.0
C147 C 0.7904 0.88824 0.37009 0.0
C148 C 0.81858 0.84411 0.43609 0.0
C149 C 0.80488 0.81923 0.33829 0.0
O150 O 0.8028 0.87345 0.38609 0.0
O151 O 0.77135 0.88062 0.3561 0.0
O152 O 0.79117 0.80023 0.40607 0.0
O153 O 0.76503 0.82928 0.3886 0.0
Co154 Co 0.30406 0.66052 0.60624 0.0
O155 O 0.29485 0.6482 0.57147 0.0
O156 O 0.33292 0.66434 0.58295 0.0
C157 C 0.26913 0.68517 0.61417 0.0
O158 O 0.32077 0.6763 0.6387 0.0
Co159 Co 0.27361 0.6458 0.65632 0.0
O160 O 0.29501 0.67263 0.67409 0.0
C161 C 0.3064 0.6063 0.63111 0.0
C162 C 0.31814 0.65467 0.56479 0.0
C163 C 0.31502 0.68161 0.6628 0.0
O164 O 0.31548 0.62417 0.61592 0.0
O165 O 0.28825 0.61048 0.64766 0.0
O166 O 0.28778 0.69388 0.59956 0.0
O167 O 0.27076 0.66083 0.62101 0.0
Co168 Co 0.89892 0.82801 0.67025 0.0
O169 O 0.93356 0.82879 0.65722 0.0
O170 O 0.91086 0.86368 0.66878 0.0
C171 C 0.90508 0.79602 0.69973 0.0
O172 O 0.86314 0.83455 0.68554 0.0
Co173 Co 0.86485 0.7789 0.66263 0.0
O174 O 0.84357 0.79568 0.69024 0.0
C175 C 0.87355 0.81454 0.61784 0.0
C176 C 0.93238 0.85386 0.66029 0.0
C177 C 0.84497 0.82006 0.6947 0.0
O178 O 0.88569 0.83024 0.63313 0.0
O179 O 0.86462 0.79248 0.62537 0.0
O180 O 0.91136 0.81988 0.7053 0.0
O181 O 0.89758 0.7917 0.67573 0.0
Co182 Co 0.60766 0.17004 0.16491 0.0
O183 O 0.57205 0.17572 0.15706 0.0
O184 O 0.58922 0.13733 0.16718 0.0
C185 C 0.61212 0.20404 0.19236 0.0
O186 O 0.64309 0.15726 0.1762 0.0
Co187 Co 0.64904 0.21102 0.1494 0.0
O188 O 0.67041 0.19123 0.17501 0.0
C189 C 0.62491 0.17846 0.10849 0.0
C190 C 0.5689 0.15102 0.16151 0.0
C191 C 0.66468 0.16811 0.18216 0.0
O192 O 0.61523 0.16372 0.12646 0.0
O193 O 0.63699 0.19962 0.11357 0.0
O194 O 0.60209 0.18237 0.20079 0.0
O195 O 0.6166 0.20525 0.16729 0.0
Co196 Co 0.39546 0.66474 0.32776 0.0
O197 O 0.43084 0.66207 0.33784 0.0
O198 O 0.40604 0.62843 0.32737 0.0
C199 C 0.4011 0.69704 0.29841 0.0
O200 O 0.35841 0.66079 0.31518 0.0
Co201 Co 0.36616 0.71593 0.34059 0.0
O202 O 0.33772 0.69905 0.32099 0.0
C203 C 0.3761 0.67824 0.38297 0.0
C204 C 0.42862 0.63722 0.33396 0.0
C205 C 0.33839 0.67547 0.31308 0.0
O206 O 0.38434 0.66187 0.36572 0.0
O207 O 0.37028 0.70186 0.37738 0.0
O208 O 0.40567 0.67302 0.29199 0.0
O209 O 0.39597 0.70123 0.32308 0.0
Co210 Co 0.09655 0.32684 0.82283 0.0
O211 O 0.06054 0.32438 0.8313 0.0
O212 O 0.08053 0.36029 0.81802 0.0
C213 C 0.09896 0.29088 0.79753 0.0
O214 O 0.13234 0.33705 0.8108 0.0
Co215 Co 0.13634 0.28508 0.83995 0.0
O216 O 0.15975 0.30349 0.8151 0.0
C217 C 0.11388 0.32071 0.87939 0.0
C218 C 0.05923 0.34888 0.82481 0.0
C219 C 0.15427 0.32624 0.80663 0.0
O220 O 0.10479 0.3351 0.8608 0.0
O221 O 0.12481 0.29871 0.87522 0.0
O222 O 0.09011 0.31254 0.78781 0.0
O223 O 0.10358 0.29098 0.82262 0.0
Co224 Co 0.65759 0.87201 0.84576 0.0
O225 O 0.62447 0.87282 0.8625 0.0
O226 O 0.632 0.88429 0.82099 0.0
C227 C 0.67003 0.83231 0.85985 0.0
O228 O 0.68899 0.8725 0.82152 0.0
Co229 Co 0.70734 0.87016 0.87983 0.0
O230 O 0.72304 0.85963 0.84577 0.0
C231 C 0.68032 0.91997 0.87307 0.0
C232 C 0.61556 0.88128 0.84012 0.0
C233 C 0.71243 0.86463 0.82367 0.0
O234 O 0.6644 0.90894 0.85719 0.0
O235 O 0.69808 0.90765 0.88533 0.0
O236 O 0.65451 0.83449 0.83984 0.0
O237 O 0.67456 0.85371 0.87252 0.0
Co238 Co 0.84149 0.12622 0.34089 0.0
O239 O 0.87539 0.1282 0.35553 0.0
O240 O 0.86673 0.1192 0.31363 0.0
C241 C 0.82603 0.16287 0.35912 0.0
O242 O 0.80886 0.12383 0.3188 0.0
Co243 Co 0.79499 0.11913 0.37883 0.0
O244 O 0.77447 0.12296 0.34598 0.0
C245 C 0.8272 0.07392 0.36606 0.0
C246 C 0.88384 0.12284 0.33204 0.0
C247 C 0.78445 0.12352 0.32299 0.0
O248 O 0.83955 0.08789 0.34921 0.0
O249 O 0.81023 0.08329 0.38173 0.0
O250 O 0.83976 0.16401 0.33772 0.0
O251 O 0.82473 0.14032 0.37041 0.0
Co252 Co 0.15531 0.62769 0.15606 0.0
O253 O 0.12341 0.62603 0.13673 0.0
O254 O 0.12759 0.61848 0.17967 0.0
C255 C 0.17018 0.66591 0.14027 0.0
O256 O 0.18462 0.62844 0.18288 0.0
Co257 Co 0.20759 0.62553 0.12607 0.0
O258 O 0.22233 0.63263 0.16135 0.0
C259 C 0.17795 0.57741 0.13328 0.0
C260 C 0.11271 0.61994 0.15909 0.0
C261 C 0.20923 0.63149 0.18259 0.0
O262 O 0.1618 0.58968 0.148 0.0
O263 O 0.19654 0.58855 0.12121 0.0
O264 O 0.1529 0.6656 0.15881 0.0
O265 O 0.17501 0.64355 0.12953 0.0
Co266 Co 0.33989 0.36743 0.66023 0.0
O267 O 0.37492 0.36492 0.64824 0.0
O268 O 0.36294 0.37427 0.68923 0.0
C269 C 0.32528 0.33006 0.64228 0.0
O270 O 0.30601 0.37048 0.68 0.0
Co271 Co 0.29587 0.37382 0.61908 0.0
O272 O 0.27336 0.37288 0.65074 0.0
C273 C 0.32965 0.41804 0.63053 0.0
C274 C 0.3814 0.36968 0.67253 0.0
C275 C 0.28195 0.37202 0.6743 0.0
O276 O 0.3388 0.40572 0.65057 0.0
O277 O 0.31455 0.40765 0.6136 0.0
O278 O 0.33818 0.32971 0.66419 0.0
O279 O 0.32453 0.35234 0.63027 0.0
Co280 Co 0.8452 0.662 0.88037 0.0
O281 O 0.86398 0.62966 0.88077 0.0
O282 O 0.82168 0.63353 0.88561 0.0
C283 C 0.86532 0.67897 0.84501 0.0
O284 O 0.81857 0.69099 0.87929 0.0
Co285 Co 0.87122 0.71599 0.88766 0.0
O286 O 0.83721 0.73051 0.87789 0.0
C287 C 0.86352 0.6815 0.93373 0.0
C288 C 0.84178 0.61854 0.88422 0.0
C289 C 0.81742 0.71591 0.87691 0.0
O290 O 0.84994 0.66566 0.91978 0.0
O291 O 0.87497 0.70145 0.92412 0.0
O292 O 0.84644 0.66265 0.84169 0.0
O293 O 0.87236 0.68295 0.86908 0.0
Co294 Co 0.3463 0.83694 0.12152 0.0
O295 O 0.36609 0.86864 0.12033 0.0
O296 O 0.32346 0.86641 0.11851 0.0
C297 C 0.36721 0.81875 0.15578 0.0
O298 O 0.31902 0.80841 0.12307 0.0
Co299 Co 0.37129 0.7827 0.11187 0.0
O300 O 0.33733 0.76868 0.12239 0.0
C301 C 0.36178 0.8181 0.06688 0.0
C302 C 0.34415 0.8806 0.11868 0.0
C303 C 0.31767 0.78337 0.12444 0.0
O304 O 0.3492 0.8339 0.08186 0.0
O305 O 0.37334 0.79775 0.07545 0.0
O306 O 0.34904 0.83564 0.16002 0.0
O307 O 0.37342 0.8151 0.13138 0.0
Co308 Co 0.15586 0.15367 0.61638 0.0
O309 O 0.13623 0.12184 0.61544 0.0
O310 O 0.17777 0.12512 0.60586 0.0
C311 C 0.14209 0.16821 0.65582 0.0
O312 O 0.18274 0.18272 0.61599 0.0
Co313 Co 0.12848 0.20757 0.61614 0.0
O314 O 0.16349 0.2216 0.62199 0.0
C315 C 0.13097 0.17678 0.56719 0.0
C316 C 0.15745 0.11054 0.60823 0.0
C317 C 0.1836 0.20762 0.61946 0.0
O318 O 0.14622 0.1605 0.57849 0.0
O319 O 0.12042 0.19593 0.57925 0.0
O320 O 0.16015 0.15076 0.65447 0.0
O321 O 0.13107 0.17404 0.63369 0.0
Co322 Co 0.65514 0.33623 0.38122 0.0
O323 O 0.63671 0.36824 0.37653 0.0
O324 O 0.67532 0.3648 0.39492 0.0
C325 C 0.64813 0.32111 0.34028 0.0
O326 O 0.6807 0.30674 0.38777 0.0
Co327 Co 0.62792 0.28255 0.37728 0.0
O328 O 0.66351 0.27034 0.3704 0.0
C329 C 0.62322 0.3135 0.42621 0.0
C330 C 0.65661 0.37962 0.38684 0.0
C331 C 0.68263 0.28319 0.37918 0.0
O332 O 0.63859 0.33077 0.41673 0.0
O333 O 0.61582 0.29335 0.41334 0.0
O334 O 0.66642 0.33781 0.34459 0.0
O335 O 0.6334 0.31592 0.36019 0.0
H336 H 0.15984 0.2799 0.1567 0.0
H337 H 0.19771 0.33886 0.20423 0.0
H338 H 0.17537 0.32252 0.24398 0.0
H339 H 0.09863 0.27837 0.1919 0.0
H340 H 0.09553 0.24343 0.18959 0.0
H341 H 0.11259 0.26117 0.16434 0.0
H342 H 0.15283 0.23218 0.17182 0.0
H343 H 0.13581 0.21427 0.19691 0.0
H344 H 0.16618 0.22941 0.20457 0.0
H345 H 0.14983 0.2996 0.2784 0.0
H346 H 0.12645 0.26836 0.30654 0.0
H347 H 0.10717 0.22242 0.23727 0.0
C348 C 0.1631 0.28951 0.17546 0.0
C349 C 0.18022 0.31074 0.17752 0.0
C350 C 0.18461 0.32254 0.20238 0.0
C351 C 0.1719 0.31353 0.22497 0.0
C352 C 0.15516 0.29251 0.22235 0.0
C353 C 0.151 0.28038 0.19834 0.0
C354 C 0.13382 0.25674 0.20144 0.0
C355 C 0.10865 0.26014 0.1859 0.0
C356 C 0.14801 0.23167 0.1932 0.0
C357 C 0.12909 0.25747 0.23094 0.0
C358 C 0.14125 0.27851 0.24252 0.0
C359 C 0.14019 0.28304 0.2696 0.0
C360 C 0.12686 0.26519 0.28541 0.0
C361 C 0.11513 0.24292 0.27409 0.0
C362 C 0.11587 0.23933 0.24645 0.0
H363 H 0.36954 0.75633 0.78926 0.0
H364 H 0.41019 0.80698 0.73471 0.0
H365 H 0.39556 0.77991 0.69737 0.0
H366 H 0.38016 0.69483 0.75301 0.0
H367 H 0.34846 0.68269 0.76051 0.0
H368 H 0.36444 0.70435 0.78325 0.0
H369 H 0.32546 0.73582 0.78137 0.0
H370 H 0.30944 0.71438 0.75856 0.0
H371 H 0.31473 0.74804 0.74985 0.0
H372 H 0.37505 0.74899 0.66594 0.0
H373 H 0.3485 0.71699 0.64201 0.0
H374 H 0.31934 0.68744 0.71664 0.0
C375 C 0.37577 0.76139 0.76951 0.0
C376 C 0.39117 0.78359 0.76485 0.0
C377 C 0.3985 0.78994 0.73869 0.0
C378 C 0.39035 0.77467 0.71737 0.0
C379 C 0.3748 0.75318 0.72256 0.0
C380 C 0.36754 0.74652 0.74794 0.0
C381 C 0.34926 0.72351 0.74786 0.0
C382 C 0.3613 0.69995 0.762 0.0
C383 C 0.32318 0.73089 0.76013 0.0
C384 C 0.34696 0.7187 0.71844 0.0
C385 C 0.3622 0.73577 0.70427 0.0
C386 C 0.36316 0.73538 0.6768 0.0
C387 C 0.34805 0.71709 0.6634 0.0
C388 C 0.3319 0.69969 0.67746 0.0
C389 C 0.33147 0.70051 0.70536 0.0
H390 H 0.617 0.26718 0.75514 0.0
H391 H 0.64953 0.23338 0.68395 0.0
H392 H 0.67856 0.2064 0.71103 0.0
H393 H 0.67513 0.26987 0.79264 0.0
H394 H 0.66016 0.26092 0.82345 0.0
H395 H 0.64182 0.27774 0.79853 0.0
H396 H 0.60787 0.2407 0.79885 0.0
H397 H 0.626 0.22387 0.82392 0.0
H398 H 0.61805 0.2075 0.7935 0.0
H399 H 0.70543 0.18478 0.74556 0.0
H400 H 0.72551 0.16641 0.78559 0.0
H401 H 0.67397 0.2124 0.83446 0.0
C402 C 0.63014 0.254 0.74528 0.0
C403 C 0.63117 0.25251 0.71746 0.0
C404 C 0.64849 0.23493 0.70524 0.0
C405 C 0.66511 0.21956 0.72044 0.0
C406 C 0.66389 0.22177 0.74781 0.0
C407 C 0.64663 0.23825 0.76016 0.0
C408 C 0.6489 0.23647 0.78992 0.0
C409 C 0.65699 0.26282 0.80182 0.0
C410 C 0.62371 0.22654 0.80227 0.0
C411 C 0.67017 0.21647 0.79232 0.0
C412 C 0.67874 0.20849 0.76779 0.0
C413 C 0.69875 0.19068 0.7649 0.0
C414 C 0.71009 0.18046 0.78775 0.0
C415 C 0.70114 0.18783 0.8131 0.0
C416 C 0.681 0.20617 0.81533 0.0
H417 H 0.8844 0.70935 0.26398 0.0
H418 H 0.8918 0.76419 0.19911 0.0
H419 H 0.87255 0.79866 0.22658 0.0
H420 H 0.82425 0.72958 0.28439 0.0
H421 H 0.82971 0.72588 0.31935 0.0
H422 H 0.8475 0.70627 0.29623 0.0
H423 H 0.89044 0.72279 0.31609 0.0
H424 H 0.87278 0.74229 0.33952 0.0
H425 H 0.89635 0.75737 0.31833 0.0
H426 H 0.84694 0.82493 0.25778 0.0
H427 H 0.81899 0.84279 0.29295 0.0
H428 H 0.82948 0.77224 0.33882 0.0
C429 C 0.88265 0.72882 0.25589 0.0
C430 C 0.88964 0.73419 0.2295 0.0
C431 C 0.88658 0.75971 0.21932 0.0
C432 C 0.87573 0.77944 0.23477 0.0
C433 C 0.86825 0.77336 0.26043 0.0
C434 C 0.87184 0.7488 0.27111 0.0
C435 C 0.86027 0.747 0.29853 0.0
C436 C 0.83918 0.72594 0.29967 0.0
C437 C 0.88122 0.74208 0.31935 0.0
C438 C 0.84901 0.77413 0.3012 0.0
C439 C 0.85391 0.78899 0.27897 0.0
C440 C 0.84349 0.81379 0.27559 0.0
C441 C 0.8276 0.8237 0.2955 0.0
C442 C 0.82263 0.80894 0.31848 0.0
C443 C 0.83365 0.78401 0.32157 0.0
H444 H 0.24831 0.1139 0.2089 0.0
H445 H 0.3135 0.13698 0.25716 0.0
H446 H 0.28416 0.15761 0.28899 0.0
H447 H 0.21182 0.17157 0.21817 0.0
H448 H 0.18107 0.15544 0.21987 0.0
H449 H 0.20695 0.14099 0.20132 0.0
H450 H 0.20271 0.09847 0.22867 0.0
H451 H 0.17674 0.11278 0.24728 0.0
H452 H 0.20452 0.1 0.2642 0.0
H453 H 0.24889 0.17877 0.31353 0.0
H454 H 0.20872 0.19768 0.33096 0.0
H455 H 0.16548 0.15964 0.26861 0.0
C456 C 0.25633 0.12302 0.22634 0.0
C457 C 0.28319 0.12386 0.23054 0.0
C458 C 0.293 0.13611 0.2535 0.0
C459 C 0.2765 0.14787 0.27174 0.0
C460 C 0.25019 0.14702 0.26691 0.0
C461 C 0.24005 0.13477 0.24494 0.0
C462 C 0.21099 0.13741 0.24427 0.0
C463 C 0.2022 0.15224 0.21944 0.0
C464 C 0.19798 0.11056 0.24623 0.0
C465 C 0.20654 0.15338 0.26907 0.0
C466 C 0.2295 0.15871 0.28172 0.0
C467 C 0.23072 0.17444 0.30407 0.0
C468 C 0.20786 0.18515 0.31375 0.0
C469 C 0.18408 0.17986 0.30126 0.0
C470 C 0.18338 0.16352 0.2788 0.0
H471 H 0.33324 0.85749 0.76667 0.0
H472 H 0.29231 0.82108 0.83149 0.0
H473 H 0.25123 0.83831 0.81425 0.0
H474 H 0.29089 0.91582 0.75898 0.0
H475 H 0.293 0.91475 0.72346 0.0
H476 H 0.31957 0.90351 0.74331 0.0
H477 H 0.3182 0.85889 0.71926 0.0
H478 H 0.29159 0.8699 0.69951 0.0
H479 H 0.28863 0.84053 0.71885 0.0
H480 H 0.21456 0.85596 0.78822 0.0
H481 H 0.18436 0.87098 0.7538 0.0
H482 H 0.24882 0.89352 0.70433 0.0
C483 C 0.31567 0.85394 0.7776 0.0
C484 C 0.31577 0.83844 0.80057 0.0
C485 C 0.29245 0.83319 0.81395 0.0
C486 C 0.26911 0.84295 0.80438 0.0
C487 C 0.26948 0.85766 0.78128 0.0
C488 C 0.29211 0.86308 0.76797 0.0
C489 C 0.28684 0.87669 0.74199 0.0
C490 C 0.29825 0.90434 0.74195 0.0
C491 C 0.29691 0.86053 0.71853 0.0
C492 C 0.25774 0.87743 0.74249 0.0
C493 C 0.24814 0.86685 0.76557 0.0
C494 C 0.22182 0.86453 0.77016 0.0
C495 C 0.20483 0.87306 0.7505 0.0
C496 C 0.2143 0.88333 0.72645 0.0
C497 C 0.24107 0.88577 0.72258 0.0
H498 H 0.79002 0.35568 0.75083 0.0
H499 H 0.74694 0.41919 0.78604 0.0
H500 H 0.70948 0.40824 0.75816 0.0
H501 H 0.76196 0.35879 0.68389 0.0
H502 H 0.76077 0.32381 0.68058 0.0
H503 H 0.78541 0.33876 0.70053 0.0
H504 H 0.77142 0.31063 0.74059 0.0
H505 H 0.74683 0.2956 0.72078 0.0
H506 H 0.73837 0.31147 0.75133 0.0
H507 H 0.67621 0.38916 0.7288 0.0
H508 H 0.64767 0.36098 0.70263 0.0
H509 H 0.71135 0.30793 0.68817 0.0
C510 C 0.77287 0.36759 0.75215 0.0
C511 C 0.77133 0.3885 0.77018 0.0
C512 C 0.7484 0.4032 0.77214 0.0
C513 C 0.72713 0.39722 0.75632 0.0
C514 C 0.72906 0.37626 0.73893 0.0
C515 C 0.75122 0.36149 0.73691 0.0
C516 C 0.74724 0.33831 0.71879 0.0
C517 C 0.7649 0.34003 0.6945 0.0
C518 C 0.75119 0.31249 0.73377 0.0
C519 C 0.7193 0.34223 0.71124 0.0
C520 C 0.70937 0.36449 0.72274 0.0
C521 C 0.68378 0.37177 0.71952 0.0
C522 C 0.66771 0.35559 0.70457 0.0
C523 C 0.6772 0.33219 0.69326 0.0
C524 C 0.7035 0.32575 0.69635 0.0
H525 H 0.83177 0.65284 0.22905 0.0
H526 H 0.79153 0.69926 0.17054 0.0
H527 H 0.75 0.68213 0.18659 0.0
H528 H 0.78886 0.59637 0.22856 0.0
H529 H 0.79074 0.59173 0.26381 0.0
H530 H 0.81748 0.60583 0.24623 0.0
H531 H 0.81615 0.64614 0.2771 0.0
H532 H 0.78941 0.6322 0.29475 0.0
H533 H 0.78663 0.66427 0.28046 0.0
H534 H 0.71287 0.66095 0.20953 0.0
H535 H 0.68238 0.63912 0.23969 0.0
H536 H 0.74645 0.60827 0.28492 0.0
C537 C 0.81421 0.65897 0.21935 0.0
C538 C 0.81478 0.67709 0.19837 0.0
C539 C 0.79144 0.68529 0.1866 0.0
C540 C 0.76779 0.67562 0.1955 0.0
C541 C 0.7678 0.658 0.21642 0.0
C542 C 0.79035 0.64988 0.22835 0.0
C543 C 0.78483 0.63228 0.25172 0.0
C544 C 0.79615 0.60493 0.2473 0.0
C545 C 0.79484 0.64446 0.27753 0.0
C546 C 0.7557 0.63181 0.25102 0.0
C547 C 0.74629 0.64655 0.23033 0.0
C548 C 0.71999 0.64929 0.22578 0.0
C549 C 0.70282 0.6368 0.243 0.0
C550 C 0.71204 0.62203 0.26464 0.0
C551 C 0.73884 0.61942 0.26852 0.0
H552 H 0.31066 0.2175 0.18096 0.0
H553 H 0.30219 0.1568 0.1217 0.0
H554 H 0.28011 0.18792 0.09245 0.0
H555 H 0.2502 0.24545 0.17248 0.0
H556 H 0.26047 0.2787 0.17705 0.0
H557 H 0.27814 0.25257 0.1923 0.0
H558 H 0.31992 0.26837 0.1694 0.0
H559 H 0.30235 0.29462 0.15405 0.0
H560 H 0.32053 0.27217 0.134 0.0
H561 H 0.25395 0.22327 0.07236 0.0
H562 H 0.22686 0.2615 0.06195 0.0
H563 H 0.25439 0.30048 0.13242 0.0
C564 C 0.30459 0.21084 0.16164 0.0
C565 C 0.30824 0.18464 0.15368 0.0
C566 C 0.29976 0.17674 0.1283 0.0
C567 C 0.28722 0.1943 0.11147 0.0
C568 C 0.28358 0.21981 0.12012 0.0
C569 C 0.29221 0.22819 0.14448 0.0
C570 C 0.28445 0.25624 0.1496 0.0
C571 C 0.2673 0.25834 0.17431 0.0
C572 C 0.30824 0.27389 0.15189 0.0
C573 C 0.26944 0.26205 0.12465 0.0
C574 C 0.26925 0.24074 0.10789 0.0
C575 C 0.25447 0.24032 0.08495 0.0
C576 C 0.23915 0.26205 0.07922 0.0
C577 C 0.23902 0.28399 0.09613 0.0
C578 C 0.25479 0.28423 0.11879 0.0
H579 H 0.80986 0.28552 0.80733 0.0
H580 H 0.80867 0.34082 0.87237 0.0
H581 H 0.79508 0.30591 0.90254 0.0
H582 H 0.75441 0.25261 0.82455 0.0
H583 H 0.76551 0.22066 0.81511 0.0
H584 H 0.77866 0.24908 0.79934 0.0
H585 H 0.8246 0.23438 0.81267 0.0
H586 H 0.81147 0.20595 0.82873 0.0
H587 H 0.83178 0.22805 0.84692 0.0
H588 H 0.77487 0.26785 0.92379 0.0
H589 H 0.74933 0.22865 0.9345 0.0
H590 H 0.76675 0.19636 0.85757 0.0
C591 C 0.80723 0.29019 0.82801 0.0
C592 C 0.81036 0.31597 0.83741 0.0
C593 C 0.80642 0.32128 0.8646 0.0
C594 C 0.79887 0.30152 0.88199 0.0
C595 C 0.79564 0.27644 0.87204 0.0
C596 C 0.79983 0.27063 0.84573 0.0
C597 C 0.79275 0.24259 0.83969 0.0
C598 C 0.77158 0.24117 0.81843 0.0
C599 C 0.81658 0.22681 0.83152 0.0
C600 C 0.78283 0.23398 0.86645 0.0
C601 C 0.78494 0.25377 0.88488 0.0
C602 C 0.77385 0.25188 0.90986 0.0
C603 C 0.75944 0.22959 0.91581 0.0
C604 C 0.75667 0.20941 0.89704 0.0
C605 C 0.76932 0.21117 0.8725 0.0
H606 H 0.73801 0.79838 0.35234 0.0
H607 H 0.75923 0.76455 0.42771 0.0
H608 H 0.73156 0.72649 0.41855 0.0
H609 H 0.67102 0.77236 0.34867 0.0
H610 H 0.67364 0.76572 0.31381 0.0
H611 H 0.6913 0.79244 0.32816 0.0
H612 H 0.73374 0.7734 0.30947 0.0
H613 H 0.71627 0.74663 0.29518 0.0
H614 H 0.7426 0.74033 0.31745 0.0
H615 H 0.70556 0.69072 0.3999 0.0
H616 H 0.68457 0.65783 0.37197 0.0
H617 H 0.68186 0.71337 0.30714 0.0
C618 C 0.73612 0.78329 0.36717 0.0
C619 C 0.75026 0.78441 0.3909 0.0
C620 C 0.74824 0.76399 0.40953 0.0
C621 C 0.73253 0.74241 0.40455 0.0
C622 C 0.71925 0.74149 0.3807 0.0
C623 C 0.72094 0.76128 0.36221 0.0
C624 C 0.70728 0.75388 0.33685 0.0
C625 C 0.68445 0.77219 0.33157 0.0
C626 C 0.7261 0.75353 0.31336 0.0
C627 C 0.69821 0.72664 0.34381 0.0
C628 C 0.70493 0.72015 0.36937 0.0
C629 C 0.69992 0.69563 0.37994 0.0
C630 C 0.68803 0.67704 0.36383 0.0
C631 C 0.68152 0.68295 0.3373 0.0
C632 C 0.68636 0.70828 0.32738 0.0
H633 H 0.20598 0.82392 0.64272 0.0
H634 H 0.15457 0.78493 0.69746 0.0
H635 H 0.17195 0.74228 0.68362 0.0
H636 H 0.20517 0.77364 0.59045 0.0
H637 H 0.2389 0.7777 0.58334 0.0
H638 H 0.2203 0.80492 0.59529 0.0
H639 H 0.25253 0.81104 0.63386 0.0
H640 H 0.27112 0.7838 0.62213 0.0
H641 H 0.2592 0.78399 0.65556 0.0
H642 H 0.19733 0.70405 0.66649 0.0
H643 H 0.22905 0.67337 0.64741 0.0
H644 H 0.26434 0.73736 0.60457 0.0
C645 C 0.19793 0.80636 0.65127 0.0
C646 C 0.17876 0.80773 0.67098 0.0
C647 C 0.16923 0.78434 0.68227 0.0
C648 C 0.17892 0.76001 0.67449 0.0
C649 C 0.19825 0.75934 0.65547 0.0
C650 C 0.20764 0.78189 0.64396 0.0
C651 C 0.22982 0.77594 0.62553 0.0
C652 C 0.22314 0.7835 0.59695 0.0
C653 C 0.25462 0.78949 0.63484 0.0
C654 C 0.2316 0.74662 0.62872 0.0
C655 C 0.21312 0.73736 0.64591 0.0
C656 C 0.21173 0.71104 0.65278 0.0
C657 C 0.22983 0.69376 0.64189 0.0
C658 C 0.24908 0.70293 0.62445 0.0
C659 C 0.24973 0.72968 0.61768 0.0
H660 H 0.84645 0.6877 0.7948 0.0
H661 H 0.91095 0.70404 0.84667 0.0
H662 H 0.93028 0.73191 0.81254 0.0
H663 H 0.88325 0.68817 0.73182 0.0
H664 H 0.8579 0.7044 0.71395 0.0
H665 H 0.85017 0.68318 0.74122 0.0
H666 H 0.82497 0.72076 0.76374 0.0
H667 H 0.83264 0.74204 0.7366 0.0
H668 H 0.84092 0.75139 0.76982 0.0
H669 H 0.9401 0.76178 0.77626 0.0
H670 H 0.94046 0.79188 0.7383 0.0
H671 H 0.87117 0.75563 0.70789 0.0
C672 C 0.86491 0.6967 0.79863 0.0
C673 C 0.87731 0.69365 0.82327 0.0
C674 C 0.90115 0.70614 0.82791 0.0
C675 C 0.91236 0.72191 0.80861 0.0
C676 C 0.89952 0.72497 0.78474 0.0
C677 C 0.87639 0.71272 0.77952 0.0
C678 C 0.86583 0.72109 0.75288 0.0
C679 C 0.8642 0.69782 0.73384 0.0
C680 C 0.83954 0.73462 0.75596 0.0
C681 C 0.88643 0.74026 0.74433 0.0
C682 C 0.90566 0.74208 0.76308 0.0
C683 C 0.9255 0.76018 0.76111 0.0
C684 C 0.92552 0.7772 0.73958 0.0
C685 C 0.90604 0.77576 0.72017 0.0
C686 C 0.88657 0.7567 0.72222 0.0
H687 H 0.6014 0.20763 0.24492 0.0
H688 H 0.6408 0.24734 0.18091 0.0
H689 H 0.65491 0.28165 0.21197 0.0
H690 H 0.57818 0.26498 0.27721 0.0
H691 H 0.58255 0.25199 0.30999 0.0
H692 H 0.57623 0.23031 0.28279 0.0
H693 H 0.61777 0.2044 0.29366 0.0
H694 H 0.62424 0.22605 0.32088 0.0
H695 H 0.64808 0.22139 0.29546 0.0
H696 H 0.6655 0.31101 0.25044 0.0
H697 H 0.66966 0.33449 0.29295 0.0
H698 H 0.62144 0.27635 0.33071 0.0
C699 C 0.613 0.22354 0.23743 0.0
C700 C 0.62009 0.22485 0.21059 0.0
C701 C 0.63517 0.246 0.20146 0.0
C702 C 0.64332 0.26553 0.21894 0.0
C703 C 0.63603 0.26361 0.24534 0.0
C704 C 0.62108 0.24324 0.2545 0.0
C705 C 0.61545 0.24593 0.28365 0.0
C706 C 0.58638 0.24846 0.28869 0.0
C707 C 0.62708 0.22309 0.29933 0.0
C708 C 0.62936 0.27114 0.28944 0.0
C709 C 0.6414 0.2809 0.2672 0.0
C710 C 0.65603 0.30365 0.26796 0.0
C711 C 0.6583 0.31681 0.29213 0.0
C712 C 0.64572 0.30728 0.31497 0.0
C713 C 0.63107 0.28421 0.31351 0.0
H714 H 0.37001 0.73994 0.29166 0.0
H715 H 0.43634 0.69955 0.25968 0.0
H716 H 0.43763 0.73019 0.22224 0.0
H717 H 0.33935 0.74808 0.23141 0.0
H718 H 0.32609 0.7799 0.23804 0.0
H719 H 0.33279 0.75798 0.26492 0.0
H720 H 0.36169 0.79293 0.28693 0.0
H721 H 0.35493 0.81508 0.26015 0.0
H722 H 0.38774 0.80721 0.2684 0.0
H723 H 0.42902 0.76068 0.18612 0.0
H724 H 0.41084 0.79005 0.15253 0.0
H725 H 0.34925 0.8111 0.20638 0.0
C726 C 0.38525 0.73824 0.27718 0.0
C727 C 0.40333 0.71777 0.27857 0.0
C728 C 0.42248 0.71532 0.25891 0.0
C729 C 0.42343 0.73266 0.23766 0.0
C730 C 0.40495 0.75223 0.23631 0.0
C731 C 0.38622 0.75524 0.25548 0.0
C732 C 0.36705 0.77615 0.24756 0.0
C733 C 0.33971 0.76484 0.24535 0.0
C734 C 0.36791 0.79922 0.26692 0.0
C735 C 0.37759 0.78378 0.2207 0.0
C736 C 0.39965 0.76991 0.21486 0.0
C737 C 0.41202 0.77203 0.19058 0.0
C738 C 0.40147 0.78866 0.17159 0.0
C739 C 0.37877 0.80293 0.17696 0.0
C740 C 0.36688 0.80073 0.20196 0.0
H741 H 0.11595 0.21422 0.6617 0.0
H742 H 0.15593 0.15399 0.70575 0.0
H743 H 0.14786 0.1781 0.74721 0.0
H744 H 0.1411 0.26759 0.69883 0.0
H745 H 0.11197 0.28657 0.69709 0.0
H746 H 0.11961 0.26381 0.67116 0.0
H747 H 0.07568 0.24085 0.67804 0.0
H748 H 0.06792 0.26355 0.704 0.0
H749 H 0.06717 0.22898 0.71041 0.0
H750 H 0.136 0.20909 0.78368 0.0
H751 H 0.12254 0.24554 0.81243 0.0
H752 H 0.09164 0.28616 0.74421 0.0
C753 C 0.12277 0.20596 0.68009 0.0
C754 C 0.1364 0.18217 0.6806 0.0
C755 C 0.14538 0.17219 0.70499 0.0
C756 C 0.14086 0.1857 0.72861 0.0
C757 C 0.12752 0.20924 0.72742 0.0
C758 C 0.11872 0.21936 0.70378 0.0
C759 C 0.10595 0.2456 0.70775 0.0
C760 C 0.12053 0.26716 0.69282 0.0
C761 C 0.07749 0.24467 0.69957 0.0
C762 C 0.10883 0.24859 0.73734 0.0
C763 C 0.12122 0.22737 0.74833 0.0
C764 C 0.12625 0.22581 0.77531 0.0
C765 C 0.11852 0.24659 0.79147 0.0
C766 C 0.10605 0.26864 0.78054 0.0
C767 C 0.10109 0.26953 0.75314 0.0
H768 H 0.74467 0.82462 0.81286 0.0
H769 H 0.71626 0.89781 0.7815 0.0
H770 H 0.74745 0.89471 0.74447 0.0
H771 H 0.80993 0.83321 0.79862 0.0
H772 H 0.81589 0.79992 0.78893 0.0
H773 H 0.79072 0.80717 0.81217 0.0
H774 H 0.75729 0.78394 0.78262 0.0
H775 H 0.78241 0.77597 0.75947 0.0
H776 H 0.75421 0.79328 0.74843 0.0
H777 H 0.78518 0.88546 0.71377 0.0
H778 H 0.82168 0.86754 0.68788 0.0
H779 H 0.82231 0.79887 0.73786 0.0
C780 C 0.74486 0.83982 0.79798 0.0
C781 C 0.72833 0.86153 0.7999 0.0
C782 C 0.7288 0.88099 0.78012 0.0
C783 C 0.7465 0.87944 0.7592 0.0
C784 C 0.76305 0.85803 0.75821 0.0
C785 C 0.7619 0.83825 0.77676 0.0
C786 C 0.78141 0.8171 0.77114 0.0
C787 C 0.80062 0.81421 0.79408 0.0
C788 C 0.76802 0.79104 0.76504 0.0
C789 C 0.79417 0.82832 0.74686 0.0
C790 C 0.78358 0.85206 0.73982 0.0
C791 C 0.79333 0.86669 0.71883 0.0
C792 C 0.81412 0.85651 0.7044 0.0
C793 C 0.82449 0.83181 0.71082 0.0
C794 C 0.81442 0.81767 0.73235 0.0
H795 H 0.71197 0.18461 0.19976 0.0
H796 H 0.65789 0.12027 0.20546 0.0
H797 H 0.68502 0.09996 0.23967 0.0
H798 H 0.77106 0.14578 0.21136 0.0
H799 H 0.78576 0.1714 0.2305 0.0
H800 H 0.76362 0.17941 0.20433 0.0
H801 H 0.73597 0.20591 0.23743 0.0
H802 H 0.75787 0.1978 0.26366 0.0
H803 H 0.72418 0.19025 0.26692 0.0
H804 H 0.71432 0.08993 0.2774 0.0
H805 H 0.74615 0.08898 0.31373 0.0
H806 H 0.7825 0.15837 0.28225 0.0
C807 C 0.70608 0.16593 0.2077 0.0
C808 C 0.68275 0.15404 0.19979 0.0
C809 C 0.67569 0.12975 0.21101 0.0
C810 C 0.69097 0.11804 0.23051 0.0
C811 C 0.71341 0.1307 0.23837 0.0
C812 C 0.72116 0.15393 0.22708 0.0
C813 C 0.74533 0.16426 0.24014 0.0
C814 C 0.76777 0.16526 0.2204 0.0
C815 C 0.74053 0.19114 0.25278 0.0
C816 C 0.74963 0.14351 0.26095 0.0
C817 C 0.73094 0.12436 0.25961 0.0
C818 C 0.72941 0.10443 0.27826 0.0
C819 C 0.74744 0.10409 0.29882 0.0
C820 C 0.76688 0.1233 0.30029 0.0
C821 C 0.76819 0.14307 0.28099 0.0
H822 H 0.33561 0.64498 0.26901 0.0
H823 H 0.28882 0.68422 0.32764 0.0
H824 H 0.2495 0.67179 0.30327 0.0
H825 H 0.30156 0.66783 0.21545 0.0
H826 H 0.3046 0.63883 0.19558 0.0
H827 H 0.32854 0.6462 0.22007 0.0
H828 H 0.32122 0.60108 0.24196 0.0
H829 H 0.29728 0.59349 0.21738 0.0
H830 H 0.28925 0.59173 0.25197 0.0
H831 H 0.2157 0.65891 0.27034 0.0
H832 H 0.19054 0.64925 0.23 0.0
H833 H 0.25982 0.62092 0.19175 0.0
C834 C 0.317 0.65014 0.2771 0.0
C835 C 0.31508 0.66513 0.30034 0.0
C836 C 0.29055 0.67249 0.30993 0.0
C837 C 0.26815 0.66543 0.29631 0.0
C838 C 0.27067 0.65121 0.27301 0.0
C839 C 0.29449 0.64372 0.26342 0.0
C840 C 0.29219 0.63151 0.23632 0.0
C841 C 0.30763 0.64703 0.21565 0.0
C842 C 0.30047 0.60274 0.23696 0.0
C843 C 0.26353 0.63407 0.23184 0.0
C844 C 0.25133 0.64489 0.25345 0.0
C845 C 0.22499 0.65015 0.25339 0.0
C846 C 0.21086 0.64459 0.23044 0.0
C847 C 0.22325 0.63441 0.20778 0.0
C848 C 0.24982 0.62873 0.20878 0.0
H849 H 0.27926 0.33916 0.71655 0.0
H850 H 0.24165 0.40513 0.67952 0.0
H851 H 0.20755 0.40388 0.71355 0.0
H852 H 0.22277 0.3047 0.7282 0.0
H853 H 0.23265 0.29069 0.75924 0.0
H854 H 0.25641 0.29949 0.73501 0.0
H855 H 0.27938 0.3288 0.7694 0.0
H856 H 0.25567 0.32003 0.79382 0.0
H857 H 0.26144 0.35387 0.78624 0.0
H858 H 0.17615 0.39349 0.74889 0.0
H859 H 0.14723 0.37265 0.78098 0.0
H860 H 0.20366 0.31137 0.7937 0.0
C861 C 0.26419 0.35375 0.71619 0.0
C862 C 0.26313 0.37256 0.6959 0.0
C863 C 0.24275 0.39078 0.69519 0.0
C864 C 0.22344 0.39028 0.71446 0.0
C865 C 0.22471 0.37121 0.73403 0.0
C866 C 0.24443 0.35313 0.73495 0.0
C867 C 0.23953 0.33276 0.75604 0.0
C868 C 0.23772 0.30529 0.74389 0.0
C869 C 0.26024 0.33395 0.77766 0.0
C870 C 0.21371 0.34188 0.76639 0.0
C871 C 0.20583 0.36441 0.75379 0.0
C872 C 0.18218 0.37597 0.75908 0.0
C873 C 0.16587 0.36392 0.77738 0.0
C874 C 0.17311 0.3403 0.78992 0.0
C875 C 0.19759 0.32947 0.78461 0.0
H876 H 0.80137 0.76305 0.89557 0.0
H877 H 0.77634 0.69621 0.84984 0.0
H878 H 0.73408 0.71736 0.84256 0.0
H879 H 0.74008 0.77414 0.92808 0.0
H880 H 0.74351 0.80912 0.92764 0.0
H881 H 0.77165 0.78866 0.9291 0.0
H882 H 0.78988 0.81105 0.88699 0.0
H883 H 0.76193 0.83173 0.88578 0.0
H884 H 0.77043 0.81219 0.85754 0.0
H885 H 0.69604 0.74804 0.83714 0.0
H886 H 0.66469 0.7844 0.83632 0.0
H887 H 0.71315 0.82807 0.89024 0.0
C888 C 0.78696 0.75287 0.88406 0.0
C889 C 0.79204 0.72813 0.87311 0.0
C890 C 0.77269 0.7152 0.85843 0.0
C891 C 0.7487 0.72705 0.85419 0.0
C892 C 0.74428 0.75152 0.86529 0.0
C893 C 0.76278 0.7641 0.88021 0.0
C894 C 0.75323 0.79011 0.89021 0.0
C895 C 0.75204 0.79051 0.92056 0.0
C896 C 0.76986 0.81258 0.87948 0.0
C897 C 0.72662 0.79045 0.87824 0.0
C898 C 0.72184 0.7682 0.86368 0.0
C899 C 0.69939 0.76534 0.84889 0.0
C900 C 0.68168 0.78603 0.84858 0.0
C901 C 0.68644 0.80904 0.86326 0.0
C902 C 0.70881 0.81075 0.87891 0.0
H903 H 0.21722 0.66689 0.11615 0.0
H904 H 0.16215 0.7161 0.15688 0.0
H905 H 0.19311 0.75275 0.15527 0.0
H906 H 0.27062 0.68876 0.15224 0.0
H907 H 0.29283 0.68654 0.125 0.0
H908 H 0.26519 0.66547 0.12618 0.0
H909 H 0.25075 0.6818 0.08003 0.0
H910 H 0.2785 0.70276 0.07852 0.0
H911 H 0.24675 0.71628 0.07441 0.0
H912 H 0.23129 0.78348 0.15065 0.0
H913 H 0.27363 0.8049 0.14505 0.0
H914 H 0.30411 0.73371 0.11085 0.0
C915 C 0.21142 0.68543 0.12437 0.0
C916 C 0.18721 0.68868 0.13651 0.0
C917 C 0.18057 0.71325 0.14732 0.0
C918 C 0.19803 0.73415 0.14652 0.0
C919 C 0.2221 0.73001 0.13511 0.0
C920 C 0.22878 0.70619 0.12433 0.0
C921 C 0.25648 0.70593 0.11525 0.0
C922 C 0.2722 0.68547 0.13059 0.0
C923 C 0.25821 0.70143 0.08527 0.0
C924 C 0.26441 0.73334 0.12256 0.0
C925 C 0.24429 0.74709 0.1337 0.0
C926 C 0.24716 0.77289 0.14193 0.0
C927 C 0.27125 0.78489 0.13867 0.0
C928 C 0.29219 0.77093 0.12767 0.0
C929 C 0.28857 0.74484 0.11955 0.0
H930 H 0.27737 0.33041 0.61992 0.0
H931 H 0.33706 0.27896 0.64909 0.0
H932 H 0.30845 0.241 0.64237 0.0
H933 H 0.22803 0.29958 0.65443 0.0
H934 H 0.20374 0.30438 0.6295 0.0
H935 H 0.23023 0.32682 0.63203 0.0
H936 H 0.24197 0.31852 0.58297 0.0
H937 H 0.21534 0.29619 0.58017 0.0
H938 H 0.24737 0.2856 0.57173 0.0
H939 H 0.27223 0.20908 0.63538 0.0
H940 H 0.23059 0.1861 0.63118 0.0
H941 H 0.19368 0.2592 0.61034 0.0
C942 C 0.28464 0.31109 0.62414 0.0
C943 C 0.30952 0.30746 0.63455 0.0
C944 C 0.31811 0.28199 0.64075 0.0
C945 C 0.30202 0.26036 0.63699 0.0
C946 C 0.27726 0.26463 0.62741 0.0
C947 C 0.26855 0.28939 0.62122 0.0
C948 C 0.24024 0.28911 0.61429 0.0
C949 C 0.22465 0.30596 0.63372 0.0
C950 C 0.23599 0.29787 0.58558 0.0
C951 C 0.23435 0.26039 0.61775 0.0
C952 C 0.25602 0.24651 0.62489 0.0
C953 C 0.25515 0.21972 0.62965 0.0
C954 C 0.23143 0.20683 0.6272 0.0
C955 C 0.20888 0.22084 0.62052 0.0
C956 C 0.21054 0.24794 0.61559 0.0
H957 H 0.70468 0.25427 0.34045 0.0
H958 H 0.71639 0.28194 0.42043 0.0
H959 H 0.75623 0.2555 0.42362 0.0
H960 H 0.72558 0.19012 0.34879 0.0
H961 H 0.74213 0.18769 0.31761 0.0
H962 H 0.71535 0.20965 0.32108 0.0
H963 H 0.74367 0.248 0.30546 0.0
H964 H 0.77087 0.22647 0.30201 0.0
H965 H 0.77333 0.2551 0.32245 0.0
H966 H 0.79108 0.22123 0.41982 0.0
H967 H 0.82206 0.18655 0.40708 0.0
H968 H 0.79031 0.18566 0.32802 0.0
C969 C 0.71587 0.25495 0.35848 0.0
C970 C 0.70762 0.26988 0.38029 0.0
C971 C 0.72264 0.27062 0.40354 0.0
C972 C 0.74515 0.25563 0.40552 0.0
C973 C 0.75259 0.2407 0.38379 0.0
C974 C 0.73871 0.24076 0.36048 0.0
C975 C 0.7509 0.22324 0.33993 0.0
C976 C 0.73238 0.20139 0.33137 0.0
C977 C 0.76024 0.23916 0.31605 0.0
C978 C 0.77327 0.21255 0.35563 0.0
C979 C 0.77382 0.22265 0.38097 0.0
C980 C 0.79129 0.21373 0.39984 0.0
C981 C 0.80869 0.19406 0.39254 0.0
C982 C 0.80873 0.18415 0.36652 0.0
C983 C 0.791 0.19362 0.34783 0.0
H984 H 0.12017 0.21526 0.53184 0.0
H985 H 0.13124 0.13165 0.5382 0.0
H986 H 0.12378 0.12714 0.49009 0.0
H987 H 0.07117 0.21502 0.48051 0.0
H988 H 0.08441 0.24324 0.46421 0.0
H989 H 0.08813 0.23938 0.49938 0.0
H990 H 0.1376 0.24359 0.49448 0.0
H991 H 0.13403 0.24755 0.45936 0.0
H992 H 0.15443 0.22211 0.4722 0.0
H993 H 0.11617 0.13229 0.44081 0.0
H994 H 0.11342 0.14701 0.3943 0.0
H995 H 0.10962 0.22738 0.42094 0.0
C996 C 0.12059 0.19595 0.52319 0.0
C997 C 0.12596 0.17376 0.53869 0.0
C998 C 0.12707 0.14888 0.52659 0.0
C999 C 0.12272 0.14613 0.49936 0.0
C1000 C 0.11757 0.16848 0.48458 0.0
C1001 C 0.11677 0.19293 0.49608 0.0
C1002 C 0.11309 0.21412 0.4757 0.0
C1003 C 0.08768 0.2288 0.48023 0.0
C1004 C 0.13616 0.23294 0.47542 0.0
C1005 C 0.11208 0.19783 0.45085 0.0
C1006 C 0.11428 0.17153 0.45632 0.0
C1007 C 0.11436 0.15284 0.4363 0.0
C1008 C 0.11269 0.16136 0.40998 0.0
C1009 C 0.11141 0.18833 0.40403 0.0
C1010 C 0.11067 0.20663 0.42484 0.0
H1011 H 0.36628 0.78233 0.02756 0.0
H1012 H 0.36069 0.86557 0.04175 0.0
H1013 H 0.36657 0.87378 0.99383 0.0
H1014 H 0.41419 0.78408 0.97782 0.0
H1015 H 0.40011 0.75826 0.95847 0.0
H1016 H 0.39525 0.75913 0.99367 0.0
H1017 H 0.34583 0.75846 0.98684 0.0
H1018 H 0.35054 0.75729 0.95162 0.0
H1019 H 0.33106 0.78269 0.96596 0.0
H1020 H 0.37549 0.87245 0.94441 0.0
H1021 H 0.38167 0.8618 0.89719 0.0
H1022 H 0.37941 0.77926 0.91617 0.0
C1023 C 0.36625 0.80231 0.0206 0.0
C1024 C 0.36325 0.82336 0.03828 0.0
C1025 C 0.36291 0.84919 0.02843 0.0
C1026 C 0.36637 0.85401 0.00133 0.0
C1027 C 0.36974 0.83275 0.98447 0.0
C1028 C 0.36926 0.8074 0.99373 0.0
C1029 C 0.37259 0.78788 0.97163 0.0
C1030 C 0.39699 0.77137 0.97565 0.0
C1031 C 0.34857 0.77057 0.96885 0.0
C1032 C 0.37539 0.80616 0.94843 0.0
C1033 C 0.37392 0.83197 0.95618 0.0
C1034 C 0.37648 0.85231 0.93811 0.0
C1035 C 0.38013 0.84606 0.91137 0.0
C1036 C 0.38091 0.81969 0.90298 0.0
C1037 C 0.37873 0.7996 0.9219 0.0
H1038 H 0.61485 0.27438 0.46138 0.0
H1039 H 0.61456 0.35859 0.45377 0.0
H1040 H 0.60452 0.3627 0.50142 0.0
H1041 H 0.56503 0.26838 0.51372 0.0
H1042 H 0.58247 0.24269 0.53015 0.0
H1043 H 0.58482 0.24635 0.49481 0.0
H1044 H 0.63446 0.24927 0.49853 0.0
H1045 H 0.63227 0.24562 0.53375 0.0
H1046 H 0.64861 0.27345 0.51991 0.0
H1047 H 0.59792 0.3575 0.55054 0.0
H1048 H 0.60043 0.34384 0.59737 0.0
H1049 H 0.6084 0.26327 0.57265 0.0
C1050 C 0.61189 0.29365 0.4696 0.0
C1051 C 0.61498 0.31617 0.45393 0.0
C1052 C 0.612 0.34111 0.46551 0.0
C1053 C 0.60615 0.34361 0.49246 0.0
C1054 C 0.60364 0.32097 0.50752 0.0
C1055 C 0.60665 0.29647 0.4965 0.0
C1056 C 0.6065 0.27539 0.51738 0.0
C1057 C 0.58332 0.25713 0.5138 0.0
C1058 C 0.63197 0.26005 0.51739 0.0
C1059 C 0.60369 0.29187 0.54197 0.0
C1060 C 0.60133 0.31804 0.53589 0.0
C1061 C 0.59953 0.33704 0.55552 0.0
C1062 C 0.60089 0.32912 0.58203 0.0
C1063 C 0.60466 0.30254 0.58852 0.0
C1064 C 0.60549 0.28372 0.56821 0.0
H1065 H 0.88738 0.72522 0.08172 0.0
H1066 H 0.88401 0.64387 0.10515 0.0
H1067 H 0.87758 0.63119 0.05838 0.0
H1068 H 0.83888 0.72262 0.03352 0.0
H1069 H 0.85458 0.74493 0.01123 0.0
H1070 H 0.8603 0.74725 0.04621 0.0
H1071 H 0.90941 0.74266 0.03848 0.0
H1072 H 0.90387 0.7407 0.00343 0.0
H1073 H 0.92147 0.7152 0.01999 0.0
H1074 H 0.86782 0.62824 0.00883 0.0
H1075 H 0.86072 0.63497 0.9608 0.0
H1076 H 0.87198 0.71815 0.97136 0.0
C1077 C 0.8856 0.70468 0.07707 0.0
C1078 C 0.88612 0.68553 0.09707 0.0
C1079 C 0.88382 0.65887 0.09009 0.0
C1080 C 0.88 0.65151 0.06363 0.0
C1081 C 0.87885 0.67104 0.04448 0.0
C1082 C 0.882 0.69704 0.05092 0.0
C1083 C 0.87983 0.71442 0.02698 0.0
C1084 C 0.85704 0.73341 0.02966 0.0
C1085 C 0.90516 0.7291 0.02192 0.0
C1086 C 0.87482 0.69421 0.00595 0.0
C1087 C 0.87404 0.66929 0.01631 0.0
C1088 C 0.8687 0.64765 0.00049 0.0
C1089 C 0.86454 0.65165 0.97333 0.0
C1090 C 0.86609 0.67703 0.9624 0.0
C1091 C 0.87108 0.69846 0.97907 0.0
H1092 H 0.4241 0.15348 0.20771 0.0
H1093 H 0.40919 0.08679 0.15717 0.0
H1094 H 0.45553 0.08487 0.14574 0.0
H1095 H 0.46796 0.18448 0.16577 0.0
H1096 H 0.48801 0.19646 0.19216 0.0
H1097 H 0.45433 0.19085 0.19788 0.0
H1098 H 0.46543 0.16015 0.23699 0.0
H1099 H 0.4992 0.16571 0.2314 0.0
H1100 H 0.48673 0.13292 0.23164 0.0
H1101 H 0.50448 0.09086 0.14016 0.0
H1102 H 0.54972 0.10674 0.13798 0.0
H1103 H 0.52993 0.17099 0.18961 0.0
C1104 C 0.4305 0.1382 0.19448 0.0
C1105 C 0.41303 0.12015 0.18352 0.0
C1106 C 0.42226 0.1008 0.16589 0.0
C1107 C 0.44854 0.09949 0.15938 0.0
C1108 C 0.46521 0.11777 0.17053 0.0
C1109 C 0.45639 0.13684 0.18758 0.0
C1110 C 0.47757 0.15521 0.19583 0.0
C1111 C 0.4716 0.18341 0.18739 0.0
C1112 C 0.48252 0.15338 0.22573 0.0
C1113 C 0.49969 0.14397 0.1803 0.0
C1114 C 0.49252 0.122 0.16627 0.0
C1115 C 0.51022 0.1081 0.15098 0.0
C1116 C 0.53576 0.11715 0.14986 0.0
C1117 C 0.54289 0.14015 0.16338 0.0
C1118 C 0.5247 0.15353 0.17882 0.0
H1119 H 0.96083 0.87174 0.70055 0.0
H1120 H 0.95762 0.86755 0.61532 0.0
H1121 H 0.00226 0.88431 0.61262 0.0
H1122 H 0.00719 0.92893 0.7068 0.0
H1123 H 0.02325 0.91346 0.73419 0.0
H1124 H 0.98928 0.90843 0.72912 0.0
H1125 H 0.99675 0.85847 0.72873 0.0
H1126 H 0.03064 0.86328 0.7334 0.0
H1127 H 0.01928 0.8447 0.70552 0.0
H1128 H 0.04882 0.89433 0.6195 0.0
H1129 H 0.09379 0.89442 0.63491 0.0
H1130 H 0.06727 0.88895 0.71606 0.0
C1131 C 0.9692 0.87574 0.68138 0.0
C1132 C 0.95581 0.86944 0.65809 0.0
C1133 C 0.96755 0.87318 0.63325 0.0
C1134 C 0.99282 0.88265 0.6316 0.0
C1135 C 0.00602 0.88786 0.65503 0.0
C1136 C 0.99456 0.88457 0.67949 0.0
C1137 C 0.01398 0.88702 0.70163 0.0
C1138 C 0.00807 0.91089 0.71895 0.0
C1139 C 0.01523 0.86188 0.71827 0.0
C1140 C 0.03834 0.891 0.68581 0.0
C1141 C 0.03328 0.89218 0.65904 0.0
C1142 C 0.05297 0.89387 0.64044 0.0
C1143 C 0.07849 0.89384 0.64941 0.0
C1144 C 0.08411 0.89159 0.67672 0.0
C1145 C 0.06366 0.89078 0.69507 0.0
H1146 H 0.01356 0.33468 0.84722 0.0
H1147 H 0.04861 0.39271 0.79631 0.0
H1148 H 0.00571 0.41093 0.78644 0.0
H1149 H 0.96116 0.32111 0.80878 0.0
H1150 H 0.93827 0.31775 0.8353 0.0
H1151 H 0.97178 0.31147 0.84125 0.0
H1152 H 0.97207 0.34555 0.87905 0.0
H1153 H 0.93838 0.35174 0.87345 0.0
H1154 H 0.96107 0.37829 0.87263 0.0
H1155 H 0.95895 0.41771 0.77624 0.0
H1156 H 0.91154 0.41586 0.77075 0.0
H1157 H 0.90716 0.35578 0.83068 0.0
C1158 C 0.01222 0.35164 0.83454 0.0
C1159 C 0.0343 0.3623 0.8225 0.0
C1160 C 0.03189 0.38439 0.80589 0.0
C1161 C 0.00762 0.39483 0.80013 0.0
C1162 C 0.9861 0.38331 0.81163 0.0
C1163 C 0.98821 0.36259 0.82899 0.0
C1164 C 0.96205 0.35297 0.83772 0.0
C1165 C 0.9581 0.32412 0.8303 0.0
C1166 C 0.95817 0.35741 0.86748 0.0
C1167 C 0.94491 0.37068 0.8216 0.0
C1168 C 0.95912 0.38811 0.8067 0.0
C1169 C 0.94757 0.40468 0.78833 0.0
C1170 C 0.92079 0.40343 0.78521 0.0
C1171 C 0.90609 0.38598 0.80061 0.0
C1172 C 0.91818 0.36965 0.81916 0.0
H1173 H 0.459 0.63459 0.29163 0.0
H1174 H 0.45185 0.60786 0.37229 0.0
H1175 H 0.49698 0.59204 0.3711 0.0
H1176 H 0.50626 0.58323 0.26762 0.0
H1177 H 0.52296 0.60716 0.24797 0.0
H1178 H 0.48878 0.61007 0.25323 0.0
H1179 H 0.49557 0.65681 0.27135 0.0
H1180 H 0.52968 0.65394 0.26666 0.0
H1181 H 0.51704 0.66182 0.29885 0.0
H1182 H 0.54467 0.58623 0.36325 0.0
H1183 H 0.59013 0.59078 0.34991 0.0
H1184 H 0.56582 0.62316 0.27469 0.0
C1185 C 0.46664 0.62413 0.3085 0.0
C1186 C 0.45199 0.62147 0.33172 0.0
C1187 C 0.46271 0.60913 0.35408 0.0
C1188 C 0.4883 0.60024 0.35354 0.0
C1189 C 0.50269 0.60403 0.33053 0.0
C1190 C 0.49209 0.61548 0.3083 0.0
C1191 C 0.51225 0.62079 0.28744 0.0
C1192 C 0.50726 0.60432 0.2626 0.0
C1193 C 0.51371 0.65007 0.28071 0.0
C1194 C 0.53611 0.61169 0.30177 0.0
C1195 C 0.53022 0.60158 0.32636 0.0
C1196 C 0.54942 0.59368 0.34385 0.0
C1197 C 0.57522 0.59644 0.33611 0.0
C1198 C 0.58163 0.6074 0.31124 0.0
C1199 C 0.56167 0.61463 0.29379 0.0
H1200 H 0.23101 0.43297 0.11516 0.0
H1201 H 0.15213 0.40578 0.1205 0.0
H1202 H 0.13724 0.45118 0.12607 0.0
H1203 H 0.2263 0.48453 0.16256 0.0
H1204 H 0.24651 0.50657 0.14417 0.0
H1205 H 0.25094 0.47188 0.14103 0.0
H1206 H 0.24517 0.47547 0.09028 0.0
H1207 H 0.24075 0.51018 0.09327 0.0
H1208 H 0.21661 0.49062 0.07715 0.0
H1209 H 0.13123 0.49952 0.13313 0.0
H1210 H 0.13436 0.54756 0.13732 0.0
H1211 H 0.21675 0.54284 0.12448 0.0
C1212 C 0.21062 0.43657 0.11755 0.0
C1213 C 0.19274 0.41589 0.11754 0.0
C1214 C 0.16616 0.42139 0.12038 0.0
C1215 C 0.15752 0.44707 0.12365 0.0
C1216 C 0.17566 0.46703 0.12366 0.0
C1217 C 0.20162 0.4621 0.12037 0.0
C1218 C 0.21707 0.48707 0.12034 0.0
C1219 C 0.23634 0.48753 0.1434 0.0
C1220 C 0.23069 0.49106 0.09367 0.0
C1221 C 0.19579 0.50677 0.12433 0.0
C1222 C 0.17206 0.49486 0.12648 0.0
C1223 C 0.14967 0.50911 0.13121 0.0
C1224 C 0.15162 0.53631 0.13364 0.0
C1225 C 0.17573 0.54885 0.13091 0.0
C1226 C 0.198 0.53381 0.1262 0.0
H1227 H 0.71949 0.95261 0.88699 0.0
H1228 H 0.63903 0.95189 0.8641 0.0
H1229 H 0.63853 8e-05 0.86476 0.0
H1230 H 0.71681 0.0102 0.92986 0.0
H1231 H 0.74789 0.02168 0.91921 0.0
H1232 H 0.74108 0.98723 0.91959 0.0
H1233 H 0.75354 0.98428 0.87009 0.0
H1234 H 0.76012 0.01873 0.86947 0.0
H1235 H 0.73744 0.00492 0.84647 0.0
H1236 H 0.64717 0.04806 0.86661 0.0
H1237 H 0.66467 0.09278 0.86793 0.0
H1238 H 0.7402 0.06193 0.88684 0.0
C1239 C 0.70161 0.96256 0.88267 0.0
C1240 C 0.67921 0.94857 0.87578 0.0
C1241 C 0.65636 0.96229 0.86956 0.0
C1242 C 0.65588 0.98961 0.86993 0.0
C1243 C 0.67845 0.00281 0.87633 0.0
C1244 C 0.7009 0.98977 0.88254 0.0
C1245 C 0.72295 0.00851 0.88701 0.0
C1246 C 0.73275 0.0068 0.91562 0.0
C1247 C 0.74479 0.00383 0.86706 0.0
C1248 C 0.70949 0.03416 0.88193 0.0
C1249 C 0.68374 0.03045 0.87621 0.0
C1250 C 0.66728 0.05123 0.87107 0.0
C1251 C 0.6774 0.07651 0.87186 0.0
C1252 C 0.7038 0.08071 0.87731 0.0
C1253 C 0.72002 0.05922 0.88232 0.0
H1254 H 0.81351 0.03769 0.40352 0.0
H1255 H 0.84634 0.04539 0.32502 0.0
H1256 H 0.84314 0.99789 0.31884 0.0
H1257 H 0.8448 0.9731 0.41863 0.0
H1258 H 0.81698 0.96201 0.43666 0.0
H1259 H 0.82508 0.99619 0.43625 0.0
H1260 H 0.77938 0.00685 0.41896 0.0
H1261 H 0.77128 0.97275 0.41881 0.0
H1262 H 0.76817 0.99167 0.38896 0.0
H1263 H 0.82916 0.95144 0.31796 0.0
H1264 H 0.81153 0.90717 0.32536 0.0
H1265 H 0.79088 0.92843 0.40542 0.0
C1266 C 0.8207 0.02929 0.38533 0.0
C1267 C 0.83011 0.04527 0.36474 0.0
C1268 C 0.83922 0.03356 0.34117 0.0
C1269 C 0.83739 0.00658 0.33741 0.0
C1270 C 0.82698 0.99153 0.35764 0.0
C1271 C 0.81945 0.00231 0.38143 0.0
C1272 C 0.80793 0.98186 0.39952 0.0
C1273 C 0.8247 0.97806 0.42423 0.0
C1274 C 0.78004 0.9887 0.40698 0.0
C1275 C 0.80905 0.9582 0.38169 0.0
C1276 C 0.82009 0.96424 0.35759 0.0
C1277 C 0.82111 0.94627 0.33696 0.0
C1278 C 0.81088 0.92135 0.34121 0.0
C1279 C 0.80014 0.91469 0.36593 0.0
C1280 C 0.79937 0.93318 0.38648 0.0
H1281 H 0.31925 0.45539 0.66701 0.0
H1282 H 0.34865 0.44388 0.58784 0.0
H1283 H 0.35084 0.49174 0.5815 0.0
H1284 H 0.27722 0.50484 0.6497 0.0
H1285 H 0.28053 0.52343 0.67972 0.0
H1286 H 0.28602 0.48881 0.68008 0.0
H1287 H 0.33153 0.49609 0.69953 0.0
H1288 H 0.32611 0.53081 0.69943 0.0
H1289 H 0.35373 0.51741 0.68273 0.0
H1290 H 0.3464 0.54039 0.58249 0.0
H1291 H 0.33276 0.58598 0.58913 0.0
H1292 H 0.30276 0.56568 0.66651 0.0
C1293 C 0.32701 0.46309 0.64874 0.0
C1294 C 0.33447 0.4462 0.62812 0.0
C1295 C 0.34336 0.45669 0.60397 0.0
C1296 C 0.34468 0.48377 0.60026 0.0
C1297 C 0.33662 0.50001 0.62076 0.0
C1298 C 0.3278 0.49007 0.64449 0.0
C1299 C 0.31716 0.5115 0.66199 0.0
C1300 C 0.28854 0.50686 0.66822 0.0
C1301 C 0.33309 0.5141 0.68743 0.0
C1302 C 0.32081 0.53495 0.64417 0.0
C1303 C 0.3326 0.52797 0.62074 0.0
C1304 C 0.33734 0.54612 0.60084 0.0
C1305 C 0.32953 0.572 0.60483 0.0
C1306 C 0.31666 0.57945 0.62834 0.0
C1307 C 0.31254 0.56063 0.64833 0.0
H1308 H 0.7981 0.82674 0.4819 0.0
H1309 H 0.86616 0.86296 0.44879 0.0
H1310 H 0.88717 0.86141 0.49276 0.0
H1311 H 0.80047 0.85569 0.54767 0.0
H1312 H 0.79051 0.82594 0.56364 0.0
H1313 H 0.78 0.83295 0.53048 0.0
H1314 H 0.79877 0.78877 0.51471 0.0
H1315 H 0.80954 0.78171 0.54773 0.0
H1316 H 0.83217 0.78149 0.52076 0.0
H1317 H 0.90052 0.85532 0.54034 0.0
H1318 H 0.90681 0.84195 0.58689 0.0
H1319 H 0.83152 0.80554 0.58696 0.0
C1320 C 0.81719 0.83492 0.48411 0.0
C1321 C 0.83043 0.8455 0.46233 0.0
C1322 C 0.85572 0.85511 0.46551 0.0
C1323 C 0.86771 0.85431 0.49033 0.0
C1324 C 0.85425 0.84334 0.51142 0.0
C1325 C 0.82964 0.83357 0.50846 0.0
C1326 C 0.82023 0.82058 0.53347 0.0
C1327 C 0.79639 0.83464 0.54446 0.0
C1328 C 0.81487 0.79141 0.52888 0.0
C1329 C 0.84336 0.82457 0.55104 0.0
C1330 C 0.86262 0.83812 0.53813 0.0
C1331 C 0.88563 0.8446 0.5506 0.0
C1332 C 0.88901 0.83697 0.57697 0.0
C1333 C 0.86972 0.82255 0.59025 0.0
C1334 C 0.84668 0.81625 0.57707 0.0
H1335 H 0.6555 0.19605 0.95761 0.0
H1336 H 0.65956 0.11194 0.95315 0.0
H1337 H 0.63812 0.1085 0.99673 0.0
H1338 H 0.67552 0.19988 0.02013 0.0
H1339 H 0.65604 0.22721 0.03023 0.0
H1340 H 0.66435 0.22321 0.99607 0.0
H1341 H 0.61613 0.22379 0.98317 0.0
H1342 H 0.6076 0.22809 0.01743 0.0
H1343 H 0.59418 0.20139 -0.00117 0.0
H1344 H 0.62328 0.11437 0.04321 0.0
H1345 H 0.61921 0.12872 0.08961 0.0
H1346 H 0.6279 0.2092 0.06469 0.0
C1347 C 0.65063 0.17699 0.96538 0.0
C1348 C 0.65823 0.15422 0.95206 0.0
C1349 C 0.6531 0.12948 0.96306 0.0
C1350 C 0.64092 0.12741 0.98768 0.0
C1351 C 0.63437 0.15031 0.00096 0.0
C1352 C 0.63904 0.17468 0.99016 0.0
C1353 C 0.63458 0.19615 0.01012 0.0
C1354 C 0.65908 0.21254 0.01438 0.0
C1355 C 0.61176 0.21337 0.00189 0.0
C1356 C 0.62812 0.18003 0.03422 0.0
C1357 C 0.62721 0.15372 0.02837 0.0
C1358 C 0.62349 0.13495 0.04794 0.0
C1359 C 0.62125 0.14327 0.07423 0.0
C1360 C 0.62339 0.17004 0.08068 0.0
C1361 C 0.6262 0.1886 0.0603 0.0
H1362 H 0.37301 0.70698 0.42852 0.0
H1363 H 0.36668 0.62803 0.39827 0.0
H1364 H 0.35244 0.61283 0.44217 0.0
H1365 H 0.39683 0.68833 0.49446 0.0
H1366 H 0.37929 0.71416 0.51056 0.0
H1367 H 0.39045 0.71837 0.47713 0.0
H1368 H 0.34392 0.72898 0.46227 0.0
H1369 H 0.33256 0.7245 0.49554 0.0
H1370 H 0.31856 0.70593 0.46896 0.0
H1371 H 0.33335 0.60748 0.48768 0.0
H1372 H 0.31689 0.61138 0.53358 0.0
H1373 H 0.33945 0.69268 0.53497 0.0
C1374 C 0.36901 0.68643 0.43124 0.0
C1375 C 0.37085 0.66871 0.40998 0.0
C1376 C 0.36552 0.64194 0.41432 0.0
C1377 C 0.35731 0.63313 0.43915 0.0
C1378 C 0.35503 0.65124 0.45951 0.0
C1379 C 0.36128 0.67722 0.45599 0.0
C1380 C 0.35697 0.69274 0.481 0.0
C1381 C 0.38241 0.70406 0.4914 0.0
C1382 C 0.3368 0.7143 0.47667 0.0
C1383 C 0.34682 0.67156 0.49898 0.0
C1384 C 0.34553 0.64779 0.48615 0.0
C1385 C 0.33476 0.62583 0.49812 0.0
C1386 C 0.32535 0.62822 0.524 0.0
C1387 C 0.32731 0.6522 0.53756 0.0
C1388 C 0.33826 0.67403 0.52499 0.0
H1389 H 0.13926 0.30509 0.03181 0.0
H1390 H 0.15469 0.38795 0.03324 0.0
H1391 H 0.13525 0.39255 0.98878 0.0
H1392 H 0.16033 0.29615 0.96965 0.0
H1393 H 0.1376 0.27132 0.96015 0.0
H1394 H 0.14577 0.27553 0.99433 0.0
H1395 H 0.09766 0.28195 0.00606 0.0
H1396 H 0.08926 0.27752 0.97179 0.0
H1397 H 0.07917 0.30651 0.98907 0.0
H1398 H 0.12019 0.38699 0.94211 0.0
H1399 H 0.11449 0.37148 0.89621 0.0
H1400 H 0.11242 0.29163 0.92435 0.0
C1401 C 0.13736 0.32431 0.02313 0.0
C1402 C 0.14756 0.34633 0.03591 0.0
C1403 C 0.14627 0.37106 0.02373 0.0
C1404 C 0.13523 0.3738 -0.0014 0.0
C1405 C 0.12598 0.35152 0.98596 0.0
C1406 C 0.12701 0.3272 0.99783 0.0
C1407 C 0.12009 0.30578 0.97855 0.0
C1408 C 0.14227 0.28606 0.9755 0.0
C1409 C 0.09505 0.29214 0.98687 0.0
C1410 C 0.11626 0.32166 0.9537 0.0
C1411 C 0.11886 0.34806 0.95852 0.0
C1412 C 0.11774 0.36639 0.93818 0.0
C1413 C 0.11451 0.35743 0.91219 0.0
C1414 C 0.11314 0.33038 0.90682 0.0
C1415 C 0.11341 0.31243 0.92794 0.0
H1416 H 0.57682 0.8635 0.87117 0.0
H1417 H 0.59165 0.90909 0.80067 0.0
H1418 H 0.54472 0.91425 0.79384 0.0
H1419 H 0.52797 0.82727 0.84469 0.0
H1420 H 0.50927 0.82517 0.87461 0.0
H1421 H 0.54347 0.82958 0.87646 0.0
H1422 H 0.53678 0.87113 0.90488 0.0
H1423 H 0.50241 0.86692 0.9029 0.0
H1424 H 0.51684 0.89719 0.89254 0.0
H1425 H 0.49594 0.91078 0.79271 0.0
H1426 H 0.4511 0.89423 0.79406 0.0
H1427 H 0.4695 0.8486 0.86345 0.0
C1428 C 0.57023 0.87516 0.85466 0.0
C1429 C 0.58779 0.88615 0.83661 0.0
C1430 C 0.57844 0.90063 0.81482 0.0
C1431 C 0.55185 0.90382 0.81092 0.0
C1432 C 0.53497 0.89234 0.82895 0.0
C1433 C 0.5439 0.87813 0.85029 0.0
C1434 C 0.52221 0.86475 0.86482 0.0
C1435 C 0.52596 0.83494 0.86513 0.0
C1436 C 0.5194 0.87566 0.89295 0.0
C1437 C 0.49975 0.87267 0.84771 0.0
C1438 C 0.50724 0.88932 0.82763 0.0
C1439 C 0.48983 0.89804 0.80856 0.0
C1440 C 0.46442 0.88871 0.80953 0.0
C1441 C 0.45707 0.87041 0.829 0.0
C1442 C 0.47473 0.86289 0.84863 0.0
H1443 H 0.92134 0.14385 0.36237 0.0
H1444 H 0.90916 0.10098 0.28962 0.0
H1445 H 0.95618 0.10174 0.28106 0.0
H1446 H 0.96641 0.18681 0.33681 0.0
H1447 H 0.98524 0.1888 0.36663 0.0
H1448 H 0.95152 0.18139 0.36851 0.0
H1449 H 0.96193 0.13903 0.39443 0.0
H1450 H 0.99579 0.14627 0.39247 0.0
H1451 H 0.98381 0.11551 0.38043 0.0
H1452 H 0.00486 0.10933 0.27993 0.0
H1453 H 0.04896 0.12771 0.28338 0.0
H1454 H 0.02717 0.16806 0.3551 0.0
C1455 C 0.92856 0.13415 0.34486 0.0
C1456 C 0.91173 0.12209 0.32679 0.0
C1457 C 0.92184 0.11022 0.30377 0.0
C1458 C 0.94848 0.11041 0.29888 0.0
C1459 C 0.96457 0.12271 0.31712 0.0
C1460 C 0.95485 0.13457 0.33952 0.0
C1461 C 0.97547 0.14889 0.35469 0.0
C1462 C 0.96929 0.1782 0.35675 0.0
C1463 C 0.97948 0.13669 0.38213 0.0
C1464 C 0.9983 0.14394 0.33698 0.0
C1465 C 0.99194 0.12819 0.31579 0.0
C1466 C 0.01003 0.12155 0.29653 0.0
C1467 C 0.03499 0.13192 0.29867 0.0
C1468 C 0.04118 0.14918 0.3195 0.0
C1469 C 0.02278 0.15481 0.33905 0.0
H1470 H 0.08124 0.63477 0.19931 0.0
H1471 H 0.08124 0.5974 0.1226 0.0
H1472 H 0.03374 0.59431 0.12411 0.0
H1473 H 0.02299 0.60169 0.22768 0.0
H1474 H 0.01225 0.63137 0.24323 0.0
H1475 H 0.04617 0.62536 0.23892 0.0
H1476 H 0.05086 0.66926 0.21395 0.0
H1477 H 0.01713 0.67541 0.21833 0.0
H1478 H 0.0308 0.67556 0.1856 0.0
H1479 H 0.98618 0.59936 0.13192 0.0
H1480 H 0.94317 0.61767 0.14221 0.0
H1481 H 0.97453 0.65536 0.21156 0.0
C1482 C 0.07121 0.62519 0.18327 0.0
C1483 C 0.08474 0.61587 0.16107 0.0
C1484 C 0.07108 0.6044 0.13989 0.0
C1485 C 0.04417 0.60239 0.14069 0.0
C1486 C 0.03123 0.61225 0.16267 0.0
C1487 C 0.04433 0.6237 0.18346 0.0
C1488 C 0.02597 0.63652 0.2027 0.0
C1489 C 0.02691 0.62292 0.22973 0.0
C1490 C 0.03152 0.66592 0.20526 0.0
C1491 C 0.00061 0.63148 0.18895 0.0
C1492 C 0.0039 0.6166 0.16641 0.0
C1493 C 0.98333 0.61067 0.14972 0.0
C1494 C 0.95898 0.62098 0.15575 0.0
C1495 C 0.95573 0.63745 0.17784 0.0
C1496 C 0.97661 0.64229 0.19488 0.0
H1497 H 0.42532 0.38067 0.64506 0.0
H1498 H 0.39731 0.34897 0.71905 0.0
H1499 H 0.44119 0.33397 0.73001 0.0
H1500 H 0.46761 0.33257 0.62872 0.0
H1501 H 0.49297 0.3531 0.61618 0.0
H1502 H 0.46021 0.36434 0.61544 0.0
H1503 H 0.47278 0.40561 0.64196 0.0
H1504 H 0.50577 0.39477 0.64236 0.0
H1505 H 0.48955 0.40215 0.67293 0.0
H1506 H 0.48564 0.31533 0.72868 0.0
H1507 H 0.53021 0.30105 0.71907 0.0
H1508 H 0.53088 0.34878 0.64849 0.0
C1509 C 0.42867 0.37129 0.66391 0.0
C1510 C 0.40811 0.36598 0.68129 0.0
C1511 C 0.41296 0.35349 0.70569 0.0
C1512 C 0.43776 0.34478 0.712 0.0
C1513 C 0.45753 0.34948 0.69403 0.0
C1514 C 0.45347 0.3632 0.67088 0.0
C1515 C 0.47794 0.36514 0.65474 0.0
C1516 C 0.47445 0.35306 0.62715 0.0
C1517 C 0.48705 0.39361 0.6529 0.0
C1518 C 0.49597 0.34905 0.67164 0.0
C1519 C 0.48378 0.34016 0.6942 0.0
C1520 C 0.49565 0.3228 0.71154 0.0
C1521 C 0.52078 0.31465 0.70586 0.0
C1522 C 0.53373 0.32418 0.68332 0.0
C1523 C 0.52133 0.3417 0.66611 0.0
H1524 H 0.87046 0.58329 0.85724 0.0
H1525 H 0.80667 0.59 0.91192 0.0
H1526 H 0.80061 0.54211 0.9105 0.0
H1527 H 0.8406 0.53862 0.81617 0.0
H1528 H 0.86928 0.52053 0.8081 0.0
H1529 H 0.8716 0.55435 0.81715 0.0
H1530 H 0.90363 0.54252 0.85453 0.0
H1531 H 0.90143 0.50857 0.84555 0.0
H1532 H 0.89463 0.51861 0.87894 0.0
H1533 H 0.80039 0.49387 0.90142 0.0
H1534 H 0.80206 0.45002 0.88093 0.0
H1535 H 0.86265 0.47615 0.82847 0.0
C1536 C 0.85569 0.57453 0.86945 0.0
C1537 C 0.8393 0.59004 0.88508 0.0
C1538 C 0.81953 0.57822 0.90005 0.0
C1539 C 0.81608 0.5511 0.89948 0.0
C1540 C 0.83235 0.53629 0.88352 0.0
C1541 C 0.85156 0.54764 0.86852 0.0
C1542 C 0.86423 0.52798 0.85043 0.0
C1543 C 0.86122 0.53585 0.82125 0.0
C1544 C 0.89267 0.5242 0.85781 0.0
C1545 C 0.84861 0.50398 0.85696 0.0
C1546 C 0.83092 0.50894 0.87674 0.0
C1547 C 0.81422 0.48973 0.88599 0.0
C1548 C 0.81532 0.46496 0.87434 0.0
C1549 C 0.83242 0.46003 0.85321 0.0
C1550 C 0.84941 0.47964 0.84461 0.0
H1551 H 0.31783 0.91176 0.15243 0.0
H1552 H 0.36885 0.91323 0.08484 0.0
H1553 H 0.36891 0.96161 0.08589 0.0
H1554 H 0.28116 0.97127 0.13818 0.0
H1555 H 0.28033 0.98113 0.17234 0.0
H1556 H 0.28155 0.947 0.16395 0.0
H1557 H 0.32235 0.94155 0.19285 0.0
H1558 H 0.32131 0.97563 0.20124 0.0
H1559 H 0.34993 0.96196 0.18667 0.0
H1560 H 0.3635 0.00977 0.09481 0.0
H1561 H 0.35746 0.05381 0.11401 0.0
H1562 H 0.31435 0.02018 0.1789 0.0
C1563 C 0.32852 0.92241 0.13756 0.0
C1564 C 0.3429 0.90914 0.1182 0.0
C1565 C 0.3575 0.92335 0.09957 0.0
C1566 C 0.35756 0.95071 0.09999 0.0
C1567 C 0.34337 0.96335 0.11957 0.0
C1568 C 0.32942 0.94965 0.13824 0.0
C1569 C 0.31807 0.96768 0.15884 0.0
C1570 C 0.28852 0.96671 0.15828 0.0
C1571 C 0.32855 0.96132 0.18653 0.0
C1572 C 0.32799 0.99366 0.14899 0.0
C1573 C 0.342 0.99083 0.12595 0.0
C1574 C 0.35266 0.0122 0.1129 0.0
C1575 C 0.34911 0.03707 0.12387 0.0
C1576 C 0.33566 0.04014 0.14794 0.0
C1577 C 0.32494 0.0182 0.16059 0.0
H1578 H 0.20062 0.96908 0.64813 0.0
H1579 H 0.1342 0.93963 0.60619 0.0
H1580 H 0.12705 0.9834 0.58665 0.0
H1581 H 0.17651 0.02678 0.66651 0.0
H1582 H 0.20507 0.04616 0.66185 0.0
H1583 H 0.20787 0.01185 0.66834 0.0
H1584 H 0.23433 0.00556 0.62546 0.0
H1585 H 0.23203 0.04007 0.61899 0.0
H1586 H 0.22155 0.01694 0.59443 0.0
H1587 H 0.12167 0.03182 0.58075 0.0
H1588 H 0.12198 0.08006 0.58351 0.0
H1589 H 0.19446 0.07734 0.6255 0.0
C1590 C 0.18528 0.9717 0.6339 0.0
C1591 C 0.16814 0.9512 0.62822 0.0
C1592 C 0.1478 0.95514 0.61018 0.0
C1593 C 0.14358 0.97991 0.59914 0.0
C1594 C 0.16033 0.00014 0.6059 0.0
C1595 C 0.18126 0.99607 0.62224 0.0
C1596 C 0.19528 0.0213 0.62805 0.0
C1597 C 0.19621 0.02683 0.65795 0.0
C1598 C 0.22241 0.02094 0.616 0.0
C1599 C 0.17808 0.04048 0.61381 0.0
C1600 C 0.15803 0.02792 0.60109 0.0
C1601 C 0.13776 0.0418 0.58977 0.0
C1602 C 0.13799 0.06912 0.59155 0.0
C1603 C 0.15853 0.08218 0.60417 0.0
C1604 C 0.17902 0.06771 0.61495 0.0
H1605 H 0.63647 0.41179 0.35011 0.0
H1606 H 0.68305 0.41134 0.42111 0.0
H1607 H 0.68853 0.45934 0.41743 0.0
H1608 H 0.67563 0.45663 0.31576 0.0
H1609 H 0.64927 0.47196 0.29864 0.0
H1610 H 0.64682 0.43838 0.30866 0.0
H1611 H 0.60494 0.4488 0.33441 0.0
H1612 H 0.6072 0.48242 0.32438 0.0
H1613 H 0.60508 0.47428 0.35895 0.0
H1614 H 0.68871 0.50753 0.40532 0.0
H1615 H 0.68713 0.55093 0.38385 0.0
H1616 H 0.64376 0.5179 0.31879 0.0
C1617 C 0.64737 0.42188 0.36521 0.0
C1618 C 0.65892 0.40816 0.38621 0.0
C1619 C 0.67385 0.42174 0.40506 0.0
C1620 C 0.67699 0.4489 0.40313 0.0
C1621 C 0.66549 0.46186 0.38195 0.0
C1622 C 0.65124 0.44868 0.36317 0.0
C1623 C 0.64274 0.46649 0.34105 0.0
C1624 C 0.65431 0.45784 0.31447 0.0
C1625 C 0.61324 0.46809 0.33963 0.0
C1626 C 0.65429 0.49188 0.35031 0.0
C1627 C 0.66702 0.48898 0.37412 0.0
C1628 C 0.67889 0.50998 0.38664 0.0
C1629 C 0.67786 0.5345 0.37435 0.0
C1630 C 0.66549 0.53757 0.34964 0.0
C1631 C 0.65355 0.51599 0.33757 0.0
loop_
_geom_bond_atom_site_label_1
_geom_bond_atom_site_label_2
_geom_bond_distance
_geom_bond_site_symmetry_2
_ccdc_geom_bond_type
Co0 O1 2.216 . S
Co0 O2 2.091 . S
Co0 O4 2.004 . S
Co0 O10 2.021 . S
Co0 O12 2.137 . S
Co0 O13 2.244 . S
O1 Co0 2.216 . S
O1 C8 1.247 . S
O2 Co0 2.091 . S
O2 C8 1.261 . S
C3 O12 1.247 . S
C3 O13 1.272 . S
O4 Co0 2.004 . S
O4 C9 1.259 . S
Co5 O6 2.061 . S
Co5 O11 2.052 . S
Co5 O13 2.135 . S
O6 Co5 2.061 . S
O6 C9 1.235 . S
C7 O10 1.238 . S
C7 O11 1.241 . S
C8 O1 1.247 . S
C8 O2 1.261 . S
C9 O4 1.259 . S
C9 O6 1.235 . S
O10 Co0 2.021 . S
O10 C7 1.238 . S
O11 Co5 2.052 . S
O11 C7 1.241 . S
O12 Co0 2.137 . S
O12 C3 1.247 . S
O13 Co0 2.244 . S
O13 C3 1.272 . S
O13 Co5 2.135 . S
Co14 O15 2.216 . S
Co14 O16 2.091 . S
Co14 O18 2.004 . S
Co14 O24 2.021 . S
Co14 O26 2.137 . S
Co14 O27 2.244 . S
O15 Co14 2.216 . S
O15 C22 1.247 . S
O16 Co14 2.091 . S
O16 C22 1.261 . S
C17 O26 1.247 . S
C17 O27 1.272 . S
O18 Co14 2.004 . S
O18 C23 1.259 . S
Co19 O20 2.061 . S
Co19 O25 2.052 . S
Co19 O27 2.135 . S
O20 Co19 2.061 . S
O20 C23 1.235 . S
C21 O24 1.238 . S
C21 O25 1.241 . S
C22 O15 1.247 . S
C22 O16 1.261 . S
C23 O18 1.259 . S
C23 O20 1.235 . S
O24 Co14 2.021 . S
O24 C21 1.238 . S
O25 Co19 2.052 . S
O25 C21 1.241 . S
O26 Co14 2.137 . S
O26 C17 1.247 . S
O27 Co14 2.244 . S
O27 C17 1.272 . S
O27 Co19 2.135 . S
Co28 O29 2.216 . S
Co28 O30 2.091 . S
Co28 O32 2.004 . S
Co28 O38 2.021 . S
Co28 O40 2.137 . S
Co28 O41 2.244 . S
O29 Co28 2.216 . S
O29 C36 1.247 . S
O30 Co28 2.091 . S
O30 C36 1.261 . S
C31 O40 1.247 . S
C31 O41 1.272 . S
O32 Co28 2.004 . S
O32 C37 1.259 . S
Co33 O34 2.061 . S
Co33 O39 2.052 . S
Co33 O41 2.135 . S
O34 Co33 2.061 . S
O34 C37 1.235 . S
C35 O38 1.238 . S
C35 O39 1.241 . S
C36 O29 1.247 . S
C36 O30 1.261 . S
C37 O32 1.259 . S
C37 O34 1.235 . S
O38 Co28 2.021 . S
O38 C35 1.238 . S
O39 Co33 2.052 . S
O39 C35 1.241 . S
O40 Co28 2.137 . S
O40 C31 1.247 . S
O41 Co28 2.244 . S
O41 C31 1.272 . S
O41 Co33 2.135 . S
Co42 O43 2.216 . S
Co42 O44 2.091 . S
Co42 O46 2.004 . S
Co42 O52 2.021 . S
Co42 O54 2.137 . S
Co42 O55 2.244 . S
O43 Co42 2.216 . S
O43 C50 1.247 . S
O44 Co42 2.091 . S
O44 C50 1.261 . S
C45 O54 1.247 . S
C45 O55 1.272 . S
O46 Co42 2.004 . S
O46 C51 1.259 . S
Co47 O48 2.061 . S
Co47 O53 2.052 . S
Co47 O55 2.135 . S
O48 Co47 2.061 . S
O48 C51 1.235 . S
C49 O52 1.238 . S
C49 O53 1.241 . S
C50 O43 1.247 . S
C50 O44 1.261 . S
C51 O46 1.259 . S
C51 O48 1.235 . S
O52 Co42 2.021 . S
O52 C49 1.238 . S
O53 Co47 2.052 . S
O53 C49 1.241 . S
O54 Co42 2.137 . S
O54 C45 1.247 . S
O55 Co42 2.244 . S
O55 C45 1.272 . S
O55 Co47 2.135 . S
Co56 O57 2.216 . S
Co56 O58 2.091 . S
Co56 O60 2.004 . S
Co56 O66 2.021 . S
Co56 O68 2.137 . S
Co56 O69 2.244 . S
O57 Co56 2.216 . S
O57 C64 1.247 . S
O58 Co56 2.091 . S
O58 C64 1.261 . S
C59 O68 1.247 . S
C59 O69 1.272 . S
O60 Co56 2.004 . S
O60 C65 1.259 . S
Co61 O62 2.061 . S
Co61 O67 2.052 . S
Co61 O69 2.135 . S
O62 Co61 2.061 . S
O62 C65 1.235 . S
C63 O66 1.238 . S
C63 O67 1.241 . S
C64 O57 1.247 . S
C64 O58 1.261 . S
C65 O60 1.259 . S
C65 O62 1.235 . S
O66 Co56 2.021 . S
O66 C63 1.238 . S
O67 Co61 2.052 . S
O67 C63 1.241 . S
O68 Co56 2.137 . S
O68 C59 1.247 . S
O69 Co56 2.244 . S
O69 C59 1.272 . S
O69 Co61 2.135 . S
Co70 O71 2.216 . S
Co70 O72 2.091 . S
Co70 O74 2.004 . S
Co70 O80 2.021 . S
Co70 O82 2.137 . S
Co70 O83 2.244 . S
O71 Co70 2.216 . S
O71 C78 1.247 . S
O72 Co70 2.091 . S
O72 C78 1.261 . S
C73 O82 1.247 . S
C73 O83 1.272 . S
O74 Co70 2.004 . S
O74 C79 1.259 . S
Co75 O76 2.061 . S
Co75 O81 2.052 . S
Co75 O83 2.135 . S
O76 Co75 2.061 . S
O76 C79 1.235 . S
C77 O80 1.238 . S
C77 O81 1.241 . S
C78 O71 1.247 . S
C78 O72 1.261 . S
C79 O74 1.259 . S
C79 O76 1.235 . S
O80 Co70 2.021 . S
O80 C77 1.238 . S
O81 Co75 2.052 . S
O81 C77 1.241 . S
O82 Co70 2.137 . S
O82 C73 1.247 . S
O83 Co70 2.244 . S
O83 C73 1.272 . S
O83 Co75 2.135 . S
Co84 O85 2.216 . S
Co84 O86 2.091 . S
Co84 O88 2.004 . S
Co84 O94 2.021 . S
Co84 O96 2.137 . S
Co84 O97 2.244 . S
O85 Co84 2.216 . S
O85 C92 1.247 . S
O86 Co84 2.091 . S
O86 C92 1.261 . S
C87 O96 1.247 . S
C87 O97 1.272 . S
O88 Co84 2.004 . S
O88 C93 1.259 . S
Co89 O90 2.061 . S
Co89 O95 2.052 . S
Co89 O97 2.135 . S
O90 Co89 2.061 . S
O90 C93 1.235 . S
C91 O94 1.238 . S
C91 O95 1.241 . S
C92 O85 1.247 . S
C92 O86 1.261 . S
C93 O88 1.259 . S
C93 O90 1.235 . S
O94 Co84 2.021 . S
O94 C91 1.238 . S
O95 Co89 2.052 . S
O95 C91 1.241 . S
O96 Co84 2.137 . S
O96 C87 1.247 . S
O97 Co84 2.244 . S
O97 C87 1.272 . S
O97 Co89 2.135 . S
Co98 O99 2.216 . S
Co98 O100 2.091 . S
Co98 O102 2.004 . S
Co98 O108 2.021 . S
Co98 O110 2.137 . S
Co98 O111 2.244 . S
O99 Co98 2.216 . S
O99 C106 1.247 . S
O100 Co98 2.091 . S
O100 C106 1.261 . S
C101 O110 1.247 . S
C101 O111 1.272 . S
O102 Co98 2.004 . S
O102 C107 1.259 . S
Co103 O104 2.061 . S
Co103 O109 2.052 . S
Co103 O111 2.135 . S
O104 Co103 2.061 . S
O104 C107 1.235 . S
C105 O108 1.238 . S
C105 O109 1.241 . S
C106 O99 1.247 . S
C106 O100 1.261 . S
C107 O102 1.259 . S
C107 O104 1.235 . S
O108 Co98 2.021 . S
O108 C105 1.238 . S
O109 Co103 2.052 . S
O109 C105 1.241 . S
O110 Co98 2.137 . S
O110 C101 1.247 . S
O111 Co98 2.244 . S
O111 C101 1.272 . S
O111 Co103 2.135 . S
Co112 O113 2.216 . S
Co112 O114 2.091 . S
Co112 O116 2.004 . S
Co112 O122 2.021 . S
Co112 O124 2.137 . S
Co112 O125 2.244 . S
O113 Co112 2.216 . S
O113 C120 1.247 . S
O114 Co112 2.091 . S
O114 C120 1.261 . S
C115 O124 1.247 . S
C115 O125 1.272 . S
O116 Co112 2.004 . S
O116 C121 1.259 . S
Co117 O118 2.061 . S
Co117 O123 2.052 . S
Co117 O125 2.135 . S
O118 Co117 2.061 . S
O118 C121 1.235 . S
C119 O122 1.238 . S
C119 O123 1.241 . S
C120 O113 1.247 . S
C120 O114 1.261 . S
C121 O116 1.259 . S
C121 O118 1.235 . S
O122 Co112 2.021 . S
O122 C119 1.238 . S
O123 Co117 2.052 . S
O123 C119 1.241 . S
O124 Co112 2.137 . S
O124 C115 1.247 . S
O125 Co112 2.244 . S
O125 C115 1.272 . S
O125 Co117 2.135 . S
Co126 O127 2.216 . S
Co126 O128 2.091 . S
Co126 O130 2.004 . S
Co126 O136 2.021 . S
Co126 O138 2.137 . S
Co126 O139 2.244 . S
O127 Co126 2.216 . S
O127 C134 1.247 . S
O128 Co126 2.091 . S
O128 C134 1.261 . S
C129 O138 1.247 . S
C129 O139 1.272 . S
O130 Co126 2.004 . S
O130 C135 1.259 . S
Co131 O132 2.061 . S
Co131 O137 2.052 . S
Co131 O139 2.135 . S
O132 Co131 2.061 . S
O132 C135 1.235 . S
C133 O136 1.238 . S
C133 O137 1.241 . S
C134 O127 1.247 . S
C134 O128 1.261 . S
C135 O130 1.259 . S
C135 O132 1.235 . S
O136 Co126 2.021 . S
O136 C133 1.238 . S
O137 Co131 2.052 . S
O137 C133 1.241 . S
O138 Co126 2.137 . S
O138 C129 1.247 . S
O139 Co126 2.244 . S
O139 C129 1.272 . S
O139 Co131 2.135 . S
Co140 O141 2.216 . S
Co140 O142 2.091 . S
Co140 O144 2.004 . S
Co140 O150 2.021 . S
Co140 O152 2.137 . S
Co140 O153 2.244 . S
O141 Co140 2.216 . S
O141 C148 1.247 . S
O142 Co140 2.091 . S
O142 C148 1.261 . S
C143 O152 1.247 . S
C143 O153 1.272 . S
O144 Co140 2.004 . S
O144 C149 1.259 . S
Co145 O146 2.061 . S
Co145 O151 2.052 . S
Co145 O153 2.135 . S
O146 Co145 2.061 . S
O146 C149 1.235 . S
C147 O150 1.238 . S
C147 O151 1.241 . S
C148 O141 1.247 . S
C148 O142 1.261 . S
C149 O144 1.259 . S
C149 O146 1.235 . S
O150 Co140 2.021 . S
O150 C147 1.238 . S
O151 Co145 2.052 . S
O151 C147 1.241 . S
O152 Co140 2.137 . S
O152 C143 1.247 . S
O153 Co140 2.244 . S
O153 C143 1.272 . S
O153 Co145 2.135 . S
Co154 O155 2.216 . S
Co154 O156 2.091 . S
Co154 O158 2.004 . S
Co154 O164 2.021 . S
Co154 O166 2.137 . S
Co154 O167 2.244 . S
O155 Co154 2.216 . S
O155 C162 1.247 . S
O156 Co154 2.091 . S
O156 C162 1.261 . S
C157 O166 1.247 . S
C157 O167 1.272 . S
O158 Co154 2.004 . S
O158 C163 1.259 . S
Co159 O160 2.061 . S
Co159 O165 2.052 . S
Co159 O167 2.135 . S
O160 Co159 2.061 . S
O160 C163 1.235 . S
C161 O164 1.238 . S
C161 O165 1.241 . S
C162 O155 1.247 . S
C162 O156 1.261 . S
C163 O158 1.259 . S
C163 O160 1.235 . S
O164 Co154 2.021 . S
O164 C161 1.238 . S
O165 Co159 2.052 . S
O165 C161 1.241 . S
O166 Co154 2.137 . S
O166 C157 1.247 . S
O167 Co154 2.244 . S
O167 C157 1.272 . S
O167 Co159 2.135 . S
Co168 O169 2.216 . S
Co168 O170 2.091 . S
Co168 O172 2.004 . S
Co168 O178 2.021 . S
Co168 O180 2.137 . S
Co168 O181 2.244 . S
O169 Co168 2.216 . S
O169 C176 1.247 . S
O170 Co168 2.091 . S
O170 C176 1.261 . S
C171 O180 1.247 . S
C171 O181 1.272 . S
O172 Co168 2.004 . S
O172 C177 1.259 . S
Co173 O174 2.061 . S
Co173 O179 2.052 . S
Co173 O181 2.135 . S
O174 Co173 2.061 . S
O174 C177 1.235 . S
C175 O178 1.238 . S
C175 O179 1.241 . S
C176 O169 1.247 . S
C176 O170 1.261 . S
C177 O172 1.259 . S
C177 O174 1.235 . S
O178 Co168 2.021 . S
O178 C175 1.238 . S
O179 Co173 2.052 . S
O179 C175 1.241 . S
O180 Co168 2.137 . S
O180 C171 1.247 . S
O181 Co168 2.244 . S
O181 C171 1.272 . S
O181 Co173 2.135 . S
Co182 O183 2.216 . S
Co182 O184 2.091 . S
Co182 O186 2.004 . S
Co182 O192 2.021 . S
Co182 O194 2.137 . S
Co182 O195 2.244 . S
O183 Co182 2.216 . S
O183 C190 1.247 . S
O184 Co182 2.091 . S
O184 C190 1.261 . S
C185 O194 1.247 . S
C185 O195 1.272 . S
O186 Co182 2.004 . S
O186 C191 1.259 . S
Co187 O188 2.061 . S
Co187 O193 2.052 . S
Co187 O195 2.135 . S
O188 Co187 2.061 . S
O188 C191 1.235 . S
C189 O192 1.238 . S
C189 O193 1.241 . S
C190 O183 1.247 . S
C190 O184 1.261 . S
C191 O186 1.259 . S
C191 O188 1.235 . S
O192 Co182 2.021 . S
O192 C189 1.238 . S
O193 Co187 2.052 . S
O193 C189 1.241 . S
O194 Co182 2.137 . S
O194 C185 1.247 . S
O195 Co182 2.244 . S
O195 C185 1.272 . S
O195 Co187 2.135 . S
Co196 O197 2.216 . S
Co196 O198 2.091 . S
Co196 O200 2.004 . S
Co196 O206 2.021 . S
Co196 O208 2.137 . S
Co196 O209 2.244 . S
O197 Co196 2.216 . S
O197 C204 1.247 . S
O198 Co196 2.091 . S
O198 C204 1.261 . S
C199 O208 1.247 . S
C199 O209 1.272 . S
O200 Co196 2.004 . S
O200 C205 1.259 . S
Co201 O202 2.061 . S
Co201 O207 2.052 . S
Co201 O209 2.135 . S
O202 Co201 2.061 . S
O202 C205 1.235 . S
C203 O206 1.238 . S
C203 O207 1.241 . S
C204 O197 1.247 . S
C204 O198 1.261 . S
C205 O200 1.259 . S
C205 O202 1.235 . S
O206 Co196 2.021 . S
O206 C203 1.238 . S
O207 Co201 2.052 . S
O207 C203 1.241 . S
O208 Co196 2.137 . S
O208 C199 1.247 . S
O209 Co196 2.244 . S
O209 C199 1.272 . S
O209 Co201 2.135 . S
Co210 O211 2.216 . S
Co210 O212 2.091 . S
Co210 O214 2.004 . S
Co210 O220 2.021 . S
Co210 O222 2.137 . S
Co210 O223 2.244 . S
O211 Co210 2.216 . S
O211 C218 1.247 . S
O212 Co210 2.091 . S
O212 C218 1.261 . S
C213 O222 1.247 . S
C213 O223 1.272 . S
O214 Co210 2.004 . S
O214 C219 1.259 . S
Co215 O216 2.061 . S
Co215 O221 2.052 . S
Co215 O223 2.135 . S
O216 Co215 2.061 . S
O216 C219 1.235 . S
C217 O220 1.238 . S
C217 O221 1.241 . S
C218 O211 1.247 . S
C218 O212 1.261 . S
C219 O214 1.259 . S
C219 O216 1.235 . S
O220 Co210 2.021 . S
O220 C217 1.238 . S
O221 Co215 2.052 . S
O221 C217 1.241 . S
O222 Co210 2.137 . S
O222 C213 1.247 . S
O223 Co210 2.244 . S
O223 C213 1.272 . S
O223 Co215 2.135 . S
Co224 O225 2.216 . S
Co224 O226 2.091 . S
Co224 O228 2.004 . S
Co224 O234 2.021 . S
Co224 O236 2.137 . S
Co224 O237 2.244 . S
O225 Co224 2.216 . S
O225 C232 1.247 . S
O226 Co224 2.091 . S
O226 C232 1.261 . S
C227 O236 1.247 . S
C227 O237 1.272 . S
O228 Co224 2.004 . S
O228 C233 1.259 . S
Co229 O230 2.061 . S
Co229 O235 2.052 . S
Co229 O237 2.135 . S
O230 Co229 2.061 . S
O230 C233 1.235 . S
C231 O234 1.238 . S
C231 O235 1.241 . S
C232 O225 1.247 . S
C232 O226 1.261 . S
C233 O228 1.259 . S
C233 O230 1.235 . S
O234 Co224 2.021 . S
O234 C231 1.238 . S
O235 Co229 2.052 . S
O235 C231 1.241 . S
O236 Co224 2.137 . S
O236 C227 1.247 . S
O237 Co224 2.244 . S
O237 C227 1.272 . S
O237 Co229 2.135 . S
Co238 O239 2.216 . S
Co238 O240 2.091 . S
Co238 O242 2.004 . S
Co238 O248 2.021 . S
Co238 O250 2.137 . S
Co238 O251 2.244 . S
O239 Co238 2.216 . S
O239 C246 1.247 . S
O240 Co238 2.091 . S
O240 C246 1.261 . S
C241 O250 1.247 . S
C241 O251 1.272 . S
O242 Co238 2.004 . S
O242 C247 1.259 . S
Co243 O244 2.061 . S
Co243 O249 2.052 . S
Co243 O251 2.135 . S
O244 Co243 2.061 . S
O244 C247 1.235 . S
C245 O248 1.238 . S
C245 O249 1.241 . S
C246 O239 1.247 . S
C246 O240 1.261 . S
C247 O242 1.259 . S
C247 O244 1.235 . S
O248 Co238 2.021 . S
O248 C245 1.238 . S
O249 Co243 2.052 . S
O249 C245 1.241 . S
O250 Co238 2.137 . S
O250 C241 1.247 . S
O251 Co238 2.244 . S
O251 C241 1.272 . S
O251 Co243 2.135 . S
Co252 O253 2.216 . S
Co252 O254 2.091 . S
Co252 O256 2.004 . S
Co252 O262 2.021 . S
Co252 O264 2.137 . S
Co252 O265 2.244 . S
O253 Co252 2.216 . S
O253 C260 1.247 . S
O254 Co252 2.091 . S
O254 C260 1.261 . S
C255 O264 1.247 . S
C255 O265 1.272 . S
O256 Co252 2.004 . S
O256 C261 1.259 . S
Co257 O258 2.061 . S
Co257 O263 2.052 . S
Co257 O265 2.135 . S
O258 Co257 2.061 . S
O258 C261 1.235 . S
C259 O262 1.238 . S
C259 O263 1.241 . S
C260 O253 1.247 . S
C260 O254 1.261 . S
C261 O256 1.259 . S
C261 O258 1.235 . S
O262 Co252 2.021 . S
O262 C259 1.238 . S
O263 Co257 2.052 . S
O263 C259 1.241 . S
O264 Co252 2.137 . S
O264 C255 1.247 . S
O265 Co252 2.244 . S
O265 C255 1.272 . S
O265 Co257 2.135 . S
Co266 O267 2.216 . S
Co266 O268 2.091 . S
Co266 O270 2.004 . S
Co266 O276 2.021 . S
Co266 O278 2.137 . S
Co266 O279 2.244 . S
O267 Co266 2.216 . S
O267 C274 1.247 . S
O268 Co266 2.091 . S
O268 C274 1.261 . S
C269 O278 1.247 . S
C269 O279 1.272 . S
O270 Co266 2.004 . S
O270 C275 1.259 . S
Co271 O272 2.061 . S
Co271 O277 2.052 . S
Co271 O279 2.135 . S
O272 Co271 2.061 . S
O272 C275 1.235 . S
C273 O276 1.238 . S
C273 O277 1.241 . S
C274 O267 1.247 . S
C274 O268 1.261 . S
C275 O270 1.259 . S
C275 O272 1.235 . S
O276 Co266 2.021 . S
O276 C273 1.238 . S
O277 Co271 2.052 . S
O277 C273 1.241 . S
O278 Co266 2.137 . S
O278 C269 1.247 . S
O279 Co266 2.244 . S
O279 C269 1.272 . S
O279 Co271 2.135 . S
Co280 O281 2.216 . S
Co280 O282 2.091 . S
Co280 O284 2.004 . S
Co280 O290 2.021 . S
Co280 O292 2.137 . S
Co280 O293 2.244 . S
O281 Co280 2.216 . S
O281 C288 1.247 . S
O282 Co280 2.091 . S
O282 C288 1.261 . S
C283 O292 1.247 . S
C283 O293 1.272 . S
O284 Co280 2.004 . S
O284 C289 1.259 . S
Co285 O286 2.061 . S
Co285 O291 2.052 . S
Co285 O293 2.135 . S
O286 Co285 2.061 . S
O286 C289 1.235 . S
C287 O290 1.238 . S
C287 O291 1.241 . S
C288 O281 1.247 . S
C288 O282 1.261 . S
C289 O284 1.259 . S
C289 O286 1.235 . S
O290 Co280 2.021 . S
O290 C287 1.238 . S
O291 Co285 2.052 . S
O291 C287 1.241 . S
O292 Co280 2.137 . S
O292 C283 1.247 . S
O293 Co280 2.244 . S
O293 C283 1.272 . S
O293 Co285 2.135 . S
Co294 O295 2.216 . S
Co294 O296 2.091 . S
Co294 O298 2.004 . S
Co294 O304 2.021 . S
Co294 O306 2.137 . S
Co294 O307 2.244 . S
O295 Co294 2.216 . S
O295 C302 1.247 . S
O296 Co294 2.091 . S
O296 C302 1.261 . S
C297 O306 1.247 . S
C297 O307 1.272 . S
O298 Co294 2.004 . S
O298 C303 1.259 . S
Co299 O300 2.061 . S
Co299 O305 2.052 . S
Co299 O307 2.135 . S
O300 Co299 2.061 . S
O300 C303 1.235 . S
C301 O304 1.238 . S
C301 O305 1.241 . S
C302 O295 1.247 . S
C302 O296 1.261 . S
C303 O298 1.259 . S
C303 O300 1.235 . S
O304 Co294 2.021 . S
O304 C301 1.238 . S
O305 Co299 2.052 . S
O305 C301 1.241 . S
O306 Co294 2.137 . S
O306 C297 1.247 . S
O307 Co294 2.244 . S
O307 C297 1.272 . S
O307 Co299 2.135 . S
Co308 O309 2.216 . S
Co308 O310 2.091 . S
Co308 O312 2.004 . S
Co308 O318 2.021 . S
Co308 O320 2.137 . S
Co308 O321 2.244 . S
O309 Co308 2.216 . S
O309 C316 1.247 . S
O310 Co308 2.091 . S
O310 C316 1.261 . S
C311 O320 1.247 . S
C311 O321 1.272 . S
O312 Co308 2.004 . S
O312 C317 1.259 . S
Co313 O314 2.061 . S
Co313 O319 2.052 . S
Co313 O321 2.135 . S
O314 Co313 2.061 . S
O314 C317 1.235 . S
C315 O318 1.238 . S
C315 O319 1.241 . S
C316 O309 1.247 . S
C316 O310 1.261 . S
C317 O312 1.259 . S
C317 O314 1.235 . S
O318 Co308 2.021 . S
O318 C315 1.238 . S
O319 Co313 2.052 . S
O319 C315 1.241 . S
O320 Co308 2.137 . S
O320 C311 1.247 . S
O321 Co308 2.244 . S
O321 C311 1.272 . S
O321 Co313 2.135 . S
Co322 O323 2.216 . S
Co322 O324 2.091 . S
Co322 O326 2.004 . S
Co322 O332 2.021 . S
Co322 O334 2.137 . S
Co322 O335 2.244 . S
O323 Co322 2.216 . S
O323 C330 1.247 . S
O324 Co322 2.091 . S
O324 C330 1.261 . S
C325 O334 1.247 . S
C325 O335 1.272 . S
O326 Co322 2.004 . S
O326 C331 1.259 . S
Co327 O328 2.061 . S
Co327 O333 2.052 . S
Co327 O335 2.135 . S
O328 Co327 2.061 . S
O328 C331 1.235 . S
C329 O332 1.238 . S
C329 O333 1.241 . S
C330 O323 1.247 . S
C330 O324 1.261 . S
C331 O326 1.259 . S
C331 O328 1.235 . S
O332 Co322 2.021 . S
O332 C329 1.238 . S
O333 Co327 2.052 . S
O333 C329 1.241 . S
O334 Co322 2.137 . S
O334 C325 1.247 . S
O335 Co322 2.244 . S
O335 C325 1.272 . S
O335 Co327 2.135 . S
H336 C348 0.930 . S
H337 C350 0.930 . S
H338 C351 0.930 . S
H339 C355 0.959 . S
H340 C355 0.959 . S
H341 C355 0.961 . S
H342 C356 0.960 . S
H343 C356 0.961 . S
H344 C356 0.959 . S
H345 C359 0.929 . S
H346 C360 0.931 . S
H347 C362 0.930 . S
C348 H336 0.930 . S
C348 C349 1.399 . S
C348 C353 1.399 . S
C349 C348 1.399 . S
C349 C350 1.376 . S
C350 H337 0.930 . S
C350 C349 1.376 . S
C350 C351 1.388 . S
C351 H338 0.930 . S
C351 C350 1.388 . S
C351 C352 1.390 . S
C352 C351 1.390 . S
C352 C353 1.394 . S
C352 C358 1.465 . S
C353 C348 1.399 . S
C353 C352 1.394 . S
C353 C354 1.516 . S
C354 C353 1.516 . S
C354 C355 1.502 . S
C354 C356 1.561 . S
C354 C357 1.526 . S
C355 H339 0.959 . S
C355 H340 0.959 . S
C355 H341 0.961 . S
C355 C354 1.502 . S
C356 H342 0.960 . S
C356 H343 0.961 . S
C356 H344 0.959 . S
C356 C354 1.561 . S
C357 C354 1.526 . S
C357 C358 1.396 . S
C357 C362 1.390 . S
C358 C352 1.465 . S
C358 C357 1.396 . S
C358 C359 1.399 . S
C359 H345 0.929 . S
C359 C358 1.399 . S
C359 C360 1.385 . S
C360 H346 0.931 . S
C360 C359 1.385 . S
C360 C361 1.389 . S
C361 C360 1.389 . S
C361 C362 1.387 . S
C362 H347 0.930 . S
C362 C357 1.390 . S
C362 C361 1.387 . S
H363 C375 0.930 . S
H364 C377 0.930 . S
H365 C378 0.930 . S
H366 C382 0.959 . S
H367 C382 0.959 . S
H368 C382 0.961 . S
H369 C383 0.960 . S
H370 C383 0.961 . S
H371 C383 0.959 . S
H372 C386 0.929 . S
H373 C387 0.931 . S
H374 C389 0.930 . S
C375 H363 0.930 . S
C375 C376 1.399 . S
C375 C380 1.399 . S
C376 C375 1.399 . S
C376 C377 1.376 . S
C377 H364 0.930 . S
C377 C376 1.376 . S
C377 C378 1.388 . S
C378 H365 0.930 . S
C378 C377 1.388 . S
C378 C379 1.390 . S
C379 C378 1.390 . S
C379 C380 1.394 . S
C379 C385 1.465 . S
C380 C375 1.399 . S
C380 C379 1.394 . S
C380 C381 1.516 . S
C381 C380 1.516 . S
C381 C382 1.502 . S
C381 C383 1.561 . S
C381 C384 1.526 . S
C382 H366 0.959 . S
C382 H367 0.959 . S
C382 H368 0.961 . S
C382 C381 1.502 . S
C383 H369 0.960 . S
C383 H370 0.961 . S
C383 H371 0.959 . S
C383 C381 1.561 . S
C384 C381 1.526 . S
C384 C385 1.396 . S
C384 C389 1.390 . S
C385 C379 1.465 . S
C385 C384 1.396 . S
C385 C386 1.399 . S
C386 H372 0.929 . S
C386 C385 1.399 . S
C386 C387 1.385 . S
C387 H373 0.931 . S
C387 C386 1.385 . S
C387 C388 1.389 . S
C388 C387 1.389 . S
C388 C389 1.387 . S
C389 H374 0.930 . S
C389 C384 1.390 . S
C389 C388 1.387 . S
H390 C402 0.930 . S
H391 C404 0.930 . S
H392 C405 0.930 . S
H393 C409 0.959 . S
H394 C409 0.959 . S
H395 C409 0.961 . S
H396 C410 0.960 . S
H397 C410 0.961 . S
H398 C410 0.959 . S
H399 C413 0.929 . S
H400 C414 0.931 . S
H401 C416 0.930 . S
C402 H390 0.930 . S
C402 C403 1.399 . S
C402 C407 1.399 . S
C403 C402 1.399 . S
C403 C404 1.376 . S
C404 H391 0.930 . S
C404 C403 1.376 . S
C404 C405 1.388 . S
C405 H392 0.930 . S
C405 C404 1.388 . S
C405 C406 1.390 . S
C406 C405 1.390 . S
C406 C407 1.394 . S
C406 C412 1.465 . S
C407 C402 1.399 . S
C407 C406 1.394 . S
C407 C408 1.516 . S
C408 C407 1.516 . S
C408 C409 1.502 . S
C408 C410 1.561 . S
C408 C411 1.526 . S
C409 H393 0.959 . S
C409 H394 0.959 . S
C409 H395 0.961 . S
C409 C408 1.502 . S
C410 H396 0.960 . S
C410 H397 0.961 . S
C410 H398 0.959 . S
C410 C408 1.561 . S
C411 C408 1.526 . S
C411 C412 1.396 . S
C411 C416 1.390 . S
C412 C406 1.465 . S
C412 C411 1.396 . S
C412 C413 1.399 . S
C413 H399 0.929 . S
C413 C412 1.399 . S
C413 C414 1.385 . S
C414 H400 0.931 . S
C414 C413 1.385 . S
C414 C415 1.389 . S
C415 C414 1.389 . S
C415 C416 1.387 . S
C416 H401 0.930 . S
C416 C411 1.390 . S
C416 C415 1.387 . S
H417 C429 0.930 . S
H418 C431 0.930 . S
H419 C432 0.930 . S
H420 C436 0.959 . S
H421 C436 0.959 . S
H422 C436 0.961 . S
H423 C437 0.960 . S
H424 C437 0.961 . S
H425 C437 0.959 . S
H426 C440 0.929 . S
H427 C441 0.931 . S
H428 C443 0.930 . S
C429 H417 0.930 . S
C429 C430 1.399 . S
C429 C434 1.399 . S
C430 C429 1.399 . S
C430 C431 1.376 . S
C431 H418 0.930 . S
C431 C430 1.376 . S
C431 C432 1.388 . S
C432 H419 0.930 . S
C432 C431 1.388 . S
C432 C433 1.390 . S
C433 C432 1.390 . S
C433 C434 1.394 . S
C433 C439 1.465 . S
C434 C429 1.399 . S
C434 C433 1.394 . S
C434 C435 1.516 . S
C435 C434 1.516 . S
C435 C436 1.502 . S
C435 C437 1.561 . S
C435 C438 1.526 . S
C436 H420 0.959 . S
C436 H421 0.959 . S
C436 H422 0.961 . S
C436 C435 1.502 . S
C437 H423 0.960 . S
C437 H424 0.961 . S
C437 H425 0.959 . S
C437 C435 1.561 . S
C438 C435 1.526 . S
C438 C439 1.396 . S
C438 C443 1.390 . S
C439 C433 1.465 . S
C439 C438 1.396 . S
C439 C440 1.399 . S
C440 H426 0.929 . S
C440 C439 1.399 . S
C440 C441 1.385 . S
C441 H427 0.931 . S
C441 C440 1.385 . S
C441 C442 1.389 . S
C442 C441 1.389 . S
C442 C443 1.387 . S
C443 H428 0.930 . S
C443 C438 1.390 . S
C443 C442 1.387 . S
H444 C456 0.930 . S
H445 C458 0.930 . S
H446 C459 0.930 . S
H447 C463 0.959 . S
H448 C463 0.959 . S
H449 C463 0.961 . S
H450 C464 0.960 . S
H451 C464 0.961 . S
H452 C464 0.959 . S
H453 C467 0.929 . S
H454 C468 0.931 . S
H455 C470 0.930 . S
C456 H444 0.930 . S
C456 C457 1.399 . S
C456 C461 1.399 . S
C457 C456 1.399 . S
C457 C458 1.376 . S
C458 H445 0.930 . S
C458 C457 1.376 . S
C458 C459 1.388 . S
C459 H446 0.930 . S
C459 C458 1.388 . S
C459 C460 1.390 . S
C460 C459 1.390 . S
C460 C461 1.394 . S
C460 C466 1.465 . S
C461 C456 1.399 . S
C461 C460 1.394 . S
C461 C462 1.516 . S
C462 C461 1.516 . S
C462 C463 1.502 . S
C462 C464 1.561 . S
C462 C465 1.526 . S
C463 H447 0.959 . S
C463 H448 0.959 . S
C463 H449 0.961 . S
C463 C462 1.502 . S
C464 H450 0.960 . S
C464 H451 0.961 . S
C464 H452 0.959 . S
C464 C462 1.561 . S
C465 C462 1.526 . S
C465 C466 1.396 . S
C465 C470 1.390 . S
C466 C460 1.465 . S
C466 C465 1.396 . S
C466 C467 1.399 . S
C467 H453 0.929 . S
C467 C466 1.399 . S
C467 C468 1.385 . S
C468 H454 0.931 . S
C468 C467 1.385 . S
C468 C469 1.389 . S
C469 C468 1.389 . S
C469 C470 1.387 . S
C470 H455 0.930 . S
C470 C465 1.390 . S
C470 C469 1.387 . S
H471 C483 0.930 . S
H472 C485 0.930 . S
H473 C486 0.930 . S
H474 C490 0.959 . S
H475 C490 0.959 . S
H476 C490 0.961 . S
H477 C491 0.960 . S
H478 C491 0.961 . S
H479 C491 0.959 . S
H480 C494 0.929 . S
H481 C495 0.931 . S
H482 C497 0.930 . S
C483 H471 0.930 . S
C483 C484 1.399 . S
C483 C488 1.399 . S
C484 C483 1.399 . S
C484 C485 1.376 . S
C485 H472 0.930 . S
C485 C484 1.376 . S
C485 C486 1.388 . S
C486 H473 0.930 . S
C486 C485 1.388 . S
C486 C487 1.390 . S
C487 C486 1.390 . S
C487 C488 1.394 . S
C487 C493 1.465 . S
C488 C483 1.399 . S
C488 C487 1.394 . S
C488 C489 1.516 . S
C489 C488 1.516 . S
C489 C490 1.502 . S
C489 C491 1.561 . S
C489 C492 1.526 . S
C490 H474 0.959 . S
C490 H475 0.959 . S
C490 H476 0.961 . S
C490 C489 1.502 . S
C491 H477 0.960 . S
C491 H478 0.961 . S
C491 H479 0.959 . S
C491 C489 1.561 . S
C492 C489 1.526 . S
C492 C493 1.396 . S
C492 C497 1.390 . S
C493 C487 1.465 . S
C493 C492 1.396 . S
C493 C494 1.399 . S
C494 H480 0.929 . S
C494 C493 1.399 . S
C494 C495 1.385 . S
C495 H481 0.931 . S
C495 C494 1.385 . S
C495 C496 1.389 . S
C496 C495 1.389 . S
C496 C497 1.387 . S
C497 H482 0.930 . S
C497 C492 1.390 . S
C497 C496 1.387 . S
H498 C510 0.930 . S
H499 C512 0.930 . S
H500 C513 0.930 . S
H501 C517 0.959 . S
H502 C517 0.959 . S
H503 C517 0.961 . S
H504 C518 0.960 . S
H505 C518 0.961 . S
H506 C518 0.959 . S
H507 C521 0.929 . S
H508 C522 0.931 . S
H509 C524 0.930 . S
C510 H498 0.930 . S
C510 C511 1.399 . S
C510 C515 1.399 . S
C511 C510 1.399 . S
C511 C512 1.376 . S
C512 H499 0.930 . S
C512 C511 1.376 . S
C512 C513 1.388 . S
C513 H500 0.930 . S
C513 C512 1.388 . S
C513 C514 1.390 . S
C514 C513 1.390 . S
C514 C515 1.394 . S
C514 C520 1.465 . S
C515 C510 1.399 . S
C515 C514 1.394 . S
C515 C516 1.516 . S
C516 C515 1.516 . S
C516 C517 1.502 . S
C516 C518 1.561 . S
C516 C519 1.526 . S
C517 H501 0.959 . S
C517 H502 0.959 . S
C517 H503 0.961 . S
C517 C516 1.502 . S
C518 H504 0.960 . S
C518 H505 0.961 . S
C518 H506 0.959 . S
C518 C516 1.561 . S
C519 C516 1.526 . S
C519 C520 1.396 . S
C519 C524 1.390 . S
C520 C514 1.465 . S
C520 C519 1.396 . S
C520 C521 1.399 . S
C521 H507 0.929 . S
C521 C520 1.399 . S
C521 C522 1.385 . S
C522 H508 0.931 . S
C522 C521 1.385 . S
C522 C523 1.389 . S
C523 C522 1.389 . S
C523 C524 1.387 . S
C524 H509 0.930 . S
C524 C519 1.390 . S
C524 C523 1.387 . S
H525 C537 0.930 . S
H526 C539 0.930 . S
H527 C540 0.930 . S
H528 C544 0.959 . S
H529 C544 0.959 . S
H530 C544 0.961 . S
H531 C545 0.960 . S
H532 C545 0.961 . S
H533 C545 0.959 . S
H534 C548 0.929 . S
H535 C549 0.931 . S
H536 C551 0.930 . S
C537 H525 0.930 . S
C537 C538 1.399 . S
C537 C542 1.399 . S
C538 C537 1.399 . S
C538 C539 1.376 . S
C539 H526 0.930 . S
C539 C538 1.376 . S
C539 C540 1.388 . S
C540 H527 0.930 . S
C540 C539 1.388 . S
C540 C541 1.390 . S
C541 C540 1.390 . S
C541 C542 1.394 . S
C541 C547 1.465 . S
C542 C537 1.399 . S
C542 C541 1.394 . S
C542 C543 1.516 . S
C543 C542 1.516 . S
C543 C544 1.502 . S
C543 C545 1.561 . S
C543 C546 1.526 . S
C544 H528 0.959 . S
C544 H529 0.959 . S
C544 H530 0.961 . S
C544 C543 1.502 . S
C545 H531 0.960 . S
C545 H532 0.961 . S
C545 H533 0.959 . S
C545 C543 1.561 . S
C546 C543 1.526 . S
C546 C547 1.396 . S
C546 C551 1.390 . S
C547 C541 1.465 . S
C547 C546 1.396 . S
C547 C548 1.399 . S
C548 H534 0.929 . S
C548 C547 1.399 . S
C548 C549 1.385 . S
C549 H535 0.931 . S
C549 C548 1.385 . S
C549 C550 1.389 . S
C550 C549 1.389 . S
C550 C551 1.387 . S
C551 H536 0.930 . S
C551 C546 1.390 . S
C551 C550 1.387 . S
H552 C564 0.930 . S
H553 C566 0.930 . S
H554 C567 0.930 . S
H555 C571 0.959 . S
H556 C571 0.959 . S
H557 C571 0.961 . S
H558 C572 0.960 . S
H559 C572 0.961 . S
H560 C572 0.959 . S
H561 C575 0.929 . S
H562 C576 0.931 . S
H563 C578 0.930 . S
C564 H552 0.930 . S
C564 C565 1.399 . S
C564 C569 1.399 . S
C565 C564 1.399 . S
C565 C566 1.376 . S
C566 H553 0.930 . S
C566 C565 1.376 . S
C566 C567 1.388 . S
C567 H554 0.930 . S
C567 C566 1.388 . S
C567 C568 1.390 . S
C568 C567 1.390 . S
C568 C569 1.394 . S
C568 C574 1.465 . S
C569 C564 1.399 . S
C569 C568 1.394 . S
C569 C570 1.516 . S
C570 C569 1.516 . S
C570 C571 1.502 . S
C570 C572 1.561 . S
C570 C573 1.526 . S
C571 H555 0.959 . S
C571 H556 0.959 . S
C571 H557 0.961 . S
C571 C570 1.502 . S
C572 H558 0.960 . S
C572 H559 0.961 . S
C572 H560 0.959 . S
C572 C570 1.561 . S
C573 C570 1.526 . S
C573 C574 1.396 . S
C573 C578 1.390 . S
C574 C568 1.465 . S
C574 C573 1.396 . S
C574 C575 1.399 . S
C575 H561 0.929 . S
C575 C574 1.399 . S
C575 C576 1.385 . S
C576 H562 0.931 . S
C576 C575 1.385 . S
C576 C577 1.389 . S
C577 C576 1.389 . S
C577 C578 1.387 . S
C578 H563 0.930 . S
C578 C573 1.390 . S
C578 C577 1.387 . S
H579 C591 0.930 . S
H580 C593 0.930 . S
H581 C594 0.930 . S
H582 C598 0.959 . S
H583 C598 0.959 . S
H584 C598 0.961 . S
H585 C599 0.960 . S
H586 C599 0.961 . S
H587 C599 0.959 . S
H588 C602 0.929 . S
H589 C603 0.931 . S
H590 C605 0.930 . S
C591 H579 0.930 . S
C591 C592 1.399 . S
C591 C596 1.399 . S
C592 C591 1.399 . S
C592 C593 1.376 . S
C593 H580 0.930 . S
C593 C592 1.376 . S
C593 C594 1.388 . S
C594 H581 0.930 . S
C594 C593 1.388 . S
C594 C595 1.390 . S
C595 C594 1.390 . S
C595 C596 1.394 . S
C595 C601 1.465 . S
C596 C591 1.399 . S
C596 C595 1.394 . S
C596 C597 1.516 . S
C597 C596 1.516 . S
C597 C598 1.502 . S
C597 C599 1.561 . S
C597 C600 1.526 . S
C598 H582 0.959 . S
C598 H583 0.959 . S
C598 H584 0.961 . S
C598 C597 1.502 . S
C599 H585 0.960 . S
C599 H586 0.961 . S
C599 H587 0.959 . S
C599 C597 1.561 . S
C600 C597 1.526 . S
C600 C601 1.396 . S
C600 C605 1.390 . S
C601 C595 1.465 . S
C601 C600 1.396 . S
C601 C602 1.399 . S
C602 H588 0.929 . S
C602 C601 1.399 . S
C602 C603 1.385 . S
C603 H589 0.931 . S
C603 C602 1.385 . S
C603 C604 1.389 . S
C604 C603 1.389 . S
C604 C605 1.387 . S
C605 H590 0.930 . S
C605 C600 1.390 . S
C605 C604 1.387 . S
H606 C618 0.930 . S
H607 C620 0.930 . S
H608 C621 0.930 . S
H609 C625 0.959 . S
H610 C625 0.959 . S
H611 C625 0.961 . S
H612 C626 0.960 . S
H613 C626 0.961 . S
H614 C626 0.959 . S
H615 C629 0.929 . S
H616 C630 0.931 . S
H617 C632 0.930 . S
C618 H606 0.930 . S
C618 C619 1.399 . S
C618 C623 1.399 . S
C619 C618 1.399 . S
C619 C620 1.376 . S
C620 H607 0.930 . S
C620 C619 1.376 . S
C620 C621 1.388 . S
C621 H608 0.930 . S
C621 C620 1.388 . S
C621 C622 1.390 . S
C622 C621 1.390 . S
C622 C623 1.394 . S
C622 C628 1.465 . S
C623 C618 1.399 . S
C623 C622 1.394 . S
C623 C624 1.516 . S
C624 C623 1.516 . S
C624 C625 1.502 . S
C624 C626 1.561 . S
C624 C627 1.526 . S
C625 H609 0.959 . S
C625 H610 0.959 . S
C625 H611 0.961 . S
C625 C624 1.502 . S
C626 H612 0.960 . S
C626 H613 0.961 . S
C626 H614 0.959 . S
C626 C624 1.561 . S
C627 C624 1.526 . S
C627 C628 1.396 . S
C627 C632 1.390 . S
C628 C622 1.465 . S
C628 C627 1.396 . S
C628 C629 1.399 . S
C629 H615 0.929 . S
C629 C628 1.399 . S
C629 C630 1.385 . S
C630 H616 0.931 . S
C630 C629 1.385 . S
C630 C631 1.389 . S
C631 C630 1.389 . S
C631 C632 1.387 . S
C632 H617 0.930 . S
C632 C627 1.390 . S
C632 C631 1.387 . S
H633 C645 0.930 . S
H634 C647 0.930 . S
H635 C648 0.930 . S
H636 C652 0.959 . S
H637 C652 0.959 . S
H638 C652 0.961 . S
H639 C653 0.960 . S
H640 C653 0.961 . S
H641 C653 0.959 . S
H642 C656 0.929 . S
H643 C657 0.931 . S
H644 C659 0.930 . S
C645 H633 0.930 . S
C645 C646 1.399 . S
C645 C650 1.399 . S
C646 C645 1.399 . S
C646 C647 1.376 . S
C647 H634 0.930 . S
C647 C646 1.376 . S
C647 C648 1.388 . S
C648 H635 0.930 . S
C648 C647 1.388 . S
C648 C649 1.390 . S
C649 C648 1.390 . S
C649 C650 1.394 . S
C649 C655 1.465 . S
C650 C645 1.399 . S
C650 C649 1.394 . S
C650 C651 1.516 . S
C651 C650 1.516 . S
C651 C652 1.502 . S
C651 C653 1.561 . S
C651 C654 1.526 . S
C652 H636 0.959 . S
C652 H637 0.959 . S
C652 H638 0.961 . S
C652 C651 1.502 . S
C653 H639 0.960 . S
C653 H640 0.961 . S
C653 H641 0.959 . S
C653 C651 1.561 . S
C654 C651 1.526 . S
C654 C655 1.396 . S
C654 C659 1.390 . S
C655 C649 1.465 . S
C655 C654 1.396 . S
C655 C656 1.399 . S
C656 H642 0.929 . S
C656 C655 1.399 . S
C656 C657 1.385 . S
C657 H643 0.931 . S
C657 C656 1.385 . S
C657 C658 1.389 . S
C658 C657 1.389 . S
C658 C659 1.387 . S
C659 H644 0.930 . S
C659 C654 1.390 . S
C659 C658 1.387 . S
H660 C672 0.930 . S
H661 C674 0.930 . S
H662 C675 0.930 . S
H663 C679 0.959 . S
H664 C679 0.959 . S
H665 C679 0.961 . S
H666 C680 0.960 . S
H667 C680 0.961 . S
H668 C680 0.959 . S
H669 C683 0.929 . S
H670 C684 0.931 . S
H671 C686 0.930 . S
C672 H660 0.930 . S
C672 C673 1.399 . S
C672 C677 1.399 . S
C673 C672 1.399 . S
C673 C674 1.376 . S
C674 H661 0.930 . S
C674 C673 1.376 . S
C674 C675 1.388 . S
C675 H662 0.930 . S
C675 C674 1.388 . S
C675 C676 1.390 . S
C676 C675 1.390 . S
C676 C677 1.394 . S
C676 C682 1.465 . S
C677 C672 1.399 . S
C677 C676 1.394 . S
C677 C678 1.516 . S
C678 C677 1.516 . S
C678 C679 1.502 . S
C678 C680 1.561 . S
C678 C681 1.526 . S
C679 H663 0.959 . S
C679 H664 0.959 . S
C679 H665 0.961 . S
C679 C678 1.502 . S
C680 H666 0.960 . S
C680 H667 0.961 . S
C680 H668 0.959 . S
C680 C678 1.561 . S
C681 C678 1.526 . S
C681 C682 1.396 . S
C681 C686 1.390 . S
C682 C676 1.465 . S
C682 C681 1.396 . S
C682 C683 1.399 . S
C683 H669 0.929 . S
C683 C682 1.399 . S
C683 C684 1.385 . S
C684 H670 0.931 . S
C684 C683 1.385 . S
C684 C685 1.389 . S
C685 C684 1.389 . S
C685 C686 1.387 . S
C686 H671 0.930 . S
C686 C681 1.390 . S
C686 C685 1.387 . S
H687 C699 0.930 . S
H688 C701 0.930 . S
H689 C702 0.930 . S
H690 C706 0.959 . S
H691 C706 0.959 . S
H692 C706 0.961 . S
H693 C707 0.960 . S
H694 C707 0.961 . S
H695 C707 0.959 . S
H696 C710 0.929 . S
H697 C711 0.931 . S
H698 C713 0.930 . S
C699 H687 0.930 . S
C699 C700 1.399 . S
C699 C704 1.399 . S
C700 C699 1.399 . S
C700 C701 1.376 . S
C701 H688 0.930 . S
C701 C700 1.376 . S
C701 C702 1.388 . S
C702 H689 0.930 . S
C702 C701 1.388 . S
C702 C703 1.390 . S
C703 C702 1.390 . S
C703 C704 1.394 . S
C703 C709 1.465 . S
C704 C699 1.399 . S
C704 C703 1.394 . S
C704 C705 1.516 . S
C705 C704 1.516 . S
C705 C706 1.502 . S
C705 C707 1.561 . S
C705 C708 1.526 . S
C706 H690 0.959 . S
C706 H691 0.959 . S
C706 H692 0.961 . S
C706 C705 1.502 . S
C707 H693 0.960 . S
C707 H694 0.961 . S
C707 H695 0.959 . S
C707 C705 1.561 . S
C708 C705 1.526 . S
C708 C709 1.396 . S
C708 C713 1.390 . S
C709 C703 1.465 . S
C709 C708 1.396 . S
C709 C710 1.399 . S
C710 H696 0.929 . S
C710 C709 1.399 . S
C710 C711 1.385 . S
C711 H697 0.931 . S
C711 C710 1.385 . S
C711 C712 1.389 . S
C712 C711 1.389 . S
C712 C713 1.387 . S
C713 H698 0.930 . S
C713 C708 1.390 . S
C713 C712 1.387 . S
H714 C726 0.930 . S
H715 C728 0.930 . S
H716 C729 0.930 . S
H717 C733 0.959 . S
H718 C733 0.959 . S
H719 C733 0.961 . S
H720 C734 0.960 . S
H721 C734 0.961 . S
H722 C734 0.959 . S
H723 C737 0.929 . S
H724 C738 0.931 . S
H725 C740 0.930 . S
C726 H714 0.930 . S
C726 C727 1.399 . S
C726 C731 1.399 . S
C727 C726 1.399 . S
C727 C728 1.376 . S
C728 H715 0.930 . S
C728 C727 1.376 . S
C728 C729 1.388 . S
C729 H716 0.930 . S
C729 C728 1.388 . S
C729 C730 1.390 . S
C730 C729 1.390 . S
C730 C731 1.394 . S
C730 C736 1.465 . S
C731 C726 1.399 . S
C731 C730 1.394 . S
C731 C732 1.516 . S
C732 C731 1.516 . S
C732 C733 1.502 . S
C732 C734 1.561 . S
C732 C735 1.526 . S
C733 H717 0.959 . S
C733 H718 0.959 . S
C733 H719 0.961 . S
C733 C732 1.502 . S
C734 H720 0.960 . S
C734 H721 0.961 . S
C734 H722 0.959 . S
C734 C732 1.561 . S
C735 C732 1.526 . S
C735 C736 1.396 . S
C735 C740 1.390 . S
C736 C730 1.465 . S
C736 C735 1.396 . S
C736 C737 1.399 . S
C737 H723 0.929 . S
C737 C736 1.399 . S
C737 C738 1.385 . S
C738 H724 0.931 . S
C738 C737 1.385 . S
C738 C739 1.389 . S
C739 C738 1.389 . S
C739 C740 1.387 . S
C740 H725 0.930 . S
C740 C735 1.390 . S
C740 C739 1.387 . S
H741 C753 0.930 . S
H742 C755 0.930 . S
H743 C756 0.930 . S
H744 C760 0.959 . S
H745 C760 0.959 . S
H746 C760 0.961 . S
H747 C761 0.960 . S
H748 C761 0.961 . S
H749 C761 0.959 . S
H750 C764 0.929 . S
H751 C765 0.931 . S
H752 C767 0.930 . S
C753 H741 0.930 . S
C753 C754 1.399 . S
C753 C758 1.399 . S
C754 C753 1.399 . S
C754 C755 1.376 . S
C755 H742 0.930 . S
C755 C754 1.376 . S
C755 C756 1.388 . S
C756 H743 0.930 . S
C756 C755 1.388 . S
C756 C757 1.390 . S
C757 C756 1.390 . S
C757 C758 1.394 . S
C757 C763 1.465 . S
C758 C753 1.399 . S
C758 C757 1.394 . S
C758 C759 1.516 . S
C759 C758 1.516 . S
C759 C760 1.502 . S
C759 C761 1.561 . S
C759 C762 1.526 . S
C760 H744 0.959 . S
C760 H745 0.959 . S
C760 H746 0.961 . S
C760 C759 1.502 . S
C761 H747 0.960 . S
C761 H748 0.961 . S
C761 H749 0.959 . S
C761 C759 1.561 . S
C762 C759 1.526 . S
C762 C763 1.396 . S
C762 C767 1.390 . S
C763 C757 1.465 . S
C763 C762 1.396 . S
C763 C764 1.399 . S
C764 H750 0.929 . S
C764 C763 1.399 . S
C764 C765 1.385 . S
C765 H751 0.931 . S
C765 C764 1.385 . S
C765 C766 1.389 . S
C766 C765 1.389 . S
C766 C767 1.387 . S
C767 H752 0.930 . S
C767 C762 1.390 . S
C767 C766 1.387 . S
H768 C780 0.930 . S
H769 C782 0.930 . S
H770 C783 0.930 . S
H771 C787 0.959 . S
H772 C787 0.959 . S
H773 C787 0.961 . S
H774 C788 0.960 . S
H775 C788 0.961 . S
H776 C788 0.959 . S
H777 C791 0.929 . S
H778 C792 0.931 . S
H779 C794 0.930 . S
C780 H768 0.930 . S
C780 C781 1.399 . S
C780 C785 1.399 . S
C781 C780 1.399 . S
C781 C782 1.376 . S
C782 H769 0.930 . S
C782 C781 1.376 . S
C782 C783 1.388 . S
C783 H770 0.930 . S
C783 C782 1.388 . S
C783 C784 1.390 . S
C784 C783 1.390 . S
C784 C785 1.394 . S
C784 C790 1.465 . S
C785 C780 1.399 . S
C785 C784 1.394 . S
C785 C786 1.516 . S
C786 C785 1.516 . S
C786 C787 1.502 . S
C786 C788 1.561 . S
C786 C789 1.526 . S
C787 H771 0.959 . S
C787 H772 0.959 . S
C787 H773 0.961 . S
C787 C786 1.502 . S
C788 H774 0.960 . S
C788 H775 0.961 . S
C788 H776 0.959 . S
C788 C786 1.561 . S
C789 C786 1.526 . S
C789 C790 1.396 . S
C789 C794 1.390 . S
C790 C784 1.465 . S
C790 C789 1.396 . S
C790 C791 1.399 . S
C791 H777 0.929 . S
C791 C790 1.399 . S
C791 C792 1.385 . S
C792 H778 0.931 . S
C792 C791 1.385 . S
C792 C793 1.389 . S
C793 C792 1.389 . S
C793 C794 1.387 . S
C794 H779 0.930 . S
C794 C789 1.390 . S
C794 C793 1.387 . S
H795 C807 0.930 . S
H796 C809 0.930 . S
H797 C810 0.930 . S
H798 C814 0.959 . S
H799 C814 0.959 . S
H800 C814 0.961 . S
H801 C815 0.960 . S
H802 C815 0.961 . S
H803 C815 0.959 . S
H804 C818 0.929 . S
H805 C819 0.931 . S
H806 C821 0.930 . S
C807 H795 0.930 . S
C807 C808 1.399 . S
C807 C812 1.399 . S
C808 C807 1.399 . S
C808 C809 1.376 . S
C809 H796 0.930 . S
C809 C808 1.376 . S
C809 C810 1.388 . S
C810 H797 0.930 . S
C810 C809 1.388 . S
C810 C811 1.390 . S
C811 C810 1.390 . S
C811 C812 1.394 . S
C811 C817 1.465 . S
C812 C807 1.399 . S
C812 C811 1.394 . S
C812 C813 1.516 . S
C813 C812 1.516 . S
C813 C814 1.502 . S
C813 C815 1.561 . S
C813 C816 1.526 . S
C814 H798 0.959 . S
C814 H799 0.959 . S
C814 H800 0.961 . S
C814 C813 1.502 . S
C815 H801 0.960 . S
C815 H802 0.961 . S
C815 H803 0.959 . S
C815 C813 1.561 . S
C816 C813 1.526 . S
C816 C817 1.396 . S
C816 C821 1.390 . S
C817 C811 1.465 . S
C817 C816 1.396 . S
C817 C818 1.399 . S
C818 H804 0.929 . S
C818 C817 1.399 . S
C818 C819 1.385 . S
C819 H805 0.931 . S
C819 C818 1.385 . S
C819 C820 1.389 . S
C820 C819 1.389 . S
C820 C821 1.387 . S
C821 H806 0.930 . S
C821 C816 1.390 . S
C821 C820 1.387 . S
H822 C834 0.930 . S
H823 C836 0.930 . S
H824 C837 0.930 . S
H825 C841 0.959 . S
H826 C841 0.959 . S
H827 C841 0.961 . S
H828 C842 0.960 . S
H829 C842 0.961 . S
H830 C842 0.959 . S
H831 C845 0.929 . S
H832 C846 0.931 . S
H833 C848 0.930 . S
C834 H822 0.930 . S
C834 C835 1.399 . S
C834 C839 1.399 . S
C835 C834 1.399 . S
C835 C836 1.376 . S
C836 H823 0.930 . S
C836 C835 1.376 . S
C836 C837 1.388 . S
C837 H824 0.930 . S
C837 C836 1.388 . S
C837 C838 1.390 . S
C838 C837 1.390 . S
C838 C839 1.394 . S
C838 C844 1.465 . S
C839 C834 1.399 . S
C839 C838 1.394 . S
C839 C840 1.516 . S
C840 C839 1.516 . S
C840 C841 1.502 . S
C840 C842 1.561 . S
C840 C843 1.526 . S
C841 H825 0.959 . S
C841 H826 0.959 . S
C841 H827 0.961 . S
C841 C840 1.502 . S
C842 H828 0.960 . S
C842 H829 0.961 . S
C842 H830 0.959 . S
C842 C840 1.561 . S
C843 C840 1.526 . S
C843 C844 1.396 . S
C843 C848 1.390 . S
C844 C838 1.465 . S
C844 C843 1.396 . S
C844 C845 1.399 . S
C845 H831 0.929 . S
C845 C844 1.399 . S
C845 C846 1.385 . S
C846 H832 0.931 . S
C846 C845 1.385 . S
C846 C847 1.389 . S
C847 C846 1.389 . S
C847 C848 1.387 . S
C848 H833 0.930 . S
C848 C843 1.390 . S
C848 C847 1.387 . S
H849 C861 0.930 . S
H850 C863 0.930 . S
H851 C864 0.930 . S
H852 C868 0.959 . S
H853 C868 0.959 . S
H854 C868 0.961 . S
H855 C869 0.960 . S
H856 C869 0.961 . S
H857 C869 0.959 . S
H858 C872 0.929 . S
H859 C873 0.931 . S
H860 C875 0.930 . S
C861 H849 0.930 . S
C861 C862 1.399 . S
C861 C866 1.399 . S
C862 C861 1.399 . S
C862 C863 1.376 . S
C863 H850 0.930 . S
C863 C862 1.376 . S
C863 C864 1.388 . S
C864 H851 0.930 . S
C864 C863 1.388 . S
C864 C865 1.390 . S
C865 C864 1.390 . S
C865 C866 1.394 . S
C865 C871 1.465 . S
C866 C861 1.399 . S
C866 C865 1.394 . S
C866 C867 1.516 . S
C867 C866 1.516 . S
C867 C868 1.502 . S
C867 C869 1.561 . S
C867 C870 1.526 . S
C868 H852 0.959 . S
C868 H853 0.959 . S
C868 H854 0.961 . S
C868 C867 1.502 . S
C869 H855 0.960 . S
C869 H856 0.961 . S
C869 H857 0.959 . S
C869 C867 1.561 . S
C870 C867 1.526 . S
C870 C871 1.396 . S
C870 C875 1.390 . S
C871 C865 1.465 . S
C871 C870 1.396 . S
C871 C872 1.399 . S
C872 H858 0.929 . S
C872 C871 1.399 . S
C872 C873 1.385 . S
C873 H859 0.931 . S
C873 C872 1.385 . S
C873 C874 1.389 . S
C874 C873 1.389 . S
C874 C875 1.387 . S
C875 H860 0.930 . S
C875 C870 1.390 . S
C875 C874 1.387 . S
H876 C888 0.930 . S
H877 C890 0.930 . S
H878 C891 0.930 . S
H879 C895 0.959 . S
H880 C895 0.959 . S
H881 C895 0.961 . S
H882 C896 0.960 . S
H883 C896 0.961 . S
H884 C896 0.959 . S
H885 C899 0.929 . S
H886 C900 0.931 . S
H887 C902 0.930 . S
C888 H876 0.930 . S
C888 C889 1.399 . S
C888 C893 1.399 . S
C889 C888 1.399 . S
C889 C890 1.376 . S
C890 H877 0.930 . S
C890 C889 1.376 . S
C890 C891 1.388 . S
C891 H878 0.930 . S
C891 C890 1.388 . S
C891 C892 1.390 . S
C892 C891 1.390 . S
C892 C893 1.394 . S
C892 C898 1.465 . S
C893 C888 1.399 . S
C893 C892 1.394 . S
C893 C894 1.516 . S
C894 C893 1.516 . S
C894 C895 1.502 . S
C894 C896 1.561 . S
C894 C897 1.526 . S
C895 H879 0.959 . S
C895 H880 0.959 . S
C895 H881 0.961 . S
C895 C894 1.502 . S
C896 H882 0.960 . S
C896 H883 0.961 . S
C896 H884 0.959 . S
C896 C894 1.561 . S
C897 C894 1.526 . S
C897 C898 1.396 . S
C897 C902 1.390 . S
C898 C892 1.465 . S
C898 C897 1.396 . S
C898 C899 1.399 . S
C899 H885 0.929 . S
C899 C898 1.399 . S
C899 C900 1.385 . S
C900 H886 0.931 . S
C900 C899 1.385 . S
C900 C901 1.389 . S
C901 C900 1.389 . S
C901 C902 1.387 . S
C902 H887 0.930 . S
C902 C897 1.390 . S
C902 C901 1.387 . S
H903 C915 0.930 . S
H904 C917 0.930 . S
H905 C918 0.930 . S
H906 C922 0.959 . S
H907 C922 0.959 . S
H908 C922 0.961 . S
H909 C923 0.960 . S
H910 C923 0.961 . S
H911 C923 0.959 . S
H912 C926 0.929 . S
H913 C927 0.931 . S
H914 C929 0.930 . S
C915 H903 0.930 . S
C915 C916 1.399 . S
C915 C920 1.399 . S
C916 C915 1.399 . S
C916 C917 1.376 . S
C917 H904 0.930 . S
C917 C916 1.376 . S
C917 C918 1.388 . S
C918 H905 0.930 . S
C918 C917 1.388 . S
C918 C919 1.390 . S
C919 C918 1.390 . S
C919 C920 1.394 . S
C919 C925 1.465 . S
C920 C915 1.399 . S
C920 C919 1.394 . S
C920 C921 1.516 . S
C921 C920 1.516 . S
C921 C922 1.502 . S
C921 C923 1.561 . S
C921 C924 1.526 . S
C922 H906 0.959 . S
C922 H907 0.959 . S
C922 H908 0.961 . S
C922 C921 1.502 . S
C923 H909 0.960 . S
C923 H910 0.961 . S
C923 H911 0.959 . S
C923 C921 1.561 . S
C924 C921 1.526 . S
C924 C925 1.396 . S
C924 C929 1.390 . S
C925 C919 1.465 . S
C925 C924 1.396 . S
C925 C926 1.399 . S
C926 H912 0.929 . S
C926 C925 1.399 . S
C926 C927 1.385 . S
C927 H913 0.931 . S
C927 C926 1.385 . S
C927 C928 1.389 . S
C928 C927 1.389 . S
C928 C929 1.387 . S
C929 H914 0.930 . S
C929 C924 1.390 . S
C929 C928 1.387 . S
H930 C942 0.930 . S
H931 C944 0.930 . S
H932 C945 0.930 . S
H933 C949 0.959 . S
H934 C949 0.959 . S
H935 C949 0.961 . S
H936 C950 0.960 . S
H937 C950 0.961 . S
H938 C950 0.959 . S
H939 C953 0.929 . S
H940 C954 0.931 . S
H941 C956 0.930 . S
C942 H930 0.930 . S
C942 C943 1.399 . S
C942 C947 1.399 . S
C943 C942 1.399 . S
C943 C944 1.376 . S
C944 H931 0.930 . S
C944 C943 1.376 . S
C944 C945 1.388 . S
C945 H932 0.930 . S
C945 C944 1.388 . S
C945 C946 1.390 . S
C946 C945 1.390 . S
C946 C947 1.394 . S
C946 C952 1.465 . S
C947 C942 1.399 . S
C947 C946 1.394 . S
C947 C948 1.516 . S
C948 C947 1.516 . S
C948 C949 1.502 . S
C948 C950 1.561 . S
C948 C951 1.526 . S
C949 H933 0.959 . S
C949 H934 0.959 . S
C949 H935 0.961 . S
C949 C948 1.502 . S
C950 H936 0.960 . S
C950 H937 0.961 . S
C950 H938 0.959 . S
C950 C948 1.561 . S
C951 C948 1.526 . S
C951 C952 1.396 . S
C951 C956 1.390 . S
C952 C946 1.465 . S
C952 C951 1.396 . S
C952 C953 1.399 . S
C953 H939 0.929 . S
C953 C952 1.399 . S
C953 C954 1.385 . S
C954 H940 0.931 . S
C954 C953 1.385 . S
C954 C955 1.389 . S
C955 C954 1.389 . S
C955 C956 1.387 . S
C956 H941 0.930 . S
C956 C951 1.390 . S
C956 C955 1.387 . S
H957 C969 0.930 . S
H958 C971 0.930 . S
H959 C972 0.930 . S
H960 C976 0.959 . S
H961 C976 0.959 . S
H962 C976 0.961 . S
H963 C977 0.960 . S
H964 C977 0.961 . S
H965 C977 0.959 . S
H966 C980 0.929 . S
H967 C981 0.931 . S
H968 C983 0.930 . S
C969 H957 0.930 . S
C969 C970 1.399 . S
C969 C974 1.399 . S
C970 C969 1.399 . S
C970 C971 1.376 . S
C971 H958 0.930 . S
C971 C970 1.376 . S
C971 C972 1.388 . S
C972 H959 0.930 . S
C972 C971 1.388 . S
C972 C973 1.390 . S
C973 C972 1.390 . S
C973 C974 1.394 . S
C973 C979 1.465 . S
C974 C969 1.399 . S
C974 C973 1.394 . S
C974 C975 1.516 . S
C975 C974 1.516 . S
C975 C976 1.502 . S
C975 C977 1.561 . S
C975 C978 1.526 . S
C976 H960 0.959 . S
C976 H961 0.959 . S
C976 H962 0.961 . S
C976 C975 1.502 . S
C977 H963 0.960 . S
C977 H964 0.961 . S
C977 H965 0.959 . S
C977 C975 1.561 . S
C978 C975 1.526 . S
C978 C979 1.396 . S
C978 C983 1.390 . S
C979 C973 1.465 . S
C979 C978 1.396 . S
C979 C980 1.399 . S
C980 H966 0.929 . S
C980 C979 1.399 . S
C980 C981 1.385 . S
C981 H967 0.931 . S
C981 C980 1.385 . S
C981 C982 1.389 . S
C982 C981 1.389 . S
C982 C983 1.387 . S
C983 H968 0.930 . S
C983 C978 1.390 . S
C983 C982 1.387 . S
H984 C996 0.930 . S
H985 C998 0.930 . S
H986 C999 0.930 . S
H987 C1003 0.959 . S
H988 C1003 0.959 . S
H989 C1003 0.961 . S
H990 C1004 0.960 . S
H991 C1004 0.961 . S
H992 C1004 0.959 . S
H993 C1007 0.929 . S
H994 C1008 0.931 . S
H995 C1010 0.930 . S
C996 H984 0.930 . S
C996 C997 1.399 . S
C996 C1001 1.399 . S
C997 C996 1.399 . S
C997 C998 1.376 . S
C998 H985 0.930 . S
C998 C997 1.376 . S
C998 C999 1.388 . S
C999 H986 0.930 . S
C999 C998 1.388 . S
C999 C1000 1.390 . S
C1000 C999 1.390 . S
C1000 C1001 1.394 . S
C1000 C1006 1.465 . S
C1001 C996 1.399 . S
C1001 C1000 1.394 . S
C1001 C1002 1.516 . S
C1002 C1001 1.516 . S
C1002 C1003 1.502 . S
C1002 C1004 1.561 . S
C1002 C1005 1.526 . S
C1003 H987 0.959 . S
C1003 H988 0.959 . S
C1003 H989 0.961 . S
C1003 C1002 1.502 . S
C1004 H990 0.960 . S
C1004 H991 0.961 . S
C1004 H992 0.959 . S
C1004 C1002 1.561 . S
C1005 C1002 1.526 . S
C1005 C1006 1.396 . S
C1005 C1010 1.390 . S
C1006 C1000 1.465 . S
C1006 C1005 1.396 . S
C1006 C1007 1.399 . S
C1007 H993 0.929 . S
C1007 C1006 1.399 . S
C1007 C1008 1.385 . S
C1008 H994 0.931 . S
C1008 C1007 1.385 . S
C1008 C1009 1.389 . S
C1009 C1008 1.389 . S
C1009 C1010 1.387 . S
C1010 H995 0.930 . S
C1010 C1005 1.390 . S
C1010 C1009 1.387 . S
H1011 C1023 0.930 . S
H1012 C1025 0.930 . S
H1013 C1026 0.930 1_556 S
H1014 C1030 0.959 . S
H1015 C1030 0.959 . S
H1016 C1030 0.961 1_554 S
H1017 C1031 0.960 . S
H1018 C1031 0.961 . S
H1019 C1031 0.959 . S
H1020 C1034 0.929 . S
H1021 C1035 0.931 . S
H1022 C1037 0.930 . S
C1023 H1011 0.930 . S
C1023 C1024 1.399 . S
C1023 C1028 1.399 1_554 S
C1024 C1023 1.399 . S
C1024 C1025 1.376 . S
C1025 H1012 0.930 . S
C1025 C1024 1.376 . S
C1025 C1026 1.388 . S
C1026 H1013 0.930 1_554 S
C1026 C1025 1.388 . S
C1026 C1027 1.390 1_554 S
C1027 C1026 1.390 1_556 S
C1027 C1028 1.394 . S
C1027 C1033 1.465 . S
C1028 C1023 1.399 1_556 S
C1028 C1027 1.394 . S
C1028 C1029 1.516 . S
C1029 C1028 1.516 . S
C1029 C1030 1.502 . S
C1029 C1031 1.561 . S
C1029 C1032 1.526 . S
C1030 H1014 0.959 . S
C1030 H1015 0.959 . S
C1030 H1016 0.961 1_556 S
C1030 C1029 1.502 . S
C1031 H1017 0.960 . S
C1031 H1018 0.961 . S
C1031 H1019 0.959 . S
C1031 C1029 1.561 . S
C1032 C1029 1.526 . S
C1032 C1033 1.396 . S
C1032 C1037 1.390 . S
C1033 C1027 1.465 . S
C1033 C1032 1.396 . S
C1033 C1034 1.399 . S
C1034 H1020 0.929 . S
C1034 C1033 1.399 . S
C1034 C1035 1.385 . S
C1035 H1021 0.931 . S
C1035 C1034 1.385 . S
C1035 C1036 1.389 . S
C1036 C1035 1.389 . S
C1036 C1037 1.387 . S
C1037 H1022 0.930 . S
C1037 C1032 1.390 . S
C1037 C1036 1.387 . S
H1038 C1050 0.930 . S
H1039 C1052 0.930 . S
H1040 C1053 0.930 . S
H1041 C1057 0.959 . S
H1042 C1057 0.959 . S
H1043 C1057 0.961 . S
H1044 C1058 0.960 . S
H1045 C1058 0.961 . S
H1046 C1058 0.959 . S
H1047 C1061 0.929 . S
H1048 C1062 0.931 . S
H1049 C1064 0.930 . S
C1050 H1038 0.930 . S
C1050 C1051 1.399 . S
C1050 C1055 1.399 . S
C1051 C1050 1.399 . S
C1051 C1052 1.376 . S
C1052 H1039 0.930 . S
C1052 C1051 1.376 . S
C1052 C1053 1.388 . S
C1053 H1040 0.930 . S
C1053 C1052 1.388 . S
C1053 C1054 1.390 . S
C1054 C1053 1.390 . S
C1054 C1055 1.394 . S
C1054 C1060 1.465 . S
C1055 C1050 1.399 . S
C1055 C1054 1.394 . S
C1055 C1056 1.516 . S
C1056 C1055 1.516 . S
C1056 C1057 1.502 . S
C1056 C1058 1.561 . S
C1056 C1059 1.526 . S
C1057 H1041 0.959 . S
C1057 H1042 0.959 . S
C1057 H1043 0.961 . S
C1057 C1056 1.502 . S
C1058 H1044 0.960 . S
C1058 H1045 0.961 . S
C1058 H1046 0.959 . S
C1058 C1056 1.561 . S
C1059 C1056 1.526 . S
C1059 C1060 1.396 . S
C1059 C1064 1.390 . S
C1060 C1054 1.465 . S
C1060 C1059 1.396 . S
C1060 C1061 1.399 . S
C1061 H1047 0.929 . S
C1061 C1060 1.399 . S
C1061 C1062 1.385 . S
C1062 H1048 0.931 . S
C1062 C1061 1.385 . S
C1062 C1063 1.389 . S
C1063 C1062 1.389 . S
C1063 C1064 1.387 . S
C1064 H1049 0.930 . S
C1064 C1059 1.390 . S
C1064 C1063 1.387 . S
H1065 C1077 0.930 . S
H1066 C1079 0.930 . S
H1067 C1080 0.930 . S
H1068 C1084 0.959 . S
H1069 C1084 0.959 . S
H1070 C1084 0.961 . S
H1071 C1085 0.960 . S
H1072 C1085 0.961 . S
H1073 C1085 0.959 . S
H1074 C1088 0.929 . S
H1075 C1089 0.931 . S
H1076 C1091 0.930 . S
C1077 H1065 0.930 . S
C1077 C1078 1.399 . S
C1077 C1082 1.399 . S
C1078 C1077 1.399 . S
C1078 C1079 1.376 . S
C1079 H1066 0.930 . S
C1079 C1078 1.376 . S
C1079 C1080 1.388 . S
C1080 H1067 0.930 . S
C1080 C1079 1.388 . S
C1080 C1081 1.390 . S
C1081 C1080 1.390 . S
C1081 C1082 1.394 . S
C1081 C1087 1.465 . S
C1082 C1077 1.399 . S
C1082 C1081 1.394 . S
C1082 C1083 1.516 . S
C1083 C1082 1.516 . S
C1083 C1084 1.502 . S
C1083 C1085 1.561 . S
C1083 C1086 1.526 . S
C1084 H1068 0.959 . S
C1084 H1069 0.959 . S
C1084 H1070 0.961 . S
C1084 C1083 1.502 . S
C1085 H1071 0.960 . S
C1085 H1072 0.961 . S
C1085 H1073 0.959 . S
C1085 C1083 1.561 . S
C1086 C1083 1.526 . S
C1086 C1087 1.396 . S
C1086 C1091 1.390 1_554 S
C1087 C1081 1.465 . S
C1087 C1086 1.396 . S
C1087 C1088 1.399 1_554 S
C1088 H1074 0.929 . S
C1088 C1087 1.399 1_556 S
C1088 C1089 1.385 . S
C1089 H1075 0.931 . S
C1089 C1088 1.385 . S
C1089 C1090 1.389 . S
C1090 C1089 1.389 . S
C1090 C1091 1.387 . S
C1091 H1076 0.930 . S
C1091 C1086 1.390 1_556 S
C1091 C1090 1.387 . S
H1092 C1104 0.930 . S
H1093 C1106 0.930 . S
H1094 C1107 0.930 . S
H1095 C1111 0.959 . S
H1096 C1111 0.959 . S
H1097 C1111 0.961 . S
H1098 C1112 0.960 . S
H1099 C1112 0.961 . S
H1100 C1112 0.959 . S
H1101 C1115 0.929 . S
H1102 C1116 0.931 . S
H1103 C1118 0.930 . S
C1104 H1092 0.930 . S
C1104 C1105 1.399 . S
C1104 C1109 1.399 . S
C1105 C1104 1.399 . S
C1105 C1106 1.376 . S
C1106 H1093 0.930 . S
C1106 C1105 1.376 . S
C1106 C1107 1.388 . S
C1107 H1094 0.930 . S
C1107 C1106 1.388 . S
C1107 C1108 1.390 . S
C1108 C1107 1.390 . S
C1108 C1109 1.394 . S
C1108 C1114 1.465 . S
C1109 C1104 1.399 . S
C1109 C1108 1.394 . S
C1109 C1110 1.516 . S
C1110 C1109 1.516 . S
C1110 C1111 1.502 . S
C1110 C1112 1.561 . S
C1110 C1113 1.526 . S
C1111 H1095 0.959 . S
C1111 H1096 0.959 . S
C1111 H1097 0.961 . S
C1111 C1110 1.502 . S
C1112 H1098 0.960 . S
C1112 H1099 0.961 . S
C1112 H1100 0.959 . S
C1112 C1110 1.561 . S
C1113 C1110 1.526 . S
C1113 C1114 1.396 . S
C1113 C1118 1.390 . S
C1114 C1108 1.465 . S
C1114 C1113 1.396 . S
C1114 C1115 1.399 . S
C1115 H1101 0.929 . S
C1115 C1114 1.399 . S
C1115 C1116 1.385 . S
C1116 H1102 0.931 . S
C1116 C1115 1.385 . S
C1116 C1117 1.389 . S
C1117 C1116 1.389 . S
C1117 C1118 1.387 . S
C1118 H1103 0.930 . S
C1118 C1113 1.390 . S
C1118 C1117 1.387 . S
H1119 C1131 0.930 . S
H1120 C1133 0.930 . S
H1121 C1134 0.930 . S
H1122 C1138 0.959 . S
H1123 C1138 0.959 . S
H1124 C1138 0.961 . S
H1125 C1139 0.960 . S
H1126 C1139 0.961 . S
H1127 C1139 0.959 . S
H1128 C1142 0.929 . S
H1129 C1143 0.931 . S
H1130 C1145 0.930 . S
C1131 H1119 0.930 . S
C1131 C1132 1.399 . S
C1131 C1136 1.399 1_655 S
C1132 C1131 1.399 . S
C1132 C1133 1.376 . S
C1133 H1120 0.930 . S
C1133 C1132 1.376 . S
C1133 C1134 1.388 1_655 S
C1134 H1121 0.930 . S
C1134 C1133 1.388 1_455 S
C1134 C1135 1.390 . S
C1135 C1134 1.390 . S
C1135 C1136 1.394 . S
C1135 C1141 1.465 . S
C1136 C1131 1.399 1_455 S
C1136 C1135 1.394 . S
C1136 C1137 1.516 . S
C1137 C1136 1.516 . S
C1137 C1138 1.502 . S
C1137 C1139 1.561 . S
C1137 C1140 1.526 . S
C1138 H1122 0.959 . S
C1138 H1123 0.959 . S
C1138 H1124 0.961 . S
C1138 C1137 1.502 . S
C1139 H1125 0.960 . S
C1139 H1126 0.961 . S
C1139 H1127 0.959 . S
C1139 C1137 1.561 . S
C1140 C1137 1.526 . S
C1140 C1141 1.396 . S
C1140 C1145 1.390 . S
C1141 C1135 1.465 . S
C1141 C1140 1.396 . S
C1141 C1142 1.399 . S
C1142 H1128 0.929 . S
C1142 C1141 1.399 . S
C1142 C1143 1.385 . S
C1143 H1129 0.931 . S
C1143 C1142 1.385 . S
C1143 C1144 1.389 . S
C1144 C1143 1.389 . S
C1144 C1145 1.387 . S
C1145 H1130 0.930 . S
C1145 C1140 1.390 . S
C1145 C1144 1.387 . S
H1146 C1158 0.930 . S
H1147 C1160 0.930 . S
H1148 C1161 0.930 1_655 S
H1149 C1165 0.959 . S
H1150 C1165 0.959 . S
H1151 C1165 0.961 . S
H1152 C1166 0.960 . S
H1153 C1166 0.961 . S
H1154 C1166 0.959 . S
H1155 C1169 0.929 . S
H1156 C1170 0.931 . S
H1157 C1172 0.930 . S
C1158 H1146 0.930 . S
C1158 C1159 1.399 . S
C1158 C1163 1.399 1_455 S
C1159 C1158 1.399 . S
C1159 C1160 1.376 . S
C1160 H1147 0.930 . S
C1160 C1159 1.376 . S
C1160 C1161 1.388 . S
C1161 H1148 0.930 1_455 S
C1161 C1160 1.388 . S
C1161 C1162 1.390 1_455 S
C1162 C1161 1.390 1_655 S
C1162 C1163 1.394 . S
C1162 C1168 1.465 . S
C1163 C1158 1.399 1_655 S
C1163 C1162 1.394 . S
C1163 C1164 1.516 . S
C1164 C1163 1.516 . S
C1164 C1165 1.502 . S
C1164 C1166 1.561 . S
C1164 C1167 1.526 . S
C1165 H1149 0.959 . S
C1165 H1150 0.959 . S
C1165 H1151 0.961 . S
C1165 C1164 1.502 . S
C1166 H1152 0.960 . S
C1166 H1153 0.961 . S
C1166 H1154 0.959 . S
C1166 C1164 1.561 . S
C1167 C1164 1.526 . S
C1167 C1168 1.396 . S
C1167 C1172 1.390 . S
C1168 C1162 1.465 . S
C1168 C1167 1.396 . S
C1168 C1169 1.399 . S
C1169 H1155 0.929 . S
C1169 C1168 1.399 . S
C1169 C1170 1.385 . S
C1170 H1156 0.931 . S
C1170 C1169 1.385 . S
C1170 C1171 1.389 . S
C1171 C1170 1.389 . S
C1171 C1172 1.387 . S
C1172 H1157 0.930 . S
C1172 C1167 1.390 . S
C1172 C1171 1.387 . S
H1173 C1185 0.930 . S
H1174 C1187 0.930 . S
H1175 C1188 0.930 . S
H1176 C1192 0.959 . S
H1177 C1192 0.959 . S
H1178 C1192 0.961 . S
H1179 C1193 0.960 . S
H1180 C1193 0.961 . S
H1181 C1193 0.959 . S
H1182 C1196 0.929 . S
H1183 C1197 0.931 . S
H1184 C1199 0.930 . S
C1185 H1173 0.930 . S
C1185 C1186 1.399 . S
C1185 C1190 1.399 . S
C1186 C1185 1.399 . S
C1186 C1187 1.376 . S
C1187 H1174 0.930 . S
C1187 C1186 1.376 . S
C1187 C1188 1.388 . S
C1188 H1175 0.930 . S
C1188 C1187 1.388 . S
C1188 C1189 1.390 . S
C1189 C1188 1.390 . S
C1189 C1190 1.394 . S
C1189 C1195 1.465 . S
C1190 C1185 1.399 . S
C1190 C1189 1.394 . S
C1190 C1191 1.516 . S
C1191 C1190 1.516 . S
C1191 C1192 1.502 . S
C1191 C1193 1.561 . S
C1191 C1194 1.526 . S
C1192 H1176 0.959 . S
C1192 H1177 0.959 . S
C1192 H1178 0.961 . S
C1192 C1191 1.502 . S
C1193 H1179 0.960 . S
C1193 H1180 0.961 . S
C1193 H1181 0.959 . S
C1193 C1191 1.561 . S
C1194 C1191 1.526 . S
C1194 C1195 1.396 . S
C1194 C1199 1.390 . S
C1195 C1189 1.465 . S
C1195 C1194 1.396 . S
C1195 C1196 1.399 . S
C1196 H1182 0.929 . S
C1196 C1195 1.399 . S
C1196 C1197 1.385 . S
C1197 H1183 0.931 . S
C1197 C1196 1.385 . S
C1197 C1198 1.389 . S
C1198 C1197 1.389 . S
C1198 C1199 1.387 . S
C1199 H1184 0.930 . S
C1199 C1194 1.390 . S
C1199 C1198 1.387 . S
H1200 C1212 0.930 . S
H1201 C1214 0.930 . S
H1202 C1215 0.930 . S
H1203 C1219 0.959 . S
H1204 C1219 0.959 . S
H1205 C1219 0.961 . S
H1206 C1220 0.960 . S
H1207 C1220 0.961 . S
H1208 C1220 0.959 . S
H1209 C1223 0.929 . S
H1210 C1224 0.931 . S
H1211 C1226 0.930 . S
C1212 H1200 0.930 . S
C1212 C1213 1.399 . S
C1212 C1217 1.399 . S
C1213 C1212 1.399 . S
C1213 C1214 1.376 . S
C1214 H1201 0.930 . S
C1214 C1213 1.376 . S
C1214 C1215 1.388 . S
C1215 H1202 0.930 . S
C1215 C1214 1.388 . S
C1215 C1216 1.390 . S
C1216 C1215 1.390 . S
C1216 C1217 1.394 . S
C1216 C1222 1.465 . S
C1217 C1212 1.399 . S
C1217 C1216 1.394 . S
C1217 C1218 1.516 . S
C1218 C1217 1.516 . S
C1218 C1219 1.502 . S
C1218 C1220 1.561 . S
C1218 C1221 1.526 . S
C1219 H1203 0.959 . S
C1219 H1204 0.959 . S
C1219 H1205 0.961 . S
C1219 C1218 1.502 . S
C1220 H1206 0.960 . S
C1220 H1207 0.961 . S
C1220 H1208 0.959 . S
C1220 C1218 1.561 . S
C1221 C1218 1.526 . S
C1221 C1222 1.396 . S
C1221 C1226 1.390 . S
C1222 C1216 1.465 . S
C1222 C1221 1.396 . S
C1222 C1223 1.399 . S
C1223 H1209 0.929 . S
C1223 C1222 1.399 . S
C1223 C1224 1.385 . S
C1224 H1210 0.931 . S
C1224 C1223 1.385 . S
C1224 C1225 1.389 . S
C1225 C1224 1.389 . S
C1225 C1226 1.387 . S
C1226 H1211 0.930 . S
C1226 C1221 1.390 . S
C1226 C1225 1.387 . S
H1227 C1239 0.930 . S
H1228 C1241 0.930 . S
H1229 C1242 0.919 1_545 S
H1230 C1246 0.959 . S
H1231 C1246 0.959 . S
H1232 C1246 0.961 . S
H1233 C1247 0.960 1_565 S
H1234 C1247 0.961 . S
H1235 C1247 0.959 . S
H1236 C1250 0.929 . S
H1237 C1251 0.931 . S
H1238 C1253 0.930 . S
C1239 H1227 0.930 . S
C1239 C1240 1.399 . S
C1239 C1244 1.400 1_565 S
C1240 C1239 1.399 . S
C1240 C1241 1.376 . S
C1241 H1228 0.930 . S
C1241 C1240 1.376 . S
C1241 C1242 1.412 . S
C1242 H1229 0.919 1_565 S
C1242 C1241 1.412 . S
C1242 C1243 1.378 1_565 S
C1243 C1242 1.378 1_545 S
C1243 C1244 1.393 . S
C1243 C1249 1.465 . S
C1244 C1239 1.400 1_545 S
C1244 C1243 1.393 . S
C1244 C1245 1.516 . S
C1245 C1244 1.516 . S
C1245 C1246 1.502 . S
C1245 C1247 1.561 . S
C1245 C1248 1.526 . S
C1246 H1230 0.959 . S
C1246 H1231 0.959 . S
C1246 H1232 0.961 . S
C1246 C1245 1.502 . S
C1247 H1233 0.960 1_545 S
C1247 H1234 0.961 . S
C1247 H1235 0.959 . S
C1247 C1245 1.561 . S
C1248 C1245 1.526 . S
C1248 C1249 1.396 . S
C1248 C1253 1.390 . S
C1249 C1243 1.465 . S
C1249 C1248 1.396 . S
C1249 C1250 1.399 . S
C1250 H1236 0.929 . S
C1250 C1249 1.399 . S
C1250 C1251 1.385 . S
C1251 H1237 0.931 . S
C1251 C1250 1.385 . S
C1251 C1252 1.389 . S
C1252 C1251 1.389 . S
C1252 C1253 1.387 . S
C1253 H1238 0.930 . S
C1253 C1248 1.390 . S
C1253 C1252 1.387 . S
H1254 C1266 0.930 . S
H1255 C1268 0.930 . S
H1256 C1269 0.916 1_565 S
H1257 C1273 0.959 . S
H1258 C1273 0.959 . S
H1259 C1273 0.961 . S
H1260 C1274 0.960 1_545 S
H1261 C1274 0.961 . S
H1262 C1274 0.959 . S
H1263 C1277 0.929 . S
H1264 C1278 0.931 . S
H1265 C1280 0.930 . S
C1266 H1254 0.930 . S
C1266 C1267 1.399 . S
C1266 C1271 1.398 1_545 S
C1267 C1266 1.399 . S
C1267 C1268 1.376 . S
C1268 H1255 0.930 . S
C1268 C1267 1.376 . S
C1268 C1269 1.418 . S
C1269 H1256 0.916 1_545 S
C1269 C1268 1.418 . S
C1269 C1270 1.375 1_545 S
C1270 C1269 1.375 1_565 S
C1270 C1271 1.394 . S
C1270 C1276 1.465 . S
C1271 C1266 1.398 1_565 S
C1271 C1270 1.394 . S
C1271 C1272 1.517 . S
C1272 C1271 1.517 . S
C1272 C1273 1.502 . S
C1272 C1274 1.561 . S
C1272 C1275 1.526 . S
C1273 H1257 0.959 . S
C1273 H1258 0.959 . S
C1273 H1259 0.961 . S
C1273 C1272 1.502 . S
C1274 H1260 0.960 1_565 S
C1274 H1261 0.961 . S
C1274 H1262 0.959 . S
C1274 C1272 1.561 . S
C1275 C1272 1.526 . S
C1275 C1276 1.396 . S
C1275 C1280 1.390 . S
C1276 C1270 1.465 . S
C1276 C1275 1.396 . S
C1276 C1277 1.399 . S
C1277 H1263 0.929 . S
C1277 C1276 1.399 . S
C1277 C1278 1.385 . S
C1278 H1264 0.931 . S
C1278 C1277 1.385 . S
C1278 C1279 1.389 . S
C1279 C1278 1.389 . S
C1279 C1280 1.387 . S
C1280 H1265 0.930 . S
C1280 C1275 1.390 . S
C1280 C1279 1.387 . S
H1281 C1293 0.930 . S
H1282 C1295 0.930 . S
H1283 C1296 0.930 . S
H1284 C1300 0.959 . S
H1285 C1300 0.959 . S
H1286 C1300 0.961 . S
H1287 C1301 0.960 . S
H1288 C1301 0.961 . S
H1289 C1301 0.959 . S
H1290 C1304 0.929 . S
H1291 C1305 0.931 . S
H1292 C1307 0.930 . S
C1293 H1281 0.930 . S
C1293 C1294 1.399 . S
C1293 C1298 1.399 . S
C1294 C1293 1.399 . S
C1294 C1295 1.376 . S
C1295 H1282 0.930 . S
C1295 C1294 1.376 . S
C1295 C1296 1.388 . S
C1296 H1283 0.930 . S
C1296 C1295 1.388 . S
C1296 C1297 1.390 . S
C1297 C1296 1.390 . S
C1297 C1298 1.394 . S
C1297 C1303 1.465 . S
C1298 C1293 1.399 . S
C1298 C1297 1.394 . S
C1298 C1299 1.516 . S
C1299 C1298 1.516 . S
C1299 C1300 1.502 . S
C1299 C1301 1.561 . S
C1299 C1302 1.526 . S
C1300 H1284 0.959 . S
C1300 H1285 0.959 . S
C1300 H1286 0.961 . S
C1300 C1299 1.502 . S
C1301 H1287 0.960 . S
C1301 H1288 0.961 . S
C1301 H1289 0.959 . S
C1301 C1299 1.561 . S
C1302 C1299 1.526 . S
C1302 C1303 1.396 . S
C1302 C1307 1.390 . S
C1303 C1297 1.465 . S
C1303 C1302 1.396 . S
C1303 C1304 1.399 . S
C1304 H1290 0.929 . S
C1304 C1303 1.399 . S
C1304 C1305 1.385 . S
C1305 H1291 0.931 . S
C1305 C1304 1.385 . S
C1305 C1306 1.389 . S
C1306 C1305 1.389 . S
C1306 C1307 1.387 . S
C1307 H1292 0.930 . S
C1307 C1302 1.390 . S
C1307 C1306 1.387 . S
H1308 C1320 0.930 . S
H1309 C1322 0.930 . S
H1310 C1323 0.930 . S
H1311 C1327 0.959 . S
H1312 C1327 0.959 . S
H1313 C1327 0.961 . S
H1314 C1328 0.960 . S
H1315 C1328 0.961 . S
H1316 C1328 0.959 . S
H1317 C1331 0.929 . S
H1318 C1332 0.931 . S
H1319 C1334 0.930 . S
C1320 H1308 0.930 . S
C1320 C1321 1.399 . S
C1320 C1325 1.399 . S
C1321 C1320 1.399 . S
C1321 C1322 1.376 . S
C1322 H1309 0.930 . S
C1322 C1321 1.376 . S
C1322 C1323 1.388 . S
C1323 H1310 0.930 . S
C1323 C1322 1.388 . S
C1323 C1324 1.390 . S
C1324 C1323 1.390 . S
C1324 C1325 1.394 . S
C1324 C1330 1.465 . S
C1325 C1320 1.399 . S
C1325 C1324 1.394 . S
C1325 C1326 1.516 . S
C1326 C1325 1.516 . S
C1326 C1327 1.502 . S
C1326 C1328 1.561 . S
C1326 C1329 1.526 . S
C1327 H1311 0.959 . S
C1327 H1312 0.959 . S
C1327 H1313 0.961 . S
C1327 C1326 1.502 . S
C1328 H1314 0.960 . S
C1328 H1315 0.961 . S
C1328 H1316 0.959 . S
C1328 C1326 1.561 . S
C1329 C1326 1.526 . S
C1329 C1330 1.396 . S
C1329 C1334 1.390 . S
C1330 C1324 1.465 . S
C1330 C1329 1.396 . S
C1330 C1331 1.399 . S
C1331 H1317 0.929 . S
C1331 C1330 1.399 . S
C1331 C1332 1.385 . S
C1332 H1318 0.931 . S
C1332 C1331 1.385 . S
C1332 C1333 1.389 . S
C1333 C1332 1.389 . S
C1333 C1334 1.387 . S
C1334 H1319 0.930 . S
C1334 C1329 1.390 . S
C1334 C1333 1.387 . S
H1335 C1347 0.930 . S
H1336 C1349 0.930 . S
H1337 C1350 0.930 1_554 S
H1338 C1354 0.959 . S
H1339 C1354 0.959 . S
H1340 C1354 0.961 . S
H1341 C1355 0.960 . S
H1342 C1355 0.961 . S
H1343 C1355 0.959 . S
H1344 C1358 0.929 . S
H1345 C1359 0.931 . S
H1346 C1361 0.930 . S
C1347 H1335 0.930 . S
C1347 C1348 1.399 . S
C1347 C1352 1.399 1_556 S
C1348 C1347 1.399 . S
C1348 C1349 1.376 . S
C1349 H1336 0.930 . S
C1349 C1348 1.376 . S
C1349 C1350 1.388 . S
C1350 H1337 0.930 1_556 S
C1350 C1349 1.388 . S
C1350 C1351 1.390 1_556 S
C1351 C1350 1.390 1_554 S
C1351 C1352 1.394 . S
C1351 C1357 1.465 . S
C1352 C1347 1.399 1_554 S
C1352 C1351 1.394 . S
C1352 C1353 1.516 . S
C1353 C1352 1.516 . S
C1353 C1354 1.502 . S
C1353 C1355 1.561 . S
C1353 C1356 1.526 . S
C1354 H1338 0.959 . S
C1354 H1339 0.959 . S
C1354 H1340 0.961 . S
C1354 C1353 1.502 . S
C1355 H1341 0.960 . S
C1355 H1342 0.961 . S
C1355 H1343 0.959 . S
C1355 C1353 1.561 . S
C1356 C1353 1.526 . S
C1356 C1357 1.396 . S
C1356 C1361 1.390 . S
C1357 C1351 1.465 . S
C1357 C1356 1.396 . S
C1357 C1358 1.399 . S
C1358 H1344 0.929 . S
C1358 C1357 1.399 . S
C1358 C1359 1.385 . S
C1359 H1345 0.931 . S
C1359 C1358 1.385 . S
C1359 C1360 1.389 . S
C1360 C1359 1.389 . S
C1360 C1361 1.387 . S
C1361 H1346 0.930 . S
C1361 C1356 1.390 . S
C1361 C1360 1.387 . S
H1362 C1374 0.930 . S
H1363 C1376 0.930 . S
H1364 C1377 0.930 . S
H1365 C1381 0.959 . S
H1366 C1381 0.959 . S
H1367 C1381 0.961 . S
H1368 C1382 0.960 . S
H1369 C1382 0.961 . S
H1370 C1382 0.959 . S
H1371 C1385 0.929 . S
H1372 C1386 0.931 . S
H1373 C1388 0.930 . S
C1374 H1362 0.930 . S
C1374 C1375 1.399 . S
C1374 C1379 1.399 . S
C1375 C1374 1.399 . S
C1375 C1376 1.376 . S
C1376 H1363 0.930 . S
C1376 C1375 1.376 . S
C1376 C1377 1.388 . S
C1377 H1364 0.930 . S
C1377 C1376 1.388 . S
C1377 C1378 1.390 . S
C1378 C1377 1.390 . S
C1378 C1379 1.394 . S
C1378 C1384 1.465 . S
C1379 C1374 1.399 . S
C1379 C1378 1.394 . S
C1379 C1380 1.516 . S
C1380 C1379 1.516 . S
C1380 C1381 1.502 . S
C1380 C1382 1.561 . S
C1380 C1383 1.526 . S
C1381 H1365 0.959 . S
C1381 H1366 0.959 . S
C1381 H1367 0.961 . S
C1381 C1380 1.502 . S
C1382 H1368 0.960 . S
C1382 H1369 0.961 . S
C1382 H1370 0.959 . S
C1382 C1380 1.561 . S
C1383 C1380 1.526 . S
C1383 C1384 1.396 . S
C1383 C1388 1.390 . S
C1384 C1378 1.465 . S
C1384 C1383 1.396 . S
C1384 C1385 1.399 . S
C1385 H1371 0.929 . S
C1385 C1384 1.399 . S
C1385 C1386 1.385 . S
C1386 H1372 0.931 . S
C1386 C1385 1.385 . S
C1386 C1387 1.389 . S
C1387 C1386 1.389 . S
C1387 C1388 1.387 . S
C1388 H1373 0.930 . S
C1388 C1383 1.390 . S
C1388 C1387 1.387 . S
H1389 C1401 0.930 . S
H1390 C1403 0.930 . S
H1391 C1404 0.929 1_556 S
H1392 C1408 0.959 . S
H1393 C1408 0.959 . S
H1394 C1408 0.961 . S
H1395 C1409 0.960 . S
H1396 C1409 0.961 . S
H1397 C1409 0.959 . S
H1398 C1412 0.929 . S
H1399 C1413 0.931 . S
H1400 C1415 0.930 . S
C1401 H1389 0.930 . S
C1401 C1402 1.399 . S
C1401 C1406 1.399 1_554 S
C1402 C1401 1.399 . S
C1402 C1403 1.376 . S
C1403 H1390 0.930 . S
C1403 C1402 1.376 . S
C1403 C1404 1.390 . S
C1404 H1391 0.929 1_554 S
C1404 C1403 1.390 . S
C1404 C1405 1.389 1_554 S
C1405 C1404 1.389 1_556 S
C1405 C1406 1.394 . S
C1405 C1411 1.465 . S
C1406 C1401 1.399 1_556 S
C1406 C1405 1.394 . S
C1406 C1407 1.516 . S
C1407 C1406 1.516 . S
C1407 C1408 1.502 . S
C1407 C1409 1.561 . S
C1407 C1410 1.526 . S
C1408 H1392 0.959 . S
C1408 H1393 0.959 . S
C1408 H1394 0.961 . S
C1408 C1407 1.502 . S
C1409 H1395 0.960 . S
C1409 H1396 0.961 . S
C1409 H1397 0.959 . S
C1409 C1407 1.561 . S
C1410 C1407 1.526 . S
C1410 C1411 1.396 . S
C1410 C1415 1.390 . S
C1411 C1405 1.465 . S
C1411 C1410 1.396 . S
C1411 C1412 1.399 . S
C1412 H1398 0.929 . S
C1412 C1411 1.399 . S
C1412 C1413 1.385 . S
C1413 H1399 0.931 . S
C1413 C1412 1.385 . S
C1413 C1414 1.389 . S
C1414 C1413 1.389 . S
C1414 C1415 1.387 . S
C1415 H1400 0.930 . S
C1415 C1410 1.390 . S
C1415 C1414 1.387 . S
H1416 C1428 0.930 . S
H1417 C1430 0.930 . S
H1418 C1431 0.930 . S
H1419 C1435 0.959 . S
H1420 C1435 0.959 . S
H1421 C1435 0.961 . S
H1422 C1436 0.960 . S
H1423 C1436 0.961 . S
H1424 C1436 0.959 . S
H1425 C1439 0.929 . S
H1426 C1440 0.931 . S
H1427 C1442 0.930 . S
C1428 H1416 0.930 . S
C1428 C1429 1.399 . S
C1428 C1433 1.399 . S
C1429 C1428 1.399 . S
C1429 C1430 1.376 . S
C1430 H1417 0.930 . S
C1430 C1429 1.376 . S
C1430 C1431 1.388 . S
C1431 H1418 0.930 . S
C1431 C1430 1.388 . S
C1431 C1432 1.390 . S
C1432 C1431 1.390 . S
C1432 C1433 1.394 . S
C1432 C1438 1.465 . S
C1433 C1428 1.399 . S
C1433 C1432 1.394 . S
C1433 C1434 1.516 . S
C1434 C1433 1.516 . S
C1434 C1435 1.502 . S
C1434 C1436 1.561 . S
C1434 C1437 1.526 . S
C1435 H1419 0.959 . S
C1435 H1420 0.959 . S
C1435 H1421 0.961 . S
C1435 C1434 1.502 . S
C1436 H1422 0.960 . S
C1436 H1423 0.961 . S
C1436 H1424 0.959 . S
C1436 C1434 1.561 . S
C1437 C1434 1.526 . S
C1437 C1438 1.396 . S
C1437 C1442 1.390 . S
C1438 C1432 1.465 . S
C1438 C1437 1.396 . S
C1438 C1439 1.399 . S
C1439 H1425 0.929 . S
C1439 C1438 1.399 . S
C1439 C1440 1.385 . S
C1440 H1426 0.931 . S
C1440 C1439 1.385 . S
C1440 C1441 1.389 . S
C1441 C1440 1.389 . S
C1441 C1442 1.387 . S
C1442 H1427 0.930 . S
C1442 C1437 1.390 . S
C1442 C1441 1.387 . S
H1443 C1455 0.930 . S
H1444 C1457 0.930 . S
H1445 C1458 0.930 . S
H1446 C1462 0.959 . S
H1447 C1462 0.959 . S
H1448 C1462 0.961 . S
H1449 C1463 0.960 . S
H1450 C1463 0.961 . S
H1451 C1463 0.959 . S
H1452 C1466 0.929 . S
H1453 C1467 0.931 . S
H1454 C1469 0.930 . S
C1455 H1443 0.930 . S
C1455 C1456 1.399 . S
C1455 C1460 1.399 . S
C1456 C1455 1.399 . S
C1456 C1457 1.376 . S
C1457 H1444 0.930 . S
C1457 C1456 1.376 . S
C1457 C1458 1.388 . S
C1458 H1445 0.930 . S
C1458 C1457 1.388 . S
C1458 C1459 1.390 . S
C1459 C1458 1.390 . S
C1459 C1460 1.394 . S
C1459 C1465 1.465 . S
C1460 C1455 1.399 . S
C1460 C1459 1.394 . S
C1460 C1461 1.516 . S
C1461 C1460 1.516 . S
C1461 C1462 1.502 . S
C1461 C1463 1.561 . S
C1461 C1464 1.526 . S
C1462 H1446 0.959 . S
C1462 H1447 0.959 . S
C1462 H1448 0.961 . S
C1462 C1461 1.502 . S
C1463 H1449 0.960 . S
C1463 H1450 0.961 . S
C1463 H1451 0.959 . S
C1463 C1461 1.561 . S
C1464 C1461 1.526 . S
C1464 C1465 1.396 . S
C1464 C1469 1.390 1_655 S
C1465 C1459 1.465 . S
C1465 C1464 1.396 . S
C1465 C1466 1.399 1_655 S
C1466 H1452 0.929 . S
C1466 C1465 1.399 1_455 S
C1466 C1467 1.385 . S
C1467 H1453 0.931 . S
C1467 C1466 1.385 . S
C1467 C1468 1.389 . S
C1468 C1467 1.389 . S
C1468 C1469 1.387 . S
C1469 H1454 0.930 . S
C1469 C1464 1.390 1_455 S
C1469 C1468 1.387 . S
H1470 C1482 0.930 . S
H1471 C1484 0.930 . S
H1472 C1485 0.930 . S
H1473 C1489 0.959 . S
H1474 C1489 0.992 . S
H1475 C1489 0.961 . S
H1476 C1490 0.960 . S
H1477 C1490 0.961 . S
H1478 C1490 0.959 . S
H1479 C1493 0.929 1_455 S
H1480 C1494 0.931 . S
H1481 C1496 0.930 . S
C1482 H1470 0.930 . S
C1482 C1483 1.399 . S
C1482 C1487 1.399 . S
C1483 C1482 1.399 . S
C1483 C1484 1.376 . S
C1484 H1471 0.930 . S
C1484 C1483 1.376 . S
C1484 C1485 1.388 . S
C1485 H1472 0.930 . S
C1485 C1484 1.388 . S
C1485 C1486 1.390 . S
C1486 C1485 1.390 . S
C1486 C1487 1.394 . S
C1486 C1492 1.465 . S
C1487 C1482 1.399 . S
C1487 C1486 1.394 . S
C1487 C1488 1.516 . S
C1488 C1487 1.516 . S
C1488 C1489 1.502 . S
C1488 C1490 1.561 . S
C1488 C1491 1.526 . S
C1489 H1473 0.959 . S
C1489 H1474 0.992 . S
C1489 H1475 0.961 . S
C1489 C1488 1.502 . S
C1490 H1476 0.960 . S
C1490 H1477 0.961 . S
C1490 H1478 0.959 . S
C1490 C1488 1.561 . S
C1491 C1488 1.526 . S
C1491 C1492 1.396 . S
C1491 C1496 1.390 1_455 S
C1492 C1486 1.465 . S
C1492 C1491 1.396 . S
C1492 C1493 1.399 1_455 S
C1493 H1479 0.929 1_655 S
C1493 C1492 1.399 1_655 S
C1493 C1494 1.385 . S
C1494 H1480 0.931 . S
C1494 C1493 1.385 . S
C1494 C1495 1.389 . S
C1495 C1494 1.389 . S
C1495 C1496 1.387 . S
C1496 H1481 0.930 . S
C1496 C1491 1.390 1_655 S
C1496 C1495 1.387 . S
H1497 C1509 0.930 . S
H1498 C1511 0.930 . S
H1499 C1512 0.930 . S
H1500 C1516 0.959 . S
H1501 C1516 0.959 . S
H1502 C1516 0.961 . S
H1503 C1517 0.960 . S
H1504 C1517 0.961 . S
H1505 C1517 0.959 . S
H1506 C1520 0.929 . S
H1507 C1521 0.931 . S
H1508 C1523 0.930 . S
C1509 H1497 0.930 . S
C1509 C1510 1.399 . S
C1509 C1514 1.399 . S
C1510 C1509 1.399 . S
C1510 C1511 1.376 . S
C1511 H1498 0.930 . S
C1511 C1510 1.376 . S
C1511 C1512 1.388 . S
C1512 H1499 0.930 . S
C1512 C1511 1.388 . S
C1512 C1513 1.390 . S
C1513 C1512 1.390 . S
C1513 C1514 1.394 . S
C1513 C1519 1.465 . S
C1514 C1509 1.399 . S
C1514 C1513 1.394 . S
C1514 C1515 1.516 . S
C1515 C1514 1.516 . S
C1515 C1516 1.502 . S
C1515 C1517 1.561 . S
C1515 C1518 1.526 . S
C1516 H1500 0.959 . S
C1516 H1501 0.959 . S
C1516 H1502 0.961 . S
C1516 C1515 1.502 . S
C1517 H1503 0.960 . S
C1517 H1504 0.961 . S
C1517 H1505 0.959 . S
C1517 C1515 1.561 . S
C1518 C1515 1.526 . S
C1518 C1519 1.396 . S
C1518 C1523 1.390 . S
C1519 C1513 1.465 . S
C1519 C1518 1.396 . S
C1519 C1520 1.399 . S
C1520 H1506 0.929 . S
C1520 C1519 1.399 . S
C1520 C1521 1.385 . S
C1521 H1507 0.931 . S
C1521 C1520 1.385 . S
C1521 C1522 1.389 . S
C1522 C1521 1.389 . S
C1522 C1523 1.387 . S
C1523 H1508 0.930 . S
C1523 C1518 1.390 . S
C1523 C1522 1.387 . S
H1524 C1536 0.930 . S
H1525 C1538 0.930 . S
H1526 C1539 0.930 . S
H1527 C1543 0.959 . S
H1528 C1543 0.959 . S
H1529 C1543 0.961 . S
H1530 C1544 0.960 . S
H1531 C1544 0.961 . S
H1532 C1544 0.959 . S
H1533 C1547 0.929 . S
H1534 C1548 0.931 . S
H1535 C1550 0.930 . S
C1536 H1524 0.930 . S
C1536 C1537 1.399 . S
C1536 C1541 1.399 . S
C1537 C1536 1.399 . S
C1537 C1538 1.376 . S
C1538 H1525 0.930 . S
C1538 C1537 1.376 . S
C1538 C1539 1.388 . S
C1539 H1526 0.930 . S
C1539 C1538 1.388 . S
C1539 C1540 1.390 . S
C1540 C1539 1.390 . S
C1540 C1541 1.394 . S
C1540 C1546 1.465 . S
C1541 C1536 1.399 . S
C1541 C1540 1.394 . S
C1541 C1542 1.516 . S
C1542 C1541 1.516 . S
C1542 C1543 1.502 . S
C1542 C1544 1.561 . S
C1542 C1545 1.526 . S
C1543 H1527 0.959 . S
C1543 H1528 0.959 . S
C1543 H1529 0.961 . S
C1543 C1542 1.502 . S
C1544 H1530 0.960 . S
C1544 H1531 0.961 . S
C1544 H1532 0.959 . S
C1544 C1542 1.561 . S
C1545 C1542 1.526 . S
C1545 C1546 1.396 . S
C1545 C1550 1.390 . S
C1546 C1540 1.465 . S
C1546 C1545 1.396 . S
C1546 C1547 1.399 . S
C1547 H1533 0.929 . S
C1547 C1546 1.399 . S
C1547 C1548 1.385 . S
C1548 H1534 0.931 . S
C1548 C1547 1.385 . S
C1548 C1549 1.389 . S
C1549 C1548 1.389 . S
C1549 C1550 1.387 . S
C1550 H1535 0.930 . S
C1550 C1545 1.390 . S
C1550 C1549 1.387 . S
H1551 C1563 0.930 . S
H1552 C1565 0.930 . S
H1553 C1566 0.930 . S
H1554 C1570 0.959 . S
H1555 C1570 0.959 . S
H1556 C1570 0.961 . S
H1557 C1571 0.960 . S
H1558 C1571 0.961 . S
H1559 C1571 0.959 . S
H1560 C1574 0.929 . S
H1561 C1575 0.931 . S
H1562 C1577 0.930 . S
C1563 H1551 0.930 . S
C1563 C1564 1.399 . S
C1563 C1568 1.399 . S
C1564 C1563 1.399 . S
C1564 C1565 1.376 . S
C1565 H1552 0.930 . S
C1565 C1564 1.376 . S
C1565 C1566 1.388 . S
C1566 H1553 0.930 . S
C1566 C1565 1.388 . S
C1566 C1567 1.390 . S
C1567 C1566 1.390 . S
C1567 C1568 1.394 . S
C1567 C1573 1.465 . S
C1568 C1563 1.399 . S
C1568 C1567 1.394 . S
C1568 C1569 1.516 . S
C1569 C1568 1.516 . S
C1569 C1570 1.502 . S
C1569 C1571 1.561 . S
C1569 C1572 1.526 . S
C1570 H1554 0.959 . S
C1570 H1555 0.959 . S
C1570 H1556 0.961 . S
C1570 C1569 1.502 . S
C1571 H1557 0.960 . S
C1571 H1558 0.961 . S
C1571 H1559 0.959 . S
C1571 C1569 1.561 . S
C1572 C1569 1.526 . S
C1572 C1573 1.396 . S
C1572 C1577 1.390 1_565 S
C1573 C1567 1.465 . S
C1573 C1572 1.396 . S
C1573 C1574 1.399 1_565 S
C1574 H1560 0.929 . S
C1574 C1573 1.399 1_545 S
C1574 C1575 1.385 . S
C1575 H1561 0.931 . S
C1575 C1574 1.385 . S
C1575 C1576 1.389 . S
C1576 C1575 1.389 . S
C1576 C1577 1.387 . S
C1577 H1562 0.930 . S
C1577 C1572 1.390 1_545 S
C1577 C1576 1.387 . S
H1578 C1590 0.930 . S
H1579 C1592 0.930 . S
H1580 C1593 0.930 . S
H1581 C1597 0.959 . S
H1582 C1597 0.959 . S
H1583 C1597 0.961 1_565 S
H1584 C1598 0.960 1_565 S
H1585 C1598 0.961 . S
H1586 C1598 0.959 . S
H1587 C1601 0.929 . S
H1588 C1602 0.931 . S
H1589 C1604 0.930 . S
C1590 H1578 0.930 . S
C1590 C1591 1.399 . S
C1590 C1595 1.388 1_565 S
C1591 C1590 1.399 . S
C1591 C1592 1.376 . S
C1592 H1579 0.930 . S
C1592 C1591 1.376 . S
C1592 C1593 1.388 1_565 S
C1593 H1580 0.930 . S
C1593 C1592 1.388 1_545 S
C1593 C1594 1.390 . S
C1594 C1593 1.390 . S
C1594 C1595 1.400 . S
C1594 C1600 1.465 . S
C1595 C1590 1.388 1_545 S
C1595 C1594 1.400 . S
C1595 C1596 1.523 . S
C1596 C1595 1.523 . S
C1596 C1597 1.502 . S
C1596 C1598 1.561 . S
C1596 C1599 1.526 . S
C1597 H1581 0.959 . S
C1597 H1582 0.959 . S
C1597 H1583 0.961 1_545 S
C1597 C1596 1.502 . S
C1598 H1584 0.960 1_545 S
C1598 H1585 0.961 . S
C1598 H1586 0.959 . S
C1598 C1596 1.561 . S
C1599 C1596 1.526 . S
C1599 C1600 1.396 . S
C1599 C1604 1.390 . S
C1600 C1594 1.465 . S
C1600 C1599 1.396 . S
C1600 C1601 1.399 . S
C1601 H1587 0.929 . S
C1601 C1600 1.399 . S
C1601 C1602 1.385 . S
C1602 H1588 0.931 . S
C1602 C1601 1.385 . S
C1602 C1603 1.389 . S
C1603 C1602 1.389 . S
C1603 C1604 1.387 . S
C1604 H1589 0.930 . S
C1604 C1599 1.390 . S
C1604 C1603 1.387 . S
H1605 C1617 0.930 . S
H1606 C1619 0.930 . S
H1607 C1620 0.930 . S
H1608 C1624 0.959 . S
H1609 C1624 0.959 . S
H1610 C1624 0.961 . S
H1611 C1625 0.960 . S
H1612 C1625 0.961 . S
H1613 C1625 0.959 . S
H1614 C1628 0.929 . S
H1615 C1629 0.931 . S
H1616 C1631 0.930 . S
C1617 H1605 0.930 . S
C1617 C1618 1.399 . S
C1617 C1622 1.399 . S
C1618 C1617 1.399 . S
C1618 C1619 1.376 . S
C1619 H1606 0.930 . S
C1619 C1618 1.376 . S
C1619 C1620 1.388 . S
C1620 H1607 0.930 . S
C1620 C1619 1.388 . S
C1620 C1621 1.390 . S
C1621 C1620 1.390 . S
C1621 C1622 1.394 . S
C1621 C1627 1.465 . S
C1622 C1617 1.399 . S
C1622 C1621 1.394 . S
C1622 C1623 1.516 . S
C1623 C1622 1.516 . S
C1623 C1624 1.502 . S
C1623 C1625 1.561 . S
C1623 C1626 1.526 . S
C1624 H1608 0.959 . S
C1624 H1609 0.959 . S
C1624 H1610 0.961 . S
C1624 C1623 1.502 . S
C1625 H1611 0.960 . S
C1625 H1612 0.961 . S
C1625 H1613 0.959 . S
C1625 C1623 1.561 . S
C1626 C1623 1.526 . S
C1626 C1627 1.396 . S
C1626 C1631 1.390 . S
C1627 C1621 1.465 . S
C1627 C1626 1.396 . S
C1627 C1628 1.399 . S
C1628 H1614 0.929 . S
C1628 C1627 1.399 . S
C1628 C1629 1.385 . S
C1629 H1615 0.931 . S
C1629 C1628 1.385 . S
C1629 C1630 1.389 . S
C1630 C1629 1.389 . S
C1630 C1631 1.387 . S
C1631 H1616 0.930 . S
C1631 C1626 1.390 . S
C1631 C1630 1.387 . S
C349 C121 0.994 . S
C361 C3 1.048 . S
C376 C17 1.036 . S
C388 C163 1.000 . S
C403 C31 1.072 . S
C415 C135 0.999 . S
C430 C45 1.096 . S
C442 C149 1.078 . S
C457 C59 1.037 . S
C469 C9 0.966 . S
C484 C23 0.969 . S
C496 C73 1.012 . S
C511 C87 1.038 . S
C523 C37 1.074 . S
C538 C51 0.974 . S
C550 C101 1.007 . S
C565 C65 1.064 . S
C577 C115 1.021 . S
C592 C93 1.087 . S
C604 C129 1.087 . S
C619 C143 1.052 . S
C631 C107 1.095 . S
C646 C79 0.990 . S
C658 C157 1.063 . S
C673 C283 1.051 . S
C685 C171 1.013 . S
C700 C185 1.085 . S
C712 C325 1.071 . S
C727 C199 1.002 . S
C739 C297 1.038 . S
C754 C311 1.072 . S
C766 C213 1.085 . S
C781 C233 1.067 . S
C793 C177 1.042 . S
C808 C191 1.042 . S
C820 C247 0.983 . S
C835 C205 0.958 . S
C847 C261 0.959 . S
C862 C275 1.020 . S
C874 C219 1.063 . S
C889 C289 0.957 . S
C901 C227 0.992 . S
C916 C255 1.012 . S
C928 C303 1.034 . S
C943 C269 1.006 . S
C955 C317 1.024 . S
C970 C331 1.057 . S
C982 C241 1.067 . S
C997 C315 1.378 . S
C1009 C7 1.377 . S
C1024 C301 1.376 . S
C1036 C21 1.351 . S
C1051 C329 1.373 . S
C1063 C35 1.347 . S
C1078 C49 1.382 . S
C1090 C287 1.373 . S
C1105 C63 1.379 . S
C1117 C190 1.388 . S
C1132 C176 1.386 . S
C1144 C77 1.355 . S
C1159 C218 1.361 . S
C1171 C91 1.351 . S
C1186 C204 1.386 . S
C1198 C105 1.354 . S
C1213 C119 1.360 . S
C1225 C259 1.382 . S
C1240 C231 1.334 . S
C1252 C133 1.343 . S
C1267 C245 1.334 . S
C1279 C147 1.343 . S
C1294 C273 1.379 . S
C1306 C161 1.401 . S
C1321 C148 1.433 . S
C1333 C175 1.421 . S
C1348 C134 1.432 . S
C1360 C189 1.423 . S
C1375 C203 1.388 . S
C1387 C162 1.441 . S
C1402 C120 1.433 . S
C1414 C217 1.421 . S
C1429 C232 1.442 . S
C1441 C22 1.425 . S
C1456 C246 1.447 . S
C1468 C8 1.422 . S
C1483 C260 1.432 . S
C1495 C50 1.452 . S
C1510 C274 1.426 . S
C1522 C36 1.446 . S
C1537 C288 1.405 . S
C1549 C92 1.403 . S
C1564 C302 1.411 . S
C1576 C64 1.421 . S
C1591 C78 1.421 . S
C1603 C316 1.402 . S
C1618 C330 1.417 . S
C1630 C106 1.415 . S
