# Generated by pormake.
# Topology uoz, (4)-cn, num edge types: 1
# Building blocks:
#     Node 0, Type 0, BuildingBlock: GALJAG_clean_sbu_0, # of connection points: 4
#     Node 1, Type 0, BuildingBlock: GALJAG_clean_sbu_0, # of connection points: 4
#     Node 2, Type 0, BuildingBlock: GALJAG_clean_sbu_0, # of connection points: 4
#     Node 3, Type 0, BuildingBlock: GALJAG_clean_sbu_0, # of connection points: 4
#     Node 4, Type 0, BuildingBlock: GALJAG_clean_sbu_0, # of connection points: 4
#     Node 5, Type 0, BuildingBlock: GALJAG_clean_sbu_0, # of connection points: 4
#     Node 6, Type 0, BuildingBlock: GALJAG_clean_sbu_0, # of connection points: 4
#     Node 7, Type 0, BuildingBlock: GALJAG_clean_sbu_0, # of connection points: 4
#     Node 8, Type 0, BuildingBlock: GALJAG_clean_sbu_0, # of connection points: 4
#     Node 9, Type 0, BuildingBlock: GALJAG_clean_sbu_0, # of connection points: 4
#     Node 10, Type 0, BuildingBlock: GALJAG_clean_sbu_0, # of connection points: 4
#     Node 11, Type 0, BuildingBlock: GALJAG_clean_sbu_0, # of connection points: 4
#     Node 12, Type 0, BuildingBlock: GALJAG_clean_sbu_0, # of connection points: 4
#     Node 13, Type 0, BuildingBlock: GALJAG_clean_sbu_0, # of connection points: 4
#     Node 14, Type 0, BuildingBlock: GALJAG_clean_sbu_0, # of connection points: 4
#     Node 15, Type 0, BuildingBlock: GALJAG_clean_sbu_0, # of connection points: 4
#     Edge 16, Type (0, 0), BuildingBlock: OJICUG_clean_linker_0, # of connection points: 2
#     Edge 17, Type (0, 0), BuildingBlock: OJICUG_clean_linker_0, # of connection points: 2
#     Edge 18, Type (0, 0), BuildingBlock: OJICUG_clean_linker_0, # of connection points: 2
#     Edge 19, Type (0, 0), BuildingBlock: OJICUG_clean_linker_0, # of connection points: 2
#     Edge 20, Type (0, 0), BuildingBlock: OJICUG_clean_linker_0, # of connection points: 2
#     Edge 21, Type (0, 0), BuildingBlock: OJICUG_clean_linker_0, # of connection points: 2
#     Edge 22, Type (0, 0), BuildingBlock: OJICUG_clean_linker_0, # of connection points: 2
#     Edge 23, Type (0, 0), BuildingBlock: OJICUG_clean_linker_0, # of connection points: 2
#     Edge 24, Type (0, 0), BuildingBlock: OJICUG_clean_linker_0, # of connection points: 2
#     Edge 25, Type (0, 0), BuildingBlock: OJICUG_clean_linker_0, # of connection points: 2
#     Edge 26, Type (0, 0), BuildingBlock: OJICUG_clean_linker_0, # of connection points: 2
#     Edge 27, Type (0, 0), BuildingBlock: OJICUG_clean_linker_0, # of connection points: 2
#     Edge 28, Type (0, 0), BuildingBlock: OJICUG_clean_linker_0, # of connection points: 2
#     Edge 29, Type (0, 0), BuildingBlock: OJICUG_clean_linker_0, # of connection points: 2
#     Edge 30, Type (0, 0), BuildingBlock: OJICUG_clean_linker_0, # of connection points: 2
#     Edge 31, Type (0, 0), BuildingBlock: OJICUG_clean_linker_0, # of connection points: 2
#     Edge 32, Type (0, 0), BuildingBlock: OJICUG_clean_linker_0, # of connection points: 2
#     Edge 33, Type (0, 0), BuildingBlock: OJICUG_clean_linker_0, # of connection points: 2
#     Edge 34, Type (0, 0), BuildingBlock: OJICUG_clean_linker_0, # of connection points: 2
#     Edge 35, Type (0, 0), BuildingBlock: OJICUG_clean_linker_0, # of connection points: 2
#     Edge 36, Type (0, 0), BuildingBlock: OJICUG_clean_linker_0, # of connection points: 2
#     Edge 37, Type (0, 0), BuildingBlock: OJICUG_clean_linker_0, # of connection points: 2
#     Edge 38, Type (0, 0), BuildingBlock: OJICUG_clean_linker_0, # of connection points: 2
#     Edge 39, Type (0, 0), BuildingBlock: OJICUG_clean_linker_0, # of connection points: 2
#     Edge 40, Type (0, 0), BuildingBlock: OJICUG_clean_linker_0, # of connection points: 2
#     Edge 41, Type (0, 0), BuildingBlock: OJICUG_clean_linker_0, # of connection points: 2
#     Edge 42, Type (0, 0), BuildingBlock: OJICUG_clean_linker_0, # of connection points: 2
#     Edge 43, Type (0, 0), BuildingBlock: OJICUG_clean_linker_0, # of connection points: 2
#     Edge 44, Type (0, 0), BuildingBlock: OJICUG_clean_linker_0, # of connection points: 2
#     Edge 45, Type (0, 0), BuildingBlock: OJICUG_clean_linker_0, # of connection points: 2
#     Edge 46, Type (0, 0), BuildingBlock: OJICUG_clean_linker_0, # of connection points: 2
#     Edge 47, Type (0, 0), BuildingBlock: OJICUG_clean_linker_0, # of connection points: 2
# Relax obj value: 0.135
# Max RMSD: 0.159
# Mean RMSD: 0.159
data_MOF--net-uoz--node1-GALJAG_clean_sbu_0--edge1-OJICUG_clean_linker_0
_symmetry_space_group_name_H-M    P1
_symmetry_Int_Tables_number       1
_symmetry_cell_setting            triclinic
loop_
_symmetry_equiv_pos_as_xyz
'x, y, z'
_cell_length_a     46.94566
_cell_length_b     46.946791
_cell_length_c     14.004908
_cell_angle_alpha  89.96502
_cell_angle_beta   89.951541
_cell_angle_gamma 89.984062
loop_
_atom_site_label
_atom_site_type_symbol
_atom_site_fract_x
_atom_site_fract_y
_atom_site_fract_z
_atom_type_partial_charge
In0 In -0.00127 0.5882 0.28082 0.0
O1 O 0.97576 0.55523 0.1951 0.0
O2 O 0.02134 0.5552 0.1937 0.0
C3 C 0.95619 0.62375 0.23111 0.0
C4 C 0.99829 0.55208 0.43299 0.0
C5 C 0.04174 0.62328 0.2322 0.0
O6 O 0.9672 0.60585 0.17541 0.0
O7 O 0.96592 0.62333 0.31567 0.0
O8 O 0.03143 0.62338 0.31607 0.0
O9 O 0.03115 0.60501 0.17701 0.0
C10 C -0.00152 0.54372 0.16632 0.0
O11 O 0.02095 0.56282 0.40017 0.0
O12 O 0.97587 0.56277 0.39843 0.0
In13 In 0.65608 0.74756 0.54035 0.0
O14 O 0.68843 0.72471 0.45113 0.0
O15 O 0.68835 0.7703 0.45072 0.0
C16 C 0.62055 0.70514 0.48884 0.0
C17 C 0.69252 0.74741 0.69191 0.0
C18 C 0.62083 0.79057 0.49252 0.0
O19 O 0.63924 0.71564 0.43493 0.0
O20 O 0.62024 0.71518 0.573 0.0
O21 O 0.61982 0.7793 0.57489 0.0
O22 O 0.6401 0.78099 0.43898 0.0
C23 C 0.6995 0.7475 0.42104 0.0
O24 O 0.68165 0.76994 0.65879 0.0
O25 O 0.68191 0.7249 0.6578 0.0
In26 In 0.49956 0.40811 0.77846 0.0
O27 O 0.52178 0.44063 0.68822 0.0
O28 O 0.47621 0.43974 0.68805 0.0
C29 C 0.54292 0.37294 0.73371 0.0
C30 C 0.49881 0.44503 0.92866 0.0
C31 C 0.4574 0.3721 0.7286 0.0
O32 O 0.53313 0.39162 0.67835 0.0
O33 O 0.53168 0.37252 0.81621 0.0
O34 O 0.46669 0.37297 0.81368 0.0
O35 O 0.46865 0.38975 0.67254 0.0
C36 C 0.49879 0.45123 0.65798 0.0
O37 O 0.47649 0.43396 0.89485 0.0
O38 O 0.52154 0.43449 0.89581 0.0
In39 In 0.84058 0.2494 0.03915 0.0
O40 O 0.81212 0.2709 0.93276 0.0
O41 O 0.80916 0.22576 0.94787 0.0
C42 C 0.87585 0.29359 0.0075 0.0
C43 C 0.80423 0.24753 0.1916 0.0
C44 C 0.87642 0.20838 0.97904 0.0
O45 O 0.84997 0.29371 0.98396 0.0
O46 O 0.88356 0.27222 0.05626 0.0
O47 O 0.87414 0.21465 0.06696 0.0
O48 O 0.86047 0.22239 0.92398 0.0
C49 C 0.80023 0.24805 0.90768 0.0
O50 O 0.81344 0.22553 0.15044 0.0
O51 O 0.81647 0.27012 0.16525 0.0
In52 In 0.99597 0.40718 0.78818 0.0
O53 O 0.01973 0.43417 0.67618 0.0
O54 O 0.97502 0.43189 0.66388 0.0
C55 C 0.0373 0.37172 0.84822 0.0
C56 C 0.99734 0.44735 0.92038 0.0
C57 C 0.95214 0.37127 0.81731 0.0
O58 O 0.03158 0.37461 0.76008 0.0
O59 O 0.02249 0.38679 0.90375 0.0
O60 O 0.95168 0.39705 0.84199 0.0
O61 O 0.97368 0.36401 0.76856 0.0
C62 C 0.99768 0.4438 0.63644 0.0
O63 O 0.97449 0.43542 0.89553 0.0
O64 O 0.01958 0.43855 0.87959 0.0
In65 In 0.83752 0.74776 0.04712 0.0
O66 O 0.80555 0.72489 0.13776 0.0
O67 O 0.80543 0.77047 0.13766 0.0
C68 C 0.87335 0.70509 0.09351 0.0
C69 C 0.80046 0.74765 0.89727 0.0
C70 C 0.87294 0.79065 0.09458 0.0
O71 O 0.85503 0.71532 0.14937 0.0
O72 O 0.87314 0.71558 0.00991 0.0
O73 O 0.87241 0.78073 0.01027 0.0
O74 O 0.85517 0.7797 0.15092 0.0
C75 C 0.79447 0.74766 0.16797 0.0
O76 O 0.81119 0.77021 0.93058 0.0
O77 O 0.8114 0.72515 0.93045 0.0
In78 In 0.49611 0.58952 0.2853 0.0
O79 O 0.51954 0.55774 0.37507 0.0
O80 O 0.47397 0.55691 0.37542 0.0
C81 C 0.53805 0.62509 0.34079 0.0
C82 C 0.49702 0.55297 0.13406 0.0
C83 C 0.45265 0.6248 0.3277 0.0
O84 O 0.52567 0.60785 0.39564 0.0
O85 O 0.52993 0.6241 0.25438 0.0
O86 O 0.46558 0.62658 0.24826 0.0
O87 O 0.46069 0.60463 0.38032 0.0
C88 C 0.49697 0.54626 0.40528 0.0
O89 O 0.47427 0.56354 0.16662 0.0
O90 O 0.5193 0.56389 0.1686 0.0
In91 In 0.65955 0.24727 0.54651 0.0
O92 O 0.68489 0.22503 0.42706 0.0
O93 O 0.68542 0.27009 0.42993 0.0
C94 C 0.62419 0.20434 0.59335 0.0
C95 C 0.70386 0.24726 0.66176 0.0
C96 C 0.62414 0.28991 0.59651 0.0
O97 O 0.62425 0.21485 0.50978 0.0
O98 O 0.64244 0.21469 0.64911 0.0
O99 O 0.64162 0.27843 0.65263 0.0
O100 O 0.62489 0.28057 0.51147 0.0
C101 C 0.69591 0.24763 0.39496 0.0
O102 O 0.69247 0.27003 0.63299 0.0
O103 O 0.69234 0.22445 0.63398 0.0
In104 In 0.33906 0.24818 0.5417 0.0
O105 O 0.31325 0.27099 0.42461 0.0
O106 O 0.31286 0.22594 0.42446 0.0
C107 C 0.37497 0.2906 0.58964 0.0
C108 C 0.29576 0.24859 0.66154 0.0
C109 C 0.3742 0.20506 0.5894 0.0
O110 O 0.37479 0.28033 0.50577 0.0
O111 O 0.35661 0.28025 0.64511 0.0
O112 O 0.35603 0.2157 0.64496 0.0
O113 O 0.37418 0.21538 0.50557 0.0
C114 C 0.30227 0.24858 0.39112 0.0
O115 O 0.30662 0.22569 0.6316 0.0
O116 O 0.30708 0.27127 0.63153 0.0
In117 In 0.15814 0.74859 0.04171 0.0
O118 O 0.18352 0.72626 0.92261 0.0
O119 O 0.18353 0.77134 0.92374 0.0
C120 C 0.12317 0.70563 0.0917 0.0
C121 C 0.20264 0.7487 0.1561 0.0
C122 C 0.12247 0.79117 0.09019 0.0
O123 O 0.1234 0.71537 0.00708 0.0
O124 O 0.141 0.71681 0.14717 0.0
O125 O 0.14082 0.78076 0.14554 0.0
O126 O 0.12255 0.78087 0.00638 0.0
C127 C 0.19423 0.74888 0.88947 0.0
O128 O 0.19129 0.77146 0.12697 0.0
O129 O 0.19098 0.72588 0.12913 0.0
In130 In 0.15761 0.25023 0.03496 0.0
O131 O 0.1836 0.27229 0.15317 0.0
O132 O 0.1835 0.22725 0.15149 0.0
C133 C 0.12207 0.29349 0.99272 0.0
C134 C 0.20074 0.24966 0.91437 0.0
C135 C 0.12219 0.20808 0.98024 0.0
O136 O 0.1205 0.28067 0.0724 0.0
O137 O 0.14215 0.28543 0.93972 0.0
O138 O 0.13939 0.22043 0.92515 0.0
O139 O 0.12317 0.21632 0.06652 0.0
C140 C 0.19433 0.24963 0.18577 0.0
O141 O 0.18949 0.22701 0.94489 0.0
O142 O 0.18992 0.27259 0.94427 0.0
In143 In 0.33916 0.7508 0.53426 0.0
O144 O 0.31225 0.72718 0.64688 0.0
O145 O 0.31436 0.77192 0.65802 0.0
C146 C 0.37447 0.70943 0.47355 0.0
C147 C 0.29899 0.74949 0.40206 0.0
C148 C 0.37518 0.79457 0.50593 0.0
O149 O 0.37158 0.71503 0.56178 0.0
O150 O 0.35947 0.72438 0.41827 0.0
O151 O 0.34939 0.79517 0.48142 0.0
O152 O 0.3824 0.77291 0.55413 0.0
C153 C 0.30254 0.74929 0.68605 0.0
O154 O 0.31121 0.77226 0.42603 0.0
O155 O 0.30749 0.72728 0.44374 0.0
In156 In 0.49865 0.08739 0.77796 0.0
O157 O 0.52092 0.06216 0.89752 0.0
O158 O 0.47585 0.06152 0.89467 0.0
C159 C 0.54162 0.12259 0.73005 0.0
C160 C 0.49879 0.04305 0.66288 0.0
C161 C 0.45606 0.12293 0.72846 0.0
O162 O 0.53145 0.12238 0.81412 0.0
O163 O 0.53086 0.10461 0.67415 0.0
O164 O 0.467 0.10496 0.67287 0.0
O165 O 0.46584 0.12256 0.81295 0.0
C166 C 0.49834 0.05109 0.92965 0.0
O167 O 0.47598 0.05435 0.69177 0.0
O168 O 0.52156 0.05468 0.69046 0.0
In169 In 0.99764 0.90884 0.27603 0.0
O170 O 0.97535 0.9353 0.39266 0.0
O171 O 0.02041 0.93482 0.39264 0.0
C172 C 0.95463 0.87338 0.23022 0.0
C173 C 0.99806 0.95188 0.15518 0.0
C174 C 0.04018 0.87305 0.22799 0.0
O175 O 0.96523 0.87348 0.31361 0.0
O176 O 0.9649 0.89164 0.17425 0.0
O177 O 0.02929 0.89089 0.1718 0.0
O178 O 0.03036 0.87367 0.31246 0.0
C179 C 0.99799 0.94589 0.4259 0.0
O180 O 0.02074 0.94061 0.1853 0.0
O181 O 0.97516 0.94111 0.18559 0.0
In182 In 0.49705 0.90637 0.28523 0.0
O183 O 0.52083 0.93364 0.17407 0.0
O184 O 0.47625 0.93043 0.1592 0.0
C185 C 0.53814 0.8706 0.34525 0.0
C186 C 0.4983 0.94669 0.41683 0.0
C187 C 0.45291 0.87102 0.31675 0.0
O188 O 0.53192 0.87294 0.25731 0.0
O189 O 0.52405 0.88645 0.40038 0.0
O190 O 0.45278 0.89688 0.34049 0.0
O191 O 0.47429 0.86336 0.26786 0.0
C192 C 0.4988 0.94277 0.13291 0.0
O193 O 0.47549 0.93475 0.39173 0.0
O194 O 0.52061 0.93783 0.37659 0.0
In195 In -0.00077 0.09027 0.7829 0.0
O196 O 0.02184 0.05775 0.87209 0.0
O197 O 0.97625 0.05817 0.87253 0.0
C198 C 0.04193 0.12557 0.83351 0.0
C199 C -0.00095 0.05382 0.63136 0.0
C200 C 0.95647 0.12574 0.83145 0.0
O201 O 0.03149 0.10688 0.88753 0.0
O202 O 0.03168 0.12599 0.74965 0.0
O203 O 0.9675 0.12657 0.74869 0.0
O204 O 0.96617 0.10658 0.88511 0.0
C205 C -0.00104 0.04685 0.90218 0.0
O206 O 0.97661 0.06486 0.66456 0.0
O207 O 0.02165 0.06425 0.6654 0.0
C208 C 0.08696 0.66728 0.06336 0.0
C209 C 0.10283 0.68397 0.12681 0.0
H210 H 0.05553 0.63466 0.04744 0.0
C211 C 0.09882 0.68029 0.22582 0.0
H212 H 0.0896 0.66965 0.98692 0.0
C213 C 0.07902 0.6606 0.26071 0.0
C214 C 0.06323 0.64383 0.19726 0.0
H215 H 0.11068 0.69301 0.27661 0.0
H216 H 0.07613 0.65847 0.33712 0.0
C217 C 0.06754 0.64721 0.09827 0.0
C218 C 0.57886 0.83685 0.32157 0.0
C219 C 0.55965 0.85051 0.3829 0.0
H220 H 0.6135 0.80757 0.30872 0.0
C221 C 0.56098 0.84476 0.4816 0.0
H222 H 0.57838 0.84089 0.24542 0.0
C223 C 0.5809 0.82541 0.51806 0.0
C224 C 0.60015 0.81181 0.45665 0.0
H225 H 0.54634 0.85495 0.53071 0.0
H226 H 0.58122 0.82111 0.59405 0.0
C227 C 0.59903 0.81787 0.35814 0.0
C228 C 0.41908 0.33588 0.75761 0.0
C229 C 0.43598 0.35149 0.69389 0.0
H230 H 0.38624 0.3047 0.7741 0.0
C231 C 0.43255 0.34713 0.59496 0.0
H232 H 0.42125 0.33879 0.83399 0.0
C233 C 0.41281 0.32734 0.56045 0.0
C234 C 0.39577 0.31188 0.62416 0.0
H235 H 0.44542 0.35879 0.54397 0.0
H236 H 0.41082 0.32424 0.4841 0.0
C237 C 0.399 0.31645 0.72305 0.0
C238 C 0.91043 0.16789 0.00272 0.0
C239 C 0.89654 0.18691 0.94133 0.0
H240 H 0.9399 0.13341 0.01556 0.0
C241 C 0.9021 0.18543 0.84253 0.0
H242 H 0.90656 0.1685 0.07896 0.0
C243 C 0.92146 0.16553 0.806 0.0
C244 C 0.93528 0.14645 0.86747 0.0
H245 H 0.89173 0.19992 0.79336 0.0
H246 H 0.92559 0.16507 0.72991 0.0
C247 C 0.92944 0.14774 0.9661 0.0
C248 C 0.05979 0.34492 0.98316 0.0
C249 C 0.05927 0.35208 0.88543 0.0
H250 H 0.07994 0.32058 0.09416 0.0
C251 C 0.07987 0.34042 0.82458 0.0
H252 H 0.04407 0.35358 0.03183 0.0
C253 C 0.10062 0.32199 0.86065 0.0
C254 C 0.10093 0.31445 0.95808 0.0
H255 H 0.08006 0.34562 0.74921 0.0
H256 H 0.11615 0.31323 0.81154 0.0
C257 C 0.08029 0.32608 0.01904 0.0
C258 C 0.92859 0.84907 0.0978 0.0
C259 C 0.93316 0.85264 0.19656 0.0
H260 H 0.90625 0.82643 0.98775 0.0
C261 C 0.91761 0.83591 0.26095 0.0
H262 H 0.94042 0.86159 0.04626 0.0
C263 C 0.89775 0.81612 0.22721 0.0
C264 C 0.89345 0.8123 0.12842 0.0
H265 H 0.92071 0.83817 0.3372 0.0
H266 H 0.88605 0.80347 0.27871 0.0
C267 C 0.90911 0.82892 0.06403 0.0
C268 C 0.4013 0.68713 0.33829 0.0
C269 C 0.39405 0.68746 0.43597 0.0
H270 H 0.42571 0.66718 0.22704 0.0
C271 C 0.40558 0.66667 0.49638 0.0
H272 H 0.39274 0.70299 0.28995 0.0
C273 C 0.42398 0.64595 0.45996 0.0
C274 C 0.43163 0.64585 0.36261 0.0
H275 H 0.4003 0.66634 0.57169 0.0
H276 H 0.43265 0.63029 0.50875 0.0
C277 C 0.42012 0.66666 0.30207 0.0
C278 C 0.59977 0.17849 0.72615 0.0
C279 C 0.60352 0.18284 0.62733 0.0
H280 H 0.57701 0.1563 0.83647 0.0
C281 C 0.58703 0.16703 0.56311 0.0
H282 H 0.61211 0.19052 0.77754 0.0
C283 C 0.56729 0.14714 0.59709 0.0
C284 C 0.56327 0.14307 0.69593 0.0
H285 H 0.58943 0.16996 0.4868 0.0
H286 H 0.55481 0.13525 0.54573 0.0
C287 C 0.57966 0.15898 0.76014 0.0
C288 C 0.90461 0.35958 0.88672 0.0
C289 C 0.93198 0.35066 0.85934 0.0
H290 H 0.86534 0.3484 0.95554 0.0
C291 C 0.94126 0.32327 0.88525 0.0
H292 H 0.89712 0.38076 0.86893 0.0
C293 C 0.92355 0.30524 0.93848 0.0
C294 C 0.89603 0.31406 0.96473 0.0
H295 H 0.96251 0.31612 0.8669 0.0
H296 H 0.93107 0.28411 0.95673 0.0
C297 C 0.88663 0.34127 0.93748 0.0
C298 C 0.41813 0.15957 0.75741 0.0
C299 C 0.43459 0.14352 0.69367 0.0
H300 H 0.38581 0.1913 0.7739 0.0
C301 C 0.43083 0.14755 0.59472 0.0
H302 H 0.42058 0.15693 0.8338 0.0
C303 C 0.41126 0.16753 0.56017 0.0
C304 C 0.3947 0.18348 0.62391 0.0
H305 H 0.44337 0.13555 0.54371 0.0
H306 H 0.40905 0.17042 0.48379 0.0
C307 C 0.3982 0.17917 0.72285 0.0
C308 C 0.57752 0.66036 0.3162 0.0
C309 C 0.55952 0.64528 0.37795 0.0
H310 H 0.61123 0.69075 0.30335 0.0
C311 C 0.56195 0.64971 0.47718 0.0
H312 H 0.57616 0.65736 0.23965 0.0
C313 C 0.58176 0.66909 0.51387 0.0
C314 C 0.59985 0.68406 0.45212 0.0
H315 H 0.54824 0.63845 0.52668 0.0
H316 H 0.58292 0.67229 0.59035 0.0
C317 C 0.59764 0.67938 0.35296 0.0
C318 C 0.08505 0.82825 0.06066 0.0
C319 C 0.10179 0.81259 0.12462 0.0
H320 H 0.05272 0.85995 0.04367 0.0
C321 C 0.09832 0.81707 0.22348 0.0
H322 H 0.08723 0.82523 0.98433 0.0
C323 C 0.07826 0.8366 0.25776 0.0
C324 C 0.06166 0.8524 0.19375 0.0
H325 H 0.11085 0.80515 0.27467 0.0
H326 H 0.07587 0.83943 0.3341 0.0
C327 C 0.06536 0.84815 0.09488 0.0
C328 C 0.9308 0.64837 0.09769 0.0
C329 C 0.9346 0.64423 0.19658 0.0
H330 H 0.9087 0.67112 0.98716 0.0
C331 C 0.91796 0.65999 0.26059 0.0
H332 H 0.94347 0.63659 0.0465 0.0
C333 C 0.89778 0.67939 0.22638 0.0
C334 C 0.8942 0.68378 0.12753 0.0
H335 H 0.92043 0.65725 0.33694 0.0
H336 H 0.88524 0.69128 0.27767 0.0
C337 C 0.91097 0.66815 0.06349 0.0
C338 C 0.07802 0.1643 0.80788 0.0
C339 C 0.06311 0.14622 0.86987 0.0
H340 H 0.10864 0.19781 0.79456 0.0
C341 C 0.06794 0.14843 0.96895 0.0
H342 H 0.0747 0.16313 0.73145 0.0
C343 C 0.08701 0.16856 0.0054 0.0
C344 C 0.102 0.18655 0.9434 0.0
H345 H 0.05662 0.13486 0.01875 0.0
H346 H 0.0901 0.16994 0.0819 0.0
C347 C 0.09745 0.1841 0.84425 0.0
C348 C 0.59882 0.31469 0.72976 0.0
C349 C 0.60377 0.31161 0.63101 0.0
H350 H 0.57545 0.33626 0.84003 0.0
C351 C 0.58894 0.3291 0.56707 0.0
H352 H 0.60988 0.30135 0.78086 0.0
C353 C 0.56964 0.34937 0.60124 0.0
C354 C 0.56438 0.35219 0.69991 0.0
H355 H 0.59234 0.32722 0.49082 0.0
H356 H 0.55845 0.36255 0.55 0.0
C357 C 0.57911 0.33461 0.76386 0.0
C358 C 0.38696 0.84221 0.43754 0.0
C359 C 0.39582 0.81476 0.46422 0.0
H360 H 0.39818 0.88156 0.36945 0.0
C361 C 0.42317 0.80546 0.43789 0.0
H362 H 0.3658 0.84971 0.45567 0.0
C363 C 0.44122 0.82322 0.3849 0.0
C364 C 0.43245 0.85081 0.35931 0.0
H365 H 0.43028 0.78415 0.4557 0.0
H366 H 0.46231 0.81568 0.36629 0.0
C367 C 0.40527 0.86023 0.387 0.0
C368 C 0.024 0.50731 0.07168 0.0
C369 C 0.99829 0.51852 0.10606 0.0
H370 H 0.04379 0.4755 0.98547 0.0
C371 C 0.97239 0.50544 0.08279 0.0
H372 H 0.04424 0.51704 0.08935 0.0
C373 C 0.97214 0.48166 0.02407 0.0
C374 C 0.99779 0.47085 0.98788 0.0
H375 H 0.95232 0.51367 0.10928 0.0
H376 H 0.95187 0.4721 0.00569 0.0
C377 C 0.02375 0.48358 0.01269 0.0
C378 C 0.75857 0.77346 0.26386 0.0
C379 C 0.77035 0.7476 0.23315 0.0
H380 H 0.72654 0.79362 0.34816 0.0
C381 C 0.75875 0.72171 0.26433 0.0
H382 H 0.76722 0.79368 0.24045 0.0
C383 C 0.73553 0.72167 0.32568 0.0
C384 C 0.72373 0.74752 0.35631 0.0
H385 H 0.76755 0.70151 0.24128 0.0
H386 H 0.72686 0.70144 0.34903 0.0
C387 C 0.73535 0.77341 0.3252 0.0
C388 C 0.4718 0.50978 0.50072 0.0
C389 C 0.49744 0.52206 0.47013 0.0
H390 H 0.4522 0.47736 0.58488 0.0
C391 C 0.52353 0.51092 0.50124 0.0
H392 H 0.45142 0.51808 0.47737 0.0
C393 C 0.52398 0.48768 0.56246 0.0
C394 C 0.49834 0.4754 0.59304 0.0
H395 H 0.54357 0.52011 0.47831 0.0
H396 H 0.54435 0.47939 0.58584 0.0
C397 C 0.47225 0.48654 0.56193 0.0
C398 C 0.76388 0.22174 0.81547 0.0
C399 C 0.77667 0.24765 0.84044 0.0
H400 H 0.73038 0.20137 0.73859 0.0
C401 C 0.76589 0.27335 0.80453 0.0
H402 H 0.77193 0.20167 0.84249 0.0
C403 C 0.74212 0.27319 0.74582 0.0
C404 C 0.729 0.24733 0.72228 0.0
H405 H 0.77548 0.29359 0.82303 0.0
H406 H 0.73394 0.29329 0.71949 0.0
C407 C 0.74014 0.22158 0.75647 0.0
C408 C 0.23629 0.22337 0.8184 0.0
C409 C 0.22487 0.24938 0.84924 0.0
H410 H 0.26805 0.2028 0.73402 0.0
C411 C 0.23685 0.27512 0.81824 0.0
H412 H 0.22733 0.20326 0.84163 0.0
C413 C 0.26009 0.27485 0.757 0.0
C414 C 0.27153 0.24885 0.72626 0.0
H415 H 0.22833 0.29543 0.84136 0.0
H416 H 0.26905 0.29497 0.7338 0.0
C417 C 0.25953 0.22311 0.75713 0.0
C418 C 0.26501 0.77475 0.29736 0.0
C419 C 0.2755 0.74909 0.33454 0.0
H420 H 0.23326 0.79468 0.21137 0.0
C421 C 0.26245 0.72322 0.31069 0.0
H422 H 0.27482 0.79496 0.31498 0.0
C423 C 0.23873 0.72306 0.25167 0.0
C424 C 0.22784 0.74878 0.21633 0.0
H425 H 0.27028 0.70317 0.33868 0.0
H426 H 0.22874 0.70288 0.23477 0.0
C427 C 0.24124 0.7746 0.23863 0.0
C428 C 0.5245 0.98311 0.50911 0.0
C429 C 0.49863 0.97024 0.48414 0.0
H430 H 0.54477 0.01667 0.58601 0.0
C431 C 0.4729 0.98094 0.52011 0.0
H432 H 0.5446 0.97512 0.48204 0.0
C433 C 0.47298 0.0047 0.57886 0.0
C434 C 0.4988 0.0179 0.60238 0.0
H435 H 0.45268 0.97128 0.50161 0.0
H436 H 0.45285 0.01281 0.60521 0.0
C437 C 0.52459 0.00684 0.56814 0.0
C438 C 0.97277 0.01124 -0.00184 0.0
C439 C -0.00125 0.02261 0.96689 0.0
H440 H 0.95224 0.97956 0.08302 0.0
C441 C 0.02451 0.01057 -0.00266 0.0
H442 H 0.95263 0.02024 0.97534 0.0
C443 C 0.02428 0.98735 0.05867 0.0
C444 C 0.9983 0.976 0.09001 0.0
H445 H 0.0448 0.01906 0.97386 0.0
H446 H 0.04441 0.97836 0.08156 0.0
C447 C 0.97254 0.98802 0.05947 0.0
C448 C 0.97223 0.48402 0.55301 0.0
C449 C 0.9979 0.47062 0.5791 0.0
H450 H 0.95216 0.5204 0.48901 0.0
C451 C 0.02365 0.48495 0.56032 0.0
H452 H 0.95198 0.47387 0.56764 0.0
C453 C 0.02374 0.51186 0.51637 0.0
C454 C 0.99808 0.52528 0.49042 0.0
H455 H 0.04381 0.47551 0.58061 0.0
H456 H 0.044 0.52199 0.50168 0.0
C457 C 0.97232 0.51096 0.5093 0.0
C458 C 0.75996 0.72181 0.81691 0.0
C459 C 0.77367 0.74758 0.8398 0.0
H460 H 0.72347 0.70149 0.75458 0.0
C461 C 0.75976 0.77328 0.81717 0.0
H462 H 0.76979 0.7016 0.83445 0.0
C463 C 0.73295 0.77321 0.77269 0.0
C464 C 0.71923 0.74744 0.74975 0.0
H465 H 0.76944 0.79353 0.8349 0.0
H466 H 0.72313 0.79342 0.7551 0.0
C467 C 0.73314 0.72174 0.77239 0.0
C468 C 0.52343 0.51265 0.05461 0.0
C469 C 0.49748 0.52624 0.07628 0.0
H470 H 0.54424 0.47626 0.99331 0.0
C471 C 0.47197 0.51221 0.05239 0.0
H472 H 0.5435 0.52257 0.07318 0.0
C473 C 0.47239 0.48539 0.0079 0.0
C474 C 0.49834 0.4718 0.98622 0.0
H475 H 0.45158 0.52178 0.0692 0.0
H476 H 0.45232 0.47547 0.98937 0.0
C477 C 0.52386 0.48584 0.01009 0.0
C478 C 0.76442 0.27319 0.27654 0.0
C479 C 0.77744 0.24745 0.24913 0.0
H480 H 0.72833 0.29352 0.34147 0.0
C481 C 0.76272 0.22183 0.26663 0.0
H482 H 0.77487 0.29335 0.26292 0.0
C483 C 0.73581 0.22194 0.31057 0.0
C484 C 0.72276 0.24769 0.33775 0.0
H485 H 0.77186 0.20162 0.24531 0.0
H486 H 0.72536 0.20178 0.32421 0.0
C487 C 0.73747 0.27331 0.3202 0.0
C488 C 0.26158 0.22325 0.31008 0.0
C489 C 0.27552 0.24885 0.33344 0.0
H490 H 0.22491 0.20336 0.24742 0.0
C491 C 0.26185 0.27471 0.31124 0.0
H492 H 0.27122 0.20292 0.32727 0.0
C493 C 0.23503 0.27496 0.26677 0.0
C494 C 0.22108 0.24935 0.24341 0.0
H495 H 0.2717 0.29485 0.32937 0.0
H496 H 0.22539 0.29528 0.24956 0.0
C497 C 0.23477 0.22349 0.26557 0.0
C498 C 0.26227 0.77482 0.76895 0.0
C499 C 0.27571 0.74913 0.74337 0.0
H500 H 0.22586 0.79496 0.83254 0.0
C501 C 0.26141 0.72339 0.76263 0.0
H502 H 0.27239 0.79506 0.75393 0.0
C503 C 0.2345 0.72334 0.80656 0.0
C504 C 0.22104 0.74904 0.83202 0.0
H505 H 0.27088 0.70321 0.74274 0.0
H506 H 0.22439 0.7031 0.82164 0.0
C507 C 0.23532 0.77477 0.81265 0.0
C508 C 0.52435 0.98438 0.058 0.0
C509 C 0.49878 0.96957 0.07544 0.0
H510 H 0.54427 0.02181 0.0005 0.0
C511 C 0.473 0.98249 0.04801 0.0
H512 H 0.54459 0.97531 0.07934 0.0
C513 C 0.47279 0.00944 0.00437 0.0
C514 C 0.49836 0.02425 0.98687 0.0
H515 H 0.45287 0.97197 0.06159 0.0
H516 H 0.45255 0.01851 0.98307 0.0
C517 C 0.52414 0.01129 0.01409 0.0
C518 C 0.02439 0.01303 0.55068 0.0
C519 C -0.0012 0.02711 0.5735 0.0
H520 H 0.04426 0.97625 0.48847 0.0
C521 C 0.97293 0.01357 0.55071 0.0
H522 H 0.04472 0.02256 0.56837 0.0
C523 C 0.97266 0.98676 0.5062 0.0
C524 C 0.99825 0.97268 0.4834 0.0
H525 H 0.95279 0.02353 0.56844 0.0
H526 H 0.95233 0.97721 0.48859 0.0
C527 C 0.02413 0.98622 0.50614 0.0
loop_
_geom_bond_atom_site_label_1
_geom_bond_atom_site_label_2
_geom_bond_distance
_geom_bond_site_symmetry_2
_ccdc_geom_bond_type
In0 O1 2.294 1_455 S
In0 O2 2.326 . S
In0 O6 2.266 1_455 S
In0 O7 2.326 1_455 S
In0 O8 2.266 . S
In0 O9 2.326 . S
In0 O11 2.294 . S
In0 O12 2.326 1_455 S
O1 In0 2.294 1_655 S
O1 C10 1.240 1_655 S
O2 In0 2.326 . S
O2 C10 1.252 . S
C3 O6 1.252 . S
C3 O7 1.260 . S
C4 O11 1.240 1_655 S
C4 O12 1.252 . S
C5 O8 1.252 . S
C5 O9 1.260 . S
O6 In0 2.266 1_655 S
O6 C3 1.252 . S
O7 In0 2.326 1_655 S
O7 C3 1.260 . S
O8 In0 2.266 . S
O8 C5 1.252 . S
O9 In0 2.326 . S
O9 C5 1.260 . S
C10 O1 1.240 1_455 S
C10 O2 1.252 . S
O11 In0 2.294 . S
O11 C4 1.240 1_455 S
O12 In0 2.326 1_655 S
O12 C4 1.252 . S
In13 O14 2.294 . S
In13 O15 2.326 . S
In13 O19 2.266 . S
In13 O20 2.326 . S
In13 O21 2.266 . S
In13 O22 2.326 . S
In13 O24 2.294 . S
In13 O25 2.326 . S
O14 In13 2.294 . S
O14 C23 1.240 . S
O15 In13 2.326 . S
O15 C23 1.252 . S
C16 O19 1.252 . S
C16 O20 1.260 . S
C17 O24 1.240 . S
C17 O25 1.252 . S
C18 O21 1.252 . S
C18 O22 1.260 . S
O19 In13 2.266 . S
O19 C16 1.252 . S
O20 In13 2.326 . S
O20 C16 1.260 . S
O21 In13 2.266 . S
O21 C18 1.252 . S
O22 In13 2.326 . S
O22 C18 1.260 . S
C23 O14 1.240 . S
C23 O15 1.252 . S
O24 In13 2.294 . S
O24 C17 1.240 . S
O25 In13 2.326 . S
O25 C17 1.252 . S
In26 O27 2.294 . S
In26 O28 2.326 . S
In26 O32 2.266 . S
In26 O33 2.326 . S
In26 O34 2.266 . S
In26 O35 2.326 . S
In26 O37 2.294 . S
In26 O38 2.326 . S
O27 In26 2.294 . S
O27 C36 1.240 . S
O28 In26 2.326 . S
O28 C36 1.252 . S
C29 O32 1.252 . S
C29 O33 1.260 . S
C30 O37 1.240 . S
C30 O38 1.252 . S
C31 O34 1.252 . S
C31 O35 1.260 . S
O32 In26 2.266 . S
O32 C29 1.252 . S
O33 In26 2.326 . S
O33 C29 1.260 . S
O34 In26 2.266 . S
O34 C31 1.252 . S
O35 In26 2.326 . S
O35 C31 1.260 . S
C36 O27 1.240 . S
C36 O28 1.252 . S
O37 In26 2.294 . S
O37 C30 1.240 . S
O38 In26 2.326 . S
O38 C30 1.252 . S
In39 O40 2.293 1_554 S
In39 O41 2.326 1_554 S
In39 O45 2.266 1_554 S
In39 O46 2.326 . S
In39 O47 2.266 . S
In39 O48 2.325 1_554 S
In39 O50 2.295 . S
In39 O51 2.327 . S
O40 In39 2.293 1_556 S
O40 C49 1.240 . S
O41 In39 2.326 1_556 S
O41 C49 1.252 . S
C42 O45 1.252 1_554 S
C42 O46 1.260 . S
C43 O50 1.240 . S
C43 O51 1.252 . S
C44 O47 1.252 1_556 S
C44 O48 1.260 . S
O45 In39 2.266 1_556 S
O45 C42 1.252 1_556 S
O46 In39 2.326 . S
O46 C42 1.260 . S
O47 In39 2.266 . S
O47 C44 1.252 1_554 S
O48 In39 2.325 1_556 S
O48 C44 1.260 . S
C49 O40 1.240 . S
C49 O41 1.252 . S
O50 In39 2.295 . S
O50 C43 1.240 . S
O51 In39 2.327 . S
O51 C43 1.252 . S
In52 O53 2.294 . S
In52 O54 2.326 1_455 S
In52 O58 2.266 . S
In52 O59 2.326 . S
In52 O60 2.266 1_455 S
In52 O61 2.326 1_455 S
In52 O63 2.294 1_455 S
In52 O64 2.326 . S
O53 In52 2.294 . S
O53 C62 1.240 1_455 S
O54 In52 2.326 1_655 S
O54 C62 1.252 . S
C55 O58 1.252 . S
C55 O59 1.260 . S
C56 O63 1.240 1_455 S
C56 O64 1.252 . S
C57 O60 1.252 . S
C57 O61 1.260 . S
O58 In52 2.266 . S
O58 C55 1.252 . S
O59 In52 2.326 . S
O59 C55 1.260 . S
O60 In52 2.266 1_655 S
O60 C57 1.252 . S
O61 In52 2.326 1_655 S
O61 C57 1.260 . S
C62 O53 1.240 1_655 S
C62 O54 1.252 . S
O63 In52 2.294 1_655 S
O63 C56 1.240 1_655 S
O64 In52 2.326 . S
O64 C56 1.252 . S
In65 O66 2.294 . S
In65 O67 2.326 . S
In65 O71 2.266 . S
In65 O72 2.326 . S
In65 O73 2.266 . S
In65 O74 2.326 . S
In65 O76 2.294 1_554 S
In65 O77 2.326 . S
O66 In65 2.294 . S
O66 C75 1.240 . S
O67 In65 2.326 . S
O67 C75 1.252 . S
C68 O71 1.252 . S
C68 O72 1.260 . S
C69 O76 1.240 . S
C69 O77 1.252 1_556 S
C70 O73 1.252 . S
C70 O74 1.260 . S
O71 In65 2.266 . S
O71 C68 1.252 . S
O72 In65 2.326 . S
O72 C68 1.260 . S
O73 In65 2.266 . S
O73 C70 1.252 . S
O74 In65 2.326 . S
O74 C70 1.260 . S
C75 O66 1.240 . S
C75 O67 1.252 . S
O76 In65 2.294 1_556 S
O76 C69 1.240 . S
O77 In65 2.326 . S
O77 C69 1.252 1_554 S
In78 O79 2.294 . S
In78 O80 2.326 . S
In78 O84 2.266 . S
In78 O85 2.326 . S
In78 O86 2.266 . S
In78 O87 2.326 . S
In78 O89 2.294 . S
In78 O90 2.326 . S
O79 In78 2.294 . S
O79 C88 1.240 . S
O80 In78 2.326 . S
O80 C88 1.252 . S
C81 O84 1.252 . S
C81 O85 1.260 . S
C82 O89 1.240 . S
C82 O90 1.252 . S
C83 O86 1.252 . S
C83 O87 1.260 . S
O84 In78 2.266 . S
O84 C81 1.252 . S
O85 In78 2.326 . S
O85 C81 1.260 . S
O86 In78 2.266 . S
O86 C83 1.252 . S
O87 In78 2.326 . S
O87 C83 1.260 . S
C88 O79 1.240 . S
C88 O80 1.252 . S
O89 In78 2.294 . S
O89 C82 1.240 . S
O90 In78 2.326 . S
O90 C82 1.252 . S
In91 O92 2.294 . S
In91 O93 2.326 . S
In91 O97 2.266 . S
In91 O98 2.326 . S
In91 O99 2.266 . S
In91 O100 2.326 . S
In91 O102 2.294 . S
In91 O103 2.326 . S
O92 In91 2.294 . S
O92 C101 1.240 . S
O93 In91 2.326 . S
O93 C101 1.252 . S
C94 O97 1.252 . S
C94 O98 1.260 . S
C95 O102 1.240 . S
C95 O103 1.252 . S
C96 O99 1.252 . S
C96 O100 1.260 . S
O97 In91 2.266 . S
O97 C94 1.252 . S
O98 In91 2.326 . S
O98 C94 1.260 . S
O99 In91 2.266 . S
O99 C96 1.252 . S
O100 In91 2.326 . S
O100 C96 1.260 . S
C101 O92 1.240 . S
C101 O93 1.252 . S
O102 In91 2.294 . S
O102 C95 1.240 . S
O103 In91 2.326 . S
O103 C95 1.252 . S
In104 O105 2.294 . S
In104 O106 2.326 . S
In104 O110 2.266 . S
In104 O111 2.326 . S
In104 O112 2.266 . S
In104 O113 2.326 . S
In104 O115 2.294 . S
In104 O116 2.326 . S
O105 In104 2.294 . S
O105 C114 1.240 . S
O106 In104 2.326 . S
O106 C114 1.252 . S
C107 O110 1.252 . S
C107 O111 1.260 . S
C108 O115 1.240 . S
C108 O116 1.252 . S
C109 O112 1.252 . S
C109 O113 1.260 . S
O110 In104 2.266 . S
O110 C107 1.252 . S
O111 In104 2.326 . S
O111 C107 1.260 . S
O112 In104 2.266 . S
O112 C109 1.252 . S
O113 In104 2.326 . S
O113 C109 1.260 . S
C114 O105 1.240 . S
C114 O106 1.252 . S
O115 In104 2.294 . S
O115 C108 1.240 . S
O116 In104 2.326 . S
O116 C108 1.252 . S
In117 O118 2.294 1_554 S
In117 O119 2.326 . S
In117 O123 2.266 . S
In117 O124 2.326 . S
In117 O125 2.266 . S
In117 O126 2.326 . S
In117 O128 2.294 . S
In117 O129 2.326 . S
O118 In117 2.294 1_556 S
O118 C127 1.240 . S
O119 In117 2.326 . S
O119 C127 1.252 1_554 S
C120 O123 1.252 . S
C120 O124 1.260 . S
C121 O128 1.240 . S
C121 O129 1.252 . S
C122 O125 1.252 . S
C122 O126 1.260 . S
O123 In117 2.266 . S
O123 C120 1.252 . S
O124 In117 2.326 . S
O124 C120 1.260 . S
O125 In117 2.266 . S
O125 C122 1.252 . S
O126 In117 2.326 . S
O126 C122 1.260 . S
C127 O118 1.240 . S
C127 O119 1.252 1_556 S
O128 In117 2.294 . S
O128 C121 1.240 . S
O129 In117 2.326 . S
O129 C121 1.252 . S
In130 O131 2.295 . S
In130 O132 2.327 . S
In130 O136 2.266 . S
In130 O137 2.325 1_554 S
In130 O138 2.266 1_554 S
In130 O139 2.326 . S
In130 O141 2.293 1_554 S
In130 O142 2.326 1_554 S
O131 In130 2.295 . S
O131 C140 1.240 . S
O132 In130 2.327 . S
O132 C140 1.252 . S
C133 O136 1.252 1_556 S
C133 O137 1.260 . S
C134 O141 1.240 . S
C134 O142 1.252 . S
C135 O138 1.252 1_554 S
C135 O139 1.260 . S
O136 In130 2.266 . S
O136 C133 1.252 1_554 S
O137 In130 2.325 1_556 S
O137 C133 1.260 . S
O138 In130 2.266 1_556 S
O138 C135 1.252 1_556 S
O139 In130 2.326 . S
O139 C135 1.260 . S
C140 O131 1.240 . S
C140 O132 1.252 . S
O141 In130 2.293 1_556 S
O141 C134 1.240 . S
O142 In130 2.326 1_556 S
O142 C134 1.252 . S
In143 O144 2.294 . S
In143 O145 2.326 . S
In143 O149 2.266 . S
In143 O150 2.326 . S
In143 O151 2.266 . S
In143 O152 2.326 . S
In143 O154 2.294 . S
In143 O155 2.326 . S
O144 In143 2.294 . S
O144 C153 1.240 . S
O145 In143 2.326 . S
O145 C153 1.252 . S
C146 O149 1.252 . S
C146 O150 1.260 . S
C147 O154 1.240 . S
C147 O155 1.252 . S
C148 O151 1.252 . S
C148 O152 1.260 . S
O149 In143 2.266 . S
O149 C146 1.252 . S
O150 In143 2.326 . S
O150 C146 1.260 . S
O151 In143 2.266 . S
O151 C148 1.252 . S
O152 In143 2.326 . S
O152 C148 1.260 . S
C153 O144 1.240 . S
C153 O145 1.252 . S
O154 In143 2.294 . S
O154 C147 1.240 . S
O155 In143 2.326 . S
O155 C147 1.252 . S
In156 O157 2.294 . S
In156 O158 2.326 . S
In156 O162 2.266 . S
In156 O163 2.326 . S
In156 O164 2.266 . S
In156 O165 2.326 . S
In156 O167 2.294 . S
In156 O168 2.326 . S
O157 In156 2.294 . S
O157 C166 1.240 . S
O158 In156 2.326 . S
O158 C166 1.252 . S
C159 O162 1.252 . S
C159 O163 1.260 . S
C160 O167 1.240 . S
C160 O168 1.252 . S
C161 O164 1.252 . S
C161 O165 1.260 . S
O162 In156 2.266 . S
O162 C159 1.252 . S
O163 In156 2.326 . S
O163 C159 1.260 . S
O164 In156 2.266 . S
O164 C161 1.252 . S
O165 In156 2.326 . S
O165 C161 1.260 . S
C166 O157 1.240 . S
C166 O158 1.252 . S
O167 In156 2.294 . S
O167 C160 1.240 . S
O168 In156 2.326 . S
O168 C160 1.252 . S
In169 O170 2.294 1_455 S
In169 O171 2.326 . S
In169 O175 2.266 1_455 S
In169 O176 2.326 1_455 S
In169 O177 2.266 . S
In169 O178 2.326 . S
In169 O180 2.294 . S
In169 O181 2.326 1_455 S
O170 In169 2.294 1_655 S
O170 C179 1.240 1_655 S
O171 In169 2.326 . S
O171 C179 1.252 . S
C172 O175 1.252 . S
C172 O176 1.260 . S
C173 O180 1.240 1_655 S
C173 O181 1.252 . S
C174 O177 1.252 . S
C174 O178 1.260 . S
O175 In169 2.266 1_655 S
O175 C172 1.252 . S
O176 In169 2.326 1_655 S
O176 C172 1.260 . S
O177 In169 2.266 . S
O177 C174 1.252 . S
O178 In169 2.326 . S
O178 C174 1.260 . S
C179 O170 1.240 1_455 S
C179 O171 1.252 . S
O180 In169 2.294 . S
O180 C173 1.240 1_455 S
O181 In169 2.326 1_655 S
O181 C173 1.252 . S
In182 O183 2.294 . S
In182 O184 2.326 . S
In182 O188 2.266 . S
In182 O189 2.326 . S
In182 O190 2.266 . S
In182 O191 2.326 . S
In182 O193 2.294 . S
In182 O194 2.326 . S
O183 In182 2.294 . S
O183 C192 1.240 . S
O184 In182 2.326 . S
O184 C192 1.252 . S
C185 O188 1.252 . S
C185 O189 1.260 . S
C186 O193 1.240 . S
C186 O194 1.252 . S
C187 O190 1.252 . S
C187 O191 1.260 . S
O188 In182 2.266 . S
O188 C185 1.252 . S
O189 In182 2.326 . S
O189 C185 1.260 . S
O190 In182 2.266 . S
O190 C187 1.252 . S
O191 In182 2.326 . S
O191 C187 1.260 . S
C192 O183 1.240 . S
C192 O184 1.252 . S
O193 In182 2.294 . S
O193 C186 1.240 . S
O194 In182 2.326 . S
O194 C186 1.252 . S
In195 O196 2.294 . S
In195 O197 2.326 1_455 S
In195 O201 2.266 . S
In195 O202 2.326 . S
In195 O203 2.266 1_455 S
In195 O204 2.326 1_455 S
In195 O206 2.294 1_455 S
In195 O207 2.326 . S
O196 In195 2.294 . S
O196 C205 1.240 1_455 S
O197 In195 2.326 1_655 S
O197 C205 1.252 . S
C198 O201 1.252 . S
C198 O202 1.260 . S
C199 O206 1.240 1_455 S
C199 O207 1.252 . S
C200 O203 1.252 . S
C200 O204 1.260 . S
O201 In195 2.266 . S
O201 C198 1.252 . S
O202 In195 2.326 . S
O202 C198 1.260 . S
O203 In195 2.266 1_655 S
O203 C200 1.252 . S
O204 In195 2.326 1_655 S
O204 C200 1.260 . S
C205 O196 1.240 1_655 S
C205 O197 1.252 . S
O206 In195 2.294 1_655 S
O206 C199 1.240 1_655 S
O207 In195 2.326 . S
O207 C199 1.252 . S
C208 C209 1.387 . S
C208 H212 0.950 . S
C208 C217 1.390 . S
C209 C208 1.387 . S
C209 C211 1.387 . S
H210 C217 0.950 . S
C211 C209 1.387 . S
C211 C213 1.390 . S
C211 H215 0.950 . S
H212 C208 0.950 . S
C213 C211 1.390 . S
C213 C214 1.387 . S
C213 H216 0.950 . S
C214 C213 1.387 . S
C214 C217 1.387 . S
H215 C211 0.950 . S
H216 C213 0.950 . S
C217 C208 1.390 . S
C217 H210 0.950 . S
C217 C214 1.387 . S
C218 C219 1.387 . S
C218 H222 0.950 . S
C218 C227 1.390 . S
C219 C218 1.387 . S
C219 C221 1.387 . S
H220 C227 0.950 . S
C221 C219 1.387 . S
C221 C223 1.390 . S
C221 H225 0.950 . S
H222 C218 0.950 . S
C223 C221 1.390 . S
C223 C224 1.387 . S
C223 H226 0.950 . S
C224 C223 1.387 . S
C224 C227 1.387 . S
H225 C221 0.950 . S
H226 C223 0.950 . S
C227 C218 1.390 . S
C227 H220 0.950 . S
C227 C224 1.387 . S
C228 C229 1.387 . S
C228 H232 0.950 . S
C228 C237 1.390 . S
C229 C228 1.387 . S
C229 C231 1.387 . S
H230 C237 0.950 . S
C231 C229 1.387 . S
C231 C233 1.390 . S
C231 H235 0.950 . S
H232 C228 0.950 . S
C233 C231 1.390 . S
C233 C234 1.387 . S
C233 H236 0.950 . S
C234 C233 1.387 . S
C234 C237 1.387 . S
H235 C231 0.950 . S
H236 C233 0.950 . S
C237 C228 1.390 . S
C237 H230 0.950 . S
C237 C234 1.387 . S
C238 C239 1.387 . S
C238 H242 0.950 1_556 S
C238 C247 1.390 . S
C239 C238 1.387 . S
C239 C241 1.387 . S
H240 C247 0.950 1_554 S
C241 C239 1.387 . S
C241 C243 1.390 . S
C241 H245 0.950 . S
H242 C238 0.950 1_554 S
C243 C241 1.390 . S
C243 C244 1.387 . S
C243 H246 0.950 . S
C244 C243 1.387 . S
C244 C247 1.387 . S
H245 C241 0.950 . S
H246 C243 0.950 . S
C247 C238 1.390 . S
C247 H240 0.950 1_556 S
C247 C244 1.387 . S
C248 C249 1.387 . S
C248 H252 0.950 1_556 S
C248 C257 1.390 1_556 S
C249 C248 1.387 . S
C249 C251 1.387 . S
H250 C257 0.950 . S
C251 C249 1.387 . S
C251 C253 1.390 . S
C251 H255 0.950 . S
H252 C248 0.950 1_554 S
C253 C251 1.390 . S
C253 C254 1.387 . S
C253 H256 0.950 . S
C254 C253 1.387 . S
C254 C257 1.387 1_556 S
H255 C251 0.950 . S
H256 C253 0.950 . S
C257 C248 1.390 1_554 S
C257 H250 0.950 . S
C257 C254 1.387 1_554 S
C258 C259 1.387 . S
C258 H262 0.950 . S
C258 C267 1.390 . S
C259 C258 1.387 . S
C259 C261 1.387 . S
H260 C267 0.950 . S
C261 C259 1.387 . S
C261 C263 1.390 . S
C261 H265 0.950 . S
H262 C258 0.950 . S
C263 C261 1.390 . S
C263 C264 1.387 . S
C263 H266 0.950 . S
C264 C263 1.387 . S
C264 C267 1.387 . S
H265 C261 0.950 . S
H266 C263 0.950 . S
C267 C258 1.390 . S
C267 H260 0.950 . S
C267 C264 1.387 . S
C268 C269 1.387 . S
C268 H272 0.950 . S
C268 C277 1.390 . S
C269 C268 1.387 . S
C269 C271 1.387 . S
H270 C277 0.950 . S
C271 C269 1.387 . S
C271 C273 1.390 . S
C271 H275 0.950 . S
H272 C268 0.950 . S
C273 C271 1.390 . S
C273 C274 1.387 . S
C273 H276 0.950 . S
C274 C273 1.387 . S
C274 C277 1.387 . S
H275 C271 0.950 . S
H276 C273 0.950 . S
C277 C268 1.390 . S
C277 H270 0.950 . S
C277 C274 1.387 . S
C278 C279 1.387 . S
C278 H282 0.950 . S
C278 C287 1.390 . S
C279 C278 1.387 . S
C279 C281 1.387 . S
H280 C287 0.950 . S
C281 C279 1.387 . S
C281 C283 1.390 . S
C281 H285 0.950 . S
H282 C278 0.950 . S
C283 C281 1.390 . S
C283 C284 1.387 . S
C283 H286 0.950 . S
C284 C283 1.387 . S
C284 C287 1.387 . S
H285 C281 0.950 . S
H286 C283 0.950 . S
C287 C278 1.390 . S
C287 H280 0.950 . S
C287 C284 1.387 . S
C288 C289 1.387 . S
C288 H292 0.950 . S
C288 C297 1.390 . S
C289 C288 1.387 . S
C289 C291 1.387 . S
H290 C297 0.950 1_554 S
C291 C289 1.387 . S
C291 C293 1.390 . S
C291 H295 0.950 . S
H292 C288 0.950 . S
C293 C291 1.390 . S
C293 C294 1.387 . S
C293 H296 0.950 . S
C294 C293 1.387 . S
C294 C297 1.387 . S
H295 C291 0.950 . S
H296 C293 0.950 . S
C297 C288 1.390 . S
C297 H290 0.950 1_556 S
C297 C294 1.387 . S
C298 C299 1.387 . S
C298 H302 0.950 . S
C298 C307 1.390 . S
C299 C298 1.387 . S
C299 C301 1.387 . S
H300 C307 0.950 . S
C301 C299 1.387 . S
C301 C303 1.390 . S
C301 H305 0.950 . S
H302 C298 0.950 . S
C303 C301 1.390 . S
C303 C304 1.387 . S
C303 H306 0.950 . S
C304 C303 1.387 . S
C304 C307 1.387 . S
H305 C301 0.950 . S
H306 C303 0.950 . S
C307 C298 1.390 . S
C307 H300 0.950 . S
C307 C304 1.387 . S
C308 C309 1.387 . S
C308 H312 0.950 . S
C308 C317 1.390 . S
C309 C308 1.387 . S
C309 C311 1.387 . S
H310 C317 0.950 . S
C311 C309 1.387 . S
C311 C313 1.390 . S
C311 H315 0.950 . S
H312 C308 0.950 . S
C313 C311 1.390 . S
C313 C314 1.387 . S
C313 H316 0.950 . S
C314 C313 1.387 . S
C314 C317 1.387 . S
H315 C311 0.950 . S
H316 C313 0.950 . S
C317 C308 1.390 . S
C317 H310 0.950 . S
C317 C314 1.387 . S
C318 C319 1.387 . S
C318 H322 0.950 . S
C318 C327 1.390 . S
C319 C318 1.387 . S
C319 C321 1.387 . S
H320 C327 0.950 . S
C321 C319 1.387 . S
C321 C323 1.390 . S
C321 H325 0.950 . S
H322 C318 0.950 . S
C323 C321 1.390 . S
C323 C324 1.387 . S
C323 H326 0.950 . S
C324 C323 1.387 . S
C324 C327 1.387 . S
H325 C321 0.950 . S
H326 C323 0.950 . S
C327 C318 1.390 . S
C327 H320 0.950 . S
C327 C324 1.387 . S
C328 C329 1.387 . S
C328 H332 0.950 . S
C328 C337 1.390 . S
C329 C328 1.387 . S
C329 C331 1.387 . S
H330 C337 0.950 . S
C331 C329 1.387 . S
C331 C333 1.390 . S
C331 H335 0.950 . S
H332 C328 0.950 . S
C333 C331 1.390 . S
C333 C334 1.387 . S
C333 H336 0.950 . S
C334 C333 1.387 . S
C334 C337 1.387 . S
H335 C331 0.950 . S
H336 C333 0.950 . S
C337 C328 1.390 . S
C337 H330 0.950 . S
C337 C334 1.387 . S
C338 C339 1.387 . S
C338 H342 0.950 . S
C338 C347 1.390 . S
C339 C338 1.387 . S
C339 C341 1.387 . S
H340 C347 0.950 . S
C341 C339 1.387 . S
C341 C343 1.390 . S
C341 H345 0.950 . S
H342 C338 0.950 . S
C343 C341 1.390 . S
C343 C344 1.387 . S
C343 H346 0.950 1_556 S
C344 C343 1.387 . S
C344 C347 1.387 . S
H345 C341 0.950 . S
H346 C343 0.950 1_554 S
C347 C338 1.390 . S
C347 H340 0.950 . S
C347 C344 1.387 . S
C348 C349 1.387 . S
C348 H352 0.950 . S
C348 C357 1.390 . S
C349 C348 1.387 . S
C349 C351 1.387 . S
H350 C357 0.950 . S
C351 C349 1.387 . S
C351 C353 1.390 . S
C351 H355 0.950 . S
H352 C348 0.950 . S
C353 C351 1.390 . S
C353 C354 1.387 . S
C353 H356 0.950 . S
C354 C353 1.387 . S
C354 C357 1.387 . S
H355 C351 0.950 . S
H356 C353 0.950 . S
C357 C348 1.390 . S
C357 H350 0.950 . S
C357 C354 1.387 . S
C358 C359 1.387 . S
C358 H362 0.950 . S
C358 C367 1.390 . S
C359 C358 1.387 . S
C359 C361 1.387 . S
H360 C367 0.950 . S
C361 C359 1.387 . S
C361 C363 1.390 . S
C361 H365 0.950 . S
H362 C358 0.950 . S
C363 C361 1.390 . S
C363 C364 1.387 . S
C363 H366 0.950 . S
C364 C363 1.387 . S
C364 C367 1.387 . S
H365 C361 0.950 . S
H366 C363 0.950 . S
C367 C358 1.390 . S
C367 H360 0.950 . S
C367 C364 1.387 . S
C368 C369 1.387 . S
C368 H372 0.950 . S
C368 C377 1.390 . S
C369 C368 1.387 . S
C369 C371 1.387 1_455 S
H370 C377 0.950 1_556 S
C371 C369 1.387 1_655 S
C371 C373 1.390 . S
C371 H375 0.950 . S
H372 C368 0.950 . S
C373 C371 1.390 . S
C373 C374 1.387 1_654 S
C373 H376 0.950 1_554 S
C374 C373 1.387 1_456 S
C374 C377 1.387 1_556 S
H375 C371 0.950 . S
H376 C373 0.950 1_556 S
C377 C368 1.390 . S
C377 H370 0.950 1_554 S
C377 C374 1.387 1_554 S
C378 C379 1.387 . S
C378 H382 0.950 . S
C378 C387 1.390 . S
C379 C378 1.387 . S
C379 C381 1.387 . S
H380 C387 0.950 . S
C381 C379 1.387 . S
C381 C383 1.390 . S
C381 H385 0.950 . S
H382 C378 0.950 . S
C383 C381 1.390 . S
C383 C384 1.387 . S
C383 H386 0.950 . S
C384 C383 1.387 . S
C384 C387 1.387 . S
H385 C381 0.950 . S
H386 C383 0.950 . S
C387 C378 1.390 . S
C387 H380 0.950 . S
C387 C384 1.387 . S
C388 C389 1.387 . S
C388 H392 0.950 . S
C388 C397 1.390 . S
C389 C388 1.387 . S
C389 C391 1.387 . S
H390 C397 0.950 . S
C391 C389 1.387 . S
C391 C393 1.390 . S
C391 H395 0.950 . S
H392 C388 0.950 . S
C393 C391 1.390 . S
C393 C394 1.387 . S
C393 H396 0.950 . S
C394 C393 1.387 . S
C394 C397 1.387 . S
H395 C391 0.950 . S
H396 C393 0.950 . S
C397 C388 1.390 . S
C397 H390 0.950 . S
C397 C394 1.387 . S
C398 C399 1.387 . S
C398 H402 0.950 . S
C398 C407 1.390 . S
C399 C398 1.387 . S
C399 C401 1.387 . S
H400 C407 0.950 . S
C401 C399 1.387 . S
C401 C403 1.390 . S
C401 H405 0.950 . S
H402 C398 0.950 . S
C403 C401 1.390 . S
C403 C404 1.387 . S
C403 H406 0.950 . S
C404 C403 1.387 . S
C404 C407 1.387 . S
H405 C401 0.950 . S
H406 C403 0.950 . S
C407 C398 1.390 . S
C407 H400 0.950 . S
C407 C404 1.387 . S
C408 C409 1.387 . S
C408 H412 0.950 . S
C408 C417 1.390 . S
C409 C408 1.387 . S
C409 C411 1.387 . S
H410 C417 0.950 . S
C411 C409 1.387 . S
C411 C413 1.390 . S
C411 H415 0.950 . S
H412 C408 0.950 . S
C413 C411 1.390 . S
C413 C414 1.387 . S
C413 H416 0.950 . S
C414 C413 1.387 . S
C414 C417 1.387 . S
H415 C411 0.950 . S
H416 C413 0.950 . S
C417 C408 1.390 . S
C417 H410 0.950 . S
C417 C414 1.387 . S
C418 C419 1.387 . S
C418 H422 0.950 . S
C418 C427 1.390 . S
C419 C418 1.387 . S
C419 C421 1.387 . S
H420 C427 0.950 . S
C421 C419 1.387 . S
C421 C423 1.390 . S
C421 H425 0.950 . S
H422 C418 0.950 . S
C423 C421 1.390 . S
C423 C424 1.387 . S
C423 H426 0.950 . S
C424 C423 1.387 . S
C424 C427 1.387 . S
H425 C421 0.950 . S
H426 C423 0.950 . S
C427 C418 1.390 . S
C427 H420 0.950 . S
C427 C424 1.387 . S
C428 C429 1.387 . S
C428 H432 0.950 . S
C428 C437 1.390 1_565 S
C429 C428 1.387 . S
C429 C431 1.387 . S
H430 C437 0.950 . S
C431 C429 1.387 . S
C431 C433 1.390 1_565 S
C431 H435 0.950 . S
H432 C428 0.950 . S
C433 C431 1.390 1_545 S
C433 C434 1.387 . S
C433 H436 0.950 . S
C434 C433 1.387 . S
C434 C437 1.387 . S
H435 C431 0.950 . S
H436 C433 0.950 . S
C437 C428 1.390 1_545 S
C437 H430 0.950 . S
C437 C434 1.387 . S
C438 C439 1.387 1_554 S
C438 H442 0.950 1_554 S
C438 C447 1.390 1_545 S
C439 C438 1.387 1_556 S
C439 C441 1.387 1_656 S
H440 C447 0.950 . S
C441 C439 1.387 1_454 S
C441 C443 1.390 1_545 S
C441 H445 0.950 1_554 S
H442 C438 0.950 1_556 S
C443 C441 1.390 1_565 S
C443 C444 1.387 1_455 S
C443 H446 0.950 . S
C444 C443 1.387 1_655 S
C444 C447 1.387 . S
H445 C441 0.950 1_556 S
H446 C443 0.950 . S
C447 C438 1.390 1_565 S
C447 H440 0.950 . S
C447 C444 1.387 . S
C448 C449 1.387 . S
C448 H452 0.950 . S
C448 C457 1.390 . S
C449 C448 1.387 . S
C449 C451 1.387 1_655 S
H450 C457 0.950 . S
C451 C449 1.387 1_455 S
C451 C453 1.390 . S
C451 H455 0.950 . S
H452 C448 0.950 . S
C453 C451 1.390 . S
C453 C454 1.387 1_455 S
C453 H456 0.950 . S
C454 C453 1.387 1_655 S
C454 C457 1.387 . S
H455 C451 0.950 . S
H456 C453 0.950 . S
C457 C448 1.390 . S
C457 H450 0.950 . S
C457 C454 1.387 . S
C458 C459 1.387 . S
C458 H462 0.950 . S
C458 C467 1.390 . S
C459 C458 1.387 . S
C459 C461 1.387 . S
H460 C467 0.950 . S
C461 C459 1.387 . S
C461 C463 1.390 . S
C461 H465 0.950 . S
H462 C458 0.950 . S
C463 C461 1.390 . S
C463 C464 1.387 . S
C463 H466 0.950 . S
C464 C463 1.387 . S
C464 C467 1.387 . S
H465 C461 0.950 . S
H466 C463 0.950 . S
C467 C458 1.390 . S
C467 H460 0.950 . S
C467 C464 1.387 . S
C468 C469 1.387 . S
C468 H472 0.950 . S
C468 C477 1.390 . S
C469 C468 1.387 . S
C469 C471 1.387 . S
H470 C477 0.950 1_556 S
C471 C469 1.387 . S
C471 C473 1.390 . S
C471 H475 0.950 . S
H472 C468 0.950 . S
C473 C471 1.390 . S
C473 C474 1.387 1_554 S
C473 H476 0.950 1_554 S
C474 C473 1.387 1_556 S
C474 C477 1.387 1_556 S
H475 C471 0.950 . S
H476 C473 0.950 1_556 S
C477 C468 1.390 . S
C477 H470 0.950 1_554 S
C477 C474 1.387 1_554 S
C478 C479 1.387 . S
C478 H482 0.950 . S
C478 C487 1.390 . S
C479 C478 1.387 . S
C479 C481 1.387 . S
H480 C487 0.950 . S
C481 C479 1.387 . S
C481 C483 1.390 . S
C481 H485 0.950 . S
H482 C478 0.950 . S
C483 C481 1.390 . S
C483 C484 1.387 . S
C483 H486 0.950 . S
C484 C483 1.387 . S
C484 C487 1.387 . S
H485 C481 0.950 . S
H486 C483 0.950 . S
C487 C478 1.390 . S
C487 H480 0.950 . S
C487 C484 1.387 . S
C488 C489 1.387 . S
C488 H492 0.950 . S
C488 C497 1.390 . S
C489 C488 1.387 . S
C489 C491 1.387 . S
H490 C497 0.950 . S
C491 C489 1.387 . S
C491 C493 1.390 . S
C491 H495 0.950 . S
H492 C488 0.950 . S
C493 C491 1.390 . S
C493 C494 1.387 . S
C493 H496 0.950 . S
C494 C493 1.387 . S
C494 C497 1.387 . S
H495 C491 0.950 . S
H496 C493 0.950 . S
C497 C488 1.390 . S
C497 H490 0.950 . S
C497 C494 1.387 . S
C498 C499 1.387 . S
C498 H502 0.950 . S
C498 C507 1.390 . S
C499 C498 1.387 . S
C499 C501 1.387 . S
H500 C507 0.950 . S
C501 C499 1.387 . S
C501 C503 1.390 . S
C501 H505 0.950 . S
H502 C498 0.950 . S
C503 C501 1.390 . S
C503 C504 1.387 . S
C503 H506 0.950 . S
C504 C503 1.387 . S
C504 C507 1.387 . S
H505 C501 0.950 . S
H506 C503 0.950 . S
C507 C498 1.390 . S
C507 H500 0.950 . S
C507 C504 1.387 . S
C508 C509 1.387 . S
C508 H512 0.950 . S
C508 C517 1.390 1_565 S
C509 C508 1.387 . S
C509 C511 1.387 . S
H510 C517 0.950 1_556 S
C511 C509 1.387 . S
C511 C513 1.390 1_565 S
C511 H515 0.950 . S
H512 C508 0.950 . S
C513 C511 1.390 1_545 S
C513 C514 1.387 1_554 S
C513 H516 0.950 1_554 S
C514 C513 1.387 1_556 S
C514 C517 1.387 1_556 S
H515 C511 0.950 . S
H516 C513 0.950 1_556 S
C517 C508 1.390 1_545 S
C517 H510 0.950 1_554 S
C517 C514 1.387 1_554 S
C518 C519 1.387 . S
C518 H522 0.950 . S
C518 C527 1.390 1_545 S
C519 C518 1.387 . S
C519 C521 1.387 1_455 S
H520 C527 0.950 . S
C521 C519 1.387 1_655 S
C521 C523 1.390 1_545 S
C521 H525 0.950 . S
H522 C518 0.950 . S
C523 C521 1.390 1_565 S
C523 C524 1.387 1_655 S
C523 H526 0.950 . S
C524 C523 1.387 1_455 S
C524 C527 1.387 . S
H525 C521 0.950 . S
H526 C523 0.950 . S
C527 C518 1.390 1_565 S
C527 H520 0.950 . S
C527 C524 1.387 . S
C209 C120 1.499 . S
C214 C5 1.496 . S
C219 C185 1.499 . S
C224 C18 1.499 . S
C229 C31 1.498 . S
C234 C107 1.499 . S
C239 C44 1.499 . S
C244 C200 1.502 . S
C249 C55 1.499 . S
C254 C133 1.496 . S
C259 C172 1.499 . S
C264 C70 1.502 . S
C269 C146 1.499 . S
C274 C83 1.499 . S
C279 C94 1.499 . S
C284 C159 1.499 . S
C289 C57 1.665 . S
C294 C42 1.669 1_556 S
C299 C161 1.666 . S
C304 C109 1.666 . S
C309 C81 1.666 . S
C314 C16 1.666 . S
C319 C122 1.668 . S
C324 C174 1.665 . S
C329 C3 1.666 . S
C334 C68 1.669 . S
C339 C198 1.668 . S
C344 C135 1.665 1_556 S
C349 C96 1.668 . S
C354 C29 1.668 . S
C359 C148 1.665 . S
C364 C187 1.665 . S
C369 C10 0.963 . S
C374 C56 0.963 . S
C379 C75 0.963 . S
C384 C23 0.963 . S
C389 C88 0.963 . S
C394 C36 0.963 . S
C399 C49 0.963 . S
C404 C95 0.964 . S
C409 C134 0.963 . S
C414 C108 0.964 . S
C419 C147 0.963 . S
C424 C121 0.963 . S
C429 C186 0.963 . S
C434 C160 0.963 . S
C439 C205 0.963 . S
C444 C173 0.963 . S
C449 C62 1.741 . S
C454 C4 1.741 . S
C459 C69 1.741 . S
C464 C17 1.741 . S
C469 C82 1.740 . S
C474 C30 1.741 . S
C479 C43 1.740 . S
C484 C101 1.739 . S
C489 C114 1.740 . S
C494 C140 1.739 . S
C499 C153 1.741 . S
C504 C127 1.741 . S
C509 C192 1.739 . S
C514 C166 1.739 . S
C519 C199 1.741 . S
C524 C179 1.741 . S
