# Generated by pormake.
# Topology dia-g, (3)-cn, num edge types: 1
# Building blocks:
#     Node 0, Type 0, BuildingBlock: OLANEW_clean_sbu_2, # of connection points: 3
#     Node 1, Type 0, BuildingBlock: OLANEW_clean_sbu_2, # of connection points: 3
#     Node 2, Type 0, BuildingBlock: OLANEW_clean_sbu_2, # of connection points: 3
#     Node 3, Type 0, BuildingBlock: OLANEW_clean_sbu_2, # of connection points: 3
#     Node 4, Type 0, BuildingBlock: OLANEW_clean_sbu_2, # of connection points: 3
#     Node 5, Type 0, BuildingBlock: OLANEW_clean_sbu_2, # of connection points: 3
#     Node 6, Type 0, BuildingBlock: OLANEW_clean_sbu_2, # of connection points: 3
#     Node 7, Type 0, BuildingBlock: OLANEW_clean_sbu_2, # of connection points: 3
#     Node 8, Type 0, BuildingBlock: OLANEW_clean_sbu_2, # of connection points: 3
#     Node 9, Type 0, BuildingBlock: OLANEW_clean_sbu_2, # of connection points: 3
#     Node 10, Type 0, BuildingBlock: OLANEW_clean_sbu_2, # of connection points: 3
#     Node 11, Type 0, BuildingBlock: OLANEW_clean_sbu_2, # of connection points: 3
#     Node 12, Type 0, BuildingBlock: OLANEW_clean_sbu_2, # of connection points: 3
#     Node 13, Type 0, BuildingBlock: OLANEW_clean_sbu_2, # of connection points: 3
#     Node 14, Type 0, BuildingBlock: OLANEW_clean_sbu_2, # of connection points: 3
#     Node 15, Type 0, BuildingBlock: OLANEW_clean_sbu_2, # of connection points: 3
#     Edge 16, Type (0, 0), BuildingBlock: MIFKUJ_clean_linker_0, # of connection points: 2
#     Edge 17, Type (0, 0), BuildingBlock: MIFKUJ_clean_linker_0, # of connection points: 2
#     Edge 18, Type (0, 0), BuildingBlock: MIFKUJ_clean_linker_0, # of connection points: 2
#     Edge 19, Type (0, 0), BuildingBlock: MIFKUJ_clean_linker_0, # of connection points: 2
#     Edge 20, Type (0, 0), BuildingBlock: MIFKUJ_clean_linker_0, # of connection points: 2
#     Edge 21, Type (0, 0), BuildingBlock: MIFKUJ_clean_linker_0, # of connection points: 2
#     Edge 22, Type (0, 0), BuildingBlock: MIFKUJ_clean_linker_0, # of connection points: 2
#     Edge 23, Type (0, 0), BuildingBlock: MIFKUJ_clean_linker_0, # of connection points: 2
#     Edge 24, Type (0, 0), BuildingBlock: MIFKUJ_clean_linker_0, # of connection points: 2
#     Edge 25, Type (0, 0), BuildingBlock: MIFKUJ_clean_linker_0, # of connection points: 2
#     Edge 26, Type (0, 0), BuildingBlock: MIFKUJ_clean_linker_0, # of connection points: 2
#     Edge 27, Type (0, 0), BuildingBlock: MIFKUJ_clean_linker_0, # of connection points: 2
#     Edge 28, Type (0, 0), BuildingBlock: MIFKUJ_clean_linker_0, # of connection points: 2
#     Edge 29, Type (0, 0), BuildingBlock: MIFKUJ_clean_linker_0, # of connection points: 2
#     Edge 30, Type (0, 0), BuildingBlock: MIFKUJ_clean_linker_0, # of connection points: 2
#     Edge 31, Type (0, 0), BuildingBlock: MIFKUJ_clean_linker_0, # of connection points: 2
#     Edge 32, Type (0, 0), BuildingBlock: MIFKUJ_clean_linker_0, # of connection points: 2
#     Edge 33, Type (0, 0), BuildingBlock: MIFKUJ_clean_linker_0, # of connection points: 2
#     Edge 34, Type (0, 0), BuildingBlock: MIFKUJ_clean_linker_0, # of connection points: 2
#     Edge 35, Type (0, 0), BuildingBlock: MIFKUJ_clean_linker_0, # of connection points: 2
#     Edge 36, Type (0, 0), BuildingBlock: MIFKUJ_clean_linker_0, # of connection points: 2
#     Edge 37, Type (0, 0), BuildingBlock: MIFKUJ_clean_linker_0, # of connection points: 2
#     Edge 38, Type (0, 0), BuildingBlock: MIFKUJ_clean_linker_0, # of connection points: 2
#     Edge 39, Type (0, 0), BuildingBlock: MIFKUJ_clean_linker_0, # of connection points: 2
# Relax obj value: 0.011
# Max RMSD: 0.036
# Mean RMSD: 0.036
data_MOF--net-dia-g--node1-OLANEW_clean_sbu_2--edge1-MIFKUJ_clean_linker_0
_symmetry_space_group_name_H-M    P1
_symmetry_Int_Tables_number       1
_symmetry_cell_setting            triclinic
loop_
_symmetry_equiv_pos_as_xyz
'x, y, z'
_cell_length_a     74.158029
_cell_length_b     74.15874
_cell_length_c     109.47104
_cell_angle_alpha  89.966123
_cell_angle_beta   89.999203
_cell_angle_gamma 89.975505
loop_
_atom_site_label
_atom_site_type_symbol
_atom_site_fract_x
_atom_site_fract_y
_atom_site_fract_z
_atom_type_partial_charge
O0 O 0.12137 0.13426 0.43346 0.0
Cd1 Cd 0.12056 0.13919 0.41141 0.0
O2 O 0.10269 0.11155 0.43186 0.0
Cd3 Cd 0.08643 0.08827 0.43738 0.0
O4 O 0.06688 0.06693 0.44107 0.0
C5 C 0.05019 0.07054 0.44007 0.0
O6 O 0.04534 0.087 0.43705 0.0
C7 C 0.11232 0.12179 0.43854 0.0
C8 C 0.15511 0.13805 0.40139 0.0
O9 O 0.14873 0.15266 0.40589 0.0
O10 O 0.14512 0.12395 0.40158 0.0
O11 O 0.88135 0.63717 0.67537 0.0
Cd12 Cd 0.88482 0.63877 0.65318 0.0
O13 O 0.90696 0.62245 0.67586 0.0
Cd14 Cd 0.92743 0.60612 0.68503 0.0
O15 O 0.94561 0.58525 0.69178 0.0
C16 C 0.93925 0.56955 0.6935 0.0
O17 O 0.92201 0.56674 0.6915 0.0
C18 C 0.89358 0.62924 0.68147 0.0
C19 C 0.8784 0.67322 0.64393 0.0
O20 O 0.86567 0.66158 0.6447 0.0
O21 O 0.89415 0.66857 0.64759 0.0
O22 O 0.36541 0.35737 0.92777 0.0
Cd23 Cd 0.36469 0.35641 0.90547 0.0
O24 O 0.37751 0.38407 0.9259 0.0
Cd25 Cd 0.38904 0.4102 0.93094 0.0
O26 O 0.40649 0.43323 0.93469 0.0
C27 C 0.42137 0.4305 0.94016 0.0
O28 O 0.42546 0.41404 0.94364 0.0
C29 C 0.37204 0.37133 0.93277 0.0
C30 C 0.32971 0.3552 0.89618 0.0
O31 O 0.33854 0.34068 0.89836 0.0
O32 O 0.33741 0.3703 0.89846 0.0
O33 O 0.63204 0.87521 0.18149 0.0
Cd34 Cd 0.63107 0.87435 0.15919 0.0
O35 O 0.60881 0.89344 0.18092 0.0
Cd36 Cd 0.58942 0.91197 0.18921 0.0
O37 O 0.56959 0.93093 0.19636 0.0
C38 C 0.57292 0.94773 0.19611 0.0
O39 O 0.5885 0.95327 0.1918 0.0
C40 C 0.62038 0.88464 0.18709 0.0
C41 C 0.63359 0.83929 0.15016 0.0
O42 O 0.64773 0.84895 0.15178 0.0
O43 O 0.61826 0.84623 0.15283 0.0
O44 O 0.11695 0.34763 0.81356 0.0
Cd45 Cd 0.11655 0.34162 0.8355 0.0
O46 O 0.10103 0.37199 0.81692 0.0
Cd47 Cd 0.08507 0.39565 0.81186 0.0
O48 O 0.06726 0.41888 0.80975 0.0
C49 C 0.06268 0.42738 0.81933 0.0
O50 O 0.069 0.42196 0.82994 0.0
C51 C 0.10913 0.36163 0.80947 0.0
C52 C 0.15098 0.34439 0.84556 0.0
O53 O 0.14504 0.3293 0.84153 0.0
O54 O 0.1406 0.35818 0.84487 0.0
O55 O 0.6496 0.62296 0.07212 0.0
Cd56 Cd 0.65352 0.62384 0.09426 0.0
O57 O 0.62754 0.60363 0.07452 0.0
Cd58 Cd 0.60479 0.58761 0.06795 0.0
O59 O 0.58127 0.57134 0.06335 0.0
C60 C 0.58193 0.55919 0.05518 0.0
O61 O 0.59706 0.55664 0.04917 0.0
C62 C 0.63749 0.61297 0.06749 0.0
C63 C 0.64961 0.65878 0.10326 0.0
O64 O 0.66506 0.65279 0.09991 0.0
O65 O 0.63601 0.6482 0.10238 0.0
O66 O 0.36727 0.14609 0.31822 0.0
Cd67 Cd 0.36711 0.15219 0.34013 0.0
O68 O 0.38144 0.12053 0.32122 0.0
Cd69 Cd 0.39611 0.09645 0.31535 0.0
O70 O 0.4122 0.07291 0.31045 0.0
C71 C 0.42798 0.07509 0.30619 0.0
O72 O 0.43411 0.09155 0.30463 0.0
C73 C 0.37429 0.13181 0.31392 0.0
C74 C 0.33285 0.14741 0.35008 0.0
O75 O 0.33749 0.16248 0.34528 0.0
O76 O 0.34444 0.13459 0.35021 0.0
O77 O 0.84794 0.88424 0.56196 0.0
Cd78 Cd 0.83785 0.88305 0.58317 0.0
O79 O 0.87477 0.8921 0.56845 0.0
Cd80 Cd 0.90222 0.90191 0.56564 0.0
O81 O 0.92669 0.91814 0.56449 0.0
C82 C 0.9263 0.93261 0.55826 0.0
O83 O 0.91142 0.9369 0.55242 0.0
C84 C 0.86422 0.88838 0.55966 0.0
C85 C 0.84443 0.84921 0.59339 0.0
O86 O 0.82944 0.85271 0.58806 0.0
O87 O 0.85629 0.86176 0.59392 0.0
O88 O 0.62907 0.63055 0.93157 0.0
Cd89 Cd 0.62836 0.63282 0.90931 0.0
O90 O 0.60985 0.60822 0.9304 0.0
Cd91 Cd 0.59106 0.58799 0.93741 0.0
O92 O 0.57083 0.56757 0.94163 0.0
C93 C 0.55443 0.57074 0.93904 0.0
O94 O 0.55016 0.58636 0.93415 0.0
C95 C 0.61961 0.61859 0.93687 0.0
C96 C 0.66295 0.63529 0.89944 0.0
O97 O 0.65405 0.64948 0.90234 0.0
O98 O 0.65547 0.61993 0.90121 0.0
O99 O 0.34972 0.11694 0.17876 0.0
Cd100 Cd 0.34685 0.11759 0.15654 0.0
O101 O 0.37778 0.10811 0.17676 0.0
Cd102 Cd 0.4035 0.09788 0.1837 0.0
O103 O 0.42766 0.08368 0.18977 0.0
C104 C 0.42609 0.07071 0.1973 0.0
O105 O 0.40998 0.0666 0.20146 0.0
C106 C 0.36463 0.11247 0.18361 0.0
C107 C 0.35001 0.15265 0.14759 0.0
O108 O 0.33462 0.14615 0.15057 0.0
O109 O 0.36391 0.14253 0.1488 0.0
O110 O 0.89134 0.84004 0.43095 0.0
Cd111 Cd 0.88839 0.83123 0.40955 0.0
O112 O 0.89347 0.86814 0.42491 0.0
Cd113 Cd 0.89935 0.89656 0.42815 0.0
O114 O 0.91289 0.92202 0.43186 0.0
C115 C 0.92837 0.92107 0.43679 0.0
O116 O 0.93493 0.90512 0.43957 0.0
C117 C 0.89313 0.85665 0.43353 0.0
C118 C 0.8542 0.83945 0.40051 0.0
O119 O 0.85754 0.82404 0.40533 0.0
O120 O 0.86708 0.85095 0.39994 0.0
O121 O 0.14114 0.37677 0.67547 0.0
Cd122 Cd 0.14433 0.37556 0.65328 0.0
O123 O 0.11331 0.38565 0.67261 0.0
Cd124 Cd 0.08771 0.39693 0.67876 0.0
O125 O 0.06541 0.41373 0.68483 0.0
C126 C 0.06927 0.42915 0.68915 0.0
O127 O 0.0863 0.43389 0.68995 0.0
C128 C 0.12606 0.38161 0.67987 0.0
C129 C 0.14391 0.3402 0.64469 0.0
O130 O 0.15878 0.34803 0.64742 0.0
O131 O 0.12923 0.34912 0.64601 0.0
O132 O 0.6405 0.88637 0.32363 0.0
Cd133 Cd 0.64268 0.88894 0.34584 0.0
O134 O 0.61681 0.90397 0.32437 0.0
Cd135 Cd 0.59558 0.92087 0.31653 0.0
O136 O 0.57429 0.93902 0.31036 0.0
C137 C 0.55796 0.93383 0.31039 0.0
O138 O 0.55421 0.91731 0.31393 0.0
C139 C 0.62787 0.89463 0.31814 0.0
C140 C 0.6772 0.88101 0.3544 0.0
O141 O 0.66514 0.86869 0.35356 0.0
O142 O 0.67293 0.89707 0.35117 0.0
O143 O 0.14533 0.1186 0.57373 0.0
Cd144 Cd 0.14836 0.12019 0.59591 0.0
O145 O 0.11932 0.1053 0.57631 0.0
Cd146 Cd 0.09331 0.09304 0.5718 0.0
O147 O 0.07067 0.07518 0.56787 0.0
C148 C 0.07159 0.0591 0.57184 0.0
O149 O 0.0859 0.05416 0.57809 0.0
C150 C 0.13132 0.11148 0.56912 0.0
C151 C 0.14696 0.15583 0.60394 0.0
O152 O 0.16203 0.14833 0.60127 0.0
O153 O 0.13255 0.14642 0.60288 0.0
O154 O 0.87645 0.64913 0.81685 0.0
Cd155 Cd 0.87609 0.65243 0.83906 0.0
O156 O 0.89131 0.6239 0.81941 0.0
Cd157 Cd 0.90724 0.60063 0.81356 0.0
O158 O 0.92612 0.57831 0.81116 0.0
C159 C 0.93406 0.57241 0.82064 0.0
O160 O 0.9304 0.57984 0.83125 0.0
C161 C 0.88411 0.63537 0.81228 0.0
C162 C 0.84144 0.64928 0.84869 0.0
O163 O 0.84783 0.66469 0.84561 0.0
O164 O 0.85144 0.63536 0.84718 0.0
O165 O 0.36658 0.36938 0.07011 0.0
Cd166 Cd 0.36789 0.36888 0.09242 0.0
O167 O 0.39106 0.38582 0.07006 0.0
Cd168 Cd 0.41429 0.40046 0.06266 0.0
O169 O 0.43599 0.41874 0.05727 0.0
C170 C 0.43501 0.43504 0.06077 0.0
O171 O 0.42103 0.44013 0.0673 0.0
C172 C 0.37859 0.37788 0.06416 0.0
C173 C 0.36532 0.33392 0.10168 0.0
O174 O 0.3512 0.34359 0.10002 0.0
O175 O 0.38066 0.3408 0.09895 0.0
H176 H 0.11076 0.08842 0.55502 0.0
H177 H 0.10591 0.08975 0.53307 0.0
H178 H 0.14429 0.13332 0.53039 0.0
H179 H 0.14776 0.13323 0.55254 0.0
H180 H 0.11808 0.14098 0.51662 0.0
H181 H 0.15341 0.08735 0.52195 0.0
H182 H 0.16111 0.05749 0.53039 0.0
H183 H 0.11216 0.03549 0.5157 0.0
H184 H 0.10406 0.06529 0.50728 0.0
H185 H 0.13954 0.13263 0.45343 0.0
H186 H 0.14151 0.12983 0.47564 0.0
H187 H 0.09003 0.10291 0.47633 0.0
H188 H 0.08739 0.10665 0.45422 0.0
H189 H 0.12116 0.08618 0.49071 0.0
H190 H 0.08739 0.14135 0.48478 0.0
H191 H 0.08214 0.17137 0.47576 0.0
H192 H 0.13181 0.19047 0.49122 0.0
H193 H 0.13749 0.16046 0.50017 0.0
C194 C 0.11763 0.09874 0.54988 0.0
C195 C 0.12908 0.11119 0.55566 0.0
C196 C 0.11525 0.09915 0.53721 0.0
C197 C 0.12483 0.11155 0.52999 0.0
C198 C 0.13663 0.12369 0.53573 0.0
C199 C 0.1387 0.12354 0.54841 0.0
C200 C 0.12238 0.1122 0.5165 0.0
C201 C 0.11898 0.12898 0.51099 0.0
C202 C 0.12318 0.09654 0.50908 0.0
C203 C 0.12805 0.07859 0.5141 0.0
C204 C 0.14423 0.07617 0.52059 0.0
C205 C 0.14868 0.05925 0.52536 0.0
C206 C 0.13711 0.04461 0.52361 0.0
C207 C 0.12109 0.04685 0.51706 0.0
C208 C 0.11658 0.06375 0.51228 0.0
C209 C 0.12862 0.12608 0.45828 0.0
C210 C 0.11353 0.11937 0.45196 0.0
C211 C 0.12982 0.12445 0.47096 0.0
C212 C 0.116 0.11602 0.47755 0.0
C213 C 0.10096 0.1092 0.47133 0.0
C214 C 0.09961 0.11109 0.45865 0.0
C215 C 0.1171 0.11489 0.49101 0.0
C216 C 0.12022 0.09808 0.49645 0.0
C217 C 0.1164 0.13053 0.49835 0.0
C218 C 0.11295 0.14861 0.49304 0.0
C219 C 0.09728 0.1519 0.48616 0.0
C220 C 0.0942 0.16893 0.48108 0.0
C221 C 0.10666 0.18281 0.48289 0.0
C222 C 0.12218 0.1797 0.48981 0.0
C223 C 0.12533 0.16269 0.4949 0.0
H224 H 0.10425 0.19598 0.47895 0.0
H225 H 0.14057 0.03153 0.52731 0.0
H226 H 0.92046 0.6321 0.69829 0.0
H227 H 0.91782 0.63037 0.7205 0.0
H228 H 0.86051 0.62143 0.71706 0.0
H229 H 0.86312 0.62366 0.6948 0.0
H230 H 0.86554 0.64423 0.73392 0.0
H231 H 0.89117 0.58668 0.72563 0.0
H232 H 0.91254 0.56454 0.71708 0.0
H233 H 0.95592 0.58917 0.73695 0.0
H234 H 0.93483 0.61153 0.74559 0.0
H235 H 0.88248 0.60405 0.79916 0.0
H236 H 0.88302 0.60071 0.77692 0.0
H237 H 0.88776 0.65843 0.773 0.0
H238 H 0.88696 0.6618 0.79521 0.0
H239 H 0.90651 0.60779 0.75991 0.0
H240 H 0.86629 0.67293 0.74803 0.0
H241 H 0.84204 0.69159 0.75688 0.0
H242 H 0.8227 0.64599 0.77721 0.0
H243 H 0.84667 0.627 0.76836 0.0
C244 C 0.90737 0.62942 0.70228 0.0
C245 C 0.89204 0.62768 0.69485 0.0
C246 C 0.90586 0.62843 0.71498 0.0
C247 C 0.88902 0.6254 0.72049 0.0
C248 C 0.87367 0.62371 0.71304 0.0
C249 C 0.87515 0.62496 0.70034 0.0
C250 C 0.8873 0.62495 0.73402 0.0
C251 C 0.87446 0.63619 0.73958 0.0
C252 C 0.89865 0.61418 0.74145 0.0
C253 C 0.91143 0.60086 0.73619 0.0
C254 C 0.90529 0.58746 0.72811 0.0
C255 C 0.91735 0.57485 0.72326 0.0
C256 C 0.93558 0.57548 0.72645 0.0
C257 C 0.94179 0.58871 0.73449 0.0
C258 C 0.92979 0.60132 0.73939 0.0
C259 C 0.88395 0.61598 0.79355 0.0
C260 C 0.88493 0.63317 0.79889 0.0
C261 C 0.88413 0.61407 0.78084 0.0
C262 C 0.88525 0.62932 0.77327 0.0
C263 C 0.88653 0.64648 0.77863 0.0
C264 C 0.88614 0.6484 0.79132 0.0
C265 C 0.88504 0.62736 0.75976 0.0
C266 C 0.89753 0.61572 0.75422 0.0
C267 C 0.87297 0.63731 0.75233 0.0
C268 C 0.85839 0.64859 0.75761 0.0
C269 C 0.85682 0.66687 0.75435 0.0
C270 C 0.84313 0.67751 0.75937 0.0
C271 C 0.83087 0.67 0.76763 0.0
C272 C 0.83225 0.65181 0.77085 0.0
C273 C 0.84589 0.64111 0.76584 0.0
H274 H 0.82029 0.67826 0.77151 0.0
H275 H 0.94489 0.56568 0.72272 0.0
H276 H 0.39498 0.39171 0.94695 0.0
H277 H 0.3954 0.39428 0.96906 0.0
H278 H 0.35375 0.3538 0.97157 0.0
H279 H 0.35202 0.3526 0.94932 0.0
H280 H 0.3468 0.37798 0.98731 0.0
H281 H 0.40071 0.34545 0.97728 0.0
H282 H 0.42962 0.33993 0.96679 0.0
H283 H 0.4517 0.38806 0.98263 0.0
H284 H 0.42284 0.39397 0.99312 0.0
H285 H 0.36312 0.35284 0.04935 0.0
H286 H 0.36192 0.35268 0.02701 0.0
H287 H 0.39131 0.4028 0.02601 0.0
H288 H 0.3917 0.40357 0.04832 0.0
H289 H 0.40472 0.37446 0.00987 0.0
H290 H 0.34978 0.40553 0.02048 0.0
H291 H 0.32082 0.40918 0.03127 0.0
H292 H 0.30078 0.36083 0.01452 0.0
H293 H 0.32973 0.35675 0.00376 0.0
C294 C 0.38539 0.38392 0.95212 0.0
C295 C 0.373 0.37249 0.94628 0.0
C296 C 0.386 0.38499 0.96486 0.0
C297 C 0.37475 0.37407 0.97206 0.0
C298 C 0.36253 0.36243 0.96625 0.0
C299 C 0.36164 0.36168 0.95351 0.0
C300 C 0.37561 0.37483 0.98564 0.0
C301 C 0.35947 0.37695 0.99221 0.0
C302 C 0.39215 0.37383 0.99211 0.0
C303 C 0.40957 0.37024 0.98589 0.0
C304 C 0.4117 0.35491 0.97847 0.0
C305 C 0.42808 0.35171 0.97253 0.0
C306 C 0.44247 0.36366 0.97402 0.0
C307 C 0.44053 0.37882 0.98148 0.0
C308 C 0.42418 0.38209 0.98744 0.0
C309 C 0.36931 0.36386 0.04438 0.0
C310 C 0.37804 0.37794 0.05063 0.0
C311 C 0.36863 0.36372 0.03163 0.0
C312 C 0.37666 0.37766 0.0249 0.0
C313 C 0.38528 0.39179 0.03107 0.0
C314 C 0.38575 0.39206 0.04384 0.0
C315 C 0.37596 0.37747 0.01139 0.0
C316 C 0.39211 0.37547 0.00489 0.0
C317 C 0.35943 0.37826 0.00499 0.0
C318 C 0.34199 0.38074 0.01141 0.0
C319 C 0.33925 0.39559 0.01918 0.0
C320 C 0.32283 0.39776 0.02527 0.0
C321 C 0.30898 0.38522 0.0236 0.0
C322 C 0.31152 0.37052 0.01581 0.0
C323 C 0.32793 0.36828 0.00971 0.0
H324 H 0.29628 0.38692 0.02833 0.0
H325 H 0.45514 0.36116 0.96941 0.0
H326 H 0.5916 0.88638 0.20261 0.0
H327 H 0.59222 0.88861 0.22489 0.0
H328 H 0.65036 0.8865 0.22426 0.0
H329 H 0.64977 0.88435 0.20193 0.0
H330 H 0.6371 0.8647 0.24132 0.0
H331 H 0.62694 0.92627 0.22896 0.0
H332 H 0.61117 0.95118 0.21851 0.0
H333 H 0.56309 0.93988 0.23895 0.0
H334 H 0.57846 0.91469 0.24939 0.0
H335 H 0.65537 0.89208 0.30183 0.0
H336 H 0.65334 0.89045 0.27955 0.0
H337 H 0.59529 0.8928 0.28186 0.0
H338 H 0.59729 0.89434 0.30414 0.0
H339 H 0.60743 0.91443 0.26401 0.0
H340 H 0.61665 0.85319 0.27616 0.0
H341 H 0.63162 0.82796 0.28678 0.0
H342 H 0.68035 0.83811 0.26673 0.0
H343 H 0.66573 0.86357 0.25611 0.0
C344 C 0.60451 0.88682 0.20721 0.0
C345 C 0.62066 0.88572 0.20054 0.0
C346 C 0.60485 0.88797 0.21994 0.0
C347 C 0.62135 0.88808 0.22623 0.0
C348 C 0.63748 0.88656 0.21959 0.0
C349 C 0.63714 0.88533 0.20686 0.0
C350 C 0.62183 0.88931 0.23975 0.0
C351 C 0.63083 0.87572 0.24627 0.0
C352 C 0.61311 0.90337 0.24622 0.0
C353 C 0.60382 0.91847 0.23988 0.0
C354 C 0.61295 0.92898 0.23115 0.0
C355 C 0.60409 0.94317 0.22524 0.0
C356 C 0.58614 0.9471 0.22807 0.0
C357 C 0.57699 0.93681 0.23678 0.0
C358 C 0.58578 0.92258 0.24269 0.0
C359 C 0.64219 0.89226 0.29757 0.0
C360 C 0.6265 0.89371 0.3047 0.0
C361 C 0.64103 0.89129 0.28486 0.0
C362 C 0.62415 0.89141 0.27904 0.0
C363 C 0.60846 0.89285 0.28615 0.0
C364 C 0.60962 0.89389 0.29887 0.0
C365 C 0.6229 0.88994 0.26555 0.0
C366 C 0.6137 0.90343 0.25905 0.0
C367 C 0.63131 0.87573 0.25907 0.0
C368 C 0.64014 0.8604 0.26542 0.0
C369 C 0.6306 0.85013 0.27409 0.0
C370 C 0.63902 0.83577 0.28009 0.0
C371 C 0.65694 0.83146 0.27745 0.0
C372 C 0.66647 0.84148 0.26878 0.0
C373 C 0.65812 0.85586 0.26275 0.0
H374 H 0.66343 0.82034 0.28211 0.0
H375 H 0.57934 0.95815 0.22354 0.0
H376 H 0.10939 0.33737 0.79089 0.0
H377 H 0.11157 0.3435 0.76898 0.0
H378 H 0.11267 0.40066 0.77629 0.0
H379 H 0.11048 0.39457 0.79822 0.0
H380 H 0.09203 0.39375 0.75681 0.0
H381 H 0.15136 0.37813 0.77013 0.0
H382 H 0.17453 0.35956 0.7803 0.0
H383 H 0.16299 0.31562 0.756 0.0
H384 H 0.13958 0.33385 0.74579 0.0
H385 H 0.15115 0.39106 0.6968 0.0
H386 H 0.14771 0.39161 0.71904 0.0
H387 H 0.09235 0.37456 0.71534 0.0
H388 H 0.09579 0.37391 0.69315 0.0
H389 H 0.1415 0.36472 0.73349 0.0
H390 H 0.0675 0.38952 0.73994 0.0
H391 H 0.04611 0.41136 0.73104 0.0
H392 H 0.09019 0.44204 0.71642 0.0
H393 H 0.11187 0.4205 0.72534 0.0
C394 C 0.10997 0.35124 0.78781 0.0
C395 C 0.10948 0.3655 0.79624 0.0
C396 C 0.11125 0.35473 0.7753 0.0
C397 C 0.11243 0.37254 0.77101 0.0
C398 C 0.11164 0.38682 0.7794 0.0
C399 C 0.11024 0.38333 0.79192 0.0
C400 C 0.1151 0.37618 0.7578 0.0
C401 C 0.10283 0.38742 0.75168 0.0
C402 C 0.12948 0.36829 0.75119 0.0
C403 C 0.14362 0.35731 0.75727 0.0
C404 C 0.15368 0.36446 0.76701 0.0
C405 C 0.16687 0.35401 0.77278 0.0
C406 C 0.1702 0.33641 0.76882 0.0
C407 C 0.16039 0.32925 0.75906 0.0
C408 C 0.14717 0.33964 0.75328 0.0
C409 C 0.1382 0.38763 0.70075 0.0
C410 C 0.12363 0.38281 0.69324 0.0
C411 C 0.13624 0.38798 0.71344 0.0
C412 C 0.1197 0.38339 0.71887 0.0
C413 C 0.10509 0.37864 0.71137 0.0
C414 C 0.10705 0.37836 0.69867 0.0
C415 C 0.1182 0.38204 0.73236 0.0
C416 C 0.1307 0.37115 0.73857 0.0
C417 C 0.10425 0.39059 0.73905 0.0
C418 C 0.09132 0.40327 0.73324 0.0
C419 C 0.07264 0.40091 0.73482 0.0
C420 C 0.06047 0.41324 0.72977 0.0
C421 C 0.06679 0.42806 0.72317 0.0
C422 C 0.08531 0.43051 0.72151 0.0
C423 C 0.09755 0.41821 0.72653 0.0
H424 H 0.05734 0.43768 0.71939 0.0
H425 H 0.18041 0.32833 0.77329 0.0
H426 H 0.62444 0.6457 0.9532 0.0
H427 H 0.62648 0.64341 0.97544 0.0
H428 H 0.61832 0.58592 0.97318 0.0
H429 H 0.6164 0.58813 0.9509 0.0
H430 H 0.59924 0.60049 0.99202 0.0
H431 H 0.65999 0.60237 0.97738 0.0
H432 H 0.68571 0.61427 0.9656 0.0
H433 H 0.68295 0.66405 0.98552 0.0
H434 H 0.65704 0.65253 0.99732 0.0
H435 H 0.62915 0.58407 0.05311 0.0
H436 H 0.62514 0.58374 0.03093 0.0
H437 H 0.63625 0.64085 0.02962 0.0
H438 H 0.64057 0.64111 0.05177 0.0
H439 H 0.65399 0.6244 0.0124 0.0
H440 H 0.59225 0.62248 0.02664 0.0
H441 H 0.56685 0.61002 0.03848 0.0
H442 H 0.57193 0.55959 0.01956 0.0
H443 H 0.5975 0.5717 0.00766 0.0
C444 C 0.62298 0.63259 0.95745 0.0
C445 C 0.61996 0.61714 0.95033 0.0
C446 C 0.62417 0.63129 0.97015 0.0
C447 C 0.62268 0.61447 0.97596 0.0
C448 C 0.61937 0.59904 0.96889 0.0
C449 C 0.61811 0.60035 0.95616 0.0
C450 C 0.62517 0.61299 0.98937 0.0
C451 C 0.6113 0.60551 0.99648 0.0
C452 C 0.64083 0.6197 0.99519 0.0
C453 C 0.65647 0.62664 0.98816 0.0
C454 C 0.66478 0.6159 0.97919 0.0
C455 C 0.67941 0.62257 0.97252 0.0
C456 C 0.68593 0.63992 0.97479 0.0
C457 C 0.67787 0.65062 0.98376 0.0
C458 C 0.66323 0.64402 0.99045 0.0
C459 C 0.63038 0.5966 0.0481 0.0
C460 C 0.63479 0.61269 0.05415 0.0
C461 C 0.62815 0.59639 0.03542 0.0
C462 C 0.63007 0.61234 0.02861 0.0
C463 C 0.63464 0.62839 0.03467 0.0
C464 C 0.63708 0.62854 0.04732 0.0
C465 C 0.62789 0.61231 0.01512 0.0
C466 C 0.6419 0.6194 0.00797 0.0
C467 C 0.61239 0.60518 0.00929 0.0
C468 C 0.59687 0.59796 0.01632 0.0
C469 C 0.58801 0.60871 0.02504 0.0
C470 C 0.57356 0.60172 0.03175 0.0
C471 C 0.56777 0.58404 0.02976 0.0
C472 C 0.57641 0.5733 0.02106 0.0
C473 C 0.59086 0.58023 0.01432 0.0
H474 H 0.55658 0.57866 0.03496 0.0
H475 H 0.69726 0.64506 0.96962 0.0
H476 H 0.3389 0.10388 0.20034 0.0
H477 H 0.34129 0.10531 0.22263 0.0
H478 H 0.39652 0.12297 0.21941 0.0
H479 H 0.39415 0.12162 0.19716 0.0
H480 H 0.39302 0.09911 0.23779 0.0
H481 H 0.36282 0.15313 0.22427 0.0
H482 H 0.33928 0.17037 0.21344 0.0
H483 H 0.29843 0.14511 0.23536 0.0
H484 H 0.32173 0.12755 0.24621 0.0
H485 H 0.37633 0.15723 0.29613 0.0
H486 H 0.37587 0.15265 0.27401 0.0
H487 H 0.37137 0.0952 0.27947 0.0
H488 H 0.37152 0.09976 0.3016 0.0
H489 H 0.35017 0.13877 0.25994 0.0
H490 H 0.39285 0.0738 0.25548 0.0
H491 H 0.41822 0.05849 0.26576 0.0
H492 H 0.4371 0.10929 0.27951 0.0
H493 H 0.41197 0.12492 0.26923 0.0
C494 C 0.35158 0.10792 0.20441 0.0
C495 C 0.36644 0.11234 0.19704 0.0
C496 C 0.35293 0.10874 0.21713 0.0
C497 C 0.36906 0.11434 0.22268 0.0
C498 C 0.38401 0.11844 0.21532 0.0
C499 C 0.38269 0.11753 0.20261 0.0
C500 C 0.37011 0.11681 0.2361 0.0
C501 C 0.38361 0.10772 0.24266 0.0
C502 C 0.35801 0.12825 0.24241 0.0
C503 C 0.344 0.13891 0.23597 0.0
C504 C 0.34881 0.15117 0.22672 0.0
C505 C 0.33551 0.16101 0.22059 0.0
C506 C 0.31736 0.15881 0.22369 0.0
C507 C 0.31249 0.14679 0.23296 0.0
C508 C 0.32573 0.1369 0.23911 0.0
C509 C 0.37534 0.14362 0.29261 0.0
C510 C 0.37445 0.12881 0.30059 0.0
C511 C 0.37507 0.14102 0.27998 0.0
C512 C 0.37384 0.12357 0.27509 0.0
C513 C 0.37276 0.10875 0.28305 0.0
C514 C 0.37303 0.11136 0.29569 0.0
C515 C 0.37304 0.12101 0.26167 0.0
C516 C 0.35953 0.13006 0.25511 0.0
C517 C 0.38532 0.10976 0.25536 0.0
C518 C 0.40041 0.1005 0.26167 0.0
C519 C 0.40243 0.0817 0.26069 0.0
C520 C 0.41676 0.07297 0.26651 0.0
C521 C 0.42924 0.08291 0.27329 0.0
C522 C 0.42739 0.1016 0.27429 0.0
C523 C 0.41307 0.1104 0.26849 0.0
H524 H 0.44039 0.07614 0.27772 0.0
H525 H 0.30709 0.16643 0.21893 0.0
H526 H 0.87869 0.88654 0.44421 0.0
H527 H 0.87915 0.89457 0.46582 0.0
H528 H 0.91132 0.84739 0.47358 0.0
H529 H 0.91052 0.83915 0.45193 0.0
H530 H 0.8856 0.8481 0.48854 0.0
H531 H 0.92845 0.89204 0.47701 0.0
H532 H 0.94264 0.917 0.46569 0.0
H533 H 0.89861 0.95188 0.47516 0.0
H534 H 0.88412 0.92711 0.48657 0.0
H535 H 0.89641 0.87617 0.55104 0.0
H536 H 0.90575 0.87354 0.52961 0.0
H537 H 0.85585 0.89815 0.51819 0.0
H538 H 0.84624 0.90042 0.5396 0.0
H539 H 0.8945 0.9092 0.50598 0.0
H540 H 0.85105 0.86034 0.51541 0.0
H541 H 0.84095 0.83502 0.52835 0.0
H542 H 0.89212 0.80884 0.52348 0.0
H543 H 0.90258 0.83418 0.51067 0.0
C544 C 0.8863 0.87818 0.45047 0.0
C545 C 0.89479 0.86236 0.44639 0.0
C546 C 0.88657 0.88278 0.46285 0.0
C547 C 0.8955 0.87175 0.47136 0.0
C548 C 0.90437 0.85615 0.46721 0.0
C549 C 0.9039 0.85144 0.45485 0.0
C550 C 0.8939 0.87544 0.48468 0.0
C551 C 0.88791 0.86142 0.49231 0.0
C552 C 0.89678 0.89281 0.48973 0.0
C553 C 0.90511 0.90764 0.48256 0.0
C554 C 0.92168 0.90497 0.47658 0.0
C555 C 0.92982 0.91911 0.47018 0.0
C556 C 0.92149 0.936 0.46965 0.0
C557 C 0.90503 0.93878 0.47556 0.0
C558 C 0.89687 0.92471 0.48203 0.0
C559 C 0.88764 0.88141 0.54397 0.0
C560 C 0.87068 0.88862 0.54693 0.0
C561 C 0.89296 0.87985 0.53177 0.0
C562 C 0.88151 0.88577 0.52239 0.0
C563 C 0.8649 0.89367 0.52534 0.0
C564 C 0.8594 0.89486 0.53753 0.0
C565 C 0.88599 0.88199 0.50951 0.0
C566 C 0.89245 0.89593 0.50206 0.0
C567 C 0.88402 0.86449 0.50465 0.0
C568 C 0.87766 0.84922 0.51223 0.0
C569 C 0.86019 0.84926 0.51721 0.0
C570 C 0.85439 0.8349 0.52449 0.0
C571 C 0.86591 0.82036 0.52677 0.0
C572 C 0.88323 0.82013 0.52173 0.0
C573 C 0.88909 0.83448 0.51446 0.0
H574 H 0.8614 0.80925 0.53241 0.0
H575 H 0.92783 0.94695 0.46472 0.0
H576 H 0.96278 0.92316 0.4455 0.0
H577 H 0.98133 0.95008 0.44788 0.0
H578 H 0.93728 0.98312 0.43512 0.0
H579 H 0.91864 0.95615 0.43257 0.0
H580 H 0.96804 0.99164 0.42376 0.0
H581 H 0.94942 0.98328 0.46496 0.0
H582 H 0.94419 0.96637 0.48403 0.0
H583 H 0.00105 0.95674 0.48753 0.0
H584 H 0.00662 0.97335 0.46837 0.0
H585 H 0.01378 0.07329 0.43664 0.0
H586 H 0.99133 0.04924 0.43793 0.0
H587 H 0.03287 0.01144 0.4482 0.0
H588 H 0.05544 0.03544 0.44699 0.0
H589 H 0.00137 0.00698 0.46167 0.0
H590 H 0.01912 0.01285 0.41939 0.0
H591 H 0.0241 0.02929 0.40009 0.0
H592 H 0.96801 0.0436 0.3988 0.0
H593 H 0.96276 0.02743 0.41819 0.0
C594 C 0.95697 0.93615 0.44328 0.0
C595 C 0.93925 0.93751 0.43881 0.0
C596 C 0.96757 0.95155 0.44471 0.0
C597 C 0.96064 0.96863 0.44179 0.0
C598 C 0.94288 0.97006 0.43744 0.0
C599 C 0.93226 0.95465 0.436 0.0
C600 C 0.97228 0.98483 0.44268 0.0
C601 C 0.97504 0.9952 0.43212 0.0
C602 C 0.98168 0.98926 0.45353 0.0
C603 C 0.97843 0.97946 0.46517 0.0
C604 C 0.96081 0.97746 0.46975 0.0
C605 C 0.95778 0.96794 0.48058 0.0
C606 C 0.97227 0.96045 0.48697 0.0
C607 C 0.98983 0.96253 0.48256 0.0
C608 C 0.99294 0.97202 0.47173 0.0
C609 C 0.01815 0.0599 0.43927 0.0
C610 C 0.03644 0.05624 0.44161 0.0
C611 C 0.00529 0.04617 0.43998 0.0
C612 C 0.01048 0.02854 0.44304 0.0
C613 C 0.0286 0.02497 0.44582 0.0
C614 C 0.04149 0.03868 0.44507 0.0
C615 C 0.99718 0.01362 0.44273 0.0
C616 C 0.99417 0.0035 0.45337 0.0
C617 C 0.98746 0.00943 0.43197 0.0
C618 C 0.99059 0.01911 0.4203 0.0
C619 C 0.00788 0.01963 0.41504 0.0
C620 C 0.01075 0.02888 0.40408 0.0
C621 C 0.99639 0.03753 0.39824 0.0
C622 C 0.97913 0.03692 0.40334 0.0
C623 C 0.9762 0.02771 0.41431 0.0
H624 H 0.99863 0.04468 0.38976 0.0
H625 H 0.96989 0.95307 0.49535 0.0
H626 H 0.07306 0.46411 0.6965 0.0
H627 H 0.04921 0.48603 0.70042 0.0
H628 H 0.00902 0.44529 0.69338 0.0
H629 H 0.03284 0.42333 0.68921 0.0
H630 H 0.00176 0.475 0.68103 0.0
H631 H 0.0166 0.46122 0.72214 0.0
H632 H 0.03663 0.4564 0.7398 0.0
H633 H 0.05288 0.51193 0.73853 0.0
H634 H 0.03324 0.51702 0.72067 0.0
H635 H 0.93038 0.53393 0.69564 0.0
H636 H 0.95091 0.50843 0.69829 0.0
H637 H 0.9959 0.54505 0.70093 0.0
H638 H 0.97546 0.57067 0.69833 0.0
H639 H 0.99856 0.51544 0.71707 0.0
H640 H 0.98679 0.52728 0.67424 0.0
H641 H 0.96722 0.53165 0.65626 0.0
H642 H 0.94502 0.47868 0.66122 0.0
H643 H 0.9643 0.47409 0.67934 0.0
C644 C 0.05915 0.45976 0.69588 0.0
C645 C 0.05484 0.44201 0.69245 0.0
C646 C 0.04552 0.47228 0.69821 0.0
C647 C 0.02732 0.46727 0.69729 0.0
C648 C 0.02298 0.44945 0.69414 0.0
C649 C 0.0366 0.43692 0.69177 0.0
C650 C 0.01289 0.48097 0.69875 0.0
C651 C 0.00084 0.48356 0.68904 0.0
C652 C 0.01189 0.49237 0.70911 0.0
C653 C 0.02352 0.48947 0.71999 0.0
C654 C 0.02453 0.47239 0.72556 0.0
C655 C 0.03582 0.4696 0.73561 0.0
C656 C 0.04604 0.48385 0.74027 0.0
C657 C 0.04496 0.50091 0.7349 0.0
C658 C 0.03374 0.50375 0.72481 0.0
C659 C 0.94461 0.5366 0.69695 0.0
C660 C 0.95134 0.55432 0.69657 0.0
C661 C 0.95631 0.522 0.69847 0.0
C662 C 0.97493 0.52487 0.69965 0.0
C663 C 0.98157 0.54257 0.70002 0.0
C664 C 0.96988 0.55718 0.69845 0.0
C665 C 0.98764 0.50946 0.69931 0.0
C666 C 0.99937 0.50662 0.70919 0.0
C667 C 0.98834 0.49772 0.68914 0.0
C668 C 0.97682 0.50043 0.67821 0.0
C669 C 0.97762 0.51662 0.67155 0.0
C670 C 0.96661 0.51913 0.66133 0.0
C671 C 0.95484 0.50547 0.65762 0.0
C672 C 0.95411 0.48926 0.66411 0.0
C673 C 0.96508 0.48669 0.67435 0.0
H674 H 0.94632 0.50744 0.6497 0.0
H675 H 0.05477 0.48167 0.74806 0.0
H676 H 0.51852 0.57281 0.93358 0.0
H677 H 0.49583 0.54918 0.93569 0.0
H678 H 0.53588 0.51345 0.95093 0.0
H679 H 0.55876 0.53695 0.94868 0.0
H680 H 0.51681 0.49694 0.93359 0.0
H681 H 0.50317 0.53223 0.96895 0.0
H682 H 0.49615 0.5599 0.98049 0.0
H683 H 0.44781 0.56715 0.95946 0.0
H684 H 0.45466 0.53964 0.94768 0.0
H685 H 0.45492 0.42871 0.95043 0.0
H686 H 0.47723 0.45283 0.95199 0.0
H687 H 0.4399 0.48997 0.93523 0.0
H688 H 0.41741 0.46596 0.93372 0.0
H689 H 0.45796 0.50535 0.9544 0.0
H690 H 0.47254 0.47107 0.91839 0.0
H691 H 0.4796 0.44349 0.90675 0.0
H692 H 0.52637 0.43453 0.92907 0.0
H693 H 0.51945 0.46194 0.94096 0.0
C694 C 0.5225 0.55998 0.93747 0.0
C695 C 0.54047 0.55676 0.94095 0.0
C696 C 0.50947 0.5465 0.93872 0.0
C697 C 0.51411 0.5296 0.94358 0.0
C698 C 0.532 0.52641 0.94718 0.0
C699 C 0.54505 0.53987 0.94591 0.0
C700 C 0.50049 0.51499 0.94434 0.0
C701 C 0.50408 0.49867 0.93833 0.0
C702 C 0.4837 0.51741 0.95028 0.0
C703 C 0.47952 0.53395 0.95736 0.0
C704 C 0.49111 0.5398 0.96672 0.0
C705 C 0.48715 0.55544 0.97332 0.0
C706 C 0.47157 0.5653 0.97069 0.0
C707 C 0.45989 0.55951 0.96148 0.0
C708 C 0.46379 0.54388 0.95485 0.0
C709 C 0.45138 0.44203 0.94714 0.0
C710 C 0.43443 0.44538 0.94185 0.0
C711 C 0.46418 0.45579 0.94802 0.0
C712 C 0.4603 0.47312 0.94358 0.0
C713 C 0.44317 0.47667 0.93868 0.0
C714 C 0.43036 0.46292 0.93779 0.0
C715 C 0.4743 0.48737 0.94363 0.0
C716 C 0.47076 0.50361 0.94975 0.0
C717 C 0.49115 0.4849 0.9378 0.0
C718 C 0.49536 0.46844 0.93065 0.0
C719 C 0.48425 0.46313 0.92088 0.0
C720 C 0.48824 0.44755 0.91423 0.0
C721 C 0.50339 0.43724 0.9172 0.0
C722 C 0.51462 0.44252 0.9268 0.0
C723 C 0.51067 0.45808 0.93349 0.0
H724 H 0.50646 0.42518 0.91203 0.0
H725 H 0.46853 0.57741 0.97581 0.0
H726 H 0.57348 0.9843 0.19308 0.0
H727 H 0.549 0.00556 0.19693 0.0
H728 H 0.5162 0.96235 0.21118 0.0
H729 H 0.54051 0.94091 0.2071 0.0
H730 H 0.4981 0.9808 0.19487 0.0
H731 H 0.53345 0.99576 0.22953 0.0
H732 H 0.56079 0.00422 0.241 0.0
H733 H 0.56359 0.05426 0.22137 0.0
H734 H 0.5365 0.04595 0.20959 0.0
H735 H 0.42645 0.03926 0.21033 0.0
H736 H 0.45201 0.019 0.21361 0.0
H737 H 0.48694 0.05615 0.19468 0.0
H738 H 0.46146 0.07652 0.19134 0.0
H739 H 0.50314 0.04013 0.21551 0.0
H740 H 0.47028 0.02273 0.17919 0.0
H741 H 0.44305 0.01406 0.16767 0.0
H742 H 0.43573 0.96818 0.1911 0.0
H743 H 0.46281 0.97674 0.20287 0.0
C744 C 0.56114 0.97934 0.19717 0.0
C745 C 0.55886 0.96089 0.19966 0.0
C746 C 0.54718 0.99155 0.19944 0.0
C747 C 0.53077 0.98558 0.2044 0.0
C748 C 0.52872 0.96725 0.20731 0.0
C749 C 0.54263 0.95502 0.20497 0.0
C750 C 0.51527 0.99815 0.20556 0.0
C751 C 0.49913 0.99359 0.19963 0.0
C752 C 0.5167 0.01504 0.21152 0.0
C753 C 0.53299 0.02015 0.21861 0.0
C754 C 0.53998 0.00851 0.22759 0.0
C755 C 0.55543 0.01328 0.23415 0.0
C756 C 0.56392 0.02976 0.23191 0.0
C757 C 0.55699 0.0415 0.2231 0.0
C758 C 0.54159 0.03676 0.21647 0.0
C759 C 0.4396 0.04325 0.207 0.0
C760 C 0.44188 0.05941 0.20044 0.0
C761 C 0.45419 0.03165 0.20889 0.0
C762 C 0.4713 0.03602 0.20429 0.0
C763 C 0.47383 0.05256 0.19831 0.0
C764 C 0.45923 0.06412 0.19634 0.0
C765 C 0.48619 0.02272 0.20479 0.0
C766 C 0.50216 0.02719 0.21095 0.0
C767 C 0.48464 0.00569 0.19908 0.0
C768 C 0.46843 0.00049 0.19199 0.0
C769 C 0.46277 0.01088 0.18194 0.0
C770 C 0.44739 0.00597 0.17536 0.0
C771 C 0.43763 0.99061 0.17867 0.0
C772 C 0.44328 0.9801 0.18856 0.0
C773 C 0.45865 0.98496 0.19518 0.0
H774 H 0.42573 0.98683 0.17356 0.0
H775 H 0.57587 0.03344 0.23701 0.0
H776 H 0.94544 0.55456 0.80011 0.0
H777 H 0.96782 0.53037 0.79886 0.0
H778 H 0.97506 0.53251 0.83793 0.0
H779 H 0.95295 0.55682 0.83925 0.0
H780 H 0.0069 0.53095 0.82639 0.0
H781 H 0.95039 0.49899 0.82451 0.0
H782 H 0.92024 0.49187 0.81632 0.0
H783 H 0.94356 0.47928 0.78145 0.0
H784 H 0.97383 0.48655 0.78939 0.0
H785 H 0.05023 0.44802 0.83818 0.0
H786 H 0.0291 0.4732 0.83718 0.0
H787 H 0.02564 0.46721 0.79805 0.0
H788 H 0.04666 0.44177 0.79898 0.0
H789 H 0.99272 0.4714 0.80813 0.0
H790 H 0.04949 0.50171 0.81037 0.0
H791 H 0.07963 0.50861 0.81865 0.0
H792 H 0.05593 0.52429 0.85282 0.0
H793 H 0.02565 0.51724 0.84481 0.0
C794 C 0.95178 0.54986 0.80844 0.0
C795 C 0.94739 0.5576 0.81979 0.0
C796 C 0.96452 0.53599 0.80771 0.0
C797 C 0.973 0.52953 0.81832 0.0
C798 C 0.9687 0.5373 0.82963 0.0
C799 C 0.956 0.55116 0.83037 0.0
C800 C 0.98649 0.51479 0.81768 0.0
C801 C 0.00374 0.51786 0.82252 0.0
C802 C 0.98253 0.49789 0.8123 0.0
C803 C 0.96434 0.49351 0.80751 0.0
C804 C 0.94907 0.49485 0.81507 0.0
C805 C 0.93196 0.49076 0.81047 0.0
C806 C 0.92998 0.48518 0.79836 0.0
C807 C 0.94511 0.48363 0.79082 0.0
C808 C 0.96224 0.48773 0.79537 0.0
C809 C 0.04504 0.45207 0.82934 0.0
C810 C 0.05016 0.4429 0.81865 0.0
C811 C 0.03301 0.46653 0.82879 0.0
C812 C 0.02596 0.47222 0.81753 0.0
C813 C 0.03097 0.46306 0.80683 0.0
C814 C 0.04301 0.44857 0.80738 0.0
C815 C 0.01305 0.48748 0.817 0.0
C816 C 0.99592 0.48452 0.81194 0.0
C817 C 0.01712 0.50449 0.82217 0.0
C818 C 0.03531 0.50879 0.82702 0.0
C819 C 0.05071 0.50649 0.81968 0.0
C820 C 0.06782 0.51046 0.82432 0.0
C821 C 0.0697 0.51685 0.83626 0.0
C822 C 0.05446 0.51932 0.84357 0.0
C823 C 0.03732 0.51536 0.83899 0.0
H824 H 0.08295 0.51991 0.83983 0.0
H825 H 0.91673 0.48201 0.79482 0.0
H826 H 0.43786 0.47002 0.06828 0.0
H827 H 0.46247 0.49103 0.06438 0.0
H828 H 0.48976 0.45067 0.04284 0.0
H829 H 0.46528 0.42937 0.04692 0.0
H830 H 0.51252 0.46607 0.05818 0.0
H831 H 0.46953 0.48752 0.02929 0.0
H832 H 0.43991 0.49795 0.02189 0.0
H833 H 0.44204 0.54304 0.04644 0.0
H834 H 0.47158 0.53275 0.05412 0.0
H835 H 0.57994 0.52929 0.04057 0.0
H836 H 0.5546 0.50833 0.03861 0.0
H837 H 0.52308 0.54128 0.06306 0.0
H838 H 0.54825 0.56229 0.06505 0.0
H839 H 0.50308 0.52874 0.04359 0.0
H840 H 0.54441 0.50503 0.07384 0.0
H841 H 0.57398 0.49446 0.08128 0.0
H842 H 0.57475 0.45333 0.05369 0.0
H843 H 0.54527 0.46383 0.04598 0.0
C844 C 0.44902 0.46562 0.06264 0.0
C845 C 0.4496 0.448 0.05792 0.0
C846 C 0.46305 0.47771 0.06035 0.0
C847 C 0.47787 0.47253 0.05317 0.0
C848 C 0.47844 0.45498 0.04837 0.0
C849 C 0.46443 0.44283 0.0507 0.0
C850 C 0.49313 0.48517 0.05124 0.0
C851 C 0.51049 0.47964 0.05474 0.0
C852 C 0.49048 0.503 0.04696 0.0
C853 C 0.47272 0.50928 0.04234 0.0
C854 C 0.46363 0.49959 0.03318 0.0
C855 C 0.44686 0.50549 0.02892 0.0
C856 C 0.43908 0.52113 0.03371 0.0
C857 C 0.44808 0.53092 0.04274 0.0
C858 C 0.46485 0.52507 0.04704 0.0
C859 C 0.56756 0.53216 0.04545 0.0
C860 C 0.56619 0.54733 0.05309 0.0
C861 C 0.55311 0.52015 0.04433 0.0
C862 C 0.53705 0.52315 0.05081 0.0
C863 C 0.53537 0.5387 0.058 0.0
C864 C 0.54981 0.55065 0.05917 0.0
C865 C 0.5223 0.50966 0.05068 0.0
C866 C 0.50508 0.51505 0.04684 0.0
C867 C 0.52507 0.49169 0.0546 0.0
C868 C 0.54276 0.48535 0.05924 0.0
C869 C 0.55096 0.49384 0.06929 0.0
C870 C 0.56769 0.48784 0.07357 0.0
C871 C 0.57627 0.47327 0.06793 0.0
C872 C 0.56811 0.46464 0.05803 0.0
C873 C 0.55139 0.4706 0.0537 0.0
H874 H 0.58921 0.46865 0.07126 0.0
H875 H 0.4261 0.52567 0.0304 0.0
H876 H 0.41928 0.03934 0.30804 0.0
H877 H 0.43949 0.01348 0.30596 0.0
H878 H 0.48348 0.04922 0.29715 0.0
H879 H 0.46332 0.07516 0.29905 0.0
H880 H 0.48445 0.01852 0.28329 0.0
H881 H 0.47815 0.0341 0.32596 0.0
H882 H 0.46123 0.04012 0.34492 0.0
H883 H 0.43888 0.98674 0.34381 0.0
H884 H 0.4555 0.98048 0.32474 0.0
H885 H 0.56119 0.96848 0.30211 0.0
H886 H 0.53706 0.99029 0.29862 0.0
H887 H 0.49749 0.95008 0.3082 0.0
H888 H 0.52157 0.92817 0.31181 0.0
H889 H 0.4922 0.981 0.32048 0.0
H890 H 0.50133 0.96412 0.27905 0.0
H891 H 0.51891 0.95786 0.26042 0.0
H892 H 0.53614 0.01309 0.2591 0.0
H893 H 0.51891 0.01963 0.27785 0.0
C894 C 0.43321 0.0417 0.30555 0.0
C895 C 0.43976 0.05933 0.30387 0.0
C896 C 0.44474 0.0269 0.30437 0.0
C897 C 0.46304 0.02945 0.30158 0.0
C898 C 0.46941 0.04696 0.29933 0.0
C899 C 0.45789 0.06177 0.30049 0.0
C900 C 0.47581 0.01406 0.30184 0.0
C901 C 0.48626 0.01037 0.29143 0.0
C902 C 0.47784 0.00318 0.31237 0.0
C903 C 0.4679 0.0069 0.32386 0.0
C904 C 0.46952 0.0237 0.32971 0.0
C905 C 0.46 0.02714 0.34048 0.0
C906 C 0.44895 0.01384 0.34555 0.0
C907 C 0.44743 0.99704 0.33986 0.0
C908 C 0.45689 0.99353 0.32908 0.0
C909 C 0.54735 0.9642 0.30336 0.0
C910 C 0.54331 0.9466 0.3073 0.0
C911 C 0.53356 0.97666 0.30128 0.0
C912 C 0.51547 0.97178 0.30307 0.0
C913 C 0.51136 0.95412 0.30675 0.0
C914 C 0.52515 0.94161 0.30879 0.0
C915 C 0.501 0.98549 0.30197 0.0
C916 C 0.49026 0.98894 0.31225 0.0
C917 C 0.49874 0.9961 0.29132 0.0
C918 C 0.50895 0.99232 0.27994 0.0
C919 C 0.50898 0.97491 0.27484 0.0
C920 C 0.51886 0.97131 0.26425 0.0
C921 C 0.52869 0.98505 0.2586 0.0
C922 C 0.52855 0.00245 0.26349 0.0
C923 C 0.51871 0.00611 0.2741 0.0
H924 H 0.5364 0.98218 0.25045 0.0
H925 H 0.44159 0.01653 0.35389 0.0
H926 H 0.06885 0.02448 0.58013 0.0
H927 H 0.04447 0.00308 0.57647 0.0
H928 H 0.01667 0.04266 0.55455 0.0
H929 H 0.04091 0.06433 0.55835 0.0
H930 H 0.99397 0.02643 0.5699 0.0
H931 H 0.0387 0.00703 0.54128 0.0
H932 H 0.06895 0.99756 0.53449 0.0
H933 H 0.06673 0.95181 0.5585 0.0
H934 H 0.03655 0.96115 0.56557 0.0
H935 H 0.92925 0.9651 0.54662 0.0
H936 H 0.95431 0.98644 0.54764 0.0
H937 H 0.9836 0.94981 0.57096 0.0
H938 H 0.95869 0.92828 0.56989 0.0
H939 H 0.00539 0.96494 0.5538 0.0
H940 H 0.96135 0.98527 0.58306 0.0
H941 H 0.93115 0.99483 0.58993 0.0
H942 H 0.93221 0.03898 0.56454 0.0
H943 H 0.96233 0.02953 0.55741 0.0
C944 C 0.05759 0.02865 0.5745 0.0
C945 C 0.05685 0.04611 0.56951 0.0
C946 C 0.04369 0.01635 0.57236 0.0
C947 C 0.02886 0.02118 0.56509 0.0
C948 C 0.02802 0.03864 0.56016 0.0
C949 C 0.04189 0.05099 0.56232 0.0
C950 C 0.01404 0.00814 0.56291 0.0
C951 C 0.99642 0.0131 0.56618 0.0
C952 C 0.0173 0.99059 0.55831 0.0
C953 C 0.03542 0.98489 0.55403 0.0
C954 C 0.04471 0.99503 0.54518 0.0
C955 C 0.06184 0.98967 0.54127 0.0
C956 C 0.06977 0.97412 0.54608 0.0
C957 C 0.06057 0.96387 0.55479 0.0
C958 C 0.04345 0.96917 0.55875 0.0
C959 C 0.94106 0.96151 0.5519 0.0
C960 C 0.94192 0.94503 0.55824 0.0
C961 C 0.95535 0.97376 0.55251 0.0
C962 C 0.9707 0.96981 0.55951 0.0
C963 C 0.97185 0.95313 0.56553 0.0
C964 C 0.95757 0.94087 0.56493 0.0
C965 C 0.98538 0.98323 0.56084 0.0
C966 C 0.00295 0.97833 0.55743 0.0
C967 C 0.98208 0.00084 0.5653 0.0
C968 C 0.964 0.00657 0.56961 0.0
C969 C 0.95508 0.99693 0.57888 0.0
C970 C 0.93799 0.00234 0.58283 0.0
C971 C 0.92975 0.01747 0.57765 0.0
C972 C 0.9386 0.02725 0.56853 0.0
C973 C 0.95568 0.02187 0.56454 0.0
H974 H 0.91652 0.02165 0.58073 0.0
H975 H 0.08304 0.96999 0.54304 0.0
H976 H 0.32079 0.11957 0.36429 0.0
H977 H 0.29059 0.11563 0.37296 0.0
H978 H 0.27356 0.16552 0.35632 0.0
H979 H 0.3037 0.16966 0.3477 0.0
H980 H 0.27153 0.13829 0.38889 0.0
H981 H 0.22974 0.15889 0.34649 0.0
H982 H 0.23218 0.15802 0.32402 0.0
H983 H 0.26777 0.11246 0.32642 0.0
H984 H 0.26533 0.11289 0.34888 0.0
H985 H 0.18156 0.16347 0.40344 0.0
H986 H 0.21199 0.16251 0.39485 0.0
H987 H 0.20069 0.11062 0.37884 0.0
H988 H 0.17023 0.11137 0.3875 0.0
H989 H 0.21709 0.13507 0.3626 0.0
H990 H 0.22606 0.11112 0.4028 0.0
H991 H 0.22376 0.11072 0.42527 0.0
H992 H 0.25405 0.15995 0.42729 0.0
H993 H 0.25631 0.1608 0.40481 0.0
C994 C 0.31061 0.12969 0.36247 0.0
C995 C 0.31462 0.14492 0.3553 0.0
C996 C 0.2934 0.12744 0.36746 0.0
C997 C 0.27985 0.14022 0.36521 0.0
C998 C 0.28381 0.15543 0.35806 0.0
C999 C 0.30105 0.15779 0.35318 0.0
C1000 C 0.26159 0.1378 0.37041 0.0
C1001 C 0.25962 0.13755 0.38315 0.0
C1002 C 0.24612 0.13658 0.3629 0.0
C1003 C 0.24748 0.13605 0.34938 0.0
C1004 C 0.23803 0.14864 0.34222 0.0
C1005 C 0.23942 0.14823 0.32949 0.0
C1006 C 0.25017 0.13523 0.3238 0.0
C1007 C 0.2595 0.12257 0.33084 0.0
C1008 C 0.25814 0.12291 0.34357 0.0
C1009 C 0.18554 0.15185 0.3981 0.0
C1010 C 0.1735 0.13748 0.39616 0.0
C1011 C 0.20294 0.1513 0.39323 0.0
C1012 C 0.20858 0.13645 0.38627 0.0
C1013 C 0.19656 0.12218 0.3842 0.0
C1014 C 0.17921 0.12262 0.38919 0.0
C1015 C 0.22701 0.13597 0.38107 0.0
C1016 C 0.229 0.13573 0.36833 0.0
C1017 C 0.24251 0.13659 0.38859 0.0
C1018 C 0.24121 0.1361 0.40211 0.0
C1019 C 0.2321 0.12195 0.40803 0.0
C1020 C 0.23083 0.12162 0.42077 0.0
C1021 C 0.23871 0.13532 0.4277 0.0
C1022 C 0.24793 0.14936 0.42191 0.0
C1023 C 0.24923 0.14976 0.40917 0.0
H1024 H 0.23772 0.13504 0.43756 0.0
H1025 H 0.25123 0.13494 0.31394 0.0
H1026 H 0.84729 0.68607 0.63373 0.0
H1027 H 0.84191 0.71604 0.62515 0.0
H1028 H 0.89642 0.73149 0.634 0.0
H1029 H 0.90192 0.70157 0.64267 0.0
H1030 H 0.8719 0.7575 0.64033 0.0
H1031 H 0.88582 0.7216 0.60515 0.0
H1032 H 0.88282 0.69575 0.59114 0.0
H1033 H 0.82781 0.71032 0.58389 0.0
H1034 H 0.8304 0.73613 0.598 0.0
H1035 H 0.87521 0.83742 0.60461 0.0
H1036 H 0.88106 0.8076 0.61327 0.0
H1037 H 0.82756 0.79051 0.60301 0.0
H1038 H 0.82171 0.82021 0.59415 0.0
H1039 H 0.85191 0.76527 0.59739 0.0
H1040 H 0.83778 0.80098 0.63266 0.0
H1041 H 0.84059 0.82675 0.64675 0.0
H1042 H 0.89571 0.81252 0.65395 0.0
H1043 H 0.8933 0.78679 0.63977 0.0
C1044 C 0.85814 0.69584 0.63387 0.0
C1045 C 0.87505 0.69142 0.63885 0.0
C1046 C 0.85506 0.71294 0.62891 0.0
C1047 C 0.86882 0.72592 0.62883 0.0
C1048 C 0.88563 0.72165 0.63396 0.0
C1049 C 0.88876 0.70453 0.63887 0.0
C1050 C 0.86564 0.744 0.62345 0.0
C1051 C 0.86777 0.75924 0.6309 0.0
C1052 C 0.85985 0.74619 0.61122 0.0
C1053 C 0.85825 0.73069 0.60273 0.0
C1054 C 0.87304 0.71921 0.60065 0.0
C1055 C 0.87142 0.70458 0.59267 0.0
C1056 C 0.85512 0.70137 0.58665 0.0
C1057 C 0.84042 0.71281 0.58857 0.0
C1058 C 0.84196 0.72745 0.59655 0.0
C1059 C 0.86467 0.82733 0.60421 0.0
C1060 C 0.84797 0.83121 0.59872 0.0
C1061 C 0.86802 0.81031 0.60921 0.0
C1062 C 0.85467 0.79688 0.60891 0.0
C1063 C 0.83804 0.80067 0.60335 0.0
C1064 C 0.8347 0.81767 0.59832 0.0
C1065 C 0.85811 0.77882 0.61428 0.0
C1066 C 0.85604 0.76356 0.60683 0.0
C1067 C 0.86392 0.77661 0.62651 0.0
C1068 C 0.86541 0.79206 0.63506 0.0
C1069 C 0.85054 0.80343 0.63717 0.0
C1070 C 0.85206 0.81802 0.64519 0.0
C1071 C 0.86833 0.8213 0.65122 0.0
C1072 C 0.88312 0.80998 0.64926 0.0
C1073 C 0.88168 0.79538 0.64124 0.0
H1074 H 0.86948 0.8326 0.65742 0.0
H1075 H 0.8539 0.69004 0.58048 0.0
H1076 H 0.31107 0.32552 0.88849 0.0
H1077 H 0.28074 0.32451 0.87978 0.0
H1078 H 0.27622 0.38222 0.88356 0.0
H1079 H 0.30657 0.38337 0.89233 0.0
H1080 H 0.24576 0.36452 0.89135 0.0
H1081 H 0.28404 0.36481 0.85612 0.0
H1082 H 0.30907 0.35454 0.84302 0.0
H1083 H 0.28462 0.30226 0.84004 0.0
H1084 H 0.25955 0.31214 0.85326 0.0
H1085 H 0.16781 0.37469 0.85411 0.0
H1086 H 0.19815 0.37705 0.86269 0.0
H1087 H 0.20586 0.31986 0.85766 0.0
H1088 H 0.17565 0.31744 0.84887 0.0
H1089 H 0.2349 0.3382 0.85034 0.0
H1090 H 0.19694 0.33769 0.88592 0.0
H1091 H 0.17198 0.34788 0.8991 0.0
H1092 H 0.19585 0.4005 0.90151 0.0
H1093 H 0.22084 0.39069 0.8882 0.0
C1094 C 0.30364 0.33801 0.88748 0.0
C1095 C 0.31125 0.35454 0.89107 0.0
C1096 C 0.28633 0.33741 0.88246 0.0
C1097 C 0.27632 0.35331 0.88092 0.0
C1098 C 0.28375 0.3698 0.88466 0.0
C1099 C 0.30111 0.37043 0.88963 0.0
C1100 C 0.25805 0.35268 0.87544 0.0
C1101 C 0.24339 0.35901 0.88231 0.0
C1102 C 0.25497 0.34515 0.86375 0.0
C1103 C 0.27001 0.33916 0.85578 0.0
C1104 C 0.28408 0.35107 0.85275 0.0
C1105 C 0.29826 0.34533 0.84529 0.0
C1106 C 0.29846 0.32775 0.84073 0.0
C1107 C 0.28446 0.31587 0.84359 0.0
C1108 C 0.27025 0.32154 0.85106 0.0
C1109 C 0.17595 0.3626 0.85484 0.0
C1110 C 0.1693 0.34586 0.85084 0.0
C1111 C 0.19326 0.36397 0.85979 0.0
C1112 C 0.2042 0.34859 0.86094 0.0
C1113 C 0.19764 0.3319 0.85687 0.0
C1114 C 0.18036 0.33053 0.85188 0.0
C1115 C 0.22255 0.34991 0.86628 0.0
C1116 C 0.23725 0.34374 0.85937 0.0
C1117 C 0.22566 0.35758 0.87794 0.0
C1118 C 0.21066 0.3635 0.88596 0.0
C1119 C 0.19679 0.35147 0.88918 0.0
C1120 C 0.18265 0.35717 0.89669 0.0
C1121 C 0.1823 0.37484 0.90111 0.0
C1122 C 0.19612 0.38683 0.89806 0.0
C1123 C 0.21028 0.3812 0.89054 0.0
H1124 H 0.17134 0.37923 0.90693 0.0
H1125 H 0.30945 0.32333 0.83495 0.0
H1126 H 0.60633 0.81496 0.14679 0.0
H1127 H 0.60865 0.7843 0.13875 0.0
H1128 H 0.66611 0.79087 0.13457 0.0
H1129 H 0.66391 0.8216 0.14252 0.0
H1130 H 0.65077 0.77559 0.11446 0.0
H1131 H 0.64952 0.76654 0.15797 0.0
H1132 H 0.63727 0.76967 0.1788 0.0
H1133 H 0.58841 0.74331 0.16767 0.0
H1134 H 0.60028 0.74025 0.14671 0.0
H1135 H 0.67586 0.6843 0.10613 0.0
H1136 H 0.67243 0.71499 0.11389 0.0
H1137 H 0.61537 0.70615 0.1187 0.0
H1138 H 0.61872 0.67532 0.11108 0.0
H1139 H 0.6297 0.72267 0.13826 0.0
H1140 H 0.63078 0.73117 0.09495 0.0
H1141 H 0.64262 0.72811 0.07401 0.0
H1142 H 0.69114 0.7556 0.08451 0.0
H1143 H 0.6797 0.7586 0.10558 0.0
C1144 C 0.61947 0.80989 0.14417 0.0
C1145 C 0.63495 0.82071 0.14533 0.0
C1146 C 0.62077 0.79234 0.13962 0.0
C1147 C 0.63757 0.78526 0.13616 0.0
C1148 C 0.65301 0.79608 0.13719 0.0
C1149 C 0.65173 0.81361 0.14177 0.0
C1150 C 0.63906 0.7666 0.1314 0.0
C1151 C 0.64638 0.76399 0.11972 0.0
C1152 C 0.63286 0.75154 0.13814 0.0
C1153 C 0.62572 0.75334 0.15074 0.0
C1154 C 0.6361 0.76155 0.15994 0.0
C1155 C 0.62924 0.76328 0.17177 0.0
C1156 C 0.61205 0.75674 0.17455 0.0
C1157 C 0.60171 0.7484 0.1655 0.0
C1158 C 0.60851 0.74665 0.15364 0.0
C1159 C 0.66257 0.68887 0.10882 0.0
C1160 C 0.64755 0.67738 0.10796 0.0
C1161 C 0.66062 0.70645 0.11321 0.0
C1162 C 0.64361 0.71292 0.11674 0.0
C1163 C 0.62862 0.70143 0.116 0.0
C1164 C 0.63055 0.68383 0.11162 0.0
C1165 C 0.64152 0.73163 0.12133 0.0
C1166 C 0.63406 0.73426 0.13298 0.0
C1167 C 0.64753 0.74672 0.11454 0.0
C1168 C 0.65445 0.74495 0.10188 0.0
C1169 C 0.64404 0.73643 0.09283 0.0
C1170 C 0.65067 0.73473 0.08093 0.0
C1171 C 0.66764 0.74161 0.07794 0.0
C1172 C 0.67801 0.75025 0.08685 0.0
C1173 C 0.67145 0.75197 0.09876 0.0
H1174 H 0.67274 0.74029 0.06872 0.0
H1175 H 0.60677 0.75809 0.18372 0.0
H1176 H 0.81787 0.67644 0.85423 0.0
H1177 H 0.78765 0.67368 0.86295 0.0
H1178 H 0.79324 0.61579 0.86368 0.0
H1179 H 0.82345 0.6184 0.85487 0.0
H1180 H 0.76049 0.62627 0.85478 0.0
H1181 H 0.79743 0.63943 0.88961 0.0
H1182 H 0.81981 0.65652 0.90158 0.0
H1183 H 0.78597 0.70348 0.90021 0.0
H1184 H 0.76348 0.68673 0.88808 0.0
H1185 H 0.68561 0.6077 0.89318 0.0
H1186 H 0.71593 0.60994 0.88457 0.0
H1187 H 0.71208 0.66799 0.8851 0.0
H1188 H 0.68186 0.66587 0.89391 0.0
H1189 H 0.74412 0.65713 0.89343 0.0
H1190 H 0.70731 0.64421 0.85846 0.0
H1191 H 0.68494 0.6273 0.84637 0.0
H1192 H 0.71847 0.58013 0.84783 0.0
H1193 H 0.74094 0.5967 0.86007 0.0
C1194 C 0.81268 0.66311 0.85624 0.0
C1195 C 0.82309 0.64764 0.85389 0.0
C1196 C 0.79544 0.66157 0.86127 0.0
C1197 C 0.78828 0.64454 0.86407 0.0
C1198 C 0.79853 0.62906 0.8616 0.0
C1199 C 0.81581 0.63059 0.8566 0.0
C1200 C 0.77006 0.6429 0.86953 0.0
C1201 C 0.75696 0.6328 0.86332 0.0
C1202 C 0.76538 0.65178 0.88052 0.0
C1203 C 0.77886 0.66187 0.88784 0.0
C1204 C 0.79483 0.65345 0.89178 0.0
C1205 C 0.80752 0.66306 0.8986 0.0
C1206 C 0.80433 0.68109 0.90162 0.0
C1207 C 0.78843 0.68952 0.89785 0.0
C1208 C 0.7757 0.67997 0.89101 0.0
C1209 C 0.6912 0.62095 0.89146 0.0
C1210 C 0.6813 0.63661 0.8942 0.0
C1211 C 0.70851 0.62221 0.88649 0.0
C1212 C 0.71619 0.63913 0.88405 0.0
C1213 C 0.7064 0.65479 0.88689 0.0
C1214 C 0.68911 0.65355 0.89189 0.0
C1215 C 0.7345 0.64054 0.87866 0.0
C1216 C 0.74763 0.65058 0.88489 0.0
C1217 C 0.73919 0.63164 0.86767 0.0
C1218 C 0.72572 0.62165 0.86029 0.0
C1219 C 0.70984 0.63019 0.85629 0.0
C1220 C 0.69716 0.62068 0.84939 0.0
C1221 C 0.70026 0.60264 0.84636 0.0
C1222 C 0.71607 0.59409 0.8502 0.0
C1223 C 0.7288 0.60355 0.85711 0.0
H1224 H 0.69042 0.59529 0.84102 0.0
H1225 H 0.81417 0.68851 0.90691 0.0
H1226 H 0.33489 0.31601 0.10888 0.0
H1227 H 0.33268 0.28533 0.1169 0.0
H1228 H 0.39033 0.27917 0.11369 0.0
H1229 H 0.39265 0.3098 0.10553 0.0
H1230 H 0.37269 0.24996 0.10504 0.0
H1231 H 0.37118 0.28606 0.14133 0.0
H1232 H 0.36035 0.31034 0.15485 0.0
H1233 H 0.30769 0.28632 0.15566 0.0
H1234 H 0.31814 0.26202 0.14199 0.0
H1235 H 0.38075 0.17024 0.1406 0.0
H1236 H 0.38346 0.20108 0.13293 0.0
H1237 H 0.32592 0.20809 0.13624 0.0
H1238 H 0.3231 0.17734 0.14407 0.0
H1239 H 0.34382 0.23693 0.14496 0.0
H1240 H 0.34525 0.20102 0.1085 0.0
H1241 H 0.35609 0.17672 0.09499 0.0
H1242 H 0.40892 0.2004 0.09454 0.0
H1243 H 0.39845 0.22472 0.10819 0.0
C1244 C 0.34711 0.30815 0.10989 0.0
C1245 C 0.36396 0.31537 0.10659 0.0
C1246 C 0.34583 0.29064 0.11453 0.0
C1247 C 0.36136 0.28004 0.11601 0.0
C1248 C 0.37818 0.28714 0.11263 0.0
C1249 C 0.37948 0.30466 0.108 0.0
C1250 C 0.36004 0.26145 0.12094 0.0
C1251 C 0.36661 0.24713 0.11385 0.0
C1252 C 0.35173 0.25773 0.13231 0.0
C1253 C 0.3454 0.27232 0.14053 0.0
C1254 C 0.35725 0.28604 0.1443 0.0
C1255 C 0.35119 0.29979 0.15201 0.0
C1256 C 0.33333 0.29989 0.15609 0.0
C1257 C 0.32151 0.28623 0.15248 0.0
C1258 C 0.3275 0.27246 0.14476 0.0
C1259 C 0.36866 0.17833 0.13969 0.0
C1260 C 0.35169 0.17131 0.14291 0.0
C1261 C 0.37023 0.19593 0.13526 0.0
C1262 C 0.35486 0.20682 0.13389 0.0
C1263 C 0.33794 0.19992 0.13721 0.0
C1264 C 0.33636 0.18232 0.14165 0.0
C1265 C 0.35644 0.22544 0.12905 0.0
C1266 C 0.34991 0.23977 0.13616 0.0
C1267 C 0.36479 0.22917 0.11769 0.0
C1268 C 0.37111 0.21459 0.10946 0.0
C1269 C 0.35922 0.20096 0.1056 0.0
C1270 C 0.36529 0.1872 0.0979 0.0
C1271 C 0.3832 0.18699 0.09394 0.0
C1272 C 0.39506 0.20057 0.09764 0.0
C1273 C 0.38906 0.21435 0.10534 0.0
H1274 H 0.38787 0.17632 0.08798 0.0
H1275 H 0.32866 0.31055 0.16206 0.0
H1276 H 0.84269 0.87125 0.39053 0.0
H1277 H 0.81265 0.87839 0.38269 0.0
H1278 H 0.79456 0.82482 0.39194 0.0
H1279 H 0.82461 0.8175 0.3997 0.0
H1280 H 0.78362 0.83471 0.36925 0.0
H1281 H 0.78296 0.86039 0.40956 0.0
H1282 H 0.79418 0.87936 0.42642 0.0
H1283 H 0.78858 0.92657 0.40401 0.0
H1284 H 0.77757 0.90784 0.38695 0.0
H1285 H 0.68954 0.84893 0.36346 0.0
H1286 H 0.71969 0.84212 0.37117 0.0
H1287 H 0.73648 0.89661 0.36334 0.0
H1288 H 0.70623 0.90364 0.35584 0.0
H1289 H 0.7483 0.88644 0.38518 0.0
H1290 H 0.74895 0.86114 0.3449 0.0
H1291 H 0.73796 0.8424 0.32786 0.0
H1292 H 0.74385 0.79482 0.34988 0.0
H1293 H 0.75465 0.81331 0.36711 0.0
C1294 C 0.83233 0.86098 0.3909 0.0
C1295 C 0.83603 0.84382 0.39576 0.0
C1296 C 0.81514 0.86511 0.38646 0.0
C1297 C 0.80133 0.85219 0.38684 0.0
C1298 C 0.80503 0.83499 0.39158 0.0
C1299 C 0.8222 0.83086 0.39604 0.0
C1300 C 0.78304 0.85654 0.38221 0.0
C1301 C 0.77578 0.84587 0.37284 0.0
C1302 C 0.77304 0.87139 0.38668 0.0
C1303 C 0.77961 0.88269 0.39694 0.0
C1304 C 0.78426 0.8748 0.40819 0.0
C1305 C 0.79056 0.88551 0.41779 0.0
C1306 C 0.79214 0.90415 0.41628 0.0
C1307 C 0.78738 0.91213 0.40516 0.0
C1308 C 0.78109 0.90147 0.39553 0.0
C1309 C 0.69965 0.85947 0.36335 0.0
C1310 C 0.6955 0.87682 0.359 0.0
C1311 C 0.71691 0.85553 0.36772 0.0
C1312 C 0.73042 0.86879 0.36769 0.0
C1313 C 0.72628 0.88616 0.36344 0.0
C1314 C 0.70899 0.89014 0.35912 0.0
C1315 C 0.74883 0.86459 0.37222 0.0
C1316 C 0.75612 0.87529 0.38157 0.0
C1317 C 0.75889 0.8498 0.3677 0.0
C1318 C 0.75245 0.83864 0.35734 0.0
C1319 C 0.74777 0.8467 0.34614 0.0
C1320 C 0.7416 0.83612 0.33644 0.0
C1321 C 0.74016 0.81744 0.3378 0.0
C1322 C 0.74494 0.80929 0.34885 0.0
C1323 C 0.75111 0.81982 0.35858 0.0
H1324 H 0.73538 0.80927 0.33028 0.0
H1325 H 0.79701 0.91242 0.42372 0.0
H1326 H 0.17283 0.3187 0.63945 0.0
H1327 H 0.17247 0.28759 0.63211 0.0
H1328 H 0.11431 0.28798 0.63238 0.0
H1329 H 0.11453 0.31911 0.63979 0.0
H1330 H 0.12809 0.25739 0.64272 0.0
H1331 H 0.13623 0.29104 0.6058 0.0
H1332 H 0.15046 0.31345 0.59223 0.0
H1333 H 0.2006 0.28461 0.59418 0.0
H1334 H 0.18674 0.26216 0.60791 0.0
H1335 H 0.11704 0.17589 0.60933 0.0
H1336 H 0.11591 0.20733 0.61599 0.0
H1337 H 0.17399 0.2101 0.61468 0.0
H1338 H 0.17522 0.17877 0.60782 0.0
H1339 H 0.15927 0.23937 0.60453 0.0
H1340 H 0.15138 0.20619 0.64189 0.0
H1341 H 0.13723 0.18388 0.65557 0.0
H1342 H 0.08669 0.21187 0.65286 0.0
H1343 H 0.10049 0.23423 0.63902 0.0
C1344 C 0.15996 0.31219 0.63794 0.0
C1345 C 0.14371 0.32139 0.64018 0.0
C1346 C 0.15978 0.29443 0.6337 0.0
C1347 C 0.14336 0.28554 0.6316 0.0
C1348 C 0.12712 0.29462 0.63393 0.0
C1349 C 0.12728 0.31242 0.63812 0.0
C1350 C 0.14319 0.26667 0.62714 0.0
C1351 C 0.13467 0.25347 0.63427 0.0
C1352 C 0.15211 0.26155 0.61625 0.0
C1353 C 0.16049 0.27501 0.60798 0.0
C1354 C 0.15033 0.28956 0.60342 0.0
C1355 C 0.15832 0.30225 0.59568 0.0
C1356 C 0.17643 0.30048 0.59237 0.0
C1357 C 0.18658 0.28598 0.59677 0.0
C1358 C 0.17866 0.27326 0.60452 0.0
C1359 C 0.12958 0.18318 0.61048 0.0
C1360 C 0.14623 0.17481 0.60808 0.0
C1361 C 0.12891 0.20113 0.61433 0.0
C1362 C 0.14488 0.21101 0.61596 0.0
C1363 C 0.16151 0.20273 0.61348 0.0
C1364 C 0.16218 0.1848 0.6096 0.0
C1365 C 0.14429 0.23002 0.62016 0.0
C1366 C 0.15265 0.24327 0.61296 0.0
C1367 C 0.13524 0.23519 0.63099 0.0
C1368 C 0.12692 0.22177 0.63932 0.0
C1369 C 0.13721 0.2075 0.64413 0.0
C1370 C 0.12926 0.19486 0.65193 0.0
C1371 C 0.11106 0.19642 0.65506 0.0
C1372 C 0.10078 0.21066 0.65041 0.0
C1373 C 0.10866 0.22333 0.6426 0.0
H1374 H 0.10493 0.18662 0.6611 0.0
H1375 H 0.18259 0.31032 0.58637 0.0
loop_
_geom_bond_atom_site_label_1
_geom_bond_atom_site_label_2
_geom_bond_distance
_geom_bond_site_symmetry_2
_ccdc_geom_bond_type
O0 Cd1 2.300 . S
O0 C7 1.275 . S
Cd1 O0 2.300 . S
Cd1 O9 2.381 . S
Cd1 O10 2.378 . S
O2 Cd3 2.385 . S
O2 C7 1.255 . S
Cd3 O2 2.385 . S
Cd3 O4 2.317 . S
O4 Cd3 2.317 . S
O4 C5 1.232 . S
C5 O4 1.232 . S
C5 O6 1.218 . S
O6 C5 1.218 . S
C7 O0 1.275 . S
C7 O2 1.255 . S
C8 O9 1.258 . S
C8 O10 1.256 . S
O9 Cd1 2.381 . S
O9 C8 1.258 . S
O10 Cd1 2.378 . S
O10 C8 1.256 . S
O11 Cd12 2.300 . S
O11 C18 1.275 . S
Cd12 O11 2.300 . S
Cd12 O20 2.381 . S
Cd12 O21 2.378 . S
O13 Cd14 2.385 . S
O13 C18 1.255 . S
Cd14 O13 2.385 . S
Cd14 O15 2.317 . S
O15 Cd14 2.317 . S
O15 C16 1.232 . S
C16 O15 1.232 . S
C16 O17 1.218 . S
O17 C16 1.218 . S
C18 O11 1.275 . S
C18 O13 1.255 . S
C19 O20 1.258 . S
C19 O21 1.256 . S
O20 Cd12 2.381 . S
O20 C19 1.258 . S
O21 Cd12 2.378 . S
O21 C19 1.256 . S
O22 Cd23 2.300 . S
O22 C29 1.275 . S
Cd23 O22 2.300 . S
Cd23 O31 2.381 . S
Cd23 O32 2.378 . S
O24 Cd25 2.385 . S
O24 C29 1.255 . S
Cd25 O24 2.385 . S
Cd25 O26 2.317 . S
O26 Cd25 2.317 . S
O26 C27 1.232 . S
C27 O26 1.232 . S
C27 O28 1.218 . S
O28 C27 1.218 . S
C29 O22 1.275 . S
C29 O24 1.255 . S
C30 O31 1.258 . S
C30 O32 1.256 . S
O31 Cd23 2.381 . S
O31 C30 1.258 . S
O32 Cd23 2.378 . S
O32 C30 1.256 . S
O33 Cd34 2.300 . S
O33 C40 1.275 . S
Cd34 O33 2.300 . S
Cd34 O42 2.381 . S
Cd34 O43 2.378 . S
O35 Cd36 2.385 . S
O35 C40 1.255 . S
Cd36 O35 2.385 . S
Cd36 O37 2.317 . S
O37 Cd36 2.317 . S
O37 C38 1.232 . S
C38 O37 1.232 . S
C38 O39 1.218 . S
O39 C38 1.218 . S
C40 O33 1.275 . S
C40 O35 1.255 . S
C41 O42 1.258 . S
C41 O43 1.256 . S
O42 Cd34 2.381 . S
O42 C41 1.258 . S
O43 Cd34 2.378 . S
O43 C41 1.256 . S
O44 Cd45 2.300 . S
O44 C51 1.275 . S
Cd45 O44 2.300 . S
Cd45 O53 2.381 . S
Cd45 O54 2.378 . S
O46 Cd47 2.385 . S
O46 C51 1.255 . S
Cd47 O46 2.385 . S
Cd47 O48 2.317 . S
O48 Cd47 2.317 . S
O48 C49 1.232 . S
C49 O48 1.232 . S
C49 O50 1.218 . S
O50 C49 1.218 . S
C51 O44 1.275 . S
C51 O46 1.255 . S
C52 O53 1.258 . S
C52 O54 1.256 . S
O53 Cd45 2.381 . S
O53 C52 1.258 . S
O54 Cd45 2.378 . S
O54 C52 1.256 . S
O55 Cd56 2.300 . S
O55 C62 1.275 . S
Cd56 O55 2.300 . S
Cd56 O64 2.381 . S
Cd56 O65 2.378 . S
O57 Cd58 2.385 . S
O57 C62 1.255 . S
Cd58 O57 2.385 . S
Cd58 O59 2.317 . S
O59 Cd58 2.317 . S
O59 C60 1.232 . S
C60 O59 1.232 . S
C60 O61 1.218 . S
O61 C60 1.218 . S
C62 O55 1.275 . S
C62 O57 1.255 . S
C63 O64 1.258 . S
C63 O65 1.256 . S
O64 Cd56 2.381 . S
O64 C63 1.258 . S
O65 Cd56 2.378 . S
O65 C63 1.256 . S
O66 Cd67 2.300 . S
O66 C73 1.275 . S
Cd67 O66 2.300 . S
Cd67 O75 2.381 . S
Cd67 O76 2.378 . S
O68 Cd69 2.385 . S
O68 C73 1.255 . S
Cd69 O68 2.385 . S
Cd69 O70 2.317 . S
O70 Cd69 2.317 . S
O70 C71 1.232 . S
C71 O70 1.232 . S
C71 O72 1.218 . S
O72 C71 1.218 . S
C73 O66 1.275 . S
C73 O68 1.255 . S
C74 O75 1.258 . S
C74 O76 1.256 . S
O75 Cd67 2.381 . S
O75 C74 1.258 . S
O76 Cd67 2.378 . S
O76 C74 1.256 . S
O77 Cd78 2.300 . S
O77 C84 1.275 . S
Cd78 O77 2.300 . S
Cd78 O86 2.381 . S
Cd78 O87 2.378 . S
O79 Cd80 2.385 . S
O79 C84 1.255 . S
Cd80 O79 2.385 . S
Cd80 O81 2.317 . S
O81 Cd80 2.317 . S
O81 C82 1.232 . S
C82 O81 1.232 . S
C82 O83 1.218 . S
O83 C82 1.218 . S
C84 O77 1.275 . S
C84 O79 1.255 . S
C85 O86 1.258 . S
C85 O87 1.256 . S
O86 Cd78 2.381 . S
O86 C85 1.258 . S
O87 Cd78 2.378 . S
O87 C85 1.256 . S
O88 Cd89 2.300 . S
O88 C95 1.275 . S
Cd89 O88 2.300 . S
Cd89 O97 2.381 . S
Cd89 O98 2.378 . S
O90 Cd91 2.385 . S
O90 C95 1.255 . S
Cd91 O90 2.385 . S
Cd91 O92 2.317 . S
O92 Cd91 2.317 . S
O92 C93 1.232 . S
C93 O92 1.232 . S
C93 O94 1.218 . S
O94 C93 1.218 . S
C95 O88 1.275 . S
C95 O90 1.255 . S
C96 O97 1.258 . S
C96 O98 1.256 . S
O97 Cd89 2.381 . S
O97 C96 1.258 . S
O98 Cd89 2.378 . S
O98 C96 1.256 . S
O99 Cd100 2.300 . S
O99 C106 1.275 . S
Cd100 O99 2.300 . S
Cd100 O108 2.381 . S
Cd100 O109 2.378 . S
O101 Cd102 2.385 . S
O101 C106 1.255 . S
Cd102 O101 2.385 . S
Cd102 O103 2.317 . S
O103 Cd102 2.317 . S
O103 C104 1.232 . S
C104 O103 1.232 . S
C104 O105 1.218 . S
O105 C104 1.218 . S
C106 O99 1.275 . S
C106 O101 1.255 . S
C107 O108 1.258 . S
C107 O109 1.256 . S
O108 Cd100 2.381 . S
O108 C107 1.258 . S
O109 Cd100 2.378 . S
O109 C107 1.256 . S
O110 Cd111 2.300 . S
O110 C117 1.275 . S
Cd111 O110 2.300 . S
Cd111 O119 2.381 . S
Cd111 O120 2.378 . S
O112 Cd113 2.385 . S
O112 C117 1.255 . S
Cd113 O112 2.385 . S
Cd113 O114 2.317 . S
O114 Cd113 2.317 . S
O114 C115 1.232 . S
C115 O114 1.232 . S
C115 O116 1.218 . S
O116 C115 1.218 . S
C117 O110 1.275 . S
C117 O112 1.255 . S
C118 O119 1.258 . S
C118 O120 1.256 . S
O119 Cd111 2.381 . S
O119 C118 1.258 . S
O120 Cd111 2.378 . S
O120 C118 1.256 . S
O121 Cd122 2.300 . S
O121 C128 1.275 . S
Cd122 O121 2.300 . S
Cd122 O130 2.381 . S
Cd122 O131 2.378 . S
O123 Cd124 2.385 . S
O123 C128 1.255 . S
Cd124 O123 2.385 . S
Cd124 O125 2.317 . S
O125 Cd124 2.317 . S
O125 C126 1.232 . S
C126 O125 1.232 . S
C126 O127 1.218 . S
O127 C126 1.218 . S
C128 O121 1.275 . S
C128 O123 1.255 . S
C129 O130 1.258 . S
C129 O131 1.256 . S
O130 Cd122 2.381 . S
O130 C129 1.258 . S
O131 Cd122 2.378 . S
O131 C129 1.256 . S
O132 Cd133 2.300 . S
O132 C139 1.275 . S
Cd133 O132 2.300 . S
Cd133 O141 2.381 . S
Cd133 O142 2.378 . S
O134 Cd135 2.385 . S
O134 C139 1.255 . S
Cd135 O134 2.385 . S
Cd135 O136 2.317 . S
O136 Cd135 2.317 . S
O136 C137 1.232 . S
C137 O136 1.232 . S
C137 O138 1.218 . S
O138 C137 1.218 . S
C139 O132 1.275 . S
C139 O134 1.255 . S
C140 O141 1.258 . S
C140 O142 1.256 . S
O141 Cd133 2.381 . S
O141 C140 1.258 . S
O142 Cd133 2.378 . S
O142 C140 1.256 . S
O143 Cd144 2.300 . S
O143 C150 1.275 . S
Cd144 O143 2.300 . S
Cd144 O152 2.381 . S
Cd144 O153 2.378 . S
O145 Cd146 2.385 . S
O145 C150 1.255 . S
Cd146 O145 2.385 . S
Cd146 O147 2.317 . S
O147 Cd146 2.317 . S
O147 C148 1.232 . S
C148 O147 1.232 . S
C148 O149 1.218 . S
O149 C148 1.218 . S
C150 O143 1.275 . S
C150 O145 1.255 . S
C151 O152 1.258 . S
C151 O153 1.256 . S
O152 Cd144 2.381 . S
O152 C151 1.258 . S
O153 Cd144 2.378 . S
O153 C151 1.256 . S
O154 Cd155 2.300 . S
O154 C161 1.275 . S
Cd155 O154 2.300 . S
Cd155 O163 2.381 . S
Cd155 O164 2.378 . S
O156 Cd157 2.385 . S
O156 C161 1.255 . S
Cd157 O156 2.385 . S
Cd157 O158 2.317 . S
O158 Cd157 2.317 . S
O158 C159 1.232 . S
C159 O158 1.232 . S
C159 O160 1.218 . S
O160 C159 1.218 . S
C161 O154 1.275 . S
C161 O156 1.255 . S
C162 O163 1.258 . S
C162 O164 1.256 . S
O163 Cd155 2.381 . S
O163 C162 1.258 . S
O164 Cd155 2.378 . S
O164 C162 1.256 . S
O165 Cd166 2.300 . S
O165 C172 1.275 . S
Cd166 O165 2.300 . S
Cd166 O174 2.381 . S
Cd166 O175 2.378 . S
O167 Cd168 2.385 . S
O167 C172 1.255 . S
Cd168 O167 2.385 . S
Cd168 O169 2.317 . S
O169 Cd168 2.317 . S
O169 C170 1.232 . S
C170 O169 1.232 . S
C170 O171 1.218 . S
O171 C170 1.218 . S
C172 O165 1.275 . S
C172 O167 1.255 . S
C173 O174 1.258 . S
C173 O175 1.256 . S
O174 Cd166 2.381 . S
O174 C173 1.258 . S
O175 Cd166 2.378 . S
O175 C173 1.256 . S
H176 C194 0.951 . S
H177 C196 0.951 . S
H178 C198 0.950 . S
H179 C199 0.950 . S
H180 C201 0.950 . S
H181 C204 0.950 . S
H182 C205 0.950 . S
H183 C207 0.950 . S
H184 C208 0.950 . S
H185 C209 0.951 . S
H186 C211 0.951 . S
H187 C213 0.950 . S
H188 C214 0.950 . S
H189 C216 0.950 . S
H190 C219 0.950 . S
H191 C220 0.950 . S
H192 C222 0.950 . S
H193 C223 0.950 . S
C194 H176 0.951 . S
C194 C195 1.366 . S
C194 C196 1.388 . S
C195 C194 1.366 . S
C195 C199 1.385 . S
C196 H177 0.951 . S
C196 C194 1.388 . S
C196 C197 1.366 . S
C197 C196 1.366 . S
C197 C198 1.414 . S
C197 C200 1.499 . S
C198 H178 0.950 . S
C198 C197 1.414 . S
C198 C199 1.374 . S
C199 H179 0.950 . S
C199 C195 1.385 . S
C199 C198 1.374 . S
C200 C197 1.499 . S
C200 C201 1.373 . S
C200 C202 1.389 . S
C201 H180 0.950 . S
C201 C200 1.373 . S
C201 C217 1.377 . S
C202 C200 1.389 . S
C202 C203 1.524 . S
C202 C216 1.377 . S
C203 C202 1.524 . S
C203 C204 1.397 . S
C203 C208 1.363 . S
C204 H181 0.950 . S
C204 C203 1.397 . S
C204 C205 1.334 . S
C205 H182 0.950 . S
C205 C204 1.334 . S
C205 C206 1.287 . S
C206 C205 1.287 . S
C206 C207 1.524 . S
C206 H225 0.913 . S
C207 H183 0.950 . S
C207 C206 1.524 . S
C207 C208 1.415 . S
C208 H184 0.950 . S
C208 C203 1.363 . S
C208 C207 1.415 . S
C209 H185 0.951 . S
C209 C210 1.366 . S
C209 C211 1.388 . S
C210 C209 1.366 . S
C210 C214 1.385 . S
C211 H186 0.951 . S
C211 C209 1.388 . S
C211 C212 1.366 . S
C212 C211 1.366 . S
C212 C213 1.414 . S
C212 C215 1.499 . S
C213 H187 0.950 . S
C213 C212 1.414 . S
C213 C214 1.374 . S
C214 H188 0.950 . S
C214 C210 1.385 . S
C214 C213 1.374 . S
C215 C212 1.499 . S
C215 C216 1.373 . S
C215 C217 1.389 . S
C216 H189 0.950 . S
C216 C202 1.377 . S
C216 C215 1.373 . S
C217 C201 1.377 . S
C217 C215 1.389 . S
C217 C218 1.524 . S
C218 C217 1.524 . S
C218 C219 1.397 . S
C218 C223 1.363 . S
C219 H190 0.950 . S
C219 C218 1.397 . S
C219 C220 1.334 . S
C220 H191 0.950 . S
C220 C219 1.334 . S
C220 C221 1.287 . S
C221 C220 1.287 . S
C221 C222 1.524 . S
C221 H224 0.999 . S
C222 H192 0.950 . S
C222 C221 1.524 . S
C222 C223 1.415 . S
C223 H193 0.950 . S
C223 C218 1.363 . S
C223 C222 1.415 . S
H224 C221 0.999 . S
H225 C206 0.913 . S
H226 C244 0.951 . S
H227 C246 0.951 . S
H228 C248 0.950 . S
H229 C249 0.950 . S
H230 C251 0.950 . S
H231 C254 0.950 . S
H232 C255 0.950 . S
H233 C257 0.950 . S
H234 C258 0.950 . S
H235 C259 0.951 . S
H236 C261 0.951 . S
H237 C263 0.950 . S
H238 C264 0.950 . S
H239 C266 0.950 . S
H240 C269 0.950 . S
H241 C270 0.950 . S
H242 C272 0.950 . S
H243 C273 0.950 . S
C244 H226 0.951 . S
C244 C245 1.366 . S
C244 C246 1.388 . S
C245 C244 1.366 . S
C245 C249 1.385 . S
C246 H227 0.951 . S
C246 C244 1.388 . S
C246 C247 1.366 . S
C247 C246 1.366 . S
C247 C248 1.414 . S
C247 C250 1.499 . S
C248 H228 0.950 . S
C248 C247 1.414 . S
C248 C249 1.374 . S
C249 H229 0.950 . S
C249 C245 1.385 . S
C249 C248 1.374 . S
C250 C247 1.499 . S
C250 C251 1.373 . S
C250 C252 1.389 . S
C251 H230 0.950 . S
C251 C250 1.373 . S
C251 C267 1.377 . S
C252 C250 1.389 . S
C252 C253 1.524 . S
C252 C266 1.377 . S
C253 C252 1.524 . S
C253 C254 1.397 . S
C253 C258 1.363 . S
C254 H231 0.950 . S
C254 C253 1.397 . S
C254 C255 1.334 . S
C255 H232 0.950 . S
C255 C254 1.334 . S
C255 C256 1.287 . S
C256 C255 1.287 . S
C256 C257 1.524 . S
C256 H275 0.913 . S
C257 H233 0.950 . S
C257 C256 1.524 . S
C257 C258 1.415 . S
C258 H234 0.950 . S
C258 C253 1.363 . S
C258 C257 1.415 . S
C259 H235 0.951 . S
C259 C260 1.366 . S
C259 C261 1.388 . S
C260 C259 1.366 . S
C260 C264 1.385 . S
C261 H236 0.951 . S
C261 C259 1.388 . S
C261 C262 1.366 . S
C262 C261 1.366 . S
C262 C263 1.414 . S
C262 C265 1.499 . S
C263 H237 0.950 . S
C263 C262 1.414 . S
C263 C264 1.374 . S
C264 H238 0.950 . S
C264 C260 1.385 . S
C264 C263 1.374 . S
C265 C262 1.499 . S
C265 C266 1.373 . S
C265 C267 1.389 . S
C266 H239 0.950 . S
C266 C252 1.377 . S
C266 C265 1.373 . S
C267 C251 1.377 . S
C267 C265 1.389 . S
C267 C268 1.524 . S
C268 C267 1.524 . S
C268 C269 1.397 . S
C268 C273 1.363 . S
C269 H240 0.950 . S
C269 C268 1.397 . S
C269 C270 1.334 . S
C270 H241 0.950 . S
C270 C269 1.334 . S
C270 C271 1.287 . S
C271 C270 1.287 . S
C271 C272 1.524 . S
C271 H274 0.999 . S
C272 H242 0.950 . S
C272 C271 1.524 . S
C272 C273 1.415 . S
C273 H243 0.950 . S
C273 C268 1.363 . S
C273 C272 1.415 . S
H274 C271 0.999 . S
H275 C256 0.913 . S
H276 C294 0.951 . S
H277 C296 0.951 . S
H278 C298 0.950 . S
H279 C299 0.950 . S
H280 C301 0.950 . S
H281 C304 0.950 . S
H282 C305 0.950 . S
H283 C307 0.950 . S
H284 C308 0.950 . S
H285 C309 0.951 . S
H286 C311 0.951 . S
H287 C313 0.950 . S
H288 C314 0.950 . S
H289 C316 0.950 . S
H290 C319 0.950 . S
H291 C320 0.950 . S
H292 C322 0.950 . S
H293 C323 0.950 . S
C294 H276 0.951 . S
C294 C295 1.366 . S
C294 C296 1.388 . S
C295 C294 1.366 . S
C295 C299 1.385 . S
C296 H277 0.951 . S
C296 C294 1.388 . S
C296 C297 1.366 . S
C297 C296 1.366 . S
C297 C298 1.414 . S
C297 C300 1.499 . S
C298 H278 0.950 . S
C298 C297 1.414 . S
C298 C299 1.374 . S
C299 H279 0.950 . S
C299 C295 1.385 . S
C299 C298 1.374 . S
C300 C297 1.499 . S
C300 C301 1.373 . S
C300 C302 1.389 . S
C301 H280 0.950 . S
C301 C300 1.373 . S
C301 C317 1.377 1_556 S
C302 C300 1.389 . S
C302 C303 1.524 . S
C302 C316 1.377 1_556 S
C303 C302 1.524 . S
C303 C304 1.397 . S
C303 C308 1.363 . S
C304 H281 0.950 . S
C304 C303 1.397 . S
C304 C305 1.334 . S
C305 H282 0.950 . S
C305 C304 1.334 . S
C305 C306 1.287 . S
C306 C305 1.287 . S
C306 C307 1.524 . S
C306 H325 0.913 . S
C307 H283 0.950 . S
C307 C306 1.524 . S
C307 C308 1.415 . S
C308 H284 0.950 . S
C308 C303 1.363 . S
C308 C307 1.415 . S
C309 H285 0.951 . S
C309 C310 1.366 . S
C309 C311 1.388 . S
C310 C309 1.366 . S
C310 C314 1.385 . S
C311 H286 0.951 . S
C311 C309 1.388 . S
C311 C312 1.366 . S
C312 C311 1.366 . S
C312 C313 1.414 . S
C312 C315 1.499 . S
C313 H287 0.950 . S
C313 C312 1.414 . S
C313 C314 1.374 . S
C314 H288 0.950 . S
C314 C310 1.385 . S
C314 C313 1.374 . S
C315 C312 1.499 . S
C315 C316 1.373 . S
C315 C317 1.389 . S
C316 H289 0.950 . S
C316 C302 1.377 1_554 S
C316 C315 1.373 . S
C317 C301 1.377 1_554 S
C317 C315 1.389 . S
C317 C318 1.524 . S
C318 C317 1.524 . S
C318 C319 1.397 . S
C318 C323 1.363 . S
C319 H290 0.950 . S
C319 C318 1.397 . S
C319 C320 1.334 . S
C320 H291 0.950 . S
C320 C319 1.334 . S
C320 C321 1.287 . S
C321 C320 1.287 . S
C321 C322 1.524 . S
C321 H324 0.999 . S
C322 H292 0.950 . S
C322 C321 1.524 . S
C322 C323 1.415 . S
C323 H293 0.950 . S
C323 C318 1.363 . S
C323 C322 1.415 . S
H324 C321 0.999 . S
H325 C306 0.913 . S
H326 C344 0.951 . S
H327 C346 0.951 . S
H328 C348 0.950 . S
H329 C349 0.950 . S
H330 C351 0.950 . S
H331 C354 0.950 . S
H332 C355 0.950 . S
H333 C357 0.950 . S
H334 C358 0.950 . S
H335 C359 0.951 . S
H336 C361 0.951 . S
H337 C363 0.950 . S
H338 C364 0.950 . S
H339 C366 0.950 . S
H340 C369 0.950 . S
H341 C370 0.950 . S
H342 C372 0.950 . S
H343 C373 0.950 . S
C344 H326 0.951 . S
C344 C345 1.366 . S
C344 C346 1.388 . S
C345 C344 1.366 . S
C345 C349 1.385 . S
C346 H327 0.951 . S
C346 C344 1.388 . S
C346 C347 1.366 . S
C347 C346 1.366 . S
C347 C348 1.414 . S
C347 C350 1.499 . S
C348 H328 0.950 . S
C348 C347 1.414 . S
C348 C349 1.374 . S
C349 H329 0.950 . S
C349 C345 1.385 . S
C349 C348 1.374 . S
C350 C347 1.499 . S
C350 C351 1.373 . S
C350 C352 1.389 . S
C351 H330 0.950 . S
C351 C350 1.373 . S
C351 C367 1.377 . S
C352 C350 1.389 . S
C352 C353 1.524 . S
C352 C366 1.377 . S
C353 C352 1.524 . S
C353 C354 1.397 . S
C353 C358 1.363 . S
C354 H331 0.950 . S
C354 C353 1.397 . S
C354 C355 1.334 . S
C355 H332 0.950 . S
C355 C354 1.334 . S
C355 C356 1.287 . S
C356 C355 1.287 . S
C356 C357 1.524 . S
C356 H375 0.913 . S
C357 H333 0.950 . S
C357 C356 1.524 . S
C357 C358 1.415 . S
C358 H334 0.950 . S
C358 C353 1.363 . S
C358 C357 1.415 . S
C359 H335 0.951 . S
C359 C360 1.366 . S
C359 C361 1.388 . S
C360 C359 1.366 . S
C360 C364 1.385 . S
C361 H336 0.951 . S
C361 C359 1.388 . S
C361 C362 1.366 . S
C362 C361 1.366 . S
C362 C363 1.414 . S
C362 C365 1.499 . S
C363 H337 0.950 . S
C363 C362 1.414 . S
C363 C364 1.374 . S
C364 H338 0.950 . S
C364 C360 1.385 . S
C364 C363 1.374 . S
C365 C362 1.499 . S
C365 C366 1.373 . S
C365 C367 1.389 . S
C366 H339 0.950 . S
C366 C352 1.377 . S
C366 C365 1.373 . S
C367 C351 1.377 . S
C367 C365 1.389 . S
C367 C368 1.524 . S
C368 C367 1.524 . S
C368 C369 1.397 . S
C368 C373 1.363 . S
C369 H340 0.950 . S
C369 C368 1.397 . S
C369 C370 1.334 . S
C370 H341 0.950 . S
C370 C369 1.334 . S
C370 C371 1.287 . S
C371 C370 1.287 . S
C371 C372 1.524 . S
C371 H374 0.999 . S
C372 H342 0.950 . S
C372 C371 1.524 . S
C372 C373 1.415 . S
C373 H343 0.950 . S
C373 C368 1.363 . S
C373 C372 1.415 . S
H374 C371 0.999 . S
H375 C356 0.913 . S
H376 C394 0.951 . S
H377 C396 0.951 . S
H378 C398 0.950 . S
H379 C399 0.950 . S
H380 C401 0.950 . S
H381 C404 0.950 . S
H382 C405 0.950 . S
H383 C407 0.950 . S
H384 C408 0.950 . S
H385 C409 0.951 . S
H386 C411 0.951 . S
H387 C413 0.950 . S
H388 C414 0.950 . S
H389 C416 0.950 . S
H390 C419 0.950 . S
H391 C420 0.950 . S
H392 C422 0.950 . S
H393 C423 0.950 . S
C394 H376 0.951 . S
C394 C395 1.366 . S
C394 C396 1.388 . S
C395 C394 1.366 . S
C395 C399 1.385 . S
C396 H377 0.951 . S
C396 C394 1.388 . S
C396 C397 1.366 . S
C397 C396 1.366 . S
C397 C398 1.414 . S
C397 C400 1.499 . S
C398 H378 0.950 . S
C398 C397 1.414 . S
C398 C399 1.374 . S
C399 H379 0.950 . S
C399 C395 1.385 . S
C399 C398 1.374 . S
C400 C397 1.499 . S
C400 C401 1.373 . S
C400 C402 1.389 . S
C401 H380 0.950 . S
C401 C400 1.373 . S
C401 C417 1.377 . S
C402 C400 1.389 . S
C402 C403 1.524 . S
C402 C416 1.377 . S
C403 C402 1.524 . S
C403 C404 1.397 . S
C403 C408 1.363 . S
C404 H381 0.950 . S
C404 C403 1.397 . S
C404 C405 1.334 . S
C405 H382 0.950 . S
C405 C404 1.334 . S
C405 C406 1.287 . S
C406 C405 1.287 . S
C406 C407 1.524 . S
C406 H425 0.913 . S
C407 H383 0.950 . S
C407 C406 1.524 . S
C407 C408 1.415 . S
C408 H384 0.950 . S
C408 C403 1.363 . S
C408 C407 1.415 . S
C409 H385 0.951 . S
C409 C410 1.366 . S
C409 C411 1.388 . S
C410 C409 1.366 . S
C410 C414 1.385 . S
C411 H386 0.951 . S
C411 C409 1.388 . S
C411 C412 1.366 . S
C412 C411 1.366 . S
C412 C413 1.414 . S
C412 C415 1.499 . S
C413 H387 0.950 . S
C413 C412 1.414 . S
C413 C414 1.374 . S
C414 H388 0.950 . S
C414 C410 1.385 . S
C414 C413 1.374 . S
C415 C412 1.499 . S
C415 C416 1.373 . S
C415 C417 1.389 . S
C416 H389 0.950 . S
C416 C402 1.377 . S
C416 C415 1.373 . S
C417 C401 1.377 . S
C417 C415 1.389 . S
C417 C418 1.524 . S
C418 C417 1.524 . S
C418 C419 1.397 . S
C418 C423 1.363 . S
C419 H390 0.950 . S
C419 C418 1.397 . S
C419 C420 1.334 . S
C420 H391 0.950 . S
C420 C419 1.334 . S
C420 C421 1.287 . S
C421 C420 1.287 . S
C421 C422 1.524 . S
C421 H424 0.999 . S
C422 H392 0.950 . S
C422 C421 1.524 . S
C422 C423 1.415 . S
C423 H393 0.950 . S
C423 C418 1.363 . S
C423 C422 1.415 . S
H424 C421 0.999 . S
H425 C406 0.913 . S
H426 C444 0.951 . S
H427 C446 0.951 . S
H428 C448 0.950 . S
H429 C449 0.950 . S
H430 C451 0.950 . S
H431 C454 0.950 . S
H432 C455 0.950 . S
H433 C457 0.950 . S
H434 C458 0.950 . S
H435 C459 0.951 . S
H436 C461 0.951 . S
H437 C463 0.950 . S
H438 C464 0.950 . S
H439 C466 0.950 . S
H440 C469 0.950 . S
H441 C470 0.950 . S
H442 C472 0.950 . S
H443 C473 0.950 . S
C444 H426 0.951 . S
C444 C445 1.366 . S
C444 C446 1.388 . S
C445 C444 1.366 . S
C445 C449 1.385 . S
C446 H427 0.951 . S
C446 C444 1.388 . S
C446 C447 1.366 . S
C447 C446 1.366 . S
C447 C448 1.414 . S
C447 C450 1.499 . S
C448 H428 0.950 . S
C448 C447 1.414 . S
C448 C449 1.374 . S
C449 H429 0.950 . S
C449 C445 1.385 . S
C449 C448 1.374 . S
C450 C447 1.499 . S
C450 C451 1.373 . S
C450 C452 1.389 . S
C451 H430 0.950 . S
C451 C450 1.373 . S
C451 C467 1.377 1_556 S
C452 C450 1.389 . S
C452 C453 1.524 . S
C452 C466 1.377 1_556 S
C453 C452 1.524 . S
C453 C454 1.397 . S
C453 C458 1.363 . S
C454 H431 0.950 . S
C454 C453 1.397 . S
C454 C455 1.334 . S
C455 H432 0.950 . S
C455 C454 1.334 . S
C455 C456 1.287 . S
C456 C455 1.287 . S
C456 C457 1.524 . S
C456 H475 0.913 . S
C457 H433 0.950 . S
C457 C456 1.524 . S
C457 C458 1.415 . S
C458 H434 0.950 . S
C458 C453 1.363 . S
C458 C457 1.415 . S
C459 H435 0.951 . S
C459 C460 1.366 . S
C459 C461 1.388 . S
C460 C459 1.366 . S
C460 C464 1.385 . S
C461 H436 0.951 . S
C461 C459 1.388 . S
C461 C462 1.366 . S
C462 C461 1.366 . S
C462 C463 1.414 . S
C462 C465 1.499 . S
C463 H437 0.950 . S
C463 C462 1.414 . S
C463 C464 1.374 . S
C464 H438 0.950 . S
C464 C460 1.385 . S
C464 C463 1.374 . S
C465 C462 1.499 . S
C465 C466 1.373 . S
C465 C467 1.389 . S
C466 H439 0.950 . S
C466 C452 1.377 1_554 S
C466 C465 1.373 . S
C467 C451 1.377 1_554 S
C467 C465 1.389 . S
C467 C468 1.524 . S
C468 C467 1.524 . S
C468 C469 1.397 . S
C468 C473 1.363 . S
C469 H440 0.950 . S
C469 C468 1.397 . S
C469 C470 1.334 . S
C470 H441 0.950 . S
C470 C469 1.334 . S
C470 C471 1.287 . S
C471 C470 1.287 . S
C471 C472 1.524 . S
C471 H474 0.999 . S
C472 H442 0.950 . S
C472 C471 1.524 . S
C472 C473 1.415 . S
C473 H443 0.950 . S
C473 C468 1.363 . S
C473 C472 1.415 . S
H474 C471 0.999 . S
H475 C456 0.913 . S
H476 C494 0.951 . S
H477 C496 0.951 . S
H478 C498 0.950 . S
H479 C499 0.950 . S
H480 C501 0.950 . S
H481 C504 0.950 . S
H482 C505 0.950 . S
H483 C507 0.950 . S
H484 C508 0.950 . S
H485 C509 0.951 . S
H486 C511 0.951 . S
H487 C513 0.950 . S
H488 C514 0.950 . S
H489 C516 0.950 . S
H490 C519 0.950 . S
H491 C520 0.950 . S
H492 C522 0.950 . S
H493 C523 0.950 . S
C494 H476 0.951 . S
C494 C495 1.366 . S
C494 C496 1.388 . S
C495 C494 1.366 . S
C495 C499 1.385 . S
C496 H477 0.951 . S
C496 C494 1.388 . S
C496 C497 1.366 . S
C497 C496 1.366 . S
C497 C498 1.414 . S
C497 C500 1.499 . S
C498 H478 0.950 . S
C498 C497 1.414 . S
C498 C499 1.374 . S
C499 H479 0.950 . S
C499 C495 1.385 . S
C499 C498 1.374 . S
C500 C497 1.499 . S
C500 C501 1.373 . S
C500 C502 1.389 . S
C501 H480 0.950 . S
C501 C500 1.373 . S
C501 C517 1.377 . S
C502 C500 1.389 . S
C502 C503 1.524 . S
C502 C516 1.377 . S
C503 C502 1.524 . S
C503 C504 1.397 . S
C503 C508 1.363 . S
C504 H481 0.950 . S
C504 C503 1.397 . S
C504 C505 1.334 . S
C505 H482 0.950 . S
C505 C504 1.334 . S
C505 C506 1.287 . S
C506 C505 1.287 . S
C506 C507 1.524 . S
C506 H525 0.913 . S
C507 H483 0.950 . S
C507 C506 1.524 . S
C507 C508 1.415 . S
C508 H484 0.950 . S
C508 C503 1.363 . S
C508 C507 1.415 . S
C509 H485 0.951 . S
C509 C510 1.366 . S
C509 C511 1.388 . S
C510 C509 1.366 . S
C510 C514 1.385 . S
C511 H486 0.951 . S
C511 C509 1.388 . S
C511 C512 1.366 . S
C512 C511 1.366 . S
C512 C513 1.414 . S
C512 C515 1.499 . S
C513 H487 0.950 . S
C513 C512 1.414 . S
C513 C514 1.374 . S
C514 H488 0.950 . S
C514 C510 1.385 . S
C514 C513 1.374 . S
C515 C512 1.499 . S
C515 C516 1.373 . S
C515 C517 1.389 . S
C516 H489 0.950 . S
C516 C502 1.377 . S
C516 C515 1.373 . S
C517 C501 1.377 . S
C517 C515 1.389 . S
C517 C518 1.524 . S
C518 C517 1.524 . S
C518 C519 1.397 . S
C518 C523 1.363 . S
C519 H490 0.950 . S
C519 C518 1.397 . S
C519 C520 1.334 . S
C520 H491 0.950 . S
C520 C519 1.334 . S
C520 C521 1.287 . S
C521 C520 1.287 . S
C521 C522 1.524 . S
C521 H524 0.999 . S
C522 H492 0.950 . S
C522 C521 1.524 . S
C522 C523 1.415 . S
C523 H493 0.950 . S
C523 C518 1.363 . S
C523 C522 1.415 . S
H524 C521 0.999 . S
H525 C506 0.913 . S
H526 C544 0.951 . S
H527 C546 0.951 . S
H528 C548 0.950 . S
H529 C549 0.950 . S
H530 C551 0.950 . S
H531 C554 0.950 . S
H532 C555 0.950 . S
H533 C557 0.950 . S
H534 C558 0.950 . S
H535 C559 0.951 . S
H536 C561 0.951 . S
H537 C563 0.950 . S
H538 C564 0.950 . S
H539 C566 0.950 . S
H540 C569 0.950 . S
H541 C570 0.950 . S
H542 C572 0.950 . S
H543 C573 0.950 . S
C544 H526 0.951 . S
C544 C545 1.366 . S
C544 C546 1.388 . S
C545 C544 1.366 . S
C545 C549 1.385 . S
C546 H527 0.951 . S
C546 C544 1.388 . S
C546 C547 1.366 . S
C547 C546 1.366 . S
C547 C548 1.414 . S
C547 C550 1.499 . S
C548 H528 0.950 . S
C548 C547 1.414 . S
C548 C549 1.374 . S
C549 H529 0.950 . S
C549 C545 1.385 . S
C549 C548 1.374 . S
C550 C547 1.499 . S
C550 C551 1.373 . S
C550 C552 1.389 . S
C551 H530 0.950 . S
C551 C550 1.373 . S
C551 C567 1.377 . S
C552 C550 1.389 . S
C552 C553 1.524 . S
C552 C566 1.377 . S
C553 C552 1.524 . S
C553 C554 1.397 . S
C553 C558 1.363 . S
C554 H531 0.950 . S
C554 C553 1.397 . S
C554 C555 1.334 . S
C555 H532 0.950 . S
C555 C554 1.334 . S
C555 C556 1.287 . S
C556 C555 1.287 . S
C556 C557 1.524 . S
C556 H575 0.913 . S
C557 H533 0.950 . S
C557 C556 1.524 . S
C557 C558 1.415 . S
C558 H534 0.950 . S
C558 C553 1.363 . S
C558 C557 1.415 . S
C559 H535 0.951 . S
C559 C560 1.366 . S
C559 C561 1.388 . S
C560 C559 1.366 . S
C560 C564 1.385 . S
C561 H536 0.951 . S
C561 C559 1.388 . S
C561 C562 1.366 . S
C562 C561 1.366 . S
C562 C563 1.414 . S
C562 C565 1.499 . S
C563 H537 0.950 . S
C563 C562 1.414 . S
C563 C564 1.374 . S
C564 H538 0.950 . S
C564 C560 1.385 . S
C564 C563 1.374 . S
C565 C562 1.499 . S
C565 C566 1.373 . S
C565 C567 1.389 . S
C566 H539 0.950 . S
C566 C552 1.377 . S
C566 C565 1.373 . S
C567 C551 1.377 . S
C567 C565 1.389 . S
C567 C568 1.524 . S
C568 C567 1.524 . S
C568 C569 1.397 . S
C568 C573 1.363 . S
C569 H540 0.950 . S
C569 C568 1.397 . S
C569 C570 1.334 . S
C570 H541 0.950 . S
C570 C569 1.334 . S
C570 C571 1.287 . S
C571 C570 1.287 . S
C571 C572 1.524 . S
C571 H574 0.999 . S
C572 H542 0.950 . S
C572 C571 1.524 . S
C572 C573 1.415 . S
C573 H543 0.950 . S
C573 C568 1.363 . S
C573 C572 1.415 . S
H574 C571 0.999 . S
H575 C556 0.913 . S
H576 C594 0.951 . S
H577 C596 0.951 . S
H578 C598 0.950 . S
H579 C599 0.950 . S
H580 C601 0.950 . S
H581 C604 0.950 . S
H582 C605 0.950 . S
H583 C607 0.950 . S
H584 C608 0.950 . S
H585 C609 0.951 . S
H586 C611 0.951 . S
H587 C613 0.950 . S
H588 C614 0.950 . S
H589 C616 0.950 . S
H590 C619 0.950 . S
H591 C620 0.950 . S
H592 C622 0.950 . S
H593 C623 0.950 . S
C594 H576 0.951 . S
C594 C595 1.366 . S
C594 C596 1.388 . S
C595 C594 1.366 . S
C595 C599 1.385 . S
C596 H577 0.951 . S
C596 C594 1.388 . S
C596 C597 1.366 . S
C597 C596 1.366 . S
C597 C598 1.414 . S
C597 C600 1.499 . S
C598 H578 0.950 . S
C598 C597 1.414 . S
C598 C599 1.374 . S
C599 H579 0.950 . S
C599 C595 1.385 . S
C599 C598 1.374 . S
C600 C597 1.499 . S
C600 C601 1.373 . S
C600 C602 1.389 . S
C601 H580 0.950 . S
C601 C600 1.373 . S
C601 C617 1.377 1_665 S
C602 C600 1.389 . S
C602 C603 1.524 . S
C602 C616 1.377 1_665 S
C603 C602 1.524 . S
C603 C604 1.397 . S
C603 C608 1.363 1_655 S
C604 H581 0.950 . S
C604 C603 1.397 . S
C604 C605 1.334 . S
C605 H582 0.950 . S
C605 C604 1.334 . S
C605 C606 1.287 . S
C606 C605 1.287 . S
C606 C607 1.524 1_655 S
C606 H625 0.913 . S
C607 H583 0.950 . S
C607 C606 1.524 1_455 S
C607 C608 1.415 . S
C608 H584 0.950 . S
C608 C603 1.363 1_455 S
C608 C607 1.415 . S
C609 H585 0.951 . S
C609 C610 1.366 . S
C609 C611 1.388 . S
C610 C609 1.366 . S
C610 C614 1.385 . S
C611 H586 0.951 . S
C611 C609 1.388 . S
C611 C612 1.366 . S
C612 C611 1.366 . S
C612 C613 1.414 . S
C612 C615 1.499 . S
C613 H587 0.950 . S
C613 C612 1.414 . S
C613 C614 1.374 . S
C614 H588 0.950 . S
C614 C610 1.385 . S
C614 C613 1.374 . S
C615 C612 1.499 . S
C615 C616 1.373 . S
C615 C617 1.389 . S
C616 H589 0.950 . S
C616 C602 1.377 1_445 S
C616 C615 1.373 . S
C617 C601 1.377 1_445 S
C617 C615 1.389 . S
C617 C618 1.524 . S
C618 C617 1.524 . S
C618 C619 1.397 . S
C618 C623 1.363 1_455 S
C619 H590 0.950 . S
C619 C618 1.397 . S
C619 C620 1.334 . S
C620 H591 0.950 . S
C620 C619 1.334 . S
C620 C621 1.287 . S
C621 C620 1.287 . S
C621 C622 1.524 1_455 S
C621 H624 0.999 . S
C622 H592 0.950 . S
C622 C621 1.524 1_655 S
C622 C623 1.415 . S
C623 H593 0.950 . S
C623 C618 1.363 1_655 S
C623 C622 1.415 . S
H624 C621 0.999 . S
H625 C606 0.913 . S
H626 C644 0.951 . S
H627 C646 0.951 . S
H628 C648 0.950 . S
H629 C649 0.950 . S
H630 C651 0.950 . S
H631 C654 0.972 . S
H632 C655 0.950 . S
H633 C657 0.950 . S
H634 C658 0.950 . S
H635 C659 0.951 . S
H636 C661 0.951 . S
H637 C663 0.950 . S
H638 C664 0.950 . S
H639 C666 0.950 . S
H640 C669 0.972 . S
H641 C670 0.950 . S
H642 C672 0.950 . S
H643 C673 0.950 . S
C644 H626 0.951 . S
C644 C645 1.366 . S
C644 C646 1.388 . S
C645 C644 1.366 . S
C645 C649 1.385 . S
C646 H627 0.951 . S
C646 C644 1.388 . S
C646 C647 1.366 . S
C647 C646 1.366 . S
C647 C648 1.414 . S
C647 C650 1.499 . S
C648 H628 0.950 . S
C648 C647 1.414 . S
C648 C649 1.374 . S
C649 H629 0.950 . S
C649 C645 1.385 . S
C649 C648 1.374 . S
C650 C647 1.499 . S
C650 C651 1.373 . S
C650 C652 1.389 . S
C651 H630 0.950 . S
C651 C650 1.373 . S
C651 C667 1.377 1_455 S
C652 C650 1.389 . S
C652 C653 1.524 . S
C652 C666 1.377 1_455 S
C653 C652 1.524 . S
C653 C654 1.397 . S
C653 C658 1.363 . S
C654 H631 0.972 . S
C654 C653 1.397 . S
C654 C655 1.334 . S
C655 H632 0.950 . S
C655 C654 1.334 . S
C655 C656 1.287 . S
C656 C655 1.287 . S
C656 C657 1.524 . S
C656 H675 0.913 . S
C657 H633 0.950 . S
C657 C656 1.524 . S
C657 C658 1.415 . S
C658 H634 0.950 . S
C658 C653 1.363 . S
C658 C657 1.415 . S
C659 H635 0.951 . S
C659 C660 1.366 . S
C659 C661 1.388 . S
C660 C659 1.366 . S
C660 C664 1.385 . S
C661 H636 0.951 . S
C661 C659 1.388 . S
C661 C662 1.366 . S
C662 C661 1.366 . S
C662 C663 1.414 . S
C662 C665 1.499 . S
C663 H637 0.950 . S
C663 C662 1.414 . S
C663 C664 1.374 . S
C664 H638 0.950 . S
C664 C660 1.385 . S
C664 C663 1.374 . S
C665 C662 1.499 . S
C665 C666 1.373 . S
C665 C667 1.389 . S
C666 H639 0.950 . S
C666 C652 1.377 1_655 S
C666 C665 1.373 . S
C667 C651 1.377 1_655 S
C667 C665 1.389 . S
C667 C668 1.524 . S
C668 C667 1.524 . S
C668 C669 1.397 . S
C668 C673 1.363 . S
C669 H640 0.972 . S
C669 C668 1.397 . S
C669 C670 1.334 . S
C670 H641 0.950 . S
C670 C669 1.334 . S
C670 C671 1.287 . S
C671 C670 1.287 . S
C671 C672 1.524 . S
C671 H674 0.999 . S
C672 H642 0.950 . S
C672 C671 1.524 . S
C672 C673 1.415 . S
C673 H643 0.950 . S
C673 C668 1.363 . S
C673 C672 1.415 . S
H674 C671 0.999 . S
H675 C656 0.913 . S
H676 C694 0.951 . S
H677 C696 0.951 . S
H678 C698 0.950 . S
H679 C699 0.950 . S
H680 C701 0.950 . S
H681 C704 0.950 . S
H682 C705 0.950 . S
H683 C707 0.950 . S
H684 C708 0.950 . S
H685 C709 0.951 . S
H686 C711 0.951 . S
H687 C713 0.950 . S
H688 C714 0.950 . S
H689 C716 0.950 . S
H690 C719 0.950 . S
H691 C720 0.950 . S
H692 C722 0.950 . S
H693 C723 0.950 . S
C694 H676 0.951 . S
C694 C695 1.366 . S
C694 C696 1.388 . S
C695 C694 1.366 . S
C695 C699 1.385 . S
C696 H677 0.951 . S
C696 C694 1.388 . S
C696 C697 1.366 . S
C697 C696 1.366 . S
C697 C698 1.414 . S
C697 C700 1.499 . S
C698 H678 0.950 . S
C698 C697 1.414 . S
C698 C699 1.374 . S
C699 H679 0.950 . S
C699 C695 1.385 . S
C699 C698 1.374 . S
C700 C697 1.499 . S
C700 C701 1.373 . S
C700 C702 1.389 . S
C701 H680 0.950 . S
C701 C700 1.373 . S
C701 C717 1.377 . S
C702 C700 1.389 . S
C702 C703 1.524 . S
C702 C716 1.377 . S
C703 C702 1.524 . S
C703 C704 1.397 . S
C703 C708 1.363 . S
C704 H681 0.950 . S
C704 C703 1.397 . S
C704 C705 1.334 . S
C705 H682 0.950 . S
C705 C704 1.334 . S
C705 C706 1.287 . S
C706 C705 1.287 . S
C706 C707 1.524 . S
C706 H725 0.913 . S
C707 H683 0.950 . S
C707 C706 1.524 . S
C707 C708 1.415 . S
C708 H684 0.950 . S
C708 C703 1.363 . S
C708 C707 1.415 . S
C709 H685 0.951 . S
C709 C710 1.366 . S
C709 C711 1.388 . S
C710 C709 1.366 . S
C710 C714 1.385 . S
C711 H686 0.951 . S
C711 C709 1.388 . S
C711 C712 1.366 . S
C712 C711 1.366 . S
C712 C713 1.414 . S
C712 C715 1.499 . S
C713 H687 0.950 . S
C713 C712 1.414 . S
C713 C714 1.374 . S
C714 H688 0.950 . S
C714 C710 1.385 . S
C714 C713 1.374 . S
C715 C712 1.499 . S
C715 C716 1.373 . S
C715 C717 1.389 . S
C716 H689 0.950 . S
C716 C702 1.377 . S
C716 C715 1.373 . S
C717 C701 1.377 . S
C717 C715 1.389 . S
C717 C718 1.524 . S
C718 C717 1.524 . S
C718 C719 1.397 . S
C718 C723 1.363 . S
C719 H690 0.950 . S
C719 C718 1.397 . S
C719 C720 1.334 . S
C720 H691 0.950 . S
C720 C719 1.334 . S
C720 C721 1.287 . S
C721 C720 1.287 . S
C721 C722 1.524 . S
C721 H724 0.999 . S
C722 H692 0.950 . S
C722 C721 1.524 . S
C722 C723 1.415 . S
C723 H693 0.950 . S
C723 C718 1.363 . S
C723 C722 1.415 . S
H724 C721 0.999 . S
H725 C706 0.913 . S
H726 C744 0.951 . S
H727 C746 0.951 . S
H728 C748 0.950 . S
H729 C749 0.950 . S
H730 C751 0.950 . S
H731 C754 0.950 1_565 S
H732 C755 0.918 1_565 S
H733 C757 0.950 . S
H734 C758 0.950 . S
H735 C759 0.951 . S
H736 C761 0.951 . S
H737 C763 0.950 . S
H738 C764 0.950 . S
H739 C766 0.950 . S
H740 C769 0.950 1_545 S
H741 C770 0.918 1_545 S
H742 C772 0.950 . S
H743 C773 0.950 . S
C744 H726 0.951 . S
C744 C745 1.366 . S
C744 C746 1.388 . S
C745 C744 1.366 . S
C745 C749 1.385 . S
C746 H727 0.951 . S
C746 C744 1.388 . S
C746 C747 1.366 . S
C747 C746 1.366 . S
C747 C748 1.414 . S
C747 C750 1.499 . S
C748 H728 0.950 . S
C748 C747 1.414 . S
C748 C749 1.374 . S
C749 H729 0.950 . S
C749 C745 1.385 . S
C749 C748 1.374 . S
C750 C747 1.499 . S
C750 C751 1.373 . S
C750 C752 1.389 1_565 S
C751 H730 0.950 . S
C751 C750 1.373 . S
C751 C767 1.377 . S
C752 C750 1.389 1_545 S
C752 C753 1.524 . S
C752 C766 1.377 . S
C753 C752 1.524 . S
C753 C754 1.397 . S
C753 C758 1.363 . S
C754 H731 0.950 1_545 S
C754 C753 1.397 . S
C754 C755 1.334 . S
C755 H732 0.918 1_545 S
C755 C754 1.334 . S
C755 C756 1.287 . S
C756 C755 1.287 . S
C756 C757 1.524 . S
C756 H775 0.913 . S
C757 H733 0.950 . S
C757 C756 1.524 . S
C757 C758 1.415 . S
C758 H734 0.950 . S
C758 C753 1.363 . S
C758 C757 1.415 . S
C759 H735 0.951 . S
C759 C760 1.366 . S
C759 C761 1.388 . S
C760 C759 1.366 . S
C760 C764 1.385 . S
C761 H736 0.951 . S
C761 C759 1.388 . S
C761 C762 1.366 . S
C762 C761 1.366 . S
C762 C763 1.414 . S
C762 C765 1.499 . S
C763 H737 0.950 . S
C763 C762 1.414 . S
C763 C764 1.374 . S
C764 H738 0.950 . S
C764 C760 1.385 . S
C764 C763 1.374 . S
C765 C762 1.499 . S
C765 C766 1.373 . S
C765 C767 1.389 1_545 S
C766 H739 0.950 . S
C766 C752 1.377 . S
C766 C765 1.373 . S
C767 C751 1.377 . S
C767 C765 1.389 1_565 S
C767 C768 1.524 . S
C768 C767 1.524 . S
C768 C769 1.397 . S
C768 C773 1.363 . S
C769 H740 0.950 1_565 S
C769 C768 1.397 . S
C769 C770 1.334 . S
C770 H741 0.918 1_565 S
C770 C769 1.334 . S
C770 C771 1.287 . S
C771 C770 1.287 . S
C771 C772 1.524 . S
C771 H774 0.999 . S
C772 H742 0.950 . S
C772 C771 1.524 . S
C772 C773 1.415 . S
C773 H743 0.950 . S
C773 C768 1.363 . S
C773 C772 1.415 . S
H774 C771 0.999 . S
H775 C756 0.913 . S
H776 C794 0.951 . S
H777 C796 0.951 . S
H778 C798 0.950 . S
H779 C799 0.950 . S
H780 C801 0.950 . S
H781 C804 0.950 . S
H782 C805 0.950 . S
H783 C807 0.950 . S
H784 C808 0.950 . S
H785 C809 0.951 . S
H786 C811 0.951 . S
H787 C813 0.950 . S
H788 C814 0.950 . S
H789 C816 0.950 . S
H790 C819 0.950 . S
H791 C820 0.950 . S
H792 C822 0.950 . S
H793 C823 0.950 . S
C794 H776 0.951 . S
C794 C795 1.366 . S
C794 C796 1.388 . S
C795 C794 1.366 . S
C795 C799 1.385 . S
C796 H777 0.951 . S
C796 C794 1.388 . S
C796 C797 1.366 . S
C797 C796 1.366 . S
C797 C798 1.414 . S
C797 C800 1.499 . S
C798 H778 0.950 . S
C798 C797 1.414 . S
C798 C799 1.374 . S
C799 H779 0.950 . S
C799 C795 1.385 . S
C799 C798 1.374 . S
C800 C797 1.499 . S
C800 C801 1.373 1_655 S
C800 C802 1.389 . S
C801 H780 0.950 . S
C801 C800 1.373 1_455 S
C801 C817 1.377 . S
C802 C800 1.389 . S
C802 C803 1.524 . S
C802 C816 1.377 . S
C803 C802 1.524 . S
C803 C804 1.397 . S
C803 C808 1.363 . S
C804 H781 0.950 . S
C804 C803 1.397 . S
C804 C805 1.334 . S
C805 H782 0.950 . S
C805 C804 1.334 . S
C805 C806 1.287 . S
C806 C805 1.287 . S
C806 C807 1.524 . S
C806 H825 0.913 . S
C807 H783 0.950 . S
C807 C806 1.524 . S
C807 C808 1.415 . S
C808 H784 0.950 . S
C808 C803 1.363 . S
C808 C807 1.415 . S
C809 H785 0.951 . S
C809 C810 1.366 . S
C809 C811 1.388 . S
C810 C809 1.366 . S
C810 C814 1.385 . S
C811 H786 0.951 . S
C811 C809 1.388 . S
C811 C812 1.366 . S
C812 C811 1.366 . S
C812 C813 1.414 . S
C812 C815 1.499 . S
C813 H787 0.950 . S
C813 C812 1.414 . S
C813 C814 1.374 . S
C814 H788 0.950 . S
C814 C810 1.385 . S
C814 C813 1.374 . S
C815 C812 1.499 . S
C815 C816 1.373 1_455 S
C815 C817 1.389 . S
C816 H789 0.950 . S
C816 C802 1.377 . S
C816 C815 1.373 1_655 S
C817 C801 1.377 . S
C817 C815 1.389 . S
C817 C818 1.524 . S
C818 C817 1.524 . S
C818 C819 1.397 . S
C818 C823 1.363 . S
C819 H790 0.950 . S
C819 C818 1.397 . S
C819 C820 1.334 . S
C820 H791 0.950 . S
C820 C819 1.334 . S
C820 C821 1.287 . S
C821 C820 1.287 . S
C821 C822 1.524 . S
C821 H824 0.999 . S
C822 H792 0.950 . S
C822 C821 1.524 . S
C822 C823 1.415 . S
C823 H793 0.950 . S
C823 C818 1.363 . S
C823 C822 1.415 . S
H824 C821 0.999 . S
H825 C806 0.913 . S
H826 C844 0.951 . S
H827 C846 0.951 . S
H828 C848 0.950 . S
H829 C849 0.950 . S
H830 C851 0.950 . S
H831 C854 0.950 . S
H832 C855 0.950 . S
H833 C857 0.950 . S
H834 C858 0.950 . S
H835 C859 0.951 . S
H836 C861 0.951 . S
H837 C863 0.950 . S
H838 C864 0.950 . S
H839 C866 0.950 . S
H840 C869 0.950 . S
H841 C870 0.950 . S
H842 C872 0.950 . S
H843 C873 0.950 . S
C844 H826 0.951 . S
C844 C845 1.366 . S
C844 C846 1.388 . S
C845 C844 1.366 . S
C845 C849 1.385 . S
C846 H827 0.951 . S
C846 C844 1.388 . S
C846 C847 1.366 . S
C847 C846 1.366 . S
C847 C848 1.414 . S
C847 C850 1.499 . S
C848 H828 0.950 . S
C848 C847 1.414 . S
C848 C849 1.374 . S
C849 H829 0.950 . S
C849 C845 1.385 . S
C849 C848 1.374 . S
C850 C847 1.499 . S
C850 C851 1.373 . S
C850 C852 1.389 . S
C851 H830 0.950 . S
C851 C850 1.373 . S
C851 C867 1.377 . S
C852 C850 1.389 . S
C852 C853 1.524 . S
C852 C866 1.377 . S
C853 C852 1.524 . S
C853 C854 1.397 . S
C853 C858 1.363 . S
C854 H831 0.950 . S
C854 C853 1.397 . S
C854 C855 1.334 . S
C855 H832 0.950 . S
C855 C854 1.334 . S
C855 C856 1.287 . S
C856 C855 1.287 . S
C856 C857 1.524 . S
C856 H875 0.913 . S
C857 H833 0.950 . S
C857 C856 1.524 . S
C857 C858 1.415 . S
C858 H834 0.950 . S
C858 C853 1.363 . S
C858 C857 1.415 . S
C859 H835 0.951 . S
C859 C860 1.366 . S
C859 C861 1.388 . S
C860 C859 1.366 . S
C860 C864 1.385 . S
C861 H836 0.951 . S
C861 C859 1.388 . S
C861 C862 1.366 . S
C862 C861 1.366 . S
C862 C863 1.414 . S
C862 C865 1.499 . S
C863 H837 0.950 . S
C863 C862 1.414 . S
C863 C864 1.374 . S
C864 H838 0.950 . S
C864 C860 1.385 . S
C864 C863 1.374 . S
C865 C862 1.499 . S
C865 C866 1.373 . S
C865 C867 1.389 . S
C866 H839 0.950 . S
C866 C852 1.377 . S
C866 C865 1.373 . S
C867 C851 1.377 . S
C867 C865 1.389 . S
C867 C868 1.524 . S
C868 C867 1.524 . S
C868 C869 1.397 . S
C868 C873 1.363 . S
C869 H840 0.950 . S
C869 C868 1.397 . S
C869 C870 1.334 . S
C870 H841 0.950 . S
C870 C869 1.334 . S
C870 C871 1.287 . S
C871 C870 1.287 . S
C871 C872 1.524 . S
C871 H874 0.999 . S
C872 H842 0.950 . S
C872 C871 1.524 . S
C872 C873 1.415 . S
C873 H843 0.950 . S
C873 C868 1.363 . S
C873 C872 1.415 . S
H874 C871 0.999 . S
H875 C856 0.913 . S
H876 C894 0.951 . S
H877 C896 0.951 . S
H878 C898 0.950 . S
H879 C899 0.950 . S
H880 C901 0.950 . S
H881 C904 0.950 . S
H882 C905 0.950 . S
H883 C907 0.950 . S
H884 C908 0.950 . S
H885 C909 0.951 . S
H886 C911 0.951 . S
H887 C913 0.950 . S
H888 C914 0.950 . S
H889 C916 0.950 . S
H890 C919 0.950 . S
H891 C920 0.950 . S
H892 C922 0.950 . S
H893 C923 0.950 . S
C894 H876 0.951 . S
C894 C895 1.366 . S
C894 C896 1.388 . S
C895 C894 1.366 . S
C895 C899 1.385 . S
C896 H877 0.951 . S
C896 C894 1.388 . S
C896 C897 1.366 . S
C897 C896 1.366 . S
C897 C898 1.414 . S
C897 C900 1.499 . S
C898 H878 0.950 . S
C898 C897 1.414 . S
C898 C899 1.374 . S
C899 H879 0.950 . S
C899 C895 1.385 . S
C899 C898 1.374 . S
C900 C897 1.499 . S
C900 C901 1.373 . S
C900 C902 1.385 1_545 S
C901 H880 0.950 . S
C901 C900 1.373 . S
C901 C917 1.381 . S
C902 C900 1.385 1_565 S
C902 C903 1.524 . S
C902 C916 1.381 . S
C903 C902 1.524 . S
C903 C904 1.361 1_565 S
C903 C908 1.400 . S
C904 H881 0.950 . S
C904 C903 1.361 1_545 S
C904 C905 1.334 . S
C905 H882 0.950 . S
C905 C904 1.334 . S
C905 C906 1.287 . S
C906 C905 1.287 . S
C906 C907 1.524 1_545 S
C906 H925 0.913 . S
C907 H883 0.950 . S
C907 C906 1.524 1_565 S
C907 C908 1.415 . S
C908 H884 0.950 . S
C908 C903 1.400 . S
C908 C907 1.415 . S
C909 H885 0.951 . S
C909 C910 1.366 . S
C909 C911 1.388 . S
C910 C909 1.366 . S
C910 C914 1.385 . S
C911 H886 0.951 . S
C911 C909 1.388 . S
C911 C912 1.366 . S
C912 C911 1.366 . S
C912 C913 1.414 . S
C912 C915 1.499 . S
C913 H887 0.950 . S
C913 C912 1.414 . S
C913 C914 1.374 . S
C914 H888 0.950 . S
C914 C910 1.385 . S
C914 C913 1.374 . S
C915 C912 1.499 . S
C915 C916 1.373 . S
C915 C917 1.385 1_565 S
C916 H889 0.950 . S
C916 C902 1.381 . S
C916 C915 1.373 . S
C917 C901 1.381 . S
C917 C915 1.385 1_545 S
C917 C918 1.524 . S
C918 C917 1.524 . S
C918 C919 1.361 1_545 S
C918 C923 1.399 . S
C919 H890 0.950 . S
C919 C918 1.361 1_565 S
C919 C920 1.334 . S
C920 H891 0.950 . S
C920 C919 1.334 . S
C920 C921 1.287 . S
C921 C920 1.287 . S
C921 C922 1.524 1_565 S
C921 H924 1.001 . S
C922 H892 0.950 . S
C922 C921 1.524 1_545 S
C922 C923 1.415 . S
C923 H893 0.950 . S
C923 C918 1.399 . S
C923 C922 1.415 . S
H924 C921 1.001 . S
H925 C906 0.913 . S
H926 C944 0.951 . S
H927 C946 0.951 . S
H928 C948 0.950 . S
H929 C949 0.950 . S
H930 C951 0.950 . S
H931 C954 0.950 1_545 S
H932 C955 0.950 . S
H933 C957 0.950 . S
H934 C958 0.950 . S
H935 C959 0.951 . S
H936 C961 0.951 . S
H937 C963 0.950 . S
H938 C964 0.950 . S
H939 C966 0.950 . S
H940 C969 0.950 1_565 S
H941 C970 0.950 . S
H942 C972 0.950 . S
H943 C973 0.950 . S
C944 H926 0.951 . S
C944 C945 1.366 . S
C944 C946 1.388 . S
C945 C944 1.366 . S
C945 C949 1.385 . S
C946 H927 0.951 . S
C946 C944 1.388 . S
C946 C947 1.366 . S
C947 C946 1.366 . S
C947 C948 1.414 . S
C947 C950 1.499 . S
C948 H928 0.950 . S
C948 C947 1.414 . S
C948 C949 1.374 . S
C949 H929 0.950 . S
C949 C945 1.385 . S
C949 C948 1.374 . S
C950 C947 1.499 . S
C950 C951 1.373 1_455 S
C950 C952 1.389 1_545 S
C951 H930 0.950 . S
C951 C950 1.373 1_655 S
C951 C967 1.377 . S
C952 C950 1.389 1_565 S
C952 C953 1.524 . S
C952 C966 1.377 . S
C953 C952 1.524 . S
C953 C954 1.397 . S
C953 C958 1.363 . S
C954 H931 0.950 1_565 S
C954 C953 1.397 . S
C954 C955 1.334 . S
C955 H932 0.950 . S
C955 C954 1.334 . S
C955 C956 1.287 . S
C956 C955 1.287 . S
C956 C957 1.524 . S
C956 H975 0.913 . S
C957 H933 0.950 . S
C957 C956 1.524 . S
C957 C958 1.415 . S
C958 H934 0.950 . S
C958 C953 1.363 . S
C958 C957 1.415 . S
C959 H935 0.951 . S
C959 C960 1.366 . S
C959 C961 1.388 . S
C960 C959 1.366 . S
C960 C964 1.385 . S
C961 H936 0.951 . S
C961 C959 1.388 . S
C961 C962 1.366 . S
C962 C961 1.366 . S
C962 C963 1.414 . S
C962 C965 1.499 . S
C963 H937 0.950 . S
C963 C962 1.414 . S
C963 C964 1.374 . S
C964 H938 0.950 . S
C964 C960 1.385 . S
C964 C963 1.374 . S
C965 C962 1.499 . S
C965 C966 1.373 1_655 S
C965 C967 1.389 1_565 S
C966 H939 0.950 . S
C966 C952 1.377 . S
C966 C965 1.373 1_455 S
C967 C951 1.377 . S
C967 C965 1.389 1_545 S
C967 C968 1.524 . S
C968 C967 1.524 . S
C968 C969 1.397 . S
C968 C973 1.363 . S
C969 H940 0.950 1_545 S
C969 C968 1.397 . S
C969 C970 1.334 . S
C970 H941 0.950 . S
C970 C969 1.334 . S
C970 C971 1.287 . S
C971 C970 1.287 . S
C971 C972 1.524 . S
C971 H974 0.999 . S
C972 H942 0.950 . S
C972 C971 1.524 . S
C972 C973 1.415 . S
C973 H943 0.950 . S
C973 C968 1.363 . S
C973 C972 1.415 . S
H974 C971 0.999 . S
H975 C956 0.913 . S
H976 C994 0.951 . S
H977 C996 0.951 . S
H978 C998 0.950 . S
H979 C999 0.950 . S
H980 C1001 0.950 . S
H981 C1004 0.950 . S
H982 C1005 0.950 . S
H983 C1007 0.950 . S
H984 C1008 0.950 . S
H985 C1009 0.951 . S
H986 C1011 0.951 . S
H987 C1013 0.950 . S
H988 C1014 0.950 . S
H989 C1016 0.950 . S
H990 C1019 0.950 . S
H991 C1020 0.950 . S
H992 C1022 0.950 . S
H993 C1023 0.950 . S
C994 H976 0.951 . S
C994 C995 1.366 . S
C994 C996 1.388 . S
C995 C994 1.366 . S
C995 C999 1.385 . S
C996 H977 0.951 . S
C996 C994 1.388 . S
C996 C997 1.366 . S
C997 C996 1.366 . S
C997 C998 1.414 . S
C997 C1000 1.499 . S
C998 H978 0.950 . S
C998 C997 1.414 . S
C998 C999 1.374 . S
C999 H979 0.950 . S
C999 C995 1.385 . S
C999 C998 1.374 . S
C1000 C997 1.499 . S
C1000 C1001 1.373 . S
C1000 C1002 1.389 . S
C1001 H980 0.950 . S
C1001 C1000 1.373 . S
C1001 C1017 1.377 . S
C1002 C1000 1.389 . S
C1002 C1003 1.524 . S
C1002 C1016 1.377 . S
C1003 C1002 1.524 . S
C1003 C1004 1.397 . S
C1003 C1008 1.363 . S
C1004 H981 0.950 . S
C1004 C1003 1.397 . S
C1004 C1005 1.334 . S
C1005 H982 0.950 . S
C1005 C1004 1.334 . S
C1005 C1006 1.287 . S
C1006 C1005 1.287 . S
C1006 C1007 1.524 . S
C1006 H1025 0.913 . S
C1007 H983 0.950 . S
C1007 C1006 1.524 . S
C1007 C1008 1.415 . S
C1008 H984 0.950 . S
C1008 C1003 1.363 . S
C1008 C1007 1.415 . S
C1009 H985 0.951 . S
C1009 C1010 1.366 . S
C1009 C1011 1.388 . S
C1010 C1009 1.366 . S
C1010 C1014 1.385 . S
C1011 H986 0.951 . S
C1011 C1009 1.388 . S
C1011 C1012 1.366 . S
C1012 C1011 1.366 . S
C1012 C1013 1.414 . S
C1012 C1015 1.499 . S
C1013 H987 0.950 . S
C1013 C1012 1.414 . S
C1013 C1014 1.374 . S
C1014 H988 0.950 . S
C1014 C1010 1.385 . S
C1014 C1013 1.374 . S
C1015 C1012 1.499 . S
C1015 C1016 1.373 . S
C1015 C1017 1.389 . S
C1016 H989 0.950 . S
C1016 C1002 1.377 . S
C1016 C1015 1.373 . S
C1017 C1001 1.377 . S
C1017 C1015 1.389 . S
C1017 C1018 1.524 . S
C1018 C1017 1.524 . S
C1018 C1019 1.397 . S
C1018 C1023 1.363 . S
C1019 H990 0.950 . S
C1019 C1018 1.397 . S
C1019 C1020 1.334 . S
C1020 H991 0.950 . S
C1020 C1019 1.334 . S
C1020 C1021 1.287 . S
C1021 C1020 1.287 . S
C1021 C1022 1.524 . S
C1021 H1024 0.999 . S
C1022 H992 0.950 . S
C1022 C1021 1.524 . S
C1022 C1023 1.415 . S
C1023 H993 0.950 . S
C1023 C1018 1.363 . S
C1023 C1022 1.415 . S
H1024 C1021 0.999 . S
H1025 C1006 0.913 . S
H1026 C1044 0.951 . S
H1027 C1046 0.951 . S
H1028 C1048 0.950 . S
H1029 C1049 0.950 . S
H1030 C1051 0.950 . S
H1031 C1054 0.950 . S
H1032 C1055 0.950 . S
H1033 C1057 0.950 . S
H1034 C1058 0.950 . S
H1035 C1059 0.951 . S
H1036 C1061 0.951 . S
H1037 C1063 0.950 . S
H1038 C1064 0.950 . S
H1039 C1066 0.950 . S
H1040 C1069 0.950 . S
H1041 C1070 0.950 . S
H1042 C1072 0.950 . S
H1043 C1073 0.950 . S
C1044 H1026 0.951 . S
C1044 C1045 1.366 . S
C1044 C1046 1.388 . S
C1045 C1044 1.366 . S
C1045 C1049 1.385 . S
C1046 H1027 0.951 . S
C1046 C1044 1.388 . S
C1046 C1047 1.366 . S
C1047 C1046 1.366 . S
C1047 C1048 1.414 . S
C1047 C1050 1.499 . S
C1048 H1028 0.950 . S
C1048 C1047 1.414 . S
C1048 C1049 1.374 . S
C1049 H1029 0.950 . S
C1049 C1045 1.385 . S
C1049 C1048 1.374 . S
C1050 C1047 1.499 . S
C1050 C1051 1.373 . S
C1050 C1052 1.389 . S
C1051 H1030 0.950 . S
C1051 C1050 1.373 . S
C1051 C1067 1.377 . S
C1052 C1050 1.389 . S
C1052 C1053 1.524 . S
C1052 C1066 1.377 . S
C1053 C1052 1.524 . S
C1053 C1054 1.397 . S
C1053 C1058 1.363 . S
C1054 H1031 0.950 . S
C1054 C1053 1.397 . S
C1054 C1055 1.334 . S
C1055 H1032 0.950 . S
C1055 C1054 1.334 . S
C1055 C1056 1.287 . S
C1056 C1055 1.287 . S
C1056 C1057 1.524 . S
C1056 H1075 0.913 . S
C1057 H1033 0.950 . S
C1057 C1056 1.524 . S
C1057 C1058 1.415 . S
C1058 H1034 0.950 . S
C1058 C1053 1.363 . S
C1058 C1057 1.415 . S
C1059 H1035 0.951 . S
C1059 C1060 1.366 . S
C1059 C1061 1.388 . S
C1060 C1059 1.366 . S
C1060 C1064 1.385 . S
C1061 H1036 0.951 . S
C1061 C1059 1.388 . S
C1061 C1062 1.366 . S
C1062 C1061 1.366 . S
C1062 C1063 1.414 . S
C1062 C1065 1.499 . S
C1063 H1037 0.950 . S
C1063 C1062 1.414 . S
C1063 C1064 1.374 . S
C1064 H1038 0.950 . S
C1064 C1060 1.385 . S
C1064 C1063 1.374 . S
C1065 C1062 1.499 . S
C1065 C1066 1.373 . S
C1065 C1067 1.389 . S
C1066 H1039 0.950 . S
C1066 C1052 1.377 . S
C1066 C1065 1.373 . S
C1067 C1051 1.377 . S
C1067 C1065 1.389 . S
C1067 C1068 1.524 . S
C1068 C1067 1.524 . S
C1068 C1069 1.397 . S
C1068 C1073 1.363 . S
C1069 H1040 0.950 . S
C1069 C1068 1.397 . S
C1069 C1070 1.334 . S
C1070 H1041 0.950 . S
C1070 C1069 1.334 . S
C1070 C1071 1.287 . S
C1071 C1070 1.287 . S
C1071 C1072 1.524 . S
C1071 H1074 0.999 . S
C1072 H1042 0.950 . S
C1072 C1071 1.524 . S
C1072 C1073 1.415 . S
C1073 H1043 0.950 . S
C1073 C1068 1.363 . S
C1073 C1072 1.415 . S
H1074 C1071 0.999 . S
H1075 C1056 0.913 . S
H1076 C1094 0.951 . S
H1077 C1096 0.951 . S
H1078 C1098 0.950 . S
H1079 C1099 0.950 . S
H1080 C1101 0.950 . S
H1081 C1104 0.950 . S
H1082 C1105 0.950 . S
H1083 C1107 0.950 . S
H1084 C1108 0.950 . S
H1085 C1109 0.951 . S
H1086 C1111 0.951 . S
H1087 C1113 0.950 . S
H1088 C1114 0.950 . S
H1089 C1116 0.950 . S
H1090 C1119 0.950 . S
H1091 C1120 0.950 . S
H1092 C1122 0.950 . S
H1093 C1123 0.950 . S
C1094 H1076 0.951 . S
C1094 C1095 1.366 . S
C1094 C1096 1.388 . S
C1095 C1094 1.366 . S
C1095 C1099 1.385 . S
C1096 H1077 0.951 . S
C1096 C1094 1.388 . S
C1096 C1097 1.366 . S
C1097 C1096 1.366 . S
C1097 C1098 1.414 . S
C1097 C1100 1.499 . S
C1098 H1078 0.950 . S
C1098 C1097 1.414 . S
C1098 C1099 1.374 . S
C1099 H1079 0.950 . S
C1099 C1095 1.385 . S
C1099 C1098 1.374 . S
C1100 C1097 1.499 . S
C1100 C1101 1.373 . S
C1100 C1102 1.389 . S
C1101 H1080 0.950 . S
C1101 C1100 1.373 . S
C1101 C1117 1.377 . S
C1102 C1100 1.389 . S
C1102 C1103 1.524 . S
C1102 C1116 1.377 . S
C1103 C1102 1.524 . S
C1103 C1104 1.397 . S
C1103 C1108 1.363 . S
C1104 H1081 0.950 . S
C1104 C1103 1.397 . S
C1104 C1105 1.334 . S
C1105 H1082 0.950 . S
C1105 C1104 1.334 . S
C1105 C1106 1.287 . S
C1106 C1105 1.287 . S
C1106 C1107 1.524 . S
C1106 H1125 0.913 . S
C1107 H1083 0.950 . S
C1107 C1106 1.524 . S
C1107 C1108 1.415 . S
C1108 H1084 0.950 . S
C1108 C1103 1.363 . S
C1108 C1107 1.415 . S
C1109 H1085 0.951 . S
C1109 C1110 1.366 . S
C1109 C1111 1.388 . S
C1110 C1109 1.366 . S
C1110 C1114 1.385 . S
C1111 H1086 0.951 . S
C1111 C1109 1.388 . S
C1111 C1112 1.366 . S
C1112 C1111 1.366 . S
C1112 C1113 1.414 . S
C1112 C1115 1.499 . S
C1113 H1087 0.950 . S
C1113 C1112 1.414 . S
C1113 C1114 1.374 . S
C1114 H1088 0.950 . S
C1114 C1110 1.385 . S
C1114 C1113 1.374 . S
C1115 C1112 1.499 . S
C1115 C1116 1.373 . S
C1115 C1117 1.389 . S
C1116 H1089 0.950 . S
C1116 C1102 1.377 . S
C1116 C1115 1.373 . S
C1117 C1101 1.377 . S
C1117 C1115 1.389 . S
C1117 C1118 1.524 . S
C1118 C1117 1.524 . S
C1118 C1119 1.397 . S
C1118 C1123 1.363 . S
C1119 H1090 0.950 . S
C1119 C1118 1.397 . S
C1119 C1120 1.334 . S
C1120 H1091 0.950 . S
C1120 C1119 1.334 . S
C1120 C1121 1.287 . S
C1121 C1120 1.287 . S
C1121 C1122 1.524 . S
C1121 H1124 0.999 . S
C1122 H1092 0.950 . S
C1122 C1121 1.524 . S
C1122 C1123 1.415 . S
C1123 H1093 0.950 . S
C1123 C1118 1.363 . S
C1123 C1122 1.415 . S
H1124 C1121 0.999 . S
H1125 C1106 0.913 . S
H1126 C1144 0.951 . S
H1127 C1146 0.951 . S
H1128 C1148 0.950 . S
H1129 C1149 0.950 . S
H1130 C1151 0.950 . S
H1131 C1154 0.950 . S
H1132 C1155 0.950 . S
H1133 C1157 0.950 . S
H1134 C1158 0.950 . S
H1135 C1159 0.951 . S
H1136 C1161 0.951 . S
H1137 C1163 0.950 . S
H1138 C1164 0.950 . S
H1139 C1166 0.950 . S
H1140 C1169 0.950 . S
H1141 C1170 0.950 . S
H1142 C1172 0.950 . S
H1143 C1173 0.950 . S
C1144 H1126 0.951 . S
C1144 C1145 1.366 . S
C1144 C1146 1.388 . S
C1145 C1144 1.366 . S
C1145 C1149 1.385 . S
C1146 H1127 0.951 . S
C1146 C1144 1.388 . S
C1146 C1147 1.366 . S
C1147 C1146 1.366 . S
C1147 C1148 1.414 . S
C1147 C1150 1.499 . S
C1148 H1128 0.950 . S
C1148 C1147 1.414 . S
C1148 C1149 1.374 . S
C1149 H1129 0.950 . S
C1149 C1145 1.385 . S
C1149 C1148 1.374 . S
C1150 C1147 1.499 . S
C1150 C1151 1.373 . S
C1150 C1152 1.389 . S
C1151 H1130 0.950 . S
C1151 C1150 1.373 . S
C1151 C1167 1.377 . S
C1152 C1150 1.389 . S
C1152 C1153 1.524 . S
C1152 C1166 1.377 . S
C1153 C1152 1.524 . S
C1153 C1154 1.397 . S
C1153 C1158 1.363 . S
C1154 H1131 0.950 . S
C1154 C1153 1.397 . S
C1154 C1155 1.334 . S
C1155 H1132 0.950 . S
C1155 C1154 1.334 . S
C1155 C1156 1.287 . S
C1156 C1155 1.287 . S
C1156 C1157 1.524 . S
C1156 H1175 0.913 . S
C1157 H1133 0.950 . S
C1157 C1156 1.524 . S
C1157 C1158 1.415 . S
C1158 H1134 0.950 . S
C1158 C1153 1.363 . S
C1158 C1157 1.415 . S
C1159 H1135 0.951 . S
C1159 C1160 1.366 . S
C1159 C1161 1.388 . S
C1160 C1159 1.366 . S
C1160 C1164 1.385 . S
C1161 H1136 0.951 . S
C1161 C1159 1.388 . S
C1161 C1162 1.366 . S
C1162 C1161 1.366 . S
C1162 C1163 1.414 . S
C1162 C1165 1.499 . S
C1163 H1137 0.950 . S
C1163 C1162 1.414 . S
C1163 C1164 1.374 . S
C1164 H1138 0.950 . S
C1164 C1160 1.385 . S
C1164 C1163 1.374 . S
C1165 C1162 1.499 . S
C1165 C1166 1.373 . S
C1165 C1167 1.389 . S
C1166 H1139 0.950 . S
C1166 C1152 1.377 . S
C1166 C1165 1.373 . S
C1167 C1151 1.377 . S
C1167 C1165 1.389 . S
C1167 C1168 1.524 . S
C1168 C1167 1.524 . S
C1168 C1169 1.397 . S
C1168 C1173 1.363 . S
C1169 H1140 0.950 . S
C1169 C1168 1.397 . S
C1169 C1170 1.334 . S
C1170 H1141 0.950 . S
C1170 C1169 1.334 . S
C1170 C1171 1.287 . S
C1171 C1170 1.287 . S
C1171 C1172 1.524 . S
C1171 H1174 0.999 . S
C1172 H1142 0.950 . S
C1172 C1171 1.524 . S
C1172 C1173 1.415 . S
C1173 H1143 0.950 . S
C1173 C1168 1.363 . S
C1173 C1172 1.415 . S
H1174 C1171 0.999 . S
H1175 C1156 0.913 . S
H1176 C1194 0.951 . S
H1177 C1196 0.951 . S
H1178 C1198 0.950 . S
H1179 C1199 0.950 . S
H1180 C1201 0.950 . S
H1181 C1204 0.950 . S
H1182 C1205 0.950 . S
H1183 C1207 0.950 . S
H1184 C1208 0.950 . S
H1185 C1209 0.951 . S
H1186 C1211 0.951 . S
H1187 C1213 0.950 . S
H1188 C1214 0.950 . S
H1189 C1216 0.950 . S
H1190 C1219 0.950 . S
H1191 C1220 0.950 . S
H1192 C1222 0.950 . S
H1193 C1223 0.950 . S
C1194 H1176 0.951 . S
C1194 C1195 1.366 . S
C1194 C1196 1.388 . S
C1195 C1194 1.366 . S
C1195 C1199 1.385 . S
C1196 H1177 0.951 . S
C1196 C1194 1.388 . S
C1196 C1197 1.366 . S
C1197 C1196 1.366 . S
C1197 C1198 1.414 . S
C1197 C1200 1.499 . S
C1198 H1178 0.950 . S
C1198 C1197 1.414 . S
C1198 C1199 1.374 . S
C1199 H1179 0.950 . S
C1199 C1195 1.385 . S
C1199 C1198 1.374 . S
C1200 C1197 1.499 . S
C1200 C1201 1.373 . S
C1200 C1202 1.389 . S
C1201 H1180 0.950 . S
C1201 C1200 1.373 . S
C1201 C1217 1.377 . S
C1202 C1200 1.389 . S
C1202 C1203 1.524 . S
C1202 C1216 1.377 . S
C1203 C1202 1.524 . S
C1203 C1204 1.397 . S
C1203 C1208 1.363 . S
C1204 H1181 0.950 . S
C1204 C1203 1.397 . S
C1204 C1205 1.334 . S
C1205 H1182 0.950 . S
C1205 C1204 1.334 . S
C1205 C1206 1.287 . S
C1206 C1205 1.287 . S
C1206 C1207 1.524 . S
C1206 H1225 0.913 . S
C1207 H1183 0.950 . S
C1207 C1206 1.524 . S
C1207 C1208 1.415 . S
C1208 H1184 0.950 . S
C1208 C1203 1.363 . S
C1208 C1207 1.415 . S
C1209 H1185 0.951 . S
C1209 C1210 1.366 . S
C1209 C1211 1.388 . S
C1210 C1209 1.366 . S
C1210 C1214 1.385 . S
C1211 H1186 0.951 . S
C1211 C1209 1.388 . S
C1211 C1212 1.366 . S
C1212 C1211 1.366 . S
C1212 C1213 1.414 . S
C1212 C1215 1.499 . S
C1213 H1187 0.950 . S
C1213 C1212 1.414 . S
C1213 C1214 1.374 . S
C1214 H1188 0.950 . S
C1214 C1210 1.385 . S
C1214 C1213 1.374 . S
C1215 C1212 1.499 . S
C1215 C1216 1.373 . S
C1215 C1217 1.389 . S
C1216 H1189 0.950 . S
C1216 C1202 1.377 . S
C1216 C1215 1.373 . S
C1217 C1201 1.377 . S
C1217 C1215 1.389 . S
C1217 C1218 1.524 . S
C1218 C1217 1.524 . S
C1218 C1219 1.397 . S
C1218 C1223 1.363 . S
C1219 H1190 0.950 . S
C1219 C1218 1.397 . S
C1219 C1220 1.334 . S
C1220 H1191 0.950 . S
C1220 C1219 1.334 . S
C1220 C1221 1.287 . S
C1221 C1220 1.287 . S
C1221 C1222 1.524 . S
C1221 H1224 0.999 . S
C1222 H1192 0.950 . S
C1222 C1221 1.524 . S
C1222 C1223 1.415 . S
C1223 H1193 0.950 . S
C1223 C1218 1.363 . S
C1223 C1222 1.415 . S
H1224 C1221 0.999 . S
H1225 C1206 0.913 . S
H1226 C1244 0.951 . S
H1227 C1246 0.951 . S
H1228 C1248 0.950 . S
H1229 C1249 0.950 . S
H1230 C1251 0.950 . S
H1231 C1254 0.950 . S
H1232 C1255 0.950 . S
H1233 C1257 0.950 . S
H1234 C1258 0.950 . S
H1235 C1259 0.951 . S
H1236 C1261 0.951 . S
H1237 C1263 0.950 . S
H1238 C1264 0.950 . S
H1239 C1266 0.950 . S
H1240 C1269 0.950 . S
H1241 C1270 0.950 . S
H1242 C1272 0.950 . S
H1243 C1273 0.950 . S
C1244 H1226 0.951 . S
C1244 C1245 1.366 . S
C1244 C1246 1.388 . S
C1245 C1244 1.366 . S
C1245 C1249 1.385 . S
C1246 H1227 0.951 . S
C1246 C1244 1.388 . S
C1246 C1247 1.366 . S
C1247 C1246 1.366 . S
C1247 C1248 1.414 . S
C1247 C1250 1.499 . S
C1248 H1228 0.950 . S
C1248 C1247 1.414 . S
C1248 C1249 1.374 . S
C1249 H1229 0.950 . S
C1249 C1245 1.385 . S
C1249 C1248 1.374 . S
C1250 C1247 1.499 . S
C1250 C1251 1.373 . S
C1250 C1252 1.389 . S
C1251 H1230 0.950 . S
C1251 C1250 1.373 . S
C1251 C1267 1.377 . S
C1252 C1250 1.389 . S
C1252 C1253 1.524 . S
C1252 C1266 1.377 . S
C1253 C1252 1.524 . S
C1253 C1254 1.397 . S
C1253 C1258 1.363 . S
C1254 H1231 0.950 . S
C1254 C1253 1.397 . S
C1254 C1255 1.334 . S
C1255 H1232 0.950 . S
C1255 C1254 1.334 . S
C1255 C1256 1.287 . S
C1256 C1255 1.287 . S
C1256 C1257 1.524 . S
C1256 H1275 0.913 . S
C1257 H1233 0.950 . S
C1257 C1256 1.524 . S
C1257 C1258 1.415 . S
C1258 H1234 0.950 . S
C1258 C1253 1.363 . S
C1258 C1257 1.415 . S
C1259 H1235 0.951 . S
C1259 C1260 1.366 . S
C1259 C1261 1.388 . S
C1260 C1259 1.366 . S
C1260 C1264 1.385 . S
C1261 H1236 0.951 . S
C1261 C1259 1.388 . S
C1261 C1262 1.366 . S
C1262 C1261 1.366 . S
C1262 C1263 1.414 . S
C1262 C1265 1.499 . S
C1263 H1237 0.950 . S
C1263 C1262 1.414 . S
C1263 C1264 1.374 . S
C1264 H1238 0.950 . S
C1264 C1260 1.385 . S
C1264 C1263 1.374 . S
C1265 C1262 1.499 . S
C1265 C1266 1.373 . S
C1265 C1267 1.389 . S
C1266 H1239 0.950 . S
C1266 C1252 1.377 . S
C1266 C1265 1.373 . S
C1267 C1251 1.377 . S
C1267 C1265 1.389 . S
C1267 C1268 1.524 . S
C1268 C1267 1.524 . S
C1268 C1269 1.397 . S
C1268 C1273 1.363 . S
C1269 H1240 0.950 . S
C1269 C1268 1.397 . S
C1269 C1270 1.334 . S
C1270 H1241 0.950 . S
C1270 C1269 1.334 . S
C1270 C1271 1.287 . S
C1271 C1270 1.287 . S
C1271 C1272 1.524 . S
C1271 H1274 0.999 . S
C1272 H1242 0.950 . S
C1272 C1271 1.524 . S
C1272 C1273 1.415 . S
C1273 H1243 0.950 . S
C1273 C1268 1.363 . S
C1273 C1272 1.415 . S
H1274 C1271 0.999 . S
H1275 C1256 0.913 . S
H1276 C1294 0.951 . S
H1277 C1296 0.951 . S
H1278 C1298 0.950 . S
H1279 C1299 0.950 . S
H1280 C1301 0.950 . S
H1281 C1304 0.950 . S
H1282 C1305 0.950 . S
H1283 C1307 0.950 . S
H1284 C1308 0.950 . S
H1285 C1309 0.951 . S
H1286 C1311 0.951 . S
H1287 C1313 0.950 . S
H1288 C1314 0.950 . S
H1289 C1316 0.950 . S
H1290 C1319 0.950 . S
H1291 C1320 0.950 . S
H1292 C1322 0.950 . S
H1293 C1323 0.950 . S
C1294 H1276 0.951 . S
C1294 C1295 1.366 . S
C1294 C1296 1.388 . S
C1295 C1294 1.366 . S
C1295 C1299 1.385 . S
C1296 H1277 0.951 . S
C1296 C1294 1.388 . S
C1296 C1297 1.366 . S
C1297 C1296 1.366 . S
C1297 C1298 1.414 . S
C1297 C1300 1.499 . S
C1298 H1278 0.950 . S
C1298 C1297 1.414 . S
C1298 C1299 1.374 . S
C1299 H1279 0.950 . S
C1299 C1295 1.385 . S
C1299 C1298 1.374 . S
C1300 C1297 1.499 . S
C1300 C1301 1.373 . S
C1300 C1302 1.389 . S
C1301 H1280 0.950 . S
C1301 C1300 1.373 . S
C1301 C1317 1.377 . S
C1302 C1300 1.389 . S
C1302 C1303 1.524 . S
C1302 C1316 1.377 . S
C1303 C1302 1.524 . S
C1303 C1304 1.397 . S
C1303 C1308 1.363 . S
C1304 H1281 0.950 . S
C1304 C1303 1.397 . S
C1304 C1305 1.334 . S
C1305 H1282 0.950 . S
C1305 C1304 1.334 . S
C1305 C1306 1.287 . S
C1306 C1305 1.287 . S
C1306 C1307 1.524 . S
C1306 H1325 0.913 . S
C1307 H1283 0.950 . S
C1307 C1306 1.524 . S
C1307 C1308 1.415 . S
C1308 H1284 0.950 . S
C1308 C1303 1.363 . S
C1308 C1307 1.415 . S
C1309 H1285 0.951 . S
C1309 C1310 1.366 . S
C1309 C1311 1.388 . S
C1310 C1309 1.366 . S
C1310 C1314 1.385 . S
C1311 H1286 0.951 . S
C1311 C1309 1.388 . S
C1311 C1312 1.366 . S
C1312 C1311 1.366 . S
C1312 C1313 1.414 . S
C1312 C1315 1.499 . S
C1313 H1287 0.950 . S
C1313 C1312 1.414 . S
C1313 C1314 1.374 . S
C1314 H1288 0.950 . S
C1314 C1310 1.385 . S
C1314 C1313 1.374 . S
C1315 C1312 1.499 . S
C1315 C1316 1.373 . S
C1315 C1317 1.389 . S
C1316 H1289 0.950 . S
C1316 C1302 1.377 . S
C1316 C1315 1.373 . S
C1317 C1301 1.377 . S
C1317 C1315 1.389 . S
C1317 C1318 1.524 . S
C1318 C1317 1.524 . S
C1318 C1319 1.397 . S
C1318 C1323 1.363 . S
C1319 H1290 0.950 . S
C1319 C1318 1.397 . S
C1319 C1320 1.334 . S
C1320 H1291 0.950 . S
C1320 C1319 1.334 . S
C1320 C1321 1.287 . S
C1321 C1320 1.287 . S
C1321 C1322 1.524 . S
C1321 H1324 0.999 . S
C1322 H1292 0.950 . S
C1322 C1321 1.524 . S
C1322 C1323 1.415 . S
C1323 H1293 0.950 . S
C1323 C1318 1.363 . S
C1323 C1322 1.415 . S
H1324 C1321 0.999 . S
H1325 C1306 0.913 . S
H1326 C1344 0.951 . S
H1327 C1346 0.951 . S
H1328 C1348 0.950 . S
H1329 C1349 0.950 . S
H1330 C1351 0.950 . S
H1331 C1354 0.950 . S
H1332 C1355 0.950 . S
H1333 C1357 0.950 . S
H1334 C1358 0.950 . S
H1335 C1359 0.951 . S
H1336 C1361 0.951 . S
H1337 C1363 0.950 . S
H1338 C1364 0.950 . S
H1339 C1366 0.950 . S
H1340 C1369 0.950 . S
H1341 C1370 0.950 . S
H1342 C1372 0.950 . S
H1343 C1373 0.950 . S
C1344 H1326 0.951 . S
C1344 C1345 1.366 . S
C1344 C1346 1.388 . S
C1345 C1344 1.366 . S
C1345 C1349 1.385 . S
C1346 H1327 0.951 . S
C1346 C1344 1.388 . S
C1346 C1347 1.366 . S
C1347 C1346 1.366 . S
C1347 C1348 1.414 . S
C1347 C1350 1.499 . S
C1348 H1328 0.950 . S
C1348 C1347 1.414 . S
C1348 C1349 1.374 . S
C1349 H1329 0.950 . S
C1349 C1345 1.385 . S
C1349 C1348 1.374 . S
C1350 C1347 1.499 . S
C1350 C1351 1.373 . S
C1350 C1352 1.389 . S
C1351 H1330 0.950 . S
C1351 C1350 1.373 . S
C1351 C1367 1.377 . S
C1352 C1350 1.389 . S
C1352 C1353 1.524 . S
C1352 C1366 1.377 . S
C1353 C1352 1.524 . S
C1353 C1354 1.397 . S
C1353 C1358 1.363 . S
C1354 H1331 0.950 . S
C1354 C1353 1.397 . S
C1354 C1355 1.334 . S
C1355 H1332 0.950 . S
C1355 C1354 1.334 . S
C1355 C1356 1.287 . S
C1356 C1355 1.287 . S
C1356 C1357 1.524 . S
C1356 H1375 0.913 . S
C1357 H1333 0.950 . S
C1357 C1356 1.524 . S
C1357 C1358 1.415 . S
C1358 H1334 0.950 . S
C1358 C1353 1.363 . S
C1358 C1357 1.415 . S
C1359 H1335 0.951 . S
C1359 C1360 1.366 . S
C1359 C1361 1.388 . S
C1360 C1359 1.366 . S
C1360 C1364 1.385 . S
C1361 H1336 0.951 . S
C1361 C1359 1.388 . S
C1361 C1362 1.366 . S
C1362 C1361 1.366 . S
C1362 C1363 1.414 . S
C1362 C1365 1.499 . S
C1363 H1337 0.950 . S
C1363 C1362 1.414 . S
C1363 C1364 1.374 . S
C1364 H1338 0.950 . S
C1364 C1360 1.385 . S
C1364 C1363 1.374 . S
C1365 C1362 1.499 . S
C1365 C1366 1.373 . S
C1365 C1367 1.389 . S
C1366 H1339 0.950 . S
C1366 C1352 1.377 . S
C1366 C1365 1.373 . S
C1367 C1351 1.377 . S
C1367 C1365 1.389 . S
C1367 C1368 1.524 . S
C1368 C1367 1.524 . S
C1368 C1369 1.397 . S
C1368 C1373 1.363 . S
C1369 H1340 0.950 . S
C1369 C1368 1.397 . S
C1369 C1370 1.334 . S
C1370 H1341 0.950 . S
C1370 C1369 1.334 . S
C1370 C1371 1.287 . S
C1371 C1370 1.287 . S
C1371 C1372 1.524 . S
C1371 H1374 0.999 . S
C1372 H1342 0.950 . S
C1372 C1371 1.524 . S
C1372 C1373 1.415 . S
C1373 H1343 0.950 . S
C1373 C1368 1.363 . S
C1373 C1372 1.415 . S
H1374 C1371 0.999 . S
H1375 C1356 0.913 . S
C195 C150 1.531 . S
C210 C7 1.531 . S
C245 C18 1.531 . S
C260 C161 1.531 . S
C295 C29 1.531 . S
C310 C172 1.531 . S
C345 C40 1.530 . S
C360 C139 1.531 . S
C395 C51 1.531 . S
C410 C128 1.531 . S
C445 C95 1.532 . S
C460 C62 1.532 . S
C495 C106 1.531 . S
C510 C73 1.531 . S
C545 C117 1.532 . S
C560 C84 1.532 . S
C595 C115 1.343 . S
C610 C5 1.341 . S
C645 C126 1.343 . S
C660 C16 1.342 . S
C695 C93 1.342 . S
C710 C27 1.341 . S
C745 C38 1.342 . S
C760 C104 1.341 . S
C795 C159 1.343 . S
C810 C49 1.343 . S
C845 C170 1.342 . S
C860 C60 1.341 . S
C895 C71 1.341 . S
C910 C137 1.343 . S
C945 C148 1.341 . S
C960 C82 1.341 . S
C995 C74 1.649 . S
C1010 C8 1.650 . S
C1045 C19 1.649 . S
C1060 C85 1.649 . S
C1095 C30 1.650 . S
C1110 C52 1.649 . S
C1145 C41 1.650 . S
C1160 C63 1.650 . S
C1195 C162 1.649 . S
C1210 C96 1.649 . S
C1245 C173 1.649 . S
C1260 C107 1.649 . S
C1295 C118 1.650 . S
C1310 C140 1.649 . S
C1345 C129 1.649 . S
C1360 C151 1.649 . S
