# Generated by pormake.
# Topology yfb, (5)-cn, num edge types: 1
# Building blocks:
#     Node 0, Type 0, BuildingBlock: BEQFEK_clean_sbu_0, # of connection points: 5
#     Node 1, Type 0, BuildingBlock: BEQFEK_clean_sbu_0, # of connection points: 5
#     Node 2, Type 0, BuildingBlock: BEQFEK_clean_sbu_0, # of connection points: 5
#     Node 3, Type 0, BuildingBlock: BEQFEK_clean_sbu_0, # of connection points: 5
#     Node 4, Type 0, BuildingBlock: BEQFEK_clean_sbu_0, # of connection points: 5
#     Node 5, Type 0, BuildingBlock: BEQFEK_clean_sbu_0, # of connection points: 5
#     Node 6, Type 0, BuildingBlock: BEQFEK_clean_sbu_0, # of connection points: 5
#     Node 7, Type 0, BuildingBlock: BEQFEK_clean_sbu_0, # of connection points: 5
#     Node 8, Type 0, BuildingBlock: BEQFEK_clean_sbu_0, # of connection points: 5
#     Node 9, Type 0, BuildingBlock: BEQFEK_clean_sbu_0, # of connection points: 5
#     Node 10, Type 0, BuildingBlock: BEQFEK_clean_sbu_0, # of connection points: 5
#     Node 11, Type 0, BuildingBlock: BEQFEK_clean_sbu_0, # of connection points: 5
#     Node 12, Type 0, BuildingBlock: BEQFEK_clean_sbu_0, # of connection points: 5
#     Node 13, Type 0, BuildingBlock: BEQFEK_clean_sbu_0, # of connection points: 5
#     Node 14, Type 0, BuildingBlock: BEQFEK_clean_sbu_0, # of connection points: 5
#     Node 15, Type 0, BuildingBlock: BEQFEK_clean_sbu_0, # of connection points: 5
#     Edge 16, Type (0, 0), None
#     Edge 17, Type (0, 0), None
#     Edge 18, Type (0, 0), None
#     Edge 19, Type (0, 0), None
#     Edge 20, Type (0, 0), None
#     Edge 21, Type (0, 0), None
#     Edge 22, Type (0, 0), None
#     Edge 23, Type (0, 0), None
#     Edge 24, Type (0, 0), None
#     Edge 25, Type (0, 0), None
#     Edge 26, Type (0, 0), None
#     Edge 27, Type (0, 0), None
#     Edge 28, Type (0, 0), None
#     Edge 29, Type (0, 0), None
#     Edge 30, Type (0, 0), None
#     Edge 31, Type (0, 0), None
#     Edge 32, Type (0, 0), None
#     Edge 33, Type (0, 0), None
#     Edge 34, Type (0, 0), None
#     Edge 35, Type (0, 0), None
#     Edge 36, Type (0, 0), None
#     Edge 37, Type (0, 0), None
#     Edge 38, Type (0, 0), None
#     Edge 39, Type (0, 0), None
#     Edge 40, Type (0, 0), None
#     Edge 41, Type (0, 0), None
#     Edge 42, Type (0, 0), None
#     Edge 43, Type (0, 0), None
#     Edge 44, Type (0, 0), None
#     Edge 45, Type (0, 0), None
#     Edge 46, Type (0, 0), None
#     Edge 47, Type (0, 0), None
#     Edge 48, Type (0, 0), None
#     Edge 49, Type (0, 0), None
#     Edge 50, Type (0, 0), None
#     Edge 51, Type (0, 0), None
#     Edge 52, Type (0, 0), None
#     Edge 53, Type (0, 0), None
#     Edge 54, Type (0, 0), None
#     Edge 55, Type (0, 0), None
# Relax obj value: 0.694
# Max RMSD: 0.240
# Mean RMSD: 0.240
data_MOF--net-yfb--node1-BEQFEK_clean_sbu_0--edge1-none
_symmetry_space_group_name_H-M    P1
_symmetry_Int_Tables_number       1
_symmetry_cell_setting            triclinic
loop_
_symmetry_equiv_pos_as_xyz
'x, y, z'
_cell_length_a     24.252745
_cell_length_b     24.252744
_cell_length_c     22.745321
_cell_angle_alpha  89.999111
_cell_angle_beta   90.000908
_cell_angle_gamma 89.999897
loop_
_atom_site_label
_atom_site_type_symbol
_atom_site_fract_x
_atom_site_fract_y
_atom_site_fract_z
_atom_type_partial_charge
Co0 Co 0.81392 0.20334 0.07871 0.0
Co1 Co 0.72349 0.13289 0.03626 0.0
C2 C 0.69886 0.24424 0.03833 0.0
O3 O 0.75103 0.24807 0.04192 0.0
O4 O 0.67773 0.19895 0.05357 0.0
C5 C 0.80543 0.27254 0.16131 0.0
O6 O 0.76073 0.24218 0.16399 0.0
C7 C 0.61403 0.08164 0.02181 0.0
C8 C 0.62071 1.04046 0.93596 0.0
C9 C 0.58261 0.05545 -0.02138 0.0
N10 N 0.66747 0.08316 0.00481 0.0
N11 N 0.67104 0.05777 0.95354 0.0
C12 C 0.59283 0.10814 0.07674 0.0
H13 H 0.62726 0.12161 0.10535 0.0
H14 H 0.56672 0.07849 0.10136 0.0
H15 H 0.56696 0.14427 0.06503 0.0
C16 C 0.83211 0.11934 0.16476 0.0
N17 N 0.80363 0.13736 0.11814 0.0
N18 N 0.75987 0.10722 0.10911 0.0
C19 C 0.75644 0.07194 0.15564 0.0
C20 C 0.80224 0.07918 0.19396 0.0
C21 C 0.8858 0.14398 0.18381 0.0
H22 H 0.9036 0.17008 0.14859 0.0
H23 H 0.87991 0.16866 0.22416 0.0
H24 H 0.91551 0.11062 0.19391 0.0
O25 O 0.85871 0.1863 0.01513 0.0
O26 O 0.78222 0.15837 0.96942 0.0
H27 H 0.71576 1.00725 0.20432 0.0
H28 H 0.67074 0.05912 0.17297 0.0
C29 C 0.70853 1.03437 0.16575 0.0
H30 H 0.70153 1.00902 0.12581 0.0
H31 H 0.70714 0.05526 0.92872 0.0
O32 O 0.84626 0.25481 0.13227 0.0
C33 C 0.83307 0.17504 0.96819 0.0
Co34 Co 0.4005 0.81391 0.07872 0.0
Co35 Co 0.47095 0.72349 0.03626 0.0
C36 C 0.35959 0.69887 0.03832 0.0
O37 O 0.35577 0.75103 0.04191 0.0
O38 O 0.40489 0.67773 0.05357 0.0
C39 C 0.3313 0.80542 0.16131 0.0
O40 O 0.36166 0.76071 0.16398 0.0
C41 C 0.5222 0.61403 0.02182 0.0
C42 C 0.56337 0.62071 0.93596 0.0
C43 C 0.54838 0.58261 -0.02138 0.0
N44 N 0.52068 0.66747 0.00482 0.0
N45 N 0.54607 0.67104 0.95354 0.0
C46 C 0.4957 0.59283 0.07674 0.0
H47 H 0.48223 0.62726 0.10536 0.0
H48 H 0.52535 0.56672 0.10136 0.0
H49 H 0.45957 0.56696 0.06503 0.0
C50 C 0.4845 0.83211 0.16476 0.0
N51 N 0.46648 0.80362 0.11815 0.0
N52 N 0.49662 0.75986 0.10911 0.0
C53 C 0.5319 0.75644 0.15564 0.0
C54 C 0.52467 0.80224 0.19397 0.0
C55 C 0.45986 0.88579 0.1838 0.0
H56 H 0.43376 0.9036 0.14858 0.0
H57 H 0.43518 0.87991 0.22416 0.0
H58 H 0.49322 0.91551 0.1939 0.0
O59 O 0.41755 0.85871 0.01515 0.0
O60 O 0.44548 0.78223 0.96943 0.0
H61 H 0.59659 0.71576 0.20433 0.0
H62 H 0.54473 0.67073 0.17298 0.0
C63 C 0.56947 0.70853 0.16576 0.0
H64 H 0.59482 0.70153 0.12582 0.0
H65 H 0.54857 0.70714 0.92872 0.0
O66 O 0.34902 0.84625 0.13228 0.0
C67 C 0.42881 0.83308 0.96821 0.0
Co68 Co 0.78992 0.40051 0.07874 0.0
Co69 Co 0.88035 0.47095 0.03626 0.0
C70 C 0.90496 0.35958 0.03833 0.0
O71 O 0.8528 0.35576 0.04194 0.0
O72 O 0.9261 0.40488 0.05357 0.0
C73 C 0.7984 0.33134 0.16137 0.0
O74 O 0.84314 0.36164 0.16405 0.0
C75 C 0.98981 0.52219 0.02181 0.0
C76 C 0.98312 0.56337 0.93596 0.0
C77 C 1.02123 0.54838 -0.02138 0.0
N78 N 0.93637 0.52067 0.00481 0.0
N79 N 0.9328 0.54606 0.95354 0.0
C80 C 1.01101 0.49569 0.07674 0.0
H81 H 0.97658 0.48222 0.10535 0.0
H82 H 1.03711 0.52534 0.10136 0.0
H83 H 1.03688 0.45957 0.06503 0.0
C84 C 0.77173 0.48452 0.16476 0.0
N85 N 0.80021 0.46649 0.11815 0.0
N86 N 0.84398 0.49662 0.10912 0.0
C87 C 0.84741 0.5319 0.15565 0.0
C88 C 0.80161 0.52467 0.19397 0.0
C89 C 0.71805 0.45987 0.18381 0.0
H90 H 0.70022 0.43381 0.14857 0.0
H91 H 0.72395 0.43515 0.22413 0.0
H92 H 0.68834 0.49322 0.19396 0.0
O93 O 0.74512 0.41754 0.01516 0.0
O94 O 0.8216 0.44547 0.96944 0.0
H95 H 0.88811 0.59658 0.20433 0.0
H96 H 0.93311 0.54469 0.17302 0.0
C97 C 0.89533 0.56945 0.16577 0.0
H98 H 0.90236 0.59478 0.12583 0.0
H99 H 0.89669 0.54857 0.92872 0.0
O100 O 0.75757 0.34906 0.13232 0.0
C101 C 0.77075 0.4288 0.96822 0.0
Co102 Co 0.20333 0.78991 0.07873 0.0
Co103 Co 0.13289 0.88035 0.03626 0.0
C104 C 0.24425 0.90496 0.03835 0.0
O105 O 0.24808 0.8528 0.04195 0.0
O106 O 0.19896 0.9261 0.05358 0.0
C107 C 0.27249 0.79838 0.16137 0.0
O108 O 0.2422 0.84312 0.16406 0.0
C109 C 0.08164 0.9898 0.02181 0.0
C110 C 1.04047 0.98312 0.93596 0.0
C111 C 0.05545 1.02123 -0.02138 0.0
N112 N 0.08317 0.93637 0.00481 0.0
N113 N 0.05778 0.9328 0.95354 0.0
C114 C 0.10814 1.01101 0.07673 0.0
H115 H 0.12161 0.97658 0.10535 0.0
H116 H 0.0785 1.03711 0.10136 0.0
H117 H 0.14427 1.03687 0.06502 0.0
C118 C 0.11932 0.77173 0.16476 0.0
N119 N 0.13735 0.8002 0.11814 0.0
N120 N 0.10722 0.84397 0.10911 0.0
C121 C 0.07194 0.84741 0.15564 0.0
C122 C 0.07917 0.80161 0.19397 0.0
C123 C 0.14397 0.71805 0.18382 0.0
H124 H 0.17003 0.70022 0.14858 0.0
H125 H 0.16869 0.72395 0.22414 0.0
H126 H 0.11062 0.68834 0.19397 0.0
O127 O 0.1863 0.74512 0.01515 0.0
O128 O 0.15837 0.82161 0.96943 0.0
H129 H 1.00726 0.8881 0.20432 0.0
H130 H 0.05915 0.93311 0.17301 0.0
C131 C 1.03439 0.89533 0.16576 0.0
H132 H 1.00906 0.90236 0.12582 0.0
H133 H 0.05527 0.89669 0.92873 0.0
O134 O 0.25478 0.75756 0.13232 0.0
C135 C 0.17505 0.77076 0.96821 0.0
Co136 Co 0.81392 0.4005 0.37536 0.0
Co137 Co 0.72349 0.47096 0.41784 0.0
C138 C 0.69887 0.3596 0.41577 0.0
O139 O 0.75103 0.35577 0.41217 0.0
O140 O 0.67773 0.40489 0.40054 0.0
C141 C 0.80542 0.3313 0.29276 0.0
O142 O 0.76073 0.36168 0.29006 0.0
C143 C 0.61403 0.5222 0.43228 0.0
C144 C 0.62071 0.56338 0.51813 0.0
C145 C 0.58261 0.54839 0.47547 0.0
N146 N 0.66747 0.52069 0.44928 0.0
N147 N 0.67104 0.54608 0.50056 0.0
C148 C 0.59283 0.4957 0.37736 0.0
H149 H 0.62726 0.48222 0.34874 0.0
H150 H 0.56673 0.52534 0.35273 0.0
H151 H 0.56696 0.45957 0.38907 0.0
C152 C 0.83204 0.48444 0.28922 0.0
N153 N 0.80361 0.46647 0.33591 0.0
N154 N 0.75985 0.49661 0.34497 0.0
C155 C 0.75634 0.53187 0.29843 0.0
C156 C 0.80206 0.52452 0.26005 0.0
C157 C 0.88572 0.45983 0.27012 0.0
H158 H 0.90354 0.43368 0.30529 0.0
H159 H 0.87983 0.43523 0.22972 0.0
H160 H 0.91543 0.49321 0.26008 0.0
O161 O 0.85871 0.41756 0.43893 0.0
O162 O 0.78223 0.44548 0.48466 0.0
H163 H 0.71565 0.59661 0.24984 0.0
H164 H 0.67065 0.54464 0.281 0.0
C165 C 0.70841 0.56941 0.28834 0.0
H166 H 0.70133 0.59467 0.32832 0.0
H167 H 0.70714 0.54858 0.52537 0.0
O168 O 0.84625 0.34901 0.32181 0.0
C169 C 0.83308 0.42881 0.48588 0.0
Co170 Co 0.20334 0.81392 0.37536 0.0
Co171 Co 0.13288 0.72349 0.41784 0.0
C172 C 0.24424 0.69886 0.41576 0.0
O173 O 0.24807 0.75102 0.41216 0.0
O174 O 0.19894 0.67773 0.40053 0.0
C175 C 0.27254 0.80544 0.29276 0.0
O176 O 0.24216 0.76075 0.29006 0.0
C177 C 0.08164 0.61403 0.43228 0.0
C178 C 1.04046 0.62071 0.51813 0.0
C179 C 0.05545 0.58261 0.47547 0.0
N180 N 0.08315 0.66747 0.44928 0.0
N181 N 0.05776 0.67104 0.50056 0.0
C182 C 0.10814 0.59283 0.37736 0.0
H183 H 0.12162 0.62726 0.34874 0.0
H184 H 0.0785 0.56673 0.35273 0.0
H185 H 0.14427 0.56696 0.38907 0.0
C186 C 0.1194 0.83204 0.28922 0.0
N187 N 0.13737 0.80362 0.33591 0.0
N188 N 0.10723 0.75985 0.34498 0.0
C189 C 0.07197 0.75635 0.29844 0.0
C190 C 0.07932 0.80206 0.26005 0.0
C191 C 0.14401 0.88572 0.27011 0.0
H192 H 0.17016 0.90354 0.30528 0.0
H193 H 0.16861 0.87983 0.22971 0.0
H194 H 0.11063 0.91543 0.26007 0.0
O195 O 0.18629 0.85871 0.43895 0.0
O196 O 0.15837 0.78222 0.48467 0.0
H197 H 1.00723 0.71565 0.24984 0.0
H198 H 0.0592 0.67065 0.28101 0.0
C199 C 1.03443 0.70841 0.28834 0.0
H200 H 1.00917 0.70133 0.32833 0.0
H201 H 0.05525 0.70714 0.52537 0.0
O202 O 0.25483 0.84626 0.32182 0.0
C203 C 0.17504 0.83307 0.48589 0.0
Co204 Co 0.78991 0.20334 0.37535 0.0
Co205 Co 0.88034 0.13289 0.41784 0.0
C206 C 0.90496 0.24425 0.41574 0.0
O207 O 0.8528 0.24808 0.41213 0.0
O208 O 0.9261 0.19895 0.40052 0.0
C209 C 0.79837 0.2725 0.29269 0.0
O210 O 0.8431 0.24218 0.28999 0.0
C211 C 0.9898 0.08164 0.43228 0.0
C212 C 0.98313 1.04046 0.51813 0.0
C213 C 1.02123 0.05545 0.47547 0.0
N214 N 0.93636 0.08316 0.44928 0.0
N215 N 0.9328 0.05777 0.50056 0.0
C216 C 1.01101 0.10815 0.37736 0.0
H217 H 0.97657 0.12163 0.34874 0.0
H218 H 1.03711 0.07851 0.35273 0.0
H219 H 1.03687 0.14427 0.38907 0.0
C220 C 0.7718 0.11939 0.28922 0.0
N221 N 0.80021 0.13736 0.33591 0.0
N222 N 0.84399 0.10723 0.34498 0.0
C223 C 0.8475 0.07198 0.29843 0.0
C224 C 0.80178 0.07932 0.26004 0.0
C225 C 0.71812 0.144 0.2701 0.0
H226 H 0.70027 0.17011 0.30529 0.0
H227 H 0.72403 0.16865 0.22973 0.0
H228 H 0.68843 0.11063 0.26001 0.0
O229 O 0.74512 0.1863 0.43893 0.0
O230 O 0.82161 0.15837 0.48466 0.0
H231 H 0.88821 1.00724 0.24984 0.0
H232 H 0.93319 0.05924 0.28097 0.0
C233 C 0.89545 1.03446 0.28833 0.0
H234 H 0.90256 1.00921 0.32832 0.0
H235 H 0.89669 0.05526 0.52537 0.0
O236 O 0.75756 0.2548 0.32177 0.0
C237 C 0.77076 0.17505 0.48588 0.0
Co238 Co 0.4005 0.78991 0.37534 0.0
Co239 Co 0.47095 0.88035 0.41783 0.0
C240 C 0.35959 0.90496 0.41576 0.0
O241 O 0.35576 0.8528 0.41214 0.0
O242 O 0.40488 0.9261 0.40053 0.0
C243 C 0.33134 0.79839 0.29269 0.0
O244 O 0.36166 0.84312 0.28999 0.0
C245 C 0.52219 0.9898 0.43228 0.0
C246 C 0.56337 0.98313 0.51813 0.0
C247 C 0.54838 1.02123 0.47547 0.0
N248 N 0.52067 0.93636 0.44928 0.0
N249 N 0.54607 0.9328 0.50056 0.0
C250 C 0.49569 1.01101 0.37736 0.0
H251 H 0.48221 0.97657 0.34874 0.0
H252 H 0.52533 1.03711 0.35273 0.0
H253 H 0.45956 1.03688 0.38907 0.0
C254 C 0.48445 0.7718 0.28922 0.0
N255 N 0.46647 0.80022 0.33591 0.0
N256 N 0.49661 0.844 0.34497 0.0
C257 C 0.53186 0.84751 0.29843 0.0
C258 C 0.52452 0.80179 0.26005 0.0
C259 C 0.45984 0.71813 0.27011 0.0
H260 H 0.43373 0.70028 0.3053 0.0
H261 H 0.4352 0.72403 0.22974 0.0
H262 H 0.49321 0.68843 0.26002 0.0
O263 O 0.41755 0.74512 0.43892 0.0
O264 O 0.44547 0.8216 0.48465 0.0
H265 H 0.5966 0.88821 0.24984 0.0
H266 H 0.5446 0.9332 0.28096 0.0
C267 C 0.56938 0.89545 0.28833 0.0
H268 H 0.59463 0.90256 0.32831 0.0
H269 H 0.54858 0.89669 0.52537 0.0
O270 O 0.34904 0.75757 0.32177 0.0
C271 C 0.4288 0.77075 0.48587 0.0
Co272 Co 0.28992 0.90049 0.87537 0.0
Co273 Co 0.38036 0.97097 0.91784 0.0
C274 C 0.40496 0.85961 0.91573 0.0
O275 O 0.3528 0.85574 0.91215 0.0
O276 O 0.42614 0.90491 0.90058 0.0
C277 C 0.2984 0.83129 0.79278 0.0
O278 O 0.3431 0.86166 0.7901 0.0
C279 C 0.48982 1.02221 0.93229 0.0
C280 C 0.48314 0.06341 0.01813 0.0
C281 C 0.52124 1.04838 0.97549 0.0
N282 N 0.43637 1.02072 0.94927 0.0
N283 N 0.4328 1.04612 0.00054 0.0
C284 C 0.51102 0.9957 0.87737 0.0
H285 H 0.47659 0.98224 0.84875 0.0
H286 H 0.53713 1.02534 0.85275 0.0
H287 H 0.53688 0.95958 0.88909 0.0
C288 C 0.27173 0.98449 0.78933 0.0
N289 N 0.30022 0.96646 0.83594 0.0
N290 N 0.34398 0.9966 0.84497 0.0
C291 C 0.3474 1.03189 0.79844 0.0
C292 C 0.3016 1.02465 0.76012 0.0
C293 C 0.21804 0.95985 0.77029 0.0
H294 H 0.20023 0.93377 0.80553 0.0
H295 H 0.22393 0.93516 0.72995 0.0
H296 H 0.18833 0.99321 0.76018 0.0
O297 O 0.24513 0.91756 0.93895 0.0
O298 O 0.32163 0.94549 -0.01533 0.0
H299 H 0.38808 0.09658 0.74975 0.0
H300 H 0.43311 1.04472 0.78112 0.0
C301 C 0.3953 0.06946 0.78833 0.0
H302 H 0.4023 0.09482 0.82826 0.0
H303 H 0.39669 1.04865 0.02534 0.0
O304 O 0.25757 0.84902 0.82181 0.0
C305 C 0.27077 0.92884 -0.01412 0.0
Co306 Co 0.70333 0.28992 0.87537 0.0
Co307 Co 0.63286 0.38037 0.91784 0.0
C308 C 0.74422 0.40496 0.91574 0.0
O309 O 0.74809 0.3528 0.91216 0.0
O310 O 0.69892 0.42614 0.90059 0.0
C311 C 0.77254 0.29842 0.79277 0.0
O312 O 0.74217 0.34312 0.7901 0.0
C313 C 0.58162 0.48982 0.93229 0.0
C314 C 0.54042 0.48314 0.01813 0.0
C315 C 0.55546 0.52124 0.97549 0.0
N316 N 0.58311 0.43637 0.94927 0.0
N317 N 0.55771 0.4328 0.00054 0.0
C318 C 0.60812 0.51102 0.87737 0.0
H319 H 0.62159 0.47659 0.84875 0.0
H320 H 0.57849 0.53713 0.85274 0.0
H321 H 0.64425 0.53688 0.88909 0.0
C322 C 0.61934 0.27174 0.78933 0.0
N323 N 0.63736 0.30023 0.83594 0.0
N324 N 0.60722 0.34399 0.84497 0.0
C325 C 0.57194 0.34741 0.79844 0.0
C326 C 0.57917 0.3016 0.76012 0.0
C327 C 0.64398 0.21805 0.7703 0.0
H328 H 0.67006 0.20024 0.80553 0.0
H329 H 0.66867 0.22393 0.72996 0.0
H330 H 0.61062 0.18833 0.76019 0.0
O331 O 0.68626 0.24513 0.93893 0.0
O332 O 0.65833 0.32162 -0.01534 0.0
H333 H 0.50725 0.38809 0.74975 0.0
H334 H 0.5591 0.43311 0.78111 0.0
C335 C 0.53436 0.39531 0.78832 0.0
H336 H 0.50901 0.4023 0.82825 0.0
H337 H 0.55518 0.39669 0.02534 0.0
O338 O 0.75481 0.25758 0.8218 0.0
C339 C 0.67498 0.27076 -0.01413 0.0
Co340 Co 0.31391 0.70333 0.87535 0.0
Co341 Co 0.22347 0.63286 0.91784 0.0
C342 C 0.19888 0.74423 0.91573 0.0
O343 O 0.25104 0.7481 0.91213 0.0
O344 O 0.1777 0.69893 0.90058 0.0
C345 C 0.30544 0.77249 0.79271 0.0
O346 O 0.2607 0.74219 0.79003 0.0
C347 C 0.11401 0.58162 0.93229 0.0
C348 C 0.1207 0.54043 0.01813 0.0
C349 C 0.08259 0.55546 0.97549 0.0
N350 N 0.16746 0.58312 0.94927 0.0
N351 N 0.17103 0.55772 0.00054 0.0
C352 C 0.09281 0.60813 0.87737 0.0
H353 H 0.12724 0.6216 0.84875 0.0
H354 H 0.0667 0.57849 0.85274 0.0
H355 H 0.06694 0.64426 0.88909 0.0
C356 C 0.33209 0.61933 0.78933 0.0
N357 N 0.3036 0.63735 0.83594 0.0
N358 N 0.25983 0.60722 0.84497 0.0
C359 C 0.25641 0.57194 0.79843 0.0
C360 C 0.30222 0.57917 0.76012 0.0
C361 C 0.38578 0.64397 0.77029 0.0
H362 H 0.40361 0.67001 0.80554 0.0
H363 H 0.37988 0.6687 0.72998 0.0
H364 H 0.41548 0.61061 0.76013 0.0
O365 O 0.35871 0.68627 0.93892 0.0
O366 O 0.28222 0.65834 -0.01535 0.0
H367 H 0.21572 0.50726 0.74975 0.0
H368 H 0.17071 0.55914 0.78107 0.0
C369 C 0.2085 0.53439 0.78831 0.0
H370 H 0.20148 0.50904 0.82824 0.0
H371 H 0.20714 0.55519 0.02534 0.0
O372 O 0.34626 0.75478 0.82176 0.0
C373 C 0.33307 0.67499 -0.01414 0.0
Co374 Co 0.9005 0.31392 0.87535 0.0
Co375 Co 0.97097 0.22347 0.91784 0.0
C376 C 0.8596 0.19888 0.91572 0.0
O377 O 0.85573 0.25104 0.91212 0.0
O378 O 0.9049 0.1777 0.90057 0.0
C379 C 0.83134 0.30546 0.79271 0.0
O380 O 0.86164 0.26072 0.79003 0.0
C381 C 1.02221 0.11401 0.93229 0.0
C382 C 0.06341 0.1207 0.01813 0.0
C383 C 1.04837 0.08259 0.97549 0.0
N384 N 1.02071 0.16746 0.94927 0.0
N385 N 1.04611 0.17103 0.00054 0.0
C386 C 0.9957 0.09281 0.87737 0.0
H387 H 0.98223 0.12724 0.84875 0.0
H388 H 1.02533 0.0667 0.85275 0.0
H389 H 0.95957 0.06694 0.88909 0.0
C390 C 0.9845 0.33209 0.78933 0.0
N391 N 0.96647 0.30361 0.83594 0.0
N392 N 0.9966 0.25984 0.84497 0.0
C393 C 1.03188 0.25641 0.79844 0.0
C394 C 1.02465 0.30222 0.76012 0.0
C395 C 0.95986 0.38578 0.77028 0.0
H396 H 0.93381 0.40361 0.80553 0.0
H397 H 0.93512 0.37988 0.72997 0.0
H398 H 0.99321 0.41548 0.76012 0.0
O399 O 0.91755 0.3587 0.93893 0.0
O400 O 0.94549 0.28221 -0.01534 0.0
H401 H 0.09657 0.21572 0.74975 0.0
H402 H 1.04469 0.17071 0.78108 0.0
C403 C 0.06944 0.2085 0.78831 0.0
H404 H 0.09478 0.20148 0.82825 0.0
H405 H 1.04864 0.20714 0.02534 0.0
O406 O 0.84905 0.34628 0.82177 0.0
C407 C 0.92883 0.33306 -0.01413 0.0
Co408 Co 0.28992 0.70334 0.57873 0.0
Co409 Co 0.38036 0.63285 0.53623 0.0
C410 C 0.40496 0.74422 0.53834 0.0
O411 O 0.3528 0.74809 0.54193 0.0
O412 O 0.42614 0.69892 0.55348 0.0
C413 C 0.29841 0.77254 0.66133 0.0
O414 O 0.3431 0.74216 0.66403 0.0
C415 C 0.48982 0.58162 0.52179 0.0
C416 C 0.48314 0.54042 0.43595 0.0
C417 C 0.52124 0.55545 0.47859 0.0
N418 N 0.43637 0.58311 0.50481 0.0
N419 N 0.4328 0.5577 0.45354 0.0
C420 C 0.51102 0.60813 0.57671 0.0
H421 H 0.47659 0.6216 0.60532 0.0
H422 H 0.53712 0.57849 0.60134 0.0
H423 H 0.53688 0.64425 0.56499 0.0
C424 C 0.27181 0.6194 0.66486 0.0
N425 N 0.30024 0.63738 0.61818 0.0
N426 N 0.34401 0.60723 0.60912 0.0
C427 C 0.3475 0.57197 0.65566 0.0
C428 C 0.30178 0.57932 0.69404 0.0
C429 C 0.21812 0.64401 0.68395 0.0
H430 H 0.2003 0.67014 0.64877 0.0
H431 H 0.224 0.66862 0.72434 0.0
H432 H 0.18842 0.61063 0.694 0.0
O433 O 0.24513 0.68625 0.51516 0.0
O434 O 0.32162 0.65833 0.46942 0.0
H435 H 0.38819 0.50723 0.70426 0.0
H436 H 0.43319 0.55919 0.67308 0.0
C437 C 0.39543 0.53443 0.66576 0.0
H438 H 0.4025 0.50916 0.62578 0.0
H439 H 0.39669 0.55517 0.42874 0.0
O440 O 0.25758 0.75483 0.63228 0.0
C441 C 0.27076 0.67498 0.46822 0.0
Co442 Co 0.90049 0.28992 0.57872 0.0
Co443 Co 0.97098 0.38036 0.53623 0.0
C444 C 0.85961 0.40496 0.53835 0.0
O445 O 0.85574 0.3528 0.54194 0.0
O446 O 0.90491 0.42614 0.55349 0.0
C447 C 0.83129 0.29839 0.66133 0.0
O448 O 0.86167 0.34308 0.66403 0.0
C449 C 1.02221 0.48982 0.52179 0.0
C450 C 0.06341 0.48314 0.43595 0.0
C451 C 1.04838 0.52124 0.47859 0.0
N452 N 1.02072 0.43637 0.50481 0.0
N453 N 1.04613 0.43281 0.45354 0.0
C454 C 0.9957 0.51102 0.57671 0.0
H455 H 0.98222 0.47659 0.60532 0.0
H456 H 1.02534 0.53712 0.60134 0.0
H457 H 0.95957 0.53688 0.56499 0.0
C458 C 0.98442 0.2718 0.66486 0.0
N459 N 0.96645 0.30023 0.61818 0.0
N460 N 0.99659 0.344 0.60911 0.0
C461 C 1.03185 0.3475 0.65566 0.0
C462 C 1.0245 0.30178 0.69404 0.0
C463 C 0.95982 0.21812 0.68396 0.0
H464 H 0.93369 0.20029 0.64877 0.0
H465 H 0.9352 0.224 0.72435 0.0
H466 H 0.9932 0.18842 0.69401 0.0
O467 O 0.91757 0.24514 0.51514 0.0
O468 O 0.94549 0.32163 0.46941 0.0
H469 H 0.09659 0.38819 0.70426 0.0
H470 H 1.04464 0.43319 0.67308 0.0
C471 C 0.0694 0.39542 0.66575 0.0
H472 H 0.09467 0.4025 0.62577 0.0
H473 H 1.04866 0.39669 0.42874 0.0
O474 O 0.849 0.25757 0.63227 0.0
C475 C 0.92883 0.27077 0.46821 0.0
Co476 Co 0.31392 0.90049 0.57874 0.0
Co477 Co 0.22347 0.97097 0.53624 0.0
C478 C 0.19888 0.8596 0.53837 0.0
O479 O 0.25103 0.85573 0.54197 0.0
O480 O 0.1777 0.90491 0.5535 0.0
C481 C 0.30547 0.83134 0.66139 0.0
O482 O 0.26074 0.86165 0.6641 0.0
C483 C 0.11401 1.02221 0.52179 0.0
C484 C 0.1207 0.06341 0.43595 0.0
C485 C 0.08259 1.04838 0.47859 0.0
N486 N 0.16746 1.02071 0.50481 0.0
N487 N 0.17103 1.04612 0.45354 0.0
C488 C 0.09281 0.99569 0.57671 0.0
H489 H 0.12724 0.98222 0.60532 0.0
H490 H 0.06671 1.02533 0.60134 0.0
H491 H 0.06694 0.95957 0.56498 0.0
C492 C 0.33202 0.98444 0.66486 0.0
N493 N 0.3036 0.96646 0.61818 0.0
N494 N 0.25983 0.99659 0.60911 0.0
C495 C 0.25632 1.03185 0.65566 0.0
C496 C 0.30204 1.02451 0.69404 0.0
C497 C 0.3857 0.95983 0.68397 0.0
H498 H 0.40356 0.93374 0.64877 0.0
H499 H 0.3798 0.93517 0.72433 0.0
H500 H 0.41539 0.99321 0.69408 0.0
O501 O 0.3587 0.91756 0.51516 0.0
O502 O 0.28221 0.94549 0.46942 0.0
H503 H 0.21562 0.09659 0.70426 0.0
H504 H 0.17063 1.0446 0.67312 0.0
C505 C 0.20838 0.06938 0.66576 0.0
H506 H 0.20128 0.09463 0.62578 0.0
H507 H 0.20714 1.04865 0.42874 0.0
O508 O 0.34628 0.84903 0.63231 0.0
C509 C 0.33306 0.92883 0.46822 0.0
Co510 Co 0.70333 0.31392 0.57874 0.0
Co511 Co 0.63286 0.22347 0.53624 0.0
C512 C 0.74422 0.19888 0.53836 0.0
O513 O 0.7481 0.25104 0.54196 0.0
O514 O 0.69892 0.1777 0.55349 0.0
C515 C 0.77249 0.30545 0.66139 0.0
O516 O 0.74217 0.26072 0.6641 0.0
C517 C 0.58162 0.11402 0.52179 0.0
C518 C 0.54042 0.1207 0.43595 0.0
C519 C 0.55545 0.08259 0.47859 0.0
N520 N 0.58312 0.16746 0.50481 0.0
N521 N 0.55771 0.17103 0.45354 0.0
C522 C 0.60814 0.09281 0.57671 0.0
H523 H 0.62161 0.12724 0.60532 0.0
H524 H 0.5785 0.06671 0.60134 0.0
H525 H 0.64426 0.06695 0.56499 0.0
C526 C 0.61939 0.33202 0.66486 0.0
N527 N 0.63737 0.30359 0.61818 0.0
N528 N 0.60723 0.25982 0.60912 0.0
C529 C 0.57198 0.25632 0.65567 0.0
C530 C 0.57932 0.30204 0.69404 0.0
C531 C 0.644 0.3857 0.68396 0.0
H532 H 0.67009 0.40355 0.64876 0.0
H533 H 0.66866 0.3798 0.72432 0.0
H534 H 0.61062 0.41539 0.69407 0.0
O535 O 0.68626 0.3587 0.51517 0.0
O536 O 0.65834 0.28222 0.46943 0.0
H537 H 0.50724 0.21562 0.70427 0.0
H538 H 0.55923 0.17063 0.67312 0.0
C539 C 0.53445 0.20838 0.66577 0.0
H540 H 0.50919 0.20128 0.62579 0.0
H541 H 0.55518 0.20714 0.42874 0.0
O542 O 0.75479 0.34627 0.63232 0.0
C543 C 0.67499 0.33308 0.46823 0.0
loop_
_geom_bond_atom_site_label_1
_geom_bond_atom_site_label_2
_geom_bond_distance
_geom_bond_site_symmetry_2
_ccdc_geom_bond_type
Co0 O3 1.970 . S
Co0 N17 1.989 . S
Co0 O25 1.967 . S
Co0 O32 1.920 . S
Co1 O4 1.966 . S
Co1 N10 2.022 . S
Co1 N18 1.993 . S
Co1 O26 1.941 1_554 S
C2 O3 1.258 . S
C2 O4 1.263 . S
O3 Co0 1.970 . S
O3 C2 1.258 . S
O4 Co1 1.966 . S
O4 C2 1.263 . S
C5 O6 1.235 . S
C5 O32 1.289 . S
O6 C5 1.235 . S
C7 C9 1.400 1_545 S
C7 N10 1.351 . S
C7 C12 1.501 . S
C8 C9 1.387 . S
C8 N11 1.341 . S
C9 C7 1.400 1_565 S
C9 C8 1.387 . S
N10 Co1 2.022 . S
N10 C7 1.351 . S
N10 N11 1.365 1_545 S
N11 C8 1.341 . S
N11 N10 1.365 1_565 S
N11 H31 0.862 . S
C12 C7 1.501 . S
C12 H13 0.961 . S
C12 H14 0.961 . S
C12 H15 0.960 1_554 S
H13 C12 0.961 . S
H14 C12 0.961 . S
H15 C12 0.960 1_556 S
C16 N17 1.342 . S
C16 C20 1.401 . S
C16 C21 1.499 . S
N17 Co0 1.989 . S
N17 C16 1.342 . S
N17 N18 1.388 . S
N18 Co1 1.993 . S
N18 N17 1.388 . S
N18 C19 1.346 . S
C19 N18 1.346 . S
C19 C20 1.396 . S
C19 C29 1.510 . S
C20 C16 1.401 . S
C20 C19 1.396 . S
C21 C16 1.499 . S
C21 H22 0.959 . S
C21 H23 0.960 . S
C21 H24 0.961 . S
H22 C21 0.959 . S
H23 C21 0.960 . S
H24 C21 0.961 . S
O25 Co0 1.967 . S
O25 C33 1.258 1_554 S
O26 Co1 1.941 1_556 S
O26 C33 1.266 . S
H27 C29 0.959 1_565 S
H28 C29 0.961 . S
C29 C19 1.510 . S
C29 H27 0.959 1_545 S
C29 H28 0.961 . S
C29 H30 0.960 1_545 S
H30 C29 0.960 1_565 S
H31 N11 0.862 . S
O32 Co0 1.920 . S
O32 C5 1.289 . S
C33 O25 1.258 1_556 S
C33 O26 1.266 . S
Co34 O37 1.970 . S
Co34 N51 1.989 . S
Co34 O59 1.967 . S
Co34 O66 1.920 . S
Co35 O38 1.966 . S
Co35 N44 2.022 . S
Co35 N52 1.993 . S
Co35 O60 1.941 1_554 S
C36 O37 1.258 . S
C36 O38 1.263 . S
O37 Co34 1.970 . S
O37 C36 1.258 . S
O38 Co35 1.966 . S
O38 C36 1.263 . S
C39 O40 1.235 . S
C39 O66 1.289 . S
O40 C39 1.235 . S
C41 C43 1.400 . S
C41 N44 1.351 . S
C41 C46 1.501 . S
C42 C43 1.387 . S
C42 N45 1.341 . S
C43 C41 1.400 . S
C43 C42 1.387 . S
N44 Co35 2.022 . S
N44 C41 1.351 . S
N44 N45 1.365 . S
N45 C42 1.341 . S
N45 N44 1.365 . S
N45 H65 0.862 . S
C46 C41 1.501 . S
C46 H47 0.961 . S
C46 H48 0.961 . S
C46 H49 0.960 1_554 S
H47 C46 0.961 . S
H48 C46 0.961 . S
H49 C46 0.960 1_556 S
C50 N51 1.342 . S
C50 C54 1.401 . S
C50 C55 1.499 . S
N51 Co34 1.989 . S
N51 C50 1.342 . S
N51 N52 1.388 . S
N52 Co35 1.993 . S
N52 N51 1.388 . S
N52 C53 1.346 . S
C53 N52 1.346 . S
C53 C54 1.396 . S
C53 C63 1.510 . S
C54 C50 1.401 . S
C54 C53 1.396 . S
C55 C50 1.499 . S
C55 H56 0.959 . S
C55 H57 0.960 . S
C55 H58 0.961 . S
H56 C55 0.959 . S
H57 C55 0.960 . S
H58 C55 0.961 . S
O59 Co34 1.967 . S
O59 C67 1.258 1_554 S
O60 Co35 1.941 1_556 S
O60 C67 1.266 . S
H61 C63 0.959 . S
H62 C63 0.961 . S
C63 C53 1.510 . S
C63 H61 0.959 . S
C63 H62 0.961 . S
C63 H64 0.960 . S
H64 C63 0.960 . S
H65 N45 0.862 . S
O66 Co34 1.920 . S
O66 C39 1.289 . S
C67 O59 1.258 1_556 S
C67 O60 1.266 . S
Co68 O71 1.970 . S
Co68 N85 1.989 . S
Co68 O93 1.967 . S
Co68 O100 1.920 . S
Co69 O72 1.966 . S
Co69 N78 2.022 . S
Co69 N86 1.993 . S
Co69 O94 1.941 1_554 S
C70 O71 1.258 . S
C70 O72 1.263 . S
O71 Co68 1.970 . S
O71 C70 1.258 . S
O72 Co69 1.966 . S
O72 C70 1.263 . S
C73 O74 1.235 . S
C73 O100 1.289 . S
O74 C73 1.235 . S
C75 C77 1.400 . S
C75 N78 1.351 . S
C75 C80 1.501 . S
C76 C77 1.387 . S
C76 N79 1.341 . S
C77 C75 1.400 . S
C77 C76 1.387 . S
N78 Co69 2.022 . S
N78 C75 1.351 . S
N78 N79 1.365 . S
N79 C76 1.341 . S
N79 N78 1.365 . S
N79 H99 0.862 . S
C80 C75 1.501 . S
C80 H81 0.961 . S
C80 H82 0.961 . S
C80 H83 0.960 1_554 S
H81 C80 0.961 . S
H82 C80 0.961 . S
H83 C80 0.960 1_556 S
C84 N85 1.342 . S
C84 C88 1.401 . S
C84 C89 1.499 . S
N85 Co68 1.989 . S
N85 C84 1.342 . S
N85 N86 1.388 . S
N86 Co69 1.993 . S
N86 N85 1.388 . S
N86 C87 1.346 . S
C87 N86 1.346 . S
C87 C88 1.396 . S
C87 C97 1.510 . S
C88 C84 1.401 . S
C88 C87 1.396 . S
C89 C84 1.499 . S
C89 H90 0.959 . S
C89 H91 0.960 . S
C89 H92 0.961 . S
H90 C89 0.959 . S
H91 C89 0.960 . S
H92 C89 0.961 . S
O93 Co68 1.967 . S
O93 C101 1.258 1_554 S
O94 Co69 1.941 1_556 S
O94 C101 1.266 . S
H95 C97 0.959 . S
H96 C97 0.961 . S
C97 C87 1.510 . S
C97 H95 0.959 . S
C97 H96 0.961 . S
C97 H98 0.960 . S
H98 C97 0.960 . S
H99 N79 0.862 . S
O100 Co68 1.920 . S
O100 C73 1.289 . S
C101 O93 1.258 1_556 S
C101 O94 1.266 . S
Co102 O105 1.970 . S
Co102 N119 1.989 . S
Co102 O127 1.967 . S
Co102 O134 1.920 . S
Co103 O106 1.966 . S
Co103 N112 2.022 . S
Co103 N120 1.993 . S
Co103 O128 1.941 1_554 S
C104 O105 1.258 . S
C104 O106 1.263 . S
O105 Co102 1.970 . S
O105 C104 1.258 . S
O106 Co103 1.966 . S
O106 C104 1.263 . S
C107 O108 1.235 . S
C107 O134 1.289 . S
O108 C107 1.235 . S
C109 C111 1.400 1_455 S
C109 N112 1.351 . S
C109 C114 1.501 . S
C110 C111 1.387 . S
C110 N113 1.341 . S
C111 C109 1.400 1_655 S
C111 C110 1.387 . S
N112 Co103 2.022 . S
N112 C109 1.351 . S
N112 N113 1.365 1_455 S
N113 C110 1.341 . S
N113 N112 1.365 1_655 S
N113 H133 0.862 . S
C114 C109 1.501 . S
C114 H115 0.961 . S
C114 H116 0.961 . S
C114 H117 0.960 1_554 S
H115 C114 0.961 . S
H116 C114 0.961 . S
H117 C114 0.960 1_556 S
C118 N119 1.342 . S
C118 C122 1.401 . S
C118 C123 1.499 . S
N119 Co102 1.989 . S
N119 C118 1.342 . S
N119 N120 1.388 . S
N120 Co103 1.993 . S
N120 N119 1.388 . S
N120 C121 1.346 . S
C121 N120 1.346 . S
C121 C122 1.396 . S
C121 C131 1.510 . S
C122 C118 1.401 . S
C122 C121 1.396 . S
C123 C118 1.499 . S
C123 H124 0.959 . S
C123 H125 0.960 . S
C123 H126 0.961 . S
H124 C123 0.959 . S
H125 C123 0.960 . S
H126 C123 0.961 . S
O127 Co102 1.967 . S
O127 C135 1.258 1_554 S
O128 Co103 1.941 1_556 S
O128 C135 1.266 . S
H129 C131 0.959 1_655 S
H130 C131 0.961 . S
C131 C121 1.510 . S
C131 H129 0.959 1_455 S
C131 H130 0.961 . S
C131 H132 0.960 1_455 S
H132 C131 0.960 1_655 S
H133 N113 0.862 . S
O134 Co102 1.920 . S
O134 C107 1.289 . S
C135 O127 1.258 1_556 S
C135 O128 1.266 . S
Co136 O139 1.970 . S
Co136 N153 1.989 . S
Co136 O161 1.967 . S
Co136 O168 1.920 . S
Co137 O140 1.966 . S
Co137 N146 2.022 . S
Co137 N154 1.993 . S
Co137 O162 1.941 . S
C138 O139 1.258 . S
C138 O140 1.263 . S
O139 Co136 1.970 . S
O139 C138 1.258 . S
O140 Co137 1.966 . S
O140 C138 1.263 . S
C141 O142 1.235 . S
C141 O168 1.289 . S
O142 C141 1.235 . S
C143 C145 1.400 . S
C143 N146 1.351 . S
C143 C148 1.501 . S
C144 C145 1.387 . S
C144 N147 1.341 . S
C145 C143 1.400 . S
C145 C144 1.387 . S
N146 Co137 2.022 . S
N146 C143 1.351 . S
N146 N147 1.365 . S
N147 C144 1.341 . S
N147 N146 1.365 . S
N147 H167 0.862 . S
C148 C143 1.501 . S
C148 H149 0.961 . S
C148 H150 0.961 . S
C148 H151 0.960 . S
H149 C148 0.961 . S
H150 C148 0.961 . S
H151 C148 0.960 . S
C152 N153 1.342 . S
C152 C156 1.401 . S
C152 C157 1.499 . S
N153 Co136 1.989 . S
N153 C152 1.342 . S
N153 N154 1.388 . S
N154 Co137 1.993 . S
N154 N153 1.388 . S
N154 C155 1.346 . S
C155 N154 1.346 . S
C155 C156 1.396 . S
C155 C165 1.510 . S
C156 C152 1.401 . S
C156 C155 1.396 . S
C157 C152 1.499 . S
C157 H158 0.959 . S
C157 H159 0.960 . S
C157 H160 0.961 . S
H158 C157 0.959 . S
H159 C157 0.960 . S
H160 C157 0.961 . S
O161 Co136 1.967 . S
O161 C169 1.258 . S
O162 Co137 1.941 . S
O162 C169 1.266 . S
H163 C165 0.959 . S
H164 C165 0.961 . S
C165 C155 1.510 . S
C165 H163 0.959 . S
C165 H164 0.961 . S
C165 H166 0.960 . S
H166 C165 0.960 . S
H167 N147 0.862 . S
O168 Co136 1.920 . S
O168 C141 1.289 . S
C169 O161 1.258 . S
C169 O162 1.266 . S
Co170 O173 1.970 . S
Co170 N187 1.989 . S
Co170 O195 1.967 . S
Co170 O202 1.920 . S
Co171 O174 1.966 . S
Co171 N180 2.022 . S
Co171 N188 1.993 . S
Co171 O196 1.941 . S
C172 O173 1.258 . S
C172 O174 1.263 . S
O173 Co170 1.970 . S
O173 C172 1.258 . S
O174 Co171 1.966 . S
O174 C172 1.263 . S
C175 O176 1.235 . S
C175 O202 1.289 . S
O176 C175 1.235 . S
C177 C179 1.400 1_455 S
C177 N180 1.351 . S
C177 C182 1.501 . S
C178 C179 1.387 . S
C178 N181 1.341 . S
C179 C177 1.400 1_655 S
C179 C178 1.387 . S
N180 Co171 2.022 . S
N180 C177 1.351 . S
N180 N181 1.365 1_455 S
N181 C178 1.341 . S
N181 N180 1.365 1_655 S
N181 H201 0.862 . S
C182 C177 1.501 . S
C182 H183 0.961 . S
C182 H184 0.961 . S
C182 H185 0.960 . S
H183 C182 0.961 . S
H184 C182 0.961 . S
H185 C182 0.960 . S
C186 N187 1.342 . S
C186 C190 1.401 . S
C186 C191 1.499 . S
N187 Co170 1.989 . S
N187 C186 1.342 . S
N187 N188 1.388 . S
N188 Co171 1.993 . S
N188 N187 1.388 . S
N188 C189 1.346 . S
C189 N188 1.346 . S
C189 C190 1.396 . S
C189 C199 1.510 . S
C190 C186 1.401 . S
C190 C189 1.396 . S
C191 C186 1.499 . S
C191 H192 0.959 . S
C191 H193 0.960 . S
C191 H194 0.961 . S
H192 C191 0.959 . S
H193 C191 0.960 . S
H194 C191 0.961 . S
O195 Co170 1.967 . S
O195 C203 1.258 . S
O196 Co171 1.941 . S
O196 C203 1.266 . S
H197 C199 0.959 1_655 S
H198 C199 0.961 . S
C199 C189 1.510 . S
C199 H197 0.959 1_455 S
C199 H198 0.961 . S
C199 H200 0.960 1_455 S
H200 C199 0.960 1_655 S
H201 N181 0.862 . S
O202 Co170 1.920 . S
O202 C175 1.289 . S
C203 O195 1.258 . S
C203 O196 1.266 . S
Co204 O207 1.970 . S
Co204 N221 1.989 . S
Co204 O229 1.967 . S
Co204 O236 1.920 . S
Co205 O208 1.966 . S
Co205 N214 2.022 . S
Co205 N222 1.993 . S
Co205 O230 1.941 . S
C206 O207 1.258 . S
C206 O208 1.263 . S
O207 Co204 1.970 . S
O207 C206 1.258 . S
O208 Co205 1.966 . S
O208 C206 1.263 . S
C209 O210 1.235 . S
C209 O236 1.289 . S
O210 C209 1.235 . S
C211 C213 1.400 1_545 S
C211 N214 1.351 . S
C211 C216 1.501 . S
C212 C213 1.387 . S
C212 N215 1.341 . S
C213 C211 1.400 1_565 S
C213 C212 1.387 . S
N214 Co205 2.022 . S
N214 C211 1.351 . S
N214 N215 1.365 1_545 S
N215 C212 1.341 . S
N215 N214 1.365 1_565 S
N215 H235 0.862 . S
C216 C211 1.501 . S
C216 H217 0.961 . S
C216 H218 0.961 . S
C216 H219 0.960 . S
H217 C216 0.961 . S
H218 C216 0.961 . S
H219 C216 0.960 . S
C220 N221 1.342 . S
C220 C224 1.401 . S
C220 C225 1.499 . S
N221 Co204 1.989 . S
N221 C220 1.342 . S
N221 N222 1.388 . S
N222 Co205 1.993 . S
N222 N221 1.388 . S
N222 C223 1.346 . S
C223 N222 1.346 . S
C223 C224 1.396 . S
C223 C233 1.510 . S
C224 C220 1.401 . S
C224 C223 1.396 . S
C225 C220 1.499 . S
C225 H226 0.959 . S
C225 H227 0.960 . S
C225 H228 0.961 . S
H226 C225 0.959 . S
H227 C225 0.960 . S
H228 C225 0.961 . S
O229 Co204 1.967 . S
O229 C237 1.258 . S
O230 Co205 1.941 . S
O230 C237 1.266 . S
H231 C233 0.959 1_565 S
H232 C233 0.961 . S
C233 C223 1.510 . S
C233 H231 0.959 1_545 S
C233 H232 0.961 . S
C233 H234 0.960 1_545 S
H234 C233 0.960 1_565 S
H235 N215 0.862 . S
O236 Co204 1.920 . S
O236 C209 1.289 . S
C237 O229 1.258 . S
C237 O230 1.266 . S
Co238 O241 1.970 . S
Co238 N255 1.989 . S
Co238 O263 1.967 . S
Co238 O270 1.920 . S
Co239 O242 1.966 . S
Co239 N248 2.022 . S
Co239 N256 1.993 . S
Co239 O264 1.941 . S
C240 O241 1.258 . S
C240 O242 1.263 . S
O241 Co238 1.970 . S
O241 C240 1.258 . S
O242 Co239 1.966 . S
O242 C240 1.263 . S
C243 O244 1.235 . S
C243 O270 1.289 . S
O244 C243 1.235 . S
C245 C247 1.400 . S
C245 N248 1.351 . S
C245 C250 1.501 . S
C246 C247 1.387 . S
C246 N249 1.341 . S
C247 C245 1.400 . S
C247 C246 1.387 . S
N248 Co239 2.022 . S
N248 C245 1.351 . S
N248 N249 1.365 . S
N249 C246 1.341 . S
N249 N248 1.365 . S
N249 H269 0.862 . S
C250 C245 1.501 . S
C250 H251 0.961 . S
C250 H252 0.961 . S
C250 H253 0.960 . S
H251 C250 0.961 . S
H252 C250 0.961 . S
H253 C250 0.960 . S
C254 N255 1.342 . S
C254 C258 1.401 . S
C254 C259 1.499 . S
N255 Co238 1.989 . S
N255 C254 1.342 . S
N255 N256 1.388 . S
N256 Co239 1.993 . S
N256 N255 1.388 . S
N256 C257 1.346 . S
C257 N256 1.346 . S
C257 C258 1.396 . S
C257 C267 1.510 . S
C258 C254 1.401 . S
C258 C257 1.396 . S
C259 C254 1.499 . S
C259 H260 0.959 . S
C259 H261 0.960 . S
C259 H262 0.961 . S
H260 C259 0.959 . S
H261 C259 0.960 . S
H262 C259 0.961 . S
O263 Co238 1.967 . S
O263 C271 1.258 . S
O264 Co239 1.941 . S
O264 C271 1.266 . S
H265 C267 0.959 . S
H266 C267 0.961 . S
C267 C257 1.510 . S
C267 H265 0.959 . S
C267 H266 0.961 . S
C267 H268 0.960 . S
H268 C267 0.960 . S
H269 N249 0.862 . S
O270 Co238 1.920 . S
O270 C243 1.289 . S
C271 O263 1.258 . S
C271 O264 1.266 . S
Co272 O275 1.970 . S
Co272 N289 1.989 . S
Co272 O297 1.967 . S
Co272 O304 1.920 . S
Co273 O276 1.966 . S
Co273 N282 2.022 . S
Co273 N290 1.993 . S
Co273 O298 1.941 1_556 S
C274 O275 1.258 . S
C274 O276 1.263 . S
O275 Co272 1.970 . S
O275 C274 1.258 . S
O276 Co273 1.966 . S
O276 C274 1.263 . S
C277 O278 1.235 . S
C277 O304 1.289 . S
O278 C277 1.235 . S
C279 C281 1.400 1_565 S
C279 N282 1.351 . S
C279 C284 1.501 . S
C280 C281 1.387 . S
C280 N283 1.341 . S
C281 C279 1.400 1_545 S
C281 C280 1.387 . S
N282 Co273 2.022 . S
N282 C279 1.351 . S
N282 N283 1.365 1_565 S
N283 C280 1.341 . S
N283 N282 1.365 1_545 S
N283 H303 0.862 . S
C284 C279 1.501 . S
C284 H285 0.961 . S
C284 H286 0.961 . S
C284 H287 0.960 1_556 S
H285 C284 0.961 . S
H286 C284 0.961 . S
H287 C284 0.960 1_554 S
C288 N289 1.342 . S
C288 C292 1.401 . S
C288 C293 1.499 . S
N289 Co272 1.989 . S
N289 C288 1.342 . S
N289 N290 1.388 . S
N290 Co273 1.993 . S
N290 N289 1.388 . S
N290 C291 1.346 . S
C291 N290 1.346 . S
C291 C292 1.396 . S
C291 C301 1.510 . S
C292 C288 1.401 . S
C292 C291 1.396 . S
C293 C288 1.499 . S
C293 H294 0.959 . S
C293 H295 0.960 . S
C293 H296 0.961 . S
H294 C293 0.959 . S
H295 C293 0.960 . S
H296 C293 0.961 . S
O297 Co272 1.967 . S
O297 C305 1.258 1_556 S
O298 Co273 1.941 1_554 S
O298 C305 1.266 . S
H299 C301 0.959 1_545 S
H300 C301 0.961 . S
C301 C291 1.510 . S
C301 H299 0.959 1_565 S
C301 H300 0.961 . S
C301 H302 0.960 1_565 S
H302 C301 0.960 1_545 S
H303 N283 0.862 . S
O304 Co272 1.920 . S
O304 C277 1.289 . S
C305 O297 1.258 1_554 S
C305 O298 1.266 . S
Co306 O309 1.970 . S
Co306 N323 1.989 . S
Co306 O331 1.967 . S
Co306 O338 1.920 . S
Co307 O310 1.966 . S
Co307 N316 2.022 . S
Co307 N324 1.993 . S
Co307 O332 1.941 1_556 S
C308 O309 1.258 . S
C308 O310 1.263 . S
O309 Co306 1.970 . S
O309 C308 1.258 . S
O310 Co307 1.966 . S
O310 C308 1.263 . S
C311 O312 1.235 . S
C311 O338 1.289 . S
O312 C311 1.235 . S
C313 C315 1.400 . S
C313 N316 1.351 . S
C313 C318 1.501 . S
C314 C315 1.387 . S
C314 N317 1.341 . S
C315 C313 1.400 . S
C315 C314 1.387 . S
N316 Co307 2.022 . S
N316 C313 1.351 . S
N316 N317 1.365 . S
N317 C314 1.341 . S
N317 N316 1.365 . S
N317 H337 0.862 . S
C318 C313 1.501 . S
C318 H319 0.961 . S
C318 H320 0.961 . S
C318 H321 0.960 1_556 S
H319 C318 0.961 . S
H320 C318 0.961 . S
H321 C318 0.960 1_554 S
C322 N323 1.342 . S
C322 C326 1.401 . S
C322 C327 1.499 . S
N323 Co306 1.989 . S
N323 C322 1.342 . S
N323 N324 1.388 . S
N324 Co307 1.993 . S
N324 N323 1.388 . S
N324 C325 1.346 . S
C325 N324 1.346 . S
C325 C326 1.396 . S
C325 C335 1.510 . S
C326 C322 1.401 . S
C326 C325 1.396 . S
C327 C322 1.499 . S
C327 H328 0.959 . S
C327 H329 0.960 . S
C327 H330 0.961 . S
H328 C327 0.959 . S
H329 C327 0.960 . S
H330 C327 0.961 . S
O331 Co306 1.967 . S
O331 C339 1.258 1_556 S
O332 Co307 1.941 1_554 S
O332 C339 1.266 . S
H333 C335 0.959 . S
H334 C335 0.961 . S
C335 C325 1.510 . S
C335 H333 0.959 . S
C335 H334 0.961 . S
C335 H336 0.960 . S
H336 C335 0.960 . S
H337 N317 0.862 . S
O338 Co306 1.920 . S
O338 C311 1.289 . S
C339 O331 1.258 1_554 S
C339 O332 1.266 . S
Co340 O343 1.970 . S
Co340 N357 1.989 . S
Co340 O365 1.967 . S
Co340 O372 1.920 . S
Co341 O344 1.966 . S
Co341 N350 2.022 . S
Co341 N358 1.993 . S
Co341 O366 1.941 1_556 S
C342 O343 1.258 . S
C342 O344 1.263 . S
O343 Co340 1.970 . S
O343 C342 1.258 . S
O344 Co341 1.966 . S
O344 C342 1.263 . S
C345 O346 1.235 . S
C345 O372 1.289 . S
O346 C345 1.235 . S
C347 C349 1.400 . S
C347 N350 1.351 . S
C347 C352 1.501 . S
C348 C349 1.387 . S
C348 N351 1.341 . S
C349 C347 1.400 . S
C349 C348 1.387 . S
N350 Co341 2.022 . S
N350 C347 1.351 . S
N350 N351 1.365 . S
N351 C348 1.341 . S
N351 N350 1.365 . S
N351 H371 0.862 . S
C352 C347 1.501 . S
C352 H353 0.961 . S
C352 H354 0.961 . S
C352 H355 0.960 1_556 S
H353 C352 0.961 . S
H354 C352 0.961 . S
H355 C352 0.960 1_554 S
C356 N357 1.342 . S
C356 C360 1.401 . S
C356 C361 1.499 . S
N357 Co340 1.989 . S
N357 C356 1.342 . S
N357 N358 1.388 . S
N358 Co341 1.993 . S
N358 N357 1.388 . S
N358 C359 1.346 . S
C359 N358 1.346 . S
C359 C360 1.396 . S
C359 C369 1.510 . S
C360 C356 1.401 . S
C360 C359 1.396 . S
C361 C356 1.499 . S
C361 H362 0.959 . S
C361 H363 0.960 . S
C361 H364 0.961 . S
H362 C361 0.959 . S
H363 C361 0.960 . S
H364 C361 0.961 . S
O365 Co340 1.967 . S
O365 C373 1.258 1_556 S
O366 Co341 1.941 1_554 S
O366 C373 1.266 . S
H367 C369 0.959 . S
H368 C369 0.961 . S
C369 C359 1.510 . S
C369 H367 0.959 . S
C369 H368 0.961 . S
C369 H370 0.960 . S
H370 C369 0.960 . S
H371 N351 0.862 . S
O372 Co340 1.920 . S
O372 C345 1.289 . S
C373 O365 1.258 1_554 S
C373 O366 1.266 . S
Co374 O377 1.970 . S
Co374 N391 1.989 . S
Co374 O399 1.967 . S
Co374 O406 1.920 . S
Co375 O378 1.966 . S
Co375 N384 2.022 . S
Co375 N392 1.993 . S
Co375 O400 1.941 1_556 S
C376 O377 1.258 . S
C376 O378 1.263 . S
O377 Co374 1.970 . S
O377 C376 1.258 . S
O378 Co375 1.966 . S
O378 C376 1.263 . S
C379 O380 1.235 . S
C379 O406 1.289 . S
O380 C379 1.235 . S
C381 C383 1.400 1_655 S
C381 N384 1.351 . S
C381 C386 1.501 . S
C382 C383 1.387 . S
C382 N385 1.341 . S
C383 C381 1.400 1_455 S
C383 C382 1.387 . S
N384 Co375 2.022 . S
N384 C381 1.351 . S
N384 N385 1.365 1_655 S
N385 C382 1.341 . S
N385 N384 1.365 1_455 S
N385 H405 0.862 . S
C386 C381 1.501 . S
C386 H387 0.961 . S
C386 H388 0.961 . S
C386 H389 0.960 1_556 S
H387 C386 0.961 . S
H388 C386 0.961 . S
H389 C386 0.960 1_554 S
C390 N391 1.342 . S
C390 C394 1.401 . S
C390 C395 1.499 . S
N391 Co374 1.989 . S
N391 C390 1.342 . S
N391 N392 1.388 . S
N392 Co375 1.993 . S
N392 N391 1.388 . S
N392 C393 1.346 . S
C393 N392 1.346 . S
C393 C394 1.396 . S
C393 C403 1.510 . S
C394 C390 1.401 . S
C394 C393 1.396 . S
C395 C390 1.499 . S
C395 H396 0.959 . S
C395 H397 0.960 . S
C395 H398 0.961 . S
H396 C395 0.959 . S
H397 C395 0.960 . S
H398 C395 0.961 . S
O399 Co374 1.967 . S
O399 C407 1.258 1_556 S
O400 Co375 1.941 1_554 S
O400 C407 1.266 . S
H401 C403 0.959 1_455 S
H402 C403 0.961 . S
C403 C393 1.510 . S
C403 H401 0.959 1_655 S
C403 H402 0.961 . S
C403 H404 0.960 1_655 S
H404 C403 0.960 1_455 S
H405 N385 0.862 . S
O406 Co374 1.920 . S
O406 C379 1.289 . S
C407 O399 1.258 1_554 S
C407 O400 1.266 . S
Co408 O411 1.970 . S
Co408 N425 1.989 . S
Co408 O433 1.967 . S
Co408 O440 1.920 . S
Co409 O412 1.966 . S
Co409 N418 2.022 . S
Co409 N426 1.993 . S
Co409 O434 1.941 . S
C410 O411 1.258 . S
C410 O412 1.263 . S
O411 Co408 1.970 . S
O411 C410 1.258 . S
O412 Co409 1.966 . S
O412 C410 1.263 . S
C413 O414 1.235 . S
C413 O440 1.289 . S
O414 C413 1.235 . S
C415 C417 1.400 . S
C415 N418 1.351 . S
C415 C420 1.501 . S
C416 C417 1.387 . S
C416 N419 1.341 . S
C417 C415 1.400 . S
C417 C416 1.387 . S
N418 Co409 2.022 . S
N418 C415 1.351 . S
N418 N419 1.365 . S
N419 C416 1.341 . S
N419 N418 1.365 . S
N419 H439 0.862 . S
C420 C415 1.501 . S
C420 H421 0.961 . S
C420 H422 0.961 . S
C420 H423 0.960 . S
H421 C420 0.961 . S
H422 C420 0.961 . S
H423 C420 0.960 . S
C424 N425 1.342 . S
C424 C428 1.401 . S
C424 C429 1.499 . S
N425 Co408 1.989 . S
N425 C424 1.342 . S
N425 N426 1.388 . S
N426 Co409 1.993 . S
N426 N425 1.388 . S
N426 C427 1.346 . S
C427 N426 1.346 . S
C427 C428 1.396 . S
C427 C437 1.510 . S
C428 C424 1.401 . S
C428 C427 1.396 . S
C429 C424 1.499 . S
C429 H430 0.959 . S
C429 H431 0.960 . S
C429 H432 0.961 . S
H430 C429 0.959 . S
H431 C429 0.960 . S
H432 C429 0.961 . S
O433 Co408 1.967 . S
O433 C441 1.258 . S
O434 Co409 1.941 . S
O434 C441 1.266 . S
H435 C437 0.959 . S
H436 C437 0.961 . S
C437 C427 1.510 . S
C437 H435 0.959 . S
C437 H436 0.961 . S
C437 H438 0.960 . S
H438 C437 0.960 . S
H439 N419 0.862 . S
O440 Co408 1.920 . S
O440 C413 1.289 . S
C441 O433 1.258 . S
C441 O434 1.266 . S
Co442 O445 1.970 . S
Co442 N459 1.989 . S
Co442 O467 1.967 . S
Co442 O474 1.920 . S
Co443 O446 1.966 . S
Co443 N452 2.022 . S
Co443 N460 1.993 . S
Co443 O468 1.941 . S
C444 O445 1.258 . S
C444 O446 1.263 . S
O445 Co442 1.970 . S
O445 C444 1.258 . S
O446 Co443 1.966 . S
O446 C444 1.263 . S
C447 O448 1.235 . S
C447 O474 1.289 . S
O448 C447 1.235 . S
C449 C451 1.400 1_655 S
C449 N452 1.351 . S
C449 C454 1.501 . S
C450 C451 1.387 . S
C450 N453 1.341 . S
C451 C449 1.400 1_455 S
C451 C450 1.387 . S
N452 Co443 2.022 . S
N452 C449 1.351 . S
N452 N453 1.365 1_655 S
N453 C450 1.341 . S
N453 N452 1.365 1_455 S
N453 H473 0.862 . S
C454 C449 1.501 . S
C454 H455 0.961 . S
C454 H456 0.961 . S
C454 H457 0.960 . S
H455 C454 0.961 . S
H456 C454 0.961 . S
H457 C454 0.960 . S
C458 N459 1.342 . S
C458 C462 1.401 . S
C458 C463 1.499 . S
N459 Co442 1.989 . S
N459 C458 1.342 . S
N459 N460 1.388 . S
N460 Co443 1.993 . S
N460 N459 1.388 . S
N460 C461 1.346 . S
C461 N460 1.346 . S
C461 C462 1.396 . S
C461 C471 1.510 . S
C462 C458 1.401 . S
C462 C461 1.396 . S
C463 C458 1.499 . S
C463 H464 0.959 . S
C463 H465 0.960 . S
C463 H466 0.961 . S
H464 C463 0.959 . S
H465 C463 0.960 . S
H466 C463 0.961 . S
O467 Co442 1.967 . S
O467 C475 1.258 . S
O468 Co443 1.941 . S
O468 C475 1.266 . S
H469 C471 0.959 1_455 S
H470 C471 0.961 . S
C471 C461 1.510 . S
C471 H469 0.959 1_655 S
C471 H470 0.961 . S
C471 H472 0.960 1_655 S
H472 C471 0.960 1_455 S
H473 N453 0.862 . S
O474 Co442 1.920 . S
O474 C447 1.289 . S
C475 O467 1.258 . S
C475 O468 1.266 . S
Co476 O479 1.970 . S
Co476 N493 1.989 . S
Co476 O501 1.967 . S
Co476 O508 1.920 . S
Co477 O480 1.966 . S
Co477 N486 2.022 . S
Co477 N494 1.993 . S
Co477 O502 1.941 . S
C478 O479 1.258 . S
C478 O480 1.263 . S
O479 Co476 1.970 . S
O479 C478 1.258 . S
O480 Co477 1.966 . S
O480 C478 1.263 . S
C481 O482 1.235 . S
C481 O508 1.289 . S
O482 C481 1.235 . S
C483 C485 1.400 1_565 S
C483 N486 1.351 . S
C483 C488 1.501 . S
C484 C485 1.387 . S
C484 N487 1.341 . S
C485 C483 1.400 1_545 S
C485 C484 1.387 . S
N486 Co477 2.022 . S
N486 C483 1.351 . S
N486 N487 1.365 1_565 S
N487 C484 1.341 . S
N487 N486 1.365 1_545 S
N487 H507 0.862 . S
C488 C483 1.501 . S
C488 H489 0.961 . S
C488 H490 0.961 . S
C488 H491 0.960 . S
H489 C488 0.961 . S
H490 C488 0.961 . S
H491 C488 0.960 . S
C492 N493 1.342 . S
C492 C496 1.401 . S
C492 C497 1.499 . S
N493 Co476 1.989 . S
N493 C492 1.342 . S
N493 N494 1.388 . S
N494 Co477 1.993 . S
N494 N493 1.388 . S
N494 C495 1.346 . S
C495 N494 1.346 . S
C495 C496 1.396 . S
C495 C505 1.510 . S
C496 C492 1.401 . S
C496 C495 1.396 . S
C497 C492 1.499 . S
C497 H498 0.959 . S
C497 H499 0.960 . S
C497 H500 0.961 . S
H498 C497 0.959 . S
H499 C497 0.960 . S
H500 C497 0.961 . S
O501 Co476 1.967 . S
O501 C509 1.258 . S
O502 Co477 1.941 . S
O502 C509 1.266 . S
H503 C505 0.959 1_545 S
H504 C505 0.961 . S
C505 C495 1.510 . S
C505 H503 0.959 1_565 S
C505 H504 0.961 . S
C505 H506 0.960 1_565 S
H506 C505 0.960 1_545 S
H507 N487 0.862 . S
O508 Co476 1.920 . S
O508 C481 1.289 . S
C509 O501 1.258 . S
C509 O502 1.266 . S
Co510 O513 1.970 . S
Co510 N527 1.989 . S
Co510 O535 1.967 . S
Co510 O542 1.920 . S
Co511 O514 1.966 . S
Co511 N520 2.022 . S
Co511 N528 1.993 . S
Co511 O536 1.941 . S
C512 O513 1.258 . S
C512 O514 1.263 . S
O513 Co510 1.970 . S
O513 C512 1.258 . S
O514 Co511 1.966 . S
O514 C512 1.263 . S
C515 O516 1.235 . S
C515 O542 1.289 . S
O516 C515 1.235 . S
C517 C519 1.400 . S
C517 N520 1.351 . S
C517 C522 1.501 . S
C518 C519 1.387 . S
C518 N521 1.341 . S
C519 C517 1.400 . S
C519 C518 1.387 . S
N520 Co511 2.022 . S
N520 C517 1.351 . S
N520 N521 1.365 . S
N521 C518 1.341 . S
N521 N520 1.365 . S
N521 H541 0.862 . S
C522 C517 1.501 . S
C522 H523 0.961 . S
C522 H524 0.961 . S
C522 H525 0.960 . S
H523 C522 0.961 . S
H524 C522 0.961 . S
H525 C522 0.960 . S
C526 N527 1.342 . S
C526 C530 1.401 . S
C526 C531 1.499 . S
N527 Co510 1.989 . S
N527 C526 1.342 . S
N527 N528 1.388 . S
N528 Co511 1.993 . S
N528 N527 1.388 . S
N528 C529 1.346 . S
C529 N528 1.346 . S
C529 C530 1.396 . S
C529 C539 1.510 . S
C530 C526 1.401 . S
C530 C529 1.396 . S
C531 C526 1.499 . S
C531 H532 0.959 . S
C531 H533 0.960 . S
C531 H534 0.961 . S
H532 C531 0.959 . S
H533 C531 0.960 . S
H534 C531 0.961 . S
O535 Co510 1.967 . S
O535 C543 1.258 . S
O536 Co511 1.941 . S
O536 C543 1.266 . S
H537 C539 0.959 . S
H538 C539 0.961 . S
C539 C529 1.510 . S
C539 H537 0.959 . S
C539 H538 0.961 . S
C539 H540 0.960 . S
H540 C539 0.960 . S
H541 N521 0.862 . S
O542 Co510 1.920 . S
O542 C515 1.289 . S
C543 O535 1.258 . S
C543 O536 1.266 . S
C20 C224 2.607 . S
C258 C54 2.607 . S
C156 C88 2.607 . S
C190 C122 2.607 . S
C292 C496 2.607 . S
C326 C530 2.607 . S
C428 C360 2.607 . S
C394 C462 2.607 . S
C281 C9 4.427 1_546 S
C315 C43 4.427 1_556 S
C349 C77 4.427 1_456 S
C383 C111 4.427 1_446 S
C417 C145 4.427 . S
C451 C179 4.427 1_455 S
C213 C485 4.427 1_665 S
C247 C519 4.427 1_565 S
C339 C2 2.184 . S
C373 C36 2.184 . S
C407 C70 2.184 . S
C305 C104 2.184 . S
C138 C543 2.184 . S
C172 C441 2.184 . S
C206 C475 2.184 . S
C240 C509 2.184 . S
C67 C274 2.184 . S
C101 C308 2.184 . S
C135 C342 2.184 . S
C33 C376 2.184 . S
C271 C410 2.184 . S
C169 C444 2.184 . S
C203 C478 2.184 . S
C512 C237 2.184 . S
C73 C5 0.694 . S
C107 C39 0.694 . S
C141 C209 0.694 . S
C243 C175 0.694 . S
C277 C345 0.694 . S
C379 C311 0.694 . S
C413 C481 0.694 . S
C447 C515 0.694 . S
