# Generated by pormake.
# Topology smb, (6)-cn, num edge types: 1
# Building blocks:
#     Node 0, Type 0, BuildingBlock: IZENUY_clean_sbu_0, # of connection points: 6
#     Node 1, Type 0, BuildingBlock: IZENUY_clean_sbu_0, # of connection points: 6
#     Node 2, Type 0, BuildingBlock: IZENUY_clean_sbu_0, # of connection points: 6
#     Node 3, Type 0, BuildingBlock: IZENUY_clean_sbu_0, # of connection points: 6
#     Node 4, Type 0, BuildingBlock: IZENUY_clean_sbu_0, # of connection points: 6
#     Node 5, Type 0, BuildingBlock: IZENUY_clean_sbu_0, # of connection points: 6
#     Node 6, Type 0, BuildingBlock: IZENUY_clean_sbu_0, # of connection points: 6
#     Node 7, Type 0, BuildingBlock: IZENUY_clean_sbu_0, # of connection points: 6
#     Node 8, Type 0, BuildingBlock: IZENUY_clean_sbu_0, # of connection points: 6
#     Edge 9, Type (0, 0), BuildingBlock: MIFKUJ_clean_linker_0, # of connection points: 2
#     Edge 10, Type (0, 0), BuildingBlock: MIFKUJ_clean_linker_0, # of connection points: 2
#     Edge 11, Type (0, 0), BuildingBlock: MIFKUJ_clean_linker_0, # of connection points: 2
#     Edge 12, Type (0, 0), BuildingBlock: MIFKUJ_clean_linker_0, # of connection points: 2
#     Edge 13, Type (0, 0), BuildingBlock: MIFKUJ_clean_linker_0, # of connection points: 2
#     Edge 14, Type (0, 0), BuildingBlock: MIFKUJ_clean_linker_0, # of connection points: 2
#     Edge 15, Type (0, 0), BuildingBlock: MIFKUJ_clean_linker_0, # of connection points: 2
#     Edge 16, Type (0, 0), BuildingBlock: MIFKUJ_clean_linker_0, # of connection points: 2
#     Edge 17, Type (0, 0), BuildingBlock: MIFKUJ_clean_linker_0, # of connection points: 2
#     Edge 18, Type (0, 0), BuildingBlock: MIFKUJ_clean_linker_0, # of connection points: 2
#     Edge 19, Type (0, 0), BuildingBlock: MIFKUJ_clean_linker_0, # of connection points: 2
#     Edge 20, Type (0, 0), BuildingBlock: MIFKUJ_clean_linker_0, # of connection points: 2
#     Edge 21, Type (0, 0), BuildingBlock: MIFKUJ_clean_linker_0, # of connection points: 2
#     Edge 22, Type (0, 0), BuildingBlock: MIFKUJ_clean_linker_0, # of connection points: 2
#     Edge 23, Type (0, 0), BuildingBlock: MIFKUJ_clean_linker_0, # of connection points: 2
#     Edge 24, Type (0, 0), BuildingBlock: MIFKUJ_clean_linker_0, # of connection points: 2
#     Edge 25, Type (0, 0), BuildingBlock: MIFKUJ_clean_linker_0, # of connection points: 2
#     Edge 26, Type (0, 0), BuildingBlock: MIFKUJ_clean_linker_0, # of connection points: 2
#     Edge 27, Type (0, 0), BuildingBlock: MIFKUJ_clean_linker_0, # of connection points: 2
#     Edge 28, Type (0, 0), BuildingBlock: MIFKUJ_clean_linker_0, # of connection points: 2
#     Edge 29, Type (0, 0), BuildingBlock: MIFKUJ_clean_linker_0, # of connection points: 2
#     Edge 30, Type (0, 0), BuildingBlock: MIFKUJ_clean_linker_0, # of connection points: 2
#     Edge 31, Type (0, 0), BuildingBlock: MIFKUJ_clean_linker_0, # of connection points: 2
#     Edge 32, Type (0, 0), BuildingBlock: MIFKUJ_clean_linker_0, # of connection points: 2
#     Edge 33, Type (0, 0), BuildingBlock: MIFKUJ_clean_linker_0, # of connection points: 2
#     Edge 34, Type (0, 0), BuildingBlock: MIFKUJ_clean_linker_0, # of connection points: 2
#     Edge 35, Type (0, 0), BuildingBlock: MIFKUJ_clean_linker_0, # of connection points: 2
# Relax obj value: 0.326
# Max RMSD: 0.238
# Mean RMSD: 0.238
data_MOF--net-smb--node1-IZENUY_clean_sbu_0--edge1-MIFKUJ_clean_linker_0
_symmetry_space_group_name_H-M    P1
_symmetry_Int_Tables_number       1
_symmetry_cell_setting            triclinic
loop_
_symmetry_equiv_pos_as_xyz
'x, y, z'
_cell_length_a     49.157804
_cell_length_b     49.160538
_cell_length_c     38.204652
_cell_angle_alpha  89.96838
_cell_angle_beta   90.040781
_cell_angle_gamma 120.01747
loop_
_atom_site_label
_atom_site_type_symbol
_atom_site_fract_x
_atom_site_fract_y
_atom_site_fract_z
_atom_type_partial_charge
Fe0 Fe 0.41522 0.20454 0.97558 0.0
Fe1 Fe 0.3636 0.18311 0.03142 0.0
O2 O 0.40395 0.20308 0.01979 0.0
Fe3 Fe 0.433 0.2212 0.05239 0.0
O4 O 0.46077 0.25346 0.02423 0.0
O5 O 0.43514 0.24708 0.97499 0.0
O6 O 0.38078 0.20507 0.95801 0.0
C7 C 0.36283 0.21353 0.97199 0.0
C8 C 0.46024 0.19573 0.01216 0.0
O9 O 0.35632 0.20912 0.00423 0.0
C10 C 0.38863 0.16405 0.08351 0.0
O11 O 0.39605 0.16208 0.97347 0.0
O12 O 0.35148 0.15379 0.99619 0.0
O13 O 0.45002 0.19712 0.04188 0.0
O14 O 0.45181 0.20453 0.98516 0.0
C15 C 0.39042 0.23636 0.07627 0.0
O16 O 0.36872 0.15581 0.05907 0.0
O17 O 0.41041 0.19232 0.08632 0.0
C18 C 0.36724 0.14412 0.97943 0.0
O19 O 0.36842 0.20896 0.06879 0.0
O20 O 0.41788 0.24627 0.0652 0.0
C21 C 0.45645 0.26454 0.99617 0.0
Fe22 Fe 0.82763 0.17278 0.03033 0.0
Fe23 Fe 0.80085 0.21364 0.05554 0.0
O24 O 0.81011 0.19593 0.02102 0.0
Fe25 Fe 0.80186 0.20139 0.97738 0.0
O26 O 0.77632 0.15961 0.97156 0.0
O27 O 0.80911 0.14588 0.99321 0.0
O28 O 0.79394 0.14556 0.05641 0.0
C29 C 0.78396 0.15383 0.0824 0.0
C30 C 0.86122 0.20575 0.97289 0.0
O31 O 0.79251 0.18246 0.08732 0.0
C32 C 0.82374 0.2604 0.0032 0.0
O33 O 0.84927 0.19562 0.06939 0.0
O34 O 0.84155 0.23593 0.06831 0.0
O35 O 0.83559 0.20027 0.95894 0.0
O36 O 0.86217 0.19861 0.00449 0.0
C37 C 0.74888 0.19382 0.01475 0.0
O38 O 0.80749 0.24801 0.03033 0.0
O39 O 0.82687 0.24373 0.98029 0.0
C40 C 0.85763 0.22374 0.07752 0.0
O41 O 0.75954 0.19251 0.04436 0.0
O42 O 0.76659 0.20342 0.98817 0.0
C43 C 0.78465 0.13941 0.97575 0.0
Fe44 Fe 0.79884 0.58104 0.96103 0.0
Fe45 Fe 0.81932 0.62897 0.02126 0.0
O46 O 0.79969 0.58962 0.00607 0.0
Fe47 Fe 0.78071 0.55853 0.03634 0.0
O48 O 0.80633 0.5434 0.02519 0.0
O49 O 0.80022 0.54467 0.96821 0.0
O50 O 0.8412 0.60105 0.95886 0.0
C51 C 0.85951 0.62906 0.96793 0.0
C52 C 0.73926 0.53689 0.97888 0.0
O53 O 0.8502 0.64346 0.9877 0.0
C54 C 0.76314 0.5993 0.06064 0.0
O55 O 0.79768 0.61591 0.94625 0.0
O56 O 0.79488 0.63878 0.99463 0.0
O57 O 0.7505 0.53145 0.00594 0.0
O58 O 0.7561 0.56035 0.95995 0.0
C59 C 0.83569 0.60108 0.0723 0.0
O60 O 0.79146 0.62121 0.0575 0.0
O61 O 0.75418 0.57227 0.04854 0.0
C62 C 0.79066 0.63421 0.96207 0.0
O63 O 0.84535 0.62177 0.04871 0.0
O64 O 0.80728 0.5794 0.07284 0.0
C65 C 0.80926 0.53554 0.99459 0.0
Fe66 Fe 0.06845 0.52602 0.31483 0.0
Fe67 Fe 0.01709 0.50379 0.37181 0.0
O68 O 0.05726 0.52199 0.35941 0.0
Fe69 Fe 0.08678 0.53632 0.39195 0.0
O70 O 0.11685 0.56795 0.36512 0.0
O71 O 0.09168 0.56848 0.31817 0.0
O72 O 0.03621 0.5312 0.29906 0.0
C73 C 0.01774 0.53807 0.31459 0.0
C74 C 0.10912 0.50865 0.34814 0.0
O75 O 0.01085 0.53143 0.34644 0.0
C76 C 0.03922 0.48061 0.42253 0.0
O77 O 0.04628 0.48429 0.30816 0.0
O78 O 0.00303 0.4748 0.33587 0.0
O79 O 0.0997 0.50932 0.37865 0.0
O80 O 0.10266 0.5211 0.32274 0.0
C81 C 0.04842 0.55646 0.41767 0.0
O82 O 0.02001 0.47439 0.39787 0.0
O83 O 0.06277 0.50781 0.42552 0.0
C84 C 0.01773 0.4664 0.31526 0.0
O85 O 0.02465 0.52998 0.41004 0.0
O86 O 0.07539 0.56386 0.40656 0.0
C87 C 0.11444 0.58234 0.33895 0.0
Fe88 Fe 0.45869 0.54043 0.30317 0.0
Fe89 Fe 0.48903 0.51815 0.35787 0.0
O90 O 0.4681 0.53764 0.34718 0.0
Fe91 Fe 0.45643 0.55452 0.38042 0.0
O92 O 0.41544 0.5294 0.36963 0.0
O93 O 0.42181 0.53976 0.31341 0.0
O94 O 0.43567 0.49827 0.29947 0.0
C95 C 0.44598 0.47982 0.30527 0.0
C96 C 0.47646 0.59921 0.32624 0.0
O97 O 0.47118 0.48882 0.32252 0.0
C98 C 0.51539 0.57151 0.40267 0.0
O99 O 0.4935 0.54128 0.28486 0.0
O100 O 0.52201 0.54461 0.33063 0.0
O101 O 0.45959 0.58658 0.35298 0.0
O102 O 0.4815 0.58297 0.30454 0.0
C103 C 0.44603 0.49792 0.41093 0.0
O104 O 0.51036 0.54421 0.3951 0.0
O105 O 0.49661 0.58043 0.39298 0.0
C106 C 0.51988 0.54919 0.29851 0.0
O107 O 0.45737 0.49033 0.3857 0.0
O108 O 0.45133 0.52576 0.41399 0.0
C109 C 0.40405 0.52871 0.33988 0.0
Fe110 Fe 0.45198 0.89324 0.37419 0.0
Fe111 Fe 0.45932 0.91043 0.29672 0.0
O112 O 0.46451 0.92213 0.34111 0.0
Fe113 Fe 0.48237 0.96223 0.35284 0.0
O114 O 0.51325 0.96016 0.37701 0.0
O115 O 0.48094 0.91838 0.40691 0.0
O116 O 0.47998 0.88181 0.35961 0.0
C117 C 0.4805 0.87288 0.32875 0.0
C118 C 0.43097 0.93106 0.39947 0.0
O119 O 0.46518 0.87681 0.30448 0.0
C120 C 0.44599 0.96033 0.29733 0.0
O121 O 0.42024 0.86231 0.34831 0.0
O122 O 0.41699 0.88668 0.30196 0.0
O123 O 0.45764 0.95465 0.39222 0.0
O124 O 0.42381 0.90376 0.38968 0.0
C125 C 0.51849 0.96183 0.29513 0.0
O126 O 0.45316 0.94224 0.28134 0.0
O127 O 0.4531 0.96715 0.32913 0.0
C128 C 0.40433 0.86428 0.32344 0.0
O129 O 0.50096 0.93309 0.2885 0.0
O130 O 0.50966 0.97628 0.31552 0.0
C131 C 0.508 0.94165 0.40216 0.0
Fe132 Fe 0.74877 0.86736 0.63683 0.0
Fe133 Fe 0.69599 0.84593 0.69125 0.0
O134 O 0.73645 0.86653 0.68043 0.0
Fe135 Fe 0.76444 0.88614 0.71368 0.0
O136 O 0.79285 0.91758 0.68542 0.0
O137 O 0.76862 0.90989 0.63503 0.0
O138 O 0.71447 0.8675 0.61756 0.0
C139 C 0.69562 0.87532 0.6307 0.0
C140 C 0.79303 0.85976 0.67727 0.0
O141 O 0.68851 0.87097 0.66279 0.0
C142 C 0.72104 0.82919 0.74502 0.0
O143 O 0.72994 0.82495 0.63545 0.0
O144 O 0.68484 0.81606 0.65685 0.0
O145 O 0.78239 0.8624 0.70627 0.0
O146 O 0.78512 0.86746 0.64894 0.0
C147 C 0.72016 0.90097 0.73182 0.0
O148 O 0.70182 0.81976 0.71988 0.0
O149 O 0.74109 0.85809 0.74821 0.0
C150 C 0.70112 0.80662 0.64082 0.0
O151 O 0.6996 0.87231 0.72768 0.0
O152 O 0.74812 0.91106 0.72251 0.0
C153 C 0.78921 0.9279 0.65652 0.0
Fe154 Fe 0.12735 0.85827 0.64784 0.0
Fe155 Fe 0.16297 0.84309 0.70317 0.0
O156 O 0.13942 0.85958 0.69159 0.0
Fe157 Fe 0.12778 0.87731 0.72385 0.0
O158 O 0.08665 0.84955 0.71633 0.0
O159 O 0.08955 0.8552 0.65921 0.0
O160 O 0.10677 0.81592 0.64806 0.0
C161 C 0.11924 0.79955 0.65477 0.0
C162 C 0.14107 0.9173 0.6654 0.0
O163 O 0.14572 0.8115 0.67 0.0
C164 C 0.18843 0.89919 0.74319 0.0
O165 O 0.1629 0.86089 0.62872 0.0
O166 O 0.19397 0.86942 0.67382 0.0
O167 O 0.12699 0.90628 0.69413 0.0
O168 O 0.1472 0.90082 0.64522 0.0
C169 C 0.122 0.82399 0.75798 0.0
O170 O 0.18436 0.87182 0.73837 0.0
O171 O 0.16814 0.90594 0.73301 0.0
C172 C 0.19019 0.87168 0.64151 0.0
O173 O 0.13313 0.81578 0.73306 0.0
O174 O 0.12641 0.85161 0.75949 0.0
C175 C 0.0734 0.84573 0.68705 0.0
Fe176 Fe 0.15342 0.29464 0.68386 0.0
Fe177 Fe 0.11902 0.22422 0.70091 0.0
O178 O 0.13488 0.25492 0.66985 0.0
Fe179 Fe 0.13234 0.24599 0.62464 0.0
O180 O 0.17464 0.26708 0.6206 0.0
O181 O 0.18184 0.30965 0.64751 0.0
O182 O 0.18264 0.29032 0.70857 0.0
C183 C 0.17599 0.26988 0.73205 0.0
C184 C 0.11946 0.29565 0.62769 0.0
O185 O 0.14871 0.24617 0.73444 0.0
C186 C 0.07371 0.20218 0.64678 0.0
O187 O 0.12847 0.2869 0.72295 0.0
O188 O 0.0931 0.2369 0.71781 0.0
O189 O 0.12934 0.28011 0.6109 0.0
O190 O 0.12518 0.30107 0.65995 0.0
C191 C 0.14525 0.20126 0.65523 0.0
O192 O 0.08622 0.19695 0.67301 0.0
O193 O 0.08985 0.22432 0.62591 0.0
C194 C 0.10209 0.26349 0.73099 0.0
O195 O 0.14409 0.2094 0.68618 0.0
O196 O 0.1347 0.21013 0.63017 0.0
C197 C 0.19202 0.29563 0.6283 0.0
H198 H 0.38685 0.10168 0.96947 0.0
H199 H 0.36027 0.05283 0.9355 0.0
H200 H 0.28551 0.07186 0.91115 0.0
H201 H 0.31078 0.11905 0.94715 0.0
H202 H 0.26071 0.01398 0.92064 0.0
H203 H 0.35355 0.08883 0.85372 0.0
H204 H 0.41072 0.12361 0.84626 0.0
H205 H 0.42538 0.04558 0.8638 0.0
H206 H 0.36829 0.0104 0.87155 0.0
H207 H 0.20496 0.96007 0.75496 0.0
H208 H 0.24094 0.99532 0.79917 0.0
H209 H 0.26627 0.92603 0.82767 0.0
H210 H 0.22971 0.88997 0.78337 0.0
H211 H 0.31844 0.99879 0.82309 0.0
H212 H 0.22135 0.92288 0.87896 0.0
H213 H 0.16356 0.89085 0.88163 0.0
H214 H 0.15677 0.9746 0.88125 0.0
H215 H 0.21451 0.00711 0.87793 0.0
C216 C 0.36452 0.09503 0.95714 0.0
C217 C 0.35076 0.11394 0.96082 0.0
C218 C 0.34947 0.06731 0.93752 0.0
C219 C 0.32113 0.05886 0.92004 0.0
C220 C 0.30724 0.07764 0.9244 0.0
C221 C 0.3217 0.10468 0.94492 0.0
C222 C 0.30601 0.03119 0.8963 0.0
C223 C 0.27349 0.01074 0.89943 0.0
C224 C 0.32263 0.02612 0.86907 0.0
C225 C 0.35677 0.0471 0.86353 0.0
C226 C 0.36901 0.07914 0.85603 0.0
C227 C 0.40137 0.0989 0.85176 0.0
C228 C 0.42167 0.08682 0.85465 0.0
C229 C 0.40963 0.05491 0.8616 0.0
C230 C 0.37728 0.03504 0.86588 0.0
C231 C 0.21841 0.95232 0.77021 0.0
C232 C 0.21403 0.92195 0.76605 0.0
C233 C 0.23907 0.97259 0.79536 0.0
C234 C 0.25592 0.96306 0.81675 0.0
C235 C 0.25338 0.93367 0.81127 0.0
C236 C 0.23246 0.91315 0.78606 0.0
C237 C 0.27333 0.98292 0.84691 0.0
C238 C 0.30606 0.00171 0.84495 0.0
C239 C 0.25693 0.98687 0.87497 0.0
C240 C 0.22225 0.96741 0.87804 0.0
C241 C 0.20752 0.93445 0.87925 0.0
C242 C 0.17477 0.91621 0.88089 0.0
C243 C 0.15651 0.93068 0.88158 0.0
C244 C 0.17095 0.96342 0.88074 0.0
C245 C 0.20369 0.98177 0.87903 0.0
H246 H 0.13116 0.91652 0.8828 0.0
H247 H 0.44673 0.10217 0.85144 0.0
H248 H 0.91782 0.20929 0.98695 0.0
H249 H 0.96314 0.22824 0.94767 0.0
H250 H 0.91394 0.25068 0.86958 0.0
H251 H 0.86862 0.2313 0.90808 0.0
H252 H 0.93782 0.21936 0.84084 0.0
H253 H 0.97603 0.30857 0.91625 0.0
H254 H 0.98888 0.33649 0.97277 0.0
H255 H 0.0548 0.30565 0.99511 0.0
H256 H 0.04202 0.27716 0.93892 0.0
H257 H 0.0974 0.31448 0.75217 0.0
H258 H 0.06156 0.31468 0.79721 0.0
H259 H 0.03067 0.21769 0.82075 0.0
H260 H 0.06523 0.21702 0.77574 0.0
H261 H 0.04833 0.29529 0.87319 0.0
H262 H 0.95592 0.17955 0.81208 0.0
H263 H 0.94945 0.15303 0.75525 0.0
H264 H 0.99291 0.24216 0.70267 0.0
H265 H -0.00068 0.26916 0.75907 0.0
C266 C 0.91679 0.21844 0.9615 0.0
C267 C 0.88952 0.2185 0.95053 0.0
C268 C 0.94274 0.22944 0.93916 0.0
C269 C 0.94198 0.24107 0.90575 0.0
C270 C 0.91503 0.24173 0.89516 0.0
C271 C 0.8891 0.23058 0.91725 0.0
C272 C 0.96842 0.25081 0.88089 0.0
C273 C 0.96186 0.2363 0.84788 0.0
C274 C -0.00015 0.27312 0.88981 0.0
C275 C 0.00789 0.29054 0.92345 0.0
C276 C 0.99312 0.30757 0.9333 0.0
C277 C 0.00041 0.32353 0.96528 0.0
C278 C 0.02259 0.32279 0.98755 0.0
C279 C 0.03761 0.30619 0.97783 0.0
C280 C 0.03038 0.29017 0.9459 0.0
C281 C 0.08318 0.29342 0.76735 0.0
C282 C 0.08345 0.26554 0.75996 0.0
C283 C 0.06302 0.29364 0.79317 0.0
C284 C 0.04338 0.2661 0.81195 0.0
C285 C 0.04547 0.23907 0.80627 0.0
C286 C 0.06501 0.23866 0.7803 0.0
C287 C 0.01747 0.2635 0.83389 0.0
C288 C 0.02411 0.27904 0.86616 0.0
C289 C 0.98597 0.24266 0.82416 0.0
C290 C 0.97824 0.22634 0.78981 0.0
C291 C 0.96359 0.19342 0.78833 0.0
C292 C 0.96017 0.17834 0.75624 0.0
C293 C 0.97119 0.19597 0.72551 0.0
C294 C 0.98471 0.22859 0.72657 0.0
C295 C 0.98817 0.24378 0.75856 0.0
H296 H 0.96915 0.18434 0.70082 0.0
H297 H 0.02818 0.33513 0.01231 0.0
H298 H 0.69831 0.76639 0.73558 0.0
H299 H 0.70643 0.7311 0.77371 0.0
H300 H 0.75298 0.8057 0.8493 0.0
H301 H 0.74593 0.84132 0.81075 0.0
H302 H 0.78676 0.7796 0.83817 0.0
H303 H 0.67705 0.74002 0.86218 0.0
H304 H 0.62119 0.71846 0.84709 0.0
H305 H 0.61911 0.63858 0.7988 0.0
H306 H 0.67508 0.65987 0.81322 0.0
H307 H 0.79197 0.68875 0.98023 0.0
H308 H 0.77642 0.71988 0.94403 0.0
H309 H 0.74875 0.65154 0.86116 0.0
H310 H 0.76461 0.62049 0.8969 0.0
H311 H 0.70488 0.67289 0.87534 0.0
H312 H 0.81426 0.71238 0.85238 0.0
H313 H 0.87006 0.73392 0.86755 0.0
H314 H 0.87244 0.81439 0.91452 0.0
H315 H 0.81646 0.79309 0.90012 0.0
C316 C 0.7097 0.77506 0.76065 0.0
C317 C 0.72142 0.80659 0.77023 0.0
C318 C 0.71433 0.75486 0.78245 0.0
C319 C 0.73016 0.76566 0.81454 0.0
C320 C 0.74082 0.79685 0.82464 0.0
C321 C 0.73663 0.81714 0.80266 0.0
C322 C 0.73735 0.7452 0.8367 0.0
C323 C 0.7687 0.7565 0.84677 0.0
C324 C 0.71403 0.71459 0.84701 0.0
C325 C 0.68033 0.70168 0.8385 0.0
C326 C 0.66473 0.71796 0.84813 0.0
C327 C 0.63304 0.70577 0.83973 0.0
C328 C 0.61663 0.67721 0.82193 0.0
C329 C 0.63186 0.66072 0.81256 0.0
C330 C 0.66355 0.67282 0.82087 0.0
C331 C 0.78239 0.68025 0.9544 0.0
C332 C 0.77973 0.6523 0.9413 0.0
C333 C 0.77358 0.69806 0.93377 0.0
C334 C 0.76161 0.68801 0.89993 0.0
C335 C 0.75794 0.65963 0.88723 0.0
C336 C 0.76718 0.64206 0.90761 0.0
C337 C 0.754 0.70771 0.87728 0.0
C338 C 0.72275 0.69614 0.86691 0.0
C339 C 0.77736 0.73812 0.86677 0.0
C340 C 0.81103 0.75094 0.87554 0.0
C341 C 0.82655 0.73448 0.86633 0.0
C342 C 0.85825 0.74669 0.87468 0.0
C343 C 0.87476 0.77544 0.89209 0.0
C344 C 0.85961 0.79209 0.90109 0.0
C345 C 0.8279 0.77997 0.8928 0.0
H346 H 0.8993 0.78487 0.89852 0.0
H347 H 0.5921 0.66781 0.81544 0.0
H348 H 0.10608 0.83641 0.8219 0.0
H349 H 0.06718 0.79877 0.86252 0.0
H350 H 0.05451 0.72235 0.79608 0.0
H351 H 0.09349 0.75996 0.7551 0.0
H352 H -0.00049 0.72193 0.8101 0.0
H353 H 0.08615 0.72984 0.87529 0.0
H354 H 0.13751 0.75714 0.90507 0.0
H355 H 0.10215 0.79931 0.97674 0.0
H356 H 0.05067 0.77261 0.94708 0.0
H357 H 0.88522 0.60701 0.9202 0.0
H358 H 0.93512 0.63684 0.88943 0.0
H359 H 0.95525 0.71978 0.9481 0.0
H360 H 0.90532 0.69014 0.97922 0.0
H361 H 0.00819 0.71313 0.93856 0.0
H362 H 0.92541 0.712 0.87058 0.0
H363 H 0.87409 0.68761 0.84064 0.0
H364 H 0.90266 0.63614 0.77394 0.0
H365 H 0.95401 0.65985 0.80389 0.0
C366 C 0.09549 0.81156 0.81624 0.0
C367 C 0.10267 0.80113 0.78519 0.0
C368 C 0.0734 0.79008 0.8396 0.0
C369 C 0.05806 0.75781 0.83232 0.0
C370 C 0.06621 0.7472 0.80216 0.0
C371 C 0.08854 0.76869 0.77888 0.0
C372 C 0.03112 0.73571 0.85409 0.0
C373 C 0.00153 0.7194 0.83805 0.0
C374 C 0.03371 0.73339 0.89072 0.0
C375 C 0.06459 0.74937 0.90878 0.0
C376 C 0.08938 0.74512 0.89723 0.0
C377 C 0.11851 0.76046 0.91413 0.0
C378 C 0.12311 0.78 0.94273 0.0
C379 C 0.09855 0.78418 0.95457 0.0
C380 C 0.06938 0.7689 0.93775 0.0
C381 C 0.90035 0.63152 0.92689 0.0
C382 C 0.89106 0.64632 0.95183 0.0
C383 C 0.92887 0.64849 0.90928 0.0
C384 C 0.94862 0.68054 0.91626 0.0
C385 C 0.94026 0.69504 0.94237 0.0
C386 C 0.91165 0.6781 0.95996 0.0
C387 C 0.97675 0.69941 0.89446 0.0
C388 C 0.00638 0.71526 0.9105 0.0
C389 C 0.97426 0.70169 0.85782 0.0
C390 C 0.9434 0.68739 0.83977 0.0
C391 C 0.92064 0.69525 0.84976 0.0
C392 C 0.89158 0.68161 0.83275 0.0
C393 C 0.88509 0.66028 0.80548 0.0
C394 C 0.9077 0.65262 0.79512 0.0
C395 C 0.93679 0.66615 0.81209 0.0
H396 H 0.86258 0.64976 0.79232 0.0
H397 H 0.14568 0.79185 0.95577 0.0
H398 H 0.16542 0.25044 0.79962 0.0
H399 H 0.20318 0.25054 0.84133 0.0
H400 H 0.27726 0.29667 0.76524 0.0
H401 H 0.23952 0.29728 0.72339 0.0
H402 H 0.2675 0.23735 0.79454 0.0
H403 H 0.28311 0.3374 0.83134 0.0
H404 H 0.2664 0.37465 0.85061 0.0
H405 H 0.22289 0.31818 0.94164 0.0
H406 H 0.23893 0.28031 0.92266 0.0
H407 H 0.38114 0.23885 0.90715 0.0
H408 H 0.35406 0.25623 0.86744 0.0
H409 H 0.28172 0.23283 0.94481 0.0
H410 H 0.30934 0.21621 0.98528 0.0
H411 H 0.29442 0.28538 0.91284 0.0
H412 H 0.27171 0.18327 0.87603 0.0
H413 H 0.28281 0.14175 0.85756 0.0
H414 H 0.33297 0.19652 0.76785 0.0
H415 H 0.3225 0.23858 0.78602 0.0
C416 C 0.18987 0.26111 0.79199 0.0
C417 C 0.19962 0.27377 0.7583 0.0
C418 C 0.21139 0.26127 0.81586 0.0
C419 C 0.24292 0.27368 0.80631 0.0
C420 C 0.25299 0.28715 0.77304 0.0
C421 C 0.23151 0.28758 0.74929 0.0
C422 C 0.26435 0.26962 0.83004 0.0
C423 C 0.2741 0.24841 0.8201 0.0
C424 C 0.27162 0.28308 0.86384 0.0
C425 C 0.26203 0.30588 0.87541 0.0
C426 C 0.26974 0.33277 0.85531 0.0
C427 C 0.26044 0.35403 0.86622 0.0
C428 C 0.24354 0.34875 0.89729 0.0
C429 C 0.23597 0.32223 0.91757 0.0
C430 C 0.2452 0.30088 0.90676 0.0
C431 C 0.35951 0.23748 0.9158 0.0
C432 C 0.3471 0.22574 0.94916 0.0
C433 C 0.34403 0.24739 0.89303 0.0
C434 C 0.31551 0.2452 0.90284 0.0
C435 C 0.30364 0.23459 0.93664 0.0
C436 C 0.31937 0.22503 0.95969 0.0
C437 C 0.29765 0.25301 0.8774 0.0
C438 C 0.28834 0.2747 0.88708 0.0
C439 C 0.29011 0.23942 0.84354 0.0
C440 C 0.29667 0.21427 0.83265 0.0
C441 C 0.28537 0.1866 0.85254 0.0
C442 C 0.29148 0.16293 0.84208 0.0
C443 C 0.30866 0.16653 0.8116 0.0
C444 C 0.31973 0.1938 0.7915 0.0
C445 C 0.31369 0.21755 0.80185 0.0
H446 H 0.31333 0.14816 0.80351 0.0
H447 H 0.23636 0.36524 0.90569 0.0
H448 H 0.68792 0.88761 0.79344 0.0
H449 H 0.68908 0.92618 0.83499 0.0
H450 H 0.73918 -2e-05 0.75926 0.0
H451 H 0.73936 0.96174 0.71865 0.0
H452 H 0.77031 0.01484 0.81567 0.0
H453 H 0.66259 0.97711 0.78848 0.0
H454 H 0.60668 0.93782 0.77995 0.0
H455 H 0.59914 0.91089 0.888 0.0
H456 H 0.65514 0.94973 0.89708 0.0
H457 H 0.73555 0.12069 0.92999 0.0
H458 H 0.71503 0.07625 0.88962 0.0
H459 H 0.77658 0.04685 0.93488 0.0
H460 H 0.79763 0.09143 0.97504 0.0
H461 H 0.68716 0.01157 0.89207 0.0
H462 H 0.81226 0.03172 0.86808 0.0
H463 H 0.86734 0.07464 0.87224 0.0
H464 H 0.83802 0.14272 0.85714 0.0
H465 H 0.78287 0.10022 0.85228 0.0
C466 C 0.6983 0.91194 0.78544 0.0
C467 C 0.71372 0.92193 0.75313 0.0
C468 C 0.69893 0.93397 0.80912 0.0
C469 C 0.71436 0.96605 0.80032 0.0
C470 C 0.72743 0.97544 0.76678 0.0
C471 C 0.72741 0.95362 0.74355 0.0
C472 C 0.72067 0.99027 0.82722 0.0
C473 C 0.75199 0.01407 0.83218 0.0
C474 C 0.69685 0.98953 0.84871 0.0
C475 C 0.66316 0.96616 0.84338 0.0
C476 C 0.64909 0.96264 0.81036 0.0
C477 C 0.61736 0.94048 0.80544 0.0
C478 C 0.59939 0.92182 0.8334 0.0
C479 C 0.61309 0.92534 0.86636 0.0
C480 C 0.64482 0.94745 0.87142 0.0
C481 C 0.74443 0.10452 0.93176 0.0
C482 C 0.76875 0.10999 0.95522 0.0
C483 C 0.73248 0.07902 0.90881 0.0
C484 C 0.74467 0.05864 0.90896 0.0
C485 C 0.7672 0.06264 0.93411 0.0
C486 C 0.77924 0.08816 0.95698 0.0
C487 C 0.73663 0.03556 0.88041 0.0
C488 C 0.70523 0.0121 0.87532 0.0
C489 C 0.76019 0.03703 0.85797 0.0
C490 C 0.7934 0.06277 0.86023 0.0
C491 C 0.81759 0.05584 0.8655 0.0
C492 C 0.84882 0.0801 0.86798 0.0
C493 C 0.85616 0.11139 0.86507 0.0
C494 C 0.8323 0.11848 0.85951 0.0
C495 C 0.80105 0.09432 0.85691 0.0
H496 H 0.88034 0.13013 0.86705 0.0
H497 H 0.57483 0.90468 0.82953 0.0
H498 H 0.90575 0.28337 0.07429 0.0
H499 H 0.93735 0.31551 0.12354 0.0
H500 H 0.89246 0.2348 0.19157 0.0
H501 H 0.86148 0.20221 0.14181 0.0
H502 H 0.88665 0.29106 0.20882 0.0
H503 H 0.96382 0.26127 0.18628 0.0
H504 H -0.00091 0.25161 0.14909 0.0
H505 H 0.04884 0.34874 0.11879 0.0
H506 H 0.01361 0.35892 0.15542 0.0
H507 H 0.97112 0.40935 0.33922 0.0
H508 H 0.94675 0.35916 0.30735 0.0
H509 H 0.00211 0.40682 0.21613 0.0
H510 H 0.02743 0.45607 0.24833 0.0
H511 H 0.00225 0.35582 0.22202 0.0
H512 H 0.92037 0.38349 0.22817 0.0
H513 H 0.88355 0.39605 0.25814 0.0
H514 H 0.84159 0.30721 0.31136 0.0
H515 H 0.87843 0.29431 0.28195 0.0
C516 C 0.90361 0.27229 0.09946 0.0
C517 C 0.88161 0.24042 0.10439 0.0
C518 C 0.92153 0.2906 0.12753 0.0
C519 C 0.91716 0.27743 0.16107 0.0
C520 C 0.89624 0.24521 0.16576 0.0
C521 C 0.87882 0.22665 0.13739 0.0
C522 C 0.93149 0.29853 0.19136 0.0
C523 C 0.9119 0.30469 0.21252 0.0
C524 C 0.96439 0.31672 0.19526 0.0
C525 C 0.98596 0.31082 0.17355 0.0
C526 C 0.98216 0.28054 0.17154 0.0
C527 C 0.00217 0.27498 0.15058 0.0
C528 C 0.02617 0.29954 0.13157 0.0
C529 C 0.03026 0.32974 0.13356 0.0
C530 C 0.01031 0.33543 0.15448 0.0
C531 C 0.97782 0.40891 0.31231 0.0
C532 C 0.00102 0.43645 0.29613 0.0
C533 C 0.96396 0.38031 0.29412 0.0
C534 C 0.97245 0.37914 0.25918 0.0
C535 C 0.99536 0.40689 0.24311 0.0
C536 C 0.00967 0.43512 0.26145 0.0
C537 C 0.95748 0.3495 0.23857 0.0
C538 C 0.97695 0.34169 0.21921 0.0
C539 C 0.92444 0.33037 0.23554 0.0
C540 C 0.9024 0.33814 0.25327 0.0
C541 C 0.90344 0.36676 0.24648 0.0
C542 C 0.88255 0.37392 0.26332 0.0
C543 C 0.86033 0.35249 0.28674 0.0
C544 C 0.85888 0.32382 0.29329 0.0
C545 C 0.87975 0.31657 0.27655 0.0
H546 H 0.84417 0.35807 0.29974 0.0
H547 H 0.04161 0.29518 0.11532 0.0
H548 H 0.52188 0.5568 0.22775 0.0
H549 H 0.56641 0.57188 0.18888 0.0
H550 H 0.6254 0.58274 0.27746 0.0
H551 H 0.58073 0.56754 0.31699 0.0
H552 H 0.65362 0.63165 0.22256 0.0
H553 H 0.59848 0.51811 0.23681 0.0
H554 H 0.55071 0.46578 0.23696 0.0
H555 H 0.53353 0.4777 0.12938 0.0
H556 H 0.58109 0.53018 0.12867 0.0
H557 H 0.77462 0.62474 0.12593 0.0
H558 H 0.73559 0.62237 0.16749 0.0
H559 H 0.66402 0.58105 0.08752 0.0
H560 H 0.70263 0.5814 0.04699 0.0
H561 H 0.64285 0.54835 0.14095 0.0
H562 H 0.69515 0.65959 0.12317 0.0
H563 H 0.73989 0.71376 0.12027 0.0
H564 H 0.75951 0.70961 0.22906 0.0
H565 H 0.71512 0.65525 0.23251 0.0
C566 C 0.54432 0.56258 0.23916 0.0
C567 C 0.54764 0.56053 0.2755 0.0
C568 C 0.56974 0.57127 0.21685 0.0
C569 C 0.59899 0.57812 0.23036 0.0
C570 C 0.60291 0.5775 0.26666 0.0
C571 C 0.57735 0.56864 0.28912 0.0
C572 C 0.62463 0.58366 0.20614 0.0
C573 C 0.65165 0.61345 0.20494 0.0
C574 C 0.62135 0.56007 0.1826 0.0
C575 C 0.59322 0.52814 0.18277 0.0
C576 C 0.58445 0.5096 0.21323 0.0
C577 C 0.55744 0.4799 0.2134 0.0
C578 C 0.53911 0.46841 0.18319 0.0
C579 C 0.54781 0.48657 0.15272 0.0
C580 C 0.57481 0.51627 0.15241 0.0
C581 C 0.75065 0.61577 0.11722 0.0
C582 C 0.74142 0.60324 0.08348 0.0
C583 C 0.72836 0.61453 0.14087 0.0
C584 C 0.69677 0.6017 0.13068 0.0
C585 C 0.68813 0.59083 0.09618 0.0
C586 C 0.71015 0.59118 0.07296 0.0
C587 C 0.67214 0.59679 0.15653 0.0
C588 C 0.64518 0.56686 0.15831 0.0
C589 C 0.67528 0.62054 0.17999 0.0
C590 C 0.70199 0.65322 0.178 0.0
C591 C 0.70915 0.67014 0.14641 0.0
C592 C 0.73443 0.70089 0.14468 0.0
C593 C 0.75258 0.71508 0.17443 0.0
C594 C 0.74545 0.69857 0.20602 0.0
C595 C 0.72022 0.6678 0.20788 0.0
H596 H 0.77214 0.7389 0.17304 0.0
H597 H 0.51816 0.44545 0.18339 0.0
H598 H 0.34775 0.10013 0.08565 0.0
H599 H 0.35072 0.06196 0.12469 0.0
H600 H 0.43004 0.13746 0.17765 0.0
H601 H 0.42726 0.17549 0.13936 0.0
H602 H 0.44147 0.09104 0.15424 0.0
H603 H 0.36254 0.1012 0.21839 0.0
H604 H 0.3118 0.09934 0.22578 0.0
H605 H 0.26267 0.00142 0.19879 0.0
H606 H 0.31317 0.00282 0.19075 0.0
H607 H 0.42728 0.00098 0.32165 0.0
H608 H 0.41017 0.03155 0.28676 0.0
H609 H 0.41695 0.98684 0.19275 0.0
H610 H 0.43398 0.95624 0.22713 0.0
H611 H 0.3606 0.01652 0.23692 0.0
H612 H 0.4563 0.04682 0.13318 0.0
H613 H 0.50791 0.05019 0.1275 0.0
H614 H 0.5253 0.07098 0.23711 0.0
H615 H 0.47407 0.06828 0.2433 0.0
C616 C 0.36546 0.1086 0.106 0.0
C617 C 0.38735 0.14086 0.10923 0.0
C618 C 0.36712 0.08678 0.12825 0.0
C619 C 0.3907 0.09696 0.1539 0.0
C620 C 0.41178 0.12915 0.1579 0.0
C621 C 0.41006 0.15086 0.13596 0.0
C622 C 0.39509 0.07429 0.17523 0.0
C623 C 0.4237 0.07465 0.17218 0.0
C624 C 0.37197 0.05308 0.19874 0.0
C625 C 0.34163 0.05221 0.20358 0.0
C626 C 0.34092 0.07935 0.2137 0.0
C627 C 0.31221 0.07836 0.21808 0.0
C628 C 0.28403 0.0503 0.21265 0.0
C629 C 0.28452 0.02315 0.20292 0.0
C630 C 0.31318 0.02402 0.19848 0.0
C631 C 0.42477 0.99736 0.2936 0.0
C632 C 0.43247 0.9765 0.27715 0.0
C633 C 0.41478 0.01469 0.27377 0.0
C634 C 0.41259 0.01159 0.23722 0.0
C635 C 0.41872 0.98968 0.22093 0.0
C636 C 0.42853 0.97227 0.24068 0.0
C637 C 0.40692 0.03334 0.21577 0.0
C638 C 0.37817 0.03275 0.21872 0.0
C639 C 0.43001 0.05462 0.19228 0.0
C640 C 0.46118 0.05696 0.18876 0.0
C641 C 0.4712 0.05223 0.15603 0.0
C642 C 0.50039 0.05403 0.15272 0.0
C643 C 0.51982 0.06067 0.18195 0.0
C644 C 0.51018 0.06571 0.21452 0.0
C645 C 0.48106 0.06402 0.21794 0.0
H646 H 0.54238 0.062 0.17935 0.0
H647 H 0.26183 0.04958 0.21606 0.0
H648 H 0.74542 0.09037 0.07302 0.0
H649 H 0.70356 0.05399 0.11258 0.0
H650 H 0.73208 0.12817 0.18866 0.0
H651 H 0.77327 0.16454 0.14936 0.0
H652 H 0.69786 0.03198 0.18116 0.0
H653 H 0.67237 0.13095 0.21698 0.0
H654 H 0.67413 0.17755 0.19017 0.0
H655 H 0.66161 0.13578 0.08837 0.0
H656 H 0.66055 0.08958 0.11448 0.0
H657 H 0.56673 0.02107 0.30888 0.0
H658 H 0.61629 0.05021 0.27709 0.0
H659 H 0.58804 0.97146 0.20742 0.0
H660 H 0.53899 0.94187 0.23965 0.0
H661 H 0.62298 0.0682 0.21166 0.0
H662 H 0.65153 0.9722 0.172 0.0
H663 H 0.64314 0.92149 0.19442 0.0
H664 H 0.64239 0.95138 0.29982 0.0
H665 H 0.65111 0.00238 0.27806 0.0
C666 C 0.74309 0.09869 0.09848 0.0
C667 C 0.76229 0.1304 0.1079 0.0
C668 C 0.71923 0.0779 0.12103 0.0
C669 C 0.7144 0.08858 0.15324 0.0
C670 C 0.73504 0.11962 0.16364 0.0
C671 C 0.75858 0.14037 0.14112 0.0
C672 C 0.68628 0.06855 0.17476 0.0
C673 C 0.68132 0.03969 0.18769 0.0
C674 C 0.66482 0.0787 0.18343 0.0
C675 C 0.66672 0.10706 0.1676 0.0
C676 C 0.67024 0.13194 0.18885 0.0
C677 C 0.67124 0.15834 0.17376 0.0
C678 C 0.6683 0.15986 0.13752 0.0
C679 C 0.66441 0.13498 0.11633 0.0
C680 C 0.66378 0.10875 0.13123 0.0
C681 C 0.5712 0.00987 0.28698 0.0
C682 C 0.54887 0.97925 0.27669 0.0
C683 C 0.59955 0.0265 0.26891 0.0
C684 C 0.60605 0.01288 0.24014 0.0
C685 C 0.58391 0.98219 0.23002 0.0
C686 C 0.55572 0.96542 0.24832 0.0
C687 C 0.63471 0.03181 0.21897 0.0
C688 C 0.63968 0.06052 0.20574 0.0
C689 C 0.65573 0.02112 0.20981 0.0
C690 C 0.65176 0.99104 0.22334 0.0
C691 C 0.64982 0.96804 0.19997 0.0
C692 C 0.64493 0.93922 0.21256 0.0
C693 C 0.64215 0.93319 0.24851 0.0
C694 C 0.64445 0.95605 0.27197 0.0
C695 C 0.64933 0.9849 0.25952 0.0
H696 H 0.63825 0.91081 0.25819 0.0
H697 H 0.66888 0.18024 0.12595 0.0
H698 H 0.03915 0.57335 0.25541 0.0
H699 H 0.01085 0.59113 0.21757 0.0
H700 H 0.93176 0.54959 0.28797 0.0
H701 H 0.9602 0.53232 0.32647 0.0
H702 H 0.92122 0.53039 0.21217 0.0
H703 H 0.96749 0.62195 0.28767 0.0
H704 H 0.01195 0.66694 0.31689 0.0
H705 H 0.05344 0.70539 0.21702 0.0
H706 H 0.00943 0.66035 0.1872 0.0
H707 H 0.81916 0.57085 0.13495 0.0
H708 H 0.85335 0.56696 0.17832 0.0
H709 H 0.93456 0.62886 0.11661 0.0
H710 H 0.90026 0.63337 0.073 0.0
H711 H 0.94676 0.63973 0.1868 0.0
H712 H 0.90714 0.55296 0.11027 0.0
H713 H 0.86784 0.50847 0.0757 0.0
H714 H 0.82035 0.46065 0.1699 0.0
H715 H 0.85928 0.50531 0.20518 0.0
C716 C 0.01588 0.56837 0.26307 0.0
C717 C 0.00178 0.55132 0.29378 0.0
C718 C -0.00015 0.57866 0.24153 0.0
C719 C 0.96932 0.57167 0.25009 0.0
C720 C 0.9554 0.55527 0.2811 0.0
C721 C 0.97167 0.5455 0.30305 0.0
C722 C 0.95099 0.57917 0.22519 0.0
C723 C 0.92638 0.55423 0.20708 0.0
C724 C 0.95899 0.61041 0.2173 0.0
C725 C 0.98531 0.63761 0.23522 0.0
C726 C 0.98623 0.63984 0.27194 0.0
C727 C 0.01133 0.66539 0.28862 0.0
C728 C 0.03555 0.68897 0.26883 0.0
C729 C 0.03468 0.68709 0.23232 0.0
C730 C 0.00965 0.66158 0.21552 0.0
C731 C 0.84432 0.58397 0.13069 0.0
C732 C 0.857 0.60214 0.10031 0.0
C733 C 0.86384 0.5817 0.15555 0.0
C734 C 0.89644 0.59713 0.15037 0.0
C735 C 0.90943 0.61668 0.12104 0.0
C736 C 0.88983 0.6192 0.09615 0.0
C737 C 0.91631 0.59081 0.17448 0.0
C738 C 0.94139 0.61587 0.1921 0.0
C739 C 0.90944 0.55967 0.18126 0.0
C740 C 0.88592 0.53265 0.16035 0.0
C741 C 0.88813 0.53311 0.12364 0.0
C742 C 0.8659 0.50784 0.10389 0.0
C743 C 0.84147 0.48174 0.12053 0.0
C744 C 0.83926 0.4809 0.15703 0.0
C745 C 0.86142 0.50621 0.17693 0.0
H746 H 0.82432 0.46213 0.10516 0.0
H747 H 0.05496 0.70873 0.28179 0.0
H748 H 0.34059 0.246 0.0857 0.0
H749 H 0.33647 0.28034 0.12995 0.0
H750 H 0.42581 0.3007 0.17321 0.0
H751 H 0.43044 0.26761 0.12887 0.0
H752 H 0.37669 0.28883 0.22442 0.0
H753 H 0.42883 0.34855 0.11909 0.0
H754 H 0.43055 0.35864 0.05575 0.0
H755 H 0.34973 0.37001 0.06487 0.0
H756 H 0.34692 0.35889 0.12823 0.0
H757 H 0.46556 0.4366 0.30322 0.0
H758 H 0.44262 0.38797 0.26944 0.0
H759 H 0.36868 0.40427 0.23378 0.0
H760 H 0.39163 0.45315 0.26715 0.0
H761 H 0.39541 0.39175 0.18029 0.0
H762 H 0.3517 0.34417 0.28943 0.0
H763 H 0.35092 0.33402 0.35272 0.0
H764 H 0.41563 0.30045 0.33756 0.0
H765 H 0.41721 0.31086 0.27423 0.0
C766 C 0.35908 0.25766 0.10494 0.0
C767 C 0.386 0.25466 0.10375 0.0
C768 C 0.35668 0.27706 0.13014 0.0
C769 C 0.38082 0.29284 0.15478 0.0
C770 C 0.40689 0.28853 0.15454 0.0
C771 C 0.40964 0.26992 0.12901 0.0
C772 C 0.38107 0.31642 0.1788 0.0
C773 C 0.38055 0.31129 0.21496 0.0
C774 C 0.38546 0.34536 0.16619 0.0
C775 C 0.38735 0.35238 0.12825 0.0
C776 C 0.4112 0.35282 0.10752 0.0
C777 C 0.41242 0.3588 0.07163 0.0
C778 C 0.39028 0.36498 0.05626 0.0
C779 C 0.36683 0.36516 0.07679 0.0
C780 C 0.36535 0.35892 0.11268 0.0
C781 C 0.4442 0.42967 0.28858 0.0
C782 C 0.4306 0.4489 0.28766 0.0
C783 C 0.43099 0.40175 0.26944 0.0
C784 C 0.40379 0.3924 0.24933 0.0
C785 C 0.38964 0.41107 0.24917 0.0
C786 C 0.40284 0.439 0.26825 0.0
C787 C 0.39187 0.3646 0.22621 0.0
C788 C 0.39042 0.36899 0.19009 0.0
C789 C 0.38567 0.335 0.23895 0.0
C790 C 0.38468 0.32845 0.27704 0.0
C791 C 0.36593 0.33482 0.2996 0.0
C792 C 0.36533 0.32899 0.33549 0.0
C793 C 0.38324 0.31663 0.34915 0.0
C794 C 0.40176 0.31002 0.32693 0.0
C795 C 0.40247 0.31583 0.29102 0.0
H796 H 0.38275 0.31215 0.37695 0.0
H797 H 0.39132 0.3697 0.02847 0.0
H798 H 0.72826 0.77446 0.61341 0.0
H799 H 0.70272 0.72627 0.57854 0.0
H800 H 0.61333 0.72154 0.59262 0.0
H801 H 0.63843 0.76886 0.62842 0.0
H802 H 0.60445 0.66476 0.5928 0.0
H803 H 0.66156 0.75699 0.51937 0.0
H804 H 0.70878 0.80496 0.49887 0.0
H805 H 0.75336 0.75114 0.475 0.0
H806 H 0.70649 0.70288 0.49578 0.0
H807 H 0.52785 0.62814 0.42875 0.0
H808 H 0.56614 0.65964 0.47318 0.0
H809 H 0.59951 0.59361 0.4768 0.0
H810 H 0.56039 0.56102 0.43244 0.0
H811 H 0.64319 0.67684 0.47065 0.0
H812 H 0.57734 0.58145 0.53958 0.0
H813 H 0.52546 0.53677 0.55549 0.0
H814 H 0.49348 0.60065 0.58365 0.0
H815 H 0.54503 0.64566 0.56737 0.0
C816 C 0.70308 0.76286 0.60946 0.0
C817 C 0.68541 0.77569 0.62324 0.0
C818 C 0.68854 0.73536 0.5895 0.0
C819 C 0.6562 0.72061 0.58239 0.0
C820 C 0.63831 0.73248 0.59772 0.0
C821 C 0.65273 0.75966 0.61809 0.0
C822 C 0.64119 0.69451 0.55677 0.0
C823 C 0.61323 0.66726 0.56626 0.0
C824 C 0.65265 0.69753 0.52209 0.0
C825 C 0.68075 0.72646 0.50954 0.0
C826 C 0.68154 0.75545 0.50998 0.0
C827 C 0.70821 0.78267 0.49828 0.0
C828 C 0.7341 0.78112 0.48576 0.0
C829 C 0.73333 0.75232 0.4848 0.0
C830 C 0.70672 0.72503 0.49653 0.0
C831 C 0.5433 0.62017 0.43874 0.0
C832 C 0.54078 0.59179 0.42727 0.0
C833 C 0.56519 0.63829 0.46414 0.0
C834 C 0.58523 0.62866 0.47837 0.0
C835 C 0.58391 0.60113 0.46617 0.0
C836 C 0.56163 0.58264 0.44087 0.0
C837 C 0.60663 0.64753 0.50678 0.0
C838 C 0.63542 0.67372 0.49768 0.0
C839 C 0.59571 0.64382 0.54158 0.0
C840 C 0.56492 0.61686 0.55198 0.0
C841 C 0.55915 0.58593 0.54888 0.0
C842 C 0.52983 0.56055 0.55802 0.0
C843 C 0.50617 0.56587 0.57049 0.0
C844 C 0.51182 0.59657 0.57396 0.0
C845 C 0.54109 0.62201 0.56483 0.0
H846 H 0.48348 0.54621 0.5775 0.0
H847 H 0.75473 0.80221 0.47671 0.0
H848 H 0.44519 0.97227 0.45387 0.0
H849 H 0.40817 0.97283 0.49678 0.0
H850 H 0.33077 0.89831 0.44034 0.0
H851 H 0.3675 0.89703 0.39814 0.0
H852 H 0.32201 0.95094 0.46636 0.0
H853 H 0.35487 0.87559 0.50209 0.0
H854 H 0.39557 0.86229 0.51753 0.0
H855 H 0.42846 0.93074 0.60007 0.0
H856 H 0.3882 0.94477 0.58472 0.0
H857 H 0.1901 0.86384 0.57087 0.0
H858 H 0.23521 0.88413 0.53184 0.0
H859 H 0.29745 0.92994 0.61906 0.0
H860 H 0.25224 0.90857 0.65864 0.0
H861 H 0.3207 0.90342 0.58146 0.0
H862 H 0.2823 0.97195 0.55503 0.0
H863 H 0.24337 0.98787 0.54058 0.0
H864 H 0.22377 0.93854 0.44279 0.0
H865 H 0.26221 0.92185 0.45688 0.0
C866 C 0.42023 0.9564 0.45041 0.0
C867 C 0.40911 0.93443 0.42297 0.0
C868 C 0.3992 0.95675 0.47485 0.0
C869 C 0.36685 0.9356 0.47159 0.0
C870 C 0.35566 0.91487 0.44313 0.0
C871 C 0.37664 0.91403 0.41924 0.0
C872 C 0.34466 0.93272 0.49932 0.0
C873 C 0.32159 0.9406 0.49159 0.0
C874 C 0.34497 0.92023 0.53252 0.0
C875 C 0.36884 0.9115 0.54199 0.0
C876 C 0.37097 0.88799 0.52333 0.0
C877 C 0.39391 0.88029 0.53209 0.0
C878 C 0.41466 0.89574 0.55968 0.0
C879 C 0.41242 0.91885 0.57865 0.0
C880 C 0.38955 0.92668 0.56994 0.0
C881 C 0.21336 0.87836 0.58177 0.0
C882 C 0.21762 0.88459 0.61784 0.0
C883 C 0.23917 0.89018 0.55935 0.0
C884 C 0.26976 0.90915 0.57234 0.0
C885 C 0.27408 0.91549 0.60839 0.0
C886 C 0.24825 0.90324 0.63097 0.0
C887 C 0.29714 0.92082 0.54837 0.0
C888 C 0.32128 0.91452 0.55671 0.0
C889 C 0.29807 0.93533 0.51595 0.0
C890 C 0.27506 0.9455 0.50713 0.0
C891 C 0.26956 0.96432 0.53053 0.0
C892 C 0.24758 0.9735 0.5224 0.0
C893 C 0.23108 0.96419 0.49081 0.0
C894 C 0.23658 0.94573 0.46725 0.0
C895 C 0.25849 0.93644 0.47528 0.0
H896 H 0.21407 0.97131 0.48456 0.0
H897 H 0.43241 0.88975 0.56643 0.0
H898 H 0.10715 0.34176 0.64898 0.0
H899 H 0.08081 0.36439 0.61548 0.0
H900 H 0.0661 0.30091 0.53018 0.0
H901 H 0.09317 0.27896 0.56296 0.0
H902 H 0.08838 0.35643 0.50563 0.0
H903 H 0.00476 0.29316 0.58257 0.0
H904 H 0.97923 0.27114 0.63926 0.0
H905 H -0.00145 0.36246 0.67273 0.0
H906 H 0.02476 0.38519 0.61651 0.0
H907 H 0.99468 0.41768 0.42262 0.0
H908 H 0.99364 0.37686 0.46069 0.0
H909 H 0.07335 0.44758 0.51778 0.0
H910 H 0.07439 0.48834 0.48071 0.0
H911 H 0.00694 0.37841 0.55189 0.0
H912 H 0.12192 0.42058 0.48263 0.0
H913 H 0.14621 0.44235 0.42538 0.0
H914 H 0.05752 0.38525 0.37433 0.0
H915 H 0.03289 0.36268 0.43131 0.0
C916 C 0.09817 0.33257 0.62316 0.0
C917 C 0.10259 0.30886 0.60846 0.0
C918 C 0.08286 0.34531 0.60414 0.0
C919 C 0.07117 0.33414 0.5704 0.0
C920 C 0.07495 0.30997 0.5561 0.0
C921 C 0.09054 0.29751 0.57486 0.0
C922 C 0.05723 0.34926 0.5489 0.0
C923 C 0.07006 0.36049 0.51563 0.0
C924 C 0.03315 0.35454 0.56163 0.0
C925 C 0.01693 0.34094 0.59533 0.0
C926 C 0.00374 0.30861 0.60208 0.0
C927 C 0.98913 0.29598 0.63413 0.0
C928 C 0.9873 0.31539 0.65958 0.0
C929 C -1e-05 0.34745 0.65298 0.0
C930 C 0.01471 0.36022 0.621 0.0
C931 C 0.01144 0.4246 0.44388 0.0
C932 C 0.03489 0.45624 0.4483 0.0
C933 C 0.01068 0.40128 0.46568 0.0
C934 C 0.03342 0.40936 0.49194 0.0
C935 C 0.05548 0.441 0.49778 0.0
C936 C 0.05617 0.46423 0.4763 0.0
C937 C 0.03827 0.38526 0.50922 0.0
C938 C 0.02434 0.37304 0.54177 0.0
C939 C 0.06057 0.37806 0.49557 0.0
C940 C 0.07556 0.39029 0.46115 0.0
C941 C 0.10769 0.41259 0.45914 0.0
C942 C 0.12147 0.42512 0.42675 0.0
C943 C 0.10334 0.41544 0.39624 0.0
C944 C 0.07147 0.39289 0.398 0.0
C945 C 0.0576 0.38022 0.43032 0.0
H946 H 0.11398 0.42519 0.37118 0.0
H947 H 0.97601 0.30558 0.68439 0.0
H948 H 0.23297 0.35902 0.63135 0.0
H949 H 0.28183 0.38912 0.59858 0.0
H950 H 0.27046 0.3034 0.55412 0.0
H951 H 0.22138 0.27311 0.58634 0.0
H952 H 0.33779 0.39021 0.59456 0.0
H953 H 0.29227 0.31736 0.46816 0.0
H954 H 0.24207 0.28267 0.43822 0.0
H955 H 0.19972 0.33038 0.48864 0.0
H956 H 0.24975 0.36557 0.5185 0.0
H957 H 0.42433 0.43446 0.41091 0.0
H958 H 0.38765 0.39549 0.45266 0.0
H959 H 0.38604 0.46937 0.51192 0.0
H960 H 0.42285 0.50823 0.47108 0.0
H961 H 0.32892 0.38264 0.46509 0.0
H962 H 0.37187 0.45118 0.59627 0.0
H963 H 0.42206 0.48881 0.62424 0.0
H964 H 0.47031 0.45304 0.56271 0.0
H965 H 0.42037 0.41488 0.53472 0.0
C966 C 0.24096 0.34651 0.61482 0.0
C967 C 0.22299 0.3137 0.61103 0.0
C968 C 0.26899 0.36375 0.59626 0.0
C969 C 0.27953 0.34852 0.57359 0.0
C970 C 0.26248 0.31565 0.57109 0.0
C971 C 0.23442 0.29839 0.58952 0.0
C972 C 0.3071 0.36725 0.55082 0.0
C973 C 0.33591 0.38867 0.56626 0.0
C974 C 0.30477 0.36463 0.5139 0.0
C975 C 0.27462 0.34377 0.4959 0.0
C976 C 0.27224 0.32045 0.47279 0.0
C977 C 0.24383 0.30072 0.45584 0.0
C978 C 0.21768 0.30423 0.46165 0.0
C979 C 0.21994 0.32758 0.4843 0.0
C980 C 0.24831 0.3474 0.50127 0.0
C981 C 0.4166 0.44242 0.43322 0.0
C982 C 0.42648 0.47444 0.43763 0.0
C983 C 0.39561 0.42013 0.45698 0.0
C984 C 0.38439 0.42956 0.48561 0.0
C985 C 0.39487 0.46158 0.49047 0.0
C986 C 0.41578 0.48379 0.46687 0.0
C987 C 0.3596 0.40604 0.50875 0.0
C988 C 0.33116 0.38374 0.49339 0.0
C989 C 0.3623 0.40805 0.54568 0.0
C990 C 0.39233 0.43025 0.56325 0.0
C991 C 0.39313 0.45114 0.5889 0.0
C992 C 0.42156 0.47262 0.60471 0.0
C993 C 0.44936 0.47334 0.59521 0.0
C994 C 0.44877 0.4525 0.56998 0.0
C995 C 0.42041 0.43096 0.55411 0.0
H996 H 0.47135 0.49004 0.60742 0.0
H997 H 0.19571 0.28892 0.44851 0.0
H998 H 0.56522 0.94985 0.38528 0.0
H999 H 0.60201 0.94535 0.42524 0.0
H1000 H 0.54385 0.93854 0.51306 0.0
H1001 H 0.50637 0.94159 0.47306 0.0
H1002 H 0.61544 0.97789 0.52205 0.0
H1003 H 0.52899 0.87732 0.48873 0.0
H1004 H 0.49292 0.83497 0.44922 0.0
H1005 H 0.57071 0.82991 0.40538 0.0
H1006 H 0.60733 0.8733 0.44325 0.0
H1007 H 0.65622 0.89724 0.64947 0.0
H1008 H 0.62942 0.91601 0.61082 0.0
H1009 H 0.67286 0.9001 0.52111 0.0
H1010 H 0.69957 0.88109 0.55941 0.0
H1011 H 0.61026 0.87471 0.51284 0.0
H1012 H 0.69666 0.97394 0.54881 0.0
H1013 H 0.73174 0.01379 0.59139 0.0
H1014 H 0.65351 0.01873 0.63398 0.0
H1015 H 0.61785 0.97853 0.59198 0.0
C1016 C 0.56086 0.94831 0.41321 0.0
C1017 C 0.53321 0.94619 0.42629 0.0
C1018 C 0.58173 0.94562 0.43593 0.0
C1019 C 0.57551 0.94157 0.47201 0.0
C1020 C 0.54907 0.94182 0.48532 0.0
C1021 C 0.52773 0.94352 0.46253 0.0
C1022 C 0.59447 0.93345 0.49524 0.0
C1023 C 0.61426 0.95531 0.52025 0.0
C1024 C 0.59298 0.90405 0.49257 0.0
C1025 C 0.57103 0.87912 0.46831 0.0
C1026 C 0.53851 0.86781 0.46996 0.0
C1027 C 0.5179 0.8435 0.44791 0.0
C1028 C 0.52945 0.82983 0.4246 0.0
C1029 C 0.56168 0.84061 0.42315 0.0
C1030 C 0.58242 0.86522 0.44476 0.0
C1031 C 0.66016 0.8978 0.62152 0.0
C1032 C 0.67989 0.88743 0.60753 0.0
C1033 C 0.64501 0.90878 0.5995 0.0
C1034 C 0.64936 0.90969 0.56313 0.0
C1035 C 0.66924 0.89965 0.54913 0.0
C1036 C 0.68447 0.88877 0.57109 0.0
C1037 C 0.63173 0.91926 0.53943 0.0
C1038 C 0.61188 0.89751 0.51443 0.0
C1039 C 0.63311 0.94865 0.54232 0.0
C1040 C 0.65453 0.973 0.56744 0.0
C1041 C 0.68688 0.98333 0.56744 0.0
C1042 C 0.70688 0.00602 0.59144 0.0
C1043 C 0.69485 0.01873 0.61544 0.0
C1044 C 0.66279 0.00884 0.61541 0.0
C1045 C 0.64268 0.98612 0.59148 0.0
H1046 H 0.71037 0.03629 0.634 0.0
H1047 H 0.51336 0.81081 0.40784 0.0
H1048 H 0.09618 0.61191 0.44165 0.0
H1049 H 0.0951 0.64416 0.48898 0.0
H1050 H 0.99548 0.58206 0.5014 0.0
H1051 H 0.99624 0.54856 0.45385 0.0
H1052 H 0.02822 0.65874 0.49819 0.0
H1053 H 0.02265 0.57087 0.56048 0.0
H1054 H 0.03729 0.5303 0.5706 0.0
H1055 H 0.13335 0.60194 0.58665 0.0
H1056 H 0.11938 0.64295 0.57601 0.0
H1057 H 0.05727 0.76014 0.6416 0.0
H1058 H 0.0336 0.71039 0.60971 0.0
H1059 H 0.12473 0.71808 0.60064 0.0
H1060 H 0.14824 0.76718 0.63388 0.0
H1061 H 0.08214 0.65909 0.60826 0.0
H1062 H 0.09257 0.74453 0.53532 0.0
H1063 H 0.08348 0.78802 0.51959 0.0
H1064 H 0.98387 0.72433 0.51862 0.0
H1065 H 0.99239 0.68051 0.53477 0.0
C1066 C 0.07385 0.60492 0.45413 0.0
C1067 C 0.04628 0.57735 0.4441 0.0
C1068 C 0.07337 0.62349 0.48124 0.0
C1069 C 0.04534 0.61522 0.49877 0.0
C1070 C 0.01736 0.58858 0.48812 0.0
C1071 C 0.01786 0.56957 0.46102 0.0
C1072 C 0.04648 0.6347 0.52871 0.0
C1073 C 0.03897 0.65828 0.52283 0.0
C1074 C 0.06153 0.63453 0.56016 0.0
C1075 C 0.06997 0.60997 0.56726 0.0
C1076 C 0.04694 0.57797 0.56592 0.0
C1077 C 0.05511 0.55489 0.57179 0.0
C1078 C 0.08624 0.56354 0.57922 0.0
C1079 C 0.10925 0.59528 0.5809 0.0
C1080 C 0.1012 0.61845 0.575 0.0
C1081 C 0.07214 0.75091 0.63326 0.0
C1082 C 0.10465 0.76766 0.63977 0.0
C1083 C 0.0586 0.72254 0.61496 0.0
C1084 C 0.07748 0.71086 0.60201 0.0
C1085 C 0.10968 0.72667 0.61027 0.0
C1086 C 0.12314 0.75476 0.6292 0.0
C1087 C 0.06442 0.68371 0.57762 0.0
C1088 C 0.07014 0.65894 0.58435 0.0
C1089 C 0.04821 0.68311 0.54662 0.0
C1090 C 0.04309 0.70936 0.53667 0.0
C1091 C 0.06873 0.73986 0.53197 0.0
C1092 C 0.06368 0.76455 0.52295 0.0
C1093 C 0.03311 0.75896 0.51823 0.0
C1094 C 0.00753 0.72863 0.52238 0.0
C1095 C 0.01245 0.70387 0.53145 0.0
H1096 H 0.02925 0.77811 0.51126 0.0
H1097 H 0.09253 0.54564 0.58373 0.0
H1098 H 0.48971 0.19203 0.95306 0.0
H1099 H 0.53625 0.18618 0.9501 0.0
H1100 H 0.53542 0.17746 0.06249 0.0
H1101 H 0.48901 0.18321 0.06584 0.0
H1102 H 0.59254 0.22435 0.03493 0.0
H1103 H 0.51594 0.11508 0.01414 0.0
H1104 H 0.47112 0.07225 0.98278 0.0
H1105 H 0.52424 0.0989 0.88727 0.0
H1106 H 0.56927 0.14219 0.91799 0.0
H1107 H 0.70956 0.18834 0.06796 0.0
H1108 H 0.65789 0.18366 0.06316 0.0
H1109 H 0.66403 0.1838 0.9506 0.0
H1110 H 0.71559 0.18777 0.95507 0.0
H1111 H 0.60468 0.14215 0.97337 0.0
H1112 H 0.68054 0.25019 0.99117 0.0
H1113 H 0.7257 0.29521 0.01952 0.0
H1114 H 0.67467 0.27392 0.11626 0.0
H1115 H 0.62932 0.2285 0.08863 0.0
C1116 C 0.49918 0.18845 0.97712 0.0
C1117 C 0.48591 0.18848 0.00972 0.0
C1118 C 0.52567 0.18501 0.97533 0.0
C1119 C 0.53918 0.18151 0.0061 0.0
C1120 C 0.52529 0.18028 0.03851 0.0
C1121 C 0.49877 0.18353 0.04032 0.0
C1122 C 0.56919 0.18157 0.00494 0.0
C1123 C 0.59512 0.20617 0.02187 0.0
C1124 C 0.57266 0.15853 0.9866 0.0
C1125 C 0.54587 0.13207 0.9683 0.0
C1126 C 0.518 0.11194 0.9864 0.0
C1127 C 0.49257 0.08756 0.96875 0.0
C1128 C 0.49479 0.08292 0.93302 0.0
C1129 C 0.52254 0.10255 0.91493 0.0
C1130 C 0.54804 0.12698 0.93246 0.0
C1131 C 0.69974 0.18685 0.04217 0.0
C1132 C 0.71667 0.18851 0.01191 0.0
C1133 C 0.67032 0.18436 0.03949 0.0
C1134 C 0.65742 0.18378 0.00658 0.0
C1135 C 0.67365 0.18424 0.97625 0.0
C1136 C 0.70314 0.18669 0.97888 0.0
C1137 C 0.6278 0.18451 0.00421 0.0
C1138 C 0.60208 0.16032 0.98641 0.0
C1139 C 0.62453 0.20824 0.02127 0.0
C1140 C 0.6516 0.23581 0.03789 0.0
C1141 C 0.679 0.255 0.01854 0.0
C1142 C 0.70463 0.2806 0.03447 0.0
C1143 C 0.70307 0.28738 0.06967 0.0
C1144 C 0.67584 0.26863 0.089 0.0
C1145 C 0.65015 0.24298 0.07321 0.0
H1146 H 0.72295 0.3072 0.08195 0.0
H1147 H 0.47505 0.06408 0.91938 0.0
H1148 H 0.8166 0.5005 0.04506 0.0
H1149 H 0.83148 0.46048 0.03719 0.0
H1150 H 0.84065 0.47795 0.92601 0.0
H1151 H 0.82521 0.5179 0.93352 0.0
H1152 H 0.80579 0.41578 0.94172 0.0
H1153 H 0.90538 0.50122 0.97558 0.0
H1154 H 0.94277 0.54615 0.01147 0.0
H1155 H 0.92231 0.48541 0.10027 0.0
H1156 H 0.88421 0.44022 0.06522 0.0
H1157 H 0.84122 0.29228 0.94059 0.0
H1158 H 0.85219 0.3461 0.92994 0.0
H1159 H 0.84226 0.35745 0.04036 0.0
H1160 H 0.83173 0.30431 0.05118 0.0
H1161 H 0.88819 0.41113 0.0122 0.0
H1162 H 0.78015 0.33221 0.98638 0.0
H1163 H 0.73896 0.28575 0.9554 0.0
H1164 H 0.77214 0.33319 0.85695 0.0
H1165 H 0.81384 0.37978 0.88736 0.0
C1166 C 0.82214 0.49617 0.01895 0.0
C1167 C 0.81979 0.51243 0.98991 0.0
C1168 C 0.83082 0.4734 0.01454 0.0
C1169 C 0.83777 0.46674 0.98114 0.0
C1170 C 0.83565 0.483 0.95205 0.0
C1171 C 0.82678 0.50573 0.9564 0.0
C1172 C 0.84493 0.44108 0.97675 0.0
C1173 C 0.82441 0.41513 0.95631 0.0
C1174 C 0.86882 0.44007 0.99644 0.0
C1175 C 0.89183 0.46727 0.01768 0.0
C1176 C 0.90866 0.49744 0.00282 0.0
C1177 C 0.93001 0.52298 0.02303 0.0
C1178 C 0.93497 0.51862 0.0581 0.0
C1179 C 0.91858 0.48871 0.07304 0.0
C1180 C 0.89706 0.46314 0.05302 0.0
C1181 C 0.84205 0.30654 0.96262 0.0
C1182 C 0.83507 0.29395 0.99663 0.0
C1183 C 0.84826 0.3372 0.9565 0.0
C1184 C 0.84764 0.35555 0.98433 0.0
C1185 C 0.84285 0.3437 0.01852 0.0
C1186 C 0.83656 0.31319 0.02461 0.0
C1187 C 0.84844 0.38564 0.97813 0.0
C1188 C 0.87034 0.41233 0.99665 0.0
C1189 C 0.82543 0.38718 0.95733 0.0
C1190 C 0.80034 0.35926 0.93906 0.0
C1191 C 0.7788 0.33262 0.9581 0.0
C1192 C 0.75535 0.30629 0.94067 0.0
C1193 C 0.753 0.30649 0.90423 0.0
C1194 C 0.77405 0.33305 0.88516 0.0
C1195 C 0.7976 0.35941 0.90247 0.0
H1196 H 0.73483 0.2861 0.89077 0.0
H1197 H 0.95145 0.53843 0.07372 0.0
H1198 H 0.71108 0.47413 0.98811 0.0
H1199 H 0.65683 0.43477 0.97515 0.0
H1200 H 0.64028 0.50667 0.93311 0.0
H1201 H 0.69541 0.54654 0.9454 0.0
H1202 H 0.59635 0.46521 0.98766 0.0
H1203 H 0.6356 0.45941 0.87642 0.0
H1204 H 0.67301 0.45763 0.83486 0.0
H1205 H 0.656 0.37025 0.8793 0.0
H1206 H 0.61884 0.37172 0.9215 0.0
H1207 H 0.4635 0.29361 0.93265 0.0
H1208 H 0.50378 0.34713 0.91647 0.0
H1209 H 0.54021 0.36319 0.02182 0.0
H1210 H 0.50022 0.31019 0.0382 0.0
H1211 H 0.56612 0.3693 0.91747 0.0
H1212 H 0.5714 0.4365 0.04493 0.0
H1213 H 0.53463 0.43796 0.08766 0.0
H1214 H 0.46208 0.40375 0.00957 0.0
H1215 H 0.49842 0.40205 0.96632 0.0
C1216 C 0.69604 0.48156 0.97569 0.0
C1217 C 0.70731 0.51332 0.96781 0.0
C1218 C 0.66513 0.45904 0.96816 0.0
C1219 C 0.6447 0.46785 0.95304 0.0
C1220 C 0.65586 0.4995 0.9446 0.0
C1221 C 0.68723 0.52213 0.9515 0.0
C1222 C 0.61127 0.44371 0.94888 0.0
C1223 C 0.5894 0.44445 0.97181 0.0
C1224 C 0.60229 0.41696 0.92772 0.0
C1225 C 0.62441 0.41572 0.90218 0.0
C1226 C 0.63995 0.43989 0.87747 0.0
C1227 C 0.66111 0.43893 0.85377 0.0
C1228 C 0.66688 0.41385 0.85444 0.0
C1229 C 0.65147 0.38965 0.87878 0.0
C1230 C 0.6303 0.3905 0.90255 0.0
C1231 C 0.47983 0.30873 0.95248 0.0
C1232 C 0.47887 0.29754 0.98664 0.0
C1233 C 0.50277 0.33929 0.94318 0.0
C1234 C 0.52475 0.35926 0.96802 0.0
C1235 C 0.52312 0.34843 0.00238 0.0
C1236 C 0.50042 0.31795 0.01161 0.0
C1237 C 0.55165 0.39009 0.95769 0.0
C1238 C 0.57244 0.39047 0.93228 0.0
C1239 C 0.55959 0.41787 0.97655 0.0
C1240 C 0.53768 0.41916 0.00236 0.0
C1241 C 0.54767 0.42949 0.03678 0.0
C1242 C 0.52686 0.43026 0.06114 0.0
C1243 C 0.49604 0.42099 0.05135 0.0
C1244 C 0.48594 0.41086 0.01716 0.0
C1245 C 0.50661 0.40988 0.99274 0.0
H1246 H 0.47997 0.42163 0.07025 0.0
H1247 H 0.68328 0.41315 0.83608 0.0
H1248 H 0.37152 0.52547 0.28048 0.0
H1249 H 0.31673 0.51242 0.27608 0.0
H1250 H 0.3058 0.49681 0.3876 0.0
H1251 H 0.36036 0.50927 0.39222 0.0
H1252 H 0.25484 0.45348 0.3537 0.0
H1253 H 0.3192 0.56594 0.35287 0.0
H1254 H 0.36072 0.61806 0.3329 0.0
H1255 H 0.31733 0.60119 0.2316 0.0
H1256 H 0.27578 0.54874 0.25083 0.0
H1257 H 0.14057 0.49577 0.39858 0.0
H1258 H 0.18501 0.48735 0.39005 0.0
H1259 H 0.17565 0.49081 0.27818 0.0
H1260 H 0.13127 0.49955 0.28633 0.0
H1261 H 0.23385 0.53454 0.30443 0.0
H1262 H 0.16477 0.42378 0.31079 0.0
H1263 H 0.12308 0.37322 0.33419 0.0
H1264 H 0.17462 0.38956 0.43006 0.0
H1265 H 0.2166 0.44027 0.40727 0.0
C1266 C 0.35742 0.51906 0.30405 0.0
C1267 C 0.37041 0.51881 0.33678 0.0
C1268 C 0.32614 0.51166 0.30148 0.0
C1269 C 0.3074 0.5041 0.33158 0.0
C1270 C 0.31992 0.50263 0.36406 0.0
C1271 C 0.35115 0.50992 0.36666 0.0
C1272 C 0.2752 0.49917 0.32961 0.0
C1273 C 0.25022 0.47126 0.34314 0.0
C1274 C 0.26917 0.52212 0.3151 0.0
C1275 C 0.29467 0.55322 0.30312 0.0
C1276 C 0.31875 0.57317 0.32619 0.0
C1277 C 0.34223 0.60282 0.31504 0.0
C1278 C 0.34173 0.61288 0.28096 0.0
C1279 C 0.31775 0.59331 0.25795 0.0
C1280 C 0.29426 0.56361 0.26894 0.0
C1281 C 0.14745 0.49404 0.37212 0.0
C1282 C 0.1326 0.49864 0.34311 0.0
C1283 C 0.17267 0.48893 0.36732 0.0
C1284 C 0.18326 0.48805 0.33352 0.0
C1285 C 0.16756 0.49111 0.30447 0.0
C1286 C 0.14234 0.49626 0.30921 0.0
C1287 C 0.21358 0.48914 0.32898 0.0
C1288 C 0.23834 0.51648 0.31438 0.0
C1289 C 0.21939 0.46596 0.34309 0.0
C1290 C 0.19376 0.43593 0.35737 0.0
C1291 C 0.16712 0.41671 0.33696 0.0
C1292 C 0.14353 0.38792 0.35002 0.0
C1293 C 0.14624 0.37814 0.38355 0.0
C1294 C 0.17259 0.39711 0.40405 0.0
C1295 C 0.19633 0.42584 0.39103 0.0
H1296 H 0.12785 0.35594 0.3937 0.0
H1297 H 0.35988 0.63588 0.27241 0.0
H1298 H 0.53407 0.87933 0.358 0.0
H1299 H 0.55767 0.84636 0.34732 0.0
H1300 H 0.48273 0.7901 0.27499 0.0
H1301 H 0.46086 0.82433 0.28339 0.0
H1302 H 0.53625 0.79138 0.36531 0.0
H1303 H 0.49622 0.7498 0.21906 0.0
H1304 H 0.50039 0.77513 0.16212 0.0
H1305 H 0.57631 0.86194 0.20122 0.0
H1306 H 0.57302 0.83707 0.25823 0.0
H1307 H 0.45486 0.63536 0.35435 0.0
H1308 H 0.47662 0.69157 0.34788 0.0
H1309 H 0.54782 0.69623 0.27805 0.0
H1310 H 0.5254 0.63908 0.28381 0.0
H1311 H 0.52675 0.73381 0.25541 0.0
H1312 H 0.5696 0.7239 0.35889 0.0
H1313 H 0.57334 0.702 0.41553 0.0
H1314 H 0.5091 0.72703 0.46118 0.0
H1315 H 0.50429 0.74839 0.40468 0.0
C1316 C 0.52309 0.86019 0.33938 0.0
C1317 C 0.49554 0.85406 0.32173 0.0
C1318 C 0.53657 0.84143 0.33326 0.0
C1319 C 0.52215 0.81572 0.31027 0.0
C1320 C 0.495 0.81024 0.29206 0.0
C1321 C 0.48216 0.82954 0.29728 0.0
C1322 C 0.5319 0.79159 0.30926 0.0
C1323 C 0.53498 0.77932 0.34122 0.0
C1324 C 0.5321 0.77661 0.27768 0.0
C1325 C 0.53434 0.79148 0.24307 0.0
C1326 C 0.51404 0.77419 0.21548 0.0
C1327 C 0.51618 0.78852 0.18317 0.0
C1328 C 0.53858 0.82012 0.17805 0.0
C1329 C 0.55892 0.83747 0.20522 0.0
C1330 C 0.55689 0.82327 0.23757 0.0
C1331 C 0.4751 0.64822 0.33753 0.0
C1332 C 0.48862 0.6329 0.31984 0.0
C1333 C 0.48765 0.68042 0.334 0.0
C1334 C 0.51439 0.69819 0.31329 0.0
C1335 C 0.52739 0.68293 0.29448 0.0
C1336 C 0.51454 0.65038 0.29773 0.0
C1337 C 0.52784 0.73263 0.31169 0.0
C1338 C 0.5294 0.74679 0.27931 0.0
C1339 C 0.53363 0.75024 0.34283 0.0
C1340 C 0.5366 0.73781 0.37734 0.0
C1341 C 0.55612 0.72461 0.38092 0.0
C1342 C 0.55841 0.71225 0.41304 0.0
C1343 C 0.54149 0.71314 0.44193 0.0
C1344 C 0.52224 0.72641 0.43878 0.0
C1345 C 0.51976 0.7387 0.40669 0.0
H1346 H 0.54328 0.70354 0.46677 0.0
H1347 H 0.54017 0.83115 0.15303 0.0
H1348 H 0.36401 0.85532 0.26867 0.0
H1349 H 0.31192 0.80909 0.25839 0.0
H1350 H 0.32046 0.76762 0.3543 0.0
H1351 H 0.37184 0.81306 0.36475 0.0
H1352 H 0.30346 0.7274 0.29777 0.0
H1353 H 0.27571 0.80078 0.35091 0.0
H1354 H 0.27437 0.85026 0.35247 0.0
H1355 H 0.22656 0.82771 0.25347 0.0
H1356 H 0.22801 0.77826 0.25114 0.0
H1357 H 0.16759 0.61685 0.37703 0.0
H1358 H 0.21395 0.66594 0.36077 0.0
H1359 H 0.16905 0.66852 0.26482 0.0
H1360 H 0.12199 0.61879 0.28088 0.0
H1361 H 0.2028 0.72787 0.30124 0.0
H1362 H 0.2203 0.6476 0.25692 0.0
H1363 H 0.22193 0.59828 0.25728 0.0
H1364 H 0.28993 0.63373 0.34025 0.0
H1365 H 0.28821 0.683 0.34103 0.0
C1366 C 0.35465 0.83638 0.28759 0.0
C1367 C 0.37221 0.83775 0.31736 0.0
C1368 C 0.32495 0.81006 0.28168 0.0
C1369 C 0.31255 0.78492 0.30547 0.0
C1370 C 0.32979 0.78665 0.33543 0.0
C1371 C 0.35918 0.81275 0.34138 0.0
C1372 C 0.2819 0.75617 0.2997 0.0
C1373 C 0.28141 0.72743 0.29838 0.0
C1374 C 0.25327 0.75644 0.2991 0.0
C1375 C 0.25236 0.78608 0.30061 0.0
C1376 C 0.26518 0.80653 0.32933 0.0
C1377 C 0.26434 0.83452 0.33038 0.0
C1378 C 0.2505 0.84218 0.30302 0.0
C1379 C 0.23736 0.82179 0.2746 0.0
C1380 C 0.23817 0.79378 0.2734 0.0
C1381 C 0.16732 0.62778 0.3525 0.0
C1382 C 0.14118 0.61365 0.33004 0.0
C1383 C 0.19393 0.65584 0.34323 0.0
C1384 C 0.19507 0.67045 0.31133 0.0
C1385 C 0.16861 0.65735 0.28942 0.0
C1386 C 0.14182 0.629 0.29864 0.0
C1387 C 0.22448 0.69911 0.30133 0.0
C1388 C 0.22478 0.72777 0.29952 0.0
C1389 C 0.25308 0.69883 0.29923 0.0
C1390 C 0.25401 0.66903 0.29911 0.0
C1391 C 0.23538 0.6448 0.27549 0.0
C1392 C 0.23635 0.61685 0.27547 0.0
C1393 C 0.256 0.6129 0.29879 0.0
C1394 C 0.27471 0.63685 0.32222 0.0
C1395 C 0.27376 0.6648 0.32244 0.0
H1396 H 0.25678 0.59131 0.29869 0.0
H1397 H 0.24986 0.86386 0.30389 0.0
H1398 H 0.03658 0.83338 0.62908 0.0
H1399 H 0.98337 0.82514 0.62665 0.0
H1400 H 0.98042 0.82704 0.7394 0.0
H1401 H 0.03354 0.83483 0.7422 0.0
H1402 H 0.92158 0.78561 0.70979 0.0
H1403 H 0.00179 0.89358 0.70199 0.0
H1404 H 0.05222 0.93633 0.67974 0.0
H1405 H 0.01541 0.91814 0.57507 0.0
H1406 H 0.96462 0.87525 0.59683 0.0
H1407 H 0.81936 0.84736 0.73361 0.0
H1408 H 0.86247 0.83636 0.73363 0.0
H1409 H 0.8655 0.84053 0.62079 0.0
H1410 H 0.82273 0.85236 0.6205 0.0
H1411 H 0.9228 0.87562 0.64918 0.0
H1412 H 0.83572 0.76993 0.66661 0.0
H1413 H 0.78792 0.73016 0.69687 0.0
H1414 H 0.83985 0.74768 0.7926 0.0
H1415 H 0.88783 0.78786 0.76313 0.0
C1416 C 0.02444 0.83146 0.65341 0.0
C1417 C 0.03956 0.8355 0.68581 0.0
C1418 C 0.994 0.82662 0.65196 0.0
C1419 C 0.97826 0.82602 0.68283 0.0
C1420 C 0.99224 0.82749 0.7153 0.0
C1421 C 0.02269 0.83217 0.7168 0.0
C1422 C 0.94949 0.82841 0.68098 0.0
C1423 C 0.92171 0.80523 0.69663 0.0
C1424 C 0.94991 0.8542 0.66407 0.0
C1425 C 0.97958 0.8811 0.65096 0.0
C1426 C 0.00447 0.89875 0.67423 0.0
C1427 C 0.03311 0.92296 0.66172 0.0
C1428 C 0.03714 0.92977 0.62599 0.0
C1429 C 0.0123 0.91277 0.60274 0.0
C1430 C 0.98352 0.88857 0.61516 0.0
C1431 C 0.82899 0.84572 0.70872 0.0
C1432 C 0.8177 0.85092 0.67702 0.0
C1433 C 0.85352 0.8392 0.7088 0.0
C1434 C 0.86693 0.83723 0.6772 0.0
C1435 C 0.85538 0.84184 0.64547 0.0
C1436 C 0.83093 0.84858 0.64535 0.0
C1437 C 0.89435 0.83243 0.6774 0.0
C1438 C 0.92222 0.85552 0.66172 0.0
C1439 C 0.89405 0.80696 0.69521 0.0
C1440 C 0.86535 0.78207 0.71267 0.0
C1441 C 0.83692 0.76539 0.69416 0.0
C1442 C 0.80978 0.74277 0.71119 0.0
C1443 C 0.81082 0.73645 0.74668 0.0
C1444 C 0.83905 0.75261 0.76515 0.0
C1445 C 0.86624 0.77527 0.74828 0.0
H1446 H 0.78977 0.71901 0.75986 0.0
H1447 H 0.05954 0.94819 0.6164 0.0
H1448 H 0.10617 0.94422 0.6809 0.0
H1449 H 0.11623 0.99645 0.66432 0.0
H1450 H 0.19956 0.0133 0.60863 0.0
H1451 H 0.18885 0.96018 0.62414 0.0
H1452 H 0.20628 0.06088 0.66155 0.0
H1453 H 0.15001 0.00849 0.56022 0.0
H1454 H 0.10815 0.96836 0.52319 0.0
H1455 H 0.04139 0.99028 0.56814 0.0
H1456 H 0.08258 0.02983 0.60635 0.0
H1457 H 0.15564 0.18172 0.59216 0.0
H1458 H 0.16722 0.13949 0.58163 0.0
H1459 H 0.16766 0.12502 0.69302 0.0
H1460 H 0.15711 0.16765 0.70375 0.0
H1461 H 0.13125 0.08104 0.59545 0.0
H1462 H 0.21046 0.0932 0.71552 0.0
H1463 H 0.25363 0.13571 0.74916 0.0
H1464 H 0.27845 0.1971 0.6603 0.0
H1465 H 0.23578 0.15488 0.62594 0.0
C1466 C 0.12644 0.95891 0.66481 0.0
C1467 C 0.14679 0.9483 0.65383 0.0
C1468 C 0.13209 0.98864 0.65527 0.0
C1469 C 0.15855 0.00855 0.63522 0.0
C1470 C 0.17894 0.99808 0.62401 0.0
C1471 C 0.1728 0.96787 0.6328 0.0
C1472 C 0.16545 0.04092 0.62831 0.0
C1473 C 0.19021 0.06553 0.64674 0.0
C1474 C 0.14478 0.04684 0.60829 0.0
C1475 C 0.11947 0.02208 0.58641 0.0
C1476 C 0.12632 0.00445 0.56268 0.0
C1477 C 0.1027 0.98184 0.54138 0.0
C1478 C 0.07216 0.97683 0.54325 0.0
C1479 C 0.06511 0.9943 0.56659 0.0
C1480 C 0.08858 0.01674 0.58819 0.0
C1481 C 0.15871 0.16986 0.61442 0.0
C1482 C 0.15518 0.17786 0.64879 0.0
C1483 C 0.16537 0.14577 0.60834 0.0
C1484 C 0.1686 0.12924 0.6365 0.0
C1485 C 0.16602 0.13786 0.67085 0.0
C1486 C 0.15968 0.16211 0.67695 0.0
C1487 C 0.17107 0.10077 0.63028 0.0
C1488 C 0.14791 0.07678 0.60955 0.0
C1489 C 0.19342 0.09555 0.64789 0.0
C1490 C 0.21976 0.12083 0.66816 0.0
C1491 C 0.22529 0.11567 0.70303 0.0
C1492 C 0.24963 0.13975 0.72227 0.0
C1493 C 0.26871 0.1691 0.70689 0.0
C1494 C 0.26359 0.17438 0.67221 0.0
C1495 C 0.2393 0.15039 0.65285 0.0
H1496 H 0.28747 0.18775 0.72183 0.0
H1497 H 0.05393 0.95939 0.52665 0.0
H1498 H 0.80633 0.95326 0.5907 0.0
H1499 H 0.84843 0.00652 0.57587 0.0
H1500 H 0.86431 0.02943 0.68571 0.0
H1501 H 0.82274 0.97654 0.70066 0.0
H1502 H 0.86866 0.07892 0.64384 0.0
H1503 H 0.90605 0.00338 0.64703 0.0
H1504 H 0.90577 0.95548 0.62725 0.0
H1505 H 0.92479 0.99086 0.52198 0.0
H1506 H 0.92473 0.03881 0.54113 0.0
H1507 H 0.02716 0.17028 0.69395 0.0
H1508 H 0.9722 0.1316 0.68199 0.0
H1509 H 0.98977 0.14595 0.57105 0.0
H1510 H 0.04481 0.18547 0.58289 0.0
H1511 H 0.96401 0.08241 0.59557 0.0
H1512 H 0.94411 0.16583 0.59906 0.0
H1513 H 0.94356 0.21326 0.61846 0.0
H1514 H 0.89078 0.16452 0.70977 0.0
H1515 H 0.892 0.11707 0.6917 0.0
C1516 C 0.81849 0.96988 0.6116 0.0
C1517 C 0.81166 0.9607 0.64684 0.0
C1518 C 0.84245 0.00021 0.6031 0.0
C1519 C 0.85949 0.02176 0.62974 0.0
C1520 C 0.85135 0.01316 0.6648 0.0
C1521 C 0.82781 0.98285 0.67329 0.0
C1522 C 0.88804 0.05203 0.62193 0.0
C1523 C 0.8896 0.07992 0.63326 0.0
C1524 C 0.91484 0.05316 0.60684 0.0
C1525 C 0.91494 0.02442 0.59538 0.0
C1526 C 0.90989 0.0008 0.61961 0.0
C1527 C 0.90984 0.97368 0.60854 0.0
C1528 C 0.91514 0.97008 0.57335 0.0
C1529 C 0.92059 0.99364 0.5492 0.0
C1530 C 0.92059 0.02078 0.56014 0.0
C1531 C 0.01921 0.16543 0.66702 0.0
C1532 C 0.04022 0.18051 0.63931 0.0
C1533 C 0.98779 0.14361 0.66024 0.0
C1534 C 0.97697 0.13616 0.62566 0.0
C1535 C 0.99771 0.15168 0.5979 0.0
C1536 C 0.02905 0.1741 0.60469 0.0
C1537 C 0.94519 0.10933 0.61909 0.0
C1538 C 0.94299 0.08191 0.60517 0.0
C1539 C 0.91792 0.10875 0.63197 0.0
C1540 C 0.91838 0.13778 0.64405 0.0
C1541 C 0.93286 0.16529 0.62361 0.0
C1542 C 0.93234 0.19222 0.63434 0.0
C1543 C 0.91709 0.1919 0.66529 0.0
C1544 C 0.90244 0.16468 0.68568 0.0
C1545 C 0.90317 0.13778 0.67527 0.0
H1546 H 0.91672 0.21277 0.67353 0.0
H1547 H 0.91512 0.94908 0.56483 0.0
loop_
_geom_bond_atom_site_label_1
_geom_bond_atom_site_label_2
_geom_bond_distance
_geom_bond_site_symmetry_2
_ccdc_geom_bond_type
Fe0 O2 1.918 1_556 S
Fe0 O5 1.997 . S
Fe0 O6 2.002 . S
Fe0 O11 1.976 . S
Fe0 O14 1.996 . S
Fe1 O2 1.918 . S
Fe1 O9 1.997 1_554 S
Fe1 O12 1.996 1_554 S
Fe1 O16 1.976 . S
Fe1 O19 2.002 . S
O2 Fe0 1.918 1_554 S
O2 Fe1 1.918 . S
O2 Fe3 1.918 . S
Fe3 O2 1.918 . S
Fe3 O4 2.002 . S
Fe3 O13 1.976 . S
Fe3 O17 1.996 . S
Fe3 O20 1.997 . S
O4 Fe3 2.002 . S
O4 C21 1.295 1_554 S
O5 Fe0 1.997 . S
O5 C21 1.235 . S
O6 Fe0 2.002 . S
O6 C7 1.295 . S
C7 O6 1.295 . S
C7 O9 1.235 . S
C8 O13 1.287 1_556 S
C8 O14 1.255 . S
O9 Fe1 1.997 1_556 S
O9 C7 1.235 . S
C10 O16 1.287 . S
C10 O17 1.255 . S
O11 Fe0 1.976 . S
O11 C18 1.287 . S
O12 Fe1 1.996 1_556 S
O12 C18 1.255 . S
O13 Fe3 1.976 . S
O13 C8 1.287 1_554 S
O14 Fe0 1.996 . S
O14 C8 1.255 . S
C15 O19 1.295 . S
C15 O20 1.235 . S
O16 Fe1 1.976 . S
O16 C10 1.287 . S
O17 Fe3 1.996 . S
O17 C10 1.255 . S
C18 O11 1.287 . S
C18 O12 1.255 . S
O19 Fe1 2.002 . S
O19 C15 1.295 . S
O20 Fe3 1.997 . S
O20 C15 1.235 . S
C21 O4 1.295 1_556 S
C21 O5 1.235 . S
Fe22 O24 1.918 . S
Fe22 O27 1.997 1_554 S
Fe22 O28 2.002 . S
Fe22 O33 1.976 . S
Fe22 O36 1.996 1_554 S
Fe23 O24 1.918 . S
Fe23 O31 1.997 . S
Fe23 O34 1.996 . S
Fe23 O38 1.976 . S
Fe23 O41 2.002 . S
O24 Fe22 1.918 . S
O24 Fe23 1.918 . S
O24 Fe25 1.918 1_554 S
Fe25 O24 1.918 1_556 S
Fe25 O26 2.002 . S
Fe25 O35 1.976 . S
Fe25 O39 1.996 . S
Fe25 O42 1.997 . S
O26 Fe25 2.002 . S
O26 C43 1.295 . S
O27 Fe22 1.997 1_556 S
O27 C43 1.235 . S
O28 Fe22 2.002 . S
O28 C29 1.295 . S
C29 O28 1.295 . S
C29 O31 1.235 . S
C30 O35 1.287 . S
C30 O36 1.255 . S
O31 Fe23 1.997 . S
O31 C29 1.235 . S
C32 O38 1.287 1_556 S
C32 O39 1.255 . S
O33 Fe22 1.976 . S
O33 C40 1.287 . S
O34 Fe23 1.996 . S
O34 C40 1.255 . S
O35 Fe25 1.976 . S
O35 C30 1.287 . S
O36 Fe22 1.996 1_556 S
O36 C30 1.255 . S
C37 O41 1.295 1_556 S
C37 O42 1.235 . S
O38 Fe23 1.976 . S
O38 C32 1.287 1_554 S
O39 Fe25 1.996 . S
O39 C32 1.255 . S
C40 O33 1.287 . S
C40 O34 1.255 . S
O41 Fe23 2.002 . S
O41 C37 1.295 1_554 S
O42 Fe25 1.997 . S
O42 C37 1.235 . S
C43 O26 1.295 . S
C43 O27 1.235 . S
Fe44 O46 1.918 1_556 S
Fe44 O49 1.997 . S
Fe44 O50 2.002 . S
Fe44 O55 1.976 . S
Fe44 O58 1.996 . S
Fe45 O46 1.918 . S
Fe45 O53 1.997 1_554 S
Fe45 O56 1.996 1_554 S
Fe45 O60 1.976 . S
Fe45 O63 2.002 . S
O46 Fe44 1.918 1_554 S
O46 Fe45 1.918 . S
O46 Fe47 1.918 . S
Fe47 O46 1.918 . S
Fe47 O48 2.002 . S
Fe47 O57 1.976 . S
Fe47 O61 1.996 . S
Fe47 O64 1.997 . S
O48 Fe47 2.002 . S
O48 C65 1.295 1_554 S
O49 Fe44 1.997 . S
O49 C65 1.235 . S
O50 Fe44 2.002 . S
O50 C51 1.295 . S
C51 O50 1.295 . S
C51 O53 1.235 . S
C52 O57 1.287 1_556 S
C52 O58 1.255 . S
O53 Fe45 1.997 1_556 S
O53 C51 1.235 . S
C54 O60 1.287 . S
C54 O61 1.255 . S
O55 Fe44 1.976 . S
O55 C62 1.287 . S
O56 Fe45 1.996 1_556 S
O56 C62 1.255 . S
O57 Fe47 1.976 . S
O57 C52 1.287 1_554 S
O58 Fe44 1.996 . S
O58 C52 1.255 . S
C59 O63 1.295 . S
C59 O64 1.235 . S
O60 Fe45 1.976 . S
O60 C54 1.287 . S
O61 Fe47 1.996 . S
O61 C54 1.255 . S
C62 O55 1.287 . S
C62 O56 1.255 . S
O63 Fe45 2.002 . S
O63 C59 1.295 . S
O64 Fe47 1.997 . S
O64 C59 1.235 . S
C65 O48 1.295 1_556 S
C65 O49 1.235 . S
Fe66 O68 1.918 . S
Fe66 O71 1.997 . S
Fe66 O72 2.002 . S
Fe66 O77 1.976 . S
Fe66 O80 1.996 . S
Fe67 O68 1.918 . S
Fe67 O75 1.997 . S
Fe67 O78 1.996 . S
Fe67 O82 1.976 . S
Fe67 O85 2.002 . S
O68 Fe66 1.918 . S
O68 Fe67 1.918 . S
O68 Fe69 1.918 . S
Fe69 O68 1.918 . S
Fe69 O70 2.002 . S
Fe69 O79 1.976 . S
Fe69 O83 1.996 . S
Fe69 O86 1.997 . S
O70 Fe69 2.002 . S
O70 C87 1.295 . S
O71 Fe66 1.997 . S
O71 C87 1.235 . S
O72 Fe66 2.002 . S
O72 C73 1.295 . S
C73 O72 1.295 . S
C73 O75 1.235 . S
C74 O79 1.287 . S
C74 O80 1.255 . S
O75 Fe67 1.997 . S
O75 C73 1.235 . S
C76 O82 1.287 . S
C76 O83 1.255 . S
O77 Fe66 1.976 . S
O77 C84 1.287 . S
O78 Fe67 1.996 . S
O78 C84 1.255 . S
O79 Fe69 1.976 . S
O79 C74 1.287 . S
O80 Fe66 1.996 . S
O80 C74 1.255 . S
C81 O85 1.295 . S
C81 O86 1.235 . S
O82 Fe67 1.976 . S
O82 C76 1.287 . S
O83 Fe69 1.996 . S
O83 C76 1.255 . S
C84 O77 1.287 . S
C84 O78 1.255 . S
O85 Fe67 2.002 . S
O85 C81 1.295 . S
O86 Fe69 1.997 . S
O86 C81 1.235 . S
C87 O70 1.295 . S
C87 O71 1.235 . S
Fe88 O90 1.918 . S
Fe88 O93 1.997 . S
Fe88 O94 2.002 . S
Fe88 O99 1.976 . S
Fe88 O102 1.996 . S
Fe89 O90 1.918 . S
Fe89 O97 1.997 . S
Fe89 O100 1.996 . S
Fe89 O104 1.976 . S
Fe89 O107 2.002 . S
O90 Fe88 1.918 . S
O90 Fe89 1.918 . S
O90 Fe91 1.918 . S
Fe91 O90 1.918 . S
Fe91 O92 2.002 . S
Fe91 O101 1.976 . S
Fe91 O105 1.996 . S
Fe91 O108 1.997 . S
O92 Fe91 2.002 . S
O92 C109 1.295 . S
O93 Fe88 1.997 . S
O93 C109 1.235 . S
O94 Fe88 2.002 . S
O94 C95 1.295 . S
C95 O94 1.295 . S
C95 O97 1.235 . S
C96 O101 1.287 . S
C96 O102 1.255 . S
O97 Fe89 1.997 . S
O97 C95 1.235 . S
C98 O104 1.287 . S
C98 O105 1.255 . S
O99 Fe88 1.976 . S
O99 C106 1.287 . S
O100 Fe89 1.996 . S
O100 C106 1.255 . S
O101 Fe91 1.976 . S
O101 C96 1.287 . S
O102 Fe88 1.996 . S
O102 C96 1.255 . S
C103 O107 1.295 . S
C103 O108 1.235 . S
O104 Fe89 1.976 . S
O104 C98 1.287 . S
O105 Fe91 1.996 . S
O105 C98 1.255 . S
C106 O99 1.287 . S
C106 O100 1.255 . S
O107 Fe89 2.002 . S
O107 C103 1.295 . S
O108 Fe91 1.997 . S
O108 C103 1.235 . S
C109 O92 1.295 . S
C109 O93 1.235 . S
Fe110 O112 1.918 . S
Fe110 O115 1.997 . S
Fe110 O116 2.002 . S
Fe110 O121 1.976 . S
Fe110 O124 1.996 . S
Fe111 O112 1.918 . S
Fe111 O119 1.997 . S
Fe111 O122 1.996 . S
Fe111 O126 1.976 . S
Fe111 O129 2.002 . S
O112 Fe110 1.918 . S
O112 Fe111 1.918 . S
O112 Fe113 1.918 . S
Fe113 O112 1.918 . S
Fe113 O114 2.002 . S
Fe113 O123 1.976 . S
Fe113 O127 1.996 . S
Fe113 O130 1.997 . S
O114 Fe113 2.002 . S
O114 C131 1.295 . S
O115 Fe110 1.997 . S
O115 C131 1.235 . S
O116 Fe110 2.002 . S
O116 C117 1.295 . S
C117 O116 1.295 . S
C117 O119 1.235 . S
C118 O123 1.287 . S
C118 O124 1.255 . S
O119 Fe111 1.997 . S
O119 C117 1.235 . S
C120 O126 1.287 . S
C120 O127 1.255 . S
O121 Fe110 1.976 . S
O121 C128 1.287 . S
O122 Fe111 1.996 . S
O122 C128 1.255 . S
O123 Fe113 1.976 . S
O123 C118 1.287 . S
O124 Fe110 1.996 . S
O124 C118 1.255 . S
C125 O129 1.295 . S
C125 O130 1.235 . S
O126 Fe111 1.976 . S
O126 C120 1.287 . S
O127 Fe113 1.996 . S
O127 C120 1.255 . S
C128 O121 1.287 . S
C128 O122 1.255 . S
O129 Fe111 2.002 . S
O129 C125 1.295 . S
O130 Fe113 1.997 . S
O130 C125 1.235 . S
C131 O114 1.295 . S
C131 O115 1.235 . S
Fe132 O134 1.918 . S
Fe132 O137 1.997 . S
Fe132 O138 2.002 . S
Fe132 O143 1.976 . S
Fe132 O146 1.996 . S
Fe133 O134 1.918 . S
Fe133 O141 1.997 . S
Fe133 O144 1.996 . S
Fe133 O148 1.976 . S
Fe133 O151 2.002 . S
O134 Fe132 1.918 . S
O134 Fe133 1.918 . S
O134 Fe135 1.918 . S
Fe135 O134 1.918 . S
Fe135 O136 2.002 . S
Fe135 O145 1.976 . S
Fe135 O149 1.996 . S
Fe135 O152 1.997 . S
O136 Fe135 2.002 . S
O136 C153 1.295 . S
O137 Fe132 1.997 . S
O137 C153 1.235 . S
O138 Fe132 2.002 . S
O138 C139 1.295 . S
C139 O138 1.295 . S
C139 O141 1.235 . S
C140 O145 1.287 . S
C140 O146 1.255 . S
O141 Fe133 1.997 . S
O141 C139 1.235 . S
C142 O148 1.287 . S
C142 O149 1.255 . S
O143 Fe132 1.976 . S
O143 C150 1.287 . S
O144 Fe133 1.996 . S
O144 C150 1.255 . S
O145 Fe135 1.976 . S
O145 C140 1.287 . S
O146 Fe132 1.996 . S
O146 C140 1.255 . S
C147 O151 1.295 . S
C147 O152 1.235 . S
O148 Fe133 1.976 . S
O148 C142 1.287 . S
O149 Fe135 1.996 . S
O149 C142 1.255 . S
C150 O143 1.287 . S
C150 O144 1.255 . S
O151 Fe133 2.002 . S
O151 C147 1.295 . S
O152 Fe135 1.997 . S
O152 C147 1.235 . S
C153 O136 1.295 . S
C153 O137 1.235 . S
Fe154 O156 1.918 . S
Fe154 O159 1.997 . S
Fe154 O160 2.002 . S
Fe154 O165 1.976 . S
Fe154 O168 1.996 . S
Fe155 O156 1.918 . S
Fe155 O163 1.997 . S
Fe155 O166 1.996 . S
Fe155 O170 1.976 . S
Fe155 O173 2.002 . S
O156 Fe154 1.918 . S
O156 Fe155 1.918 . S
O156 Fe157 1.918 . S
Fe157 O156 1.918 . S
Fe157 O158 2.002 . S
Fe157 O167 1.976 . S
Fe157 O171 1.996 . S
Fe157 O174 1.997 . S
O158 Fe157 2.002 . S
O158 C175 1.295 . S
O159 Fe154 1.997 . S
O159 C175 1.235 . S
O160 Fe154 2.002 . S
O160 C161 1.295 . S
C161 O160 1.295 . S
C161 O163 1.235 . S
C162 O167 1.287 . S
C162 O168 1.255 . S
O163 Fe155 1.997 . S
O163 C161 1.235 . S
C164 O170 1.287 . S
C164 O171 1.255 . S
O165 Fe154 1.976 . S
O165 C172 1.287 . S
O166 Fe155 1.996 . S
O166 C172 1.255 . S
O167 Fe157 1.976 . S
O167 C162 1.287 . S
O168 Fe154 1.996 . S
O168 C162 1.255 . S
C169 O173 1.295 . S
C169 O174 1.235 . S
O170 Fe155 1.976 . S
O170 C164 1.287 . S
O171 Fe157 1.996 . S
O171 C164 1.255 . S
C172 O165 1.287 . S
C172 O166 1.255 . S
O173 Fe155 2.002 . S
O173 C169 1.295 . S
O174 Fe157 1.997 . S
O174 C169 1.235 . S
C175 O158 1.295 . S
C175 O159 1.235 . S
Fe176 O178 1.918 . S
Fe176 O181 1.997 . S
Fe176 O182 2.002 . S
Fe176 O187 1.976 . S
Fe176 O190 1.996 . S
Fe177 O178 1.918 . S
Fe177 O185 1.997 . S
Fe177 O188 1.996 . S
Fe177 O192 1.976 . S
Fe177 O195 2.002 . S
O178 Fe176 1.918 . S
O178 Fe177 1.918 . S
O178 Fe179 1.918 . S
Fe179 O178 1.918 . S
Fe179 O180 2.002 . S
Fe179 O189 1.976 . S
Fe179 O193 1.996 . S
Fe179 O196 1.997 . S
O180 Fe179 2.002 . S
O180 C197 1.295 . S
O181 Fe176 1.997 . S
O181 C197 1.235 . S
O182 Fe176 2.002 . S
O182 C183 1.295 . S
C183 O182 1.295 . S
C183 O185 1.235 . S
C184 O189 1.287 . S
C184 O190 1.255 . S
O185 Fe177 1.997 . S
O185 C183 1.235 . S
C186 O192 1.287 . S
C186 O193 1.255 . S
O187 Fe176 1.976 . S
O187 C194 1.287 . S
O188 Fe177 1.996 . S
O188 C194 1.255 . S
O189 Fe179 1.976 . S
O189 C184 1.287 . S
O190 Fe176 1.996 . S
O190 C184 1.255 . S
C191 O195 1.295 . S
C191 O196 1.235 . S
O192 Fe177 1.976 . S
O192 C186 1.287 . S
O193 Fe179 1.996 . S
O193 C186 1.255 . S
C194 O187 1.287 . S
C194 O188 1.255 . S
O195 Fe177 2.002 . S
O195 C191 1.295 . S
O196 Fe179 1.997 . S
O196 C191 1.235 . S
C197 O180 1.295 . S
C197 O181 1.235 . S
H198 C216 0.951 . S
H199 C218 0.951 . S
H200 C220 0.950 . S
H201 C221 0.950 . S
H202 C223 0.950 . S
H203 C226 0.950 . S
H204 C227 0.950 . S
H205 C229 0.950 1_565 S
H206 C230 0.950 . S
H207 C231 0.951 . S
H208 C233 0.951 . S
H209 C235 0.950 . S
H210 C236 0.950 . S
H211 C238 0.950 . S
H212 C241 0.950 . S
H213 C242 0.950 . S
H214 C244 0.950 . S
H215 C245 0.950 . S
C216 H198 0.951 . S
C216 C217 1.366 . S
C216 C218 1.388 . S
C217 C216 1.366 . S
C217 C221 1.385 . S
C218 H199 0.951 . S
C218 C216 1.388 . S
C218 C219 1.366 . S
C219 C218 1.366 . S
C219 C220 1.414 . S
C219 C222 1.499 . S
C220 H200 0.950 . S
C220 C219 1.414 . S
C220 C221 1.374 . S
C221 H201 0.950 . S
C221 C217 1.385 . S
C221 C220 1.374 . S
C222 C219 1.499 . S
C222 C223 1.373 . S
C222 C224 1.389 . S
C223 H202 0.950 . S
C223 C222 1.373 . S
C223 C239 1.377 . S
C224 C222 1.389 . S
C224 C225 1.524 . S
C224 C238 1.377 1_545 S
C225 C224 1.524 . S
C225 C226 1.397 . S
C225 C230 1.363 1_545 S
C226 H203 0.950 . S
C226 C225 1.397 . S
C226 C227 1.334 . S
C227 H204 0.950 . S
C227 C226 1.334 . S
C227 C228 1.287 . S
C228 C227 1.287 . S
C228 C229 1.524 . S
C228 H247 0.913 . S
C229 H205 0.950 1_545 S
C229 C228 1.524 . S
C229 C230 1.415 1_545 S
C230 H206 0.950 . S
C230 C225 1.363 1_565 S
C230 C229 1.415 1_565 S
C231 H207 0.951 . S
C231 C232 1.366 . S
C231 C233 1.388 . S
C232 C231 1.366 . S
C232 C236 1.385 . S
C233 H208 0.951 . S
C233 C231 1.388 . S
C233 C234 1.366 . S
C234 C233 1.366 . S
C234 C235 1.414 . S
C234 C237 1.499 . S
C235 H209 0.950 . S
C235 C234 1.414 . S
C235 C236 1.374 . S
C236 H210 0.950 . S
C236 C232 1.385 . S
C236 C235 1.374 . S
C237 C234 1.499 . S
C237 C238 1.373 . S
C237 C239 1.389 1_565 S
C238 H211 0.950 . S
C238 C224 1.377 1_565 S
C238 C237 1.373 . S
C239 C223 1.377 . S
C239 C237 1.389 1_545 S
C239 C240 1.524 . S
C240 C239 1.524 . S
C240 C241 1.397 1_545 S
C240 C245 1.363 . S
C241 H212 0.950 . S
C241 C240 1.397 1_565 S
C241 C242 1.334 . S
C242 H213 0.950 . S
C242 C241 1.334 . S
C242 C243 1.287 . S
C243 C242 1.287 . S
C243 C244 1.524 1_565 S
C243 H246 0.999 . S
C244 H214 0.950 . S
C244 C243 1.524 1_545 S
C244 C245 1.415 . S
C245 H215 0.950 . S
C245 C240 1.363 . S
C245 C244 1.415 . S
H246 C243 0.999 . S
H247 C228 0.913 . S
H248 C266 0.951 . S
H249 C268 0.951 . S
H250 C270 0.950 . S
H251 C271 0.950 . S
H252 C273 0.950 . S
H253 C276 0.950 . S
H254 C277 0.950 . S
H255 C279 0.950 . S
H256 C280 0.950 . S
H257 C281 0.951 . S
H258 C283 0.951 . S
H259 C285 0.950 . S
H260 C286 0.950 . S
H261 C288 0.950 . S
H262 C291 0.950 . S
H263 C292 0.950 . S
H264 C294 0.950 . S
H265 C295 0.950 . S
C266 H248 0.951 . S
C266 C267 1.366 . S
C266 C268 1.388 . S
C267 C266 1.366 . S
C267 C271 1.385 . S
C268 H249 0.951 . S
C268 C266 1.388 . S
C268 C269 1.366 . S
C269 C268 1.366 . S
C269 C270 1.414 . S
C269 C272 1.499 . S
C270 H250 0.950 . S
C270 C269 1.414 . S
C270 C271 1.374 . S
C271 H251 0.950 . S
C271 C267 1.385 . S
C271 C270 1.374 . S
C272 C269 1.499 . S
C272 C273 1.373 . S
C272 C274 1.389 . S
C273 H252 0.950 . S
C273 C272 1.373 . S
C273 C289 1.377 . S
C274 C272 1.389 . S
C274 C275 1.524 1_655 S
C274 C288 1.377 1_655 S
C275 C274 1.524 1_455 S
C275 C276 1.397 1_455 S
C275 C280 1.363 . S
C276 H253 0.950 . S
C276 C275 1.397 1_655 S
C276 C277 1.334 . S
C277 H254 0.950 . S
C277 C276 1.334 . S
C277 C278 1.287 1_655 S
C278 C277 1.287 1_455 S
C278 C279 1.524 . S
C278 H297 0.913 1_556 S
C279 H255 0.950 . S
C279 C278 1.524 . S
C279 C280 1.415 . S
C280 H256 0.950 . S
C280 C275 1.363 . S
C280 C279 1.415 . S
C281 H257 0.951 . S
C281 C282 1.366 . S
C281 C283 1.388 . S
C282 C281 1.366 . S
C282 C286 1.385 . S
C283 H258 0.951 . S
C283 C281 1.388 . S
C283 C284 1.366 . S
C284 C283 1.366 . S
C284 C285 1.414 . S
C284 C287 1.499 . S
C285 H259 0.950 . S
C285 C284 1.414 . S
C285 C286 1.374 . S
C286 H260 0.950 . S
C286 C282 1.385 . S
C286 C285 1.374 . S
C287 C284 1.499 . S
C287 C288 1.373 . S
C287 C289 1.389 1_455 S
C288 H261 0.950 . S
C288 C274 1.377 1_455 S
C288 C287 1.373 . S
C289 C273 1.377 . S
C289 C287 1.389 1_655 S
C289 C290 1.524 . S
C290 C289 1.524 . S
C290 C291 1.397 . S
C290 C295 1.363 . S
C291 H262 0.950 . S
C291 C290 1.397 . S
C291 C292 1.334 . S
C292 H263 0.950 . S
C292 C291 1.334 . S
C292 C293 1.287 . S
C293 C292 1.287 . S
C293 C294 1.524 . S
C293 H296 0.999 . S
C294 H264 0.950 . S
C294 C293 1.524 . S
C294 C295 1.415 . S
C295 H265 0.950 . S
C295 C290 1.363 . S
C295 C294 1.415 . S
H296 C293 0.999 . S
H297 C278 0.913 1_554 S
H298 C316 0.951 . S
H299 C318 0.951 . S
H300 C320 0.950 . S
H301 C321 0.950 . S
H302 C323 0.950 . S
H303 C326 0.950 . S
H304 C327 0.950 . S
H305 C329 0.950 . S
H306 C330 0.950 . S
H307 C331 0.951 . S
H308 C333 0.951 . S
H309 C335 0.950 . S
H310 C336 0.950 . S
H311 C338 0.950 . S
H312 C341 0.950 . S
H313 C342 0.950 . S
H314 C344 0.950 . S
H315 C345 0.950 . S
C316 H298 0.951 . S
C316 C317 1.366 . S
C316 C318 1.388 . S
C317 C316 1.366 . S
C317 C321 1.385 . S
C318 H299 0.951 . S
C318 C316 1.388 . S
C318 C319 1.366 . S
C319 C318 1.366 . S
C319 C320 1.414 . S
C319 C322 1.499 . S
C320 H300 0.950 . S
C320 C319 1.414 . S
C320 C321 1.374 . S
C321 H301 0.950 . S
C321 C317 1.385 . S
C321 C320 1.374 . S
C322 C319 1.499 . S
C322 C323 1.373 . S
C322 C324 1.389 . S
C323 H302 0.950 . S
C323 C322 1.373 . S
C323 C339 1.377 . S
C324 C322 1.389 . S
C324 C325 1.524 . S
C324 C338 1.377 . S
C325 C324 1.524 . S
C325 C326 1.397 . S
C325 C330 1.363 . S
C326 H303 0.950 . S
C326 C325 1.397 . S
C326 C327 1.334 . S
C327 H304 0.950 . S
C327 C326 1.334 . S
C327 C328 1.287 . S
C328 C327 1.287 . S
C328 C329 1.524 . S
C328 H347 0.913 . S
C329 H305 0.950 . S
C329 C328 1.524 . S
C329 C330 1.415 . S
C330 H306 0.950 . S
C330 C325 1.363 . S
C330 C329 1.415 . S
C331 H307 0.951 . S
C331 C332 1.366 . S
C331 C333 1.388 . S
C332 C331 1.366 . S
C332 C336 1.385 . S
C333 H308 0.951 . S
C333 C331 1.388 . S
C333 C334 1.366 . S
C334 C333 1.366 . S
C334 C335 1.414 . S
C334 C337 1.499 . S
C335 H309 0.950 . S
C335 C334 1.414 . S
C335 C336 1.374 . S
C336 H310 0.950 . S
C336 C332 1.385 . S
C336 C335 1.374 . S
C337 C334 1.499 . S
C337 C338 1.373 . S
C337 C339 1.389 . S
C338 H311 0.950 . S
C338 C324 1.377 . S
C338 C337 1.373 . S
C339 C323 1.377 . S
C339 C337 1.389 . S
C339 C340 1.524 . S
C340 C339 1.524 . S
C340 C341 1.397 . S
C340 C345 1.363 . S
C341 H312 0.950 . S
C341 C340 1.397 . S
C341 C342 1.334 . S
C342 H313 0.950 . S
C342 C341 1.334 . S
C342 C343 1.287 . S
C343 C342 1.287 . S
C343 C344 1.524 . S
C343 H346 0.999 1_556 S
C344 H314 0.950 . S
C344 C343 1.524 . S
C344 C345 1.415 . S
C345 H315 0.950 . S
C345 C340 1.363 . S
C345 C344 1.415 . S
H346 C343 0.999 1_554 S
H347 C328 0.913 . S
H348 C366 0.951 . S
H349 C368 0.951 . S
H350 C370 0.950 . S
H351 C371 0.950 . S
H352 C373 0.950 . S
H353 C376 0.950 . S
H354 C377 0.950 . S
H355 C379 0.950 . S
H356 C380 0.950 . S
H357 C381 0.951 . S
H358 C383 0.951 . S
H359 C385 0.950 . S
H360 C386 0.950 . S
H361 C388 0.950 . S
H362 C391 0.950 . S
H363 C392 0.950 . S
H364 C394 0.950 . S
H365 C395 0.950 . S
C366 H348 0.951 . S
C366 C367 1.366 . S
C366 C368 1.388 . S
C367 C366 1.366 . S
C367 C371 1.385 . S
C368 H349 0.951 . S
C368 C366 1.388 . S
C368 C369 1.366 . S
C369 C368 1.366 . S
C369 C370 1.414 . S
C369 C372 1.499 . S
C370 H350 0.950 . S
C370 C369 1.414 . S
C370 C371 1.374 . S
C371 H351 0.950 . S
C371 C367 1.385 . S
C371 C370 1.374 . S
C372 C369 1.499 . S
C372 C373 1.373 1_455 S
C372 C374 1.389 . S
C373 H352 0.950 . S
C373 C372 1.373 1_655 S
C373 C389 1.377 . S
C374 C372 1.389 . S
C374 C375 1.524 . S
C374 C388 1.377 1_455 S
C375 C374 1.524 . S
C375 C376 1.397 . S
C375 C380 1.363 . S
C376 H353 0.950 . S
C376 C375 1.397 . S
C376 C377 1.334 . S
C377 H354 0.950 . S
C377 C376 1.334 . S
C377 C378 1.287 . S
C378 C377 1.287 . S
C378 C379 1.524 . S
C378 H397 0.913 . S
C379 H355 0.950 . S
C379 C378 1.524 . S
C379 C380 1.415 . S
C380 H356 0.950 . S
C380 C375 1.363 . S
C380 C379 1.415 . S
C381 H357 0.951 . S
C381 C382 1.366 . S
C381 C383 1.388 . S
C382 C381 1.366 . S
C382 C386 1.385 . S
C383 H358 0.951 . S
C383 C381 1.388 . S
C383 C384 1.366 . S
C384 C383 1.366 . S
C384 C385 1.414 . S
C384 C387 1.499 . S
C385 H359 0.950 . S
C385 C384 1.414 . S
C385 C386 1.374 . S
C386 H360 0.950 . S
C386 C382 1.385 . S
C386 C385 1.374 . S
C387 C384 1.499 . S
C387 C388 1.373 . S
C387 C389 1.389 . S
C388 H361 0.950 . S
C388 C374 1.377 1_655 S
C388 C387 1.373 . S
C389 C373 1.377 . S
C389 C387 1.389 . S
C389 C390 1.524 . S
C390 C389 1.524 . S
C390 C391 1.397 . S
C390 C395 1.363 . S
C391 H362 0.950 . S
C391 C390 1.397 . S
C391 C392 1.334 . S
C392 H363 0.950 . S
C392 C391 1.334 . S
C392 C393 1.287 . S
C393 C392 1.287 . S
C393 C394 1.524 . S
C393 H396 0.999 . S
C394 H364 0.950 . S
C394 C393 1.524 . S
C394 C395 1.415 . S
C395 H365 0.950 . S
C395 C390 1.363 . S
C395 C394 1.415 . S
H396 C393 0.999 . S
H397 C378 0.913 . S
H398 C416 0.951 . S
H399 C418 0.951 . S
H400 C420 0.950 . S
H401 C421 0.950 . S
H402 C423 0.950 . S
H403 C426 0.950 . S
H404 C427 0.950 . S
H405 C429 0.950 . S
H406 C430 0.950 . S
H407 C431 0.951 . S
H408 C433 0.951 . S
H409 C435 0.950 . S
H410 C436 0.950 . S
H411 C438 0.950 . S
H412 C441 0.950 . S
H413 C442 0.950 . S
H414 C444 0.950 . S
H415 C445 0.950 . S
C416 H398 0.951 . S
C416 C417 1.366 . S
C416 C418 1.388 . S
C417 C416 1.366 . S
C417 C421 1.385 . S
C418 H399 0.951 . S
C418 C416 1.388 . S
C418 C419 1.366 . S
C419 C418 1.366 . S
C419 C420 1.414 . S
C419 C422 1.499 . S
C420 H400 0.950 . S
C420 C419 1.414 . S
C420 C421 1.374 . S
C421 H401 0.950 . S
C421 C417 1.385 . S
C421 C420 1.374 . S
C422 C419 1.499 . S
C422 C423 1.373 . S
C422 C424 1.389 . S
C423 H402 0.950 . S
C423 C422 1.373 . S
C423 C439 1.377 . S
C424 C422 1.389 . S
C424 C425 1.524 . S
C424 C438 1.377 . S
C425 C424 1.524 . S
C425 C426 1.397 . S
C425 C430 1.363 . S
C426 H403 0.950 . S
C426 C425 1.397 . S
C426 C427 1.334 . S
C427 H404 0.950 . S
C427 C426 1.334 . S
C427 C428 1.287 . S
C428 C427 1.287 . S
C428 C429 1.524 . S
C428 H447 0.913 . S
C429 H405 0.950 . S
C429 C428 1.524 . S
C429 C430 1.415 . S
C430 H406 0.950 . S
C430 C425 1.363 . S
C430 C429 1.415 . S
C431 H407 0.951 . S
C431 C432 1.366 . S
C431 C433 1.388 . S
C432 C431 1.366 . S
C432 C436 1.385 . S
C433 H408 0.951 . S
C433 C431 1.388 . S
C433 C434 1.366 . S
C434 C433 1.366 . S
C434 C435 1.414 . S
C434 C437 1.499 . S
C435 H409 0.950 . S
C435 C434 1.414 . S
C435 C436 1.374 . S
C436 H410 0.950 . S
C436 C432 1.385 . S
C436 C435 1.374 . S
C437 C434 1.499 . S
C437 C438 1.373 . S
C437 C439 1.389 . S
C438 H411 0.950 . S
C438 C424 1.377 . S
C438 C437 1.373 . S
C439 C423 1.377 . S
C439 C437 1.389 . S
C439 C440 1.524 . S
C440 C439 1.524 . S
C440 C441 1.397 . S
C440 C445 1.363 . S
C441 H412 0.950 . S
C441 C440 1.397 . S
C441 C442 1.334 . S
C442 H413 0.950 . S
C442 C441 1.334 . S
C442 C443 1.287 . S
C443 C442 1.287 . S
C443 C444 1.524 . S
C443 H446 0.999 . S
C444 H414 0.950 . S
C444 C443 1.524 . S
C444 C445 1.415 . S
C445 H415 0.950 . S
C445 C440 1.363 . S
C445 C444 1.415 . S
H446 C443 0.999 . S
H447 C428 0.913 . S
H448 C466 0.951 . S
H449 C468 0.951 . S
H450 C470 0.950 . S
H451 C471 0.950 . S
H452 C473 0.950 . S
H453 C476 0.950 . S
H454 C477 0.950 . S
H455 C479 0.950 . S
H456 C480 0.950 . S
H457 C481 0.951 . S
H458 C483 0.951 . S
H459 C485 0.950 . S
H460 C486 0.950 . S
H461 C488 0.950 . S
H462 C491 0.950 . S
H463 C492 0.950 . S
H464 C494 0.950 . S
H465 C495 0.950 . S
C466 H448 0.951 . S
C466 C467 1.366 . S
C466 C468 1.388 . S
C467 C466 1.366 . S
C467 C471 1.385 . S
C468 H449 0.951 . S
C468 C466 1.388 . S
C468 C469 1.366 . S
C469 C468 1.366 . S
C469 C470 1.414 . S
C469 C472 1.499 . S
C470 H450 0.950 . S
C470 C469 1.414 . S
C470 C471 1.374 . S
C471 H451 0.950 . S
C471 C467 1.385 . S
C471 C470 1.374 . S
C472 C469 1.499 . S
C472 C473 1.373 1_565 S
C472 C474 1.389 . S
C473 H452 0.950 . S
C473 C472 1.373 1_545 S
C473 C489 1.377 . S
C474 C472 1.389 . S
C474 C475 1.524 . S
C474 C488 1.377 1_565 S
C475 C474 1.524 . S
C475 C476 1.397 . S
C475 C480 1.363 . S
C476 H453 0.950 . S
C476 C475 1.397 . S
C476 C477 1.334 . S
C477 H454 0.950 . S
C477 C476 1.334 . S
C477 C478 1.287 . S
C478 C477 1.287 . S
C478 C479 1.524 . S
C478 H497 0.913 . S
C479 H455 0.950 . S
C479 C478 1.524 . S
C479 C480 1.415 . S
C480 H456 0.950 . S
C480 C475 1.363 . S
C480 C479 1.415 . S
C481 H457 0.951 . S
C481 C482 1.366 . S
C481 C483 1.388 . S
C482 C481 1.366 . S
C482 C486 1.385 . S
C483 H458 0.951 . S
C483 C481 1.388 . S
C483 C484 1.366 . S
C484 C483 1.366 . S
C484 C485 1.414 . S
C484 C487 1.499 . S
C485 H459 0.950 . S
C485 C484 1.414 . S
C485 C486 1.374 . S
C486 H460 0.950 . S
C486 C482 1.385 . S
C486 C485 1.374 . S
C487 C484 1.499 . S
C487 C488 1.373 . S
C487 C489 1.389 . S
C488 H461 0.950 . S
C488 C474 1.377 1_545 S
C488 C487 1.373 . S
C489 C473 1.377 . S
C489 C487 1.389 . S
C489 C490 1.524 . S
C490 C489 1.524 . S
C490 C491 1.397 . S
C490 C495 1.363 . S
C491 H462 0.950 . S
C491 C490 1.397 . S
C491 C492 1.334 . S
C492 H463 0.950 . S
C492 C491 1.334 . S
C492 C493 1.287 . S
C493 C492 1.287 . S
C493 C494 1.524 . S
C493 H496 0.999 . S
C494 H464 0.950 . S
C494 C493 1.524 . S
C494 C495 1.415 . S
C495 H465 0.950 . S
C495 C490 1.363 . S
C495 C494 1.415 . S
H496 C493 0.999 . S
H497 C478 0.913 . S
H498 C516 0.951 . S
H499 C518 0.951 . S
H500 C520 0.950 . S
H501 C521 0.950 . S
H502 C523 0.950 . S
H503 C526 0.950 . S
H504 C527 0.950 . S
H505 C529 0.950 . S
H506 C530 0.950 1_455 S
H507 C531 0.951 . S
H508 C533 0.951 . S
H509 C535 0.950 . S
H510 C536 0.950 . S
H511 C538 0.950 . S
H512 C541 0.950 . S
H513 C542 0.950 . S
H514 C544 0.950 . S
H515 C545 0.950 . S
C516 H498 0.951 . S
C516 C517 1.366 . S
C516 C518 1.388 . S
C517 C516 1.366 . S
C517 C521 1.385 . S
C518 H499 0.951 . S
C518 C516 1.388 . S
C518 C519 1.366 . S
C519 C518 1.366 . S
C519 C520 1.414 . S
C519 C522 1.499 . S
C520 H500 0.950 . S
C520 C519 1.414 . S
C520 C521 1.374 . S
C521 H501 0.950 . S
C521 C517 1.385 . S
C521 C520 1.374 . S
C522 C519 1.499 . S
C522 C523 1.373 . S
C522 C524 1.389 . S
C523 H502 0.950 . S
C523 C522 1.373 . S
C523 C539 1.377 . S
C524 C522 1.389 . S
C524 C525 1.524 . S
C524 C538 1.377 . S
C525 C524 1.524 . S
C525 C526 1.397 . S
C525 C530 1.363 . S
C526 H503 0.950 . S
C526 C525 1.397 . S
C526 C527 1.334 . S
C527 H504 0.950 . S
C527 C526 1.334 . S
C527 C528 1.287 1_655 S
C528 C527 1.287 1_455 S
C528 C529 1.524 . S
C528 H547 0.913 . S
C529 H505 0.950 . S
C529 C528 1.524 . S
C529 C530 1.415 1_455 S
C530 H506 0.950 1_655 S
C530 C525 1.363 . S
C530 C529 1.415 1_655 S
C531 H507 0.951 . S
C531 C532 1.366 1_655 S
C531 C533 1.388 . S
C532 C531 1.366 1_455 S
C532 C536 1.385 . S
C533 H508 0.951 . S
C533 C531 1.388 . S
C533 C534 1.366 . S
C534 C533 1.366 . S
C534 C535 1.414 1_655 S
C534 C537 1.499 . S
C535 H509 0.950 . S
C535 C534 1.414 1_455 S
C535 C536 1.374 . S
C536 H510 0.950 . S
C536 C532 1.385 . S
C536 C535 1.374 . S
C537 C534 1.499 . S
C537 C538 1.373 . S
C537 C539 1.389 . S
C538 H511 0.950 . S
C538 C524 1.377 . S
C538 C537 1.373 . S
C539 C523 1.377 . S
C539 C537 1.389 . S
C539 C540 1.524 . S
C540 C539 1.524 . S
C540 C541 1.397 . S
C540 C545 1.363 . S
C541 H512 0.950 . S
C541 C540 1.397 . S
C541 C542 1.334 . S
C542 H513 0.950 . S
C542 C541 1.334 . S
C542 C543 1.287 . S
C543 C542 1.287 . S
C543 C544 1.524 . S
C543 H546 0.999 . S
C544 H514 0.950 . S
C544 C543 1.524 . S
C544 C545 1.415 . S
C545 H515 0.950 . S
C545 C540 1.363 . S
C545 C544 1.415 . S
H546 C543 0.999 . S
H547 C528 0.913 . S
H548 C566 0.951 . S
H549 C568 0.951 . S
H550 C570 0.950 . S
H551 C571 0.950 . S
H552 C573 0.950 . S
H553 C576 0.950 . S
H554 C577 0.950 . S
H555 C579 0.950 . S
H556 C580 0.950 . S
H557 C581 0.951 . S
H558 C583 0.951 . S
H559 C585 0.950 . S
H560 C586 0.950 . S
H561 C588 0.950 . S
H562 C591 0.950 . S
H563 C592 0.950 . S
H564 C594 0.950 . S
H565 C595 0.950 . S
C566 H548 0.951 . S
C566 C567 1.366 . S
C566 C568 1.388 . S
C567 C566 1.366 . S
C567 C571 1.385 . S
C568 H549 0.951 . S
C568 C566 1.388 . S
C568 C569 1.366 . S
C569 C568 1.366 . S
C569 C570 1.414 . S
C569 C572 1.499 . S
C570 H550 0.950 . S
C570 C569 1.414 . S
C570 C571 1.374 . S
C571 H551 0.950 . S
C571 C567 1.385 . S
C571 C570 1.374 . S
C572 C569 1.499 . S
C572 C573 1.373 . S
C572 C574 1.389 . S
C573 H552 0.950 . S
C573 C572 1.373 . S
C573 C589 1.377 . S
C574 C572 1.389 . S
C574 C575 1.524 . S
C574 C588 1.377 . S
C575 C574 1.524 . S
C575 C576 1.397 . S
C575 C580 1.363 . S
C576 H553 0.950 . S
C576 C575 1.397 . S
C576 C577 1.334 . S
C577 H554 0.950 . S
C577 C576 1.334 . S
C577 C578 1.287 . S
C578 C577 1.287 . S
C578 C579 1.524 . S
C578 H597 0.913 . S
C579 H555 0.950 . S
C579 C578 1.524 . S
C579 C580 1.415 . S
C580 H556 0.950 . S
C580 C575 1.363 . S
C580 C579 1.415 . S
C581 H557 0.951 . S
C581 C582 1.366 . S
C581 C583 1.388 . S
C582 C581 1.366 . S
C582 C586 1.385 . S
C583 H558 0.951 . S
C583 C581 1.388 . S
C583 C584 1.366 . S
C584 C583 1.366 . S
C584 C585 1.414 . S
C584 C587 1.499 . S
C585 H559 0.950 . S
C585 C584 1.414 . S
C585 C586 1.374 . S
C586 H560 0.950 . S
C586 C582 1.385 . S
C586 C585 1.374 . S
C587 C584 1.499 . S
C587 C588 1.373 . S
C587 C589 1.389 . S
C588 H561 0.950 . S
C588 C574 1.377 . S
C588 C587 1.373 . S
C589 C573 1.377 . S
C589 C587 1.389 . S
C589 C590 1.524 . S
C590 C589 1.524 . S
C590 C591 1.397 . S
C590 C595 1.363 . S
C591 H562 0.950 . S
C591 C590 1.397 . S
C591 C592 1.334 . S
C592 H563 0.950 . S
C592 C591 1.334 . S
C592 C593 1.287 . S
C593 C592 1.287 . S
C593 C594 1.524 . S
C593 H596 0.999 . S
C594 H564 0.950 . S
C594 C593 1.524 . S
C594 C595 1.415 . S
C595 H565 0.950 . S
C595 C590 1.363 . S
C595 C594 1.415 . S
H596 C593 0.999 . S
H597 C578 0.913 . S
H598 C616 0.951 . S
H599 C618 0.951 . S
H600 C620 0.950 . S
H601 C621 0.950 . S
H602 C623 0.950 . S
H603 C626 0.950 . S
H604 C627 0.950 . S
H605 C629 0.950 . S
H606 C630 0.950 . S
H607 C631 0.951 . S
H608 C633 0.951 . S
H609 C635 0.950 . S
H610 C636 0.950 . S
H611 C638 0.950 . S
H612 C641 0.950 1_565 S
H613 C642 0.950 . S
H614 C644 0.950 . S
H615 C645 0.950 . S
C616 H598 0.951 . S
C616 C617 1.366 . S
C616 C618 1.388 . S
C617 C616 1.366 . S
C617 C621 1.385 . S
C618 H599 0.951 . S
C618 C616 1.388 . S
C618 C619 1.366 . S
C619 C618 1.366 . S
C619 C620 1.414 . S
C619 C622 1.499 . S
C620 H600 0.950 . S
C620 C619 1.414 . S
C620 C621 1.374 . S
C621 H601 0.950 . S
C621 C617 1.385 . S
C621 C620 1.374 . S
C622 C619 1.499 . S
C622 C623 1.373 . S
C622 C624 1.389 . S
C623 H602 0.950 . S
C623 C622 1.373 . S
C623 C639 1.377 . S
C624 C622 1.389 . S
C624 C625 1.524 . S
C624 C638 1.377 . S
C625 C624 1.524 . S
C625 C626 1.397 . S
C625 C630 1.363 . S
C626 H603 0.950 . S
C626 C625 1.397 . S
C626 C627 1.334 . S
C627 H604 0.950 . S
C627 C626 1.334 . S
C627 C628 1.287 . S
C628 C627 1.287 . S
C628 C629 1.524 . S
C628 H647 0.913 . S
C629 H605 0.950 . S
C629 C628 1.524 . S
C629 C630 1.415 . S
C630 H606 0.950 . S
C630 C625 1.363 . S
C630 C629 1.415 . S
C631 H607 0.951 . S
C631 C632 1.366 1_545 S
C631 C633 1.388 . S
C632 C631 1.366 1_565 S
C632 C636 1.385 . S
C633 H608 0.951 . S
C633 C631 1.388 . S
C633 C634 1.366 . S
C634 C633 1.366 . S
C634 C635 1.414 1_545 S
C634 C637 1.499 . S
C635 H609 0.950 . S
C635 C634 1.414 1_565 S
C635 C636 1.374 . S
C636 H610 0.950 . S
C636 C632 1.385 . S
C636 C635 1.374 . S
C637 C634 1.499 . S
C637 C638 1.373 . S
C637 C639 1.389 . S
C638 H611 0.950 . S
C638 C624 1.377 . S
C638 C637 1.373 . S
C639 C623 1.377 . S
C639 C637 1.389 . S
C639 C640 1.524 . S
C640 C639 1.524 . S
C640 C641 1.397 . S
C640 C645 1.363 . S
C641 H612 0.950 1_545 S
C641 C640 1.397 . S
C641 C642 1.334 1_545 S
C642 H613 0.950 . S
C642 C641 1.334 1_565 S
C642 C643 1.287 1_565 S
C643 C642 1.287 1_545 S
C643 C644 1.524 . S
C643 H646 0.999 . S
C644 H614 0.950 . S
C644 C643 1.524 . S
C644 C645 1.415 . S
C645 H615 0.950 . S
C645 C640 1.363 . S
C645 C644 1.415 . S
H646 C643 0.999 . S
H647 C628 0.913 . S
H648 C666 0.951 . S
H649 C668 0.951 . S
H650 C670 0.950 . S
H651 C671 0.950 . S
H652 C673 0.950 . S
H653 C676 0.950 . S
H654 C677 0.950 . S
H655 C679 0.950 . S
H656 C680 0.950 . S
H657 C681 0.951 . S
H658 C683 0.951 . S
H659 C685 0.950 . S
H660 C686 0.950 . S
H661 C688 0.950 . S
H662 C691 0.950 . S
H663 C692 0.950 . S
H664 C694 0.950 . S
H665 C695 0.950 1_545 S
C666 H648 0.951 . S
C666 C667 1.366 . S
C666 C668 1.388 . S
C667 C666 1.366 . S
C667 C671 1.385 . S
C668 H649 0.951 . S
C668 C666 1.388 . S
C668 C669 1.366 . S
C669 C668 1.366 . S
C669 C670 1.414 . S
C669 C672 1.499 . S
C670 H650 0.950 . S
C670 C669 1.414 . S
C670 C671 1.374 . S
C671 H651 0.950 . S
C671 C667 1.385 . S
C671 C670 1.374 . S
C672 C669 1.499 . S
C672 C673 1.373 . S
C672 C674 1.389 . S
C673 H652 0.950 . S
C673 C672 1.373 . S
C673 C689 1.377 . S
C674 C672 1.389 . S
C674 C675 1.524 . S
C674 C688 1.377 . S
C675 C674 1.524 . S
C675 C676 1.397 . S
C675 C680 1.363 . S
C676 H653 0.950 . S
C676 C675 1.397 . S
C676 C677 1.334 . S
C677 H654 0.950 . S
C677 C676 1.334 . S
C677 C678 1.287 . S
C678 C677 1.287 . S
C678 C679 1.524 . S
C678 H697 0.913 . S
C679 H655 0.950 . S
C679 C678 1.524 . S
C679 C680 1.415 . S
C680 H656 0.950 . S
C680 C675 1.363 . S
C680 C679 1.415 . S
C681 H657 0.951 . S
C681 C682 1.366 . S
C681 C683 1.388 1_565 S
C682 C681 1.366 . S
C682 C686 1.385 . S
C683 H658 0.951 . S
C683 C681 1.388 1_545 S
C683 C684 1.366 . S
C684 C683 1.366 . S
C684 C685 1.414 . S
C684 C687 1.499 . S
C685 H659 0.950 . S
C685 C684 1.414 . S
C685 C686 1.374 1_545 S
C686 H660 0.950 . S
C686 C682 1.385 . S
C686 C685 1.374 1_565 S
C687 C684 1.499 . S
C687 C688 1.373 . S
C687 C689 1.389 . S
C688 H661 0.950 . S
C688 C674 1.377 . S
C688 C687 1.373 . S
C689 C673 1.377 . S
C689 C687 1.389 . S
C689 C690 1.524 1_545 S
C690 C689 1.524 1_565 S
C690 C691 1.397 . S
C690 C695 1.363 . S
C691 H662 0.950 . S
C691 C690 1.397 . S
C691 C692 1.334 . S
C692 H663 0.950 . S
C692 C691 1.334 . S
C692 C693 1.287 . S
C693 C692 1.287 . S
C693 C694 1.524 . S
C693 H696 0.999 . S
C694 H664 0.950 . S
C694 C693 1.524 . S
C694 C695 1.415 . S
C695 H665 0.950 1_565 S
C695 C690 1.363 . S
C695 C694 1.415 . S
H696 C693 0.999 . S
H697 C678 0.913 . S
H698 C716 0.951 . S
H699 C718 0.951 . S
H700 C720 0.950 . S
H701 C721 0.950 . S
H702 C723 0.950 . S
H703 C726 0.950 . S
H704 C727 0.950 . S
H705 C729 0.950 . S
H706 C730 0.950 . S
H707 C731 0.951 . S
H708 C733 0.951 . S
H709 C735 0.950 . S
H710 C736 0.950 . S
H711 C738 0.950 . S
H712 C741 0.950 . S
H713 C742 0.950 . S
H714 C744 0.950 . S
H715 C745 0.950 . S
C716 H698 0.951 . S
C716 C717 1.366 . S
C716 C718 1.388 . S
C717 C716 1.366 . S
C717 C721 1.385 . S
C718 H699 0.951 . S
C718 C716 1.388 . S
C718 C719 1.366 1_455 S
C719 C718 1.366 1_655 S
C719 C720 1.414 . S
C719 C722 1.499 . S
C720 H700 0.950 . S
C720 C719 1.414 . S
C720 C721 1.374 1_655 S
C721 H701 0.950 . S
C721 C717 1.385 . S
C721 C720 1.374 1_455 S
C722 C719 1.499 . S
C722 C723 1.373 . S
C722 C724 1.389 . S
C723 H702 0.950 . S
C723 C722 1.373 . S
C723 C739 1.377 . S
C724 C722 1.389 . S
C724 C725 1.524 1_655 S
C724 C738 1.377 . S
C725 C724 1.524 1_455 S
C725 C726 1.397 . S
C725 C730 1.363 . S
C726 H703 0.950 . S
C726 C725 1.397 . S
C726 C727 1.334 . S
C727 H704 0.950 . S
C727 C726 1.334 . S
C727 C728 1.287 . S
C728 C727 1.287 . S
C728 C729 1.524 . S
C728 H747 0.913 . S
C729 H705 0.950 . S
C729 C728 1.524 . S
C729 C730 1.415 . S
C730 H706 0.950 . S
C730 C725 1.363 . S
C730 C729 1.415 . S
C731 H707 0.951 . S
C731 C732 1.366 . S
C731 C733 1.388 . S
C732 C731 1.366 . S
C732 C736 1.385 . S
C733 H708 0.951 . S
C733 C731 1.388 . S
C733 C734 1.366 . S
C734 C733 1.366 . S
C734 C735 1.414 . S
C734 C737 1.499 . S
C735 H709 0.950 . S
C735 C734 1.414 . S
C735 C736 1.374 . S
C736 H710 0.950 . S
C736 C732 1.385 . S
C736 C735 1.374 . S
C737 C734 1.499 . S
C737 C738 1.373 . S
C737 C739 1.389 . S
C738 H711 0.950 . S
C738 C724 1.377 . S
C738 C737 1.373 . S
C739 C723 1.377 . S
C739 C737 1.389 . S
C739 C740 1.524 . S
C740 C739 1.524 . S
C740 C741 1.397 . S
C740 C745 1.363 . S
C741 H712 0.950 . S
C741 C740 1.397 . S
C741 C742 1.334 . S
C742 H713 0.950 . S
C742 C741 1.334 . S
C742 C743 1.287 . S
C743 C742 1.287 . S
C743 C744 1.524 . S
C743 H746 0.999 . S
C744 H714 0.950 . S
C744 C743 1.524 . S
C744 C745 1.415 . S
C745 H715 0.950 . S
C745 C740 1.363 . S
C745 C744 1.415 . S
H746 C743 0.999 . S
H747 C728 0.913 . S
H748 C766 0.951 . S
H749 C768 0.951 . S
H750 C770 0.950 . S
H751 C771 0.950 . S
H752 C773 0.950 . S
H753 C776 0.950 . S
H754 C777 0.950 . S
H755 C779 0.950 . S
H756 C780 0.950 . S
H757 C781 0.951 . S
H758 C783 0.951 . S
H759 C785 0.950 . S
H760 C786 0.950 . S
H761 C788 0.950 . S
H762 C791 0.950 . S
H763 C792 0.950 . S
H764 C794 0.950 . S
H765 C795 0.950 . S
C766 H748 0.951 . S
C766 C767 1.366 . S
C766 C768 1.388 . S
C767 C766 1.366 . S
C767 C771 1.385 . S
C768 H749 0.951 . S
C768 C766 1.388 . S
C768 C769 1.366 . S
C769 C768 1.366 . S
C769 C770 1.414 . S
C769 C772 1.499 . S
C770 H750 0.950 . S
C770 C769 1.414 . S
C770 C771 1.374 . S
C771 H751 0.950 . S
C771 C767 1.385 . S
C771 C770 1.374 . S
C772 C769 1.499 . S
C772 C773 1.373 . S
C772 C774 1.389 . S
C773 H752 0.950 . S
C773 C772 1.373 . S
C773 C789 1.377 . S
C774 C772 1.389 . S
C774 C775 1.524 . S
C774 C788 1.377 . S
C775 C774 1.524 . S
C775 C776 1.397 . S
C775 C780 1.363 . S
C776 H753 0.950 . S
C776 C775 1.397 . S
C776 C777 1.334 . S
C777 H754 0.950 . S
C777 C776 1.334 . S
C777 C778 1.287 . S
C778 C777 1.287 . S
C778 C779 1.524 . S
C778 H797 0.913 . S
C779 H755 0.950 . S
C779 C778 1.524 . S
C779 C780 1.415 . S
C780 H756 0.950 . S
C780 C775 1.363 . S
C780 C779 1.415 . S
C781 H757 0.951 . S
C781 C782 1.366 . S
C781 C783 1.388 . S
C782 C781 1.366 . S
C782 C786 1.385 . S
C783 H758 0.951 . S
C783 C781 1.388 . S
C783 C784 1.366 . S
C784 C783 1.366 . S
C784 C785 1.414 . S
C784 C787 1.499 . S
C785 H759 0.950 . S
C785 C784 1.414 . S
C785 C786 1.374 . S
C786 H760 0.950 . S
C786 C782 1.385 . S
C786 C785 1.374 . S
C787 C784 1.499 . S
C787 C788 1.373 . S
C787 C789 1.389 . S
C788 H761 0.950 . S
C788 C774 1.377 . S
C788 C787 1.373 . S
C789 C773 1.377 . S
C789 C787 1.389 . S
C789 C790 1.524 . S
C790 C789 1.524 . S
C790 C791 1.397 . S
C790 C795 1.363 . S
C791 H762 0.950 . S
C791 C790 1.397 . S
C791 C792 1.334 . S
C792 H763 0.950 . S
C792 C791 1.334 . S
C792 C793 1.287 . S
C793 C792 1.287 . S
C793 C794 1.524 . S
C793 H796 0.999 . S
C794 H764 0.950 . S
C794 C793 1.524 . S
C794 C795 1.415 . S
C795 H765 0.950 . S
C795 C790 1.363 . S
C795 C794 1.415 . S
H796 C793 0.999 . S
H797 C778 0.913 . S
H798 C816 0.951 . S
H799 C818 0.951 . S
H800 C820 0.950 . S
H801 C821 0.950 . S
H802 C823 0.950 . S
H803 C826 0.950 . S
H804 C827 0.950 . S
H805 C829 0.950 . S
H806 C830 0.950 . S
H807 C831 0.951 . S
H808 C833 0.951 . S
H809 C835 0.950 . S
H810 C836 0.950 . S
H811 C838 0.950 . S
H812 C841 0.950 . S
H813 C842 0.950 . S
H814 C844 0.950 . S
H815 C845 0.950 . S
C816 H798 0.951 . S
C816 C817 1.366 . S
C816 C818 1.388 . S
C817 C816 1.366 . S
C817 C821 1.385 . S
C818 H799 0.951 . S
C818 C816 1.388 . S
C818 C819 1.366 . S
C819 C818 1.366 . S
C819 C820 1.414 . S
C819 C822 1.499 . S
C820 H800 0.950 . S
C820 C819 1.414 . S
C820 C821 1.374 . S
C821 H801 0.950 . S
C821 C817 1.385 . S
C821 C820 1.374 . S
C822 C819 1.499 . S
C822 C823 1.373 . S
C822 C824 1.389 . S
C823 H802 0.950 . S
C823 C822 1.373 . S
C823 C839 1.377 . S
C824 C822 1.389 . S
C824 C825 1.524 . S
C824 C838 1.377 . S
C825 C824 1.524 . S
C825 C826 1.397 . S
C825 C830 1.363 . S
C826 H803 0.950 . S
C826 C825 1.397 . S
C826 C827 1.334 . S
C827 H804 0.950 . S
C827 C826 1.334 . S
C827 C828 1.287 . S
C828 C827 1.287 . S
C828 C829 1.524 . S
C828 H847 0.913 . S
C829 H805 0.950 . S
C829 C828 1.524 . S
C829 C830 1.415 . S
C830 H806 0.950 . S
C830 C825 1.363 . S
C830 C829 1.415 . S
C831 H807 0.951 . S
C831 C832 1.366 . S
C831 C833 1.388 . S
C832 C831 1.366 . S
C832 C836 1.385 . S
C833 H808 0.951 . S
C833 C831 1.388 . S
C833 C834 1.366 . S
C834 C833 1.366 . S
C834 C835 1.414 . S
C834 C837 1.499 . S
C835 H809 0.950 . S
C835 C834 1.414 . S
C835 C836 1.374 . S
C836 H810 0.950 . S
C836 C832 1.385 . S
C836 C835 1.374 . S
C837 C834 1.499 . S
C837 C838 1.373 . S
C837 C839 1.389 . S
C838 H811 0.950 . S
C838 C824 1.377 . S
C838 C837 1.373 . S
C839 C823 1.377 . S
C839 C837 1.389 . S
C839 C840 1.524 . S
C840 C839 1.524 . S
C840 C841 1.397 . S
C840 C845 1.363 . S
C841 H812 0.950 . S
C841 C840 1.397 . S
C841 C842 1.334 . S
C842 H813 0.950 . S
C842 C841 1.334 . S
C842 C843 1.287 . S
C843 C842 1.287 . S
C843 C844 1.524 . S
C843 H846 0.999 . S
C844 H814 0.950 . S
C844 C843 1.524 . S
C844 C845 1.415 . S
C845 H815 0.950 . S
C845 C840 1.363 . S
C845 C844 1.415 . S
H846 C843 0.999 . S
H847 C828 0.913 . S
H848 C866 0.951 . S
H849 C868 0.951 . S
H850 C870 0.950 . S
H851 C871 0.950 . S
H852 C873 0.950 . S
H853 C876 0.950 . S
H854 C877 0.950 . S
H855 C879 0.950 . S
H856 C880 0.950 . S
H857 C881 0.951 . S
H858 C883 0.951 . S
H859 C885 0.950 . S
H860 C886 0.950 . S
H861 C888 0.950 . S
H862 C891 0.950 . S
H863 C892 0.950 1_545 S
H864 C894 0.950 . S
H865 C895 0.950 . S
C866 H848 0.951 . S
C866 C867 1.366 . S
C866 C868 1.388 . S
C867 C866 1.366 . S
C867 C871 1.385 . S
C868 H849 0.951 . S
C868 C866 1.388 . S
C868 C869 1.366 . S
C869 C868 1.366 . S
C869 C870 1.414 . S
C869 C872 1.499 . S
C870 H850 0.950 . S
C870 C869 1.414 . S
C870 C871 1.374 . S
C871 H851 0.950 . S
C871 C867 1.385 . S
C871 C870 1.374 . S
C872 C869 1.499 . S
C872 C873 1.373 . S
C872 C874 1.389 . S
C873 H852 0.950 . S
C873 C872 1.373 . S
C873 C889 1.377 . S
C874 C872 1.389 . S
C874 C875 1.524 . S
C874 C888 1.377 . S
C875 C874 1.524 . S
C875 C876 1.397 . S
C875 C880 1.363 . S
C876 H853 0.950 . S
C876 C875 1.397 . S
C876 C877 1.334 . S
C877 H854 0.950 . S
C877 C876 1.334 . S
C877 C878 1.287 . S
C878 C877 1.287 . S
C878 C879 1.524 . S
C878 H897 0.913 . S
C879 H855 0.950 . S
C879 C878 1.524 . S
C879 C880 1.415 . S
C880 H856 0.950 . S
C880 C875 1.363 . S
C880 C879 1.415 . S
C881 H857 0.951 . S
C881 C882 1.366 . S
C881 C883 1.388 . S
C882 C881 1.366 . S
C882 C886 1.385 . S
C883 H858 0.951 . S
C883 C881 1.388 . S
C883 C884 1.366 . S
C884 C883 1.366 . S
C884 C885 1.414 . S
C884 C887 1.499 . S
C885 H859 0.950 . S
C885 C884 1.414 . S
C885 C886 1.374 . S
C886 H860 0.950 . S
C886 C882 1.385 . S
C886 C885 1.374 . S
C887 C884 1.499 . S
C887 C888 1.373 . S
C887 C889 1.389 . S
C888 H861 0.950 . S
C888 C874 1.377 . S
C888 C887 1.373 . S
C889 C873 1.377 . S
C889 C887 1.389 . S
C889 C890 1.524 . S
C890 C889 1.524 . S
C890 C891 1.397 . S
C890 C895 1.363 . S
C891 H862 0.950 . S
C891 C890 1.397 . S
C891 C892 1.334 . S
C892 H863 0.950 1_565 S
C892 C891 1.334 . S
C892 C893 1.287 . S
C893 C892 1.287 . S
C893 C894 1.524 . S
C893 H896 0.999 1_565 S
C894 H864 0.950 . S
C894 C893 1.524 . S
C894 C895 1.415 . S
C895 H865 0.950 . S
C895 C890 1.363 . S
C895 C894 1.415 . S
H896 C893 0.999 1_545 S
H897 C878 0.913 . S
H898 C916 0.951 . S
H899 C918 0.951 . S
H900 C920 0.950 . S
H901 C921 0.950 . S
H902 C923 0.950 . S
H903 C926 0.950 . S
H904 C927 0.947 . S
H905 C929 0.950 1_655 S
H906 C930 0.950 . S
H907 C931 0.951 . S
H908 C933 0.951 . S
H909 C935 0.950 . S
H910 C936 0.950 . S
H911 C938 0.950 . S
H912 C941 0.950 . S
H913 C942 0.950 . S
H914 C944 0.950 . S
H915 C945 0.950 . S
C916 H898 0.951 . S
C916 C917 1.366 . S
C916 C918 1.388 . S
C917 C916 1.366 . S
C917 C921 1.385 . S
C918 H899 0.951 . S
C918 C916 1.388 . S
C918 C919 1.366 . S
C919 C918 1.366 . S
C919 C920 1.414 . S
C919 C922 1.499 . S
C920 H900 0.950 . S
C920 C919 1.414 . S
C920 C921 1.374 . S
C921 H901 0.950 . S
C921 C917 1.385 . S
C921 C920 1.374 . S
C922 C919 1.499 . S
C922 C923 1.373 . S
C922 C924 1.389 . S
C923 H902 0.950 . S
C923 C922 1.373 . S
C923 C939 1.377 . S
C924 C922 1.389 . S
C924 C925 1.524 . S
C924 C938 1.377 . S
C925 C924 1.524 . S
C925 C926 1.397 . S
C925 C930 1.363 . S
C926 H903 0.950 . S
C926 C925 1.397 . S
C926 C927 1.316 1_455 S
C927 H904 0.947 . S
C927 C926 1.316 1_655 S
C927 C928 1.309 . S
C928 C927 1.309 . S
C928 C929 1.524 1_655 S
C928 H947 0.913 . S
C929 H905 0.950 1_455 S
C929 C928 1.524 1_455 S
C929 C930 1.415 . S
C930 H906 0.950 . S
C930 C925 1.363 . S
C930 C929 1.415 . S
C931 H907 0.951 . S
C931 C932 1.366 . S
C931 C933 1.388 . S
C932 C931 1.366 . S
C932 C936 1.385 . S
C933 H908 0.951 . S
C933 C931 1.388 . S
C933 C934 1.366 . S
C934 C933 1.366 . S
C934 C935 1.414 . S
C934 C937 1.499 . S
C935 H909 0.950 . S
C935 C934 1.414 . S
C935 C936 1.374 . S
C936 H910 0.950 . S
C936 C932 1.385 . S
C936 C935 1.374 . S
C937 C934 1.499 . S
C937 C938 1.373 . S
C937 C939 1.389 . S
C938 H911 0.950 . S
C938 C924 1.377 . S
C938 C937 1.373 . S
C939 C923 1.377 . S
C939 C937 1.389 . S
C939 C940 1.524 . S
C940 C939 1.524 . S
C940 C941 1.397 . S
C940 C945 1.363 . S
C941 H912 0.950 . S
C941 C940 1.397 . S
C941 C942 1.334 . S
C942 H913 0.950 . S
C942 C941 1.334 . S
C942 C943 1.287 . S
C943 C942 1.287 . S
C943 C944 1.524 . S
C943 H946 0.999 . S
C944 H914 0.950 . S
C944 C943 1.524 . S
C944 C945 1.415 . S
C945 H915 0.950 . S
C945 C940 1.363 . S
C945 C944 1.415 . S
H946 C943 0.999 . S
H947 C928 0.913 . S
H948 C966 0.951 . S
H949 C968 0.951 . S
H950 C970 0.950 . S
H951 C971 0.950 . S
H952 C973 0.950 . S
H953 C976 0.950 . S
H954 C977 0.950 . S
H955 C979 0.950 . S
H956 C980 0.950 . S
H957 C981 0.951 . S
H958 C983 0.951 . S
H959 C985 0.950 . S
H960 C986 0.950 . S
H961 C988 0.950 . S
H962 C991 0.950 . S
H963 C992 0.950 . S
H964 C994 0.950 . S
H965 C995 0.950 . S
C966 H948 0.951 . S
C966 C967 1.366 . S
C966 C968 1.388 . S
C967 C966 1.366 . S
C967 C971 1.385 . S
C968 H949 0.951 . S
C968 C966 1.388 . S
C968 C969 1.366 . S
C969 C968 1.366 . S
C969 C970 1.414 . S
C969 C972 1.499 . S
C970 H950 0.950 . S
C970 C969 1.414 . S
C970 C971 1.374 . S
C971 H951 0.950 . S
C971 C967 1.385 . S
C971 C970 1.374 . S
C972 C969 1.499 . S
C972 C973 1.373 . S
C972 C974 1.389 . S
C973 H952 0.950 . S
C973 C972 1.373 . S
C973 C989 1.377 . S
C974 C972 1.389 . S
C974 C975 1.524 . S
C974 C988 1.377 . S
C975 C974 1.524 . S
C975 C976 1.397 . S
C975 C980 1.363 . S
C976 H953 0.950 . S
C976 C975 1.397 . S
C976 C977 1.334 . S
C977 H954 0.950 . S
C977 C976 1.334 . S
C977 C978 1.287 . S
C978 C977 1.287 . S
C978 C979 1.524 . S
C978 H997 0.913 . S
C979 H955 0.950 . S
C979 C978 1.524 . S
C979 C980 1.415 . S
C980 H956 0.950 . S
C980 C975 1.363 . S
C980 C979 1.415 . S
C981 H957 0.951 . S
C981 C982 1.366 . S
C981 C983 1.388 . S
C982 C981 1.366 . S
C982 C986 1.385 . S
C983 H958 0.951 . S
C983 C981 1.388 . S
C983 C984 1.366 . S
C984 C983 1.366 . S
C984 C985 1.414 . S
C984 C987 1.499 . S
C985 H959 0.950 . S
C985 C984 1.414 . S
C985 C986 1.374 . S
C986 H960 0.950 . S
C986 C982 1.385 . S
C986 C985 1.374 . S
C987 C984 1.499 . S
C987 C988 1.373 . S
C987 C989 1.389 . S
C988 H961 0.950 . S
C988 C974 1.377 . S
C988 C987 1.373 . S
C989 C973 1.377 . S
C989 C987 1.389 . S
C989 C990 1.524 . S
C990 C989 1.524 . S
C990 C991 1.397 . S
C990 C995 1.363 . S
C991 H962 0.950 . S
C991 C990 1.397 . S
C991 C992 1.334 . S
C992 H963 0.950 . S
C992 C991 1.334 . S
C992 C993 1.287 . S
C993 C992 1.287 . S
C993 C994 1.524 . S
C993 H996 0.999 . S
C994 H964 0.950 . S
C994 C993 1.524 . S
C994 C995 1.415 . S
C995 H965 0.950 . S
C995 C990 1.363 . S
C995 C994 1.415 . S
H996 C993 0.999 . S
H997 C978 0.913 . S
H998 C1016 0.951 . S
H999 C1018 0.951 . S
H1000 C1020 0.950 . S
H1001 C1021 0.950 . S
H1002 C1023 0.950 . S
H1003 C1026 0.950 . S
H1004 C1027 0.950 . S
H1005 C1029 0.950 . S
H1006 C1030 0.950 . S
H1007 C1031 0.951 . S
H1008 C1033 0.951 . S
H1009 C1035 0.950 . S
H1010 C1036 0.950 . S
H1011 C1038 0.950 . S
H1012 C1041 0.950 . S
H1013 C1042 0.950 . S
H1014 C1044 0.950 . S
H1015 C1045 0.950 . S
C1016 H998 0.951 . S
C1016 C1017 1.366 . S
C1016 C1018 1.388 . S
C1017 C1016 1.366 . S
C1017 C1021 1.385 . S
C1018 H999 0.951 . S
C1018 C1016 1.388 . S
C1018 C1019 1.366 . S
C1019 C1018 1.366 . S
C1019 C1020 1.414 . S
C1019 C1022 1.499 . S
C1020 H1000 0.950 . S
C1020 C1019 1.414 . S
C1020 C1021 1.374 . S
C1021 H1001 0.950 . S
C1021 C1017 1.385 . S
C1021 C1020 1.374 . S
C1022 C1019 1.499 . S
C1022 C1023 1.373 . S
C1022 C1024 1.389 . S
C1023 H1002 0.950 . S
C1023 C1022 1.373 . S
C1023 C1039 1.377 . S
C1024 C1022 1.389 . S
C1024 C1025 1.524 . S
C1024 C1038 1.377 . S
C1025 C1024 1.524 . S
C1025 C1026 1.397 . S
C1025 C1030 1.363 . S
C1026 H1003 0.950 . S
C1026 C1025 1.397 . S
C1026 C1027 1.334 . S
C1027 H1004 0.950 . S
C1027 C1026 1.334 . S
C1027 C1028 1.287 . S
C1028 C1027 1.287 . S
C1028 C1029 1.524 . S
C1028 H1047 0.913 . S
C1029 H1005 0.950 . S
C1029 C1028 1.524 . S
C1029 C1030 1.415 . S
C1030 H1006 0.950 . S
C1030 C1025 1.363 . S
C1030 C1029 1.415 . S
C1031 H1007 0.951 . S
C1031 C1032 1.366 . S
C1031 C1033 1.388 . S
C1032 C1031 1.366 . S
C1032 C1036 1.385 . S
C1033 H1008 0.951 . S
C1033 C1031 1.388 . S
C1033 C1034 1.366 . S
C1034 C1033 1.366 . S
C1034 C1035 1.414 . S
C1034 C1037 1.499 . S
C1035 H1009 0.950 . S
C1035 C1034 1.414 . S
C1035 C1036 1.374 . S
C1036 H1010 0.950 . S
C1036 C1032 1.385 . S
C1036 C1035 1.374 . S
C1037 C1034 1.499 . S
C1037 C1038 1.373 . S
C1037 C1039 1.389 . S
C1038 H1011 0.950 . S
C1038 C1024 1.377 . S
C1038 C1037 1.373 . S
C1039 C1023 1.377 . S
C1039 C1037 1.389 . S
C1039 C1040 1.524 . S
C1040 C1039 1.524 . S
C1040 C1041 1.397 . S
C1040 C1045 1.363 . S
C1041 H1012 0.950 . S
C1041 C1040 1.397 . S
C1041 C1042 1.334 1_565 S
C1042 H1013 0.950 . S
C1042 C1041 1.334 1_545 S
C1042 C1043 1.287 . S
C1043 C1042 1.287 . S
C1043 C1044 1.524 . S
C1043 H1046 0.999 . S
C1044 H1014 0.950 . S
C1044 C1043 1.524 . S
C1044 C1045 1.415 1_545 S
C1045 H1015 0.950 . S
C1045 C1040 1.363 . S
C1045 C1044 1.415 1_565 S
H1046 C1043 0.999 . S
H1047 C1028 0.913 . S
H1048 C1066 0.951 . S
H1049 C1068 0.951 . S
H1050 C1070 0.950 . S
H1051 C1071 0.950 . S
H1052 C1073 0.950 . S
H1053 C1076 0.950 . S
H1054 C1077 0.950 . S
H1055 C1079 0.950 . S
H1056 C1080 0.950 . S
H1057 C1081 0.951 . S
H1058 C1083 0.951 . S
H1059 C1085 0.950 . S
H1060 C1086 0.950 . S
H1061 C1088 0.950 . S
H1062 C1091 0.950 . S
H1063 C1092 0.950 . S
H1064 C1094 0.950 . S
H1065 C1095 0.950 . S
C1066 H1048 0.951 . S
C1066 C1067 1.366 . S
C1066 C1068 1.388 . S
C1067 C1066 1.366 . S
C1067 C1071 1.385 . S
C1068 H1049 0.951 . S
C1068 C1066 1.388 . S
C1068 C1069 1.366 . S
C1069 C1068 1.366 . S
C1069 C1070 1.414 . S
C1069 C1072 1.499 . S
C1070 H1050 0.950 . S
C1070 C1069 1.414 . S
C1070 C1071 1.374 . S
C1071 H1051 0.950 . S
C1071 C1067 1.385 . S
C1071 C1070 1.374 . S
C1072 C1069 1.499 . S
C1072 C1073 1.373 . S
C1072 C1074 1.389 . S
C1073 H1052 0.950 . S
C1073 C1072 1.373 . S
C1073 C1089 1.377 . S
C1074 C1072 1.389 . S
C1074 C1075 1.524 . S
C1074 C1088 1.377 . S
C1075 C1074 1.524 . S
C1075 C1076 1.397 . S
C1075 C1080 1.363 . S
C1076 H1053 0.950 . S
C1076 C1075 1.397 . S
C1076 C1077 1.334 . S
C1077 H1054 0.950 . S
C1077 C1076 1.334 . S
C1077 C1078 1.287 . S
C1078 C1077 1.287 . S
C1078 C1079 1.524 . S
C1078 H1097 0.913 . S
C1079 H1055 0.950 . S
C1079 C1078 1.524 . S
C1079 C1080 1.415 . S
C1080 H1056 0.950 . S
C1080 C1075 1.363 . S
C1080 C1079 1.415 . S
C1081 H1057 0.951 . S
C1081 C1082 1.366 . S
C1081 C1083 1.388 . S
C1082 C1081 1.366 . S
C1082 C1086 1.385 . S
C1083 H1058 0.951 . S
C1083 C1081 1.388 . S
C1083 C1084 1.366 . S
C1084 C1083 1.366 . S
C1084 C1085 1.414 . S
C1084 C1087 1.499 . S
C1085 H1059 0.950 . S
C1085 C1084 1.414 . S
C1085 C1086 1.374 . S
C1086 H1060 0.950 . S
C1086 C1082 1.385 . S
C1086 C1085 1.374 . S
C1087 C1084 1.499 . S
C1087 C1088 1.373 . S
C1087 C1089 1.389 . S
C1088 H1061 0.950 . S
C1088 C1074 1.377 . S
C1088 C1087 1.373 . S
C1089 C1073 1.377 . S
C1089 C1087 1.389 . S
C1089 C1090 1.524 . S
C1090 C1089 1.524 . S
C1090 C1091 1.397 . S
C1090 C1095 1.363 . S
C1091 H1062 0.950 . S
C1091 C1090 1.397 . S
C1091 C1092 1.334 . S
C1092 H1063 0.950 . S
C1092 C1091 1.334 . S
C1092 C1093 1.287 . S
C1093 C1092 1.287 . S
C1093 C1094 1.524 1_455 S
C1093 H1096 0.999 . S
C1094 H1064 0.950 . S
C1094 C1093 1.524 1_655 S
C1094 C1095 1.415 1_655 S
C1095 H1065 0.950 . S
C1095 C1090 1.363 . S
C1095 C1094 1.415 1_455 S
H1096 C1093 0.999 . S
H1097 C1078 0.913 . S
H1098 C1116 0.951 . S
H1099 C1118 0.951 . S
H1100 C1120 0.950 . S
H1101 C1121 0.950 . S
H1102 C1123 0.950 . S
H1103 C1126 0.950 . S
H1104 C1127 0.950 . S
H1105 C1129 0.950 . S
H1106 C1130 0.950 . S
H1107 C1131 0.951 . S
H1108 C1133 0.951 . S
H1109 C1135 0.950 . S
H1110 C1136 0.950 . S
H1111 C1138 0.950 . S
H1112 C1141 0.950 . S
H1113 C1142 0.950 . S
H1114 C1144 0.950 . S
H1115 C1145 0.950 . S
C1116 H1098 0.951 . S
C1116 C1117 1.366 . S
C1116 C1118 1.388 . S
C1117 C1116 1.366 . S
C1117 C1121 1.385 1_556 S
C1118 H1099 0.951 . S
C1118 C1116 1.388 . S
C1118 C1119 1.366 . S
C1119 C1118 1.366 . S
C1119 C1120 1.414 1_556 S
C1119 C1122 1.499 . S
C1120 H1100 0.950 . S
C1120 C1119 1.414 1_554 S
C1120 C1121 1.374 . S
C1121 H1101 0.950 . S
C1121 C1117 1.385 1_554 S
C1121 C1120 1.374 . S
C1122 C1119 1.499 . S
C1122 C1123 1.373 . S
C1122 C1124 1.389 . S
C1123 H1102 0.950 . S
C1123 C1122 1.373 . S
C1123 C1139 1.377 . S
C1124 C1122 1.389 . S
C1124 C1125 1.524 . S
C1124 C1138 1.377 . S
C1125 C1124 1.524 . S
C1125 C1126 1.397 1_556 S
C1125 C1130 1.363 . S
C1126 H1103 0.950 . S
C1126 C1125 1.397 1_554 S
C1126 C1127 1.334 . S
C1127 H1104 0.950 . S
C1127 C1126 1.334 . S
C1127 C1128 1.287 . S
C1128 C1127 1.287 . S
C1128 C1129 1.524 1_554 S
C1128 H1147 0.913 . S
C1129 H1105 0.950 . S
C1129 C1128 1.524 1_556 S
C1129 C1130 1.415 . S
C1130 H1106 0.950 . S
C1130 C1125 1.363 . S
C1130 C1129 1.415 . S
C1131 H1107 0.951 . S
C1131 C1132 1.366 1_554 S
C1131 C1133 1.388 . S
C1132 C1131 1.366 1_556 S
C1132 C1136 1.385 . S
C1133 H1108 0.951 . S
C1133 C1131 1.388 . S
C1133 C1134 1.366 1_554 S
C1134 C1133 1.366 1_556 S
C1134 C1135 1.414 . S
C1134 C1137 1.499 . S
C1135 H1109 0.950 . S
C1135 C1134 1.414 . S
C1135 C1136 1.374 . S
C1136 H1110 0.950 . S
C1136 C1132 1.385 . S
C1136 C1135 1.374 . S
C1137 C1134 1.499 . S
C1137 C1138 1.373 . S
C1137 C1139 1.389 . S
C1138 H1111 0.950 . S
C1138 C1124 1.377 . S
C1138 C1137 1.373 . S
C1139 C1123 1.377 . S
C1139 C1137 1.389 . S
C1139 C1140 1.524 . S
C1140 C1139 1.524 . S
C1140 C1141 1.397 . S
C1140 C1145 1.363 1_556 S
C1141 H1112 0.950 . S
C1141 C1140 1.397 . S
C1141 C1142 1.334 . S
C1142 H1113 0.950 . S
C1142 C1141 1.334 . S
C1142 C1143 1.287 . S
C1143 C1142 1.287 . S
C1143 C1144 1.524 1_556 S
C1143 H1146 0.999 . S
C1144 H1114 0.950 . S
C1144 C1143 1.524 1_554 S
C1144 C1145 1.415 . S
C1145 H1115 0.950 . S
C1145 C1140 1.363 1_554 S
C1145 C1144 1.415 . S
H1146 C1143 0.999 . S
H1147 C1128 0.913 . S
H1148 C1166 0.951 . S
H1149 C1168 0.951 . S
H1150 C1170 0.950 . S
H1151 C1171 0.950 . S
H1152 C1173 0.950 . S
H1153 C1176 0.950 . S
H1154 C1177 0.950 . S
H1155 C1179 0.950 . S
H1156 C1180 0.950 . S
H1157 C1181 0.951 . S
H1158 C1183 0.951 . S
H1159 C1185 0.950 . S
H1160 C1186 0.950 . S
H1161 C1188 0.950 . S
H1162 C1191 0.950 . S
H1163 C1192 0.950 . S
H1164 C1194 0.950 . S
H1165 C1195 0.950 . S
C1166 H1148 0.951 . S
C1166 C1167 1.366 1_554 S
C1166 C1168 1.388 . S
C1167 C1166 1.366 1_556 S
C1167 C1171 1.385 . S
C1168 H1149 0.951 . S
C1168 C1166 1.388 . S
C1168 C1169 1.366 1_554 S
C1169 C1168 1.366 1_556 S
C1169 C1170 1.414 . S
C1169 C1172 1.499 . S
C1170 H1150 0.950 . S
C1170 C1169 1.414 . S
C1170 C1171 1.374 . S
C1171 H1151 0.950 . S
C1171 C1167 1.385 . S
C1171 C1170 1.374 . S
C1172 C1169 1.499 . S
C1172 C1173 1.373 . S
C1172 C1174 1.389 1_556 S
C1173 H1152 0.950 . S
C1173 C1172 1.373 . S
C1173 C1189 1.377 . S
C1174 C1172 1.389 1_554 S
C1174 C1175 1.524 . S
C1174 C1188 1.377 . S
C1175 C1174 1.524 . S
C1175 C1176 1.397 . S
C1175 C1180 1.363 . S
C1176 H1153 0.950 . S
C1176 C1175 1.397 . S
C1176 C1177 1.334 . S
C1177 H1154 0.950 . S
C1177 C1176 1.334 . S
C1177 C1178 1.287 . S
C1178 C1177 1.287 . S
C1178 C1179 1.524 . S
C1178 H1197 0.913 . S
C1179 H1155 0.950 . S
C1179 C1178 1.524 . S
C1179 C1180 1.415 . S
C1180 H1156 0.950 . S
C1180 C1175 1.363 . S
C1180 C1179 1.415 . S
C1181 H1157 0.951 . S
C1181 C1182 1.366 . S
C1181 C1183 1.388 . S
C1182 C1181 1.366 . S
C1182 C1186 1.385 1_556 S
C1183 H1158 0.951 . S
C1183 C1181 1.388 . S
C1183 C1184 1.366 . S
C1184 C1183 1.366 . S
C1184 C1185 1.414 1_556 S
C1184 C1187 1.499 . S
C1185 H1159 0.950 . S
C1185 C1184 1.414 1_554 S
C1185 C1186 1.374 . S
C1186 H1160 0.950 . S
C1186 C1182 1.385 1_554 S
C1186 C1185 1.374 . S
C1187 C1184 1.499 . S
C1187 C1188 1.373 1_556 S
C1187 C1189 1.389 . S
C1188 H1161 0.950 . S
C1188 C1174 1.377 . S
C1188 C1187 1.373 1_554 S
C1189 C1173 1.377 . S
C1189 C1187 1.389 . S
C1189 C1190 1.524 . S
C1190 C1189 1.524 . S
C1190 C1191 1.397 . S
C1190 C1195 1.363 . S
C1191 H1162 0.950 . S
C1191 C1190 1.397 . S
C1191 C1192 1.334 . S
C1192 H1163 0.950 . S
C1192 C1191 1.334 . S
C1192 C1193 1.287 . S
C1193 C1192 1.287 . S
C1193 C1194 1.524 . S
C1193 H1196 0.999 . S
C1194 H1164 0.950 . S
C1194 C1193 1.524 . S
C1194 C1195 1.415 . S
C1195 H1165 0.950 . S
C1195 C1190 1.363 . S
C1195 C1194 1.415 . S
H1196 C1193 0.999 . S
H1197 C1178 0.913 . S
H1198 C1216 0.951 1_554 S
H1199 C1218 0.951 1_554 S
H1200 C1220 0.950 . S
H1201 C1221 0.950 . S
H1202 C1223 0.950 . S
H1203 C1226 0.950 . S
H1204 C1227 0.950 . S
H1205 C1229 0.950 . S
H1206 C1230 0.950 . S
H1207 C1231 0.951 . S
H1208 C1233 0.951 . S
H1209 C1235 0.950 . S
H1210 C1236 0.950 . S
H1211 C1238 0.950 . S
H1212 C1241 0.950 . S
H1213 C1242 0.950 . S
H1214 C1244 0.950 . S
H1215 C1245 0.950 . S
C1216 H1198 0.951 1_556 S
C1216 C1217 1.366 . S
C1216 C1218 1.388 . S
C1217 C1216 1.366 . S
C1217 C1221 1.385 . S
C1218 H1199 0.951 1_556 S
C1218 C1216 1.388 . S
C1218 C1219 1.366 . S
C1219 C1218 1.366 . S
C1219 C1220 1.414 . S
C1219 C1222 1.499 . S
C1220 H1200 0.950 . S
C1220 C1219 1.414 . S
C1220 C1221 1.374 . S
C1221 H1201 0.950 . S
C1221 C1217 1.385 . S
C1221 C1220 1.374 . S
C1222 C1219 1.499 . S
C1222 C1223 1.373 1_556 S
C1222 C1224 1.389 . S
C1223 H1202 0.950 . S
C1223 C1222 1.373 1_554 S
C1223 C1239 1.377 . S
C1224 C1222 1.389 . S
C1224 C1225 1.524 . S
C1224 C1238 1.377 . S
C1225 C1224 1.524 . S
C1225 C1226 1.397 . S
C1225 C1230 1.363 . S
C1226 H1203 0.950 . S
C1226 C1225 1.397 . S
C1226 C1227 1.334 . S
C1227 H1204 0.950 . S
C1227 C1226 1.334 . S
C1227 C1228 1.287 . S
C1228 C1227 1.287 . S
C1228 C1229 1.524 . S
C1228 H1247 0.913 . S
C1229 H1205 0.950 . S
C1229 C1228 1.524 . S
C1229 C1230 1.415 . S
C1230 H1206 0.950 . S
C1230 C1225 1.363 . S
C1230 C1229 1.415 . S
C1231 H1207 0.951 . S
C1231 C1232 1.366 . S
C1231 C1233 1.388 . S
C1232 C1231 1.366 . S
C1232 C1236 1.385 1_556 S
C1233 H1208 0.951 . S
C1233 C1231 1.388 . S
C1233 C1234 1.366 . S
C1234 C1233 1.366 . S
C1234 C1235 1.414 1_556 S
C1234 C1237 1.499 . S
C1235 H1209 0.950 . S
C1235 C1234 1.414 1_554 S
C1235 C1236 1.374 . S
C1236 H1210 0.950 . S
C1236 C1232 1.385 1_554 S
C1236 C1235 1.374 . S
C1237 C1234 1.499 . S
C1237 C1238 1.373 . S
C1237 C1239 1.389 1_556 S
C1238 H1211 0.950 . S
C1238 C1224 1.377 . S
C1238 C1237 1.373 . S
C1239 C1223 1.377 . S
C1239 C1237 1.389 1_554 S
C1239 C1240 1.524 . S
C1240 C1239 1.524 . S
C1240 C1241 1.397 . S
C1240 C1245 1.363 . S
C1241 H1212 0.950 . S
C1241 C1240 1.397 . S
C1241 C1242 1.334 . S
C1242 H1213 0.950 . S
C1242 C1241 1.334 . S
C1242 C1243 1.287 . S
C1243 C1242 1.287 . S
C1243 C1244 1.524 . S
C1243 H1246 0.999 . S
C1244 H1214 0.950 . S
C1244 C1243 1.524 . S
C1244 C1245 1.415 . S
C1245 H1215 0.950 . S
C1245 C1240 1.363 . S
C1245 C1244 1.415 . S
H1246 C1243 0.999 . S
H1247 C1228 0.913 . S
H1248 C1266 0.951 . S
H1249 C1268 0.951 . S
H1250 C1270 0.950 . S
H1251 C1271 0.950 . S
H1252 C1273 0.950 . S
H1253 C1276 0.950 . S
H1254 C1277 0.950 . S
H1255 C1279 0.950 . S
H1256 C1280 0.950 . S
H1257 C1281 0.951 . S
H1258 C1283 0.951 . S
H1259 C1285 0.950 . S
H1260 C1286 0.950 . S
H1261 C1288 0.950 . S
H1262 C1291 0.950 . S
H1263 C1292 0.950 . S
H1264 C1294 0.950 . S
H1265 C1295 0.950 . S
C1266 H1248 0.951 . S
C1266 C1267 1.366 . S
C1266 C1268 1.388 . S
C1267 C1266 1.366 . S
C1267 C1271 1.385 . S
C1268 H1249 0.951 . S
C1268 C1266 1.388 . S
C1268 C1269 1.366 . S
C1269 C1268 1.366 . S
C1269 C1270 1.414 . S
C1269 C1272 1.499 . S
C1270 H1250 0.950 . S
C1270 C1269 1.414 . S
C1270 C1271 1.374 . S
C1271 H1251 0.950 . S
C1271 C1267 1.385 . S
C1271 C1270 1.374 . S
C1272 C1269 1.499 . S
C1272 C1273 1.373 . S
C1272 C1274 1.389 . S
C1273 H1252 0.950 . S
C1273 C1272 1.373 . S
C1273 C1289 1.377 . S
C1274 C1272 1.389 . S
C1274 C1275 1.524 . S
C1274 C1288 1.377 . S
C1275 C1274 1.524 . S
C1275 C1276 1.397 . S
C1275 C1280 1.363 . S
C1276 H1253 0.950 . S
C1276 C1275 1.397 . S
C1276 C1277 1.334 . S
C1277 H1254 0.950 . S
C1277 C1276 1.334 . S
C1277 C1278 1.287 . S
C1278 C1277 1.287 . S
C1278 C1279 1.524 . S
C1278 H1297 0.913 . S
C1279 H1255 0.950 . S
C1279 C1278 1.524 . S
C1279 C1280 1.415 . S
C1280 H1256 0.950 . S
C1280 C1275 1.363 . S
C1280 C1279 1.415 . S
C1281 H1257 0.951 . S
C1281 C1282 1.366 . S
C1281 C1283 1.388 . S
C1282 C1281 1.366 . S
C1282 C1286 1.385 . S
C1283 H1258 0.951 . S
C1283 C1281 1.388 . S
C1283 C1284 1.366 . S
C1284 C1283 1.366 . S
C1284 C1285 1.414 . S
C1284 C1287 1.499 . S
C1285 H1259 0.950 . S
C1285 C1284 1.414 . S
C1285 C1286 1.374 . S
C1286 H1260 0.950 . S
C1286 C1282 1.385 . S
C1286 C1285 1.374 . S
C1287 C1284 1.499 . S
C1287 C1288 1.373 . S
C1287 C1289 1.389 . S
C1288 H1261 0.950 . S
C1288 C1274 1.377 . S
C1288 C1287 1.373 . S
C1289 C1273 1.377 . S
C1289 C1287 1.389 . S
C1289 C1290 1.524 . S
C1290 C1289 1.524 . S
C1290 C1291 1.397 . S
C1290 C1295 1.363 . S
C1291 H1262 0.950 . S
C1291 C1290 1.397 . S
C1291 C1292 1.334 . S
C1292 H1263 0.950 . S
C1292 C1291 1.334 . S
C1292 C1293 1.287 . S
C1293 C1292 1.287 . S
C1293 C1294 1.524 . S
C1293 H1296 0.999 . S
C1294 H1264 0.950 . S
C1294 C1293 1.524 . S
C1294 C1295 1.415 . S
C1295 H1265 0.950 . S
C1295 C1290 1.363 . S
C1295 C1294 1.415 . S
H1296 C1293 0.999 . S
H1297 C1278 0.913 . S
H1298 C1316 0.951 . S
H1299 C1318 0.951 . S
H1300 C1320 0.950 . S
H1301 C1321 0.950 . S
H1302 C1323 0.950 . S
H1303 C1326 0.950 . S
H1304 C1327 0.950 . S
H1305 C1329 0.950 . S
H1306 C1330 0.950 . S
H1307 C1331 0.951 . S
H1308 C1333 0.951 . S
H1309 C1335 0.950 . S
H1310 C1336 0.950 . S
H1311 C1338 0.950 . S
H1312 C1341 0.950 . S
H1313 C1342 0.950 . S
H1314 C1344 0.950 . S
H1315 C1345 0.950 . S
C1316 H1298 0.951 . S
C1316 C1317 1.366 . S
C1316 C1318 1.388 . S
C1317 C1316 1.366 . S
C1317 C1321 1.385 . S
C1318 H1299 0.951 . S
C1318 C1316 1.388 . S
C1318 C1319 1.366 . S
C1319 C1318 1.366 . S
C1319 C1320 1.414 . S
C1319 C1322 1.499 . S
C1320 H1300 0.950 . S
C1320 C1319 1.414 . S
C1320 C1321 1.374 . S
C1321 H1301 0.950 . S
C1321 C1317 1.385 . S
C1321 C1320 1.374 . S
C1322 C1319 1.499 . S
C1322 C1323 1.373 . S
C1322 C1324 1.389 . S
C1323 H1302 0.950 . S
C1323 C1322 1.373 . S
C1323 C1339 1.377 . S
C1324 C1322 1.389 . S
C1324 C1325 1.524 . S
C1324 C1338 1.377 . S
C1325 C1324 1.524 . S
C1325 C1326 1.397 . S
C1325 C1330 1.363 . S
C1326 H1303 0.950 . S
C1326 C1325 1.397 . S
C1326 C1327 1.334 . S
C1327 H1304 0.950 . S
C1327 C1326 1.334 . S
C1327 C1328 1.287 . S
C1328 C1327 1.287 . S
C1328 C1329 1.524 . S
C1328 H1347 0.913 . S
C1329 H1305 0.950 . S
C1329 C1328 1.524 . S
C1329 C1330 1.415 . S
C1330 H1306 0.950 . S
C1330 C1325 1.363 . S
C1330 C1329 1.415 . S
C1331 H1307 0.951 . S
C1331 C1332 1.366 . S
C1331 C1333 1.388 . S
C1332 C1331 1.366 . S
C1332 C1336 1.385 . S
C1333 H1308 0.951 . S
C1333 C1331 1.388 . S
C1333 C1334 1.366 . S
C1334 C1333 1.366 . S
C1334 C1335 1.414 . S
C1334 C1337 1.499 . S
C1335 H1309 0.950 . S
C1335 C1334 1.414 . S
C1335 C1336 1.374 . S
C1336 H1310 0.950 . S
C1336 C1332 1.385 . S
C1336 C1335 1.374 . S
C1337 C1334 1.499 . S
C1337 C1338 1.373 . S
C1337 C1339 1.389 . S
C1338 H1311 0.950 . S
C1338 C1324 1.377 . S
C1338 C1337 1.373 . S
C1339 C1323 1.377 . S
C1339 C1337 1.389 . S
C1339 C1340 1.524 . S
C1340 C1339 1.524 . S
C1340 C1341 1.397 . S
C1340 C1345 1.363 . S
C1341 H1312 0.950 . S
C1341 C1340 1.397 . S
C1341 C1342 1.334 . S
C1342 H1313 0.950 . S
C1342 C1341 1.334 . S
C1342 C1343 1.287 . S
C1343 C1342 1.287 . S
C1343 C1344 1.524 . S
C1343 H1346 0.999 . S
C1344 H1314 0.950 . S
C1344 C1343 1.524 . S
C1344 C1345 1.415 . S
C1345 H1315 0.950 . S
C1345 C1340 1.363 . S
C1345 C1344 1.415 . S
H1346 C1343 0.999 . S
H1347 C1328 0.913 . S
H1348 C1366 0.951 . S
H1349 C1368 0.951 . S
H1350 C1370 0.950 . S
H1351 C1371 0.950 . S
H1352 C1373 0.950 . S
H1353 C1376 0.950 . S
H1354 C1377 0.950 . S
H1355 C1379 0.950 . S
H1356 C1380 0.950 . S
H1357 C1381 0.951 . S
H1358 C1383 0.951 . S
H1359 C1385 0.950 . S
H1360 C1386 0.950 . S
H1361 C1388 0.950 . S
H1362 C1391 0.950 . S
H1363 C1392 0.950 . S
H1364 C1394 0.950 . S
H1365 C1395 0.950 . S
C1366 H1348 0.951 . S
C1366 C1367 1.366 . S
C1366 C1368 1.388 . S
C1367 C1366 1.366 . S
C1367 C1371 1.385 . S
C1368 H1349 0.951 . S
C1368 C1366 1.388 . S
C1368 C1369 1.366 . S
C1369 C1368 1.366 . S
C1369 C1370 1.414 . S
C1369 C1372 1.499 . S
C1370 H1350 0.950 . S
C1370 C1369 1.414 . S
C1370 C1371 1.374 . S
C1371 H1351 0.950 . S
C1371 C1367 1.385 . S
C1371 C1370 1.374 . S
C1372 C1369 1.499 . S
C1372 C1373 1.373 . S
C1372 C1374 1.389 . S
C1373 H1352 0.950 . S
C1373 C1372 1.373 . S
C1373 C1389 1.377 . S
C1374 C1372 1.389 . S
C1374 C1375 1.524 . S
C1374 C1388 1.377 . S
C1375 C1374 1.524 . S
C1375 C1376 1.397 . S
C1375 C1380 1.363 . S
C1376 H1353 0.950 . S
C1376 C1375 1.397 . S
C1376 C1377 1.334 . S
C1377 H1354 0.950 . S
C1377 C1376 1.334 . S
C1377 C1378 1.287 . S
C1378 C1377 1.287 . S
C1378 C1379 1.524 . S
C1378 H1397 0.913 . S
C1379 H1355 0.950 . S
C1379 C1378 1.524 . S
C1379 C1380 1.415 . S
C1380 H1356 0.950 . S
C1380 C1375 1.363 . S
C1380 C1379 1.415 . S
C1381 H1357 0.951 . S
C1381 C1382 1.366 . S
C1381 C1383 1.388 . S
C1382 C1381 1.366 . S
C1382 C1386 1.385 . S
C1383 H1358 0.951 . S
C1383 C1381 1.388 . S
C1383 C1384 1.366 . S
C1384 C1383 1.366 . S
C1384 C1385 1.414 . S
C1384 C1387 1.499 . S
C1385 H1359 0.950 . S
C1385 C1384 1.414 . S
C1385 C1386 1.374 . S
C1386 H1360 0.950 . S
C1386 C1382 1.385 . S
C1386 C1385 1.374 . S
C1387 C1384 1.499 . S
C1387 C1388 1.373 . S
C1387 C1389 1.389 . S
C1388 H1361 0.950 . S
C1388 C1374 1.377 . S
C1388 C1387 1.373 . S
C1389 C1373 1.377 . S
C1389 C1387 1.389 . S
C1389 C1390 1.524 . S
C1390 C1389 1.524 . S
C1390 C1391 1.397 . S
C1390 C1395 1.363 . S
C1391 H1362 0.950 . S
C1391 C1390 1.397 . S
C1391 C1392 1.334 . S
C1392 H1363 0.950 . S
C1392 C1391 1.334 . S
C1392 C1393 1.287 . S
C1393 C1392 1.287 . S
C1393 C1394 1.524 . S
C1393 H1396 0.999 . S
C1394 H1364 0.950 . S
C1394 C1393 1.524 . S
C1394 C1395 1.415 . S
C1395 H1365 0.950 . S
C1395 C1390 1.363 . S
C1395 C1394 1.415 . S
H1396 C1393 0.999 . S
H1397 C1378 0.913 . S
H1398 C1416 0.951 . S
H1399 C1418 0.951 1_655 S
H1400 C1420 0.950 . S
H1401 C1421 0.950 . S
H1402 C1423 0.950 . S
H1403 C1426 0.950 . S
H1404 C1427 0.950 . S
H1405 C1429 0.950 . S
H1406 C1430 0.950 . S
H1407 C1431 0.951 . S
H1408 C1433 0.951 . S
H1409 C1435 0.950 . S
H1410 C1436 0.950 . S
H1411 C1438 0.950 . S
H1412 C1441 0.950 . S
H1413 C1442 0.950 . S
H1414 C1444 0.950 . S
H1415 C1445 0.950 . S
C1416 H1398 0.951 . S
C1416 C1417 1.366 . S
C1416 C1418 1.388 . S
C1417 C1416 1.366 . S
C1417 C1421 1.385 . S
C1418 H1399 0.951 1_455 S
C1418 C1416 1.388 . S
C1418 C1419 1.366 1_455 S
C1419 C1418 1.366 1_655 S
C1419 C1420 1.414 1_655 S
C1419 C1422 1.499 . S
C1420 H1400 0.950 . S
C1420 C1419 1.414 1_455 S
C1420 C1421 1.374 . S
C1421 H1401 0.950 . S
C1421 C1417 1.385 . S
C1421 C1420 1.374 . S
C1422 C1419 1.499 . S
C1422 C1423 1.373 . S
C1422 C1424 1.389 . S
C1423 H1402 0.950 . S
C1423 C1422 1.373 . S
C1423 C1439 1.377 . S
C1424 C1422 1.389 . S
C1424 C1425 1.524 . S
C1424 C1438 1.377 . S
C1425 C1424 1.524 . S
C1425 C1426 1.397 1_655 S
C1425 C1430 1.363 . S
C1426 H1403 0.950 . S
C1426 C1425 1.397 1_455 S
C1426 C1427 1.334 . S
C1427 H1404 0.950 . S
C1427 C1426 1.334 . S
C1427 C1428 1.287 . S
C1428 C1427 1.287 . S
C1428 C1429 1.524 1_455 S
C1428 H1447 0.913 . S
C1429 H1405 0.950 . S
C1429 C1428 1.524 1_655 S
C1429 C1430 1.415 . S
C1430 H1406 0.950 . S
C1430 C1425 1.363 . S
C1430 C1429 1.415 . S
C1431 H1407 0.951 . S
C1431 C1432 1.366 . S
C1431 C1433 1.388 . S
C1432 C1431 1.366 . S
C1432 C1436 1.385 . S
C1433 H1408 0.951 . S
C1433 C1431 1.388 . S
C1433 C1434 1.366 . S
C1434 C1433 1.366 . S
C1434 C1435 1.414 . S
C1434 C1437 1.499 . S
C1435 H1409 0.950 . S
C1435 C1434 1.414 . S
C1435 C1436 1.374 . S
C1436 H1410 0.950 . S
C1436 C1432 1.385 . S
C1436 C1435 1.374 . S
C1437 C1434 1.499 . S
C1437 C1438 1.373 . S
C1437 C1439 1.389 . S
C1438 H1411 0.950 . S
C1438 C1424 1.377 . S
C1438 C1437 1.373 . S
C1439 C1423 1.377 . S
C1439 C1437 1.389 . S
C1439 C1440 1.524 . S
C1440 C1439 1.524 . S
C1440 C1441 1.397 . S
C1440 C1445 1.363 . S
C1441 H1412 0.950 . S
C1441 C1440 1.397 . S
C1441 C1442 1.334 . S
C1442 H1413 0.950 . S
C1442 C1441 1.334 . S
C1442 C1443 1.287 . S
C1443 C1442 1.287 . S
C1443 C1444 1.524 . S
C1443 H1446 0.999 . S
C1444 H1414 0.950 . S
C1444 C1443 1.524 . S
C1444 C1445 1.415 . S
C1445 H1415 0.950 . S
C1445 C1440 1.363 . S
C1445 C1444 1.415 . S
H1446 C1443 0.999 . S
H1447 C1428 0.913 . S
H1448 C1466 0.951 . S
H1449 C1468 0.951 . S
H1450 C1470 0.950 . S
H1451 C1471 0.950 . S
H1452 C1473 0.950 . S
H1453 C1476 0.950 . S
H1454 C1477 0.950 . S
H1455 C1479 0.950 . S
H1456 C1480 0.950 . S
H1457 C1481 0.951 . S
H1458 C1483 0.951 . S
H1459 C1485 0.950 . S
H1460 C1486 0.950 . S
H1461 C1488 0.950 . S
H1462 C1491 0.950 . S
H1463 C1492 0.950 . S
H1464 C1494 0.950 . S
H1465 C1495 0.950 . S
C1466 H1448 0.951 . S
C1466 C1467 1.366 . S
C1466 C1468 1.388 . S
C1467 C1466 1.366 . S
C1467 C1471 1.385 . S
C1468 H1449 0.951 . S
C1468 C1466 1.388 . S
C1468 C1469 1.366 1_565 S
C1469 C1468 1.366 1_545 S
C1469 C1470 1.414 . S
C1469 C1472 1.499 . S
C1470 H1450 0.950 . S
C1470 C1469 1.414 . S
C1470 C1471 1.374 1_545 S
C1471 H1451 0.950 . S
C1471 C1467 1.385 . S
C1471 C1470 1.374 1_565 S
C1472 C1469 1.499 . S
C1472 C1473 1.373 . S
C1472 C1474 1.389 . S
C1473 H1452 0.950 . S
C1473 C1472 1.373 . S
C1473 C1489 1.377 . S
C1474 C1472 1.389 . S
C1474 C1475 1.524 . S
C1474 C1488 1.377 . S
C1475 C1474 1.524 . S
C1475 C1476 1.397 . S
C1475 C1480 1.363 . S
C1476 H1453 0.950 . S
C1476 C1475 1.397 . S
C1476 C1477 1.334 1_545 S
C1477 H1454 0.950 . S
C1477 C1476 1.334 1_565 S
C1477 C1478 1.287 . S
C1478 C1477 1.287 . S
C1478 C1479 1.524 . S
C1478 H1497 0.913 . S
C1479 H1455 0.950 . S
C1479 C1478 1.524 . S
C1479 C1480 1.415 1_565 S
C1480 H1456 0.950 . S
C1480 C1475 1.363 . S
C1480 C1479 1.415 1_545 S
C1481 H1457 0.951 . S
C1481 C1482 1.366 . S
C1481 C1483 1.388 . S
C1482 C1481 1.366 . S
C1482 C1486 1.385 . S
C1483 H1458 0.951 . S
C1483 C1481 1.388 . S
C1483 C1484 1.366 . S
C1484 C1483 1.366 . S
C1484 C1485 1.414 . S
C1484 C1487 1.499 . S
C1485 H1459 0.950 . S
C1485 C1484 1.414 . S
C1485 C1486 1.374 . S
C1486 H1460 0.950 . S
C1486 C1482 1.385 . S
C1486 C1485 1.374 . S
C1487 C1484 1.499 . S
C1487 C1488 1.373 . S
C1487 C1489 1.389 . S
C1488 H1461 0.950 . S
C1488 C1474 1.377 . S
C1488 C1487 1.373 . S
C1489 C1473 1.377 . S
C1489 C1487 1.389 . S
C1489 C1490 1.524 . S
C1490 C1489 1.524 . S
C1490 C1491 1.397 . S
C1490 C1495 1.363 . S
C1491 H1462 0.950 . S
C1491 C1490 1.397 . S
C1491 C1492 1.334 . S
C1492 H1463 0.950 . S
C1492 C1491 1.334 . S
C1492 C1493 1.287 . S
C1493 C1492 1.287 . S
C1493 C1494 1.524 . S
C1493 H1496 0.999 . S
C1494 H1464 0.950 . S
C1494 C1493 1.524 . S
C1494 C1495 1.415 . S
C1495 H1465 0.950 . S
C1495 C1490 1.363 . S
C1495 C1494 1.415 . S
H1496 C1493 0.999 . S
H1497 C1478 0.913 . S
H1498 C1516 0.951 . S
H1499 C1518 0.951 . S
H1500 C1520 0.950 1_545 S
H1501 C1521 0.950 . S
H1502 C1523 0.950 . S
H1503 C1526 0.950 . S
H1504 C1527 0.950 . S
H1505 C1529 0.950 . S
H1506 C1530 0.950 . S
H1507 C1531 0.951 . S
H1508 C1533 0.952 1_655 S
H1509 C1535 0.950 . S
H1510 C1536 0.950 . S
H1511 C1538 0.950 . S
H1512 C1541 0.950 . S
H1513 C1542 0.950 . S
H1514 C1544 0.950 . S
H1515 C1545 0.950 . S
C1516 H1498 0.951 . S
C1516 C1517 1.366 . S
C1516 C1518 1.388 . S
C1517 C1516 1.366 . S
C1517 C1521 1.385 . S
C1518 H1499 0.951 . S
C1518 C1516 1.388 . S
C1518 C1519 1.366 1_565 S
C1519 C1518 1.366 1_545 S
C1519 C1520 1.414 1_545 S
C1519 C1522 1.499 . S
C1520 H1500 0.950 1_565 S
C1520 C1519 1.414 1_565 S
C1520 C1521 1.374 . S
C1521 H1501 0.950 . S
C1521 C1517 1.385 . S
C1521 C1520 1.374 . S
C1522 C1519 1.499 . S
C1522 C1523 1.373 . S
C1522 C1524 1.389 . S
C1523 H1502 0.950 . S
C1523 C1522 1.373 . S
C1523 C1539 1.377 . S
C1524 C1522 1.389 . S
C1524 C1525 1.524 . S
C1524 C1538 1.377 . S
C1525 C1524 1.524 . S
C1525 C1526 1.397 1_545 S
C1525 C1530 1.363 . S
C1526 H1503 0.950 . S
C1526 C1525 1.397 1_565 S
C1526 C1527 1.334 . S
C1527 H1504 0.950 . S
C1527 C1526 1.334 . S
C1527 C1528 1.287 . S
C1528 C1527 1.287 . S
C1528 C1529 1.524 . S
C1528 H1547 0.913 . S
C1529 H1505 0.950 . S
C1529 C1528 1.524 . S
C1529 C1530 1.415 1_565 S
C1530 H1506 0.950 . S
C1530 C1525 1.363 . S
C1530 C1529 1.415 1_545 S
C1531 H1507 0.951 . S
C1531 C1532 1.366 . S
C1531 C1533 1.386 . S
C1532 C1531 1.366 . S
C1532 C1536 1.385 . S
C1533 H1508 0.952 1_455 S
C1533 C1531 1.386 . S
C1533 C1534 1.366 1_455 S
C1534 C1533 1.366 1_655 S
C1534 C1535 1.414 1_655 S
C1534 C1537 1.499 . S
C1535 H1509 0.950 . S
C1535 C1534 1.414 1_455 S
C1535 C1536 1.374 . S
C1536 H1510 0.950 . S
C1536 C1532 1.385 . S
C1536 C1535 1.374 . S
C1537 C1534 1.499 . S
C1537 C1538 1.373 . S
C1537 C1539 1.389 . S
C1538 H1511 0.950 . S
C1538 C1524 1.377 . S
C1538 C1537 1.373 . S
C1539 C1523 1.377 . S
C1539 C1537 1.389 . S
C1539 C1540 1.524 . S
C1540 C1539 1.524 . S
C1540 C1541 1.397 . S
C1540 C1545 1.363 . S
C1541 H1512 0.950 . S
C1541 C1540 1.397 . S
C1541 C1542 1.334 . S
C1542 H1513 0.950 . S
C1542 C1541 1.334 . S
C1542 C1543 1.287 . S
C1543 C1542 1.287 . S
C1543 C1544 1.524 . S
C1543 H1546 0.999 . S
C1544 H1514 0.950 . S
C1544 C1543 1.524 . S
C1544 C1545 1.415 . S
C1545 H1515 0.950 . S
C1545 C1540 1.363 . S
C1545 C1544 1.415 . S
H1546 C1543 0.999 . S
H1547 C1528 0.913 . S
C217 C18 1.148 . S
C232 C164 1.131 . S
C267 C30 1.148 . S
C282 C194 1.130 . S
C317 C142 1.130 . S
C332 C62 1.148 . S
C367 C169 1.259 . S
C382 C51 1.254 . S
C417 C183 1.259 . S
C432 C7 1.254 . S
C467 C147 1.259 . S
C482 C43 1.254 . S
C517 C40 1.130 . S
C532 C84 1.149 . S
C567 C106 1.149 . S
C582 C54 1.129 . S
C617 C10 1.130 . S
C632 C120 1.148 . S
C667 C29 1.259 . S
C682 C125 1.253 . S
C717 C73 1.253 . S
C732 C59 1.260 . S
C767 C15 1.260 . S
C782 C95 1.253 . S
C817 C150 1.148 . S
C832 C98 1.130 . S
C867 C118 1.130 . S
C882 C172 1.148 . S
C917 C184 1.148 . S
C932 C76 1.131 . S
C967 C197 1.253 . S
C982 C103 1.259 . S
C1017 C131 1.260 . S
C1032 C139 1.253 . S
C1067 C81 1.260 . S
C1082 C161 1.253 . S
C1117 C8 0.713 . S
C1132 C37 0.716 . S
C1167 C65 0.716 . S
C1182 C32 0.713 . S
C1217 C52 0.713 . S
C1232 C21 0.716 . S
C1267 C109 0.716 . S
C1282 C74 0.713 . S
C1317 C117 0.715 . S
C1332 C96 0.714 . S
C1367 C128 0.713 . S
C1382 C87 0.717 . S
C1417 C175 0.716 . S
C1432 C140 0.713 . S
C1467 C162 0.713 . S
C1482 C191 0.716 . S
C1517 C153 0.717 . S
C1532 C186 0.713 . S
