# Generated by pormake.
# Topology snz, (6)-cn, num edge types: 1
# Building blocks:
#     Node 0, Type 0, BuildingBlock: HISSIN_clean_sbu_0, # of connection points: 6
#     Node 1, Type 0, BuildingBlock: HISSIN_clean_sbu_0, # of connection points: 6
#     Node 2, Type 0, BuildingBlock: HISSIN_clean_sbu_0, # of connection points: 6
#     Node 3, Type 0, BuildingBlock: HISSIN_clean_sbu_0, # of connection points: 6
#     Node 4, Type 0, BuildingBlock: HISSIN_clean_sbu_0, # of connection points: 6
#     Node 5, Type 0, BuildingBlock: HISSIN_clean_sbu_0, # of connection points: 6
#     Node 6, Type 0, BuildingBlock: HISSIN_clean_sbu_0, # of connection points: 6
#     Node 7, Type 0, BuildingBlock: HISSIN_clean_sbu_0, # of connection points: 6
#     Node 8, Type 0, BuildingBlock: HISSIN_clean_sbu_0, # of connection points: 6
#     Edge 9, Type (0, 0), BuildingBlock: UVAHIK_clean_linker_0, # of connection points: 2
#     Edge 10, Type (0, 0), BuildingBlock: UVAHIK_clean_linker_0, # of connection points: 2
#     Edge 11, Type (0, 0), BuildingBlock: UVAHIK_clean_linker_0, # of connection points: 2
#     Edge 12, Type (0, 0), BuildingBlock: UVAHIK_clean_linker_0, # of connection points: 2
#     Edge 13, Type (0, 0), BuildingBlock: UVAHIK_clean_linker_0, # of connection points: 2
#     Edge 14, Type (0, 0), BuildingBlock: UVAHIK_clean_linker_0, # of connection points: 2
#     Edge 15, Type (0, 0), BuildingBlock: UVAHIK_clean_linker_0, # of connection points: 2
#     Edge 16, Type (0, 0), BuildingBlock: UVAHIK_clean_linker_0, # of connection points: 2
#     Edge 17, Type (0, 0), BuildingBlock: UVAHIK_clean_linker_0, # of connection points: 2
#     Edge 18, Type (0, 0), BuildingBlock: UVAHIK_clean_linker_0, # of connection points: 2
#     Edge 19, Type (0, 0), BuildingBlock: UVAHIK_clean_linker_0, # of connection points: 2
#     Edge 20, Type (0, 0), BuildingBlock: UVAHIK_clean_linker_0, # of connection points: 2
#     Edge 21, Type (0, 0), BuildingBlock: UVAHIK_clean_linker_0, # of connection points: 2
#     Edge 22, Type (0, 0), BuildingBlock: UVAHIK_clean_linker_0, # of connection points: 2
#     Edge 23, Type (0, 0), BuildingBlock: UVAHIK_clean_linker_0, # of connection points: 2
#     Edge 24, Type (0, 0), BuildingBlock: UVAHIK_clean_linker_0, # of connection points: 2
#     Edge 25, Type (0, 0), BuildingBlock: UVAHIK_clean_linker_0, # of connection points: 2
#     Edge 26, Type (0, 0), BuildingBlock: UVAHIK_clean_linker_0, # of connection points: 2
#     Edge 27, Type (0, 0), BuildingBlock: UVAHIK_clean_linker_0, # of connection points: 2
#     Edge 28, Type (0, 0), BuildingBlock: UVAHIK_clean_linker_0, # of connection points: 2
#     Edge 29, Type (0, 0), BuildingBlock: UVAHIK_clean_linker_0, # of connection points: 2
#     Edge 30, Type (0, 0), BuildingBlock: UVAHIK_clean_linker_0, # of connection points: 2
#     Edge 31, Type (0, 0), BuildingBlock: UVAHIK_clean_linker_0, # of connection points: 2
#     Edge 32, Type (0, 0), BuildingBlock: UVAHIK_clean_linker_0, # of connection points: 2
#     Edge 33, Type (0, 0), BuildingBlock: UVAHIK_clean_linker_0, # of connection points: 2
#     Edge 34, Type (0, 0), BuildingBlock: UVAHIK_clean_linker_0, # of connection points: 2
#     Edge 35, Type (0, 0), BuildingBlock: UVAHIK_clean_linker_0, # of connection points: 2
# Relax obj value: 0.291
# Max RMSD: 0.218
# Mean RMSD: 0.142
data_MOF--net-snz--node1-HISSIN_clean_sbu_0--edge1-UVAHIK_clean_linker_0
_symmetry_space_group_name_H-M    P1
_symmetry_Int_Tables_number       1
_symmetry_cell_setting            triclinic
loop_
_symmetry_equiv_pos_as_xyz
'x, y, z'
_cell_length_a     84.035317
_cell_length_b     69.551188
_cell_length_c     20.626082
_cell_angle_alpha  95.313215
_cell_angle_beta   96.370982
_cell_angle_gamma 120.85184
loop_
_atom_site_label
_atom_site_type_symbol
_atom_site_fract_x
_atom_site_fract_y
_atom_site_fract_z
_atom_type_partial_charge
Eu0 Eu 0.10355 0.49895 0.19817 0.0
Eu1 Eu 0.06611 0.50284 0.18181 0.0
C2 C 0.08375 0.49835 0.32655 0.0
C3 C 0.13877 0.48018 0.24665 0.0
C4 C 0.13148 0.47016 0.30096 0.0
C5 C 0.15831 0.46373 0.25072 0.0
C6 C 0.13765 0.4571 0.33013 0.0
C7 C 0.15218 0.4768 0.2218 0.0
C8 C 0.15116 0.4537 0.30536 0.0
C9 C 0.13285 0.4944 0.21562 0.0
O10 O 0.08991 0.53841 0.1797 0.0
O11 O 0.11479 0.53658 0.22919 0.0
C12 C 0.10747 0.54846 0.21069 0.0
O13 O 0.10189 0.50817 0.09419 0.0
O14 O 0.05106 0.51845 0.21737 0.0
O15 O 0.03758 0.49133 0.13209 0.0
O16 O 0.07107 0.4988 0.07527 0.0
C17 C 0.08667 0.5037 0.05292 0.0
O18 O 0.07898 0.46404 0.1491 0.0
O19 O 0.05481 0.46561 0.18466 0.0
O20 O 0.07519 0.50704 0.29409 0.0
O21 O 0.11952 0.48443 0.16336 0.0
O22 O 0.13081 0.50841 0.25509 0.0
O23 O 0.0923 0.48998 0.29477 0.0
C24 C 0.02879 0.51896 0.13763 0.0
C25 C 0.02981 0.52211 0.07155 0.0
C26 C 0.01197 0.53873 0.14478 0.0
C27 C 0.02177 0.53331 1.04213 0.0
C28 C 0.01992 0.5275 0.17396 0.0
C29 C 0.0126 0.54161 0.07827 0.0
C30 C 0.03644 0.50654 0.16979 0.0
C31 C 0.06135 0.45394 0.15715 0.0
H32 H 0.12104 0.47244 0.32084 0.0
H33 H 0.16889 0.46179 0.2308 0.0
H34 H 0.13166 0.44944 0.37156 0.0
H35 H 0.15803 0.48443 0.18008 0.0
H36 H 0.03664 0.51574 1.04247 0.0
H37 H 1.00538 0.54527 0.1746 0.0
H38 H 0.02241 0.53504 0.9907 0.0
H39 H 0.01906 0.52537 0.22509 0.0
Eu40 Eu 0.6086 0.51516 1.04458 0.0
Eu41 Eu 0.5688 0.51359 1.03066 0.0
C42 C 0.58928 0.51685 0.90032 0.0
C43 C 0.65926 0.52998 1.03319 0.0
C44 C 0.6611 0.53946 0.97515 0.0
C45 C 0.69289 0.54426 0.05233 0.0
C46 C 0.67869 0.55108 0.95556 0.0
C47 C 0.67531 0.5326 0.07168 0.0
C48 C 0.69483 0.55356 0.99378 0.0
C49 C 0.6408 0.51694 0.05389 0.0
O50 O 0.56179 0.47862 1.04662 0.0
O51 O 0.58536 0.47844 1.00249 0.0
C52 C 0.56853 0.46742 1.01806 0.0
O53 O 0.59923 0.50702 0.1449 0.0
O54 O 0.53899 0.49607 0.98541 0.0
O55 O 0.55133 0.52668 0.05844 0.0
O56 O 0.5788 0.51963 0.14268 0.0
C57 C 0.58917 0.51327 0.17594 0.0
O58 O 0.61703 0.55182 0.0744 0.0
O59 O 0.59018 0.55055 1.0297 0.0
O60 O 0.57334 0.50941 0.9231 0.0
O61 O 0.63705 0.52774 0.09866 0.0
O62 O 0.62616 0.50358 1.00738 0.0
O63 O 0.60518 0.52396 0.94157 0.0
C64 C 0.51997 0.49785 0.05862 0.0
C65 C 0.52058 0.48499 0.10635 0.0
C66 C 0.48917 0.48901 0.07889 0.0
C67 C 0.50558 0.47422 0.14017 0.0
C68 C 0.50419 0.49978 1.04509 0.0
C69 C 0.48967 0.4761 0.12698 0.0
C70 C 0.53578 0.50933 1.02325 0.0
C71 C 0.60809 0.56212 0.05798 0.0
H72 H 0.64893 0.53778 0.94478 0.0
H73 H 0.7049 0.54556 0.08259 0.0
H74 H 0.67967 0.55824 0.91068 0.0
H75 H 0.67421 0.52539 0.11655 0.0
H76 H 0.53266 0.48328 0.11738 0.0
H77 H 0.4773 0.49111 0.06806 0.0
H78 H 0.50637 0.4642 0.17614 0.0
H79 H 0.50351 0.5097 1.00857 0.0
Eu80 Eu 0.5639 0.04574 0.89277 0.0
Eu81 Eu 0.60669 0.09123 0.9206 0.0
C82 C 0.58605 0.07104 1.0465 0.0
C83 C 0.51374 1.00166 0.91206 0.0
C84 C 0.51599 0.01266 0.97602 0.0
C85 C 0.48175 0.97266 0.91951 0.0
C86 C 0.5012 1.00364 1.01164 0.0
C87 C 0.49652 0.98169 0.884 0.0
C88 C 0.48391 0.98342 0.98397 0.0
C89 C 0.52932 0.01049 0.87474 0.0
O90 O 0.61014 0.06193 0.93824 0.0
O91 O 0.58246 0.03172 0.87797 0.0
C92 C 0.59962 0.04036 0.91106 0.0
O93 O 0.56888 0.05581 0.79015 0.0
O94 O 0.63489 0.1129 0.98197 0.0
O95 O 0.62917 0.12047 0.88642 0.0
O96 O 0.60112 0.07597 0.81085 0.0
C97 C 0.585 0.0658 0.76823 0.0
O98 O 0.56117 0.07508 0.93094 0.0
O99 O 0.58659 0.10393 0.89826 0.0
O100 O 0.59794 0.08945 1.02359 0.0
O101 O 0.53378 0.02932 0.85296 0.0
O102 O 0.54418 0.01036 0.89996 0.0
O103 O 0.57377 0.05195 1.00497 0.0
C104 C 0.66025 0.12736 0.92118 0.0
C105 C 0.6653 0.13126 0.85865 0.0
C106 C 0.6901 0.12977 0.95728 0.0
C107 C 0.68247 0.13432 0.84565 0.0
C108 C 0.67296 0.12676 0.97032 0.0
C109 C 0.69519 0.13365 0.89475 0.0
C110 C 0.64219 0.12465 0.93609 0.0
C111 C 0.56959 0.09512 0.9132 0.0
H112 H 0.52924 0.02808 0.9986 0.0
H113 H 0.46857 0.95729 0.89619 0.0
H114 H 0.50345 0.01226 0.06133 0.0
H115 H 0.49451 0.973 0.83463 0.0
H116 H 0.65599 0.13198 0.81954 0.0
H117 H 0.69953 0.12948 0.99688 0.0
H118 H 0.68567 0.137 0.79665 0.0
H119 H 0.66973 0.1241 1.01932 0.0
Eu120 Eu 0.75427 0.85315 0.28522 0.0
Eu121 Eu 0.71706 0.85872 0.26794 0.0
C122 C 0.73388 0.85332 0.41441 0.0
C123 C 0.79023 0.83474 0.32842 0.0
C124 C 0.80866 0.84651 0.36511 0.0
C125 C 0.78734 0.799 0.34613 0.0
C126 C 0.81644 0.83471 0.39164 0.0
C127 C 0.77952 0.81085 0.31977 0.0
C128 C 0.806 0.81077 0.38171 0.0
C129 C 0.78305 0.8477 0.29659 0.0
O130 O 0.7419 0.8947 0.30446 0.0
O131 O 0.76734 0.89109 0.29514 0.0
C132 C 0.76016 0.90357 0.30881 0.0
O133 O 0.74707 0.852 0.17338 0.0
O134 O 0.7014 0.87367 0.3026 0.0
O135 O 0.68972 0.84934 0.21155 0.0
O136 O 0.72705 0.86531 0.16885 0.0
C137 C 0.73719 0.8589 0.13951 0.0
O138 O 0.72983 0.81789 0.28487 0.0
O139 O 0.70501 0.8207 0.23986 0.0
O140 O 0.71968 0.85207 0.37488 0.0
O141 O 0.76839 0.83653 0.24878 0.0
O142 O 0.78254 0.86328 0.33499 0.0
O143 O 0.74852 0.85504 0.39104 0.0
C144 C 0.68243 0.87845 0.21814 0.0
C145 C 0.67466 0.87301 0.15014 0.0
C146 C 0.67733 0.91006 0.22765 0.0
C147 C 0.66831 0.88593 0.12131 0.0
C148 C 0.68368 0.89715 0.25646 0.0
C149 C 0.66944 0.90456 0.15974 0.0
C150 C 0.68814 0.86399 0.25001 0.0
C151 C 0.71213 0.80842 0.25631 0.0
H152 H 0.81719 0.86492 0.37247 0.0
H153 H 0.77892 0.78059 0.33702 0.0
H154 H 0.83069 0.84439 0.41986 0.0
H155 H 0.76525 0.80128 0.29164 0.0
H156 H 0.67321 0.85855 0.11917 0.0
H157 H 0.67865 0.92443 0.25871 0.0
H158 H 0.66208 0.88095 0.06913 0.0
H159 H 0.68942 0.90171 0.30906 0.0
Eu160 Eu 0.25046 0.84317 0.43885 0.0
Eu161 Eu 0.21073 0.84183 0.42508 0.0
C162 C 0.23008 0.8437 0.29362 0.0
C163 C 0.29924 0.85879 0.41071 0.0
C164 C 0.29874 0.87189 0.36361 0.0
C165 C 0.33003 0.8676 0.39029 0.0
C166 C 0.31378 0.88277 0.33002 0.0
C167 C 0.31497 0.85674 0.42386 0.0
C168 C 0.32963 0.88075 0.34282 0.0
C169 C 0.28339 0.8472 0.44585 0.0
O170 O 0.20228 0.8052 0.39453 0.0
O171 O 0.22897 0.80624 0.43976 0.0
C172 C 0.21109 0.79477 0.41111 0.0
O173 O 0.24603 0.84741 0.5465 0.0
O174 O 0.18197 0.82859 0.37272 0.0
O175 O 0.19343 0.85397 0.46147 0.0
O176 O 0.21423 0.83316 0.52822 0.0
C177 C 0.23012 0.84013 0.56937 0.0
O178 O 0.25771 0.87828 0.42372 0.0
O179 O 0.23397 0.87862 0.4662 0.0
O180 O 0.21997 0.84987 0.32457 0.0
O181 O 0.28024 0.86039 0.48424 0.0
O182 O 0.26782 0.83 0.4103 0.0
O183 O 0.24048 0.83737 0.32687 0.0
C184 C 0.16019 0.82687 0.44041 0.0
C185 C 0.15914 0.82868 0.50814 0.0
C186 C 0.12592 0.80187 0.41412 0.0
C187 C 0.14166 0.81738 0.5285 0.0
C188 C 0.14339 0.81329 0.39376 0.0
C189 C 0.1248 0.80391 0.48175 0.0
C190 C 0.17843 0.83972 0.41727 0.0
C191 C 0.25092 0.88955 0.45143 0.0
H192 H 0.2867 0.87371 0.35289 0.0
H193 H 0.34185 0.8654 0.4008 0.0
H194 H 0.31306 0.89296 0.29452 0.0
H195 H 0.31557 0.84663 0.4599 0.0
H196 H 0.17179 0.83898 0.54553 0.0
H197 H 0.11325 0.79189 0.37669 0.0
H198 H 0.14136 0.81911 0.581 0.0
H199 H 0.14373 0.81173 0.34125 0.0
Eu200 Eu 0.2124 0.2662 0.54905 0.0
Eu201 Eu 0.25535 0.31147 0.57678 0.0
C202 C 0.23399 0.29161 0.70139 0.0
C203 C 0.15883 0.22977 0.54489 0.0
C204 C 0.158 0.24172 0.60204 0.0
C205 C 0.12483 0.21227 0.51008 0.0
C206 C 0.14075 0.23883 0.61325 0.0
C207 C 0.14206 0.2151 0.49906 0.0
C208 C 0.12382 0.22401 0.5675 0.0
C209 C 0.17693 0.23253 0.53169 0.0
O210 O 0.25781 0.28183 0.53894 0.0
O211 O 0.23245 0.25366 0.57381 0.0
C212 C 0.24931 0.26202 0.55809 0.0
O213 O 0.22127 0.26799 0.4462 0.0
O214 O 0.2854 0.32753 0.61693 0.0
O215 O 0.27536 0.34677 0.56969 0.0
O216 O 0.24555 0.30541 0.46469 0.0
C217 C 0.2332 0.28636 0.42321 0.0
O218 O 0.20893 0.29554 0.53307 0.0
O219 O 0.23703 0.32598 0.59044 0.0
O220 O 0.25013 0.30159 0.67952 0.0
O221 O 0.18437 0.24442 0.48629 0.0
O222 O 0.18974 0.23705 0.58255 0.0
O223 O 0.21787 0.28137 0.65877 0.0
C224 C 0.30568 0.35497 0.55784 0.0
C225 C 0.30336 0.34378 0.4941 0.0
C226 C 0.33781 0.38354 0.55038 0.0
C227 C 0.31818 0.35248 0.45861 0.0
C228 C 0.32299 0.37484 0.58573 0.0
C229 C 0.33561 0.37252 0.48625 0.0
C230 C 0.29009 0.3464 0.59508 0.0
C231 C 0.21967 0.3172 0.55907 0.0
H232 H 0.1707 0.25326 0.63822 0.0
H233 H 0.11232 0.20104 0.47288 0.0
H234 H 0.14068 0.24802 0.65844 0.0
H235 H 0.14228 0.20582 0.45433 0.0
H236 H 0.29007 0.32838 0.47175 0.0
H237 H 0.35088 0.39917 0.5729 0.0
H238 H 0.31604 0.34339 0.40975 0.0
H239 H 0.325 0.38377 0.63474 0.0
Eu240 Eu 0.41456 0.1813 0.66414 0.0
Eu241 Eu 0.40339 0.17425 0.80723 0.0
C242 C 0.38267 0.13217 0.6871 0.0
C243 C 0.40201 0.16125 0.48881 0.0
C244 C 0.38468 0.14632 0.50681 0.0
C245 C 0.3913 0.13681 0.38179 0.0
C246 C 0.37101 0.12648 0.46367 0.0
C247 C 0.40524 0.15651 0.42587 0.0
C248 C 0.37426 0.12148 0.40107 0.0
C249 C 0.41706 0.17973 0.53999 0.0
O250 O 0.42203 0.15983 0.79308 0.0
O251 O 0.43945 0.18271 0.72441 0.0
C252 C 0.4374 0.16909 0.76711 0.0
O253 O 0.43292 0.21728 0.7214 0.0
O254 O 0.38246 0.16524 0.87092 0.0
O255 O 0.40964 0.17019 0.90892 0.0
O256 O 0.42745 0.21127 0.82729 0.0
C257 C 0.43625 0.22477 0.78559 0.0
O258 O 0.38723 0.1811 0.66127 0.0
O259 O 0.39048 0.1937 0.77056 0.0
O260 O 0.38007 0.14276 0.73668 0.0
O261 O 0.41252 0.19302 0.5706 0.0
O262 O 0.42531 0.17304 0.5813 0.0
O263 O 0.39777 0.14319 0.66122 0.0
C264 C 0.38217 0.13799 0.92963 0.0
C265 C 0.38819 0.12307 0.9114 0.0
C266 C 0.3542 0.1065 0.95708 0.0
C267 C 0.37743 0.10014 0.91698 0.0
C268 C 0.36507 0.12948 0.95232 0.0
C269 C 0.36028 0.09162 0.93956 0.0
C270 C 0.39211 0.16141 0.91612 0.0
C271 C 0.3827 0.19037 0.7086 0.0
H272 H 0.3819 0.14968 0.55521 0.0
H273 H 0.39401 0.13317 0.33344 0.0
H274 H 0.35792 0.11502 0.4792 0.0
H275 H 0.4186 0.16767 0.41152 0.0
H276 H 0.40109 0.12903 0.89199 0.0
H277 H 0.34123 0.10049 0.9761 0.0
H278 H 0.38248 0.08905 0.90361 0.0
H279 H 0.35998 0.14056 0.96541 0.0
Eu280 Eu 0.9125 0.16713 0.79726 0.0
Eu281 Eu 0.90802 0.1906 0.67359 0.0
C282 C 0.93363 0.22114 0.81427 0.0
C283 C 0.93718 0.15757 0.94104 0.0
C284 C 0.93694 0.14828 0.99855 0.0
C285 C 0.97078 0.18478 0.97637 0.0
C286 C 0.95349 0.15758 1.04567 0.0
C287 C 0.95427 0.17554 0.92956 0.0
C288 C 0.97048 0.17635 1.03584 0.0
C289 C 0.9196 0.14956 0.89455 0.0
O290 O 0.93036 0.18255 0.65645 0.0
O291 O 0.94087 0.18426 0.76453 0.0
C292 C 0.94356 0.185 0.70307 0.0
O293 O 0.89802 0.13891 0.70738 0.0
O294 O 0.90763 0.21928 0.64016 0.0
O295 O 0.90618 0.19328 0.56875 0.0
O296 O 0.88511 0.15354 0.63913 0.0
C297 C 0.88598 0.13624 0.65552 0.0
O298 O 0.88258 0.15957 0.78948 0.0
O299 O 0.88513 0.18701 0.72967 0.0
O300 O 0.93274 0.21827 0.75003 0.0
O301 O 0.91237 0.1622 0.90036 0.0
O302 O 0.91973 0.14356 0.83295 0.0
O303 O 0.92355 0.2037 0.8427 0.0
C304 C 0.9277 0.23106 0.56171 0.0
C305 C 0.94413 0.24442 0.61044 0.0
C306 C 0.94708 0.24089 0.47706 0.0
C307 C 0.9619 0.25484 0.59284 0.0
C308 C 0.92928 0.23023 0.49477 0.0
C309 C 0.96355 0.2523 0.52617 0.0
C310 C 0.91005 0.21415 0.581 0.0
C311 C 0.87595 0.17164 0.76624 0.0
H312 H 0.92385 0.13442 1.00812 0.0
H313 H 0.98365 0.19911 0.96721 0.0
H314 H 0.95273 0.15093 0.09143 0.0
H315 H 0.95472 0.18293 0.88538 0.0
H316 H 0.94338 0.24541 0.66254 0.0
H317 H 0.94793 0.23845 0.4252 0.0
H318 H 0.97434 0.26364 0.63158 0.0
H319 H 0.91685 0.21984 0.45647 0.0
Eu320 Eu 0.89889 0.65576 0.66588 0.0
Eu321 Eu 0.91827 0.69647 0.79592 0.0
C322 C 0.89359 0.69812 0.66846 0.0
C323 C 0.86406 0.61997 0.51417 0.0
C324 C 0.86509 0.61985 0.44688 0.0
C325 C 0.83678 0.62376 0.49447 0.0
C326 C 0.85275 0.62295 0.40448 0.0
C327 C 0.84926 0.62091 0.53703 0.0
C328 C 0.83904 0.62609 0.42857 0.0
C329 C 0.88045 0.62417 0.5615 0.0
O330 O 0.89117 0.66849 0.82012 0.0
O331 O 0.87504 0.65278 0.71402 0.0
C332 C 0.8752 0.65593 0.77784 0.0
O333 O 0.90927 0.64242 0.74512 0.0
O334 O 0.93005 0.73218 0.83669 0.0
O335 O 0.92791 0.70874 0.90232 0.0
O336 O 0.93204 0.67624 0.8116 0.0
C337 C 0.92435 0.65427 0.79203 0.0
O338 O 0.93008 0.67462 0.66312 0.0
O339 O 0.93916 0.70878 0.7265 0.0
O340 O 0.89727 0.70132 0.73334 0.0
O341 O 0.89602 0.64339 0.56161 0.0
O342 O 0.87779 0.62044 0.62142 0.0
O343 O 0.89704 0.68461 0.63237 0.0
C344 C 0.91962 0.7349 0.93584 0.0
C345 C 0.8999 0.72232 0.91791 0.0
C346 C 0.91742 0.75552 1.03233 0.0
C347 C 0.88897 0.72571 0.95805 0.0
C348 C 0.92838 0.75194 0.9922 0.0
C349 C 0.89755 0.74189 1.0169 0.0
C350 C 0.93058 0.72875 0.89779 0.0
C351 C 0.94249 0.69642 0.68445 0.0
H352 H 0.87646 0.61933 0.42831 0.0
H353 H 0.82616 0.62563 0.51439 0.0
H354 H 0.85514 0.62486 0.35434 0.0
H355 H 0.84811 0.62109 0.58883 0.0
H356 H 0.89291 0.70908 0.87436 0.0
H357 H 0.92449 0.76833 0.07679 0.0
H358 H 0.87378 0.71458 0.94491 0.0
H359 H 0.94361 0.76189 1.0064 0.0
C360 C 0.10328 0.5103 0.95187 0.0
C361 C 0.08679 0.50367 0.97867 0.0
C362 C 0.10312 0.50981 0.88271 0.0
C363 C 0.0726 0.50362 0.71924 0.0
H364 H 0.10955 0.49691 0.64041 0.0
C365 C 0.07672 0.50951 0.43717 0.0
C366 C 0.08397 0.49845 0.40095 0.0
C367 C 0.07721 0.51015 0.50636 0.0
C368 C 0.09889 0.49856 0.66062 0.0
H369 H 0.05704 0.49104 0.95031 0.0
H370 H 0.0566 0.48965 0.8318 0.0
H371 H 0.10987 0.49748 0.75857 0.0
H372 H 0.09745 0.47918 0.41231 0.0
H373 H 0.09788 0.4797 0.53114 0.0
H374 H 0.06118 0.50388 0.62116 0.0
C375 C 0.06996 0.49585 0.86384 0.0
C376 C 0.09926 0.49926 0.72989 0.0
C377 C 0.07016 0.49649 0.93289 0.0
C378 C 0.0917 0.48795 0.43739 0.0
C379 C 0.09208 0.48844 0.50664 0.0
C380 C 0.07216 0.50279 0.65001 0.0
C381 C 0.08643 0.50252 0.83659 0.0
C382 C 0.08613 0.50183 0.76132 0.0
C383 C 0.08487 0.4996 0.54324 0.0
C384 C 0.08531 0.50029 0.61856 0.0
H385 H 0.11646 0.516 0.9845 0.0
H386 H 0.11632 0.51551 0.8658 0.0
H387 H 0.06227 0.50597 0.73961 0.0
H388 H 0.07076 0.51803 0.41212 0.0
H389 H 0.07179 0.5194 0.53092 0.0
C390 C 0.57241 0.50686 0.77904 0.0
C391 C 0.5893 0.51682 0.82606 0.0
C392 C 0.57243 0.50628 0.71003 0.0
C393 C 0.60411 0.51572 0.58022 0.0
H394 H 0.56272 0.51218 0.46528 0.0
C395 C 0.59894 0.50519 0.28854 0.0
C396 C 0.58935 0.5133 0.25029 0.0
C397 C 0.59895 0.50538 0.35757 0.0
C398 C 0.57463 0.51343 0.49595 0.0
H399 H 0.61963 0.5342 0.8343 0.0
H400 H 0.61977 0.53382 0.71602 0.0
H401 H 0.56303 0.51384 0.58338 0.0
H402 H 0.5723 0.52821 0.25796 0.0
H403 H 0.57267 0.52909 0.37623 0.0
H404 H 0.61602 0.51611 0.49294 0.0
C405 C 0.60627 0.52587 0.73173 0.0
C406 C 0.57465 0.51402 0.56493 0.0
C407 C 0.60623 0.52629 0.80068 0.0
C408 C 0.57983 0.52165 0.28445 0.0
C409 C 0.57993 0.52197 0.35333 0.0
C410 C 0.60414 0.51526 0.51122 0.0
C411 C 0.58936 0.51578 0.68427 0.0
C412 C 0.58938 0.51517 0.6092 0.0
C413 C 0.58944 0.5138 0.39201 0.0
C414 C 0.5894 0.51412 0.467 0.0
H415 H 0.55899 0.49916 0.79544 0.0
H416 H 0.55894 0.49791 0.67686 0.0
H417 H 0.61572 0.51626 0.61066 0.0
H418 H 0.60643 0.49852 0.26504 0.0
H419 H 0.60629 0.49853 0.38358 0.0
C420 C 0.56835 0.05762 0.64738 0.0
C421 C 0.58509 0.06599 0.694 0.0
C422 C 0.56853 0.05845 0.57887 0.0
C423 C 0.6017 0.08487 0.45535 0.0
H424 H 0.55713 0.04161 0.32572 0.0
C425 C 0.59809 0.09107 0.16924 0.0
C426 C 0.58622 0.07126 0.12102 0.0
C427 C 0.59803 0.09077 0.23816 0.0
C428 C 0.56992 0.05382 0.36042 0.0
H429 H 0.61529 0.08176 0.70187 0.0
H430 H 0.61562 0.08267 0.58407 0.0
H431 H 0.55708 0.03983 0.44253 0.0
H432 H 0.56503 0.03541 0.11077 0.0
H433 H 0.56522 0.03473 0.22835 0.0
H434 H 0.61474 0.09835 0.37288 0.0
C435 C 0.60219 0.07582 0.60005 0.0
C436 C 0.56978 0.05301 0.4289 0.0
C437 C 0.60201 0.07511 0.6686 0.0
C438 C 0.57438 0.05119 0.14515 0.0
C439 C 0.57438 0.05085 0.21378 0.0
C440 C 0.60188 0.0856 0.38676 0.0
C441 C 0.58546 0.06759 0.55308 0.0
C442 C 0.58566 0.0685 0.47852 0.0
C443 C 0.58616 0.07062 0.26246 0.0
C444 C 0.58599 0.07007 0.33718 0.0
H445 H 0.55497 0.0506 0.66391 0.0
H446 H 0.55523 0.05221 0.54637 0.0
H447 H 0.61429 0.09749 0.49026 0.0
H448 H 0.60745 0.10697 0.15378 0.0
H449 H 0.60723 0.10662 0.2723 0.0
C450 C 0.74757 0.85217 0.53073 0.0
C451 C 0.73365 0.85317 0.48848 0.0
C452 C 0.74775 0.85261 0.59971 0.0
C453 C 0.7289 0.86797 0.74215 0.0
H454 H 0.7456 0.83363 0.83439 0.0
C455 C 0.72475 0.86296 1.0251 0.0
C456 C 0.73714 0.85895 0.0653 0.0
C457 C 0.72426 0.86226 0.95585 0.0
C458 C 0.74115 0.84373 0.8105 0.0
H459 H 0.70892 0.85551 0.48888 0.0
H460 H 0.70925 0.85632 0.60801 0.0
H461 H 0.7449 0.83246 0.7158 0.0
H462 H 0.75896 0.85125 0.06119 0.0
H463 H 0.75856 0.85069 0.94264 0.0
H464 H 0.72541 0.87955 0.8367 0.0
C465 C 0.7202 0.85529 0.58788 0.0
C466 C 0.74069 0.84298 0.74128 0.0
C467 C 0.71992 0.85465 0.51869 0.0
C468 C 0.74912 0.85439 1.03294 0.0
C469 C 0.74874 0.85386 0.9638 0.0
C470 C 0.7295 0.86888 0.8115 0.0
C471 C 0.73413 0.85428 0.63024 0.0
C472 C 0.73454 0.85505 0.70522 0.0
C473 C 0.73623 0.85766 0.92311 0.0
C474 C 0.73563 0.85676 0.84775 0.0
H475 H 0.7585 0.85111 0.51054 0.0
H476 H 0.75893 0.85206 0.6294 0.0
H477 H 0.72432 0.87789 0.71772 0.0
H478 H 0.71512 0.86636 1.04699 0.0
H479 H 0.7141 0.86494 0.92796 0.0
C480 C 0.24698 0.85001 0.69062 0.0
C481 C 0.2301 0.84019 0.64363 0.0
C482 C 0.24696 0.8506 0.75963 0.0
C483 C 0.21532 0.84144 0.88944 0.0
H484 H 0.25655 0.84464 1.00436 0.0
C485 C 0.22039 0.85186 0.18106 0.0
C486 C 0.22992 0.84368 0.21928 0.0
C487 C 0.22041 0.8517 0.11204 0.0
C488 C 0.24468 0.84348 0.9737 0.0
H489 H 0.19978 0.82305 0.63544 0.0
H490 H 0.19963 0.82344 0.75368 0.0
H491 H 0.25626 0.84297 0.88629 0.0
H492 H 0.24688 0.82865 0.21161 0.0
H493 H 0.24654 0.82779 0.09337 0.0
H494 H 0.20342 0.84113 0.97669 0.0
C495 C 0.21313 0.83129 0.73797 0.0
C496 C 0.24467 0.8429 0.90473 0.0
C497 C 0.21318 0.83086 0.66903 0.0
C498 C 0.2394 0.83527 0.18512 0.0
C499 C 0.23933 0.83496 0.11627 0.0
C500 C 0.21527 0.84189 0.95842 0.0
C501 C 0.23003 0.84125 0.78541 0.0
C502 C 0.23 0.84187 0.86047 0.0
C503 C 0.22988 0.84321 0.0776 0.0
C504 C 0.22995 0.8429 1.00264 0.0
H505 H 0.2604 0.8576 0.67419 0.0
H506 H 0.26045 0.85887 0.79278 0.0
H507 H 0.20375 0.841 0.85901 0.0
H508 H 0.21294 0.85859 0.20455 0.0
H509 H 0.21313 0.85861 0.08605 0.0
C510 C 0.21701 0.28243 0.80113 0.0
C511 C 0.23392 0.29146 0.77563 0.0
C512 C 0.21685 0.28172 0.86969 0.0
C513 C 0.24933 0.30434 1.04069 0.0
H514 H 0.20431 0.2592 0.09692 0.0
C515 C 0.24491 0.30617 0.32455 0.0
C516 C 0.233 0.28612 0.34868 0.0
C517 C 0.24487 0.30651 0.25592 0.0
C518 C 0.21719 0.27189 0.08298 0.0
H519 H 0.26402 0.30667 0.80557 0.0
H520 H 0.26378 0.30506 0.9231 0.0
H521 H 0.20471 0.26008 0.97952 0.0
H522 H 0.21163 0.25046 0.31591 0.0
H523 H 0.21179 0.25082 0.19736 0.0
H524 H 0.26205 0.31566 0.14382 0.0
C525 C 0.25049 0.2989 0.89068 0.0
C526 C 0.21734 0.27264 1.01437 0.0
C527 C 0.25065 0.29973 0.82217 0.0
C528 C 0.22104 0.26635 0.30045 0.0
C529 C 0.22107 0.26665 0.23151 0.0
C530 C 0.24922 0.30352 0.10918 0.0
C531 C 0.23358 0.28986 0.91657 0.0
C532 C 0.2334 0.28893 0.99114 0.0
C533 C 0.233 0.28677 0.20722 0.0
C534 C 0.23313 0.28734 0.13249 0.0
H535 H 0.20373 0.27586 0.76792 0.0
H536 H 0.20344 0.27495 0.88576 0.0
H537 H 0.26205 0.31746 1.02702 0.0
H538 H 0.25433 0.32193 0.35894 0.0
H539 H 0.25408 0.32262 0.24135 0.0
C540 C 0.35332 0.079 0.37495 0.0
C541 C 0.35982 0.10034 0.35586 0.0
C542 C 0.3406 0.05897 0.32978 0.0
C543 C 0.3321 0.02765 0.19674 0.0
H544 H 0.2993 0.03267 0.06184 0.0
C545 C 0.35935 0.06072 0.99382 0.0
C546 C 0.34983 0.06814 0.95329 0.0
C547 C 0.34933 0.04285 1.02723 0.0
C548 C 0.30798 0.03004 0.09817 0.0
H549 H 0.35746 0.11774 0.27727 0.0
H550 H 0.33526 0.0831 0.19875 0.0
H551 H 0.30196 0.04642 0.17605 0.0
H552 H 0.3224 0.05972 0.90375 0.0
H553 H 0.30475 0.02778 0.95968 0.0
H554 H 0.33889 0.01237 0.11863 0.0
C555 C 0.33979 0.08159 0.24829 0.0
C556 C 0.30946 0.03806 0.16441 0.0
C557 C 0.35272 0.10146 0.29269 0.0
C558 C 0.33006 0.05482 0.93707 0.0
C559 C 0.31999 0.03655 0.96946 0.0
C560 C 0.33022 0.01906 0.1304 0.0
C561 C 0.33387 0.06011 0.26574 0.0
C562 C 0.32356 0.03988 0.21247 0.0
C563 C 0.32956 0.03221 1.02107 0.0
C564 C 0.32075 0.02398 0.08007 0.0
H565 H 0.35867 0.07786 0.42378 0.0
H566 H 0.33648 0.04267 0.34406 0.0
H567 H 0.34248 0.02785 0.23346 0.0
H568 H 0.37462 0.0704 1.00613 0.0
H569 H 0.35755 0.03984 0.06439 0.0
C570 C 0.98727 0.2674 0.45187 0.0
C571 C 0.98178 0.25764 0.50816 0.0
C572 C 1.00112 0.2662 0.42345 0.0
C573 C 0.02901 0.25853 0.36342 0.0
H574 H 1.00108 0.19274 0.32292 0.0
C575 C 0.99208 0.17786 0.13379 0.0
C576 C 0.98683 0.18915 0.09138 0.0
C577 C 1.00443 0.18976 0.19432 0.0
C578 C 1.00974 0.21111 0.33401 0.0
H579 H 0.988 0.24145 0.58357 0.0
H580 H 0.01194 0.23896 0.53305 0.0
H581 H 1.00069 0.21127 0.42643 0.0
H582 H 0.99179 0.22208 0.07616 0.0
H583 H 0.01242 0.24245 0.18096 0.0
H584 H 0.03724 0.25827 0.2691 0.0
C585 C 1.00564 0.24764 0.51113 0.0
C586 C 1.00948 0.22184 0.39408 0.0
C587 C 0.99192 0.24908 0.53999 0.0
C588 C 0.99557 0.21285 0.10755 0.0
C589 C 1.00764 0.22464 0.16814 0.0
C590 C 0.02964 0.2478 0.30382 0.0
C591 C 1.0095 0.25491 0.45035 0.0
C592 C 0.01758 0.24551 0.4063 0.0
C593 C 0.01137 0.21305 0.21419 0.0
C594 C 0.01834 0.22394 0.28553 0.0
H595 H 0.97981 0.27432 0.42688 0.0
H596 H 1.00368 0.27187 0.3764 0.0
H597 H 0.03582 0.27688 0.37255 0.0
H598 H 0.98586 0.15965 0.1218 0.0
H599 H 1.00742 0.18035 0.22744 0.0
C600 C 0.82816 0.65343 0.41915 0.0
C601 C 0.82976 0.63567 0.38875 0.0
C602 C 0.82494 0.66711 0.38105 0.0
C603 C 0.82103 0.67788 0.20585 0.0
H604 H 0.86251 0.73816 0.28898 0.0
C605 C 0.89195 0.74302 0.13332 0.0
C606 C 0.88581 0.74177 0.06603 0.0
C607 C 0.87935 0.73676 0.17715 0.0
C608 C 0.85069 0.72155 0.26505 0.0
H609 H 0.82616 0.61617 0.29413 0.0
H610 H 0.82186 0.64071 0.22827 0.0
H611 H 0.84715 0.7097 0.35691 0.0
H612 H 0.86222 0.73603 0.99419 0.0
H613 H 0.84006 0.72464 0.07085 0.0
H614 H 0.8262 0.68912 0.11332 0.0
C615 C 0.82286 0.64415 0.2813 0.0
C616 C 0.84165 0.70514 0.30417 0.0
C617 C 0.82566 0.63018 0.31926 0.0
C618 C 0.86728 0.73655 1.04536 0.0
C619 C 0.85458 0.73012 0.08928 0.0
C620 C 0.83027 0.69422 0.16665 0.0
C621 C 0.82375 0.66373 0.31203 0.0
C622 C 0.82772 0.68257 0.27452 0.0
C623 C 0.86025 0.72899 0.15481 0.0
C624 C 0.84617 0.71565 0.19565 0.0
H625 H 0.83109 0.6582 0.47255 0.0
H626 H 0.825 0.68151 0.40615 0.0
H627 H 0.80985 0.66094 0.18154 0.0
H628 H 0.90603 0.74676 0.15121 0.0
H629 H 0.88426 0.73592 0.22701 0.0
C630 C 0.19292 0.3226 0.52296 0.0
C631 C 0.21227 0.3322 0.54689 0.0
C632 C 0.18607 0.33611 0.50304 0.0
C633 C 0.19816 0.39601 0.50898 0.0
H634 H 0.16007 0.36956 0.3488 0.0
C635 C 0.16125 0.44129 0.40521 0.0
C636 C 0.1578 0.43977 0.33599 0.0
C637 C 0.16778 0.42847 0.43367 0.0
C638 C 0.17079 0.37733 0.39332 0.0
H639 H 0.23947 0.36383 0.57072 0.0
H640 H 0.22755 0.3874 0.53514 0.0
H641 H 0.17185 0.3473 0.39451 0.0
H642 H 0.1583 0.42314 0.24261 0.0
H643 H 0.16994 0.4012 0.29197 0.0
H644 H 0.19742 0.42631 0.50642 0.0
C645 C 0.21761 0.36941 0.53251 0.0
C646 C 0.17739 0.3644 0.4202 0.0
C647 C 0.22448 0.35587 0.5529 0.0
C648 C 0.16098 0.42498 0.29608 0.0
C649 C 0.16746 0.41216 0.32446 0.0
C650 C 0.19154 0.40897 0.48201 0.0
C651 C 0.19836 0.35962 0.50591 0.0
C652 C 0.19118 0.37352 0.47841 0.0
C653 C 0.17097 0.41369 0.39366 0.0
C654 C 0.17781 0.39984 0.42359 0.0
H655 H 0.18305 0.30447 0.51824 0.0
H656 H 0.1711 0.328 0.48448 0.0
H657 H 0.20867 0.40359 0.55408 0.0
H658 H 0.15915 0.45265 0.43759 0.0
H659 H 0.17014 0.42997 0.48707 0.0
C660 C 0.60929 0.59936 0.06112 0.0
C661 C 0.61841 0.58754 0.0748 0.0
C662 C 0.61879 0.62311 0.08035 0.0
C663 C 0.66017 0.67144 0.19825 0.0
H664 H 0.65288 0.70894 0.08566 0.0
C665 C 0.70803 0.76979 0.25397 0.0
C666 C 0.70023 0.78298 0.2395 0.0
C667 C 0.69744 0.74606 0.23499 0.0
C668 C 0.65492 0.69875 0.11829 0.0
H669 H 0.64499 0.59187 0.11871 0.0
H670 H 0.66147 0.633 0.15144 0.0
H671 H 0.63588 0.6678 1.04942 0.0
H672 H 0.67482 0.78108 0.19398 0.0
H673 H 0.65624 0.73966 0.16181 0.0
H674 H 0.67914 0.70225 0.26719 0.0
C675 C 0.64686 0.62392 0.12672 0.0
C676 C 0.64515 0.67506 0.09735 0.0
C677 C 0.6374 0.60024 0.10739 0.0
C678 C 0.68136 0.77159 0.20611 0.0
C679 C 0.67073 0.74777 0.18711 0.0
C680 C 0.66989 0.69507 0.21923 0.0
C681 C 0.63768 0.63575 0.11408 0.0
C682 C 0.64774 0.66104 0.13677 0.0
C683 C 0.67863 0.73461 0.20095 0.0
C684 C 0.66756 0.70918 0.17942 0.0
H685 H 0.59468 0.59025 1.03635 0.0
H686 H 0.61115 0.63148 0.07013 0.0
H687 H 0.66229 0.66127 0.23079 0.0
H688 H 0.72252 0.77781 0.27915 0.0
H689 H 0.70422 0.73674 0.24577 0.0
C690 C 0.46411 0.98735 0.06147 0.0
C691 C 0.46825 0.97341 1.02218 0.0
C692 C 0.44923 0.97782 0.09654 0.0
C693 C 0.4051 0.92354 0.10089 0.0
H694 H 0.41047 0.95275 0.27824 0.0
C695 C 0.34215 0.8927 0.23856 0.0
C696 C 0.34559 0.89213 0.30649 0.0
C697 C 0.35708 0.90309 0.20424 0.0
C698 C 0.40877 0.94428 0.22892 0.0
H699 H 0.46022 0.93849 0.99071 0.0
H700 H 0.43439 0.92195 0.0517 0.0
H701 H 0.43666 0.96965 0.21859 0.0
H702 H 0.36762 0.90252 0.39164 0.0
H703 H 0.3936 0.92022 0.33158 0.0
H704 H 0.37739 0.89791 0.11166 0.0
C705 C 0.44238 0.94022 0.05442 0.0
C706 C 0.42372 0.95413 0.19437 0.0
C707 C 0.45723 0.94973 1.01938 0.0
C708 C 0.3644 0.90239 0.33923 0.0
C709 C 0.37934 0.9128 0.30491 0.0
C710 C 0.39016 0.91372 0.13538 0.0
C711 C 0.43812 0.95411 0.09328 0.0
C712 C 0.42212 0.94385 0.12995 0.0
C713 C 0.37588 0.91322 0.23688 0.0
C714 C 0.39179 0.92391 0.19993 0.0
H715 H 0.47213 1.00562 0.06416 0.0
H716 H 0.44622 0.98904 0.12524 0.0
H717 H 0.40325 0.91527 0.05111 0.0
H718 H 0.32786 0.8848 0.2115 0.0
H719 H 0.35387 0.9033 0.15209 0.0
C720 C 0.56314 0.12369 0.8668 0.0
C721 C 0.55864 0.10663 0.90585 0.0
C722 C 0.55105 0.13189 0.85323 0.0
C723 C 0.5007 0.11487 0.85176 0.0
H724 H 0.51854 0.17729 0.83313 0.0
C725 C 0.44955 0.14772 0.82731 0.0
C726 C 0.45205 0.16316 0.78399 0.0
C727 C 0.463 0.14173 0.84227 0.0
C728 C 0.51325 0.15971 0.83744 0.0
H729 H 0.53819 0.08577 0.96381 0.0
H730 H 0.51769 0.10027 0.94191 0.0
H731 H 0.54124 0.16582 0.85957 0.0
H732 H 0.47109 0.18453 0.72307 0.0
H733 H 0.49444 0.17402 0.7488 0.0
H734 H 0.47277 0.10866 0.8297 0.0
C735 C 0.53019 0.10696 0.91982 0.0
C736 C 0.52634 0.1531 0.85267 0.0
C737 C 0.54215 0.09875 0.93302 0.0
C738 C 0.46859 0.1726 0.75666 0.0
C739 C 0.4821 0.16665 0.77179 0.0
C740 C 0.48766 0.12146 0.83673 0.0
C741 C 0.53413 0.12328 0.87842 0.0
C742 C 0.5203 0.13057 0.86064 0.0
C743 C 0.47949 0.15098 0.81456 0.0
C744 C 0.49366 0.14402 0.82968 0.0
H745 H 0.5756 0.13007 0.84453 0.0
H746 H 0.55465 0.14438 0.82096 0.0
H747 H 0.49529 0.09723 0.85559 0.0
H748 H 0.4371 0.14011 0.84972 0.0
H749 H 0.46051 0.12992 0.87626 0.0
C750 C 0.94408 0.2506 0.91713 0.0
C751 C 0.94676 0.24431 0.85441 0.0
C752 C 0.95608 0.2729 0.95271 0.0
C753 C 0.99279 0.33182 0.92933 0.0
H754 H 1.00289 0.34442 0.12138 0.0
C755 C 0.05319 0.41853 0.08081 0.0
C756 C 0.04831 0.42921 0.12927 0.0
C757 C 0.04053 0.39586 0.05016 0.0
C758 C 1.00011 0.34116 0.06771 0.0
H759 H 0.96474 0.25636 0.78135 0.0
H760 H 0.98602 0.29445 0.84386 0.0
H761 H 0.98184 0.30526 0.06295 0.0
H762 H 0.02634 0.42394 0.18463 0.0
H763 H 1.00442 0.38396 0.13233 0.0
H764 H 0.01168 0.36767 0.93457 0.0
C765 C 0.97422 0.28273 0.865 0.0
C766 C 0.98792 0.31866 1.03392 0.0
C767 C 0.96204 0.26066 0.82906 0.0
C768 C 0.03058 0.4163 0.14758 0.0
C769 C 0.01804 0.39338 0.11776 0.0
C770 C 1.00522 0.35417 0.96309 0.0
C771 C 0.97133 0.28944 0.92708 0.0
C772 C 0.9841 0.31354 0.96399 0.0
C773 C 0.02275 0.38301 0.06788 0.0
C774 C 1.0091 0.35914 1.03266 0.0
H775 H 0.9324 0.23846 0.93802 0.0
H776 H 0.95308 0.27721 0.9997 0.0
H777 H 0.98993 0.32903 0.87574 0.0
H778 H 0.06664 0.42789 0.06505 0.0
H779 H 0.04465 0.38834 1.0123 0.0
C780 C 0.85641 0.65075 0.86911 0.0
C781 C 0.85696 0.64588 0.80191 0.0
C782 C 0.83914 0.64156 0.89107 0.0
C783 C 0.78777 0.61568 0.83029 0.0
H784 H 0.78252 0.59333 0.99676 0.0
C785 C 0.71486 0.56205 0.90532 0.0
C786 C 0.71354 0.56541 0.97236 0.0
C787 C 0.73244 0.57257 0.88552 0.0
C788 C 0.78376 0.59975 0.95054 0.0
H789 H 0.83961 0.62739 0.70529 0.0
H790 H 0.80968 0.61124 0.74355 0.0
H791 H 0.81292 0.61032 0.96107 0.0
H792 H 0.72982 0.58308 0.07082 0.0
H793 H 0.76039 0.6015 1.03635 0.0
H794 H 0.75864 0.60511 0.81962 0.0
C795 C 0.82256 0.62242 0.77928 0.0
C796 C 0.80124 0.60951 0.93002 0.0
C797 C 0.83979 0.63158 0.75736 0.0
C798 C 0.73029 0.57979 1.01892 0.0
C799 C 0.74786 0.59035 0.99912 0.0
C800 C 0.77031 0.60596 0.85082 0.0
C801 C 0.82196 0.6273 0.84639 0.0
C802 C 0.80347 0.61748 0.86938 0.0
C803 C 0.74921 0.58682 0.93215 0.0
C804 C 0.768 0.59772 0.91106 0.0
H805 H 0.86932 0.66184 0.9048 0.0
H806 H 0.83925 0.64595 0.94295 0.0
H807 H 0.789 0.62201 0.7839 0.0
H808 H 0.70233 0.55083 0.86817 0.0
H809 H 0.73288 0.56911 0.8337 0.0
C810 C 0.94881 0.65432 0.87451 0.0
C811 C 0.93322 0.64259 0.82205 0.0
C812 C 0.9574 0.6434 0.90161 0.0
C813 C 0.94894 0.58598 0.91341 0.0
H814 H 1.00334 0.61891 0.96667 0.0
C815 C 0.98623 0.54904 0.06155 0.0
C816 C 1.00351 0.55296 1.04692 0.0
C817 C 0.97777 0.5599 1.03332 0.0
C818 C 0.98814 0.60937 0.95149 0.0
H819 H 0.91453 0.61009 0.75687 0.0
H820 H 0.92962 0.59123 0.80332 0.0
H821 H 0.98846 0.63785 0.91852 0.0
H822 H 0.02537 0.57147 0.99066 0.0
H823 H 1.01037 0.58996 0.94005 0.0
H824 H 0.94863 0.55734 0.94478 0.0
C825 C 0.93504 0.60877 0.82442 0.0
C826 C 0.97957 0.62035 0.92468 0.0
C827 C 0.92642 0.61966 0.79751 0.0
C828 C 0.012 0.56789 1.00269 0.0
C829 C 1.0035 0.57873 0.97428 0.0
C830 C 0.9575 0.575 0.94004 0.0
C831 C 0.95066 0.62048 0.87682 0.0
C832 C 0.95984 0.60882 0.90537 0.0
C833 C 0.98628 0.57491 0.98934 0.0
C834 C 0.97722 0.58655 0.95968 0.0
H835 H 0.95441 0.67198 0.89483 0.0
H836 H 0.96921 0.65288 0.94254 0.0
H837 H 0.93371 0.5766 0.89983 0.0
H838 H 0.97911 0.53742 0.09461 0.0
H839 H 0.96464 0.55672 1.04677 0.0
C840 C 0.55968 0.43006 0.9499 0.0
C841 C 0.55632 0.44208 0.99962 0.0
C842 C 0.5472 0.4065 0.92863 0.0
C843 C 0.49792 0.35889 0.93514 0.0
H844 H 0.51539 0.32098 0.8635 0.0
C845 C 0.45057 0.25985 0.8739 0.0
C846 C 0.45044 0.24942 0.81179 0.0
C847 C 0.46362 0.28313 0.8977 0.0
C848 C 0.51026 0.33135 0.88307 0.0
H849 H 0.53741 0.4384 0.06751 0.0
H850 H 0.51631 0.39749 1.03324 0.0
H851 H 0.53793 0.36135 0.90498 0.0
H852 H 0.46433 0.25551 0.72677 0.0
H853 H 0.48731 0.29589 0.76899 0.0
H854 H 0.47031 0.32855 0.91474 0.0
C855 C 0.52814 0.4062 1.0084 0.0
C856 C 0.52321 0.35466 0.90668 0.0
C857 C 0.54043 0.42978 1.02878 0.0
C858 C 0.46393 0.26289 0.77468 0.0
C859 C 0.4772 0.28606 0.79905 0.0
C860 C 0.48506 0.33552 0.91259 0.0
C861 C 0.53109 0.39412 0.95714 0.0
C862 C 0.51729 0.36895 0.93292 0.0
C863 C 0.47715 0.29656 0.86069 0.0
C864 C 0.491 0.32143 0.8859 0.0
H865 H 0.57165 0.43897 0.92576 0.0
H866 H 0.55 0.3982 0.88841 0.0
H867 H 0.4925 0.3691 0.95322 0.0
H868 H 0.4404 0.2501 0.90388 0.0
H869 H 0.46324 0.29058 0.94555 0.0
C870 C 0.84705 0.1514 0.81924 0.0
C871 C 0.85745 0.16765 0.78058 0.0
C872 C 0.8296 0.14754 0.83175 0.0
C873 C 0.79053 0.15627 0.76945 0.0
H874 H 0.77686 0.14411 0.94099 0.0
C875 C 0.72418 0.15299 0.84146 0.0
C876 C 0.7137 0.1372 0.88115 0.0
C877 C 0.74152 0.15646 0.82927 0.0
C878 C 0.78027 0.14719 0.89242 0.0
H879 H 0.85735 0.19263 0.72515 0.0
H880 H 0.82724 0.18609 0.74731 0.0
H881 H 0.80705 0.15048 0.92006 0.0
H882 H 0.71349 0.11236 0.93794 0.0
H883 H 0.74352 0.11831 0.91665 0.0
H884 H 0.76377 0.15294 0.7417 0.0
C885 C 0.8324 0.17604 0.76739 0.0
C886 C 0.79769 0.15087 0.88036 0.0
C887 C 0.84984 0.17993 0.755 0.0
C888 C 0.72118 0.12495 0.90806 0.0
C889 C 0.73851 0.12839 0.8958 0.0
C890 C 0.77311 0.15257 0.78146 0.0
C891 C 0.82193 0.15975 0.80587 0.0
C892 C 0.80317 0.15555 0.81871 0.0
C893 C 0.74902 0.14423 0.85623 0.0
C894 C 0.76766 0.14801 0.84322 0.0
H895 H 0.85233 0.14152 0.83972 0.0
H896 H 0.82197 0.13466 0.86092 0.0
H897 H 0.79395 0.15938 0.7209 0.0
H898 H 0.71917 0.16308 0.82066 0.0
H899 H 0.74922 0.16909 0.79953 0.0
C900 C 0.59459 1.00146 0.91363 0.0
C901 C 0.60686 0.02523 0.92372 0.0
C902 C 0.60111 0.98753 0.93322 0.0
C903 C 0.64462 0.98633 0.97972 0.0
H904 H 0.61381 0.93909 0.07568 0.0
C905 C 0.66479 0.92308 0.06564 0.0
C906 C 0.66211 0.91791 0.12944 0.0
C907 C 0.65782 0.93549 1.03726 0.0
C908 C 0.62264 0.95226 1.04923 0.0
H909 H 0.63583 0.05283 0.96011 0.0
H910 H 0.64715 0.02862 0.99363 0.0
H911 H 0.60225 0.96179 1.03044 0.0
H912 H 0.64968 0.9216 0.21281 0.0
H913 H 0.63783 0.94348 0.16387 0.0
H914 H 0.66519 0.97711 0.99969 0.0
C915 C 0.63248 0.02069 0.97058 0.0
C916 C 0.6159 0.96511 1.02254 0.0
C917 C 0.62595 0.03461 0.95156 0.0
C918 C 0.65222 0.92546 0.16394 0.0
C919 C 0.6452 0.93778 0.13548 0.0
C920 C 0.65132 0.97338 1.00607 0.0
C921 C 0.6201 0.997 0.96277 0.0
C922 C 0.62686 0.98245 0.98789 0.0
C923 C 0.6479 0.94299 0.07174 0.0
C924 C 0.6405 0.95629 1.04171 0.0
H925 H 0.57979 0.99364 0.8926 0.0
H926 H 0.59122 0.96933 0.92572 0.0
H927 H 0.65339 0.9994 0.95289 0.0
H928 H 0.67246 0.91775 1.03775 0.0
H929 H 0.66003 0.939 0.98789 0.0
C930 C 0.18164 0.75679 0.36171 0.0
C931 C 0.20062 0.76934 0.39432 0.0
C932 C 0.17196 0.73306 0.34302 0.0
C933 C 0.17973 0.68492 0.31167 0.0
H934 H 0.1266 0.64815 0.31933 0.0
C935 C 0.13774 0.58554 0.26253 0.0
C936 C 0.11895 0.57389 0.22812 0.0
C937 C 0.14803 0.6093 0.2824 0.0
C938 C 0.14138 0.65813 0.31604 0.0
H939 H 0.22414 0.76632 0.43328 0.0
H940 H 0.20723 0.72499 0.40167 0.0
H941 H 0.14365 0.68914 0.35617 0.0
H942 H 0.09652 0.57858 0.18685 0.0
H943 H 0.11441 0.61974 0.22079 0.0
H944 H 0.1774 0.65378 0.27174 0.0
C945 C 0.19986 0.73356 0.38956 0.0
C946 C 0.15121 0.68176 0.33728 0.0
C947 C 0.20956 0.75734 0.40826 0.0
C948 C 0.11091 0.5868 0.2133 0.0
C949 C 0.12116 0.61051 0.23334 0.0
C950 C 0.16988 0.66124 0.29056 0.0
C951 C 0.18091 0.72102 0.35636 0.0
C952 C 0.17054 0.69561 0.33516 0.0
C953 C 0.13983 0.62215 0.26876 0.0
C954 C 0.15051 0.64746 0.29205 0.0
H955 H 0.17422 0.76532 0.34968 0.0
H956 H 0.15751 0.72422 0.31676 0.0
H957 H 0.19449 0.6949 0.30821 0.0
H958 H 0.14444 0.57626 0.27512 0.0
H959 H 0.16229 0.61754 0.30999 0.0
C960 C 0.47721 0.46443 0.23151 0.0
C961 C 0.47373 0.46479 0.16345 0.0
C962 C 0.46229 0.45401 0.26588 0.0
C963 C 0.41071 0.41225 0.241 0.0
H964 H 0.41581 0.44117 0.41845 0.0
C965 C 0.34782 0.38203 0.37998 0.0
C966 C 0.35136 0.38209 0.44832 0.0
C967 C 0.36267 0.3916 0.34489 0.0
C968 C 0.41422 0.4327 0.36926 0.0
H969 H 0.45166 0.45405 0.07814 0.0
H970 H 0.4257 0.4363 0.13827 0.0
H971 H 0.44173 0.45881 0.35822 0.0
H972 H 0.37341 0.39175 0.53271 0.0
H973 H 0.39925 0.40842 0.47167 0.0
H974 H 0.38315 0.38618 0.25205 0.0
C975 C 0.43998 0.4439 0.16502 0.0
C976 C 0.42911 0.44283 0.33465 0.0
C977 C 0.45491 0.45435 0.13065 0.0
C978 C 0.37015 0.39175 0.48042 0.0
C979 C 0.38499 0.40133 0.44537 0.0
C980 C 0.39581 0.40212 0.27562 0.0
C981 C 0.44347 0.44364 0.23316 0.0
C982 C 0.42758 0.43275 0.27004 0.0
C983 C 0.38147 0.4015 0.3772 0.0
C984 C 0.39736 0.4122 0.34024 0.0
H985 H 0.49151 0.47249 0.25862 0.0
H986 H 0.46553 0.45392 0.31812 0.0
H987 H 0.40912 0.4038 0.19177 0.0
H988 H 0.33357 0.37505 0.35376 0.0
H989 H 0.35943 0.39169 0.29265 0.0
C990 C 0.87588 0.70184 0.56867 0.0
C991 C 0.88475 0.70935 0.63575 0.0
C992 C 0.86721 0.71226 0.53868 0.0
C993 C 0.86775 0.76574 0.55375 0.0
H994 H 0.81766 0.72931 0.44559 0.0
C995 C 0.83375 0.80609 0.40505 0.0
C996 C 0.81474 0.79826 0.40728 0.0
C997 C 0.84215 0.79472 0.43005 0.0
C998 C 0.83163 0.73972 0.47583 0.0
H999 H 0.89145 0.73371 0.72376 0.0
H1000 H 0.87654 0.75198 0.67126 0.0
H1001 H 0.83261 0.71061 0.49604 0.0
H1002 H 0.78965 0.77211 0.43742 0.0
H1003 H 0.8043 0.7522 0.48065 0.0
H1004 H 0.86667 0.79487 0.53531 0.0
C1005 C 0.87633 0.73809 0.64184 0.0
C1006 C 0.84027 0.729 0.50392 0.0
C1007 C 0.88479 0.72753 0.67199 0.0
C1008 C 0.80426 0.7785 0.43419 0.0
C1009 C 0.81266 0.76707 0.45899 0.0
C1010 C 0.85916 0.77646 0.52553 0.0
C1011 C 0.86741 0.73057 0.57492 0.0
C1012 C 0.8584 0.74189 0.54338 0.0
C1013 C 0.83175 0.77516 0.4577 0.0
C1014 C 0.84096 0.7636 0.48643 0.0
H1015 H 0.87546 0.68776 0.53946 0.0
H1016 H 0.86055 0.70619 0.48691 0.0
H1017 H 0.88177 0.77615 0.58363 0.0
H1018 H 0.84217 0.82092 0.38336 0.0
H1019 H 0.85679 0.80119 0.42721 0.0
C1020 C 0.3712 0.09595 0.60699 0.0
C1021 C 0.36856 0.10753 0.66041 0.0
C1022 C 0.35812 0.07276 0.58247 0.0
C1023 C 0.30853 0.02614 0.57703 0.0
H1024 H 0.32724 0.98676 0.53485 0.0
C1025 C 0.25867 0.92732 0.51378 0.0
C1026 C 0.26317 0.91492 0.46967 0.0
C1027 C 0.27105 0.9509 0.53502 0.0
C1028 C 0.32163 0.99745 0.54515 0.0
H1029 H 0.34978 0.10349 0.72929 0.0
H1030 H 0.32701 0.06315 0.68644 0.0
H1031 H 0.34941 0.02723 0.57448 0.0
H1032 H 0.28414 0.91803 0.41179 0.0
H1033 H 0.30527 0.95891 0.44663 0.0
H1034 H 0.28074 0.99648 0.54689 0.0
C1035 C 0.33918 0.07207 0.66323 0.0
C1036 C 0.33445 0.02079 0.56825 0.0
C1037 C 0.35232 0.09524 0.68807 0.0
C1038 C 0.28018 0.92689 0.44609 0.0
C1039 C 0.29246 0.95046 0.46674 0.0
C1040 C 0.29567 1.0028 0.5533 0.0
C1041 C 0.34192 0.06042 0.61028 0.0
C1042 C 0.32812 0.03551 0.58475 0.0
C1043 C 0.28828 0.96288 0.51238 0.0
C1044 C 0.30198 0.988 0.53704 0.0
H1045 H 0.38342 0.1048 0.58399 0.0
H1046 H 0.36063 0.06452 0.54116 0.0
H1047 H 0.30307 0.03694 0.58837 0.0
H1048 H 0.24579 0.91872 0.53348 0.0
H1049 H 0.2673 0.95958 0.57074 0.0
C1050 C 0.97615 0.19181 0.73628 0.0
C1051 C 0.96199 0.18947 0.68684 0.0
C1052 C 0.99354 0.19627 0.72168 0.0
C1053 C 0.01727 0.19317 0.58144 0.0
H1054 H 0.06284 0.2321 0.71262 0.0
C1055 C 0.08828 0.19942 0.55936 0.0
C1056 C 0.10524 0.22074 0.57949 0.0
C1057 C 0.07096 0.19632 0.5704 0.0
C1058 C 0.05032 0.22131 0.67504 0.0
H1059 H 0.95538 0.19028 0.58283 0.0
H1060 H 0.98564 0.19805 0.55742 0.0
H1061 H 0.03283 0.22592 0.73476 0.0
H1062 H 0.1168 0.25563 0.62644 0.0
H1063 H 0.08678 0.25016 0.64623 0.0
H1064 H 0.03485 0.18878 0.52145 0.0
C1065 C 0.98322 0.19616 0.60756 0.0
C1066 C 0.03297 0.21752 0.68814 0.0
C1067 C 0.96581 0.19176 0.62223 0.0
C1068 C 0.10422 0.23884 0.61113 0.0
C1069 C 0.08691 0.23571 0.62243 0.0
C1070 C 0.03463 0.19688 0.56847 0.0
C1071 C 0.99742 0.19856 0.65711 0.0
C1072 C 0.0161 0.20324 0.64182 0.0
C1073 C 0.06997 0.21439 0.60227 0.0
C1074 C 0.05144 0.2109 0.61523 0.0
H1075 H 0.97382 0.19015 0.78659 0.0
H1076 H 1.00388 0.19759 0.76113 0.0
H1077 H 1.00468 0.18197 0.5445 0.0
H1078 H 0.08835 0.18488 0.53599 0.0
H1079 H 0.05836 0.17955 0.55507 0.0
C1080 C 0.36382 0.19985 0.6279 0.0
C1081 C 0.36812 0.19637 0.69199 0.0
C1082 C 0.35027 0.2057 0.61253 0.0
C1083 C 0.32122 0.22533 0.69293 0.0
H1084 H 0.29503 0.21083 0.51182 0.0
C1085 C 0.25799 0.23749 0.6178 0.0
C1086 C 0.26001 0.25032 0.56694 0.0
C1087 C 0.27017 0.22951 0.63215 0.0
C1088 C 0.30223 0.21503 0.56269 0.0
H1089 H 0.36101 0.19587 0.7898 0.0
H1090 H 0.33688 0.2048 0.76274 0.0
H1091 H 0.31773 0.19959 0.53871 0.0
H1092 H 0.2761 0.26404 0.48992 0.0
H1093 H 0.29667 0.24933 0.513 0.0
H1094 H 0.30502 0.24006 0.7166 0.0
C1095 C 0.34441 0.20399 0.72437 0.0
C1096 C 0.31549 0.20876 0.57832 0.0
C1097 C 0.35826 0.19864 0.74004 0.0
C1098 C 0.27403 0.25413 0.52921 0.0
C1099 C 0.28586 0.24569 0.54244 0.0
C1100 C 0.30764 0.23113 0.67744 0.0
C1101 C 0.34017 0.2078 0.66034 0.0
C1102 C 0.32546 0.21398 0.64372 0.0
C1103 C 0.28438 0.23366 0.59496 0.0
C1104 C 0.29807 0.22627 0.61201 0.0
H1105 H 0.3712 0.19843 0.58963 0.0
H1106 H 0.34801 0.20891 0.56307 0.0
H1107 H 0.32865 0.23028 0.74362 0.0
H1108 H 0.24754 0.23448 0.64844 0.0
H1109 H 0.26856 0.22022 0.67274 0.0
C1110 C 0.79245 0.93712 0.36043 0.0
C1111 C 0.77331 0.92842 0.33507 0.0
C1112 C 0.80448 0.95987 0.39165 0.0
C1113 C 0.81157 0.01713 0.40803 0.0
H1114 H 0.84157 0.02778 0.57935 0.0
C1115 C 0.85651 0.10738 0.57282 0.0
C1116 C 0.87319 0.11301 0.61504 0.0
C1117 C 0.8442 0.08518 0.53708 0.0
C1118 C 0.83364 0.02535 0.53106 0.0
H1119 H 0.75209 0.93734 0.32101 0.0
H1120 H 0.77328 0.97726 0.37403 0.0
H1121 H 0.82098 0.98918 0.51842 0.0
H1122 H 0.89023 0.09973 0.65084 0.0
H1123 H 0.86944 0.06168 0.58703 0.0
H1124 H 0.82457 0.0533 0.41947 0.0
C1125 C 0.77888 0.96631 0.37012 0.0
C1126 C 0.82169 1.00306 0.49621 0.0
C1127 C 0.76673 0.94339 0.33983 0.0
C1128 C 0.87741 0.09601 0.61945 0.0
C1129 C 0.86531 0.07398 0.583 0.0
C1130 C 0.82379 0.03954 0.44243 0.0
C1131 C 0.79783 0.97472 0.39754 0.0
C1132 C 0.8105 0.99862 0.43422 0.0
C1133 C 0.84834 0.06803 0.54173 0.0
C1134 C 0.83509 0.04407 0.50461 0.0
H1135 H 0.79807 0.92616 0.35813 0.0
H1136 H 0.81903 0.96583 0.41161 0.0
H1137 H 0.80324 0.01433 0.36019 0.0
H1138 H 0.85272 0.11999 0.56848 0.0
H1139 H 0.83123 0.08143 0.50688 0.0
C1140 C 0.97515 0.73006 0.6884 0.0
C1141 C 0.961 0.7073 0.66203 0.0
C1142 C 0.99274 0.74018 0.66874 0.0
C1143 C 0.01706 0.735 0.53493 0.0
H1144 H 0.06232 0.77362 0.66767 0.0
C1145 C 0.09179 0.77011 0.47299 0.0
C1146 C 0.10611 0.79239 0.50324 0.0
C1147 C 0.07417 0.75947 0.49247 0.0
C1148 C 0.04985 0.76313 0.62969 0.0
H1149 H 0.95438 0.67746 0.59361 0.0
H1150 H 0.98503 0.69513 0.5594 0.0
H1151 H 0.03157 0.75581 0.70059 0.0
H1152 H 0.11289 0.821 0.57729 0.0
H1153 H 0.08221 0.80264 0.61074 0.0
H1154 H 0.03528 0.74247 0.46389 0.0
C1155 C 0.98246 0.70519 0.59506 0.0
C1156 C 0.03217 0.75287 0.64868 0.0
C1157 C 0.96488 0.69502 0.61497 0.0
C1158 C 0.10232 0.80371 0.5536 0.0
C1159 C 0.08468 0.79313 0.57286 0.0
C1160 C 0.03474 0.74535 0.51587 0.0
C1161 C 0.99666 0.72788 0.62193 0.0
C1162 C 0.01552 0.73868 0.60157 0.0
C1163 C 0.07031 0.77084 0.54258 0.0
C1164 C 0.05141 0.7596 0.56296 0.0
H1165 H 0.97272 0.74011 0.72465 0.0
H1166 H 1.00322 0.75777 0.68984 0.0
H1167 H 1.00454 0.72443 0.49715 0.0
H1168 H 0.09427 0.76075 0.43468 0.0
H1169 H 0.06364 0.74218 0.46873 0.0
loop_
_geom_bond_atom_site_label_1
_geom_bond_atom_site_label_2
_geom_bond_distance
_geom_bond_site_symmetry_2
_ccdc_geom_bond_type
Eu0 C9 2.828 . S
Eu0 O11 2.392 . S
Eu0 O13 2.418 1_554 S
Eu0 O18 2.373 . S
Eu0 O21 2.488 . S
Eu0 O22 2.471 . S
Eu0 O23 2.349 . S
Eu1 O10 2.373 . S
Eu1 O14 2.488 1_455 S
Eu1 O15 2.471 1_554 S
Eu1 O16 2.349 1_554 S
Eu1 O19 2.392 . S
Eu1 O20 2.418 . S
Eu1 C30 2.828 1_455 S
C2 O20 1.244 . S
C2 O23 1.265 . S
C3 C4 1.379 . S
C3 C7 1.373 . S
C3 C9 1.505 . S
C4 C3 1.379 . S
C4 C6 1.369 . S
C4 H32 0.930 . S
C5 C7 1.383 . S
C5 C8 1.382 . S
C5 H33 0.930 . S
C6 C4 1.369 . S
C6 C8 1.392 . S
C6 H34 0.930 . S
C7 C3 1.373 . S
C7 C5 1.383 . S
C7 H35 0.931 . S
C8 C5 1.382 . S
C8 C6 1.392 . S
C9 Eu0 2.828 . S
C9 C3 1.505 . S
C9 O21 1.249 . S
C9 O22 1.244 . S
O10 Eu1 2.373 . S
O10 C12 1.258 . S
O11 Eu0 2.392 . S
O11 C12 1.242 . S
C12 O10 1.258 . S
C12 O11 1.242 . S
O13 Eu0 2.418 1_556 S
O13 C17 1.244 . S
O14 Eu1 2.488 1_655 S
O14 C30 1.249 . S
O15 Eu1 2.471 1_556 S
O15 C30 1.244 1_456 S
O16 Eu1 2.349 1_556 S
O16 C17 1.265 . S
C17 O13 1.244 . S
C17 O16 1.265 . S
O18 Eu0 2.373 . S
O18 C31 1.258 . S
O19 Eu1 2.392 . S
O19 C31 1.242 . S
O20 Eu1 2.418 . S
O20 C2 1.244 . S
O21 Eu0 2.488 . S
O21 C9 1.249 . S
O22 Eu0 2.471 . S
O22 C9 1.244 . S
O23 Eu0 2.349 . S
O23 C2 1.265 . S
C24 C25 1.379 1_554 S
C24 C28 1.373 . S
C24 C30 1.505 . S
C25 C24 1.379 1_556 S
C25 C27 1.369 . S
C25 H36 0.930 1_655 S
C26 C28 1.383 . S
C26 C29 1.382 1_554 S
C26 H37 0.930 . S
C27 C25 1.369 . S
C27 C29 1.392 . S
C27 H38 0.930 . S
C28 C24 1.373 . S
C28 C26 1.383 . S
C28 H39 0.931 . S
C29 C26 1.382 1_556 S
C29 C27 1.392 . S
C30 Eu1 2.828 1_655 S
C30 O14 1.249 . S
C30 O15 1.244 1_654 S
C30 C24 1.505 . S
C31 O18 1.258 . S
C31 O19 1.242 . S
H32 C4 0.930 . S
H33 C5 0.930 . S
H34 C6 0.930 . S
H35 C7 0.931 . S
H36 C25 0.930 1_455 S
H37 C26 0.930 . S
H38 C27 0.930 . S
H39 C28 0.931 . S
Eu40 C49 2.828 . S
Eu40 O51 2.392 . S
Eu40 O53 2.418 . S
Eu40 O58 2.373 . S
Eu40 O61 2.488 . S
Eu40 O62 2.471 . S
Eu40 O63 2.349 . S
Eu41 O50 2.373 . S
Eu41 O54 2.488 . S
Eu41 O55 2.471 . S
Eu41 O56 2.349 . S
Eu41 O59 2.392 . S
Eu41 O60 2.418 1_554 S
Eu41 C70 2.828 . S
C42 O60 1.244 . S
C42 O63 1.265 1_556 S
C43 C44 1.379 . S
C43 C47 1.373 . S
C43 C49 1.505 . S
C44 C43 1.379 . S
C44 C46 1.369 . S
C44 H72 0.930 . S
C45 C47 1.383 . S
C45 C48 1.382 . S
C45 H73 0.930 . S
C46 C44 1.369 . S
C46 C48 1.392 . S
C46 H74 0.930 . S
C47 C43 1.373 . S
C47 C45 1.383 . S
C47 H75 0.931 . S
C48 C45 1.382 . S
C48 C46 1.392 . S
C49 Eu40 2.828 . S
C49 C43 1.505 . S
C49 O61 1.249 . S
C49 O62 1.244 . S
O50 Eu41 2.373 . S
O50 C52 1.258 . S
O51 Eu40 2.392 . S
O51 C52 1.242 . S
C52 O50 1.258 . S
C52 O51 1.242 . S
O53 Eu40 2.418 . S
O53 C57 1.244 . S
O54 Eu41 2.488 . S
O54 C70 1.249 . S
O55 Eu41 2.471 . S
O55 C70 1.244 . S
O56 Eu41 2.349 . S
O56 C57 1.265 . S
C57 O53 1.244 . S
C57 O56 1.265 . S
O58 Eu40 2.373 . S
O58 C71 1.258 . S
O59 Eu41 2.392 . S
O59 C71 1.242 . S
O60 Eu41 2.418 1_556 S
O60 C42 1.244 . S
O61 Eu40 2.488 . S
O61 C49 1.249 . S
O62 Eu40 2.471 . S
O62 C49 1.244 . S
O63 Eu40 2.349 . S
O63 C42 1.265 1_554 S
C64 C65 1.379 . S
C64 C68 1.373 . S
C64 C70 1.505 . S
C65 C64 1.379 . S
C65 C67 1.369 . S
C65 H76 0.930 . S
C66 C68 1.383 . S
C66 C69 1.382 . S
C66 H77 0.930 . S
C67 C65 1.369 . S
C67 C69 1.392 . S
C67 H78 0.930 . S
C68 C64 1.373 . S
C68 C66 1.383 . S
C68 H79 0.931 . S
C69 C66 1.382 . S
C69 C67 1.392 . S
C70 Eu41 2.828 . S
C70 O54 1.249 . S
C70 O55 1.244 . S
C70 C64 1.505 . S
C71 O58 1.258 . S
C71 O59 1.242 . S
H72 C44 0.930 . S
H73 C45 0.930 . S
H74 C46 0.930 . S
H75 C47 0.931 . S
H76 C65 0.930 . S
H77 C66 0.930 . S
H78 C67 0.930 . S
H79 C68 0.931 . S
Eu80 C89 2.828 . S
Eu80 O91 2.392 . S
Eu80 O93 2.418 . S
Eu80 O98 2.373 . S
Eu80 O101 2.488 . S
Eu80 O102 2.471 . S
Eu80 O103 2.349 . S
Eu81 O90 2.373 . S
Eu81 O94 2.488 . S
Eu81 O95 2.471 . S
Eu81 O96 2.349 . S
Eu81 O99 2.392 . S
Eu81 O100 2.418 . S
Eu81 C110 2.828 . S
C82 O100 1.244 . S
C82 O103 1.265 . S
C83 C84 1.379 . S
C83 C87 1.373 . S
C83 C89 1.505 . S
C84 C83 1.379 . S
C84 C86 1.369 . S
C84 H112 0.930 . S
C85 C87 1.383 . S
C85 C88 1.382 . S
C85 H113 0.930 . S
C86 C84 1.369 . S
C86 C88 1.392 . S
C86 H114 0.930 . S
C87 C83 1.373 . S
C87 C85 1.383 . S
C87 H115 0.931 . S
C88 C85 1.382 . S
C88 C86 1.392 . S
C89 Eu80 2.828 . S
C89 C83 1.505 . S
C89 O101 1.249 . S
C89 O102 1.244 . S
O90 Eu81 2.373 . S
O90 C92 1.258 . S
O91 Eu80 2.392 . S
O91 C92 1.242 . S
C92 O90 1.258 . S
C92 O91 1.242 . S
O93 Eu80 2.418 . S
O93 C97 1.244 . S
O94 Eu81 2.488 . S
O94 C110 1.249 . S
O95 Eu81 2.471 . S
O95 C110 1.244 . S
O96 Eu81 2.349 . S
O96 C97 1.265 . S
C97 O93 1.244 . S
C97 O96 1.265 . S
O98 Eu80 2.373 . S
O98 C111 1.258 . S
O99 Eu81 2.392 . S
O99 C111 1.242 . S
O100 Eu81 2.418 . S
O100 C82 1.244 . S
O101 Eu80 2.488 . S
O101 C89 1.249 . S
O102 Eu80 2.471 . S
O102 C89 1.244 . S
O103 Eu80 2.349 . S
O103 C82 1.265 . S
C104 C105 1.379 . S
C104 C108 1.373 . S
C104 C110 1.505 . S
C105 C104 1.379 . S
C105 C107 1.369 . S
C105 H116 0.930 . S
C106 C108 1.383 . S
C106 C109 1.382 . S
C106 H117 0.930 . S
C107 C105 1.369 . S
C107 C109 1.392 . S
C107 H118 0.930 . S
C108 C104 1.373 . S
C108 C106 1.383 . S
C108 H119 0.931 . S
C109 C106 1.382 . S
C109 C107 1.392 . S
C110 Eu81 2.828 . S
C110 O94 1.249 . S
C110 O95 1.244 . S
C110 C104 1.505 . S
C111 O98 1.258 . S
C111 O99 1.242 . S
H112 C84 0.930 . S
H113 C85 0.930 . S
H114 C86 0.930 . S
H115 C87 0.931 . S
H116 C105 0.930 . S
H117 C106 0.930 . S
H118 C107 0.930 . S
H119 C108 0.931 . S
Eu120 C129 2.828 . S
Eu120 O131 2.392 . S
Eu120 O133 2.418 . S
Eu120 O138 2.373 . S
Eu120 O141 2.488 . S
Eu120 O142 2.471 . S
Eu120 O143 2.349 . S
Eu121 O130 2.373 . S
Eu121 O134 2.488 . S
Eu121 O135 2.471 . S
Eu121 O136 2.349 . S
Eu121 O139 2.392 . S
Eu121 O140 2.418 . S
Eu121 C150 2.828 . S
C122 O140 1.244 . S
C122 O143 1.265 . S
C123 C124 1.379 . S
C123 C127 1.373 . S
C123 C129 1.505 . S
C124 C123 1.379 . S
C124 C126 1.369 . S
C124 H152 0.930 . S
C125 C127 1.383 . S
C125 C128 1.382 . S
C125 H153 0.930 . S
C126 C124 1.369 . S
C126 C128 1.392 . S
C126 H154 0.930 . S
C127 C123 1.373 . S
C127 C125 1.383 . S
C127 H155 0.931 . S
C128 C125 1.382 . S
C128 C126 1.392 . S
C129 Eu120 2.828 . S
C129 C123 1.505 . S
C129 O141 1.249 . S
C129 O142 1.244 . S
O130 Eu121 2.373 . S
O130 C132 1.258 . S
O131 Eu120 2.392 . S
O131 C132 1.242 . S
C132 O130 1.258 . S
C132 O131 1.242 . S
O133 Eu120 2.418 . S
O133 C137 1.244 . S
O134 Eu121 2.488 . S
O134 C150 1.249 . S
O135 Eu121 2.471 . S
O135 C150 1.244 . S
O136 Eu121 2.349 . S
O136 C137 1.265 . S
C137 O133 1.244 . S
C137 O136 1.265 . S
O138 Eu120 2.373 . S
O138 C151 1.258 . S
O139 Eu121 2.392 . S
O139 C151 1.242 . S
O140 Eu121 2.418 . S
O140 C122 1.244 . S
O141 Eu120 2.488 . S
O141 C129 1.249 . S
O142 Eu120 2.471 . S
O142 C129 1.244 . S
O143 Eu120 2.349 . S
O143 C122 1.265 . S
C144 C145 1.379 . S
C144 C148 1.373 . S
C144 C150 1.505 . S
C145 C144 1.379 . S
C145 C147 1.369 . S
C145 H156 0.930 . S
C146 C148 1.383 . S
C146 C149 1.382 . S
C146 H157 0.930 . S
C147 C145 1.369 . S
C147 C149 1.392 . S
C147 H158 0.930 . S
C148 C144 1.373 . S
C148 C146 1.383 . S
C148 H159 0.931 . S
C149 C146 1.382 . S
C149 C147 1.392 . S
C150 Eu121 2.828 . S
C150 O134 1.249 . S
C150 O135 1.244 . S
C150 C144 1.505 . S
C151 O138 1.258 . S
C151 O139 1.242 . S
H152 C124 0.930 . S
H153 C125 0.930 . S
H154 C126 0.930 . S
H155 C127 0.931 . S
H156 C145 0.930 . S
H157 C146 0.930 . S
H158 C147 0.930 . S
H159 C148 0.931 . S
Eu160 C169 2.828 . S
Eu160 O171 2.392 . S
Eu160 O173 2.418 . S
Eu160 O178 2.373 . S
Eu160 O181 2.488 . S
Eu160 O182 2.471 . S
Eu160 O183 2.349 . S
Eu161 O170 2.373 . S
Eu161 O174 2.488 . S
Eu161 O175 2.471 . S
Eu161 O176 2.349 . S
Eu161 O179 2.392 . S
Eu161 O180 2.418 . S
Eu161 C190 2.828 . S
C162 O180 1.244 . S
C162 O183 1.265 . S
C163 C164 1.379 . S
C163 C167 1.373 . S
C163 C169 1.505 . S
C164 C163 1.379 . S
C164 C166 1.369 . S
C164 H192 0.930 . S
C165 C167 1.383 . S
C165 C168 1.382 . S
C165 H193 0.930 . S
C166 C164 1.369 . S
C166 C168 1.392 . S
C166 H194 0.930 . S
C167 C163 1.373 . S
C167 C165 1.383 . S
C167 H195 0.931 . S
C168 C165 1.382 . S
C168 C166 1.392 . S
C169 Eu160 2.828 . S
C169 C163 1.505 . S
C169 O181 1.249 . S
C169 O182 1.244 . S
O170 Eu161 2.373 . S
O170 C172 1.258 . S
O171 Eu160 2.392 . S
O171 C172 1.242 . S
C172 O170 1.258 . S
C172 O171 1.242 . S
O173 Eu160 2.418 . S
O173 C177 1.244 . S
O174 Eu161 2.488 . S
O174 C190 1.249 . S
O175 Eu161 2.471 . S
O175 C190 1.244 . S
O176 Eu161 2.349 . S
O176 C177 1.265 . S
C177 O173 1.244 . S
C177 O176 1.265 . S
O178 Eu160 2.373 . S
O178 C191 1.258 . S
O179 Eu161 2.392 . S
O179 C191 1.242 . S
O180 Eu161 2.418 . S
O180 C162 1.244 . S
O181 Eu160 2.488 . S
O181 C169 1.249 . S
O182 Eu160 2.471 . S
O182 C169 1.244 . S
O183 Eu160 2.349 . S
O183 C162 1.265 . S
C184 C185 1.379 . S
C184 C188 1.373 . S
C184 C190 1.505 . S
C185 C184 1.379 . S
C185 C187 1.369 . S
C185 H196 0.930 . S
C186 C188 1.383 . S
C186 C189 1.382 . S
C186 H197 0.930 . S
C187 C185 1.369 . S
C187 C189 1.392 . S
C187 H198 0.930 . S
C188 C184 1.373 . S
C188 C186 1.383 . S
C188 H199 0.931 . S
C189 C186 1.382 . S
C189 C187 1.392 . S
C190 Eu161 2.828 . S
C190 O174 1.249 . S
C190 O175 1.244 . S
C190 C184 1.505 . S
C191 O178 1.258 . S
C191 O179 1.242 . S
H192 C164 0.930 . S
H193 C165 0.930 . S
H194 C166 0.930 . S
H195 C167 0.931 . S
H196 C185 0.930 . S
H197 C186 0.930 . S
H198 C187 0.930 . S
H199 C188 0.931 . S
Eu200 C209 2.828 . S
Eu200 O211 2.392 . S
Eu200 O213 2.418 . S
Eu200 O218 2.373 . S
Eu200 O221 2.488 . S
Eu200 O222 2.471 . S
Eu200 O223 2.349 . S
Eu201 O210 2.373 . S
Eu201 O214 2.488 . S
Eu201 O215 2.471 . S
Eu201 O216 2.349 . S
Eu201 O219 2.392 . S
Eu201 O220 2.418 . S
Eu201 C230 2.828 . S
C202 O220 1.244 . S
C202 O223 1.265 . S
C203 C204 1.379 . S
C203 C207 1.373 . S
C203 C209 1.505 . S
C204 C203 1.379 . S
C204 C206 1.369 . S
C204 H232 0.930 . S
C205 C207 1.383 . S
C205 C208 1.382 . S
C205 H233 0.930 . S
C206 C204 1.369 . S
C206 C208 1.392 . S
C206 H234 0.930 . S
C207 C203 1.373 . S
C207 C205 1.383 . S
C207 H235 0.931 . S
C208 C205 1.382 . S
C208 C206 1.392 . S
C209 Eu200 2.828 . S
C209 C203 1.505 . S
C209 O221 1.249 . S
C209 O222 1.244 . S
O210 Eu201 2.373 . S
O210 C212 1.258 . S
O211 Eu200 2.392 . S
O211 C212 1.242 . S
C212 O210 1.258 . S
C212 O211 1.242 . S
O213 Eu200 2.418 . S
O213 C217 1.244 . S
O214 Eu201 2.488 . S
O214 C230 1.249 . S
O215 Eu201 2.471 . S
O215 C230 1.244 . S
O216 Eu201 2.349 . S
O216 C217 1.265 . S
C217 O213 1.244 . S
C217 O216 1.265 . S
O218 Eu200 2.373 . S
O218 C231 1.258 . S
O219 Eu201 2.392 . S
O219 C231 1.242 . S
O220 Eu201 2.418 . S
O220 C202 1.244 . S
O221 Eu200 2.488 . S
O221 C209 1.249 . S
O222 Eu200 2.471 . S
O222 C209 1.244 . S
O223 Eu200 2.349 . S
O223 C202 1.265 . S
C224 C225 1.379 . S
C224 C228 1.373 . S
C224 C230 1.505 . S
C225 C224 1.379 . S
C225 C227 1.369 . S
C225 H236 0.930 . S
C226 C228 1.383 . S
C226 C229 1.382 . S
C226 H237 0.930 . S
C227 C225 1.369 . S
C227 C229 1.392 . S
C227 H238 0.930 . S
C228 C224 1.373 . S
C228 C226 1.383 . S
C228 H239 0.931 . S
C229 C226 1.382 . S
C229 C227 1.392 . S
C230 Eu201 2.828 . S
C230 O214 1.249 . S
C230 O215 1.244 . S
C230 C224 1.505 . S
C231 O218 1.258 . S
C231 O219 1.242 . S
H232 C204 0.930 . S
H233 C205 0.930 . S
H234 C206 0.930 . S
H235 C207 0.931 . S
H236 C225 0.930 . S
H237 C226 0.930 . S
H238 C227 0.930 . S
H239 C228 0.931 . S
Eu240 C249 2.828 . S
Eu240 O251 2.392 . S
Eu240 O253 2.418 . S
Eu240 O258 2.373 . S
Eu240 O261 2.488 . S
Eu240 O262 2.471 . S
Eu240 O263 2.349 . S
Eu241 O250 2.373 . S
Eu241 O254 2.488 . S
Eu241 O255 2.471 . S
Eu241 O256 2.349 . S
Eu241 O259 2.392 . S
Eu241 O260 2.418 . S
Eu241 C270 2.828 . S
C242 O260 1.244 . S
C242 O263 1.265 . S
C243 C244 1.379 . S
C243 C247 1.373 . S
C243 C249 1.505 . S
C244 C243 1.379 . S
C244 C246 1.369 . S
C244 H272 0.930 . S
C245 C247 1.383 . S
C245 C248 1.382 . S
C245 H273 0.930 . S
C246 C244 1.369 . S
C246 C248 1.392 . S
C246 H274 0.930 . S
C247 C243 1.373 . S
C247 C245 1.383 . S
C247 H275 0.931 . S
C248 C245 1.382 . S
C248 C246 1.392 . S
C249 Eu240 2.828 . S
C249 C243 1.505 . S
C249 O261 1.249 . S
C249 O262 1.244 . S
O250 Eu241 2.373 . S
O250 C252 1.258 . S
O251 Eu240 2.392 . S
O251 C252 1.242 . S
C252 O250 1.258 . S
C252 O251 1.242 . S
O253 Eu240 2.418 . S
O253 C257 1.244 . S
O254 Eu241 2.488 . S
O254 C270 1.249 . S
O255 Eu241 2.471 . S
O255 C270 1.244 . S
O256 Eu241 2.349 . S
O256 C257 1.265 . S
C257 O253 1.244 . S
C257 O256 1.265 . S
O258 Eu240 2.373 . S
O258 C271 1.258 . S
O259 Eu241 2.392 . S
O259 C271 1.242 . S
O260 Eu241 2.418 . S
O260 C242 1.244 . S
O261 Eu240 2.488 . S
O261 C249 1.249 . S
O262 Eu240 2.471 . S
O262 C249 1.244 . S
O263 Eu240 2.349 . S
O263 C242 1.265 . S
C264 C265 1.379 . S
C264 C268 1.373 . S
C264 C270 1.505 . S
C265 C264 1.379 . S
C265 C267 1.369 1_556 S
C265 H276 0.930 . S
C266 C268 1.383 1_554 S
C266 C269 1.382 . S
C266 H277 0.930 . S
C267 C265 1.369 1_554 S
C267 C269 1.392 . S
C267 H278 0.930 . S
C268 C264 1.373 . S
C268 C266 1.383 1_556 S
C268 H279 0.931 . S
C269 C266 1.382 . S
C269 C267 1.392 . S
C270 Eu241 2.828 . S
C270 O254 1.249 . S
C270 O255 1.244 . S
C270 C264 1.505 . S
C271 O258 1.258 . S
C271 O259 1.242 . S
H272 C244 0.930 . S
H273 C245 0.930 . S
H274 C246 0.930 . S
H275 C247 0.931 . S
H276 C265 0.930 . S
H277 C266 0.930 . S
H278 C267 0.930 . S
H279 C268 0.931 . S
Eu280 C289 2.828 . S
Eu280 O291 2.392 . S
Eu280 O293 2.418 . S
Eu280 O298 2.373 . S
Eu280 O301 2.488 . S
Eu280 O302 2.471 . S
Eu280 O303 2.349 . S
Eu281 O290 2.373 . S
Eu281 O294 2.488 . S
Eu281 O295 2.471 . S
Eu281 O296 2.349 . S
Eu281 O299 2.392 . S
Eu281 O300 2.418 . S
Eu281 C310 2.828 . S
C282 O300 1.244 . S
C282 O303 1.265 . S
C283 C284 1.379 . S
C283 C287 1.373 . S
C283 C289 1.505 . S
C284 C283 1.379 . S
C284 C286 1.369 1_556 S
C284 H312 0.930 . S
C285 C287 1.383 1_554 S
C285 C288 1.382 . S
C285 H313 0.930 . S
C286 C284 1.369 1_554 S
C286 C288 1.392 . S
C286 H314 0.930 . S
C287 C283 1.373 . S
C287 C285 1.383 1_556 S
C287 H315 0.931 . S
C288 C285 1.382 . S
C288 C286 1.392 . S
C289 Eu280 2.828 . S
C289 C283 1.505 . S
C289 O301 1.249 . S
C289 O302 1.244 . S
O290 Eu281 2.373 . S
O290 C292 1.258 . S
O291 Eu280 2.392 . S
O291 C292 1.242 . S
C292 O290 1.258 . S
C292 O291 1.242 . S
O293 Eu280 2.418 . S
O293 C297 1.244 . S
O294 Eu281 2.488 . S
O294 C310 1.249 . S
O295 Eu281 2.471 . S
O295 C310 1.244 . S
O296 Eu281 2.349 . S
O296 C297 1.265 . S
C297 O293 1.244 . S
C297 O296 1.265 . S
O298 Eu280 2.373 . S
O298 C311 1.258 . S
O299 Eu281 2.392 . S
O299 C311 1.242 . S
O300 Eu281 2.418 . S
O300 C282 1.244 . S
O301 Eu280 2.488 . S
O301 C289 1.249 . S
O302 Eu280 2.471 . S
O302 C289 1.244 . S
O303 Eu280 2.349 . S
O303 C282 1.265 . S
C304 C305 1.379 . S
C304 C308 1.373 . S
C304 C310 1.505 . S
C305 C304 1.379 . S
C305 C307 1.369 . S
C305 H316 0.930 . S
C306 C308 1.383 . S
C306 C309 1.382 . S
C306 H317 0.930 . S
C307 C305 1.369 . S
C307 C309 1.392 . S
C307 H318 0.930 . S
C308 C304 1.373 . S
C308 C306 1.383 . S
C308 H319 0.931 . S
C309 C306 1.382 . S
C309 C307 1.392 . S
C310 Eu281 2.828 . S
C310 O294 1.249 . S
C310 O295 1.244 . S
C310 C304 1.505 . S
C311 O298 1.258 . S
C311 O299 1.242 . S
H312 C284 0.930 . S
H313 C285 0.930 . S
H314 C286 0.930 . S
H315 C287 0.931 . S
H316 C305 0.930 . S
H317 C306 0.930 . S
H318 C307 0.930 . S
H319 C308 0.931 . S
Eu320 C329 2.828 . S
Eu320 O331 2.392 . S
Eu320 O333 2.418 . S
Eu320 O338 2.373 . S
Eu320 O341 2.488 . S
Eu320 O342 2.471 . S
Eu320 O343 2.349 . S
Eu321 O330 2.373 . S
Eu321 O334 2.488 . S
Eu321 O335 2.471 . S
Eu321 O336 2.349 . S
Eu321 O339 2.392 . S
Eu321 O340 2.418 . S
Eu321 C350 2.828 . S
C322 O340 1.244 . S
C322 O343 1.265 . S
C323 C324 1.379 . S
C323 C327 1.373 . S
C323 C329 1.505 . S
C324 C323 1.379 . S
C324 C326 1.369 . S
C324 H352 0.930 . S
C325 C327 1.383 . S
C325 C328 1.382 . S
C325 H353 0.930 . S
C326 C324 1.369 . S
C326 C328 1.392 . S
C326 H354 0.930 . S
C327 C323 1.373 . S
C327 C325 1.383 . S
C327 H355 0.931 . S
C328 C325 1.382 . S
C328 C326 1.392 . S
C329 Eu320 2.828 . S
C329 C323 1.505 . S
C329 O341 1.249 . S
C329 O342 1.244 . S
O330 Eu321 2.373 . S
O330 C332 1.258 . S
O331 Eu320 2.392 . S
O331 C332 1.242 . S
C332 O330 1.258 . S
C332 O331 1.242 . S
O333 Eu320 2.418 . S
O333 C337 1.244 . S
O334 Eu321 2.488 . S
O334 C350 1.249 . S
O335 Eu321 2.471 . S
O335 C350 1.244 . S
O336 Eu321 2.349 . S
O336 C337 1.265 . S
C337 O333 1.244 . S
C337 O336 1.265 . S
O338 Eu320 2.373 . S
O338 C351 1.258 . S
O339 Eu321 2.392 . S
O339 C351 1.242 . S
O340 Eu321 2.418 . S
O340 C322 1.244 . S
O341 Eu320 2.488 . S
O341 C329 1.249 . S
O342 Eu320 2.471 . S
O342 C329 1.244 . S
O343 Eu320 2.349 . S
O343 C322 1.265 . S
C344 C345 1.379 . S
C344 C348 1.373 . S
C344 C350 1.505 . S
C345 C344 1.379 . S
C345 C347 1.369 1_556 S
C345 H356 0.930 . S
C346 C348 1.383 1_554 S
C346 C349 1.382 . S
C346 H357 0.930 . S
C347 C345 1.369 1_554 S
C347 C349 1.392 . S
C347 H358 0.930 . S
C348 C344 1.373 . S
C348 C346 1.383 1_556 S
C348 H359 0.931 . S
C349 C346 1.382 . S
C349 C347 1.392 . S
C350 Eu321 2.828 . S
C350 O334 1.249 . S
C350 O335 1.244 . S
C350 C344 1.505 . S
C351 O338 1.258 . S
C351 O339 1.242 . S
H352 C324 0.930 . S
H353 C325 0.930 . S
H354 C326 0.930 . S
H355 C327 0.931 . S
H356 C345 0.930 . S
H357 C346 0.930 . S
H358 C347 0.930 . S
H359 C348 0.931 . S
C360 C361 1.349 . S
C360 C362 1.327 . S
C360 H385 0.950 . S
C361 C360 1.349 . S
C361 C377 1.349 . S
C362 C360 1.327 . S
C362 C381 1.429 . S
C362 H386 0.950 . S
C363 C380 1.574 . S
C363 C382 1.368 . S
C363 H387 0.949 . S
H364 C368 0.949 . S
C365 C366 1.349 . S
C365 C367 1.327 . S
C365 H388 0.950 . S
C366 C365 1.349 . S
C366 C378 1.349 . S
C367 C365 1.327 . S
C367 C383 1.429 . S
C367 H389 0.950 . S
C368 H364 0.949 . S
C368 C376 1.574 . S
C368 C384 1.368 . S
H369 C377 0.950 . S
H370 C375 0.950 . S
H371 C376 0.949 . S
H372 C378 0.950 . S
H373 C379 0.950 . S
H374 C380 0.949 . S
C375 H370 0.950 . S
C375 C377 1.327 . S
C375 C381 1.429 . S
C376 C368 1.574 . S
C376 H371 0.949 . S
C376 C382 1.368 . S
C377 C361 1.349 . S
C377 H369 0.950 . S
C377 C375 1.327 . S
C378 C366 1.349 . S
C378 H372 0.950 . S
C378 C379 1.327 . S
C379 H373 0.950 . S
C379 C378 1.327 . S
C379 C383 1.429 . S
C380 C363 1.574 . S
C380 H374 0.949 . S
C380 C384 1.368 . S
C381 C362 1.429 . S
C381 C375 1.429 . S
C381 C382 1.523 . S
C382 C363 1.368 . S
C382 C376 1.368 . S
C382 C381 1.523 . S
C383 C367 1.429 . S
C383 C379 1.429 . S
C383 C384 1.523 . S
C384 C368 1.368 . S
C384 C380 1.368 . S
C384 C383 1.523 . S
H385 C360 0.950 . S
H386 C362 0.950 . S
H387 C363 0.949 . S
H388 C365 0.950 . S
H389 C367 0.950 . S
C390 C391 1.349 . S
C390 C392 1.327 . S
C390 H415 0.950 . S
C391 C390 1.349 . S
C391 C407 1.349 . S
C392 C390 1.327 . S
C392 C411 1.429 . S
C392 H416 0.950 . S
C393 C410 1.574 . S
C393 C412 1.368 . S
C393 H417 0.949 . S
H394 C398 0.949 . S
C395 C396 1.349 . S
C395 C397 1.327 . S
C395 H418 0.950 . S
C396 C395 1.349 . S
C396 C408 1.349 . S
C397 C395 1.327 . S
C397 C413 1.429 . S
C397 H419 0.950 . S
C398 H394 0.949 . S
C398 C406 1.574 . S
C398 C414 1.368 . S
H399 C407 0.950 . S
H400 C405 0.950 . S
H401 C406 0.949 . S
H402 C408 0.950 . S
H403 C409 0.950 . S
H404 C410 0.949 . S
C405 H400 0.950 . S
C405 C407 1.327 . S
C405 C411 1.429 . S
C406 C398 1.574 . S
C406 H401 0.949 . S
C406 C412 1.368 . S
C407 C391 1.349 . S
C407 H399 0.950 . S
C407 C405 1.327 . S
C408 C396 1.349 . S
C408 H402 0.950 . S
C408 C409 1.327 . S
C409 H403 0.950 . S
C409 C408 1.327 . S
C409 C413 1.429 . S
C410 C393 1.574 . S
C410 H404 0.949 . S
C410 C414 1.368 . S
C411 C392 1.429 . S
C411 C405 1.429 . S
C411 C412 1.523 . S
C412 C393 1.368 . S
C412 C406 1.368 . S
C412 C411 1.523 . S
C413 C397 1.429 . S
C413 C409 1.429 . S
C413 C414 1.523 . S
C414 C398 1.368 . S
C414 C410 1.368 . S
C414 C413 1.523 . S
H415 C390 0.950 . S
H416 C392 0.950 . S
H417 C393 0.949 . S
H418 C395 0.950 . S
H419 C397 0.950 . S
C420 C421 1.349 . S
C420 C422 1.327 . S
C420 H445 0.950 . S
C421 C420 1.349 . S
C421 C437 1.349 . S
C422 C420 1.327 . S
C422 C441 1.429 . S
C422 H446 0.950 . S
C423 C440 1.574 . S
C423 C442 1.368 . S
C423 H447 0.949 . S
H424 C428 0.949 . S
C425 C426 1.349 . S
C425 C427 1.327 . S
C425 H448 0.950 . S
C426 C425 1.349 . S
C426 C438 1.349 . S
C427 C425 1.327 . S
C427 C443 1.429 . S
C427 H449 0.950 . S
C428 H424 0.949 . S
C428 C436 1.574 . S
C428 C444 1.368 . S
H429 C437 0.950 . S
H430 C435 0.950 . S
H431 C436 0.949 . S
H432 C438 0.950 . S
H433 C439 0.950 . S
H434 C440 0.949 . S
C435 H430 0.950 . S
C435 C437 1.327 . S
C435 C441 1.429 . S
C436 C428 1.574 . S
C436 H431 0.949 . S
C436 C442 1.368 . S
C437 C421 1.349 . S
C437 H429 0.950 . S
C437 C435 1.327 . S
C438 C426 1.349 . S
C438 H432 0.950 . S
C438 C439 1.327 . S
C439 H433 0.950 . S
C439 C438 1.327 . S
C439 C443 1.429 . S
C440 C423 1.574 . S
C440 H434 0.949 . S
C440 C444 1.368 . S
C441 C422 1.429 . S
C441 C435 1.429 . S
C441 C442 1.523 . S
C442 C423 1.368 . S
C442 C436 1.368 . S
C442 C441 1.523 . S
C443 C427 1.429 . S
C443 C439 1.429 . S
C443 C444 1.523 . S
C444 C428 1.368 . S
C444 C440 1.368 . S
C444 C443 1.523 . S
H445 C420 0.950 . S
H446 C422 0.950 . S
H447 C423 0.949 . S
H448 C425 0.950 . S
H449 C427 0.950 . S
C450 C451 1.349 . S
C450 C452 1.327 . S
C450 H475 0.950 . S
C451 C450 1.349 . S
C451 C467 1.349 . S
C452 C450 1.327 . S
C452 C471 1.429 . S
C452 H476 0.950 . S
C453 C470 1.574 . S
C453 C472 1.368 . S
C453 H477 0.949 . S
H454 C458 0.949 . S
C455 C456 1.349 . S
C455 C457 1.327 1_554 S
C455 H478 0.950 . S
C456 C455 1.349 . S
C456 C468 1.349 . S
C457 C455 1.327 1_556 S
C457 C473 1.429 . S
C457 H479 0.950 . S
C458 H454 0.949 . S
C458 C466 1.574 . S
C458 C474 1.368 . S
H459 C467 0.950 . S
H460 C465 0.950 . S
H461 C466 0.949 . S
H462 C468 0.950 . S
H463 C469 0.950 . S
H464 C470 0.949 . S
C465 H460 0.950 . S
C465 C467 1.327 . S
C465 C471 1.429 . S
C466 C458 1.574 . S
C466 H461 0.949 . S
C466 C472 1.368 . S
C467 C451 1.349 . S
C467 H459 0.950 . S
C467 C465 1.327 . S
C468 C456 1.349 . S
C468 H462 0.950 . S
C468 C469 1.327 1_554 S
C469 H463 0.950 . S
C469 C468 1.327 1_556 S
C469 C473 1.429 . S
C470 C453 1.574 . S
C470 H464 0.949 . S
C470 C474 1.368 . S
C471 C452 1.429 . S
C471 C465 1.429 . S
C471 C472 1.523 . S
C472 C453 1.368 . S
C472 C466 1.368 . S
C472 C471 1.523 . S
C473 C457 1.429 . S
C473 C469 1.429 . S
C473 C474 1.523 . S
C474 C458 1.368 . S
C474 C470 1.368 . S
C474 C473 1.523 . S
H475 C450 0.950 . S
H476 C452 0.950 . S
H477 C453 0.949 . S
H478 C455 0.950 . S
H479 C457 0.950 . S
C480 C481 1.349 . S
C480 C482 1.327 . S
C480 H505 0.950 . S
C481 C480 1.349 . S
C481 C497 1.349 . S
C482 C480 1.327 . S
C482 C501 1.429 . S
C482 H506 0.950 . S
C483 C500 1.574 . S
C483 C502 1.368 . S
C483 H507 0.949 . S
H484 C488 0.949 . S
C485 C486 1.349 1_556 S
C485 C487 1.327 . S
C485 H508 0.950 1_556 S
C486 C485 1.349 1_554 S
C486 C498 1.349 1_554 S
C487 C485 1.327 . S
C487 C503 1.429 . S
C487 H509 0.950 . S
C488 H484 0.949 . S
C488 C496 1.574 . S
C488 C504 1.368 . S
H489 C497 0.950 . S
H490 C495 0.950 . S
H491 C496 0.949 . S
H492 C498 0.950 . S
H493 C499 0.950 . S
H494 C500 0.949 . S
C495 H490 0.950 . S
C495 C497 1.327 . S
C495 C501 1.429 . S
C496 C488 1.574 . S
C496 H491 0.949 . S
C496 C502 1.368 . S
C497 C481 1.349 . S
C497 H489 0.950 . S
C497 C495 1.327 . S
C498 C486 1.349 1_556 S
C498 H492 0.950 . S
C498 C499 1.327 . S
C499 H493 0.950 . S
C499 C498 1.327 . S
C499 C503 1.429 . S
C500 C483 1.574 . S
C500 H494 0.949 . S
C500 C504 1.368 . S
C501 C482 1.429 . S
C501 C495 1.429 . S
C501 C502 1.523 . S
C502 C483 1.368 . S
C502 C496 1.368 . S
C502 C501 1.523 . S
C503 C487 1.429 . S
C503 C499 1.429 . S
C503 C504 1.523 . S
C504 C488 1.368 . S
C504 C500 1.368 . S
C504 C503 1.523 . S
H505 C480 0.950 . S
H506 C482 0.950 . S
H507 C483 0.949 . S
H508 C485 0.950 1_554 S
H509 C487 0.950 . S
C510 C511 1.349 . S
C510 C512 1.327 . S
C510 H535 0.950 . S
C511 C510 1.349 . S
C511 C527 1.349 . S
C512 C510 1.327 . S
C512 C531 1.429 . S
C512 H536 0.950 . S
C513 C530 1.574 . S
C513 C532 1.368 . S
C513 H537 0.949 . S
H514 C518 0.949 . S
C515 C516 1.349 . S
C515 C517 1.327 . S
C515 H538 0.950 . S
C516 C515 1.349 . S
C516 C528 1.349 . S
C517 C515 1.327 . S
C517 C533 1.429 . S
C517 H539 0.950 . S
C518 H514 0.949 . S
C518 C526 1.574 . S
C518 C534 1.368 . S
H519 C527 0.950 . S
H520 C525 0.950 . S
H521 C526 0.949 . S
H522 C528 0.950 . S
H523 C529 0.950 . S
H524 C530 0.949 . S
C525 H520 0.950 . S
C525 C527 1.327 . S
C525 C531 1.429 . S
C526 C518 1.574 . S
C526 H521 0.949 . S
C526 C532 1.368 . S
C527 C511 1.349 . S
C527 H519 0.950 . S
C527 C525 1.327 . S
C528 C516 1.349 . S
C528 H522 0.950 . S
C528 C529 1.327 . S
C529 H523 0.950 . S
C529 C528 1.327 . S
C529 C533 1.429 . S
C530 C513 1.574 . S
C530 H524 0.949 . S
C530 C534 1.368 . S
C531 C512 1.429 . S
C531 C525 1.429 . S
C531 C532 1.523 . S
C532 C513 1.368 . S
C532 C526 1.368 . S
C532 C531 1.523 . S
C533 C517 1.429 . S
C533 C529 1.429 . S
C533 C534 1.523 . S
C534 C518 1.368 . S
C534 C530 1.368 . S
C534 C533 1.523 . S
H535 C510 0.950 . S
H536 C512 0.950 . S
H537 C513 0.949 . S
H538 C515 0.950 . S
H539 C517 0.950 . S
C540 C541 1.349 . S
C540 C542 1.327 . S
C540 H565 0.950 . S
C541 C540 1.349 . S
C541 C557 1.349 . S
C542 C540 1.327 . S
C542 C561 1.429 . S
C542 H566 0.950 . S
C543 C560 1.574 . S
C543 C562 1.368 . S
C543 H567 0.949 . S
H544 C548 0.949 . S
C545 C546 1.349 1_554 S
C545 C547 1.327 . S
C545 H568 0.950 1_554 S
C546 C545 1.349 1_556 S
C546 C558 1.349 . S
C547 C545 1.327 . S
C547 C563 1.429 . S
C547 H569 0.950 . S
C548 H544 0.949 . S
C548 C556 1.574 . S
C548 C564 1.368 . S
H549 C557 0.950 . S
H550 C555 0.950 . S
H551 C556 0.949 . S
H552 C558 0.950 . S
H553 C559 0.950 . S
H554 C560 0.949 . S
C555 H550 0.950 . S
C555 C557 1.327 . S
C555 C561 1.429 . S
C556 C548 1.574 . S
C556 H551 0.949 . S
C556 C562 1.368 . S
C557 C541 1.349 . S
C557 H549 0.950 . S
C557 C555 1.327 . S
C558 C546 1.349 . S
C558 H552 0.950 . S
C558 C559 1.327 1_556 S
C559 H553 0.950 . S
C559 C558 1.327 1_554 S
C559 C563 1.429 . S
C560 C543 1.574 . S
C560 H554 0.949 . S
C560 C564 1.368 . S
C561 C542 1.429 . S
C561 C555 1.429 . S
C561 C562 1.523 . S
C562 C543 1.368 . S
C562 C556 1.368 . S
C562 C561 1.523 . S
C563 C547 1.429 . S
C563 C559 1.429 . S
C563 C564 1.523 . S
C564 C548 1.368 . S
C564 C560 1.368 . S
C564 C563 1.523 . S
H565 C540 0.950 . S
H566 C542 0.950 . S
H567 C543 0.949 . S
H568 C545 0.950 1_556 S
H569 C547 0.950 . S
C570 C571 1.349 . S
C570 C572 1.327 . S
C570 H595 0.950 . S
C571 C570 1.349 . S
C571 C587 1.349 . S
C572 C570 1.327 . S
C572 C591 1.429 . S
C572 H596 0.950 . S
C573 C590 1.574 . S
C573 C592 1.368 . S
C573 H597 0.949 . S
H574 C578 0.949 . S
C575 C576 1.349 . S
C575 C577 1.327 1_556 S
C575 H598 0.950 . S
C576 C575 1.349 . S
C576 C588 1.349 . S
C577 C575 1.327 1_554 S
C577 C593 1.429 . S
C577 H599 0.950 . S
C578 H574 0.949 . S
C578 C586 1.574 . S
C578 C594 1.368 . S
H579 C587 0.950 . S
H580 C585 0.950 . S
H581 C586 0.949 . S
H582 C588 0.950 . S
H583 C589 0.950 . S
H584 C590 0.949 . S
C585 H580 0.950 . S
C585 C587 1.327 . S
C585 C591 1.429 . S
C586 C578 1.574 . S
C586 H581 0.949 . S
C586 C592 1.368 . S
C587 C571 1.349 . S
C587 H579 0.950 . S
C587 C585 1.327 . S
C588 C576 1.349 . S
C588 H582 0.950 . S
C588 C589 1.327 1_556 S
C589 H583 0.950 . S
C589 C588 1.327 1_554 S
C589 C593 1.429 . S
C590 C573 1.574 . S
C590 H584 0.949 . S
C590 C594 1.368 . S
C591 C572 1.429 . S
C591 C585 1.429 . S
C591 C592 1.523 . S
C592 C573 1.368 . S
C592 C586 1.368 . S
C592 C591 1.523 . S
C593 C577 1.429 . S
C593 C589 1.429 . S
C593 C594 1.523 . S
C594 C578 1.368 . S
C594 C590 1.368 . S
C594 C593 1.523 . S
H595 C570 0.950 . S
H596 C572 0.950 . S
H597 C573 0.949 . S
H598 C575 0.950 . S
H599 C577 0.950 . S
C600 C601 1.349 . S
C600 C602 1.327 . S
C600 H625 0.950 . S
C601 C600 1.349 . S
C601 C617 1.349 . S
C602 C600 1.327 . S
C602 C621 1.429 . S
C602 H626 0.950 . S
C603 C620 1.574 . S
C603 C622 1.368 . S
C603 H627 0.949 . S
H604 C608 0.949 . S
C605 C606 1.349 1_554 S
C605 C607 1.327 . S
C605 H628 0.950 1_554 S
C606 C605 1.349 1_556 S
C606 C618 1.349 1_556 S
C607 C605 1.327 . S
C607 C623 1.429 . S
C607 H629 0.950 . S
C608 H604 0.949 . S
C608 C616 1.574 . S
C608 C624 1.368 . S
H609 C617 0.950 . S
H610 C615 0.950 . S
H611 C616 0.949 . S
H612 C618 0.950 1_556 S
H613 C619 0.950 . S
H614 C620 0.949 . S
C615 H610 0.950 . S
C615 C617 1.327 . S
C615 C621 1.429 . S
C616 C608 1.574 . S
C616 H611 0.949 . S
C616 C622 1.368 . S
C617 C601 1.349 . S
C617 H609 0.950 . S
C617 C615 1.327 . S
C618 C606 1.349 1_554 S
C618 H612 0.950 1_554 S
C618 C619 1.327 . S
C619 H613 0.950 . S
C619 C618 1.327 . S
C619 C623 1.429 . S
C620 C603 1.574 . S
C620 H614 0.949 . S
C620 C624 1.368 . S
C621 C602 1.429 . S
C621 C615 1.429 . S
C621 C622 1.523 . S
C622 C603 1.368 . S
C622 C616 1.368 . S
C622 C621 1.523 . S
C623 C607 1.429 . S
C623 C619 1.429 . S
C623 C624 1.523 . S
C624 C608 1.368 . S
C624 C620 1.368 . S
C624 C623 1.523 . S
H625 C600 0.950 . S
H626 C602 0.950 . S
H627 C603 0.949 . S
H628 C605 0.950 1_556 S
H629 C607 0.950 . S
C630 C631 1.349 . S
C630 C632 1.327 . S
C630 H655 0.950 . S
C631 C630 1.349 . S
C631 C647 1.349 . S
C632 C630 1.327 . S
C632 C651 1.429 . S
C632 H656 0.950 . S
C633 C650 1.574 . S
C633 C652 1.368 . S
C633 H657 0.949 . S
H634 C638 0.949 . S
C635 C636 1.349 . S
C635 C637 1.327 . S
C635 H658 0.950 . S
C636 C635 1.349 . S
C636 C648 1.349 . S
C637 C635 1.327 . S
C637 C653 1.429 . S
C637 H659 0.950 . S
C638 H634 0.949 . S
C638 C646 1.574 . S
C638 C654 1.368 . S
H639 C647 0.950 . S
H640 C645 0.950 . S
H641 C646 0.949 . S
H642 C648 0.950 . S
H643 C649 0.950 . S
H644 C650 0.949 . S
C645 H640 0.950 . S
C645 C647 1.327 . S
C645 C651 1.429 . S
C646 C638 1.574 . S
C646 H641 0.949 . S
C646 C652 1.368 . S
C647 C631 1.349 . S
C647 H639 0.950 . S
C647 C645 1.327 . S
C648 C636 1.349 . S
C648 H642 0.950 . S
C648 C649 1.327 . S
C649 H643 0.950 . S
C649 C648 1.327 . S
C649 C653 1.429 . S
C650 C633 1.574 . S
C650 H644 0.949 . S
C650 C654 1.368 . S
C651 C632 1.429 . S
C651 C645 1.429 . S
C651 C652 1.523 . S
C652 C633 1.368 . S
C652 C646 1.368 . S
C652 C651 1.523 . S
C653 C637 1.429 . S
C653 C649 1.429 . S
C653 C654 1.523 . S
C654 C638 1.368 . S
C654 C650 1.368 . S
C654 C653 1.523 . S
H655 C630 0.950 . S
H656 C632 0.950 . S
H657 C633 0.949 . S
H658 C635 0.950 . S
H659 C637 0.950 . S
C660 C661 1.349 . S
C660 C662 1.327 . S
C660 H685 0.950 . S
C661 C660 1.349 . S
C661 C677 1.349 . S
C662 C660 1.327 . S
C662 C681 1.429 . S
C662 H686 0.950 . S
C663 C680 1.574 . S
C663 C682 1.368 . S
C663 H687 0.949 . S
H664 C668 0.949 . S
C665 C666 1.349 . S
C665 C667 1.327 . S
C665 H688 0.950 . S
C666 C665 1.349 . S
C666 C678 1.349 . S
C667 C665 1.327 . S
C667 C683 1.429 . S
C667 H689 0.950 . S
C668 H664 0.949 . S
C668 C676 1.574 . S
C668 C684 1.368 . S
H669 C677 0.950 . S
H670 C675 0.950 . S
H671 C676 0.949 . S
H672 C678 0.950 . S
H673 C679 0.950 . S
H674 C680 0.949 . S
C675 H670 0.950 . S
C675 C677 1.327 . S
C675 C681 1.429 . S
C676 C668 1.574 . S
C676 H671 0.949 . S
C676 C682 1.368 . S
C677 C661 1.349 . S
C677 H669 0.950 . S
C677 C675 1.327 . S
C678 C666 1.349 . S
C678 H672 0.950 . S
C678 C679 1.327 . S
C679 H673 0.950 . S
C679 C678 1.327 . S
C679 C683 1.429 . S
C680 C663 1.574 . S
C680 H674 0.949 . S
C680 C684 1.368 . S
C681 C662 1.429 . S
C681 C675 1.429 . S
C681 C682 1.523 . S
C682 C663 1.368 . S
C682 C676 1.368 . S
C682 C681 1.523 . S
C683 C667 1.429 . S
C683 C679 1.429 . S
C683 C684 1.523 . S
C684 C668 1.368 . S
C684 C680 1.368 . S
C684 C683 1.523 . S
H685 C660 0.950 . S
H686 C662 0.950 . S
H687 C663 0.949 . S
H688 C665 0.950 . S
H689 C667 0.950 . S
C690 C691 1.349 . S
C690 C692 1.327 . S
C690 H715 0.950 . S
C691 C690 1.349 . S
C691 C707 1.349 1_545 S
C692 C690 1.327 . S
C692 C711 1.429 1_545 S
C692 H716 0.950 . S
C693 C710 1.574 . S
C693 C712 1.368 . S
C693 H717 0.949 . S
H694 C698 0.949 . S
C695 C696 1.349 . S
C695 C697 1.327 . S
C695 H718 0.950 . S
C696 C695 1.349 . S
C696 C708 1.349 . S
C697 C695 1.327 . S
C697 C713 1.429 . S
C697 H719 0.950 . S
C698 H694 0.949 . S
C698 C706 1.574 . S
C698 C714 1.368 . S
H699 C707 0.950 . S
H700 C705 0.950 . S
H701 C706 0.949 1_545 S
H702 C708 0.950 . S
H703 C709 0.950 . S
H704 C710 0.949 . S
C705 H700 0.950 . S
C705 C707 1.327 . S
C705 C711 1.429 . S
C706 C698 1.574 . S
C706 H701 0.949 1_565 S
C706 C712 1.368 . S
C707 C691 1.349 1_565 S
C707 H699 0.950 . S
C707 C705 1.327 . S
C708 C696 1.349 . S
C708 H702 0.950 . S
C708 C709 1.327 . S
C709 H703 0.950 . S
C709 C708 1.327 . S
C709 C713 1.429 . S
C710 C693 1.574 . S
C710 H704 0.949 . S
C710 C714 1.368 . S
C711 C692 1.429 1_565 S
C711 C705 1.429 . S
C711 C712 1.523 . S
C712 C693 1.368 . S
C712 C706 1.368 . S
C712 C711 1.523 . S
C713 C697 1.429 . S
C713 C709 1.429 . S
C713 C714 1.523 . S
C714 C698 1.368 . S
C714 C710 1.368 . S
C714 C713 1.523 . S
H715 C690 0.950 . S
H716 C692 0.950 . S
H717 C693 0.949 . S
H718 C695 0.950 . S
H719 C697 0.950 . S
C720 C721 1.349 . S
C720 C722 1.327 . S
C720 H745 0.950 . S
C721 C720 1.349 . S
C721 C737 1.349 . S
C722 C720 1.327 . S
C722 C741 1.429 . S
C722 H746 0.950 . S
C723 C740 1.574 . S
C723 C742 1.368 . S
C723 H747 0.949 . S
H724 C728 0.949 . S
C725 C726 1.349 . S
C725 C727 1.327 . S
C725 H748 0.950 . S
C726 C725 1.349 . S
C726 C738 1.349 . S
C727 C725 1.327 . S
C727 C743 1.429 . S
C727 H749 0.950 . S
C728 H724 0.949 . S
C728 C736 1.574 . S
C728 C744 1.368 . S
H729 C737 0.950 . S
H730 C735 0.950 . S
H731 C736 0.949 . S
H732 C738 0.950 . S
H733 C739 0.950 . S
H734 C740 0.949 . S
C735 H730 0.950 . S
C735 C737 1.327 . S
C735 C741 1.429 . S
C736 C728 1.574 . S
C736 H731 0.949 . S
C736 C742 1.368 . S
C737 C721 1.349 . S
C737 H729 0.950 . S
C737 C735 1.327 . S
C738 C726 1.349 . S
C738 H732 0.950 . S
C738 C739 1.327 . S
C739 H733 0.950 . S
C739 C738 1.327 . S
C739 C743 1.429 . S
C740 C723 1.574 . S
C740 H734 0.949 . S
C740 C744 1.368 . S
C741 C722 1.429 . S
C741 C735 1.429 . S
C741 C742 1.523 1_554 S
C742 C723 1.368 . S
C742 C736 1.368 . S
C742 C741 1.523 1_556 S
C743 C727 1.429 . S
C743 C739 1.429 . S
C743 C744 1.523 . S
C744 C728 1.368 . S
C744 C740 1.368 . S
C744 C743 1.523 . S
H745 C720 0.950 . S
H746 C722 0.950 . S
H747 C723 0.949 . S
H748 C725 0.950 . S
H749 C727 0.950 . S
C750 C751 1.349 . S
C750 C752 1.327 . S
C750 H775 0.950 . S
C751 C750 1.349 . S
C751 C767 1.349 . S
C752 C750 1.327 . S
C752 C771 1.429 . S
C752 H776 0.950 . S
C753 C770 1.574 . S
C753 C772 1.368 . S
C753 H777 0.949 . S
H754 C758 0.949 . S
C755 C756 1.349 1_556 S
C755 C757 1.327 1_455 S
C755 H778 0.950 . S
C756 C755 1.349 1_554 S
C756 C768 1.349 1_455 S
C757 C755 1.327 1_655 S
C757 C773 1.429 . S
C757 H779 0.950 . S
C758 H754 0.949 . S
C758 C766 1.574 . S
C758 C774 1.368 . S
H759 C767 0.950 . S
H760 C765 0.950 . S
H761 C766 0.949 . S
H762 C768 0.950 . S
H763 C769 0.950 . S
H764 C770 0.949 . S
C765 H760 0.950 . S
C765 C767 1.327 . S
C765 C771 1.429 . S
C766 C758 1.574 . S
C766 H761 0.949 . S
C766 C772 1.368 . S
C767 C751 1.349 . S
C767 H759 0.950 . S
C767 C765 1.327 . S
C768 C756 1.349 1_655 S
C768 H762 0.950 . S
C768 C769 1.327 . S
C769 H763 0.950 . S
C769 C768 1.327 . S
C769 C773 1.429 1_554 S
C770 C753 1.574 . S
C770 H764 0.949 . S
C770 C774 1.368 . S
C771 C752 1.429 . S
C771 C765 1.429 . S
C771 C772 1.523 . S
C772 C753 1.368 . S
C772 C766 1.368 . S
C772 C771 1.523 . S
C773 C757 1.429 . S
C773 C769 1.429 1_556 S
C773 C774 1.523 . S
C774 C758 1.368 . S
C774 C770 1.368 . S
C774 C773 1.523 . S
H775 C750 0.950 . S
H776 C752 0.950 . S
H777 C753 0.949 . S
H778 C755 0.950 . S
H779 C757 0.950 . S
C780 C781 1.349 . S
C780 C782 1.327 . S
C780 H805 0.950 . S
C781 C780 1.349 . S
C781 C797 1.349 . S
C782 C780 1.327 . S
C782 C801 1.429 . S
C782 H806 0.950 . S
C783 C800 1.574 . S
C783 C802 1.368 . S
C783 H807 0.949 . S
H784 C788 0.949 1_554 S
C785 C786 1.349 . S
C785 C787 1.327 1_554 S
C785 H808 0.950 1_554 S
C786 C785 1.349 . S
C786 C798 1.349 . S
C787 C785 1.327 1_556 S
C787 C803 1.429 . S
C787 H809 0.950 . S
C788 H784 0.949 1_556 S
C788 C796 1.574 . S
C788 C804 1.368 . S
H789 C797 0.950 . S
H790 C795 0.950 . S
H791 C796 0.949 . S
H792 C798 0.950 . S
H793 C799 0.950 . S
H794 C800 0.949 . S
C795 H790 0.950 . S
C795 C797 1.327 . S
C795 C801 1.429 . S
C796 C788 1.574 . S
C796 H791 0.949 . S
C796 C802 1.368 . S
C797 C781 1.349 . S
C797 H789 0.950 . S
C797 C795 1.327 . S
C798 C786 1.349 . S
C798 H792 0.950 . S
C798 C799 1.327 . S
C799 H793 0.950 . S
C799 C798 1.327 . S
C799 C803 1.429 1_554 S
C800 C783 1.574 . S
C800 H794 0.949 . S
C800 C804 1.368 . S
C801 C782 1.429 . S
C801 C795 1.429 . S
C801 C802 1.523 . S
C802 C783 1.368 . S
C802 C796 1.368 . S
C802 C801 1.523 . S
C803 C787 1.429 . S
C803 C799 1.429 1_556 S
C803 C804 1.523 . S
C804 C788 1.368 . S
C804 C800 1.368 . S
C804 C803 1.523 . S
H805 C780 0.950 . S
H806 C782 0.950 . S
H807 C783 0.949 . S
H808 C785 0.950 1_556 S
H809 C787 0.950 . S
C810 C811 1.349 . S
C810 C812 1.327 . S
C810 H835 0.950 . S
C811 C810 1.349 . S
C811 C827 1.349 . S
C812 C810 1.327 . S
C812 C831 1.429 . S
C812 H836 0.950 . S
C813 C830 1.574 . S
C813 C832 1.368 . S
C813 H837 0.949 . S
H814 C818 0.949 . S
C815 C816 1.349 . S
C815 C817 1.327 . S
C815 H838 0.950 . S
C816 C815 1.349 . S
C816 C828 1.349 1_556 S
C817 C815 1.327 . S
C817 C833 1.429 . S
C817 H839 0.950 . S
C818 H814 0.949 . S
C818 C826 1.574 . S
C818 C834 1.368 . S
H819 C827 0.950 . S
H820 C825 0.950 . S
H821 C826 0.949 . S
H822 C828 0.950 . S
H823 C829 0.950 1_554 S
H824 C830 0.949 . S
C825 H820 0.950 . S
C825 C827 1.327 . S
C825 C831 1.429 . S
C826 C818 1.574 . S
C826 H821 0.949 . S
C826 C832 1.368 . S
C827 C811 1.349 . S
C827 H819 0.950 . S
C827 C825 1.327 . S
C828 C816 1.349 1_554 S
C828 H822 0.950 . S
C828 C829 1.327 1_554 S
C829 H823 0.950 1_556 S
C829 C828 1.327 1_556 S
C829 C833 1.429 . S
C830 C813 1.574 . S
C830 H824 0.949 . S
C830 C834 1.368 . S
C831 C812 1.429 . S
C831 C825 1.429 . S
C831 C832 1.523 . S
C832 C813 1.368 . S
C832 C826 1.368 . S
C832 C831 1.523 . S
C833 C817 1.429 . S
C833 C829 1.429 . S
C833 C834 1.523 . S
C834 C818 1.368 . S
C834 C830 1.368 . S
C834 C833 1.523 . S
H835 C810 0.950 . S
H836 C812 0.950 . S
H837 C813 0.949 . S
H838 C815 0.950 . S
H839 C817 0.950 . S
C840 C841 1.349 . S
C840 C842 1.327 . S
C840 H865 0.950 . S
C841 C840 1.349 . S
C841 C857 1.349 . S
C842 C840 1.327 . S
C842 C861 1.429 1_554 S
C842 H866 0.950 . S
C843 C860 1.574 . S
C843 C862 1.368 . S
C843 H867 0.949 . S
H844 C848 0.949 . S
C845 C846 1.349 . S
C845 C847 1.327 . S
C845 H868 0.950 . S
C846 C845 1.349 . S
C846 C858 1.349 . S
C847 C845 1.327 . S
C847 C863 1.429 . S
C847 H869 0.950 . S
C848 H844 0.949 . S
C848 C856 1.574 . S
C848 C864 1.368 . S
H849 C857 0.950 . S
H850 C855 0.950 . S
H851 C856 0.949 . S
H852 C858 0.950 . S
H853 C859 0.950 . S
H854 C860 0.949 . S
C855 H850 0.950 . S
C855 C857 1.327 1_556 S
C855 C861 1.429 . S
C856 C848 1.574 . S
C856 H851 0.949 . S
C856 C862 1.368 . S
C857 C841 1.349 . S
C857 H849 0.950 . S
C857 C855 1.327 1_554 S
C858 C846 1.349 . S
C858 H852 0.950 . S
C858 C859 1.327 . S
C859 H853 0.950 . S
C859 C858 1.327 . S
C859 C863 1.429 . S
C860 C843 1.574 . S
C860 H854 0.949 . S
C860 C864 1.368 . S
C861 C842 1.429 1_556 S
C861 C855 1.429 . S
C861 C862 1.523 . S
C862 C843 1.368 . S
C862 C856 1.368 . S
C862 C861 1.523 . S
C863 C847 1.429 . S
C863 C859 1.429 . S
C863 C864 1.523 . S
C864 C848 1.368 . S
C864 C860 1.368 . S
C864 C863 1.523 . S
H865 C840 0.950 . S
H866 C842 0.950 . S
H867 C843 0.949 . S
H868 C845 0.950 . S
H869 C847 0.950 . S
C870 C871 1.349 . S
C870 C872 1.327 . S
C870 H895 0.950 . S
C871 C870 1.349 . S
C871 C887 1.349 . S
C872 C870 1.327 . S
C872 C891 1.429 . S
C872 H896 0.950 . S
C873 C890 1.574 . S
C873 C892 1.368 . S
C873 H897 0.949 . S
H874 C878 0.956 . S
C875 C876 1.349 . S
C875 C877 1.327 1_554 S
C875 H898 0.950 . S
C876 C875 1.349 . S
C876 C888 1.349 . S
C877 C875 1.327 1_556 S
C877 C893 1.429 1_556 S
C877 H899 0.950 . S
C878 H874 0.956 . S
C878 C886 1.569 1_554 S
C878 C894 1.366 1_554 S
H879 C887 0.950 . S
H880 C885 0.950 . S
H881 C886 0.949 . S
H882 C888 0.950 . S
H883 C889 0.950 . S
H884 C890 0.949 . S
C885 H880 0.950 . S
C885 C887 1.327 . S
C885 C891 1.429 . S
C886 C878 1.569 1_556 S
C886 H881 0.949 . S
C886 C892 1.368 . S
C887 C871 1.349 . S
C887 H879 0.950 . S
C887 C885 1.327 . S
C888 C876 1.349 . S
C888 H882 0.950 . S
C888 C889 1.327 . S
C889 H883 0.950 . S
C889 C888 1.327 . S
C889 C893 1.429 . S
C890 C873 1.574 . S
C890 H884 0.949 . S
C890 C894 1.368 . S
C891 C872 1.429 . S
C891 C885 1.429 . S
C891 C892 1.523 . S
C892 C873 1.368 . S
C892 C886 1.368 . S
C892 C891 1.523 . S
C893 C877 1.429 1_554 S
C893 C889 1.429 . S
C893 C894 1.523 1_554 S
C894 C878 1.366 1_556 S
C894 C890 1.368 . S
C894 C893 1.523 1_556 S
H895 C870 0.950 . S
H896 C872 0.950 . S
H897 C873 0.949 . S
H898 C875 0.950 . S
H899 C877 0.950 . S
C900 C901 1.349 . S
C900 C902 1.327 . S
C900 H925 0.950 . S
C901 C900 1.349 . S
C901 C917 1.349 . S
C902 C900 1.327 . S
C902 C921 1.429 . S
C902 H926 0.950 . S
C903 C920 1.574 . S
C903 C922 1.368 . S
C903 H927 0.949 . S
H904 C908 0.949 . S
C905 C906 1.349 . S
C905 C907 1.327 . S
C905 H928 0.950 . S
C906 C905 1.349 . S
C906 C918 1.349 . S
C907 C905 1.327 . S
C907 C923 1.429 . S
C907 H929 0.950 1_565 S
C908 H904 0.949 . S
C908 C916 1.574 . S
C908 C924 1.368 . S
H909 C917 0.950 . S
H910 C915 0.950 . S
H911 C916 0.949 . S
H912 C918 0.950 . S
H913 C919 0.950 . S
H914 C920 0.949 . S
C915 H910 0.950 . S
C915 C917 1.327 . S
C915 C921 1.429 . S
C916 C908 1.574 . S
C916 H911 0.949 . S
C916 C922 1.368 1_565 S
C917 C901 1.349 . S
C917 H909 0.950 . S
C917 C915 1.327 . S
C918 C906 1.349 . S
C918 H912 0.950 . S
C918 C919 1.327 . S
C919 H913 0.950 . S
C919 C918 1.327 . S
C919 C923 1.429 . S
C920 C903 1.574 . S
C920 H914 0.949 . S
C920 C924 1.368 1_545 S
C921 C902 1.429 . S
C921 C915 1.429 . S
C921 C922 1.523 . S
C922 C903 1.368 . S
C922 C916 1.368 1_545 S
C922 C921 1.523 . S
C923 C907 1.429 . S
C923 C919 1.429 . S
C923 C924 1.523 . S
C924 C908 1.368 . S
C924 C920 1.368 1_565 S
C924 C923 1.523 . S
H925 C900 0.950 . S
H926 C902 0.950 . S
H927 C903 0.949 . S
H928 C905 0.950 . S
H929 C907 0.950 1_545 S
C930 C931 1.349 . S
C930 C932 1.327 . S
C930 H955 0.950 . S
C931 C930 1.349 . S
C931 C947 1.349 . S
C932 C930 1.327 . S
C932 C951 1.429 . S
C932 H956 0.950 . S
C933 C950 1.574 . S
C933 C952 1.368 . S
C933 H957 0.949 . S
H934 C938 0.949 . S
C935 C936 1.349 . S
C935 C937 1.327 . S
C935 H958 0.950 . S
C936 C935 1.349 . S
C936 C948 1.349 . S
C937 C935 1.327 . S
C937 C953 1.429 . S
C937 H959 0.950 . S
C938 H934 0.949 . S
C938 C946 1.574 . S
C938 C954 1.368 . S
H939 C947 0.950 . S
H940 C945 0.950 . S
H941 C946 0.949 . S
H942 C948 0.950 . S
H943 C949 0.950 . S
H944 C950 0.949 . S
C945 H940 0.950 . S
C945 C947 1.327 . S
C945 C951 1.429 . S
C946 C938 1.574 . S
C946 H941 0.949 . S
C946 C952 1.368 . S
C947 C931 1.349 . S
C947 H939 0.950 . S
C947 C945 1.327 . S
C948 C936 1.349 . S
C948 H942 0.950 . S
C948 C949 1.327 . S
C949 H943 0.950 . S
C949 C948 1.327 . S
C949 C953 1.429 . S
C950 C933 1.574 . S
C950 H944 0.949 . S
C950 C954 1.368 . S
C951 C932 1.429 . S
C951 C945 1.429 . S
C951 C952 1.523 . S
C952 C933 1.368 . S
C952 C946 1.368 . S
C952 C951 1.523 . S
C953 C937 1.429 . S
C953 C949 1.429 . S
C953 C954 1.523 . S
C954 C938 1.368 . S
C954 C950 1.368 . S
C954 C953 1.523 . S
H955 C930 0.950 . S
H956 C932 0.950 . S
H957 C933 0.949 . S
H958 C935 0.950 . S
H959 C937 0.950 . S
C960 C961 1.349 . S
C960 C962 1.327 . S
C960 H985 0.950 . S
C961 C960 1.349 . S
C961 C977 1.349 . S
C962 C960 1.327 . S
C962 C981 1.429 . S
C962 H986 0.950 . S
C963 C980 1.574 . S
C963 C982 1.368 . S
C963 H987 0.949 . S
H964 C968 0.949 . S
C965 C966 1.349 . S
C965 C967 1.327 . S
C965 H988 0.950 . S
C966 C965 1.349 . S
C966 C978 1.349 . S
C967 C965 1.327 . S
C967 C983 1.429 . S
C967 H989 0.950 . S
C968 H964 0.949 . S
C968 C976 1.574 . S
C968 C984 1.368 . S
H969 C977 0.950 . S
H970 C975 0.950 . S
H971 C976 0.949 . S
H972 C978 0.950 . S
H973 C979 0.950 . S
H974 C980 0.949 . S
C975 H970 0.950 . S
C975 C977 1.327 . S
C975 C981 1.429 . S
C976 C968 1.574 . S
C976 H971 0.949 . S
C976 C982 1.368 . S
C977 C961 1.349 . S
C977 H969 0.950 . S
C977 C975 1.327 . S
C978 C966 1.349 . S
C978 H972 0.950 . S
C978 C979 1.327 . S
C979 H973 0.950 . S
C979 C978 1.327 . S
C979 C983 1.429 . S
C980 C963 1.574 . S
C980 H974 0.949 . S
C980 C984 1.368 . S
C981 C962 1.429 . S
C981 C975 1.429 . S
C981 C982 1.523 . S
C982 C963 1.368 . S
C982 C976 1.368 . S
C982 C981 1.523 . S
C983 C967 1.429 . S
C983 C979 1.429 . S
C983 C984 1.523 . S
C984 C968 1.368 . S
C984 C980 1.368 . S
C984 C983 1.523 . S
H985 C960 0.950 . S
H986 C962 0.950 . S
H987 C963 0.949 . S
H988 C965 0.950 . S
H989 C967 0.950 . S
C990 C991 1.349 . S
C990 C992 1.327 . S
C990 H1015 0.950 . S
C991 C990 1.349 . S
C991 C1007 1.349 . S
C992 C990 1.327 . S
C992 C1011 1.429 . S
C992 H1016 0.950 . S
C993 C1010 1.574 . S
C993 C1012 1.368 . S
C993 H1017 0.949 . S
H994 C998 0.949 . S
C995 C996 1.349 . S
C995 C997 1.327 . S
C995 H1018 0.950 . S
C996 C995 1.349 . S
C996 C1008 1.349 . S
C997 C995 1.327 . S
C997 C1013 1.429 . S
C997 H1019 0.950 . S
C998 H994 0.949 . S
C998 C1006 1.574 . S
C998 C1014 1.368 . S
H999 C1007 0.950 . S
H1000 C1005 0.950 . S
H1001 C1006 0.949 . S
H1002 C1008 0.950 . S
H1003 C1009 0.950 . S
H1004 C1010 0.949 . S
C1005 H1000 0.950 . S
C1005 C1007 1.327 . S
C1005 C1011 1.429 . S
C1006 C998 1.574 . S
C1006 H1001 0.949 . S
C1006 C1012 1.368 . S
C1007 C991 1.349 . S
C1007 H999 0.950 . S
C1007 C1005 1.327 . S
C1008 C996 1.349 . S
C1008 H1002 0.950 . S
C1008 C1009 1.327 . S
C1009 H1003 0.950 . S
C1009 C1008 1.327 . S
C1009 C1013 1.429 . S
C1010 C993 1.574 . S
C1010 H1004 0.949 . S
C1010 C1014 1.368 . S
C1011 C992 1.429 . S
C1011 C1005 1.429 . S
C1011 C1012 1.523 . S
C1012 C993 1.368 . S
C1012 C1006 1.368 . S
C1012 C1011 1.523 . S
C1013 C997 1.429 . S
C1013 C1009 1.429 . S
C1013 C1014 1.523 . S
C1014 C998 1.368 . S
C1014 C1010 1.368 . S
C1014 C1013 1.523 . S
H1015 C990 0.950 . S
H1016 C992 0.950 . S
H1017 C993 0.949 . S
H1018 C995 0.950 . S
H1019 C997 0.950 . S
C1020 C1021 1.349 . S
C1020 C1022 1.327 . S
C1020 H1045 0.950 . S
C1021 C1020 1.349 . S
C1021 C1037 1.349 . S
C1022 C1020 1.327 . S
C1022 C1041 1.429 . S
C1022 H1046 0.950 . S
C1023 C1040 1.574 1_545 S
C1023 C1042 1.368 . S
C1023 H1047 0.949 . S
H1024 C1028 0.949 . S
C1025 C1026 1.349 . S
C1025 C1027 1.327 . S
C1025 H1048 0.950 . S
C1026 C1025 1.349 . S
C1026 C1038 1.349 . S
C1027 C1025 1.327 . S
C1027 C1043 1.429 . S
C1027 H1049 0.950 . S
C1028 H1024 0.949 . S
C1028 C1036 1.574 1_565 S
C1028 C1044 1.368 . S
H1029 C1037 0.950 . S
H1030 C1035 0.950 . S
H1031 C1036 0.949 . S
H1032 C1038 0.950 . S
H1033 C1039 0.950 . S
H1034 C1040 0.949 . S
C1035 H1030 0.950 . S
C1035 C1037 1.327 . S
C1035 C1041 1.429 . S
C1036 C1028 1.574 1_545 S
C1036 H1031 0.949 . S
C1036 C1042 1.368 . S
C1037 C1021 1.349 . S
C1037 H1029 0.950 . S
C1037 C1035 1.327 . S
C1038 C1026 1.349 . S
C1038 H1032 0.950 . S
C1038 C1039 1.327 . S
C1039 H1033 0.950 . S
C1039 C1038 1.327 . S
C1039 C1043 1.429 . S
C1040 C1023 1.574 1_565 S
C1040 H1034 0.949 . S
C1040 C1044 1.368 . S
C1041 C1022 1.429 . S
C1041 C1035 1.429 . S
C1041 C1042 1.523 . S
C1042 C1023 1.368 . S
C1042 C1036 1.368 . S
C1042 C1041 1.523 . S
C1043 C1027 1.429 . S
C1043 C1039 1.429 . S
C1043 C1044 1.523 . S
C1044 C1028 1.368 . S
C1044 C1040 1.368 . S
C1044 C1043 1.523 . S
H1045 C1020 0.950 . S
H1046 C1022 0.950 . S
H1047 C1023 0.949 . S
H1048 C1025 0.950 . S
H1049 C1027 0.950 . S
C1050 C1051 1.349 . S
C1050 C1052 1.327 . S
C1050 H1075 0.950 . S
C1051 C1050 1.349 . S
C1051 C1067 1.349 . S
C1052 C1050 1.327 . S
C1052 C1071 1.429 . S
C1052 H1076 0.950 . S
C1053 C1070 1.574 . S
C1053 C1072 1.368 . S
C1053 H1077 0.949 . S
H1054 C1058 0.949 . S
C1055 C1056 1.349 . S
C1055 C1057 1.327 . S
C1055 H1078 0.950 . S
C1056 C1055 1.349 . S
C1056 C1068 1.349 . S
C1057 C1055 1.327 . S
C1057 C1073 1.429 . S
C1057 H1079 0.950 . S
C1058 H1054 0.949 . S
C1058 C1066 1.574 . S
C1058 C1074 1.368 . S
H1059 C1067 0.950 . S
H1060 C1065 0.950 . S
H1061 C1066 0.949 . S
H1062 C1068 0.950 . S
H1063 C1069 0.950 . S
H1064 C1070 0.949 . S
C1065 H1060 0.950 . S
C1065 C1067 1.327 . S
C1065 C1071 1.429 . S
C1066 C1058 1.574 . S
C1066 H1061 0.949 . S
C1066 C1072 1.368 1_455 S
C1067 C1051 1.349 . S
C1067 H1059 0.950 . S
C1067 C1065 1.327 . S
C1068 C1056 1.349 . S
C1068 H1062 0.950 . S
C1068 C1069 1.327 . S
C1069 H1063 0.950 . S
C1069 C1068 1.327 . S
C1069 C1073 1.429 . S
C1070 C1053 1.574 . S
C1070 H1064 0.949 . S
C1070 C1074 1.368 1_655 S
C1071 C1052 1.429 . S
C1071 C1065 1.429 . S
C1071 C1072 1.523 . S
C1072 C1053 1.368 . S
C1072 C1066 1.368 1_655 S
C1072 C1071 1.523 . S
C1073 C1057 1.429 . S
C1073 C1069 1.429 . S
C1073 C1074 1.523 . S
C1074 C1058 1.368 . S
C1074 C1070 1.368 1_455 S
C1074 C1073 1.523 . S
H1075 C1050 0.950 . S
H1076 C1052 0.950 . S
H1077 C1053 0.949 . S
H1078 C1055 0.950 . S
H1079 C1057 0.950 . S
C1080 C1081 1.349 . S
C1080 C1082 1.327 . S
C1080 H1105 0.950 . S
C1081 C1080 1.349 . S
C1081 C1097 1.349 . S
C1082 C1080 1.327 . S
C1082 C1101 1.429 . S
C1082 H1106 0.950 . S
C1083 C1100 1.574 . S
C1083 C1102 1.368 . S
C1083 H1107 0.949 . S
H1084 C1088 0.949 . S
C1085 C1086 1.349 . S
C1085 C1087 1.327 . S
C1085 H1108 0.950 . S
C1086 C1085 1.349 . S
C1086 C1098 1.349 . S
C1087 C1085 1.327 . S
C1087 C1103 1.429 . S
C1087 H1109 0.950 . S
C1088 H1084 0.949 . S
C1088 C1096 1.574 . S
C1088 C1104 1.368 . S
H1089 C1097 0.950 . S
H1090 C1095 0.950 . S
H1091 C1096 0.949 . S
H1092 C1098 0.950 . S
H1093 C1099 0.950 . S
H1094 C1100 0.949 . S
C1095 H1090 0.950 . S
C1095 C1097 1.327 . S
C1095 C1101 1.429 . S
C1096 C1088 1.574 . S
C1096 H1091 0.949 . S
C1096 C1102 1.368 . S
C1097 C1081 1.349 . S
C1097 H1089 0.950 . S
C1097 C1095 1.327 . S
C1098 C1086 1.349 . S
C1098 H1092 0.950 . S
C1098 C1099 1.327 . S
C1099 H1093 0.950 . S
C1099 C1098 1.327 . S
C1099 C1103 1.429 . S
C1100 C1083 1.574 . S
C1100 H1094 0.949 . S
C1100 C1104 1.368 . S
C1101 C1082 1.429 . S
C1101 C1095 1.429 . S
C1101 C1102 1.523 . S
C1102 C1083 1.368 . S
C1102 C1096 1.368 . S
C1102 C1101 1.523 . S
C1103 C1087 1.429 . S
C1103 C1099 1.429 . S
C1103 C1104 1.523 . S
C1104 C1088 1.368 . S
C1104 C1100 1.368 . S
C1104 C1103 1.523 . S
H1105 C1080 0.950 . S
H1106 C1082 0.950 . S
H1107 C1083 0.949 . S
H1108 C1085 0.950 . S
H1109 C1087 0.950 . S
C1110 C1111 1.349 . S
C1110 C1112 1.327 . S
C1110 H1135 0.950 . S
C1111 C1110 1.349 . S
C1111 C1127 1.349 . S
C1112 C1110 1.327 . S
C1112 C1131 1.429 . S
C1112 H1136 0.950 . S
C1113 C1130 1.574 . S
C1113 C1132 1.368 1_545 S
C1113 H1137 0.949 . S
H1114 C1118 0.949 . S
C1115 C1116 1.349 . S
C1115 C1117 1.327 . S
C1115 H1138 0.950 . S
C1116 C1115 1.349 . S
C1116 C1128 1.349 . S
C1117 C1115 1.327 . S
C1117 C1133 1.429 . S
C1117 H1139 0.950 . S
C1118 H1114 0.949 . S
C1118 C1126 1.574 1_545 S
C1118 C1134 1.368 . S
H1119 C1127 0.950 . S
H1120 C1125 0.950 . S
H1121 C1126 0.949 . S
H1122 C1128 0.950 . S
H1123 C1129 0.950 . S
H1124 C1130 0.949 . S
C1125 H1120 0.950 . S
C1125 C1127 1.327 . S
C1125 C1131 1.429 . S
C1126 C1118 1.574 1_565 S
C1126 H1121 0.949 . S
C1126 C1132 1.368 . S
C1127 C1111 1.349 . S
C1127 H1119 0.950 . S
C1127 C1125 1.327 . S
C1128 C1116 1.349 . S
C1128 H1122 0.950 . S
C1128 C1129 1.327 . S
C1129 H1123 0.950 . S
C1129 C1128 1.327 . S
C1129 C1133 1.429 . S
C1130 C1113 1.574 . S
C1130 H1124 0.949 . S
C1130 C1134 1.368 . S
C1131 C1112 1.429 . S
C1131 C1125 1.429 . S
C1131 C1132 1.523 . S
C1132 C1113 1.368 1_565 S
C1132 C1126 1.368 . S
C1132 C1131 1.523 . S
C1133 C1117 1.429 . S
C1133 C1129 1.429 . S
C1133 C1134 1.523 . S
C1134 C1118 1.368 . S
C1134 C1130 1.368 . S
C1134 C1133 1.523 . S
H1135 C1110 0.950 . S
H1136 C1112 0.950 . S
H1137 C1113 0.949 . S
H1138 C1115 0.950 . S
H1139 C1117 0.950 . S
C1140 C1141 1.349 . S
C1140 C1142 1.327 . S
C1140 H1165 0.950 . S
C1141 C1140 1.349 . S
C1141 C1157 1.349 . S
C1142 C1140 1.327 . S
C1142 C1161 1.429 . S
C1142 H1166 0.950 . S
C1143 C1160 1.574 . S
C1143 C1162 1.368 . S
C1143 H1167 0.949 . S
H1144 C1148 0.949 . S
C1145 C1146 1.349 . S
C1145 C1147 1.327 . S
C1145 H1168 0.950 . S
C1146 C1145 1.349 . S
C1146 C1158 1.349 . S
C1147 C1145 1.327 . S
C1147 C1163 1.429 . S
C1147 H1169 0.950 . S
C1148 H1144 0.949 . S
C1148 C1156 1.574 . S
C1148 C1164 1.368 . S
H1149 C1157 0.950 . S
H1150 C1155 0.950 . S
H1151 C1156 0.949 . S
H1152 C1158 0.950 . S
H1153 C1159 0.950 . S
H1154 C1160 0.949 . S
C1155 H1150 0.950 . S
C1155 C1157 1.327 . S
C1155 C1161 1.429 . S
C1156 C1148 1.574 . S
C1156 H1151 0.949 . S
C1156 C1162 1.368 1_455 S
C1157 C1141 1.349 . S
C1157 H1149 0.950 . S
C1157 C1155 1.327 . S
C1158 C1146 1.349 . S
C1158 H1152 0.950 . S
C1158 C1159 1.327 . S
C1159 H1153 0.950 . S
C1159 C1158 1.327 . S
C1159 C1163 1.429 . S
C1160 C1143 1.574 . S
C1160 H1154 0.949 . S
C1160 C1164 1.368 1_655 S
C1161 C1142 1.429 . S
C1161 C1155 1.429 . S
C1161 C1162 1.523 . S
C1162 C1143 1.368 . S
C1162 C1156 1.368 1_655 S
C1162 C1161 1.523 . S
C1163 C1147 1.429 . S
C1163 C1159 1.429 . S
C1163 C1164 1.523 . S
C1164 C1148 1.368 . S
C1164 C1160 1.368 1_455 S
C1164 C1163 1.523 . S
H1165 C1140 0.950 . S
H1166 C1142 0.950 . S
H1167 C1143 0.949 . S
H1168 C1145 0.950 . S
H1169 C1147 0.950 . S
C361 C17 3.237 . S
C366 C2 3.237 . S
C391 C42 3.289 . S
C396 C57 3.289 . S
C421 C97 3.316 1_556 S
C426 C82 3.316 . S
C451 C122 3.237 . S
C456 C137 3.237 . S
C481 C177 3.289 . S
C486 C162 3.289 . S
C511 C202 3.316 . S
C516 C217 3.316 1_556 S
C541 C248 2.752 . S
C546 C269 2.752 1_556 S
C571 C309 2.784 . S
C576 C288 2.784 1_556 S
C601 C328 2.496 . S
C606 C349 2.496 1_556 S
C631 C231 1.839 . S
C636 C8 1.831 . S
C661 C71 2.739 . S
C666 C151 2.752 . S
C691 C88 1.228 . S
C696 C168 1.240 . S
C721 C111 2.887 . S
C726 C252 2.937 . S
C751 C282 1.144 . S
C756 C31 1.143 . S
C781 C332 1.679 . S
C786 C48 1.622 . S
C811 C337 0.723 . S
C816 C29 0.725 . S
C841 C52 2.106 . S
C846 C257 2.099 . S
C871 C311 2.569 . S
C876 C109 2.503 . S
C901 C92 1.840 . S
C906 C149 1.831 . S
C931 C172 2.739 . S
C936 C12 2.752 . S
C961 C69 1.240 . S
C966 C229 1.228 . S
C991 C322 0.723 . S
C996 C128 0.725 . S
C1021 C242 2.099 . S
C1026 C191 2.106 . S
C1051 C292 2.569 . S
C1056 C208 2.503 . S
C1081 C271 2.937 . S
C1086 C212 2.887 . S
C1111 C132 1.143 . S
C1116 C297 1.143 . S
C1141 C351 1.679 . S
C1146 C189 1.622 . S
