# Generated by pormake.
# Topology wje, (4)-cn, num edge types: 1
# Building blocks:
#     Node 0, Type 0, BuildingBlock: UXUYUI_clean_sbu_0, # of connection points: 4
#     Node 1, Type 0, BuildingBlock: UXUYUI_clean_sbu_0, # of connection points: 4
#     Node 2, Type 0, BuildingBlock: UXUYUI_clean_sbu_0, # of connection points: 4
#     Node 3, Type 0, BuildingBlock: UXUYUI_clean_sbu_0, # of connection points: 4
#     Node 4, Type 0, BuildingBlock: UXUYUI_clean_sbu_0, # of connection points: 4
#     Node 5, Type 0, BuildingBlock: UXUYUI_clean_sbu_0, # of connection points: 4
#     Node 6, Type 0, BuildingBlock: UXUYUI_clean_sbu_0, # of connection points: 4
#     Node 7, Type 0, BuildingBlock: UXUYUI_clean_sbu_0, # of connection points: 4
#     Node 8, Type 0, BuildingBlock: UXUYUI_clean_sbu_0, # of connection points: 4
#     Node 9, Type 0, BuildingBlock: UXUYUI_clean_sbu_0, # of connection points: 4
#     Node 10, Type 0, BuildingBlock: UXUYUI_clean_sbu_0, # of connection points: 4
#     Node 11, Type 0, BuildingBlock: UXUYUI_clean_sbu_0, # of connection points: 4
#     Edge 12, Type (0, 0), BuildingBlock: EZIPEK_clean_linker_0, # of connection points: 2
#     Edge 13, Type (0, 0), BuildingBlock: EZIPEK_clean_linker_0, # of connection points: 2
#     Edge 14, Type (0, 0), BuildingBlock: EZIPEK_clean_linker_0, # of connection points: 2
#     Edge 15, Type (0, 0), BuildingBlock: EZIPEK_clean_linker_0, # of connection points: 2
#     Edge 16, Type (0, 0), BuildingBlock: EZIPEK_clean_linker_0, # of connection points: 2
#     Edge 17, Type (0, 0), BuildingBlock: EZIPEK_clean_linker_0, # of connection points: 2
#     Edge 18, Type (0, 0), BuildingBlock: EZIPEK_clean_linker_0, # of connection points: 2
#     Edge 19, Type (0, 0), BuildingBlock: EZIPEK_clean_linker_0, # of connection points: 2
#     Edge 20, Type (0, 0), BuildingBlock: EZIPEK_clean_linker_0, # of connection points: 2
#     Edge 21, Type (0, 0), BuildingBlock: EZIPEK_clean_linker_0, # of connection points: 2
#     Edge 22, Type (0, 0), BuildingBlock: EZIPEK_clean_linker_0, # of connection points: 2
#     Edge 23, Type (0, 0), BuildingBlock: EZIPEK_clean_linker_0, # of connection points: 2
#     Edge 24, Type (0, 0), BuildingBlock: EZIPEK_clean_linker_0, # of connection points: 2
#     Edge 25, Type (0, 0), BuildingBlock: EZIPEK_clean_linker_0, # of connection points: 2
#     Edge 26, Type (0, 0), BuildingBlock: EZIPEK_clean_linker_0, # of connection points: 2
#     Edge 27, Type (0, 0), BuildingBlock: EZIPEK_clean_linker_0, # of connection points: 2
#     Edge 28, Type (0, 0), BuildingBlock: EZIPEK_clean_linker_0, # of connection points: 2
#     Edge 29, Type (0, 0), BuildingBlock: EZIPEK_clean_linker_0, # of connection points: 2
#     Edge 30, Type (0, 0), BuildingBlock: EZIPEK_clean_linker_0, # of connection points: 2
#     Edge 31, Type (0, 0), BuildingBlock: EZIPEK_clean_linker_0, # of connection points: 2
#     Edge 32, Type (0, 0), BuildingBlock: EZIPEK_clean_linker_0, # of connection points: 2
#     Edge 33, Type (0, 0), BuildingBlock: EZIPEK_clean_linker_0, # of connection points: 2
#     Edge 34, Type (0, 0), BuildingBlock: EZIPEK_clean_linker_0, # of connection points: 2
#     Edge 35, Type (0, 0), BuildingBlock: EZIPEK_clean_linker_0, # of connection points: 2
# Relax obj value: 0.245
# Max RMSD: 0.179
# Mean RMSD: 0.178
data_MOF--net-wje--node1-UXUYUI_clean_sbu_0--edge1-EZIPEK_clean_linker_0
_symmetry_space_group_name_H-M    P1
_symmetry_Int_Tables_number       1
_symmetry_cell_setting            triclinic
loop_
_symmetry_equiv_pos_as_xyz
'x, y, z'
_cell_length_a     50.815259
_cell_length_b     50.794873
_cell_length_c     39.953303
_cell_angle_alpha  90.01686
_cell_angle_beta   89.98057
_cell_angle_gamma 119.97549
loop_
_atom_site_label
_atom_site_type_symbol
_atom_site_fract_x
_atom_site_fract_y
_atom_site_fract_z
_atom_type_partial_charge
Li0 Li 0.36188 0.00969 0.26595 0.0
Li1 Li 0.34556 0.02501 0.31728 0.0
Li2 Li 0.30829 0.98979 0.28099 0.0
Li3 Li 0.3366 0.04218 0.26399 0.0
C4 C 0.32612 0.95685 0.31795 0.0
N5 N 0.29746 0.89882 0.34446 0.0
C6 C 0.31278 0.95139 0.34966 0.0
C7 C 0.32497 0.93277 0.29979 0.0
C8 C 0.29828 0.92188 0.36256 0.0
C9 C 0.31038 0.90361 0.31361 0.0
C10 C 0.39859 0.07119 0.30497 0.0
C11 C 0.41749 0.11246 0.3446 0.0
N12 N 0.44207 0.10915 0.3503 0.0
C13 C 0.42407 0.06824 0.31111 0.0
C14 C 0.39527 0.09352 0.3217 0.0
C15 C 0.4458 0.08765 0.33416 0.0
C16 C 0.40984 0.01881 0.22166 0.0
N17 N 0.39383 0.00402 0.24949 0.0
C18 C 0.42854 0.98648 0.26151 0.0
C19 C 0.40246 0.98781 0.26915 0.0
C20 C 0.44603 1.00232 0.23366 0.0
C21 C 0.43631 0.01826 0.2132 0.0
H22 H 0.40277 0.03205 0.20692 0.0
H23 H 0.38987 0.97707 0.29166 0.0
C24 C 0.33523 0.03653 0.38339 0.0
N25 N 0.35403 0.03144 0.36367 0.0
C26 C 0.33495 0.03245 0.41796 0.0
C27 C 0.37454 0.01958 0.41133 0.0
C28 C 0.374 0.02382 0.37687 0.0
C29 C 0.35407 0.0229 0.43195 0.0
H30 H 0.31899 0.04164 0.37208 0.0
H31 H 0.38786 0.01884 0.36041 0.0
C32 C 0.31473 0.98356 0.21226 0.0
N33 N 0.28806 0.9393 0.1635 0.0
C34 C 0.29334 0.98371 0.19036 0.0
C35 C 0.32299 0.96126 0.20888 0.0
C36 C 0.27998 0.96103 0.16602 0.0
C37 C 0.30915 0.93899 0.1842 0.0
C38 C 0.28344 0.02716 0.29487 0.0
C39 C 0.26741 0.01403 0.26542 0.0
C40 C 0.27378 0.0426 0.31603 0.0
C41 C 0.24194 0.0165 0.25758 0.0
C42 C 0.24821 0.04461 0.30732 0.0
N43 N 0.23295 0.03163 0.27852 0.0
C44 C 0.2572 0.95389 0.31708 0.0
C45 C 0.25559 0.92929 0.26606 0.0
C46 C 0.23122 0.92822 0.32857 0.0
N47 N 0.26923 0.95389 0.28665 0.0
C48 C 0.22901 0.90311 0.27638 0.0
C49 C 0.21703 0.90233 0.30833 0.0
H50 H 0.26873 0.97346 0.33327 0.0
H51 H 0.26567 0.9295 0.24221 0.0
C52 C 0.33824 0.0754 0.20632 0.0
N53 N 0.33591 0.07448 0.24027 0.0
C54 C 0.33767 0.09872 0.18831 0.0
C55 C 0.33209 0.11958 0.2405 0.0
C56 C 0.3329 0.09594 0.25753 0.0
C57 C 0.33456 0.12108 0.20552 0.0
H58 H 0.34058 0.05803 0.19326 0.0
H59 H 0.33111 0.09467 0.28452 0.0
O60 O 0.34034 0.98563 0.30486 0.0
O61 O 0.37675 0.05202 0.28306 0.0
O62 O 0.32821 0.0057 0.23611 0.0
O63 O 0.30881 0.02552 0.30283 0.0
H64 H 0.31314 0.96965 0.36392 0.0
H65 H 0.33531 0.93649 0.27535 0.0
H66 H 0.28759 0.91728 0.38692 0.0
H67 H 0.30931 0.88478 0.2998 0.0
H68 H 0.41515 0.12974 0.35788 0.0
H69 H 0.42694 0.05104 0.29838 0.0
H70 H 0.37558 0.09595 0.3173 0.0
H71 H 0.46559 0.08558 0.33926 0.0
H72 H 0.43577 0.97436 0.27798 0.0
H73 H 0.44963 0.03099 0.19175 0.0
H74 H 0.31881 0.03498 0.43337 0.0
H75 H 0.38935 0.01197 0.42154 0.0
H76 H 0.28721 1.00124 0.19199 0.0
H77 H 0.33993 0.96116 0.22506 0.0
H78 H 0.26327 0.96077 0.14905 0.0
H79 H 0.31522 0.9215 0.18146 0.0
H80 H 0.27445 1.00196 0.24887 0.0
H81 H 0.28604 0.05315 0.33881 0.0
H82 H 0.22934 0.00639 0.23485 0.0
H83 H 0.24054 0.05656 0.32344 0.0
H84 H 0.22261 0.92833 0.35335 0.0
H85 H 0.21848 0.8834 0.26017 0.0
H86 H 0.33964 0.09936 0.16129 0.0
H87 H 0.32971 0.13657 0.25442 0.0
Li88 Li 0.3554 0.35825 0.59512 0.0
Li89 Li 0.32109 0.3396 0.64524 0.0
Li90 Li 0.32321 0.30343 0.60808 0.0
Li91 Li 0.29795 0.33032 0.59093 0.0
C92 C 0.37403 0.32448 0.64525 0.0
N93 N 0.4086 0.30002 0.66782 0.0
C94 C 0.36813 0.31036 0.67654 0.0
C95 C 0.39745 0.32613 0.62539 0.0
C96 C 0.38585 0.2981 0.6875 0.0
C97 C 0.41467 0.31361 0.63726 0.0
C98 C 0.32774 0.3927 0.63303 0.0
C99 C 0.30538 0.40951 0.67514 0.0
N100 N 0.33202 0.43625 0.67765 0.0
C101 C 0.35483 0.42042 0.63585 0.0
C102 C 0.30273 0.38726 0.65264 0.0
C103 C 0.35656 0.44212 0.65861 0.0
C104 C 0.39832 0.40451 0.55074 0.0
N105 N 0.39356 0.39138 0.5815 0.0
C106 C 0.44256 0.42992 0.60002 0.0
C107 C 0.4151 0.40331 0.60584 0.0
C108 C 0.44785 0.44437 0.56889 0.0
C109 C 0.42569 0.43117 0.54375 0.0
H110 H 0.3806 0.39475 0.53202 0.0
H111 H 0.41046 0.39275 0.63026 0.0
C112 C 0.29969 0.32322 0.71065 0.0
N113 N 0.32154 0.34591 0.69184 0.0
C114 C 0.30393 0.32218 0.74502 0.0
C115 C 0.35227 0.36874 0.74015 0.0
C116 C 0.34726 0.36874 0.7058 0.0
C117 C 0.33086 0.34467 0.75976 0.0
H118 H 0.28006 0.30479 0.69862 0.0
H119 H 0.36479 0.38569 0.68996 0.0
C120 C 0.3354 0.30781 0.54264 0.0
N121 N 0.34983 0.27446 0.49939 0.0
C122 C 0.31264 0.2797 0.53069 0.0
C123 C 0.36548 0.31899 0.53256 0.0
C124 C 0.32041 0.26317 0.50886 0.0
C125 C 0.37232 0.30178 0.51068 0.0
C126 C 0.25685 0.28317 0.62319 0.0
C127 C 0.24638 0.25659 0.60436 0.0
C128 C 0.23615 0.29122 0.63568 0.0
C129 C 0.21529 0.23863 0.59802 0.0
C130 C 0.20525 0.27271 0.62871 0.0
N131 N 0.19555 0.24703 0.61017 0.0
C132 C 0.30784 0.2514 0.64289 0.0
C133 C 0.3386 0.25509 0.59653 0.0
C134 C 0.30832 0.22586 0.65472 0.0
N135 N 0.32287 0.26559 0.61435 0.0
C136 C 0.33908 0.22901 0.60712 0.0
C137 C 0.32411 0.2144 0.63684 0.0
H138 H 0.29641 0.2607 0.65734 0.0
H139 H 0.35162 0.26736 0.57488 0.0
C140 C 0.25745 0.3509 0.57176 0.0
N141 N 0.26457 0.32875 0.56626 0.0
C142 C 0.23279 0.35016 0.55533 0.0
C143 C 0.22324 0.30391 0.52761 0.0
C144 C 0.24819 0.30564 0.54445 0.0
C145 C 0.21536 0.32636 0.53312 0.0
H146 H 0.27083 0.36913 0.58902 0.0
H147 H 0.25426 0.28833 0.54039 0.0
O148 O 0.35686 0.33651 0.63405 0.0
O149 O 0.3257 0.37099 0.61122 0.0
O150 O 0.32821 0.32459 0.56357 0.0
O151 O 0.28726 0.30147 0.62893 0.0
H152 H 0.34986 0.30863 0.69201 0.0
H153 H 0.4022 0.33688 0.60105 0.0
H154 H 0.38148 0.287 0.71161 0.0
H155 H 0.43286 0.31469 0.62216 0.0
H156 H 0.28627 0.4055 0.69065 0.0
H157 H 0.3743 0.42519 0.62062 0.0
H158 H 0.28161 0.36592 0.65077 0.0
H159 H 0.37742 0.46364 0.66112 0.0
H160 H 0.45921 0.43961 0.61992 0.0
H161 H 0.42919 0.44188 0.51946 0.0
H162 H 0.28715 0.30326 0.75966 0.0
H163 H 0.37337 0.38623 0.75095 0.0
H164 H 0.28929 0.27063 0.53836 0.0
H165 H 0.38336 0.3407 0.54153 0.0
H166 H 0.30305 0.24133 0.49951 0.0
H167 H 0.39551 0.31013 0.5027 0.0
H168 H 0.2621 0.25007 0.59441 0.0
H169 H 0.24389 0.31169 0.65035 0.0
H170 H 0.20687 0.2181 0.58332 0.0
H171 H 0.18898 0.27879 0.63798 0.0
H172 H 0.29676 0.21532 0.67788 0.0
H173 H 0.35171 0.22085 0.59288 0.0
H174 H 0.22726 0.36785 0.56001 0.0
H175 H 0.21019 0.28529 0.51054 0.0
Li176 Li 1.00275 0.35647 0.92559 0.0
Li177 Li 0.99405 0.32726 0.97729 0.0
Li178 Li 0.03133 0.33154 0.93592 0.0
Li179 Li 0.9781 0.30067 0.92139 0.0
C180 C 0.04368 0.39375 0.96887 0.0
N181 N 0.06863 0.45524 0.9807 0.0
C182 C 0.03106 0.40397 0.99316 0.0
C183 C 0.06913 0.41476 0.95082 0.0
C184 C 0.04397 0.43517 0.9987 0.0
C185 C 0.08137 0.44576 0.95712 0.0
C186 C 0.934 0.30719 0.95689 0.0
C187 C 0.89716 0.26176 0.98547 0.0
N188 N 0.87518 0.26868 0.97807 0.0
C189 C 0.91107 0.31384 0.94954 0.0
C190 C 0.92703 0.28095 0.97499 0.0
C191 C 0.88147 0.2941 0.9605 0.0
C192 C 0.01908 0.40845 0.88331 0.0
N193 N 1.00297 0.39215 0.91042 0.0
C194 C 0.9891 0.42944 0.92382 0.0
C195 C 0.98761 0.40175 0.93015 0.0
C196 C 0.00617 0.44714 0.89663 0.0
C197 C 0.02077 0.43618 0.8757 0.0
H198 H 0.03118 0.40032 0.86815 0.0
H199 H 0.97505 0.3883 0.95157 0.0
C200 C 0.0189 0.3344 0.03769 0.0
N201 N 0.99155 0.32746 0.02445 0.0
C202 C 0.02346 0.33718 0.07206 0.0
C203 C 0.97141 0.32553 0.07902 0.0
C204 C 0.96791 0.32326 0.04415 0.0
C205 C 0.99955 0.33261 0.09307 0.0
H206 H 0.0373 0.33793 0.02131 0.0
H207 H 0.94659 0.31843 0.03298 0.0
C208 C 0.03129 0.33136 0.87061 0.0
N209 N 0.07235 0.33009 0.82628 0.0
C210 C 0.02348 0.30502 0.85228 0.0
C211 C 0.05981 0.35716 0.86613 0.0
C212 C 0.0446 0.30481 0.83004 0.0
C213 C 0.08031 0.35603 0.84369 0.0
C214 C 0.00985 0.27419 0.96103 0.0
C215 C 0.00987 0.2578 0.93294 0.0
C216 C 0.02032 0.26978 0.99169 0.0
C217 C 0.02066 0.23744 0.93592 0.0
C218 C 0.03072 0.24905 0.9937 0.0
N219 N 0.03076 0.23351 0.96599 0.0
C220 C 0.08669 0.35118 0.96617 0.0
C221 C 0.07991 0.31771 0.92143 0.0
C222 C 0.11261 0.35088 0.97681 0.0
N223 N 0.07054 0.33438 0.93932 0.0
C224 C 0.1061 0.31702 0.93107 0.0
C225 C 0.1222 0.33321 0.95961 0.0
H226 H 0.0787 0.36376 0.98054 0.0
H227 H 0.06639 0.30381 0.90078 0.0
C228 C 0.93627 0.26969 0.86947 0.0
N229 N 0.94668 0.2656 0.89927 0.0
C230 C 0.91213 0.2451 0.85321 0.0
C231 C 0.90993 0.21251 0.89852 0.0
C232 C 0.93412 0.23772 0.91391 0.0
C233 C 0.89864 0.21619 0.86792 0.0
H234 H 0.94652 0.29216 0.85857 0.0
H235 H 0.94258 0.23514 0.9378 0.0
O236 O 0.03099 0.36334 0.96251 0.0
O237 O 0.96288 0.32595 0.9455 0.0
O238 O 0.01092 0.33203 0.89243 0.0
O239 O 0.99918 0.29407 0.95866 0.0
H240 H 0.01126 0.38803 0.00724 0.0
H241 H 0.07922 0.40718 0.93205 0.0
H242 H 0.03432 0.44343 0.01724 0.0
H243 H 0.10097 0.4623 0.9432 0.0
H244 H 0.89144 0.24137 -0.00053 0.0
H245 H 0.91609 0.334 0.93539 0.0
H246 H 0.94445 0.2754 0.98095 0.0
H247 H 0.86348 0.29895 0.95498 0.0
H248 H 0.97751 0.43729 0.94032 0.0
H249 H 0.03407 0.44939 0.85447 0.0
H250 H 0.0454 0.34271 0.08223 0.0
H251 H 0.95258 0.32197 0.0948 0.0
H252 H 1.00136 0.28497 0.85517 0.0
H253 H 0.0661 0.37776 0.88 0.0
H254 H 0.03893 0.28455 0.81577 0.0
H255 H 0.10255 0.37576 0.84013 0.0
H256 H 1.00177 0.26088 0.90907 0.0
H257 H 0.02022 0.28204 0.01376 0.0
H258 H 0.02097 0.22474 0.91433 0.0
H259 H 0.03888 0.2454 0.01727 0.0
H260 H 0.12454 0.36355 0.99895 0.0
H261 H 0.11295 0.30301 0.91741 0.0
H262 H 0.90381 0.24862 0.82965 0.0
H263 H 0.89988 0.19046 0.9105 0.0
Li264 Li 0.64343 0.99456 0.26689 0.0
Li265 Li 0.66469 0.9864 0.31622 0.0
Li266 Li 0.69787 0.02583 0.2787 0.0
Li267 Li 0.67594 0.97021 0.2627 0.0
C268 C 0.65022 0.04052 0.30269 0.0
N269 N 0.62319 0.07607 0.30102 0.0
C270 C 0.62362 0.03195 0.32086 0.0
C271 C 0.66299 0.06711 0.28357 0.0
C272 C 0.61028 0.05022 0.31966 0.0
C273 C 0.64899 0.08478 0.28306 0.0
C274 C 0.62193 0.93098 0.30773 0.0
C275 C 0.61415 0.88348 0.33007 0.0
N276 N 0.59519 0.88414 0.35366 0.0
C277 C 0.60233 0.93116 0.3322 0.0
C278 C 0.62789 0.90693 0.30665 0.0
C279 C 0.58906 0.90729 0.35519 0.0
C280 C 0.60967 0.01246 0.22353 0.0
N281 N 0.6082 0.99455 0.24963 0.0
C282 C 0.55619 0.9797 0.2594 0.0
C283 C 0.58194 0.97774 0.26692 0.0
C284 C 0.55737 0.99881 0.23351 0.0
C285 C 0.58418 0.01474 0.21475 0.0
H286 H 0.63081 0.02567 0.21022 0.0
H287 H 0.58135 0.96373 0.28748 0.0
C288 C 0.66271 0.00639 0.37994 0.0
N289 N 0.66175 0.98216 0.36424 0.0
C290 C 0.66555 0.00936 0.41449 0.0
C291 C 0.66645 0.96229 0.41685 0.0
C292 C 0.66288 0.95985 0.38201 0.0
C293 C 0.66824 0.9876 0.43321 0.0
H294 H 0.66269 0.02434 0.36569 0.0
H295 H 0.6623 0.94087 0.36915 0.0
C296 C 0.69907 0.02334 0.21221 0.0
N297 N 0.74215 0.06093 0.16623 0.0
C298 C 0.71924 0.01516 0.19837 0.0
C299 C 0.70076 0.0506 0.20261 0.0
C300 C 0.74084 0.03446 0.17515 0.0
C301 C 0.72274 0.06933 0.17937 0.0
C302 C 0.71798 0.98777 0.32454 0.0
C303 C 0.73618 0.01074 0.34715 0.0
C304 C 0.71336 0.95847 0.32906 0.0
C305 C 0.74938 0.00396 0.37401 0.0
C306 C 0.72696 0.95261 0.35623 0.0
N307 N 0.74453 0.97528 0.37797 0.0
C308 C 0.73228 0.07812 0.31352 0.0
C309 C 0.75888 0.0775 0.26503 0.0
C310 C 0.75772 0.1042 0.32523 0.0
N311 N 0.73324 0.0651 0.2841 0.0
C312 C 0.78493 0.10406 0.27568 0.0
C313 C 0.78454 0.11726 0.30649 0.0
H314 H 0.71215 0.06732 0.32893 0.0
H315 H 0.75959 0.06625 0.2424 0.0
C316 C 0.65775 0.92164 0.218 0.0
N317 N 0.68119 0.94071 0.23812 0.0
C318 C 0.65897 0.89854 0.20031 0.0
C319 C 0.70869 0.91535 0.22391 0.0
C320 C 0.70661 0.93832 0.24098 0.0
C321 C 0.68455 0.89508 0.20349 0.0
H322 H 0.63786 0.92413 0.21615 0.0
H323 H 0.72513 0.95404 0.25674 0.0
O324 O 0.66366 0.02293 0.30369 0.0
O325 O 0.63522 0.95418 0.28499 0.0
O326 O 0.6777 0.0047 0.23492 0.0
O327 O 0.70483 0.99394 0.29807 0.0
H328 H 0.61332 0.01131 0.33561 0.0
H329 H 0.68354 0.07409 0.26935 0.0
H330 H 0.58965 0.04382 0.33352 0.0
H331 H 0.65865 0.10544 0.26841 0.0
H332 H 0.61862 0.86477 0.32953 0.0
H333 H 0.59797 0.94987 0.33402 0.0
H334 H 0.64303 0.90636 0.28805 0.0
H335 H 0.57405 0.90728 0.37441 0.0
H336 H 0.53577 0.96704 0.27422 0.0
H337 H 0.58568 0.02964 0.19455 0.0
H338 H 0.66704 0.02924 0.4264 0.0
H339 H 0.66862 0.94516 0.43074 0.0
H340 H 0.7183 0.99419 0.2055 0.0
H341 H 0.68537 0.05732 0.21305 0.0
H342 H 0.75661 0.02843 0.16426 0.0
H343 H 0.72437 0.09054 0.1718 0.0
H344 H 0.74003 0.03352 0.34411 0.0
H345 H 0.69899 0.9403 0.31213 0.0
H346 H 0.76349 0.02151 0.39171 0.0
H347 H 0.72342 0.92999 0.36014 0.0
H348 H 0.75675 0.11365 0.34921 0.0
H349 H 0.80545 0.11358 0.26074 0.0
H350 H 0.64 0.88321 0.18473 0.0
H351 H 0.72876 0.91325 0.22673 0.0
Li352 Li 0.6852 0.66255 0.6496 0.0
Li353 Li 0.65176 0.64484 0.59891 0.0
Li354 Li 0.70927 0.67157 0.59576 0.0
Li355 Li 0.68474 0.69937 0.61243 0.0
C356 C 0.67809 0.60969 0.63824 0.0
N357 N 0.67316 0.5672 0.68473 0.0
C358 C 0.65021 0.58323 0.64336 0.0
C359 C 0.70353 0.61442 0.65653 0.0
C360 C 0.64817 0.56205 0.66703 0.0
C361 C 0.70056 0.59271 0.68 0.0
C362 C 0.63322 0.67929 0.64789 0.0
C363 C 0.59412 0.69197 0.6377 0.0
N364 N 0.59946 0.70529 0.66838 0.0
C365 C 0.63836 0.69312 0.67927 0.0
C366 C 0.61096 0.67867 0.62688 0.0
C367 C 0.62107 0.70618 0.68918 0.0
C368 C 0.70773 0.67661 0.71515 0.0
N369 N 0.68415 0.65604 0.69624 0.0
C370 C 0.65244 0.63648 0.74451 0.0
C371 C 0.65705 0.63573 0.71016 0.0
C372 C 0.67588 0.65855 0.76424 0.0
C373 C 0.70409 0.67817 0.74958 0.0
H374 H 0.7286 0.69317 0.70319 0.0
H375 H 0.63838 0.62048 0.69425 0.0
C376 C 0.60983 0.5991 0.55365 0.0
N377 N 0.61365 0.61236 0.58421 0.0
C378 C 0.58256 0.57261 0.54591 0.0
C379 C 0.56376 0.57441 0.601 0.0
C380 C 0.59118 0.60083 0.60757 0.0
C381 C 0.55947 0.55973 0.57012 0.0
H382 H 0.62827 0.60854 0.53574 0.0
H383 H 0.59507 0.61148 0.6319 0.0
C384 C 0.7505 0.71861 0.6291 0.0
N385 N 0.81217 0.75509 0.61844 0.0
C386 C 0.7616 0.74607 0.61183 0.0
C387 C 0.77077 0.70983 0.64121 0.0
C388 C 0.79287 0.76419 0.60669 0.0
C389 C 0.80186 0.72852 0.63543 0.0
C390 C 0.67423 0.69585 0.54651 0.0
C391 C 0.69798 0.72355 0.53494 0.0
C392 C 0.64458 0.68574 0.53551 0.0
C393 C 0.69163 0.74079 0.51257 0.0
C394 C 0.63917 0.70364 0.51314 0.0
N395 N 0.6626 0.73057 0.50224 0.0
C396 C 0.7469 0.64822 0.57411 0.0
C397 C 0.76119 0.69701 0.55249 0.0
C398 C 0.77124 0.64832 0.55763 0.0
N399 N 0.74243 0.67242 0.57146 0.0
C400 C 0.78603 0.69824 0.53595 0.0
C401 C 0.7912 0.67367 0.53851 0.0
H402 H 0.73159 0.62882 0.58907 0.0
H403 H 0.75709 0.71584 0.55046 0.0
C404 C 0.6998 0.75042 0.64847 0.0
N405 N 0.68619 0.73768 0.61882 0.0
C406 C 0.69995 0.77619 0.66056 0.0
C407 C 0.67292 0.77635 0.6109 0.0
C408 C 0.67261 0.74994 0.60007 0.0
C409 C 0.68637 0.78945 0.64177 0.0
H410 H 0.70953 0.73976 0.66353 0.0
H411 H 0.66071 0.73885 0.57741 0.0
O412 O 0.68044 0.63102 0.61569 0.0
O413 O 0.65011 0.66661 0.63771 0.0
O414 O 0.71994 0.70025 0.63387 0.0
O415 O 0.68002 0.67836 0.56791 0.0
H416 H 0.63034 0.57909 0.62928 0.0
H417 H 0.72527 0.63478 0.65286 0.0
H418 H 0.6267 0.54151 0.67134 0.0
H419 H 0.72002 0.59617 0.69448 0.0
H420 H 0.57683 0.69172 0.62169 0.0
H421 H 0.65581 0.69408 0.69555 0.0
H422 H 0.6068 0.66814 0.60244 0.0
H423 H 0.62491 0.71711 0.71335 0.0
H424 H 0.63038 0.62123 0.75525 0.0
H425 H 0.72247 0.69553 0.76432 0.0
H426 H 0.57985 0.56172 0.52185 0.0
H427 H 0.54638 0.56496 0.62019 0.0
H428 H 0.74625 0.75315 0.6021 0.0
H429 H 0.76256 0.68868 0.65468 0.0
H430 H 0.80176 0.78541 0.5932 0.0
H431 H 0.81779 0.7219 0.64442 0.0
H432 H 0.72101 0.73178 0.54331 0.0
H433 H 0.62596 0.66431 0.54412 0.0
H434 H 0.70976 0.76233 0.5035 0.0
H435 H 0.61633 0.69614 0.50445 0.0
H436 H 0.77465 0.62899 0.55997 0.0
H437 H 0.80102 0.71807 0.52126 0.0
H438 H 0.71027 0.78552 0.68459 0.0
H439 H 0.66201 0.78595 0.59592 0.0
Li440 Li 0.00947 0.6507 0.92978 0.0
Li441 Li 0.01877 0.68123 0.97811 0.0
Li442 Li 0.98275 0.67939 0.9403 0.0
Li443 Li 0.03821 0.70756 0.9258 0.0
C444 C 0.95357 0.61905 0.95749 0.0
N445 N 0.89953 0.56706 0.94185 0.0
C446 C 0.93909 0.59582 0.98112 0.0
C447 C 0.94047 0.61569 0.92583 0.0
C448 C 0.91184 0.56975 0.97275 0.0
C449 C 0.91317 0.5893 0.91845 0.0
C450 C 0.07058 0.68212 0.97128 0.0
C451 C 0.11943 0.71051 0.99808 0.0
N452 N 0.11251 0.68615 0.01795 0.0
C453 C 0.06404 0.65727 0.99172 0.0
C454 C 0.09854 0.70891 0.97428 0.0
C455 C 0.0855 0.6598 0.01527 0.0
C456 C 0.01545 0.61055 0.88319 0.0
N457 N 0.00741 0.61408 0.91466 0.0
C458 C 0.9993 0.56528 0.93082 0.0
C459 C 0.99951 0.59216 0.93833 0.0
C460 C 0.00791 0.56116 0.89884 0.0
C461 C 0.01603 0.58405 0.87471 0.0
H462 H 0.02212 0.62857 0.86501 0.0
H463 H 0.99409 0.59587 0.9634 0.0
C464 C 0.9961 0.66239 0.04132 0.0
N465 N 0.02278 0.68183 0.02602 0.0
C466 C 0.99352 0.66191 0.07593 0.0
C467 C 0.04604 0.70179 0.07916 0.0
C468 C 0.04777 0.70115 0.04419 0.0
C469 C 0.01847 0.68209 0.09515 0.0
H470 H 0.9763 0.6479 0.02669 0.0
H471 H 0.06865 0.71676 0.03165 0.0
C472 C 0.99751 0.69174 0.87147 0.0
N473 N 0.9877 0.72153 0.81935 0.0
C474 C 0.99825 0.71924 0.87719 0.0
C475 C 0.99176 0.67936 0.83927 0.0
C476 C 0.99326 0.73397 0.8505 0.0
C477 C 0.98683 0.69476 0.81324 0.0
C478 C 0.02809 0.73693 0.98618 0.0
C479 C 0.00886 0.73853 0.01012 0.0
C480 C 0.05948 0.75624 0.98881 0.0
C481 C 0.02141 0.75926 0.03646 0.0
C482 C 0.07114 0.77672 0.01547 0.0
N483 N 0.05202 0.77776 0.03858 0.0
C484 C 0.93619 0.67415 0.97659 0.0
C485 C 0.9286 0.68381 0.92037 0.0
C486 C 0.91033 0.67466 0.98693 0.0
N487 N 0.9451 0.67909 0.94401 0.0
C488 C 0.9023 0.68448 0.92971 0.0
C489 C 0.89329 0.68018 0.96348 0.0
H490 H 0.94966 0.67034 0.99479 0.0
H491 H 0.93591 0.68738 0.89455 0.0
C492 C 0.09047 0.73621 0.88486 0.0
N493 N 0.0701 0.7411 0.90186 0.0
C494 C 0.11444 0.75995 0.8674 0.0
C495 C 0.09596 0.79333 0.88503 0.0
C496 C 0.07227 0.76892 0.90205 0.0
C497 C 0.11737 0.7889 0.86757 0.0
H498 H 0.08817 0.71385 0.88507 0.0
H499 H 0.05574 0.77222 0.91566 0.0
O500 O 0.98037 0.64473 0.96558 0.0
O501 O 0.04986 0.68014 0.94816 0.0
O502 O 1.00263 0.67696 0.89704 0.0
O503 O 0.01632 0.71657 0.96034 0.0
H504 H 0.94893 0.59773 0.00563 0.0
H505 H 0.95099 0.63322 0.9071 0.0
H506 H 0.90049 0.55163 0.99081 0.0
H507 H 0.9028 0.5865 0.89409 0.0
H508 H 0.14112 0.73114 0.00079 0.0
H509 H 0.04249 0.63639 0.98969 0.0
H510 H 0.10402 0.72827 0.95844 0.0
H511 H 0.08067 0.64084 0.03146 0.0
H512 H 0.99334 0.5482 0.95008 0.0
H513 H 0.02311 0.58158 0.84989 0.0
H514 H 0.97189 0.64664 0.08758 0.0
H515 H 0.06565 0.71783 0.09347 0.0
H516 H 1.00241 0.72905 0.90197 0.0
H517 H 0.99114 0.65808 0.83446 0.0
H518 H 0.99374 0.75527 0.85458 0.0
H519 H 0.98235 0.68544 0.78818 0.0
H520 H 0.98454 0.72396 0.00848 0.0
H521 H 0.07476 0.75513 0.97079 0.0
H522 H 0.00679 0.76066 0.05522 0.0
H523 H 0.0954 0.79165 0.0179 0.0
H524 H 0.9039 0.6712 0.01311 0.0
H525 H 0.8894 0.68872 0.91105 0.0
H526 H 0.13067 0.75589 0.85412 0.0
H527 H 0.09766 0.81545 0.88556 0.0
Li528 Li 0.02499 0.70457 0.39055 0.0
Li529 Li 0.97312 0.67787 0.4095 0.0
Li530 Li 1.00333 0.65067 0.40088 0.0
Li531 Li 0.98799 0.67189 0.35195 0.0
C532 C 0.02982 0.70197 0.45698 0.0
N533 N 0.07084 0.74152 0.50327 0.0
C534 C 0.02932 0.72829 0.46597 0.0
C535 C 0.05097 0.69558 0.47162 0.0
C536 C 0.05034 0.74808 0.48937 0.0
C537 C 0.07156 0.7159 0.495 0.0
C538 C 0.96845 0.71372 0.36166 0.0
C539 C 0.91746 0.69532 0.34151 0.0
N540 N 0.92338 0.72447 0.33874 0.0
C541 C 0.97407 0.74349 0.35849 0.0
C542 C 0.93997 0.68942 0.35299 0.0
C543 C 0.95097 0.74846 0.34689 0.0
C544 C 0.06089 0.75684 0.35725 0.0
N545 N 0.06177 0.74324 0.38621 0.0
C546 C 0.11339 0.78217 0.39528 0.0
C547 C 0.08736 0.75534 0.40536 0.0
C548 C 0.11305 0.79598 0.36491 0.0
C549 C 0.08634 0.78313 0.34599 0.0
H550 H 0.04062 0.74652 0.34211 0.0
H551 H 0.0881 0.74377 0.42766 0.0
C552 C 0.91964 0.65118 0.44898 0.0
N553 N 0.94168 0.6779 0.4359 0.0
C554 C 0.8954 0.65009 0.46678 0.0
C555 C 0.91712 0.70406 0.45757 0.0
C556 C 0.94112 0.70419 0.44031 0.0
C557 C 0.89386 0.67672 0.47082 0.0
H558 H 0.92072 0.63066 0.44523 0.0
H559 H 0.9591 0.72521 0.43003 0.0
C560 C 0.05621 0.68695 0.35218 0.0
N561 N 0.11632 0.7139 0.33275 0.0
C562 C 0.0646 0.69761 0.31946 0.0
C563 C 0.0784 0.69004 0.37505 0.0
C564 C 0.09512 0.71121 0.31013 0.0
C565 C 0.10868 0.70375 0.36474 0.0
C566 C 0.94129 0.61166 0.37142 0.0
C567 C 0.95182 0.59326 0.35782 0.0
C568 C 0.91009 0.60114 0.37232 0.0
C569 C 0.93093 0.56465 0.34521 0.0
C570 C 0.88993 0.57241 0.3594 0.0
N571 N 0.90068 0.5549 0.34625 0.0
C572 C 0.988 0.5968 0.4372 0.0
C573 C 0.02723 0.61108 0.39703 0.0
C574 C 0.98756 0.56943 0.44326 0.0
N575 N 0.00742 0.61675 0.41411 0.0
C576 C 0.02766 0.58416 0.40244 0.0
C577 C 0.0073 0.56284 0.42533 0.0
H578 H 0.97204 0.6016 0.44985 0.0
H579 H 0.0417 0.62673 0.37804 0.0
C580 C 0.99329 0.69734 0.28972 0.0
N581 N 0.98173 0.66973 0.30479 0.0
C582 C 0.99795 0.70017 0.25527 0.0
C583 C 0.97694 0.64577 0.25188 0.0
C584 C 0.97304 0.64403 0.28661 0.0
C585 C 0.99043 0.67427 0.23616 0.0
H586 H 1.00092 0.71755 0.30464 0.0
H587 H 0.96484 0.6225 0.29903 0.0
O588 O 0.00925 0.68216 0.43446 0.0
O589 O 0.99086 0.70868 0.37338 0.0
O590 O 0.0264 0.67331 0.36172 0.0
O591 O 0.96126 0.63942 0.38477 0.0
H592 H 0.01296 0.73342 0.45487 0.0
H593 H 0.05147 0.67517 0.46498 0.0
H594 H 0.05035 0.76863 0.49649 0.0
H595 H 0.08813 0.71134 0.50651 0.0
H596 H 0.89529 0.67672 0.33479 0.0
H597 H 0.99603 0.76255 0.36508 0.0
H598 H 0.93524 0.66628 0.35503 0.0
H599 H 0.95498 0.77138 0.3444 0.0
H600 H 0.1338 0.79152 0.41036 0.0
H601 H 0.08536 0.79312 0.32239 0.0
H602 H 0.87776 0.62866 0.47678 0.0
H603 H 0.91657 0.72499 0.46042 0.0
H604 H 0.04773 0.69531 0.30141 0.0
H605 H 0.07228 0.68206 0.40053 0.0
H606 H 0.10194 0.71956 0.28489 0.0
H607 H 0.1261 0.70636 0.38218 0.0
H608 H 0.97587 0.60116 0.35647 0.0
H609 H 0.90152 0.615 0.38294 0.0
H610 H 0.93879 0.55023 0.3345 0.0
H611 H 0.86573 0.564 0.35991 0.0
H612 H 0.97138 0.55319 0.46085 0.0
H613 H 0.04288 0.57946 0.38797 0.0
H614 H 0.00856 0.72248 0.24383 0.0
H615 H 0.97103 0.62539 0.23766 0.0
Li616 Li 0.32593 0.02035 0.72221 0.0
Li617 Li 0.30023 0.96795 0.73974 0.0
Li618 Li 0.35817 0.99798 0.73562 0.0
Li619 Li 0.32434 0.98229 0.6854 0.0
C620 C 0.33518 0.02674 0.78863 0.0
N621 N 0.34441 0.0718 0.83373 0.0
C622 C 0.31063 0.02955 0.79983 0.0
C623 C 0.3644 0.04675 0.80045 0.0
C624 C 0.31578 0.05251 0.8226 0.0
C625 C 0.3686 0.06941 0.82323 0.0
C626 C 0.25983 0.97604 0.70518 0.0
C627 C 0.20745 0.93763 0.69673 0.0
N628 N 0.19854 0.95535 0.71311 0.0
C629 C 0.25016 0.99394 0.7218 0.0
C630 C 0.23834 0.94775 0.69235 0.0
C631 C 0.21907 0.98306 0.72556 0.0
C632 C 0.31326 0.05729 0.68495 0.0
N633 N 0.32531 0.0576 0.71546 0.0
C634 C 0.33737 0.10911 0.72413 0.0
C635 C 0.33753 0.08294 0.73503 0.0
C636 C 0.32539 0.10929 0.69246 0.0
C637 C 0.31328 0.08299 0.67282 0.0
H638 H 0.30447 0.03722 0.66942 0.0
H639 H 0.34807 0.08328 0.75856 0.0
C640 C 0.26432 0.90805 0.76519 0.0
N641 N 0.26687 0.93603 0.76449 0.0
C642 C 0.2402 0.88398 0.78212 0.0
C643 C 0.2217 0.91784 0.79754 0.0
C644 C 0.24636 0.94134 0.78062 0.0
C645 C 0.21849 0.88879 0.79832 0.0
H646 H 0.28104 0.90438 0.7526 0.0
H647 H 0.24897 0.96375 0.78026 0.0
C648 C 0.37771 0.05074 0.68691 0.0
N649 N 0.41287 0.11071 0.66769 0.0
C650 C 0.37416 0.05994 0.65509 0.0
C651 C 0.39922 0.07195 0.70891 0.0
C652 C 0.39212 0.09039 0.64585 0.0
C653 C 0.41675 0.1022 0.69874 0.0
C654 C 0.32793 0.93454 0.69771 0.0
C655 C 0.35446 0.93372 0.69079 0.0
C656 C 0.30081 0.91409 0.68178 0.0
C657 C 0.35347 0.91256 0.66772 0.0
C658 C 0.30075 0.89329 0.65886 0.0
N659 N 0.32687 0.89298 0.65234 0.0
C660 C 0.40248 0.99742 0.78072 0.0
C661 C 0.41693 0.0107 0.72404 0.0
C662 C 0.43014 0.99866 0.78758 0.0
N663 N 0.39642 1.00319 0.74925 0.0
C664 C 0.44461 0.01198 0.7297 0.0
C665 C 0.45126 0.00551 0.76163 0.0
H666 H 0.3856 0.99117 0.80021 0.0
H667 H 0.41131 0.01472 0.69916 0.0
C668 C 0.30253 0.97477 0.61964 0.0
N669 N 0.32517 0.97609 0.63895 0.0
C670 C 0.30671 0.97954 0.58518 0.0
C671 C 0.35684 0.98555 0.59109 0.0
C672 C 0.35176 0.98079 0.62546 0.0
C673 C 0.33447 0.98588 0.57089 0.0
H674 H 0.28215 0.97217 0.63126 0.0
H675 H 0.3698 0.98304 0.64167 0.0
O676 O 0.33055 0.00407 0.76686 0.0
O677 O 0.29016 0.98618 0.70131 0.0
O678 O 0.35989 0.02117 0.69663 0.0
O679 O 0.32851 0.95547 0.71967 0.0
H680 H 0.2879 0.01429 0.7909 0.0
H681 H 0.38361 0.04476 0.79218 0.0
H682 H 0.29701 0.05503 0.83139 0.0
H683 H 0.3911 0.08508 0.83257 0.0
H684 H 0.19057 0.9157 0.6871 0.0
H685 H 0.26643 0.01583 0.73207 0.0
H686 H 0.24543 0.9337 0.67923 0.0
H687 H 0.21127 0.9966 0.73852 0.0
H688 H 0.34709 0.12919 0.7398 0.0
H689 H 0.3041 0.08242 0.6482 0.0
H690 H 0.23837 0.8618 0.78243 0.0
H691 H 0.20536 0.92226 0.80998 0.0
H692 H 0.3574 0.04379 0.63794 0.0
H693 H 0.40219 0.06515 0.73363 0.0
H694 H 0.38949 0.09789 0.62138 0.0
H695 H 0.43341 0.11891 0.71554 0.0
H696 H 0.37561 0.9493 0.703 0.0
H697 H 0.28009 0.91443 0.68693 0.0
H698 H 0.37385 0.91173 0.66201 0.0
H699 H 0.27995 0.87743 0.64622 0.0
H700 H 0.43471 0.99358 0.81252 0.0
H701 H 0.46043 0.01731 0.70919 0.0
H702 H 0.28918 0.97989 0.5701 0.0
H703 H 0.37856 0.99065 0.58067 0.0
Li704 Li 0.31089 0.324 0.04798 0.0
Li705 Li 0.33687 0.29795 0.06784 0.0
Li706 Li 0.36555 0.35555 0.06161 0.0
Li707 Li 0.34621 0.32083 0.01271 0.0
C708 C 0.31961 0.34091 0.11571 0.0
N709 N 0.29681 0.36445 0.16243 0.0
C710 C 0.2987 0.32192 0.13971 0.0
C711 C 0.32925 0.37194 0.1158 0.0
C712 C 0.28732 0.33423 0.16301 0.0
C713 C 0.31739 0.3834 0.13955 0.0
C714 C 0.28218 0.26067 0.03938 0.0
C715 C 0.24401 0.20818 0.03078 0.0
N716 N 0.22986 0.20888 0.05939 0.0
C717 C 0.26726 0.26083 0.06868 0.0
C718 C 0.27048 0.23413 0.02024 0.0
C719 C 0.24084 0.23445 0.07838 0.0
C720 C 0.25805 0.3079 0.01354 0.0
N721 N 0.27331 0.32406 0.04114 0.0
C722 C 0.23853 0.34266 0.04723 0.0
C723 C 0.26399 0.34118 0.05818 0.0
C724 C 0.22288 0.32646 0.01851 0.0
C725 C 0.23261 0.30865 0.00188 0.0
H726 H 0.26647 0.29544 -0.00046 0.0
H727 H 0.27679 0.35453 0.07943 0.0
C728 C 0.33922 0.26882 0.12759 0.0
N729 N 0.33476 0.26541 0.09393 0.0
C730 C 0.3387 0.24554 0.14682 0.0
C731 C 0.32863 0.21558 0.09647 0.0
C732 C 0.32947 0.23945 0.0782 0.0
C733 C 0.33347 0.21865 0.13112 0.0
H734 H 0.34345 0.28974 0.13942 0.0
H735 H 0.32612 0.23737 0.0514 0.0
C736 C 0.33351 0.37412 0.00718 0.0
N737 N 0.3131 0.40905 0.97584 0.0
C738 C 0.31753 0.36441 0.97705 0.0
C739 C 0.33912 0.4016 0.02137 0.0
C740 C 0.30737 0.38238 0.96161 0.0
C741 C 0.32857 0.41891 0.00517 0.0
C742 C 0.39743 0.32324 0.02572 0.0
C743 C 0.42543 0.34906 0.01898 0.0
C744 C 0.38989 0.29566 0.01029 0.0
C745 C 0.4454 0.34689 0.9966 0.0
C746 C 0.41046 0.29444 0.98803 0.0
N747 N 0.43754 0.31987 0.98169 0.0
C748 C 0.40979 0.3988 0.10741 0.0
C749 C 0.41289 0.41425 0.05082 0.0
C750 C 0.43596 0.42627 0.1154 0.0
N751 N 0.39898 0.39337 0.0755 0.0
C752 C 0.439 0.44187 0.05765 0.0
C753 C 0.45093 0.44793 0.09014 0.0
H754 H 0.3984 0.38162 0.12645 0.0
H755 H 0.40403 0.4091 0.02559 0.0
C756 C 0.33016 0.29736 0.94807 0.0
N757 N 0.35295 0.31967 0.96634 0.0
C758 C 0.32916 0.3005 0.91348 0.0
C759 C 0.37619 0.34855 0.91699 0.0
C760 C 0.37609 0.34467 0.95159 0.0
C761 C 0.35186 0.3268 0.89791 0.0
H762 H 0.31151 0.27835 0.96062 0.0
H763 H 0.39315 0.36264 0.96693 0.0
O764 O 0.33124 0.3293 0.09295 0.0
O765 O 0.30841 0.28609 0.02958 0.0
O766 O 0.34422 0.35717 0.02234 0.0
O767 O 0.37735 0.325 0.04706 0.0
H768 H 0.29143 0.29794 0.14046 0.0
H769 H 0.34555 0.387 0.09764 0.0
H770 H 0.27104 0.31977 0.18163 0.0
H771 H 0.32454 0.40734 0.13977 0.0
H772 H 0.23476 0.18748 0.01624 0.0
H773 H 0.27586 0.28111 0.08368 0.0
H774 H 0.28186 0.23352 0.99761 0.0
H775 H 0.22906 0.23431 0.101 0.0
H776 H 0.2316 0.35683 0.06041 0.0
H777 H 0.22118 0.29619 0.97944 0.0
H778 H 0.34255 0.24852 0.17357 0.0
H779 H 0.3246 0.19508 0.0837 0.0
H780 H 0.31288 0.34316 0.96576 0.0
H781 H 0.3517 0.40966 0.04449 0.0
H782 H 0.2948 0.37505 0.93839 0.0
H783 H 0.33278 0.44024 0.01585 0.0
H784 H 0.43163 0.37055 0.0308 0.0
H785 H 0.36821 0.27553 0.01514 0.0
H786 H 0.46711 0.36671 0.99104 0.0
H787 H 0.40485 0.27329 0.97573 0.0
H788 H 0.44474 0.43039 0.14071 0.0
H789 H 0.45014 0.45815 0.03767 0.0
H790 H 0.31002 0.2835 0.8993 0.0
H791 H 0.39382 0.36921 0.90555 0.0
Li792 Li 0.03497 0.32886 0.40869 0.0
Li793 Li 0.98284 0.30778 0.39081 0.0
Li794 Li 0.02244 0.33951 0.35122 0.0
Li795 Li 0.01203 0.36146 0.40085 0.0
C796 C 1.00244 0.26975 0.37243 0.0
N797 N 0.9759 0.20724 0.37523 0.0
C798 C 1.00093 0.25539 0.40278 0.0
C799 C 0.99064 0.25233 0.34345 0.0
C800 C 0.98736 0.22376 0.4037 0.0
C801 C 0.97729 0.22075 0.34539 0.0
C802 C 0.97913 0.3094 0.4562 0.0
C803 C 0.92864 0.28825 0.47903 0.0
N804 N 0.93434 0.27046 0.49981 0.0
C805 C 0.98459 0.2911 0.47793 0.0
C806 C 0.95104 0.30816 0.45687 0.0
C807 C 0.96161 0.2715 0.49974 0.0
C808 C 0.07453 0.33882 0.46326 0.0
N809 N 0.06509 0.32469 0.43313 0.0
C810 C 0.10191 0.30846 0.43542 0.0
C811 C 0.07811 0.30953 0.41912 0.0
C812 C 0.11233 0.32319 0.4663 0.0
C813 C 0.09825 0.3383 0.48044 0.0
H814 H 0.06398 0.35098 0.47362 0.0
H815 H 0.07043 0.29881 0.39494 0.0
C816 C 0.93048 0.27274 0.3558 0.0
N817 N 0.9431 0.27238 0.38571 0.0
C818 C 0.90415 0.24732 0.34455 0.0
C819 C 0.90297 0.22141 0.3957 0.0
C820 C 0.92991 0.24736 0.40577 0.0
C821 C 0.89021 0.22117 0.36438 0.0
H822 H 0.94146 0.29245 0.33985 0.0
H823 H 0.94074 0.24703 0.4289 0.0
C824 C 0.08174 0.37851 0.37535 0.0
N825 N 0.14148 0.3967 0.36018 0.0
C826 C 0.10509 0.40664 0.38645 0.0
C827 C 0.08876 0.35959 0.35658 0.0
C828 C 0.13516 0.41544 0.37849 0.0
C829 C 0.1191 0.36921 0.34916 0.0
C830 C 0.97387 0.35809 0.35335 0.0
C831 C 0.98923 0.38141 0.33008 0.0
C832 C 0.94654 0.35325 0.36714 0.0
C833 C 0.97703 0.39971 0.32115 0.0
C834 C 0.93508 0.37203 0.35754 0.0
N835 N 0.95043 0.39467 0.33494 0.0
C836 C 1.00199 0.32032 0.2894 0.0
C837 C 0.05086 0.36432 0.28619 0.0
C838 C 0.9989 0.31952 0.25484 0.0
N839 N 0.02753 0.34238 0.30432 0.0
C840 C 0.0488 0.36429 0.2512 0.0
C841 C 0.02236 0.34175 0.23544 0.0
H842 H 0.9836 0.30374 0.30459 0.0
H843 H 0.07057 0.38213 0.29878 0.0
C844 C 0.99304 0.39767 0.43803 0.0
N845 N 0.01185 0.39752 0.41386 0.0
C846 C 0.99137 0.42397 0.44392 0.0
C847 C 0.02871 0.44939 0.40033 0.0
C848 C 0.02987 0.42278 0.39551 0.0
C849 C 0.00902 0.44998 0.42447 0.0
H850 H 0.97882 0.37722 0.45211 0.0
H851 H 0.04441 0.4219 0.37629 0.0
O852 O 0.01515 0.30067 0.37123 0.0
O853 O 1.00143 0.3289 0.43489 0.0
O854 O 0.05231 0.36923 0.38387 0.0
O855 O 0.98561 0.34015 0.36277 0.0
H856 H 0.00991 0.2685 0.42543 0.0
H857 H 0.99178 0.263 0.31968 0.0
H858 H 0.98588 0.21236 0.42708 0.0
H859 H 0.96797 0.20698 0.32317 0.0
H860 H 0.90671 0.28689 0.47966 0.0
H861 H 0.00636 0.29209 0.47803 0.0
H862 H 0.9465 0.32221 0.44024 0.0
H863 H 0.96547 0.25712 0.51663 0.0
H864 H 0.11243 0.29673 0.42384 0.0
H865 H 0.10592 0.34997 0.5042 0.0
H866 H 0.89498 0.24788 0.32025 0.0
H867 H 0.89277 0.20145 0.41155 0.0
H868 H 0.10001 0.42143 0.4012 0.0
H869 H 0.07102 0.33765 0.34795 0.0
H870 H 0.15347 0.43715 0.38694 0.0
H871 H 0.12487 0.35478 0.33472 0.0
H872 H 0.01051 0.38559 0.31933 0.0
H873 H 0.93433 0.33521 0.38508 0.0
H874 H 0.98874 0.41795 0.3033 0.0
H875 H 0.91399 0.36863 0.36809 0.0
H876 H 0.97822 0.30197 0.24333 0.0
H877 H 0.06721 0.38182 0.23668 0.0
H878 H 0.97591 0.42382 0.46269 0.0
H879 H 0.04254 0.46912 0.38493 0.0
Li880 Li 0.71337 0.03726 0.74383 0.0
Li881 Li 0.68784 0.98504 0.7265 0.0
Li882 Li 0.69237 0.02363 0.68837 0.0
Li883 Li 0.65611 0.00843 0.73696 0.0
C884 C 0.75507 0.03007 0.71382 0.0
N885 N 0.81596 0.05377 0.72814 0.0
C886 C 0.76462 0.01331 0.73287 0.0
C887 C 0.77648 0.05873 0.70176 0.0
C888 C 0.79552 0.02571 0.73987 0.0
C889 C 0.80716 0.07037 0.70939 0.0
C890 C 0.674 0.97772 0.79167 0.0
C891 C 0.63619 0.93513 0.8233 0.0
N892 N 0.65835 0.93048 0.83607 0.0
C893 C 0.69641 0.97258 0.80514 0.0
C894 C 0.64364 0.95892 0.80084 0.0
C895 C 0.68804 0.94856 0.82754 0.0
C896 C 0.75309 0.09809 0.76401 0.0
N897 N 0.74617 0.06884 0.76926 0.0
C898 C 0.78745 0.08534 0.80797 0.0
C899 C 0.76258 0.06211 0.79102 0.0
C900 C 0.79518 0.11564 0.80264 0.0
C901 C 0.77764 0.12199 0.78058 0.0
H902 H 0.73969 0.10291 0.74676 0.0
H903 H 0.7567 0.03877 0.79485 0.0
C904 C 0.70234 0.9482 0.69176 0.0
N905 N 0.68804 0.94749 0.72082 0.0
C906 C 0.70201 0.92228 0.6799 0.0
C907 C 0.67306 0.89509 0.72867 0.0
C908 C 0.67329 0.92154 0.73926 0.0
C909 C 0.68721 0.89529 0.69835 0.0
H910 H 0.71305 0.96873 0.67694 0.0
H911 H 0.66089 0.92091 0.76144 0.0
C912 C 0.68561 0.07044 0.69897 0.0
N913 N 0.6829 0.10994 0.65344 0.0
C914 C 0.65851 0.07077 0.69438 0.0
C915 C 0.7114 0.09037 0.68063 0.0
C916 C 0.65759 0.09088 0.6712 0.0
C917 C 0.70955 0.1101 0.65765 0.0
C918 C 0.63845 0.95592 0.68711 0.0
C919 C 0.64387 0.94789 0.65545 0.0
C920 C 0.61563 0.93392 0.70734 0.0
C921 C 0.62637 0.91786 0.64458 0.0
C922 C 0.59862 0.90412 0.69556 0.0
N923 N 0.60427 0.89679 0.66468 0.0
C924 C 0.71651 0.02566 0.62559 0.0
C925 C 0.67202 0.02984 0.62462 0.0
C926 C 0.71444 0.02035 0.59119 0.0
N927 N 0.69511 0.02962 0.64157 0.0
C928 C 0.66941 0.02516 0.59006 0.0
C929 C 0.69025 0.01936 0.57329 0.0
H930 H 0.7339 0.0244 0.63989 0.0
H931 H 0.65454 0.03157 0.63819 0.0
C932 C 0.61399 0.01468 0.77928 0.0
N933 N 0.61791 0.00403 0.74953 0.0
C934 C 0.58675 0.01432 0.78602 0.0
C935 C 0.56814 0.99166 0.73165 0.0
C936 C 0.5956 0.9924 0.726 0.0
C937 C 0.56372 1.00313 0.76172 0.0
H938 H 0.63229 0.02417 0.79734 0.0
H939 H 0.59955 0.98465 0.70232 0.0
O940 O 0.72488 0.01864 0.70729 0.0
O941 O 0.68177 1.00147 0.77024 0.0
O942 O 0.6869 0.05071 0.7213 0.0
O943 O 0.65552 0.98514 0.69831 0.0
H944 H 0.74833 0.99111 0.74246 0.0
H945 H 0.76943 0.07194 0.68693 0.0
H946 H 0.80323 0.01308 0.75475 0.0
H947 H 0.82396 0.09263 0.70046 0.0
H948 H 0.61279 0.92037 0.83059 0.0
H949 H 0.71997 0.98679 0.79819 0.0
H950 H 0.62603 0.96267 0.79078 0.0
H951 H 0.70513 0.94423 0.83807 0.0
H952 H 0.8006 0.07979 0.82491 0.0
H953 H 0.78307 0.14519 0.77603 0.0
H954 H 0.71292 0.92317 0.65629 0.0
H955 H 0.66122 0.87449 0.74336 0.0
H956 H 0.63839 0.05568 0.70853 0.0
H957 H 0.73254 0.09037 0.68388 0.0
H958 H 0.63675 0.09133 0.66731 0.0
H959 H 0.72928 0.12551 0.64313 0.0
H960 H 0.66158 0.96459 0.63957 0.0
H961 H 0.6112 0.93977 0.73193 0.0
H962 H 0.63039 0.91129 0.62019 0.0
H963 H 0.58094 0.88682 0.71098 0.0
H964 H 0.73071 0.0157 0.57892 0.0
H965 H 0.65037 0.02429 0.57686 0.0
H966 H 0.58395 0.02336 0.80945 0.0
H967 H 0.55081 0.98299 0.7124 0.0
Li968 Li 0.67683 0.71237 0.07161 0.0
Li969 Li 0.70333 0.68751 0.05234 0.0
Li970 Li 0.66614 0.68991 0.017 0.0
Li971 Li 0.64868 0.65503 0.06673 0.0
C972 C 0.7225 0.75414 0.03836 0.0
N973 N 0.75756 0.81558 0.05149 0.0
C974 C 0.74957 0.76523 0.05638 0.0
C975 C 0.71342 0.77432 0.02671 0.0
C976 C 0.76697 0.79638 0.06279 0.0
C977 C 0.7314 0.8053 0.03374 0.0
C978 C 0.7007 0.67432 0.11684 0.0
C979 C 0.70768 0.63705 0.14681 0.0
N980 N 0.73585 0.65923 0.15628 0.0
C981 C 0.72967 0.69677 0.12696 0.0
C982 C 0.68955 0.64422 0.12686 0.0
C983 C 0.74711 0.68866 0.14685 0.0
C984 C 0.65681 0.75255 0.09395 0.0
N985 N 0.67912 0.74539 0.0977 0.0
C986 C 0.70518 0.78621 0.13672 0.0
C987 C 0.70288 0.76145 0.11885 0.0
C988 C 0.68255 0.7941 0.13309 0.0
C989 C 0.65805 0.77693 0.11158 0.0
H990 H 0.63807 0.7394 0.07718 0.0
H991 H 0.72024 0.75526 0.12159 0.0
C992 C 0.75684 0.70557 0.01822 0.0
N993 N 0.74086 0.68757 0.04448 0.0
C994 C 0.78212 0.705 0.00561 0.0
C995 C 0.77456 0.66743 0.04731 0.0
C996 C 0.74912 0.66853 0.05903 0.0
C997 C 0.79107 0.68561 0.02001 0.0
H998 H 0.74922 0.71956 0.00605 0.0
H999 H 0.73538 0.65329 0.0787 0.0
C1000 C 0.61343 0.68283 0.0312 0.0
N1001 N 0.56911 0.67848 0.98779 0.0
C1002 C 0.58602 0.65546 0.0281 0.0
C1003 C 0.61816 0.70808 0.01251 0.0
C1004 C 0.56393 0.6537 0.00596 0.0
C1005 C 0.59553 0.7054 0.9906 0.0
C1006 C 0.68062 0.63649 0.01445 0.0
C1007 C 0.69433 0.64275 0.98294 0.0
C1008 C 0.67793 0.61194 0.033 0.0
C1009 C 0.70468 0.62395 0.97018 0.0
C1010 C 0.6887 0.59376 0.01943 0.0
N1011 N 0.70164 0.60002 0.98852 0.0
C1012 C 0.67948 0.71207 0.9512 0.0
C1013 C 0.63645 0.66277 0.95731 0.0
C1014 C 0.67981 0.70787 0.9167 0.0
N1015 N 0.65842 0.68936 0.97068 0.0
C1016 C 0.63589 0.65765 0.92293 0.0
C1017 C 0.65841 0.68002 0.90256 0.0
H1018 H 0.69734 0.73246 0.96272 0.0
H1019 H 0.62085 0.64469 0.97363 0.0
C1020 C 0.60331 0.61121 0.11134 0.0
N1021 N 0.61595 0.61653 0.08028 0.0
C1022 C 0.57703 0.58351 0.1184 0.0
C1023 C 0.57771 0.56744 0.06157 0.0
C1024 C 0.60384 0.59527 0.05564 0.0
C1025 C 0.56383 0.56154 0.09307 0.0
H1026 H 0.61315 0.62873 0.13029 0.0
H1027 H 0.61388 0.60038 0.03095 0.0
O1028 O 0.70477 0.72364 0.03254 0.0
O1029 O 0.68314 0.68182 0.09765 0.0
O1030 O 0.63557 0.68489 0.05233 0.0
O1031 O 0.66968 0.65419 0.02696 0.0
H1032 H 0.7569 0.74993 0.06567 0.0
H1033 H 0.69261 0.76613 0.01262 0.0
H1034 H 0.78787 0.80525 0.07689 0.0
H1035 H 0.72453 0.82115 0.02512 0.0
H1036 H 0.69937 0.61384 0.15469 0.0
H1037 H 0.73868 0.72014 0.11936 0.0
H1038 H 0.66719 0.62657 0.11926 0.0
H1039 H 0.76962 0.70577 0.15475 0.0
H1040 H 0.72434 0.79905 0.15321 0.0
H1041 H 0.64022 0.78249 0.10834 0.0
H1042 H 0.79419 0.71905 0.98429 0.0
H1043 H 0.78076 0.65193 0.05869 0.0
H1044 H 0.58179 0.63578 0.04264 0.0
H1045 H 0.63922 0.72943 0.01464 0.0
H1046 H 0.54265 0.63262 0.00322 0.0
H1047 H 0.59898 0.7247 0.9758 0.0
H1048 H 0.69701 0.66199 0.96861 0.0
H1049 H 0.66766 0.607 0.05761 0.0
H1050 H 0.71532 0.62848 0.94579 0.0
H1051 H 0.68673 0.57464 0.03346 0.0
H1052 H 0.69759 0.72539 0.90151 0.0
H1053 H 0.61931 0.63585 0.91263 0.0
H1054 H 0.56669 0.57954 0.14295 0.0
H1055 H 0.56792 0.55097 0.04151 0.0
C1056 C 0.30609 0.14397 0.17808 0.0
C1057 C 0.33423 0.14628 0.1869 0.0
C1058 C 0.36179 0.19528 0.15773 0.0
C1059 C 0.33373 0.1939 0.15079 0.0
N1060 N 0.27946 0.16941 0.15785 0.0
N1061 N 0.38888 0.17557 0.18958 0.0
C1062 C 0.30592 0.16891 0.16197 0.0
C1063 C 0.36211 0.17238 0.17797 0.0
N1064 N 0.27956 0.11758 0.18434 0.0
N1065 N 0.38805 0.21805 0.14413 0.0
H1066 H 0.39005 0.15901 0.20388 0.0
H1067 H 0.40973 0.19548 0.18723 0.0
H1068 H 0.38881 0.23557 0.12978 0.0
H1069 H 0.40874 0.21849 0.14494 0.0
H1070 H 0.2585 0.11304 0.17527 0.0
H1071 H 0.27878 0.09912 0.19672 0.0
H1072 H 0.25888 0.1536 0.16858 0.0
H1073 H 0.27843 0.18702 0.14563 0.0
C1074 C 0.19354 0.34261 0.48632 0.0
C1075 C 0.18884 0.32504 0.51564 0.0
C1076 C 0.13374 0.30422 0.51094 0.0
C1077 C 0.13867 0.32368 0.48326 0.0
N1078 N 0.17322 0.36453 0.44727 0.0
N1079 N 0.15532 0.29204 0.55864 0.0
C1080 C 0.16859 0.34373 0.47163 0.0
C1081 C 0.15914 0.30661 0.52873 0.0
N1082 N 0.22176 0.35766 0.47205 0.0
N1083 N 0.10474 0.28285 0.51959 0.0
H1084 H 0.1733 0.29275 0.57201 0.0
H1085 H 0.13476 0.28105 0.57147 0.0
H1086 H 0.08562 0.28066 0.50734 0.0
H1087 H 0.0996 0.26579 0.5371 0.0
H1088 H 0.22606 0.36806 0.44868 0.0
H1089 H 0.24067 0.35776 0.4824 0.0
H1090 H 0.19462 0.382 0.44028 0.0
H1091 H 0.15554 0.36591 0.43572 0.0
C1092 C 0.85134 0.15242 0.80616 0.0
C1093 C 0.82181 0.14085 0.81989 0.0
C1094 C 0.84242 0.17968 0.864 0.0
C1095 C 0.87219 0.18993 0.85162 0.0
N1096 N 0.90582 0.18348 0.8143 0.0
N1097 N 0.78941 0.14 0.86442 0.0
C1098 C 0.87689 0.17557 0.82361 0.0
C1099 C 0.81741 0.15349 0.84959 0.0
N1100 N 0.85482 0.14182 0.77597 0.0
N1101 N 0.83795 0.19564 0.88877 0.0
H1102 H 0.77047 0.12113 0.85426 0.0
H1103 H 0.7854 0.14595 0.88802 0.0
H1104 H 0.85569 0.21479 0.90012 0.0
H1105 H 0.81659 0.19142 0.89634 0.0
H1106 H 0.87518 0.15164 0.76272 0.0
H1107 H 0.83675 0.12443 0.76285 0.0
H1108 H 0.91084 0.17171 0.79645 0.0
H1109 H 0.92505 0.20047 0.82633 0.0
C1110 C 0.67282 0.81615 0.18485 0.0
C1111 C 0.68441 0.82038 0.15174 0.0
C1112 C 0.69918 0.87442 0.15402 0.0
C1113 C 0.68549 0.86962 0.18611 0.0
N1114 N 0.65723 0.83599 0.23144 0.0
N1115 N 0.7067 0.85236 0.10345 0.0
C1116 C 0.67183 0.84049 0.20141 0.0
C1117 C 0.69716 0.84925 0.13598 0.0
N1118 N 0.66319 0.78893 0.20061 0.0
N1119 N 0.7145 0.90319 0.14111 0.0
H1120 H 0.7068 0.83482 0.08996 0.0
H1121 H 0.71296 0.87165 0.08904 0.0
H1122 H 0.71558 0.92194 0.15314 0.0
H1123 H 0.72779 0.90903 0.11961 0.0
H1124 H 0.6577 0.78525 0.22591 0.0
H1125 H 0.66251 0.77025 0.18888 0.0
H1126 H 0.64368 0.81472 0.24218 0.0
H1127 H 0.65716 0.85351 0.24501 0.0
C1128 C 0.87029 0.68489 0.52234 0.0
C1129 C 0.86754 0.67588 0.48826 0.0
C1130 C 0.8153 0.6669 0.48666 0.0
C1131 C 0.81755 0.67449 0.52117 0.0
N1132 N 0.84563 0.68846 0.57293 0.0
N1133 N 0.83736 0.65608 0.43828 0.0
C1134 C 0.84466 0.68288 0.53931 0.0
C1135 C 0.83999 0.66627 0.4705 0.0
N1136 N 0.89765 0.69585 0.53822 0.0
N1137 N 0.78968 0.66084 0.46927 0.0
H1138 H 0.85537 0.65675 0.42503 0.0
H1139 H 0.81704 0.64542 0.42503 0.0
H1140 H 0.77061 0.65966 0.48055 0.0
H1141 H 0.78768 0.65859 0.44338 0.0
H1142 H 0.90248 0.70605 0.56171 0.0
H1143 H 0.91645 0.69629 0.52713 0.0
H1144 H 0.8632 0.69132 0.58862 0.0
H1145 H 0.82791 0.6887 0.58585 0.0
C1146 C 0.19438 0.85954 0.85109 0.0
C1147 C 0.19241 0.86338 0.81615 0.0
C1148 C 0.14039 0.81973 0.81541 0.0
C1149 C 0.14316 0.81469 0.84985 0.0
N1150 N 0.17344 0.82716 0.89997 0.0
N1151 N 0.16524 0.84597 0.764 0.0
C1152 C 0.17034 0.83393 0.86758 0.0
C1153 C 0.16586 0.84311 0.798 0.0
N1154 N 0.21908 0.88072 0.86858 0.0
N1155 N 0.11312 0.80261 0.79961 0.0
H1156 H 0.18289 0.86355 0.7506 0.0
H1157 H 0.14817 0.82999 0.74867 0.0
H1158 H 0.09425 0.78486 0.81136 0.0
H1159 H 0.10839 0.80712 0.77564 0.0
H1160 H 0.22046 0.88136 0.89457 0.0
H1161 H 0.23765 0.89907 0.85718 0.0
H1162 H 0.19376 0.83805 0.91324 0.0
H1163 H 0.15606 0.80909 0.91313 0.0
C1164 C 0.47779 0.98183 0.20933 0.0
C1165 C 0.47596 0.00444 0.22834 0.0
C1166 C 0.52996 0.02776 0.2429 0.0
C1167 C 0.5307 1.00288 0.22768 0.0
N1168 N 0.50611 0.9562 0.19627 0.0
N1169 N 0.49934 0.0485 0.26418 0.0
C1170 C 0.50488 0.98004 0.21051 0.0
C1171 C 0.50192 0.02755 0.24504 0.0
N1172 N 0.4536 0.96225 0.19009 0.0
N1173 N 0.55611 0.05156 0.25534 0.0
H1174 H 0.47955 0.04989 0.26529 0.0
H1175 H 0.51612 0.06351 0.28047 0.0
H1176 H 0.57689 0.05216 0.25492 0.0
H1177 H 0.55793 0.07182 0.26366 0.0
H1178 H 0.45415 0.94693 0.17322 0.0
H1179 H 0.43338 0.96284 0.18916 0.0
H1180 H 0.48728 0.93689 0.18681 0.0
H1181 H 0.52607 0.95512 0.19512 0.0
C1182 C 0.50315 0.52959 0.56078 0.0
C1183 C 0.53121 0.53019 0.56428 0.0
C1184 C 0.50445 0.47447 0.56196 0.0
C1185 C 0.47629 0.47389 0.56361 0.0
N1186 N 0.44857 0.5009 0.56833 0.0
N1187 N 0.55867 0.5032 0.57204 0.0
C1188 C 0.4755 0.50146 0.56368 0.0
C1189 C 0.53197 0.50262 0.56556 0.0
N1190 N 0.50301 0.55595 0.55437 0.0
N1191 N 0.50483 0.44808 0.55663 0.0
H1192 H 0.57935 0.52327 0.57496 0.0
H1193 H 0.55998 0.48379 0.57716 0.0
H1194 H 0.48502 0.42711 0.55379 0.0
H1195 H 0.52461 0.44736 0.55189 0.0
H1196 H 0.48343 0.55664 0.54829 0.0
H1197 H 0.52292 0.57691 0.55203 0.0
H1198 H 0.44706 0.52034 0.57253 0.0
H1199 H 0.42779 0.48084 0.57064 0.0
C1200 C 0.03534 0.53189 0.90494 0.0
C1201 C 0.01016 0.53356 0.89205 0.0
C1202 C 0.98458 0.47947 0.87704 0.0
C1203 C 0.00918 0.4775 0.89121 0.0
N1204 N 0.05996 0.50192 0.91376 0.0
N1205 N 0.96339 0.51126 0.86089 0.0
C1206 C 0.0353 0.50386 0.90343 0.0
C1207 C 0.98563 0.50804 0.87633 0.0
N1208 N 0.05875 0.55699 0.91973 0.0
N1209 N 0.95982 0.45368 0.86529 0.0
H1210 H 0.96311 0.53165 0.86079 0.0
H1211 H 0.94617 0.49453 0.84637 0.0
H1212 H 0.95911 0.43283 0.86373 0.0
H1213 H 0.93955 0.45239 0.85811 0.0
H1214 H 0.07609 0.55681 0.93335 0.0
H1215 H 0.0604 0.5783 0.91939 0.0
H1216 H 0.08086 0.52054 0.91999 0.0
H1217 H 0.06029 0.48158 0.9143 0.0
C1218 C 0.98472 0.50841 0.40749 0.0
C1219 C 1.00528 0.53271 0.42829 0.0
C1220 C 0.02706 0.50204 0.44843 0.0
C1221 C 0.00617 0.47758 0.42806 0.0
N1222 N 0.96181 0.45507 0.3927 0.0
N1223 N 0.04232 0.55157 0.47258 0.0
C1224 C 0.98389 0.48002 0.40906 0.0
C1225 C 0.02531 0.52914 0.45007 0.0
N1226 N 0.96685 0.51292 0.38529 0.0
N1227 N 0.04911 0.49961 0.46542 0.0
H1228 H 0.04181 0.57182 0.47403 0.0
H1229 H 0.05518 0.54936 0.49146 0.0
H1230 H 0.05023 0.47965 0.46592 0.0
H1231 H 0.06726 0.51768 0.47756 0.0
H1232 H 0.95411 0.49755 0.36657 0.0
H1233 H 0.96608 0.53304 0.38412 0.0
H1234 H 0.94301 0.45428 0.38134 0.0
H1235 H 0.96097 0.43414 0.39258 0.0
C1236 C 0.53569 0.03234 0.76271 0.0
C1237 C 0.53534 0.00438 0.76672 0.0
C1238 C 0.47968 0.97707 0.76974 0.0
C1239 C 0.48009 0.00517 0.76701 0.0
N1240 N 0.50832 0.05987 0.76852 0.0
N1241 N 0.50804 0.95132 0.78142 0.0
C1242 C 0.50812 0.03293 0.76598 0.0
C1243 C 0.5076 0.97711 0.77265 0.0
N1244 N 0.56207 0.05804 0.75412 0.0
N1245 N 0.45274 0.9503 0.76776 0.0
H1246 H 0.52815 0.95063 0.78371 0.0
H1247 H 0.48887 0.93149 0.78937 0.0
H1248 H 0.43176 0.94921 0.76565 0.0
H1249 H 0.45128 0.92918 0.76564 0.0
H1250 H 0.56303 0.07822 0.74699 0.0
H1251 H 0.5828 0.05865 0.7516 0.0
H1252 H 0.5281 0.0808 0.77124 0.0
H1253 H 0.48849 0.06104 0.77107 0.0
C1254 C 0.47903 0.50435 0.09874 0.0
C1255 C 0.47962 0.47677 0.09693 0.0
C1256 C 0.53519 0.50512 0.10168 0.0
C1257 C 0.53477 0.53271 0.09846 0.0
N1258 N 0.50664 0.55902 0.09124 0.0
N1259 N 0.50805 0.45044 0.09414 0.0
C1260 C 0.50676 0.5325 0.09666 0.0
C1261 C 0.50765 0.47697 0.09811 0.0
N1262 N 0.4519 0.50352 0.10272 0.0
N1263 N 0.56197 0.50595 0.10841 0.0
H1264 H 0.48837 0.42931 0.09194 0.0
H1265 H 0.52788 0.4495 0.09074 0.0
H1266 H 0.58251 0.52626 0.11108 0.0
H1267 H 0.56345 0.48676 0.11428 0.0
H1268 H 0.4501 0.5227 0.10753 0.0
H1269 H 0.43121 0.48321 0.10422 0.0
H1270 H 0.48709 0.55993 0.08567 0.0
H1271 H 0.52641 0.58016 0.08997 0.0
C1272 C 0.13985 0.85089 0.34783 0.0
C1273 C 0.14052 0.82348 0.35196 0.0
C1274 C 0.19225 0.84823 0.3291 0.0
C1275 C 0.19014 0.87444 0.32153 0.0
N1276 N 0.15954 0.89843 0.31775 0.0
N1277 N 0.16521 0.79427 0.34075 0.0
C1278 C 0.16321 0.8751 0.32919 0.0
C1279 C 0.16615 0.82163 0.34102 0.0
N1280 N 0.11735 0.85412 0.36258 0.0
N1281 N 0.21944 0.84903 0.32615 0.0
H1282 H 0.14656 0.77422 0.34917 0.0
H1283 H 0.18185 0.79099 0.32948 0.0
H1284 H 0.23915 0.86802 0.31759 0.0
H1285 H 0.22307 0.83179 0.33495 0.0
H1286 H 0.11738 0.87463 0.36323 0.0
H1287 H 0.10023 0.83711 0.3771 0.0
H1288 H 0.13917 0.89857 0.31971 0.0
H1289 H 0.17588 0.91622 0.30333 0.0
C1290 C 0.35284 0.19001 0.66092 0.0
C1291 C 0.32501 0.18736 0.64995 0.0
C1292 C 0.29746 0.13536 0.67191 0.0
C1293 C 0.32548 0.1368 0.67928 0.0
N1294 N 0.38017 0.16367 0.67426 0.0
N1295 N 0.27154 0.15518 0.63853 0.0
C1296 C 0.35332 0.16363 0.67197 0.0
C1297 C 0.2975 0.15932 0.65356 0.0
N1298 N 0.37862 0.21785 0.66207 0.0
N1299 N 0.27082 0.11158 0.68339 0.0
H1300 H 0.27084 0.1719 0.62402 0.0
H1301 H 0.25157 0.13422 0.63758 0.0
H1302 H 0.2699 0.09401 0.69779 0.0
H1303 H 0.25003 0.1109 0.68157 0.0
H1304 H 0.3987 0.22149 0.67323 0.0
H1305 H 0.37921 0.23781 0.65471 0.0
H1306 H 0.40076 0.1816 0.66582 0.0
H1307 H 0.38153 0.14471 0.68165 0.0
C1308 C 0.20304 0.35289 0.98185 0.0
C1309 C 0.19712 0.32899 0.00448 0.0
C1310 C 0.14236 0.30595 0.99436 0.0
C1311 C 0.14816 0.33073 0.97312 0.0
N1312 N 0.18322 0.37917 0.94865 0.0
N1313 N 0.16174 0.28491 0.03582 0.0
C1314 C 0.17832 0.3546 0.96741 0.0
C1315 C 0.1669 0.30606 0.01167 0.0
N1316 N 0.23237 0.37351 0.97355 0.0
N1317 N 0.11334 0.28218 0.99766 0.0
H1318 H 0.17923 0.28422 0.04873 0.0
H1319 H 0.1403 0.26942 0.04496 0.0
H1320 H 0.09472 0.28182 0.98632 0.0
H1321 H 0.10777 0.26189 0.0097 0.0
H1322 H 0.23845 0.38926 0.95427 0.0
H1323 H 0.25097 0.37385 0.98495 0.0
H1324 H 0.20413 0.39905 0.94677 0.0
H1325 H 0.16585 0.38038 0.9361 0.0
C1326 C 0.86394 0.16713 0.34295 0.0
C1327 C 0.86272 0.19368 0.35136 0.0
C1328 C 0.81234 0.17169 0.32548 0.0
C1329 C 0.81222 0.14399 0.32034 0.0
N1330 N 0.83538 0.11325 0.33087 0.0
N1331 N 0.83312 0.21861 0.35695 0.0
C1332 C 0.83732 0.14108 0.33095 0.0
C1333 C 0.8361 0.19518 0.34447 0.0
N1334 N 0.89076 0.16709 0.34506 0.0
N1335 N 0.79024 0.17593 0.31135 0.0
H1336 H 0.84973 0.23582 0.37175 0.0
H1337 H 0.81302 0.21933 0.3555 0.0
H1338 H 0.77282 0.15946 0.29664 0.0
H1339 H 0.79088 0.19675 0.31145 0.0
H1340 H 0.89363 0.14952 0.33576 0.0
H1341 H 0.9109 0.18576 0.35328 0.0
H1342 H 0.85176 0.10934 0.34172 0.0
H1343 H 0.81615 0.09346 0.32282 0.0
C1344 C 0.71406 0.84375 0.66134 0.0
C1345 C 0.6861 0.81672 0.65517 0.0
C1346 C 0.65851 0.84182 0.67531 0.0
C1347 C 0.68645 0.86746 0.68513 0.0
N1348 N 0.74044 0.8899 0.69398 0.0
N1349 N 0.63168 0.788 0.66285 0.0
C1350 C 0.71415 0.86756 0.68004 0.0
C1351 C 0.65826 0.81515 0.66398 0.0
N1352 N 0.74047 0.84712 0.64838 0.0
N1353 N 0.63236 0.84323 0.67546 0.0
H1354 H 0.63049 0.76782 0.65526 0.0
H1355 H 0.61128 0.78501 0.67243 0.0
H1356 H 0.63156 0.86245 0.68301 0.0
H1357 H 0.61205 0.82637 0.66513 0.0
H1358 H 0.76105 0.86751 0.64934 0.0
H1359 H 0.74123 0.83055 0.63364 0.0
H1360 H 0.7607 0.88943 0.69379 0.0
H1361 H 0.74127 0.90725 0.70873 0.0
C1362 C 0.81195 0.65818 0.98627 0.0
C1363 C 0.81719 0.68392 0.00546 0.0
C1364 C 0.87144 0.70906 0.99157 0.0
C1365 C 0.86662 0.6822 0.97523 0.0
N1366 N 0.83327 0.62975 0.96043 0.0
N1367 N 0.8523 0.73202 0.03068 0.0
C1368 C 0.83711 0.65635 0.97344 0.0
C1369 C 0.84707 0.70893 0.00922 0.0
N1370 N 0.78288 0.63594 0.97935 0.0
N1371 N 0.89927 0.73485 0.98969 0.0
H1372 H 0.83505 0.73255 0.04431 0.0
H1373 H 0.87393 0.7493 0.03726 0.0
H1374 H 0.91766 0.73569 0.9771 0.0
H1375 H 0.90345 0.75602 0.99803 0.0
H1376 H 0.77748 0.61838 0.96242 0.0
H1377 H 0.76393 0.63634 0.98859 0.0
H1378 H 0.813 0.60913 0.96209 0.0
H1379 H 0.85101 0.62779 0.94992 0.0
C1380 C 0.36475 0.03564 0.49295 0.0
C1381 C 0.35039 0.01346 0.46755 0.0
C1382 C 0.32827 0.97312 0.50986 0.0
C1383 C 0.34097 0.99534 0.53535 0.0
N1384 N 0.36809 0.04806 0.55204 0.0
N1385 N 0.31778 0.96039 0.45227 0.0
C1386 C 0.35853 0.02674 0.52716 0.0
C1387 C 0.33212 0.98223 0.47603 0.0
N1388 N 0.38491 0.06504 0.48429 0.0
N1389 N 0.31204 0.94292 0.51779 0.0
H1390 H 0.31881 0.96468 0.42664 0.0
H1391 H 0.31881 0.96468 0.42664 0.0
H1392 H 0.30889 0.9349 0.54234 0.0
H1393 H 0.30224 0.92593 0.49963 0.0
H1394 H 0.3987 0.08173 0.50138 0.0
H1395 H 0.38957 0.07235 0.45948 0.0
H1396 H 0.37793 0.07129 0.54772 0.0
H1397 H 0.36424 0.04244 0.57734 0.0
C1398 C 0.33408 0.35027 0.85481 0.0
C1399 C 0.34825 0.33293 0.86241 0.0
C1400 C 0.35406 0.32636 0.80262 0.0
C1401 C 0.33768 0.34155 0.79512 0.0
N1402 N 0.30967 0.36572 0.81317 0.0
N1403 N 0.36967 0.30233 0.8446 0.0
C1404 C 0.32709 0.35299 0.82099 0.0
C1405 C 0.35776 0.32044 0.83657 0.0
N1406 N 0.32769 0.36448 0.87998 0.0
N1407 N 0.36644 0.31802 0.7772 0.0
H1408 H 0.37389 0.2986 0.8692 0.0
H1409 H 0.37378 0.28955 0.82722 0.0
H1410 H 0.3634 0.3211 0.75201 0.0
H1411 H 0.3814 0.3099 0.78088 0.0
H1412 H 0.32058 0.3802 0.876 0.0
H1413 H 0.33151 0.3622 0.90514 0.0
H1414 H 0.29814 0.37124 0.83082 0.0
H1415 H 0.3051 0.36914 0.7886 0.0
C1416 C 0.01159 0.36185 0.18283 0.0
C1417 C 0.01849 0.341 0.19863 0.0
C1418 C 0.00853 0.31245 0.14634 0.0
C1419 C 1.00441 0.33484 0.12979 0.0
N1420 N 0.00718 0.38367 0.13066 0.0
N1421 N 0.02907 0.29983 0.19445 0.0
C1422 C 0.00737 0.36037 0.14757 0.0
C1423 C 0.01861 0.31728 0.18005 0.0
N1424 N 0.00797 0.38232 0.20162 0.0
N1425 N 1.00187 0.28612 0.13012 0.0
H1426 H 0.03692 0.30295 0.21907 0.0
H1427 H 0.03264 0.28425 0.18117 0.0
H1428 H 0.99397 0.28156 0.10551 0.0
H1429 H 1.00143 0.26764 0.14195 0.0
H1430 H 0.99956 0.39571 0.19196 0.0
H1431 H 0.01108 0.38429 0.22749 0.0
H1432 H 0.01261 0.40432 0.14179 0.0
H1433 H 1.00403 0.38339 0.10484 0.0
C1434 C 0.653 0.97515 0.49368 0.0
C1435 C 0.67514 0.99313 0.46947 0.0
C1436 C 0.70675 0.02894 0.51306 0.0
C1437 C 0.68551 0.01003 0.53756 0.0
N1438 N 0.64245 0.96131 0.55214 0.0
N1439 N 0.72632 0.0326 0.45697 0.0
C1440 C 0.65982 0.98192 0.52817 0.0
C1441 C 0.70309 0.01861 0.47948 0.0
N1442 N 0.62503 0.95246 0.48381 0.0
N1443 N 0.72964 0.05731 0.52152 0.0
H1444 H 0.72457 0.02528 0.43225 0.0
H1445 H 0.74817 0.0494 0.46363 0.0
H1446 H 0.73278 0.06598 0.54577 0.0
H1447 H 0.74381 0.07327 0.50395 0.0
H1448 H 0.6069 0.94095 0.50029 0.0
H1449 H 0.61912 0.94675 0.45878 0.0
H1450 H 0.62534 0.93928 0.5466 0.0
H1451 H 0.64706 0.96514 0.57767 0.0
C1452 C 0.67594 0.65607 0.85947 0.0
C1453 C 0.66154 0.67322 0.86716 0.0
C1454 C 0.65665 0.6807 0.80758 0.0
C1455 C 0.67023 0.66286 0.79967 0.0
N1456 N 0.6886 0.62963 0.81739 0.0
N1457 N 0.63712 0.70103 0.84876 0.0
C1458 C 0.67869 0.6494 0.82547 0.0
C1459 C 0.65149 0.68509 0.8413 0.0
N1460 N 0.68816 0.64734 0.88465 0.0
N1461 N 0.64834 0.694 0.78339 0.0
H1462 H 0.63238 0.70459 0.87322 0.0
H1463 H 0.62951 0.71021 0.83032 0.0
H1464 H 0.65135 0.69239 0.7578 0.0
H1465 H 0.65135 0.69239 0.7578 0.0
H1466 H 0.70199 0.63793 0.88068 0.0
H1467 H 0.68628 0.65147 0.90981 0.0
H1468 H 0.69194 0.61637 0.83483 0.0
H1469 H 0.69139 0.62469 0.79273 0.0
C1470 C 0.02208 0.67186 0.18922 0.0
C1471 C 0.99876 0.67751 0.20018 0.0
C1472 C 0.99455 0.69337 0.14356 0.0
C1473 C 0.01442 0.68335 0.13177 0.0
N1474 N 0.04433 0.6594 0.14257 0.0
N1475 N 0.95974 0.68976 0.18707 0.0
C1476 C 0.0276 0.67172 0.15438 0.0
C1477 C 0.98421 0.68734 0.17717 0.0
N1478 N 0.03965 0.66764 0.21208 0.0
N1479 N 0.98605 0.70916 0.12274 0.0
H1480 H 0.95114 0.68504 0.21139 0.0
H1481 H 0.9463 0.69374 0.17049 0.0
H1482 H 0.99363 0.7144 0.09806 0.0
H1483 H 0.97401 0.71961 0.13083 0.0
H1484 H 0.05894 0.66655 0.20557 0.0
H1485 H 0.03675 0.66816 0.23787 0.0
H1486 H 0.05152 0.64746 0.15762 0.0
H1487 H 0.04904 0.65901 0.11722 0.0
loop_
_geom_bond_atom_site_label_1
_geom_bond_atom_site_label_2
_geom_bond_distance
_geom_bond_site_symmetry_2
_ccdc_geom_bond_type
Li0 N17 1.990 . S
Li0 O60 1.956 . S
Li0 O61 1.970 1_565 S
Li0 O62 1.961 . S
Li1 N25 1.990 . S
Li1 O60 1.970 1_545 S
Li1 O61 1.956 . S
Li1 O63 1.961 . S
Li2 N47 1.990 . S
Li2 O60 1.961 . S
Li2 O62 1.956 . S
Li2 O63 1.970 1_565 S
Li3 N53 1.990 . S
Li3 O61 1.961 . S
Li3 O62 1.970 1_545 S
Li3 O63 1.956 . S
C4 C6 1.348 . S
C4 C7 1.356 . S
C4 O60 1.325 . S
N5 C8 1.314 . S
N5 C9 1.279 . S
C6 C4 1.348 . S
C6 C8 1.353 . S
C6 H64 0.929 . S
C7 C4 1.356 . S
C7 C9 1.358 . S
C7 H65 0.930 . S
C8 N5 1.314 . S
C8 C6 1.353 . S
C8 H66 0.930 . S
C9 N5 1.279 . S
C9 C7 1.358 . S
C9 H67 0.930 . S
C10 C13 1.348 . S
C10 C14 1.356 . S
C10 O61 1.325 . S
C11 N12 1.279 . S
C11 C14 1.358 . S
C11 H68 0.930 . S
N12 C11 1.279 . S
N12 C15 1.314 . S
C13 C10 1.348 . S
C13 C15 1.353 . S
C13 H69 0.929 . S
C14 C10 1.356 . S
C14 C11 1.358 . S
C14 H70 0.930 . S
C15 N12 1.314 . S
C15 C13 1.353 . S
C15 H71 0.930 . S
C16 N17 1.314 1_545 S
C16 C21 1.353 . S
C16 H22 0.930 . S
N17 Li0 1.990 . S
N17 C16 1.314 1_565 S
N17 C19 1.279 . S
C18 C19 1.358 . S
C18 C20 1.356 . S
C18 H72 0.930 . S
C19 N17 1.279 . S
C19 C18 1.358 . S
C19 H23 0.930 . S
C20 C18 1.356 . S
C20 C21 1.348 1_565 S
C21 C16 1.353 . S
C21 C20 1.348 1_545 S
C21 H73 0.929 . S
H22 C16 0.930 . S
H23 C19 0.930 . S
C24 N25 1.314 . S
C24 C26 1.353 . S
C24 H30 0.930 1_545 S
N25 Li1 1.990 . S
N25 C24 1.314 . S
N25 C28 1.279 . S
C26 C24 1.353 . S
C26 C29 1.348 . S
C26 H74 0.929 . S
C27 C28 1.358 . S
C27 C29 1.356 . S
C27 H75 0.930 . S
C28 N25 1.279 . S
C28 C27 1.358 . S
C28 H31 0.930 . S
C29 C26 1.348 . S
C29 C27 1.356 . S
H30 C24 0.930 1_565 S
H31 C28 0.930 . S
C32 C34 1.348 . S
C32 C35 1.356 . S
C32 O62 1.325 . S
N33 C36 1.314 . S
N33 C37 1.279 . S
C34 C32 1.348 . S
C34 C36 1.353 . S
C34 H76 0.929 1_565 S
C35 C32 1.356 . S
C35 C37 1.358 . S
C35 H77 0.930 . S
C36 N33 1.314 . S
C36 C34 1.353 . S
C36 H78 0.930 . S
C37 N33 1.279 . S
C37 C35 1.358 . S
C37 H79 0.930 . S
C38 C39 1.348 1_545 S
C38 C40 1.356 . S
C38 O63 1.325 . S
C39 C38 1.348 1_565 S
C39 C41 1.353 . S
C39 H80 0.929 . S
C40 C38 1.356 . S
C40 C42 1.358 . S
C40 H81 0.930 . S
C41 C39 1.353 . S
C41 N43 1.314 1_565 S
C41 H82 0.930 . S
C42 C40 1.358 . S
C42 N43 1.279 . S
C42 H83 0.930 . S
N43 C41 1.314 1_545 S
N43 C42 1.279 . S
C44 C46 1.353 . S
C44 N47 1.314 . S
C44 H50 0.930 . S
C45 N47 1.279 . S
C45 C48 1.358 . S
C45 H51 0.930 . S
C46 C44 1.353 . S
C46 C49 1.348 . S
C46 H84 0.929 . S
N47 Li2 1.990 . S
N47 C44 1.314 . S
N47 C45 1.279 . S
C48 C45 1.358 . S
C48 C49 1.356 . S
C48 H85 0.930 . S
C49 C46 1.348 . S
C49 C48 1.356 . S
H50 C44 0.930 . S
H51 C45 0.930 . S
C52 N53 1.314 . S
C52 C54 1.353 . S
C52 H58 0.930 . S
N53 Li3 1.990 . S
N53 C52 1.314 . S
N53 C56 1.279 . S
C54 C52 1.353 . S
C54 C57 1.348 . S
C54 H86 0.929 . S
C55 C56 1.358 . S
C55 C57 1.356 . S
C55 H87 0.930 . S
C56 N53 1.279 . S
C56 C55 1.358 . S
C56 H59 0.930 . S
C57 C54 1.348 . S
C57 C55 1.356 . S
H58 C52 0.930 . S
H59 C56 0.930 . S
O60 Li0 1.956 . S
O60 Li1 1.970 1_565 S
O60 Li2 1.961 . S
O60 C4 1.325 . S
O61 Li0 1.970 1_545 S
O61 Li1 1.956 . S
O61 Li3 1.961 . S
O61 C10 1.325 . S
O62 Li0 1.961 . S
O62 Li2 1.956 . S
O62 Li3 1.970 1_565 S
O62 C32 1.325 . S
O63 Li1 1.961 . S
O63 Li2 1.970 1_545 S
O63 Li3 1.956 . S
O63 C38 1.325 . S
H64 C6 0.929 . S
H65 C7 0.930 . S
H66 C8 0.930 . S
H67 C9 0.930 . S
H68 C11 0.930 . S
H69 C13 0.929 . S
H70 C14 0.930 . S
H71 C15 0.930 . S
H72 C18 0.930 . S
H73 C21 0.929 . S
H74 C26 0.929 . S
H75 C27 0.930 . S
H76 C34 0.929 1_545 S
H77 C35 0.930 . S
H78 C36 0.930 . S
H79 C37 0.930 . S
H80 C39 0.929 . S
H81 C40 0.930 . S
H82 C41 0.930 . S
H83 C42 0.930 . S
H84 C46 0.929 . S
H85 C48 0.930 . S
H86 C54 0.929 . S
H87 C55 0.930 . S
Li88 N105 1.990 . S
Li88 O148 1.956 . S
Li88 O149 1.970 . S
Li88 O150 1.961 . S
Li89 N113 1.990 . S
Li89 O148 1.970 . S
Li89 O149 1.956 . S
Li89 O151 1.961 . S
Li90 N135 1.990 . S
Li90 O148 1.961 . S
Li90 O150 1.956 . S
Li90 O151 1.970 . S
Li91 N141 1.990 . S
Li91 O149 1.961 . S
Li91 O150 1.970 . S
Li91 O151 1.956 . S
C92 C94 1.348 . S
C92 C95 1.356 . S
C92 O148 1.325 . S
N93 C96 1.314 . S
N93 C97 1.279 . S
C94 C92 1.348 . S
C94 C96 1.353 . S
C94 H152 0.929 . S
C95 C92 1.356 . S
C95 C97 1.358 . S
C95 H153 0.930 . S
C96 N93 1.314 . S
C96 C94 1.353 . S
C96 H154 0.930 . S
C97 N93 1.279 . S
C97 C95 1.358 . S
C97 H155 0.930 . S
C98 C101 1.348 . S
C98 C102 1.356 . S
C98 O149 1.325 . S
C99 N100 1.279 . S
C99 C102 1.358 . S
C99 H156 0.930 . S
N100 C99 1.279 . S
N100 C103 1.314 . S
C101 C98 1.348 . S
C101 C103 1.353 . S
C101 H157 0.929 . S
C102 C98 1.356 . S
C102 C99 1.358 . S
C102 H158 0.930 . S
C103 N100 1.314 . S
C103 C101 1.353 . S
C103 H159 0.930 . S
C104 N105 1.314 . S
C104 C109 1.353 . S
C104 H110 0.930 . S
N105 Li88 1.990 . S
N105 C104 1.314 . S
N105 C107 1.279 . S
C106 C107 1.358 . S
C106 C108 1.356 . S
C106 H160 0.930 . S
C107 N105 1.279 . S
C107 C106 1.358 . S
C107 H111 0.930 . S
C108 C106 1.356 . S
C108 C109 1.348 . S
C109 C104 1.353 . S
C109 C108 1.348 . S
C109 H161 0.929 . S
H110 C104 0.930 . S
H111 C107 0.930 . S
C112 N113 1.314 . S
C112 C114 1.353 . S
C112 H118 0.930 . S
N113 Li89 1.990 . S
N113 C112 1.314 . S
N113 C116 1.279 . S
C114 C112 1.353 . S
C114 C117 1.348 . S
C114 H162 0.929 . S
C115 C116 1.358 . S
C115 C117 1.356 . S
C115 H163 0.930 . S
C116 N113 1.279 . S
C116 C115 1.358 . S
C116 H119 0.930 . S
C117 C114 1.348 . S
C117 C115 1.356 . S
H118 C112 0.930 . S
H119 C116 0.930 . S
C120 C122 1.348 . S
C120 C123 1.356 . S
C120 O150 1.325 . S
N121 C124 1.314 . S
N121 C125 1.279 . S
C122 C120 1.348 . S
C122 C124 1.353 . S
C122 H164 0.929 . S
C123 C120 1.356 . S
C123 C125 1.358 . S
C123 H165 0.930 . S
C124 N121 1.314 . S
C124 C122 1.353 . S
C124 H166 0.930 . S
C125 N121 1.279 . S
C125 C123 1.358 . S
C125 H167 0.930 . S
C126 C127 1.348 . S
C126 C128 1.356 . S
C126 O151 1.325 . S
C127 C126 1.348 . S
C127 C129 1.353 . S
C127 H168 0.929 . S
C128 C126 1.356 . S
C128 C130 1.358 . S
C128 H169 0.930 . S
C129 C127 1.353 . S
C129 N131 1.314 . S
C129 H170 0.930 . S
C130 C128 1.358 . S
C130 N131 1.279 . S
C130 H171 0.930 . S
N131 C129 1.314 . S
N131 C130 1.279 . S
C132 C134 1.353 . S
C132 N135 1.314 . S
C132 H138 0.930 . S
C133 N135 1.279 . S
C133 C136 1.358 . S
C133 H139 0.930 . S
C134 C132 1.353 . S
C134 C137 1.348 . S
C134 H172 0.929 . S
N135 Li90 1.990 . S
N135 C132 1.314 . S
N135 C133 1.279 . S
C136 C133 1.358 . S
C136 C137 1.356 . S
C136 H173 0.930 . S
C137 C134 1.348 . S
C137 C136 1.356 . S
H138 C132 0.930 . S
H139 C133 0.930 . S
C140 N141 1.314 . S
C140 C142 1.353 . S
C140 H146 0.930 . S
N141 Li91 1.990 . S
N141 C140 1.314 . S
N141 C144 1.279 . S
C142 C140 1.353 . S
C142 C145 1.348 . S
C142 H174 0.929 . S
C143 C144 1.358 . S
C143 C145 1.356 . S
C143 H175 0.930 . S
C144 N141 1.279 . S
C144 C143 1.358 . S
C144 H147 0.930 . S
C145 C142 1.348 . S
C145 C143 1.356 . S
H146 C140 0.930 . S
H147 C144 0.930 . S
O148 Li88 1.956 . S
O148 Li89 1.970 . S
O148 Li90 1.961 . S
O148 C92 1.325 . S
O149 Li88 1.970 . S
O149 Li89 1.956 . S
O149 Li91 1.961 . S
O149 C98 1.325 . S
O150 Li88 1.961 . S
O150 Li90 1.956 . S
O150 Li91 1.970 . S
O150 C120 1.325 . S
O151 Li89 1.961 . S
O151 Li90 1.970 . S
O151 Li91 1.956 . S
O151 C126 1.325 . S
H152 C94 0.929 . S
H153 C95 0.930 . S
H154 C96 0.930 . S
H155 C97 0.930 . S
H156 C99 0.930 . S
H157 C101 0.929 . S
H158 C102 0.930 . S
H159 C103 0.930 . S
H160 C106 0.930 . S
H161 C109 0.929 . S
H162 C114 0.929 . S
H163 C115 0.930 . S
H164 C122 0.929 . S
H165 C123 0.930 . S
H166 C124 0.930 . S
H167 C125 0.930 . S
H168 C127 0.929 . S
H169 C128 0.930 . S
H170 C129 0.930 . S
H171 C130 0.930 . S
H172 C134 0.929 . S
H173 C136 0.930 . S
H174 C142 0.929 . S
H175 C143 0.930 . S
Li176 N193 1.990 . S
Li176 O236 1.956 . S
Li176 O237 1.970 1_455 S
Li176 O238 1.961 . S
Li177 N201 1.990 1_556 S
Li177 O236 1.970 1_655 S
Li177 O237 1.956 . S
Li177 O239 1.961 . S
Li178 N223 1.990 . S
Li178 O236 1.961 . S
Li178 O238 1.956 . S
Li178 O239 1.970 1_455 S
Li179 N229 1.990 . S
Li179 O237 1.961 . S
Li179 O238 1.970 1_655 S
Li179 O239 1.956 . S
C180 C182 1.381 . S
C180 C183 1.342 1_554 S
C180 O236 1.307 1_554 S
N181 C184 1.314 . S
N181 C185 1.279 . S
C182 C180 1.381 . S
C182 C184 1.353 . S
C182 H240 0.929 . S
C183 C180 1.342 1_556 S
C183 C185 1.358 1_556 S
C183 H241 0.930 . S
C184 N181 1.314 . S
C184 C182 1.353 . S
C184 H242 0.930 . S
C185 N181 1.279 . S
C185 C183 1.358 1_554 S
C185 H243 0.930 1_554 S
C186 C189 1.348 . S
C186 C190 1.356 . S
C186 O237 1.325 . S
C187 N188 1.279 . S
C187 C190 1.358 . S
C187 H244 0.930 . S
N188 C187 1.279 . S
N188 C191 1.314 . S
C189 C186 1.348 . S
C189 C191 1.353 . S
C189 H245 0.929 . S
C190 C186 1.356 . S
C190 C187 1.358 . S
C190 H246 0.930 . S
C191 N188 1.314 . S
C191 C189 1.353 . S
C191 H247 0.930 . S
C192 N193 1.314 1_655 S
C192 C197 1.353 . S
C192 H198 0.930 . S
N193 Li176 1.990 . S
N193 C192 1.314 1_455 S
N193 C195 1.279 . S
C194 C195 1.358 . S
C194 C196 1.356 . S
C194 H248 0.930 . S
C195 N193 1.279 . S
C195 C194 1.358 . S
C195 H199 0.930 . S
C196 C194 1.356 . S
C196 C197 1.348 1_455 S
C197 C192 1.353 . S
C197 C196 1.348 1_655 S
C197 H249 0.929 . S
H198 C192 0.930 . S
H199 C195 0.930 . S
C200 N201 1.314 . S
C200 C202 1.353 . S
C200 H206 0.930 1_655 S
N201 Li177 1.990 1_554 S
N201 C200 1.314 . S
N201 C204 1.279 . S
C202 C200 1.353 . S
C202 C205 1.348 . S
C202 H250 0.929 . S
C203 C204 1.358 . S
C203 C205 1.356 . S
C203 H251 0.930 . S
C204 N201 1.279 . S
C204 C203 1.358 . S
C204 H207 0.930 . S
C205 C202 1.348 . S
C205 C203 1.356 . S
H206 C200 0.930 1_455 S
H207 C204 0.930 . S
C208 C210 1.348 . S
C208 C211 1.356 . S
C208 O238 1.325 . S
N209 C212 1.314 . S
N209 C213 1.279 . S
C210 C208 1.348 . S
C210 C212 1.353 . S
C210 H252 0.929 1_455 S
C211 C208 1.356 . S
C211 C213 1.358 . S
C211 H253 0.930 . S
C212 N209 1.314 . S
C212 C210 1.353 . S
C212 H254 0.930 . S
C213 N209 1.279 . S
C213 C211 1.358 . S
C213 H255 0.930 . S
C214 C215 1.348 1_655 S
C214 C216 1.356 . S
C214 O239 1.325 . S
C215 C214 1.348 1_455 S
C215 C217 1.353 . S
C215 H256 0.929 . S
C216 C214 1.356 . S
C216 C218 1.358 1_556 S
C216 H257 0.930 1_556 S
C217 C215 1.353 . S
C217 N219 1.314 1_455 S
C217 H258 0.930 . S
C218 C216 1.358 1_554 S
C218 N219 1.279 1_554 S
C218 H259 0.930 . S
N219 C217 1.314 1_655 S
N219 C218 1.279 1_556 S
C220 C222 1.353 . S
C220 N223 1.314 . S
C220 H226 0.930 . S
C221 N223 1.279 . S
C221 C224 1.358 . S
C221 H227 0.930 . S
C222 C220 1.353 . S
C222 C225 1.348 . S
C222 H260 0.929 . S
N223 Li178 1.990 . S
N223 C220 1.314 . S
N223 C221 1.279 . S
C224 C221 1.358 . S
C224 C225 1.356 . S
C224 H261 0.930 . S
C225 C222 1.348 . S
C225 C224 1.356 . S
H226 C220 0.930 . S
H227 C221 0.930 . S
C228 N229 1.314 . S
C228 C230 1.353 . S
C228 H234 0.930 . S
N229 Li179 1.990 . S
N229 C228 1.314 . S
N229 C232 1.279 . S
C230 C228 1.353 . S
C230 C233 1.348 . S
C230 H262 0.929 . S
C231 C232 1.358 . S
C231 C233 1.356 . S
C231 H263 0.930 . S
C232 N229 1.279 . S
C232 C231 1.358 . S
C232 H235 0.930 . S
C233 C230 1.348 . S
C233 C231 1.356 . S
H234 C228 0.930 . S
H235 C232 0.930 . S
O236 Li176 1.956 . S
O236 Li177 1.970 1_455 S
O236 Li178 1.961 . S
O236 C180 1.307 1_556 S
O237 Li176 1.970 1_655 S
O237 Li177 1.956 . S
O237 Li179 1.961 . S
O237 C186 1.325 . S
O238 Li176 1.961 . S
O238 Li178 1.956 . S
O238 Li179 1.970 1_455 S
O238 C208 1.325 . S
O239 Li177 1.961 . S
O239 Li178 1.970 1_655 S
O239 Li179 1.956 . S
O239 C214 1.325 . S
H240 C182 0.929 . S
H241 C183 0.930 . S
H242 C184 0.930 . S
H243 C185 0.930 1_556 S
H244 C187 0.930 . S
H245 C189 0.929 . S
H246 C190 0.930 . S
H247 C191 0.930 . S
H248 C194 0.930 . S
H249 C197 0.929 . S
H250 C202 0.929 . S
H251 C203 0.930 . S
H252 C210 0.929 1_655 S
H253 C211 0.930 . S
H254 C212 0.930 . S
H255 C213 0.930 . S
H256 C215 0.929 . S
H257 C216 0.930 1_554 S
H258 C217 0.930 . S
H259 C218 0.930 . S
H260 C222 0.929 . S
H261 C224 0.930 . S
H262 C230 0.929 . S
H263 C231 0.930 . S
Li264 N281 1.990 . S
Li264 O324 1.956 . S
Li264 O325 1.970 1_545 S
Li264 O326 1.961 . S
Li265 N289 1.990 . S
Li265 O324 1.970 1_565 S
Li265 O325 1.956 . S
Li265 O327 1.961 . S
Li266 N311 1.990 . S
Li266 O324 1.961 . S
Li266 O326 1.956 . S
Li266 O327 1.970 1_545 S
Li267 N317 1.990 . S
Li267 O325 1.961 . S
Li267 O326 1.970 1_565 S
Li267 O327 1.956 . S
C268 C270 1.348 . S
C268 C271 1.356 . S
C268 O324 1.325 . S
N269 C272 1.314 . S
N269 C273 1.279 . S
C270 C268 1.348 . S
C270 C272 1.353 . S
C270 H328 0.929 . S
C271 C268 1.356 . S
C271 C273 1.358 . S
C271 H329 0.930 . S
C272 N269 1.314 . S
C272 C270 1.353 . S
C272 H330 0.930 . S
C273 N269 1.279 . S
C273 C271 1.358 . S
C273 H331 0.930 . S
C274 C277 1.348 . S
C274 C278 1.356 . S
C274 O325 1.325 . S
C275 N276 1.279 . S
C275 C278 1.358 . S
C275 H332 0.930 . S
N276 C275 1.279 . S
N276 C279 1.314 . S
C277 C274 1.348 . S
C277 C279 1.353 . S
C277 H333 0.929 . S
C278 C274 1.356 . S
C278 C275 1.358 . S
C278 H334 0.930 . S
C279 N276 1.314 . S
C279 C277 1.353 . S
C279 H335 0.930 . S
C280 N281 1.314 1_565 S
C280 C285 1.353 . S
C280 H286 0.930 . S
N281 Li264 1.990 . S
N281 C280 1.314 1_545 S
N281 C283 1.279 . S
C282 C283 1.358 . S
C282 C284 1.356 . S
C282 H336 0.930 . S
C283 N281 1.279 . S
C283 C282 1.358 . S
C283 H287 0.930 . S
C284 C282 1.356 . S
C284 C285 1.348 1_545 S
C285 C280 1.353 . S
C285 C284 1.348 1_565 S
C285 H337 0.929 . S
H286 C280 0.930 . S
H287 C283 0.930 . S
C288 N289 1.314 . S
C288 C290 1.353 . S
C288 H294 0.930 1_565 S
N289 Li265 1.990 . S
N289 C288 1.314 . S
N289 C292 1.279 . S
C290 C288 1.353 . S
C290 C293 1.348 . S
C290 H338 0.929 . S
C291 C292 1.358 . S
C291 C293 1.356 . S
C291 H339 0.930 . S
C292 N289 1.279 . S
C292 C291 1.358 . S
C292 H295 0.930 . S
C293 C290 1.348 . S
C293 C291 1.356 . S
H294 C288 0.930 1_545 S
H295 C292 0.930 . S
C296 C298 1.348 . S
C296 C299 1.356 . S
C296 O326 1.325 . S
N297 C300 1.314 . S
N297 C301 1.279 . S
C298 C296 1.348 . S
C298 C300 1.353 . S
C298 H340 0.929 1_545 S
C299 C296 1.356 . S
C299 C301 1.358 . S
C299 H341 0.930 . S
C300 N297 1.314 . S
C300 C298 1.353 . S
C300 H342 0.930 . S
C301 N297 1.279 . S
C301 C299 1.358 . S
C301 H343 0.930 . S
C302 C303 1.348 1_565 S
C302 C304 1.356 . S
C302 O327 1.325 . S
C303 C302 1.348 1_545 S
C303 C305 1.353 . S
C303 H344 0.929 . S
C304 C302 1.356 . S
C304 C306 1.358 . S
C304 H345 0.930 . S
C305 C303 1.353 . S
C305 N307 1.314 1_545 S
C305 H346 0.930 . S
C306 C304 1.358 . S
C306 N307 1.279 . S
C306 H347 0.930 . S
N307 C305 1.314 1_565 S
N307 C306 1.279 . S
C308 C310 1.353 . S
C308 N311 1.314 . S
C308 H314 0.930 . S
C309 N311 1.279 . S
C309 C312 1.358 . S
C309 H315 0.930 . S
C310 C308 1.353 . S
C310 C313 1.348 . S
C310 H348 0.929 . S
N311 Li266 1.990 . S
N311 C308 1.314 . S
N311 C309 1.279 . S
C312 C309 1.358 . S
C312 C313 1.356 . S
C312 H349 0.930 . S
C313 C310 1.348 . S
C313 C312 1.356 . S
H314 C308 0.930 . S
H315 C309 0.930 . S
C316 N317 1.314 . S
C316 C318 1.353 . S
C316 H322 0.930 . S
N317 Li267 1.990 . S
N317 C316 1.314 . S
N317 C320 1.279 . S
C318 C316 1.353 . S
C318 C321 1.348 . S
C318 H350 0.929 . S
C319 C320 1.358 . S
C319 C321 1.356 . S
C319 H351 0.930 . S
C320 N317 1.279 . S
C320 C319 1.358 . S
C320 H323 0.930 . S
C321 C318 1.348 . S
C321 C319 1.356 . S
H322 C316 0.930 . S
H323 C320 0.930 . S
O324 Li264 1.956 . S
O324 Li265 1.970 1_545 S
O324 Li266 1.961 . S
O324 C268 1.325 . S
O325 Li264 1.970 1_565 S
O325 Li265 1.956 . S
O325 Li267 1.961 . S
O325 C274 1.325 . S
O326 Li264 1.961 . S
O326 Li266 1.956 . S
O326 Li267 1.970 1_545 S
O326 C296 1.325 . S
O327 Li265 1.961 . S
O327 Li266 1.970 1_565 S
O327 Li267 1.956 . S
O327 C302 1.325 . S
H328 C270 0.929 . S
H329 C271 0.930 . S
H330 C272 0.930 . S
H331 C273 0.930 . S
H332 C275 0.930 . S
H333 C277 0.929 . S
H334 C278 0.930 . S
H335 C279 0.930 . S
H336 C282 0.930 . S
H337 C285 0.929 . S
H338 C290 0.929 . S
H339 C291 0.930 . S
H340 C298 0.929 1_565 S
H341 C299 0.930 . S
H342 C300 0.930 . S
H343 C301 0.930 . S
H344 C303 0.929 . S
H345 C304 0.930 . S
H346 C305 0.930 . S
H347 C306 0.930 . S
H348 C310 0.929 . S
H349 C312 0.930 . S
H350 C318 0.929 . S
H351 C319 0.930 . S
Li352 N369 1.990 . S
Li352 O412 1.956 . S
Li352 O413 1.970 . S
Li352 O414 1.961 . S
Li353 N377 1.990 . S
Li353 O412 1.970 . S
Li353 O413 1.956 . S
Li353 O415 1.961 . S
Li354 N399 1.990 . S
Li354 O412 1.961 . S
Li354 O414 1.956 . S
Li354 O415 1.970 . S
Li355 N405 1.990 . S
Li355 O413 1.961 . S
Li355 O414 1.970 . S
Li355 O415 1.956 . S
C356 C358 1.348 . S
C356 C359 1.356 . S
C356 O412 1.325 . S
N357 C360 1.314 . S
N357 C361 1.279 . S
C358 C356 1.348 . S
C358 C360 1.353 . S
C358 H416 0.929 . S
C359 C356 1.356 . S
C359 C361 1.358 . S
C359 H417 0.930 . S
C360 N357 1.314 . S
C360 C358 1.353 . S
C360 H418 0.930 . S
C361 N357 1.279 . S
C361 C359 1.358 . S
C361 H419 0.930 . S
C362 C365 1.348 . S
C362 C366 1.356 . S
C362 O413 1.325 . S
C363 N364 1.279 . S
C363 C366 1.358 . S
C363 H420 0.930 . S
N364 C363 1.279 . S
N364 C367 1.314 . S
C365 C362 1.348 . S
C365 C367 1.353 . S
C365 H421 0.929 . S
C366 C362 1.356 . S
C366 C363 1.358 . S
C366 H422 0.930 . S
C367 N364 1.314 . S
C367 C365 1.353 . S
C367 H423 0.930 . S
C368 N369 1.314 . S
C368 C373 1.353 . S
C368 H374 0.930 . S
N369 Li352 1.990 . S
N369 C368 1.314 . S
N369 C371 1.279 . S
C370 C371 1.358 . S
C370 C372 1.356 . S
C370 H424 0.930 . S
C371 N369 1.279 . S
C371 C370 1.358 . S
C371 H375 0.930 . S
C372 C370 1.356 . S
C372 C373 1.348 . S
C373 C368 1.353 . S
C373 C372 1.348 . S
C373 H425 0.929 . S
H374 C368 0.930 . S
H375 C371 0.930 . S
C376 N377 1.314 . S
C376 C378 1.353 . S
C376 H382 0.930 . S
N377 Li353 1.990 . S
N377 C376 1.314 . S
N377 C380 1.279 . S
C378 C376 1.353 . S
C378 C381 1.348 . S
C378 H426 0.929 . S
C379 C380 1.358 . S
C379 C381 1.356 . S
C379 H427 0.930 . S
C380 N377 1.279 . S
C380 C379 1.358 . S
C380 H383 0.930 . S
C381 C378 1.348 . S
C381 C379 1.356 . S
H382 C376 0.930 . S
H383 C380 0.930 . S
C384 C386 1.348 . S
C384 C387 1.356 . S
C384 O414 1.325 . S
N385 C388 1.314 . S
N385 C389 1.279 . S
C386 C384 1.348 . S
C386 C388 1.353 . S
C386 H428 0.929 . S
C387 C384 1.356 . S
C387 C389 1.358 . S
C387 H429 0.930 . S
C388 N385 1.314 . S
C388 C386 1.353 . S
C388 H430 0.930 . S
C389 N385 1.279 . S
C389 C387 1.358 . S
C389 H431 0.930 . S
C390 C391 1.348 . S
C390 C392 1.356 . S
C390 O415 1.325 . S
C391 C390 1.348 . S
C391 C393 1.353 . S
C391 H432 0.929 . S
C392 C390 1.356 . S
C392 C394 1.358 . S
C392 H433 0.930 . S
C393 C391 1.353 . S
C393 N395 1.314 . S
C393 H434 0.930 . S
C394 C392 1.358 . S
C394 N395 1.279 . S
C394 H435 0.930 . S
N395 C393 1.314 . S
N395 C394 1.279 . S
C396 C398 1.353 . S
C396 N399 1.314 . S
C396 H402 0.930 . S
C397 N399 1.279 . S
C397 C400 1.358 . S
C397 H403 0.930 . S
C398 C396 1.353 . S
C398 C401 1.348 . S
C398 H436 0.929 . S
N399 Li354 1.990 . S
N399 C396 1.314 . S
N399 C397 1.279 . S
C400 C397 1.358 . S
C400 C401 1.356 . S
C400 H437 0.930 . S
C401 C398 1.348 . S
C401 C400 1.356 . S
H402 C396 0.930 . S
H403 C397 0.930 . S
C404 N405 1.314 . S
C404 C406 1.353 . S
C404 H410 0.930 . S
N405 Li355 1.990 . S
N405 C404 1.314 . S
N405 C408 1.279 . S
C406 C404 1.353 . S
C406 C409 1.348 . S
C406 H438 0.929 . S
C407 C408 1.358 . S
C407 C409 1.356 . S
C407 H439 0.930 . S
C408 N405 1.279 . S
C408 C407 1.358 . S
C408 H411 0.930 . S
C409 C406 1.348 . S
C409 C407 1.356 . S
H410 C404 0.930 . S
H411 C408 0.930 . S
O412 Li352 1.956 . S
O412 Li353 1.970 . S
O412 Li354 1.961 . S
O412 C356 1.325 . S
O413 Li352 1.970 . S
O413 Li353 1.956 . S
O413 Li355 1.961 . S
O413 C362 1.325 . S
O414 Li352 1.961 . S
O414 Li354 1.956 . S
O414 Li355 1.970 . S
O414 C384 1.325 . S
O415 Li353 1.961 . S
O415 Li354 1.970 . S
O415 Li355 1.956 . S
O415 C390 1.325 . S
H416 C358 0.929 . S
H417 C359 0.930 . S
H418 C360 0.930 . S
H419 C361 0.930 . S
H420 C363 0.930 . S
H421 C365 0.929 . S
H422 C366 0.930 . S
H423 C367 0.930 . S
H424 C370 0.930 . S
H425 C373 0.929 . S
H426 C378 0.929 . S
H427 C379 0.930 . S
H428 C386 0.929 . S
H429 C387 0.930 . S
H430 C388 0.930 . S
H431 C389 0.930 . S
H432 C391 0.929 . S
H433 C392 0.930 . S
H434 C393 0.930 . S
H435 C394 0.930 . S
H436 C398 0.929 . S
H437 C400 0.930 . S
H438 C406 0.929 . S
H439 C407 0.930 . S
Li440 N457 1.990 . S
Li440 O500 1.956 . S
Li440 O501 1.970 1_655 S
Li440 O502 1.961 . S
Li441 N465 1.990 1_556 S
Li441 O500 1.970 1_455 S
Li441 O501 1.956 . S
Li441 O503 1.961 . S
Li442 N487 1.990 . S
Li442 O500 1.961 . S
Li442 O502 1.956 . S
Li442 O503 1.970 1_655 S
Li443 N493 1.990 . S
Li443 O501 1.961 . S
Li443 O502 1.970 1_455 S
Li443 O503 1.956 . S
C444 C446 1.381 . S
C444 C447 1.342 1_554 S
C444 O500 1.307 1_554 S
N445 C448 1.314 . S
N445 C449 1.279 . S
C446 C444 1.381 . S
C446 C448 1.353 . S
C446 H504 0.929 . S
C447 C444 1.342 1_556 S
C447 C449 1.358 1_556 S
C447 H505 0.930 . S
C448 N445 1.314 . S
C448 C446 1.353 . S
C448 H506 0.930 . S
C449 N445 1.279 . S
C449 C447 1.358 1_554 S
C449 H507 0.930 1_554 S
C450 C453 1.348 . S
C450 C454 1.356 . S
C450 O501 1.325 . S
C451 N452 1.279 . S
C451 C454 1.358 . S
C451 H508 0.930 . S
N452 C451 1.279 . S
N452 C455 1.314 . S
C453 C450 1.348 . S
C453 C455 1.353 . S
C453 H509 0.929 . S
C454 C450 1.356 . S
C454 C451 1.358 . S
C454 H510 0.930 . S
C455 N452 1.314 . S
C455 C453 1.353 . S
C455 H511 0.930 . S
C456 N457 1.314 1_455 S
C456 C461 1.353 . S
C456 H462 0.930 . S
N457 Li440 1.990 . S
N457 C456 1.314 1_655 S
N457 C459 1.279 . S
C458 C459 1.358 . S
C458 C460 1.356 . S
C458 H512 0.930 . S
C459 N457 1.279 . S
C459 C458 1.358 . S
C459 H463 0.930 . S
C460 C458 1.356 . S
C460 C461 1.348 1_655 S
C461 C456 1.353 . S
C461 C460 1.348 1_455 S
C461 H513 0.929 . S
H462 C456 0.930 . S
H463 C459 0.930 . S
C464 N465 1.314 . S
C464 C466 1.353 . S
C464 H470 0.930 1_455 S
N465 Li441 1.990 1_554 S
N465 C464 1.314 . S
N465 C468 1.279 . S
C466 C464 1.353 . S
C466 C469 1.348 . S
C466 H514 0.929 . S
C467 C468 1.358 . S
C467 C469 1.356 . S
C467 H515 0.930 . S
C468 N465 1.279 . S
C468 C467 1.358 . S
C468 H471 0.930 . S
C469 C466 1.348 . S
C469 C467 1.356 . S
H470 C464 0.930 1_655 S
H471 C468 0.930 . S
C472 C474 1.348 . S
C472 C475 1.356 . S
C472 O502 1.325 . S
N473 C476 1.314 . S
N473 C477 1.279 . S
C474 C472 1.348 . S
C474 C476 1.353 . S
C474 H516 0.929 1_655 S
C475 C472 1.356 . S
C475 C477 1.358 . S
C475 H517 0.930 . S
C476 N473 1.314 . S
C476 C474 1.353 . S
C476 H518 0.930 . S
C477 N473 1.279 . S
C477 C475 1.358 . S
C477 H519 0.930 . S
C478 C479 1.348 1_455 S
C478 C480 1.356 . S
C478 O503 1.325 . S
C479 C478 1.348 1_655 S
C479 C481 1.353 . S
C479 H520 0.929 . S
C480 C478 1.356 . S
C480 C482 1.358 1_556 S
C480 H521 0.930 1_556 S
C481 C479 1.353 . S
C481 N483 1.314 1_655 S
C481 H522 0.930 . S
C482 C480 1.358 1_554 S
C482 N483 1.279 1_554 S
C482 H523 0.930 . S
N483 C481 1.314 1_455 S
N483 C482 1.279 1_556 S
C484 C486 1.353 . S
C484 N487 1.314 . S
C484 H490 0.930 . S
C485 N487 1.279 . S
C485 C488 1.358 . S
C485 H491 0.930 . S
C486 C484 1.353 . S
C486 C489 1.348 . S
C486 H524 0.929 . S
N487 Li442 1.990 . S
N487 C484 1.314 . S
N487 C485 1.279 . S
C488 C485 1.358 . S
C488 C489 1.356 . S
C488 H525 0.930 . S
C489 C486 1.348 . S
C489 C488 1.356 . S
H490 C484 0.930 . S
H491 C485 0.930 . S
C492 N493 1.314 . S
C492 C494 1.353 . S
C492 H498 0.930 . S
N493 Li443 1.990 . S
N493 C492 1.314 . S
N493 C496 1.279 . S
C494 C492 1.353 . S
C494 C497 1.348 . S
C494 H526 0.929 . S
C495 C496 1.358 . S
C495 C497 1.356 . S
C495 H527 0.930 . S
C496 N493 1.279 . S
C496 C495 1.358 . S
C496 H499 0.930 . S
C497 C494 1.348 . S
C497 C495 1.356 . S
H498 C492 0.930 . S
H499 C496 0.930 . S
O500 Li440 1.956 . S
O500 Li441 1.970 1_655 S
O500 Li442 1.961 . S
O500 C444 1.307 1_556 S
O501 Li440 1.970 1_455 S
O501 Li441 1.956 . S
O501 Li443 1.961 . S
O501 C450 1.325 . S
O502 Li440 1.961 . S
O502 Li442 1.956 . S
O502 Li443 1.970 1_655 S
O502 C472 1.325 . S
O503 Li441 1.961 . S
O503 Li442 1.970 1_455 S
O503 Li443 1.956 . S
O503 C478 1.325 . S
H504 C446 0.929 . S
H505 C447 0.930 . S
H506 C448 0.930 . S
H507 C449 0.930 1_556 S
H508 C451 0.930 . S
H509 C453 0.929 . S
H510 C454 0.930 . S
H511 C455 0.930 . S
H512 C458 0.930 . S
H513 C461 0.929 . S
H514 C466 0.929 . S
H515 C467 0.930 . S
H516 C474 0.929 1_455 S
H517 C475 0.930 . S
H518 C476 0.930 . S
H519 C477 0.930 . S
H520 C479 0.929 . S
H521 C480 0.930 1_554 S
H522 C481 0.930 . S
H523 C482 0.930 . S
H524 C486 0.929 . S
H525 C488 0.930 . S
H526 C494 0.929 . S
H527 C495 0.930 . S
Li528 N545 1.990 . S
Li528 O588 1.956 . S
Li528 O589 1.970 1_455 S
Li528 O590 1.961 . S
Li529 N553 1.990 . S
Li529 O588 1.970 1_655 S
Li529 O589 1.956 . S
Li529 O591 1.961 . S
Li530 N575 1.990 . S
Li530 O588 1.961 . S
Li530 O590 1.956 . S
Li530 O591 1.970 1_455 S
Li531 N581 1.990 . S
Li531 O589 1.961 . S
Li531 O590 1.970 1_655 S
Li531 O591 1.956 . S
C532 C534 1.348 . S
C532 C535 1.356 . S
C532 O588 1.325 . S
N533 C536 1.314 . S
N533 C537 1.279 . S
C534 C532 1.348 . S
C534 C536 1.353 . S
C534 H592 0.929 1_455 S
C535 C532 1.356 . S
C535 C537 1.358 . S
C535 H593 0.930 . S
C536 N533 1.314 . S
C536 C534 1.353 . S
C536 H594 0.930 . S
C537 N533 1.279 . S
C537 C535 1.358 . S
C537 H595 0.930 . S
C538 C541 1.348 1_655 S
C538 C542 1.356 . S
C538 O589 1.325 . S
C539 N540 1.279 . S
C539 C542 1.358 . S
C539 H596 0.930 . S
N540 C539 1.279 . S
N540 C543 1.314 1_655 S
C541 C538 1.348 1_455 S
C541 C543 1.353 . S
C541 H597 0.929 . S
C542 C538 1.356 . S
C542 C539 1.358 . S
C542 H598 0.930 . S
C543 N540 1.314 1_455 S
C543 C541 1.353 . S
C543 H599 0.930 . S
C544 N545 1.314 . S
C544 C549 1.353 . S
C544 H550 0.930 . S
N545 Li528 1.990 . S
N545 C544 1.314 . S
N545 C547 1.279 . S
C546 C547 1.358 . S
C546 C548 1.356 . S
C546 H600 0.930 . S
C547 N545 1.279 . S
C547 C546 1.358 . S
C547 H551 0.930 . S
C548 C546 1.356 . S
C548 C549 1.348 . S
C549 C544 1.353 . S
C549 C548 1.348 . S
C549 H601 0.929 . S
H550 C544 0.930 . S
H551 C547 0.930 . S
C552 N553 1.314 . S
C552 C554 1.353 . S
C552 H558 0.930 . S
N553 Li529 1.990 . S
N553 C552 1.314 . S
N553 C556 1.279 . S
C554 C552 1.353 . S
C554 C557 1.348 . S
C554 H602 0.929 . S
C555 C556 1.358 . S
C555 C557 1.356 . S
C555 H603 0.930 . S
C556 N553 1.279 . S
C556 C555 1.358 . S
C556 H559 0.930 . S
C557 C554 1.348 . S
C557 C555 1.356 . S
H558 C552 0.930 . S
H559 C556 0.930 . S
C560 C562 1.348 . S
C560 C563 1.356 . S
C560 O590 1.325 . S
N561 C564 1.314 . S
N561 C565 1.279 . S
C562 C560 1.348 . S
C562 C564 1.353 . S
C562 H604 0.929 . S
C563 C560 1.356 . S
C563 C565 1.358 . S
C563 H605 0.930 . S
C564 N561 1.314 . S
C564 C562 1.353 . S
C564 H606 0.930 . S
C565 N561 1.279 . S
C565 C563 1.358 . S
C565 H607 0.930 . S
C566 C567 1.348 . S
C566 C568 1.356 . S
C566 O591 1.325 . S
C567 C566 1.348 . S
C567 C569 1.353 . S
C567 H608 0.929 . S
C568 C566 1.356 . S
C568 C570 1.358 . S
C568 H609 0.930 . S
C569 C567 1.353 . S
C569 N571 1.314 . S
C569 H610 0.930 . S
C570 C568 1.358 . S
C570 N571 1.279 . S
C570 H611 0.930 . S
N571 C569 1.314 . S
N571 C570 1.279 . S
C572 C574 1.353 . S
C572 N575 1.314 1_655 S
C572 H578 0.930 . S
C573 N575 1.279 . S
C573 C576 1.358 . S
C573 H579 0.930 . S
C574 C572 1.353 . S
C574 C577 1.348 1_655 S
C574 H612 0.929 . S
N575 Li530 1.990 . S
N575 C572 1.314 1_455 S
N575 C573 1.279 . S
C576 C573 1.358 . S
C576 C577 1.356 . S
C576 H613 0.930 . S
C577 C574 1.348 1_455 S
C577 C576 1.356 . S
H578 C572 0.930 . S
H579 C573 0.930 . S
C580 N581 1.314 . S
C580 C582 1.353 . S
C580 H586 0.930 1_655 S
N581 Li531 1.990 . S
N581 C580 1.314 . S
N581 C584 1.279 . S
C582 C580 1.353 . S
C582 C585 1.348 . S
C582 H614 0.929 . S
C583 C584 1.358 . S
C583 C585 1.356 . S
C583 H615 0.930 . S
C584 N581 1.279 . S
C584 C583 1.358 . S
C584 H587 0.930 . S
C585 C582 1.348 . S
C585 C583 1.356 . S
H586 C580 0.930 1_455 S
H587 C584 0.930 . S
O588 Li528 1.956 . S
O588 Li529 1.970 1_455 S
O588 Li530 1.961 . S
O588 C532 1.325 . S
O589 Li528 1.970 1_655 S
O589 Li529 1.956 . S
O589 Li531 1.961 . S
O589 C538 1.325 . S
O590 Li528 1.961 . S
O590 Li530 1.956 . S
O590 Li531 1.970 1_455 S
O590 C560 1.325 . S
O591 Li529 1.961 . S
O591 Li530 1.970 1_655 S
O591 Li531 1.956 . S
O591 C566 1.325 . S
H592 C534 0.929 1_655 S
H593 C535 0.930 . S
H594 C536 0.930 . S
H595 C537 0.930 . S
H596 C539 0.930 . S
H597 C541 0.929 . S
H598 C542 0.930 . S
H599 C543 0.930 . S
H600 C546 0.930 . S
H601 C549 0.929 . S
H602 C554 0.929 . S
H603 C555 0.930 . S
H604 C562 0.929 . S
H605 C563 0.930 . S
H606 C564 0.930 . S
H607 C565 0.930 . S
H608 C567 0.929 . S
H609 C568 0.930 . S
H610 C569 0.930 . S
H611 C570 0.930 . S
H612 C574 0.929 . S
H613 C576 0.930 . S
H614 C582 0.929 . S
H615 C583 0.930 . S
Li616 N633 1.990 . S
Li616 O676 1.956 . S
Li616 O677 1.970 1_545 S
Li616 O678 1.961 . S
Li617 N641 1.990 . S
Li617 O676 1.970 1_565 S
Li617 O677 1.956 . S
Li617 O679 1.961 . S
Li618 N663 1.990 . S
Li618 O676 1.961 . S
Li618 O678 1.956 . S
Li618 O679 1.970 1_545 S
Li619 N669 1.990 . S
Li619 O677 1.961 . S
Li619 O678 1.970 1_565 S
Li619 O679 1.956 . S
C620 C622 1.348 . S
C620 C623 1.356 . S
C620 O676 1.325 . S
N621 C624 1.314 . S
N621 C625 1.279 . S
C622 C620 1.348 . S
C622 C624 1.353 . S
C622 H680 0.929 1_545 S
C623 C620 1.356 . S
C623 C625 1.358 . S
C623 H681 0.930 . S
C624 N621 1.314 . S
C624 C622 1.353 . S
C624 H682 0.930 . S
C625 N621 1.279 . S
C625 C623 1.358 . S
C625 H683 0.930 . S
C626 C629 1.348 1_565 S
C626 C630 1.356 . S
C626 O677 1.325 . S
C627 N628 1.279 . S
C627 C630 1.358 . S
C627 H684 0.930 . S
N628 C627 1.279 . S
N628 C631 1.314 1_565 S
C629 C626 1.348 1_545 S
C629 C631 1.353 . S
C629 H685 0.929 . S
C630 C626 1.356 . S
C630 C627 1.358 . S
C630 H686 0.930 . S
C631 N628 1.314 1_545 S
C631 C629 1.353 . S
C631 H687 0.930 . S
C632 N633 1.314 . S
C632 C637 1.353 . S
C632 H638 0.930 . S
N633 Li616 1.990 . S
N633 C632 1.314 . S
N633 C635 1.279 . S
C634 C635 1.358 . S
C634 C636 1.356 . S
C634 H688 0.930 . S
C635 N633 1.279 . S
C635 C634 1.358 . S
C635 H639 0.930 . S
C636 C634 1.356 . S
C636 C637 1.348 . S
C637 C632 1.353 . S
C637 C636 1.348 . S
C637 H689 0.929 . S
H638 C632 0.930 . S
H639 C635 0.930 . S
C640 N641 1.314 . S
C640 C642 1.353 . S
C640 H646 0.930 . S
N641 Li617 1.990 . S
N641 C640 1.314 . S
N641 C644 1.279 . S
C642 C640 1.353 . S
C642 C645 1.348 . S
C642 H690 0.929 . S
C643 C644 1.358 . S
C643 C645 1.356 . S
C643 H691 0.930 . S
C644 N641 1.279 . S
C644 C643 1.358 . S
C644 H647 0.930 . S
C645 C642 1.348 . S
C645 C643 1.356 . S
H646 C640 0.930 . S
H647 C644 0.930 . S
C648 C650 1.348 . S
C648 C651 1.356 . S
C648 O678 1.325 . S
N649 C652 1.314 . S
N649 C653 1.279 . S
C650 C648 1.348 . S
C650 C652 1.353 . S
C650 H692 0.929 . S
C651 C648 1.356 . S
C651 C653 1.358 . S
C651 H693 0.930 . S
C652 N649 1.314 . S
C652 C650 1.353 . S
C652 H694 0.930 . S
C653 N649 1.279 . S
C653 C651 1.358 . S
C653 H695 0.930 . S
C654 C655 1.348 . S
C654 C656 1.356 . S
C654 O679 1.325 . S
C655 C654 1.348 . S
C655 C657 1.353 . S
C655 H696 0.929 . S
C656 C654 1.356 . S
C656 C658 1.358 . S
C656 H697 0.930 . S
C657 C655 1.353 . S
C657 N659 1.314 . S
C657 H698 0.930 . S
C658 C656 1.358 . S
C658 N659 1.279 . S
C658 H699 0.930 . S
N659 C657 1.314 . S
N659 C658 1.279 . S
C660 C662 1.353 . S
C660 N663 1.314 1_565 S
C660 H666 0.930 . S
C661 N663 1.279 . S
C661 C664 1.358 . S
C661 H667 0.930 . S
C662 C660 1.353 . S
C662 C665 1.348 1_565 S
C662 H700 0.929 . S
N663 Li618 1.990 . S
N663 C660 1.314 1_545 S
N663 C661 1.279 . S
C664 C661 1.358 . S
C664 C665 1.356 . S
C664 H701 0.930 . S
C665 C662 1.348 1_545 S
C665 C664 1.356 . S
H666 C660 0.930 . S
H667 C661 0.930 . S
C668 N669 1.314 . S
C668 C670 1.353 . S
C668 H674 0.930 1_565 S
N669 Li619 1.990 . S
N669 C668 1.314 . S
N669 C672 1.279 . S
C670 C668 1.353 . S
C670 C673 1.348 . S
C670 H702 0.929 . S
C671 C672 1.358 . S
C671 C673 1.356 . S
C671 H703 0.930 . S
C672 N669 1.279 . S
C672 C671 1.358 . S
C672 H675 0.930 . S
C673 C670 1.348 . S
C673 C671 1.356 . S
H674 C668 0.930 1_545 S
H675 C672 0.930 . S
O676 Li616 1.956 . S
O676 Li617 1.970 1_545 S
O676 Li618 1.961 . S
O676 C620 1.325 . S
O677 Li616 1.970 1_565 S
O677 Li617 1.956 . S
O677 Li619 1.961 . S
O677 C626 1.325 . S
O678 Li616 1.961 . S
O678 Li618 1.956 . S
O678 Li619 1.970 1_545 S
O678 C648 1.325 . S
O679 Li617 1.961 . S
O679 Li618 1.970 1_565 S
O679 Li619 1.956 . S
O679 C654 1.325 . S
H680 C622 0.929 1_565 S
H681 C623 0.930 . S
H682 C624 0.930 . S
H683 C625 0.930 . S
H684 C627 0.930 . S
H685 C629 0.929 . S
H686 C630 0.930 . S
H687 C631 0.930 . S
H688 C634 0.930 . S
H689 C637 0.929 . S
H690 C642 0.929 . S
H691 C643 0.930 . S
H692 C650 0.929 . S
H693 C651 0.930 . S
H694 C652 0.930 . S
H695 C653 0.930 . S
H696 C655 0.929 . S
H697 C656 0.930 . S
H698 C657 0.930 . S
H699 C658 0.930 . S
H700 C662 0.929 . S
H701 C664 0.930 . S
H702 C670 0.929 . S
H703 C671 0.930 . S
Li704 N721 1.990 . S
Li704 O764 1.956 . S
Li704 O765 1.970 . S
Li704 O766 1.961 . S
Li705 N729 1.990 . S
Li705 O764 1.970 . S
Li705 O765 1.956 . S
Li705 O767 1.961 . S
Li706 N751 1.990 . S
Li706 O764 1.961 . S
Li706 O766 1.956 . S
Li706 O767 1.970 . S
Li707 N757 1.990 1_554 S
Li707 O765 1.961 . S
Li707 O766 1.970 . S
Li707 O767 1.956 . S
C708 C710 1.348 . S
C708 C711 1.356 . S
C708 O764 1.325 . S
N709 C712 1.314 . S
N709 C713 1.279 . S
C710 C708 1.348 . S
C710 C712 1.353 . S
C710 H768 0.929 . S
C711 C708 1.356 . S
C711 C713 1.358 . S
C711 H769 0.930 . S
C712 N709 1.314 . S
C712 C710 1.353 . S
C712 H770 0.930 . S
C713 N709 1.279 . S
C713 C711 1.358 . S
C713 H771 0.930 . S
C714 C717 1.348 . S
C714 C718 1.356 . S
C714 O765 1.325 . S
C715 N716 1.279 1_556 S
C715 C718 1.358 1_556 S
C715 H772 0.930 . S
N716 C715 1.279 1_554 S
N716 C719 1.314 . S
C717 C714 1.348 . S
C717 C719 1.353 . S
C717 H773 0.929 . S
C718 C714 1.356 . S
C718 C715 1.358 1_554 S
C718 H774 0.930 1_554 S
C719 N716 1.314 . S
C719 C717 1.353 . S
C719 H775 0.930 . S
C720 N721 1.314 . S
C720 C725 1.353 . S
C720 H726 0.930 . S
N721 Li704 1.990 . S
N721 C720 1.314 . S
N721 C723 1.279 . S
C722 C723 1.358 . S
C722 C724 1.356 . S
C722 H776 0.930 . S
C723 N721 1.279 . S
C723 C722 1.358 . S
C723 H727 0.930 . S
C724 C722 1.356 . S
C724 C725 1.348 . S
C725 C720 1.353 . S
C725 C724 1.348 . S
C725 H777 0.929 . S
H726 C720 0.930 . S
H727 C723 0.930 . S
C728 N729 1.314 . S
C728 C730 1.353 . S
C728 H734 0.930 . S
N729 Li705 1.990 . S
N729 C728 1.314 . S
N729 C732 1.279 . S
C730 C728 1.353 . S
C730 C733 1.348 . S
C730 H778 0.929 . S
C731 C732 1.358 . S
C731 C733 1.356 . S
C731 H779 0.930 . S
C732 N729 1.279 . S
C732 C731 1.358 . S
C732 H735 0.930 . S
C733 C730 1.348 . S
C733 C731 1.356 . S
H734 C728 0.930 . S
H735 C732 0.930 . S
C736 C738 1.350 . S
C736 C739 1.355 1_556 S
C736 O766 1.323 1_556 S
N737 C740 1.314 . S
N737 C741 1.279 . S
C738 C736 1.350 . S
C738 C740 1.353 . S
C738 H780 0.929 . S
C739 C736 1.355 1_554 S
C739 C741 1.358 1_554 S
C739 H781 0.930 . S
C740 N737 1.314 . S
C740 C738 1.353 . S
C740 H782 0.930 . S
C741 N737 1.279 . S
C741 C739 1.358 1_556 S
C741 H783 0.930 1_556 S
C742 C743 1.348 . S
C742 C744 1.356 . S
C742 O767 1.325 . S
C743 C742 1.348 . S
C743 C745 1.353 . S
C743 H784 0.929 . S
C744 C742 1.356 . S
C744 C746 1.358 . S
C744 H785 0.930 . S
C745 C743 1.353 . S
C745 N747 1.314 . S
C745 H786 0.930 . S
C746 C744 1.358 . S
C746 N747 1.279 . S
C746 H787 0.930 . S
N747 C745 1.314 . S
N747 C746 1.279 . S
C748 C750 1.353 . S
C748 N751 1.314 . S
C748 H754 0.930 . S
C749 N751 1.279 . S
C749 C752 1.358 . S
C749 H755 0.930 . S
C750 C748 1.353 . S
C750 C753 1.348 . S
C750 H788 0.929 . S
N751 Li706 1.990 . S
N751 C748 1.314 . S
N751 C749 1.279 . S
C752 C749 1.358 . S
C752 C753 1.356 . S
C752 H789 0.930 . S
C753 C750 1.348 . S
C753 C752 1.356 . S
H754 C748 0.930 . S
H755 C749 0.930 . S
C756 N757 1.314 . S
C756 C758 1.353 . S
C756 H762 0.930 . S
N757 Li707 1.990 1_556 S
N757 C756 1.314 . S
N757 C760 1.279 . S
C758 C756 1.353 . S
C758 C761 1.348 . S
C758 H790 0.929 . S
C759 C760 1.358 . S
C759 C761 1.356 . S
C759 H791 0.930 . S
C760 N757 1.279 . S
C760 C759 1.358 . S
C760 H763 0.930 . S
C761 C758 1.348 . S
C761 C759 1.356 . S
H762 C756 0.930 . S
H763 C760 0.930 . S
O764 Li704 1.956 . S
O764 Li705 1.970 . S
O764 Li706 1.961 . S
O764 C708 1.325 . S
O765 Li704 1.970 . S
O765 Li705 1.956 . S
O765 Li707 1.961 . S
O765 C714 1.325 . S
O766 Li704 1.961 . S
O766 Li706 1.956 . S
O766 Li707 1.970 . S
O766 C736 1.323 1_554 S
O767 Li705 1.961 . S
O767 Li706 1.970 . S
O767 Li707 1.956 . S
O767 C742 1.325 . S
H768 C710 0.929 . S
H769 C711 0.930 . S
H770 C712 0.930 . S
H771 C713 0.930 . S
H772 C715 0.930 . S
H773 C717 0.929 . S
H774 C718 0.930 1_556 S
H775 C719 0.930 . S
H776 C722 0.930 . S
H777 C725 0.929 . S
H778 C730 0.929 . S
H779 C731 0.930 . S
H780 C738 0.929 . S
H781 C739 0.930 . S
H782 C740 0.930 . S
H783 C741 0.930 1_554 S
H784 C743 0.929 . S
H785 C744 0.930 . S
H786 C745 0.930 . S
H787 C746 0.930 . S
H788 C750 0.929 . S
H789 C752 0.930 . S
H790 C758 0.929 . S
H791 C759 0.930 . S
Li792 N809 1.990 . S
Li792 O852 1.956 . S
Li792 O853 1.970 1_455 S
Li792 O854 1.961 . S
Li793 N817 1.990 . S
Li793 O852 1.970 1_655 S
Li793 O853 1.956 . S
Li793 O855 1.961 . S
Li794 N839 1.990 . S
Li794 O852 1.961 . S
Li794 O854 1.956 . S
Li794 O855 1.970 1_455 S
Li795 N845 1.990 . S
Li795 O853 1.961 . S
Li795 O854 1.970 1_655 S
Li795 O855 1.956 . S
C796 C798 1.348 1_455 S
C796 C799 1.356 . S
C796 O852 1.325 . S
N797 C800 1.314 1_455 S
N797 C801 1.279 . S
C798 C796 1.348 1_655 S
C798 C800 1.353 . S
C798 H856 0.929 . S
C799 C796 1.356 . S
C799 C801 1.358 . S
C799 H857 0.930 . S
C800 N797 1.314 1_655 S
C800 C798 1.353 . S
C800 H858 0.930 . S
C801 N797 1.279 . S
C801 C799 1.358 . S
C801 H859 0.930 . S
C802 C805 1.348 . S
C802 C806 1.356 . S
C802 O853 1.325 . S
C803 N804 1.279 . S
C803 C806 1.358 . S
C803 H860 0.930 . S
N804 C803 1.279 . S
N804 C807 1.314 . S
C805 C802 1.348 . S
C805 C807 1.353 . S
C805 H861 0.929 1_655 S
C806 C802 1.356 . S
C806 C803 1.358 . S
C806 H862 0.930 . S
C807 N804 1.314 . S
C807 C805 1.353 . S
C807 H863 0.930 . S
C808 N809 1.314 . S
C808 C813 1.353 . S
C808 H814 0.930 . S
N809 Li792 1.990 . S
N809 C808 1.314 . S
N809 C811 1.279 . S
C810 C811 1.358 . S
C810 C812 1.356 . S
C810 H864 0.930 . S
C811 N809 1.279 . S
C811 C810 1.358 . S
C811 H815 0.930 . S
C812 C810 1.356 . S
C812 C813 1.348 . S
C813 C808 1.353 . S
C813 C812 1.348 . S
C813 H865 0.929 . S
H814 C808 0.930 . S
H815 C811 0.930 . S
C816 N817 1.314 . S
C816 C818 1.353 . S
C816 H822 0.930 . S
N817 Li793 1.990 . S
N817 C816 1.314 . S
N817 C820 1.279 . S
C818 C816 1.353 . S
C818 C821 1.348 . S
C818 H866 0.929 . S
C819 C820 1.358 . S
C819 C821 1.356 . S
C819 H867 0.930 . S
C820 N817 1.279 . S
C820 C819 1.358 . S
C820 H823 0.930 . S
C821 C818 1.348 . S
C821 C819 1.356 . S
H822 C816 0.930 . S
H823 C820 0.930 . S
C824 C826 1.348 . S
C824 C827 1.356 . S
C824 O854 1.325 . S
N825 C828 1.314 . S
N825 C829 1.279 . S
C826 C824 1.348 . S
C826 C828 1.353 . S
C826 H868 0.929 . S
C827 C824 1.356 . S
C827 C829 1.358 . S
C827 H869 0.930 . S
C828 N825 1.314 . S
C828 C826 1.353 . S
C828 H870 0.930 . S
C829 N825 1.279 . S
C829 C827 1.358 . S
C829 H871 0.930 . S
C830 C831 1.348 . S
C830 C832 1.356 . S
C830 O855 1.325 . S
C831 C830 1.348 . S
C831 C833 1.353 . S
C831 H872 0.929 . S
C832 C830 1.356 . S
C832 C834 1.358 . S
C832 H873 0.930 . S
C833 C831 1.353 . S
C833 N835 1.314 . S
C833 H874 0.930 . S
C834 C832 1.358 . S
C834 N835 1.279 . S
C834 H875 0.930 . S
N835 C833 1.314 . S
N835 C834 1.279 . S
C836 C838 1.353 . S
C836 N839 1.314 . S
C836 H842 0.930 1_455 S
C837 N839 1.279 . S
C837 C840 1.358 . S
C837 H843 0.930 . S
C838 C836 1.353 . S
C838 C841 1.348 . S
C838 H876 0.929 . S
N839 Li794 1.990 . S
N839 C836 1.314 . S
N839 C837 1.279 . S
C840 C837 1.358 . S
C840 C841 1.356 . S
C840 H877 0.930 . S
C841 C838 1.348 . S
C841 C840 1.356 . S
H842 C836 0.930 1_655 S
H843 C837 0.930 . S
C844 N845 1.314 1_455 S
C844 C846 1.353 . S
C844 H850 0.930 . S
N845 Li795 1.990 . S
N845 C844 1.314 1_655 S
N845 C848 1.279 . S
C846 C844 1.353 . S
C846 C849 1.348 1_455 S
C846 H878 0.929 . S
C847 C848 1.358 . S
C847 C849 1.356 . S
C847 H879 0.930 . S
C848 N845 1.279 . S
C848 C847 1.358 . S
C848 H851 0.930 . S
C849 C846 1.348 1_655 S
C849 C847 1.356 . S
H850 C844 0.930 . S
H851 C848 0.930 . S
O852 Li792 1.956 . S
O852 Li793 1.970 1_455 S
O852 Li794 1.961 . S
O852 C796 1.325 . S
O853 Li792 1.970 1_655 S
O853 Li793 1.956 . S
O853 Li795 1.961 . S
O853 C802 1.325 . S
O854 Li792 1.961 . S
O854 Li794 1.956 . S
O854 Li795 1.970 1_455 S
O854 C824 1.325 . S
O855 Li793 1.961 . S
O855 Li794 1.970 1_655 S
O855 Li795 1.956 . S
O855 C830 1.325 . S
H856 C798 0.929 . S
H857 C799 0.930 . S
H858 C800 0.930 . S
H859 C801 0.930 . S
H860 C803 0.930 . S
H861 C805 0.929 1_455 S
H862 C806 0.930 . S
H863 C807 0.930 . S
H864 C810 0.930 . S
H865 C813 0.929 . S
H866 C818 0.929 . S
H867 C819 0.930 . S
H868 C826 0.929 . S
H869 C827 0.930 . S
H870 C828 0.930 . S
H871 C829 0.930 . S
H872 C831 0.929 . S
H873 C832 0.930 . S
H874 C833 0.930 . S
H875 C834 0.930 . S
H876 C838 0.929 . S
H877 C840 0.930 . S
H878 C846 0.929 . S
H879 C847 0.930 . S
Li880 N897 1.990 . S
Li880 O940 1.956 . S
Li880 O941 1.970 1_545 S
Li880 O942 1.961 . S
Li881 N905 1.990 . S
Li881 O940 1.970 1_565 S
Li881 O941 1.956 . S
Li881 O943 1.961 . S
Li882 N927 1.990 . S
Li882 O940 1.961 . S
Li882 O942 1.956 . S
Li882 O943 1.970 1_545 S
Li883 N933 1.990 . S
Li883 O941 1.961 . S
Li883 O942 1.970 1_565 S
Li883 O943 1.956 . S
C884 C886 1.348 1_545 S
C884 C887 1.356 . S
C884 O940 1.325 . S
N885 C888 1.314 1_545 S
N885 C889 1.279 . S
C886 C884 1.348 1_565 S
C886 C888 1.353 . S
C886 H944 0.929 . S
C887 C884 1.356 . S
C887 C889 1.358 . S
C887 H945 0.930 . S
C888 N885 1.314 1_565 S
C888 C886 1.353 . S
C888 H946 0.930 . S
C889 N885 1.279 . S
C889 C887 1.358 . S
C889 H947 0.930 . S
C890 C893 1.348 . S
C890 C894 1.356 . S
C890 O941 1.325 . S
C891 N892 1.279 . S
C891 C894 1.358 . S
C891 H948 0.930 . S
N892 C891 1.279 . S
N892 C895 1.314 . S
C893 C890 1.348 . S
C893 C895 1.353 . S
C893 H949 0.929 1_565 S
C894 C890 1.356 . S
C894 C891 1.358 . S
C894 H950 0.930 . S
C895 N892 1.314 . S
C895 C893 1.353 . S
C895 H951 0.930 . S
C896 N897 1.314 . S
C896 C901 1.353 . S
C896 H902 0.930 . S
N897 Li880 1.990 . S
N897 C896 1.314 . S
N897 C899 1.279 . S
C898 C899 1.358 . S
C898 C900 1.356 . S
C898 H952 0.930 . S
C899 N897 1.279 . S
C899 C898 1.358 . S
C899 H903 0.930 . S
C900 C898 1.356 . S
C900 C901 1.348 . S
C901 C896 1.353 . S
C901 C900 1.348 . S
C901 H953 0.929 . S
H902 C896 0.930 . S
H903 C899 0.930 . S
C904 N905 1.314 . S
C904 C906 1.353 . S
C904 H910 0.930 . S
N905 Li881 1.990 . S
N905 C904 1.314 . S
N905 C908 1.279 . S
C906 C904 1.353 . S
C906 C909 1.348 . S
C906 H954 0.929 . S
C907 C908 1.358 . S
C907 C909 1.356 . S
C907 H955 0.930 . S
C908 N905 1.279 . S
C908 C907 1.358 . S
C908 H911 0.930 . S
C909 C906 1.348 . S
C909 C907 1.356 . S
H910 C904 0.930 . S
H911 C908 0.930 . S
C912 C914 1.348 . S
C912 C915 1.356 . S
C912 O942 1.325 . S
N913 C916 1.314 . S
N913 C917 1.279 . S
C914 C912 1.348 . S
C914 C916 1.353 . S
C914 H956 0.929 . S
C915 C912 1.356 . S
C915 C917 1.358 . S
C915 H957 0.930 . S
C916 N913 1.314 . S
C916 C914 1.353 . S
C916 H958 0.930 . S
C917 N913 1.279 . S
C917 C915 1.358 . S
C917 H959 0.930 . S
C918 C919 1.348 . S
C918 C920 1.356 . S
C918 O943 1.325 . S
C919 C918 1.348 . S
C919 C921 1.353 . S
C919 H960 0.929 . S
C920 C918 1.356 . S
C920 C922 1.358 . S
C920 H961 0.930 . S
C921 C919 1.353 . S
C921 N923 1.314 . S
C921 H962 0.930 . S
C922 C920 1.358 . S
C922 N923 1.279 . S
C922 H963 0.930 . S
N923 C921 1.314 . S
N923 C922 1.279 . S
C924 C926 1.353 . S
C924 N927 1.314 . S
C924 H930 0.930 1_545 S
C925 N927 1.279 . S
C925 C928 1.358 . S
C925 H931 0.930 . S
C926 C924 1.353 . S
C926 C929 1.348 . S
C926 H964 0.929 . S
N927 Li882 1.990 . S
N927 C924 1.314 . S
N927 C925 1.279 . S
C928 C925 1.358 . S
C928 C929 1.356 . S
C928 H965 0.930 . S
C929 C926 1.348 . S
C929 C928 1.356 . S
H930 C924 0.930 1_565 S
H931 C925 0.930 . S
C932 N933 1.314 1_545 S
C932 C934 1.353 . S
C932 H938 0.930 . S
N933 Li883 1.990 . S
N933 C932 1.314 1_565 S
N933 C936 1.279 . S
C934 C932 1.353 . S
C934 C937 1.348 1_545 S
C934 H966 0.929 . S
C935 C936 1.358 . S
C935 C937 1.356 . S
C935 H967 0.930 . S
C936 N933 1.279 . S
C936 C935 1.358 . S
C936 H939 0.930 . S
C937 C934 1.348 1_565 S
C937 C935 1.356 . S
H938 C932 0.930 . S
H939 C936 0.930 . S
O940 Li880 1.956 . S
O940 Li881 1.970 1_545 S
O940 Li882 1.961 . S
O940 C884 1.325 . S
O941 Li880 1.970 1_565 S
O941 Li881 1.956 . S
O941 Li883 1.961 . S
O941 C890 1.325 . S
O942 Li880 1.961 . S
O942 Li882 1.956 . S
O942 Li883 1.970 1_545 S
O942 C912 1.325 . S
O943 Li881 1.961 . S
O943 Li882 1.970 1_565 S
O943 Li883 1.956 . S
O943 C918 1.325 . S
H944 C886 0.929 . S
H945 C887 0.930 . S
H946 C888 0.930 . S
H947 C889 0.930 . S
H948 C891 0.930 . S
H949 C893 0.929 1_545 S
H950 C894 0.930 . S
H951 C895 0.930 . S
H952 C898 0.930 . S
H953 C901 0.929 . S
H954 C906 0.929 . S
H955 C907 0.930 . S
H956 C914 0.929 . S
H957 C915 0.930 . S
H958 C916 0.930 . S
H959 C917 0.930 . S
H960 C919 0.929 . S
H961 C920 0.930 . S
H962 C921 0.930 . S
H963 C922 0.930 . S
H964 C926 0.929 . S
H965 C928 0.930 . S
H966 C934 0.929 . S
H967 C935 0.930 . S
Li968 N985 1.990 . S
Li968 O1028 1.956 . S
Li968 O1029 1.970 . S
Li968 O1030 1.961 . S
Li969 N993 1.990 . S
Li969 O1028 1.970 . S
Li969 O1029 1.956 . S
Li969 O1031 1.961 . S
Li970 N1015 1.990 1_554 S
Li970 O1028 1.961 . S
Li970 O1030 1.956 . S
Li970 O1031 1.970 . S
Li971 N1021 1.990 . S
Li971 O1029 1.961 . S
Li971 O1030 1.970 . S
Li971 O1031 1.956 . S
C972 C974 1.348 . S
C972 C975 1.356 . S
C972 O1028 1.325 . S
N973 C976 1.314 . S
N973 C977 1.279 1_554 S
C974 C972 1.348 . S
C974 C976 1.353 . S
C974 H1032 0.929 . S
C975 C972 1.356 . S
C975 C977 1.358 1_554 S
C975 H1033 0.930 1_554 S
C976 N973 1.314 . S
C976 C974 1.353 . S
C976 H1034 0.930 . S
C977 N973 1.279 1_556 S
C977 C975 1.358 1_556 S
C977 H1035 0.930 . S
C978 C981 1.348 . S
C978 C982 1.356 . S
C978 O1029 1.325 . S
C979 N980 1.279 . S
C979 C982 1.358 . S
C979 H1036 0.930 . S
N980 C979 1.279 . S
N980 C983 1.314 . S
C981 C978 1.348 . S
C981 C983 1.353 . S
C981 H1037 0.929 . S
C982 C978 1.356 . S
C982 C979 1.358 . S
C982 H1038 0.930 . S
C983 N980 1.314 . S
C983 C981 1.353 . S
C983 H1039 0.930 . S
C984 N985 1.314 . S
C984 C989 1.353 . S
C984 H990 0.930 . S
N985 Li968 1.990 . S
N985 C984 1.314 . S
N985 C987 1.279 . S
C986 C987 1.358 . S
C986 C988 1.356 . S
C986 H1040 0.930 . S
C987 N985 1.279 . S
C987 C986 1.358 . S
C987 H991 0.930 . S
C988 C986 1.356 . S
C988 C989 1.348 . S
C989 C984 1.353 . S
C989 C988 1.348 . S
C989 H1041 0.929 . S
H990 C984 0.930 . S
H991 C987 0.930 . S
C992 N993 1.314 . S
C992 C994 1.353 . S
C992 H998 0.930 . S
N993 Li969 1.990 . S
N993 C992 1.314 . S
N993 C996 1.279 . S
C994 C992 1.353 . S
C994 C997 1.348 . S
C994 H1042 0.929 . S
C995 C996 1.358 . S
C995 C997 1.356 . S
C995 H1043 0.930 . S
C996 N993 1.279 . S
C996 C995 1.358 . S
C996 H999 0.930 . S
C997 C994 1.348 . S
C997 C995 1.356 . S
H998 C992 0.930 . S
H999 C996 0.930 . S
C1000 C1002 1.348 . S
C1000 C1003 1.356 . S
C1000 O1030 1.325 . S
N1001 C1004 1.314 . S
N1001 C1005 1.279 . S
C1002 C1000 1.348 . S
C1002 C1004 1.353 . S
C1002 H1044 0.929 . S
C1003 C1000 1.356 . S
C1003 C1005 1.358 . S
C1003 H1045 0.930 . S
C1004 N1001 1.314 . S
C1004 C1002 1.353 . S
C1004 H1046 0.930 . S
C1005 N1001 1.279 . S
C1005 C1003 1.358 . S
C1005 H1047 0.930 . S
C1006 C1007 1.350 . S
C1006 C1008 1.355 1_556 S
C1006 O1031 1.323 1_556 S
C1007 C1006 1.350 . S
C1007 C1009 1.353 . S
C1007 H1048 0.929 . S
C1008 C1006 1.355 1_554 S
C1008 C1010 1.358 1_554 S
C1008 H1049 0.930 . S
C1009 C1007 1.353 . S
C1009 N1011 1.314 . S
C1009 H1050 0.930 . S
C1010 C1008 1.358 1_556 S
C1010 N1011 1.279 . S
C1010 H1051 0.930 1_556 S
N1011 C1009 1.314 . S
N1011 C1010 1.279 . S
C1012 C1014 1.353 . S
C1012 N1015 1.314 . S
C1012 H1018 0.930 . S
C1013 N1015 1.279 . S
C1013 C1016 1.358 . S
C1013 H1019 0.930 . S
C1014 C1012 1.353 . S
C1014 C1017 1.348 . S
C1014 H1052 0.929 . S
N1015 Li970 1.990 1_556 S
N1015 C1012 1.314 . S
N1015 C1013 1.279 . S
C1016 C1013 1.358 . S
C1016 C1017 1.356 . S
C1016 H1053 0.930 . S
C1017 C1014 1.348 . S
C1017 C1016 1.356 . S
H1018 C1012 0.930 . S
H1019 C1013 0.930 . S
C1020 N1021 1.314 . S
C1020 C1022 1.353 . S
C1020 H1026 0.930 . S
N1021 Li971 1.990 . S
N1021 C1020 1.314 . S
N1021 C1024 1.279 . S
C1022 C1020 1.353 . S
C1022 C1025 1.348 . S
C1022 H1054 0.929 . S
C1023 C1024 1.358 . S
C1023 C1025 1.356 . S
C1023 H1055 0.930 . S
C1024 N1021 1.279 . S
C1024 C1023 1.358 . S
C1024 H1027 0.930 . S
C1025 C1022 1.348 . S
C1025 C1023 1.356 . S
H1026 C1020 0.930 . S
H1027 C1024 0.930 . S
O1028 Li968 1.956 . S
O1028 Li969 1.970 . S
O1028 Li970 1.961 . S
O1028 C972 1.325 . S
O1029 Li968 1.970 . S
O1029 Li969 1.956 . S
O1029 Li971 1.961 . S
O1029 C978 1.325 . S
O1030 Li968 1.961 . S
O1030 Li970 1.956 . S
O1030 Li971 1.970 . S
O1030 C1000 1.325 . S
O1031 Li969 1.961 . S
O1031 Li970 1.970 . S
O1031 Li971 1.956 . S
O1031 C1006 1.323 1_554 S
H1032 C974 0.929 . S
H1033 C975 0.930 1_556 S
H1034 C976 0.930 . S
H1035 C977 0.930 . S
H1036 C979 0.930 . S
H1037 C981 0.929 . S
H1038 C982 0.930 . S
H1039 C983 0.930 . S
H1040 C986 0.930 . S
H1041 C989 0.929 . S
H1042 C994 0.929 . S
H1043 C995 0.930 . S
H1044 C1002 0.929 . S
H1045 C1003 0.930 . S
H1046 C1004 0.930 . S
H1047 C1005 0.930 . S
H1048 C1007 0.929 . S
H1049 C1008 0.930 . S
H1050 C1009 0.930 . S
H1051 C1010 0.930 1_554 S
H1052 C1014 0.929 . S
H1053 C1016 0.930 . S
H1054 C1022 0.929 . S
H1055 C1023 0.930 . S
C1056 C1057 1.363 . S
C1056 C1062 1.379 . S
C1056 N1064 1.356 . S
C1057 C1056 1.363 . S
C1057 C1063 1.363 . S
C1058 C1059 1.363 . S
C1058 C1063 1.379 . S
C1058 N1065 1.356 . S
C1059 C1058 1.363 . S
C1059 C1062 1.363 . S
N1060 C1062 1.356 . S
N1060 H1072 0.984 . S
N1060 H1073 0.985 . S
N1061 C1063 1.356 . S
N1061 H1066 0.984 . S
N1061 H1067 0.985 . S
C1062 C1056 1.379 . S
C1062 C1059 1.363 . S
C1062 N1060 1.356 . S
C1063 C1057 1.363 . S
C1063 C1058 1.379 . S
C1063 N1061 1.356 . S
N1064 C1056 1.356 . S
N1064 H1070 0.984 . S
N1064 H1071 0.984 . S
N1065 C1058 1.356 . S
N1065 H1068 0.984 . S
N1065 H1069 0.985 . S
H1066 N1061 0.984 . S
H1067 N1061 0.985 . S
H1068 N1065 0.984 . S
H1069 N1065 0.985 . S
H1070 N1064 0.984 . S
H1071 N1064 0.984 . S
H1072 N1060 0.984 . S
H1073 N1060 0.985 . S
C1074 C1075 1.363 . S
C1074 C1080 1.379 . S
C1074 N1082 1.356 . S
C1075 C1074 1.363 . S
C1075 C1081 1.363 . S
C1076 C1077 1.363 . S
C1076 C1081 1.379 . S
C1076 N1083 1.356 . S
C1077 C1076 1.363 . S
C1077 C1080 1.363 . S
N1078 C1080 1.356 . S
N1078 H1090 0.984 . S
N1078 H1091 0.985 . S
N1079 C1081 1.356 . S
N1079 H1084 0.984 . S
N1079 H1085 0.985 . S
C1080 C1074 1.379 . S
C1080 C1077 1.363 . S
C1080 N1078 1.356 . S
C1081 C1075 1.363 . S
C1081 C1076 1.379 . S
C1081 N1079 1.356 . S
N1082 C1074 1.356 . S
N1082 H1088 0.984 . S
N1082 H1089 0.984 . S
N1083 C1076 1.356 . S
N1083 H1086 0.984 . S
N1083 H1087 0.985 . S
H1084 N1079 0.984 . S
H1085 N1079 0.985 . S
H1086 N1083 0.984 . S
H1087 N1083 0.985 . S
H1088 N1082 0.984 . S
H1089 N1082 0.984 . S
H1090 N1078 0.984 . S
H1091 N1078 0.985 . S
C1092 C1093 1.363 . S
C1092 C1098 1.379 . S
C1092 N1100 1.356 . S
C1093 C1092 1.363 . S
C1093 C1099 1.363 . S
C1094 C1095 1.363 . S
C1094 C1099 1.379 . S
C1094 N1101 1.356 . S
C1095 C1094 1.363 . S
C1095 C1098 1.363 . S
N1096 C1098 1.356 . S
N1096 H1108 0.984 . S
N1096 H1109 0.985 . S
N1097 C1099 1.356 . S
N1097 H1102 0.984 . S
N1097 H1103 0.985 . S
C1098 C1092 1.379 . S
C1098 C1095 1.363 . S
C1098 N1096 1.356 . S
C1099 C1093 1.363 . S
C1099 C1094 1.379 . S
C1099 N1097 1.356 . S
N1100 C1092 1.356 . S
N1100 H1106 0.984 . S
N1100 H1107 0.984 . S
N1101 C1094 1.356 . S
N1101 H1104 0.984 . S
N1101 H1105 0.985 . S
H1102 N1097 0.984 . S
H1103 N1097 0.985 . S
H1104 N1101 0.984 . S
H1105 N1101 0.985 . S
H1106 N1100 0.984 . S
H1107 N1100 0.984 . S
H1108 N1096 0.984 . S
H1109 N1096 0.985 . S
C1110 C1111 1.363 . S
C1110 C1116 1.379 . S
C1110 N1118 1.356 . S
C1111 C1110 1.363 . S
C1111 C1117 1.363 . S
C1112 C1113 1.363 . S
C1112 C1117 1.379 . S
C1112 N1119 1.356 . S
C1113 C1112 1.363 . S
C1113 C1116 1.363 . S
N1114 C1116 1.356 . S
N1114 H1126 0.984 . S
N1114 H1127 0.985 . S
N1115 C1117 1.356 . S
N1115 H1120 0.984 . S
N1115 H1121 0.985 . S
C1116 C1110 1.379 . S
C1116 C1113 1.363 . S
C1116 N1114 1.356 . S
C1117 C1111 1.363 . S
C1117 C1112 1.379 . S
C1117 N1115 1.356 . S
N1118 C1110 1.356 . S
N1118 H1124 0.984 . S
N1118 H1125 0.984 . S
N1119 C1112 1.356 . S
N1119 H1122 0.984 . S
N1119 H1123 0.985 . S
H1120 N1115 0.984 . S
H1121 N1115 0.985 . S
H1122 N1119 0.984 . S
H1123 N1119 0.985 . S
H1124 N1118 0.984 . S
H1125 N1118 0.984 . S
H1126 N1114 0.984 . S
H1127 N1114 0.985 . S
C1128 C1129 1.363 . S
C1128 C1134 1.379 . S
C1128 N1136 1.356 . S
C1129 C1128 1.363 . S
C1129 C1135 1.363 . S
C1130 C1131 1.363 . S
C1130 C1135 1.379 . S
C1130 N1137 1.356 . S
C1131 C1130 1.363 . S
C1131 C1134 1.363 . S
N1132 C1134 1.356 . S
N1132 H1144 0.984 . S
N1132 H1145 0.985 . S
N1133 C1135 1.356 . S
N1133 H1138 0.984 . S
N1133 H1139 0.985 . S
C1134 C1128 1.379 . S
C1134 C1131 1.363 . S
C1134 N1132 1.356 . S
C1135 C1129 1.363 . S
C1135 C1130 1.379 . S
C1135 N1133 1.356 . S
N1136 C1128 1.356 . S
N1136 H1142 0.984 . S
N1136 H1143 0.984 . S
N1137 C1130 1.356 . S
N1137 H1140 0.984 . S
N1137 H1141 0.985 . S
H1138 N1133 0.984 . S
H1139 N1133 0.985 . S
H1140 N1137 0.984 . S
H1141 N1137 0.985 . S
H1142 N1136 0.984 . S
H1143 N1136 0.984 . S
H1144 N1132 0.984 . S
H1145 N1132 0.985 . S
C1146 C1147 1.363 . S
C1146 C1152 1.379 . S
C1146 N1154 1.356 . S
C1147 C1146 1.363 . S
C1147 C1153 1.363 . S
C1148 C1149 1.363 . S
C1148 C1153 1.379 . S
C1148 N1155 1.356 . S
C1149 C1148 1.363 . S
C1149 C1152 1.363 . S
N1150 C1152 1.356 . S
N1150 H1162 0.984 . S
N1150 H1163 0.985 . S
N1151 C1153 1.356 . S
N1151 H1156 0.984 . S
N1151 H1157 0.985 . S
C1152 C1146 1.379 . S
C1152 C1149 1.363 . S
C1152 N1150 1.356 . S
C1153 C1147 1.363 . S
C1153 C1148 1.379 . S
C1153 N1151 1.356 . S
N1154 C1146 1.356 . S
N1154 H1160 0.984 . S
N1154 H1161 0.984 . S
N1155 C1148 1.356 . S
N1155 H1158 0.984 . S
N1155 H1159 0.985 . S
H1156 N1151 0.984 . S
H1157 N1151 0.985 . S
H1158 N1155 0.984 . S
H1159 N1155 0.985 . S
H1160 N1154 0.984 . S
H1161 N1154 0.984 . S
H1162 N1150 0.984 . S
H1163 N1150 0.985 . S
C1164 C1165 1.363 . S
C1164 C1170 1.379 . S
C1164 N1172 1.356 . S
C1165 C1164 1.363 . S
C1165 C1171 1.363 1_565 S
C1166 C1167 1.363 . S
C1166 C1171 1.379 . S
C1166 N1173 1.356 . S
C1167 C1166 1.363 . S
C1167 C1170 1.363 1_545 S
N1168 C1170 1.356 . S
N1168 H1180 0.984 . S
N1168 H1181 0.985 . S
N1169 C1171 1.356 . S
N1169 H1174 0.984 . S
N1169 H1175 0.985 . S
C1170 C1164 1.379 . S
C1170 C1167 1.363 1_565 S
C1170 N1168 1.356 . S
C1171 C1165 1.363 1_545 S
C1171 C1166 1.379 . S
C1171 N1169 1.356 . S
N1172 C1164 1.356 . S
N1172 H1178 0.984 . S
N1172 H1179 0.984 . S
N1173 C1166 1.356 . S
N1173 H1176 0.984 . S
N1173 H1177 0.985 . S
H1174 N1169 0.984 . S
H1175 N1169 0.985 . S
H1176 N1173 0.984 . S
H1177 N1173 0.985 . S
H1178 N1172 0.984 . S
H1179 N1172 0.984 . S
H1180 N1168 0.984 . S
H1181 N1168 0.985 . S
C1182 C1183 1.363 . S
C1182 C1188 1.379 . S
C1182 N1190 1.356 . S
C1183 C1182 1.363 . S
C1183 C1189 1.363 . S
C1184 C1185 1.363 . S
C1184 C1189 1.379 . S
C1184 N1191 1.356 . S
C1185 C1184 1.363 . S
C1185 C1188 1.363 . S
N1186 C1188 1.356 . S
N1186 H1198 0.984 . S
N1186 H1199 0.985 . S
N1187 C1189 1.356 . S
N1187 H1192 0.984 . S
N1187 H1193 0.985 . S
C1188 C1182 1.379 . S
C1188 C1185 1.363 . S
C1188 N1186 1.356 . S
C1189 C1183 1.363 . S
C1189 C1184 1.379 . S
C1189 N1187 1.356 . S
N1190 C1182 1.356 . S
N1190 H1196 0.984 . S
N1190 H1197 0.984 . S
N1191 C1184 1.356 . S
N1191 H1194 0.984 . S
N1191 H1195 0.985 . S
H1192 N1187 0.984 . S
H1193 N1187 0.985 . S
H1194 N1191 0.984 . S
H1195 N1191 0.985 . S
H1196 N1190 0.984 . S
H1197 N1190 0.984 . S
H1198 N1186 0.984 . S
H1199 N1186 0.985 . S
C1200 C1201 1.363 1_455 S
C1200 C1206 1.379 . S
C1200 N1208 1.356 . S
C1201 C1200 1.363 1_655 S
C1201 C1207 1.363 . S
C1202 C1203 1.363 1_655 S
C1202 C1207 1.379 . S
C1202 N1209 1.356 . S
C1203 C1202 1.363 1_455 S
C1203 C1206 1.363 . S
N1204 C1206 1.356 . S
N1204 H1216 0.984 . S
N1204 H1217 0.985 . S
N1205 C1207 1.356 . S
N1205 H1210 0.984 . S
N1205 H1211 0.985 . S
C1206 C1200 1.379 . S
C1206 C1203 1.363 . S
C1206 N1204 1.356 . S
C1207 C1201 1.363 . S
C1207 C1202 1.379 . S
C1207 N1205 1.356 . S
N1208 C1200 1.356 . S
N1208 H1214 0.984 . S
N1208 H1215 0.984 . S
N1209 C1202 1.356 . S
N1209 H1212 0.984 . S
N1209 H1213 0.985 . S
H1210 N1205 0.984 . S
H1211 N1205 0.985 . S
H1212 N1209 0.984 . S
H1213 N1209 0.985 . S
H1214 N1208 0.984 . S
H1215 N1208 0.984 . S
H1216 N1204 0.984 . S
H1217 N1204 0.985 . S
C1218 C1219 1.363 1_655 S
C1218 C1224 1.379 . S
C1218 N1226 1.356 . S
C1219 C1218 1.363 1_455 S
C1219 C1225 1.363 . S
C1220 C1221 1.363 1_455 S
C1220 C1225 1.379 . S
C1220 N1227 1.356 . S
C1221 C1220 1.363 1_655 S
C1221 C1224 1.363 . S
N1222 C1224 1.356 . S
N1222 H1234 0.984 . S
N1222 H1235 0.985 . S
N1223 C1225 1.356 . S
N1223 H1228 0.984 . S
N1223 H1229 0.985 . S
C1224 C1218 1.379 . S
C1224 C1221 1.363 . S
C1224 N1222 1.356 . S
C1225 C1219 1.363 . S
C1225 C1220 1.379 . S
C1225 N1223 1.356 . S
N1226 C1218 1.356 . S
N1226 H1232 0.984 . S
N1226 H1233 0.984 . S
N1227 C1220 1.356 . S
N1227 H1230 0.984 . S
N1227 H1231 0.985 . S
H1228 N1223 0.984 . S
H1229 N1223 0.985 . S
H1230 N1227 0.984 . S
H1231 N1227 0.985 . S
H1232 N1226 0.984 . S
H1233 N1226 0.984 . S
H1234 N1222 0.984 . S
H1235 N1222 0.985 . S
C1236 C1237 1.363 1_545 S
C1236 C1242 1.379 . S
C1236 N1244 1.356 . S
C1237 C1236 1.363 1_565 S
C1237 C1243 1.363 . S
C1238 C1239 1.363 1_565 S
C1238 C1243 1.379 . S
C1238 N1245 1.356 . S
C1239 C1238 1.363 1_545 S
C1239 C1242 1.363 . S
N1240 C1242 1.356 . S
N1240 H1252 0.984 . S
N1240 H1253 0.985 . S
N1241 C1243 1.356 . S
N1241 H1246 0.984 . S
N1241 H1247 0.985 . S
C1242 C1236 1.379 . S
C1242 C1239 1.363 . S
C1242 N1240 1.356 . S
C1243 C1237 1.363 . S
C1243 C1238 1.379 . S
C1243 N1241 1.356 . S
N1244 C1236 1.356 . S
N1244 H1250 0.984 . S
N1244 H1251 0.984 . S
N1245 C1238 1.356 . S
N1245 H1248 0.984 . S
N1245 H1249 0.985 . S
H1246 N1241 0.984 . S
H1247 N1241 0.985 . S
H1248 N1245 0.984 . S
H1249 N1245 0.985 . S
H1250 N1244 0.984 . S
H1251 N1244 0.984 . S
H1252 N1240 0.984 . S
H1253 N1240 0.985 . S
C1254 C1255 1.363 . S
C1254 C1260 1.379 . S
C1254 N1262 1.356 . S
C1255 C1254 1.363 . S
C1255 C1261 1.363 . S
C1256 C1257 1.363 . S
C1256 C1261 1.379 . S
C1256 N1263 1.356 . S
C1257 C1256 1.363 . S
C1257 C1260 1.363 . S
N1258 C1260 1.356 . S
N1258 H1270 0.984 . S
N1258 H1271 0.985 . S
N1259 C1261 1.356 . S
N1259 H1264 0.984 . S
N1259 H1265 0.985 . S
C1260 C1254 1.379 . S
C1260 C1257 1.363 . S
C1260 N1258 1.356 . S
C1261 C1255 1.363 . S
C1261 C1256 1.379 . S
C1261 N1259 1.356 . S
N1262 C1254 1.356 . S
N1262 H1268 0.984 . S
N1262 H1269 0.984 . S
N1263 C1256 1.356 . S
N1263 H1266 0.984 . S
N1263 H1267 0.985 . S
H1264 N1259 0.984 . S
H1265 N1259 0.985 . S
H1266 N1263 0.984 . S
H1267 N1263 0.985 . S
H1268 N1262 0.984 . S
H1269 N1262 0.984 . S
H1270 N1258 0.984 . S
H1271 N1258 0.985 . S
C1272 C1273 1.363 . S
C1272 C1278 1.379 . S
C1272 N1280 1.356 . S
C1273 C1272 1.363 . S
C1273 C1279 1.363 . S
C1274 C1275 1.363 . S
C1274 C1279 1.379 . S
C1274 N1281 1.356 . S
C1275 C1274 1.363 . S
C1275 C1278 1.363 . S
N1276 C1278 1.356 . S
N1276 H1288 0.984 . S
N1276 H1289 0.985 . S
N1277 C1279 1.356 . S
N1277 H1282 0.984 . S
N1277 H1283 0.985 . S
C1278 C1272 1.379 . S
C1278 C1275 1.363 . S
C1278 N1276 1.356 . S
C1279 C1273 1.363 . S
C1279 C1274 1.379 . S
C1279 N1277 1.356 . S
N1280 C1272 1.356 . S
N1280 H1286 0.984 . S
N1280 H1287 0.984 . S
N1281 C1274 1.356 . S
N1281 H1284 0.984 . S
N1281 H1285 0.985 . S
H1282 N1277 0.984 . S
H1283 N1277 0.985 . S
H1284 N1281 0.984 . S
H1285 N1281 0.985 . S
H1286 N1280 0.984 . S
H1287 N1280 0.984 . S
H1288 N1276 0.984 . S
H1289 N1276 0.985 . S
C1290 C1291 1.363 . S
C1290 C1296 1.379 . S
C1290 N1298 1.356 . S
C1291 C1290 1.363 . S
C1291 C1297 1.363 . S
C1292 C1293 1.363 . S
C1292 C1297 1.379 . S
C1292 N1299 1.356 . S
C1293 C1292 1.363 . S
C1293 C1296 1.363 . S
N1294 C1296 1.356 . S
N1294 H1306 0.984 . S
N1294 H1307 0.985 . S
N1295 C1297 1.356 . S
N1295 H1300 0.984 . S
N1295 H1301 0.985 . S
C1296 C1290 1.379 . S
C1296 C1293 1.363 . S
C1296 N1294 1.356 . S
C1297 C1291 1.363 . S
C1297 C1292 1.379 . S
C1297 N1295 1.356 . S
N1298 C1290 1.356 . S
N1298 H1304 0.984 . S
N1298 H1305 0.984 . S
N1299 C1292 1.356 . S
N1299 H1302 0.984 . S
N1299 H1303 0.985 . S
H1300 N1295 0.984 . S
H1301 N1295 0.985 . S
H1302 N1299 0.984 . S
H1303 N1299 0.985 . S
H1304 N1298 0.984 . S
H1305 N1298 0.984 . S
H1306 N1294 0.984 . S
H1307 N1294 0.985 . S
C1308 C1309 1.363 . S
C1308 C1314 1.379 1_554 S
C1308 N1316 1.356 . S
C1309 C1308 1.363 . S
C1309 C1315 1.363 . S
C1310 C1311 1.363 . S
C1310 C1315 1.379 1_556 S
C1310 N1317 1.356 . S
C1311 C1310 1.363 . S
C1311 C1314 1.363 . S
N1312 C1314 1.356 . S
N1312 H1324 0.984 . S
N1312 H1325 0.985 . S
N1313 C1315 1.356 . S
N1313 H1318 0.984 . S
N1313 H1319 0.985 . S
C1314 C1308 1.379 1_556 S
C1314 C1311 1.363 . S
C1314 N1312 1.356 . S
C1315 C1309 1.363 . S
C1315 C1310 1.379 1_554 S
C1315 N1313 1.356 . S
N1316 C1308 1.356 . S
N1316 H1322 0.984 . S
N1316 H1323 0.984 . S
N1317 C1310 1.356 . S
N1317 H1320 0.984 . S
N1317 H1321 0.985 . S
H1318 N1313 0.984 . S
H1319 N1313 0.985 . S
H1320 N1317 0.984 . S
H1321 N1317 0.985 . S
H1322 N1316 0.984 . S
H1323 N1316 0.984 . S
H1324 N1312 0.984 . S
H1325 N1312 0.985 . S
C1326 C1327 1.363 . S
C1326 C1332 1.379 . S
C1326 N1334 1.356 . S
C1327 C1326 1.363 . S
C1327 C1333 1.363 . S
C1328 C1329 1.363 . S
C1328 C1333 1.379 . S
C1328 N1335 1.356 . S
C1329 C1328 1.363 . S
C1329 C1332 1.363 . S
N1330 C1332 1.356 . S
N1330 H1342 0.984 . S
N1330 H1343 0.985 . S
N1331 C1333 1.356 . S
N1331 H1336 0.984 . S
N1331 H1337 0.985 . S
C1332 C1326 1.379 . S
C1332 C1329 1.363 . S
C1332 N1330 1.356 . S
C1333 C1327 1.363 . S
C1333 C1328 1.379 . S
C1333 N1331 1.356 . S
N1334 C1326 1.356 . S
N1334 H1340 0.984 . S
N1334 H1341 0.984 . S
N1335 C1328 1.356 . S
N1335 H1338 0.984 . S
N1335 H1339 0.985 . S
H1336 N1331 0.984 . S
H1337 N1331 0.985 . S
H1338 N1335 0.984 . S
H1339 N1335 0.985 . S
H1340 N1334 0.984 . S
H1341 N1334 0.984 . S
H1342 N1330 0.984 . S
H1343 N1330 0.985 . S
C1344 C1345 1.363 . S
C1344 C1350 1.379 . S
C1344 N1352 1.356 . S
C1345 C1344 1.363 . S
C1345 C1351 1.363 . S
C1346 C1347 1.363 . S
C1346 C1351 1.379 . S
C1346 N1353 1.356 . S
C1347 C1346 1.363 . S
C1347 C1350 1.363 . S
N1348 C1350 1.356 . S
N1348 H1360 0.984 . S
N1348 H1361 0.985 . S
N1349 C1351 1.356 . S
N1349 H1354 0.984 . S
N1349 H1355 0.985 . S
C1350 C1344 1.379 . S
C1350 C1347 1.363 . S
C1350 N1348 1.356 . S
C1351 C1345 1.363 . S
C1351 C1346 1.379 . S
C1351 N1349 1.356 . S
N1352 C1344 1.356 . S
N1352 H1358 0.984 . S
N1352 H1359 0.984 . S
N1353 C1346 1.356 . S
N1353 H1356 0.984 . S
N1353 H1357 0.985 . S
H1354 N1349 0.984 . S
H1355 N1349 0.985 . S
H1356 N1353 0.984 . S
H1357 N1353 0.985 . S
H1358 N1352 0.984 . S
H1359 N1352 0.984 . S
H1360 N1348 0.984 . S
H1361 N1348 0.985 . S
C1362 C1363 1.363 . S
C1362 C1368 1.379 1_554 S
C1362 N1370 1.356 . S
C1363 C1362 1.363 . S
C1363 C1369 1.363 . S
C1364 C1365 1.363 . S
C1364 C1369 1.379 1_556 S
C1364 N1371 1.356 . S
C1365 C1364 1.363 . S
C1365 C1368 1.363 . S
N1366 C1368 1.356 . S
N1366 H1378 0.984 . S
N1366 H1379 0.985 . S
N1367 C1369 1.356 . S
N1367 H1372 0.984 . S
N1367 H1373 0.985 . S
C1368 C1362 1.379 1_556 S
C1368 C1365 1.363 . S
C1368 N1366 1.356 . S
C1369 C1363 1.363 . S
C1369 C1364 1.379 1_554 S
C1369 N1367 1.356 . S
N1370 C1362 1.356 . S
N1370 H1376 0.984 . S
N1370 H1377 0.984 . S
N1371 C1364 1.356 . S
N1371 H1374 0.984 . S
N1371 H1375 0.985 . S
H1372 N1367 0.984 . S
H1373 N1367 0.985 . S
H1374 N1371 0.984 . S
H1375 N1371 0.985 . S
H1376 N1370 0.984 . S
H1377 N1370 0.984 . S
H1378 N1366 0.984 . S
H1379 N1366 0.985 . S
C1380 C1381 1.363 . S
C1380 C1386 1.379 . S
C1380 N1388 1.356 . S
C1381 C1380 1.363 . S
C1381 C1387 1.363 1_545 S
C1382 C1383 1.363 . S
C1382 C1387 1.379 . S
C1382 N1389 1.356 . S
C1383 C1382 1.363 . S
C1383 C1386 1.363 1_565 S
N1384 C1386 1.356 1_565 S
N1384 H1396 0.984 1_565 S
N1384 H1397 0.985 . S
N1385 C1387 1.356 1_545 S
N1385 H1390 0.984 . S
N1385 H1391 0.985 1_545 S
C1386 C1380 1.379 . S
C1386 C1383 1.363 1_545 S
C1386 N1384 1.356 1_545 S
C1387 C1381 1.363 1_565 S
C1387 C1382 1.379 . S
C1387 N1385 1.356 1_565 S
N1388 C1380 1.356 . S
N1388 H1394 0.984 . S
N1388 H1395 0.984 . S
N1389 C1382 1.356 . S
N1389 H1392 0.984 . S
N1389 H1393 0.985 . S
H1390 N1385 0.984 . S
H1391 N1385 0.985 1_565 S
H1392 N1389 0.984 . S
H1393 N1389 0.985 . S
H1394 N1388 0.984 . S
H1395 N1388 0.984 . S
H1396 N1384 0.984 1_545 S
H1397 N1384 0.985 . S
C1398 C1399 1.363 . S
C1398 C1404 1.379 . S
C1398 N1406 1.356 . S
C1399 C1398 1.363 . S
C1399 C1405 1.363 . S
C1400 C1401 1.363 . S
C1400 C1405 1.379 . S
C1400 N1407 1.356 . S
C1401 C1400 1.363 . S
C1401 C1404 1.363 . S
N1402 C1404 1.356 . S
N1402 H1414 0.984 . S
N1402 H1415 0.985 . S
N1403 C1405 1.356 . S
N1403 H1408 0.984 . S
N1403 H1409 0.985 . S
C1404 C1398 1.379 . S
C1404 C1401 1.363 . S
C1404 N1402 1.356 . S
C1405 C1399 1.363 . S
C1405 C1400 1.379 . S
C1405 N1403 1.356 . S
N1406 C1398 1.356 . S
N1406 H1412 0.984 . S
N1406 H1413 0.984 . S
N1407 C1400 1.356 . S
N1407 H1410 0.984 . S
N1407 H1411 0.985 . S
H1408 N1403 0.984 . S
H1409 N1403 0.985 . S
H1410 N1407 0.984 . S
H1411 N1407 0.985 . S
H1412 N1406 0.984 . S
H1413 N1406 0.984 . S
H1414 N1402 0.984 . S
H1415 N1402 0.985 . S
C1416 C1417 1.363 . S
C1416 C1422 1.379 1_455 S
C1416 N1424 1.356 . S
C1417 C1416 1.363 . S
C1417 C1423 1.363 . S
C1418 C1419 1.363 . S
C1418 C1423 1.379 1_655 S
C1418 N1425 1.356 . S
C1419 C1418 1.363 . S
C1419 C1422 1.363 . S
N1420 C1422 1.356 . S
N1420 H1432 0.984 . S
N1420 H1433 0.985 . S
N1421 C1423 1.356 . S
N1421 H1426 0.984 . S
N1421 H1427 0.985 . S
C1422 C1416 1.379 1_655 S
C1422 C1419 1.363 . S
C1422 N1420 1.356 . S
C1423 C1417 1.363 . S
C1423 C1418 1.379 1_455 S
C1423 N1421 1.356 . S
N1424 C1416 1.356 . S
N1424 H1430 0.984 . S
N1424 H1431 0.984 . S
N1425 C1418 1.356 . S
N1425 H1428 0.984 . S
N1425 H1429 0.985 . S
H1426 N1421 0.984 . S
H1427 N1421 0.985 . S
H1428 N1425 0.984 . S
H1429 N1425 0.985 . S
H1430 N1424 0.984 . S
H1431 N1424 0.984 . S
H1432 N1420 0.984 . S
H1433 N1420 0.985 . S
C1434 C1435 1.363 . S
C1434 C1440 1.379 1_565 S
C1434 N1442 1.356 . S
C1435 C1434 1.363 . S
C1435 C1441 1.363 . S
C1436 C1437 1.363 . S
C1436 C1441 1.379 1_545 S
C1436 N1443 1.356 . S
C1437 C1436 1.363 . S
C1437 C1440 1.363 . S
N1438 C1440 1.356 . S
N1438 H1450 0.988 . S
N1438 H1451 0.985 . S
N1439 C1441 1.356 . S
N1439 H1444 0.984 . S
N1439 H1445 0.987 . S
C1440 C1434 1.379 1_545 S
C1440 C1437 1.363 . S
C1440 N1438 1.356 . S
C1441 C1435 1.363 . S
C1441 C1436 1.379 1_565 S
C1441 N1439 1.356 . S
N1442 C1434 1.356 . S
N1442 H1448 0.984 . S
N1442 H1449 0.984 . S
N1443 C1436 1.356 . S
N1443 H1446 0.984 . S
N1443 H1447 0.985 . S
H1444 N1439 0.984 . S
H1445 N1439 0.987 . S
H1446 N1443 0.984 . S
H1447 N1443 0.985 . S
H1448 N1442 0.984 . S
H1449 N1442 0.984 . S
H1450 N1438 0.988 . S
H1451 N1438 0.985 . S
C1452 C1453 1.363 . S
C1452 C1458 1.379 . S
C1452 N1460 1.356 . S
C1453 C1452 1.363 . S
C1453 C1459 1.363 . S
C1454 C1455 1.363 . S
C1454 C1459 1.379 . S
C1454 N1461 1.356 . S
C1455 C1454 1.363 . S
C1455 C1458 1.363 . S
N1456 C1458 1.356 . S
N1456 H1468 0.984 . S
N1456 H1469 0.985 . S
N1457 C1459 1.356 . S
N1457 H1462 0.984 . S
N1457 H1463 0.985 . S
C1458 C1452 1.379 . S
C1458 C1455 1.363 . S
C1458 N1456 1.356 . S
C1459 C1453 1.363 . S
C1459 C1454 1.379 . S
C1459 N1457 1.356 . S
N1460 C1452 1.356 . S
N1460 H1466 0.984 . S
N1460 H1467 0.984 . S
N1461 C1454 1.356 . S
N1461 H1464 0.984 . S
N1461 H1465 0.985 . S
H1462 N1457 0.984 . S
H1463 N1457 0.985 . S
H1464 N1461 0.984 . S
H1465 N1461 0.985 . S
H1466 N1460 0.984 . S
H1467 N1460 0.984 . S
H1468 N1456 0.984 . S
H1469 N1456 0.985 . S
C1470 C1471 1.363 . S
C1470 C1476 1.379 1_655 S
C1470 N1478 1.356 . S
C1471 C1470 1.363 . S
C1471 C1477 1.363 . S
C1472 C1473 1.363 . S
C1472 C1477 1.379 1_455 S
C1472 N1479 1.356 . S
C1473 C1472 1.363 . S
C1473 C1476 1.363 . S
N1474 C1476 1.356 . S
N1474 H1486 0.984 . S
N1474 H1487 0.985 . S
N1475 C1477 1.356 . S
N1475 H1480 0.984 . S
N1475 H1481 0.985 . S
C1476 C1470 1.379 1_455 S
C1476 C1473 1.363 . S
C1476 N1474 1.356 . S
C1477 C1471 1.363 . S
C1477 C1472 1.379 1_655 S
C1477 N1475 1.356 . S
N1478 C1470 1.356 . S
N1478 H1484 0.984 1_655 S
N1478 H1485 0.984 . S
N1479 C1472 1.356 . S
N1479 H1482 0.984 . S
N1479 H1483 0.985 1_455 S
H1480 N1475 0.984 . S
H1481 N1475 0.985 . S
H1482 N1479 0.984 . S
H1483 N1479 0.985 1_655 S
H1484 N1478 0.984 1_455 S
H1485 N1478 0.984 . S
H1486 N1474 0.984 . S
H1487 N1474 0.985 . S
C1057 C57 1.864 . S
C1059 C733 1.858 . S
C1075 C145 1.863 . S
C1077 C812 1.859 . S
C1093 C900 1.816 . S
C1095 C233 1.812 . S
C1111 C988 1.863 . S
C1113 C321 1.859 . S
C1129 C557 1.864 . S
C1131 C401 1.858 . S
C1147 C645 1.816 . S
C1149 C497 1.812 . S
C1165 C20 1.590 . S
C1167 C284 1.594 . S
C1183 C381 1.592 . S
C1185 C108 1.592 . S
C1201 C460 1.542 . S
C1203 C196 1.536 . S
C1219 C577 1.590 . S
C1221 C849 1.594 . S
C1237 C937 1.542 . S
C1239 C665 1.536 . S
C1255 C753 1.592 . S
C1257 C1025 1.592 . S
C1273 C548 1.977 . S
C1275 C49 1.980 . S
C1291 C137 1.957 . S
C1293 C636 1.959 . S
C1309 C724 1.957 . S
C1311 C225 1.959 . S
C1327 C821 1.977 . S
C1329 C313 1.980 . S
C1345 C409 1.957 . S
C1347 C909 1.959 . S
C1363 C997 1.957 . S
C1365 C489 1.959 . S
C1381 C29 1.224 . S
C1383 C673 1.226 . S
C1399 C761 1.178 . S
C1401 C117 1.178 . S
C1417 C841 1.224 . S
C1419 C205 1.226 . S
C1435 C293 1.224 . S
C1437 C929 1.226 . S
C1453 C1017 1.178 . S
C1455 C372 1.178 . S
C1471 C585 1.224 . S
C1473 C469 1.226 . S
