# Generated by pormake.
# Topology rac, (4)-cn, num edge types: 1
# Building blocks:
#     Node 0, Type 0, BuildingBlock: CEKHIL_clean_sbu_0, # of connection points: 4
#     Node 1, Type 0, BuildingBlock: CEKHIL_clean_sbu_0, # of connection points: 4
#     Node 2, Type 0, BuildingBlock: CEKHIL_clean_sbu_0, # of connection points: 4
#     Node 3, Type 0, BuildingBlock: CEKHIL_clean_sbu_0, # of connection points: 4
#     Node 4, Type 0, BuildingBlock: CEKHIL_clean_sbu_0, # of connection points: 4
#     Node 5, Type 0, BuildingBlock: CEKHIL_clean_sbu_0, # of connection points: 4
#     Node 6, Type 0, BuildingBlock: CEKHIL_clean_sbu_0, # of connection points: 4
#     Node 7, Type 0, BuildingBlock: CEKHIL_clean_sbu_0, # of connection points: 4
#     Edge 8, Type (0, 0), BuildingBlock: AJUNOK_clean_linker_0, # of connection points: 2
#     Edge 9, Type (0, 0), BuildingBlock: AJUNOK_clean_linker_0, # of connection points: 2
#     Edge 10, Type (0, 0), BuildingBlock: AJUNOK_clean_linker_0, # of connection points: 2
#     Edge 11, Type (0, 0), BuildingBlock: AJUNOK_clean_linker_0, # of connection points: 2
#     Edge 12, Type (0, 0), BuildingBlock: AJUNOK_clean_linker_0, # of connection points: 2
#     Edge 13, Type (0, 0), BuildingBlock: AJUNOK_clean_linker_0, # of connection points: 2
#     Edge 14, Type (0, 0), BuildingBlock: AJUNOK_clean_linker_0, # of connection points: 2
#     Edge 15, Type (0, 0), BuildingBlock: AJUNOK_clean_linker_0, # of connection points: 2
#     Edge 16, Type (0, 0), BuildingBlock: AJUNOK_clean_linker_0, # of connection points: 2
#     Edge 17, Type (0, 0), BuildingBlock: AJUNOK_clean_linker_0, # of connection points: 2
#     Edge 18, Type (0, 0), BuildingBlock: AJUNOK_clean_linker_0, # of connection points: 2
#     Edge 19, Type (0, 0), BuildingBlock: AJUNOK_clean_linker_0, # of connection points: 2
#     Edge 20, Type (0, 0), BuildingBlock: AJUNOK_clean_linker_0, # of connection points: 2
#     Edge 21, Type (0, 0), BuildingBlock: AJUNOK_clean_linker_0, # of connection points: 2
#     Edge 22, Type (0, 0), BuildingBlock: AJUNOK_clean_linker_0, # of connection points: 2
#     Edge 23, Type (0, 0), BuildingBlock: AJUNOK_clean_linker_0, # of connection points: 2
# Relax obj value: 0.220
# Max RMSD: 0.073
# Mean RMSD: 0.073
data_MOF--net-rac--node1-CEKHIL_clean_sbu_0--edge1-AJUNOK_clean_linker_0
_symmetry_space_group_name_H-M    P1
_symmetry_Int_Tables_number       1
_symmetry_cell_setting            triclinic
loop_
_symmetry_equiv_pos_as_xyz
'x, y, z'
_cell_length_a     30.441165
_cell_length_b     15.630015
_cell_length_c     26.347512
_cell_angle_alpha  89.96817
_cell_angle_beta   90.037037
_cell_angle_gamma 90.098902
loop_
_atom_site_label
_atom_site_type_symbol
_atom_site_fract_x
_atom_site_fract_y
_atom_site_fract_z
_atom_type_partial_charge
Co0 Co 0.37926 0.32486 0.0499 0.0
O1 O 0.41433 0.42725 0.05816 0.0
O2 O 0.42835 0.33161 0.00014 0.0
C3 C 0.3791 0.29522 0.13391 0.0
O4 O 0.34422 0.21178 0.03442 0.0
Co5 Co 0.28805 0.33904 0.10505 0.0
O6 O 0.28093 0.2223 0.07965 0.0
C7 C 0.29944 0.39901 -0.00123 0.0
C8 C 0.43888 0.40485 0.02096 0.0
C9 C 0.30551 0.18335 0.04822 0.0
O10 O 0.34068 0.38459 0.00043 0.0
O11 O 0.27364 0.38796 0.03664 0.0
O12 O 0.41107 0.2698 0.10524 0.0
O13 O 0.35072 0.34379 0.11194 0.0
Co14 Co 0.14796 0.71374 0.0491 0.0
O15 O 0.11292 0.61195 0.05871 0.0
O16 O 0.09425 0.71144 0.00519 0.0
C17 C 0.1553 0.73557 0.13367 0.0
O18 O 0.18288 0.82728 0.0337 0.0
Co19 Co 0.24253 0.69073 0.09253 0.0
O20 O 0.24801 0.81134 0.07454 0.0
C21 C 0.22166 0.63919 0.98681 0.0
C22 C 0.08507 0.63718 0.0256 0.0
C23 C 0.2221 0.85443 0.04662 0.0
O24 O 0.18111 0.65663 0.99344 0.0
O25 O 0.25054 0.64534 0.02206 0.0
O26 O 0.12167 0.76498 0.1092 0.0
O27 O 0.1809 0.68704 0.10756 0.0
Co28 Co 0.37484 0.19377 0.43335 0.0
O29 O 0.40875 0.09032 0.42399 0.0
O30 O 0.42269 0.18033 0.48484 0.0
C31 C 0.37745 0.22879 0.34997 0.0
O32 O 0.34019 0.30693 0.44994 0.0
Co33 Co 0.28536 0.18498 0.37307 0.0
O34 O 0.279 0.30054 0.40054 0.0
C35 C 0.29228 0.12266 0.4795 0.0
C36 C 0.43253 0.1079 0.46272 0.0
C37 C 0.30232 0.33708 0.43434 0.0
O38 O 0.33393 0.13281 0.47966 0.0
O39 O 0.26795 0.13674 0.44069 0.0
O40 O 0.40893 0.25111 0.38035 0.0
O41 O 0.3481 0.18002 0.36992 0.0
Co42 Co 0.13832 0.79467 0.43584 0.0
O43 O 0.10254 0.8949 0.42402 0.0
O44 O 0.08563 0.79966 0.481 0.0
C45 C 0.14545 0.76461 0.35191 0.0
O46 O 0.1743 0.68389 0.45412 0.0
Co47 Co 0.23276 0.81837 0.39005 0.0
O48 O 0.23989 0.70083 0.41413 0.0
C49 C 0.21181 0.87963 0.49392 0.0
C50 C 0.07604 0.87274 0.4594 0.0
C51 C 0.21418 0.6586 0.44287 0.0
O52 O 0.17174 0.85722 0.48904 0.0
O53 O 0.24024 0.87329 0.45823 0.0
O54 O 0.11187 0.73729 0.37748 0.0
O55 O 0.1708 0.81581 0.37666 0.0
Co56 Co 0.64202 0.72582 0.93784 0.0
O57 O 0.60763 0.62375 0.92612 0.0
O58 O 0.59098 0.71572 0.98506 0.0
C59 C 0.64555 0.75733 0.85408 0.0
O60 O 0.67659 0.83782 0.95715 0.0
Co61 Co 0.73529 0.72004 0.88804 0.0
O62 O 0.73041 0.84363 0.89828 0.0
C63 C 0.72014 0.64936 0.99127 0.0
C64 C 0.58174 0.64317 0.96263 0.0
C65 C 0.71091 0.87456 0.9367 0.0
O66 O 0.6789 0.66351 0.98804 0.0
O67 O 0.74731 0.66525 0.95531 0.0
O68 O 0.61246 0.78248 0.8812 0.0
O69 O 0.67322 0.70901 0.8774 0.0
Co70 Co 0.88474 0.31444 0.93806 0.0
O71 O 0.921 0.41459 0.92663 0.0
O72 O 0.93195 0.32626 0.98966 0.0
C73 C 0.88523 0.27284 0.85596 0.0
O74 O 0.84874 0.20471 0.95783 0.0
Co75 Co 0.79449 0.32313 0.87855 0.0
O76 O 0.78433 0.21518 0.9145 0.0
C77 C 0.80383 0.39654 0.98205 0.0
C78 C 0.94373 0.39658 0.96631 0.0
C79 C 0.80906 0.17829 0.94672 0.0
O80 O 0.84508 0.38141 0.98305 0.0
O81 O 0.77916 0.38142 0.94369 0.0
O82 O 0.91739 0.25154 0.88565 0.0
O83 O 0.85727 0.32505 0.87506 0.0
Co84 Co 0.63742 0.79449 0.5496 0.0
O85 O 0.60276 0.89781 0.55611 0.0
O86 O 0.58467 0.79509 0.50439 0.0
C87 C 0.64292 0.77753 0.6348 0.0
O88 O 0.67178 0.67896 0.53712 0.0
Co89 Co 0.7317 0.81516 0.59574 0.0
O90 O 0.73749 0.69479 0.57707 0.0
C91 C 0.71297 0.86761 0.48942 0.0
C92 C 0.57553 0.87086 0.52264 0.0
C93 C 0.71101 0.65155 0.54989 0.0
O94 O 0.67235 0.84847 0.49407 0.0
O95 O 0.74068 0.86258 0.52595 0.0
O96 O 0.60944 0.74746 0.61019 0.0
O97 O 0.66972 0.82266 0.60803 0.0
Co98 Co 0.87419 0.18542 0.55528 0.0
O99 O 0.91045 0.08428 0.56106 0.0
O100 O 0.92233 0.18185 0.50372 0.0
C101 C 0.87649 0.21015 0.64008 0.0
O102 O 0.83697 0.29771 0.54283 0.0
Co103 Co 0.78526 0.16443 0.61358 0.0
O104 O 0.777 0.28376 0.5933 0.0
C105 C 0.79425 0.10625 0.50685 0.0
C106 C 0.93384 0.10821 0.52326 0.0
C107 C 0.79919 0.32513 0.5605 0.0
O108 O 0.83506 0.12508 0.50652 0.0
O109 O 0.76958 0.11412 0.54594 0.0
O110 O 0.90684 0.23985 0.61042 0.0
O111 O 0.84812 0.16145 0.6181 0.0
C112 C 0.3098 0.0256 0.02868 0.0
C113 C 0.28567 0.1016 0.0293 0.0
C114 C 0.28825 0.94577 0.02858 0.0
C115 C 0.24163 0.93821 0.03004 0.0
H116 H 0.34521 0.02745 0.03273 0.0
H117 H 0.3086 0.88914 0.03125 0.0
S118 S 0.16379 0.11863 0.01954 0.0
N119 N 0.2127 0.16458 0.02078 0.0
N120 N 0.1728 0.01459 0.023 0.0
C121 C 0.21738 0.01348 0.02461 0.0
C122 C 0.23928 0.09495 0.0238 0.0
C123 C 0.21125 0.4989 0.45639 0.0
C124 C 0.23408 0.57627 0.46084 0.0
C125 C 0.23411 0.42065 0.45405 0.0
C126 C 0.28083 0.41621 0.45498 0.0
H127 H 0.1761 0.49911 0.44993 0.0
H128 H 0.21493 0.36334 0.44717 0.0
S129 S 0.35505 0.5993 0.47868 0.0
N130 N 0.3055 0.6422 0.47686 0.0
N131 N 0.34794 0.49558 0.46977 0.0
C132 C 0.30351 0.4919 0.46563 0.0
C133 C 0.28023 0.5716 0.46908 0.0
C134 C 0.78233 0.94541 0.95703 0.0
C135 C 0.73571 0.94741 0.96016 0.0
C136 C 0.80815 0.01998 0.9605 0.0
C137 C 0.78848 0.09963 0.96843 0.0
H138 H 0.79886 0.88651 0.94685 0.0
H139 H 0.84278 0.01623 0.95131 0.0
S140 S 0.66983 0.13743 0.99387 0.0
N141 N 0.67246 0.03388 0.98153 0.0
N142 N 0.72078 0.17361 0.9905 0.0
C143 C 0.74283 0.10042 0.97957 0.0
C144 C 0.71642 0.02456 0.97488 0.0
C145 C 0.70727 0.4904 0.54565 0.0
C146 C 0.72961 0.56644 0.53468 0.0
C147 C 0.73009 0.41214 0.5494 0.0
C148 C 0.7765 0.40596 0.5432 0.0
H149 H 0.67275 0.49219 0.55555 0.0
H150 H 0.71117 0.3564 0.56043 0.0
S151 S 0.84884 0.58474 0.50428 0.0
N152 N 0.79975 0.62881 0.50948 0.0
N153 N 0.84226 0.48241 0.51816 0.0
C154 C 0.79838 0.48007 0.52724 0.0
C155 C 0.77506 0.55981 0.52274 0.0
C156 C 0.33899 0.27006 0.21528 0.0
C157 C 0.37883 0.27917 0.18892 0.0
C158 C 0.33864 0.25385 0.26769 0.0
C159 C 0.37808 0.24902 0.29539 0.0
H160 H 0.308 0.27384 0.19516 0.0
H161 H 0.30735 0.24559 0.28665 0.0
S162 S 0.49093 0.27208 0.24405 0.0
N163 N 0.45854 0.28366 0.19426 0.0
N164 N 0.45786 0.25596 0.29277 0.0
C165 C 0.41802 0.25995 0.26953 0.0
C166 C 0.4184 0.27426 0.2162 0.0
C167 C 0.18645 0.78252 0.26995 0.0
C168 C 0.15049 0.74806 0.29689 0.0
C169 C 0.18908 0.77562 0.21684 0.0
C170 C 0.15555 0.73511 0.1893 0.0
H171 H 0.21214 0.81693 0.28981 0.0
H172 H 0.21653 0.80476 0.19714 0.0
S173 S 0.05697 0.62712 0.24117 0.0
N174 N 0.08258 0.66565 0.29148 0.0
N175 N 0.08737 0.65487 0.19198 0.0
C176 C 0.1205 0.69763 0.21564 0.0
C177 C 0.11803 0.70344 0.26945 0.0
C178 C 0.60659 0.76833 0.77168 0.0
C179 C 0.64644 0.768 0.79856 0.0
C180 C 0.60602 0.76989 0.71862 0.0
C181 C 0.64525 0.77352 0.69058 0.0
H182 H 0.57555 0.76476 0.79169 0.0
H183 H 0.57451 0.76917 0.69947 0.0
S184 S 0.75823 0.7781 0.74299 0.0
N185 N 0.72614 0.77259 0.79342 0.0
N186 N 0.72497 0.7794 0.69344 0.0
C187 C 0.68532 0.77558 0.71694 0.0
C188 C 0.68594 0.7717 0.77106 0.0
C189 C 0.91265 0.27103 0.71687 0.0
C190 C 0.87786 0.22348 0.69561 0.0
C191 C 0.91575 0.2836 0.76933 0.0
C192 C 0.88393 0.24995 0.80216 0.0
H193 H 0.93771 0.2991 0.69289 0.0
H194 H 0.94253 0.32193 0.78418 0.0
S195 S 0.78829 0.11596 0.76713 0.0
N196 N 0.81233 0.13828 0.71249 0.0
N197 N 0.81794 0.16431 0.81115 0.0
C198 C 0.84945 0.2013 0.78195 0.0
C199 C 0.84648 0.18738 0.72857 0.0
C200 C 0.48109 0.54387 0.02889 0.0
C201 C 0.47568 0.46346 0.00463 0.0
C202 C 0.51495 0.60161 0.01551 0.0
C203 C 0.54524 0.58212 0.97703 0.0
H204 H 0.45881 0.56297 0.05882 0.0
H205 H 0.51732 0.66196 0.0355 0.0
S206 S 0.54652 0.37965 0.90186 0.0
N207 N 0.50422 0.36785 0.94041 0.0
N208 N 0.56757 0.47449 0.915 0.0
C209 C 0.54027 0.50163 0.95246 0.0
C210 C 0.50571 0.44302 0.96621 0.0
C211 C 0.02338 0.58847 0.9667 0.0
C212 C 0.04699 0.57937 0.01222 0.0
C213 C 0.99056 0.52884 0.95253 0.0
C214 C 0.9796 0.45707 0.98308 0.0
H215 H 0.03089 0.64092 0.94126 0.0
H216 H 0.97379 0.53912 0.91679 0.0
S217 S 0.02954 0.40632 0.10779 0.0
N218 N 0.05525 0.494 0.08925 0.0
N219 N 0.99428 0.38332 0.06216 0.0
C220 C 1.00237 0.44816 0.02908 0.0
C221 C 0.03569 0.50878 0.04368 0.0
C222 C 0.5333 0.00998 0.52962 0.0
C223 C 0.53772 0.92784 0.50716 0.0
C224 C 0.49935 0.06731 0.51604 0.0
C225 C 0.46795 0.0458 0.47906 0.0
H226 H 0.55664 0.03105 0.55804 0.0
H227 H 0.4981 0.12935 0.53426 0.0
S228 S 0.46287 0.8374 0.41004 0.0
N229 N 0.50636 0.82779 0.44705 0.0
N230 N 0.44285 0.93363 0.42134 0.0
C231 C 0.47155 0.96317 0.4568 0.0
C232 C 0.50618 0.90491 0.47079 0.0
C233 C 0.97648 0.96958 0.52877 0.0
C234 C 0.97023 0.05025 0.50501 0.0
C235 C 0.00998 0.91229 0.51391 0.0
C236 C 0.03912 0.93237 0.47434 0.0
H237 H 0.95522 0.94995 0.5596 0.0
H238 H 0.01313 0.85201 0.53385 0.0
S239 S 0.03748 0.13504 0.39918 0.0
N240 N 0.99648 0.1463 0.43959 0.0
N241 N 0.05911 0.04042 0.41133 0.0
C242 C 0.03314 0.01287 0.44999 0.0
C243 C 0.99894 0.07109 0.46528 0.0
C244 C 0.2123 0.51302 0.9366 0.0
C245 C 0.23414 0.59186 0.94094 0.0
C246 C 0.23621 0.43834 0.94584 0.0
C247 C 0.28173 0.44408 0.95454 0.0
H248 H 0.17687 0.50989 0.9404 0.0
H249 H 0.2184 0.38054 0.95564 0.0
S250 S 0.35278 0.62926 0.92459 0.0
N251 N 0.30204 0.66656 0.92197 0.0
N252 N 0.34819 0.52587 0.93672 0.0
C253 C 0.30375 0.51759 0.93749 0.0
C254 C 0.279 0.59307 0.92918 0.0
C255 C 0.29349 0.00492 0.54087 0.0
C256 C 0.2722 0.07847 0.52255 0.0
C257 C 0.26867 0.93131 0.55031 0.0
C258 C 0.22374 0.93191 0.53797 0.0
H259 H 0.32887 0.99868 0.53826 0.0
H260 H 0.28593 0.87096 0.55352 0.0
S261 S 0.153 0.12201 0.52667 0.0
N262 N 0.20375 0.15856 0.52091 0.0
N263 N 0.15759 0.01851 0.53838 0.0
C264 C 0.20203 0.0107 0.53978 0.0
C265 C 0.22676 0.08573 0.53006 0.0
C266 C 0.78146 0.59785 0.04212 0.0
C267 C 0.73598 0.59503 0.03274 0.0
C268 C 0.80619 0.52331 0.03623 0.0
C269 C 0.78474 0.44688 0.02313 0.0
H270 H 0.79863 0.65864 0.04156 0.0
H271 H 0.84147 0.52945 0.03197 0.0
S272 S 0.66574 0.40232 0.03165 0.0
N273 N 0.67014 0.50717 0.03791 0.0
N274 N 0.71655 0.36613 0.027 0.0
C275 C 0.73945 0.44035 0.03195 0.0
C276 C 0.71457 0.5161 0.03798 0.0
C277 C 0.70608 0.99617 0.44145 0.0
C278 C 0.72674 0.91611 0.44445 0.0
C279 C 0.73064 0.06892 0.45377 0.0
C280 C 0.77596 0.061 0.4631 0.0
H281 H 0.67062 1.00052 0.44408 0.0
H282 H 0.71336 0.12676 0.46442 0.0
S283 S 0.84527 0.87426 0.43216 0.0
N284 N 0.79415 0.83975 0.42634 0.0
N285 N 0.84173 0.97693 0.44654 0.0
C286 C 0.79743 0.98739 0.44553 0.0
C287 C 0.77189 0.9138 0.43425 0.0
loop_
_geom_bond_atom_site_label_1
_geom_bond_atom_site_label_2
_geom_bond_distance
_geom_bond_site_symmetry_2
_ccdc_geom_bond_type
Co0 O1 2.216 . S
Co0 O2 2.091 1_554 S
Co0 O4 2.004 . S
Co0 O10 2.021 . S
Co0 O12 2.137 . S
Co0 O13 2.244 . S
O1 Co0 2.216 . S
O1 C8 1.247 . S
O2 Co0 2.091 1_556 S
O2 C8 1.261 1_556 S
C3 O12 1.247 . S
C3 O13 1.272 . S
O4 Co0 2.004 . S
O4 C9 1.259 . S
Co5 O6 2.061 . S
Co5 O11 2.052 . S
Co5 O13 2.135 . S
O6 Co5 2.061 . S
O6 C9 1.235 . S
C7 O10 1.238 . S
C7 O11 1.241 . S
C8 O1 1.247 . S
C8 O2 1.261 1_554 S
C9 O4 1.259 . S
C9 O6 1.235 . S
O10 Co0 2.021 . S
O10 C7 1.238 . S
O11 Co5 2.052 . S
O11 C7 1.241 . S
O12 Co0 2.137 . S
O12 C3 1.247 . S
O13 Co0 2.244 . S
O13 C3 1.272 . S
O13 Co5 2.135 . S
Co14 O15 2.216 . S
Co14 O16 2.091 1_554 S
Co14 O18 2.004 . S
Co14 O24 2.021 . S
Co14 O26 2.137 . S
Co14 O27 2.244 . S
O15 Co14 2.216 . S
O15 C22 1.247 . S
O16 Co14 2.091 1_556 S
O16 C22 1.261 1_556 S
C17 O26 1.247 . S
C17 O27 1.272 . S
O18 Co14 2.004 . S
O18 C23 1.259 . S
Co19 O20 2.061 . S
Co19 O25 2.052 . S
Co19 O27 2.135 . S
O20 Co19 2.061 . S
O20 C23 1.235 . S
C21 O24 1.238 . S
C21 O25 1.241 . S
C22 O15 1.247 . S
C22 O16 1.261 1_554 S
C23 O18 1.259 . S
C23 O20 1.235 . S
O24 Co14 2.021 . S
O24 C21 1.238 . S
O25 Co19 2.052 . S
O25 C21 1.241 . S
O26 Co14 2.137 . S
O26 C17 1.247 . S
O27 Co14 2.244 . S
O27 C17 1.272 . S
O27 Co19 2.135 . S
Co28 O29 2.216 . S
Co28 O30 2.091 . S
Co28 O32 2.004 . S
Co28 O38 2.021 . S
Co28 O40 2.137 . S
Co28 O41 2.244 . S
O29 Co28 2.216 . S
O29 C36 1.247 . S
O30 Co28 2.091 . S
O30 C36 1.261 . S
C31 O40 1.247 . S
C31 O41 1.272 . S
O32 Co28 2.004 . S
O32 C37 1.259 . S
Co33 O34 2.061 . S
Co33 O39 2.052 . S
Co33 O41 2.135 . S
O34 Co33 2.061 . S
O34 C37 1.235 . S
C35 O38 1.238 . S
C35 O39 1.241 . S
C36 O29 1.247 . S
C36 O30 1.261 . S
C37 O32 1.259 . S
C37 O34 1.235 . S
O38 Co28 2.021 . S
O38 C35 1.238 . S
O39 Co33 2.052 . S
O39 C35 1.241 . S
O40 Co28 2.137 . S
O40 C31 1.247 . S
O41 Co28 2.244 . S
O41 C31 1.272 . S
O41 Co33 2.135 . S
Co42 O43 2.216 . S
Co42 O44 2.091 . S
Co42 O46 2.004 . S
Co42 O52 2.021 . S
Co42 O54 2.137 . S
Co42 O55 2.244 . S
O43 Co42 2.216 . S
O43 C50 1.247 . S
O44 Co42 2.091 . S
O44 C50 1.261 . S
C45 O54 1.247 . S
C45 O55 1.272 . S
O46 Co42 2.004 . S
O46 C51 1.259 . S
Co47 O48 2.061 . S
Co47 O53 2.052 . S
Co47 O55 2.135 . S
O48 Co47 2.061 . S
O48 C51 1.235 . S
C49 O52 1.238 . S
C49 O53 1.241 . S
C50 O43 1.247 . S
C50 O44 1.261 . S
C51 O46 1.259 . S
C51 O48 1.235 . S
O52 Co42 2.021 . S
O52 C49 1.238 . S
O53 Co47 2.052 . S
O53 C49 1.241 . S
O54 Co42 2.137 . S
O54 C45 1.247 . S
O55 Co42 2.244 . S
O55 C45 1.272 . S
O55 Co47 2.135 . S
Co56 O57 2.216 . S
Co56 O58 2.091 1_556 S
Co56 O60 2.004 . S
Co56 O66 2.021 . S
Co56 O68 2.137 . S
Co56 O69 2.244 . S
O57 Co56 2.216 . S
O57 C64 1.247 . S
O58 Co56 2.091 1_554 S
O58 C64 1.261 1_554 S
C59 O68 1.247 . S
C59 O69 1.272 . S
O60 Co56 2.004 . S
O60 C65 1.259 . S
Co61 O62 2.061 . S
Co61 O67 2.052 . S
Co61 O69 2.135 . S
O62 Co61 2.061 . S
O62 C65 1.235 . S
C63 O66 1.238 . S
C63 O67 1.241 . S
C64 O57 1.247 . S
C64 O58 1.261 1_556 S
C65 O60 1.259 . S
C65 O62 1.235 . S
O66 Co56 2.021 . S
O66 C63 1.238 . S
O67 Co61 2.052 . S
O67 C63 1.241 . S
O68 Co56 2.137 . S
O68 C59 1.247 . S
O69 Co56 2.244 . S
O69 C59 1.272 . S
O69 Co61 2.135 . S
Co70 O71 2.216 . S
Co70 O72 2.091 1_556 S
Co70 O74 2.004 . S
Co70 O80 2.021 . S
Co70 O82 2.137 . S
Co70 O83 2.244 . S
O71 Co70 2.216 . S
O71 C78 1.247 . S
O72 Co70 2.091 1_554 S
O72 C78 1.261 1_554 S
C73 O82 1.247 . S
C73 O83 1.272 . S
O74 Co70 2.004 . S
O74 C79 1.259 . S
Co75 O76 2.061 . S
Co75 O81 2.052 . S
Co75 O83 2.135 . S
O76 Co75 2.061 . S
O76 C79 1.235 . S
C77 O80 1.238 . S
C77 O81 1.241 . S
C78 O71 1.247 . S
C78 O72 1.261 1_556 S
C79 O74 1.259 . S
C79 O76 1.235 . S
O80 Co70 2.021 . S
O80 C77 1.238 . S
O81 Co75 2.052 . S
O81 C77 1.241 . S
O82 Co70 2.137 . S
O82 C73 1.247 . S
O83 Co70 2.244 . S
O83 C73 1.272 . S
O83 Co75 2.135 . S
Co84 O85 2.216 . S
Co84 O86 2.091 . S
Co84 O88 2.004 . S
Co84 O94 2.021 . S
Co84 O96 2.137 . S
Co84 O97 2.244 . S
O85 Co84 2.216 . S
O85 C92 1.247 . S
O86 Co84 2.091 . S
O86 C92 1.261 . S
C87 O96 1.247 . S
C87 O97 1.272 . S
O88 Co84 2.004 . S
O88 C93 1.259 . S
Co89 O90 2.061 . S
Co89 O95 2.052 . S
Co89 O97 2.135 . S
O90 Co89 2.061 . S
O90 C93 1.235 . S
C91 O94 1.238 . S
C91 O95 1.241 . S
C92 O85 1.247 . S
C92 O86 1.261 . S
C93 O88 1.259 . S
C93 O90 1.235 . S
O94 Co84 2.021 . S
O94 C91 1.238 . S
O95 Co89 2.052 . S
O95 C91 1.241 . S
O96 Co84 2.137 . S
O96 C87 1.247 . S
O97 Co84 2.244 . S
O97 C87 1.272 . S
O97 Co89 2.135 . S
Co98 O99 2.216 . S
Co98 O100 2.091 . S
Co98 O102 2.004 . S
Co98 O108 2.021 . S
Co98 O110 2.137 . S
Co98 O111 2.244 . S
O99 Co98 2.216 . S
O99 C106 1.247 . S
O100 Co98 2.091 . S
O100 C106 1.261 . S
C101 O110 1.247 . S
C101 O111 1.272 . S
O102 Co98 2.004 . S
O102 C107 1.259 . S
Co103 O104 2.061 . S
Co103 O109 2.052 . S
Co103 O111 2.135 . S
O104 Co103 2.061 . S
O104 C107 1.235 . S
C105 O108 1.238 . S
C105 O109 1.241 . S
C106 O99 1.247 . S
C106 O100 1.261 . S
C107 O102 1.259 . S
C107 O104 1.235 . S
O108 Co98 2.021 . S
O108 C105 1.238 . S
O109 Co103 2.052 . S
O109 C105 1.241 . S
O110 Co98 2.137 . S
O110 C101 1.247 . S
O111 Co98 2.244 . S
O111 C101 1.272 . S
O111 Co103 2.135 . S
C112 C113 1.369 1_565 S
C112 C114 1.419 . S
C112 H116 0.930 . S
C113 C112 1.369 1_545 S
C113 C122 1.429 . S
C114 C112 1.419 . S
C114 C115 1.363 . S
C114 H117 0.929 . S
C115 C114 1.363 . S
C115 C121 1.428 1_565 S
H116 C112 0.930 . S
H117 C114 0.929 . S
S118 N119 1.613 1_556 S
S118 N120 1.611 . S
N119 S118 1.613 1_554 S
N119 C122 1.350 . S
N120 S118 1.611 . S
N120 C121 1.350 1_556 S
C121 C115 1.428 1_545 S
C121 N120 1.350 1_554 S
C121 C122 1.434 . S
C122 C113 1.429 . S
C122 N119 1.350 . S
C122 C121 1.434 . S
C123 C124 1.369 . S
C123 C125 1.419 . S
C123 H127 0.930 . S
C124 C123 1.369 . S
C124 C133 1.429 . S
C125 C123 1.419 . S
C125 C126 1.363 . S
C125 H128 0.929 . S
C126 C125 1.363 . S
C126 C132 1.428 . S
H127 C123 0.930 . S
H128 C125 0.929 . S
S129 N130 1.613 . S
S129 N131 1.610 . S
N130 S129 1.613 . S
N130 C133 1.350 . S
N131 S129 1.610 . S
N131 C132 1.351 . S
C132 C126 1.428 . S
C132 N131 1.351 . S
C132 C133 1.434 . S
C133 C124 1.429 . S
C133 N130 1.350 . S
C133 C132 1.434 . S
C134 C135 1.369 . S
C134 C136 1.419 . S
C134 H138 0.930 . S
C135 C134 1.369 . S
C135 C144 1.429 1_566 S
C136 C134 1.419 . S
C136 C137 1.363 1_565 S
C136 H139 0.929 . S
C137 C136 1.363 1_545 S
C137 C143 1.428 1_556 S
H138 C134 0.930 . S
H139 C136 0.929 . S
S140 N141 1.613 . S
S140 N142 1.610 . S
N141 S140 1.613 . S
N141 C144 1.350 . S
N142 S140 1.610 . S
N142 C143 1.351 . S
C143 C137 1.428 1_554 S
C143 N142 1.351 . S
C143 C144 1.434 . S
C144 C135 1.429 1_544 S
C144 N141 1.350 . S
C144 C143 1.434 . S
C145 C146 1.369 . S
C145 C147 1.419 . S
C145 H149 0.930 . S
C146 C145 1.369 . S
C146 C155 1.429 . S
C147 C145 1.419 . S
C147 C148 1.363 . S
C147 H150 0.929 . S
C148 C147 1.363 . S
C148 C154 1.428 . S
H149 C145 0.930 . S
H150 C147 0.929 . S
S151 N152 1.613 . S
S151 N153 1.610 . S
N152 S151 1.613 . S
N152 C155 1.350 . S
N153 S151 1.610 . S
N153 C154 1.351 . S
C154 C148 1.428 . S
C154 N153 1.351 . S
C154 C155 1.434 . S
C155 C146 1.429 . S
C155 N152 1.350 . S
C155 C154 1.434 . S
C156 C157 1.369 . S
C156 C158 1.419 . S
C156 H160 0.930 . S
C157 C156 1.369 . S
C157 C166 1.429 . S
C158 C156 1.419 . S
C158 C159 1.363 . S
C158 H161 0.929 . S
C159 C158 1.363 . S
C159 C165 1.428 . S
H160 C156 0.930 . S
H161 C158 0.929 . S
S162 N163 1.613 . S
S162 N164 1.610 . S
N163 S162 1.613 . S
N163 C166 1.350 . S
N164 S162 1.610 . S
N164 C165 1.351 . S
C165 C159 1.428 . S
C165 N164 1.351 . S
C165 C166 1.434 . S
C166 C157 1.429 . S
C166 N163 1.350 . S
C166 C165 1.434 . S
C167 C168 1.369 . S
C167 C169 1.419 . S
C167 H171 0.930 . S
C168 C167 1.369 . S
C168 C177 1.429 . S
C169 C167 1.419 . S
C169 C170 1.363 . S
C169 H172 0.929 . S
C170 C169 1.363 . S
C170 C176 1.428 . S
H171 C167 0.930 . S
H172 C169 0.929 . S
S173 N174 1.613 . S
S173 N175 1.610 . S
N174 S173 1.613 . S
N174 C177 1.350 . S
N175 S173 1.610 . S
N175 C176 1.351 . S
C176 C170 1.428 . S
C176 N175 1.351 . S
C176 C177 1.434 . S
C177 C168 1.429 . S
C177 N174 1.350 . S
C177 C176 1.434 . S
C178 C179 1.369 . S
C178 C180 1.419 . S
C178 H182 0.930 . S
C179 C178 1.369 . S
C179 C188 1.429 . S
C180 C178 1.419 . S
C180 C181 1.363 . S
C180 H183 0.929 . S
C181 C180 1.363 . S
C181 C187 1.428 . S
H182 C178 0.930 . S
H183 C180 0.929 . S
S184 N185 1.613 . S
S184 N186 1.610 . S
N185 S184 1.613 . S
N185 C188 1.350 . S
N186 S184 1.610 . S
N186 C187 1.351 . S
C187 C181 1.428 . S
C187 N186 1.351 . S
C187 C188 1.434 . S
C188 C179 1.429 . S
C188 N185 1.350 . S
C188 C187 1.434 . S
C189 C190 1.369 . S
C189 C191 1.419 . S
C189 H193 0.930 . S
C190 C189 1.369 . S
C190 C199 1.429 . S
C191 C189 1.419 . S
C191 C192 1.363 . S
C191 H194 0.929 . S
C192 C191 1.363 . S
C192 C198 1.428 . S
H193 C189 0.930 . S
H194 C191 0.929 . S
S195 N196 1.613 . S
S195 N197 1.610 . S
N196 S195 1.613 . S
N196 C199 1.350 . S
N197 S195 1.610 . S
N197 C198 1.351 . S
C198 C192 1.428 . S
C198 N197 1.351 . S
C198 C199 1.434 . S
C199 C190 1.429 . S
C199 N196 1.350 . S
C199 C198 1.434 . S
C200 C201 1.369 . S
C200 C202 1.419 . S
C200 H204 0.930 . S
C201 C200 1.369 . S
C201 C210 1.429 1_556 S
C202 C200 1.419 . S
C202 C203 1.363 1_556 S
C202 H205 0.929 . S
C203 C202 1.363 1_554 S
C203 C209 1.428 . S
H204 C200 0.930 . S
H205 C202 0.929 . S
S206 N207 1.613 . S
S206 N208 1.610 . S
N207 S206 1.613 . S
N207 C210 1.350 . S
N208 S206 1.610 . S
N208 C209 1.351 . S
C209 C203 1.428 . S
C209 N208 1.351 . S
C209 C210 1.434 . S
C210 C201 1.429 1_554 S
C210 N207 1.350 . S
C210 C209 1.434 . S
C211 C212 1.369 1_654 S
C211 C213 1.419 . S
C211 H215 0.930 . S
C212 C211 1.369 1_456 S
C212 C221 1.429 . S
C213 C211 1.419 . S
C213 C214 1.363 . S
C213 H216 0.929 . S
C214 C213 1.363 . S
C214 C220 1.428 1_654 S
H215 C211 0.930 . S
H216 C213 0.929 . S
S217 N218 1.613 . S
S217 N219 1.610 . S
N218 S217 1.613 . S
N218 C221 1.350 . S
N219 S217 1.610 . S
N219 C220 1.351 . S
C220 C214 1.428 1_456 S
C220 N219 1.351 . S
C220 C221 1.434 . S
C221 C212 1.429 . S
C221 N218 1.350 . S
C221 C220 1.434 . S
C222 C223 1.373 . S
C222 C224 1.415 1_565 S
C222 H226 0.930 1_565 S
C223 C222 1.373 . S
C223 C232 1.429 . S
C224 C222 1.415 1_545 S
C224 C225 1.363 . S
C224 H227 0.929 . S
C225 C224 1.363 . S
C225 C231 1.428 1_545 S
H226 C222 0.930 1_545 S
H227 C224 0.929 . S
S228 N229 1.613 . S
S228 N230 1.610 . S
N229 S228 1.613 . S
N229 C232 1.350 . S
N230 S228 1.610 . S
N230 C231 1.351 . S
C231 C225 1.428 1_565 S
C231 N230 1.351 . S
C231 C232 1.434 . S
C232 C223 1.429 . S
C232 N229 1.350 . S
C232 C231 1.434 . S
C233 C234 1.369 . S
C233 C235 1.419 1_545 S
C233 H237 0.930 . S
C234 C233 1.369 . S
C234 C243 1.429 1_655 S
C235 C233 1.419 1_565 S
C235 C236 1.363 1_655 S
C235 H238 0.929 . S
C236 C235 1.363 1_455 S
C236 C242 1.428 . S
H237 C233 0.930 . S
H238 C235 0.929 . S
S239 N240 1.613 . S
S239 N241 1.610 1_545 S
N240 S239 1.613 . S
N240 C243 1.350 . S
N241 S239 1.610 1_565 S
N241 C242 1.351 . S
C242 C236 1.428 . S
C242 N241 1.351 . S
C242 C243 1.434 1_565 S
C243 C234 1.429 1_455 S
C243 N240 1.350 . S
C243 C242 1.434 1_545 S
C244 C245 1.369 . S
C244 C246 1.419 . S
C244 H248 0.930 . S
C245 C244 1.369 . S
C245 C254 1.429 1_554 S
C246 C244 1.419 . S
C246 C247 1.363 . S
C246 H249 0.929 . S
C247 C246 1.363 . S
C247 C253 1.428 1_554 S
H248 C244 0.930 . S
H249 C246 0.929 . S
S250 N251 1.613 . S
S250 N252 1.610 . S
N251 S250 1.613 . S
N251 C254 1.350 . S
N252 S250 1.610 . S
N252 C253 1.351 . S
C253 C247 1.428 1_556 S
C253 N252 1.351 . S
C253 C254 1.434 . S
C254 C245 1.429 1_556 S
C254 N251 1.350 . S
C254 C253 1.434 . S
C255 C256 1.369 . S
C255 C257 1.419 1_545 S
C255 H259 0.930 . S
C256 C255 1.369 . S
C256 C265 1.429 . S
C257 C255 1.419 1_565 S
C257 C258 1.363 . S
C257 H260 0.929 . S
C258 C257 1.363 . S
C258 C264 1.428 . S
H259 C255 0.930 . S
H260 C257 0.929 . S
S261 N262 1.613 . S
S261 N263 1.610 1_545 S
N262 S261 1.613 . S
N262 C265 1.350 . S
N263 S261 1.610 1_565 S
N263 C264 1.351 . S
C264 C258 1.428 . S
C264 N263 1.351 . S
C264 C265 1.434 1_565 S
C265 C256 1.429 . S
C265 N262 1.350 . S
C265 C264 1.434 1_545 S
C266 C267 1.369 1_554 S
C266 C268 1.419 . S
C266 H270 0.930 . S
C267 C266 1.369 1_556 S
C267 C276 1.429 . S
C268 C266 1.419 . S
C268 C269 1.363 1_554 S
C268 H271 0.929 . S
C269 C268 1.363 1_556 S
C269 C275 1.428 . S
H270 C266 0.930 . S
H271 C268 0.929 . S
S272 N273 1.613 . S
S272 N274 1.610 . S
N273 S272 1.613 . S
N273 C276 1.350 . S
N274 S272 1.610 . S
N274 C275 1.351 . S
C275 C269 1.428 . S
C275 N274 1.351 . S
C275 C276 1.434 . S
C276 C267 1.429 . S
C276 N273 1.350 . S
C276 C275 1.434 . S
C277 C278 1.369 1_545 S
C277 C279 1.419 . S
C277 H281 0.930 . S
C278 C277 1.369 1_565 S
C278 C287 1.429 . S
C279 C277 1.419 . S
C279 C280 1.363 . S
C279 H282 0.929 . S
C280 C279 1.363 . S
C280 C286 1.428 1_545 S
H281 C277 0.930 . S
H282 C279 0.929 . S
S283 N284 1.613 . S
S283 N285 1.610 . S
N284 S283 1.613 . S
N284 C287 1.350 . S
N285 S283 1.610 . S
N285 C286 1.351 . S
C286 C280 1.428 1_565 S
C286 N285 1.351 . S
C286 C287 1.434 . S
C287 C278 1.429 . S
C287 N284 1.350 . S
C287 C286 1.434 . S
C113 C9 1.538 . S
C115 C23 1.546 . S
C124 C51 1.537 . S
C126 C37 1.544 . S
C135 C65 1.548 . S
C137 C79 1.541 . S
C146 C93 1.544 . S
C148 C107 1.547 . S
C157 C3 1.670 . S
C159 C31 1.670 . S
C168 C45 1.671 . S
C170 C17 1.667 . S
C179 C59 1.671 . S
C181 C87 1.667 . S
C190 C101 1.666 . S
C192 C73 1.670 . S
C201 C8 1.536 1_556 S
C203 C64 1.536 1_554 S
C212 C22 1.535 1_556 S
C214 C78 1.536 1_554 S
C223 C92 1.540 . S
C225 C36 1.532 . S
C234 C106 1.540 . S
C236 C50 1.532 . S
C245 C21 1.152 . S
C247 C7 1.154 . S
C256 C35 1.142 . S
C258 C49 1.146 . S
C267 C63 1.145 . S
C269 C77 1.143 . S
C278 C91 1.142 . S
C280 C105 1.147 . S
