# Generated by pormake.
# Topology xfw, (5)-cn, num edge types: 1
# Building blocks:
#     Node 0, Type 0, BuildingBlock: BEQFEK_clean_sbu_0, # of connection points: 5
#     Node 1, Type 0, BuildingBlock: BEQFEK_clean_sbu_0, # of connection points: 5
#     Node 2, Type 0, BuildingBlock: BEQFEK_clean_sbu_0, # of connection points: 5
#     Node 3, Type 0, BuildingBlock: BEQFEK_clean_sbu_0, # of connection points: 5
#     Node 4, Type 0, BuildingBlock: BEQFEK_clean_sbu_0, # of connection points: 5
#     Node 5, Type 0, BuildingBlock: BEQFEK_clean_sbu_0, # of connection points: 5
#     Node 6, Type 0, BuildingBlock: BEQFEK_clean_sbu_0, # of connection points: 5
#     Node 7, Type 0, BuildingBlock: BEQFEK_clean_sbu_0, # of connection points: 5
#     Edge 8, Type (0, 0), BuildingBlock: AJUNOK_clean_linker_0, # of connection points: 2
#     Edge 9, Type (0, 0), BuildingBlock: AJUNOK_clean_linker_0, # of connection points: 2
#     Edge 10, Type (0, 0), BuildingBlock: AJUNOK_clean_linker_0, # of connection points: 2
#     Edge 11, Type (0, 0), BuildingBlock: AJUNOK_clean_linker_0, # of connection points: 2
#     Edge 12, Type (0, 0), BuildingBlock: AJUNOK_clean_linker_0, # of connection points: 2
#     Edge 13, Type (0, 0), BuildingBlock: AJUNOK_clean_linker_0, # of connection points: 2
#     Edge 14, Type (0, 0), BuildingBlock: AJUNOK_clean_linker_0, # of connection points: 2
#     Edge 15, Type (0, 0), BuildingBlock: AJUNOK_clean_linker_0, # of connection points: 2
#     Edge 16, Type (0, 0), BuildingBlock: AJUNOK_clean_linker_0, # of connection points: 2
#     Edge 17, Type (0, 0), BuildingBlock: AJUNOK_clean_linker_0, # of connection points: 2
#     Edge 18, Type (0, 0), BuildingBlock: AJUNOK_clean_linker_0, # of connection points: 2
#     Edge 19, Type (0, 0), BuildingBlock: AJUNOK_clean_linker_0, # of connection points: 2
#     Edge 20, Type (0, 0), BuildingBlock: AJUNOK_clean_linker_0, # of connection points: 2
#     Edge 21, Type (0, 0), BuildingBlock: AJUNOK_clean_linker_0, # of connection points: 2
#     Edge 22, Type (0, 0), BuildingBlock: AJUNOK_clean_linker_0, # of connection points: 2
#     Edge 23, Type (0, 0), BuildingBlock: AJUNOK_clean_linker_0, # of connection points: 2
#     Edge 24, Type (0, 0), BuildingBlock: AJUNOK_clean_linker_0, # of connection points: 2
#     Edge 25, Type (0, 0), BuildingBlock: AJUNOK_clean_linker_0, # of connection points: 2
#     Edge 26, Type (0, 0), BuildingBlock: AJUNOK_clean_linker_0, # of connection points: 2
#     Edge 27, Type (0, 0), BuildingBlock: AJUNOK_clean_linker_0, # of connection points: 2
# Relax obj value: 0.335
# Max RMSD: 0.196
# Mean RMSD: 0.196
data_MOF--net-xfw--node1-BEQFEK_clean_sbu_0--edge1-AJUNOK_clean_linker_0
_symmetry_space_group_name_H-M    P1
_symmetry_Int_Tables_number       1
_symmetry_cell_setting            triclinic
loop_
_symmetry_equiv_pos_as_xyz
'x, y, z'
_cell_length_a     22.595057
_cell_length_b     22.606271
_cell_length_c     47.735777
_cell_angle_alpha  90.16696
_cell_angle_beta   89.968819
_cell_angle_gamma 89.304276
loop_
_atom_site_label
_atom_site_type_symbol
_atom_site_fract_x
_atom_site_fract_y
_atom_site_fract_z
_atom_type_partial_charge
Co0 Co 0.20407 -0.00222 0.59813 0.0
Co1 Co 0.20537 0.10792 0.63884 0.0
C2 C 0.10498 0.01906 0.6362 0.0
O3 O 0.13032 -0.01451 0.61833 0.0
O4 O 0.12876 0.06655 0.64487 0.0
C5 C 0.19997 0.88196 0.57167 0.0
O6 O 0.17432 0.86543 0.59503 0.0
C7 C 0.21601 0.14653 0.69683 0.0
C8 C 0.21629 0.24395 0.69381 0.0
C9 C 0.21824 0.19777 0.71285 0.0
N10 N 0.21378 0.16161 0.66963 0.0
N11 N 0.21423 0.21996 0.66792 0.0
C12 C 0.2111 0.08425 0.70711 0.0
H13 H 0.25609 0.06505 0.70989 0.0
H14 H 0.18776 0.08297 0.72757 0.0
H15 H 0.18763 0.05657 0.69158 0.0
C16 C 0.3167 0.97328 0.6252 0.0
N17 N 0.26644 0.00498 0.62327 0.0
N18 N 0.27095 0.05379 0.63813 0.0
C19 C 0.3261 0.05608 0.64887 0.0
C20 C 0.35692 0.00513 0.64089 0.0
C21 C 0.32673 0.91493 0.61093 0.0
H22 H 0.28892 0.8856 0.61537 0.0
H23 H 0.36825 0.89318 0.61818 0.0
H24 H 0.32885 0.92153 0.58794 0.0
O25 O 0.19622 0.0705 0.57567 0.0
O26 O 0.1978 0.15085 0.60259 0.0
H27 H 0.39953 0.11283 0.65869 0.0
H28 H 0.34487 0.10597 0.68578 0.0
C29 C 0.35134 0.10952 0.66282 0.0
H30 H 0.32852 0.15023 0.65537 0.0
H31 H 0.21179 0.24337 0.64916 0.0
O32 O 0.21771 0.93484 0.56963 0.0
C33 C 0.19454 0.12646 0.57853 0.0
Co34 Co 0.00382 0.75551 0.45302 0.0
Co35 Co 0.1074 0.76473 0.40917 0.0
C36 C 0.01324 0.85945 0.41547 0.0
O37 O -0.01533 0.83041 0.4337 0.0
O38 O 0.06118 0.83941 0.40494 0.0
C39 C 0.88787 0.756 0.47832 0.0
O40 O 0.87029 0.77572 0.4538 0.0
C41 C 0.14533 0.77204 0.35112 0.0
C42 C 0.23999 0.74726 0.35269 0.0
C43 C 0.19496 0.76302 0.33424 0.0
N44 N 0.16038 0.76158 0.37791 0.0
N45 N 0.21718 0.74726 0.37879 0.0
C46 C 0.08304 0.78522 0.34214 0.0
H47 H 0.05127 0.77032 0.35831 0.0
H48 H 0.07309 0.76312 0.32193 0.0
H49 H 0.07721 0.8337 0.33959 0.0
C50 C -0.0091 0.63907 0.4271 0.0
N51 N 0.01546 0.69279 0.42799 0.0
N52 N 0.05784 0.69594 0.40914 0.0
C53 C 0.06037 0.64409 0.39499 0.0
C54 C 0.0182 0.60623 0.40604 0.0
C55 C 0.94771 0.61778 0.44856 0.0
H56 H 0.96156 0.6327 0.46967 0.0
H57 H 0.90346 0.6374 0.44412 0.0
H58 H 0.94445 0.5689 0.44873 0.0
O59 O 0.07599 0.76603 0.47464 0.0
O60 O 0.15241 0.77225 0.44547 0.0
H61 H 0.14823 0.63596 0.37839 0.0
H62 H 0.09522 0.58671 0.36216 0.0
C63 C 0.10184 0.63137 0.37118 0.0
H64 H 0.0938 0.66378 0.35428 0.0
H65 H 0.24008 0.73662 0.39709 0.0
O66 O 0.94185 0.74135 0.4815 0.0
C67 C 0.13106 0.77173 0.47025 0.0
Co68 Co 0.76273 0.97576 0.59553 0.0
Co69 Co 0.76479 0.86882 0.63796 0.0
C70 C 0.86065 0.96192 0.63523 0.0
O71 O 0.83487 -0.00762 0.61639 0.0
O72 O 0.83898 0.91387 0.64435 0.0
C73 C 0.76213 0.09113 0.56832 0.0
O74 O 0.78453 0.11064 0.59196 0.0
C75 C 0.76053 0.82936 0.69604 0.0
C76 C 0.7483 0.73287 0.69226 0.0
C77 C 0.75458 0.77809 0.71166 0.0
N78 N 0.7571 0.81526 0.66872 0.0
N79 N 0.74967 0.7575 0.66657 0.0
C80 C 0.77409 0.89025 0.70648 0.0
H81 H 0.81757 0.9039 0.69807 0.0
H82 H 0.74033 0.92197 0.69845 0.0
H83 H 0.77586 0.89248 0.72965 0.0
C84 C 0.64832 -0.00248 0.62183 0.0
N85 N 0.69961 0.96741 0.62024 0.0
N86 N 0.69737 0.92046 0.63641 0.0
C87 C 0.64297 0.91799 0.64797 0.0
C88 C 0.61006 0.96667 0.63894 0.0
C89 C 0.63574 0.05373 0.60629 0.0
H90 H 0.67189 0.08536 0.61027 0.0
H91 H 0.59313 0.07432 0.61294 0.0
H92 H 0.6345 0.04453 0.58346 0.0
O93 O 0.77462 0.90224 0.5738 0.0
O94 O 0.77525 0.82444 0.60213 0.0
H95 H 0.57192 0.86501 0.66455 0.0
H96 H 0.63646 0.87081 0.68647 0.0
C97 C 0.62098 0.86659 0.66452 0.0
H98 H 0.63924 0.82468 0.65577 0.0
H99 H 0.74626 0.73485 0.64759 0.0
O100 O 0.74816 0.03703 0.56647 0.0
C101 C 0.77877 0.84669 0.57768 0.0
Co102 Co 0.96638 0.2097 0.45365 0.0
Co103 Co 0.86587 0.20846 0.40774 0.0
C104 C 0.95066 0.1066 0.41527 0.0
O105 O 0.98 0.13346 0.43407 0.0
O106 O 0.90547 0.13015 0.40371 0.0
C107 C 0.08316 0.20686 0.47847 0.0
O108 O 0.10067 0.19087 0.45329 0.0
C109 C 0.81998 0.1967 0.35061 0.0
C110 C 0.7426 0.25733 0.35069 0.0
C111 C 0.77592 0.22012 0.33363 0.0
N112 N 0.81314 0.21891 0.3766 0.0
N113 N 0.76631 0.25459 0.37659 0.0
C114 C 0.87141 0.15876 0.34171 0.0
H115 H 0.91246 0.17453 0.3519 0.0
H116 H 0.87714 0.15903 0.31862 0.0
H117 H 0.86381 0.11266 0.34864 0.0
C118 C -0.00916 0.32405 0.42806 0.0
N119 N 0.96168 0.27269 0.42857 0.0
N120 N 0.92219 0.27177 0.40834 0.0
C121 C 0.92711 0.32209 0.39336 0.0
C122 C 0.97083 0.35694 0.40534 0.0
C123 C 0.02953 0.34444 0.45161 0.0
H124 H 0.01209 0.3282 0.47184 0.0
H125 H 0.07481 0.32589 0.44868 0.0
H126 H 0.0318 0.39336 0.45266 0.0
O127 O 0.89269 0.20453 0.47447 0.0
O128 O 0.81895 0.20384 0.44364 0.0
H129 H 0.84469 0.34804 0.37494 0.0
H130 H 0.90888 0.37475 0.35648 0.0
C131 C 0.89044 0.33685 0.36819 0.0
H132 H 0.88888 0.29807 0.354 0.0
H133 H 0.75182 0.27868 0.39401 0.0
O134 O 0.02884 0.21929 0.48242 0.0
C135 C 0.83785 0.20222 0.46885 0.0
Co136 Co 0.76221 0.00174 0.09208 0.0
Co137 Co 0.76647 0.10226 0.13822 0.0
C138 C 0.86601 0.01471 0.13008 0.0
O139 O 0.83837 -0.01422 0.11138 0.0
O140 O 0.84341 0.06037 0.14169 0.0
C141 C 0.76368 0.88578 0.06617 0.0
O142 O 0.7817 0.86729 0.09084 0.0
C143 C 0.77904 0.14793 0.19566 0.0
C144 C 0.71761 0.22464 0.19591 0.0
C145 C 0.7538 0.19067 0.21309 0.0
N146 N 0.75712 0.15503 0.16965 0.0
N147 N 0.72121 0.20165 0.16985 0.0
C148 C 0.82522 0.10256 0.20307 0.0
H149 H 0.86363 0.10719 0.18882 0.0
H150 H 0.80698 0.05763 0.20004 0.0
H151 H 0.84128 0.10786 0.22486 0.0
C152 C 0.64644 0.98168 0.11766 0.0
N153 N 0.69904 0.00867 0.11716 0.0
N154 N 0.7016 0.04771 0.1376 0.0
C155 C 0.65133 0.0443 0.15282 0.0
C156 C 0.61422 0.003 0.14041 0.0
C157 C 0.62518 0.94209 0.09462 0.0
H158 H 0.64172 0.8964 0.09842 0.0
H159 H 0.5762 0.94169 0.09336 0.0
H160 H 0.64271 0.9572 0.07421 0.0
O161 O 0.76945 0.07526 0.0715 0.0
O162 O 0.77189 0.14911 0.10234 0.0
H163 H 0.6308 0.12462 0.17471 0.0
H164 H 0.6026 0.0589 0.1913 0.0
C165 C 0.64036 0.07753 0.17951 0.0
H166 H 0.6804 0.07516 0.19286 0.0
H167 H 0.69743 0.21641 0.15245 0.0
O168 O 0.75082 0.94016 0.06301 0.0
C169 C 0.77298 0.13003 0.07712 0.0
Co170 Co -0.00072 0.20327 0.94952 0.0
Co171 Co 0.10769 0.20253 0.90782 0.0
C172 C 0.01523 0.10552 0.90991 0.0
O173 O 0.98367 0.13112 0.9285 0.0
O174 O 0.06349 0.1276 0.90118 0.0
C175 C 0.88371 0.20334 0.97704 0.0
O176 O 0.86406 0.18009 0.9536 0.0
C177 C 0.14805 0.21103 0.84983 0.0
C178 C 0.24526 0.21324 0.85397 0.0
C179 C 0.20004 0.21287 0.83431 0.0
N180 N 0.1619 0.21041 0.87722 0.0
N181 N 0.22013 0.21209 0.87958 0.0
C182 C 0.0862 0.2058 0.83895 0.0
H183 H 0.05589 0.19051 0.85562 0.0
H184 H 0.07028 0.2498 0.83178 0.0
H185 H 0.08509 0.17494 0.82083 0.0
C186 C 0.97683 0.31723 0.92328 0.0
N187 N 0.00769 0.26643 0.92498 0.0
N188 N 0.05551 0.2696 0.90935 0.0
C189 C 0.05794 0.3243 0.89821 0.0
C190 C 0.00815 0.35627 0.90679 0.0
C191 C 0.91916 0.32839 0.93796 0.0
H192 H 0.88893 0.2912 0.93365 0.0
H193 H 0.89783 0.37023 0.93089 0.0
H194 H 0.92666 0.33035 0.9609 0.0
O195 O 0.07238 0.19179 0.97149 0.0
O196 O 0.15135 0.19244 0.94378 0.0
H197 H 0.11365 0.39641 0.88537 0.0
H198 H 0.10545 0.33783 0.86016 0.0
C199 C 0.11033 0.34775 0.8828 0.0
H200 H 0.15159 0.32617 0.89041 0.0
H201 H 0.24272 0.21121 0.89862 0.0
O202 O 0.93773 0.21777 0.97858 0.0
C203 C 0.12815 0.18834 0.96803 0.0
Co204 Co 0.21756 0.96236 0.09233 0.0
Co205 Co 0.2096 0.85935 0.13636 0.0
C206 C 0.11342 0.952 0.1297 0.0
O207 O 0.14227 0.98078 0.11149 0.0
O208 O 0.13403 0.90451 0.14033 0.0
C209 C 0.21628 0.07823 0.06733 0.0
O210 O 0.19633 0.09534 0.09195 0.0
C211 C 0.20345 0.8244 0.1947 0.0
C212 C 0.22486 0.72897 0.19387 0.0
C213 C 0.21099 0.77536 0.21199 0.0
N214 N 0.21282 0.80772 0.168 0.0
N215 N 0.22522 0.75049 0.16756 0.0
C216 C 0.19201 0.8874 0.20312 0.0
H217 H 0.20741 0.91793 0.18656 0.0
H218 H 0.21468 0.89777 0.22313 0.0
H219 H 0.1437 0.89461 0.20586 0.0
C220 C 0.33255 0.97914 0.119 0.0
N221 N 0.27987 0.95253 0.11764 0.0
N222 N 0.27763 0.90989 0.13631 0.0
C223 C 0.32924 0.9088 0.15063 0.0
C224 C 0.36547 0.95318 0.14034 0.0
C225 C 0.35342 0.02234 0.09749 0.0
H226 H 0.33967 0.00753 0.07634 0.0
H227 H 0.33249 0.06616 0.1016 0.0
H228 H 0.40222 0.02684 0.09759 0.0
O229 O 0.20794 0.88948 0.07093 0.0
O230 O 0.20297 0.81349 0.10029 0.0
H231 H 0.33519 0.81979 0.16582 0.0
H232 H 0.39034 0.86867 0.18042 0.0
C233 C 0.34385 0.86537 0.17331 0.0
H234 H 0.31508 0.87433 0.19163 0.0
H235 H 0.23451 0.72634 0.1494 0.0
O236 O 0.23117 0.02437 0.06386 0.0
C237 C 0.2027 0.83443 0.07545 0.0
Co238 Co 0.97737 0.76256 0.94696 0.0
Co239 Co 0.8682 0.76207 0.90581 0.0
C240 C 0.95851 0.86112 0.90846 0.0
O241 O -0.00865 0.83568 0.92652 0.0
O242 O 0.91092 0.83776 0.89967 0.0
C243 C 0.0932 0.76337 0.97415 0.0
O244 O 0.11244 0.78705 0.95079 0.0
C245 C 0.82711 0.75491 0.84797 0.0
C246 C 0.72989 0.75439 0.85241 0.0
C247 C 0.77489 0.75487 0.83262 0.0
N248 N 0.81362 0.7545 0.8754 0.0
N249 N 0.75538 0.75374 0.87794 0.0
C250 C 0.88885 0.75994 0.83693 0.0
H251 H 0.91972 0.77328 0.85379 0.0
H252 H 0.90379 0.71632 0.82871 0.0
H253 H 0.89018 0.79227 0.81949 0.0
C254 C 0.00029 0.64868 0.92043 0.0
N255 N 0.96947 0.69954 0.92206 0.0
N256 N 0.92135 0.69585 0.90669 0.0
C257 C 0.91873 0.64084 0.89577 0.0
C258 C 0.96864 0.60911 0.90428 0.0
C259 C 0.05741 0.63734 0.93549 0.0
H260 H 0.08816 0.67407 0.93125 0.0
H261 H 0.07845 0.59505 0.9287 0.0
H262 H 0.04922 0.63605 0.95839 0.0
O263 O 0.90449 0.77266 0.96931 0.0
O264 O 0.82503 0.77102 0.94197 0.0
H265 H 0.86335 0.56819 0.88302 0.0
H266 H 0.86936 0.62763 0.85824 0.0
C267 C 0.86588 0.61696 0.88084 0.0
H268 H 0.82478 0.63787 0.88913 0.0
H269 H 0.73305 0.75447 0.89706 0.0
O270 O 0.03934 0.74846 0.97575 0.0
C271 C 0.84863 0.7753 0.96612 0.0
C272 C 0.21534 0.86726 0.52001 0.0
C273 C 0.1979 0.84407 0.54615 0.0
C274 C 0.20023 0.83911 0.49478 0.0
C275 C 0.16722 0.78692 0.4949 0.0
H276 H 0.23684 0.90975 0.51883 0.0
H277 H 0.20932 0.8614 0.4752 0.0
S278 S 0.12294 0.7008 0.55729 0.0
N279 N 0.15537 0.75988 0.5703 0.0
N280 N 0.12648 0.70779 0.52291 0.0
C281 C 0.15568 0.75982 0.52075 0.0
C282 C 0.17116 0.78819 0.5464 0.0
C283 C 0.77509 0.82699 0.52648 0.0
C284 C 0.79511 0.80981 0.55318 0.0
C285 C 0.80175 0.80474 0.50209 0.0
C286 C 0.85024 0.76523 0.5035 0.0
H287 H 0.74095 0.86079 0.52442 0.0
H288 H 0.78712 0.82236 0.48215 0.0
S289 S 0.913 0.69903 0.5683 0.0
N290 N 0.86085 0.74504 0.57961 0.0
N291 N 0.9116 0.70337 0.53377 0.0
C292 C 0.86698 0.74342 0.53003 0.0
C293 C 0.83922 0.76567 0.55489 0.0
C294 C 0.79319 0.18291 0.54353 0.0
C295 C 0.76435 0.12812 0.54262 0.0
C296 C 0.8104 0.21141 0.51888 0.0
C297 C 0.79876 0.18668 0.49241 0.0
H298 H 0.80701 0.20169 0.56334 0.0
H299 H 0.83757 0.25044 0.5206 0.0
S300 S 0.71362 0.05086 0.47827 0.0
N301 N 0.71616 0.05538 0.51279 0.0
N302 N 0.74898 0.1093 0.46654 0.0
C303 C 0.76375 0.13592 0.49108 0.0
C304 C 0.74648 0.10647 0.5162 0.0
C305 C 0.13197 0.20186 0.55435 0.0
C306 C 0.17952 0.16136 0.5534 0.0
C307 C 0.10374 0.22034 0.52964 0.0
C308 C 0.12248 0.19932 0.50317 0.0
H309 H 0.11308 0.21516 0.5743 0.0
H310 H 0.0646 0.24824 0.53146 0.0
S311 S 0.25309 0.1021 0.48965 0.0
N312 N 0.24978 0.10769 0.52411 0.0
N313 N 0.19779 0.14311 0.47762 0.0
C314 C 0.17416 0.16401 0.50196 0.0
C315 C 0.20236 0.14475 0.52712 0.0
C316 C 0.83183 0.7721 1.01753 0.0
C317 C 0.81297 0.79159 0.99099 0.0
C318 C 0.81115 0.79931 0.0421 0.0
C319 C 0.77168 0.84784 0.04101 0.0
H320 H 0.86578 0.73803 1.01926 0.0
H321 H 0.82997 0.7851 0.06187 0.0
S322 S 0.70151 0.90937 0.97689 0.0
N323 N 0.74669 0.8569 0.96517 0.0
N324 N 0.70806 0.90871 1.01134 0.0
C325 C 0.74827 0.8641 1.01472 0.0
C326 C 0.76883 0.83576 0.98969 0.0
C327 C 0.76355 0.15688 0.0271 0.0
C328 C 0.78875 0.1686 0.05345 0.0
C329 C 0.79194 0.17342 1.00229 0.0
C330 C 0.84703 0.20174 1.00291 0.0
H331 H 0.72419 0.13012 0.02558 0.0
H332 H 0.77275 0.15954 0.98259 0.0
S333 S 0.92562 0.25257 0.06686 0.0
N334 N 0.86697 0.21794 0.0789 0.0
N335 N 0.92063 0.24962 0.03236 0.0
C336 C 0.86919 0.21976 0.02922 0.0
C337 C 0.83989 0.2031 0.0545 0.0
C338 C 0.14501 0.19072 1.01945 0.0
C339 C 0.16415 0.17208 0.99276 0.0
C340 C 0.16656 0.16377 0.04383 0.0
C341 C 0.20735 0.11636 0.0424 0.0
H342 H 0.11025 0.22393 1.02147 0.0
H343 H 0.14747 0.17723 0.0637 0.0
S344 S 0.27897 0.0578 0.97782 0.0
N345 N 0.2322 0.10907 0.96647 0.0
N346 N 0.27255 0.05776 1.01229 0.0
C347 C 0.23106 0.10112 1.01598 0.0
C348 C 0.20952 0.12918 0.99113 0.0
C349 C 0.18354 0.79616 0.99973 0.0
C350 C 0.12994 0.76518 0.99998 0.0
C351 C 0.21135 0.81242 0.02475 0.0
C352 C 0.18706 0.79779 0.05095 0.0
H353 H 0.20185 0.81217 0.98024 0.0
H354 H 0.24954 0.84087 0.02359 0.0
S355 S 0.05489 0.70598 0.06311 0.0
N356 N 0.05922 0.71168 0.02868 0.0
N357 N 0.11177 0.74279 0.07567 0.0
C358 C 0.13765 0.76082 0.0515 0.0
C359 C 0.10894 0.74444 0.02599 0.0
C360 C 0.5152 0.98191 0.66526 0.0
C361 C 0.54533 0.97442 0.63972 0.0
C362 C 0.45383 -0.00739 0.6657 0.0
C363 C 0.42153 -0.00387 0.6406 0.0
H364 H 0.53926 0.98007 0.68487 0.0
H365 H 0.43149 -0.00216 0.68566 0.0
S366 S 0.48053 0.98014 0.56843 0.0
N367 N 0.53824 0.96888 0.58897 0.0
N368 N 0.4245 -0.00572 0.58968 0.0
C369 C 0.45158 -0.01046 0.61503 0.0
C370 C 0.51316 0.97705 0.61462 0.0
C371 C 0.95079 0.52213 0.39672 0.0
C372 C 0.0088 0.54276 0.4001 0.0
C373 C 0.93891 0.4615 0.39677 0.0
C374 C -0.0151 0.41945 0.39931 0.0
H375 H 0.91395 0.55319 0.39575 0.0
H376 H 0.89316 0.4478 0.39649 0.0
S377 S 0.14513 0.45029 0.40496 0.0
N378 N 0.11299 0.51627 0.40477 0.0
N379 N 0.09113 0.40227 0.40154 0.0
C380 C 0.04351 0.43945 0.40011 0.0
C381 C 0.05543 0.50117 0.40128 0.0
C382 C 0.53128 0.93194 0.14558 0.0
C383 C 0.55128 -0.0094 0.14658 0.0
C384 C 0.47071 0.91949 0.14518 0.0
C385 C 0.42818 0.96518 0.1469 0.0
H386 H 0.56265 0.89562 0.14329 0.0
H387 H 0.45729 0.87419 0.14181 0.0
S388 S 0.45707 0.12552 0.15345 0.0
N389 N 0.52338 0.0946 0.15061 0.0
N390 N 0.4098 0.07043 0.15301 0.0
C391 C 0.44759 0.02346 0.15051 0.0
C392 C 0.50913 0.03642 0.14969 0.0
C393 C -0.00561 0.45084 0.88028 0.0
C394 C -0.00093 0.42082 0.90594 0.0
C395 C 0.98328 0.51211 0.87964 0.0
C396 C 0.97656 0.54441 0.90465 0.0
H397 H -0.00104 0.4268 0.86072 0.0
H398 H 0.98056 0.5344 0.85962 0.0
S399 S -0.01507 0.48596 0.97705 0.0
N400 N -0.00126 0.42822 0.95677 0.0
N401 N 0.97271 0.54174 0.95553 0.0
C402 C 0.98024 0.5145 0.93032 0.0
C403 C -0.00691 0.45303 0.93098 0.0
C404 C 0.02489 0.94728 0.64536 0.0
C405 C 0.04328 0.00634 0.6437 0.0
C406 C 0.96472 0.93336 0.64549 0.0
C407 C 0.92122 0.97805 0.6432 0.0
H408 H 0.05721 0.91148 0.64496 0.0
H409 H 0.9525 0.88716 0.645 0.0
S410 S 0.94616 0.13974 0.6421 0.0
N411 N 0.01329 0.11008 0.64314 0.0
N412 N 0.90002 0.08365 0.64251 0.0
C413 C 0.93889 0.03737 0.64373 0.0
C414 C 0.0001 0.05162 0.64424 0.0
C415 C 0.03913 0.96473 0.40736 0.0
C416 C -0.00468 0.92129 0.40983 0.0
C417 C 0.0242 0.02508 0.40779 0.0
C418 C 0.96489 0.0439 0.40974 0.0
H419 H 0.08556 0.95221 0.40697 0.0
H420 H 0.05939 0.05723 0.40754 0.0
S421 S 0.83332 0.94781 0.41398 0.0
N422 N 0.89009 0.90116 0.41265 0.0
N423 N 0.86183 0.01465 0.41232 0.0
C424 C 0.92042 0.00095 0.41031 0.0
C425 C 0.93571 0.93956 0.41065 0.0
C426 C 0.00786 0.9254 0.13671 0.0
C427 C 0.05138 0.96934 0.13529 0.0
C428 C 0.94748 0.94039 0.13626 0.0
C429 C 0.92872 -0.00019 0.13532 0.0
H430 H 0.02045 0.879 0.13633 0.0
H431 H 0.91529 0.90525 0.13577 0.0
S432 S 0.02517 0.13144 0.13385 0.0
N433 N 0.07172 0.07456 0.1344 0.0
N434 N 0.95824 0.10294 0.13468 0.0
C435 C 0.97178 0.04423 0.13572 0.0
C436 C 0.03318 0.02892 0.1354 0.0
C437 C 0.03094 0.9412 0.90024 0.0
C438 C 0.97178 0.92273 0.90105 0.0
C439 C 0.04479 0.00138 0.90022 0.0
C440 C -0.00014 0.04482 0.90176 0.0
H441 H 0.06677 0.90897 0.90121 0.0
H442 H 0.09092 0.01371 0.90139 0.0
S443 S 0.83813 0.01967 0.90057 0.0
N444 N 0.86795 0.95262 0.90005 0.0
N445 N 0.8942 0.06585 0.9009 0.0
C446 C 0.94062 0.02705 0.9004 0.0
C447 C 0.92648 0.96583 0.89978 0.0
C448 C 0.17436 0.24054 0.7566 0.0
C449 C 0.21668 0.20329 0.74377 0.0
C450 C 0.16954 0.24393 0.78588 0.0
C451 C 0.20716 0.21049 0.80339 0.0
H452 H 0.1439 0.26635 0.7439 0.0
H453 H 0.13639 0.27334 0.79479 0.0
S454 S 0.32981 0.11141 0.78002 0.0
N455 N 0.30026 0.1364 0.75065 0.0
N456 N 0.29087 0.14203 0.80564 0.0
C457 C 0.25131 0.175 0.79076 0.0
C458 C 0.25603 0.17141 0.76096 0.0
C459 C 0.16821 0.80844 0.25833 0.0
C460 C 0.20765 0.77187 0.24315 0.0
C461 C 0.16521 0.80628 0.28764 0.0
C462 C 0.19982 0.76583 0.30311 0.0
H463 H 0.13855 0.83864 0.24766 0.0
H464 H 0.13579 0.83722 0.2981 0.0
S465 S 0.30955 0.65906 0.27355 0.0
N466 N 0.28271 0.69409 0.24596 0.0
N467 N 0.27486 0.6879 0.3009 0.0
C468 C 0.23918 0.72857 0.28822 0.0
C469 C 0.24311 0.73161 0.25835 0.0
C470 C 0.80349 0.72597 0.78357 0.0
C471 C 0.7675 0.75972 0.80181 0.0
C472 C 0.79828 0.73142 0.75438 0.0
C473 C 0.75734 0.77123 0.74244 0.0
H474 H 0.83555 0.69468 0.79185 0.0
H475 H 0.82722 0.70508 0.74107 0.0
S476 S 0.64943 0.86608 0.78073 0.0
N477 N 0.68718 0.8319 0.80564 0.0
N478 N 0.67724 0.84163 0.7508 0.0
C479 C 0.7198 0.80376 0.76033 0.0
C480 C 0.72484 0.79803 0.79002 0.0
C481 C 0.77111 0.26071 0.28504 0.0
C482 C 0.76864 0.21186 0.30312 0.0
C483 C 0.7664 0.25338 0.25589 0.0
C484 C 0.75882 0.19702 0.24393 0.0
H485 H 0.77781 0.30469 0.29345 0.0
H486 H 0.76945 0.29199 0.2426 0.0
S487 S 0.74006 0.0566 0.28289 0.0
N488 N 0.75309 0.10634 0.30747 0.0
N489 N 0.74133 0.09275 0.25289 0.0
C490 C 0.75344 0.14829 0.26201 0.0
C491 C 0.75921 0.15567 0.29158 0.0
loop_
_geom_bond_atom_site_label_1
_geom_bond_atom_site_label_2
_geom_bond_distance
_geom_bond_site_symmetry_2
_ccdc_geom_bond_type
Co0 O3 1.970 . S
Co0 N17 1.989 . S
Co0 O25 1.967 . S
Co0 O32 1.920 . S
Co1 O4 1.966 . S
Co1 N10 2.022 . S
Co1 N18 1.993 . S
Co1 O26 1.941 . S
C2 O3 1.258 . S
C2 O4 1.263 . S
O3 Co0 1.970 . S
O3 C2 1.258 . S
O4 Co1 1.966 . S
O4 C2 1.263 . S
C5 O6 1.235 . S
C5 O32 1.289 1_565 S
O6 C5 1.235 . S
C7 C9 1.400 . S
C7 N10 1.351 . S
C7 C12 1.501 . S
C8 C9 1.387 . S
C8 N11 1.341 . S
C9 C7 1.400 . S
C9 C8 1.387 . S
N10 Co1 2.022 . S
N10 C7 1.351 . S
N10 N11 1.365 . S
N11 C8 1.341 . S
N11 N10 1.365 . S
N11 H31 0.862 . S
C12 C7 1.501 . S
C12 H13 0.961 . S
C12 H14 0.961 . S
C12 H15 0.960 . S
H13 C12 0.961 . S
H14 C12 0.961 . S
H15 C12 0.960 . S
C16 N17 1.342 . S
C16 C20 1.401 . S
C16 C21 1.499 . S
N17 Co0 1.989 . S
N17 C16 1.342 . S
N17 N18 1.388 . S
N18 Co1 1.993 . S
N18 N17 1.388 . S
N18 C19 1.346 . S
C19 N18 1.346 . S
C19 C20 1.396 . S
C19 C29 1.510 . S
C20 C16 1.401 . S
C20 C19 1.396 . S
C21 C16 1.499 . S
C21 H22 0.959 . S
C21 H23 0.960 1_545 S
C21 H24 0.961 . S
H22 C21 0.959 . S
H23 C21 0.960 1_565 S
H24 C21 0.961 . S
O25 Co0 1.967 . S
O25 C33 1.258 . S
O26 Co1 1.941 . S
O26 C33 1.266 . S
H27 C29 0.959 . S
H28 C29 0.961 . S
C29 C19 1.510 . S
C29 H27 0.959 . S
C29 H28 0.961 . S
C29 H30 0.960 . S
H30 C29 0.960 . S
H31 N11 0.862 . S
O32 Co0 1.920 . S
O32 C5 1.289 1_545 S
C33 O25 1.258 . S
C33 O26 1.266 . S
Co34 O37 1.970 . S
Co34 N51 1.989 . S
Co34 O59 1.967 . S
Co34 O66 1.920 . S
Co35 O38 1.966 . S
Co35 N44 2.022 . S
Co35 N52 1.993 . S
Co35 O60 1.941 . S
C36 O37 1.258 . S
C36 O38 1.263 . S
O37 Co34 1.970 . S
O37 C36 1.258 . S
O38 Co35 1.966 . S
O38 C36 1.263 . S
C39 O40 1.235 . S
C39 O66 1.289 1_655 S
O40 C39 1.235 . S
C41 C43 1.400 . S
C41 N44 1.351 . S
C41 C46 1.501 . S
C42 C43 1.387 . S
C42 N45 1.341 . S
C43 C41 1.400 . S
C43 C42 1.387 . S
N44 Co35 2.022 . S
N44 C41 1.351 . S
N44 N45 1.365 . S
N45 C42 1.341 . S
N45 N44 1.365 . S
N45 H65 0.862 . S
C46 C41 1.501 . S
C46 H47 0.961 . S
C46 H48 0.961 . S
C46 H49 0.960 . S
H47 C46 0.961 . S
H48 C46 0.961 . S
H49 C46 0.960 . S
C50 N51 1.342 . S
C50 C54 1.401 . S
C50 C55 1.499 . S
N51 Co34 1.989 . S
N51 C50 1.342 . S
N51 N52 1.388 . S
N52 Co35 1.993 . S
N52 N51 1.388 . S
N52 C53 1.346 . S
C53 N52 1.346 . S
C53 C54 1.396 . S
C53 C63 1.510 . S
C54 C50 1.401 . S
C54 C53 1.396 . S
C55 C50 1.499 . S
C55 H56 0.959 . S
C55 H57 0.960 1_455 S
C55 H58 0.961 . S
H56 C55 0.959 . S
H57 C55 0.960 1_655 S
H58 C55 0.961 . S
O59 Co34 1.967 . S
O59 C67 1.258 . S
O60 Co35 1.941 . S
O60 C67 1.266 . S
H61 C63 0.959 . S
H62 C63 0.961 . S
C63 C53 1.510 . S
C63 H61 0.959 . S
C63 H62 0.961 . S
C63 H64 0.960 . S
H64 C63 0.960 . S
H65 N45 0.862 . S
O66 Co34 1.920 . S
O66 C39 1.289 1_455 S
C67 O59 1.258 . S
C67 O60 1.266 . S
Co68 O71 1.970 . S
Co68 N85 1.989 . S
Co68 O93 1.967 . S
Co68 O100 1.920 . S
Co69 O72 1.966 . S
Co69 N78 2.022 . S
Co69 N86 1.993 . S
Co69 O94 1.941 . S
C70 O71 1.258 . S
C70 O72 1.263 . S
O71 Co68 1.970 . S
O71 C70 1.258 . S
O72 Co69 1.966 . S
O72 C70 1.263 . S
C73 O74 1.235 . S
C73 O100 1.289 1_545 S
O74 C73 1.235 . S
C75 C77 1.400 . S
C75 N78 1.351 . S
C75 C80 1.501 . S
C76 C77 1.387 . S
C76 N79 1.341 . S
C77 C75 1.400 . S
C77 C76 1.387 . S
N78 Co69 2.022 . S
N78 C75 1.351 . S
N78 N79 1.365 . S
N79 C76 1.341 . S
N79 N78 1.365 . S
N79 H99 0.862 . S
C80 C75 1.501 . S
C80 H81 0.961 . S
C80 H82 0.961 . S
C80 H83 0.960 . S
H81 C80 0.961 . S
H82 C80 0.961 . S
H83 C80 0.960 . S
C84 N85 1.342 . S
C84 C88 1.401 . S
C84 C89 1.499 . S
N85 Co68 1.989 . S
N85 C84 1.342 . S
N85 N86 1.388 . S
N86 Co69 1.993 . S
N86 N85 1.388 . S
N86 C87 1.346 . S
C87 N86 1.346 . S
C87 C88 1.396 . S
C87 C97 1.510 . S
C88 C84 1.401 . S
C88 C87 1.396 . S
C89 C84 1.499 . S
C89 H90 0.959 . S
C89 H91 0.960 1_565 S
C89 H92 0.961 . S
H90 C89 0.959 . S
H91 C89 0.960 1_545 S
H92 C89 0.961 . S
O93 Co68 1.967 . S
O93 C101 1.258 . S
O94 Co69 1.941 . S
O94 C101 1.266 . S
H95 C97 0.959 . S
H96 C97 0.961 . S
C97 C87 1.510 . S
C97 H95 0.959 . S
C97 H96 0.961 . S
C97 H98 0.960 . S
H98 C97 0.960 . S
H99 N79 0.862 . S
O100 Co68 1.920 . S
O100 C73 1.289 1_565 S
C101 O93 1.258 . S
C101 O94 1.266 . S
Co102 O105 1.970 . S
Co102 N119 1.989 . S
Co102 O127 1.967 . S
Co102 O134 1.920 . S
Co103 O106 1.966 . S
Co103 N112 2.022 . S
Co103 N120 1.993 . S
Co103 O128 1.941 . S
C104 O105 1.258 . S
C104 O106 1.263 . S
O105 Co102 1.970 . S
O105 C104 1.258 . S
O106 Co103 1.966 . S
O106 C104 1.263 . S
C107 O108 1.235 . S
C107 O134 1.289 1_455 S
O108 C107 1.235 . S
C109 C111 1.400 . S
C109 N112 1.351 . S
C109 C114 1.501 . S
C110 C111 1.387 . S
C110 N113 1.341 . S
C111 C109 1.400 . S
C111 C110 1.387 . S
N112 Co103 2.022 . S
N112 C109 1.351 . S
N112 N113 1.365 . S
N113 C110 1.341 . S
N113 N112 1.365 . S
N113 H133 0.862 . S
C114 C109 1.501 . S
C114 H115 0.961 . S
C114 H116 0.961 . S
C114 H117 0.960 . S
H115 C114 0.961 . S
H116 C114 0.961 . S
H117 C114 0.960 . S
C118 N119 1.342 . S
C118 C122 1.401 . S
C118 C123 1.499 . S
N119 Co102 1.989 . S
N119 C118 1.342 . S
N119 N120 1.388 . S
N120 Co103 1.993 . S
N120 N119 1.388 . S
N120 C121 1.346 . S
C121 N120 1.346 . S
C121 C122 1.396 . S
C121 C131 1.510 . S
C122 C118 1.401 . S
C122 C121 1.396 . S
C123 C118 1.499 . S
C123 H124 0.959 . S
C123 H125 0.960 1_655 S
C123 H126 0.961 . S
H124 C123 0.959 . S
H125 C123 0.960 1_455 S
H126 C123 0.961 . S
O127 Co102 1.967 . S
O127 C135 1.258 . S
O128 Co103 1.941 . S
O128 C135 1.266 . S
H129 C131 0.959 . S
H130 C131 0.961 . S
C131 C121 1.510 . S
C131 H129 0.959 . S
C131 H130 0.961 . S
C131 H132 0.960 . S
H132 C131 0.960 . S
H133 N113 0.862 . S
O134 Co102 1.920 . S
O134 C107 1.289 1_655 S
C135 O127 1.258 . S
C135 O128 1.266 . S
Co136 O139 1.970 . S
Co136 N153 1.989 . S
Co136 O161 1.967 . S
Co136 O168 1.920 . S
Co137 O140 1.966 . S
Co137 N146 2.022 . S
Co137 N154 1.993 . S
Co137 O162 1.941 . S
C138 O139 1.258 . S
C138 O140 1.263 . S
O139 Co136 1.970 . S
O139 C138 1.258 . S
O140 Co137 1.966 . S
O140 C138 1.263 . S
C141 O142 1.235 . S
C141 O168 1.289 1_565 S
O142 C141 1.235 . S
C143 C145 1.400 . S
C143 N146 1.351 . S
C143 C148 1.501 . S
C144 C145 1.387 . S
C144 N147 1.341 . S
C145 C143 1.400 . S
C145 C144 1.387 . S
N146 Co137 2.022 . S
N146 C143 1.351 . S
N146 N147 1.365 . S
N147 C144 1.341 . S
N147 N146 1.365 . S
N147 H167 0.862 . S
C148 C143 1.501 . S
C148 H149 0.961 . S
C148 H150 0.961 . S
C148 H151 0.960 . S
H149 C148 0.961 . S
H150 C148 0.961 . S
H151 C148 0.960 . S
C152 N153 1.342 . S
C152 C156 1.401 . S
C152 C157 1.499 . S
N153 Co136 1.989 . S
N153 C152 1.342 . S
N153 N154 1.388 . S
N154 Co137 1.993 . S
N154 N153 1.388 . S
N154 C155 1.346 . S
C155 N154 1.346 . S
C155 C156 1.396 . S
C155 C165 1.510 . S
C156 C152 1.401 . S
C156 C155 1.396 . S
C157 C152 1.499 . S
C157 H158 0.959 . S
C157 H159 0.960 1_545 S
C157 H160 0.961 . S
H158 C157 0.959 . S
H159 C157 0.960 1_565 S
H160 C157 0.961 . S
O161 Co136 1.967 . S
O161 C169 1.258 . S
O162 Co137 1.941 . S
O162 C169 1.266 . S
H163 C165 0.959 . S
H164 C165 0.961 . S
C165 C155 1.510 . S
C165 H163 0.959 . S
C165 H164 0.961 . S
C165 H166 0.960 . S
H166 C165 0.960 . S
H167 N147 0.862 . S
O168 Co136 1.920 . S
O168 C141 1.289 1_545 S
C169 O161 1.258 . S
C169 O162 1.266 . S
Co170 O173 1.970 . S
Co170 N187 1.989 . S
Co170 O195 1.967 . S
Co170 O202 1.920 . S
Co171 O174 1.966 . S
Co171 N180 2.022 . S
Co171 N188 1.993 . S
Co171 O196 1.941 . S
C172 O173 1.258 . S
C172 O174 1.263 . S
O173 Co170 1.970 . S
O173 C172 1.258 . S
O174 Co171 1.966 . S
O174 C172 1.263 . S
C175 O176 1.235 . S
C175 O202 1.289 1_655 S
O176 C175 1.235 . S
C177 C179 1.400 . S
C177 N180 1.351 . S
C177 C182 1.501 . S
C178 C179 1.387 . S
C178 N181 1.341 . S
C179 C177 1.400 . S
C179 C178 1.387 . S
N180 Co171 2.022 . S
N180 C177 1.351 . S
N180 N181 1.365 . S
N181 C178 1.341 . S
N181 N180 1.365 . S
N181 H201 0.862 . S
C182 C177 1.501 . S
C182 H183 0.961 . S
C182 H184 0.961 . S
C182 H185 0.960 . S
H183 C182 0.961 . S
H184 C182 0.961 . S
H185 C182 0.960 . S
C186 N187 1.342 . S
C186 C190 1.401 . S
C186 C191 1.499 . S
N187 Co170 1.989 . S
N187 C186 1.342 . S
N187 N188 1.388 . S
N188 Co171 1.993 . S
N188 N187 1.388 . S
N188 C189 1.346 . S
C189 N188 1.346 . S
C189 C190 1.396 . S
C189 C199 1.510 . S
C190 C186 1.401 . S
C190 C189 1.396 . S
C191 C186 1.499 . S
C191 H192 0.959 . S
C191 H193 0.960 1_455 S
C191 H194 0.961 . S
H192 C191 0.959 . S
H193 C191 0.960 1_655 S
H194 C191 0.961 . S
O195 Co170 1.967 . S
O195 C203 1.258 . S
O196 Co171 1.941 . S
O196 C203 1.266 . S
H197 C199 0.959 . S
H198 C199 0.961 . S
C199 C189 1.510 . S
C199 H197 0.959 . S
C199 H198 0.961 . S
C199 H200 0.960 . S
H200 C199 0.960 . S
H201 N181 0.862 . S
O202 Co170 1.920 . S
O202 C175 1.289 1_455 S
C203 O195 1.258 . S
C203 O196 1.266 . S
Co204 O207 1.970 . S
Co204 N221 1.989 . S
Co204 O229 1.967 . S
Co204 O236 1.920 . S
Co205 O208 1.966 . S
Co205 N214 2.022 . S
Co205 N222 1.993 . S
Co205 O230 1.941 . S
C206 O207 1.258 . S
C206 O208 1.263 . S
O207 Co204 1.970 . S
O207 C206 1.258 . S
O208 Co205 1.966 . S
O208 C206 1.263 . S
C209 O210 1.235 . S
C209 O236 1.289 1_545 S
O210 C209 1.235 . S
C211 C213 1.400 . S
C211 N214 1.351 . S
C211 C216 1.501 . S
C212 C213 1.387 . S
C212 N215 1.341 . S
C213 C211 1.400 . S
C213 C212 1.387 . S
N214 Co205 2.022 . S
N214 C211 1.351 . S
N214 N215 1.365 . S
N215 C212 1.341 . S
N215 N214 1.365 . S
N215 H235 0.862 . S
C216 C211 1.501 . S
C216 H217 0.961 . S
C216 H218 0.961 . S
C216 H219 0.960 . S
H217 C216 0.961 . S
H218 C216 0.961 . S
H219 C216 0.960 . S
C220 N221 1.342 . S
C220 C224 1.401 . S
C220 C225 1.499 . S
N221 Co204 1.989 . S
N221 C220 1.342 . S
N221 N222 1.388 . S
N222 Co205 1.993 . S
N222 N221 1.388 . S
N222 C223 1.346 . S
C223 N222 1.346 . S
C223 C224 1.396 . S
C223 C233 1.510 . S
C224 C220 1.401 . S
C224 C223 1.396 . S
C225 C220 1.499 . S
C225 H226 0.959 . S
C225 H227 0.960 1_565 S
C225 H228 0.961 . S
H226 C225 0.959 . S
H227 C225 0.960 1_545 S
H228 C225 0.961 . S
O229 Co204 1.967 . S
O229 C237 1.258 . S
O230 Co205 1.941 . S
O230 C237 1.266 . S
H231 C233 0.959 . S
H232 C233 0.961 . S
C233 C223 1.510 . S
C233 H231 0.959 . S
C233 H232 0.961 . S
C233 H234 0.960 . S
H234 C233 0.960 . S
H235 N215 0.862 . S
O236 Co204 1.920 . S
O236 C209 1.289 1_565 S
C237 O229 1.258 . S
C237 O230 1.266 . S
Co238 O241 1.970 . S
Co238 N255 1.989 . S
Co238 O263 1.967 . S
Co238 O270 1.920 . S
Co239 O242 1.966 . S
Co239 N248 2.022 . S
Co239 N256 1.993 . S
Co239 O264 1.941 . S
C240 O241 1.258 . S
C240 O242 1.263 . S
O241 Co238 1.970 . S
O241 C240 1.258 . S
O242 Co239 1.966 . S
O242 C240 1.263 . S
C243 O244 1.235 . S
C243 O270 1.289 1_455 S
O244 C243 1.235 . S
C245 C247 1.400 . S
C245 N248 1.351 . S
C245 C250 1.501 . S
C246 C247 1.387 . S
C246 N249 1.341 . S
C247 C245 1.400 . S
C247 C246 1.387 . S
N248 Co239 2.022 . S
N248 C245 1.351 . S
N248 N249 1.365 . S
N249 C246 1.341 . S
N249 N248 1.365 . S
N249 H269 0.862 . S
C250 C245 1.501 . S
C250 H251 0.961 . S
C250 H252 0.961 . S
C250 H253 0.960 . S
H251 C250 0.961 . S
H252 C250 0.961 . S
H253 C250 0.960 . S
C254 N255 1.342 . S
C254 C258 1.401 . S
C254 C259 1.499 . S
N255 Co238 1.989 . S
N255 C254 1.342 . S
N255 N256 1.388 . S
N256 Co239 1.993 . S
N256 N255 1.388 . S
N256 C257 1.346 . S
C257 N256 1.346 . S
C257 C258 1.396 . S
C257 C267 1.510 . S
C258 C254 1.401 . S
C258 C257 1.396 . S
C259 C254 1.499 . S
C259 H260 0.959 . S
C259 H261 0.960 1_655 S
C259 H262 0.961 . S
H260 C259 0.959 . S
H261 C259 0.960 1_455 S
H262 C259 0.961 . S
O263 Co238 1.967 . S
O263 C271 1.258 . S
O264 Co239 1.941 . S
O264 C271 1.266 . S
H265 C267 0.959 . S
H266 C267 0.961 . S
C267 C257 1.510 . S
C267 H265 0.959 . S
C267 H266 0.961 . S
C267 H268 0.960 . S
H268 C267 0.960 . S
H269 N249 0.862 . S
O270 Co238 1.920 . S
O270 C243 1.289 1_655 S
C271 O263 1.258 . S
C271 O264 1.266 . S
C272 C273 1.369 . S
C272 C274 1.419 . S
C272 H276 0.930 . S
C273 C272 1.369 . S
C273 C282 1.429 . S
C274 C272 1.419 . S
C274 C275 1.363 . S
C274 H277 0.929 . S
C275 C274 1.363 . S
C275 C281 1.428 . S
H276 C272 0.930 . S
H277 C274 0.929 . S
S278 N279 1.613 . S
S278 N280 1.610 . S
N279 S278 1.613 . S
N279 C282 1.350 . S
N280 S278 1.610 . S
N280 C281 1.351 . S
C281 C275 1.428 . S
C281 N280 1.351 . S
C281 C282 1.434 . S
C282 C273 1.429 . S
C282 N279 1.350 . S
C282 C281 1.434 . S
C283 C284 1.369 . S
C283 C285 1.419 . S
C283 H287 0.930 . S
C284 C283 1.369 . S
C284 C293 1.429 . S
C285 C283 1.419 . S
C285 C286 1.363 . S
C285 H288 0.929 . S
C286 C285 1.363 . S
C286 C292 1.428 . S
H287 C283 0.930 . S
H288 C285 0.929 . S
S289 N290 1.613 1_455 S
S289 N291 1.610 . S
N290 S289 1.613 1_655 S
N290 C293 1.350 . S
N291 S289 1.610 . S
N291 C292 1.351 1_455 S
C292 C286 1.428 . S
C292 N291 1.351 1_655 S
C292 C293 1.434 . S
C293 C284 1.429 . S
C293 N290 1.350 . S
C293 C292 1.434 . S
C294 C295 1.369 . S
C294 C296 1.419 . S
C294 H298 0.930 . S
C295 C294 1.369 . S
C295 C304 1.429 . S
C296 C294 1.419 . S
C296 C297 1.363 . S
C296 H299 0.929 . S
C297 C296 1.363 . S
C297 C303 1.428 . S
H298 C294 0.930 . S
H299 C296 0.929 . S
S300 N301 1.613 . S
S300 N302 1.610 . S
N301 S300 1.613 . S
N301 C304 1.350 . S
N302 S300 1.610 . S
N302 C303 1.351 . S
C303 C297 1.428 . S
C303 N302 1.351 . S
C303 C304 1.434 . S
C304 C295 1.429 . S
C304 N301 1.350 . S
C304 C303 1.434 . S
C305 C306 1.369 . S
C305 C307 1.419 . S
C305 H309 0.930 . S
C306 C305 1.369 . S
C306 C315 1.429 . S
C307 C305 1.419 . S
C307 C308 1.363 . S
C307 H310 0.929 . S
C308 C307 1.363 . S
C308 C314 1.428 . S
H309 C305 0.930 . S
H310 C307 0.929 . S
S311 N312 1.613 . S
S311 N313 1.610 . S
N312 S311 1.613 . S
N312 C315 1.350 . S
N313 S311 1.610 . S
N313 C314 1.351 . S
C314 C308 1.428 . S
C314 N313 1.351 . S
C314 C315 1.434 . S
C315 C306 1.429 . S
C315 N312 1.350 . S
C315 C314 1.434 . S
C316 C317 1.369 . S
C316 C318 1.419 1_556 S
C316 H320 0.930 . S
C317 C316 1.369 . S
C317 C326 1.429 . S
C318 C316 1.419 1_554 S
C318 C319 1.363 . S
C318 H321 0.929 . S
C319 C318 1.363 . S
C319 C325 1.428 1_554 S
H320 C316 0.930 . S
H321 C318 0.929 . S
S322 N323 1.613 . S
S322 N324 1.610 . S
N323 S322 1.613 . S
N323 C326 1.350 . S
N324 S322 1.610 . S
N324 C325 1.351 . S
C325 C319 1.428 1_556 S
C325 N324 1.351 . S
C325 C326 1.434 . S
C326 C317 1.429 . S
C326 N323 1.350 . S
C326 C325 1.434 . S
C327 C328 1.369 . S
C327 C329 1.419 1_554 S
C327 H331 0.930 . S
C328 C327 1.369 . S
C328 C337 1.429 . S
C329 C327 1.419 1_556 S
C329 C330 1.363 . S
C329 H332 0.929 . S
C330 C329 1.363 . S
C330 C336 1.428 1_556 S
H331 C327 0.930 . S
H332 C329 0.929 . S
S333 N334 1.613 . S
S333 N335 1.610 . S
N334 S333 1.613 . S
N334 C337 1.350 . S
N335 S333 1.610 . S
N335 C336 1.351 . S
C336 C330 1.428 1_554 S
C336 N335 1.351 . S
C336 C337 1.434 . S
C337 C328 1.429 . S
C337 N334 1.350 . S
C337 C336 1.434 . S
C338 C339 1.369 . S
C338 C340 1.419 1_556 S
C338 H342 0.930 . S
C339 C338 1.369 . S
C339 C348 1.429 . S
C340 C338 1.419 1_554 S
C340 C341 1.363 . S
C340 H343 0.929 . S
C341 C340 1.363 . S
C341 C347 1.428 1_554 S
H342 C338 0.930 . S
H343 C340 0.929 . S
S344 N345 1.613 1_565 S
S344 N346 1.610 . S
N345 S344 1.613 1_545 S
N345 C348 1.350 . S
N346 S344 1.610 . S
N346 C347 1.351 1_565 S
C347 C341 1.428 1_556 S
C347 N346 1.351 1_545 S
C347 C348 1.434 . S
C348 C339 1.429 . S
C348 N345 1.350 . S
C348 C347 1.434 . S
C349 C350 1.369 . S
C349 C351 1.419 1_556 S
C349 H353 0.930 . S
C350 C349 1.369 . S
C350 C359 1.429 1_556 S
C351 C349 1.419 1_554 S
C351 C352 1.363 . S
C351 H354 0.929 . S
C352 C351 1.363 . S
C352 C358 1.428 . S
H353 C349 0.930 . S
H354 C351 0.929 . S
S355 N356 1.613 . S
S355 N357 1.610 . S
N356 S355 1.613 . S
N356 C359 1.350 . S
N357 S355 1.610 . S
N357 C358 1.351 . S
C358 C352 1.428 . S
C358 N357 1.351 . S
C358 C359 1.434 . S
C359 C350 1.429 1_554 S
C359 N356 1.350 . S
C359 C358 1.434 . S
C360 C361 1.369 . S
C360 C362 1.419 1_565 S
C360 H364 0.930 . S
C361 C360 1.369 . S
C361 C370 1.429 . S
C362 C360 1.419 1_545 S
C362 C363 1.363 . S
C362 H365 0.929 . S
C363 C362 1.363 . S
C363 C369 1.428 . S
H364 C360 0.930 . S
H365 C362 0.929 . S
S366 N367 1.613 1_545 S
S366 N368 1.610 . S
N367 S366 1.613 1_565 S
N367 C370 1.350 . S
N368 S366 1.610 . S
N368 C369 1.351 . S
C369 C363 1.428 . S
C369 N368 1.351 . S
C369 C370 1.434 1_545 S
C370 C361 1.429 . S
C370 N367 1.350 . S
C370 C369 1.434 1_565 S
C371 C372 1.369 1_655 S
C371 C373 1.419 . S
C371 H375 0.930 . S
C372 C371 1.369 1_455 S
C372 C381 1.429 . S
C373 C371 1.419 . S
C373 C374 1.363 . S
C373 H376 0.929 . S
C374 C373 1.363 . S
C374 C380 1.428 1_655 S
H375 C371 0.930 . S
H376 C373 0.929 . S
S377 N378 1.613 . S
S377 N379 1.610 . S
N378 S377 1.613 . S
N378 C381 1.350 . S
N379 S377 1.610 . S
N379 C380 1.351 . S
C380 C374 1.428 1_455 S
C380 N379 1.351 . S
C380 C381 1.434 . S
C381 C372 1.429 . S
C381 N378 1.350 . S
C381 C380 1.434 . S
C382 C383 1.369 . S
C382 C384 1.419 1_545 S
C382 H386 0.930 . S
C383 C382 1.369 . S
C383 C392 1.429 . S
C384 C382 1.419 1_565 S
C384 C385 1.363 . S
C384 H387 0.929 . S
C385 C384 1.363 . S
C385 C391 1.428 . S
H386 C382 0.930 . S
H387 C384 0.929 . S
S388 N389 1.613 . S
S388 N390 1.601 1_545 S
N389 S388 1.613 . S
N389 C392 1.350 . S
N390 S388 1.601 1_565 S
N390 C391 1.352 . S
C391 C385 1.428 . S
C391 N390 1.352 . S
C391 C392 1.434 1_565 S
C392 C383 1.429 . S
C392 N389 1.350 . S
C392 C391 1.434 1_545 S
C393 C394 1.369 . S
C393 C395 1.419 1_455 S
C393 H397 0.930 . S
C394 C393 1.369 . S
C394 C403 1.429 . S
C395 C393 1.419 1_655 S
C395 C396 1.363 . S
C395 H398 0.929 . S
C396 C395 1.363 . S
C396 C402 1.428 . S
H397 C393 0.930 . S
H398 C395 0.929 . S
S399 N400 1.613 1_655 S
S399 N401 1.610 . S
N400 S399 1.613 1_455 S
N400 C403 1.350 . S
N401 S399 1.610 . S
N401 C402 1.351 . S
C402 C396 1.428 . S
C402 N401 1.351 . S
C402 C403 1.434 1_655 S
C403 C394 1.429 . S
C403 N400 1.350 . S
C403 C402 1.434 1_455 S
C404 C405 1.369 1_565 S
C404 C406 1.419 1_455 S
C404 H408 0.930 . S
C405 C404 1.369 1_545 S
C405 C414 1.429 . S
C406 C404 1.419 1_655 S
C406 C407 1.363 . S
C406 H409 0.929 . S
C407 C406 1.363 . S
C407 C413 1.428 1_565 S
H408 C404 0.930 . S
H409 C406 0.929 . S
S410 N411 1.613 1_655 S
S410 N412 1.610 . S
N411 S410 1.613 1_455 S
N411 C414 1.350 . S
N412 S410 1.610 . S
N412 C413 1.351 . S
C413 C407 1.428 1_545 S
C413 N412 1.351 . S
C413 C414 1.434 1_655 S
C414 C405 1.429 . S
C414 N411 1.350 . S
C414 C413 1.434 1_455 S
C415 C416 1.369 . S
C415 C417 1.419 1_565 S
C415 H419 0.930 . S
C416 C415 1.369 . S
C416 C425 1.429 1_455 S
C417 C415 1.419 1_545 S
C417 C418 1.363 1_455 S
C417 H420 0.929 . S
C418 C417 1.363 1_655 S
C418 C424 1.428 . S
H419 C415 0.930 . S
H420 C417 0.929 . S
S421 N422 1.613 . S
S421 N423 1.610 1_565 S
N422 S421 1.613 . S
N422 C425 1.350 . S
N423 S421 1.610 1_545 S
N423 C424 1.351 . S
C424 C418 1.428 . S
C424 N423 1.351 . S
C424 C425 1.434 1_545 S
C425 C416 1.429 1_655 S
C425 N422 1.350 . S
C425 C424 1.434 1_565 S
C426 C427 1.369 . S
C426 C428 1.419 1_455 S
C426 H430 0.930 . S
C427 C426 1.369 . S
C427 C436 1.429 1_565 S
C428 C426 1.419 1_655 S
C428 C429 1.363 1_565 S
C428 H431 0.929 . S
C429 C428 1.363 1_545 S
C429 C435 1.428 . S
H430 C426 0.930 . S
H431 C428 0.929 . S
S432 N433 1.613 . S
S432 N434 1.610 1_455 S
N433 S432 1.613 . S
N433 C436 1.350 . S
N434 S432 1.610 1_655 S
N434 C435 1.351 . S
C435 C429 1.428 . S
C435 N434 1.351 . S
C435 C436 1.434 1_655 S
C436 C427 1.429 1_545 S
C436 N433 1.350 . S
C436 C435 1.434 1_455 S
C437 C438 1.369 . S
C437 C439 1.419 1_665 S
C437 H441 0.930 . S
C438 C437 1.369 . S
C438 C447 1.429 . S
C439 C437 1.419 1_445 S
C439 C440 1.363 . S
C439 H442 0.929 . S
C440 C439 1.363 . S
C440 C446 1.428 . S
H441 C437 0.930 . S
H442 C439 0.929 . S
S443 N444 1.613 1_545 S
S443 N445 1.610 1_655 S
N444 S443 1.613 1_565 S
N444 C447 1.350 . S
N445 S443 1.610 1_455 S
N445 C446 1.351 . S
C446 C440 1.428 . S
C446 N445 1.351 . S
C446 C447 1.434 1_445 S
C447 C438 1.429 . S
C447 N444 1.350 . S
C447 C446 1.434 1_665 S
C448 C449 1.369 . S
C448 C450 1.419 . S
C448 H452 0.930 . S
C449 C448 1.369 . S
C449 C458 1.429 . S
C450 C448 1.419 . S
C450 C451 1.363 . S
C450 H453 0.929 . S
C451 C450 1.363 . S
C451 C457 1.428 . S
H452 C448 0.930 . S
H453 C450 0.929 . S
S454 N455 1.613 . S
S454 N456 1.610 . S
N455 S454 1.613 . S
N455 C458 1.350 . S
N456 S454 1.610 . S
N456 C457 1.351 . S
C457 C451 1.428 . S
C457 N456 1.351 . S
C457 C458 1.434 . S
C458 C449 1.429 . S
C458 N455 1.350 . S
C458 C457 1.434 . S
C459 C460 1.369 . S
C459 C461 1.419 . S
C459 H463 0.930 . S
C460 C459 1.369 . S
C460 C469 1.429 . S
C461 C459 1.419 . S
C461 C462 1.363 . S
C461 H464 0.929 . S
C462 C461 1.363 . S
C462 C468 1.428 . S
H463 C459 0.930 . S
H464 C461 0.929 . S
S465 N466 1.613 . S
S465 N467 1.610 . S
N466 S465 1.613 . S
N466 C469 1.350 . S
N467 S465 1.610 . S
N467 C468 1.351 . S
C468 C462 1.428 . S
C468 N467 1.351 . S
C468 C469 1.434 . S
C469 C460 1.429 . S
C469 N466 1.350 . S
C469 C468 1.434 . S
C470 C471 1.369 . S
C470 C472 1.419 . S
C470 H474 0.930 . S
C471 C470 1.369 . S
C471 C480 1.429 . S
C472 C470 1.419 . S
C472 C473 1.363 . S
C472 H475 0.929 . S
C473 C472 1.363 . S
C473 C479 1.428 . S
H474 C470 0.930 . S
H475 C472 0.929 . S
S476 N477 1.613 . S
S476 N478 1.610 . S
N477 S476 1.613 . S
N477 C480 1.350 . S
N478 S476 1.610 . S
N478 C479 1.351 . S
C479 C473 1.428 . S
C479 N478 1.351 . S
C479 C480 1.434 . S
C480 C471 1.429 . S
C480 N477 1.350 . S
C480 C479 1.434 . S
C481 C482 1.369 . S
C481 C483 1.419 . S
C481 H485 0.930 . S
C482 C481 1.369 . S
C482 C491 1.429 . S
C483 C481 1.419 . S
C483 C484 1.363 . S
C483 H486 0.929 . S
C484 C483 1.363 . S
C484 C490 1.428 . S
H485 C481 0.930 . S
H486 C483 0.929 . S
S487 N488 1.613 . S
S487 N489 1.610 . S
N488 S487 1.613 . S
N488 C491 1.350 . S
N489 S487 1.610 . S
N489 C490 1.351 . S
C490 C484 1.428 . S
C490 N489 1.351 . S
C490 C491 1.434 . S
C491 C482 1.429 . S
C491 N488 1.350 . S
C491 C490 1.434 . S
C273 C5 1.113 . S
C275 C67 1.061 . S
C284 C101 1.052 . S
C286 C39 1.119 . S
C295 C73 1.118 . S
C297 C135 1.052 . S
C306 C33 1.058 . S
C308 C107 1.114 . S
C317 C271 1.050 . S
C319 C141 1.117 . S
C328 C169 1.053 . S
C330 C175 1.120 . S
C339 C203 1.053 . S
C341 C209 1.120 . S
C350 C243 1.117 . S
C352 C237 1.052 . S
C361 C88 1.614 . S
C363 C20 1.618 . S
C372 C54 1.622 . S
C374 C122 1.614 . S
C383 C156 1.620 . S
C385 C224 1.614 . S
C394 C190 1.615 . S
C396 C258 1.618 . S
C405 C2 1.358 . S
C407 C70 1.357 . S
C416 C36 1.359 . S
C418 C104 1.359 . S
C427 C206 1.358 . S
C429 C138 1.358 . S
C438 C240 1.359 . S
C440 C172 1.359 . S
C449 C9 1.770 . S
C451 C179 1.768 . S
C460 C213 1.767 . S
C462 C43 1.768 . S
C471 C247 1.769 . S
C473 C77 1.769 . S
C482 C111 1.769 . S
C484 C145 1.769 . S
