# Generated by pormake.
# Topology ukg, (4)-cn, num edge types: 1
# Building blocks:
#     Node 0, Type 0, BuildingBlock: GALJAG_clean_sbu_0, # of connection points: 4
#     Node 1, Type 0, BuildingBlock: GALJAG_clean_sbu_0, # of connection points: 4
#     Node 2, Type 0, BuildingBlock: GALJAG_clean_sbu_0, # of connection points: 4
#     Node 3, Type 0, BuildingBlock: GALJAG_clean_sbu_0, # of connection points: 4
#     Node 4, Type 0, BuildingBlock: GALJAG_clean_sbu_0, # of connection points: 4
#     Node 5, Type 0, BuildingBlock: GALJAG_clean_sbu_0, # of connection points: 4
#     Node 6, Type 0, BuildingBlock: GALJAG_clean_sbu_0, # of connection points: 4
#     Node 7, Type 0, BuildingBlock: GALJAG_clean_sbu_0, # of connection points: 4
#     Edge 8, Type (0, 0), BuildingBlock: EZIPEK_clean_linker_0, # of connection points: 2
#     Edge 9, Type (0, 0), BuildingBlock: EZIPEK_clean_linker_0, # of connection points: 2
#     Edge 10, Type (0, 0), BuildingBlock: EZIPEK_clean_linker_0, # of connection points: 2
#     Edge 11, Type (0, 0), BuildingBlock: EZIPEK_clean_linker_0, # of connection points: 2
#     Edge 12, Type (0, 0), BuildingBlock: EZIPEK_clean_linker_0, # of connection points: 2
#     Edge 13, Type (0, 0), BuildingBlock: EZIPEK_clean_linker_0, # of connection points: 2
#     Edge 14, Type (0, 0), BuildingBlock: EZIPEK_clean_linker_0, # of connection points: 2
#     Edge 15, Type (0, 0), BuildingBlock: EZIPEK_clean_linker_0, # of connection points: 2
#     Edge 16, Type (0, 0), BuildingBlock: EZIPEK_clean_linker_0, # of connection points: 2
#     Edge 17, Type (0, 0), BuildingBlock: EZIPEK_clean_linker_0, # of connection points: 2
#     Edge 18, Type (0, 0), BuildingBlock: EZIPEK_clean_linker_0, # of connection points: 2
#     Edge 19, Type (0, 0), BuildingBlock: EZIPEK_clean_linker_0, # of connection points: 2
#     Edge 20, Type (0, 0), BuildingBlock: EZIPEK_clean_linker_0, # of connection points: 2
#     Edge 21, Type (0, 0), BuildingBlock: EZIPEK_clean_linker_0, # of connection points: 2
#     Edge 22, Type (0, 0), BuildingBlock: EZIPEK_clean_linker_0, # of connection points: 2
#     Edge 23, Type (0, 0), BuildingBlock: EZIPEK_clean_linker_0, # of connection points: 2
# Relax obj value: 0.111
# Max RMSD: 0.188
# Mean RMSD: 0.187
data_MOF--net-ukg--node1-GALJAG_clean_sbu_0--edge1-EZIPEK_clean_linker_0
_symmetry_space_group_name_H-M    P1
_symmetry_Int_Tables_number       1
_symmetry_cell_setting            triclinic
loop_
_symmetry_equiv_pos_as_xyz
'x, y, z'
_cell_length_a     22.136109
_cell_length_b     22.183056
_cell_length_c     28.410705
_cell_angle_alpha  90.195971
_cell_angle_beta   90.269729
_cell_angle_gamma 90.021969
loop_
_atom_site_label
_atom_site_type_symbol
_atom_site_fract_x
_atom_site_fract_y
_atom_site_fract_z
_atom_type_partial_charge
In0 In 0.00532 0.67438 0.14326 0.0
O1 O 0.97561 0.6403 0.07067 0.0
O2 O 0.03182 0.58353 0.1125 0.0
C3 C 0.94727 0.77849 0.15628 0.0
C4 C 0.11772 0.71771 0.13877 0.0
C5 C 0.94812 0.62234 0.21536 0.0
O6 O 0.93703 0.7463 0.12019 0.0
O7 O 0.98802 0.75938 0.18348 0.0
O8 O 0.00444 0.63151 0.21641 0.0
O9 O 0.92175 0.63711 0.17772 0.0
C10 C 0.00319 0.59067 0.07447 0.0
O11 O 0.10246 0.67817 0.16835 0.0
O12 O 0.07672 0.73401 0.11053 0.0
In13 In 0.34192 0.51129 0.65381 0.0
O14 O 0.34561 0.6104 0.6733 0.0
O15 O 0.28446 0.58242 0.619 0.0
C16 C 0.39153 0.45256 0.72649 0.0
C17 C 0.42172 0.50037 0.5834 0.0
C18 C 0.23332 0.46504 0.67145 0.0
O19 O 0.38752 0.50942 0.72642 0.0
O20 O 0.37324 0.42648 0.68961 0.0
O21 O 0.26265 0.44918 0.63522 0.0
O22 O 0.25781 0.50507 0.69669 0.0
C23 C 0.30436 0.62478 0.64446 0.0
O24 O 0.37076 0.47464 0.58213 0.0
O25 O 0.43239 0.53102 0.61997 0.0
In26 In 0.48101 0.82489 0.14683 0.0
O27 O 0.51274 0.84378 0.0713 0.0
O28 O 0.48056 0.9171 0.11244 0.0
C29 C 0.52229 0.71249 0.16166 0.0
C30 C 0.36186 0.8074 0.14217 0.0
C31 C 0.52736 0.86387 0.22913 0.0
O32 O 0.55744 0.75705 0.15841 0.0
O33 O 0.46823 0.72337 0.15099 0.0
O34 O 0.47153 0.85349 0.22423 0.0
O35 O 0.55862 0.85684 0.19254 0.0
C36 C 0.50041 0.89929 0.07341 0.0
O37 O 0.38471 0.84745 0.16872 0.0
O38 O 0.39905 0.77817 0.11746 0.0
In39 In 0.1539 0.97294 0.64858 0.0
O40 O 0.15061 0.87476 0.67013 0.0
O41 O 0.21071 0.90025 0.61499 0.0
C42 C 0.10568 0.03211 0.72167 0.0
C43 C 0.07256 0.98047 0.57802 0.0
C44 C 0.26299 0.02012 0.66513 0.0
O45 O 0.10953 0.97527 0.72124 0.0
O46 O 0.12337 0.05815 0.68485 0.0
O47 O 0.23189 0.03652 0.6298 0.0
O48 O 0.23992 0.97928 0.68998 0.0
C49 C 0.19134 0.85908 0.64151 0.0
O50 O 0.12394 0.00517 0.57556 0.0
O51 O 0.06226 0.95282 0.61584 0.0
In52 In 0.98477 0.32864 0.85762 0.0
O53 O 0.88673 0.33622 0.83476 0.0
O54 O 0.90934 0.27457 0.8897 0.0
C55 C 0.04785 0.37699 0.78714 0.0
C56 C -0.00441 0.40836 0.92863 0.0
C57 C 0.02734 0.21855 0.83962 0.0
O58 O 0.99078 0.37483 0.78605 0.0
O59 O 0.07231 0.35696 0.82411 0.0
O60 O 0.0432 0.24683 0.87655 0.0
O61 O 0.98963 0.24514 0.81362 0.0
C62 C 0.86919 0.29567 0.86277 0.0
O63 O 0.01601 0.35527 0.93178 0.0
O64 O 0.97041 0.421 0.89002 0.0
In65 In 0.66619 0.47352 0.35633 0.0
O66 O 0.6561 0.37486 0.33702 0.0
O67 O 0.7246 0.39968 0.38667 0.0
C68 C 0.60919 0.53114 0.28669 0.0
C69 C 0.59238 0.48327 0.43064 0.0
C70 C 0.77144 0.52485 0.33499 0.0
O71 O 0.62155 0.47566 0.28362 0.0
O72 O 0.62275 0.55613 0.32525 0.0
O73 O 0.74319 0.53962 0.37195 0.0
O74 O 0.74785 0.48331 0.3108 0.0
C75 C 0.69931 0.35834 0.3632 0.0
O76 O 0.64595 0.50308 0.43173 0.0
O77 O 0.57632 0.45891 0.39241 0.0
In78 In 0.51739 0.15208 0.85115 0.0
O79 O 0.48539 0.12108 0.9234 0.0
O80 O 0.53902 0.0606 0.88263 0.0
C81 C 0.47345 0.26248 0.83748 0.0
C82 C 0.63201 0.18786 0.85839 0.0
C83 C 0.45269 0.10521 0.77994 0.0
O84 O 0.45929 0.23245 0.87371 0.0
O85 O 0.51012 0.23732 0.80986 0.0
O86 O 0.50964 0.10899 0.77799 0.0
O87 O 0.42936 0.12266 0.81804 0.0
C88 C 0.5111 0.0703 0.9205 0.0
O89 O 0.61565 0.14818 0.82882 0.0
O90 O 0.59109 0.20706 0.88529 0.0
In91 In 0.80964 -0.00431 0.36006 0.0
O92 O 0.82346 0.0925 0.33757 0.0
O93 O 0.76035 0.07459 0.39248 0.0
C94 C 0.85013 0.94456 0.28045 0.0
C95 C 0.89257 0.98654 0.42957 0.0
C96 C 0.69889 0.94528 0.35457 0.0
O97 O 0.83455 -0.00082 0.28219 0.0
O98 O 0.84649 0.91638 0.31881 0.0
O99 O 0.74151 0.92094 0.37738 0.0
O100 O 0.71251 -0.00506 0.3361 0.0
C101 C 0.78465 0.11299 0.36591 0.0
O102 O 0.83783 0.97264 0.43565 0.0
O103 O 0.90555 0.00374 0.38863 0.0
C104 C 0.03367 0.50698 0.95977 0.0
C105 C 0.00034 0.4532 0.96717 0.0
C106 C 0.97265 0.48776 0.04633 0.0
C107 C 0.0018 0.54362 0.03738 0.0
N108 N 0.05614 0.60927 0.98489 0.0
N109 N 0.93164 0.39474 0.01425 0.0
C110 C 0.03098 0.55415 0.99378 0.0
C111 C 0.96851 0.4439 0.00977 0.0
N112 N 0.07 0.51173 0.92111 0.0
N113 N 0.94867 0.47671 0.08975 0.0
H114 H 0.92749 0.36151 0.9884 0.0
H115 H 0.90163 0.38884 0.04195 0.0
H116 H 0.9465 0.50908 0.11639 0.0
H117 H 0.93385 0.43441 0.10048 0.0
H118 H 0.10036 0.54686 0.91587 0.0
H119 H 0.07377 0.47772 0.89583 0.0
H120 H 0.07152 0.62239 0.95192 0.0
H121 H 0.05863 0.64369 0.00991 0.0
C122 C 0.49153 0.43918 0.53311 0.0
C123 C 0.46582 0.49588 0.54459 0.0
C124 C 0.52877 0.54525 0.48514 0.0
C125 C 0.55081 0.4879 0.4711 0.0
N126 N 0.55013 0.37948 0.47814 0.0
N127 N 0.45283 0.60164 0.52802 0.0
C128 C 0.53109 0.43458 0.49395 0.0
C129 C 0.48284 0.54873 0.5199 0.0
N130 N 0.48041 0.39036 0.56108 0.0
N131 N 0.55146 0.59639 0.46505 0.0
H132 H 0.41865 0.60594 0.55292 0.0
H133 H 0.45806 0.64017 0.50765 0.0
H134 H 0.58214 0.5958 0.43733 0.0
H135 H 0.54287 0.63963 0.47767 0.0
H136 H 0.5029 0.34937 0.55789 0.0
H137 H 0.45206 0.39206 0.59028 0.0
H138 H 0.53165 0.33881 0.48922 0.0
H139 H 0.58236 0.37418 0.45181 0.0
C140 C 0.4491 0.96389 0.01318 0.0
C141 C 0.50348 0.94002 0.03232 0.0
C142 C 0.56296 0.00374 0.97954 0.0
C143 C 0.50858 0.02499 0.95862 0.0
N144 N 0.4007 0.01646 0.94854 0.0
N145 N 0.61184 0.92989 0.02976 0.0
C146 C 0.4518 0.00279 0.97361 0.0
C147 C 0.56034 0.95738 0.01401 0.0
N148 N 0.39473 0.9496 0.03294 0.0
N149 N 0.61684 0.03018 0.96835 0.0
H150 H 0.61205 0.898 0.05665 0.0
H151 H 0.65386 0.93545 0.01405 0.0
H152 H 0.62066 0.06486 0.94388 0.0
H153 H 0.65715 0.02153 0.98608 0.0
H154 H 0.35451 0.97152 0.02463 0.0
H155 H 0.39003 0.91815 0.05984 0.0
H156 H 0.35893 -0.00364 0.95444 0.0
H157 H 0.4009 0.04384 0.91877 0.0
C158 C 0.96245 0.03995 0.48558 0.0
C159 C 0.93817 0.98502 0.46788 0.0
C160 C 0.00677 0.92759 0.51882 0.0
C161 C 0.02759 0.98241 0.5392 0.0
N162 N 0.01891 0.09024 0.54772 0.0
N163 N 0.93155 0.87658 0.47071 0.0
C164 C 0.00404 0.03855 0.52393 0.0
C165 C 0.95844 0.92883 0.48562 0.0
N166 N 0.94569 0.09356 0.46577 0.0
N167 N 0.03529 0.87462 0.52947 0.0
H168 H 0.89843 0.87525 0.4445 0.0
H169 H 0.93913 0.83489 0.48637 0.0
H170 H 0.07158 0.87196 0.5529 0.0
H171 H 0.02681 0.83408 0.5121 0.0
H172 H 0.96721 0.13432 0.47298 0.0
H173 H 0.91244 0.09709 0.43981 0.0
H174 H -0.00189 0.13163 0.54185 0.0
H175 H 0.04863 0.09107 0.5763 0.0
C176 C 0.20313 0.7669 0.18209 0.0
C177 C 0.17834 0.74545 0.13906 0.0
C178 C 0.26797 0.78083 0.09762 0.0
C179 C 0.29685 0.79206 0.14151 0.0
N180 N 0.29462 0.78354 0.22658 0.0
N181 N 0.19159 0.72315 0.05639 0.0
C182 C 0.26519 0.78225 0.18417 0.0
C183 C 0.21172 0.7503 0.09679 0.0
N184 N 0.16721 0.77441 0.22067 0.0
N185 N 0.29356 0.80043 0.05675 0.0
H186 H 0.15181 0.69809 0.05454 0.0
H187 H 0.21752 0.72028 0.02595 0.0
H188 H 0.33387 0.82472 0.05601 0.0
H189 H 0.27154 0.79833 0.02429 0.0
H190 H 0.18228 0.7953 0.25149 0.0
H191 H 0.1208 0.76626 0.22013 0.0
H192 H 0.27415 0.77048 0.2579 0.0
H193 H 0.34081 0.79116 0.23022 0.0
C194 C 0.25864 0.71299 0.68637 0.0
C195 C 0.27671 0.68531 0.6436 0.0
C196 C 0.22972 0.76741 0.59933 0.0
C197 C 0.21918 0.79864 0.64216 0.0
N198 N 0.23966 0.80737 0.72577 0.0
N199 N 0.29003 0.69231 0.55941 0.0
C200 C 0.23815 0.77332 0.68557 0.0
C201 C 0.26527 0.71422 0.59998 0.0
N202 N 0.25793 0.68116 0.72749 0.0
N203 N 0.20408 0.7871 0.55832 0.0
H204 H 0.31805 0.65458 0.55858 0.0
H205 H 0.28787 0.71517 0.52747 0.0
H206 H 0.17598 0.82473 0.5566 0.0
H207 H 0.2056 0.76253 0.52702 0.0
H208 H 0.23952 0.69832 0.75847 0.0
H209 H 0.26891 0.63558 0.72961 0.0
H210 H 0.25872 0.79192 0.75711 0.0
H211 H 0.22867 0.85302 0.72667 0.0
C212 C 0.72061 0.23315 0.81673 0.0
C213 C 0.69328 0.21415 0.85926 0.0
C214 C 0.77658 0.25907 0.90403 0.0
C215 C 0.80763 0.27013 0.86138 0.0
N216 N 0.81493 0.25187 0.77743 0.0
N217 N 0.70186 0.19787 0.94313 0.0
C218 C 0.7814 0.25278 0.81771 0.0
C219 C 0.72311 0.22391 0.90294 0.0
N220 N 0.68812 0.23551 0.77574 0.0
N221 N 0.79677 0.28382 0.94532 0.0
H222 H 0.66422 0.16964 0.94358 0.0
H223 H 0.72538 0.19905 0.97498 0.0
H224 H 0.83431 0.31216 0.94724 0.0
H225 H 0.77248 0.2816 0.9766 0.0
H226 H 0.70513 0.25459 0.74504 0.0
H227 H 0.64226 0.2252 0.77358 0.0
H228 H 0.79869 0.23396 0.74584 0.0
H229 H 0.86082 0.26223 0.77656 0.0
C230 C 0.73383 0.26554 0.32113 0.0
C231 C 0.72153 0.29571 0.3641 0.0
C232 C 0.7604 0.20924 0.40798 0.0
C233 C 0.76478 0.17638 0.36523 0.0
N234 N 0.74089 0.16915 0.28211 0.0
N235 N 0.71235 0.29201 0.4488 0.0
C236 C 0.74746 0.20328 0.32198 0.0
C237 C 0.73189 0.26648 0.40775 0.0
N238 N 0.7352 0.29656 0.27964 0.0
N239 N 0.78521 0.18687 0.44845 0.0
H240 H 0.6895 0.33305 0.45011 0.0
H241 H 0.71339 0.2696 0.48096 0.0
H242 H 0.80802 0.14579 0.44981 0.0
H243 H 0.78851 0.21181 0.4795 0.0
H244 H 0.74981 0.27728 0.24818 0.0
H245 H 0.72847 0.34298 0.27745 0.0
H246 H 0.72255 0.18612 0.25101 0.0
H247 H 0.74714 0.1226 0.28133 0.0
C248 C 0.82118 0.6167 0.30217 0.0
C249 C 0.82563 0.55616 0.31772 0.0
C250 C 0.91914 0.54225 0.27324 0.0
C251 C 0.9134 0.60203 0.25652 0.0
N252 N 0.87197 0.70164 0.26645 0.0
N253 N 0.88577 0.46721 0.32951 0.0
C254 C 0.86868 0.64112 0.27494 0.0
C255 C 0.87733 0.52102 0.30717 0.0
N256 N 0.7699 0.64945 0.31022 0.0
N257 N 0.96191 0.50482 0.25464 0.0
H258 H 0.85571 0.45123 0.3548 0.0
H259 H 0.92486 0.44144 0.3264 0.0
H260 H -0.00625 0.51923 0.23018 0.0
H261 H 0.96377 0.45875 0.26132 0.0
H262 H 0.76105 0.69072 0.29421 0.0
H263 H 0.73415 0.63394 0.33057 0.0
H264 H 0.84369 0.73323 0.28224 0.0
H265 H 0.9072 0.72082 0.24742 0.0
C266 C 0.47066 0.41466 0.78251 0.0
C267 C 0.40946 0.41723 0.76814 0.0
C268 C 0.38577 0.32693 0.81359 0.0
C269 C 0.44788 0.32181 0.82533 0.0
N270 N 0.54522 0.36867 0.83416 0.0
N271 N 0.30591 0.39024 0.78243 0.0
C272 C 0.48883 0.36883 0.81439 0.0
C273 C 0.36601 0.37816 0.78812 0.0
N274 N 0.51179 0.45337 0.76346 0.0
N275 N 0.34662 0.28102 0.82335 0.0
H276 H 0.2906 0.42839 0.76465 0.0
H277 H 0.27178 0.36632 0.79922 0.0
H278 H 0.35875 0.24322 0.84285 0.0
H279 H 0.30289 0.27869 0.80979 0.0
H280 H 0.55826 0.44931 0.76821 0.0
H281 H 0.49942 0.48829 0.74089 0.0
H282 H 0.57605 0.40377 0.83057 0.0
H283 H 0.55888 0.3355 0.85795 0.0
C284 C 0.59746 0.83527 0.2944 0.0
C285 C 0.55625 0.87767 0.27496 0.0
C286 C 0.591 0.95388 0.33113 0.0
C287 C 0.64022 0.91592 0.34278 0.0
N288 N 0.6738 0.81377 0.35386 0.0
N289 N 0.50745 0.97461 0.27782 0.0
C290 C 0.6382 0.85411 0.33043 0.0
C291 C 0.54979 0.93571 0.29526 0.0
N292 N 0.59866 0.77774 0.27707 0.0
N293 N 0.58451 0.00719 0.35476 0.0
H294 H 0.4759 0.96195 0.25226 0.0
H295 H 0.50458 0.01984 0.28733 0.0
H296 H 0.6138 0.01949 0.3821 0.0
H297 H 0.54792 0.03613 0.3506 0.0
H298 H 0.63203 0.74629 0.28495 0.0
H299 H 0.56605 0.76174 0.2536 0.0
H300 H 0.67326 0.76751 0.34785 0.0
H301 H 0.69875 0.82574 0.38362 0.0
C302 C 0.11402 0.15526 0.812 0.0
C303 C 0.05232 0.1599 0.82475 0.0
C304 C 0.02787 0.06947 0.77871 0.0
C305 C 0.08869 0.06721 0.76375 0.0
N306 N 0.19276 0.09326 0.77793 0.0
N307 N 0.95504 0.11297 0.8328 0.0
C308 C 0.13285 0.10526 0.78454 0.0
C309 C 0.01084 0.11367 0.81244 0.0
N310 N 0.15362 0.20058 0.82284 0.0
N311 N 0.98596 0.03203 0.75863 0.0
H312 H 0.9422 0.14486 0.85796 0.0
H313 H 0.92397 0.07817 0.82823 0.0
H314 H -0.00259 -0.00166 0.73458 0.0
H315 H 0.93964 0.03616 0.76394 0.0
H316 H 0.19687 0.2035 0.80874 0.0
H317 H 0.14229 0.23745 0.84378 0.0
H318 H 0.22738 0.11624 0.79528 0.0
H319 H 0.20753 0.05602 0.75868 0.0
C320 C 0.1266 0.35412 0.72775 0.0
C321 C 0.08476 0.39592 0.74669 0.0
C322 C 0.12725 0.47526 0.69745 0.0
C323 C 0.17647 0.43682 0.68679 0.0
N324 N 0.22487 0.33941 0.69292 0.0
N325 N 0.04398 0.49664 0.75006 0.0
C326 C 0.17613 0.37568 0.70124 0.0
C327 C 0.08371 0.45641 0.7309 0.0
N328 N 0.11859 0.29377 0.73499 0.0
N329 N 0.12291 0.52999 0.67577 0.0
H330 H 0.01118 0.48433 0.77443 0.0
H331 H 0.04582 0.54287 0.74404 0.0
H332 H 0.15432 0.54426 0.65085 0.0
H333 H 0.08569 0.55836 0.67897 0.0
H334 H 0.14463 0.26064 0.71876 0.0
H335 H 0.08173 0.27669 0.75339 0.0
H336 H 0.23051 0.29737 0.70855 0.0
H337 H 0.26182 0.35265 0.67291 0.0
C338 C 0.61591 0.58237 0.20831 0.0
C339 C 0.58141 0.56593 0.24824 0.0
C340 C 0.50646 0.6427 0.22984 0.0
C341 C 0.53934 0.65797 0.18848 0.0
N342 N 0.61802 0.63421 0.13319 0.0
N343 N 0.48689 0.56755 0.28945 0.0
C344 C 0.59177 0.62503 0.176 0.0
C345 C 0.52411 0.59161 0.25616 0.0
N346 N 0.67287 0.55983 0.20265 0.0
N347 N 0.46211 0.67974 0.24682 0.0
H348 H 0.49897 0.52998 0.30943 0.0
H349 H 0.44207 0.58082 0.29363 0.0
H350 H 0.44992 0.72057 0.2316 0.0
H351 H 0.44188 0.67353 0.27948 0.0
H352 H 0.70298 0.57577 0.17753 0.0
H353 H 0.6915 0.52757 0.22503 0.0
H354 H 0.65312 0.60775 0.12027 0.0
H355 H 0.60093 0.66489 0.10876 0.0
C356 C 0.41556 0.02815 0.7214 0.0
C357 C 0.41441 0.08778 0.73937 0.0
C358 C 0.32079 0.1089 0.6963 0.0
C359 C 0.32038 0.0484 0.67998 0.0
N360 N 0.37436 0.95642 0.66493 0.0
N361 N 0.37862 0.18988 0.73206 0.0
C362 C 0.37054 0.01016 0.68837 0.0
C363 C 0.37115 0.12984 0.72272 0.0
N364 N 0.45702 0.9878 0.73807 0.0
N365 N 0.27145 0.14501 0.68975 0.0
H366 H 0.41596 0.20653 0.75047 0.0
H367 H 0.35149 0.22345 0.71756 0.0
H368 H 0.23404 0.13225 0.66972 0.0
H369 H 0.2659 0.18631 0.70672 0.0
H370 H 0.45571 0.94187 0.73049 0.0
H371 H 0.49103 -0.00038 0.76188 0.0
H372 H 0.41197 0.92832 0.66639 0.0
H373 H 0.34185 0.94283 0.64032 0.0
C374 C 0.9445 0.88593 0.17974 0.0
C375 C 0.91209 0.83232 0.16967 0.0
C376 C 0.82964 0.86431 0.2209 0.0
C377 C 0.86607 0.9134 0.23619 0.0
N378 N 0.94995 0.98054 0.22311 0.0
N379 N 0.81807 0.77787 0.16866 0.0
C380 C 0.92053 0.92791 0.21269 0.0
C381 C 0.85223 0.8244 0.18588 0.0
N382 N -0.00034 0.89438 0.15932 0.0
N383 N 0.77438 0.85526 0.24114 0.0
H384 H 0.83349 0.74872 0.14255 0.0
H385 H 0.77314 0.77027 0.17729 0.0
H386 H 0.75495 0.88635 0.26419 0.0
H387 H 0.74771 0.81722 0.23591 0.0
H388 H 0.02941 0.92905 0.16783 0.0
H389 H 0.01597 0.86535 0.13329 0.0
H390 H 0.98805 -0.00412 0.20557 0.0
H391 H 0.9344 0.01121 0.24811 0.0
loop_
_geom_bond_atom_site_label_1
_geom_bond_atom_site_label_2
_geom_bond_distance
_geom_bond_site_symmetry_2
_ccdc_geom_bond_type
In0 O1 2.293 1_455 S
In0 O2 2.327 . S
In0 O6 2.264 1_455 S
In0 O7 2.325 1_455 S
In0 O8 2.266 1_455 S
In0 O9 2.323 1_455 S
In0 O11 2.297 . S
In0 O12 2.329 . S
O1 In0 2.293 1_655 S
O1 C10 1.240 1_655 S
O2 In0 2.327 . S
O2 C10 1.252 . S
C3 O6 1.252 . S
C3 O7 1.260 . S
C4 O11 1.240 . S
C4 O12 1.252 . S
C5 O8 1.252 . S
C5 O9 1.260 . S
O6 In0 2.264 1_655 S
O6 C3 1.252 . S
O7 In0 2.325 1_655 S
O7 C3 1.260 . S
O8 In0 2.266 1_655 S
O8 C5 1.252 . S
O9 In0 2.323 1_655 S
O9 C5 1.260 . S
C10 O1 1.240 1_455 S
C10 O2 1.252 . S
O11 In0 2.297 . S
O11 C4 1.240 . S
O12 In0 2.329 . S
O12 C4 1.252 . S
In13 O14 2.294 . S
In13 O15 2.326 . S
In13 O19 2.266 . S
In13 O20 2.326 . S
In13 O21 2.266 . S
In13 O22 2.326 . S
In13 O24 2.294 . S
In13 O25 2.326 . S
O14 In13 2.294 . S
O14 C23 1.240 . S
O15 In13 2.326 . S
O15 C23 1.252 . S
C16 O19 1.252 . S
C16 O20 1.260 . S
C17 O24 1.240 . S
C17 O25 1.252 . S
C18 O21 1.252 . S
C18 O22 1.260 . S
O19 In13 2.266 . S
O19 C16 1.252 . S
O20 In13 2.326 . S
O20 C16 1.260 . S
O21 In13 2.266 . S
O21 C18 1.252 . S
O22 In13 2.326 . S
O22 C18 1.260 . S
C23 O14 1.240 . S
C23 O15 1.252 . S
O24 In13 2.294 . S
O24 C17 1.240 . S
O25 In13 2.326 . S
O25 C17 1.252 . S
In26 O27 2.294 . S
In26 O28 2.326 . S
In26 O32 2.266 . S
In26 O33 2.326 . S
In26 O34 2.266 . S
In26 O35 2.326 . S
In26 O37 2.294 . S
In26 O38 2.326 . S
O27 In26 2.294 . S
O27 C36 1.240 . S
O28 In26 2.326 . S
O28 C36 1.252 . S
C29 O32 1.252 . S
C29 O33 1.260 . S
C30 O37 1.240 . S
C30 O38 1.252 . S
C31 O34 1.252 . S
C31 O35 1.260 . S
O32 In26 2.266 . S
O32 C29 1.252 . S
O33 In26 2.326 . S
O33 C29 1.260 . S
O34 In26 2.266 . S
O34 C31 1.252 . S
O35 In26 2.326 . S
O35 C31 1.260 . S
C36 O27 1.240 . S
C36 O28 1.252 . S
O37 In26 2.294 . S
O37 C30 1.240 . S
O38 In26 2.326 . S
O38 C30 1.252 . S
In39 O40 2.297 . S
In39 O41 2.329 . S
In39 O45 2.266 1_565 S
In39 O46 2.323 1_565 S
In39 O47 2.264 1_565 S
In39 O48 2.325 1_565 S
In39 O50 2.293 1_565 S
In39 O51 2.327 . S
O40 In39 2.297 . S
O40 C49 1.240 . S
O41 In39 2.329 . S
O41 C49 1.252 . S
C42 O45 1.252 . S
C42 O46 1.260 . S
C43 O50 1.240 1_565 S
C43 O51 1.252 . S
C44 O47 1.252 . S
C44 O48 1.260 . S
O45 In39 2.266 1_545 S
O45 C42 1.252 . S
O46 In39 2.323 1_545 S
O46 C42 1.260 . S
O47 In39 2.264 1_545 S
O47 C44 1.252 . S
O48 In39 2.325 1_545 S
O48 C44 1.260 . S
C49 O40 1.240 . S
C49 O41 1.252 . S
O50 In39 2.293 1_545 S
O50 C43 1.240 1_545 S
O51 In39 2.327 . S
O51 C43 1.252 . S
In52 O53 2.297 . S
In52 O54 2.329 . S
In52 O58 2.266 1_655 S
In52 O59 2.323 1_655 S
In52 O60 2.264 1_655 S
In52 O61 2.325 1_655 S
In52 O63 2.293 1_655 S
In52 O64 2.327 . S
O53 In52 2.297 . S
O53 C62 1.240 . S
O54 In52 2.329 . S
O54 C62 1.252 . S
C55 O58 1.252 . S
C55 O59 1.260 . S
C56 O63 1.240 1_655 S
C56 O64 1.252 . S
C57 O60 1.252 . S
C57 O61 1.260 . S
O58 In52 2.266 1_455 S
O58 C55 1.252 . S
O59 In52 2.323 1_455 S
O59 C55 1.260 . S
O60 In52 2.264 1_455 S
O60 C57 1.252 . S
O61 In52 2.325 1_455 S
O61 C57 1.260 . S
C62 O53 1.240 . S
C62 O54 1.252 . S
O63 In52 2.293 1_455 S
O63 C56 1.240 1_455 S
O64 In52 2.327 . S
O64 C56 1.252 . S
In65 O66 2.294 . S
In65 O67 2.326 . S
In65 O71 2.266 . S
In65 O72 2.326 . S
In65 O73 2.266 . S
In65 O74 2.326 . S
In65 O76 2.294 . S
In65 O77 2.326 . S
O66 In65 2.294 . S
O66 C75 1.240 . S
O67 In65 2.326 . S
O67 C75 1.252 . S
C68 O71 1.252 . S
C68 O72 1.260 . S
C69 O76 1.240 . S
C69 O77 1.252 . S
C70 O73 1.252 . S
C70 O74 1.260 . S
O71 In65 2.266 . S
O71 C68 1.252 . S
O72 In65 2.326 . S
O72 C68 1.260 . S
O73 In65 2.266 . S
O73 C70 1.252 . S
O74 In65 2.326 . S
O74 C70 1.260 . S
C75 O66 1.240 . S
C75 O67 1.252 . S
O76 In65 2.294 . S
O76 C69 1.240 . S
O77 In65 2.326 . S
O77 C69 1.252 . S
In78 O79 2.294 . S
In78 O80 2.326 . S
In78 O84 2.266 . S
In78 O85 2.326 . S
In78 O86 2.266 . S
In78 O87 2.326 . S
In78 O89 2.294 . S
In78 O90 2.326 . S
O79 In78 2.294 . S
O79 C88 1.240 . S
O80 In78 2.326 . S
O80 C88 1.252 . S
C81 O84 1.252 . S
C81 O85 1.260 . S
C82 O89 1.240 . S
C82 O90 1.252 . S
C83 O86 1.252 . S
C83 O87 1.260 . S
O84 In78 2.266 . S
O84 C81 1.252 . S
O85 In78 2.326 . S
O85 C81 1.260 . S
O86 In78 2.266 . S
O86 C83 1.252 . S
O87 In78 2.326 . S
O87 C83 1.260 . S
C88 O79 1.240 . S
C88 O80 1.252 . S
O89 In78 2.294 . S
O89 C82 1.240 . S
O90 In78 2.326 . S
O90 C82 1.252 . S
In91 O92 2.297 . S
In91 O93 2.329 . S
In91 O97 2.266 1_545 S
In91 O98 2.323 1_545 S
In91 O99 2.264 1_545 S
In91 O100 2.325 1_545 S
In91 O102 2.293 1_545 S
In91 O103 2.327 . S
O92 In91 2.297 . S
O92 C101 1.240 . S
O93 In91 2.329 . S
O93 C101 1.252 . S
C94 O97 1.252 . S
C94 O98 1.260 . S
C95 O102 1.240 1_545 S
C95 O103 1.252 . S
C96 O99 1.252 . S
C96 O100 1.260 . S
O97 In91 2.266 1_565 S
O97 C94 1.252 . S
O98 In91 2.323 1_565 S
O98 C94 1.260 . S
O99 In91 2.264 1_565 S
O99 C96 1.252 . S
O100 In91 2.325 1_565 S
O100 C96 1.260 . S
C101 O92 1.240 . S
C101 O93 1.252 . S
O102 In91 2.293 1_565 S
O102 C95 1.240 1_565 S
O103 In91 2.327 . S
O103 C95 1.252 . S
C104 C105 1.363 1_455 S
C104 C110 1.379 . S
C104 N112 1.356 . S
C105 C104 1.363 1_655 S
C105 C111 1.363 1_556 S
C106 C107 1.363 1_655 S
C106 C111 1.379 . S
C106 N113 1.356 . S
C107 C106 1.363 1_455 S
C107 C110 1.363 1_554 S
N108 C110 1.356 . S
N108 H120 0.984 . S
N108 H121 0.985 . S
N109 C111 1.356 . S
N109 H114 0.984 . S
N109 H115 0.985 . S
C110 C104 1.379 . S
C110 C107 1.363 1_556 S
C110 N108 1.356 . S
C111 C105 1.363 1_554 S
C111 C106 1.379 . S
C111 N109 1.356 . S
N112 C104 1.356 . S
N112 H118 0.984 . S
N112 H119 0.984 . S
N113 C106 1.356 . S
N113 H116 0.984 . S
N113 H117 0.985 . S
H114 N109 0.984 . S
H115 N109 0.985 . S
H116 N113 0.984 . S
H117 N113 0.985 . S
H118 N112 0.984 . S
H119 N112 0.984 . S
H120 N108 0.984 . S
H121 N108 0.985 . S
C122 C123 1.363 . S
C122 C128 1.379 . S
C122 N130 1.356 . S
C123 C122 1.363 . S
C123 C129 1.363 . S
C124 C125 1.363 . S
C124 C129 1.379 . S
C124 N131 1.356 . S
C125 C124 1.363 . S
C125 C128 1.363 . S
N126 C128 1.356 . S
N126 H138 0.984 . S
N126 H139 0.985 . S
N127 C129 1.356 . S
N127 H132 0.984 . S
N127 H133 0.985 . S
C128 C122 1.379 . S
C128 C125 1.363 . S
C128 N126 1.356 . S
C129 C123 1.363 . S
C129 C124 1.379 . S
C129 N127 1.356 . S
N130 C122 1.356 . S
N130 H136 0.984 . S
N130 H137 0.984 . S
N131 C124 1.356 . S
N131 H134 0.984 . S
N131 H135 0.985 . S
H132 N127 0.984 . S
H133 N127 0.985 . S
H134 N131 0.984 . S
H135 N131 0.985 . S
H136 N130 0.984 . S
H137 N130 0.984 . S
H138 N126 0.984 . S
H139 N126 0.985 . S
C140 C141 1.363 . S
C140 C146 1.379 1_565 S
C140 N148 1.356 . S
C141 C140 1.363 . S
C141 C147 1.363 1_554 S
C142 C143 1.363 . S
C142 C147 1.379 1_545 S
C142 N149 1.356 . S
C143 C142 1.363 . S
C143 C146 1.363 1_556 S
N144 C146 1.356 . S
N144 H156 0.984 . S
N144 H157 0.985 . S
N145 C147 1.356 . S
N145 H150 0.984 . S
N145 H151 0.985 . S
C146 C140 1.379 1_545 S
C146 C143 1.363 1_554 S
C146 N144 1.356 . S
C147 C141 1.363 1_556 S
C147 C142 1.379 1_565 S
C147 N145 1.356 . S
N148 C140 1.356 . S
N148 H154 0.984 . S
N148 H155 0.984 . S
N149 C142 1.356 . S
N149 H152 0.984 . S
N149 H153 0.985 . S
H150 N145 0.984 . S
H151 N145 0.985 . S
H152 N149 0.984 . S
H153 N149 0.985 . S
H154 N148 0.984 . S
H155 N148 0.984 . S
H156 N144 0.984 . S
H157 N144 0.985 . S
C158 C159 1.363 . S
C158 C164 1.379 1_655 S
C158 N166 1.356 . S
C159 C158 1.363 . S
C159 C165 1.363 1_545 S
C160 C161 1.363 . S
C160 C165 1.379 1_455 S
C160 N167 1.356 . S
C161 C160 1.363 . S
C161 C164 1.363 1_565 S
N162 C164 1.356 . S
N162 H174 0.984 . S
N162 H175 0.985 . S
N163 C165 1.356 . S
N163 H168 0.984 . S
N163 H169 0.985 . S
C164 C158 1.379 1_455 S
C164 C161 1.363 1_545 S
C164 N162 1.356 . S
C165 C159 1.363 1_565 S
C165 C160 1.379 1_655 S
C165 N163 1.356 . S
N166 C158 1.356 . S
N166 H172 0.984 . S
N166 H173 0.984 . S
N167 C160 1.356 . S
N167 H170 0.984 . S
N167 H171 0.985 . S
H168 N163 0.984 . S
H169 N163 0.985 . S
H170 N167 0.984 . S
H171 N167 0.985 . S
H172 N166 0.984 . S
H173 N166 0.984 . S
H174 N162 0.984 . S
H175 N162 0.985 . S
C176 C177 1.363 . S
C176 C182 1.379 . S
C176 N184 1.356 . S
C177 C176 1.363 . S
C177 C183 1.363 . S
C178 C179 1.363 . S
C178 C183 1.379 . S
C178 N185 1.356 . S
C179 C178 1.363 . S
C179 C182 1.363 . S
N180 C182 1.356 . S
N180 H192 0.984 . S
N180 H193 0.985 . S
N181 C183 1.356 . S
N181 H186 0.984 . S
N181 H187 0.985 . S
C182 C176 1.379 . S
C182 C179 1.363 . S
C182 N180 1.356 . S
C183 C177 1.363 . S
C183 C178 1.379 . S
C183 N181 1.356 . S
N184 C176 1.356 . S
N184 H190 0.984 . S
N184 H191 0.984 . S
N185 C178 1.356 . S
N185 H188 0.984 . S
N185 H189 0.985 . S
H186 N181 0.984 . S
H187 N181 0.985 . S
H188 N185 0.984 . S
H189 N185 0.985 . S
H190 N184 0.984 . S
H191 N184 0.984 . S
H192 N180 0.984 . S
H193 N180 0.985 . S
C194 C195 1.363 . S
C194 C200 1.379 . S
C194 N202 1.356 . S
C195 C194 1.363 . S
C195 C201 1.363 . S
C196 C197 1.363 . S
C196 C201 1.379 . S
C196 N203 1.356 . S
C197 C196 1.363 . S
C197 C200 1.363 . S
N198 C200 1.356 . S
N198 H210 0.984 . S
N198 H211 0.985 . S
N199 C201 1.356 . S
N199 H204 0.984 . S
N199 H205 0.985 . S
C200 C194 1.379 . S
C200 C197 1.363 . S
C200 N198 1.356 . S
C201 C195 1.363 . S
C201 C196 1.379 . S
C201 N199 1.356 . S
N202 C194 1.356 . S
N202 H208 0.984 . S
N202 H209 0.984 . S
N203 C196 1.356 . S
N203 H206 0.984 . S
N203 H207 0.985 . S
H204 N199 0.984 . S
H205 N199 0.985 . S
H206 N203 0.984 . S
H207 N203 0.985 . S
H208 N202 0.984 . S
H209 N202 0.984 . S
H210 N198 0.984 . S
H211 N198 0.985 . S
C212 C213 1.363 . S
C212 C218 1.379 . S
C212 N220 1.356 . S
C213 C212 1.363 . S
C213 C219 1.363 . S
C214 C215 1.363 . S
C214 C219 1.379 . S
C214 N221 1.356 . S
C215 C214 1.363 . S
C215 C218 1.363 . S
N216 C218 1.356 . S
N216 H228 0.984 . S
N216 H229 0.985 . S
N217 C219 1.356 . S
N217 H222 0.984 . S
N217 H223 0.985 . S
C218 C212 1.379 . S
C218 C215 1.363 . S
C218 N216 1.356 . S
C219 C213 1.363 . S
C219 C214 1.379 . S
C219 N217 1.356 . S
N220 C212 1.356 . S
N220 H226 0.984 . S
N220 H227 0.984 . S
N221 C214 1.356 . S
N221 H224 0.984 . S
N221 H225 0.985 . S
H222 N217 0.984 . S
H223 N217 0.985 . S
H224 N221 0.984 . S
H225 N221 0.985 . S
H226 N220 0.984 . S
H227 N220 0.984 . S
H228 N216 0.984 . S
H229 N216 0.985 . S
C230 C231 1.363 . S
C230 C236 1.379 . S
C230 N238 1.356 . S
C231 C230 1.363 . S
C231 C237 1.363 . S
C232 C233 1.363 . S
C232 C237 1.379 . S
C232 N239 1.356 . S
C233 C232 1.363 . S
C233 C236 1.363 . S
N234 C236 1.356 . S
N234 H246 0.984 . S
N234 H247 0.985 . S
N235 C237 1.356 . S
N235 H240 0.984 . S
N235 H241 0.985 . S
C236 C230 1.379 . S
C236 C233 1.363 . S
C236 N234 1.356 . S
C237 C231 1.363 . S
C237 C232 1.379 . S
C237 N235 1.356 . S
N238 C230 1.356 . S
N238 H244 0.984 . S
N238 H245 0.984 . S
N239 C232 1.356 . S
N239 H242 0.984 . S
N239 H243 0.985 . S
H240 N235 0.984 . S
H241 N235 0.985 . S
H242 N239 0.984 . S
H243 N239 0.985 . S
H244 N238 0.984 . S
H245 N238 0.984 . S
H246 N234 0.984 . S
H247 N234 0.985 . S
C248 C249 1.363 . S
C248 C254 1.379 . S
C248 N256 1.356 . S
C249 C248 1.363 . S
C249 C255 1.363 . S
C250 C251 1.363 . S
C250 C255 1.379 . S
C250 N257 1.356 . S
C251 C250 1.363 . S
C251 C254 1.363 . S
N252 C254 1.356 . S
N252 H264 0.984 . S
N252 H265 0.985 . S
N253 C255 1.356 . S
N253 H258 0.984 . S
N253 H259 0.985 . S
C254 C248 1.379 . S
C254 C251 1.363 . S
C254 N252 1.356 . S
C255 C249 1.363 . S
C255 C250 1.379 . S
C255 N253 1.356 . S
N256 C248 1.356 . S
N256 H262 0.984 . S
N256 H263 0.984 . S
N257 C250 1.356 . S
N257 H260 0.984 . S
N257 H261 0.985 . S
H258 N253 0.984 . S
H259 N253 0.985 . S
H260 N257 0.984 . S
H261 N257 0.985 . S
H262 N256 0.984 . S
H263 N256 0.984 . S
H264 N252 0.984 . S
H265 N252 0.985 . S
C266 C267 1.363 . S
C266 C272 1.379 . S
C266 N274 1.356 . S
C267 C266 1.363 . S
C267 C273 1.363 . S
C268 C269 1.363 . S
C268 C273 1.379 . S
C268 N275 1.356 . S
C269 C268 1.363 . S
C269 C272 1.363 . S
N270 C272 1.356 . S
N270 H282 0.984 . S
N270 H283 0.985 . S
N271 C273 1.356 . S
N271 H276 0.984 . S
N271 H277 0.985 . S
C272 C266 1.379 . S
C272 C269 1.363 . S
C272 N270 1.356 . S
C273 C267 1.363 . S
C273 C268 1.379 . S
C273 N271 1.356 . S
N274 C266 1.356 . S
N274 H280 0.984 . S
N274 H281 0.984 . S
N275 C268 1.356 . S
N275 H278 0.984 . S
N275 H279 0.985 . S
H276 N271 0.984 . S
H277 N271 0.985 . S
H278 N275 0.984 . S
H279 N275 0.985 . S
H280 N274 0.984 . S
H281 N274 0.984 . S
H282 N270 0.984 . S
H283 N270 0.985 . S
C284 C285 1.363 . S
C284 C290 1.379 . S
C284 N292 1.356 . S
C285 C284 1.363 . S
C285 C291 1.363 . S
C286 C287 1.363 . S
C286 C291 1.379 . S
C286 N293 1.356 . S
C287 C286 1.363 . S
C287 C290 1.363 . S
N288 C290 1.356 . S
N288 H300 0.984 . S
N288 H301 0.985 . S
N289 C291 1.356 . S
N289 H294 0.984 . S
N289 H295 0.985 . S
C290 C284 1.379 . S
C290 C287 1.363 . S
C290 N288 1.356 . S
C291 C285 1.363 . S
C291 C286 1.379 . S
C291 N289 1.356 . S
N292 C284 1.356 . S
N292 H298 0.984 . S
N292 H299 0.984 . S
N293 C286 1.356 . S
N293 H296 0.984 . S
N293 H297 0.985 1_565 S
H294 N289 0.984 . S
H295 N289 0.985 . S
H296 N293 0.984 . S
H297 N293 0.985 1_545 S
H298 N292 0.984 . S
H299 N292 0.984 . S
H300 N288 0.984 . S
H301 N288 0.985 . S
C302 C303 1.363 . S
C302 C308 1.379 . S
C302 N310 1.356 . S
C303 C302 1.363 . S
C303 C309 1.363 . S
C304 C305 1.363 . S
C304 C309 1.379 . S
C304 N311 1.356 . S
C305 C304 1.363 . S
C305 C308 1.363 . S
N306 C308 1.356 . S
N306 H318 0.984 . S
N306 H319 0.985 . S
N307 C309 1.356 1_655 S
N307 H312 0.984 . S
N307 H313 0.985 . S
C308 C302 1.379 . S
C308 C305 1.363 . S
C308 N306 1.356 . S
C309 C303 1.363 . S
C309 C304 1.379 . S
C309 N307 1.356 1_455 S
N310 C302 1.356 . S
N310 H316 0.984 . S
N310 H317 0.984 . S
N311 C304 1.356 . S
N311 H314 0.984 . S
N311 H315 0.985 1_455 S
H312 N307 0.984 . S
H313 N307 0.985 . S
H314 N311 0.984 . S
H315 N311 0.985 1_655 S
H316 N310 0.984 . S
H317 N310 0.984 . S
H318 N306 0.984 . S
H319 N306 0.985 . S
C320 C321 1.363 . S
C320 C326 1.379 . S
C320 N328 1.356 . S
C321 C320 1.363 . S
C321 C327 1.363 . S
C322 C323 1.363 . S
C322 C327 1.379 . S
C322 N329 1.356 . S
C323 C322 1.363 . S
C323 C326 1.363 . S
N324 C326 1.356 . S
N324 H336 0.984 . S
N324 H337 0.985 . S
N325 C327 1.356 . S
N325 H330 0.984 . S
N325 H331 0.985 . S
C326 C320 1.379 . S
C326 C323 1.363 . S
C326 N324 1.356 . S
C327 C321 1.363 . S
C327 C322 1.379 . S
C327 N325 1.356 . S
N328 C320 1.356 . S
N328 H334 0.984 . S
N328 H335 0.984 . S
N329 C322 1.356 . S
N329 H332 0.984 . S
N329 H333 0.985 . S
H330 N325 0.984 . S
H331 N325 0.985 . S
H332 N329 0.984 . S
H333 N329 0.985 . S
H334 N328 0.984 . S
H335 N328 0.984 . S
H336 N324 0.984 . S
H337 N324 0.985 . S
C338 C339 1.363 . S
C338 C344 1.379 . S
C338 N346 1.356 . S
C339 C338 1.363 . S
C339 C345 1.363 . S
C340 C341 1.363 . S
C340 C345 1.379 . S
C340 N347 1.356 . S
C341 C340 1.363 . S
C341 C344 1.363 . S
N342 C344 1.356 . S
N342 H354 0.984 . S
N342 H355 0.985 . S
N343 C345 1.356 . S
N343 H348 0.984 . S
N343 H349 0.985 . S
C344 C338 1.379 . S
C344 C341 1.363 . S
C344 N342 1.356 . S
C345 C339 1.363 . S
C345 C340 1.379 . S
C345 N343 1.356 . S
N346 C338 1.356 . S
N346 H352 0.984 . S
N346 H353 0.984 . S
N347 C340 1.356 . S
N347 H350 0.984 . S
N347 H351 0.985 . S
H348 N343 0.984 . S
H349 N343 0.985 . S
H350 N347 0.984 . S
H351 N347 0.985 . S
H352 N346 0.984 . S
H353 N346 0.984 . S
H354 N342 0.984 . S
H355 N342 0.985 . S
C356 C357 1.363 . S
C356 C362 1.379 . S
C356 N364 1.356 . S
C357 C356 1.363 . S
C357 C363 1.363 . S
C358 C359 1.363 . S
C358 C363 1.379 . S
C358 N365 1.356 . S
C359 C358 1.363 . S
C359 C362 1.363 . S
N360 C362 1.356 1_565 S
N360 H372 0.984 . S
N360 H373 0.985 . S
N361 C363 1.356 . S
N361 H366 0.984 . S
N361 H367 0.985 . S
C362 C356 1.379 . S
C362 C359 1.363 . S
C362 N360 1.356 1_545 S
C363 C357 1.363 . S
C363 C358 1.379 . S
C363 N361 1.356 . S
N364 C356 1.356 . S
N364 H370 0.984 1_545 S
N364 H371 0.984 . S
N365 C358 1.356 . S
N365 H368 0.984 . S
N365 H369 0.985 . S
H366 N361 0.984 . S
H367 N361 0.985 . S
H368 N365 0.984 . S
H369 N365 0.985 . S
H370 N364 0.984 1_565 S
H371 N364 0.984 . S
H372 N360 0.984 . S
H373 N360 0.985 . S
C374 C375 1.363 . S
C374 C380 1.379 . S
C374 N382 1.356 1_655 S
C375 C374 1.363 . S
C375 C381 1.363 . S
C376 C377 1.363 . S
C376 C381 1.379 . S
C376 N383 1.356 . S
C377 C376 1.363 . S
C377 C380 1.363 . S
N378 C380 1.356 . S
N378 H390 0.984 1_655 S
N378 H391 0.985 . S
N379 C381 1.356 . S
N379 H384 0.984 . S
N379 H385 0.985 . S
C380 C374 1.379 . S
C380 C377 1.363 . S
C380 N378 1.356 . S
C381 C375 1.363 . S
C381 C376 1.379 . S
C381 N379 1.356 . S
N382 C374 1.356 1_455 S
N382 H388 0.984 . S
N382 H389 0.984 . S
N383 C376 1.356 . S
N383 H386 0.984 . S
N383 H387 0.985 . S
H384 N379 0.984 . S
H385 N379 0.985 . S
H386 N383 0.984 . S
H387 N383 0.985 . S
H388 N382 0.984 . S
H389 N382 0.984 . S
H390 N378 0.984 1_455 S
H391 N378 0.985 . S
C105 C56 1.755 . S
C107 C10 1.755 . S
C123 C17 1.762 . S
C125 C69 1.762 . S
C141 C36 1.754 . S
C143 C88 1.754 . S
C159 C95 1.747 . S
C161 C43 1.747 . S
C177 C4 1.645 . S
C179 C30 1.643 . S
C195 C23 1.645 . S
C197 C49 1.643 . S
C213 C82 1.645 . S
C215 C62 1.643 . S
C231 C75 1.645 . S
C233 C101 1.643 . S
C249 C70 1.224 . S
C251 C5 1.284 . S
C267 C16 1.288 . S
C269 C81 1.229 . S
C285 C31 1.275 . S
C287 C96 1.220 . S
C303 C57 1.215 . S
C305 C42 1.272 . S
C321 C55 1.283 . S
C323 C18 1.226 . S
C339 C68 1.288 . S
C341 C29 1.229 . S
C357 C83 1.275 . S
C359 C44 1.220 . S
C375 C3 1.215 . S
C377 C94 1.272 . S
