# Generated by pormake.
# Topology lcy-e, (6)-cn, num edge types: 1
# Building blocks:
#     Node 0, Type 0, BuildingBlock: BETDEL_clean_sbu_0, # of connection points: 6
#     Node 1, Type 0, BuildingBlock: BETDEL_clean_sbu_0, # of connection points: 6
#     Node 2, Type 0, BuildingBlock: BETDEL_clean_sbu_0, # of connection points: 6
#     Node 3, Type 0, BuildingBlock: BETDEL_clean_sbu_0, # of connection points: 6
#     Node 4, Type 0, BuildingBlock: BETDEL_clean_sbu_0, # of connection points: 6
#     Node 5, Type 0, BuildingBlock: BETDEL_clean_sbu_0, # of connection points: 6
#     Node 6, Type 0, BuildingBlock: BETDEL_clean_sbu_0, # of connection points: 6
#     Node 7, Type 0, BuildingBlock: BETDEL_clean_sbu_0, # of connection points: 6
#     Node 8, Type 0, BuildingBlock: BETDEL_clean_sbu_0, # of connection points: 6
#     Node 9, Type 0, BuildingBlock: BETDEL_clean_sbu_0, # of connection points: 6
#     Node 10, Type 0, BuildingBlock: BETDEL_clean_sbu_0, # of connection points: 6
#     Node 11, Type 0, BuildingBlock: BETDEL_clean_sbu_0, # of connection points: 6
#     Edge 12, Type (0, 0), BuildingBlock: AJUNOK_clean_linker_0, # of connection points: 2
#     Edge 13, Type (0, 0), BuildingBlock: AJUNOK_clean_linker_0, # of connection points: 2
#     Edge 14, Type (0, 0), BuildingBlock: AJUNOK_clean_linker_0, # of connection points: 2
#     Edge 15, Type (0, 0), BuildingBlock: AJUNOK_clean_linker_0, # of connection points: 2
#     Edge 16, Type (0, 0), BuildingBlock: AJUNOK_clean_linker_0, # of connection points: 2
#     Edge 17, Type (0, 0), BuildingBlock: AJUNOK_clean_linker_0, # of connection points: 2
#     Edge 18, Type (0, 0), BuildingBlock: AJUNOK_clean_linker_0, # of connection points: 2
#     Edge 19, Type (0, 0), BuildingBlock: AJUNOK_clean_linker_0, # of connection points: 2
#     Edge 20, Type (0, 0), BuildingBlock: AJUNOK_clean_linker_0, # of connection points: 2
#     Edge 21, Type (0, 0), BuildingBlock: AJUNOK_clean_linker_0, # of connection points: 2
#     Edge 22, Type (0, 0), BuildingBlock: AJUNOK_clean_linker_0, # of connection points: 2
#     Edge 23, Type (0, 0), BuildingBlock: AJUNOK_clean_linker_0, # of connection points: 2
#     Edge 24, Type (0, 0), BuildingBlock: AJUNOK_clean_linker_0, # of connection points: 2
#     Edge 25, Type (0, 0), BuildingBlock: AJUNOK_clean_linker_0, # of connection points: 2
#     Edge 26, Type (0, 0), BuildingBlock: AJUNOK_clean_linker_0, # of connection points: 2
#     Edge 27, Type (0, 0), BuildingBlock: AJUNOK_clean_linker_0, # of connection points: 2
#     Edge 28, Type (0, 0), BuildingBlock: AJUNOK_clean_linker_0, # of connection points: 2
#     Edge 29, Type (0, 0), BuildingBlock: AJUNOK_clean_linker_0, # of connection points: 2
#     Edge 30, Type (0, 0), BuildingBlock: AJUNOK_clean_linker_0, # of connection points: 2
#     Edge 31, Type (0, 0), BuildingBlock: AJUNOK_clean_linker_0, # of connection points: 2
#     Edge 32, Type (0, 0), BuildingBlock: AJUNOK_clean_linker_0, # of connection points: 2
#     Edge 33, Type (0, 0), BuildingBlock: AJUNOK_clean_linker_0, # of connection points: 2
#     Edge 34, Type (0, 0), BuildingBlock: AJUNOK_clean_linker_0, # of connection points: 2
#     Edge 35, Type (0, 0), BuildingBlock: AJUNOK_clean_linker_0, # of connection points: 2
#     Edge 36, Type (0, 0), BuildingBlock: AJUNOK_clean_linker_0, # of connection points: 2
#     Edge 37, Type (0, 0), BuildingBlock: AJUNOK_clean_linker_0, # of connection points: 2
#     Edge 38, Type (0, 0), BuildingBlock: AJUNOK_clean_linker_0, # of connection points: 2
#     Edge 39, Type (0, 0), BuildingBlock: AJUNOK_clean_linker_0, # of connection points: 2
#     Edge 40, Type (0, 0), BuildingBlock: AJUNOK_clean_linker_0, # of connection points: 2
#     Edge 41, Type (0, 0), BuildingBlock: AJUNOK_clean_linker_0, # of connection points: 2
#     Edge 42, Type (0, 0), BuildingBlock: AJUNOK_clean_linker_0, # of connection points: 2
#     Edge 43, Type (0, 0), BuildingBlock: AJUNOK_clean_linker_0, # of connection points: 2
#     Edge 44, Type (0, 0), BuildingBlock: AJUNOK_clean_linker_0, # of connection points: 2
#     Edge 45, Type (0, 0), BuildingBlock: AJUNOK_clean_linker_0, # of connection points: 2
#     Edge 46, Type (0, 0), BuildingBlock: AJUNOK_clean_linker_0, # of connection points: 2
#     Edge 47, Type (0, 0), BuildingBlock: AJUNOK_clean_linker_0, # of connection points: 2
# Relax obj value: 0.221
# Max RMSD: 0.284
# Mean RMSD: 0.273
data_MOF--net-lcy-e--node1-BETDEL_clean_sbu_0--edge1-AJUNOK_clean_linker_0
_symmetry_space_group_name_H-M    P1
_symmetry_Int_Tables_number       1
_symmetry_cell_setting            triclinic
loop_
_symmetry_equiv_pos_as_xyz
'x, y, z'
_cell_length_a     28.138037
_cell_length_b     27.402813
_cell_length_c     28.520858
_cell_angle_alpha  90.708118
_cell_angle_beta   92.596187
_cell_angle_gamma 88.450899
loop_
_atom_site_label
_atom_site_type_symbol
_atom_site_fract_x
_atom_site_fract_y
_atom_site_fract_z
_atom_type_partial_charge
Dy0 Dy 0.12316 0.26864 0.466 0.0
C1 C 0.1631 0.09759 0.56615 0.0
C2 C 0.09941 0.34284 0.40518 0.0
Dy3 Dy 0.1568 0.1882 0.52734 0.0
O4 O 0.08142 0.29998 0.40448 0.0
O5 O 0.12746 0.34663 0.44239 0.0
O6 O 0.09045 0.21322 0.41825 0.0
O7 O 0.08746 0.2034 0.49047 0.0
C8 C 0.07542 0.18567 0.45048 0.0
C9 C 0.20866 0.27093 0.53725 0.0
O10 O 0.19427 0.16457 0.4628 0.0
O11 O 0.18824 0.24042 0.42868 0.0
O12 O 0.17936 0.13713 0.58609 0.0
O13 O 0.14604 0.10761 0.52431 0.0
O14 O 0.20198 0.24103 0.57136 0.0
O15 O 0.191 0.25267 0.50019 0.0
O16 O 0.09618 0.29408 0.53719 0.0
O17 O 0.09991 0.21817 0.57153 0.0
C18 C 0.20594 0.1949 0.42987 0.0
C19 C 0.08725 0.26469 0.57255 0.0
Dy20 Dy 0.99852 0.87688 0.70011 0.0
C21 C 0.16733 0.87146 0.82114 0.0
C22 C 0.93629 0.88699 0.62443 0.0
Dy23 Dy 0.08243 0.8876 0.77297 0.0
O24 O 0.97615 0.86221 0.62496 0.0
O25 O 0.92918 0.9049 0.66609 0.0
O26 O 0.01211 0.79685 0.7 0.0
O27 O 0.0698 0.84374 0.70874 0.0
C28 C 0.05793 0.79949 0.70642 0.0
C29 C 1.0037 0.94396 0.78847 0.0
O30 O 0.11084 0.93469 0.71903 0.0
O31 O 0.04648 0.92897 0.66508 0.0
O32 O 0.14204 0.91197 0.82271 0.0
O33 O 0.14609 0.84003 0.79354 0.0
O34 O 0.03379 0.92872 0.82153 0.0
O35 O 0.02073 0.9326 0.74955 0.0
O36 O 0.96628 0.85035 0.76604 0.0
O37 O 0.03868 0.83211 0.80568 0.0
C38 C 0.0891 0.94553 0.67833 0.0
C39 C 0.99165 0.83141 0.80237 0.0
Dy40 Dy 0.38466 0.80464 0.02029 0.0
C41 C 0.37658 0.6771 0.85998 0.0
C42 C 0.39675 0.86677 0.09503 0.0
Dy43 Dy 0.39726 0.72584 0.9419 0.0
O44 O 0.3554 0.8538 0.07734 0.0
O45 O 0.43032 0.84517 0.07243 0.0
O46 O 0.35217 0.85765 0.96877 0.0
O47 O 0.34317 0.78327 0.95669 0.0
C48 C 0.33605 0.82524 0.93909 0.0
C49 C 0.44655 0.70932 0.02524 0.0
O50 O 0.44078 0.78419 0.9139 0.0
O51 O 0.45064 0.82677 0.98429 0.0
O52 O 0.41975 0.68436 0.87703 0.0
O53 O 0.34589 0.6956 0.88811 0.0
O54 O 0.43644 0.67459 0.99488 0.0
O55 O 0.43597 0.74904 1.0055 0.0
O56 O 0.34779 0.73803 0.04847 0.0
O57 O 0.34487 0.68847 0.98117 0.0
C58 C 0.46268 0.8171 0.9405 0.0
C59 C 0.33597 0.69702 0.02531 0.0
Dy60 Dy 0.52353 0.12942 0.19711 0.0
C61 C 0.37454 0.13386 0.33209 0.0
C62 C 0.5845 0.10512 0.12757 0.0
Dy63 Dy 0.4518 0.11928 0.27854 0.0
O64 O 0.57493 0.14995 0.14143 0.0
O65 O 0.56391 0.07505 0.1542 0.0
O66 O 0.46475 0.16178 0.14954 0.0
O67 O 0.46092 0.16983 0.22093 0.0
C68 C 0.43808 0.17741 0.18274 0.0
C69 C 0.5394 0.07566 0.29397 0.0
O70 O 0.4219 0.06295 0.22958 0.0
O71 O 0.48613 0.05944 0.18106 0.0
O72 O 0.37376 0.11228 0.29123 0.0
O73 O 0.41784 0.14558 0.34448 0.0
O74 O 0.51117 0.08762 0.32757 0.0
O75 O 0.51618 0.08121 0.25558 0.0
O76 O 0.55465 0.17355 0.2599 0.0
O77 O 0.47948 0.19391 0.27984 0.0
C78 C 0.44572 0.04241 0.19545 0.0
C79 C 0.52547 0.19781 0.28815 0.0
Dy80 Dy 0.61597 0.23965 0.58815 0.0
C81 C 0.60533 0.40413 0.46189 0.0
C82 C 0.63978 0.17624 0.65943 0.0
Dy83 Dy 0.62536 0.32366 0.5163 0.0
O84 O 0.66739 0.20818 0.64283 0.0
O85 O 0.59935 0.1767 0.6351 0.0
O86 O 0.54486 0.26479 0.60768 0.0
O87 O 0.59378 0.31672 0.58564 0.0
C88 C 0.55094 0.30928 0.59509 0.0
C89 C 0.68375 0.24288 0.50809 0.0
O90 O 0.68061 0.3496 0.56715 0.0
O91 O 0.68448 0.27753 0.60949 0.0
O92 O 0.6205 0.36185 0.44646 0.0
O93 O 0.60185 0.40245 0.50709 0.0
O94 O 0.69438 0.28532 0.49164 0.0
O95 O 0.6423 0.24647 0.52069 0.0
O96 O 0.58317 0.2101 0.51825 0.0
O97 O 0.55884 0.28627 0.49221 0.0
C98 C 0.70149 0.32066 0.59886 0.0
C99 C 0.55815 0.23833 0.48728 0.0
Dy100 Dy 0.94854 0.37056 0.76036 0.0
C101 C 0.06879 0.36873 0.92906 0.0
C102 C 0.88699 0.36402 0.68384 0.0
Dy103 Dy 0.0212 0.35956 0.84417 0.0
O104 O 0.89696 0.4044 0.70625 0.0
O105 O 0.9135 0.32872 0.70127 0.0
O106 O 0.89579 0.40398 0.80831 0.0
O107 O 0.96809 0.41547 0.8223 0.0
C108 C 0.92705 0.42238 0.83763 0.0
C109 C 0.04209 0.30692 0.76661 0.0
O110 O 0.9676 0.30777 0.86685 0.0
O111 O 0.91946 0.30729 0.79826 0.0
O112 O 0.08849 0.36567 0.8888 0.0
O113 O 0.02295 0.3653 0.92316 0.0
O114 O 0.07375 0.32065 0.79839 0.0
O115 O 1.00154 0.31614 0.78189 0.0
O116 O 0.01493 0.40619 0.73555 0.0
O117 O 0.0427 0.42703 0.81012 0.0
C118 C 0.93121 0.29128 0.84106 0.0
C119 C 0.04638 0.42854 0.76425 0.0
Dy120 Dy 0.8703 0.75535 0.07358 0.0
C121 C 0.87352 0.58457 0.95858 0.0
C122 C 0.86881 0.8123 0.15232 0.0
Dy123 Dy 0.85144 0.66969 1.00353 0.0
O124 O 0.87595 0.76548 0.15116 0.0
O125 O 0.86388 0.82917 0.10973 0.0
O126 O 0.94719 0.73425 0.07433 0.0
O127 O 0.89628 0.67992 0.06733 0.0
C128 C 0.94016 0.68806 0.06829 0.0
C129 C 0.7987 0.75293 0.98707 0.0
O130 O 0.80698 0.64243 0.05876 0.0
O131 O 0.80787 0.71547 0.10151 0.0
O132 O 0.8304 0.6034 0.96043 0.0
O133 O 0.90361 0.61226 0.98124 0.0
O134 O 0.8085 0.72066 0.95458 0.0
O135 O 0.81301 0.73556 0.0258 0.0
O136 O 0.89369 0.78799 1.00606 0.0
O137 O 0.90451 0.71304 0.96807 0.0
C138 C 0.79202 0.67051 0.0933 0.0
C139 C 0.90847 0.76091 0.97009 0.0
Dy140 Dy 0.55806 0.61097 0.25523 0.0
C141 C 0.4263 0.65146 0.39758 0.0
C142 C 0.62406 0.61801 0.18919 0.0
Dy143 Dy 0.47813 0.64362 0.31926 0.0
O144 O 0.6136 0.57687 0.20859 0.0
O145 O 0.59646 0.6529 0.20372 0.0
O146 O 0.60232 0.58188 0.31579 0.0
O147 O 0.52862 0.58045 0.3179 0.0
C148 C 0.56707 0.57193 0.34156 0.0
C149 C 0.47207 0.67946 0.22998 0.0
O150 O 0.5311 0.6979 0.34533 0.0
O151 O 0.58775 0.67853 0.29116 0.0
O152 O 0.40857 0.65522 0.35472 0.0
O153 O 0.47224 0.64581 0.39716 0.0
O154 O 0.43536 0.67579 0.25599 0.0
O155 O 0.50855 0.67084 0.25582 0.0
O156 O 0.49196 0.56956 0.22725 0.0
O157 O 0.45316 0.57069 0.29664 0.0
C158 C 0.57188 0.70608 0.32609 0.0
C159 C 0.45628 0.55549 0.25295 0.0
Dy160 Dy 0.24856 0.42508 0.15988 0.0
C161 C 0.09345 0.564 0.14127 0.0
C162 C 0.31942 0.35445 0.16375 0.0
Dy163 Dy 0.17367 0.51009 0.1629 0.0
O164 O 0.29825 0.37095 0.12547 0.0
O165 O 0.3037 0.37868 0.19956 0.0
O166 O 0.1914 0.3778 0.12768 0.0
O167 O 0.19034 0.45161 0.11319 0.0
C168 C 0.16804 0.41289 0.1062 0.0
C169 C 0.25617 0.52531 0.21304 0.0
O170 O 0.14514 0.46404 0.21767 0.0
O171 O 0.20718 0.40564 0.22284 0.0
O172 O 0.13468 0.58173 0.15321 0.0
O173 O 0.09522 0.51668 0.14381 0.0
O174 O 0.22781 0.56027 0.19701 0.0
O175 O 0.23515 0.48555 0.20701 0.0
O176 O 0.28209 0.48849 0.12282 0.0
O177 O 0.21 0.52282 0.09768 0.0
C178 C 0.16647 0.42538 0.23707 0.0
C179 C 0.25671 0.52239 0.09859 0.0
Dy180 Dy 0.70072 0.96916 0.86692 0.0
C181 C 0.82137 0.12941 0.89839 0.0
C182 C 0.63852 0.89613 0.87903 0.0
Dy183 Dy 0.76798 0.04818 0.89762 0.0
O184 O 0.64242 0.9197 0.84009 0.0
O185 O 0.67108 0.91011 0.9095 0.0
O186 O 0.68228 1.00032 0.79799 0.0
O187 O 0.69916 0.04816 0.85571 0.0
C188 C 0.6909 0.04487 0.81128 0.0
C189 C 0.77755 0.96017 0.94162 0.0
O190 O 0.71435 0.07216 0.94669 0.0
O191 O 0.66786 1.00494 0.93169 0.0
O192 O 0.77583 0.12841 0.88974 0.0
O193 O 0.83806 0.08572 0.90798 0.0
O194 O 0.78585 1.00117 0.96381 0.0
O195 O 0.76906 0.96965 0.89969 0.0
O196 O 0.7703 0.94665 0.83207 0.0
O197 O 0.79723 0.0249 0.82911 0.0
C198 C 0.67819 0.04537 0.95623 0.0
C199 C 0.80137 0.97854 0.81686 0.0
Dy200 Dy 0.74669 0.94479 0.40011 0.0
C201 C 0.91102 0.06941 0.39538 0.0
C202 C 0.67248 0.88313 0.38299 0.0
Dy203 Dy 0.82846 0.01902 0.38328 0.0
O204 O 0.69282 0.89106 0.42439 0.0
O205 O 0.69007 0.91203 0.35302 0.0
O206 O 0.79978 0.89432 0.4365 0.0
O207 O 0.81007 0.96926 0.43939 0.0
C208 C 0.82833 0.92836 0.4509 0.0
C209 C 0.74281 0.03534 0.33709 0.0
O210 O 0.8513 0.96089 0.33346 0.0
O211 O 0.78587 0.91123 0.33996 0.0
O212 O 0.87163 0.08616 0.37497 0.0
O213 O 0.90593 0.02407 0.40677 0.0
O214 O 0.77275 0.06994 0.34691 0.0
O215 O 0.76302 0.99532 0.34741 0.0
O216 O 0.72351 0.01593 0.43742 0.0
O217 O 0.79907 0.04742 0.44802 0.0
C218 C 0.82634 0.92228 0.32081 0.0
C219 C 0.75309 0.0504 0.45372 0.0
Dy220 Dy 0.31795 0.49932 0.63294 0.0
C221 C 0.1756 0.64679 0.6253 0.0
C222 C 0.38582 0.42741 0.63094 0.0
Dy223 Dy 0.23497 0.56753 0.61748 0.0
O224 O 0.38555 0.46321 0.66107 0.0
O225 O 0.34731 0.42911 0.60422 0.0
O226 O 0.36181 0.56043 0.66057 0.0
O227 O 0.2896 0.5596 0.67486 0.0
C228 C 0.3275 0.58316 0.68128 0.0
C229 C 0.22854 0.47983 0.57127 0.0
O230 O 0.28208 0.60051 0.56628 0.0
O231 O 0.34116 0.53991 0.57037 0.0
O232 O 0.1621 0.60288 0.61445 0.0
O233 O 0.22171 0.64785 0.62825 0.0
O234 O 0.19232 0.50354 0.58813 0.0
O235 O 0.26448 0.50591 0.57719 0.0
O236 O 0.26113 0.4675 0.67769 0.0
O237 O 0.21642 0.53832 0.68538 0.0
C238 C 0.32258 0.58094 0.55246 0.0
C239 C 0.22475 0.49237 0.69554 0.0
C240 C 0.23347 0.34138 0.58811 0.0
C241 C 0.22385 0.32273 0.54301 0.0
C242 C 0.23414 0.39178 0.59701 0.0
C243 C 0.23019 0.4261 0.5606 0.0
H244 H 0.23869 0.31669 0.61721 0.0
H245 H 0.23698 0.40286 0.633 0.0
S246 S 0.2295 0.3945 0.43386 0.0
N247 N 0.22549 0.34127 0.45989 0.0
N248 N 0.23092 0.43625 0.47622 0.0
C249 C 0.22884 0.40743 0.51442 0.0
C250 C 0.2255 0.35575 0.50554 0.0
C251 C 0.87056 0.97153 0.76371 0.0
C252 C 0.85089 0.96243 0.80717 0.0
C253 C 0.92014 0.96673 0.758 0.0
C254 C 0.95195 0.95355 0.79568 0.0
H255 H 0.84768 0.98369 0.73434 0.0
H256 H 0.93383 0.97458 0.72416 0.0
S257 S 0.91918 0.93518 0.91869 0.0
N258 N 0.86804 0.94526 0.8895 0.0
N259 N 0.96012 0.93757 0.87926 0.0
C260 C 0.93277 0.94679 0.83969 0.0
C261 C 0.8826 0.95074 0.84522 0.0
C262 C 0.34106 0.60854 0.04325 0.0
C263 C 0.31827 0.65464 0.04949 0.0
C264 C 0.32189 0.56564 0.05996 0.0
C265 C 0.27841 0.56734 0.08195 0.0
H266 H 0.37381 0.60556 0.02474 0.0
H267 H 0.3404 0.53102 0.05445 0.0
S268 S 0.20899 0.68016 0.11268 0.0
N269 N 0.2536 0.70019 0.08342 0.0
N270 N 0.21566 0.62011 0.11317 0.0
C271 C 0.25593 0.61367 0.08914 0.0
C272 C 0.27643 0.65724 0.07348 0.0
C273 C 0.60653 0.03233 0.33904 0.0
C274 C 0.59121 0.06125 0.30059 0.0
C275 C 0.65523 0.02188 0.34922 0.0
C276 C 0.69113 0.04247 0.32332 0.0
H277 H 0.58061 0.01764 0.36162 0.0
H278 H 0.66426 0.99858 0.37854 0.0
S279 S 0.67108 0.11767 0.21722 0.0
N280 N 0.61701 0.10579 0.23338 0.0
N281 N 0.70793 0.09068 0.25599 0.0
C282 C 0.67647 0.07043 0.2843 0.0
C283 C 0.62682 0.07861 0.27207 0.0
C284 C 0.74144 0.188 0.46657 0.0
C285 C 0.70682 0.19426 0.49999 0.0
C286 C 0.75609 0.14096 0.45227 0.0
C287 C 0.73604 0.09859 0.47022 0.0
H288 H 0.75578 0.21937 0.44994 0.0
H289 H 0.78235 0.13778 0.42568 0.0
S290 S 0.64928 0.09458 0.56283 0.0
N291 N 0.65736 0.15329 0.55478 0.0
N292 N 0.68355 0.06561 0.52561 0.0
C293 C 0.70315 0.10413 0.50484 0.0
C294 C 0.68914 0.15182 0.52047 0.0
C295 C 0.1059 0.43383 0.70146 0.0
C296 C 0.09192 0.44643 0.74687 0.0
C297 C 0.15135 0.44471 0.68665 0.0
C298 C 0.18485 0.46828 0.71662 0.0
H299 H 0.08179 0.41503 0.67717 0.0
H300 H 0.15941 0.43644 0.65065 0.0
S301 S 0.16555 0.51278 0.83746 0.0
N302 N 0.11539 0.48625 0.82111 0.0
N303 N 0.20015 0.50676 0.79241 0.0
C304 C 0.17126 0.48185 0.76165 0.0
C305 C 0.12509 0.47087 0.77697 0.0
C306 C 0.79035 0.87233 0.92229 0.0
C307 C 0.78324 0.90841 0.95725 0.0
C308 C 0.79295 0.82266 0.93227 0.0
C309 C 0.78945 0.8059 0.97802 0.0
H310 H 0.79431 0.88206 0.88622 0.0
H311 H 0.79842 0.79728 0.9036 0.0
S312 S 0.7629 0.88346 0.08195 0.0
N313 N 0.7675 0.92309 0.03924 0.0
N314 N 0.77281 0.82878 0.05854 0.0
C315 C 0.78049 0.84096 1.01358 0.0
C316 C 0.77756 0.89233 1.00317 0.0
C317 C 0.38722 0.49889 0.24972 0.0
C318 C 0.41052 0.53871 0.23093 0.0
C319 C 0.33748 0.49357 0.24273 0.0
C320 C 0.30883 0.52988 0.21989 0.0
H321 H 0.40723 0.47289 0.27164 0.0
H322 H 0.3211 0.46227 0.25748 0.0
S323 S 0.35227 0.64251 0.16741 0.0
N324 N 0.40089 0.61231 0.1855 0.0
N325 N 0.3079 0.60843 0.18159 0.0
C326 C 0.33181 0.56993 0.20185 0.0
C327 C 0.38244 0.5726 0.20486 0.0
C328 C 0.50587 0.23968 0.36313 0.0
C329 C 0.53907 0.21183 0.33755 0.0
C330 C 0.51032 0.24466 0.41211 0.0
C331 C 0.54779 0.22149 0.43822 0.0
H332 H 0.47536 0.25722 0.34516 0.0
H333 H 0.4846 0.26773 0.42969 0.0
S334 S 0.64623 0.14741 0.38863 0.0
N335 N 0.61266 0.16376 0.34226 0.0
N336 N 0.61982 0.17102 0.43449 0.0
C337 C 0.58143 0.1938 0.41326 0.0
C338 C 0.57759 0.18982 0.36301 0.0
C339 C 0.02754 0.27385 0.63559 0.0
C340 C 0.07258 0.28389 0.6189 0.0
C341 C 0.01757 0.28111 0.68339 0.0
C342 C 0.05248 0.29786 0.71634 0.0
H343 H 1.00046 0.2586 0.61196 0.0
H344 H 0.98302 0.27159 0.69494 0.0
S345 S 0.17767 0.32204 0.69205 0.0
N346 N 0.15297 0.30719 0.64039 0.0
N347 N 0.13483 0.32005 0.72929 0.0
C348 C 0.09777 0.30659 0.7002 0.0
C349 C 0.10756 0.29992 0.65179 0.0
C350 C 0.98744 0.82718 0.88942 0.0
C351 C 0.96785 0.81522 0.84438 0.0
C352 C 0.96638 0.81234 0.93043 0.0
C353 C 0.92616 0.78332 0.92768 0.0
H354 H 0.0192 0.84866 0.89306 0.0
H355 H 0.98278 0.82187 0.96429 0.0
S356 S 0.86294 0.73956 0.81849 0.0
N357 N 0.90592 0.77312 0.7997 0.0
N358 N 0.86868 0.74127 0.87636 0.0
C359 C 0.9067 0.77051 0.88286 0.0
C360 C 0.92691 0.78746 0.84126 0.0
C361 C 0.44266 0.72794 0.15927 0.0
C362 C 0.47047 0.68872 0.17768 0.0
C363 C 0.43643 0.73519 0.11042 0.0
C364 C 0.45622 0.70285 0.07719 0.0
H365 H 0.42492 0.75301 0.18284 0.0
H366 H 0.4139 0.76526 0.09897 0.0
S367 S 0.53132 0.59349 0.1054 0.0
N368 N 0.51877 0.61715 0.157 0.0
N369 N 0.50469 0.62994 0.06627 0.0
C370 C 0.484 0.66357 0.09483 0.0
C371 C 0.4918 0.65686 0.14458 0.0
C372 C 0.11096 0.33973 0.31971 0.0
C373 C 0.10828 0.36794 0.36127 0.0
C374 C 0.13006 0.3585 0.27948 0.0
C375 C 0.1458 0.40645 0.27915 0.0
H376 H 0.10076 0.30187 0.31891 0.0
H377 H 0.13292 0.33528 0.24864 0.0
S378 S 0.14329 0.49649 0.37713 0.0
N379 N 0.12123 0.4467 0.39884 0.0
N380 N 0.15534 0.48291 0.32222 0.0
C381 C 0.14117 0.43591 0.31946 0.0
C382 C 0.12278 0.41641 0.36085 0.0
C383 C 0.91401 0.86939 0.54048 0.0
C384 C 0.90765 0.89817 0.58105 0.0
C385 C 0.88908 0.88029 0.49805 0.0
C386 C 0.85803 0.92114 0.49435 0.0
H387 H 0.93809 0.83786 0.54162 0.0
H388 H 0.89396 0.85646 0.46794 0.0
S389 S 0.82907 0.00836 0.59026 0.0
N390 N 0.86785 0.96914 0.61496 0.0
N391 N 0.82175 0.99028 0.53502 0.0
C392 C 0.85178 0.95062 0.53451 0.0
C393 C 0.87639 0.93892 0.57796 0.0
C394 C 0.3857 0.6229 0.73751 0.0
C395 C 0.33809 0.61232 0.72445 0.0
C396 C 0.39804 0.64356 0.7815 0.0
C397 C 0.36324 0.65458 0.814 0.0
H398 H 0.41398 0.61394 0.7141 0.0
H399 H 0.43512 0.65067 0.79015 0.0
S400 S 0.23306 0.6373 0.79592 0.0
N401 N 0.25573 0.61732 0.74667 0.0
N402 N 0.27879 0.65516 0.82954 0.0
C403 C 0.31533 0.64546 0.80095 0.0
C404 C 0.30278 0.62478 0.75605 0.0
C405 C 0.63119 0.12329 0.05684 0.0
C406 C 0.60855 0.08943 0.08419 0.0
C407 C 0.65235 0.10887 1.01491 0.0
C408 C 0.65111 0.06012 0.99814 0.0
H409 H 0.63281 0.16117 0.06798 0.0
H410 H 0.67004 0.13628 0.99553 0.0
S411 S 0.5954 0.95723 0.05639 0.0
N412 N 0.58578 1.00469 0.09123 0.0
N413 N 0.62494 0.97814 1.01249 0.0
C414 C 0.62791 0.02607 0.02483 0.0
C415 C 0.60691 0.04055 0.06782 0.0
C416 C 0.61971 0.11249 0.71669 0.0
C417 C 0.65216 0.14612 0.70123 0.0
C418 C 0.63143 0.0824 0.75513 0.0
C419 C 0.6757 0.08526 0.77996 0.0
H420 H 0.58552 0.10841 0.69824 0.0
H421 H 0.60626 0.05528 0.76444 0.0
S422 S 0.77281 0.16802 0.75454 0.0
N423 N 0.73019 0.18157 0.71473 0.0
N424 N 0.75183 0.12458 0.78685 0.0
C425 C 0.70783 0.11979 0.766 0.0
C426 C 0.69614 0.15032 0.72661 0.0
C427 C 0.09853 0.37922 0.05998 0.0
C428 C 0.142 0.40328 0.06129 0.0
C429 C 0.07458 0.36839 0.01693 0.0
C430 C 0.09426 0.37994 0.97406 0.0
H431 H 0.08291 0.36901 0.09235 0.0
H432 H 0.04086 0.35026 0.01717 0.0
S433 S 0.20774 0.44258 0.95905 0.0
N434 N 0.20375 0.43846 0.01642 0.0
N435 N 0.15959 0.41701 0.93576 0.0
C436 C 0.13791 0.4037 0.97511 0.0
C437 C 0.16162 0.41564 0.01873 0.0
C438 C 0.86173 0.91552 0.24194 0.0
C439 C 0.84093 0.89294 0.27985 0.0
C440 C 0.87062 0.88948 0.20035 0.0
C441 C 0.86017 0.8398 0.19598 0.0
H442 H 0.86962 0.954 0.24374 0.0
H443 H 0.88575 0.90826 0.17157 0.0
S444 S 0.80577 0.76375 0.28503 0.0
N445 N 0.81012 0.81814 0.3101 0.0
N446 N 0.82795 0.76897 0.23278 0.0
C447 C 0.84025 0.81664 0.23394 0.0
C448 C 0.83034 0.84328 0.2757 0.0
C449 C 0.39766 0.60208 0.51563 0.0
C450 C 0.34772 0.6045 0.51477 0.0
C451 C 0.42271 0.62068 0.47884 0.0
C452 C 0.39877 0.64131 0.43916 0.0
H453 H 0.41763 0.58506 0.54473 0.0
H454 H 0.46111 0.61684 0.48066 0.0
S455 S 0.26815 0.65872 0.4209 0.0
N456 N 0.27509 0.63184 0.47239 0.0
N457 N 0.32232 0.66538 0.40226 0.0
C458 C 0.34887 0.64555 0.43852 0.0
C459 C 0.3233 0.62746 0.47659 0.0
C460 C 0.24998 0.13588 0.37871 0.0
C461 C 0.24748 0.18131 0.4021 0.0
C462 C 0.2911 0.1208 0.3556 0.0
C463 C 0.3317 0.14973 0.35695 0.0
H464 H 0.21995 0.11194 0.37824 0.0
H465 H 0.29148 0.08586 0.33741 0.0
S466 S 0.34349 0.27133 0.41421 0.0
N467 N 0.28894 0.25514 0.42487 0.0
N468 N 0.36668 0.22598 0.38331 0.0
C469 C 0.32971 0.195 0.38055 0.0
C470 C 0.28745 0.21101 0.40268 0.0
C471 C 0.16418 0.04939 0.63975 0.0
C472 C 0.15159 0.05314 0.59168 0.0
C473 C 0.14522 0.01318 0.66711 0.0
C474 C 0.11245 0.97981 0.64751 0.0
H475 H 0.18715 0.07594 0.65687 0.0
H476 H 0.15468 0.01288 0.70435 0.0
S477 S 0.07265 0.9703 0.52199 0.0
N478 N 0.10832 0.01719 0.52453 0.0
N479 N 0.07193 0.94986 0.57615 0.0
C480 C 0.10164 0.98147 0.59896 0.0
C481 C 0.12152 0.01789 0.57097 0.0
C482 C 0.22048 0.88491 0.89232 0.0
C483 C 0.212 0.86115 0.84899 0.0
C484 C 0.26104 0.87325 0.92082 0.0
C485 C 0.29483 0.83767 0.90687 0.0
H486 H 0.19496 0.91175 0.90493 0.0
H487 H 0.26542 0.8916 0.95454 0.0
S488 S 0.29332 0.77188 0.79264 0.0
N489 N 0.2429 0.80423 0.79117 0.0
N490 N 0.3201 0.78383 0.84411 0.0
C491 C 0.2879 0.81546 0.86262 0.0
C492 C 0.24624 0.82684 0.83381 0.0
C493 C 0.3836 0.98693 0.16073 0.0
C494 C 0.43091 0.99485 0.17633 0.0
C495 C 0.37137 0.9434 0.137 0.0
C496 C 0.40612 0.9067 0.12895 0.0
H497 H 0.3566 0.01545 0.16463 0.0
H498 H 0.33533 0.93968 0.12267 0.0
S499 S 0.53281 0.90658 0.17135 0.0
N500 N 0.51095 0.96027 0.18779 0.0
N501 N 0.48803 0.87848 0.14433 0.0
C502 C 0.45253 0.91283 0.14801 0.0
C503 C 0.46497 0.95702 0.1714 0.0
C504 C 0.82758 0.30677 0.64981 0.0
C505 C 0.84211 0.35521 0.6564 0.0
C506 C 0.78184 0.29629 0.63199 0.0
C507 C 0.74889 0.33378 0.61916 0.0
H508 H 0.85112 0.27645 0.66009 0.0
H509 H 0.7724 0.25833 0.62806 0.0
S510 S 0.77005 0.46682 0.62687 0.0
N511 N 0.82045 0.44114 0.64737 0.0
N512 N 0.73459 0.42144 0.61237 0.0
C513 C 0.76343 0.38244 0.62387 0.0
C514 C 0.81 0.39315 0.64282 0.0
C515 C 0.86626 0.47497 0.87645 0.0
C516 C 0.91433 0.46036 0.87255 0.0
C517 C 0.85312 0.51437 0.90535 0.0
C518 C 0.88757 0.54036 0.93173 0.0
H519 H 0.83848 0.45679 0.85591 0.0
H520 H 0.81588 0.5252 0.90615 0.0
S521 S 0.01794 0.51356 0.93773 0.0
N522 N 0.99615 0.47287 0.89999 0.0
N523 N 0.97168 0.54641 0.95489 0.0
C524 C 0.9356 0.5247 0.92988 0.0
C525 C 0.94898 0.48479 0.90017 0.0
C526 C 0.719 0.69041 0.13562 0.0
C527 C 0.75073 0.65469 0.11877 0.0
C528 C 0.67751 0.67747 0.15663 0.0
C529 C 0.66632 0.62824 0.16265 0.0
H530 H 0.72561 0.7289 0.13172 0.0
H531 H 0.65438 0.70671 0.16893 0.0
S532 S 0.73798 0.52045 0.12551 0.0
N533 N 0.76835 0.56769 0.10926 0.0
N534 N 0.69036 0.54343 0.15053 0.0
C535 C 0.69771 0.59192 0.14636 0.0
C536 C 0.73993 0.60515 0.124 0.0
C537 C 0.59783 0.44389 0.38336 0.0
C538 C 0.59331 0.44732 0.4322 0.0
C539 C 0.58788 0.48424 0.35439 0.0
C540 C 0.57281 0.52953 0.37303 0.0
H541 H 0.60964 0.4099 0.36733 0.0
H542 H 0.59264 0.48015 0.31703 0.0
S543 S 0.55461 0.55803 0.4982 0.0
N544 N 0.57196 0.49993 0.49782 0.0
N545 N 0.5534 0.57567 0.44295 0.0
C546 C 0.56735 0.53348 0.42152 0.0
C547 C 0.57758 0.49238 0.45122 0.0
C548 C 0.36188 0.28949 0.21151 0.0
C549 C 0.34975 0.30934 0.16717 0.0
C550 C 0.38828 0.24548 0.21604 0.0
C551 C 0.40424 0.21974 0.17643 0.0
H552 H 0.35066 0.30791 0.24313 0.0
H553 H 0.39688 0.23208 0.25104 0.0
S554 S 0.37967 0.25474 0.05215 0.0
N555 N 0.35375 0.29871 0.0827 0.0
N556 N 0.40392 0.21641 0.09115 0.0
C557 C 0.39135 0.23859 0.13179 0.0
C558 C 0.36416 0.28334 0.12719 0.0
C559 C 0.85443 0.2511 0.85106 0.0
C560 C 0.90387 0.25149 0.85968 0.0
C561 C 0.82782 0.21245 0.8662 0.0
C562 C 0.84992 0.17221 0.88931 0.0
H563 H 0.8362 0.28075 0.83225 0.0
H564 H 0.7898 0.21339 0.85818 0.0
S565 S 0.97855 0.15625 0.92091 0.0
N566 N 0.97399 0.2094 0.89414 0.0
N567 N 0.92393 0.13566 0.92123 0.0
C568 C 0.89925 0.17257 0.89897 0.0
C569 C 0.92628 0.21253 0.88443 0.0
C570 C 1.0063 0.58106 0.12588 0.0
C571 C 0.05382 0.59267 0.11907 0.0
C572 C 0.96868 0.61038 0.10674 0.0
C573 C 0.97789 0.65169 0.08009 0.0
H574 H 0.99825 0.55039 0.14751 0.0
H575 H 0.93252 0.60209 0.11476 0.0
S576 S 0.09538 0.69052 0.0434 0.0
N577 N 0.10739 0.64309 0.0775 0.0
N578 N 0.03699 0.69834 0.04221 0.0
C579 C 0.02497 0.66123 0.07022 0.0
C580 C 0.06297 0.63166 0.0896 0.0
C581 C 0.61819 0.81398 0.40008 0.0
C582 C 0.64547 0.83899 0.36845 0.0
C583 C 0.59448 0.77098 0.38632 0.0
C584 C 0.59845 0.75055 0.34091 0.0
H585 H 0.61486 0.82788 0.43553 0.0
H586 H 0.5733 0.75333 0.41161 0.0
S587 S 0.66727 0.8011 0.24541 0.0
N588 N 0.67555 0.83963 0.28974 0.0
N589 N 0.63246 0.75892 0.26463 0.0
C590 C 0.62629 0.77496 0.30931 0.0
C591 C 0.64937 0.81911 0.32288 0.0
C592 C 0.51467 0.3852 0.62724 0.0
C593 C 0.51182 0.34504 0.5965 0.0
C594 C 0.47328 0.41123 0.63914 0.0
C595 C 0.42826 0.39784 0.62032 0.0
H596 H 0.54848 0.39476 0.64411 0.0
H597 H 0.47657 0.4418 0.66341 0.0
S598 S 0.40333 0.29686 0.53586 0.0
N599 N 0.46156 0.29401 0.54605 0.0
N600 N 0.3839 0.34342 0.56762 0.0
C601 C 0.4255 0.35882 0.58815 0.0
C602 C 0.46738 0.33231 0.57638 0.0
C603 C 0.16166 0.73307 0.65127 0.0
C604 C 0.14459 0.68559 0.64461 0.0
C605 C 0.13441 0.76956 0.67329 0.0
C606 C 0.08935 0.75956 0.68974 0.0
H607 H 0.19628 0.74216 0.63925 0.0
H608 H 0.14827 0.80601 0.67646 0.0
S609 S 0.03124 0.63951 0.68617 0.0
N610 N 0.08152 0.6296 0.65953 0.0
N611 N 0.03067 0.69782 0.70141 0.0
C612 C 0.07275 0.71174 0.68489 0.0
C613 C 0.10021 0.67485 0.66206 0.0
C614 C 0.54378 0.84987 0.95566 0.0
C615 C 0.50661 0.83788 0.92332 0.0
C616 C 0.58729 0.86591 0.94057 0.0
C617 C 0.59515 0.87154 0.89257 0.0
H618 H 0.5396 0.84614 0.99301 0.0
H619 H 0.61452 0.87525 0.967 0.0
S620 S 0.5094 0.84514 0.79357 0.0
N621 N 0.48074 0.83199 0.8409 0.0
N622 N 0.56229 0.86364 0.81267 0.0
C623 C 0.55846 0.85953 0.85976 0.0
C624 C 0.51426 0.84239 0.87512 0.0
C625 C 0.99084 0.07949 0.43783 0.0
C626 C 0.95277 0.09935 0.40956 0.0
C627 C 0.02974 0.10799 0.45305 0.0
C628 C 0.03196 0.15721 0.44033 0.0
H629 H 0.99065 0.04162 0.44826 0.0
H630 H 0.05874 0.09113 0.47373 0.0
S631 S 0.9406 0.22756 0.36934 0.0
N632 N 0.91929 0.17213 0.3714 0.0
N633 N 0.99201 0.22515 0.39957 0.0
C634 C 0.99379 0.17764 0.41291 0.0
C635 C 0.95431 0.14888 0.39763 0.0
loop_
_geom_bond_atom_site_label_1
_geom_bond_atom_site_label_2
_geom_bond_distance
_geom_bond_site_symmetry_2
_ccdc_geom_bond_type
Dy0 O4 2.398 . S
Dy0 O5 2.491 . S
Dy0 O6 2.403 . S
Dy0 O7 2.664 . S
Dy0 O11 2.326 . S
Dy0 O15 2.310 . S
Dy0 O16 2.351 . S
C1 O12 1.185 . S
C1 O13 1.355 . S
C2 O4 1.185 . S
C2 O5 1.355 . S
Dy3 O7 2.310 . S
Dy3 O10 2.351 . S
Dy3 O12 2.398 . S
Dy3 O13 2.491 . S
Dy3 O14 2.403 . S
Dy3 O15 2.664 . S
Dy3 O17 2.326 . S
O4 Dy0 2.398 . S
O4 C2 1.185 . S
O5 Dy0 2.491 . S
O5 C2 1.355 . S
O6 Dy0 2.403 . S
O6 C8 1.254 . S
O7 Dy0 2.664 . S
O7 Dy3 2.310 . S
O7 C8 1.268 . S
C8 O6 1.254 . S
C8 O7 1.268 . S
C9 O14 1.254 . S
C9 O15 1.268 . S
O10 Dy3 2.351 . S
O10 C18 1.249 . S
O11 Dy0 2.326 . S
O11 C18 1.267 . S
O12 C1 1.185 . S
O12 Dy3 2.398 . S
O13 C1 1.355 . S
O13 Dy3 2.491 . S
O14 Dy3 2.403 . S
O14 C9 1.254 . S
O15 Dy0 2.310 . S
O15 Dy3 2.664 . S
O15 C9 1.268 . S
O16 Dy0 2.351 . S
O16 C19 1.249 . S
O17 Dy3 2.326 . S
O17 C19 1.267 . S
C18 O10 1.249 . S
C18 O11 1.267 . S
C19 O16 1.249 . S
C19 O17 1.267 . S
Dy20 O24 2.398 . S
Dy20 O25 2.491 . S
Dy20 O26 2.403 1_655 S
Dy20 O27 2.664 1_655 S
Dy20 O31 2.326 1_655 S
Dy20 O35 2.310 . S
Dy20 O36 2.351 . S
C21 O32 1.185 . S
C21 O33 1.355 . S
C22 O24 1.185 . S
C22 O25 1.355 . S
Dy23 O27 2.310 . S
Dy23 O30 2.351 . S
Dy23 O32 2.398 . S
Dy23 O33 2.491 . S
Dy23 O34 2.411 . S
Dy23 O35 2.664 1_455 S
Dy23 O37 2.326 . S
O24 Dy20 2.398 . S
O24 C22 1.185 . S
O25 Dy20 2.491 . S
O25 C22 1.355 . S
O26 Dy20 2.403 1_455 S
O26 C28 1.254 . S
O27 Dy20 2.664 1_455 S
O27 Dy23 2.310 . S
O27 C28 1.268 . S
C28 O26 1.254 . S
C28 O27 1.268 . S
C29 O34 1.247 1_655 S
C29 O35 1.268 . S
O30 Dy23 2.351 . S
O30 C38 1.249 . S
O31 Dy20 2.326 1_455 S
O31 C38 1.267 . S
O32 C21 1.185 . S
O32 Dy23 2.398 . S
O33 C21 1.355 . S
O33 Dy23 2.491 . S
O34 Dy23 2.411 . S
O34 C29 1.247 1_455 S
O35 Dy20 2.310 . S
O35 Dy23 2.664 1_655 S
O35 C29 1.268 . S
O36 Dy20 2.351 . S
O36 C39 1.249 . S
O37 Dy23 2.326 . S
O37 C39 1.267 1_455 S
C38 O30 1.249 . S
C38 O31 1.267 . S
C39 O36 1.249 . S
C39 O37 1.267 1_655 S
Dy40 O44 2.398 . S
Dy40 O45 2.491 . S
Dy40 O46 2.403 1_554 S
Dy40 O47 2.664 1_554 S
Dy40 O51 2.326 1_554 S
Dy40 O55 2.310 . S
Dy40 O56 2.351 . S
C41 O52 1.185 . S
C41 O53 1.355 . S
C42 O44 1.185 . S
C42 O45 1.355 . S
Dy43 O47 2.310 . S
Dy43 O50 2.351 . S
Dy43 O52 2.398 . S
Dy43 O53 2.491 . S
Dy43 O54 2.403 . S
Dy43 O55 2.664 1_556 S
Dy43 O57 2.326 . S
O44 Dy40 2.398 . S
O44 C42 1.185 . S
O45 Dy40 2.491 . S
O45 C42 1.355 . S
O46 Dy40 2.403 1_556 S
O46 C48 1.254 . S
O47 Dy40 2.664 1_556 S
O47 Dy43 2.310 . S
O47 C48 1.268 . S
C48 O46 1.254 . S
C48 O47 1.268 . S
C49 O54 1.254 1_554 S
C49 O55 1.268 . S
O50 Dy43 2.351 . S
O50 C58 1.249 . S
O51 Dy40 2.326 1_556 S
O51 C58 1.267 . S
O52 C41 1.185 . S
O52 Dy43 2.398 . S
O53 C41 1.355 . S
O53 Dy43 2.491 . S
O54 Dy43 2.403 . S
O54 C49 1.254 1_556 S
O55 Dy40 2.310 . S
O55 Dy43 2.664 1_554 S
O55 C49 1.268 . S
O56 Dy40 2.351 . S
O56 C59 1.240 1_554 S
O57 Dy43 2.326 . S
O57 C59 1.278 . S
C58 O50 1.249 . S
C58 O51 1.267 . S
C59 O56 1.240 1_556 S
C59 O57 1.278 . S
Dy60 O64 2.398 . S
Dy60 O65 2.491 . S
Dy60 O66 2.403 . S
Dy60 O67 2.664 . S
Dy60 O71 2.326 . S
Dy60 O75 2.310 . S
Dy60 O76 2.351 . S
C61 O72 1.185 . S
C61 O73 1.355 . S
C62 O64 1.185 . S
C62 O65 1.355 . S
Dy63 O67 2.310 . S
Dy63 O70 2.351 . S
Dy63 O72 2.398 . S
Dy63 O73 2.491 . S
Dy63 O74 2.403 . S
Dy63 O75 2.664 . S
Dy63 O77 2.326 . S
O64 Dy60 2.398 . S
O64 C62 1.185 . S
O65 Dy60 2.491 . S
O65 C62 1.355 . S
O66 Dy60 2.403 . S
O66 C68 1.254 . S
O67 Dy60 2.664 . S
O67 Dy63 2.310 . S
O67 C68 1.268 . S
C68 O66 1.254 . S
C68 O67 1.268 . S
C69 O74 1.254 . S
C69 O75 1.268 . S
O70 Dy63 2.351 . S
O70 C78 1.249 . S
O71 Dy60 2.326 . S
O71 C78 1.267 . S
O72 C61 1.185 . S
O72 Dy63 2.398 . S
O73 C61 1.355 . S
O73 Dy63 2.491 . S
O74 Dy63 2.403 . S
O74 C69 1.254 . S
O75 Dy60 2.310 . S
O75 Dy63 2.664 . S
O75 C69 1.268 . S
O76 Dy60 2.351 . S
O76 C79 1.249 . S
O77 Dy63 2.326 . S
O77 C79 1.267 . S
C78 O70 1.249 . S
C78 O71 1.267 . S
C79 O76 1.249 . S
C79 O77 1.267 . S
Dy80 O84 2.398 . S
Dy80 O85 2.491 . S
Dy80 O86 2.403 . S
Dy80 O87 2.664 . S
Dy80 O91 2.326 . S
Dy80 O95 2.310 . S
Dy80 O96 2.351 . S
C81 O92 1.185 . S
C81 O93 1.355 . S
C82 O84 1.185 . S
C82 O85 1.355 . S
Dy83 O87 2.310 . S
Dy83 O90 2.351 . S
Dy83 O92 2.398 . S
Dy83 O93 2.491 . S
Dy83 O94 2.403 . S
Dy83 O95 2.664 . S
Dy83 O97 2.326 . S
O84 Dy80 2.398 . S
O84 C82 1.185 . S
O85 Dy80 2.491 . S
O85 C82 1.355 . S
O86 Dy80 2.403 . S
O86 C88 1.254 . S
O87 Dy80 2.664 . S
O87 Dy83 2.310 . S
O87 C88 1.268 . S
C88 O86 1.254 . S
C88 O87 1.268 . S
C89 O94 1.254 . S
C89 O95 1.268 . S
O90 Dy83 2.351 . S
O90 C98 1.249 . S
O91 Dy80 2.326 . S
O91 C98 1.267 . S
O92 C81 1.185 . S
O92 Dy83 2.398 . S
O93 C81 1.355 . S
O93 Dy83 2.491 . S
O94 Dy83 2.403 . S
O94 C89 1.254 . S
O95 Dy80 2.310 . S
O95 Dy83 2.664 . S
O95 C89 1.268 . S
O96 Dy80 2.351 . S
O96 C99 1.249 . S
O97 Dy83 2.326 . S
O97 C99 1.267 . S
C98 O90 1.249 . S
C98 O91 1.267 . S
C99 O96 1.249 . S
C99 O97 1.267 . S
Dy100 O104 2.398 . S
Dy100 O105 2.491 . S
Dy100 O106 2.403 . S
Dy100 O107 2.664 . S
Dy100 O111 2.326 . S
Dy100 O115 2.310 . S
Dy100 O116 2.351 1_655 S
C101 O112 1.185 . S
C101 O113 1.355 . S
C102 O104 1.185 . S
C102 O105 1.355 . S
Dy103 O107 2.310 1_455 S
Dy103 O110 2.351 1_455 S
Dy103 O112 2.398 . S
Dy103 O113 2.491 . S
Dy103 O114 2.403 . S
Dy103 O115 2.664 1_455 S
Dy103 O117 2.326 . S
O104 Dy100 2.398 . S
O104 C102 1.185 . S
O105 Dy100 2.491 . S
O105 C102 1.355 . S
O106 Dy100 2.403 . S
O106 C108 1.254 . S
O107 Dy100 2.664 . S
O107 Dy103 2.310 1_655 S
O107 C108 1.268 . S
C108 O106 1.254 . S
C108 O107 1.268 . S
C109 O114 1.254 . S
C109 O115 1.268 1_455 S
O110 Dy103 2.351 1_655 S
O110 C118 1.249 . S
O111 Dy100 2.326 . S
O111 C118 1.267 . S
O112 C101 1.185 . S
O112 Dy103 2.398 . S
O113 C101 1.355 . S
O113 Dy103 2.491 . S
O114 Dy103 2.403 . S
O114 C109 1.254 . S
O115 Dy100 2.310 . S
O115 Dy103 2.664 1_655 S
O115 C109 1.268 1_655 S
O116 Dy100 2.351 1_455 S
O116 C119 1.249 . S
O117 Dy103 2.326 . S
O117 C119 1.267 . S
C118 O110 1.249 . S
C118 O111 1.267 . S
C119 O116 1.249 . S
C119 O117 1.267 . S
Dy120 O124 2.398 . S
Dy120 O125 2.491 . S
Dy120 O126 2.403 . S
Dy120 O127 2.664 . S
Dy120 O131 2.326 . S
Dy120 O135 2.310 . S
Dy120 O136 2.338 1_554 S
C121 O132 1.185 . S
C121 O133 1.355 . S
C122 O124 1.185 . S
C122 O125 1.355 . S
Dy123 O127 2.310 1_556 S
Dy123 O130 2.351 1_556 S
Dy123 O132 2.398 . S
Dy123 O133 2.491 . S
Dy123 O134 2.403 . S
Dy123 O135 2.664 1_556 S
Dy123 O137 2.326 . S
O124 Dy120 2.398 . S
O124 C122 1.185 . S
O125 Dy120 2.491 . S
O125 C122 1.355 . S
O126 Dy120 2.403 . S
O126 C128 1.254 . S
O127 Dy120 2.664 . S
O127 Dy123 2.310 1_554 S
O127 C128 1.268 . S
C128 O126 1.254 . S
C128 O127 1.268 . S
C129 O134 1.254 . S
C129 O135 1.268 1_556 S
O130 Dy123 2.351 1_554 S
O130 C138 1.249 . S
O131 Dy120 2.326 . S
O131 C138 1.267 . S
O132 C121 1.185 . S
O132 Dy123 2.398 . S
O133 C121 1.355 . S
O133 Dy123 2.491 . S
O134 Dy123 2.403 . S
O134 C129 1.254 . S
O135 Dy120 2.310 . S
O135 Dy123 2.664 1_554 S
O135 C129 1.268 1_554 S
O136 Dy120 2.338 1_556 S
O136 C139 1.262 . S
O137 Dy123 2.326 . S
O137 C139 1.267 . S
C138 O130 1.249 . S
C138 O131 1.267 . S
C139 O136 1.262 . S
C139 O137 1.267 . S
Dy140 O144 2.398 . S
Dy140 O145 2.491 . S
Dy140 O146 2.403 . S
Dy140 O147 2.664 . S
Dy140 O151 2.326 . S
Dy140 O155 2.310 . S
Dy140 O156 2.351 . S
C141 O152 1.185 . S
C141 O153 1.355 . S
C142 O144 1.185 . S
C142 O145 1.355 . S
Dy143 O147 2.310 . S
Dy143 O150 2.351 . S
Dy143 O152 2.398 . S
Dy143 O153 2.491 . S
Dy143 O154 2.403 . S
Dy143 O155 2.664 . S
Dy143 O157 2.326 . S
O144 Dy140 2.398 . S
O144 C142 1.185 . S
O145 Dy140 2.491 . S
O145 C142 1.355 . S
O146 Dy140 2.403 . S
O146 C148 1.254 . S
O147 Dy140 2.664 . S
O147 Dy143 2.310 . S
O147 C148 1.268 . S
C148 O146 1.254 . S
C148 O147 1.268 . S
C149 O154 1.254 . S
C149 O155 1.268 . S
O150 Dy143 2.351 . S
O150 C158 1.249 . S
O151 Dy140 2.326 . S
O151 C158 1.267 . S
O152 C141 1.185 . S
O152 Dy143 2.398 . S
O153 C141 1.355 . S
O153 Dy143 2.491 . S
O154 Dy143 2.403 . S
O154 C149 1.254 . S
O155 Dy140 2.310 . S
O155 Dy143 2.664 . S
O155 C149 1.268 . S
O156 Dy140 2.351 . S
O156 C159 1.249 . S
O157 Dy143 2.326 . S
O157 C159 1.267 . S
C158 O150 1.249 . S
C158 O151 1.267 . S
C159 O156 1.249 . S
C159 O157 1.267 . S
Dy160 O164 2.398 . S
Dy160 O165 2.491 . S
Dy160 O166 2.403 . S
Dy160 O167 2.664 . S
Dy160 O171 2.326 . S
Dy160 O175 2.310 . S
Dy160 O176 2.351 . S
C161 O172 1.185 . S
C161 O173 1.355 . S
C162 O164 1.185 . S
C162 O165 1.355 . S
Dy163 O167 2.310 . S
Dy163 O170 2.351 . S
Dy163 O172 2.398 . S
Dy163 O173 2.491 . S
Dy163 O174 2.403 . S
Dy163 O175 2.664 . S
Dy163 O177 2.326 . S
O164 Dy160 2.398 . S
O164 C162 1.185 . S
O165 Dy160 2.491 . S
O165 C162 1.355 . S
O166 Dy160 2.403 . S
O166 C168 1.254 . S
O167 Dy160 2.664 . S
O167 Dy163 2.310 . S
O167 C168 1.268 . S
C168 O166 1.254 . S
C168 O167 1.268 . S
C169 O174 1.254 . S
C169 O175 1.268 . S
O170 Dy163 2.351 . S
O170 C178 1.249 . S
O171 Dy160 2.326 . S
O171 C178 1.267 . S
O172 C161 1.185 . S
O172 Dy163 2.398 . S
O173 C161 1.355 . S
O173 Dy163 2.491 . S
O174 Dy163 2.403 . S
O174 C169 1.254 . S
O175 Dy160 2.310 . S
O175 Dy163 2.664 . S
O175 C169 1.268 . S
O176 Dy160 2.351 . S
O176 C179 1.249 . S
O177 Dy163 2.326 . S
O177 C179 1.267 . S
C178 O170 1.249 . S
C178 O171 1.267 . S
C179 O176 1.249 . S
C179 O177 1.267 . S
Dy180 O184 2.398 . S
Dy180 O185 2.491 . S
Dy180 O186 2.403 1_565 S
Dy180 O187 2.664 1_565 S
Dy180 O191 2.326 1_565 S
Dy180 O195 2.310 . S
Dy180 O196 2.351 . S
C181 O192 1.185 . S
C181 O193 1.355 . S
C182 O184 1.185 . S
C182 O185 1.355 . S
Dy183 O187 2.310 . S
Dy183 O190 2.351 . S
Dy183 O192 2.398 . S
Dy183 O193 2.491 . S
Dy183 O194 2.403 . S
Dy183 O195 2.664 1_545 S
Dy183 O197 2.326 . S
O184 Dy180 2.398 . S
O184 C182 1.185 . S
O185 Dy180 2.491 . S
O185 C182 1.355 . S
O186 Dy180 2.403 1_545 S
O186 C188 1.254 . S
O187 Dy180 2.664 1_545 S
O187 Dy183 2.310 . S
O187 C188 1.268 . S
C188 O186 1.254 . S
C188 O187 1.268 . S
C189 O194 1.254 1_565 S
C189 O195 1.268 . S
O190 Dy183 2.351 . S
O190 C198 1.249 . S
O191 Dy180 2.326 1_545 S
O191 C198 1.267 . S
O192 C181 1.185 . S
O192 Dy183 2.398 . S
O193 C181 1.355 . S
O193 Dy183 2.491 . S
O194 Dy183 2.403 . S
O194 C189 1.254 1_545 S
O195 Dy180 2.310 . S
O195 Dy183 2.664 1_565 S
O195 C189 1.268 . S
O196 Dy180 2.351 . S
O196 C199 1.249 . S
O197 Dy183 2.326 . S
O197 C199 1.267 1_545 S
C198 O190 1.249 . S
C198 O191 1.267 . S
C199 O196 1.249 . S
C199 O197 1.267 1_565 S
Dy200 O204 2.398 . S
Dy200 O205 2.491 . S
Dy200 O206 2.403 . S
Dy200 O207 2.664 . S
Dy200 O211 2.326 . S
Dy200 O215 2.310 . S
Dy200 O216 2.351 1_565 S
C201 O212 1.185 . S
C201 O213 1.355 . S
C202 O204 1.185 . S
C202 O205 1.355 . S
Dy203 O207 2.310 1_545 S
Dy203 O210 2.351 1_545 S
Dy203 O212 2.398 . S
Dy203 O213 2.491 . S
Dy203 O214 2.403 . S
Dy203 O215 2.664 1_545 S
Dy203 O217 2.326 . S
O204 Dy200 2.398 . S
O204 C202 1.185 . S
O205 Dy200 2.491 . S
O205 C202 1.355 . S
O206 Dy200 2.403 . S
O206 C208 1.254 . S
O207 Dy200 2.664 . S
O207 Dy203 2.310 1_565 S
O207 C208 1.268 . S
C208 O206 1.254 . S
C208 O207 1.268 . S
C209 O214 1.254 . S
C209 O215 1.268 1_545 S
O210 Dy203 2.351 1_565 S
O210 C218 1.249 . S
O211 Dy200 2.326 . S
O211 C218 1.267 . S
O212 C201 1.185 . S
O212 Dy203 2.398 . S
O213 C201 1.355 . S
O213 Dy203 2.491 . S
O214 Dy203 2.403 . S
O214 C209 1.254 . S
O215 Dy200 2.310 . S
O215 Dy203 2.664 1_565 S
O215 C209 1.268 1_565 S
O216 Dy200 2.351 1_545 S
O216 C219 1.249 . S
O217 Dy203 2.326 . S
O217 C219 1.267 . S
C218 O210 1.249 . S
C218 O211 1.267 . S
C219 O216 1.249 . S
C219 O217 1.267 . S
Dy220 O224 2.398 . S
Dy220 O225 2.491 . S
Dy220 O226 2.403 . S
Dy220 O227 2.664 . S
Dy220 O231 2.326 . S
Dy220 O235 2.310 . S
Dy220 O236 2.351 . S
C221 O232 1.185 . S
C221 O233 1.355 . S
C222 O224 1.185 . S
C222 O225 1.355 . S
Dy223 O227 2.310 . S
Dy223 O230 2.351 . S
Dy223 O232 2.398 . S
Dy223 O233 2.491 . S
Dy223 O234 2.403 . S
Dy223 O235 2.664 . S
Dy223 O237 2.326 . S
O224 Dy220 2.398 . S
O224 C222 1.185 . S
O225 Dy220 2.491 . S
O225 C222 1.355 . S
O226 Dy220 2.403 . S
O226 C228 1.254 . S
O227 Dy220 2.664 . S
O227 Dy223 2.310 . S
O227 C228 1.268 . S
C228 O226 1.254 . S
C228 O227 1.268 . S
C229 O234 1.254 . S
C229 O235 1.268 . S
O230 Dy223 2.351 . S
O230 C238 1.249 . S
O231 Dy220 2.326 . S
O231 C238 1.267 . S
O232 C221 1.185 . S
O232 Dy223 2.398 . S
O233 C221 1.355 . S
O233 Dy223 2.491 . S
O234 Dy223 2.403 . S
O234 C229 1.254 . S
O235 Dy220 2.310 . S
O235 Dy223 2.664 . S
O235 C229 1.268 . S
O236 Dy220 2.351 . S
O236 C239 1.249 . S
O237 Dy223 2.326 . S
O237 C239 1.267 . S
C238 O230 1.249 . S
C238 O231 1.267 . S
C239 O236 1.249 . S
C239 O237 1.267 . S
C240 C241 1.369 . S
C240 C242 1.419 . S
C240 H244 0.930 . S
C241 C240 1.369 . S
C241 C250 1.429 . S
C242 C240 1.419 . S
C242 C243 1.363 . S
C242 H245 0.929 . S
C243 C242 1.363 . S
C243 C249 1.428 . S
H244 C240 0.930 . S
H245 C242 0.929 . S
S246 N247 1.613 . S
S246 N248 1.610 . S
N247 S246 1.613 . S
N247 C250 1.350 . S
N248 S246 1.610 . S
N248 C249 1.351 . S
C249 C243 1.428 . S
C249 N248 1.351 . S
C249 C250 1.434 . S
C250 C241 1.429 . S
C250 N247 1.350 . S
C250 C249 1.434 . S
C251 C252 1.369 . S
C251 C253 1.419 . S
C251 H255 0.930 . S
C252 C251 1.369 . S
C252 C261 1.429 . S
C253 C251 1.419 . S
C253 C254 1.363 . S
C253 H256 0.929 . S
C254 C253 1.363 . S
C254 C260 1.428 . S
H255 C251 0.930 . S
H256 C253 0.929 . S
S257 N258 1.613 . S
S257 N259 1.610 1_545 S
N258 S257 1.613 . S
N258 C261 1.350 1_545 S
N259 S257 1.610 1_565 S
N259 C260 1.351 . S
C260 C254 1.428 . S
C260 N259 1.351 . S
C260 C261 1.434 . S
C261 C252 1.429 . S
C261 N258 1.350 1_565 S
C261 C260 1.434 . S
C262 C263 1.369 1_556 S
C262 C264 1.419 . S
C262 H266 0.930 . S
C263 C262 1.369 1_554 S
C263 C272 1.429 . S
C264 C262 1.419 . S
C264 C265 1.363 1_556 S
C264 H267 0.929 . S
C265 C264 1.363 1_554 S
C265 C271 1.428 . S
H266 C262 0.930 . S
H267 C264 0.929 . S
S268 N269 1.613 . S
S268 N270 1.610 . S
N269 S268 1.613 . S
N269 C272 1.350 . S
N270 S268 1.610 . S
N270 C271 1.351 . S
C271 C265 1.428 . S
C271 N270 1.351 . S
C271 C272 1.434 . S
C272 C263 1.429 . S
C272 N269 1.350 . S
C272 C271 1.434 . S
C273 C274 1.369 . S
C273 C275 1.417 1_545 S
C273 H277 0.930 1_545 S
C274 C273 1.369 . S
C274 C283 1.429 . S
C275 C273 1.417 1_565 S
C275 C276 1.354 1_565 S
C275 H278 0.941 . S
C276 C275 1.354 1_545 S
C276 C282 1.428 . S
H277 C273 0.930 1_565 S
H278 C275 0.941 . S
S279 N280 1.613 . S
S279 N281 1.610 . S
N280 S279 1.613 . S
N280 C283 1.350 . S
N281 S279 1.610 . S
N281 C282 1.351 . S
C282 C276 1.428 . S
C282 N281 1.351 . S
C282 C283 1.434 . S
C283 C274 1.429 . S
C283 N280 1.350 . S
C283 C282 1.434 . S
C284 C285 1.369 . S
C284 C286 1.419 . S
C284 H288 0.930 . S
C285 C284 1.369 . S
C285 C294 1.429 . S
C286 C284 1.419 . S
C286 C287 1.363 . S
C286 H289 0.929 . S
C287 C286 1.363 . S
C287 C293 1.428 . S
H288 C284 0.930 . S
H289 C286 0.929 . S
S290 N291 1.613 . S
S290 N292 1.610 . S
N291 S290 1.613 . S
N291 C294 1.350 . S
N292 S290 1.610 . S
N292 C293 1.351 . S
C293 C287 1.428 . S
C293 N292 1.351 . S
C293 C294 1.434 . S
C294 C285 1.429 . S
C294 N291 1.350 . S
C294 C293 1.434 . S
C295 C296 1.369 . S
C295 C297 1.419 . S
C295 H299 0.930 . S
C296 C295 1.369 . S
C296 C305 1.429 . S
C297 C295 1.419 . S
C297 C298 1.363 . S
C297 H300 0.929 . S
C298 C297 1.363 . S
C298 C304 1.428 . S
H299 C295 0.930 . S
H300 C297 0.929 . S
S301 N302 1.613 . S
S301 N303 1.610 . S
N302 S301 1.613 . S
N302 C305 1.350 . S
N303 S301 1.610 . S
N303 C304 1.351 . S
C304 C298 1.428 . S
C304 N303 1.351 . S
C304 C305 1.434 . S
C305 C296 1.429 . S
C305 N302 1.350 . S
C305 C304 1.434 . S
C306 C307 1.369 . S
C306 C308 1.419 . S
C306 H310 0.930 . S
C307 C306 1.369 . S
C307 C316 1.429 . S
C308 C306 1.419 . S
C308 C309 1.363 . S
C308 H311 0.929 . S
C309 C308 1.363 . S
C309 C315 1.428 1_556 S
H310 C306 0.930 . S
H311 C308 0.929 . S
S312 N313 1.613 . S
S312 N314 1.610 . S
N313 S312 1.613 . S
N313 C316 1.350 1_554 S
N314 S312 1.610 . S
N314 C315 1.351 . S
C315 C309 1.428 1_554 S
C315 N314 1.351 . S
C315 C316 1.434 1_554 S
C316 C307 1.429 . S
C316 N313 1.350 1_556 S
C316 C315 1.434 1_556 S
C317 C318 1.369 . S
C317 C319 1.419 . S
C317 H321 0.930 . S
C318 C317 1.369 . S
C318 C327 1.429 . S
C319 C317 1.419 . S
C319 C320 1.363 . S
C319 H322 0.929 . S
C320 C319 1.363 . S
C320 C326 1.428 . S
H321 C317 0.930 . S
H322 C319 0.929 . S
S323 N324 1.613 . S
S323 N325 1.610 . S
N324 S323 1.613 . S
N324 C327 1.350 . S
N325 S323 1.610 . S
N325 C326 1.351 . S
C326 C320 1.428 . S
C326 N325 1.351 . S
C326 C327 1.434 . S
C327 C318 1.429 . S
C327 N324 1.350 . S
C327 C326 1.434 . S
C328 C329 1.369 . S
C328 C330 1.419 . S
C328 H332 0.930 . S
C329 C328 1.369 . S
C329 C338 1.429 . S
C330 C328 1.419 . S
C330 C331 1.363 . S
C330 H333 0.929 . S
C331 C330 1.363 . S
C331 C337 1.428 . S
H332 C328 0.930 . S
H333 C330 0.929 . S
S334 N335 1.613 . S
S334 N336 1.610 . S
N335 S334 1.613 . S
N335 C338 1.350 . S
N336 S334 1.610 . S
N336 C337 1.351 . S
C337 C331 1.428 . S
C337 N336 1.351 . S
C337 C338 1.434 . S
C338 C329 1.429 . S
C338 N335 1.350 . S
C338 C337 1.434 . S
C339 C340 1.370 . S
C339 C341 1.418 1_455 S
C339 H343 0.929 1_455 S
C340 C339 1.370 . S
C340 C349 1.429 . S
C341 C339 1.418 1_655 S
C341 C342 1.363 1_655 S
C341 H344 0.929 . S
C342 C341 1.363 1_455 S
C342 C348 1.428 . S
H343 C339 0.929 1_655 S
H344 C341 0.929 . S
S345 N346 1.613 . S
S345 N347 1.610 . S
N346 S345 1.613 . S
N346 C349 1.350 . S
N347 S345 1.610 . S
N347 C348 1.351 . S
C348 C342 1.428 . S
C348 N347 1.351 . S
C348 C349 1.434 . S
C349 C340 1.429 . S
C349 N346 1.350 . S
C349 C348 1.434 . S
C350 C351 1.369 1_455 S
C350 C352 1.419 . S
C350 H354 0.930 . S
C351 C350 1.369 1_655 S
C351 C360 1.429 . S
C352 C350 1.419 . S
C352 C353 1.363 1_455 S
C352 H355 0.929 . S
C353 C352 1.363 1_655 S
C353 C359 1.428 . S
H354 C350 0.930 . S
H355 C352 0.929 . S
S356 N357 1.613 . S
S356 N358 1.610 . S
N357 S356 1.613 . S
N357 C360 1.350 . S
N358 S356 1.610 . S
N358 C359 1.351 . S
C359 C353 1.428 . S
C359 N358 1.351 . S
C359 C360 1.434 . S
C360 C351 1.429 . S
C360 N357 1.350 . S
C360 C359 1.434 . S
C361 C362 1.369 . S
C361 C363 1.419 . S
C361 H365 0.930 . S
C362 C361 1.369 . S
C362 C371 1.429 . S
C363 C361 1.419 . S
C363 C364 1.363 . S
C363 H366 0.929 . S
C364 C363 1.363 . S
C364 C370 1.428 . S
H365 C361 0.930 . S
H366 C363 0.929 . S
S367 N368 1.613 . S
S367 N369 1.610 . S
N368 S367 1.613 . S
N368 C371 1.350 . S
N369 S367 1.610 . S
N369 C370 1.351 . S
C370 C364 1.428 . S
C370 N369 1.351 . S
C370 C371 1.434 . S
C371 C362 1.429 . S
C371 N368 1.350 . S
C371 C370 1.434 . S
C372 C373 1.369 . S
C372 C374 1.419 . S
C372 H376 0.930 . S
C373 C372 1.369 . S
C373 C382 1.429 . S
C374 C372 1.419 . S
C374 C375 1.363 . S
C374 H377 0.929 . S
C375 C374 1.363 . S
C375 C381 1.428 . S
H376 C372 0.930 . S
H377 C374 0.929 . S
S378 N379 1.613 . S
S378 N380 1.610 . S
N379 S378 1.613 . S
N379 C382 1.350 . S
N380 S378 1.610 . S
N380 C381 1.351 . S
C381 C375 1.428 . S
C381 N380 1.351 . S
C381 C382 1.434 . S
C382 C373 1.429 . S
C382 N379 1.350 . S
C382 C381 1.434 . S
C383 C384 1.369 . S
C383 C385 1.419 . S
C383 H387 0.930 . S
C384 C383 1.369 . S
C384 C393 1.429 . S
C385 C383 1.419 . S
C385 C386 1.363 . S
C385 H388 0.929 . S
C386 C385 1.363 . S
C386 C392 1.428 . S
H387 C383 0.930 . S
H388 C385 0.929 . S
S389 N390 1.613 . S
S389 N391 1.610 . S
N390 S389 1.613 . S
N390 C393 1.350 . S
N391 S389 1.610 . S
N391 C392 1.351 . S
C392 C386 1.428 . S
C392 N391 1.351 . S
C392 C393 1.434 . S
C393 C384 1.429 . S
C393 N390 1.350 . S
C393 C392 1.434 . S
C394 C395 1.369 . S
C394 C396 1.419 . S
C394 H398 0.930 . S
C395 C394 1.369 . S
C395 C404 1.429 . S
C396 C394 1.419 . S
C396 C397 1.363 . S
C396 H399 0.929 . S
C397 C396 1.363 . S
C397 C403 1.428 . S
H398 C394 0.930 . S
H399 C396 0.929 . S
S400 N401 1.613 . S
S400 N402 1.610 . S
N401 S400 1.613 . S
N401 C404 1.350 . S
N402 S400 1.610 . S
N402 C403 1.351 . S
C403 C397 1.428 . S
C403 N402 1.351 . S
C403 C404 1.434 . S
C404 C395 1.429 . S
C404 N401 1.350 . S
C404 C403 1.434 . S
C405 C406 1.369 . S
C405 C407 1.419 1_554 S
C405 H409 0.930 . S
C406 C405 1.369 . S
C406 C415 1.429 . S
C407 C405 1.419 1_556 S
C407 C408 1.363 . S
C407 H410 0.929 . S
C408 C407 1.363 . S
C408 C414 1.428 . S
H409 C405 0.930 . S
H410 C407 0.929 . S
S411 N412 1.613 1_565 S
S411 N413 1.610 1_554 S
N412 S411 1.613 1_545 S
N412 C415 1.350 . S
N413 S411 1.610 1_556 S
N413 C414 1.351 1_565 S
C414 C408 1.428 . S
C414 N413 1.351 1_545 S
C414 C415 1.434 1_556 S
C415 C406 1.429 . S
C415 N412 1.350 . S
C415 C414 1.434 1_554 S
C416 C417 1.369 . S
C416 C418 1.419 . S
C416 H420 0.930 . S
C417 C416 1.369 . S
C417 C426 1.429 . S
C418 C416 1.419 . S
C418 C419 1.363 . S
C418 H421 0.929 . S
C419 C418 1.363 . S
C419 C425 1.428 . S
H420 C416 0.930 . S
H421 C418 0.929 . S
S422 N423 1.613 . S
S422 N424 1.610 . S
N423 S422 1.613 . S
N423 C426 1.350 . S
N424 S422 1.610 . S
N424 C425 1.351 . S
C425 C419 1.428 . S
C425 N424 1.351 . S
C425 C426 1.434 . S
C426 C417 1.429 . S
C426 N423 1.350 . S
C426 C425 1.434 . S
C427 C428 1.369 1_556 S
C427 C429 1.419 . S
C427 H431 0.930 1_556 S
C428 C427 1.369 1_554 S
C428 C437 1.429 1_554 S
C429 C427 1.419 . S
C429 C430 1.363 . S
C429 H432 0.929 . S
C430 C429 1.363 . S
C430 C436 1.428 . S
H431 C427 0.930 1_554 S
H432 C429 0.929 . S
S433 N434 1.613 . S
S433 N435 1.610 . S
N434 S433 1.613 . S
N434 C437 1.350 . S
N435 S433 1.610 . S
N435 C436 1.351 . S
C436 C430 1.428 . S
C436 N435 1.351 . S
C436 C437 1.434 . S
C437 C428 1.429 1_556 S
C437 N434 1.350 . S
C437 C436 1.434 . S
C438 C439 1.369 . S
C438 C440 1.419 . S
C438 H442 0.930 . S
C439 C438 1.369 . S
C439 C448 1.429 . S
C440 C438 1.419 . S
C440 C441 1.363 . S
C440 H443 0.929 . S
C441 C440 1.363 . S
C441 C447 1.428 . S
H442 C438 0.930 . S
H443 C440 0.929 . S
S444 N445 1.613 . S
S444 N446 1.610 . S
N445 S444 1.613 . S
N445 C448 1.350 . S
N446 S444 1.610 . S
N446 C447 1.351 . S
C447 C441 1.428 . S
C447 N446 1.351 . S
C447 C448 1.434 . S
C448 C439 1.429 . S
C448 N445 1.350 . S
C448 C447 1.434 . S
C449 C450 1.369 . S
C449 C451 1.419 . S
C449 H453 0.930 . S
C450 C449 1.369 . S
C450 C459 1.429 . S
C451 C449 1.419 . S
C451 C452 1.363 . S
C451 H454 0.929 . S
C452 C451 1.363 . S
C452 C458 1.428 . S
H453 C449 0.930 . S
H454 C451 0.929 . S
S455 N456 1.613 . S
S455 N457 1.610 . S
N456 S455 1.613 . S
N456 C459 1.350 . S
N457 S455 1.610 . S
N457 C458 1.351 . S
C458 C452 1.428 . S
C458 N457 1.351 . S
C458 C459 1.434 . S
C459 C450 1.429 . S
C459 N456 1.350 . S
C459 C458 1.434 . S
C460 C461 1.369 . S
C460 C462 1.419 . S
C460 H464 0.930 . S
C461 C460 1.369 . S
C461 C470 1.429 . S
C462 C460 1.419 . S
C462 C463 1.363 . S
C462 H465 0.929 . S
C463 C462 1.363 . S
C463 C469 1.428 . S
H464 C460 0.930 . S
H465 C462 0.929 . S
S466 N467 1.613 . S
S466 N468 1.610 . S
N467 S466 1.613 . S
N467 C470 1.350 . S
N468 S466 1.610 . S
N468 C469 1.351 . S
C469 C463 1.428 . S
C469 N468 1.351 . S
C469 C470 1.434 . S
C470 C461 1.429 . S
C470 N467 1.350 . S
C470 C469 1.434 . S
C471 C472 1.369 . S
C471 C473 1.419 . S
C471 H475 0.930 . S
C472 C471 1.369 . S
C472 C481 1.429 . S
C473 C471 1.419 . S
C473 C474 1.363 1_545 S
C473 H476 0.929 . S
C474 C473 1.363 1_565 S
C474 C480 1.428 . S
H475 C471 0.930 . S
H476 C473 0.929 . S
S477 N478 1.613 1_565 S
S477 N479 1.610 . S
N478 S477 1.613 1_545 S
N478 C481 1.350 . S
N479 S477 1.610 . S
N479 C480 1.351 . S
C480 C474 1.428 . S
C480 N479 1.351 . S
C480 C481 1.434 1_565 S
C481 C472 1.429 . S
C481 N478 1.350 . S
C481 C480 1.434 1_545 S
C482 C483 1.369 . S
C482 C484 1.419 . S
C482 H486 0.930 . S
C483 C482 1.369 . S
C483 C492 1.429 . S
C484 C482 1.419 . S
C484 C485 1.363 . S
C484 H487 0.929 . S
C485 C484 1.363 . S
C485 C491 1.428 . S
H486 C482 0.930 . S
H487 C484 0.929 . S
S488 N489 1.613 . S
S488 N490 1.610 . S
N489 S488 1.613 . S
N489 C492 1.350 . S
N490 S488 1.610 . S
N490 C491 1.351 . S
C491 C485 1.428 . S
C491 N490 1.351 . S
C491 C492 1.434 . S
C492 C483 1.429 . S
C492 N489 1.350 . S
C492 C491 1.434 . S
C493 C494 1.369 . S
C493 C495 1.419 1_545 S
C493 H497 0.930 . S
C494 C493 1.369 . S
C494 C503 1.429 1_545 S
C495 C493 1.419 1_565 S
C495 C496 1.363 . S
C495 H498 0.929 . S
C496 C495 1.363 . S
C496 C502 1.428 . S
H497 C493 0.930 . S
H498 C495 0.929 . S
S499 N500 1.613 . S
S499 N501 1.610 . S
N500 S499 1.613 . S
N500 C503 1.350 . S
N501 S499 1.610 . S
N501 C502 1.351 . S
C502 C496 1.428 . S
C502 N501 1.351 . S
C502 C503 1.434 . S
C503 C494 1.429 1_565 S
C503 N500 1.350 . S
C503 C502 1.434 . S
C504 C505 1.369 . S
C504 C506 1.419 . S
C504 H508 0.930 . S
C505 C504 1.369 . S
C505 C514 1.429 . S
C506 C504 1.419 . S
C506 C507 1.363 . S
C506 H509 0.929 . S
C507 C506 1.363 . S
C507 C513 1.428 . S
H508 C504 0.930 . S
H509 C506 0.929 . S
S510 N511 1.613 . S
S510 N512 1.610 . S
N511 S510 1.613 . S
N511 C514 1.350 . S
N512 S510 1.610 . S
N512 C513 1.351 . S
C513 C507 1.428 . S
C513 N512 1.351 . S
C513 C514 1.434 . S
C514 C505 1.429 . S
C514 N511 1.350 . S
C514 C513 1.434 . S
C515 C516 1.369 . S
C515 C517 1.419 . S
C515 H519 0.930 . S
C516 C515 1.369 . S
C516 C525 1.429 . S
C517 C515 1.419 . S
C517 C518 1.363 . S
C517 H520 0.929 . S
C518 C517 1.363 . S
C518 C524 1.428 . S
H519 C515 0.930 . S
H520 C517 0.929 . S
S521 N522 1.613 . S
S521 N523 1.610 . S
N522 S521 1.613 . S
N522 C525 1.350 . S
N523 S521 1.610 . S
N523 C524 1.351 . S
C524 C518 1.428 . S
C524 N523 1.351 . S
C524 C525 1.434 . S
C525 C516 1.429 . S
C525 N522 1.350 . S
C525 C524 1.434 . S
C526 C527 1.369 . S
C526 C528 1.419 . S
C526 H530 0.930 . S
C527 C526 1.369 . S
C527 C536 1.429 . S
C528 C526 1.419 . S
C528 C529 1.363 . S
C528 H531 0.929 . S
C529 C528 1.363 . S
C529 C535 1.428 . S
H530 C526 0.930 . S
H531 C528 0.929 . S
S532 N533 1.613 . S
S532 N534 1.610 . S
N533 S532 1.613 . S
N533 C536 1.350 . S
N534 S532 1.610 . S
N534 C535 1.351 . S
C535 C529 1.428 . S
C535 N534 1.351 . S
C535 C536 1.434 . S
C536 C527 1.429 . S
C536 N533 1.350 . S
C536 C535 1.434 . S
C537 C538 1.369 . S
C537 C539 1.419 . S
C537 H541 0.930 . S
C538 C537 1.369 . S
C538 C547 1.429 . S
C539 C537 1.419 . S
C539 C540 1.363 . S
C539 H542 0.929 . S
C540 C539 1.363 . S
C540 C546 1.428 . S
H541 C537 0.930 . S
H542 C539 0.929 . S
S543 N544 1.613 . S
S543 N545 1.610 . S
N544 S543 1.613 . S
N544 C547 1.350 . S
N545 S543 1.610 . S
N545 C546 1.351 . S
C546 C540 1.428 . S
C546 N545 1.351 . S
C546 C547 1.434 . S
C547 C538 1.429 . S
C547 N544 1.350 . S
C547 C546 1.434 . S
C548 C549 1.369 . S
C548 C550 1.419 . S
C548 H552 0.930 . S
C549 C548 1.369 . S
C549 C558 1.429 . S
C550 C548 1.419 . S
C550 C551 1.363 . S
C550 H553 0.929 . S
C551 C550 1.363 . S
C551 C557 1.428 . S
H552 C548 0.930 . S
H553 C550 0.929 . S
S554 N555 1.613 . S
S554 N556 1.610 . S
N555 S554 1.613 . S
N555 C558 1.350 . S
N556 S554 1.610 . S
N556 C557 1.351 . S
C557 C551 1.428 . S
C557 N556 1.351 . S
C557 C558 1.434 . S
C558 C549 1.429 . S
C558 N555 1.350 . S
C558 C557 1.434 . S
C559 C560 1.369 . S
C559 C561 1.419 . S
C559 H563 0.930 . S
C560 C559 1.369 . S
C560 C569 1.429 . S
C561 C559 1.419 . S
C561 C562 1.363 . S
C561 H564 0.929 . S
C562 C561 1.363 . S
C562 C568 1.428 . S
H563 C559 0.930 . S
H564 C561 0.929 . S
S565 N566 1.613 . S
S565 N567 1.610 . S
N566 S565 1.613 . S
N566 C569 1.350 . S
N567 S565 1.610 . S
N567 C568 1.351 . S
C568 C562 1.428 . S
C568 N567 1.351 . S
C568 C569 1.434 . S
C569 C560 1.429 . S
C569 N566 1.350 . S
C569 C568 1.434 . S
C570 C571 1.369 . S
C570 C572 1.419 . S
C570 H574 0.930 . S
C571 C570 1.369 . S
C571 C580 1.429 . S
C572 C570 1.419 . S
C572 C573 1.363 1_455 S
C572 H575 0.929 1_455 S
C573 C572 1.363 1_655 S
C573 C579 1.428 1_655 S
H574 C570 0.930 . S
H575 C572 0.929 1_655 S
S576 N577 1.613 . S
S576 N578 1.610 . S
N577 S576 1.613 . S
N577 C580 1.350 . S
N578 S576 1.610 . S
N578 C579 1.351 . S
C579 C573 1.428 1_455 S
C579 N578 1.351 . S
C579 C580 1.434 . S
C580 C571 1.429 . S
C580 N577 1.350 . S
C580 C579 1.434 . S
C581 C582 1.369 . S
C581 C583 1.419 . S
C581 H585 0.930 . S
C582 C581 1.369 . S
C582 C591 1.429 . S
C583 C581 1.419 . S
C583 C584 1.363 . S
C583 H586 0.929 . S
C584 C583 1.363 . S
C584 C590 1.428 . S
H585 C581 0.930 . S
H586 C583 0.929 . S
S587 N588 1.613 . S
S587 N589 1.610 . S
N588 S587 1.613 . S
N588 C591 1.350 . S
N589 S587 1.610 . S
N589 C590 1.351 . S
C590 C584 1.428 . S
C590 N589 1.351 . S
C590 C591 1.434 . S
C591 C582 1.429 . S
C591 N588 1.350 . S
C591 C590 1.434 . S
C592 C593 1.369 . S
C592 C594 1.419 . S
C592 H596 0.930 . S
C593 C592 1.369 . S
C593 C602 1.429 . S
C594 C592 1.419 . S
C594 C595 1.363 . S
C594 H597 0.929 . S
C595 C594 1.363 . S
C595 C601 1.428 . S
H596 C592 0.930 . S
H597 C594 0.929 . S
S598 N599 1.613 . S
S598 N600 1.610 . S
N599 S598 1.613 . S
N599 C602 1.350 . S
N600 S598 1.610 . S
N600 C601 1.351 . S
C601 C595 1.428 . S
C601 N600 1.351 . S
C601 C602 1.434 . S
C602 C593 1.429 . S
C602 N599 1.350 . S
C602 C601 1.434 . S
C603 C604 1.369 . S
C603 C605 1.419 . S
C603 H607 0.930 . S
C604 C603 1.369 . S
C604 C613 1.429 . S
C605 C603 1.419 . S
C605 C606 1.363 . S
C605 H608 0.929 . S
C606 C605 1.363 . S
C606 C612 1.428 . S
H607 C603 0.930 . S
H608 C605 0.929 . S
S609 N610 1.613 . S
S609 N611 1.610 . S
N610 S609 1.613 . S
N610 C613 1.350 . S
N611 S609 1.610 . S
N611 C612 1.351 . S
C612 C606 1.428 . S
C612 N611 1.351 . S
C612 C613 1.434 . S
C613 C604 1.429 . S
C613 N610 1.350 . S
C613 C612 1.434 . S
C614 C615 1.369 . S
C614 C616 1.419 . S
C614 H618 0.930 . S
C615 C614 1.369 . S
C615 C624 1.429 . S
C616 C614 1.419 . S
C616 C617 1.363 . S
C616 H619 0.929 . S
C617 C616 1.363 . S
C617 C623 1.428 . S
H618 C614 0.930 . S
H619 C616 0.929 . S
S620 N621 1.613 . S
S620 N622 1.610 . S
N621 S620 1.613 . S
N621 C624 1.350 . S
N622 S620 1.610 . S
N622 C623 1.351 . S
C623 C617 1.428 . S
C623 N622 1.351 . S
C623 C624 1.434 . S
C624 C615 1.429 . S
C624 N621 1.350 . S
C624 C623 1.434 . S
C625 C626 1.369 . S
C625 C627 1.419 . S
C625 H629 0.930 . S
C626 C625 1.369 . S
C626 C635 1.429 . S
C627 C625 1.419 . S
C627 C628 1.363 1_655 S
C627 H630 0.929 1_655 S
C628 C627 1.363 1_455 S
C628 C634 1.428 1_455 S
H629 C625 0.930 . S
H630 C627 0.929 1_455 S
S631 N632 1.613 . S
S631 N633 1.610 . S
N632 S631 1.613 . S
N632 C635 1.350 . S
N633 S631 1.610 . S
N633 C634 1.351 . S
C634 C628 1.428 1_655 S
C634 N633 1.351 . S
C634 C635 1.434 . S
C635 C626 1.429 . S
C635 N632 1.350 . S
C635 C634 1.434 . S
C241 C9 1.502 . S
C243 C229 1.507 . S
C252 C199 1.533 . S
C254 C29 1.644 . S
C263 C59 1.403 1_554 S
C265 C179 1.401 . S
C274 C69 1.912 . S
C276 C209 1.911 . S
C285 C89 1.639 . S
C287 C219 1.563 . S
C296 C119 1.360 . S
C298 C239 1.368 . S
C307 C189 1.747 . S
C309 C129 1.751 . S
C318 C159 1.538 . S
C320 C169 1.677 . S
C329 C79 1.652 . S
C331 C99 1.666 . S
C340 C19 1.575 . S
C342 C109 1.689 . S
C351 C39 1.449 . S
C353 C139 1.436 . S
C362 C149 1.795 . S
C364 C49 1.797 . S
C373 C2 1.655 . S
C375 C178 1.614 . S
C384 C22 1.563 . S
C386 C208 1.473 . S
C395 C228 1.605 . S
C397 C41 1.578 . S
C406 C62 1.455 . S
C408 C198 1.436 . S
C417 C82 1.395 . S
C419 C188 1.364 . S
C428 C168 1.395 . S
C430 C101 1.416 . S
C439 C218 1.325 . S
C441 C122 1.340 . S
C450 C238 2.104 . S
C452 C141 1.981 . S
C461 C18 1.736 . S
C463 C61 1.635 . S
C472 C1 1.635 . S
C474 C38 1.726 . S
C483 C21 1.461 . S
C485 C48 1.483 . S
C494 C78 1.411 . S
C496 C42 1.438 . S
C505 C102 1.411 . S
C507 C98 1.409 . S
C516 C108 1.635 . S
C518 C121 1.633 . S
C527 C138 1.550 . S
C529 C142 1.584 . S
C538 C81 1.292 . S
C540 C148 1.295 . S
C549 C162 0.939 . S
C551 C68 0.925 . S
C560 C118 1.458 . S
C562 C181 1.382 . S
C571 C161 1.395 . S
C573 C128 1.395 . S
C582 C202 1.574 . S
C584 C158 1.568 . S
C593 C88 1.208 . S
C595 C222 1.280 . S
C604 C221 1.533 . S
C606 C28 1.543 . S
C615 C58 1.488 . S
C617 C182 1.519 . S
C626 C201 1.550 . S
C628 C8 1.534 . S
