# Generated by pormake.
# Topology son, (6)-cn, num edge types: 1
# Building blocks:
#     Node 0, Type 0, BuildingBlock: CUKXOW_clean_sbu_0, # of connection points: 6
#     Node 1, Type 0, BuildingBlock: CUKXOW_clean_sbu_0, # of connection points: 6
#     Node 2, Type 0, BuildingBlock: CUKXOW_clean_sbu_0, # of connection points: 6
#     Node 3, Type 0, BuildingBlock: CUKXOW_clean_sbu_0, # of connection points: 6
#     Node 4, Type 0, BuildingBlock: CUKXOW_clean_sbu_0, # of connection points: 6
#     Node 5, Type 0, BuildingBlock: CUKXOW_clean_sbu_0, # of connection points: 6
#     Node 6, Type 0, BuildingBlock: CUKXOW_clean_sbu_0, # of connection points: 6
#     Node 7, Type 0, BuildingBlock: CUKXOW_clean_sbu_0, # of connection points: 6
#     Node 8, Type 0, BuildingBlock: CUKXOW_clean_sbu_0, # of connection points: 6
#     Node 9, Type 0, BuildingBlock: CUKXOW_clean_sbu_0, # of connection points: 6
#     Node 10, Type 0, BuildingBlock: CUKXOW_clean_sbu_0, # of connection points: 6
#     Node 11, Type 0, BuildingBlock: CUKXOW_clean_sbu_0, # of connection points: 6
#     Node 12, Type 0, BuildingBlock: CUKXOW_clean_sbu_0, # of connection points: 6
#     Node 13, Type 0, BuildingBlock: CUKXOW_clean_sbu_0, # of connection points: 6
#     Node 14, Type 0, BuildingBlock: CUKXOW_clean_sbu_0, # of connection points: 6
#     Node 15, Type 0, BuildingBlock: CUKXOW_clean_sbu_0, # of connection points: 6
#     Node 16, Type 0, BuildingBlock: CUKXOW_clean_sbu_0, # of connection points: 6
#     Node 17, Type 0, BuildingBlock: CUKXOW_clean_sbu_0, # of connection points: 6
#     Node 18, Type 0, BuildingBlock: CUKXOW_clean_sbu_0, # of connection points: 6
#     Node 19, Type 0, BuildingBlock: CUKXOW_clean_sbu_0, # of connection points: 6
#     Node 20, Type 0, BuildingBlock: CUKXOW_clean_sbu_0, # of connection points: 6
#     Node 21, Type 0, BuildingBlock: CUKXOW_clean_sbu_0, # of connection points: 6
#     Node 22, Type 0, BuildingBlock: CUKXOW_clean_sbu_0, # of connection points: 6
#     Node 23, Type 0, BuildingBlock: CUKXOW_clean_sbu_0, # of connection points: 6
#     Node 24, Type 0, BuildingBlock: CUKXOW_clean_sbu_0, # of connection points: 6
#     Node 25, Type 0, BuildingBlock: CUKXOW_clean_sbu_0, # of connection points: 6
#     Node 26, Type 0, BuildingBlock: CUKXOW_clean_sbu_0, # of connection points: 6
#     Node 27, Type 0, BuildingBlock: CUKXOW_clean_sbu_0, # of connection points: 6
#     Node 28, Type 0, BuildingBlock: CUKXOW_clean_sbu_0, # of connection points: 6
#     Node 29, Type 0, BuildingBlock: CUKXOW_clean_sbu_0, # of connection points: 6
#     Node 30, Type 0, BuildingBlock: CUKXOW_clean_sbu_0, # of connection points: 6
#     Node 31, Type 0, BuildingBlock: CUKXOW_clean_sbu_0, # of connection points: 6
#     Edge 32, Type (0, 0), BuildingBlock: XUDNAN_clean_linker_2, # of connection points: 2
#     Edge 33, Type (0, 0), BuildingBlock: XUDNAN_clean_linker_2, # of connection points: 2
#     Edge 34, Type (0, 0), BuildingBlock: XUDNAN_clean_linker_2, # of connection points: 2
#     Edge 35, Type (0, 0), BuildingBlock: XUDNAN_clean_linker_2, # of connection points: 2
#     Edge 36, Type (0, 0), BuildingBlock: XUDNAN_clean_linker_2, # of connection points: 2
#     Edge 37, Type (0, 0), BuildingBlock: XUDNAN_clean_linker_2, # of connection points: 2
#     Edge 38, Type (0, 0), BuildingBlock: XUDNAN_clean_linker_2, # of connection points: 2
#     Edge 39, Type (0, 0), BuildingBlock: XUDNAN_clean_linker_2, # of connection points: 2
#     Edge 40, Type (0, 0), BuildingBlock: XUDNAN_clean_linker_2, # of connection points: 2
#     Edge 41, Type (0, 0), BuildingBlock: XUDNAN_clean_linker_2, # of connection points: 2
#     Edge 42, Type (0, 0), BuildingBlock: XUDNAN_clean_linker_2, # of connection points: 2
#     Edge 43, Type (0, 0), BuildingBlock: XUDNAN_clean_linker_2, # of connection points: 2
#     Edge 44, Type (0, 0), BuildingBlock: XUDNAN_clean_linker_2, # of connection points: 2
#     Edge 45, Type (0, 0), BuildingBlock: XUDNAN_clean_linker_2, # of connection points: 2
#     Edge 46, Type (0, 0), BuildingBlock: XUDNAN_clean_linker_2, # of connection points: 2
#     Edge 47, Type (0, 0), BuildingBlock: XUDNAN_clean_linker_2, # of connection points: 2
#     Edge 48, Type (0, 0), BuildingBlock: XUDNAN_clean_linker_2, # of connection points: 2
#     Edge 49, Type (0, 0), BuildingBlock: XUDNAN_clean_linker_2, # of connection points: 2
#     Edge 50, Type (0, 0), BuildingBlock: XUDNAN_clean_linker_2, # of connection points: 2
#     Edge 51, Type (0, 0), BuildingBlock: XUDNAN_clean_linker_2, # of connection points: 2
#     Edge 52, Type (0, 0), BuildingBlock: XUDNAN_clean_linker_2, # of connection points: 2
#     Edge 53, Type (0, 0), BuildingBlock: XUDNAN_clean_linker_2, # of connection points: 2
#     Edge 54, Type (0, 0), BuildingBlock: XUDNAN_clean_linker_2, # of connection points: 2
#     Edge 55, Type (0, 0), BuildingBlock: XUDNAN_clean_linker_2, # of connection points: 2
#     Edge 56, Type (0, 0), BuildingBlock: XUDNAN_clean_linker_2, # of connection points: 2
#     Edge 57, Type (0, 0), BuildingBlock: XUDNAN_clean_linker_2, # of connection points: 2
#     Edge 58, Type (0, 0), BuildingBlock: XUDNAN_clean_linker_2, # of connection points: 2
#     Edge 59, Type (0, 0), BuildingBlock: XUDNAN_clean_linker_2, # of connection points: 2
#     Edge 60, Type (0, 0), BuildingBlock: XUDNAN_clean_linker_2, # of connection points: 2
#     Edge 61, Type (0, 0), BuildingBlock: XUDNAN_clean_linker_2, # of connection points: 2
#     Edge 62, Type (0, 0), BuildingBlock: XUDNAN_clean_linker_2, # of connection points: 2
#     Edge 63, Type (0, 0), BuildingBlock: XUDNAN_clean_linker_2, # of connection points: 2
#     Edge 64, Type (0, 0), BuildingBlock: XUDNAN_clean_linker_2, # of connection points: 2
#     Edge 65, Type (0, 0), BuildingBlock: XUDNAN_clean_linker_2, # of connection points: 2
#     Edge 66, Type (0, 0), BuildingBlock: XUDNAN_clean_linker_2, # of connection points: 2
#     Edge 67, Type (0, 0), BuildingBlock: XUDNAN_clean_linker_2, # of connection points: 2
#     Edge 68, Type (0, 0), BuildingBlock: XUDNAN_clean_linker_2, # of connection points: 2
#     Edge 69, Type (0, 0), BuildingBlock: XUDNAN_clean_linker_2, # of connection points: 2
#     Edge 70, Type (0, 0), BuildingBlock: XUDNAN_clean_linker_2, # of connection points: 2
#     Edge 71, Type (0, 0), BuildingBlock: XUDNAN_clean_linker_2, # of connection points: 2
#     Edge 72, Type (0, 0), BuildingBlock: XUDNAN_clean_linker_2, # of connection points: 2
#     Edge 73, Type (0, 0), BuildingBlock: XUDNAN_clean_linker_2, # of connection points: 2
#     Edge 74, Type (0, 0), BuildingBlock: XUDNAN_clean_linker_2, # of connection points: 2
#     Edge 75, Type (0, 0), BuildingBlock: XUDNAN_clean_linker_2, # of connection points: 2
#     Edge 76, Type (0, 0), BuildingBlock: XUDNAN_clean_linker_2, # of connection points: 2
#     Edge 77, Type (0, 0), BuildingBlock: XUDNAN_clean_linker_2, # of connection points: 2
#     Edge 78, Type (0, 0), BuildingBlock: XUDNAN_clean_linker_2, # of connection points: 2
#     Edge 79, Type (0, 0), BuildingBlock: XUDNAN_clean_linker_2, # of connection points: 2
#     Edge 80, Type (0, 0), BuildingBlock: XUDNAN_clean_linker_2, # of connection points: 2
#     Edge 81, Type (0, 0), BuildingBlock: XUDNAN_clean_linker_2, # of connection points: 2
#     Edge 82, Type (0, 0), BuildingBlock: XUDNAN_clean_linker_2, # of connection points: 2
#     Edge 83, Type (0, 0), BuildingBlock: XUDNAN_clean_linker_2, # of connection points: 2
#     Edge 84, Type (0, 0), BuildingBlock: XUDNAN_clean_linker_2, # of connection points: 2
#     Edge 85, Type (0, 0), BuildingBlock: XUDNAN_clean_linker_2, # of connection points: 2
#     Edge 86, Type (0, 0), BuildingBlock: XUDNAN_clean_linker_2, # of connection points: 2
#     Edge 87, Type (0, 0), BuildingBlock: XUDNAN_clean_linker_2, # of connection points: 2
#     Edge 88, Type (0, 0), BuildingBlock: XUDNAN_clean_linker_2, # of connection points: 2
#     Edge 89, Type (0, 0), BuildingBlock: XUDNAN_clean_linker_2, # of connection points: 2
#     Edge 90, Type (0, 0), BuildingBlock: XUDNAN_clean_linker_2, # of connection points: 2
#     Edge 91, Type (0, 0), BuildingBlock: XUDNAN_clean_linker_2, # of connection points: 2
#     Edge 92, Type (0, 0), BuildingBlock: XUDNAN_clean_linker_2, # of connection points: 2
#     Edge 93, Type (0, 0), BuildingBlock: XUDNAN_clean_linker_2, # of connection points: 2
#     Edge 94, Type (0, 0), BuildingBlock: XUDNAN_clean_linker_2, # of connection points: 2
#     Edge 95, Type (0, 0), BuildingBlock: XUDNAN_clean_linker_2, # of connection points: 2
#     Edge 96, Type (0, 0), BuildingBlock: XUDNAN_clean_linker_2, # of connection points: 2
#     Edge 97, Type (0, 0), BuildingBlock: XUDNAN_clean_linker_2, # of connection points: 2
#     Edge 98, Type (0, 0), BuildingBlock: XUDNAN_clean_linker_2, # of connection points: 2
#     Edge 99, Type (0, 0), BuildingBlock: XUDNAN_clean_linker_2, # of connection points: 2
#     Edge 100, Type (0, 0), BuildingBlock: XUDNAN_clean_linker_2, # of connection points: 2
#     Edge 101, Type (0, 0), BuildingBlock: XUDNAN_clean_linker_2, # of connection points: 2
#     Edge 102, Type (0, 0), BuildingBlock: XUDNAN_clean_linker_2, # of connection points: 2
#     Edge 103, Type (0, 0), BuildingBlock: XUDNAN_clean_linker_2, # of connection points: 2
#     Edge 104, Type (0, 0), BuildingBlock: XUDNAN_clean_linker_2, # of connection points: 2
#     Edge 105, Type (0, 0), BuildingBlock: XUDNAN_clean_linker_2, # of connection points: 2
#     Edge 106, Type (0, 0), BuildingBlock: XUDNAN_clean_linker_2, # of connection points: 2
#     Edge 107, Type (0, 0), BuildingBlock: XUDNAN_clean_linker_2, # of connection points: 2
#     Edge 108, Type (0, 0), BuildingBlock: XUDNAN_clean_linker_2, # of connection points: 2
#     Edge 109, Type (0, 0), BuildingBlock: XUDNAN_clean_linker_2, # of connection points: 2
#     Edge 110, Type (0, 0), BuildingBlock: XUDNAN_clean_linker_2, # of connection points: 2
#     Edge 111, Type (0, 0), BuildingBlock: XUDNAN_clean_linker_2, # of connection points: 2
#     Edge 112, Type (0, 0), BuildingBlock: XUDNAN_clean_linker_2, # of connection points: 2
#     Edge 113, Type (0, 0), BuildingBlock: XUDNAN_clean_linker_2, # of connection points: 2
#     Edge 114, Type (0, 0), BuildingBlock: XUDNAN_clean_linker_2, # of connection points: 2
#     Edge 115, Type (0, 0), BuildingBlock: XUDNAN_clean_linker_2, # of connection points: 2
#     Edge 116, Type (0, 0), BuildingBlock: XUDNAN_clean_linker_2, # of connection points: 2
#     Edge 117, Type (0, 0), BuildingBlock: XUDNAN_clean_linker_2, # of connection points: 2
#     Edge 118, Type (0, 0), BuildingBlock: XUDNAN_clean_linker_2, # of connection points: 2
#     Edge 119, Type (0, 0), BuildingBlock: XUDNAN_clean_linker_2, # of connection points: 2
#     Edge 120, Type (0, 0), BuildingBlock: XUDNAN_clean_linker_2, # of connection points: 2
#     Edge 121, Type (0, 0), BuildingBlock: XUDNAN_clean_linker_2, # of connection points: 2
#     Edge 122, Type (0, 0), BuildingBlock: XUDNAN_clean_linker_2, # of connection points: 2
#     Edge 123, Type (0, 0), BuildingBlock: XUDNAN_clean_linker_2, # of connection points: 2
#     Edge 124, Type (0, 0), BuildingBlock: XUDNAN_clean_linker_2, # of connection points: 2
#     Edge 125, Type (0, 0), BuildingBlock: XUDNAN_clean_linker_2, # of connection points: 2
#     Edge 126, Type (0, 0), BuildingBlock: XUDNAN_clean_linker_2, # of connection points: 2
#     Edge 127, Type (0, 0), BuildingBlock: XUDNAN_clean_linker_2, # of connection points: 2
# Relax obj value: 0.055
# Max RMSD: 0.126
# Mean RMSD: 0.126
data_MOF--net-son--node1-CUKXOW_clean_sbu_0--edge1-XUDNAN_clean_linker_2
_symmetry_space_group_name_H-M    P1
_symmetry_Int_Tables_number       1
_symmetry_cell_setting            triclinic
loop_
_symmetry_equiv_pos_as_xyz
'x, y, z'
_cell_length_a     137.73505
_cell_length_b     59.208148
_cell_length_c     14.550311
_cell_angle_alpha  90.051586
_cell_angle_beta   89.908137
_cell_angle_gamma 90.025121
loop_
_atom_site_label
_atom_site_type_symbol
_atom_site_fract_x
_atom_site_fract_y
_atom_site_fract_z
_atom_type_partial_charge
Tb0 Tb 0.30039 0.24607 0.24498 0.0
C1 C 0.30986 0.29295 0.30906 0.0
Tb2 Tb 0.3233 0.25033 0.27668 0.0
O3 O 0.29595 0.24116 0.38811 0.0
O4 O 0.3104 0.24582 0.35676 0.0
O5 O 0.30241 0.2822 0.27032 0.0
C6 C 0.34102 0.24661 0.34823 0.0
O7 O 0.31841 0.28331 0.32532 0.0
C8 C 0.31812 0.25214 0.09792 0.0
C9 C 0.31379 0.20274 0.22799 0.0
O10 O 0.33778 0.26424 0.30462 0.0
O11 O 0.33423 0.23145 0.35273 0.0
O12 O 0.32702 0.25402 0.12656 0.0
O13 O 0.3132 0.25027 0.17024 0.0
O14 O 0.32114 0.21399 0.26579 0.0
O15 O 0.30535 0.21225 0.20578 0.0
C16 C 0.28346 0.25082 0.15793 0.0
O17 O 0.28566 0.23417 0.2124 0.0
O18 O 0.29081 0.26446 0.15214 0.0
C19 C 0.30459 0.24285 0.42381 0.0
Tb20 Tb 0.9455 0.99374 0.25302 0.0
C21 C 0.93177 0.95252 0.30271 0.0
Tb22 Tb 0.92341 0.00192 0.28346 0.0
O23 O 0.94767 0.98568 0.39978 0.0
O24 O 0.93643 0.00684 0.36027 0.0
O25 O 0.9402 0.95888 0.26598 0.0
C26 C 0.90585 0.01207 0.34977 0.0
O27 O 0.92466 0.9668 0.32234 0.0
C28 C 0.92709 0.99479 0.10415 0.0
C29 C 0.93653 0.04293 0.23469 0.0
O30 O 0.91113 0.9951 0.37642 0.0
O31 O 0.91051 0.02324 0.28719 0.0
O32 O 0.91859 -0.00162 0.13975 0.0
O33 O 0.93277 0.99399 0.17234 0.0
O34 O 0.92891 0.03607 0.2826 0.0
O35 O 0.94363 0.02906 0.20879 0.0
C36 C 0.96292 0.98812 0.1747 0.0
O37 O 0.96109 0.00164 0.24321 0.0
O38 O 0.95497 0.97784 0.15125 0.0
C39 C 0.93992 0.99617 0.42813 0.0
Tb40 Tb 0.29885 0.99742 0.09165 0.0
C41 C 0.30691 0.94927 1.03452 0.0
Tb42 Tb 0.32166 0.99012 0.06303 0.0
O43 O 0.29472 0.00189 0.94819 0.0
O44 O 0.30905 0.99618 0.98064 0.0
O45 O 0.29969 0.9608 0.07376 0.0
C46 C 0.33978 0.98344 1.00386 0.0
O47 O 0.31556 0.95816 1.01581 0.0
C48 C 0.31621 0.98983 0.24109 0.0
C49 C 0.31359 0.03892 0.10352 0.0
O50 O 0.33473 0.96951 0.0535 0.0
O51 O 0.33454 0.00119 0.98564 0.0
O52 O 0.32511 0.98768 0.21341 0.0
O53 O 0.31135 0.99138 0.16854 0.0
O54 O 0.32069 0.02676 0.06601 0.0
O55 O 0.30508 0.03022 0.12922 0.0
C56 C 0.28107 0.00285 0.16263 0.0
O57 O 0.28553 0.01684 0.10852 0.0
O58 O 0.28672 0.98566 0.17868 0.0
C59 C 0.30335 -0.00034 0.91339 0.0
Tb60 Tb 0.94858 0.2488 0.10043 0.0
C61 C 0.93932 0.29654 0.05876 0.0
Tb62 Tb 0.92576 0.25326 0.07051 0.0
O63 O 0.95313 0.24685 0.95711 0.0
O64 O 0.93859 0.25 0.98784 0.0
O65 O 0.94661 0.28535 0.09792 0.0
C66 C 0.90743 0.25742 1.01468 0.0
O67 O 0.93111 0.28667 1.03193 0.0
C68 C 0.93095 0.2524 0.24924 0.0
C69 C 0.93504 0.20531 0.09969 0.0
O70 O 0.91215 0.27184 0.06481 0.0
O71 O 0.91315 0.24074 0.99318 0.0
O72 O 0.92205 0.25375 0.22112 0.0
O73 O 0.93588 0.25182 0.17695 0.0
O74 O 0.92778 0.21692 0.06246 0.0
O75 O 0.94306 0.21501 0.13182 0.0
C76 C 0.96609 0.24332 0.17519 0.0
O77 O 0.96159 0.22882 0.12384 0.0
O78 O 0.96069 0.26119 0.18548 0.0
C79 C 0.94452 0.24804 0.9212 0.0
Tb80 Tb 0.67337 0.74286 0.78158 0.0
C81 C 0.68245 0.78919 0.82159 0.0
Tb82 Tb 0.69481 0.74375 0.80451 0.0
O83 O 0.67161 0.75331 0.92593 0.0
O84 O 0.68317 0.73285 0.88876 0.0
O85 O 0.67507 0.77895 0.78161 0.0
C86 C 0.71319 0.74969 0.86227 0.0
O87 O 0.69051 0.77828 0.84436 0.0
C88 C 0.68974 0.74128 0.63066 0.0
C89 C 0.68534 0.69804 0.74587 0.0
O90 O 0.70924 0.75888 0.7907 0.0
O91 O 0.70676 0.73693 0.90213 0.0
O92 O 0.69777 0.73366 0.66505 0.0
O93 O 0.68518 0.75245 0.69238 0.0
O94 O 0.69296 0.70708 0.78832 0.0
O95 O 0.67727 0.70961 0.73071 0.0
C96 C 0.65442 0.73878 0.74126 0.0
O97 O 0.65882 0.72974 0.81068 0.0
O98 O 0.66075 0.74981 0.69263 0.0
C99 C 0.67942 0.74356 0.95516 0.0
Tb100 Tb 0.06966 0.0033 0.83586 0.0
C101 C 0.06102 0.9548 0.87182 0.0
Tb102 Tb 0.04743 0.99802 0.86375 0.0
O103 O 0.07407 0.0082 0.97945 0.0
O104 O 0.05972 0.00426 0.94757 0.0
O105 O 0.06817 0.96664 0.83358 0.0
C106 C 0.02934 0.99005 0.92307 0.0
O107 O 0.05265 0.96407 0.8974 0.0
C108 C 0.05344 0.00117 0.69002 0.0
C109 C 0.05592 0.04652 0.82973 0.0
O110 O 0.03346 0.98065 0.85243 0.0
O111 O 0.03544 0.00395 0.96103 0.0
O112 O 0.04492 0.00747 0.71871 0.0
O113 O 0.05771 0.99172 0.75653 0.0
O114 O 0.04867 0.03469 0.86614 0.0
O115 O 0.06433 0.03726 0.80574 0.0
C116 C 0.08726 0.00783 0.75923 0.0
O117 O 0.07969 0.02008 0.74069 0.0
O118 O 0.08488 0.99281 0.82016 0.0
C119 C 0.06545 0.0065 1.01497 0.0
Tb120 Tb 0.67629 -0.00134 1.02944 0.0
C121 C 0.68356 0.94942 0.99986 0.0
Tb122 Tb 0.69745 0.99187 1.00627 0.0
O123 O 0.67325 0.98565 0.89418 0.0
O124 O 0.68622 0.00318 0.9149 0.0
O125 O 0.67666 0.96197 1.03781 0.0
C126 C 0.71536 0.98226 0.9464 0.0
O127 O 0.69192 0.95825 0.97253 0.0
C128 C 0.69176 0.99544 0.18037 0.0
C129 C 0.69056 0.04062 0.04791 0.0
O130 O 0.71133 0.97405 1.01963 0.0
O131 O 0.70932 0.99592 0.90684 0.0
O132 O 0.7002 0.00185 0.15029 0.0
O133 O 0.68738 0.98582 0.11499 0.0
O134 O 0.69752 0.02838 1.00979 0.0
O135 O 0.68197 0.03191 0.0692 0.0
C136 C 0.6577 0.00772 0.07093 0.0
O137 O 0.66251 0.01568 1.00158 0.0
O138 O 0.66345 0.99502 0.11909 0.0
C139 C 0.68136 0.99169 0.85678 0.0
Tb140 Tb 0.06635 0.74131 1.01129 0.0
C141 C 0.05917 0.79047 0.98396 0.0
Tb142 Tb 0.04512 0.74775 0.99069 0.0
O143 O 0.06863 0.75241 0.86803 0.0
O144 O 0.05615 0.73515 0.9037 0.0
O145 O 0.06622 0.77778 1.01738 0.0
C146 C 0.027 0.75694 0.93365 0.0
O147 O 0.05062 0.78186 0.96047 0.0
C148 C 0.05019 0.74135 0.16293 0.0
C149 C 0.05256 0.69881 1.03033 0.0
O150 O 0.03323 0.74436 0.89029 0.0
O151 O 0.03101 0.76434 1.00843 0.0
O152 O 0.04191 0.73582 0.12726 0.0
O153 O 0.05511 0.75246 0.10391 0.0
O154 O 0.04546 0.71085 0.99265 0.0
O155 O 0.06103 0.708 0.05228 0.0
C156 C 0.08491 0.73216 0.05324 0.0
O157 O 0.07995 0.72299 0.98744 0.0
O158 O 0.07935 0.74626 0.0969 0.0
C159 C 0.06032 0.74528 0.83841 0.0
Tb160 Tb 0.29542 0.75365 0.70126 0.0
C161 C 0.30662 0.79668 0.76285 0.0
Tb162 Tb 0.31767 0.75007 0.73398 0.0
O163 O 0.29265 0.76129 0.8483 0.0
O164 O 0.30481 0.74296 0.80987 0.0
O165 O 0.29943 0.78879 0.71192 0.0
C166 C 0.33566 0.74399 0.79996 0.0
O167 O 0.31416 0.78399 0.78741 0.0
C168 C 0.3141 0.7561 0.55385 0.0
C169 C 0.30542 0.70573 0.69048 0.0
O170 O 0.33096 0.76299 0.80044 0.0
O171 O 0.33013 0.72855 0.7647 0.0
O172 O 0.32261 0.75452 0.59104 0.0
O173 O 0.30823 0.75553 0.62084 0.0
O174 O 0.31347 0.71417 0.72796 0.0
O175 O 0.29794 0.71853 0.66641 0.0
C176 C 0.27831 0.75782 0.61709 0.0
O177 O 0.27991 0.74516 0.6886 0.0
O178 O 0.2863 0.7679 0.59379 0.0
C179 C 0.30076 0.75263 0.87757 0.0
Tb180 Tb 0.94962 0.49828 0.78571 0.0
C181 C 0.93832 0.45504 0.85401 0.0
Tb182 Tb 0.92669 0.50108 0.8186 0.0
O183 O 0.95437 0.50242 0.92828 0.0
O184 O 0.93977 0.50227 0.8979 0.0
O185 O 0.94611 0.46329 0.81207 0.0
C186 C 0.90894 0.50575 0.88958 0.0
O187 O 0.93021 0.46688 0.86874 0.0
C188 C 0.93176 0.49756 0.63953 0.0
C189 C 0.9387 0.54513 0.76624 0.0
O190 O 0.91157 0.49017 0.83166 0.0
O191 O 0.91635 0.51856 0.90847 0.0
O192 O 0.92285 0.49945 0.66821 0.0
O193 O 0.93667 0.49694 0.71212 0.0
O194 O 0.9306 0.53692 0.80399 0.0
O195 O 0.9463 0.53247 0.74335 0.0
C196 C 0.96618 0.49052 0.6968 0.0
O197 O 0.9644 0.50822 0.74704 0.0
O198 O 0.95865 0.47733 0.69665 0.0
C199 C 0.94573 0.5036 0.96456 0.0
Tb200 Tb 0.29747 0.49131 0.61267 0.0
C201 C 0.30912 0.44818 0.55871 0.0
Tb202 Tb 0.31962 0.49576 0.57969 0.0
O203 O 0.2949 0.48265 0.46635 0.0
O204 O 0.30676 0.50215 0.50348 0.0
O205 O 0.30172 0.45629 0.60639 0.0
C206 C 0.33744 0.50244 0.5113 0.0
O207 O 0.31665 0.46089 0.53377 0.0
C208 C 0.31615 0.48978 0.75984 0.0
C209 C 0.30693 0.53974 0.61742 0.0
O210 O 0.33216 0.48458 0.49712 0.0
O211 O 0.3326 0.51645 0.56213 0.0
O212 O 0.32465 0.49152 0.72225 0.0
O213 O 0.31023 0.49016 0.69333 0.0
O214 O 0.31502 0.53145 0.57986 0.0
O215 O 0.29963 0.52671 0.64451 0.0
C216 C 0.28037 0.48718 0.69693 0.0
O217 O 0.28192 0.49934 0.62388 0.0
O218 O 0.28839 0.47752 0.72161 0.0
C219 C 0.30289 0.49185 0.43656 0.0
Tb220 Tb 0.94356 0.75789 0.5986 0.0
C221 C 0.92953 0.79736 0.54482 0.0
Tb222 Tb 0.92167 0.747 0.56868 0.0
O223 O 0.94554 0.76621 0.45187 0.0
O224 O 0.93479 0.74359 0.49171 0.0
O225 O 0.93786 0.79201 0.58512 0.0
C226 C 0.90411 0.73678 0.50032 0.0
O227 O 0.92265 0.78228 0.52621 0.0
C228 C 0.92506 0.75499 0.74771 0.0
C229 C 0.93603 0.70728 0.61455 0.0
O230 O 0.90932 0.75415 0.47673 0.0
O231 O 0.90889 0.72513 0.56055 0.0
O232 O 0.91667 0.75059 0.71171 0.0
O233 O 0.93083 0.75619 0.67993 0.0
O234 O 0.92772 0.71291 0.57423 0.0
O235 O 0.94275 0.72237 0.63722 0.0
C236 C 0.96094 0.76402 0.677 0.0
O237 O 0.95927 0.75142 0.60545 0.0
O238 O 0.95285 0.77328 0.7033 0.0
C239 C 0.93807 0.75465 0.42371 0.0
Tb240 Tb 0.67793 0.23824 0.29461 0.0
C241 C 0.6857 0.28712 0.33901 0.0
Tb242 Tb 0.70061 0.24607 0.32309 0.0
O243 O 0.67384 0.23356 0.43839 0.0
O244 O 0.68806 0.23964 0.40562 0.0
O245 O 0.67856 0.27487 0.30291 0.0
C246 C 0.71807 0.25329 0.39486 0.0
O247 O 0.69436 0.27875 0.36063 0.0
C248 C 0.69534 0.24663 0.14533 0.0
C249 C 0.69295 0.19778 0.26753 0.0
O250 O 0.71398 0.2655 0.33184 0.0
O251 O 0.71232 0.23678 0.4179 0.0
O252 O 0.70426 0.24857 0.17322 0.0
O253 O 0.69039 0.24514 0.2177 0.0
O254 O 0.7001 0.20941 0.30721 0.0
O255 O 0.68434 0.20662 0.24724 0.0
C256 C 0.66007 0.23188 0.23056 0.0
O257 O 0.66517 0.21714 0.27514 0.0
O258 O 0.66514 0.25024 0.21954 0.0
C259 C 0.68242 0.23606 0.47319 0.0
Tb260 Tb 0.06893 0.50172 0.29205 0.0
C261 C 0.0621 0.45268 0.33178 0.0
Tb262 Tb 0.04722 0.49318 0.31839 0.0
O263 O 0.07182 0.49336 0.43742 0.0
O264 O 0.05858 0.50681 0.39965 0.0
O265 O 0.06869 0.46501 0.28819 0.0
C266 C 0.02985 0.4868 0.39567 0.0
O267 O 0.05384 0.46142 0.3622 0.0
C268 C 0.05107 0.48971 0.13998 0.0
C269 C 0.05387 0.5416 0.25418 0.0
O270 O 0.03508 0.47135 0.35659 0.0
O271 O 0.03439 0.50598 0.39135 0.0
O272 O 0.04262 0.48691 0.17771 0.0
O273 O 0.05704 0.49361 0.20464 0.0
O274 O 0.0467 0.52927 0.28935 0.0
O275 O 0.06286 0.53379 0.24398 0.0
C276 C 0.08705 0.51241 0.24464 0.0
O277 O 0.08178 0.52308 0.30443 0.0
O278 O 0.08205 0.49586 0.20994 0.0
C279 C 0.06319 0.49834 0.46622 0.0
Tb280 Tb 0.67595 0.49704 0.52943 0.0
C281 C 0.68517 0.44924 0.49173 0.0
Tb282 Tb 0.69835 0.49346 0.49699 0.0
O283 O 0.67137 0.50134 0.38558 0.0
O284 O 0.68572 0.49901 0.4174 0.0
O285 O 0.67793 0.46066 0.53049 0.0
C286 C 0.71522 0.49134 0.40684 0.0
O287 O 0.69356 0.4588 0.46748 0.0
C288 C 0.69272 0.49529 0.67222 0.0
C289 C 0.68899 0.54124 0.53521 0.0
O290 O 0.71339 0.48086 0.48372 0.0
O291 O 0.70762 0.50272 0.38235 0.0
O292 O 0.70129 0.50137 0.64328 0.0
O293 O 0.68832 0.48635 0.60493 0.0
O294 O 0.69667 0.53011 0.50383 0.0
O295 O 0.68056 0.5316 0.5548 0.0
C296 C 0.65857 0.50048 0.60966 0.0
O297 O 0.66628 0.51177 0.63271 0.0
O298 O 0.66069 0.48699 0.54216 0.0
C299 C 0.67999 0.50052 0.34946 0.0
Tb300 Tb 0.0711 0.24346 0.54669 0.0
C301 C 0.063 0.29147 0.50043 0.0
Tb302 Tb 0.04913 0.24932 0.51804 0.0
O303 O 0.07425 0.24993 0.39973 0.0
O304 O 0.06097 0.23713 0.43909 0.0
O305 O 0.06982 0.28011 0.54542 0.0
C306 C 0.03196 0.24508 0.43416 0.0
O307 O 0.05483 0.28185 0.47179 0.0
C308 C 0.05283 0.25519 0.69605 0.0
C309 C 0.05681 0.20293 0.5976 0.0
O310 O 0.03488 0.26308 0.47735 0.0
O311 O 0.03871 0.22991 0.43767 0.0
O312 O 0.04436 0.25705 0.65742 0.0
O313 O 0.05892 0.251 0.63219 0.0
O314 O 0.04938 0.21422 0.56233 0.0
O315 O 0.06573 0.21139 0.60223 0.0
C316 C 0.08928 0.23494 0.59933 0.0
O317 O 0.08391 0.22175 0.54955 0.0
O318 O 0.08438 0.25299 0.62057 0.0
C319 C 0.06559 0.24515 0.37131 0.0
Tb320 Tb 0.79918 0.24936 0.76793 0.0
C321 C 0.81309 0.29013 0.80641 0.0
Tb322 Tb 0.82111 0.23934 0.79846 0.0
O323 O 0.79725 0.25846 0.9142 0.0
O324 O 0.808 0.23579 0.87524 0.0
O325 O 0.80441 0.28387 0.77684 0.0
C326 C 0.83805 0.23756 0.88669 0.0
O327 O 0.82027 0.27572 0.82181 0.0
C328 C 0.81746 0.24559 0.61906 0.0
C329 C 0.80713 0.19873 0.7568 0.0
O330 O 0.83054 0.24929 0.91138 0.0
O331 O 0.83594 0.22611 0.81301 0.0
O332 O 0.82587 0.24041 0.65364 0.0
O333 O 0.81195 0.24799 0.68831 0.0
O334 O 0.81556 0.2048 0.79433 0.0
O335 O 0.80025 0.21349 0.73401 0.0
C336 C 0.78221 0.25572 0.68499 0.0
O337 O 0.78351 0.24302 0.75689 0.0
O338 O 0.79041 0.26472 0.66074 0.0
C339 C 0.80475 0.24707 0.94281 0.0
Tb340 Tb 0.44863 -0.00115 0.73351 0.0
C341 C 0.43945 0.95127 0.76266 0.0
Tb342 Tb 0.42637 0.99596 0.76033 0.0
O343 O 0.45088 0.98825 0.87754 0.0
O344 O 0.43848 0.00588 0.84092 0.0
O345 O 0.44685 0.96257 0.72679 0.0
C346 C 0.4089 0.99148 0.83828 0.0
O347 O 0.43117 0.96118 0.78698 0.0
C348 C 0.43051 0.99304 0.5813 0.0
C349 C 0.43611 0.04371 0.73337 0.0
O350 O 0.41649 0.97933 0.85675 0.0
O351 O 0.41118 0.00644 0.77669 0.0
O352 O 0.42185 0.99228 0.61657 0.0
O353 O 0.43629 0.99452 0.64867 0.0
O354 O 0.42854 0.03262 0.76797 0.0
O355 O 0.4442 0.03352 0.70619 0.0
C356 C 0.46675 0.00637 0.67535 0.0
O357 O 0.46289 0.01446 0.74977 0.0
O358 O 0.46039 0.99391 0.63312 0.0
C359 C 0.44254 0.99563 0.90665 0.0
Tb360 Tb 0.79712 0.98613 0.58741 0.0
C361 C 0.81074 0.94652 0.52132 0.0
Tb362 Tb 0.8191 0.99439 0.56752 0.0
O363 O 0.79311 0.98712 0.43863 0.0
O364 O 0.80706 0.99182 0.48167 0.0
O365 O 0.80268 0.9517 0.56729 0.0
C366 C 0.83712 0.00612 0.51827 0.0
O367 O 0.81745 0.96181 0.50111 0.0
C368 C 0.81345 0.98112 0.73473 0.0
C369 C 0.80543 0.03614 0.61208 0.0
O370 O 0.83486 0.9903 0.57585 0.0
O371 O 0.82921 0.01544 0.48812 0.0
O372 O 0.82162 0.97626 0.69499 0.0
O373 O 0.80887 0.99401 0.68023 0.0
O374 O 0.81438 0.02905 0.59327 0.0
O375 O 0.79783 0.02231 0.61685 0.0
C376 C 0.78017 0.97693 0.66774 0.0
O377 O 0.78152 0.99189 0.6037 0.0
O378 O 0.78835 0.96692 0.68569 0.0
C379 C 0.80194 0.99074 0.41016 0.0
Tb380 Tb 0.45104 0.25309 0.60047 0.0
C381 C 0.44024 0.29671 0.52775 0.0
Tb382 Tb 0.42811 0.25177 0.56932 0.0
O383 O 0.45565 0.24772 0.45782 0.0
O384 O 0.44109 0.24907 0.48922 0.0
O385 O 0.44797 0.28824 0.57005 0.0
C386 C 0.4104 0.24671 0.4994 0.0
O387 O 0.43205 0.28514 0.5141 0.0
C388 C 0.43322 0.25623 0.74778 0.0
C389 C 0.43931 0.20745 0.62984 0.0
O390 O 0.41355 0.26481 0.54032 0.0
O391 O 0.41726 0.23167 0.49691 0.0
O392 O 0.42428 0.25512 0.71938 0.0
O393 O 0.43814 0.2559 0.67501 0.0
O394 O 0.43158 0.21582 0.58679 0.0
O395 O 0.44713 0.21968 0.64987 0.0
C396 C 0.46775 0.25972 0.68827 0.0
O397 O 0.46596 0.24297 0.63292 0.0
O398 O 0.46017 0.27268 0.69369 0.0
C399 C 0.44698 0.24703 0.42222 0.0
Tb400 Tb 0.17197 0.74469 0.27995 0.0
C401 C 0.17999 0.79365 0.32191 0.0
Tb402 Tb 0.19408 0.75151 0.30701 0.0
O403 O 0.16771 0.73854 0.42337 0.0
O404 O 0.18195 0.74379 0.39075 0.0
O405 O 0.17292 0.78157 0.28343 0.0
C406 C 0.21205 0.75964 0.36729 0.0
O407 O 0.18851 0.78479 0.34478 0.0
C408 C 0.18811 0.74876 0.13338 0.0
C409 C 0.18635 0.70261 0.26821 0.0
O410 O 0.20797 0.76922 0.29699 0.0
O411 O 0.20596 0.74556 0.40439 0.0
O412 O 0.19669 0.7429 0.16139 0.0
O413 O 0.1837 0.75767 0.20066 0.0
O414 O 0.19341 0.71486 0.30511 0.0
O415 O 0.17771 0.71115 0.24708 0.0
C416 C 0.15436 0.73967 0.20489 0.0
O417 O 0.1622 0.72931 0.17852 0.0
O418 O 0.15648 0.75305 0.27262 0.0
C419 C 0.17631 0.74086 0.45853 0.0
Tb420 Tb 0.57003 -0.00069 0.28738 0.0
C421 C 0.55655 0.95821 0.3211 0.0
Tb422 Tb 0.54915 0.00909 0.31899 0.0
O423 O 0.57209 0.98668 0.42476 0.0
O424 O 0.56187 0.01227 0.40357 0.0
O425 O 0.56475 0.96466 0.28065 0.0
C426 C 0.53194 0.01417 0.40202 0.0
O427 O 0.54996 0.97297 0.34997 0.0
C428 C 0.55415 0.00665 0.1426 0.0
C429 C 0.56216 0.05012 0.27061 0.0
O430 O 0.53335 0.00346 0.32518 0.0
O431 O 0.54016 0.02203 0.43098 0.0
O432 O 0.54709 0.0191 0.17365 0.0
O433 O 0.55729 0.99483 0.20866 0.0
O434 O 0.55355 0.04395 0.30186 0.0
O435 O 0.56939 0.03558 0.26032 0.0
C436 C 0.58803 0.99788 0.2161 0.0
O437 O 0.58007 0.00061 0.17011 0.0
O438 O 0.58585 0.99553 0.30221 0.0
C439 C 0.56527 -0.00151 0.4631 0.0
Tb440 Tb 0.17421 0.00562 0.51857 0.0
C441 C 0.18192 0.9562 0.47178 0.0
Tb442 Tb 0.19698 0.99697 0.48582 0.0
O443 O 0.17017 0.01058 0.37431 0.0
O444 O 0.18426 0.00389 0.40717 0.0
O445 O 0.17484 0.96884 0.50777 0.0
C446 C 0.21386 -0.00159 0.39535 0.0
O447 O 0.19074 0.96407 0.45075 0.0
C448 C 0.19185 0.99598 0.66437 0.0
C449 C 0.1896 0.04525 0.55125 0.0
O450 O 0.21166 0.98364 0.45844 0.0
O451 O 0.20655 0.01192 0.38338 0.0
O452 O 0.20071 0.99286 0.63513 0.0
O453 O 0.18687 -0.0014 0.59268 0.0
O454 O 0.19662 0.03331 0.51137 0.0
O455 O 0.18077 0.03707 0.56805 0.0
C456 C 0.15632 0.01252 0.58439 0.0
O457 O 0.16142 0.0268 0.53693 0.0
O458 O 0.1614 0.99421 0.59695 0.0
C459 C 0.17873 0.00759 0.33911 0.0
Tb460 Tb 0.56769 0.75413 0.49858 0.0
C461 C 0.5547 0.7956 0.45765 0.0
Tb462 Tb 0.54663 0.74508 0.46674 0.0
O463 O 0.5699 0.76634 0.3605 0.0
O464 O 0.5594 0.74133 0.38295 0.0
O465 O 0.56287 0.78905 0.49791 0.0
C466 C 0.52939 0.73977 0.3841 0.0
O467 O 0.54786 0.78103 0.43207 0.0
C468 C 0.55153 0.74796 0.64334 0.0
C469 C 0.55923 0.70418 0.52588 0.0
O470 O 0.53094 0.75221 0.45626 0.0
O471 O 0.53749 0.73039 0.35958 0.0
O472 O 0.54428 0.73605 0.61286 0.0
O473 O 0.55487 0.75925 0.57642 0.0
O474 O 0.55083 0.71015 0.48939 0.0
O475 O 0.56649 0.71862 0.53621 0.0
C476 C 0.58566 0.75577 0.5698 0.0
O477 O 0.57764 0.759 0.61466 0.0
O478 O 0.58358 0.75193 0.48433 0.0
C479 C 0.56295 0.7548 0.32278 0.0
Tb480 Tb 0.79644 0.75232 0.20933 0.0
C481 C 0.80972 0.79259 0.26534 0.0
Tb482 Tb 0.81758 0.74239 0.24028 0.0
O483 O 0.79425 0.76189 0.35515 0.0
O484 O 0.80474 0.73839 0.31916 0.0
O485 O 0.80134 0.787 0.22681 0.0
C486 C 0.83561 0.73704 0.30685 0.0
O487 O 0.81659 0.77759 0.28333 0.0
C488 C 0.81266 0.74151 0.06444 0.0
C489 C 0.80413 0.70156 0.19796 0.0
O490 O 0.83324 0.75006 0.23876 0.0
O491 O 0.82783 0.72719 0.33737 0.0
O492 O 0.81973 0.73031 0.10138 0.0
O493 O 0.80924 0.75499 0.12498 0.0
O494 O 0.8124 0.70782 0.23664 0.0
O495 O 0.79731 0.71632 0.17444 0.0
C496 C 0.77901 0.75734 0.12895 0.0
O497 O 0.78067 0.74577 0.20314 0.0
O498 O 0.78712 0.76621 0.10141 0.0
C499 C 0.80148 0.74993 0.3857 0.0
Tb500 Tb 0.4461 0.49801 0.20564 0.0
C501 C 0.43738 0.45021 0.26495 0.0
Tb502 Tb 0.42316 0.49211 0.23991 0.0
O503 O 0.44994 0.50088 0.35553 0.0
O504 O 0.43602 0.49726 0.31255 0.0
O505 O 0.44464 0.4616 0.22567 0.0
C506 C 0.40597 0.49562 0.32356 0.0
O507 O 0.42872 0.45921 0.28368 0.0
C508 C 0.42748 0.48973 0.06031 0.0
C509 C 0.43211 0.5405 0.18995 0.0
O510 O 0.40849 0.47922 0.26884 0.0
O511 O 0.41318 0.5096 0.33201 0.0
O512 O 0.41888 0.48714 0.09596 0.0
O513 O 0.43312 0.49308 0.12808 0.0
O514 O 0.42467 0.52852 0.22234 0.0
O515 O 0.44085 0.53188 0.17261 0.0
C516 C 0.46306 0.49715 0.11663 0.0
O517 O 0.4611 0.50989 0.1872 0.0
O518 O 0.45549 0.48504 0.09664 0.0
C519 C 0.44101 0.49889 0.38464 0.0
Tb520 Tb 0.79853 0.48804 0.06946 0.0
C521 C 0.81253 0.44786 1.01995 0.0
Tb522 Tb 0.82057 0.49702 0.05446 0.0
O523 O 0.79514 0.48789 0.91969 0.0
O524 O 0.80874 0.49459 0.96619 0.0
O525 O 0.80409 0.45349 0.05845 0.0
C526 C 0.83904 0.50851 1.02154 0.0
O527 O 0.81948 0.46279 1.00195 0.0
C528 C 0.81464 0.48246 0.21851 0.0
C529 C 0.8063 0.53823 0.07689 0.0
O530 O 0.83375 0.4956 0.96961 0.0
O531 O 0.83386 0.51526 0.09087 0.0
O532 O 0.82277 0.47753 0.17843 0.0
O533 O 0.81007 0.49584 0.16559 0.0
O534 O 0.81498 0.53152 0.04795 0.0
O535 O 0.7993 0.52393 0.09964 0.0
C536 C 0.78004 0.48487 0.12354 0.0
O537 O 0.78338 0.49742 0.05792 0.0
O538 O 0.78719 0.47361 0.16012 0.0
C539 C 0.8039 0.49268 0.89332 0.0
Tb540 Tb 0.44639 0.74533 1.03599 0.0
C541 C 0.43805 0.79347 0.9793 0.0
Tb542 Tb 0.42348 0.75212 1.00548 0.0
O543 O 0.45053 0.7409 0.89184 0.0
O544 O 0.43625 0.74636 0.92523 0.0
O545 O 0.44531 0.78189 1.01769 0.0
C546 C 0.40575 0.74997 0.93133 0.0
O547 O 0.4293 0.78478 0.96171 0.0
C548 C 0.42876 0.75297 0.18382 0.0
C549 C 0.43193 0.70366 0.05425 0.0
O550 O 0.4088 0.76603 0.98528 0.0
O551 O 0.41276 0.73569 0.91783 0.0
O552 O 0.41989 0.75579 0.15553 0.0
O553 O 0.43367 0.75066 0.11155 0.0
O554 O 0.42472 0.71557 1.01792 0.0
O555 O 0.44052 0.71245 0.07578 0.0
C556 C 0.46406 0.73996 0.10855 0.0
O557 O 0.4599 0.72658 0.04996 0.0
O558 O 0.45822 0.75665 0.12742 0.0
C559 C 0.44189 0.74307 0.85727 0.0
Tb560 Tb 0.17652 0.24164 0.81574 0.0
C561 C 0.18414 0.29061 0.85846 0.0
Tb562 Tb 0.19919 0.24997 0.84376 0.0
O563 O 0.17304 0.23791 0.96584 0.0
O564 O 0.18678 0.24256 0.92109 0.0
O565 O 0.17729 0.27834 0.81772 0.0
C566 C 0.21677 0.25593 0.91727 0.0
O567 O 0.19263 0.28213 0.88509 0.0
C568 C 0.19466 0.25286 0.66571 0.0
C569 C 0.19166 0.20162 0.784 0.0
O570 O 0.2122 0.27024 0.86557 0.0
O571 O 0.21137 0.23811 0.92894 0.0
O572 O 0.20327 0.25541 0.70045 0.0
O573 O 0.189 0.24889 0.73292 0.0
O574 O 0.19882 0.21337 0.8229 0.0
O575 O 0.18294 0.21021 0.76651 0.0
C576 C 0.15869 0.23459 0.75044 0.0
O577 O 0.16447 0.21913 0.78187 0.0
O578 O 0.16297 0.25412 0.7548 0.0
C579 C 0.18192 0.24051 0.9936 0.0
Tb580 Tb 0.57058 0.50744 0.81032 0.0
C581 C 0.56136 0.46022 0.855 0.0
Tb582 Tb 0.54831 0.50308 0.82349 0.0
O583 O 0.57373 0.50982 0.96034 0.0
O584 O 0.55995 0.50715 0.91306 0.0
O585 O 0.56865 0.47107 0.81472 0.0
C586 C 0.52934 0.50386 0.86481 0.0
O587 O 0.55298 0.47017 0.87568 0.0
C588 C 0.55576 0.49217 0.66074 0.0
C589 C 0.55778 0.5511 0.78247 0.0
O590 O 0.53303 0.50067 0.78392 0.0
O591 O 0.53634 0.50689 0.92315 0.0
O592 O 0.54848 0.48235 0.70114 0.0
O593 O 0.55868 0.50804 0.71301 0.0
O594 O 0.54972 0.53991 0.8048 0.0
O595 O 0.56635 0.54128 0.7728 0.0
C596 C 0.58921 0.51157 0.76224 0.0
O597 O 0.58437 0.52532 0.81425 0.0
O598 O 0.58349 0.49537 0.73506 0.0
C599 C 0.56476 0.50853 0.98616 0.0
Tb600 Tb 0.17438 0.50216 0.03916 0.0
C601 C 0.18266 0.45354 1.00003 0.0
Tb602 Tb 0.19644 0.49639 1.01292 0.0
O603 O 0.17005 0.50784 0.89594 0.0
O604 O 0.18436 0.50329 0.92805 0.0
O605 O 0.17553 0.46545 0.0382 0.0
C606 C 0.21444 0.48828 0.95372 0.0
O607 O 0.19113 0.46266 0.97679 0.0
C608 C 0.19042 0.49919 0.18624 0.0
C609 C 0.18824 0.54501 0.0501 0.0
O610 O 0.21036 0.47899 1.02471 0.0
O611 O 0.20836 0.50214 0.91544 0.0
O612 O 0.19894 0.50553 0.158 0.0
O613 O 0.18612 0.48986 0.11943 0.0
O614 O 0.1955 0.53312 1.01437 0.0
O615 O 0.17972 0.53595 0.07135 0.0
C616 C 0.15675 0.50672 0.1129 0.0
O617 O 0.1644 0.51806 0.13716 0.0
O618 O 0.15907 0.49261 0.04826 0.0
C619 C 0.17866 0.50592 0.86063 0.0
Tb620 Tb 0.57269 0.25283 0.05771 0.0
C621 C 0.56275 0.29922 1.02482 0.0
Tb622 Tb 0.55041 0.25363 1.03223 0.0
O623 O 0.57715 0.25031 0.91296 0.0
O624 O 0.56277 0.25026 0.94729 0.0
O625 O 0.57006 0.2887 0.06559 0.0
C626 C 0.53228 0.25951 0.973 0.0
O627 O 0.55474 0.28848 0.99772 0.0
C628 C 0.55658 0.25116 0.20512 0.0
C629 C 0.56087 0.20686 0.05513 0.0
O630 O 0.53616 0.26965 0.04301 0.0
O631 O 0.5386 0.24595 0.93622 0.0
O632 O 0.54833 0.24318 0.17669 0.0
O633 O 0.56043 0.26171 0.13895 0.0
O634 O 0.55284 0.2171 1.02659 0.0
O635 O 0.56888 0.21778 0.07831 0.0
C636 C 0.59019 0.24885 0.13328 0.0
O637 O 0.5826 0.23697 0.15504 0.0
O638 O 0.58786 0.26341 0.07036 0.0
C639 C 0.56845 0.2498 0.87886 0.0
H640 H 0.22783 0.22712 1.02348 0.0
H641 H 0.2284 0.29189 0.8842 0.0
H642 H 0.24547 0.29718 0.92986 0.0
H643 H 0.24304 0.24414 0.21651 0.0
H644 H 0.2492 0.21734 0.22375 0.0
H645 H 0.23693 0.21863 0.18129 0.0
H646 H 0.24233 0.19842 1.03178 0.0
H647 H 0.25463 0.19719 0.07352 0.0
H648 H 0.25208 0.21021 0.96427 0.0
H649 H 0.26247 0.29516 0.98484 0.0
H650 H 0.27839 0.28693 0.05443 0.0
H651 H 0.26711 0.22381 0.16226 0.0
C652 C 0.23156 0.24244 1.00329 0.0
C653 C 0.22681 0.25911 0.95025 0.0
C654 C 0.2319 0.27893 0.92487 0.0
C655 C 0.2416 0.28208 0.95031 0.0
C656 C 0.24612 0.26528 1.00159 0.0
C657 C 0.24128 0.24592 1.0286 0.0
C658 C 0.24792 0.23062 0.08388 0.0
C659 C 0.24404 0.22751 0.1822 0.0
C660 C 0.24932 0.20776 1.03544 0.0
C661 C 0.25723 0.24438 0.08309 0.0
C662 C 0.256 0.26426 1.03481 0.0
C663 C 0.26352 0.27971 1.02321 0.0
C664 C 0.27254 0.27486 0.06282 0.0
C665 C 0.27396 0.25479 0.11376 0.0
C666 C 0.26621 0.2393 0.12368 0.0
H667 H 0.01933 0.01 0.066 0.0
H668 H 0.01641 0.96123 0.84501 0.0
H669 H -0.00073 0.95507 0.88779 0.0
H670 H 0.00379 0.98066 0.23017 0.0
H671 H -0.00141 0.00628 0.27565 0.0
H672 H 0.01074 0.00647 0.22944 0.0
H673 H 0.00593 0.03864 0.11791 0.0
H674 H 0.99377 0.0385 0.16354 0.0
H675 H 0.99574 0.03478 0.04195 0.0
H676 H 0.98241 0.95493 0.95034 0.0
H677 H 0.96681 0.96033 1.03096 0.0
H678 H 0.98037 0.00904 0.21315 0.0
C679 C 0.01508 0.99794 1.02713 0.0
C680 C 0.01918 0.98605 0.95218 0.0
C681 C 0.01341 0.97048 0.90267 0.0
C682 C 0.00366 0.96687 0.92645 0.0
C683 C -0.0002 0.97893 1.00012 0.0
C684 C 0.0053 0.99411 0.05005 0.0
C685 C -0.00073 0.00507 0.12536 0.0
C686 C 0.00334 -0.00073 0.22081 0.0
C687 C -0.00136 0.03077 0.1113 0.0
C688 C 0.98951 0.9938 0.10937 0.0
C689 C 0.99001 0.97877 1.03678 0.0
C690 C 0.98194 0.96655 1.00761 0.0
C691 C 0.97311 0.96974 0.05383 0.0
C692 C 0.9724 0.98501 0.12846 0.0
C693 C 0.98072 0.99718 0.15657 0.0
H694 H 0.23064 0.97302 0.41619 0.0
H695 H 0.21849 0.03026 0.26985 0.0
H696 H 0.23436 0.03746 0.19758 0.0
H697 H 0.25406 0.99737 0.46027 0.0
H698 H 0.26078 0.97167 0.44124 0.0
H699 H 0.24841 0.97039 0.48147 0.0
H700 H 0.24381 0.9448 0.34383 0.0
H701 H 0.25618 0.94585 0.30355 0.0
H702 H 0.24642 0.95415 0.2285 0.0
H703 H 0.25141 0.03994 0.14677 0.0
H704 H 0.26872 0.03566 0.10866 0.0
H705 H 0.27029 0.97601 0.28126 0.0
C706 C 0.23134 0.98694 0.3684 0.0
C707 C 0.22335 0.00116 0.34885 0.0
C708 C 0.22452 0.0192 0.28602 0.0
C709 C 0.23351 0.02346 0.24468 0.0
C710 C 0.24128 0.00944 0.26625 0.0
C711 C 0.24031 0.99137 0.32566 0.0
C712 C 0.24991 0.97891 0.33562 0.0
C713 C 0.2535 0.97964 0.4356 0.0
C714 C 0.24902 0.95448 0.30078 0.0
C715 C 0.25639 0.99294 0.27308 0.0
C716 C 0.25122 0.01053 0.23451 0.0
C717 C 0.25554 0.02615 0.17593 0.0
C718 C 0.26539 0.02361 0.15496 0.0
C719 C 0.27084 0.00549 0.19174 0.0
C720 C 0.26628 0.98999 0.25202 0.0
H721 H 0.01634 0.27435 0.42517 0.0
H722 H 0.02624 0.20776 0.34234 0.0
H723 H 0.01042 0.20031 0.2701 0.0
H724 H 0.99166 0.25814 0.47811 0.0
H725 H 0.9863 0.28363 0.43342 0.0
H726 H -0.00154 0.28416 0.47882 0.0
H727 H 0.00483 0.30057 0.32515 0.0
H728 H 0.99269 0.30018 0.27944 0.0
H729 H 0.00234 0.28584 0.21929 0.0
H730 H 0.99378 0.19948 0.20874 0.0
H731 H 0.97705 0.20581 0.15567 0.0
H732 H 0.97741 0.27297 0.27561 0.0
C733 C 0.01514 0.25827 0.39151 0.0
C734 C 0.02249 0.24159 0.38932 0.0
C735 C 0.0207 0.22074 0.34484 0.0
C736 C 0.01174 0.21633 0.30369 0.0
C737 C 0.00462 0.23295 0.30748 0.0
C738 C 0.00618 0.25355 0.34975 0.0
C739 C 0.99721 0.26839 0.34309 0.0
C740 C 0.99317 0.2739 0.43908 0.0
C741 C -0.0006 0.29003 0.28847 0.0
C742 C 0.99042 0.25286 0.29052 0.0
C743 C 0.99488 0.23251 0.27114 0.0
C744 C 0.99019 0.21534 0.22329 0.0
C745 C 0.98069 0.2191 0.19353 0.0
C746 C 0.97596 0.23986 0.21154 0.0
C747 C 0.98087 0.25693 0.26116 0.0
H748 H 0.72289 0.73187 1.01266 0.0
H749 H 0.72651 0.77621 0.77777 0.0
H750 H 0.7435 0.78319 0.82225 0.0
H751 H 0.73779 0.76444 0.17033 0.0
H752 H 0.74298 0.74004 0.22552 0.0
H753 H 0.73101 0.73842 0.17609 0.0
H754 H 0.7364 0.70435 0.07665 0.0
H755 H 0.74838 0.70586 0.12585 0.0
H756 H 0.74687 0.70706 1.00292 0.0
H757 H 0.7601 0.78515 0.88922 0.0
H758 H 0.7754 0.7821 0.97601 0.0
H759 H 0.76146 0.73684 0.17004 0.0
C760 C 0.72728 0.74305 0.97086 0.0
C761 C 0.72337 0.75351 0.89161 0.0
C762 C 0.72933 0.76802 0.83864 0.0
C763 C 0.73901 0.77211 0.86337 0.0
C764 C 0.74266 0.76159 0.94156 0.0
C765 C 0.73701 0.74737 0.99476 0.0
C766 C 0.74284 0.7382 0.07524 0.0
C767 C 0.73839 0.74573 0.16724 0.0
C768 C 0.74367 0.71233 0.0698 0.0
C769 C 0.75261 0.74947 0.05863 0.0
C770 C 0.75231 0.76287 0.98098 0.0
C771 C 0.76042 0.77479 0.95037 0.0
C772 C 0.76908 0.77296 1.00019 0.0
C773 C 0.76961 0.75936 0.07997 0.0
C774 C 0.76125 0.7475 0.10963 0.0
H775 H 0.76266 0.99704 0.63507 0.0
H776 H 0.77699 0.94863 0.81257 0.0
H777 H 0.76174 0.94369 0.90045 0.0
H778 H 0.7487 0.02377 0.80895 0.0
H779 H 0.73813 0.02787 0.73797 0.0
H780 H 0.75 0.02667 0.6862 0.0
H781 H 0.74429 0.99417 0.57976 0.0
H782 H 0.73239 0.99531 0.63111 0.0
H783 H 0.73904 0.96911 0.62965 0.0
H784 H 0.74512 0.94527 0.97258 0.0
H785 H 0.7283 0.95304 1.02327 0.0
H786 H 0.72481 0.00033 0.79821 0.0
C787 C 0.76255 0.98522 0.69183 0.0
C788 C 0.77095 0.97309 0.71694 0.0
C789 C 0.77058 0.95794 0.79201 0.0
C790 C 0.76197 0.95506 0.84227 0.0
C791 C 0.7538 0.96739 0.81619 0.0
C792 C 0.75401 0.98212 0.74252 0.0
C793 C 0.74431 0.99383 0.73033 0.0
C794 C 0.74535 0.01955 0.74157 0.0
C795 C 0.73974 0.98773 0.63719 0.0
C796 C 0.73865 0.98357 0.80924 0.0
C797 C 0.74425 0.96831 0.85775 0.0
C798 C 0.74066 0.95708 0.93481 0.0
C799 C 0.73111 0.96161 0.96313 0.0
C800 C 0.72529 0.97723 0.91451 0.0
C801 C 0.72911 0.98824 0.83639 0.0
H802 H 0.97847 0.74425 0.6335 0.0
H803 H 0.96464 0.78936 0.82892 0.0
H804 H 0.98012 0.79314 0.91283 0.0
H805 H 0.99337 0.71521 0.79677 0.0
H806 H 0.00368 0.71263 0.72106 0.0
H807 H 0.99161 0.71403 0.67411 0.0
H808 H 0.99666 0.74822 0.57391 0.0
H809 H 0.00876 0.74691 0.62054 0.0
H810 H 0.0019 0.77277 0.62799 0.0
H811 H 0.99692 0.79139 0.97783 0.0
H812 H 0.01399 0.78411 1.02034 0.0
H813 H 0.01715 0.7401 0.78366 0.0
C814 C 0.97874 0.75504 0.69356 0.0
C815 C 0.97037 0.76663 0.72453 0.0
C816 C 0.97097 0.78045 0.80377 0.0
C817 C 0.97974 0.78269 0.8519 0.0
C818 C 0.98785 0.77101 0.81992 0.0
C819 C 0.98746 0.75747 0.74258 0.0
C820 C 0.99722 0.74642 0.72419 0.0
C821 C 0.99642 0.72054 0.72937 0.0
C822 C 0.00138 0.75404 0.63113 0.0
C823 C 0.00314 0.75576 0.80353 0.0
C824 C -0.00242 0.76996 0.8577 0.0
C825 C 0.00136 0.78038 0.93576 0.0
C826 C 0.01105 0.77613 0.95937 0.0
C827 C 0.01689 0.7616 0.90525 0.0
C828 C 0.01287 0.75137 0.82606 0.0
H829 H 0.2217 0.73985 0.51154 0.0
H830 H 0.22533 0.78717 0.28654 0.0
H831 H 0.24259 0.79194 0.3276 0.0
H832 H 0.23778 0.76874 0.67214 0.0
H833 H 0.24252 0.74292 0.71972 0.0
H834 H 0.23037 0.74364 0.67423 0.0
H835 H 0.23455 0.71034 0.56562 0.0
H836 H 0.24673 0.70959 0.61035 0.0
H837 H 0.24476 0.71274 0.48859 0.0
H838 H 0.25946 0.79054 0.3881 0.0
H839 H 0.27495 0.78434 0.4689 0.0
H840 H 0.26061 0.73827 0.65718 0.0
C841 C 0.22613 0.75132 0.47149 0.0
C842 C 0.22221 0.76317 0.39586 0.0
C843 C 0.2282 0.77798 0.34478 0.0
C844 C 0.23801 0.78077 0.36751 0.0
C845 C 0.2417 0.76869 0.44174 0.0
C846 C 0.23596 0.75436 0.49346 0.0
C847 C 0.2418 0.74327 0.56939 0.0
C848 C 0.23788 0.75006 0.6645 0.0
C849 C 0.24197 0.71745 0.55774 0.0
C850 C 0.25174 0.75348 0.55167 0.0
C851 C 0.25148 0.76807 0.47758 0.0
C852 C 0.25975 0.77928 0.44659 0.0
C853 C 0.26851 0.77563 0.49288 0.0
C854 C 0.26895 0.76092 0.56942 0.0
C855 C 0.26046 0.74966 0.59904 0.0
H856 H 0.98184 0.51859 0.67574 0.0
H857 H 0.97098 0.45192 0.60673 0.0
H858 H 0.98625 0.44355 0.52434 0.0
H859 H 0.99382 0.52873 0.45989 0.0
H860 H 0.00395 0.54346 0.51032 0.0
H861 H 0.99227 0.54404 0.56607 0.0
H862 H 3e-05 0.52849 0.71536 0.0
H863 H 0.01173 0.52784 0.66002 0.0
H864 H 0.00686 0.50254 0.71124 0.0
H865 H 0.00266 0.44219 0.45154 0.0
H866 H 0.01899 0.44858 0.38607 0.0
H867 H 0.01907 0.51657 0.49754 0.0
C868 C 0.98272 0.50223 0.64343 0.0
C869 C 0.9753 0.48583 0.64767 0.0
C870 C 0.97662 0.46467 0.60419 0.0
C871 C 0.98526 0.45976 0.55745 0.0
C872 C 0.99246 0.47626 0.55451 0.0
C873 C 0.99128 0.49711 0.59582 0.0
C874 C 8e-05 0.512 0.58048 0.0
C875 C 0.99737 0.53331 0.52592 0.0
C876 C 0.00496 0.51807 0.67224 0.0
C877 C 0.00638 0.49625 0.52401 0.0
C878 C 0.00186 0.47566 0.51047 0.0
C879 C 0.00626 0.45825 0.46136 0.0
C880 C 0.01553 0.46202 0.42458 0.0
C881 C 0.02022 0.48307 0.43658 0.0
C882 C 0.01559 0.50036 0.48706 0.0
H883 H 0.26273 0.50662 0.65614 0.0
H884 H 0.27706 0.4615 0.84772 0.0
H885 H 0.26163 0.45616 0.93096 0.0
H886 H 0.24733 0.53362 0.82311 0.0
H887 H 0.23704 0.53588 0.7473 0.0
H888 H 0.24916 0.53578 0.7007 0.0
H889 H 0.24465 0.50191 0.5962 0.0
H890 H 0.23252 0.50187 0.64273 0.0
H891 H 0.23978 0.47657 0.64716 0.0
H892 H 0.24485 0.45564 0.99381 0.0
H893 H 0.22766 0.46113 1.0365 0.0
H894 H 0.22402 0.50697 0.80656 0.0
C895 C 0.26258 0.49558 0.71543 0.0
C896 C 0.27104 0.48437 0.74541 0.0
C897 C 0.27063 0.47016 0.82349 0.0
C898 C 0.2619 0.46699 0.87116 0.0
C899 C 0.25366 0.47819 0.8399 0.0
C900 C 0.2539 0.49226 0.76414 0.0
C901 C 0.244 0.50263 0.74664 0.0
C902 C 0.24441 0.52851 0.75497 0.0
C903 C 0.24 0.4953 0.6526 0.0
C904 C 0.23821 0.49224 0.82463 0.0
C905 C 0.24394 0.47811 0.87716 0.0
C906 C 0.24028 0.46665 0.95327 0.0
C907 C 0.23052 0.46986 0.97691 0.0
C908 C 0.22456 0.48445 0.92483 0.0
C909 C 0.22844 0.49568 0.84743 0.0
H910 H 0.76482 0.23374 0.71087 0.0
H911 H 0.77898 0.28547 0.54738 0.0
H912 H 0.76386 0.2913 0.46025 0.0
H913 H 0.75135 0.20949 0.5262 0.0
H914 H 0.74066 0.20363 0.59367 0.0
H915 H 0.7524 0.20436 0.64791 0.0
H916 H 0.74616 0.23451 0.76294 0.0
H917 H 0.73439 0.23386 0.709 0.0
H918 H 0.74084 0.26022 0.71989 0.0
H919 H 0.74756 0.29131 0.38951 0.0
H920 H 0.73094 0.28438 0.33359 0.0
H921 H 0.72721 0.23173 0.53802 0.0
C922 C 0.76467 0.24643 0.65736 0.0
C923 C 0.77301 0.25931 0.63608 0.0
C924 C 0.77264 0.27554 0.56489 0.0
C925 C 0.76409 0.279 0.51516 0.0
C926 C 0.756 0.26601 0.53731 0.0
C927 C 0.75618 0.24999 0.60635 0.0
C928 C 0.74654 0.23767 0.61298 0.0
C929 C 0.74782 0.21228 0.59403 0.0
C930 C 0.7417 0.24182 0.70678 0.0
C931 C 0.74098 0.24915 0.53631 0.0
C932 C 0.74657 0.26559 0.49439 0.0
C933 C 0.7431 0.27851 0.4217 0.0
C934 C 0.73366 0.27445 0.39047 0.0
C935 C 0.72785 0.2575 0.43138 0.0
C936 C 0.73154 0.24474 0.50547 0.0
H937 H 0.73302 0.47164 0.45012 0.0
H938 H 0.71788 0.51012 0.2409 0.0
H939 H 0.73244 0.50967 0.14376 0.0
H940 H 0.75578 0.50092 0.42334 0.0
H941 H 0.76329 0.47641 0.44153 0.0
H942 H 0.75144 0.47798 0.49369 0.0
H943 H 0.74671 0.44008 0.41679 0.0
H944 H 0.75855 0.43844 0.36418 0.0
H945 H 0.7478 0.43711 0.29387 0.0
H946 H 0.74827 0.50653 0.07084 0.0
H947 H 0.76538 0.50276 1.02673 0.0
H948 H 0.77139 0.46743 0.28187 0.0
C949 C 0.7328 0.47976 0.38351 0.0
C950 C 0.72425 0.49057 0.35209 0.0
C951 C 0.72427 0.50139 0.26548 0.0
C952 C 0.73252 0.50127 0.20978 0.0
C953 C 0.7408 0.49049 0.24204 0.0
C954 C 0.74111 0.4801 0.32698 0.0
C955 C 0.75125 0.47094 0.34582 0.0
C956 C 0.7557 0.48224 0.43116 0.0
C957 C 0.75107 0.4451 0.35575 0.0
C958 C 0.75653 0.47804 0.25849 0.0
C959 C 0.75025 0.48909 0.19975 0.0
C960 C 0.75327 0.49785 0.11591 0.0
C961 C 0.76302 0.49562 0.09157 0.0
C962 C 0.7697 0.48477 0.15069 0.0
C963 C 0.7664 0.47559 0.23499 0.0
H964 H 0.47599 0.99044 0.5204 0.0
H965 H 0.48018 0.032 0.76293 0.0
H966 H 0.49714 0.03917 0.71646 0.0
H967 H 0.4996 0.96482 0.52156 0.0
H968 H 0.50095 0.96486 0.39832 0.0
H969 H 0.48902 0.96338 0.44897 0.0
H970 H 0.48379 -0.00127 0.35678 0.0
H971 H 0.4957 0.00032 0.30576 0.0
H972 H 0.4908 0.02435 0.36616 0.0
H973 H 0.51362 0.04108 0.64746 0.0
H974 H 0.52882 0.03788 0.55857 0.0
H975 H 0.51421 0.99535 0.35888 0.0
C976 C 0.48049 0.0011 0.56334 0.0
C977 C 0.47681 0.01069 0.64526 0.0
C978 C 0.48288 0.02452 0.69992 0.0
C979 C 0.49251 0.0287 0.67409 0.0
C980 C 0.49595 0.01896 0.59323 0.0
C981 C 0.49016 0.00548 0.53843 0.0
C982 C 0.49576 0.99688 0.45557 0.0
C983 C 0.49637 0.97095 0.4562 0.0
C984 C 0.49124 0.0056 0.36575 0.0
C985 C 0.50561 0.00753 0.47289 0.0
C986 C 0.50553 0.02021 0.55272 0.0
C987 C 0.51377 0.03132 0.58457 0.0
C988 C 0.52237 0.02939 0.53367 0.0
C989 C 0.52266 0.01646 0.45187 0.0
C990 C 0.51416 0.00547 0.4209 0.0
H991 H 0.4849 0.23657 0.67034 0.0
H992 H 0.47101 0.29081 0.82207 0.0
H993 H 0.48608 0.29675 0.9108 0.0
H994 H 0.49862 0.21388 0.85814 0.0
H995 H 0.50919 0.20756 0.78964 0.0
H996 H 0.49735 0.20761 0.73748 0.0
H997 H 0.50328 0.23674 0.61696 0.0
H998 H 0.51515 0.23678 0.66876 0.0
H999 H 0.5086 0.26292 0.6552 0.0
H1000 H 0.50242 0.29631 0.98504 0.0
H1001 H 0.51926 0.29015 1.03781 0.0
H1002 H 0.52276 0.23683 0.83572 0.0
C1003 C 0.48506 0.2497 0.72218 0.0
C1004 C 0.47683 0.26326 0.73963 0.0
C1005 C 0.47727 0.28031 0.80768 0.0
C1006 C 0.48578 0.28378 0.85842 0.0
C1007 C 0.49378 0.27015 0.83972 0.0
C1008 C 0.49353 0.25352 0.773 0.0
C1009 C 0.50318 0.24131 0.76643 0.0
C1010 C 0.50201 0.2161 0.78931 0.0
C1011 C 0.50782 0.24464 0.67118 0.0
C1012 C 0.50886 0.25357 0.84033 0.0
C1013 C 0.50329 0.27011 0.8818 0.0
C1014 C 0.50687 0.28347 0.95291 0.0
C1015 C 0.51642 0.27984 0.98245 0.0
C1016 C 0.52227 0.26306 0.94067 0.0
C1017 C 0.51844 0.24982 0.8686 0.0
H1018 H 0.47379 0.76367 0.24495 0.0
H1019 H 0.47694 0.7088 0.04912 0.0
H1020 H 0.49379 0.70293 0.09974 0.0
H1021 H 0.49802 0.78597 0.22175 0.0
H1022 H 0.49947 0.79238 0.34208 0.0
H1023 H 0.48755 0.79249 0.29134 0.0
H1024 H 0.48165 0.76357 0.41268 0.0
H1025 H 0.49355 0.7634 0.46388 0.0
H1026 H 0.4881 0.73731 0.42627 0.0
H1027 H 0.51033 0.70363 0.16523 0.0
H1028 H 0.52565 0.70957 0.24907 0.0
H1029 H 0.51212 0.76287 0.40921 0.0
C1030 C 0.47805 0.75043 0.2131 0.0
C1031 C 0.47407 0.73672 0.14285 0.0
C1032 C 0.47983 0.71949 0.10299 0.0
C1033 C 0.48942 0.71603 0.13118 0.0
C1034 C 0.49316 0.7298 0.20008 0.0
C1035 C 0.48768 0.74655 0.24127 0.0
C1036 C 0.49355 0.75872 0.3146 0.0
C1037 C 0.49472 0.78388 0.291 0.0
C1038 C 0.48894 0.75555 0.41002 0.0
C1039 C 0.50318 0.74628 0.30728 0.0
C1040 C 0.50276 0.72975 0.24032 0.0
C1041 C 0.51075 0.71638 0.21842 0.0
C1042 C 0.51942 0.7199 0.26638 0.0
C1043 C 0.52004 0.73653 0.33602 0.0
C1044 C 0.5118 0.74988 0.35686 0.0
H1045 H 0.51985 0.51726 1.02286 0.0
H1046 H 0.51528 0.48642 0.75581 0.0
H1047 H 0.4979 0.4815 0.79174 0.0
H1048 H 0.50325 0.48282 0.15041 0.0
H1049 H 0.49881 0.50548 0.22182 0.0
H1050 H 0.51094 0.50666 0.17578 0.0
H1051 H 0.50719 0.54545 0.10171 0.0
H1052 H 0.49505 0.54442 0.1478 0.0
H1053 H 0.4969 0.54818 1.0261 0.0
H1054 H 0.48135 0.47754 0.85953 0.0
H1055 H 0.46617 0.47814 0.94981 0.0
H1056 H 0.48082 0.51445 0.16828 0.0
C1057 C 0.51516 0.50957 0.97205 0.0
C1058 C 0.51889 0.50212 0.88668 0.0
C1059 C 0.51255 0.49226 0.82153 0.0
C1060 C 0.50267 0.48934 0.84139 0.0
C1061 C 0.49921 0.4967 0.92622 0.0
C1062 C 0.5052 0.50691 0.99012 0.0
C1063 C 0.49951 0.5137 0.07524 0.0
C1064 C 0.50336 0.50143 0.16087 0.0
C1065 C 0.49967 0.53947 0.08846 0.0
C1066 C 0.48943 0.50544 0.0495 0.0
C1067 C 0.48948 0.49549 0.96354 0.0
C1068 C 0.48119 0.48561 0.92629 0.0
C1069 C 0.4726 0.48605 0.97793 0.0
C1070 C 0.47229 0.49669 0.06496 0.0
C1071 C 0.48083 0.50651 0.1012 0.0
H1072 H 0.39618 0.27808 0.46556 0.0
H1073 H 0.40185 0.20603 0.47174 0.0
H1074 H 0.3846 0.19842 0.43789 0.0
H1075 H 0.37258 0.27698 0.56733 0.0
H1076 H 0.36753 0.29842 0.49369 0.0
H1077 H 0.38033 0.29844 0.51874 0.0
H1078 H 0.38428 0.29746 0.34463 0.0
H1079 H 0.37149 0.29766 0.31901 0.0
H1080 H 0.37912 0.27553 0.2739 0.0
H1081 H 0.3667 0.19852 0.41462 0.0
H1082 H 0.34946 0.20616 0.38083 0.0
H1083 H 0.35541 0.27812 0.37623 0.0
C1084 C 0.39377 0.26074 0.45914 0.0
C1085 C 0.40028 0.2426 0.47161 0.0
C1086 C 0.39695 0.22012 0.46215 0.0
C1087 C 0.38716 0.21565 0.44345 0.0
C1088 C 0.38087 0.23386 0.43283 0.0
C1089 C 0.38404 0.25596 0.43843 0.0
C1090 C 0.37579 0.27237 0.42081 0.0
C1091 C 0.37395 0.28744 0.50519 0.0
C1092 C 0.37779 0.28659 0.33444 0.0
C1093 C 0.36748 0.256 0.40558 0.0
C1094 C 0.37057 0.23389 0.4142 0.0
C1095 C 0.3642 0.21573 0.40663 0.0
C1096 C 0.35443 0.22025 0.38797 0.0
C1097 C 0.35116 0.24269 0.37558 0.0
C1098 C 0.35776 0.2608 0.38489 0.0
H1099 H 0.8538 0.98365 0.56065 0.0
H1100 H 0.84282 0.04176 0.41232 0.0
H1101 H 0.85955 0.0512 0.36289 0.0
H1102 H 0.87668 0.00884 0.63621 0.0
H1103 H 0.88346 0.98311 0.62 0.0
H1104 H 0.87074 0.98188 0.64911 0.0
H1105 H 0.86747 0.95728 0.50505 0.0
H1106 H 0.88015 0.95838 0.47567 0.0
H1107 H 0.87117 0.96743 0.3936 0.0
H1108 H 0.87725 0.05332 0.32468 0.0
H1109 H 0.89467 0.04713 0.29356 0.0
H1110 H 0.89416 0.98715 0.46452 0.0
C1111 C 0.85495 -0.0015 0.51859 0.0
C1112 C 0.84708 0.01211 0.49055 0.0
C1113 C 0.84879 0.03121 0.43459 0.0
C1114 C 0.85825 0.03672 0.40654 0.0
C1115 C 0.86587 0.02289 0.43502 0.0
C1116 C 0.86433 0.00413 0.48952 0.0
C1117 C 0.8737 0.99136 0.50629 0.0
C1118 C 0.8763 0.9913 0.60902 0.0
C1119 C 0.87308 0.96719 0.46783 0.0
C1120 C 0.88074 0.0057 0.4516 0.0
C1121 C 0.87608 0.02393 0.41191 0.0
C1122 C 0.88099 0.0392 0.35584 0.0
C1123 C 0.89087 0.03554 0.33864 0.0
C1124 C 0.89573 0.01672 0.37694 0.0
C1125 C 0.89063 0.00179 0.43513 0.0
H1126 H 0.39237 0.01647 0.8093 0.0
H1127 H 0.40322 0.95672 0.94763 0.0
H1128 H 0.38662 0.94779 1.00074 0.0
H1129 H 0.37469 0.03156 0.98442 0.0
H1130 H 0.3658 0.04133 0.90282 0.0
H1131 H 0.37854 0.04303 0.87557 0.0
H1132 H 0.37554 0.02013 0.72648 0.0
H1133 H 0.36281 0.01818 0.75369 0.0
H1134 H 0.36976 0.99286 0.73349 0.0
H1135 H 0.36893 0.94457 1.0344 0.0
H1136 H 0.35129 0.94884 0.05811 0.0
H1137 H 0.35173 0.01134 0.90259 0.0
C1138 C 0.39123 0.0016 0.85123 0.0
C1139 C 0.39905 0.98723 0.87441 0.0
C1140 C 0.39732 0.96794 0.92936 0.0
C1141 C 0.38792 0.9627 0.95951 0.0
C1142 C 0.38034 0.97701 0.9346 0.0
C1143 C 0.38188 0.99621 0.88262 0.0
C1144 C 0.37246 0.0089 0.86698 0.0
C1145 C 0.3729 0.03261 0.91004 0.0
C1146 C 0.37 0.01008 0.76403 0.0
C1147 C 0.36538 0.99378 0.91808 0.0
C1148 C 0.3701 0.97541 0.95586 0.0
C1149 C 0.36515 0.95893 1.00554 0.0
C1150 C 0.35514 0.96148 1.01837 0.0
C1151 C 0.35017 0.98042 0.98226 0.0
C1152 C 0.35536 0.99669 0.93082 0.0
H1153 H 0.85519 0.21707 0.83455 0.0
H1154 H 0.84301 0.26646 1.02277 0.0
H1155 H 0.85946 0.27705 0.07266 0.0
H1156 H 0.87526 0.19969 0.98751 0.0
H1157 H 0.8837 0.19608 0.89381 0.0
H1158 H 0.87091 0.19159 0.87543 0.0
H1159 H 0.87126 0.22072 0.74277 0.0
H1160 H 0.88401 0.22559 0.76173 0.0
H1161 H 0.87562 0.24894 0.7647 0.0
H1162 H 0.87695 0.28498 0.09163 0.0
H1163 H 0.89481 0.28594 0.0972 0.0
H1164 H 0.89613 0.22998 0.90456 0.0
C1165 C 0.85602 0.22978 0.8875 0.0
C1166 C 0.84785 0.24099 0.92485 0.0
C1167 C 0.84917 0.25765 0.9935 0.0
C1168 C 0.85849 0.26386 1.02197 0.0
C1169 C 0.86641 0.25305 0.982 0.0
C1170 C 0.86531 0.23603 0.91778 0.0
C1171 C 0.87512 0.22716 0.8865 0.0
C1172 C 0.87632 0.20215 0.91239 0.0
C1173 C 0.87658 0.23083 0.78276 0.0
C1174 C 0.88186 0.24212 0.94225 0.0
C1175 C 0.87663 0.25706 0.99595 0.0
C1176 C 0.88114 0.27318 0.05092 0.0
C1177 C 0.89129 0.27368 0.05309 0.0
C1178 C 0.89682 0.25799 1.00161 0.0
C1179 C 0.89205 0.24212 0.94477 0.0
H1180 H 0.60352 0.75987 0.48597 0.0
H1181 H 0.58967 0.74641 0.74819 0.0
H1182 H 0.60573 0.7396 0.81831 0.0
H1183 H 0.62272 0.71946 0.50236 0.0
H1184 H 0.63187 0.73744 0.45216 0.0
H1185 H 0.6193 0.74107 0.4214 0.0
H1186 H 0.6201 0.7831 0.47029 0.0
H1187 H 0.63269 0.77964 0.50041 0.0
H1188 H 0.6242 0.79027 0.58427 0.0
H1189 H 0.62306 0.73178 0.8574 0.0
H1190 H 0.64087 0.72855 0.86974 0.0
H1191 H 0.64391 0.75035 0.58657 0.0
C1192 C 0.60391 0.7556 0.55823 0.0
C1193 C 0.59538 0.75353 0.6118 0.0
C1194 C 0.59613 0.74813 0.70619 0.0
C1195 C 0.60521 0.74412 0.74644 0.0
C1196 C 0.61349 0.74603 0.69174 0.0
C1197 C 0.61296 0.7521 0.60019 0.0
C1198 C 0.62305 0.75388 0.55817 0.0
C1199 C 0.6243 0.73695 0.47883 0.0
C1200 C 0.62513 0.77817 0.52643 0.0
C1201 C 0.62929 0.7475 0.64003 0.0
C1202 C 0.62359 0.74276 0.71592 0.0
C1203 C 0.62761 0.7357 0.79881 0.0
C1204 C 0.63773 0.7338 0.80499 0.0
C1205 C 0.64375 0.73929 0.72932 0.0
C1206 C 0.63947 0.74616 0.64562 0.0
H1207 H 0.1035 0.98137 0.78198 0.0
H1208 H 0.09334 0.04341 0.65624 0.0
H1209 H 0.11 0.05166 0.60283 0.0
H1210 H 0.12665 0.00218 0.85844 0.0
H1211 H 0.13315 0.97656 0.83213 0.0
H1212 H 0.12044 0.97537 0.86123 0.0
H1213 H 0.11682 0.95452 0.70852 0.0
H1214 H 0.12952 0.95548 0.67928 0.0
H1215 H 0.12065 0.96694 0.60133 0.0
H1216 H 0.12768 0.0539 0.56748 0.0
H1217 H 0.14518 0.04853 0.53976 0.0
H1218 H 0.1441 0.98423 0.68237 0.0
C1219 C 0.1048 0.99663 0.74286 0.0
C1220 C 0.09715 0.01182 0.72331 0.0
C1221 C 0.0991 0.03156 0.67177 0.0
C1222 C 0.10854 0.03642 0.64148 0.0
C1223 C 0.11594 0.02126 0.66263 0.0
C1224 C 0.11419 0.00163 0.71115 0.0
C1225 C 0.12345 0.98798 0.72255 0.0
C1226 C 0.12608 0.98538 0.82467 0.0
C1227 C 0.12255 0.96486 0.67507 0.0
C1228 C 0.13068 0.00307 0.67311 0.0
C1229 C 0.12618 0.02226 0.63992 0.0
C1230 C 0.13128 0.0389 0.59272 0.0
C1231 C 0.14123 0.03572 0.57759 0.0
C1232 C 0.14599 0.01597 0.60879 0.0
C1233 C 0.14065 -0.0005 0.65785 0.0
H1234 H 0.64622 0.99135 0.2117 0.0
H1235 H 0.64518 0.02863 0.95532 0.0
H1236 H 0.6273 0.02947 0.9638 0.0
H1237 H 0.62522 0.95726 0.17255 0.0
H1238 H 0.62095 0.95824 0.28965 0.0
H1239 H 0.63373 0.96084 0.26541 0.0
H1240 H 0.63428 -0.00113 0.35336 0.0
H1241 H 0.62152 0.99627 0.37873 0.0
H1242 H 0.62603 0.02118 0.32165 0.0
H1243 H 0.60959 0.02408 0.99358 0.0
H1244 H 0.59306 0.01678 0.0529 0.0
H1245 H 0.6053 0.98503 0.29496 0.0
C1246 C 0.64221 -0.0001 0.15808 0.0
C1247 C 0.64707 0.00992 0.08276 0.0
C1248 C 0.6416 0.0209 1.0137 0.0
C1249 C 0.63144 0.02138 1.01768 0.0
C1250 C 0.62683 0.01101 0.09172 0.0
C1251 C 0.63202 0.00078 0.16154 0.0
C1252 C 0.62522 0.99112 0.23381 0.0
C1253 C 0.62635 0.96534 0.24073 0.0
C1254 C 0.62686 0.00255 0.32743 0.0
C1255 C 0.61544 0.99748 0.19344 0.0
C1256 C 0.61656 0.00867 0.11079 0.0
C1257 C 0.60861 0.01553 0.05865 0.0
C1258 C 0.59926 0.01121 0.0926 0.0
C1259 C 0.59793 0.00044 0.17846 0.0
C1260 C 0.60613 0.99341 0.22928 0.0
H1261 H 0.09668 0.75401 0.17702 0.0
H1262 H 0.09688 0.70335 0.96151 0.0
H1263 H 0.11468 0.69968 0.97696 0.0
H1264 H 0.11865 0.7814 0.11147 0.0
H1265 H 0.12266 0.78675 0.22735 0.0
H1266 H 0.10988 0.78473 0.20256 0.0
H1267 H 0.10802 0.75321 0.32473 0.0
H1268 H 0.12078 0.75527 0.35046 0.0
H1269 H 0.11561 0.72846 0.3179 0.0
H1270 H 0.13253 0.70252 1.0117 0.0
H1271 H 0.14911 0.7106 0.06809 0.0
H1272 H 0.13736 0.75941 0.26089 0.0
C1273 C 0.10047 0.74197 0.13392 0.0
C1274 C 0.09542 0.72889 0.06825 0.0
C1275 C 0.10062 0.71346 1.01246 0.0
C1276 C 0.11073 0.7113 1.0206 0.0
C1277 C 0.11553 0.72467 0.08498 0.0
C1278 C 0.11057 0.73961 0.14113 0.0
C1279 C 0.1175 0.75224 0.20372 0.0
C1280 C 0.11715 0.77779 0.18512 0.0
C1281 C 0.11535 0.74697 0.30522 0.0
C1282 C 0.12711 0.74217 0.17359 0.0
C1283 C 0.12581 0.72631 0.10499 0.0
C1284 C 0.13363 0.71485 0.06562 0.0
C1285 C 0.14302 0.71958 0.09784 0.0
C1286 C 0.1445 0.73561 0.16863 0.0
C1287 C 0.13643 0.74709 0.20655 0.0
H1288 H 0.34863 0.77467 0.87456 0.0
H1289 H 0.34625 0.70616 0.77067 0.0
H1290 H 0.36387 0.701 0.78978 0.0
H1291 H 0.37148 0.78803 0.77073 0.0
H1292 H 0.37611 0.80374 0.86734 0.0
H1293 H 0.36322 0.8023 0.84753 0.0
H1294 H 0.36057 0.78662 1.01175 0.0
H1295 H 0.37344 0.78824 1.03244 0.0
H1296 H 0.36713 0.76184 0.04784 0.0
H1297 H 0.38168 0.7037 0.81024 0.0
H1298 H 0.39868 0.71248 0.84872 0.0
H1299 H 0.38993 0.77857 0.94805 0.0
C1300 C 0.35183 0.75854 0.85687 0.0
C1301 C 0.34608 0.7408 0.82095 0.0
C1302 C 0.35051 0.71994 0.79843 0.0
C1303 C 0.36052 0.71688 0.80865 0.0
C1304 C 0.36603 0.73475 0.84248 0.0
C1305 C 0.36186 0.75507 0.86779 0.0
C1306 C 0.36952 0.7713 0.90389 0.0
C1307 C 0.37011 0.7926 0.84377 0.0
C1308 C 0.36755 0.77735 1.00499 0.0
C1309 C 0.37862 0.75696 0.89407 0.0
C1310 C 0.37639 0.73604 0.85753 0.0
C1311 C 0.38351 0.71994 0.83965 0.0
C1312 C 0.39316 0.72514 0.86136 0.0
C1313 C 0.39562 0.74616 0.90153 0.0
C1314 C 0.38825 0.76236 0.91747 0.0
H1315 H 0.89243 0.48457 0.8313 0.0
H1316 H 0.90292 0.53522 1.02237 0.0
H1317 H 0.88607 0.54221 0.07464 0.0
H1318 H 0.87069 0.51404 0.76591 0.0
H1319 H 0.86343 0.4888 0.75757 0.0
H1320 H 0.87631 0.48748 0.73664 0.0
H1321 H 0.87806 0.45656 0.86144 0.0
H1322 H 0.86517 0.45766 0.88228 0.0
H1323 H 0.87355 0.46189 0.97581 0.0
H1324 H 0.86806 0.54323 0.10709 0.0
H1325 H 0.85026 0.53813 0.11784 0.0
H1326 H 0.8515 0.48776 0.90154 0.0
C1327 C 0.89117 0.49704 0.88449 0.0
C1328 C 0.89894 0.50933 0.92321 0.0
C1329 C 0.89704 0.52563 0.99205 0.0
C1330 C 0.8875 0.52972 1.02199 0.0
C1331 C 0.87997 0.51746 0.98182 0.0
C1332 C 0.8817 0.50146 0.91451 0.0
C1333 C 0.87232 0.49072 0.88194 0.0
C1334 C 0.87059 0.49556 0.77944 0.0
C1335 C 0.87227 0.46519 0.90158 0.0
C1336 C 0.86505 0.50308 0.94176 0.0
C1337 C 0.86961 0.51841 0.99901 0.0
C1338 C 0.86441 0.53137 0.06224 0.0
C1339 C 0.85432 0.52839 0.06777 0.0
C1340 C 0.84953 0.5127 1.01005 0.0
C1341 C 0.85497 0.50008 0.94571 0.0
H1342 H 0.34925 0.47338 0.41336 0.0
H1343 H 0.34881 0.53841 0.55124 0.0
H1344 H 0.36628 0.54311 0.52005 0.0
H1345 H 0.37261 0.45582 0.49313 0.0
H1346 H 0.3762 0.44255 0.38684 0.0
H1347 H 0.36354 0.44425 0.41731 0.0
H1348 H 0.35982 0.46446 0.26353 0.0
H1349 H 0.37245 0.46261 0.23218 0.0
H1350 H 0.36645 0.48966 0.23352 0.0
H1351 H 0.38375 0.54032 0.48111 0.0
H1352 H 0.40022 0.53158 0.42495 0.0
H1353 H 0.38967 0.46875 0.30795 0.0
C1354 C 0.35284 0.48867 0.43601 0.0
C1355 C 0.3477 0.50555 0.48472 0.0
C1356 C 0.35261 0.5253 0.51371 0.0
C1357 C 0.36254 0.5281 0.49658 0.0
C1358 C 0.36745 0.51104 0.4499 0.0
C1359 C 0.36278 0.49182 0.41898 0.0
C1360 C 0.36985 0.47619 0.37009 0.0
C1361 C 0.37059 0.45335 0.41984 0.0
C1362 C 0.36697 0.47305 0.26881 0.0
C1363 C 0.3792 0.48961 0.379 0.0
C1364 C 0.37761 0.5096 0.42582 0.0
C1365 C 0.38509 0.52479 0.44391 0.0
C1366 C 0.39442 0.51964 0.41201 0.0
C1367 C 0.3962 0.49953 0.36215 0.0
C1368 C 0.3885 0.48424 0.34603 0.0
H1369 H 0.85224 0.76131 0.26921 0.0
H1370 H 0.84136 0.70421 0.42503 0.0
H1371 H 0.85785 0.69699 0.48434 0.0
H1372 H 0.87573 0.73746 0.20955 0.0
H1373 H 0.88221 0.76368 0.22402 0.0
H1374 H 0.86962 0.76397 0.19031 0.0
H1375 H 0.86549 0.78966 0.32911 0.0
H1376 H 0.87806 0.78954 0.36295 0.0
H1377 H 0.86882 0.78079 0.44327 0.0
H1378 H 0.87538 0.69583 0.52698 0.0
H1379 H 0.89272 0.70236 0.55961 0.0
H1380 H 0.89247 0.7611 0.38154 0.0
C1381 C 0.85337 0.74725 0.31547 0.0
C1382 C 0.84554 0.73321 0.34222 0.0
C1383 C 0.84725 0.71513 0.40363 0.0
C1384 C 0.8566 0.71086 0.43742 0.0
C1385 C 0.86417 0.72493 0.40976 0.0
C1386 C 0.86267 0.7429 0.35088 0.0
C1387 C 0.87203 0.75597 0.33545 0.0
C1388 C 0.87507 0.75521 0.23378 0.0
C1389 C 0.87104 0.78044 0.36976 0.0
C1390 C 0.87901 0.74256 0.39497 0.0
C1391 C 0.87431 0.72461 0.4364 0.0
C1392 C 0.87914 0.70983 0.49498 0.0
C1393 C 0.889 0.71365 0.51293 0.0
C1394 C 0.89394 0.7322 0.47308 0.0
C1395 C 0.88888 0.74672 0.41261 0.0
H1396 H 0.64787 0.26217 0.14646 0.0
H1397 H 0.64864 0.19659 0.27923 0.0
H1398 H 0.63079 0.19445 0.27219 0.0
H1399 H 0.6268 0.28285 0.25702 0.0
H1400 H 0.62192 0.29693 0.15751 0.0
H1401 H 0.63484 0.29314 0.16854 0.0
H1402 H 0.63543 0.27265 1.01116 0.0
H1403 H 0.62254 0.27673 0.99888 0.0
H1404 H 0.62761 0.24873 0.99119 0.0
H1405 H 0.61296 0.20061 0.26269 0.0
H1406 H 0.5961 0.21231 0.23084 0.0
H1407 H 0.60672 0.27309 0.09777 0.0
C1408 C 0.64427 0.24723 0.1725 0.0
C1409 C 0.64959 0.22955 0.21347 0.0
C1410 C 0.64467 0.21028 0.24733 0.0
C1411 C 0.63454 0.20895 0.24412 0.0
C1412 C 0.62946 0.22693 0.20587 0.0
C1413 C 0.63413 0.24551 0.16892 0.0
C1414 C 0.6269 0.26239 0.13124 0.0
C1415 C 0.62767 0.28517 0.18161 0.0
C1416 C 0.6282 0.26529 1.02692 0.0
C1417 C 0.61745 0.2505 0.1539 0.0
C1418 C 0.61911 0.23018 0.19778 0.0
C1419 C 0.61155 0.21638 0.22758 0.0
C1420 C 0.60201 0.22323 0.20979 0.0
C1421 C 0.60016 0.24354 0.16188 0.0
C1422 C 0.60796 0.25747 0.13459 0.0
H1423 H 0.09944 0.48847 0.13423 0.0
H1424 H 0.09815 0.54525 0.32245 0.0
H1425 H 0.11593 0.55003 0.30955 0.0
H1426 H 0.12137 0.46516 0.21825 0.0
H1427 H 0.1259 0.45671 0.10716 0.0
H1428 H 0.11302 0.45846 0.12691 0.0
H1429 H 0.11125 0.486 0.98958 0.0
H1430 H 0.12412 0.48412 0.96869 0.0
H1431 H 0.11853 0.51131 0.98619 0.0
H1432 H 0.13392 0.54734 0.28258 0.0
H1433 H 0.15079 0.53888 0.23498 0.0
H1434 H 0.14031 0.48403 0.06391 0.0
C1435 C 0.1029 0.5021 0.1716 0.0
C1436 C 0.09747 0.51655 0.22913 0.0
C1437 C 0.10221 0.53407 0.27772 0.0
C1438 C 0.1123 0.53687 0.27105 0.0
C1439 C 0.11749 0.52204 0.21525 0.0
C1440 C 0.11296 0.50514 0.16564 0.0
C1441 C 0.12024 0.49126 0.11185 0.0
C1442 C 0.12012 0.46643 0.14294 0.0
C1443 C 0.11843 0.49331 1.00792 0.0
C1444 C 0.12958 0.50287 0.13958 0.0
C1445 C 0.12785 0.52056 0.1994 0.0
C1446 C 0.13537 0.53361 0.23538 0.0
C1447 C 0.14491 0.52864 0.20836 0.0
C1448 C 0.14681 0.51083 0.146 0.0
C1449 C 0.13905 0.49773 0.1118 0.0
H1450 H 0.64174 0.478 0.56624 0.0
H1451 H 0.6533 0.53177 0.7369 0.0
H1452 H 0.63676 0.54043 0.79231 0.0
H1453 H 0.61989 0.50601 0.49989 0.0
H1454 H 0.61238 0.48111 0.50488 0.0
H1455 H 0.62514 0.47855 0.47977 0.0
H1456 H 0.6272 0.45087 0.61609 0.0
H1457 H 0.61442 0.45317 0.64114 0.0
H1458 H 0.62324 0.45926 0.72922 0.0
H1459 H 0.61912 0.54458 0.82318 0.0
H1460 H 0.60135 0.54215 0.83854 0.0
H1461 H 0.60092 0.48486 0.65223 0.0
C1462 C 0.64077 0.49144 0.61592 0.0
C1463 C 0.64876 0.50427 0.64743 0.0
C1464 C 0.64726 0.52175 0.71216 0.0
C1465 C 0.6379 0.52682 0.74376 0.0
C1466 C 0.63014 0.51413 0.71038 0.0
C1467 C 0.63146 0.49664 0.64875 0.0
C1468 C 0.62184 0.48564 0.62433 0.0
C1469 C 0.61969 0.48798 0.52108 0.0
C1470 C 0.62167 0.46076 0.65452 0.0
C1471 C 0.61491 0.49981 0.68143 0.0
C1472 C 0.61989 0.51622 0.72994 0.0
C1473 C 0.61514 0.53171 0.78611 0.0
C1474 C 0.60504 0.53023 0.79408 0.0
C1475 C 0.59978 0.51329 0.74673 0.0
C1476 C 0.60478 0.49794 0.68926 0.0
H1477 H 0.144 0.26556 0.73382 0.0
H1478 H 0.15065 0.19434 0.70336 0.0
H1479 H 0.13356 0.18674 0.6616 0.0
H1480 H 0.1207 0.25742 0.83901 0.0
H1481 H 0.11511 0.28126 0.78321 0.0
H1482 H 0.12797 0.28142 0.80584 0.0
H1483 H 0.13147 0.28859 0.63329 0.0
H1484 H 0.11862 0.28861 0.61022 0.0
H1485 H 0.12651 0.26963 0.54841 0.0
H1486 H 0.11589 0.18688 0.6222 0.0
H1487 H 0.09857 0.19459 0.59142 0.0
H1488 H 0.10305 0.26532 0.65665 0.0
C1489 C 0.14186 0.24843 0.71731 0.0
C1490 C 0.14861 0.23052 0.72091 0.0
C1491 C 0.14555 0.20827 0.70055 0.0
C1492 C 0.13588 0.2038 0.67684 0.0
C1493 C 0.12935 0.22175 0.67496 0.0
C1494 C 0.13218 0.24362 0.69498 0.0
C1495 C 0.12362 0.25968 0.69105 0.0
C1496 C 0.12174 0.27058 0.7854 0.0
C1497 C 0.12515 0.27769 0.61627 0.0
C1498 C 0.11556 0.24345 0.66535 0.0
C1499 C 0.11905 0.22168 0.65581 0.0
C1500 C 0.11306 0.20382 0.62995 0.0
C1501 C 0.10324 0.20834 0.61269 0.0
C1502 C 0.09951 0.23047 0.62246 0.0
C1503 C 0.10572 0.24819 0.64986 0.0
H1504 H 0.32071 0.25591 0.53676 0.0
H1505 H 0.29187 0.22626 0.5449 0.0
H1506 H 0.29231 0.22587 0.71274 0.0
H1507 H 0.3301 0.22406 0.73808 0.0
H1508 H 0.33712 0.24738 0.78206 0.0
H1509 H 0.3349 0.24499 0.66035 0.0
H1510 H 0.32755 0.28516 0.6597 0.0
H1511 H 0.32967 0.28761 0.78151 0.0
H1512 H 0.31763 0.29169 0.7362 0.0
H1513 H 0.29501 0.23015 0.8799 0.0
H1514 H 0.30066 0.23615 0.03877 0.0
H1515 H 0.32802 0.26195 0.93482 0.0
C1516 C 0.31458 0.24902 0.57403 0.0
C1517 C 0.30623 0.2411 0.52603 0.0
C1518 C 0.29835 0.23251 0.57853 0.0
C1519 C 0.2985 0.23221 0.67474 0.0
C1520 C 0.30663 0.24047 0.72004 0.0
C1521 C 0.31461 0.24849 0.67215 0.0
C1522 C 0.32235 0.25636 0.74051 0.0
C1523 C 0.33167 0.24237 0.72958 0.0
C1524 C 0.32442 0.28171 0.72875 0.0
C1525 C 0.3174 0.25159 0.83302 0.0
C1526 C 0.30829 0.24256 0.81872 0.0
C1527 C 0.30215 0.23713 0.89202 0.0
C1528 C 0.3054 0.24077 0.98246 0.0
C1529 C 0.31474 0.24966 1.00021 0.0
C1530 C 0.32082 0.25512 0.92388 0.0
H1531 H 0.94788 0.97599 0.58396 0.0
H1532 H 0.92526 0.02227 0.49754 0.0
H1533 H 0.92046 0.02775 0.65972 0.0
H1534 H 0.93409 0.94979 0.76859 0.0
H1535 H 0.9443 0.94701 0.84509 0.0
H1536 H 0.94618 0.94689 0.72249 0.0
H1537 H 0.95833 0.97996 0.73881 0.0
H1538 H 0.95643 0.98028 0.86143 0.0
H1539 H 0.95454 0.00561 0.79521 0.0
H1540 H 0.91797 0.02843 0.82931 0.0
H1541 H 0.91712 0.02293 0.99601 0.0
H1542 H 0.94123 0.97586 0.98268 0.0
C1543 C 0.94192 0.98731 0.59933 0.0
C1544 C 0.93697 -0.00118 0.52715 0.0
C1545 C 0.92919 0.01333 0.5507 0.0
C1546 C 0.92643 0.01659 0.64302 0.0
C1547 C 0.93148 0.00522 0.71223 0.0
C1548 C 0.93904 0.99075 0.69193 0.0
C1549 C 0.94304 0.98026 0.78044 0.0
C1550 C 0.94183 0.95445 0.77905 0.0
C1551 C 0.95372 0.98693 0.79479 0.0
C1552 C 0.93654 0.99107 0.85356 0.0
C1553 C 0.92998 0.00547 0.81168 0.0
C1554 C 0.92307 0.01721 0.86254 0.0
C1555 C 0.92266 0.01392 0.95787 0.0
C1556 C 0.9291 -0.00099 1.00381 0.0
C1557 C 0.93628 0.98762 0.95055 0.0
H1558 H 0.32595 0.97901 0.40172 0.0
H1559 H 0.29905 0.00768 0.30061 0.0
H1560 H 0.29372 0.01453 0.46039 0.0
H1561 H 0.31507 0.95029 0.59901 0.0
H1562 H 0.32522 0.95532 0.67439 0.0
H1563 H 0.32714 0.95302 0.5522 0.0
H1564 H 0.33551 0.99214 0.552 0.0
H1565 H 0.33355 0.99463 0.67411 0.0
H1566 H 0.32914 0.01626 0.59773 0.0
H1567 H 0.29142 0.01942 0.62745 0.0
H1568 H 0.2911 0.01869 0.7951 0.0
H1569 H 0.31912 0.98502 0.79941 0.0
C1570 C 0.31893 0.98669 0.41354 0.0
C1571 C 0.31289 0.99284 0.3382 0.0
C1572 C 0.30375 0.00271 0.35657 0.0
C1573 C 0.3007 0.00678 0.44734 0.0
C1574 C 0.30682 0.0007 0.51976 0.0
C1575 C 0.31569 0.99057 0.50449 0.0
C1576 C 0.32061 0.985 0.59607 0.0
C1577 C 0.3221 0.95938 0.60599 0.0
C1578 C 0.33028 0.99777 0.60551 0.0
C1579 C 0.31313 0.9937 0.66515 0.0
C1580 C 0.30532 0.00287 0.6184 0.0
C1581 C 0.29746 0.01215 0.66458 0.0
C1582 C 0.29738 0.01163 0.7606 0.0
C1583 C 0.30506 0.00173 0.81178 0.0
C1584 C 0.31317 0.99288 0.76301 0.0
H1585 H 0.92065 0.26024 0.41043 0.0
H1586 H 0.94888 0.23962 0.30809 0.0
H1587 H 0.95471 0.23543 0.46747 0.0
H1588 H 0.92973 0.29288 0.60456 0.0
H1589 H 0.92008 0.2848 0.68172 0.0
H1590 H 0.91791 0.28586 0.55969 0.0
H1591 H 0.9121 0.24432 0.56282 0.0
H1592 H 0.9143 0.24311 0.68484 0.0
H1593 H 0.91996 0.22285 0.60936 0.0
H1594 H 0.95755 0.23301 0.634 0.0
H1595 H 0.95795 0.23439 0.80137 0.0
H1596 H 0.92802 0.25755 0.80787 0.0
C1597 C 0.92806 0.25484 0.42192 0.0
C1598 C 0.93436 0.25032 0.34632 0.0
C1599 C 0.94398 0.24337 0.36425 0.0
C1600 C 0.94732 0.24083 0.45481 0.0
C1601 C 0.94098 0.24538 0.52752 0.0
C1602 C 0.93157 0.2524 0.51272 0.0
C1603 C 0.92643 0.25666 0.60459 0.0
C1604 C 0.92335 0.28153 0.61312 0.0
C1605 C 0.91767 0.24079 0.61605 0.0
C1606 C 0.93444 0.25091 0.6732 0.0
C1607 C 0.94271 0.24433 0.62598 0.0
C1608 C 0.95113 0.2382 0.67155 0.0
C1609 C 0.95126 0.23908 0.76748 0.0
C1610 C 0.94304 0.24615 0.81923 0.0
C1611 C 0.93442 0.25196 0.77103 0.0
H1612 H 0.67298 0.76809 0.10616 0.0
H1613 H 0.69122 0.71141 1.02911 0.0
H1614 H 0.69455 0.70395 0.19295 0.0
H1615 H 0.68837 0.78716 0.29418 0.0
H1616 H 0.67842 0.79572 0.3669 0.0
H1617 H 0.67709 0.79629 0.24375 0.0
H1618 H 0.66191 0.77073 0.25696 0.0
H1619 H 0.66326 0.76989 0.38015 0.0
H1620 H 0.66283 0.74396 0.31527 0.0
H1621 H 0.69562 0.70162 0.36222 0.0
H1622 H 0.69639 0.70721 0.52864 0.0
H1623 H 0.67825 0.76691 0.50573 0.0
C1624 C 0.67767 0.7541 0.12407 0.0
C1625 C 0.68178 0.74016 0.05441 0.0
C1626 C 0.68798 0.72225 0.08068 0.0
C1627 C 0.68986 0.71782 0.17381 0.0
C1628 C 0.68562 0.73161 0.24061 0.0
C1629 C 0.67978 0.74964 0.2174 0.0
C1630 C 0.67658 0.76239 0.30384 0.0
C1631 C 0.68034 0.78684 0.30205 0.0
C1632 C 0.66548 0.7617 0.31466 0.0
C1633 C 0.68155 0.74868 0.37917 0.0
C1634 C 0.68658 0.73085 0.3401 0.0
C1635 C 0.69177 0.71562 0.39334 0.0
C1636 C 0.69215 0.71899 0.48838 0.0
C1637 C 0.68744 0.73757 0.53119 0.0
C1638 C 0.68187 0.75245 0.47568 0.0
H1639 H 0.0498 0.0174 0.13512 0.0
H1640 H 0.07812 0.98539 0.12391 0.0
H1641 H 0.07791 0.9804 0.29103 0.0
H1642 H 0.0541 0.0479 0.3447 0.0
H1643 H 0.04209 0.04429 0.39167 0.0
H1644 H 0.04387 0.04426 0.26896 0.0
H1645 H 0.03559 0.00516 0.25725 0.0
H1646 H 0.0337 0.00515 0.37988 0.0
H1647 H 0.04006 0.98207 0.3259 0.0
H1648 H 0.07547 0.98042 0.45981 0.0
H1649 H 0.07032 0.98386 0.62177 0.0
H1650 H 0.04355 0.01581 0.53396 0.0
C1651 C 0.05583 0.00893 0.1679 0.0
C1652 C 0.06397 0.00168 0.11531 0.0
C1653 C 0.0718 0.99112 0.16175 0.0
C1654 C 0.07177 0.98818 0.25723 0.0
C1655 C 0.06385 0.99591 0.30745 0.0
C1656 C 0.05596 0.00594 0.265 0.0
C1657 C 0.04857 0.01323 0.33769 0.0
C1658 C 0.04707 0.03895 0.3356 0.0
C1659 C 0.03891 0.00065 0.32437 0.0
C1660 C 0.05361 0.00588 0.4265 0.0
C1661 C 0.06242 0.99592 0.40674 0.0
C1662 C 0.06854 0.98805 0.47618 0.0
C1663 C 0.06557 0.99014 0.5683 0.0
C1664 C 0.05654 4e-05 0.59128 0.0
C1665 C 0.0505 0.00811 0.51891 0.0
H1666 H 0.69482 0.01269 0.73475 0.0
H1667 H 0.67118 0.96418 0.74778 0.0
H1668 H 0.67138 0.96054 0.58056 0.0
H1669 H 0.68725 0.04032 0.52684 0.0
H1670 H 0.69922 0.04342 0.47819 0.0
H1671 H 0.69769 0.0423 0.60113 0.0
H1672 H 0.70969 0.00877 0.61033 0.0
H1673 H 0.71133 0.00993 0.48747 0.0
H1674 H 0.70755 0.98396 0.54133 0.0
H1675 H 0.67289 0.96359 0.41305 0.0
H1676 H 0.6771 0.97011 0.25073 0.0
H1677 H 0.70046 0.01481 0.33469 0.0
C1678 C 0.6898 0.00113 0.70221 0.0
C1679 C 0.68289 0.98893 0.75542 0.0
C1680 C 0.67646 0.97397 0.70954 0.0
C1681 C 0.6765 0.97172 0.61396 0.0
C1682 C 0.68312 0.98428 0.56331 0.0
C1683 C 0.68979 -0.00158 0.60508 0.0
C1684 C 0.69613 0.00964 0.53184 0.0
C1685 C 0.69501 0.03545 0.5347 0.0
C1686 C 0.70681 0.00266 0.54345 0.0
C1687 C 0.69183 -0.0002 0.44353 0.0
C1688 C 0.68428 0.98533 0.46421 0.0
C1689 C 0.67887 0.97467 0.39579 0.0
C1690 C 0.68129 0.97856 0.3035 0.0
C1691 C 0.68914 0.99281 0.27946 0.0
C1692 C 0.69446 0.00367 0.3508 0.0
H1693 H 0.06293 0.76417 0.28548 0.0
H1694 H 0.04128 0.71097 0.26896 0.0
H1695 H 0.04161 0.70671 0.43624 0.0
H1696 H 0.0767 0.73782 0.4783 0.0
H1697 H 0.07935 0.76443 0.53308 0.0
H1698 H 0.07787 0.76308 0.41011 0.0
H1699 H 0.06455 0.7938 0.41974 0.0
H1700 H 0.06592 0.79506 0.54279 0.0
H1701 H 0.05418 0.7894 0.49335 0.0
H1702 H 0.04286 0.70986 0.60447 0.0
H1703 H 0.04668 0.71712 0.76719 0.0
H1704 H 0.06826 0.7666 0.68505 0.0
C1705 C 0.05841 0.75139 0.31723 0.0
C1706 C 0.052 0.73802 0.26335 0.0
C1707 C 0.04617 0.7216 0.30807 0.0
C1708 C 0.04629 0.719 0.40353 0.0
C1709 C 0.05237 0.73276 0.45502 0.0
C1710 C 0.05848 0.74837 0.4141 0.0
C1711 C 0.06428 0.76083 0.48791 0.0
C1712 C 0.0752 0.75626 0.47667 0.0
C1713 C 0.0621 0.78628 0.48578 0.0
C1714 C 0.06032 0.74995 0.57563 0.0
C1715 C 0.0534 0.73394 0.55425 0.0
C1716 C 0.04837 0.72214 0.62223 0.0
C1717 C 0.05055 0.72646 0.71473 0.0
C1718 C 0.05781 0.74227 0.73933 0.0
C1719 C 0.06273 0.75426 0.66847 0.0
H1720 H 0.29124 0.76765 1.03655 0.0
H1721 H 0.3176 0.73468 0.9431 0.0
H1722 H 0.32316 0.7316 0.10372 0.0
H1723 H 0.30236 0.79976 0.22279 0.0
H1724 H 0.2923 0.79646 0.30115 0.0
H1725 H 0.29022 0.79624 0.17889 0.0
H1726 H 0.28177 0.75738 0.19305 0.0
H1727 H 0.28388 0.75749 0.31531 0.0
H1728 H 0.28815 0.73423 0.24614 0.0
H1729 H 0.32613 0.73221 0.27159 0.0
H1730 H 0.32669 0.7366 0.4386 0.0
H1731 H 0.29834 0.76869 0.43553 0.0
C1732 C 0.29819 0.75978 0.05011 0.0
C1733 C 0.30399 0.75134 0.97626 0.0
C1734 C 0.31301 0.74121 0.9975 0.0
C1735 C 0.31623 0.73938 0.08894 0.0
C1736 C 0.31036 0.74766 0.15979 0.0
C1737 C 0.30152 0.75768 0.14205 0.0
C1738 C 0.29674 0.7652 0.23244 0.0
C1739 C 0.29532 0.79095 0.23388 0.0
C1740 C 0.28706 0.75284 0.24761 0.0
C1741 C 0.3043 0.75787 0.30348 0.0
C1742 C 0.31206 0.74782 0.25884 0.0
C1743 C 0.32008 0.73999 0.30705 0.0
C1744 C 0.32031 0.74263 0.40273 0.0
C1745 C 0.31257 0.75292 0.45191 0.0
C1746 C 0.30435 0.76049 0.40106 0.0
H1747 H 0.92132 0.49245 0.47639 0.0
H1748 H 0.95012 0.5071 0.58028 0.0
H1749 H 0.95612 0.5113 0.42138 0.0
H1750 H 0.92942 0.45961 0.2772 0.0
H1751 H 0.92008 0.46992 0.20146 0.0
H1752 H 0.91786 0.46829 0.32339 0.0
H1753 H 0.91339 0.5107 0.32558 0.0
H1754 H 0.91566 0.51248 0.20373 0.0
H1755 H 0.92193 0.53111 0.28169 0.0
H1756 H 0.95909 0.51482 0.25382 0.0
H1757 H 0.95947 0.51465 0.08595 0.0
H1758 H 0.92892 0.4965 0.07822 0.0
C1759 C 0.92889 0.4965 0.46543 0.0
C1760 C 0.93528 0.4993 0.5418 0.0
C1761 C 0.94512 0.50456 0.52398 0.0
C1762 C 0.94858 0.50715 0.4335 0.0
C1763 C 0.94214 0.50434 0.36017 0.0
C1764 C 0.93252 0.49891 0.37452 0.0
C1765 C 0.9273 0.49627 0.28198 0.0
C1766 C 0.92343 0.47208 0.27034 0.0
C1767 C 0.91908 0.51368 0.27272 0.0
C1768 C 0.93549 0.50115 0.21356 0.0
C1769 C 0.94393 0.50591 0.26139 0.0
C1770 C 0.95253 0.51102 0.21592 0.0
C1771 C 0.95264 0.51088 0.11964 0.0
C1772 C 0.94425 0.50556 0.06715 0.0
C1773 C 0.93546 0.50083 0.11538 0.0
H1774 H 0.30052 0.47631 0.87842 0.0
H1775 H 0.3286 0.50967 0.87488 0.0
H1776 H 0.32803 0.51386 0.04202 0.0
H1777 H 0.29008 0.51007 0.06841 0.0
H1778 H 0.28386 0.48657 0.12081 0.0
H1779 H 0.28604 0.48673 0.9986 0.0
H1780 H 0.29473 0.44822 1.01134 0.0
H1781 H 0.29264 0.44797 0.13365 0.0
H1782 H 0.30481 0.44515 0.08932 0.0
H1783 H 0.32503 0.51429 0.20982 0.0
H1784 H 0.31951 0.51081 0.37052 0.0
H1785 H 0.29348 0.47644 0.27772 0.0
C1786 C 0.30646 0.48474 0.91285 0.0
C1787 C 0.31461 0.49274 0.86187 0.0
C1788 C 0.32228 0.50332 0.91092 0.0
C1789 C 0.32204 0.50585 1.00663 0.0
C1790 C 0.31408 0.49761 0.05497 0.0
C1791 C 0.3064 0.48725 1.01046 0.0
C1792 C 0.29891 0.47946 0.0817 0.0
C1793 C 0.28914 0.49142 0.06645 0.0
C1794 C 0.2977 0.45367 0.0788 0.0
C1795 C 0.30364 0.48707 0.17199 0.0
C1796 C 0.31239 0.49757 0.15406 0.0
C1797 C 0.31818 0.50611 0.22476 0.0
C1798 C 0.31499 0.50403 0.31625 0.0
C1799 C 0.30608 0.49336 0.33773 0.0
C1800 C 0.30034 0.48468 0.26401 0.0
H1801 H 0.93932 0.77407 0.86817 0.0
H1802 H 0.91479 0.72804 0.85851 0.0
H1803 H 0.91567 0.72289 1.02512 0.0
H1804 H 0.95243 0.74431 0.05513 0.0
H1805 H 0.95647 0.7699 0.11034 0.0
H1806 H 0.95443 0.76947 0.98798 0.0
H1807 H 0.94258 0.80309 1.00415 0.0
H1808 H 0.94452 0.80353 0.1266 0.0
H1809 H 0.93239 0.8009 0.08162 0.0
H1810 H 0.91838 0.72328 0.19397 0.0
H1811 H 0.92333 0.72865 0.35565 0.0
H1812 H 0.94606 0.7745 0.26694 0.0
C1813 C 0.93426 0.76265 0.90111 0.0
C1814 C 0.92698 0.75141 0.84871 0.0
C1815 C 0.92042 0.73694 0.89579 0.0
C1816 C 0.92085 0.73383 0.99116 0.0
C1817 C 0.92788 0.74533 0.04108 0.0
C1818 C 0.93453 0.75941 0.99829 0.0
C1819 C 0.94114 0.77009 0.07083 0.0
C1820 C 0.95175 0.76302 0.05512 0.0
C1821 C 0.94009 0.79594 0.07076 0.0
C1822 C 0.93709 0.75987 0.15985 0.0
C1823 C 0.92945 0.74561 0.14037 0.0
C1824 C 0.9244 0.73434 0.21008 0.0
C1825 C 0.92725 0.73752 0.3021 0.0
C1826 C 0.93509 0.75192 0.32489 0.0
C1827 C 0.94004 0.76331 0.25218 0.0
H1828 H 0.69847 0.24969 0.58616 0.0
H1829 H 0.66986 0.21871 0.59311 0.0
H1830 H 0.67021 0.21828 0.76056 0.0
H1831 H 0.70794 0.21781 0.78789 0.0
H1832 H 0.71479 0.24133 0.83245 0.0
H1833 H 0.7127 0.23889 0.71059 0.0
H1834 H 0.70514 0.27883 0.70942 0.0
H1835 H 0.70713 0.28134 0.83139 0.0
H1836 H 0.69511 0.2851 0.7851 0.0
H1837 H 0.67257 0.22332 0.92683 0.0
H1838 H 0.67793 0.23021 0.08622 0.0
H1839 H 0.7054 0.2559 0.98406 0.0
C1840 C 0.69238 0.24251 0.62312 0.0
C1841 C 0.6841 0.23433 0.57499 0.0
C1842 C 0.67627 0.22526 0.62693 0.0
C1843 C 0.67637 0.2249 0.72292 0.0
C1844 C 0.6844 0.23348 0.76842 0.0
C1845 C 0.69236 0.24182 0.72108 0.0
C1846 C 0.70001 0.2499 0.7898 0.0
C1847 C 0.70942 0.23616 0.77956 0.0
C1848 C 0.70196 0.2753 0.77821 0.0
C1849 C 0.69498 0.24498 0.88172 0.0
C1850 C 0.68594 0.23566 0.86692 0.0
C1851 C 0.67969 0.23038 0.93957 0.0
C1852 C 0.68277 0.23444 1.03013 0.0
C1853 C 0.69207 0.24347 0.04817 0.0
C1854 C 0.69826 0.24882 0.97256 0.0
H1855 H 0.06769 0.48799 1.02265 0.0
H1856 H 0.03646 0.49859 1.02509 0.0
H1857 H 0.03644 0.50239 0.8582 0.0
H1858 H 0.07274 0.52723 0.83031 0.0
H1859 H 0.08194 0.50963 0.77888 0.0
H1860 H 0.07989 0.50867 0.90125 0.0
H1861 H 0.07714 0.46552 0.8916 0.0
H1862 H 0.07915 0.46635 0.76924 0.0
H1863 H 0.06807 0.45451 0.81437 0.0
H1864 H 0.03922 0.50499 0.692 0.0
H1865 H 0.04494 0.50527 0.5317 0.0
H1866 H 0.07423 0.49137 0.62399 0.0
C1867 C 0.0609 0.49133 0.98784 0.0
C1868 C 0.05207 0.49299 0.03824 0.0
C1869 C 0.04334 0.49714 0.9893 0.0
C1870 C 0.04322 0.4994 0.89378 0.0
C1871 C 0.0519 0.49741 0.84597 0.0
C1872 C 0.0606 0.49344 0.89047 0.0
C1873 C 0.06877 0.49146 0.81959 0.0
C1874 C 0.07628 0.51037 0.83334 0.0
C1875 C 0.07356 0.46806 0.82399 0.0
C1876 C 0.06319 0.49463 0.72955 0.0
C1877 C 0.05348 0.49829 0.74735 0.0
C1878 C 0.04681 0.50207 0.67701 0.0
C1879 C 0.05011 0.50215 0.58575 0.0
C1880 C 0.05997 0.49816 0.56444 0.0
C1881 C 0.06661 0.49431 0.63779 0.0
H1882 H 0.696 0.51059 0.22968 0.0
H1883 H 0.66711 0.48127 0.23681 0.0
H1884 H 0.66741 0.47669 0.06966 0.0
H1885 H 0.69275 0.54184 1.02106 0.0
H1886 H 0.70468 0.53675 0.97447 0.0
H1887 H 0.70283 0.53662 0.09711 0.0
H1888 H 0.71 0.49618 0.10751 0.0
H1889 H 0.7121 0.49669 0.98533 0.0
H1890 H 0.70509 0.47418 1.03598 0.0
H1891 H 0.67014 0.47616 0.90072 0.0
H1892 H 0.67559 0.47894 0.7395 0.0
H1893 H 0.70266 0.50898 0.8304 0.0
C1894 C 0.68984 0.5028 0.19617 0.0
C1895 C 0.68152 0.4962 0.24811 0.0
C1896 C 0.67357 0.48653 0.20005 0.0
C1897 C 0.67365 0.48381 0.10433 0.0
C1898 C 0.68175 0.49082 0.05499 0.0
C1899 C 0.68977 0.49997 0.09865 0.0
C1900 C 0.69739 0.50648 1.02656 0.0
C1901 C 0.69954 0.53194 1.03004 0.0
C1902 C 0.7067 0.49256 0.03962 0.0
C1903 C 0.69229 0.49996 0.93679 0.0
C1904 C 0.6833 0.49078 0.95557 0.0
C1905 C 0.67719 0.4833 0.88523 0.0
C1906 C 0.68034 0.48503 0.7934 0.0
C1907 C 0.68952 0.49429 0.7712 0.0
C1908 C 0.69557 0.5019 0.84455 0.0
H1909 H 0.06939 0.24765 0.8113 0.0
H1910 H 0.03854 0.26296 0.81696 0.0
H1911 H 0.03859 0.2615 0.98458 0.0
H1912 H 0.06925 0.20925 1.0062 0.0
H1913 H 0.08058 0.21889 0.0542 0.0
H1914 H 0.07846 0.22104 0.93229 0.0
H1915 H 0.08201 0.26389 0.93867 0.0
H1916 H 0.08418 0.26186 0.06052 0.0
H1917 H 0.07528 0.28147 1.01743 0.0
H1918 H 0.04131 0.25719 0.15183 0.0
H1919 H 0.0472 0.25313 0.31097 0.0
H1920 H 0.07639 0.2422 0.20952 0.0
C1921 C 0.06269 0.25086 0.84802 0.0
C1922 C 0.05394 0.25537 0.79919 0.0
C1923 C 0.04536 0.25941 0.85102 0.0
C1924 C 0.04527 0.25859 0.94717 0.0
C1925 C 0.05386 0.25392 0.99314 0.0
C1926 C 0.06247 0.25037 0.94606 0.0
C1927 C 0.07064 0.24606 1.01503 0.0
C1928 C 0.07499 0.2224 1.00108 0.0
C1929 C 0.0785 0.26441 1.00744 0.0
C1930 C 0.06522 0.24767 0.10692 0.0
C1931 C 0.05551 0.252 0.09183 0.0
C1932 C 0.04891 0.25378 0.16451 0.0
C1933 C 0.05228 0.25118 0.2551 0.0
C1934 C 0.06218 0.24699 0.2736 0.0
C1935 C 0.06875 0.24538 0.19794 0.0
H1936 H 0.79761 0.26906 0.09916 0.0
H1937 H 0.8181 0.21761 1.01258 0.0
H1938 H 0.82252 0.2109 0.17465 0.0
H1939 H 0.8124 0.29166 0.28468 0.0
H1940 H 0.80234 0.29686 0.36116 0.0
H1941 H 0.80053 0.2975 0.23856 0.0
H1942 H 0.78696 0.26755 0.2543 0.0
H1943 H 0.78879 0.26669 0.37692 0.0
H1944 H 0.78956 0.24108 0.31022 0.0
H1945 H 0.82487 0.20945 0.34426 0.0
H1946 H 0.82596 0.21478 0.51101 0.0
H1947 H 0.80415 0.26755 0.49822 0.0
C1948 C 0.80302 0.25636 0.11448 0.0
C1949 C 0.8075 0.24379 0.04212 0.0
C1950 C 0.81457 0.22746 0.06574 0.0
C1951 C 0.8171 0.22347 0.15805 0.0
C1952 C 0.81253 0.23593 0.22739 0.0
C1953 C 0.80568 0.25217 0.20718 0.0
C1954 C 0.80213 0.26352 0.29594 0.0
C1955 C 0.80449 0.28889 0.29501 0.0
C1956 C 0.79121 0.25947 0.31016 0.0
C1957 C 0.80809 0.25115 0.369 0.0
C1958 C 0.81397 0.23523 0.32692 0.0
C1959 C 0.82029 0.22184 0.37766 0.0
C1960 C 0.82084 0.22503 0.47305 0.0
C1961 C 0.81512 0.24146 0.5192 0.0
C1962 C 0.80851 0.25455 0.46604 0.0
H1963 H 0.44588 0.97993 0.4619 0.0
H1964 H 0.41841 0.01575 0.47207 0.0
H1965 H 0.41875 0.02043 0.30481 0.0
H1966 H 0.45648 0.01358 0.26978 0.0
H1967 H 0.46225 0.98957 0.21668 0.0
H1968 H 0.46038 0.99011 0.33932 0.0
H1969 H 0.45116 0.95213 0.32914 0.0
H1970 H 0.45292 0.95158 0.20641 0.0
H1971 H 0.44084 0.94967 0.25366 0.0
H1972 H 0.42114 0.01965 0.13649 0.0
H1973 H 0.42615 0.01516 0.9747 0.0
H1974 H 0.45212 0.97988 0.06293 0.0
C1975 C 0.44008 0.98916 0.42883 0.0
C1976 C 0.43212 0.99759 0.48108 0.0
C1977 C 0.42458 0.00913 0.43439 0.0
C1978 C 0.42468 0.01189 0.33888 0.0
C1979 C 0.4324 0.00299 0.28898 0.0
C1980 C 0.44002 0.992 0.33171 0.0
C1981 C 0.44722 0.98357 0.25927 0.0
C1982 C 0.45717 0.99488 0.27203 0.0
C1983 C 0.44809 0.9577 0.26234 0.0
C1984 C 0.44235 0.99138 0.17025 0.0
C1985 C 0.43381 0.00256 0.18978 0.0
C1986 C 0.42787 0.01106 0.12026 0.0
C1987 C 0.43075 0.00837 1.02824 0.0
C1988 C 0.43952 0.99723 1.00543 0.0
C1989 C 0.44537 0.98852 0.07788 0.0
H1990 H 0.79743 0.98776 0.85341 0.0
H1991 H 0.82863 0.97701 0.85165 0.0
H1992 H 0.82897 0.97971 1.01948 0.0
H1993 H 0.79667 0.02689 0.0466 0.0
H1994 H 0.78578 0.01525 0.0966 0.0
H1995 H 0.78777 0.01334 0.97437 0.0
H1996 H 0.7857 0.96998 0.9816 0.0
H1997 H 0.78366 0.97174 0.10376 0.0
H1998 H 0.79313 0.95379 0.05926 0.0
H1999 H 0.8264 0.98479 0.18772 0.0
H2000 H 0.82063 0.98796 0.34794 0.0
H2001 H 0.79095 0.9925 0.25047 0.0
C2002 C 0.80431 0.98601 0.88852 0.0
C2003 C 0.81301 0.98231 0.83792 0.0
C2004 C 0.82184 0.97987 0.88741 0.0
C2005 C 0.82214 0.98146 0.98347 0.0
C2006 C 0.81353 0.98516 1.03118 0.0
C2007 C 0.80474 0.98707 0.98601 0.0
C2008 C 0.79655 0.98994 0.05596 0.0
C2009 C 0.79139 0.01271 0.04256 0.0
C2010 C 0.78933 0.97018 0.04976 0.0
C2011 C 0.80217 0.98945 0.14658 0.0
C2012 C 0.81198 0.98697 0.13002 0.0
C2013 C 0.81872 0.98656 0.20164 0.0
C2014 C 0.81538 0.98844 0.29272 0.0
C2015 C 0.80535 0.99037 0.31241 0.0
C2016 C 0.79867 0.99096 0.23786 0.0
H2017 H 0.423 0.26319 0.91158 0.0
H2018 H 0.45125 0.24366 0.80647 0.0
H2019 H 0.45708 0.23809 0.96492 0.0
H2020 H 0.43225 0.29413 0.11196 0.0
H2021 H 0.42256 0.28542 0.18752 0.0
H2022 H 0.42042 0.28776 0.06572 0.0
H2023 H 0.41448 0.24634 0.062 0.0
H2024 H 0.41668 0.24383 0.18368 0.0
H2025 H 0.42228 0.22428 0.10475 0.0
H2026 H 0.45988 0.23349 0.13234 0.0
H2027 H 0.46026 0.2333 0.30036 0.0
H2028 H 0.43045 0.25711 0.30943 0.0
C2029 C 0.43043 0.25782 0.92217 0.0
C2030 C 0.4367 0.25401 0.84547 0.0
C2031 C 0.44634 0.24701 0.8629 0.0
C2032 C 0.44969 0.24362 0.95318 0.0
C2033 C 0.44337 0.24741 1.02681 0.0
C2034 C 0.43396 0.25462 1.01292 0.0
C2035 C 0.42884 0.258 0.10574 0.0
C2036 C 0.42584 0.2828 0.11847 0.0
C2037 C 0.42004 0.24217 0.11454 0.0
C2038 C 0.43683 0.25143 0.17374 0.0
C2039 C 0.44509 0.24523 0.12549 0.0
C2040 C 0.45347 0.23842 0.17058 0.0
C2041 C 0.45359 0.23835 0.26688 0.0
C2042 C 0.44541 0.24515 0.31977 0.0
C2043 C 0.43682 0.25157 0.27194 0.0
H2044 H 0.19808 0.73411 0.97783 0.0
H2045 H 0.17113 0.76551 0.06464 0.0
H2046 H 0.16598 0.76827 0.90247 0.0
H2047 H 0.20145 0.76726 0.76866 0.0
H2048 H 0.20611 0.74406 0.70153 0.0
H2049 H 0.20789 0.74456 0.82424 0.0
H2050 H 0.19975 0.70534 0.83829 0.0
H2051 H 0.19801 0.70465 0.7156 0.0
H2052 H 0.18777 0.70109 0.79153 0.0
H2053 H 0.16358 0.76758 0.73327 0.0
H2054 H 0.16346 0.76195 0.56637 0.0
H2055 H 0.19198 0.73097 0.57938 0.0
C2056 C 0.19109 0.74158 0.96253 0.0
C2057 C 0.185 0.74967 1.03466 0.0
C2058 C 0.17592 0.75922 1.01136 0.0
C2059 C 0.17295 0.76092 0.91912 0.0
C2060 C 0.17913 0.75302 0.84991 0.0
C2061 C 0.188 0.74343 0.87005 0.0
C2062 C 0.1931 0.73589 0.78155 0.0
C2063 C 0.20271 0.74871 0.76823 0.0
C2064 C 0.19476 0.71022 0.78177 0.0
C2065 C 0.18568 0.74267 0.70861 0.0
C2066 C 0.17772 0.7526 0.75057 0.0
C2067 C 0.16978 0.75988 0.6999 0.0
C2068 C 0.1698 0.75658 0.60454 0.0
C2069 C 0.17771 0.74613 0.55864 0.0
C2070 C 0.18588 0.73935 0.61167 0.0
H2071 H 0.5541 0.02637 0.58587 0.0
H2072 H 0.57291 0.96748 0.57539 0.0
H2073 H 0.57206 0.96395 0.74216 0.0
H2074 H 0.56368 0.04938 0.79914 0.0
H2075 H 0.55212 0.05822 0.84504 0.0
H2076 H 0.55391 0.05674 0.72243 0.0
H2077 H 0.53912 0.03011 0.70785 0.0
H2078 H 0.53726 0.03155 0.83037 0.0
H2079 H 0.53871 0.00453 0.77483 0.0
H2080 H 0.57006 0.96657 0.90986 0.0
H2081 H 0.56595 0.97422 0.07168 0.0
H2082 H 0.5479 0.03049 0.98677 0.0
C2083 C 0.55797 0.0127 0.61879 0.0
C2084 C 0.56367 0.99734 0.56572 0.0
C2085 C 0.56858 0.97969 0.61276 0.0
C2086 C 0.56815 0.97744 0.70839 0.0
C2087 C 0.56268 0.99281 0.75866 0.0
C2088 C 0.55757 0.01001 0.71626 0.0
C2089 C 0.5522 0.02386 0.78938 0.0
C2090 C 0.55569 0.04852 0.78894 0.0
C2091 C 0.54116 0.02243 0.77473 0.0
C2092 C 0.55522 0.01182 0.87824 0.0
C2093 C 0.5613 0.994 0.8579 0.0
C2094 C 0.56525 0.98042 0.92673 0.0
C2095 C 0.56289 0.98494 1.01891 0.0
C2096 C 0.55659 0.00289 0.04294 0.0
C2097 C 0.55271 0.01656 0.97103 0.0
H2098 H 0.20191 0.98646 0.82679 0.0
H2099 H 0.17452 0.01239 0.72476 0.0
H2100 H 0.16909 0.01918 0.88391 0.0
H2101 H 0.19154 0.95743 1.02631 0.0
H2102 H 0.20154 0.96375 0.10188 0.0
H2103 H 0.20357 0.96126 0.97988 0.0
H2104 H 0.21118 0.00119 0.97802 0.0
H2105 H 0.20911 0.00384 0.09994 0.0
H2106 H 0.20433 0.02475 1.02227 0.0
H2107 H 0.1666 0.02421 0.05019 0.0
H2108 H 0.1662 0.02426 0.21765 0.0
H2109 H 0.19481 0.9934 0.22584 0.0
C2110 C 0.19476 0.99353 0.83826 0.0
C2111 C 0.18862 -0.00107 0.76237 0.0
C2112 C 0.17933 0.00804 0.78073 0.0
C2113 C 0.17621 0.01206 0.8713 0.0
C2114 C 0.18239 0.00672 0.94412 0.0
C2115 C 0.19144 0.99741 0.92937 0.0
C2116 C 0.19641 0.99265 1.02178 0.0
C2117 C 0.19838 0.96726 1.03312 0.0
C2118 C 0.20582 0.00643 1.03102 0.0
C2119 C 0.18873 0.00079 0.09046 0.0
C2120 C 0.18079 0.00901 0.04275 0.0
C2121 C 0.17274 0.01768 0.08808 0.0
C2122 C 0.17262 0.01761 0.18418 0.0
C2123 C 0.18043 0.00877 0.23674 0.0
C2124 C 0.18872 0.00042 0.18866 0.0
H2125 H 0.54578 0.72318 0.79844 0.0
H2126 H 0.56279 0.7814 0.71519 0.0
H2127 H 0.56677 0.78905 0.87734 0.0
H2128 H 0.53615 0.74726 1.01153 0.0
H2129 H 0.53709 0.72154 0.07704 0.0
H2130 H 0.53529 0.7203 0.95441 0.0
H2131 H 0.55066 0.69557 0.93714 0.0
H2132 H 0.55247 0.69661 0.05974 0.0
H2133 H 0.56203 0.70549 0.98316 0.0
H2134 H 0.5687 0.79147 0.0458 0.0
H2135 H 0.56973 0.7873 0.21239 0.0
H2136 H 0.55209 0.72652 0.19912 0.0
C2137 C 0.55033 0.73756 0.81462 0.0
C2138 C 0.55396 0.75177 0.74306 0.0
C2139 C 0.55994 0.77024 0.76765 0.0
C2140 C 0.56221 0.77478 0.86004 0.0
C2141 C 0.55851 0.76065 0.92854 0.0
C2142 C 0.55277 0.74227 0.90758 0.0
C2143 C 0.55004 0.7296 0.996 0.0
C2144 C 0.53899 0.72968 1.01058 0.0
C2145 C 0.55404 0.70538 0.99387 0.0
C2146 C 0.55515 0.7438 0.06961 0.0
C2147 C 0.5599 0.76168 1.02791 0.0
C2148 C 0.56507 0.77744 0.07892 0.0
C2149 C 0.56561 0.77483 0.17442 0.0
C2150 C 0.5611 0.75646 0.22062 0.0
C2151 C 0.55565 0.74077 0.1669 0.0
H2152 H 0.79574 0.77457 0.54153 0.0
H2153 H 0.81252 0.71612 0.45664 0.0
H2154 H 0.81633 0.70796 0.61853 0.0
H2155 H 0.81195 0.79142 0.7278 0.0
H2156 H 0.80239 0.80033 0.8044 0.0
H2157 H 0.80064 0.8017 0.68179 0.0
H2158 H 0.78516 0.77727 0.69726 0.0
H2159 H 0.78689 0.77572 0.81989 0.0
H2160 H 0.78587 0.75017 0.75322 0.0
H2161 H 0.81814 0.70504 0.78663 0.0
H2162 H 0.81918 0.70888 0.95344 0.0
H2163 H 0.8019 0.77021 0.94218 0.0
C2164 C 0.80021 0.76004 0.55731 0.0
C2165 C 0.80382 0.74592 0.48537 0.0
C2166 C 0.80969 0.72723 0.50941 0.0
C2167 C 0.81186 0.72239 0.60166 0.0
C2168 C 0.80818 0.73643 0.67055 0.0
C2169 C 0.80255 0.75502 0.65016 0.0
C2170 C 0.79984 0.76755 0.73902 0.0
C2171 C 0.80395 0.79169 0.73818 0.0
C2172 C 0.78878 0.76769 0.75315 0.0
C2173 C 0.80485 0.75306 0.81211 0.0
C2174 C 0.80951 0.73512 0.76984 0.0
C2175 C 0.81458 0.71911 0.82025 0.0
C2176 C 0.81513 0.72153 0.91581 0.0
C2177 C 0.81073 0.73996 0.96253 0.0
C2178 C 0.80537 0.7559 0.90945 0.0
H2179 H 0.44341 0.50428 0.94628 0.0
H2180 H 0.41522 0.47138 0.93957 0.0
H2181 H 0.41572 0.47057 0.77178 0.0
H2182 H 0.43953 0.53904 0.74466 0.0
H2183 H 0.45167 0.53633 0.69956 0.0
H2184 H 0.44956 0.53405 0.82149 0.0
H2185 H 0.45794 0.49533 0.82184 0.0
H2186 H 0.45999 0.49691 0.69981 0.0
H2187 H 0.45358 0.47311 0.74773 0.0
H2188 H 0.4183 0.475 0.60413 0.0
H2189 H 0.42381 0.48143 0.44494 0.0
H2190 H 0.45072 0.50987 0.54751 0.0
C2191 C 0.43744 0.49658 0.90942 0.0
C2192 C 0.42924 0.48786 0.95796 0.0
C2193 C 0.42157 0.47825 0.9057 0.0
C2194 C 0.42176 0.4777 0.80946 0.0
C2195 C 0.42971 0.48673 0.76366 0.0
C2196 C 0.43751 0.49577 0.81118 0.0
C2197 C 0.44508 0.50436 0.7422 0.0
C2198 C 0.44655 0.52997 0.75262 0.0
C2199 C 0.45472 0.49165 0.75355 0.0
C2200 C 0.44028 0.49867 0.64991 0.0
C2201 C 0.43136 0.48873 0.66474 0.0
C2202 C 0.42532 0.48261 0.59166 0.0
C2203 C 0.42849 0.48645 0.50098 0.0
C2204 C 0.43769 0.49613 0.48267 0.0
C2205 C 0.44366 0.50232 0.5588 0.0
H2206 H 0.79917 0.49333 0.33846 0.0
H2207 H 0.82933 0.47184 0.33408 0.0
H2208 H 0.82993 0.47377 0.5019 0.0
H2209 H 0.80098 0.53147 0.53281 0.0
H2210 H 0.78952 0.52353 0.58328 0.0
H2211 H 0.79127 0.52127 0.46085 0.0
H2212 H 0.78652 0.47903 0.46663 0.0
H2213 H 0.78468 0.48119 0.58896 0.0
H2214 H 0.7929 0.46031 0.54326 0.0
H2215 H 0.82786 0.47959 0.67073 0.0
H2216 H 0.82235 0.48417 0.83153 0.0
H2217 H 0.79326 0.49868 0.73514 0.0
C2218 C 0.80587 0.489 0.373 0.0
C2219 C 0.81423 0.48266 0.32168 0.0
C2220 C 0.82281 0.47687 0.3704 0.0
C2221 C 0.82327 0.47798 0.46646 0.0
C2222 C 0.81503 0.48449 0.51487 0.0
C2223 C 0.80642 0.48949 0.4704 0.0
C2224 C 0.79855 0.49494 0.54087 0.0
C2225 C 0.79486 0.51925 0.5287 0.0
C2226 C 0.79017 0.47785 0.53454 0.0
C2227 C 0.80414 0.49233 0.63087 0.0
C2228 C 0.81368 0.48664 0.61379 0.0
C2229 C 0.82037 0.4839 0.68508 0.0
C2230 C 0.81721 0.48668 0.77641 0.0
C2231 C 0.80741 0.49179 0.79629 0.0
C2232 C 0.80081 0.49471 0.72215 0.0
H2233 H 0.42602 0.75773 0.7442 0.0
H2234 H 0.45414 0.72455 0.73713 0.0
H2235 H 0.45374 0.72396 0.56946 0.0
H2236 H 0.41601 0.72658 0.54281 0.0
H2237 H 0.40952 0.75063 0.49833 0.0
H2238 H 0.41163 0.74811 0.62016 0.0
H2239 H 0.41983 0.7874 0.62066 0.0
H2240 H 0.41782 0.78995 0.49872 0.0
H2241 H 0.42991 0.79272 0.54457 0.0
H2242 H 0.45129 0.72861 0.40261 0.0
H2243 H 0.44588 0.73523 0.2434 0.0
H2244 H 0.41901 0.764 0.34597 0.0
C2245 C 0.43199 0.75002 0.70719 0.0
C2246 C 0.44015 0.74122 0.75538 0.0
C2247 C 0.44782 0.73154 0.70328 0.0
C2248 C 0.4477 0.7311 0.60718 0.0
C2249 C 0.43979 0.74028 0.56163 0.0
C2250 C 0.43197 0.7493 0.60913 0.0
C2251 C 0.42444 0.75797 0.54042 0.0
C2252 C 0.41483 0.74505 0.55108 0.0
C2253 C 0.42291 0.78353 0.5518 0.0
C2254 C 0.42934 0.75253 0.44826 0.0
C2255 C 0.43823 0.74247 0.46298 0.0
C2256 C 0.4443 0.73635 0.39008 0.0
C2257 C 0.4412 0.74033 0.29951 0.0
C2258 C 0.43206 0.75021 0.28141 0.0
C2259 C 0.42605 0.75638 0.35731 0.0
H2260 H 0.17226 0.22953 0.15531 0.0
H2261 H 0.19891 0.25928 0.05222 0.0
H2262 H 0.20417 0.26679 0.21143 0.0
H2263 H 0.16875 0.26715 0.34975 0.0
H2264 H 0.16454 0.24553 0.42734 0.0
H2265 H 0.1626 0.24258 0.30542 0.0
H2266 H 0.17131 0.2039 0.30732 0.0
H2267 H 0.17321 0.20666 0.42934 0.0
H2268 H 0.1834 0.20192 0.35391 0.0
H2269 H 0.20644 0.27228 0.37826 0.0
H2270 H 0.20676 0.2721 0.54602 0.0
H2271 H 0.17904 0.23707 0.55275 0.0
C2272 C 0.17921 0.23758 0.16657 0.0
C2273 C 0.1852 0.24384 0.09073 0.0
C2274 C 0.19425 0.2542 0.10849 0.0
C2275 C 0.19726 0.25866 0.19897 0.0
C2276 C 0.19121 0.25247 0.27188 0.0
C2277 C 0.18243 0.24186 0.25732 0.0
C2278 C 0.17756 0.23632 0.34939 0.0
C2279 C 0.16778 0.24863 0.35848 0.0
C2280 C 0.1763 0.21067 0.36064 0.0
C2281 C 0.18496 0.24561 0.41785 0.0
C2282 C 0.19269 0.25501 0.37041 0.0
C2283 C 0.20047 0.26483 0.41594 0.0
C2284 C 0.20054 0.26463 0.51203 0.0
C2285 C 0.19296 0.25453 0.56395 0.0
C2286 C 0.18493 0.2451 0.51579 0.0
H2287 H 0.56893 0.51371 0.54057 0.0
H2288 H 0.5434 0.47061 0.54553 0.0
H2289 H 0.54253 0.4719 0.37759 0.0
H2290 H 0.56191 0.54833 0.34664 0.0
H2291 H 0.57385 0.54942 0.296 0.0
H2292 H 0.57252 0.546 0.41845 0.0
H2293 H 0.58287 0.50955 0.41248 0.0
H2294 H 0.58431 0.51298 0.29018 0.0
H2295 H 0.57942 0.48704 0.33562 0.0
H2296 H 0.54365 0.47903 0.2084 0.0
H2297 H 0.54831 0.4872 0.04755 0.0
H2298 H 0.57385 0.52273 0.14425 0.0
C2299 C 0.5632 0.5045 0.50614 0.0
C2300 C 0.55618 0.49226 0.5576 0.0
C2301 C 0.54886 0.48026 0.50903 0.0
C2302 C 0.54825 0.48092 0.41295 0.0
C2303 C 0.55512 0.49331 0.36442 0.0
C2304 C 0.56259 0.50452 0.40879 0.0
C2305 C 0.56928 0.51557 0.33835 0.0
C2306 C 0.5694 0.54136 0.35061 0.0
C2307 C 0.57958 0.50569 0.34454 0.0
C2308 C 0.56435 0.50887 0.24841 0.0
C2309 C 0.55609 0.49635 0.26547 0.0
C2310 C 0.55015 0.4887 0.19411 0.0
C2311 C 0.5528 0.49356 0.10275 0.0
C2312 C 0.5614 0.50563 0.083 0.0
C2313 C 0.56722 0.51344 0.15719 0.0
H2314 H 0.20029 0.51422 0.3413 0.0
H2315 H 0.17361 0.48151 0.25518 0.0
H2316 H 0.16854 0.47823 0.41752 0.0
H2317 H 0.20403 0.48101 0.54957 0.0
H2318 H 0.20848 0.50438 0.61692 0.0
H2319 H 0.21023 0.50411 0.49413 0.0
H2320 H 0.20172 0.5429 0.48114 0.0
H2321 H 0.2 0.54336 0.60391 0.0
H2322 H 0.18971 0.54645 0.52853 0.0
H2323 H 0.16618 0.47854 0.58655 0.0
H2324 H 0.16602 0.48407 0.7535 0.0
H2325 H 0.19422 0.51667 0.7397 0.0
C2326 C 0.19338 0.50636 0.3568 0.0
C2327 C 0.18734 0.49803 0.28492 0.0
C2328 C 0.17836 0.48797 0.30837 0.0
C2329 C 0.17544 0.48597 0.40067 0.0
C2330 C 0.18156 0.49411 0.46966 0.0
C2331 C 0.19033 0.50422 0.44931 0.0
C2332 C 0.19538 0.51194 0.53763 0.0
C2333 C 0.20511 0.49962 0.55028 0.0
C2334 C 0.19678 0.53769 0.53779 0.0
C2335 C 0.18804 0.50468 0.61068 0.0
C2336 C 0.18017 0.49433 0.56896 0.0
C2337 C 0.1723 0.48656 0.61978 0.0
C2338 C 0.1723 0.48981 0.71511 0.0
C2339 C 0.18011 0.5007 0.76069 0.0
C2340 C 0.18821 0.50796 0.70755 0.0
H2341 H 0.54766 0.23316 0.36074 0.0
H2342 H 0.57209 0.27424 0.27367 0.0
H2343 H 0.57674 0.27985 0.43578 0.0
H2344 H 0.5417 0.26521 0.56765 0.0
H2345 H 0.5388 0.24077 0.63614 0.0
H2346 H 0.5371 0.24001 0.51335 0.0
H2347 H 0.54807 0.20465 0.50199 0.0
H2348 H 0.54972 0.20517 0.62479 0.0
H2349 H 0.56014 0.20553 0.54965 0.0
H2350 H 0.57889 0.2813 0.6046 0.0
H2351 H 0.57937 0.27624 0.77178 0.0
H2352 H 0.55372 0.23375 0.75926 0.0
C2353 C 0.55399 0.24333 0.37602 0.0
C2354 C 0.55949 0.25338 0.30387 0.0
C2355 C 0.56774 0.26643 0.32703 0.0
C2356 C 0.57042 0.26978 0.41921 0.0
C2357 C 0.56481 0.25994 0.48846 0.0
C2358 C 0.55681 0.2468 0.46848 0.0
C2359 C 0.55228 0.23767 0.55715 0.0
C2360 C 0.54185 0.24644 0.56926 0.0
C2361 C 0.55257 0.21171 0.55846 0.0
C2362 C 0.55902 0.24767 0.62988 0.0
C2363 C 0.56613 0.26058 0.58773 0.0
C2364 C 0.57336 0.27126 0.6382 0.0
C2365 C 0.57355 0.26828 0.73362 0.0
C2366 C 0.56657 0.25474 0.77953 0.0
C2367 C 0.55906 0.24455 0.7268 0.0
H2368 H 0.32325 0.41667 0.50634 0.0
H2369 H 0.29209 0.4273 0.52494 0.0
H2370 H 0.28921 0.38983 0.45955 0.0
H2371 H 0.32306 0.38476 0.29297 0.0
H2372 H 0.33229 0.36501 0.32801 0.0
H2373 H 0.3322 0.39323 0.37453 0.0
H2374 H 0.33174 0.37698 0.53968 0.0
H2375 H 0.33187 0.34872 0.49362 0.0
H2376 H 0.32231 0.35728 0.57088 0.0
H2377 H 0.28931 0.35221 0.38997 0.0
H2378 H 0.29246 0.31415 0.33019 0.0
H2379 H 0.3235 0.32512 0.36122 0.0
C2380 C 0.31585 0.41103 0.49661 0.0
C2381 C 0.30791 0.42498 0.52151 0.0
C2382 C 0.29831 0.41693 0.50786 0.0
C2383 C 0.29657 0.39566 0.47 0.0
C2384 C 0.30448 0.38231 0.44658 0.0
C2385 C 0.31393 0.3894 0.46006 0.0
C2386 C 0.32101 0.37094 0.43142 0.0
C2387 C 0.32753 0.37897 0.352 0.0
C2388 C 0.3271 0.36301 0.51382 0.0
C2389 C 0.31401 0.35261 0.39983 0.0
C2390 C 0.30453 0.35979 0.40845 0.0
C2391 C 0.29671 0.34629 0.38308 0.0
C2392 C 0.29859 0.32466 0.34877 0.0
C2393 C 0.30823 0.31651 0.34084 0.0
C2394 C 0.31605 0.33079 0.36663 0.0
H2395 H 0.94331 0.83067 0.51748 0.0
H2396 H 0.91243 0.8169 0.49392 0.0
H2397 H 0.90997 0.85434 0.42441 0.0
H2398 H 0.94104 0.89057 0.57211 0.0
H2399 H 0.95156 0.89854 0.5057 0.0
H2400 H 0.95089 0.87087 0.55672 0.0
H2401 H 0.95374 0.85282 0.39668 0.0
H2402 H 0.95428 0.88043 0.34494 0.0
H2403 H 0.94572 0.8598 0.30314 0.0
H2404 H 0.9107 0.89267 0.35681 0.0
H2405 H 0.91447 0.93084 0.3002 0.0
H2406 H 0.94496 0.9204 0.36207 0.0
C2407 C 0.93601 0.83567 0.49897 0.0
C2408 C 0.92805 0.82081 0.51169 0.0
C2409 C 0.91864 0.82791 0.48507 0.0
C2410 C 0.91717 0.84915 0.44527 0.0
C2411 C 0.92517 0.86316 0.43198 0.0
C2412 C 0.9344 0.85685 0.45835 0.0
C2413 C 0.94173 0.87519 0.43504 0.0
C2414 C 0.94659 0.88433 0.52261 0.0
C2415 C 0.94931 0.86653 0.36583 0.0
C2416 C 0.93515 0.89278 0.39171 0.0
C2417 C 0.92563 0.88537 0.39085 0.0
C2418 C 0.91812 0.89865 0.35688 0.0
C2419 C 0.92035 0.92031 0.32476 0.0
C2420 C 0.93001 0.92853 0.32612 0.0
C2421 C 0.93754 0.9144 0.35868 0.0
H2422 H 0.32034 0.9169 0.98514 0.0
H2423 H 0.28932 0.92852 1.01187 0.0
H2424 H 0.28614 0.89075 0.94722 0.0
H2425 H 0.31967 0.88749 0.77311 0.0
H2426 H 0.329 0.8674 0.80232 0.0
H2427 H 0.32899 0.895 0.85444 0.0
H2428 H 0.32886 0.87687 1.01634 0.0
H2429 H 0.32896 0.84919 0.96478 0.0
H2430 H 0.31954 0.8567 0.04536 0.0
H2431 H 0.28621 0.85354 0.86928 0.0
H2432 H 0.28936 0.81697 0.79589 0.0
H2433 H 0.32042 0.82752 0.82526 0.0
C2434 C 0.31287 0.91143 0.97824 0.0
C2435 C 0.30507 0.92577 1.00357 0.0
C2436 C 0.29542 0.91788 0.99359 0.0
C2437 C 0.29354 0.89646 0.95654 0.0
C2438 C 0.30138 0.88297 0.93087 0.0
C2439 C 0.31086 0.88992 0.94246 0.0
C2440 C 0.31793 0.87197 0.90898 0.0
C2441 C 0.32427 0.88101 0.83002 0.0
C2442 C 0.32419 0.86316 0.98862 0.0
C2443 C 0.31092 0.85399 0.87529 0.0
C2444 C 0.30142 0.86089 0.88824 0.0
C2445 C 0.29361 0.84786 0.85953 0.0
C2446 C 0.2955 0.82713 0.81712 0.0
C2447 C 0.30516 0.81935 0.80426 0.0
C2448 C 0.31298 0.83296 0.83436 0.0
H2449 H 0.92497 0.41986 0.86986 0.0
H2450 H 0.95458 0.4394 0.93363 0.0
H2451 H 0.95765 0.40191 0.99962 0.0
H2452 H 0.92108 0.3838 0.0728 0.0
H2453 H 0.91431 0.36275 1.01027 0.0
H2454 H 0.91404 0.39181 0.97367 0.0
H2455 H 0.91983 0.37979 0.81138 0.0
H2456 H 0.92013 0.35072 0.84755 0.0
H2457 H 0.93085 0.36361 0.79954 0.0
H2458 H 0.95793 0.36248 0.0537 0.0
H2459 H 0.95552 0.32224 0.08894 0.0
H2460 H 0.92592 0.32656 0.98717 0.0
C2461 C 0.93203 0.41624 0.89881 0.0
C2462 C 0.93955 0.43252 0.89642 0.0
C2463 C 0.94875 0.42711 0.93388 0.0
C2464 C 0.95056 0.4059 0.97208 0.0
C2465 C 0.94311 0.39007 0.97207 0.0
C2466 C 0.93404 0.39481 0.9363 0.0
C2467 C 0.92756 0.37405 0.94085 0.0
C2468 C 0.91873 0.37837 1.00312 0.0
C2469 C 0.92441 0.36661 0.84407 0.0
C2470 C 0.93446 0.35704 0.98379 0.0
C2471 C 0.94335 0.3668 1.00196 0.0
C2472 C 0.95099 0.3546 0.04018 0.0
C2473 C 0.94954 0.3317 0.05996 0.0
C2474 C 0.94054 0.32109 0.04096 0.0
C2475 C 0.9329 0.33409 1.00275 0.0
H2476 H 0.69574 0.6594 0.79631 0.0
H2477 H 0.67671 0.68687 0.58645 0.0
H2478 H 0.67717 0.65093 0.50337 0.0
H2479 H 0.71031 0.62312 0.64034 0.0
H2480 H 0.71105 0.60013 0.72118 0.0
H2481 H 0.71013 0.62881 0.76207 0.0
H2482 H 0.69493 0.6181 0.85767 0.0
H2483 H 0.69585 0.58941 0.81743 0.0
H2484 H 0.68474 0.60498 0.80127 0.0
H2485 H 0.67838 0.61209 0.44772 0.0
H2486 H 0.68003 0.57093 0.42503 0.0
H2487 H 0.6982 0.56669 0.66723 0.0
C2488 C 0.69178 0.65781 0.7324 0.0
C2489 C 0.68615 0.67596 0.69833 0.0
C2490 C 0.68098 0.67318 0.61484 0.0
C2491 C 0.68125 0.65285 0.5664 0.0
C2492 C 0.6867 0.63521 0.60204 0.0
C2493 C 0.69186 0.63728 0.68314 0.0
C2494 C 0.69655 0.61486 0.70834 0.0
C2495 C 0.70767 0.61686 0.70795 0.0
C2496 C 0.69279 0.60634 0.80171 0.0
C2497 C 0.69302 0.59996 0.62984 0.0
C2498 C 0.68745 0.61227 0.56894 0.0
C2499 C 0.68286 0.60229 0.4939 0.0
C2500 C 0.68384 0.57897 0.48137 0.0
C2501 C 0.6894 0.56596 0.54308 0.0
C2502 C 0.69415 0.57654 0.61772 0.0
H2503 H 0.06941 0.078 0.77273 0.0
H2504 H 0.03876 0.07 0.83549 0.0
H2505 H 0.03579 0.1092 0.78573 0.0
H2506 H 0.07124 0.13697 0.84806 0.0
H2507 H 0.07964 0.1444 0.75784 0.0
H2508 H 0.07943 0.11601 0.80234 0.0
H2509 H 0.0767 0.10055 0.63781 0.0
H2510 H 0.07682 0.12888 0.59289 0.0
H2511 H 0.06657 0.11071 0.5714 0.0
H2512 H 0.0359 0.14826 0.71849 0.0
H2513 H 0.03928 0.18551 0.64994 0.0
H2514 H 0.06995 0.16896 0.63558 0.0
C2515 C 0.06208 0.08453 0.77712 0.0
C2516 C 0.05432 0.0708 0.80824 0.0
C2517 C 0.04485 0.08011 0.81253 0.0
C2518 C 0.04307 0.10238 0.78406 0.0
C2519 C 0.05085 0.11528 0.75228 0.0
C2520 C 0.06019 0.10682 0.74976 0.0
C2521 C 0.06725 0.12419 0.71173 0.0
C2522 C 0.07484 0.13078 0.78433 0.0
C2523 C 0.07212 0.11556 0.6232 0.0
C2524 C 0.06038 0.14362 0.69195 0.0
C2525 C 0.05096 0.13806 0.71556 0.0
C2526 C 0.04327 0.15287 0.70059 0.0
C2527 C 0.04526 0.17398 0.66108 0.0
C2528 C 0.05489 0.18025 0.63744 0.0
C2529 C 0.06253 0.16479 0.65352 0.0
H2530 H 0.67781 0.07416 0.09979 0.0
H2531 H 0.70848 0.06038 0.05896 0.0
H2532 H 0.71247 0.09863 0.11434 0.0
H2533 H 0.67877 0.13252 1.02473 0.0
H2534 H 0.66994 0.14191 0.1079 0.0
H2535 H 0.66951 0.11339 0.06497 0.0
H2536 H 0.67031 0.09824 0.23186 0.0
H2537 H 0.67082 0.12672 0.27523 0.0
H2538 H 0.68018 0.10679 0.30531 0.0
H2539 H 0.71321 0.13798 0.18081 0.0
H2540 H 0.71047 0.17673 0.23913 0.0
H2541 H 0.67935 0.16528 0.23071 0.0
C2542 C 0.68536 0.07921 0.10202 0.0
C2543 C 0.69282 0.06421 0.07497 0.0
C2544 C 0.70261 0.07156 0.07872 0.0
C2545 C 0.70497 0.09325 0.1106 0.0
C2546 C 0.69746 0.10751 0.13775 0.0
C2547 C 0.68785 0.10091 0.13264 0.0
C2548 C 0.68115 0.11968 0.16427 0.0
C2549 C 0.67445 0.12733 0.08578 0.0
C2550 C 0.67527 0.11242 0.24922 0.0
C2551 C 0.6885 0.13777 0.18831 0.0
C2552 C 0.69788 0.13037 0.17341 0.0
C2553 C 0.7059 0.14402 0.19226 0.0
C2554 C 0.70427 0.16596 0.22584 0.0
C2555 C 0.69471 0.17409 0.23921 0.0
C2556 C 0.68675 0.15965 0.22065 0.0
H2557 H 0.066 0.66682 0.08074 0.0
H2558 H 0.03509 0.67655 0.03878 0.0
H2559 H 0.03204 0.63756 0.09208 0.0
H2560 H 0.0667 0.60832 1.00457 0.0
H2561 H 0.07567 0.60029 0.08844 0.0
H2562 H 0.07538 0.62879 0.04536 0.0
H2563 H 0.07399 0.64392 0.212 0.0
H2564 H 0.0742 0.61546 0.25556 0.0
H2565 H 0.06429 0.634 0.28484 0.0
H2566 H 0.03232 0.59796 0.15792 0.0
H2567 H 0.03598 0.56002 0.21924 0.0
H2568 H 0.06677 0.57574 0.21329 0.0
C2569 C 0.05859 0.66073 0.08207 0.0
C2570 C 0.05078 0.67482 0.05542 0.0
C2571 C 0.0412 0.6661 0.05818 0.0
C2572 C 0.03939 0.64398 0.08881 0.0
C2573 C 0.04724 0.63067 0.1157 0.0
C2574 C 0.05666 0.63864 0.11156 0.0
C2575 C 0.06382 0.62088 0.14385 0.0
C2576 C 0.0708 0.61417 0.0659 0.0
C2577 C 0.0694 0.62906 0.22913 0.0
C2578 C 0.05696 0.60172 0.16756 0.0
C2579 C 0.04742 0.60775 0.1514 0.0
C2580 C 0.03977 0.59302 0.17022 0.0
C2581 C 0.04192 0.57152 0.20551 0.0
C2582 C 0.05166 0.5648 0.22104 0.0
C2583 C 0.05925 0.58024 0.20178 0.0
H2584 H 0.79915 0.41407 0.98514 0.0
H2585 H 0.83009 0.42827 0.98882 0.0
H2586 H 0.83345 0.39003 0.93086 0.0
H2587 H 0.80091 0.35518 0.05497 0.0
H2588 H 0.79127 0.34597 0.98021 0.0
H2589 H 0.79125 0.37434 1.02505 0.0
H2590 H 0.79027 0.39003 0.85912 0.0
H2591 H 0.79039 0.36171 0.81376 0.0
H2592 H 0.79935 0.3819 0.77607 0.0
H2593 H 0.83361 0.35059 0.87279 0.0
H2594 H 0.83054 0.31166 0.82017 0.0
H2595 H 0.7995 0.32271 0.8483 0.0
C2596 C 0.80663 0.409 0.97481 0.0
C2597 C 0.81436 0.42418 0.99182 0.0
C2598 C 0.82404 0.41701 0.97613 0.0
C2599 C 0.82603 0.3953 0.94316 0.0
C2600 C 0.81827 0.3809 0.92554 0.0
C2601 C 0.80876 0.38735 0.9409 0.0
C2602 C 0.8018 0.36855 0.91465 0.0
C2603 C 0.79596 0.36054 0.99874 0.0
C2604 C 0.79505 0.376 0.83624 0.0
C2605 C 0.8089 0.35059 0.88251 0.0
C2606 C 0.81836 0.35812 0.88966 0.0
C2607 C 0.82624 0.3445 0.86653 0.0
C2608 C 0.82441 0.32241 0.83661 0.0
C2609 C 0.81478 0.31418 0.82938 0.0
C2610 C 0.80693 0.32862 0.85164 0.0
H2611 H 0.42569 0.91955 0.81363 0.0
H2612 H 0.4566 0.92808 0.7646 0.0
H2613 H 0.45948 0.88909 0.816 0.0
H2614 H 0.4276 0.8861 1.01567 0.0
H2615 H 0.4176 0.86767 0.98806 0.0
H2616 H 0.41778 0.89617 0.94491 0.0
H2617 H 0.41607 0.88126 0.7783 0.0
H2618 H 0.41578 0.85271 0.82101 0.0
H2619 H 0.42462 0.86072 0.73557 0.0
H2620 H 0.45928 0.85022 0.88251 0.0
H2621 H 0.45577 0.81228 0.94375 0.0
H2622 H 0.42494 0.82762 0.94311 0.0
C2623 C 0.43305 0.91314 0.81275 0.0
C2624 C 0.44091 0.927 0.78488 0.0
C2625 C 0.45043 0.91788 0.78491 0.0
C2626 C 0.45217 0.89573 0.81452 0.0
C2627 C 0.44431 0.8827 0.843 0.0
C2628 C 0.43491 0.89088 0.84098 0.0
C2629 C 0.42778 0.87313 0.87444 0.0
C2630 C 0.42237 0.88126 0.96091 0.0
C2631 C 0.42064 0.86657 0.79774 0.0
C2632 C 0.43465 0.85384 0.89652 0.0
C2633 C 0.44416 0.85985 0.87859 0.0
C2634 C 0.45185 0.84523 0.89606 0.0
C2635 C 0.44978 0.82374 0.93148 0.0
C2636 C 0.44008 0.81689 0.94822 0.0
C2637 C 0.43243 0.83226 0.93059 0.0
H2638 H 0.79631 0.8245 0.32095 0.0
H2639 H 0.82717 0.81356 0.27923 0.0
H2640 H 0.83061 0.85146 0.34107 0.0
H2641 H 0.7961 0.88479 0.26568 0.0
H2642 H 0.7874 0.89167 0.35396 0.0
H2643 H 0.78725 0.86412 0.30126 0.0
H2644 H 0.78875 0.84565 0.46194 0.0
H2645 H 0.78901 0.87314 0.51507 0.0
H2646 H 0.79873 0.85338 0.5356 0.0
H2647 H 0.83087 0.8898 0.40849 0.0
H2648 H 0.82798 0.92712 0.47762 0.0
H2649 H 0.79699 0.91365 0.48344 0.0
C2650 C 0.80377 0.8303 0.32338 0.0
C2651 C 0.81148 0.81617 0.29452 0.0
C2652 C 0.82116 0.82411 0.30074 0.0
C2653 C 0.82318 0.84561 0.3358 0.0
C2654 C 0.81547 0.85895 0.36529 0.0
C2655 C 0.80595 0.85171 0.3596 0.0
C2656 C 0.79908 0.86927 0.39951 0.0
C2657 C 0.79204 0.87798 0.32569 0.0
C2658 C 0.79357 0.85979 0.48299 0.0
C2659 C 0.80625 0.88746 0.42813 0.0
C2660 C 0.81565 0.88108 0.40724 0.0
C2661 C 0.82355 0.89501 0.42528 0.0
C2662 C 0.82183 0.9162 0.46461 0.0
C2663 C 0.81227 0.9233 0.4863 0.0
C2664 C 0.80438 0.90858 0.46866 0.0
H2665 H 0.42592 0.32771 0.48018 0.0
H2666 H 0.45715 0.31724 0.48093 0.0
H2667 H 0.45953 0.35428 0.40875 0.0
H2668 H 0.42463 0.35765 0.26298 0.0
H2669 H 0.41556 0.37748 0.30136 0.0
H2670 H 0.41608 0.34963 0.35098 0.0
H2671 H 0.41755 0.36711 0.5136 0.0
H2672 H 0.41698 0.395 0.46454 0.0
H2673 H 0.42707 0.38723 0.53663 0.0
H2674 H 0.45878 0.39171 0.33489 0.0
H2675 H 0.45503 0.42942 0.27463 0.0
H2676 H 0.42433 0.41777 0.32622 0.0
C2677 C 0.43325 0.33325 0.46499 0.0
C2678 C 0.44134 0.31951 0.48659 0.0
C2679 C 0.45082 0.32745 0.46608 0.0
C2680 C 0.45226 0.34845 0.4244 0.0
C2681 C 0.44418 0.36156 0.40409 0.0
C2682 C 0.43486 0.3545 0.42442 0.0
C2683 C 0.42752 0.37256 0.39824 0.0
C2684 C 0.42053 0.3638 0.32396 0.0
C2685 C 0.42195 0.38097 0.48333 0.0
C2686 C 0.43421 0.39075 0.36032 0.0
C2687 C 0.44377 0.38382 0.36352 0.0
C2688 C 0.45133 0.3974 0.33215 0.0
C2689 C 0.44909 0.41883 0.29764 0.0
C2690 C 0.43938 0.42671 0.29546 0.0
C2691 C 0.43184 0.41232 0.32691 0.0
H2692 H 0.17459 0.57756 0.08921 0.0
H2693 H 0.2057 0.56672 0.06977 0.0
H2694 H 0.20855 0.60546 0.12679 0.0
H2695 H 0.17507 0.63636 1.01471 0.0
H2696 H 0.16542 0.64464 0.09154 0.0
H2697 H 0.16588 0.61621 0.04752 0.0
H2698 H 0.16559 0.60076 0.21404 0.0
H2699 H 0.16525 0.62914 0.25861 0.0
H2700 H 0.17469 0.61003 0.29464 0.0
H2701 H 0.20801 0.64456 0.19503 0.0
H2702 H 0.20421 0.68272 0.25258 0.0
H2703 H 0.17342 0.66886 0.22169 0.0
C2704 C 0.18201 0.58338 0.09609 0.0
C2705 C 0.18993 0.56904 0.07493 0.0
C2706 C 0.19951 0.57739 0.08479 0.0
C2707 C 0.2012 0.59934 0.11774 0.0
C2708 C 0.19324 0.61286 0.13959 0.0
C2709 C 0.18383 0.60535 0.12777 0.0
C2710 C 0.17655 0.62339 0.15515 0.0
C2711 C 0.17037 0.63058 0.07228 0.0
C2712 C 0.17015 0.61534 0.23538 0.0
C2713 C 0.18335 0.64216 0.18504 0.0
C2714 C 0.19294 0.63565 0.17631 0.0
C2715 C 0.20053 0.6499 0.2015 0.0
C2716 C 0.19828 0.67153 0.23477 0.0
C2717 C 0.18851 0.67888 0.2418 0.0
C2718 C 0.18096 0.66383 0.21703 0.0
H2719 H 0.54927 0.08612 0.27544 0.0
H2720 H 0.57813 0.06676 0.18284 0.0
H2721 H 0.57995 0.10343 0.10645 0.0
H2722 H 0.54236 0.11708 0.07311 0.0
H2723 H 0.53615 0.13924 0.13461 0.0
H2724 H 0.53684 0.11128 0.18304 0.0
H2725 H 0.54467 0.12742 0.33102 0.0
H2726 H 0.54382 0.15545 0.28377 0.0
H2727 H 0.55538 0.14478 0.322 0.0
H2728 H 0.57883 0.14121 0.0382 0.0
H2729 H 0.57567 0.18089 0.99821 0.0
H2730 H 0.54767 0.17746 0.13457 0.0
C2731 C 0.55601 0.08968 0.23985 0.0
C2732 C 0.56354 0.0734 0.23527 0.0
C2733 C 0.57224 0.07882 0.18787 0.0
C2734 C 0.57333 0.09959 0.14343 0.0
C2735 C 0.5657 0.11494 0.14723 0.0
C2736 C 0.55727 0.11053 0.19541 0.0
C2737 C 0.55039 0.13058 0.19102 0.0
C2738 C 0.54087 0.12415 0.14255 0.0
C2739 C 0.54845 0.14012 0.28769 0.0
C2740 C 0.55632 0.14691 0.13317 0.0
C2741 C 0.56508 0.13727 0.10798 0.0
C2742 C 0.572 0.14896 0.05719 0.0
C2743 C 0.57012 0.17144 1.03446 0.0
C2744 C 0.5614 0.18208 0.06242 0.0
C2745 C 0.55428 0.16951 0.11044 0.0
H2746 H 0.17687 0.07886 0.60242 0.0
H2747 H 0.20761 0.0642 0.57422 0.0
H2748 H 0.21154 0.10212 0.63425 0.0
H2749 H 0.17848 0.13719 0.53149 0.0
H2750 H 0.16929 0.14661 0.61108 0.0
H2751 H 0.16894 0.1182 0.56687 0.0
H2752 H 0.16886 0.10261 0.73327 0.0
H2753 H 0.16927 0.13098 0.77793 0.0
H2754 H 0.17839 0.11078 0.81137 0.0
H2755 H 0.21213 0.1416 0.70208 0.0
H2756 H 0.20925 0.18028 0.76061 0.0
H2757 H 0.17816 0.16939 0.73913 0.0
C2758 C 0.18443 0.08359 0.60874 0.0
C2759 C 0.19193 0.06845 0.58363 0.0
C2760 C 0.20173 0.07547 0.5925 0.0
C2761 C 0.20404 0.09697 0.62698 0.0
C2762 C 0.19649 0.11141 0.65165 0.0
C2763 C 0.18688 0.10509 0.64202 0.0
C2764 C 0.18012 0.12396 0.67142 0.0
C2765 C 0.17384 0.13196 0.59038 0.0
C2766 C 0.17379 0.11664 0.75337 0.0
C2767 C 0.18742 0.14183 0.69941 0.0
C2768 C 0.19682 0.13424 0.68826 0.0
C2769 C 0.20478 0.14774 0.71072 0.0
C2770 C 0.20308 0.16967 0.74431 0.0
C2771 C 0.19349 0.17797 0.75431 0.0
C2772 C 0.18559 0.16368 0.73189 0.0
H2773 H 0.54531 0.57695 0.67543 0.0
H2774 H 0.5706 0.58029 0.85233 0.0
H2775 H 0.57336 0.6197 0.80637 0.0
H2776 H 0.55513 0.60802 0.49346 0.0
H2777 H 0.54431 0.62353 0.46412 0.0
H2778 H 0.54333 0.59624 0.51797 0.0
H2779 H 0.53296 0.61334 0.64924 0.0
H2780 H 0.53373 0.64062 0.59477 0.0
H2781 H 0.53751 0.63729 0.71252 0.0
H2782 H 0.57485 0.65596 0.72927 0.0
H2783 H 0.57369 0.69087 0.64041 0.0
H2784 H 0.54707 0.66661 0.5134 0.0
C2785 C 0.55119 0.58635 0.70669 0.0
C2786 C 0.55771 0.57573 0.76806 0.0
C2787 C 0.56551 0.58822 0.80564 0.0
C2788 C 0.56716 0.61057 0.77974 0.0
C2789 C 0.56091 0.62032 0.71628 0.0
C2790 C 0.55296 0.60894 0.68133 0.0
C2791 C 0.54771 0.62353 0.61109 0.0
C2792 C 0.54762 0.61214 0.51604 0.0
C2793 C 0.53736 0.62902 0.64388 0.0
C2794 C 0.5541 0.64451 0.61111 0.0
C2795 C 0.56168 0.64203 0.67217 0.0
C2796 C 0.56886 0.65833 0.68223 0.0
C2797 C 0.56816 0.67809 0.63045 0.0
C2798 C 0.56027 0.68166 0.5696 0.0
C2799 C 0.55318 0.66446 0.55935 0.0
H2800 H 0.30018 0.16877 0.20379 0.0
H2801 H 0.33121 0.18184 0.20493 0.0
H2802 H 0.33437 0.14181 0.17131 0.0
H2803 H 0.30168 0.11452 0.31581 0.0
H2804 H 0.29204 0.10192 0.24965 0.0
H2805 H 0.29206 0.13191 0.27069 0.0
H2806 H 0.29121 0.13941 0.09552 0.0
H2807 H 0.29118 0.10944 0.07398 0.0
H2808 H 0.30024 0.12712 1.02082 0.0
H2809 H 0.33435 0.10077 0.13574 0.0
H2810 H 0.33112 0.06044 0.10773 0.0
H2811 H 0.30016 0.0727 0.13577 0.0
C2812 C 0.30762 0.16319 0.19645 0.0
C2813 C 0.31544 0.17851 0.20695 0.0
C2814 C 0.32509 0.17048 0.19777 0.0
C2815 C 0.32698 0.14775 0.1783 0.0
C2816 C 0.31915 0.13308 0.1689 0.0
C2817 C 0.30966 0.14036 0.17822 0.0
C2818 C 0.30263 0.12075 0.1675 0.0
C2819 C 0.29676 0.11706 0.2562 0.0
C2820 C 0.29592 0.1244 0.08451 0.0
C2821 C 0.30967 0.10144 0.15056 0.0
C2822 C 0.31915 0.10904 0.15096 0.0
C2823 C 0.32695 0.09457 0.13551 0.0
C2824 C 0.32504 0.07167 0.11942 0.0
C2825 C 0.3154 0.06331 0.11972 0.0
C2826 C 0.30762 0.07849 0.13571 0.0
H2827 H 0.94777 0.17489 0.17862 0.0
H2828 H 0.92016 0.17913 1.03526 0.0
H2829 H 0.91842 0.13788 0.04555 0.0
H2830 H 0.95574 0.1217 0.0751 0.0
H2831 H 0.96119 0.11142 0.17954 0.0
H2832 H 0.96062 0.14135 0.15769 0.0
H2833 H 0.9517 0.14745 0.31251 0.0
H2834 H 0.95227 0.11758 0.33504 0.0
H2835 H 0.94072 0.13188 0.33601 0.0
H2836 H 0.91907 0.09701 0.07711 0.0
H2837 H 0.92194 0.05821 0.13166 0.0
H2838 H 0.94926 0.07907 0.25278 0.0
C2839 C 0.94139 0.16715 0.14884 0.0
C2840 C 0.9341 0.18038 0.10599 0.0
C2841 C 0.92585 0.1695 0.06846 0.0
C2842 C 0.9248 0.14602 0.07362 0.0
C2843 C 0.93208 0.13355 0.11622 0.0
C2844 C 0.94021 0.14363 0.15331 0.0
C2845 C 0.94676 0.1262 0.19834 0.0
C2846 C 0.95667 0.12511 0.14975 0.0
C2847 C 0.94793 0.13107 0.3016 0.0
C2848 C 0.94093 0.10479 0.18196 0.0
C2849 C 0.93252 0.10956 0.13389 0.0
C2850 C 0.92567 0.09302 0.11393 0.0
C2851 C 0.92736 0.07107 0.14522 0.0
C2852 C 0.93584 0.06576 0.19547 0.0
C2853 C 0.94281 0.08271 0.21295 0.0
H2854 H 0.6964 0.91749 0.93521 0.0
H2855 H 0.66657 0.92627 1.02631 0.0
H2856 H 0.66324 0.8863 0.99088 0.0
H2857 H 0.69119 0.88046 0.74738 0.0
H2858 H 0.70181 0.86315 0.76347 0.0
H2859 H 0.70199 0.89241 0.79751 0.0
H2860 H 0.70696 0.88088 0.96254 0.0
H2861 H 0.70685 0.85159 0.92896 0.0
H2862 H 0.6996 0.86091 1.02507 0.0
H2863 H 0.66281 0.84636 0.93751 0.0
H2864 H 0.66563 0.80765 0.88111 0.0
H2865 H 0.69594 0.82365 0.83165 0.0
C2866 C 0.68918 0.911 0.94836 0.0
C2867 C 0.68174 0.92508 0.98356 0.0
C2868 C 0.6724 0.91587 0.99962 0.0
C2869 C 0.67042 0.89318 0.97948 0.0
C2870 C 0.67787 0.87987 0.94391 0.0
C2871 C 0.68709 0.88832 0.9293 0.0
C2872 C 0.69378 0.87033 0.89026 0.0
C2873 C 0.6974 0.87699 0.79395 0.0
C2874 C 0.7023 0.86565 0.95565 0.0
C2875 C 0.68688 0.8504 0.88561 0.0
C2876 C 0.67771 0.85644 0.91582 0.0
C2877 C 0.66997 0.84137 0.91436 0.0
C2878 C 0.67163 0.81948 0.88166 0.0
C2879 C 0.68099 0.81272 0.85209 0.0
C2880 C 0.68873 0.82836 0.85457 0.0
H2881 H 0.04718 0.92163 0.89848 0.0
H2882 H 0.07831 0.93241 0.87951 0.0
H2883 H 0.08108 0.89188 0.90775 0.0
H2884 H 0.04768 0.87962 0.07736 0.0
H2885 H 0.03805 0.86282 1.02884 0.0
H2886 H 0.03842 0.89281 1.00838 0.0
H2887 H 0.03812 0.8857 0.83275 0.0
H2888 H 0.03773 0.85568 0.85267 0.0
H2889 H 0.04716 0.86758 0.7816 0.0
H2890 H 0.08059 0.85069 0.94274 0.0
H2891 H 0.0769 0.81064 0.97173 0.0
H2892 H 0.04604 0.82543 0.96078 0.0
C2893 C 0.05458 0.91545 0.90042 0.0
C2894 C 0.06254 0.93026 0.88699 0.0
C2895 C 0.07209 0.92145 0.88918 0.0
C2896 C 0.07375 0.89844 0.90553 0.0
C2897 C 0.06577 0.88433 0.91861 0.0
C2898 C 0.05636 0.89239 0.91535 0.0
C2899 C 0.0491 0.87338 0.92934 0.0
C2900 C 0.04295 0.87741 1.01615 0.0
C2901 C 0.04265 0.87041 0.844 0.0
C2902 C 0.0559 0.85343 0.94151 0.0
C2903 C 0.06548 0.86025 0.93581 0.0
C2904 C 0.07312 0.84512 0.94687 0.0
C2905 C 0.07094 0.82238 0.9637 0.0
C2906 C 0.06118 0.81482 0.96844 0.0
C2907 C 0.05357 0.83063 0.95698 0.0
H2908 H 0.31962 0.67204 0.68572 0.0
H2909 H 0.28847 0.6831 0.66826 0.0
H2910 H 0.28589 0.64257 0.64584 0.0
H2911 H 0.32053 0.62814 0.51079 0.0
H2912 H 0.32957 0.61142 0.5689 0.0
H2913 H 0.32925 0.64159 0.58528 0.0
H2914 H 0.32793 0.63593 0.76124 0.0
H2915 H 0.32828 0.60575 0.74542 0.0
H2916 H 0.31834 0.61853 0.80718 0.0
H2917 H 0.28627 0.60165 0.62854 0.0
H2918 H 0.28963 0.56117 0.61347 0.0
H2919 H 0.32058 0.57436 0.63553 0.0
C2920 C 0.31227 0.66586 0.67747 0.0
C2921 C 0.30425 0.68092 0.67866 0.0
C2922 C 0.29476 0.67212 0.66703 0.0
C2923 C 0.29319 0.64903 0.6544 0.0
C2924 C 0.30118 0.63473 0.65283 0.0
C2925 C 0.31055 0.64262 0.66365 0.0
C2926 C 0.31777 0.62317 0.65781 0.0
C2927 C 0.32469 0.62627 0.5758 0.0
C2928 C 0.32341 0.6207 0.74831 0.0
C2929 C 0.31094 0.60326 0.64263 0.0
C2930 C 0.30142 0.61054 0.64051 0.0
C2931 C 0.29369 0.59568 0.62979 0.0
C2932 C 0.29569 0.57266 0.62158 0.0
C2933 C 0.30537 0.56451 0.62338 0.0
C2934 C 0.31312 0.5801 0.63315 0.0
H2935 H 0.92299 0.67185 0.63153 0.0
H2936 H 0.95369 0.6884 0.64659 0.0
H2937 H 0.95737 0.64916 0.68895 0.0
H2938 H 0.92284 0.63411 0.82601 0.0
H2939 H 0.91438 0.61438 0.77617 0.0
H2940 H 0.91397 0.64374 0.74393 0.0
H2941 H 0.91585 0.6327 0.57256 0.0
H2942 H 0.91619 0.6033 0.6042 0.0
H2943 H 0.92595 0.61533 0.53753 0.0
H2944 H 0.95796 0.60889 0.72845 0.0
H2945 H 0.95549 0.56879 0.76402 0.0
H2946 H 0.92436 0.57699 0.72978 0.0
C2947 C 0.93049 0.66712 0.64293 0.0
C2948 C 0.93806 0.68324 0.63543 0.0
C2949 C 0.94776 0.67645 0.65208 0.0
C2950 C 0.94993 0.65417 0.67617 0.0
C2951 C 0.94234 0.6388 0.68407 0.0
C2952 C 0.9328 0.64485 0.66814 0.0
C2953 C 0.92606 0.62483 0.68324 0.0
C2954 C 0.91889 0.62955 0.76203 0.0
C2955 C 0.92069 0.61868 0.59406 0.0
C2956 C 0.93333 0.60664 0.70965 0.0
C2957 C 0.94266 0.61523 0.70924 0.0
C2958 C 0.95069 0.60193 0.72915 0.0
C2959 C 0.9492 0.57912 0.74909 0.0
C2960 C 0.93973 0.5697 0.74965 0.0
C2961 C 0.93166 0.58376 0.73069 0.0
H2962 H 0.69879 0.41601 0.45554 0.0
H2963 H 0.66777 0.42755 0.48264 0.0
H2964 H 0.66463 0.38775 0.44438 0.0
H2965 H 0.69758 0.37712 0.26595 0.0
H2966 H 0.70715 0.35912 0.30774 0.0
H2967 H 0.70709 0.38871 0.33677 0.0
H2968 H 0.70766 0.37865 0.50994 0.0
H2969 H 0.70776 0.34904 0.4814 0.0
H2970 H 0.69857 0.36008 0.55742 0.0
H2971 H 0.66468 0.34728 0.39788 0.0
H2972 H 0.66802 0.30756 0.35781 0.0
H2973 H 0.69899 0.32119 0.36738 0.0
C2974 C 0.69135 0.41013 0.45358 0.0
C2975 C 0.68353 0.42496 0.47222 0.0
C2976 C 0.67389 0.41655 0.46936 0.0
C2977 C 0.67202 0.39396 0.44721 0.0
C2978 C 0.67985 0.37983 0.42888 0.0
C2979 C 0.68933 0.38745 0.43277 0.0
C2980 C 0.6964 0.36845 0.41208 0.0
C2981 C 0.70241 0.37367 0.32548 0.0
C2982 C 0.70298 0.36378 0.49517 0.0
C2983 C 0.68939 0.34909 0.39555 0.0
C2984 C 0.67988 0.35612 0.4048 0.0
C2985 C 0.6721 0.3415 0.39094 0.0
C2986 C 0.67407 0.31898 0.36781 0.0
C2987 C 0.68376 0.31121 0.35973 0.0
C2988 C 0.69151 0.32656 0.37372 0.0
H2989 H 0.04955 0.32464 0.46403 0.0
H2990 H 0.08056 0.31265 0.48399 0.0
H2991 H 0.08371 0.35221 0.43907 0.0
H2992 H 0.05014 0.36208 0.27009 0.0
H2993 H 0.04074 0.3804 0.31352 0.0
H2994 H 0.04089 0.35102 0.34551 0.0
H2995 H 0.04099 0.3622 0.51771 0.0
H2996 H 0.04078 0.39161 0.48623 0.0
H2997 H 0.05025 0.38104 0.5599 0.0
H2998 H 0.0835 0.39281 0.38562 0.0
H2999 H 0.07992 0.43236 0.34307 0.0
H3000 H 0.04907 0.41865 0.36746 0.0
C3001 C 0.05701 0.33034 0.45891 0.0
C3002 C 0.06481 0.31551 0.47722 0.0
C3003 C 0.07446 0.32371 0.47072 0.0
C3004 C 0.07633 0.34614 0.44477 0.0
C3005 C 0.06847 0.36029 0.42674 0.0
C3006 C 0.059 0.35281 0.43475 0.0
C3007 C 0.05187 0.3717 0.41475 0.0
C3008 C 0.04554 0.36595 0.33098 0.0
C3009 C 0.0456 0.37694 0.49972 0.0
C3010 C 0.05881 0.39091 0.39369 0.0
C3011 C 0.06836 0.38391 0.3999 0.0
C3012 C 0.07606 0.39851 0.38119 0.0
C3013 C 0.07395 0.42093 0.35664 0.0
C3014 C 0.06423 0.42864 0.35228 0.0
C3015 C 0.05659 0.41332 0.37089 0.0
H3016 H 0.8192 0.06896 0.64731 0.0
H3017 H 0.78808 0.0583 0.62517 0.0
H3018 H 0.78527 0.09834 0.66246 0.0
H3019 H 0.8181 0.10747 0.83947 0.0
H3020 H 0.82791 0.12501 0.79887 0.0
H3021 H 0.82759 0.09546 0.76927 0.0
H3022 H 0.82849 0.10567 0.59637 0.0
H3023 H 0.82886 0.13523 0.62543 0.0
H3024 H 0.81965 0.12475 0.54843 0.0
H3025 H 0.78573 0.1394 0.69875 0.0
H3026 H 0.7894 0.17912 0.73448 0.0
H3027 H 0.82021 0.16361 0.73841 0.0
C3028 C 0.8118 0.07505 0.64995 0.0
C3029 C 0.80386 0.0604 0.63306 0.0
C3030 C 0.79428 0.06908 0.63796 0.0
C3031 C 0.7926 0.09184 0.65906 0.0
C3032 C 0.80057 0.10575 0.67573 0.0
C3033 C 0.80997 0.09774 0.67174 0.0
C3034 C 0.81721 0.11635 0.69343 0.0
C3035 C 0.82305 0.11073 0.78044 0.0
C3036 C 0.82395 0.12076 0.61099 0.0
C3037 C 0.81038 0.13607 0.70973 0.0
C3038 C 0.80082 0.12952 0.69881 0.0
C3039 C 0.79318 0.14472 0.70787 0.0
C3040 C 0.79535 0.16729 0.72804 0.0
C3041 C 0.80509 0.17451 0.73962 0.0
C3042 C 0.81269 0.15857 0.73102 0.0
H3043 H 0.42735 0.17193 0.57529 0.0
H3044 H 0.45123 0.18891 0.7578 0.0
H3045 H 0.45189 0.14968 0.81082 0.0
H3046 H 0.41574 0.13041 0.72907 0.0
H3047 H 0.41251 0.11149 0.63691 0.0
H3048 H 0.41334 0.14143 0.61588 0.0
H3049 H 0.42567 0.13414 0.4847 0.0
H3050 H 0.42486 0.10421 0.50515 0.0
H3051 H 0.43651 0.11808 0.50814 0.0
H3052 H 0.45098 0.10887 0.83773 0.0
H3053 H 0.4485 0.06762 0.83613 0.0
H3054 H 0.42503 0.07536 0.64058 0.0
C3055 C 0.43264 0.1674 0.62706 0.0
C3056 C 0.43927 0.18362 0.66189 0.0
C3057 C 0.44613 0.17691 0.72909 0.0
C3058 C 0.44653 0.15462 0.76033 0.0
C3059 C 0.44002 0.13905 0.72417 0.0
C3060 C 0.43319 0.145 0.65911 0.0
C3061 C 0.42738 0.1244 0.62908 0.0
C3062 C 0.4166 0.1271 0.65426 0.0
C3063 C 0.42869 0.11995 0.52563 0.0
C3064 C 0.43215 0.10602 0.68641 0.0
C3065 C 0.43939 0.11505 0.74103 0.0
C3066 C 0.44525 0.10161 0.79636 0.0
C3067 C 0.44379 0.07824 0.79505 0.0
C3068 C 0.43649 0.06852 0.73954 0.0
C3069 C 0.4305 0.08255 0.68526 0.0
H3070 H 0.1948 0.92126 0.44148 0.0
H3071 H 0.164 0.9366 0.45453 0.0
H3072 H 0.16019 0.89705 0.41512 0.0
H3073 H 0.19375 0.88241 0.2519 0.0
H3074 H 0.20274 0.86352 0.29844 0.0
H3075 H 0.2031 0.89313 0.32679 0.0
H3076 H 0.20259 0.88333 0.50024 0.0
H3077 H 0.20227 0.85369 0.47241 0.0
H3078 H 0.19292 0.8658 0.54387 0.0
H3079 H 0.15969 0.85598 0.36919 0.0
H3080 H 0.16255 0.81582 0.33177 0.0
H3081 H 0.19363 0.82666 0.35526 0.0
C3082 C 0.18725 0.91633 0.43602 0.0
C3083 C 0.1797 0.93214 0.45097 0.0
C3084 C 0.16992 0.92486 0.44387 0.0
C3085 C 0.16768 0.90241 0.42109 0.0
C3086 C 0.17528 0.8873 0.40642 0.0
C3087 C 0.18487 0.89388 0.41452 0.0
C3088 C 0.19166 0.87413 0.3975 0.0
C3089 C 0.1982 0.87857 0.31366 0.0
C3090 C 0.19771 0.86893 0.48364 0.0
C3091 C 0.18439 0.85548 0.37815 0.0
C3092 C 0.17498 0.86348 0.38285 0.0
C3093 C 0.16703 0.8495 0.3658 0.0
C3094 C 0.16873 0.82671 0.34422 0.0
C3095 C 0.17831 0.81801 0.34079 0.0
C3096 C 0.18621 0.83271 0.3579 0.0
H3097 H 0.56848 0.82888 0.43617 0.0
H3098 H 0.53738 0.81698 0.43356 0.0
H3099 H 0.53459 0.85707 0.396 0.0
H3100 H 0.56781 0.88491 0.53487 0.0
H3101 H 0.57754 0.89557 0.46418 0.0
H3102 H 0.57711 0.86604 0.49348 0.0
H3103 H 0.57766 0.85561 0.32057 0.0
H3104 H 0.57803 0.88512 0.29071 0.0
H3105 H 0.56868 0.86718 0.24388 0.0
H3106 H 0.53508 0.89832 0.36295 0.0
H3107 H 0.53882 0.93827 0.33089 0.0
H3108 H 0.56964 0.92354 0.34556 0.0
C3109 C 0.56109 0.83479 0.42852 0.0
C3110 C 0.55313 0.81986 0.43846 0.0
C3111 C 0.54357 0.82811 0.42631 0.0
C3112 C 0.54191 0.85086 0.40503 0.0
C3113 C 0.5499 0.86509 0.39497 0.0
C3114 C 0.5593 0.85742 0.40577 0.0
C3115 C 0.56657 0.87623 0.38876 0.0
C3116 C 0.57261 0.88096 0.4755 0.0
C3117 C 0.57312 0.8707 0.30605 0.0
C3118 C 0.55978 0.89568 0.36748 0.0
C3119 C 0.55019 0.88885 0.37206 0.0
C3120 C 0.54255 0.90385 0.35849 0.0
C3121 C 0.54475 0.92651 0.34044 0.0
C3122 C 0.55451 0.93394 0.33499 0.0
C3123 C 0.56212 0.91824 0.34784 0.0
H3124 H 0.81781 0.66792 0.18658 0.0
H3125 H 0.78687 0.68054 0.16184 0.0
H3126 H 0.7842 0.64032 0.12483 0.0
H3127 H 0.81937 0.62842 0.99815 0.0
H3128 H 0.82823 0.6107 0.05363 0.0
H3129 H 0.82775 0.64043 0.07972 0.0
H3130 H 0.82579 0.63131 0.25288 0.0
H3131 H 0.82631 0.60156 0.2274 0.0
H3132 H 0.81609 0.61293 0.28965 0.0
H3133 H 0.78479 0.59878 0.0955 0.0
H3134 H 0.78861 0.55855 0.071 0.0
H3135 H 0.81928 0.5729 0.10731 0.0
C3136 C 0.81047 0.6622 0.17394 0.0
C3137 C 0.80253 0.67735 0.17771 0.0
C3138 C 0.79305 0.66926 0.1594 0.0
C3139 C 0.79146 0.64644 0.13834 0.0
C3140 C 0.79944 0.632 0.13484 0.0
C3141 C 0.80876 0.63953 0.15162 0.0
C3142 C 0.81607 0.62051 0.14209 0.0
C3143 C 0.82328 0.62531 0.06372 0.0
C3144 C 0.82137 0.61633 0.23345 0.0
C3145 C 0.80938 0.60104 0.11824 0.0
C3146 C 0.79981 0.60807 0.11481 0.0
C3147 C 0.79225 0.59309 0.09737 0.0
C3148 C 0.7945 0.57027 0.08373 0.0
C3149 C 0.80424 0.56263 0.08675 0.0
C3150 C 0.81178 0.57831 0.10333 0.0
H3151 H 0.44556 0.57465 0.16365 0.0
H3152 H 0.41454 0.56126 0.17068 0.0
H3153 H 0.41127 0.60119 0.1363 0.0
H3154 H 0.4442 0.62947 0.2727 0.0
H3155 H 0.45372 0.64169 0.20363 0.0
H3156 H 0.45374 0.61183 0.22733 0.0
H3157 H 0.45429 0.60333 0.05271 0.0
H3158 H 0.45427 0.63317 1.02849 0.0
H3159 H 0.44513 0.61515 0.97866 0.0
H3160 H 0.41122 0.64213 0.09781 0.0
H3161 H 0.41439 0.68225 0.06471 0.0
H3162 H 0.4454 0.67013 0.08784 0.0
C3163 C 0.43808 0.58011 0.15774 0.0
C3164 C 0.43031 0.56472 0.16985 0.0
C3165 C 0.42063 0.57265 0.16222 0.0
C3166 C 0.41869 0.59533 0.14238 0.0
C3167 C 0.42648 0.61003 0.131 0.0
C3168 C 0.43599 0.60285 0.13895 0.0
C3169 C 0.44299 0.62238 0.12518 0.0
C3170 C 0.44901 0.62659 0.21242 0.0
C3171 C 0.44956 0.61826 0.04126 0.0
C3172 C 0.43591 0.64156 0.1079 0.0
C3173 C 0.42644 0.63397 0.11103 0.0
C3174 C 0.41861 0.64833 0.09553 0.0
C3175 C 0.42049 0.6711 0.07651 0.0
C3176 C 0.43014 0.67942 0.07385 0.0
C3177 C 0.43794 0.66437 0.09003 0.0
H3178 H 0.19717 0.32504 0.89149 0.0
H3179 H 0.16633 0.31079 0.87007 0.0
H3180 H 0.16266 0.35059 0.90655 0.0
H3181 H 0.19576 0.36475 0.07838 0.0
H3182 H 0.20503 0.38314 1.03306 0.0
H3183 H 0.20528 0.35341 1.00682 0.0
H3184 H 0.20542 0.36251 0.83271 0.0
H3185 H 0.2052 0.39227 0.85842 0.0
H3186 H 0.19602 0.38015 0.78525 0.0
H3187 H 0.16228 0.39161 0.95026 0.0
H3188 H 0.16523 0.43177 0.98623 0.0
H3189 H 0.19631 0.42018 0.97149 0.0
C3190 C 0.18964 0.33028 0.89465 0.0
C3191 C 0.18203 0.31472 0.8782 0.0
C3192 C 0.17229 0.32236 0.88203 0.0
C3193 C 0.17013 0.34493 0.90309 0.0
C3194 C 0.17778 0.3598 0.91916 0.0
C3195 C 0.18735 0.35288 0.91419 0.0
C3196 C 0.19421 0.37248 0.93174 0.0
C3197 C 0.20043 0.36818 1.01762 0.0
C3198 C 0.20059 0.37713 0.84697 0.0
C3199 C 0.187 0.39146 0.94782 0.0
C3200 C 0.17757 0.3837 0.9411 0.0
C3201 C 0.16964 0.39791 0.9552 0.0
C3202 C 0.17139 0.42069 0.97599 0.0
C3203 C 0.181 0.42918 0.98149 0.0
C3204 C 0.18889 0.41427 0.96717 0.0
H3205 H 0.54875 0.33103 0.97851 0.0
H3206 H 0.5797 0.32262 1.02566 0.0
H3207 H 0.58239 0.36248 0.98836 0.0
H3208 H 0.55075 0.36951 0.78858 0.0
H3209 H 0.54063 0.38691 0.82267 0.0
H3210 H 0.54089 0.35748 0.85386 0.0
H3211 H 0.53885 0.36823 1.02537 0.0
H3212 H 0.53856 0.39771 0.99468 0.0
H3213 H 0.54729 0.3877 0.07731 0.0
H3214 H 0.58214 0.40207 0.93966 0.0
H3215 H 0.57877 0.44104 0.89157 0.0
H3216 H 0.54791 0.42598 0.88196 0.0
C3217 C 0.55607 0.33764 0.98126 0.0
C3218 C 0.564 0.32361 1.00526 0.0
C3219 C 0.57348 0.33295 1.00828 0.0
C3220 C 0.57511 0.35561 0.98682 0.0
C3221 C 0.5672 0.36893 0.96325 0.0
C3222 C 0.55785 0.3605 0.96115 0.0
C3223 C 0.55068 0.37889 0.93442 0.0
C3224 C 0.54543 0.37283 0.84453 0.0
C3225 C 0.54342 0.3834 1.01262 0.0
C3226 C 0.55753 0.39877 0.92107 0.0
C3227 C 0.56702 0.39244 0.93757 0.0
C3228 C 0.57474 0.40734 0.9271 0.0
C3229 C 0.57274 0.42943 0.89926 0.0
C3230 C 0.56308 0.43656 0.88301 0.0
C3231 C 0.55536 0.42103 0.89458 0.0
loop_
_geom_bond_atom_site_label_1
_geom_bond_atom_site_label_2
_geom_bond_distance
_geom_bond_site_symmetry_2
_ccdc_geom_bond_type
Tb0 O3 2.453 . S
Tb0 O4 2.596 . S
Tb0 O5 2.374 . S
Tb0 O13 2.343 . S
Tb0 O15 2.353 . S
Tb0 O17 2.427 . S
Tb0 O18 2.513 . S
C1 O5 1.251 . S
C1 O7 1.263 . S
Tb2 O4 2.343 . S
Tb2 O7 2.353 . S
Tb2 O10 2.427 . S
Tb2 O11 2.513 . S
Tb2 O12 2.453 . S
Tb2 O13 2.596 . S
Tb2 O14 2.374 . S
O3 Tb0 2.453 . S
O3 C19 1.245 . S
O4 Tb0 2.596 . S
O4 Tb2 2.343 . S
O4 C19 1.259 . S
O5 Tb0 2.374 . S
O5 C1 1.251 . S
C6 O10 1.275 . S
C6 O11 1.246 . S
O7 C1 1.263 . S
O7 Tb2 2.353 . S
C8 O12 1.245 . S
C8 O13 1.259 . S
C9 O14 1.250 . S
C9 O15 1.263 . S
O10 Tb2 2.427 . S
O10 C6 1.275 . S
O11 Tb2 2.513 . S
O11 C6 1.246 . S
O12 Tb2 2.453 . S
O12 C8 1.245 . S
O13 Tb0 2.343 . S
O13 Tb2 2.596 . S
O13 C8 1.259 . S
O14 Tb2 2.374 . S
O14 C9 1.250 . S
O15 Tb0 2.353 . S
O15 C9 1.263 . S
C16 O17 1.275 . S
C16 O18 1.246 . S
O17 Tb0 2.427 . S
O17 C16 1.275 . S
O18 Tb0 2.513 . S
O18 C16 1.246 . S
C19 O3 1.245 . S
C19 O4 1.259 . S
Tb20 O23 2.453 . S
Tb20 O24 2.594 1_545 S
Tb20 O25 2.374 1_545 S
Tb20 O33 2.343 1_545 S
Tb20 O35 2.353 . S
Tb20 O37 2.427 . S
Tb20 O38 2.513 1_545 S
C21 O25 1.251 . S
C21 O27 1.263 . S
Tb22 O24 2.348 . S
Tb22 O27 2.353 . S
Tb22 O30 2.427 . S
Tb22 O31 2.513 1_565 S
Tb22 O32 2.453 . S
Tb22 O33 2.596 . S
Tb22 O34 2.374 1_565 S
O23 Tb20 2.453 . S
O23 C39 1.250 . S
O24 Tb20 2.594 1_565 S
O24 Tb22 2.348 . S
O24 C39 1.257 1_565 S
O25 Tb20 2.374 1_565 S
O25 C21 1.251 . S
C26 O30 1.275 . S
C26 O31 1.246 1_565 S
O27 C21 1.263 . S
O27 Tb22 2.353 . S
C28 O32 1.245 . S
C28 O33 1.259 . S
C29 O34 1.250 . S
C29 O35 1.263 . S
O30 Tb22 2.427 . S
O30 C26 1.275 . S
O31 Tb22 2.513 1_545 S
O31 C26 1.246 1_545 S
O32 Tb22 2.453 . S
O32 C28 1.245 . S
O33 Tb20 2.343 1_565 S
O33 Tb22 2.596 . S
O33 C28 1.259 . S
O34 Tb22 2.374 1_545 S
O34 C29 1.250 . S
O35 Tb20 2.353 . S
O35 C29 1.263 . S
C36 O37 1.275 1_565 S
C36 O38 1.246 . S
O37 Tb20 2.427 . S
O37 C36 1.275 1_545 S
O38 Tb20 2.513 1_565 S
O38 C36 1.246 . S
C39 O23 1.250 . S
C39 O24 1.257 1_545 S
Tb40 O43 2.453 1_554 S
Tb40 O44 2.594 1_544 S
Tb40 O45 2.374 1_544 S
Tb40 O53 2.343 1_545 S
Tb40 O55 2.353 . S
Tb40 O57 2.427 . S
Tb40 O58 2.513 1_545 S
C41 O45 1.251 . S
C41 O47 1.263 1_556 S
Tb42 O44 2.348 1_554 S
Tb42 O47 2.353 . S
Tb42 O50 2.427 1_554 S
Tb42 O51 2.513 1_564 S
Tb42 O52 2.453 . S
Tb42 O53 2.596 . S
Tb42 O54 2.374 1_565 S
O43 Tb40 2.453 1_556 S
O43 C59 1.250 . S
O44 Tb40 2.594 1_566 S
O44 Tb42 2.348 1_556 S
O44 C59 1.257 1_565 S
O45 Tb40 2.374 1_566 S
O45 C41 1.251 . S
C46 O50 1.275 . S
C46 O51 1.246 1_565 S
O47 C41 1.263 1_554 S
O47 Tb42 2.353 . S
C48 O52 1.245 . S
C48 O53 1.259 . S
C49 O54 1.250 . S
C49 O55 1.263 . S
O50 Tb42 2.427 1_556 S
O50 C46 1.275 . S
O51 Tb42 2.513 1_546 S
O51 C46 1.246 1_545 S
O52 Tb42 2.453 . S
O52 C48 1.245 . S
O53 Tb40 2.343 1_565 S
O53 Tb42 2.596 . S
O53 C48 1.259 . S
O54 Tb42 2.374 1_545 S
O54 C49 1.250 . S
O55 Tb40 2.353 . S
O55 C49 1.263 . S
C56 O57 1.275 1_565 S
C56 O58 1.246 . S
O57 Tb40 2.427 . S
O57 C56 1.275 1_545 S
O58 Tb40 2.513 1_565 S
O58 C56 1.246 . S
C59 O43 1.250 . S
C59 O44 1.257 1_545 S
Tb60 O63 2.453 1_554 S
Tb60 O64 2.596 1_554 S
Tb60 O65 2.374 1_554 S
Tb60 O73 2.343 . S
Tb60 O75 2.353 . S
Tb60 O77 2.427 . S
Tb60 O78 2.513 . S
C61 O65 1.251 . S
C61 O67 1.263 1_556 S
Tb62 O64 2.343 1_554 S
Tb62 O67 2.353 . S
Tb62 O70 2.427 1_554 S
Tb62 O71 2.513 1_554 S
Tb62 O72 2.453 . S
Tb62 O73 2.596 . S
Tb62 O74 2.374 . S
O63 Tb60 2.453 1_556 S
O63 C79 1.245 . S
O64 Tb60 2.596 1_556 S
O64 Tb62 2.343 1_556 S
O64 C79 1.259 . S
O65 Tb60 2.374 1_556 S
O65 C61 1.251 . S
C66 O70 1.275 . S
C66 O71 1.246 . S
O67 C61 1.263 1_554 S
O67 Tb62 2.353 . S
C68 O72 1.245 . S
C68 O73 1.259 . S
C69 O74 1.250 . S
C69 O75 1.263 . S
O70 Tb62 2.427 1_556 S
O70 C66 1.275 . S
O71 Tb62 2.513 1_556 S
O71 C66 1.246 . S
O72 Tb62 2.453 . S
O72 C68 1.245 . S
O73 Tb60 2.343 . S
O73 Tb62 2.596 . S
O73 C68 1.259 . S
O74 Tb62 2.374 . S
O74 C69 1.250 . S
O75 Tb60 2.353 . S
O75 C69 1.263 . S
C76 O77 1.275 . S
C76 O78 1.246 . S
O77 Tb60 2.427 . S
O77 C76 1.275 . S
O78 Tb60 2.513 . S
O78 C76 1.246 . S
C79 O63 1.245 . S
C79 O64 1.259 . S
Tb80 O83 2.453 . S
Tb80 O84 2.596 . S
Tb80 O85 2.374 . S
Tb80 O93 2.343 . S
Tb80 O95 2.353 . S
Tb80 O97 2.427 . S
Tb80 O98 2.513 . S
C81 O85 1.251 . S
C81 O87 1.263 . S
Tb82 O84 2.343 . S
Tb82 O87 2.353 . S
Tb82 O90 2.427 . S
Tb82 O91 2.513 . S
Tb82 O92 2.453 . S
Tb82 O93 2.596 . S
Tb82 O94 2.374 . S
O83 Tb80 2.453 . S
O83 C99 1.245 . S
O84 Tb80 2.596 . S
O84 Tb82 2.343 . S
O84 C99 1.259 . S
O85 Tb80 2.374 . S
O85 C81 1.251 . S
C86 O90 1.275 . S
C86 O91 1.246 . S
O87 C81 1.263 . S
O87 Tb82 2.353 . S
C88 O92 1.245 . S
C88 O93 1.259 . S
C89 O94 1.250 . S
C89 O95 1.263 . S
O90 Tb82 2.427 . S
O90 C86 1.275 . S
O91 Tb82 2.513 . S
O91 C86 1.246 . S
O92 Tb82 2.453 . S
O92 C88 1.245 . S
O93 Tb80 2.343 . S
O93 Tb82 2.596 . S
O93 C88 1.259 . S
O94 Tb82 2.374 . S
O94 C89 1.250 . S
O95 Tb80 2.353 . S
O95 C89 1.263 . S
C96 O97 1.275 . S
C96 O98 1.246 . S
O97 Tb80 2.427 . S
O97 C96 1.275 . S
O98 Tb80 2.513 . S
O98 C96 1.246 . S
C99 O83 1.245 . S
C99 O84 1.259 . S
Tb100 O103 2.453 . S
Tb100 O104 2.596 . S
Tb100 O105 2.374 1_545 S
Tb100 O113 2.348 . S
Tb100 O115 2.353 . S
Tb100 O117 2.427 . S
Tb100 O118 2.513 1_545 S
C101 O105 1.251 . S
C101 O107 1.263 . S
Tb102 O104 2.343 1_565 S
Tb102 O107 2.353 . S
Tb102 O110 2.427 . S
Tb102 O111 2.513 1_565 S
Tb102 O112 2.453 . S
Tb102 O113 2.594 1_565 S
Tb102 O114 2.374 1_565 S
O103 Tb100 2.453 . S
O103 C119 1.245 . S
O104 Tb100 2.596 . S
O104 Tb102 2.343 1_545 S
O104 C119 1.259 . S
O105 Tb100 2.374 1_565 S
O105 C101 1.251 . S
C106 O110 1.275 1_545 S
C106 O111 1.246 . S
O107 C101 1.263 . S
O107 Tb102 2.353 . S
C108 O112 1.250 . S
C108 O113 1.257 1_565 S
C109 O114 1.250 . S
C109 O115 1.263 . S
O110 Tb102 2.427 . S
O110 C106 1.275 1_565 S
O111 Tb102 2.513 1_545 S
O111 C106 1.246 . S
O112 Tb102 2.453 . S
O112 C108 1.250 . S
O113 Tb100 2.348 . S
O113 Tb102 2.594 1_545 S
O113 C108 1.257 1_545 S
O114 Tb102 2.374 1_545 S
O114 C109 1.250 . S
O115 Tb100 2.353 . S
O115 C109 1.263 . S
C116 O117 1.275 . S
C116 O118 1.246 1_545 S
O117 Tb100 2.427 . S
O117 C116 1.275 . S
O118 Tb100 2.513 1_565 S
O118 C116 1.246 1_565 S
C119 O103 1.245 . S
C119 O104 1.259 . S
Tb120 O123 2.453 . S
Tb120 O124 2.596 . S
Tb120 O125 2.374 1_545 S
Tb120 O133 2.348 1_556 S
Tb120 O135 2.353 . S
Tb120 O137 2.427 1_556 S
Tb120 O138 2.513 1_546 S
C121 O125 1.251 . S
C121 O127 1.263 . S
Tb122 O124 2.343 1_565 S
Tb122 O127 2.353 . S
Tb122 O130 2.427 . S
Tb122 O131 2.513 1_565 S
Tb122 O132 2.453 1_556 S
Tb122 O133 2.594 1_566 S
Tb122 O134 2.374 1_566 S
O123 Tb120 2.453 . S
O123 C139 1.245 . S
O124 Tb120 2.596 . S
O124 Tb122 2.343 1_545 S
O124 C139 1.259 . S
O125 Tb120 2.374 1_565 S
O125 C121 1.251 . S
C126 O130 1.275 1_545 S
C126 O131 1.246 . S
O127 C121 1.263 . S
O127 Tb122 2.353 . S
C128 O132 1.250 . S
C128 O133 1.257 1_565 S
C129 O134 1.250 . S
C129 O135 1.263 1_554 S
O130 Tb122 2.427 . S
O130 C126 1.275 1_565 S
O131 Tb122 2.513 1_545 S
O131 C126 1.246 . S
O132 Tb122 2.453 1_554 S
O132 C128 1.250 . S
O133 Tb120 2.348 1_554 S
O133 Tb122 2.594 1_544 S
O133 C128 1.257 1_545 S
O134 Tb122 2.374 1_544 S
O134 C129 1.250 . S
O135 Tb120 2.353 . S
O135 C129 1.263 1_556 S
C136 O137 1.275 . S
C136 O138 1.246 1_545 S
O137 Tb120 2.427 1_554 S
O137 C136 1.275 . S
O138 Tb120 2.513 1_564 S
O138 C136 1.246 1_565 S
C139 O123 1.245 . S
C139 O124 1.259 . S
Tb140 O143 2.453 . S
Tb140 O144 2.596 . S
Tb140 O145 2.374 . S
Tb140 O153 2.343 1_556 S
Tb140 O155 2.353 . S
Tb140 O157 2.427 1_556 S
Tb140 O158 2.513 1_556 S
C141 O145 1.251 . S
C141 O147 1.263 . S
Tb142 O144 2.343 . S
Tb142 O147 2.353 . S
Tb142 O150 2.427 . S
Tb142 O151 2.513 . S
Tb142 O152 2.453 1_556 S
Tb142 O153 2.596 1_556 S
Tb142 O154 2.374 1_556 S
O143 Tb140 2.453 . S
O143 C159 1.245 . S
O144 Tb140 2.596 . S
O144 Tb142 2.343 . S
O144 C159 1.259 . S
O145 Tb140 2.374 . S
O145 C141 1.251 . S
C146 O150 1.275 . S
C146 O151 1.246 . S
O147 C141 1.263 . S
O147 Tb142 2.353 . S
C148 O152 1.245 . S
C148 O153 1.259 . S
C149 O154 1.250 . S
C149 O155 1.263 1_554 S
O150 Tb142 2.427 . S
O150 C146 1.275 . S
O151 Tb142 2.513 . S
O151 C146 1.246 . S
O152 Tb142 2.453 1_554 S
O152 C148 1.245 . S
O153 Tb140 2.343 1_554 S
O153 Tb142 2.596 1_554 S
O153 C148 1.259 . S
O154 Tb142 2.374 1_554 S
O154 C149 1.250 . S
O155 Tb140 2.353 . S
O155 C149 1.263 1_556 S
C156 O157 1.275 . S
C156 O158 1.246 . S
O157 Tb140 2.427 1_554 S
O157 C156 1.275 . S
O158 Tb140 2.513 1_554 S
O158 C156 1.246 . S
C159 O143 1.245 . S
C159 O144 1.259 . S
Tb160 O163 2.453 . S
Tb160 O164 2.596 . S
Tb160 O165 2.374 . S
Tb160 O173 2.343 . S
Tb160 O175 2.353 . S
Tb160 O177 2.427 . S
Tb160 O178 2.513 . S
C161 O165 1.251 . S
C161 O167 1.263 . S
Tb162 O164 2.343 . S
Tb162 O167 2.353 . S
Tb162 O170 2.427 . S
Tb162 O171 2.513 . S
Tb162 O172 2.453 . S
Tb162 O173 2.596 . S
Tb162 O174 2.374 . S
O163 Tb160 2.453 . S
O163 C179 1.245 . S
O164 Tb160 2.596 . S
O164 Tb162 2.343 . S
O164 C179 1.259 . S
O165 Tb160 2.374 . S
O165 C161 1.251 . S
C166 O170 1.275 . S
C166 O171 1.246 . S
O167 C161 1.263 . S
O167 Tb162 2.353 . S
C168 O172 1.245 . S
C168 O173 1.259 . S
C169 O174 1.250 . S
C169 O175 1.263 . S
O170 Tb162 2.427 . S
O170 C166 1.275 . S
O171 Tb162 2.513 . S
O171 C166 1.246 . S
O172 Tb162 2.453 . S
O172 C168 1.245 . S
O173 Tb160 2.343 . S
O173 Tb162 2.596 . S
O173 C168 1.259 . S
O174 Tb162 2.374 . S
O174 C169 1.250 . S
O175 Tb160 2.353 . S
O175 C169 1.263 . S
C176 O177 1.275 . S
C176 O178 1.246 . S
O177 Tb160 2.427 . S
O177 C176 1.275 . S
O178 Tb160 2.513 . S
O178 C176 1.246 . S
C179 O163 1.245 . S
C179 O164 1.259 . S
Tb180 O183 2.453 . S
Tb180 O184 2.596 . S
Tb180 O185 2.374 . S
Tb180 O193 2.343 . S
Tb180 O195 2.353 . S
Tb180 O197 2.427 . S
Tb180 O198 2.513 . S
C181 O185 1.251 . S
C181 O187 1.263 . S
Tb182 O184 2.343 . S
Tb182 O187 2.353 . S
Tb182 O190 2.427 . S
Tb182 O191 2.513 . S
Tb182 O192 2.453 . S
Tb182 O193 2.596 . S
Tb182 O194 2.374 . S
O183 Tb180 2.453 . S
O183 C199 1.245 . S
O184 Tb180 2.596 . S
O184 Tb182 2.343 . S
O184 C199 1.259 . S
O185 Tb180 2.374 . S
O185 C181 1.251 . S
C186 O190 1.275 . S
C186 O191 1.246 . S
O187 C181 1.263 . S
O187 Tb182 2.353 . S
C188 O192 1.245 . S
C188 O193 1.259 . S
C189 O194 1.250 . S
C189 O195 1.263 . S
O190 Tb182 2.427 . S
O190 C186 1.275 . S
O191 Tb182 2.513 . S
O191 C186 1.246 . S
O192 Tb182 2.453 . S
O192 C188 1.245 . S
O193 Tb180 2.343 . S
O193 Tb182 2.596 . S
O193 C188 1.259 . S
O194 Tb182 2.374 . S
O194 C189 1.250 . S
O195 Tb180 2.353 . S
O195 C189 1.263 . S
C196 O197 1.275 . S
C196 O198 1.246 . S
O197 Tb180 2.427 . S
O197 C196 1.275 . S
O198 Tb180 2.513 . S
O198 C196 1.246 . S
C199 O183 1.245 . S
C199 O184 1.259 . S
Tb200 O203 2.453 . S
Tb200 O204 2.596 . S
Tb200 O205 2.374 . S
Tb200 O213 2.343 . S
Tb200 O215 2.353 . S
Tb200 O217 2.427 . S
Tb200 O218 2.513 . S
C201 O205 1.251 . S
C201 O207 1.263 . S
Tb202 O204 2.343 . S
Tb202 O207 2.353 . S
Tb202 O210 2.427 . S
Tb202 O211 2.513 . S
Tb202 O212 2.453 . S
Tb202 O213 2.596 . S
Tb202 O214 2.374 . S
O203 Tb200 2.453 . S
O203 C219 1.245 . S
O204 Tb200 2.596 . S
O204 Tb202 2.343 . S
O204 C219 1.259 . S
O205 Tb200 2.374 . S
O205 C201 1.251 . S
C206 O210 1.275 . S
C206 O211 1.246 . S
O207 C201 1.263 . S
O207 Tb202 2.353 . S
C208 O212 1.245 . S
C208 O213 1.259 . S
C209 O214 1.250 . S
C209 O215 1.263 . S
O210 Tb202 2.427 . S
O210 C206 1.275 . S
O211 Tb202 2.513 . S
O211 C206 1.246 . S
O212 Tb202 2.453 . S
O212 C208 1.245 . S
O213 Tb200 2.343 . S
O213 Tb202 2.596 . S
O213 C208 1.259 . S
O214 Tb202 2.374 . S
O214 C209 1.250 . S
O215 Tb200 2.353 . S
O215 C209 1.263 . S
C216 O217 1.275 . S
C216 O218 1.246 . S
O217 Tb200 2.427 . S
O217 C216 1.275 . S
O218 Tb200 2.513 . S
O218 C216 1.246 . S
C219 O203 1.245 . S
C219 O204 1.259 . S
Tb220 O223 2.453 . S
Tb220 O224 2.596 . S
Tb220 O225 2.374 . S
Tb220 O233 2.343 . S
Tb220 O235 2.353 . S
Tb220 O237 2.427 . S
Tb220 O238 2.513 . S
C221 O225 1.251 . S
C221 O227 1.263 . S
Tb222 O224 2.343 . S
Tb222 O227 2.353 . S
Tb222 O230 2.427 . S
Tb222 O231 2.513 . S
Tb222 O232 2.453 . S
Tb222 O233 2.596 . S
Tb222 O234 2.374 . S
O223 Tb220 2.453 . S
O223 C239 1.245 . S
O224 Tb220 2.596 . S
O224 Tb222 2.343 . S
O224 C239 1.259 . S
O225 Tb220 2.374 . S
O225 C221 1.251 . S
C226 O230 1.275 . S
C226 O231 1.246 . S
O227 C221 1.263 . S
O227 Tb222 2.353 . S
C228 O232 1.245 . S
C228 O233 1.259 . S
C229 O234 1.250 . S
C229 O235 1.263 . S
O230 Tb222 2.427 . S
O230 C226 1.275 . S
O231 Tb222 2.513 . S
O231 C226 1.246 . S
O232 Tb222 2.453 . S
O232 C228 1.245 . S
O233 Tb220 2.343 . S
O233 Tb222 2.596 . S
O233 C228 1.259 . S
O234 Tb222 2.374 . S
O234 C229 1.250 . S
O235 Tb220 2.353 . S
O235 C229 1.263 . S
C236 O237 1.275 . S
C236 O238 1.246 . S
O237 Tb220 2.427 . S
O237 C236 1.275 . S
O238 Tb220 2.513 . S
O238 C236 1.246 . S
C239 O223 1.245 . S
C239 O224 1.259 . S
Tb240 O243 2.453 . S
Tb240 O244 2.596 . S
Tb240 O245 2.374 . S
Tb240 O253 2.343 . S
Tb240 O255 2.353 . S
Tb240 O257 2.427 . S
Tb240 O258 2.513 . S
C241 O245 1.251 . S
C241 O247 1.263 . S
Tb242 O244 2.343 . S
Tb242 O247 2.353 . S
Tb242 O250 2.427 . S
Tb242 O251 2.513 . S
Tb242 O252 2.453 . S
Tb242 O253 2.596 . S
Tb242 O254 2.374 . S
O243 Tb240 2.453 . S
O243 C259 1.245 . S
O244 Tb240 2.596 . S
O244 Tb242 2.343 . S
O244 C259 1.259 . S
O245 Tb240 2.374 . S
O245 C241 1.251 . S
C246 O250 1.275 . S
C246 O251 1.246 . S
O247 C241 1.263 . S
O247 Tb242 2.353 . S
C248 O252 1.245 . S
C248 O253 1.259 . S
C249 O254 1.250 . S
C249 O255 1.263 . S
O250 Tb242 2.427 . S
O250 C246 1.275 . S
O251 Tb242 2.513 . S
O251 C246 1.246 . S
O252 Tb242 2.453 . S
O252 C248 1.245 . S
O253 Tb240 2.343 . S
O253 Tb242 2.596 . S
O253 C248 1.259 . S
O254 Tb242 2.374 . S
O254 C249 1.250 . S
O255 Tb240 2.353 . S
O255 C249 1.263 . S
C256 O257 1.275 . S
C256 O258 1.246 . S
O257 Tb240 2.427 . S
O257 C256 1.275 . S
O258 Tb240 2.513 . S
O258 C256 1.246 . S
C259 O243 1.245 . S
C259 O244 1.259 . S
Tb260 O263 2.453 . S
Tb260 O264 2.596 . S
Tb260 O265 2.374 . S
Tb260 O273 2.343 . S
Tb260 O275 2.353 . S
Tb260 O277 2.427 . S
Tb260 O278 2.513 . S
C261 O265 1.251 . S
C261 O267 1.263 . S
Tb262 O264 2.343 . S
Tb262 O267 2.353 . S
Tb262 O270 2.427 . S
Tb262 O271 2.513 . S
Tb262 O272 2.453 . S
Tb262 O273 2.596 . S
Tb262 O274 2.374 . S
O263 Tb260 2.453 . S
O263 C279 1.245 . S
O264 Tb260 2.596 . S
O264 Tb262 2.343 . S
O264 C279 1.259 . S
O265 Tb260 2.374 . S
O265 C261 1.251 . S
C266 O270 1.275 . S
C266 O271 1.246 . S
O267 C261 1.263 . S
O267 Tb262 2.353 . S
C268 O272 1.245 . S
C268 O273 1.259 . S
C269 O274 1.250 . S
C269 O275 1.263 . S
O270 Tb262 2.427 . S
O270 C266 1.275 . S
O271 Tb262 2.513 . S
O271 C266 1.246 . S
O272 Tb262 2.453 . S
O272 C268 1.245 . S
O273 Tb260 2.343 . S
O273 Tb262 2.596 . S
O273 C268 1.259 . S
O274 Tb262 2.374 . S
O274 C269 1.250 . S
O275 Tb260 2.353 . S
O275 C269 1.263 . S
C276 O277 1.275 . S
C276 O278 1.246 . S
O277 Tb260 2.427 . S
O277 C276 1.275 . S
O278 Tb260 2.513 . S
O278 C276 1.246 . S
C279 O263 1.245 . S
C279 O264 1.259 . S
Tb280 O283 2.453 . S
Tb280 O284 2.596 . S
Tb280 O285 2.374 . S
Tb280 O293 2.343 . S
Tb280 O295 2.353 . S
Tb280 O297 2.427 . S
Tb280 O298 2.513 . S
C281 O285 1.251 . S
C281 O287 1.263 . S
Tb282 O284 2.343 . S
Tb282 O287 2.353 . S
Tb282 O290 2.427 . S
Tb282 O291 2.513 . S
Tb282 O292 2.453 . S
Tb282 O293 2.596 . S
Tb282 O294 2.374 . S
O283 Tb280 2.453 . S
O283 C299 1.245 . S
O284 Tb280 2.596 . S
O284 Tb282 2.343 . S
O284 C299 1.259 . S
O285 Tb280 2.374 . S
O285 C281 1.251 . S
C286 O290 1.275 . S
C286 O291 1.246 . S
O287 C281 1.263 . S
O287 Tb282 2.353 . S
C288 O292 1.245 . S
C288 O293 1.259 . S
C289 O294 1.250 . S
C289 O295 1.263 . S
O290 Tb282 2.427 . S
O290 C286 1.275 . S
O291 Tb282 2.513 . S
O291 C286 1.246 . S
O292 Tb282 2.453 . S
O292 C288 1.245 . S
O293 Tb280 2.343 . S
O293 Tb282 2.596 . S
O293 C288 1.259 . S
O294 Tb282 2.374 . S
O294 C289 1.250 . S
O295 Tb280 2.353 . S
O295 C289 1.263 . S
C296 O297 1.275 . S
C296 O298 1.246 . S
O297 Tb280 2.427 . S
O297 C296 1.275 . S
O298 Tb280 2.513 . S
O298 C296 1.246 . S
C299 O283 1.245 . S
C299 O284 1.259 . S
Tb300 O303 2.453 . S
Tb300 O304 2.596 . S
Tb300 O305 2.374 . S
Tb300 O313 2.343 . S
Tb300 O315 2.353 . S
Tb300 O317 2.427 . S
Tb300 O318 2.513 . S
C301 O305 1.251 . S
C301 O307 1.263 . S
Tb302 O304 2.343 . S
Tb302 O307 2.353 . S
Tb302 O310 2.427 . S
Tb302 O311 2.513 . S
Tb302 O312 2.453 . S
Tb302 O313 2.596 . S
Tb302 O314 2.374 . S
O303 Tb300 2.453 . S
O303 C319 1.245 . S
O304 Tb300 2.596 . S
O304 Tb302 2.343 . S
O304 C319 1.259 . S
O305 Tb300 2.374 . S
O305 C301 1.251 . S
C306 O310 1.275 . S
C306 O311 1.246 . S
O307 C301 1.263 . S
O307 Tb302 2.353 . S
C308 O312 1.245 . S
C308 O313 1.259 . S
C309 O314 1.250 . S
C309 O315 1.263 . S
O310 Tb302 2.427 . S
O310 C306 1.275 . S
O311 Tb302 2.513 . S
O311 C306 1.246 . S
O312 Tb302 2.453 . S
O312 C308 1.245 . S
O313 Tb300 2.343 . S
O313 Tb302 2.596 . S
O313 C308 1.259 . S
O314 Tb302 2.374 . S
O314 C309 1.250 . S
O315 Tb300 2.353 . S
O315 C309 1.263 . S
C316 O317 1.275 . S
C316 O318 1.246 . S
O317 Tb300 2.427 . S
O317 C316 1.275 . S
O318 Tb300 2.513 . S
O318 C316 1.246 . S
C319 O303 1.245 . S
C319 O304 1.259 . S
Tb320 O323 2.453 . S
Tb320 O324 2.596 . S
Tb320 O325 2.374 . S
Tb320 O333 2.343 . S
Tb320 O335 2.353 . S
Tb320 O337 2.427 . S
Tb320 O338 2.513 . S
C321 O325 1.251 . S
C321 O327 1.263 . S
Tb322 O324 2.343 . S
Tb322 O327 2.353 . S
Tb322 O330 2.427 . S
Tb322 O331 2.513 . S
Tb322 O332 2.453 . S
Tb322 O333 2.596 . S
Tb322 O334 2.374 . S
O323 Tb320 2.453 . S
O323 C339 1.245 . S
O324 Tb320 2.596 . S
O324 Tb322 2.343 . S
O324 C339 1.259 . S
O325 Tb320 2.374 . S
O325 C321 1.251 . S
C326 O330 1.275 . S
C326 O331 1.246 . S
O327 C321 1.263 . S
O327 Tb322 2.353 . S
C328 O332 1.245 . S
C328 O333 1.259 . S
C329 O334 1.250 . S
C329 O335 1.263 . S
O330 Tb322 2.427 . S
O330 C326 1.275 . S
O331 Tb322 2.513 . S
O331 C326 1.246 . S
O332 Tb322 2.453 . S
O332 C328 1.245 . S
O333 Tb320 2.343 . S
O333 Tb322 2.596 . S
O333 C328 1.259 . S
O334 Tb322 2.374 . S
O334 C329 1.250 . S
O335 Tb320 2.353 . S
O335 C329 1.263 . S
C336 O337 1.275 . S
C336 O338 1.246 . S
O337 Tb320 2.427 . S
O337 C336 1.275 . S
O338 Tb320 2.513 . S
O338 C336 1.246 . S
C339 O323 1.245 . S
C339 O324 1.259 . S
Tb340 O343 2.453 . S
Tb340 O344 2.594 1_545 S
Tb340 O345 2.374 1_545 S
Tb340 O353 2.343 1_545 S
Tb340 O355 2.353 . S
Tb340 O357 2.427 . S
Tb340 O358 2.513 1_545 S
C341 O345 1.251 . S
C341 O347 1.263 . S
Tb342 O344 2.348 . S
Tb342 O347 2.353 . S
Tb342 O350 2.427 . S
Tb342 O351 2.513 1_565 S
Tb342 O352 2.453 . S
Tb342 O353 2.596 . S
Tb342 O354 2.374 1_565 S
O343 Tb340 2.453 . S
O343 C359 1.251 . S
O344 Tb340 2.594 1_565 S
O344 Tb342 2.348 . S
O344 C359 1.257 1_565 S
O345 Tb340 2.374 1_565 S
O345 C341 1.251 . S
C346 O350 1.275 . S
C346 O351 1.246 1_565 S
O347 C341 1.263 . S
O347 Tb342 2.353 . S
C348 O352 1.245 . S
C348 O353 1.259 . S
C349 O354 1.250 . S
C349 O355 1.263 . S
O350 Tb342 2.427 . S
O350 C346 1.275 . S
O351 Tb342 2.513 1_545 S
O351 C346 1.246 1_545 S
O352 Tb342 2.453 . S
O352 C348 1.245 . S
O353 Tb340 2.343 1_565 S
O353 Tb342 2.596 . S
O353 C348 1.259 . S
O354 Tb342 2.374 1_545 S
O354 C349 1.250 . S
O355 Tb340 2.353 . S
O355 C349 1.263 . S
C356 O357 1.275 1_565 S
C356 O358 1.246 . S
O357 Tb340 2.427 . S
O357 C356 1.275 1_545 S
O358 Tb340 2.513 1_565 S
O358 C356 1.246 . S
C359 O343 1.251 . S
C359 O344 1.257 1_545 S
Tb360 O363 2.453 . S
Tb360 O364 2.594 1_545 S
Tb360 O365 2.374 1_545 S
Tb360 O373 2.343 1_545 S
Tb360 O375 2.353 . S
Tb360 O377 2.427 . S
Tb360 O378 2.513 1_545 S
C361 O365 1.251 . S
C361 O367 1.263 . S
Tb362 O364 2.348 . S
Tb362 O367 2.353 . S
Tb362 O370 2.427 . S
Tb362 O371 2.513 1_565 S
Tb362 O372 2.453 . S
Tb362 O373 2.596 . S
Tb362 O374 2.374 1_565 S
O363 Tb360 2.453 . S
O363 C379 1.251 . S
O364 Tb360 2.594 1_565 S
O364 Tb362 2.348 . S
O364 C379 1.257 1_565 S
O365 Tb360 2.374 1_565 S
O365 C361 1.251 . S
C366 O370 1.275 . S
C366 O371 1.246 1_565 S
O367 C361 1.263 . S
O367 Tb362 2.353 . S
C368 O372 1.245 . S
C368 O373 1.259 . S
C369 O374 1.250 . S
C369 O375 1.263 . S
O370 Tb362 2.427 . S
O370 C366 1.275 . S
O371 Tb362 2.513 1_545 S
O371 C366 1.246 1_545 S
O372 Tb362 2.453 . S
O372 C368 1.245 . S
O373 Tb360 2.343 1_565 S
O373 Tb362 2.596 . S
O373 C368 1.259 . S
O374 Tb362 2.374 1_545 S
O374 C369 1.250 . S
O375 Tb360 2.353 . S
O375 C369 1.263 . S
C376 O377 1.275 1_565 S
C376 O378 1.246 . S
O377 Tb360 2.427 . S
O377 C376 1.275 1_545 S
O378 Tb360 2.513 1_565 S
O378 C376 1.246 . S
C379 O363 1.251 . S
C379 O364 1.257 1_545 S
Tb380 O383 2.453 . S
Tb380 O384 2.596 . S
Tb380 O385 2.374 . S
Tb380 O393 2.343 . S
Tb380 O395 2.353 . S
Tb380 O397 2.427 . S
Tb380 O398 2.513 . S
C381 O385 1.251 . S
C381 O387 1.263 . S
Tb382 O384 2.343 . S
Tb382 O387 2.353 . S
Tb382 O390 2.427 . S
Tb382 O391 2.513 . S
Tb382 O392 2.453 . S
Tb382 O393 2.596 . S
Tb382 O394 2.374 . S
O383 Tb380 2.453 . S
O383 C399 1.245 . S
O384 Tb380 2.596 . S
O384 Tb382 2.343 . S
O384 C399 1.259 . S
O385 Tb380 2.374 . S
O385 C381 1.251 . S
C386 O390 1.275 . S
C386 O391 1.246 . S
O387 C381 1.263 . S
O387 Tb382 2.353 . S
C388 O392 1.245 . S
C388 O393 1.259 . S
C389 O394 1.250 . S
C389 O395 1.263 . S
O390 Tb382 2.427 . S
O390 C386 1.275 . S
O391 Tb382 2.513 . S
O391 C386 1.246 . S
O392 Tb382 2.453 . S
O392 C388 1.245 . S
O393 Tb380 2.343 . S
O393 Tb382 2.596 . S
O393 C388 1.259 . S
O394 Tb382 2.374 . S
O394 C389 1.250 . S
O395 Tb380 2.353 . S
O395 C389 1.263 . S
C396 O397 1.275 . S
C396 O398 1.246 . S
O397 Tb380 2.427 . S
O397 C396 1.275 . S
O398 Tb380 2.513 . S
O398 C396 1.246 . S
C399 O383 1.245 . S
C399 O384 1.259 . S
Tb400 O403 2.453 . S
Tb400 O404 2.596 . S
Tb400 O405 2.374 . S
Tb400 O413 2.343 . S
Tb400 O415 2.353 . S
Tb400 O417 2.427 . S
Tb400 O418 2.513 . S
C401 O405 1.251 . S
C401 O407 1.263 . S
Tb402 O404 2.343 . S
Tb402 O407 2.353 . S
Tb402 O410 2.427 . S
Tb402 O411 2.513 . S
Tb402 O412 2.453 . S
Tb402 O413 2.596 . S
Tb402 O414 2.374 . S
O403 Tb400 2.453 . S
O403 C419 1.245 . S
O404 Tb400 2.596 . S
O404 Tb402 2.343 . S
O404 C419 1.259 . S
O405 Tb400 2.374 . S
O405 C401 1.251 . S
C406 O410 1.275 . S
C406 O411 1.246 . S
O407 C401 1.263 . S
O407 Tb402 2.353 . S
C408 O412 1.245 . S
C408 O413 1.259 . S
C409 O414 1.250 . S
C409 O415 1.263 . S
O410 Tb402 2.427 . S
O410 C406 1.275 . S
O411 Tb402 2.513 . S
O411 C406 1.246 . S
O412 Tb402 2.453 . S
O412 C408 1.245 . S
O413 Tb400 2.343 . S
O413 Tb402 2.596 . S
O413 C408 1.259 . S
O414 Tb402 2.374 . S
O414 C409 1.250 . S
O415 Tb400 2.353 . S
O415 C409 1.263 . S
C416 O417 1.275 . S
C416 O418 1.246 . S
O417 Tb400 2.427 . S
O417 C416 1.275 . S
O418 Tb400 2.513 . S
O418 C416 1.246 . S
C419 O403 1.245 . S
C419 O404 1.259 . S
Tb420 O423 2.453 . S
Tb420 O424 2.596 . S
Tb420 O425 2.374 1_545 S
Tb420 O433 2.348 . S
Tb420 O435 2.353 . S
Tb420 O437 2.427 . S
Tb420 O438 2.513 1_545 S
C421 O425 1.251 . S
C421 O427 1.263 . S
Tb422 O424 2.343 1_565 S
Tb422 O427 2.353 . S
Tb422 O430 2.427 . S
Tb422 O431 2.513 1_565 S
Tb422 O432 2.453 . S
Tb422 O433 2.594 1_565 S
Tb422 O434 2.374 1_565 S
O423 Tb420 2.453 . S
O423 C439 1.245 . S
O424 Tb420 2.596 . S
O424 Tb422 2.343 1_545 S
O424 C439 1.259 . S
O425 Tb420 2.374 1_565 S
O425 C421 1.251 . S
C426 O430 1.275 1_545 S
C426 O431 1.246 . S
O427 C421 1.263 . S
O427 Tb422 2.353 . S
C428 O432 1.251 . S
C428 O433 1.257 1_565 S
C429 O434 1.250 . S
C429 O435 1.263 . S
O430 Tb422 2.427 . S
O430 C426 1.275 1_565 S
O431 Tb422 2.513 1_545 S
O431 C426 1.246 . S
O432 Tb422 2.453 . S
O432 C428 1.251 . S
O433 Tb420 2.348 . S
O433 Tb422 2.594 1_545 S
O433 C428 1.257 1_545 S
O434 Tb422 2.374 1_545 S
O434 C429 1.250 . S
O435 Tb420 2.353 . S
O435 C429 1.263 . S
C436 O437 1.275 . S
C436 O438 1.246 1_545 S
O437 Tb420 2.427 . S
O437 C436 1.275 . S
O438 Tb420 2.513 1_565 S
O438 C436 1.246 1_565 S
C439 O423 1.245 . S
C439 O424 1.259 . S
Tb440 O443 2.453 . S
Tb440 O444 2.596 . S
Tb440 O445 2.374 1_545 S
Tb440 O453 2.348 . S
Tb440 O455 2.353 . S
Tb440 O457 2.427 . S
Tb440 O458 2.513 1_545 S
C441 O445 1.251 . S
C441 O447 1.263 . S
Tb442 O444 2.343 1_565 S
Tb442 O447 2.353 . S
Tb442 O450 2.427 . S
Tb442 O451 2.513 1_565 S
Tb442 O452 2.453 . S
Tb442 O453 2.594 1_565 S
Tb442 O454 2.374 1_565 S
O443 Tb440 2.453 . S
O443 C459 1.245 . S
O444 Tb440 2.596 . S
O444 Tb442 2.343 1_545 S
O444 C459 1.259 . S
O445 Tb440 2.374 1_565 S
O445 C441 1.251 . S
C446 O450 1.275 1_545 S
C446 O451 1.246 . S
O447 C441 1.263 . S
O447 Tb442 2.353 . S
C448 O452 1.251 . S
C448 O453 1.257 1_565 S
C449 O454 1.250 . S
C449 O455 1.263 . S
O450 Tb442 2.427 . S
O450 C446 1.275 1_565 S
O451 Tb442 2.513 1_545 S
O451 C446 1.246 . S
O452 Tb442 2.453 . S
O452 C448 1.251 . S
O453 Tb440 2.348 . S
O453 Tb442 2.594 1_545 S
O453 C448 1.257 1_545 S
O454 Tb442 2.374 1_545 S
O454 C449 1.250 . S
O455 Tb440 2.353 . S
O455 C449 1.263 . S
C456 O457 1.275 . S
C456 O458 1.246 1_545 S
O457 Tb440 2.427 . S
O457 C456 1.275 . S
O458 Tb440 2.513 1_565 S
O458 C456 1.246 1_565 S
C459 O443 1.245 . S
C459 O444 1.259 . S
Tb460 O463 2.453 . S
Tb460 O464 2.596 . S
Tb460 O465 2.374 . S
Tb460 O473 2.343 . S
Tb460 O475 2.353 . S
Tb460 O477 2.427 . S
Tb460 O478 2.513 . S
C461 O465 1.251 . S
C461 O467 1.263 . S
Tb462 O464 2.343 . S
Tb462 O467 2.353 . S
Tb462 O470 2.427 . S
Tb462 O471 2.513 . S
Tb462 O472 2.453 . S
Tb462 O473 2.596 . S
Tb462 O474 2.374 . S
O463 Tb460 2.453 . S
O463 C479 1.245 . S
O464 Tb460 2.596 . S
O464 Tb462 2.343 . S
O464 C479 1.259 . S
O465 Tb460 2.374 . S
O465 C461 1.251 . S
C466 O470 1.275 . S
C466 O471 1.246 . S
O467 C461 1.263 . S
O467 Tb462 2.353 . S
C468 O472 1.245 . S
C468 O473 1.259 . S
C469 O474 1.250 . S
C469 O475 1.263 . S
O470 Tb462 2.427 . S
O470 C466 1.275 . S
O471 Tb462 2.513 . S
O471 C466 1.246 . S
O472 Tb462 2.453 . S
O472 C468 1.245 . S
O473 Tb460 2.343 . S
O473 Tb462 2.596 . S
O473 C468 1.259 . S
O474 Tb462 2.374 . S
O474 C469 1.250 . S
O475 Tb460 2.353 . S
O475 C469 1.263 . S
C476 O477 1.275 . S
C476 O478 1.246 . S
O477 Tb460 2.427 . S
O477 C476 1.275 . S
O478 Tb460 2.513 . S
O478 C476 1.246 . S
C479 O463 1.245 . S
C479 O464 1.259 . S
Tb480 O483 2.453 . S
Tb480 O484 2.596 . S
Tb480 O485 2.374 . S
Tb480 O493 2.343 . S
Tb480 O495 2.353 . S
Tb480 O497 2.427 . S
Tb480 O498 2.513 . S
C481 O485 1.251 . S
C481 O487 1.263 . S
Tb482 O484 2.343 . S
Tb482 O487 2.353 . S
Tb482 O490 2.427 . S
Tb482 O491 2.513 . S
Tb482 O492 2.453 . S
Tb482 O493 2.596 . S
Tb482 O494 2.374 . S
O483 Tb480 2.453 . S
O483 C499 1.245 . S
O484 Tb480 2.596 . S
O484 Tb482 2.343 . S
O484 C499 1.259 . S
O485 Tb480 2.374 . S
O485 C481 1.251 . S
C486 O490 1.275 . S
C486 O491 1.246 . S
O487 C481 1.263 . S
O487 Tb482 2.353 . S
C488 O492 1.245 . S
C488 O493 1.259 . S
C489 O494 1.250 . S
C489 O495 1.263 . S
O490 Tb482 2.427 . S
O490 C486 1.275 . S
O491 Tb482 2.513 . S
O491 C486 1.246 . S
O492 Tb482 2.453 . S
O492 C488 1.245 . S
O493 Tb480 2.343 . S
O493 Tb482 2.596 . S
O493 C488 1.259 . S
O494 Tb482 2.374 . S
O494 C489 1.250 . S
O495 Tb480 2.353 . S
O495 C489 1.263 . S
C496 O497 1.275 . S
C496 O498 1.246 . S
O497 Tb480 2.427 . S
O497 C496 1.275 . S
O498 Tb480 2.513 . S
O498 C496 1.246 . S
C499 O483 1.245 . S
C499 O484 1.259 . S
Tb500 O503 2.453 . S
Tb500 O504 2.596 . S
Tb500 O505 2.374 . S
Tb500 O513 2.343 . S
Tb500 O515 2.353 . S
Tb500 O517 2.427 . S
Tb500 O518 2.513 . S
C501 O505 1.251 . S
C501 O507 1.263 . S
Tb502 O504 2.343 . S
Tb502 O507 2.353 . S
Tb502 O510 2.427 . S
Tb502 O511 2.513 . S
Tb502 O512 2.453 . S
Tb502 O513 2.596 . S
Tb502 O514 2.374 . S
O503 Tb500 2.453 . S
O503 C519 1.245 . S
O504 Tb500 2.596 . S
O504 Tb502 2.343 . S
O504 C519 1.259 . S
O505 Tb500 2.374 . S
O505 C501 1.251 . S
C506 O510 1.275 . S
C506 O511 1.246 . S
O507 C501 1.263 . S
O507 Tb502 2.353 . S
C508 O512 1.245 . S
C508 O513 1.259 . S
C509 O514 1.250 . S
C509 O515 1.263 . S
O510 Tb502 2.427 . S
O510 C506 1.275 . S
O511 Tb502 2.513 . S
O511 C506 1.246 . S
O512 Tb502 2.453 . S
O512 C508 1.245 . S
O513 Tb500 2.343 . S
O513 Tb502 2.596 . S
O513 C508 1.259 . S
O514 Tb502 2.374 . S
O514 C509 1.250 . S
O515 Tb500 2.353 . S
O515 C509 1.263 . S
C516 O517 1.275 . S
C516 O518 1.246 . S
O517 Tb500 2.427 . S
O517 C516 1.275 . S
O518 Tb500 2.513 . S
O518 C516 1.246 . S
C519 O503 1.245 . S
C519 O504 1.259 . S
Tb520 O523 2.453 1_554 S
Tb520 O524 2.596 1_554 S
Tb520 O525 2.374 1_554 S
Tb520 O533 2.343 . S
Tb520 O535 2.353 . S
Tb520 O537 2.427 . S
Tb520 O538 2.513 . S
C521 O525 1.251 . S
C521 O527 1.263 1_556 S
Tb522 O524 2.343 1_554 S
Tb522 O527 2.353 . S
Tb522 O530 2.427 1_554 S
Tb522 O531 2.513 1_554 S
Tb522 O532 2.453 . S
Tb522 O533 2.596 . S
Tb522 O534 2.374 . S
O523 Tb520 2.453 1_556 S
O523 C539 1.245 . S
O524 Tb520 2.596 1_556 S
O524 Tb522 2.343 1_556 S
O524 C539 1.259 . S
O525 Tb520 2.374 1_556 S
O525 C521 1.251 . S
C526 O530 1.275 . S
C526 O531 1.246 . S
O527 C521 1.263 1_554 S
O527 Tb522 2.353 . S
C528 O532 1.245 . S
C528 O533 1.259 . S
C529 O534 1.250 . S
C529 O535 1.263 . S
O530 Tb522 2.427 1_556 S
O530 C526 1.275 . S
O531 Tb522 2.513 1_556 S
O531 C526 1.246 . S
O532 Tb522 2.453 . S
O532 C528 1.245 . S
O533 Tb520 2.343 . S
O533 Tb522 2.596 . S
O533 C528 1.259 . S
O534 Tb522 2.374 . S
O534 C529 1.250 . S
O535 Tb520 2.353 . S
O535 C529 1.263 . S
C536 O537 1.275 . S
C536 O538 1.246 . S
O537 Tb520 2.427 . S
O537 C536 1.275 . S
O538 Tb520 2.513 . S
O538 C536 1.246 . S
C539 O523 1.245 . S
C539 O524 1.259 . S
Tb540 O543 2.453 1_554 S
Tb540 O544 2.596 1_554 S
Tb540 O545 2.374 1_554 S
Tb540 O553 2.343 . S
Tb540 O555 2.353 . S
Tb540 O557 2.427 . S
Tb540 O558 2.513 . S
C541 O545 1.251 . S
C541 O547 1.263 1_556 S
Tb542 O544 2.343 1_554 S
Tb542 O547 2.353 . S
Tb542 O550 2.427 1_554 S
Tb542 O551 2.513 1_554 S
Tb542 O552 2.453 . S
Tb542 O553 2.596 . S
Tb542 O554 2.374 . S
O543 Tb540 2.453 1_556 S
O543 C559 1.245 . S
O544 Tb540 2.596 1_556 S
O544 Tb542 2.343 1_556 S
O544 C559 1.259 . S
O545 Tb540 2.374 1_556 S
O545 C541 1.251 . S
C546 O550 1.275 . S
C546 O551 1.246 . S
O547 C541 1.263 1_554 S
O547 Tb542 2.353 . S
C548 O552 1.245 . S
C548 O553 1.259 . S
C549 O554 1.250 . S
C549 O555 1.263 . S
O550 Tb542 2.427 1_556 S
O550 C546 1.275 . S
O551 Tb542 2.513 1_556 S
O551 C546 1.246 . S
O552 Tb542 2.453 . S
O552 C548 1.245 . S
O553 Tb540 2.343 . S
O553 Tb542 2.596 . S
O553 C548 1.259 . S
O554 Tb542 2.374 . S
O554 C549 1.250 . S
O555 Tb540 2.353 . S
O555 C549 1.263 . S
C556 O557 1.275 . S
C556 O558 1.246 . S
O557 Tb540 2.427 . S
O557 C556 1.275 . S
O558 Tb540 2.513 . S
O558 C556 1.246 . S
C559 O543 1.245 . S
C559 O544 1.259 . S
Tb560 O563 2.453 . S
Tb560 O564 2.596 . S
Tb560 O565 2.374 . S
Tb560 O573 2.343 . S
Tb560 O575 2.353 . S
Tb560 O577 2.427 . S
Tb560 O578 2.513 . S
C561 O565 1.251 . S
C561 O567 1.263 . S
Tb562 O564 2.343 . S
Tb562 O567 2.353 . S
Tb562 O570 2.427 . S
Tb562 O571 2.513 . S
Tb562 O572 2.453 . S
Tb562 O573 2.596 . S
Tb562 O574 2.374 . S
O563 Tb560 2.453 . S
O563 C579 1.245 . S
O564 Tb560 2.596 . S
O564 Tb562 2.343 . S
O564 C579 1.259 . S
O565 Tb560 2.374 . S
O565 C561 1.251 . S
C566 O570 1.275 . S
C566 O571 1.246 . S
O567 C561 1.263 . S
O567 Tb562 2.353 . S
C568 O572 1.245 . S
C568 O573 1.259 . S
C569 O574 1.250 . S
C569 O575 1.263 . S
O570 Tb562 2.427 . S
O570 C566 1.275 . S
O571 Tb562 2.513 . S
O571 C566 1.246 . S
O572 Tb562 2.453 . S
O572 C568 1.245 . S
O573 Tb560 2.343 . S
O573 Tb562 2.596 . S
O573 C568 1.259 . S
O574 Tb562 2.374 . S
O574 C569 1.250 . S
O575 Tb560 2.353 . S
O575 C569 1.263 . S
C576 O577 1.275 . S
C576 O578 1.246 . S
O577 Tb560 2.427 . S
O577 C576 1.275 . S
O578 Tb560 2.513 . S
O578 C576 1.246 . S
C579 O563 1.245 . S
C579 O564 1.259 . S
Tb580 O583 2.453 . S
Tb580 O584 2.596 . S
Tb580 O585 2.374 . S
Tb580 O593 2.343 . S
Tb580 O595 2.353 . S
Tb580 O597 2.427 . S
Tb580 O598 2.513 . S
C581 O585 1.251 . S
C581 O587 1.263 . S
Tb582 O584 2.343 . S
Tb582 O587 2.353 . S
Tb582 O590 2.427 . S
Tb582 O591 2.513 . S
Tb582 O592 2.453 . S
Tb582 O593 2.596 . S
Tb582 O594 2.374 . S
O583 Tb580 2.453 . S
O583 C599 1.245 . S
O584 Tb580 2.596 . S
O584 Tb582 2.343 . S
O584 C599 1.259 . S
O585 Tb580 2.374 . S
O585 C581 1.251 . S
C586 O590 1.275 . S
C586 O591 1.246 . S
O587 C581 1.263 . S
O587 Tb582 2.353 . S
C588 O592 1.245 . S
C588 O593 1.259 . S
C589 O594 1.250 . S
C589 O595 1.263 . S
O590 Tb582 2.427 . S
O590 C586 1.275 . S
O591 Tb582 2.513 . S
O591 C586 1.246 . S
O592 Tb582 2.453 . S
O592 C588 1.245 . S
O593 Tb580 2.343 . S
O593 Tb582 2.596 . S
O593 C588 1.259 . S
O594 Tb582 2.374 . S
O594 C589 1.250 . S
O595 Tb580 2.353 . S
O595 C589 1.263 . S
C596 O597 1.275 . S
C596 O598 1.246 . S
O597 Tb580 2.427 . S
O597 C596 1.275 . S
O598 Tb580 2.513 . S
O598 C596 1.246 . S
C599 O583 1.245 . S
C599 O584 1.259 . S
Tb600 O603 2.453 . S
Tb600 O604 2.596 . S
Tb600 O605 2.374 . S
Tb600 O613 2.343 1_556 S
Tb600 O615 2.353 . S
Tb600 O617 2.427 1_556 S
Tb600 O618 2.513 1_556 S
C601 O605 1.251 . S
C601 O607 1.263 . S
Tb602 O604 2.343 . S
Tb602 O607 2.353 . S
Tb602 O610 2.427 . S
Tb602 O611 2.513 . S
Tb602 O612 2.453 1_556 S
Tb602 O613 2.596 1_556 S
Tb602 O614 2.374 1_556 S
O603 Tb600 2.453 . S
O603 C619 1.245 . S
O604 Tb600 2.596 . S
O604 Tb602 2.343 . S
O604 C619 1.259 . S
O605 Tb600 2.374 . S
O605 C601 1.251 . S
C606 O610 1.275 . S
C606 O611 1.246 . S
O607 C601 1.263 . S
O607 Tb602 2.353 . S
C608 O612 1.245 . S
C608 O613 1.259 . S
C609 O614 1.250 . S
C609 O615 1.263 1_554 S
O610 Tb602 2.427 . S
O610 C606 1.275 . S
O611 Tb602 2.513 . S
O611 C606 1.246 . S
O612 Tb602 2.453 1_554 S
O612 C608 1.245 . S
O613 Tb600 2.343 1_554 S
O613 Tb602 2.596 1_554 S
O613 C608 1.259 . S
O614 Tb602 2.374 1_554 S
O614 C609 1.250 . S
O615 Tb600 2.353 . S
O615 C609 1.263 1_556 S
C616 O617 1.275 . S
C616 O618 1.246 . S
O617 Tb600 2.427 1_554 S
O617 C616 1.275 . S
O618 Tb600 2.513 1_554 S
O618 C616 1.246 . S
C619 O603 1.245 . S
C619 O604 1.259 . S
Tb620 O623 2.453 . S
Tb620 O624 2.596 . S
Tb620 O625 2.374 . S
Tb620 O633 2.343 1_556 S
Tb620 O635 2.353 . S
Tb620 O637 2.427 1_556 S
Tb620 O638 2.513 1_556 S
C621 O625 1.251 . S
C621 O627 1.263 . S
Tb622 O624 2.343 . S
Tb622 O627 2.353 . S
Tb622 O630 2.427 . S
Tb622 O631 2.513 . S
Tb622 O632 2.453 1_556 S
Tb622 O633 2.596 1_556 S
Tb622 O634 2.374 1_556 S
O623 Tb620 2.453 . S
O623 C639 1.245 . S
O624 Tb620 2.596 . S
O624 Tb622 2.343 . S
O624 C639 1.259 . S
O625 Tb620 2.374 . S
O625 C621 1.251 . S
C626 O630 1.275 . S
C626 O631 1.246 . S
O627 C621 1.263 . S
O627 Tb622 2.353 . S
C628 O632 1.245 . S
C628 O633 1.259 . S
C629 O634 1.250 . S
C629 O635 1.263 1_554 S
O630 Tb622 2.427 . S
O630 C626 1.275 . S
O631 Tb622 2.513 . S
O631 C626 1.246 . S
O632 Tb622 2.453 1_554 S
O632 C628 1.245 . S
O633 Tb620 2.343 1_554 S
O633 Tb622 2.596 1_554 S
O633 C628 1.259 . S
O634 Tb622 2.374 1_554 S
O634 C629 1.250 . S
O635 Tb620 2.353 . S
O635 C629 1.263 1_556 S
C636 O637 1.275 . S
C636 O638 1.246 . S
O637 Tb620 2.427 1_554 S
O637 C636 1.275 . S
O638 Tb620 2.513 1_554 S
O638 C636 1.246 . S
C639 O623 1.245 . S
C639 O624 1.259 . S
H640 C652 0.930 1_554 S
H641 C654 0.930 . S
H642 C655 0.930 . S
H643 C659 0.959 . S
H644 C659 0.959 . S
H645 C659 0.961 . S
H646 C660 0.960 . S
H647 C660 0.961 . S
H648 C660 0.959 1_556 S
H649 C663 0.929 . S
H650 C664 0.931 1_556 S
H651 C666 0.930 . S
C652 H640 0.930 1_556 S
C652 C653 1.399 . S
C652 C657 1.399 . S
C653 C652 1.399 . S
C653 C654 1.376 . S
C654 H641 0.930 . S
C654 C653 1.376 . S
C654 C655 1.388 . S
C655 H642 0.930 . S
C655 C654 1.388 . S
C655 C656 1.390 . S
C656 C655 1.390 . S
C656 C657 1.394 . S
C656 C662 1.465 . S
C657 C652 1.399 . S
C657 C656 1.394 . S
C657 C658 1.516 1_556 S
C658 C657 1.516 1_554 S
C658 C659 1.502 . S
C658 C660 1.561 . S
C658 C661 1.526 . S
C659 H643 0.959 . S
C659 H644 0.959 . S
C659 H645 0.961 . S
C659 C658 1.502 . S
C660 H646 0.960 . S
C660 H647 0.961 . S
C660 H648 0.959 1_554 S
C660 C658 1.561 . S
C661 C658 1.526 . S
C661 C662 1.396 1_554 S
C661 C666 1.390 . S
C662 C656 1.465 . S
C662 C661 1.396 1_556 S
C662 C663 1.399 . S
C663 H649 0.929 . S
C663 C662 1.399 . S
C663 C664 1.385 1_556 S
C664 H650 0.931 1_554 S
C664 C663 1.385 1_554 S
C664 C665 1.389 . S
C665 C664 1.389 . S
C665 C666 1.387 . S
C666 H651 0.930 . S
C666 C661 1.390 . S
C666 C665 1.387 . S
H667 C679 0.930 . S
H668 C681 0.930 . S
H669 C682 0.930 . S
H670 C686 0.959 . S
H671 C686 0.959 1_655 S
H672 C686 0.961 . S
H673 C687 0.960 1_455 S
H674 C687 0.961 1_554 S
H675 C687 0.959 . S
H676 C690 0.929 . S
H677 C691 0.931 . S
H678 C693 0.930 . S
C679 H667 0.930 . S
C679 C680 1.411 . S
C679 C684 1.399 . S
C680 C679 1.411 . S
C680 C681 1.362 1_545 S
C681 H668 0.930 . S
C681 C680 1.362 1_565 S
C681 C682 1.388 . S
C682 H669 0.930 . S
C682 C681 1.388 . S
C682 C683 1.390 . S
C683 C682 1.390 . S
C683 C684 1.394 1_565 S
C683 C689 1.465 1_455 S
C684 C679 1.399 . S
C684 C683 1.394 1_545 S
C684 C685 1.572 1_556 S
C685 C684 1.572 1_554 S
C685 C686 1.523 . S
C685 C687 1.547 1_454 S
C685 C688 1.465 1_455 S
C686 H670 0.959 . S
C686 H671 0.959 1_455 S
C686 H672 0.961 . S
C686 C685 1.523 . S
C687 H673 0.960 1_655 S
C687 H674 0.961 1_556 S
C687 H675 0.959 . S
C687 C685 1.547 1_656 S
C688 C685 1.465 1_655 S
C688 C689 1.396 1_544 S
C688 C693 1.390 . S
C689 C683 1.465 1_655 S
C689 C688 1.396 1_566 S
C689 C690 1.399 . S
C690 H676 0.929 . S
C690 C689 1.399 . S
C690 C691 1.385 1_556 S
C691 H677 0.931 . S
C691 C690 1.385 1_554 S
C691 C692 1.389 . S
C692 C691 1.389 . S
C692 C693 1.387 1_565 S
C693 H678 0.930 . S
C693 C688 1.390 . S
C693 C692 1.387 1_545 S
H694 C706 0.930 . S
H695 C708 0.930 . S
H696 C709 0.930 . S
H697 C713 0.959 . S
H698 C713 0.959 . S
H699 C713 0.961 . S
H700 C714 0.960 . S
H701 C714 0.961 . S
H702 C714 0.959 . S
H703 C717 0.929 . S
H704 C718 0.931 . S
H705 C720 0.930 . S
C706 H694 0.930 . S
C706 C707 1.399 1_565 S
C706 C711 1.399 . S
C707 C706 1.399 1_545 S
C707 C708 1.376 . S
C708 H695 0.930 . S
C708 C707 1.376 . S
C708 C709 1.388 . S
C709 H696 0.930 . S
C709 C708 1.388 . S
C709 C710 1.390 . S
C710 C709 1.390 . S
C710 C711 1.394 1_545 S
C710 C716 1.465 . S
C711 C706 1.399 . S
C711 C710 1.394 1_565 S
C711 C712 1.516 . S
C712 C711 1.516 . S
C712 C713 1.502 . S
C712 C714 1.561 . S
C712 C715 1.526 . S
C713 H697 0.959 . S
C713 H698 0.959 . S
C713 H699 0.961 . S
C713 C712 1.502 . S
C714 H700 0.960 . S
C714 H701 0.961 . S
C714 H702 0.959 . S
C714 C712 1.561 . S
C715 C712 1.526 . S
C715 C716 1.396 1_565 S
C715 C720 1.390 . S
C716 C710 1.465 . S
C716 C715 1.396 1_545 S
C716 C717 1.399 . S
C717 H703 0.929 . S
C717 C716 1.399 . S
C717 C718 1.385 . S
C718 H704 0.931 . S
C718 C717 1.385 . S
C718 C719 1.398 . S
C719 C718 1.398 . S
C719 C720 1.380 1_545 S
C720 H705 0.930 . S
C720 C715 1.390 . S
C720 C719 1.380 1_565 S
H721 C733 0.930 . S
H722 C735 0.930 . S
H723 C736 0.930 . S
H724 C740 0.959 . S
H725 C740 0.959 . S
H726 C740 0.957 1_455 S
H727 C741 0.970 1_455 S
H728 C741 0.950 . S
H729 C741 0.962 1_455 S
H730 C744 0.929 . S
H731 C745 0.931 . S
H732 C747 0.930 . S
C733 H721 0.930 . S
C733 C734 1.399 . S
C733 C738 1.399 . S
C734 C733 1.399 . S
C734 C735 1.376 . S
C735 H722 0.930 . S
C735 C734 1.376 . S
C735 C736 1.388 . S
C736 H723 0.930 . S
C736 C735 1.388 . S
C736 C737 1.390 . S
C737 C736 1.390 . S
C737 C738 1.394 . S
C737 C743 1.465 1_455 S
C738 C733 1.399 . S
C738 C737 1.394 . S
C738 C739 1.516 1_455 S
C739 C738 1.516 1_655 S
C739 C740 1.502 . S
C739 C741 1.560 . S
C739 C742 1.526 . S
C740 H724 0.959 . S
C740 H725 0.959 . S
C740 H726 0.957 1_655 S
C740 C739 1.502 . S
C741 H727 0.970 1_655 S
C741 H728 0.950 . S
C741 H729 0.962 1_655 S
C741 C739 1.560 . S
C742 C739 1.526 . S
C742 C743 1.396 . S
C742 C747 1.390 . S
C743 C737 1.465 1_655 S
C743 C742 1.396 . S
C743 C744 1.399 . S
C744 H730 0.929 . S
C744 C743 1.399 . S
C744 C745 1.385 . S
C745 H731 0.931 . S
C745 C744 1.385 . S
C745 C746 1.389 . S
C746 C745 1.389 . S
C746 C747 1.387 . S
C747 H732 0.930 . S
C747 C742 1.390 . S
C747 C746 1.387 . S
H748 C760 0.927 1_554 S
H749 C762 0.930 . S
H750 C763 0.930 . S
H751 C767 0.959 . S
H752 C767 0.959 . S
H753 C767 0.961 . S
H754 C768 0.960 . S
H755 C768 0.961 1_554 S
H756 C768 0.959 . S
H757 C771 0.929 . S
H758 C772 0.931 . S
H759 C774 0.930 . S
C760 H748 0.927 1_556 S
C760 C761 1.399 . S
C760 C765 1.399 . S
C761 C760 1.399 . S
C761 C762 1.376 . S
C762 H749 0.930 . S
C762 C761 1.376 . S
C762 C763 1.388 . S
C763 H750 0.930 . S
C763 C762 1.388 . S
C763 C764 1.390 . S
C764 C763 1.390 . S
C764 C765 1.394 . S
C764 C770 1.465 . S
C765 C760 1.399 . S
C765 C764 1.394 . S
C765 C766 1.516 1_556 S
C766 C765 1.516 1_554 S
C766 C767 1.502 . S
C766 C768 1.561 1_554 S
C766 C769 1.526 . S
C767 H751 0.959 . S
C767 H752 0.959 . S
C767 H753 0.961 . S
C767 C766 1.502 . S
C768 H754 0.960 . S
C768 H755 0.961 1_556 S
C768 H756 0.959 . S
C768 C766 1.561 1_556 S
C769 C766 1.526 . S
C769 C770 1.396 1_554 S
C769 C774 1.390 . S
C770 C764 1.465 . S
C770 C769 1.396 1_556 S
C770 C771 1.399 . S
C771 H757 0.929 . S
C771 C770 1.399 . S
C771 C772 1.385 1_556 S
C772 H758 0.931 . S
C772 C771 1.385 1_554 S
C772 C773 1.389 . S
C773 C772 1.389 . S
C773 C774 1.387 . S
C774 H759 0.930 . S
C774 C769 1.390 . S
C774 C773 1.387 . S
H775 C787 0.930 . S
H776 C789 0.930 . S
H777 C790 0.930 . S
H778 C794 0.959 . S
H779 C794 0.959 . S
H780 C794 0.961 . S
H781 C795 0.960 . S
H782 C795 0.961 . S
H783 C795 0.959 . S
H784 C798 0.929 . S
H785 C799 0.931 . S
H786 C801 0.930 . S
C787 H775 0.930 . S
C787 C788 1.399 1_545 S
C787 C792 1.399 . S
C788 C787 1.399 1_565 S
C788 C789 1.376 . S
C789 H776 0.930 . S
C789 C788 1.376 . S
C789 C790 1.388 . S
C790 H777 0.930 . S
C790 C789 1.388 . S
C790 C791 1.390 . S
C791 C790 1.390 . S
C791 C792 1.394 1_565 S
C791 C797 1.465 . S
C792 C787 1.399 . S
C792 C791 1.394 1_545 S
C792 C793 1.516 . S
C793 C792 1.516 . S
C793 C794 1.502 . S
C793 C795 1.561 . S
C793 C796 1.526 . S
C794 H778 0.959 . S
C794 H779 0.959 . S
C794 H780 0.961 . S
C794 C793 1.502 . S
C795 H781 0.960 . S
C795 H782 0.961 . S
C795 H783 0.959 . S
C795 C793 1.561 . S
C796 C793 1.526 . S
C796 C797 1.396 1_545 S
C796 C801 1.390 . S
C797 C791 1.465 . S
C797 C796 1.396 1_565 S
C797 C798 1.399 . S
C798 H784 0.929 . S
C798 C797 1.399 . S
C798 C799 1.385 . S
C799 H785 0.931 . S
C799 C798 1.385 . S
C799 C800 1.408 . S
C800 C799 1.408 . S
C800 C801 1.373 1_565 S
C801 H786 0.930 . S
C801 C796 1.390 . S
C801 C800 1.373 1_545 S
H802 C814 0.930 . S
H803 C816 0.930 . S
H804 C817 0.930 . S
H805 C821 0.959 . S
H806 C821 0.959 . S
H807 C821 0.961 . S
H808 C822 0.960 1_655 S
H809 C822 0.961 . S
H810 C822 0.959 . S
H811 C825 0.929 . S
H812 C826 0.931 . S
H813 C828 0.930 . S
C814 H802 0.930 . S
C814 C815 1.399 . S
C814 C819 1.399 . S
C815 C814 1.399 . S
C815 C816 1.376 . S
C816 H803 0.930 . S
C816 C815 1.376 . S
C816 C817 1.388 . S
C817 H804 0.930 . S
C817 C816 1.388 . S
C817 C818 1.390 . S
C818 C817 1.390 . S
C818 C819 1.394 . S
C818 C824 1.465 1_655 S
C819 C814 1.399 . S
C819 C818 1.394 . S
C819 C820 1.516 1_655 S
C820 C819 1.516 1_455 S
C820 C821 1.502 . S
C820 C822 1.561 . S
C820 C823 1.526 . S
C821 H805 0.959 . S
C821 H806 0.959 . S
C821 H807 0.961 . S
C821 C820 1.502 . S
C822 H808 0.960 1_455 S
C822 H809 0.961 . S
C822 H810 0.959 . S
C822 C820 1.561 . S
C823 C820 1.526 . S
C823 C824 1.396 . S
C823 C828 1.390 . S
C824 C818 1.465 1_455 S
C824 C823 1.396 . S
C824 C825 1.399 . S
C825 H811 0.929 . S
C825 C824 1.399 . S
C825 C826 1.385 . S
C826 H812 0.931 . S
C826 C825 1.385 . S
C826 C827 1.389 . S
C827 C826 1.389 . S
C827 C828 1.387 . S
C828 H813 0.930 . S
C828 C823 1.390 . S
C828 C827 1.387 . S
H829 C841 0.930 . S
H830 C843 0.930 . S
H831 C844 0.930 . S
H832 C848 0.959 . S
H833 C848 0.959 . S
H834 C848 0.961 . S
H835 C849 0.960 . S
H836 C849 0.961 . S
H837 C849 0.959 . S
H838 C852 0.929 . S
H839 C853 0.931 . S
H840 C855 0.930 . S
C841 H829 0.930 . S
C841 C842 1.399 . S
C841 C846 1.399 . S
C842 C841 1.399 . S
C842 C843 1.376 . S
C843 H830 0.930 . S
C843 C842 1.376 . S
C843 C844 1.388 . S
C844 H831 0.930 . S
C844 C843 1.388 . S
C844 C845 1.390 . S
C845 C844 1.390 . S
C845 C846 1.394 . S
C845 C851 1.465 . S
C846 C841 1.399 . S
C846 C845 1.394 . S
C846 C847 1.516 . S
C847 C846 1.516 . S
C847 C848 1.502 . S
C847 C849 1.561 . S
C847 C850 1.526 . S
C848 H832 0.959 . S
C848 H833 0.959 . S
C848 H834 0.961 . S
C848 C847 1.502 . S
C849 H835 0.960 . S
C849 H836 0.961 . S
C849 H837 0.959 . S
C849 C847 1.561 . S
C850 C847 1.526 . S
C850 C851 1.396 . S
C850 C855 1.390 . S
C851 C845 1.465 . S
C851 C850 1.396 . S
C851 C852 1.399 . S
C852 H838 0.929 . S
C852 C851 1.399 . S
C852 C853 1.385 . S
C853 H839 0.931 . S
C853 C852 1.385 . S
C853 C854 1.389 . S
C854 C853 1.389 . S
C854 C855 1.387 . S
C855 H840 0.930 . S
C855 C850 1.390 . S
C855 C854 1.387 . S
H856 C868 0.930 . S
H857 C870 0.930 . S
H858 C871 0.930 . S
H859 C875 0.959 . S
H860 C875 0.959 1_455 S
H861 C875 0.961 . S
H862 C876 0.960 1_655 S
H863 C876 0.961 . S
H864 C876 0.959 . S
H865 C879 0.929 . S
H866 C880 0.931 . S
H867 C882 0.930 . S
C868 H856 0.930 . S
C868 C869 1.399 . S
C868 C873 1.399 . S
C869 C868 1.399 . S
C869 C870 1.376 . S
C870 H857 0.930 . S
C870 C869 1.376 . S
C870 C871 1.388 . S
C871 H858 0.930 . S
C871 C870 1.388 . S
C871 C872 1.390 . S
C872 C871 1.390 . S
C872 C873 1.394 . S
C872 C878 1.465 1_655 S
C873 C868 1.399 . S
C873 C872 1.394 . S
C873 C874 1.546 . S
C874 C873 1.546 . S
C874 C875 1.512 . S
C874 C876 1.552 1_655 S
C874 C877 1.494 1_655 S
C875 H859 0.959 . S
C875 H860 0.959 1_655 S
C875 H861 0.961 . S
C875 C874 1.512 . S
C876 H862 0.960 1_455 S
C876 H863 0.961 . S
C876 H864 0.959 . S
C876 C874 1.552 1_455 S
C877 C874 1.494 1_455 S
C877 C878 1.396 . S
C877 C882 1.390 . S
C878 C872 1.465 1_455 S
C878 C877 1.396 . S
C878 C879 1.399 . S
C879 H865 0.929 . S
C879 C878 1.399 . S
C879 C880 1.385 . S
C880 H866 0.931 . S
C880 C879 1.385 . S
C880 C881 1.389 . S
C881 C880 1.389 . S
C881 C882 1.387 . S
C882 H867 0.930 . S
C882 C877 1.390 . S
C882 C881 1.387 . S
H883 C895 0.930 . S
H884 C897 0.930 . S
H885 C898 0.930 . S
H886 C902 0.959 . S
H887 C902 0.959 . S
H888 C902 0.961 . S
H889 C903 0.960 . S
H890 C903 0.961 . S
H891 C903 0.959 . S
H892 C906 0.929 . S
H893 C907 0.931 . S
H894 C909 0.930 . S
C895 H883 0.930 . S
C895 C896 1.399 . S
C895 C900 1.399 . S
C896 C895 1.399 . S
C896 C897 1.376 . S
C897 H884 0.930 . S
C897 C896 1.376 . S
C897 C898 1.388 . S
C898 H885 0.930 . S
C898 C897 1.388 . S
C898 C899 1.390 . S
C899 C898 1.390 . S
C899 C900 1.394 . S
C899 C905 1.465 . S
C900 C895 1.399 . S
C900 C899 1.394 . S
C900 C901 1.516 . S
C901 C900 1.516 . S
C901 C902 1.502 . S
C901 C903 1.561 . S
C901 C904 1.526 . S
C902 H886 0.959 . S
C902 H887 0.959 . S
C902 H888 0.961 . S
C902 C901 1.502 . S
C903 H889 0.960 . S
C903 H890 0.961 . S
C903 H891 0.959 . S
C903 C901 1.561 . S
C904 C901 1.526 . S
C904 C905 1.396 . S
C904 C909 1.390 . S
C905 C899 1.465 . S
C905 C904 1.396 . S
C905 C906 1.399 . S
C906 H892 0.929 . S
C906 C905 1.399 . S
C906 C907 1.385 . S
C907 H893 0.931 . S
C907 C906 1.385 . S
C907 C908 1.389 . S
C908 C907 1.389 . S
C908 C909 1.387 . S
C909 H894 0.930 . S
C909 C904 1.390 . S
C909 C908 1.387 . S
H910 C922 0.930 . S
H911 C924 0.930 . S
H912 C925 0.930 . S
H913 C929 0.959 . S
H914 C929 0.959 . S
H915 C929 0.961 . S
H916 C930 0.960 . S
H917 C930 0.961 . S
H918 C930 0.959 . S
H919 C933 0.929 . S
H920 C934 0.931 . S
H921 C936 0.930 . S
C922 H910 0.930 . S
C922 C923 1.399 . S
C922 C927 1.399 . S
C923 C922 1.399 . S
C923 C924 1.376 . S
C924 H911 0.930 . S
C924 C923 1.376 . S
C924 C925 1.388 . S
C925 H912 0.930 . S
C925 C924 1.388 . S
C925 C926 1.390 . S
C926 C925 1.390 . S
C926 C927 1.394 . S
C926 C932 1.465 . S
C927 C922 1.399 . S
C927 C926 1.394 . S
C927 C928 1.516 . S
C928 C927 1.516 . S
C928 C929 1.502 . S
C928 C930 1.561 . S
C928 C931 1.526 . S
C929 H913 0.959 . S
C929 H914 0.959 . S
C929 H915 0.961 . S
C929 C928 1.502 . S
C930 H916 0.960 . S
C930 H917 0.961 . S
C930 H918 0.959 . S
C930 C928 1.561 . S
C931 C928 1.526 . S
C931 C932 1.396 . S
C931 C936 1.390 . S
C932 C926 1.465 . S
C932 C931 1.396 . S
C932 C933 1.399 . S
C933 H919 0.929 . S
C933 C932 1.399 . S
C933 C934 1.385 . S
C934 H920 0.931 . S
C934 C933 1.385 . S
C934 C935 1.389 . S
C935 C934 1.389 . S
C935 C936 1.387 . S
C936 H921 0.930 . S
C936 C931 1.390 . S
C936 C935 1.387 . S
H937 C949 0.930 . S
H938 C951 0.930 . S
H939 C952 0.930 . S
H940 C956 0.959 . S
H941 C956 0.959 . S
H942 C956 0.961 . S
H943 C957 0.960 . S
H944 C957 0.961 . S
H945 C957 0.959 . S
H946 C960 0.929 . S
H947 C961 0.931 . S
H948 C963 0.930 . S
C949 H937 0.930 . S
C949 C950 1.399 . S
C949 C954 1.399 . S
C950 C949 1.399 . S
C950 C951 1.376 . S
C951 H938 0.930 . S
C951 C950 1.376 . S
C951 C952 1.388 . S
C952 H939 0.930 . S
C952 C951 1.388 . S
C952 C953 1.390 . S
C953 C952 1.390 . S
C953 C954 1.394 . S
C953 C959 1.465 . S
C954 C949 1.399 . S
C954 C953 1.394 . S
C954 C955 1.516 . S
C955 C954 1.516 . S
C955 C956 1.502 . S
C955 C957 1.561 . S
C955 C958 1.526 . S
C956 H940 0.959 . S
C956 H941 0.959 . S
C956 H942 0.961 . S
C956 C955 1.502 . S
C957 H943 0.960 . S
C957 H944 0.961 . S
C957 H945 0.959 . S
C957 C955 1.561 . S
C958 C955 1.526 . S
C958 C959 1.396 . S
C958 C963 1.390 . S
C959 C953 1.465 . S
C959 C958 1.396 . S
C959 C960 1.399 . S
C960 H946 0.929 . S
C960 C959 1.399 . S
C960 C961 1.385 . S
C961 H947 0.931 . S
C961 C960 1.385 . S
C961 C962 1.389 . S
C962 C961 1.389 . S
C962 C963 1.387 . S
C963 H948 0.930 . S
C963 C958 1.390 . S
C963 C962 1.387 . S
H964 C976 0.930 . S
H965 C978 0.930 . S
H966 C979 0.930 . S
H967 C983 0.959 . S
H968 C983 0.959 . S
H969 C983 0.961 . S
H970 C984 0.960 . S
H971 C984 0.961 . S
H972 C984 0.959 . S
H973 C987 0.929 . S
H974 C988 0.931 . S
H975 C990 0.930 . S
C976 H964 0.930 . S
C976 C977 1.395 . S
C976 C981 1.399 . S
C977 C976 1.395 . S
C977 C978 1.382 1_565 S
C978 H965 0.930 . S
C978 C977 1.382 1_545 S
C978 C979 1.388 . S
C979 H966 0.930 . S
C979 C978 1.388 . S
C979 C980 1.390 . S
C980 C979 1.390 . S
C980 C981 1.394 1_545 S
C980 C986 1.465 . S
C981 C976 1.399 . S
C981 C980 1.394 1_565 S
C981 C982 1.516 . S
C982 C981 1.516 . S
C982 C983 1.502 . S
C982 C984 1.561 . S
C982 C985 1.526 . S
C983 H967 0.959 . S
C983 H968 0.959 . S
C983 H969 0.961 . S
C983 C982 1.502 . S
C984 H970 0.960 . S
C984 H971 0.961 . S
C984 H972 0.959 . S
C984 C982 1.561 . S
C985 C982 1.526 . S
C985 C986 1.396 1_565 S
C985 C990 1.390 . S
C986 C980 1.465 . S
C986 C985 1.396 1_545 S
C986 C987 1.399 . S
C987 H973 0.929 . S
C987 C986 1.399 . S
C987 C988 1.385 . S
C988 H974 0.931 . S
C988 C987 1.385 . S
C988 C989 1.389 . S
C989 C988 1.389 . S
C989 C990 1.387 1_545 S
C990 H975 0.930 . S
C990 C985 1.390 . S
C990 C989 1.387 1_565 S
H991 C1003 0.930 . S
H992 C1005 0.930 . S
H993 C1006 0.930 . S
H994 C1010 0.959 . S
H995 C1010 0.959 . S
H996 C1010 0.961 . S
H997 C1011 0.960 . S
H998 C1011 0.961 . S
H999 C1011 0.959 . S
H1000 C1014 0.929 . S
H1001 C1015 0.931 . S
H1002 C1017 0.930 . S
C1003 H991 0.930 . S
C1003 C1004 1.399 . S
C1003 C1008 1.399 . S
C1004 C1003 1.399 . S
C1004 C1005 1.376 . S
C1005 H992 0.930 . S
C1005 C1004 1.376 . S
C1005 C1006 1.388 . S
C1006 H993 0.930 . S
C1006 C1005 1.388 . S
C1006 C1007 1.390 . S
C1007 C1006 1.390 . S
C1007 C1008 1.394 . S
C1007 C1013 1.465 . S
C1008 C1003 1.399 . S
C1008 C1007 1.394 . S
C1008 C1009 1.516 . S
C1009 C1008 1.516 . S
C1009 C1010 1.502 . S
C1009 C1011 1.561 . S
C1009 C1012 1.526 . S
C1010 H994 0.959 . S
C1010 H995 0.959 . S
C1010 H996 0.961 . S
C1010 C1009 1.502 . S
C1011 H997 0.960 . S
C1011 H998 0.961 . S
C1011 H999 0.959 . S
C1011 C1009 1.561 . S
C1012 C1009 1.526 . S
C1012 C1013 1.396 . S
C1012 C1017 1.390 . S
C1013 C1007 1.465 . S
C1013 C1012 1.396 . S
C1013 C1014 1.399 . S
C1014 H1000 0.929 . S
C1014 C1013 1.399 . S
C1014 C1015 1.385 . S
C1015 H1001 0.931 . S
C1015 C1014 1.385 . S
C1015 C1016 1.389 . S
C1016 C1015 1.389 . S
C1016 C1017 1.387 . S
C1017 H1002 0.930 . S
C1017 C1012 1.390 . S
C1017 C1016 1.387 . S
H1018 C1030 0.930 . S
H1019 C1032 0.930 . S
H1020 C1033 0.930 . S
H1021 C1037 0.959 . S
H1022 C1037 0.959 . S
H1023 C1037 0.961 . S
H1024 C1038 0.960 . S
H1025 C1038 0.961 . S
H1026 C1038 0.959 . S
H1027 C1041 0.929 . S
H1028 C1042 0.931 . S
H1029 C1044 0.930 . S
C1030 H1018 0.930 . S
C1030 C1031 1.399 . S
C1030 C1035 1.399 . S
C1031 C1030 1.399 . S
C1031 C1032 1.376 . S
C1032 H1019 0.930 . S
C1032 C1031 1.376 . S
C1032 C1033 1.388 . S
C1033 H1020 0.930 . S
C1033 C1032 1.388 . S
C1033 C1034 1.390 . S
C1034 C1033 1.390 . S
C1034 C1035 1.394 . S
C1034 C1040 1.465 . S
C1035 C1030 1.399 . S
C1035 C1034 1.394 . S
C1035 C1036 1.516 . S
C1036 C1035 1.516 . S
C1036 C1037 1.502 . S
C1036 C1038 1.561 . S
C1036 C1039 1.526 . S
C1037 H1021 0.959 . S
C1037 H1022 0.959 . S
C1037 H1023 0.961 . S
C1037 C1036 1.502 . S
C1038 H1024 0.960 . S
C1038 H1025 0.961 . S
C1038 H1026 0.959 . S
C1038 C1036 1.561 . S
C1039 C1036 1.526 . S
C1039 C1040 1.396 . S
C1039 C1044 1.390 . S
C1040 C1034 1.465 . S
C1040 C1039 1.396 . S
C1040 C1041 1.399 . S
C1041 H1027 0.929 . S
C1041 C1040 1.399 . S
C1041 C1042 1.385 . S
C1042 H1028 0.931 . S
C1042 C1041 1.385 . S
C1042 C1043 1.389 . S
C1043 C1042 1.389 . S
C1043 C1044 1.387 . S
C1044 H1029 0.930 . S
C1044 C1039 1.390 . S
C1044 C1043 1.387 . S
H1045 C1057 0.930 . S
H1046 C1059 0.930 . S
H1047 C1060 0.930 . S
H1048 C1064 0.959 . S
H1049 C1064 0.959 . S
H1050 C1064 0.961 . S
H1051 C1065 0.960 . S
H1052 C1065 0.961 . S
H1053 C1065 0.959 . S
H1054 C1068 0.929 . S
H1055 C1069 0.931 . S
H1056 C1071 0.930 . S
C1057 H1045 0.930 . S
C1057 C1058 1.399 . S
C1057 C1062 1.399 . S
C1058 C1057 1.399 . S
C1058 C1059 1.376 . S
C1059 H1046 0.930 . S
C1059 C1058 1.376 . S
C1059 C1060 1.388 . S
C1060 H1047 0.930 . S
C1060 C1059 1.388 . S
C1060 C1061 1.390 . S
C1061 C1060 1.390 . S
C1061 C1062 1.394 . S
C1061 C1067 1.465 . S
C1062 C1057 1.399 . S
C1062 C1061 1.394 . S
C1062 C1063 1.516 1_556 S
C1063 C1062 1.516 1_554 S
C1063 C1064 1.502 . S
C1063 C1065 1.561 1_554 S
C1063 C1066 1.526 . S
C1064 H1048 0.959 . S
C1064 H1049 0.959 . S
C1064 H1050 0.961 . S
C1064 C1063 1.502 . S
C1065 H1051 0.960 . S
C1065 H1052 0.961 . S
C1065 H1053 0.959 . S
C1065 C1063 1.561 1_556 S
C1066 C1063 1.526 . S
C1066 C1067 1.396 1_554 S
C1066 C1071 1.390 . S
C1067 C1061 1.465 . S
C1067 C1066 1.396 1_556 S
C1067 C1068 1.399 . S
C1068 H1054 0.929 . S
C1068 C1067 1.399 . S
C1068 C1069 1.385 1_556 S
C1069 H1055 0.931 . S
C1069 C1068 1.385 1_554 S
C1069 C1070 1.389 . S
C1070 C1069 1.389 . S
C1070 C1071 1.387 . S
C1071 H1056 0.930 . S
C1071 C1066 1.390 . S
C1071 C1070 1.387 . S
H1072 C1084 0.930 . S
H1073 C1086 0.930 . S
H1074 C1087 0.930 . S
H1075 C1091 0.959 . S
H1076 C1091 0.959 . S
H1077 C1091 0.961 . S
H1078 C1092 0.960 . S
H1079 C1092 0.961 . S
H1080 C1092 0.959 . S
H1081 C1095 0.929 . S
H1082 C1096 0.931 . S
H1083 C1098 0.930 . S
C1084 H1072 0.930 . S
C1084 C1085 1.399 . S
C1084 C1089 1.399 . S
C1085 C1084 1.399 . S
C1085 C1086 1.376 . S
C1086 H1073 0.930 . S
C1086 C1085 1.376 . S
C1086 C1087 1.388 . S
C1087 H1074 0.930 . S
C1087 C1086 1.388 . S
C1087 C1088 1.390 . S
C1088 C1087 1.390 . S
C1088 C1089 1.394 . S
C1088 C1094 1.465 . S
C1089 C1084 1.399 . S
C1089 C1088 1.394 . S
C1089 C1090 1.516 . S
C1090 C1089 1.516 . S
C1090 C1091 1.502 . S
C1090 C1092 1.561 . S
C1090 C1093 1.526 . S
C1091 H1075 0.959 . S
C1091 H1076 0.959 . S
C1091 H1077 0.961 . S
C1091 C1090 1.502 . S
C1092 H1078 0.960 . S
C1092 H1079 0.961 . S
C1092 H1080 0.959 . S
C1092 C1090 1.561 . S
C1093 C1090 1.526 . S
C1093 C1094 1.396 . S
C1093 C1098 1.390 . S
C1094 C1088 1.465 . S
C1094 C1093 1.396 . S
C1094 C1095 1.399 . S
C1095 H1081 0.929 . S
C1095 C1094 1.399 . S
C1095 C1096 1.385 . S
C1096 H1082 0.931 . S
C1096 C1095 1.385 . S
C1096 C1097 1.389 . S
C1097 C1096 1.389 . S
C1097 C1098 1.387 . S
C1098 H1083 0.930 . S
C1098 C1093 1.390 . S
C1098 C1097 1.387 . S
H1099 C1111 0.930 . S
H1100 C1113 0.930 . S
H1101 C1114 0.930 . S
H1102 C1118 0.959 . S
H1103 C1118 0.959 . S
H1104 C1118 0.961 . S
H1105 C1119 0.960 . S
H1106 C1119 0.961 . S
H1107 C1119 0.959 . S
H1108 C1122 0.929 . S
H1109 C1123 0.931 . S
H1110 C1125 0.930 . S
C1111 H1099 0.930 . S
C1111 C1112 1.402 . S
C1111 C1116 1.399 . S
C1112 C1111 1.402 . S
C1112 C1113 1.373 1_565 S
C1113 H1100 0.930 . S
C1113 C1112 1.373 1_545 S
C1113 C1114 1.388 . S
C1114 H1101 0.930 . S
C1114 C1113 1.388 . S
C1114 C1115 1.390 . S
C1115 C1114 1.390 . S
C1115 C1116 1.394 1_545 S
C1115 C1121 1.465 . S
C1116 C1111 1.399 . S
C1116 C1115 1.394 1_565 S
C1116 C1117 1.516 . S
C1117 C1116 1.516 . S
C1117 C1118 1.502 . S
C1117 C1119 1.561 . S
C1117 C1120 1.526 . S
C1118 H1102 0.959 . S
C1118 H1103 0.959 . S
C1118 H1104 0.961 . S
C1118 C1117 1.502 . S
C1119 H1105 0.960 . S
C1119 H1106 0.961 . S
C1119 H1107 0.959 . S
C1119 C1117 1.561 . S
C1120 C1117 1.526 . S
C1120 C1121 1.396 1_565 S
C1120 C1125 1.390 . S
C1121 C1115 1.465 . S
C1121 C1120 1.396 1_545 S
C1121 C1122 1.399 . S
C1122 H1108 0.929 . S
C1122 C1121 1.399 . S
C1122 C1123 1.385 . S
C1123 H1109 0.931 . S
C1123 C1122 1.385 . S
C1123 C1124 1.402 . S
C1124 C1123 1.402 . S
C1124 C1125 1.376 1_545 S
C1125 H1110 0.930 . S
C1125 C1120 1.390 . S
C1125 C1124 1.376 1_565 S
H1126 C1138 0.930 . S
H1127 C1140 0.930 . S
H1128 C1141 0.930 . S
H1129 C1145 0.959 . S
H1130 C1145 0.959 . S
H1131 C1145 0.961 . S
H1132 C1146 0.960 . S
H1133 C1146 0.961 . S
H1134 C1146 0.959 . S
H1135 C1149 0.929 . S
H1136 C1150 0.931 . S
H1137 C1152 0.930 . S
C1138 H1126 0.930 . S
C1138 C1139 1.399 1_545 S
C1138 C1143 1.399 . S
C1139 C1138 1.399 1_565 S
C1139 C1140 1.376 . S
C1140 H1127 0.930 . S
C1140 C1139 1.376 . S
C1140 C1141 1.388 . S
C1141 H1128 0.930 . S
C1141 C1140 1.388 . S
C1141 C1142 1.390 . S
C1142 C1141 1.390 . S
C1142 C1143 1.394 1_565 S
C1142 C1148 1.465 . S
C1143 C1138 1.399 . S
C1143 C1142 1.394 1_545 S
C1143 C1144 1.516 . S
C1144 C1143 1.516 . S
C1144 C1145 1.502 1_556 S
C1144 C1146 1.561 . S
C1144 C1147 1.526 . S
C1145 H1129 0.959 . S
C1145 H1130 0.959 . S
C1145 H1131 0.961 . S
C1145 C1144 1.502 1_554 S
C1146 H1132 0.960 . S
C1146 H1133 0.961 . S
C1146 H1134 0.959 . S
C1146 C1144 1.561 . S
C1147 C1144 1.526 . S
C1147 C1148 1.396 1_545 S
C1147 C1152 1.390 . S
C1148 C1142 1.465 . S
C1148 C1147 1.396 1_565 S
C1148 C1149 1.399 . S
C1149 H1135 0.929 . S
C1149 C1148 1.399 . S
C1149 C1150 1.385 . S
C1150 H1136 0.931 . S
C1150 C1149 1.385 . S
C1150 C1151 1.389 . S
C1151 C1150 1.389 . S
C1151 C1152 1.387 1_565 S
C1152 H1137 0.930 . S
C1152 C1147 1.390 . S
C1152 C1151 1.387 1_545 S
H1153 C1165 0.930 . S
H1154 C1167 0.930 . S
H1155 C1168 0.930 . S
H1156 C1172 0.959 1_554 S
H1157 C1172 0.959 . S
H1158 C1172 0.961 . S
H1159 C1173 0.960 . S
H1160 C1173 0.961 . S
H1161 C1173 0.959 . S
H1162 C1176 0.929 . S
H1163 C1177 0.931 . S
H1164 C1179 0.930 . S
C1165 H1153 0.930 . S
C1165 C1166 1.399 . S
C1165 C1170 1.399 . S
C1166 C1165 1.399 . S
C1166 C1167 1.376 . S
C1167 H1154 0.930 . S
C1167 C1166 1.376 . S
C1167 C1168 1.388 . S
C1168 H1155 0.930 . S
C1168 C1167 1.388 . S
C1168 C1169 1.390 . S
C1169 C1168 1.390 . S
C1169 C1170 1.394 . S
C1169 C1175 1.465 . S
C1170 C1165 1.399 . S
C1170 C1169 1.394 . S
C1170 C1171 1.516 . S
C1171 C1170 1.516 . S
C1171 C1172 1.502 . S
C1171 C1173 1.561 . S
C1171 C1174 1.526 . S
C1172 H1156 0.959 1_556 S
C1172 H1157 0.959 . S
C1172 H1158 0.961 . S
C1172 C1171 1.502 . S
C1173 H1159 0.960 . S
C1173 H1160 0.961 . S
C1173 H1161 0.959 . S
C1173 C1171 1.561 . S
C1174 C1171 1.526 . S
C1174 C1175 1.396 . S
C1174 C1179 1.390 . S
C1175 C1169 1.465 . S
C1175 C1174 1.396 . S
C1175 C1176 1.399 . S
C1176 H1162 0.929 . S
C1176 C1175 1.399 . S
C1176 C1177 1.385 . S
C1177 H1163 0.931 . S
C1177 C1176 1.385 . S
C1177 C1178 1.389 . S
C1178 C1177 1.389 . S
C1178 C1179 1.387 . S
C1179 H1164 0.930 . S
C1179 C1174 1.390 . S
C1179 C1178 1.387 . S
H1180 C1192 0.930 . S
H1181 C1194 0.930 . S
H1182 C1195 0.930 . S
H1183 C1199 0.959 . S
H1184 C1199 0.959 . S
H1185 C1199 0.961 . S
H1186 C1200 0.960 . S
H1187 C1200 0.961 . S
H1188 C1200 0.959 . S
H1189 C1203 0.929 . S
H1190 C1204 0.931 . S
H1191 C1206 0.930 . S
C1192 H1180 0.930 . S
C1192 C1193 1.399 . S
C1192 C1197 1.399 . S
C1193 C1192 1.399 . S
C1193 C1194 1.376 . S
C1194 H1181 0.930 . S
C1194 C1193 1.376 . S
C1194 C1195 1.388 . S
C1195 H1182 0.930 . S
C1195 C1194 1.388 . S
C1195 C1196 1.390 . S
C1196 C1195 1.390 . S
C1196 C1197 1.394 . S
C1196 C1202 1.465 . S
C1197 C1192 1.399 . S
C1197 C1196 1.394 . S
C1197 C1198 1.516 . S
C1198 C1197 1.516 . S
C1198 C1199 1.502 . S
C1198 C1200 1.561 . S
C1198 C1201 1.526 . S
C1199 H1183 0.959 . S
C1199 H1184 0.959 . S
C1199 H1185 0.961 . S
C1199 C1198 1.502 . S
C1200 H1186 0.960 . S
C1200 H1187 0.961 . S
C1200 H1188 0.959 . S
C1200 C1198 1.561 . S
C1201 C1198 1.526 . S
C1201 C1202 1.396 . S
C1201 C1206 1.390 . S
C1202 C1196 1.465 . S
C1202 C1201 1.396 . S
C1202 C1203 1.399 . S
C1203 H1189 0.929 . S
C1203 C1202 1.399 . S
C1203 C1204 1.385 . S
C1204 H1190 0.931 . S
C1204 C1203 1.385 . S
C1204 C1205 1.389 . S
C1205 C1204 1.389 . S
C1205 C1206 1.387 . S
C1206 H1191 0.930 . S
C1206 C1201 1.390 . S
C1206 C1205 1.387 . S
H1207 C1219 0.930 . S
H1208 C1221 0.930 . S
H1209 C1222 0.930 . S
H1210 C1226 0.959 . S
H1211 C1226 0.959 . S
H1212 C1226 0.961 . S
H1213 C1227 0.960 . S
H1214 C1227 0.961 . S
H1215 C1227 0.959 . S
H1216 C1230 0.929 . S
H1217 C1231 0.931 . S
H1218 C1233 0.930 . S
C1219 H1207 0.930 . S
C1219 C1220 1.399 1_565 S
C1219 C1224 1.399 . S
C1220 C1219 1.399 1_545 S
C1220 C1221 1.376 . S
C1221 H1208 0.930 . S
C1221 C1220 1.376 . S
C1221 C1222 1.388 . S
C1222 H1209 0.930 . S
C1222 C1221 1.388 . S
C1222 C1223 1.390 . S
C1223 C1222 1.390 . S
C1223 C1224 1.394 1_545 S
C1223 C1229 1.465 . S
C1224 C1219 1.399 . S
C1224 C1223 1.394 1_565 S
C1224 C1225 1.516 . S
C1225 C1224 1.516 . S
C1225 C1226 1.502 . S
C1225 C1227 1.561 . S
C1225 C1228 1.526 . S
C1226 H1210 0.959 . S
C1226 H1211 0.959 . S
C1226 H1212 0.961 . S
C1226 C1225 1.502 . S
C1227 H1213 0.960 . S
C1227 H1214 0.961 . S
C1227 H1215 0.959 . S
C1227 C1225 1.561 . S
C1228 C1225 1.526 . S
C1228 C1229 1.396 1_565 S
C1228 C1233 1.390 . S
C1229 C1223 1.465 . S
C1229 C1228 1.396 1_545 S
C1229 C1230 1.399 . S
C1230 H1216 0.929 . S
C1230 C1229 1.399 . S
C1230 C1231 1.385 . S
C1231 H1217 0.931 . S
C1231 C1230 1.385 . S
C1231 C1232 1.389 . S
C1232 C1231 1.389 . S
C1232 C1233 1.387 1_545 S
C1233 H1218 0.930 . S
C1233 C1228 1.390 . S
C1233 C1232 1.387 1_565 S
H1234 C1246 0.930 . S
H1235 C1248 0.930 . S
H1236 C1249 0.930 . S
H1237 C1253 0.959 1_556 S
H1238 C1253 0.959 . S
H1239 C1253 0.961 . S
H1240 C1254 0.960 . S
H1241 C1254 0.961 . S
H1242 C1254 0.959 . S
H1243 C1257 0.929 . S
H1244 C1258 0.931 . S
H1245 C1260 0.930 . S
C1246 H1234 0.930 . S
C1246 C1247 1.399 1_565 S
C1246 C1251 1.399 . S
C1247 C1246 1.399 1_545 S
C1247 C1248 1.376 . S
C1248 H1235 0.930 . S
C1248 C1247 1.376 . S
C1248 C1249 1.388 . S
C1249 H1236 0.930 . S
C1249 C1248 1.388 . S
C1249 C1250 1.390 . S
C1250 C1249 1.390 . S
C1250 C1251 1.394 1_545 S
C1250 C1256 1.465 . S
C1251 C1246 1.399 . S
C1251 C1250 1.394 1_565 S
C1251 C1252 1.516 . S
C1252 C1251 1.516 . S
C1252 C1253 1.502 . S
C1252 C1254 1.561 . S
C1252 C1255 1.526 . S
C1253 H1237 0.959 1_554 S
C1253 H1238 0.959 . S
C1253 H1239 0.961 . S
C1253 C1252 1.502 . S
C1254 H1240 0.960 . S
C1254 H1241 0.961 . S
C1254 H1242 0.959 . S
C1254 C1252 1.561 . S
C1255 C1252 1.526 . S
C1255 C1256 1.396 1_565 S
C1255 C1260 1.390 . S
C1256 C1250 1.465 . S
C1256 C1255 1.396 1_545 S
C1256 C1257 1.399 . S
C1257 H1243 0.929 . S
C1257 C1256 1.399 . S
C1257 C1258 1.385 . S
C1258 H1244 0.931 . S
C1258 C1257 1.385 . S
C1258 C1259 1.389 . S
C1259 C1258 1.389 . S
C1259 C1260 1.387 1_545 S
C1260 H1245 0.930 . S
C1260 C1255 1.390 . S
C1260 C1259 1.387 1_565 S
H1261 C1273 0.930 . S
H1262 C1275 0.930 . S
H1263 C1276 0.930 1_556 S
H1264 C1280 0.959 . S
H1265 C1280 0.959 . S
H1266 C1280 0.961 . S
H1267 C1281 0.960 . S
H1268 C1281 0.961 . S
H1269 C1281 0.959 . S
H1270 C1284 0.922 1_556 S
H1271 C1285 0.931 . S
H1272 C1287 0.930 . S
C1273 H1261 0.930 . S
C1273 C1274 1.399 . S
C1273 C1278 1.399 . S
C1274 C1273 1.399 . S
C1274 C1275 1.376 . S
C1275 H1262 0.930 . S
C1275 C1274 1.376 . S
C1275 C1276 1.388 . S
C1276 H1263 0.930 1_554 S
C1276 C1275 1.388 . S
C1276 C1277 1.390 . S
C1277 C1276 1.390 . S
C1277 C1278 1.394 . S
C1277 C1283 1.465 . S
C1278 C1273 1.399 . S
C1278 C1277 1.394 . S
C1278 C1279 1.516 . S
C1279 C1278 1.516 . S
C1279 C1280 1.502 . S
C1279 C1281 1.561 . S
C1279 C1282 1.526 . S
C1280 H1264 0.959 . S
C1280 H1265 0.959 . S
C1280 H1266 0.961 . S
C1280 C1279 1.502 . S
C1281 H1267 0.960 . S
C1281 H1268 0.961 . S
C1281 H1269 0.959 . S
C1281 C1279 1.561 . S
C1282 C1279 1.526 . S
C1282 C1283 1.396 . S
C1282 C1287 1.390 . S
C1283 C1277 1.465 . S
C1283 C1282 1.396 . S
C1283 C1284 1.399 . S
C1284 H1270 0.922 1_554 S
C1284 C1283 1.399 . S
C1284 C1285 1.385 . S
C1285 H1271 0.931 . S
C1285 C1284 1.385 . S
C1285 C1286 1.389 . S
C1286 C1285 1.389 . S
C1286 C1287 1.387 . S
C1287 H1272 0.930 . S
C1287 C1282 1.390 . S
C1287 C1286 1.387 . S
H1288 C1300 0.930 . S
H1289 C1302 0.930 . S
H1290 C1303 0.930 . S
H1291 C1307 0.959 . S
H1292 C1307 0.959 . S
H1293 C1307 0.961 . S
H1294 C1308 0.960 . S
H1295 C1308 0.961 . S
H1296 C1308 0.959 . S
H1297 C1311 0.929 . S
H1298 C1312 0.931 . S
H1299 C1314 0.930 . S
C1300 H1288 0.930 . S
C1300 C1301 1.399 . S
C1300 C1305 1.399 . S
C1301 C1300 1.399 . S
C1301 C1302 1.376 . S
C1302 H1289 0.930 . S
C1302 C1301 1.376 . S
C1302 C1303 1.388 . S
C1303 H1290 0.930 . S
C1303 C1302 1.388 . S
C1303 C1304 1.390 . S
C1304 C1303 1.390 . S
C1304 C1305 1.394 . S
C1304 C1310 1.465 . S
C1305 C1300 1.399 . S
C1305 C1304 1.394 . S
C1305 C1306 1.516 . S
C1306 C1305 1.516 . S
C1306 C1307 1.502 . S
C1306 C1308 1.561 . S
C1306 C1309 1.526 . S
C1307 H1291 0.959 . S
C1307 H1292 0.959 . S
C1307 H1293 0.961 . S
C1307 C1306 1.502 . S
C1308 H1294 0.960 . S
C1308 H1295 0.961 . S
C1308 H1296 0.959 . S
C1308 C1306 1.561 . S
C1309 C1306 1.526 . S
C1309 C1310 1.396 . S
C1309 C1314 1.390 . S
C1310 C1304 1.465 . S
C1310 C1309 1.396 . S
C1310 C1311 1.399 . S
C1311 H1297 0.929 . S
C1311 C1310 1.399 . S
C1311 C1312 1.385 . S
C1312 H1298 0.931 . S
C1312 C1311 1.385 . S
C1312 C1313 1.389 . S
C1313 C1312 1.389 . S
C1313 C1314 1.387 . S
C1314 H1299 0.930 . S
C1314 C1309 1.390 . S
C1314 C1313 1.387 . S
H1315 C1327 0.930 . S
H1316 C1329 0.930 . S
H1317 C1330 0.930 . S
H1318 C1334 0.959 . S
H1319 C1334 0.959 . S
H1320 C1334 0.961 . S
H1321 C1335 0.960 . S
H1322 C1335 0.961 . S
H1323 C1335 0.959 1_554 S
H1324 C1338 0.929 . S
H1325 C1339 0.931 . S
H1326 C1341 0.930 . S
C1327 H1315 0.930 . S
C1327 C1328 1.399 . S
C1327 C1332 1.399 . S
C1328 C1327 1.399 . S
C1328 C1329 1.376 . S
C1329 H1316 0.930 . S
C1329 C1328 1.376 . S
C1329 C1330 1.388 . S
C1330 H1317 0.930 . S
C1330 C1329 1.388 . S
C1330 C1331 1.390 . S
C1331 C1330 1.390 . S
C1331 C1332 1.394 . S
C1331 C1337 1.465 . S
C1332 C1327 1.399 . S
C1332 C1331 1.394 . S
C1332 C1333 1.516 . S
C1333 C1332 1.516 . S
C1333 C1334 1.502 . S
C1333 C1335 1.561 . S
C1333 C1336 1.526 . S
C1334 H1318 0.959 . S
C1334 H1319 0.959 . S
C1334 H1320 0.961 . S
C1334 C1333 1.502 . S
C1335 H1321 0.960 . S
C1335 H1322 0.961 . S
C1335 H1323 0.959 1_556 S
C1335 C1333 1.561 . S
C1336 C1333 1.526 . S
C1336 C1337 1.396 . S
C1336 C1341 1.390 . S
C1337 C1331 1.465 . S
C1337 C1336 1.396 . S
C1337 C1338 1.399 . S
C1338 H1324 0.929 . S
C1338 C1337 1.399 . S
C1338 C1339 1.385 . S
C1339 H1325 0.931 . S
C1339 C1338 1.385 . S
C1339 C1340 1.389 . S
C1340 C1339 1.389 . S
C1340 C1341 1.387 . S
C1341 H1326 0.930 . S
C1341 C1336 1.390 . S
C1341 C1340 1.387 . S
H1342 C1354 0.930 . S
H1343 C1356 0.930 . S
H1344 C1357 0.930 . S
H1345 C1361 0.959 . S
H1346 C1361 0.959 . S
H1347 C1361 0.961 . S
H1348 C1362 0.960 . S
H1349 C1362 0.961 . S
H1350 C1362 0.959 . S
H1351 C1365 0.929 . S
H1352 C1366 0.931 . S
H1353 C1368 0.930 . S
C1354 H1342 0.930 . S
C1354 C1355 1.399 . S
C1354 C1359 1.399 . S
C1355 C1354 1.399 . S
C1355 C1356 1.376 . S
C1356 H1343 0.930 . S
C1356 C1355 1.376 . S
C1356 C1357 1.388 . S
C1357 H1344 0.930 . S
C1357 C1356 1.388 . S
C1357 C1358 1.390 . S
C1358 C1357 1.390 . S
C1358 C1359 1.394 . S
C1358 C1364 1.465 . S
C1359 C1354 1.399 . S
C1359 C1358 1.394 . S
C1359 C1360 1.516 . S
C1360 C1359 1.516 . S
C1360 C1361 1.502 . S
C1360 C1362 1.561 . S
C1360 C1363 1.526 . S
C1361 H1345 0.959 . S
C1361 H1346 0.959 . S
C1361 H1347 0.961 . S
C1361 C1360 1.502 . S
C1362 H1348 0.960 . S
C1362 H1349 0.961 . S
C1362 H1350 0.959 . S
C1362 C1360 1.561 . S
C1363 C1360 1.526 . S
C1363 C1364 1.396 . S
C1363 C1368 1.390 . S
C1364 C1358 1.465 . S
C1364 C1363 1.396 . S
C1364 C1365 1.399 . S
C1365 H1351 0.929 . S
C1365 C1364 1.399 . S
C1365 C1366 1.385 . S
C1366 H1352 0.931 . S
C1366 C1365 1.385 . S
C1366 C1367 1.389 . S
C1367 C1366 1.389 . S
C1367 C1368 1.387 . S
C1368 H1353 0.930 . S
C1368 C1363 1.390 . S
C1368 C1367 1.387 . S
H1369 C1381 0.930 . S
H1370 C1383 0.930 . S
H1371 C1384 0.930 . S
H1372 C1388 0.959 . S
H1373 C1388 0.959 . S
H1374 C1388 0.961 . S
H1375 C1389 0.960 . S
H1376 C1389 0.961 . S
H1377 C1389 0.959 . S
H1378 C1392 0.929 . S
H1379 C1393 0.931 . S
H1380 C1395 0.930 . S
C1381 H1369 0.930 . S
C1381 C1382 1.399 . S
C1381 C1386 1.399 . S
C1382 C1381 1.399 . S
C1382 C1383 1.376 . S
C1383 H1370 0.930 . S
C1383 C1382 1.376 . S
C1383 C1384 1.388 . S
C1384 H1371 0.930 . S
C1384 C1383 1.388 . S
C1384 C1385 1.390 . S
C1385 C1384 1.390 . S
C1385 C1386 1.394 . S
C1385 C1391 1.465 . S
C1386 C1381 1.399 . S
C1386 C1385 1.394 . S
C1386 C1387 1.516 . S
C1387 C1386 1.516 . S
C1387 C1388 1.502 . S
C1387 C1389 1.561 . S
C1387 C1390 1.526 . S
C1388 H1372 0.959 . S
C1388 H1373 0.959 . S
C1388 H1374 0.961 . S
C1388 C1387 1.502 . S
C1389 H1375 0.960 . S
C1389 H1376 0.961 . S
C1389 H1377 0.959 . S
C1389 C1387 1.561 . S
C1390 C1387 1.526 . S
C1390 C1391 1.396 . S
C1390 C1395 1.390 . S
C1391 C1385 1.465 . S
C1391 C1390 1.396 . S
C1391 C1392 1.399 . S
C1392 H1378 0.929 . S
C1392 C1391 1.399 . S
C1392 C1393 1.385 . S
C1393 H1379 0.931 . S
C1393 C1392 1.385 . S
C1393 C1394 1.389 . S
C1394 C1393 1.389 . S
C1394 C1395 1.387 . S
C1395 H1380 0.930 . S
C1395 C1390 1.390 . S
C1395 C1394 1.387 . S
H1396 C1408 0.930 . S
H1397 C1410 0.930 . S
H1398 C1411 0.930 . S
H1399 C1415 0.959 . S
H1400 C1415 0.959 . S
H1401 C1415 0.961 . S
H1402 C1416 0.960 . S
H1403 C1416 0.961 . S
H1404 C1416 0.959 1_556 S
H1405 C1419 0.929 . S
H1406 C1420 0.931 . S
H1407 C1422 0.930 . S
C1408 H1396 0.930 . S
C1408 C1409 1.399 . S
C1408 C1413 1.399 . S
C1409 C1408 1.399 . S
C1409 C1410 1.376 . S
C1410 H1397 0.930 . S
C1410 C1409 1.376 . S
C1410 C1411 1.388 . S
C1411 H1398 0.930 . S
C1411 C1410 1.388 . S
C1411 C1412 1.390 . S
C1412 C1411 1.390 . S
C1412 C1413 1.394 . S
C1412 C1418 1.465 . S
C1413 C1408 1.399 . S
C1413 C1412 1.394 . S
C1413 C1414 1.516 . S
C1414 C1413 1.516 . S
C1414 C1415 1.502 . S
C1414 C1416 1.561 . S
C1414 C1417 1.526 . S
C1415 H1399 0.959 . S
C1415 H1400 0.959 . S
C1415 H1401 0.961 . S
C1415 C1414 1.502 . S
C1416 H1402 0.960 . S
C1416 H1403 0.961 . S
C1416 H1404 0.959 1_554 S
C1416 C1414 1.561 . S
C1417 C1414 1.526 . S
C1417 C1418 1.396 . S
C1417 C1422 1.390 . S
C1418 C1412 1.465 . S
C1418 C1417 1.396 . S
C1418 C1419 1.399 . S
C1419 H1405 0.929 . S
C1419 C1418 1.399 . S
C1419 C1420 1.385 . S
C1420 H1406 0.931 . S
C1420 C1419 1.385 . S
C1420 C1421 1.389 . S
C1421 C1420 1.389 . S
C1421 C1422 1.387 . S
C1422 H1407 0.930 . S
C1422 C1417 1.390 . S
C1422 C1421 1.387 . S
H1423 C1435 0.930 . S
H1424 C1437 0.930 . S
H1425 C1438 0.930 . S
H1426 C1442 0.959 . S
H1427 C1442 0.959 . S
H1428 C1442 0.961 . S
H1429 C1443 0.960 . S
H1430 C1443 0.961 . S
H1431 C1443 0.959 . S
H1432 C1446 0.929 . S
H1433 C1447 0.931 . S
H1434 C1449 0.930 . S
C1435 H1423 0.930 . S
C1435 C1436 1.399 . S
C1435 C1440 1.399 . S
C1436 C1435 1.399 . S
C1436 C1437 1.376 . S
C1437 H1424 0.930 . S
C1437 C1436 1.376 . S
C1437 C1438 1.388 . S
C1438 H1425 0.930 . S
C1438 C1437 1.388 . S
C1438 C1439 1.390 . S
C1439 C1438 1.390 . S
C1439 C1440 1.394 . S
C1439 C1445 1.465 . S
C1440 C1435 1.399 . S
C1440 C1439 1.394 . S
C1440 C1441 1.516 . S
C1441 C1440 1.516 . S
C1441 C1442 1.502 . S
C1441 C1443 1.561 . S
C1441 C1444 1.526 . S
C1442 H1426 0.959 . S
C1442 H1427 0.959 . S
C1442 H1428 0.961 . S
C1442 C1441 1.502 . S
C1443 H1429 0.960 . S
C1443 H1430 0.961 . S
C1443 H1431 0.959 . S
C1443 C1441 1.561 . S
C1444 C1441 1.526 . S
C1444 C1445 1.396 . S
C1444 C1449 1.390 . S
C1445 C1439 1.465 . S
C1445 C1444 1.396 . S
C1445 C1446 1.399 . S
C1446 H1432 0.929 . S
C1446 C1445 1.399 . S
C1446 C1447 1.385 . S
C1447 H1433 0.931 . S
C1447 C1446 1.385 . S
C1447 C1448 1.389 . S
C1448 C1447 1.389 . S
C1448 C1449 1.387 . S
C1449 H1434 0.930 . S
C1449 C1444 1.390 . S
C1449 C1448 1.387 . S
H1450 C1462 0.930 . S
H1451 C1464 0.930 . S
H1452 C1465 0.930 . S
H1453 C1469 0.959 . S
H1454 C1469 0.959 . S
H1455 C1469 0.961 . S
H1456 C1470 0.960 . S
H1457 C1470 0.961 . S
H1458 C1470 0.959 . S
H1459 C1473 0.929 . S
H1460 C1474 0.931 . S
H1461 C1476 0.930 . S
C1462 H1450 0.930 . S
C1462 C1463 1.399 . S
C1462 C1467 1.399 . S
C1463 C1462 1.399 . S
C1463 C1464 1.376 . S
C1464 H1451 0.930 . S
C1464 C1463 1.376 . S
C1464 C1465 1.388 . S
C1465 H1452 0.930 . S
C1465 C1464 1.388 . S
C1465 C1466 1.390 . S
C1466 C1465 1.390 . S
C1466 C1467 1.394 . S
C1466 C1472 1.465 . S
C1467 C1462 1.399 . S
C1467 C1466 1.394 . S
C1467 C1468 1.516 . S
C1468 C1467 1.516 . S
C1468 C1469 1.502 . S
C1468 C1470 1.561 . S
C1468 C1471 1.526 . S
C1469 H1453 0.959 . S
C1469 H1454 0.959 . S
C1469 H1455 0.961 . S
C1469 C1468 1.502 . S
C1470 H1456 0.960 . S
C1470 H1457 0.961 . S
C1470 H1458 0.959 . S
C1470 C1468 1.561 . S
C1471 C1468 1.526 . S
C1471 C1472 1.396 . S
C1471 C1476 1.390 . S
C1472 C1466 1.465 . S
C1472 C1471 1.396 . S
C1472 C1473 1.399 . S
C1473 H1459 0.929 . S
C1473 C1472 1.399 . S
C1473 C1474 1.385 . S
C1474 H1460 0.931 . S
C1474 C1473 1.385 . S
C1474 C1475 1.389 . S
C1475 C1474 1.389 . S
C1475 C1476 1.387 . S
C1476 H1461 0.930 . S
C1476 C1471 1.390 . S
C1476 C1475 1.387 . S
H1477 C1489 0.930 . S
H1478 C1491 0.930 . S
H1479 C1492 0.930 . S
H1480 C1496 0.959 . S
H1481 C1496 0.959 . S
H1482 C1496 0.961 . S
H1483 C1497 0.960 . S
H1484 C1497 0.961 . S
H1485 C1497 0.959 . S
H1486 C1500 0.929 . S
H1487 C1501 0.931 . S
H1488 C1503 0.930 . S
C1489 H1477 0.930 . S
C1489 C1490 1.399 . S
C1489 C1494 1.399 . S
C1490 C1489 1.399 . S
C1490 C1491 1.376 . S
C1491 H1478 0.930 . S
C1491 C1490 1.376 . S
C1491 C1492 1.388 . S
C1492 H1479 0.930 . S
C1492 C1491 1.388 . S
C1492 C1493 1.390 . S
C1493 C1492 1.390 . S
C1493 C1494 1.394 . S
C1493 C1499 1.465 . S
C1494 C1489 1.399 . S
C1494 C1493 1.394 . S
C1494 C1495 1.516 . S
C1495 C1494 1.516 . S
C1495 C1496 1.502 . S
C1495 C1497 1.561 . S
C1495 C1498 1.526 . S
C1496 H1480 0.959 . S
C1496 H1481 0.959 . S
C1496 H1482 0.961 . S
C1496 C1495 1.502 . S
C1497 H1483 0.960 . S
C1497 H1484 0.961 . S
C1497 H1485 0.959 . S
C1497 C1495 1.561 . S
C1498 C1495 1.526 . S
C1498 C1499 1.396 . S
C1498 C1503 1.390 . S
C1499 C1493 1.465 . S
C1499 C1498 1.396 . S
C1499 C1500 1.399 . S
C1500 H1486 0.929 . S
C1500 C1499 1.399 . S
C1500 C1501 1.385 . S
C1501 H1487 0.931 . S
C1501 C1500 1.385 . S
C1501 C1502 1.389 . S
C1502 C1501 1.389 . S
C1502 C1503 1.387 . S
C1503 H1488 0.930 . S
C1503 C1498 1.390 . S
C1503 C1502 1.387 . S
H1504 C1516 0.930 . S
H1505 C1518 0.930 . S
H1506 C1519 0.930 . S
H1507 C1523 0.959 . S
H1508 C1523 0.959 . S
H1509 C1523 0.961 . S
H1510 C1524 0.960 . S
H1511 C1524 0.961 . S
H1512 C1524 0.959 . S
H1513 C1527 0.929 . S
H1514 C1528 0.931 . S
H1515 C1530 0.930 . S
C1516 H1504 0.930 . S
C1516 C1517 1.399 . S
C1516 C1521 1.399 . S
C1517 C1516 1.399 . S
C1517 C1518 1.376 . S
C1518 H1505 0.930 . S
C1518 C1517 1.376 . S
C1518 C1519 1.388 . S
C1519 H1506 0.930 . S
C1519 C1518 1.388 . S
C1519 C1520 1.390 . S
C1520 C1519 1.390 . S
C1520 C1521 1.394 . S
C1520 C1526 1.465 . S
C1521 C1516 1.399 . S
C1521 C1520 1.394 . S
C1521 C1522 1.516 . S
C1522 C1521 1.516 . S
C1522 C1523 1.502 . S
C1522 C1524 1.561 . S
C1522 C1525 1.526 . S
C1523 H1507 0.959 . S
C1523 H1508 0.959 . S
C1523 H1509 0.961 . S
C1523 C1522 1.502 . S
C1524 H1510 0.960 . S
C1524 H1511 0.961 . S
C1524 H1512 0.959 . S
C1524 C1522 1.561 . S
C1525 C1522 1.526 . S
C1525 C1526 1.396 . S
C1525 C1530 1.390 . S
C1526 C1520 1.465 . S
C1526 C1525 1.396 . S
C1526 C1527 1.399 . S
C1527 H1513 0.929 . S
C1527 C1526 1.399 . S
C1527 C1528 1.385 . S
C1528 H1514 0.931 . S
C1528 C1527 1.385 . S
C1528 C1529 1.389 . S
C1529 C1528 1.389 . S
C1529 C1530 1.387 . S
C1530 H1515 0.930 . S
C1530 C1525 1.390 . S
C1530 C1529 1.387 . S
H1531 C1543 0.930 . S
H1532 C1545 0.930 . S
H1533 C1546 0.930 . S
H1534 C1550 0.959 . S
H1535 C1550 0.959 . S
H1536 C1550 0.961 . S
H1537 C1551 0.960 . S
H1538 C1551 0.961 . S
H1539 C1551 0.959 . S
H1540 C1554 0.929 . S
H1541 C1555 0.931 . S
H1542 C1557 0.930 . S
C1543 H1531 0.930 . S
C1543 C1544 1.399 1_545 S
C1543 C1548 1.399 . S
C1544 C1543 1.399 1_565 S
C1544 C1545 1.376 . S
C1545 H1532 0.930 . S
C1545 C1544 1.376 . S
C1545 C1546 1.388 . S
C1546 H1533 0.930 . S
C1546 C1545 1.388 . S
C1546 C1547 1.390 . S
C1547 C1546 1.390 . S
C1547 C1548 1.394 1_565 S
C1547 C1553 1.465 . S
C1548 C1543 1.399 . S
C1548 C1547 1.394 1_545 S
C1548 C1549 1.516 . S
C1549 C1548 1.516 . S
C1549 C1550 1.502 . S
C1549 C1551 1.561 . S
C1549 C1552 1.526 . S
C1550 H1534 0.959 . S
C1550 H1535 0.959 . S
C1550 H1536 0.961 . S
C1550 C1549 1.502 . S
C1551 H1537 0.960 . S
C1551 H1538 0.961 . S
C1551 H1539 0.959 . S
C1551 C1549 1.561 . S
C1552 C1549 1.526 . S
C1552 C1553 1.396 1_545 S
C1552 C1557 1.390 . S
C1553 C1547 1.465 . S
C1553 C1552 1.396 1_565 S
C1553 C1554 1.399 . S
C1554 H1540 0.929 . S
C1554 C1553 1.399 . S
C1554 C1555 1.385 . S
C1555 H1541 0.931 . S
C1555 C1554 1.385 . S
C1555 C1556 1.389 . S
C1556 C1555 1.389 . S
C1556 C1557 1.387 1_565 S
C1557 H1542 0.930 . S
C1557 C1552 1.390 . S
C1557 C1556 1.387 1_545 S
H1558 C1570 0.930 . S
H1559 C1572 0.930 . S
H1560 C1573 0.930 . S
H1561 C1577 0.959 . S
H1562 C1577 0.959 . S
H1563 C1577 0.961 . S
H1564 C1578 0.960 . S
H1565 C1578 0.961 . S
H1566 C1578 0.959 . S
H1567 C1581 0.929 . S
H1568 C1582 0.931 . S
H1569 C1584 0.930 . S
C1570 H1558 0.930 . S
C1570 C1571 1.399 1_545 S
C1570 C1575 1.399 . S
C1571 C1570 1.399 1_565 S
C1571 C1572 1.376 . S
C1572 H1559 0.930 . S
C1572 C1571 1.376 . S
C1572 C1573 1.388 . S
C1573 H1560 0.930 . S
C1573 C1572 1.388 . S
C1573 C1574 1.390 . S
C1574 C1573 1.390 . S
C1574 C1575 1.394 1_565 S
C1574 C1580 1.465 . S
C1575 C1570 1.399 . S
C1575 C1574 1.394 1_545 S
C1575 C1576 1.516 . S
C1576 C1575 1.516 . S
C1576 C1577 1.502 . S
C1576 C1578 1.561 . S
C1576 C1579 1.526 . S
C1577 H1561 0.959 . S
C1577 H1562 0.959 . S
C1577 H1563 0.961 . S
C1577 C1576 1.502 . S
C1578 H1564 0.960 . S
C1578 H1565 0.961 . S
C1578 H1566 0.959 . S
C1578 C1576 1.561 . S
C1579 C1576 1.526 . S
C1579 C1580 1.396 1_545 S
C1579 C1584 1.390 . S
C1580 C1574 1.465 . S
C1580 C1579 1.396 1_565 S
C1580 C1581 1.399 . S
C1581 H1567 0.929 . S
C1581 C1580 1.399 . S
C1581 C1582 1.385 . S
C1582 H1568 0.931 . S
C1582 C1581 1.385 . S
C1582 C1583 1.389 . S
C1583 C1582 1.389 . S
C1583 C1584 1.387 1_565 S
C1584 H1569 0.930 . S
C1584 C1579 1.390 . S
C1584 C1583 1.387 1_545 S
H1585 C1597 0.930 . S
H1586 C1599 0.930 . S
H1587 C1600 0.930 . S
H1588 C1604 0.959 . S
H1589 C1604 0.959 . S
H1590 C1604 0.961 . S
H1591 C1605 0.960 . S
H1592 C1605 0.961 . S
H1593 C1605 0.959 . S
H1594 C1608 0.929 . S
H1595 C1609 0.931 . S
H1596 C1611 0.930 . S
C1597 H1585 0.930 . S
C1597 C1598 1.399 . S
C1597 C1602 1.399 . S
C1598 C1597 1.399 . S
C1598 C1599 1.376 . S
C1599 H1586 0.930 . S
C1599 C1598 1.376 . S
C1599 C1600 1.388 . S
C1600 H1587 0.930 . S
C1600 C1599 1.388 . S
C1600 C1601 1.390 . S
C1601 C1600 1.390 . S
C1601 C1602 1.394 . S
C1601 C1607 1.465 . S
C1602 C1597 1.399 . S
C1602 C1601 1.394 . S
C1602 C1603 1.516 . S
C1603 C1602 1.516 . S
C1603 C1604 1.502 . S
C1603 C1605 1.561 . S
C1603 C1606 1.526 . S
C1604 H1588 0.959 . S
C1604 H1589 0.959 . S
C1604 H1590 0.961 . S
C1604 C1603 1.502 . S
C1605 H1591 0.960 . S
C1605 H1592 0.961 . S
C1605 H1593 0.959 . S
C1605 C1603 1.561 . S
C1606 C1603 1.526 . S
C1606 C1607 1.396 . S
C1606 C1611 1.390 . S
C1607 C1601 1.465 . S
C1607 C1606 1.396 . S
C1607 C1608 1.399 . S
C1608 H1594 0.929 . S
C1608 C1607 1.399 . S
C1608 C1609 1.385 . S
C1609 H1595 0.931 . S
C1609 C1608 1.385 . S
C1609 C1610 1.389 . S
C1610 C1609 1.389 . S
C1610 C1611 1.387 . S
C1611 H1596 0.930 . S
C1611 C1606 1.390 . S
C1611 C1610 1.387 . S
H1612 C1624 0.930 . S
H1613 C1626 0.930 . S
H1614 C1627 0.930 . S
H1615 C1631 0.959 . S
H1616 C1631 0.959 . S
H1617 C1631 0.961 . S
H1618 C1632 0.960 . S
H1619 C1632 0.961 . S
H1620 C1632 0.959 . S
H1621 C1635 0.929 . S
H1622 C1636 0.931 . S
H1623 C1638 0.930 . S
C1624 H1612 0.930 . S
C1624 C1625 1.399 . S
C1624 C1629 1.399 . S
C1625 C1624 1.399 . S
C1625 C1626 1.376 . S
C1626 H1613 0.930 . S
C1626 C1625 1.376 . S
C1626 C1627 1.388 . S
C1627 H1614 0.930 . S
C1627 C1626 1.388 . S
C1627 C1628 1.390 . S
C1628 C1627 1.390 . S
C1628 C1629 1.394 . S
C1628 C1634 1.465 . S
C1629 C1624 1.399 . S
C1629 C1628 1.394 . S
C1629 C1630 1.516 . S
C1630 C1629 1.516 . S
C1630 C1631 1.502 . S
C1630 C1632 1.561 . S
C1630 C1633 1.526 . S
C1631 H1615 0.959 . S
C1631 H1616 0.959 . S
C1631 H1617 0.961 . S
C1631 C1630 1.502 . S
C1632 H1618 0.960 . S
C1632 H1619 0.961 . S
C1632 H1620 0.959 . S
C1632 C1630 1.561 . S
C1633 C1630 1.526 . S
C1633 C1634 1.396 . S
C1633 C1638 1.390 . S
C1634 C1628 1.465 . S
C1634 C1633 1.396 . S
C1634 C1635 1.399 . S
C1635 H1621 0.929 . S
C1635 C1634 1.399 . S
C1635 C1636 1.385 . S
C1636 H1622 0.931 . S
C1636 C1635 1.385 . S
C1636 C1637 1.389 . S
C1637 C1636 1.389 . S
C1637 C1638 1.387 . S
C1638 H1623 0.930 . S
C1638 C1633 1.390 . S
C1638 C1637 1.387 . S
H1639 C1651 0.930 . S
H1640 C1653 0.930 . S
H1641 C1654 0.930 . S
H1642 C1658 0.959 . S
H1643 C1658 0.959 . S
H1644 C1658 0.961 . S
H1645 C1659 0.960 . S
H1646 C1659 0.961 . S
H1647 C1659 0.959 . S
H1648 C1662 0.929 . S
H1649 C1663 0.931 . S
H1650 C1665 0.930 . S
C1651 H1639 0.930 . S
C1651 C1652 1.399 1_565 S
C1651 C1656 1.399 . S
C1652 C1651 1.399 1_545 S
C1652 C1653 1.376 . S
C1653 H1640 0.930 . S
C1653 C1652 1.376 . S
C1653 C1654 1.388 . S
C1654 H1641 0.930 . S
C1654 C1653 1.388 . S
C1654 C1655 1.390 . S
C1655 C1654 1.390 . S
C1655 C1656 1.394 1_545 S
C1655 C1661 1.465 . S
C1656 C1651 1.399 . S
C1656 C1655 1.394 1_565 S
C1656 C1657 1.516 . S
C1657 C1656 1.516 . S
C1657 C1658 1.502 . S
C1657 C1659 1.561 . S
C1657 C1660 1.526 . S
C1658 H1642 0.959 . S
C1658 H1643 0.959 . S
C1658 H1644 0.961 . S
C1658 C1657 1.502 . S
C1659 H1645 0.960 . S
C1659 H1646 0.961 . S
C1659 H1647 0.959 . S
C1659 C1657 1.561 . S
C1660 C1657 1.526 . S
C1660 C1661 1.396 1_565 S
C1660 C1665 1.390 . S
C1661 C1655 1.465 . S
C1661 C1660 1.396 1_545 S
C1661 C1662 1.399 . S
C1662 H1648 0.929 . S
C1662 C1661 1.399 . S
C1662 C1663 1.385 . S
C1663 H1649 0.931 . S
C1663 C1662 1.385 . S
C1663 C1664 1.389 . S
C1664 C1663 1.389 . S
C1664 C1665 1.387 1_545 S
C1665 H1650 0.930 . S
C1665 C1660 1.390 . S
C1665 C1664 1.387 1_565 S
H1666 C1678 0.930 . S
H1667 C1680 0.930 . S
H1668 C1681 0.930 . S
H1669 C1685 0.959 . S
H1670 C1685 0.959 . S
H1671 C1685 0.961 . S
H1672 C1686 0.960 . S
H1673 C1686 0.961 . S
H1674 C1686 0.959 . S
H1675 C1689 0.929 . S
H1676 C1690 0.931 . S
H1677 C1692 0.930 . S
C1678 H1666 0.930 . S
C1678 C1679 1.399 1_565 S
C1678 C1683 1.399 . S
C1679 C1678 1.399 1_545 S
C1679 C1680 1.376 . S
C1680 H1667 0.930 . S
C1680 C1679 1.376 . S
C1680 C1681 1.388 . S
C1681 H1668 0.930 . S
C1681 C1680 1.388 . S
C1681 C1682 1.390 . S
C1682 C1681 1.390 . S
C1682 C1683 1.394 1_545 S
C1682 C1688 1.465 . S
C1683 C1678 1.399 . S
C1683 C1682 1.394 1_565 S
C1683 C1684 1.516 . S
C1684 C1683 1.516 . S
C1684 C1685 1.502 . S
C1684 C1686 1.561 . S
C1684 C1687 1.526 . S
C1685 H1669 0.959 . S
C1685 H1670 0.959 . S
C1685 H1671 0.961 . S
C1685 C1684 1.502 . S
C1686 H1672 0.960 . S
C1686 H1673 0.961 . S
C1686 H1674 0.959 . S
C1686 C1684 1.561 . S
C1687 C1684 1.526 . S
C1687 C1688 1.396 1_565 S
C1687 C1692 1.390 . S
C1688 C1682 1.465 . S
C1688 C1687 1.396 1_545 S
C1688 C1689 1.399 . S
C1689 H1675 0.929 . S
C1689 C1688 1.399 . S
C1689 C1690 1.385 . S
C1690 H1676 0.931 . S
C1690 C1689 1.385 . S
C1690 C1691 1.389 . S
C1691 C1690 1.389 . S
C1691 C1692 1.387 1_545 S
C1692 H1677 0.930 . S
C1692 C1687 1.390 . S
C1692 C1691 1.387 1_565 S
H1693 C1705 0.930 . S
H1694 C1707 0.930 . S
H1695 C1708 0.930 . S
H1696 C1712 0.959 . S
H1697 C1712 0.959 . S
H1698 C1712 0.961 . S
H1699 C1713 0.960 . S
H1700 C1713 0.961 . S
H1701 C1713 0.959 . S
H1702 C1716 0.929 . S
H1703 C1717 0.931 . S
H1704 C1719 0.930 . S
C1705 H1693 0.930 . S
C1705 C1706 1.399 . S
C1705 C1710 1.399 . S
C1706 C1705 1.399 . S
C1706 C1707 1.376 . S
C1707 H1694 0.930 . S
C1707 C1706 1.376 . S
C1707 C1708 1.388 . S
C1708 H1695 0.930 . S
C1708 C1707 1.388 . S
C1708 C1709 1.390 . S
C1709 C1708 1.390 . S
C1709 C1710 1.394 . S
C1709 C1715 1.465 . S
C1710 C1705 1.399 . S
C1710 C1709 1.394 . S
C1710 C1711 1.516 . S
C1711 C1710 1.516 . S
C1711 C1712 1.502 . S
C1711 C1713 1.561 . S
C1711 C1714 1.526 . S
C1712 H1696 0.959 . S
C1712 H1697 0.959 . S
C1712 H1698 0.961 . S
C1712 C1711 1.502 . S
C1713 H1699 0.960 . S
C1713 H1700 0.961 . S
C1713 H1701 0.959 . S
C1713 C1711 1.561 . S
C1714 C1711 1.526 . S
C1714 C1715 1.396 . S
C1714 C1719 1.390 . S
C1715 C1709 1.465 . S
C1715 C1714 1.396 . S
C1715 C1716 1.399 . S
C1716 H1702 0.929 . S
C1716 C1715 1.399 . S
C1716 C1717 1.385 . S
C1717 H1703 0.931 . S
C1717 C1716 1.385 . S
C1717 C1718 1.389 . S
C1718 C1717 1.389 . S
C1718 C1719 1.387 . S
C1719 H1704 0.930 . S
C1719 C1714 1.390 . S
C1719 C1718 1.387 . S
H1720 C1732 0.930 . S
H1721 C1734 0.930 1_556 S
H1722 C1735 0.930 . S
H1723 C1739 0.959 . S
H1724 C1739 0.959 . S
H1725 C1739 0.961 . S
H1726 C1740 0.960 . S
H1727 C1740 0.961 . S
H1728 C1740 0.959 . S
H1729 C1743 0.929 . S
H1730 C1744 0.931 . S
H1731 C1746 0.930 . S
C1732 H1720 0.930 . S
C1732 C1733 1.399 . S
C1732 C1737 1.399 . S
C1733 C1732 1.399 . S
C1733 C1734 1.376 . S
C1734 H1721 0.930 1_554 S
C1734 C1733 1.376 . S
C1734 C1735 1.388 . S
C1735 H1722 0.930 . S
C1735 C1734 1.388 . S
C1735 C1736 1.390 . S
C1736 C1735 1.390 . S
C1736 C1737 1.394 . S
C1736 C1742 1.465 . S
C1737 C1732 1.399 . S
C1737 C1736 1.394 . S
C1737 C1738 1.516 . S
C1738 C1737 1.516 . S
C1738 C1739 1.502 . S
C1738 C1740 1.561 . S
C1738 C1741 1.526 . S
C1739 H1723 0.959 . S
C1739 H1724 0.959 . S
C1739 H1725 0.961 . S
C1739 C1738 1.502 . S
C1740 H1726 0.960 . S
C1740 H1727 0.961 . S
C1740 H1728 0.959 . S
C1740 C1738 1.561 . S
C1741 C1738 1.526 . S
C1741 C1742 1.396 . S
C1741 C1746 1.390 . S
C1742 C1736 1.465 . S
C1742 C1741 1.396 . S
C1742 C1743 1.399 . S
C1743 H1729 0.929 . S
C1743 C1742 1.399 . S
C1743 C1744 1.385 . S
C1744 H1730 0.931 . S
C1744 C1743 1.385 . S
C1744 C1745 1.389 . S
C1745 C1744 1.389 . S
C1745 C1746 1.387 . S
C1746 H1731 0.930 . S
C1746 C1741 1.390 . S
C1746 C1745 1.387 . S
H1747 C1759 0.930 . S
H1748 C1761 0.930 . S
H1749 C1762 0.930 . S
H1750 C1766 0.959 . S
H1751 C1766 0.959 . S
H1752 C1766 0.961 . S
H1753 C1767 0.960 . S
H1754 C1767 0.961 . S
H1755 C1767 0.959 . S
H1756 C1770 0.929 . S
H1757 C1771 0.931 1_556 S
H1758 C1773 0.930 . S
C1759 H1747 0.930 . S
C1759 C1760 1.399 . S
C1759 C1764 1.399 . S
C1760 C1759 1.399 . S
C1760 C1761 1.376 . S
C1761 H1748 0.930 . S
C1761 C1760 1.376 . S
C1761 C1762 1.388 . S
C1762 H1749 0.930 . S
C1762 C1761 1.388 . S
C1762 C1763 1.390 . S
C1763 C1762 1.390 . S
C1763 C1764 1.394 . S
C1763 C1769 1.465 . S
C1764 C1759 1.399 . S
C1764 C1763 1.394 . S
C1764 C1765 1.516 . S
C1765 C1764 1.516 . S
C1765 C1766 1.502 . S
C1765 C1767 1.561 . S
C1765 C1768 1.526 . S
C1766 H1750 0.959 . S
C1766 H1751 0.959 . S
C1766 H1752 0.961 . S
C1766 C1765 1.502 . S
C1767 H1753 0.960 . S
C1767 H1754 0.961 . S
C1767 H1755 0.959 . S
C1767 C1765 1.561 . S
C1768 C1765 1.526 . S
C1768 C1769 1.396 . S
C1768 C1773 1.390 . S
C1769 C1763 1.465 . S
C1769 C1768 1.396 . S
C1769 C1770 1.399 . S
C1770 H1756 0.929 . S
C1770 C1769 1.399 . S
C1770 C1771 1.385 . S
C1771 H1757 0.931 1_554 S
C1771 C1770 1.385 . S
C1771 C1772 1.390 . S
C1772 C1771 1.390 . S
C1772 C1773 1.388 . S
C1773 H1758 0.930 . S
C1773 C1768 1.390 . S
C1773 C1772 1.388 . S
H1774 C1786 0.930 . S
H1775 C1788 0.930 . S
H1776 C1789 0.930 . S
H1777 C1793 0.959 . S
H1778 C1793 0.959 . S
H1779 C1793 0.961 1_556 S
H1780 C1794 0.960 1_556 S
H1781 C1794 0.961 . S
H1782 C1794 0.959 . S
H1783 C1797 0.929 . S
H1784 C1798 0.931 . S
H1785 C1800 0.930 . S
C1786 H1774 0.930 . S
C1786 C1787 1.399 . S
C1786 C1791 1.399 . S
C1787 C1786 1.399 . S
C1787 C1788 1.376 . S
C1788 H1775 0.930 . S
C1788 C1787 1.376 . S
C1788 C1789 1.388 . S
C1789 H1776 0.930 . S
C1789 C1788 1.388 . S
C1789 C1790 1.390 . S
C1790 C1789 1.390 . S
C1790 C1791 1.394 . S
C1790 C1796 1.465 1_556 S
C1791 C1786 1.399 . S
C1791 C1790 1.394 . S
C1791 C1792 1.516 1_556 S
C1792 C1791 1.516 1_554 S
C1792 C1793 1.502 . S
C1792 C1794 1.561 . S
C1792 C1795 1.526 . S
C1793 H1777 0.959 . S
C1793 H1778 0.959 . S
C1793 H1779 0.961 1_554 S
C1793 C1792 1.502 . S
C1794 H1780 0.960 1_554 S
C1794 H1781 0.961 . S
C1794 H1782 0.959 . S
C1794 C1792 1.561 . S
C1795 C1792 1.526 . S
C1795 C1796 1.396 . S
C1795 C1800 1.390 . S
C1796 C1790 1.465 1_554 S
C1796 C1795 1.396 . S
C1796 C1797 1.399 . S
C1797 H1783 0.929 . S
C1797 C1796 1.399 . S
C1797 C1798 1.385 . S
C1798 H1784 0.931 . S
C1798 C1797 1.385 . S
C1798 C1799 1.389 . S
C1799 C1798 1.389 . S
C1799 C1800 1.387 . S
C1800 H1785 0.930 . S
C1800 C1795 1.390 . S
C1800 C1799 1.387 . S
H1801 C1813 0.930 . S
H1802 C1815 0.930 . S
H1803 C1816 0.930 . S
H1804 C1820 0.959 . S
H1805 C1820 0.959 . S
H1806 C1820 0.961 1_556 S
H1807 C1821 0.960 1_556 S
H1808 C1821 0.961 . S
H1809 C1821 0.959 . S
H1810 C1824 0.929 . S
H1811 C1825 0.931 . S
H1812 C1827 0.930 . S
C1813 H1801 0.930 . S
C1813 C1814 1.399 . S
C1813 C1818 1.399 . S
C1814 C1813 1.399 . S
C1814 C1815 1.376 . S
C1815 H1802 0.930 . S
C1815 C1814 1.376 . S
C1815 C1816 1.388 . S
C1816 H1803 0.930 . S
C1816 C1815 1.388 . S
C1816 C1817 1.390 . S
C1817 C1816 1.390 . S
C1817 C1818 1.394 . S
C1817 C1823 1.465 1_556 S
C1818 C1813 1.399 . S
C1818 C1817 1.394 . S
C1818 C1819 1.516 1_556 S
C1819 C1818 1.516 1_554 S
C1819 C1820 1.502 . S
C1819 C1821 1.561 . S
C1819 C1822 1.526 . S
C1820 H1804 0.959 . S
C1820 H1805 0.959 . S
C1820 H1806 0.961 1_554 S
C1820 C1819 1.502 . S
C1821 H1807 0.960 1_554 S
C1821 H1808 0.961 . S
C1821 H1809 0.959 . S
C1821 C1819 1.561 . S
C1822 C1819 1.526 . S
C1822 C1823 1.396 . S
C1822 C1827 1.390 . S
C1823 C1817 1.465 1_554 S
C1823 C1822 1.396 . S
C1823 C1824 1.399 . S
C1824 H1810 0.929 . S
C1824 C1823 1.399 . S
C1824 C1825 1.385 . S
C1825 H1811 0.931 . S
C1825 C1824 1.385 . S
C1825 C1826 1.389 . S
C1826 C1825 1.389 . S
C1826 C1827 1.387 . S
C1827 H1812 0.930 . S
C1827 C1822 1.390 . S
C1827 C1826 1.387 . S
H1828 C1840 0.930 . S
H1829 C1842 0.930 . S
H1830 C1843 0.930 . S
H1831 C1847 0.959 . S
H1832 C1847 0.959 . S
H1833 C1847 0.961 . S
H1834 C1848 0.960 . S
H1835 C1848 0.961 . S
H1836 C1848 0.959 . S
H1837 C1851 0.929 . S
H1838 C1852 0.931 1_554 S
H1839 C1854 0.930 . S
C1840 H1828 0.930 . S
C1840 C1841 1.399 . S
C1840 C1845 1.399 . S
C1841 C1840 1.399 . S
C1841 C1842 1.376 . S
C1842 H1829 0.930 . S
C1842 C1841 1.376 . S
C1842 C1843 1.388 . S
C1843 H1830 0.930 . S
C1843 C1842 1.388 . S
C1843 C1844 1.390 . S
C1844 C1843 1.390 . S
C1844 C1845 1.394 . S
C1844 C1850 1.465 . S
C1845 C1840 1.399 . S
C1845 C1844 1.394 . S
C1845 C1846 1.516 . S
C1846 C1845 1.516 . S
C1846 C1847 1.502 . S
C1846 C1848 1.561 . S
C1846 C1849 1.526 . S
C1847 H1831 0.959 . S
C1847 H1832 0.959 . S
C1847 H1833 0.961 . S
C1847 C1846 1.502 . S
C1848 H1834 0.960 . S
C1848 H1835 0.961 . S
C1848 H1836 0.959 . S
C1848 C1846 1.561 . S
C1849 C1846 1.526 . S
C1849 C1850 1.396 . S
C1849 C1854 1.390 . S
C1850 C1844 1.465 . S
C1850 C1849 1.396 . S
C1850 C1851 1.399 . S
C1851 H1837 0.929 . S
C1851 C1850 1.399 . S
C1851 C1852 1.385 . S
C1852 H1838 0.931 1_556 S
C1852 C1851 1.385 . S
C1852 C1853 1.389 . S
C1853 C1852 1.389 . S
C1853 C1854 1.387 . S
C1854 H1839 0.930 . S
C1854 C1849 1.390 . S
C1854 C1853 1.387 . S
H1855 C1867 0.930 . S
H1856 C1869 0.930 1_554 S
H1857 C1870 0.930 . S
H1858 C1874 0.959 . S
H1859 C1874 0.959 . S
H1860 C1874 0.961 . S
H1861 C1875 0.960 . S
H1862 C1875 0.961 . S
H1863 C1875 0.959 . S
H1864 C1878 0.929 . S
H1865 C1879 0.931 . S
H1866 C1881 0.930 . S
C1867 H1855 0.930 . S
C1867 C1868 1.400 1_556 S
C1867 C1872 1.399 . S
C1868 C1867 1.400 1_554 S
C1868 C1869 1.377 1_554 S
C1869 H1856 0.930 1_556 S
C1869 C1868 1.377 1_556 S
C1869 C1870 1.388 . S
C1870 H1857 0.930 . S
C1870 C1869 1.388 . S
C1870 C1871 1.390 . S
C1871 C1870 1.390 . S
C1871 C1872 1.394 . S
C1871 C1877 1.465 . S
C1872 C1867 1.399 . S
C1872 C1871 1.394 . S
C1872 C1873 1.516 . S
C1873 C1872 1.516 . S
C1873 C1874 1.502 . S
C1873 C1875 1.561 . S
C1873 C1876 1.526 . S
C1874 H1858 0.959 . S
C1874 H1859 0.959 . S
C1874 H1860 0.961 . S
C1874 C1873 1.502 . S
C1875 H1861 0.960 . S
C1875 H1862 0.961 . S
C1875 H1863 0.959 . S
C1875 C1873 1.561 . S
C1876 C1873 1.526 . S
C1876 C1877 1.396 . S
C1876 C1881 1.390 . S
C1877 C1871 1.465 . S
C1877 C1876 1.396 . S
C1877 C1878 1.399 . S
C1878 H1864 0.929 . S
C1878 C1877 1.399 . S
C1878 C1879 1.385 . S
C1879 H1865 0.931 . S
C1879 C1878 1.385 . S
C1879 C1880 1.389 . S
C1880 C1879 1.389 . S
C1880 C1881 1.387 . S
C1881 H1866 0.930 . S
C1881 C1876 1.390 . S
C1881 C1880 1.387 . S
H1882 C1894 0.930 . S
H1883 C1896 0.930 . S
H1884 C1897 0.930 . S
H1885 C1901 0.959 . S
H1886 C1901 0.959 . S
H1887 C1901 0.961 1_554 S
H1888 C1902 0.960 1_554 S
H1889 C1902 0.961 . S
H1890 C1902 0.959 . S
H1891 C1905 0.929 . S
H1892 C1906 0.931 . S
H1893 C1908 0.930 . S
C1894 H1882 0.930 . S
C1894 C1895 1.399 . S
C1894 C1899 1.399 . S
C1895 C1894 1.399 . S
C1895 C1896 1.376 . S
C1896 H1883 0.930 . S
C1896 C1895 1.376 . S
C1896 C1897 1.388 . S
C1897 H1884 0.930 . S
C1897 C1896 1.388 . S
C1897 C1898 1.390 . S
C1898 C1897 1.390 . S
C1898 C1899 1.394 . S
C1898 C1904 1.465 1_554 S
C1899 C1894 1.399 . S
C1899 C1898 1.394 . S
C1899 C1900 1.516 1_554 S
C1900 C1899 1.516 1_556 S
C1900 C1901 1.502 . S
C1900 C1902 1.561 . S
C1900 C1903 1.526 . S
C1901 H1885 0.959 . S
C1901 H1886 0.959 . S
C1901 H1887 0.961 1_556 S
C1901 C1900 1.502 . S
C1902 H1888 0.960 1_556 S
C1902 H1889 0.961 . S
C1902 H1890 0.959 . S
C1902 C1900 1.561 . S
C1903 C1900 1.526 . S
C1903 C1904 1.396 . S
C1903 C1908 1.390 . S
C1904 C1898 1.465 1_556 S
C1904 C1903 1.396 . S
C1904 C1905 1.399 . S
C1905 H1891 0.929 . S
C1905 C1904 1.399 . S
C1905 C1906 1.385 . S
C1906 H1892 0.931 . S
C1906 C1905 1.385 . S
C1906 C1907 1.389 . S
C1907 C1906 1.389 . S
C1907 C1908 1.387 . S
C1908 H1893 0.930 . S
C1908 C1903 1.390 . S
C1908 C1907 1.387 . S
H1909 C1921 0.930 . S
H1910 C1923 0.930 . S
H1911 C1924 0.930 . S
H1912 C1928 0.959 . S
H1913 C1928 0.959 1_554 S
H1914 C1928 0.961 . S
H1915 C1929 0.960 . S
H1916 C1929 0.961 1_554 S
H1917 C1929 0.959 . S
H1918 C1932 0.929 . S
H1919 C1933 0.931 . S
H1920 C1935 0.930 . S
C1921 H1909 0.930 . S
C1921 C1922 1.399 . S
C1921 C1926 1.399 . S
C1922 C1921 1.399 . S
C1922 C1923 1.376 . S
C1923 H1910 0.930 . S
C1923 C1922 1.376 . S
C1923 C1924 1.388 . S
C1924 H1911 0.930 . S
C1924 C1923 1.388 . S
C1924 C1925 1.390 . S
C1925 C1924 1.390 . S
C1925 C1926 1.394 . S
C1925 C1931 1.465 1_556 S
C1926 C1921 1.399 . S
C1926 C1925 1.394 . S
C1926 C1927 1.516 . S
C1927 C1926 1.516 . S
C1927 C1928 1.502 . S
C1927 C1929 1.561 . S
C1927 C1930 1.526 1_556 S
C1928 H1912 0.959 . S
C1928 H1913 0.959 1_556 S
C1928 H1914 0.961 . S
C1928 C1927 1.502 . S
C1929 H1915 0.960 . S
C1929 H1916 0.961 1_556 S
C1929 H1917 0.959 . S
C1929 C1927 1.561 . S
C1930 C1927 1.526 1_554 S
C1930 C1931 1.396 . S
C1930 C1935 1.390 . S
C1931 C1925 1.465 1_554 S
C1931 C1930 1.396 . S
C1931 C1932 1.399 . S
C1932 H1918 0.929 . S
C1932 C1931 1.399 . S
C1932 C1933 1.385 . S
C1933 H1919 0.931 . S
C1933 C1932 1.385 . S
C1933 C1934 1.389 . S
C1934 C1933 1.389 . S
C1934 C1935 1.387 . S
C1935 H1920 0.930 . S
C1935 C1930 1.390 . S
C1935 C1934 1.387 . S
H1936 C1948 0.930 . S
H1937 C1950 0.930 1_556 S
H1938 C1951 0.930 . S
H1939 C1955 0.959 . S
H1940 C1955 0.959 . S
H1941 C1955 0.961 . S
H1942 C1956 0.960 . S
H1943 C1956 0.961 . S
H1944 C1956 0.959 . S
H1945 C1959 0.929 . S
H1946 C1960 0.931 . S
H1947 C1962 0.930 . S
C1948 H1936 0.930 . S
C1948 C1949 1.399 . S
C1948 C1953 1.399 . S
C1949 C1948 1.399 . S
C1949 C1950 1.376 . S
C1950 H1937 0.930 1_554 S
C1950 C1949 1.376 . S
C1950 C1951 1.388 . S
C1951 H1938 0.930 . S
C1951 C1950 1.388 . S
C1951 C1952 1.390 . S
C1952 C1951 1.390 . S
C1952 C1953 1.394 . S
C1952 C1958 1.465 . S
C1953 C1948 1.399 . S
C1953 C1952 1.394 . S
C1953 C1954 1.516 . S
C1954 C1953 1.516 . S
C1954 C1955 1.502 . S
C1954 C1956 1.561 . S
C1954 C1957 1.526 . S
C1955 H1939 0.959 . S
C1955 H1940 0.959 . S
C1955 H1941 0.961 . S
C1955 C1954 1.502 . S
C1956 H1942 0.960 . S
C1956 H1943 0.961 . S
C1956 H1944 0.959 . S
C1956 C1954 1.561 . S
C1957 C1954 1.526 . S
C1957 C1958 1.396 . S
C1957 C1962 1.390 . S
C1958 C1952 1.465 . S
C1958 C1957 1.396 . S
C1958 C1959 1.399 . S
C1959 H1945 0.929 . S
C1959 C1958 1.399 . S
C1959 C1960 1.385 . S
C1960 H1946 0.931 . S
C1960 C1959 1.385 . S
C1960 C1961 1.389 . S
C1961 C1960 1.389 . S
C1961 C1962 1.387 . S
C1962 H1947 0.930 . S
C1962 C1957 1.390 . S
C1962 C1961 1.387 . S
H1963 C1975 0.930 . S
H1964 C1977 0.930 . S
H1965 C1978 0.930 . S
H1966 C1982 0.959 . S
H1967 C1982 0.959 . S
H1968 C1982 0.961 . S
H1969 C1983 0.960 . S
H1970 C1983 0.961 . S
H1971 C1983 0.959 . S
H1972 C1986 0.929 . S
H1973 C1987 0.931 1_556 S
H1974 C1989 0.930 . S
C1975 H1963 0.930 . S
C1975 C1976 1.384 1_565 S
C1975 C1980 1.399 . S
C1976 C1975 1.384 1_545 S
C1976 C1977 1.395 . S
C1977 H1964 0.930 . S
C1977 C1976 1.395 . S
C1977 C1978 1.388 . S
C1978 H1965 0.930 . S
C1978 C1977 1.388 . S
C1978 C1979 1.390 . S
C1979 C1978 1.390 . S
C1979 C1980 1.394 1_545 S
C1979 C1985 1.465 . S
C1980 C1975 1.399 . S
C1980 C1979 1.394 1_565 S
C1980 C1981 1.516 . S
C1981 C1980 1.516 . S
C1981 C1982 1.502 . S
C1981 C1983 1.561 . S
C1981 C1984 1.526 . S
C1982 H1966 0.959 . S
C1982 H1967 0.959 . S
C1982 H1968 0.961 . S
C1982 C1981 1.502 . S
C1983 H1969 0.960 . S
C1983 H1970 0.961 . S
C1983 H1971 0.959 . S
C1983 C1981 1.561 . S
C1984 C1981 1.526 . S
C1984 C1985 1.396 1_565 S
C1984 C1989 1.390 . S
C1985 C1979 1.465 . S
C1985 C1984 1.396 1_545 S
C1985 C1986 1.399 . S
C1986 H1972 0.929 . S
C1986 C1985 1.399 . S
C1986 C1987 1.385 . S
C1987 H1973 0.931 1_554 S
C1987 C1986 1.385 . S
C1987 C1988 1.395 1_545 S
C1988 C1987 1.395 1_565 S
C1988 C1989 1.394 . S
C1989 H1974 0.930 . S
C1989 C1984 1.390 . S
C1989 C1988 1.394 . S
H1990 C2002 0.930 . S
H1991 C2004 0.930 . S
H1992 C2005 0.930 . S
H1993 C2009 0.959 . S
H1994 C2009 0.959 . S
H1995 C2009 0.961 1_556 S
H1996 C2010 0.960 1_556 S
H1997 C2010 0.961 . S
H1998 C2010 0.959 . S
H1999 C2013 0.929 . S
H2000 C2014 0.931 . S
H2001 C2016 0.930 . S
C2002 H1990 0.930 . S
C2002 C2003 1.403 . S
C2002 C2007 1.399 . S
C2003 C2002 1.403 . S
C2003 C2004 1.371 1_565 S
C2004 H1991 0.930 . S
C2004 C2003 1.371 1_545 S
C2004 C2005 1.388 . S
C2005 H1992 0.930 . S
C2005 C2004 1.388 . S
C2005 C2006 1.390 . S
C2006 C2005 1.390 . S
C2006 C2007 1.394 1_545 S
C2006 C2012 1.465 1_556 S
C2007 C2002 1.399 . S
C2007 C2006 1.394 1_565 S
C2007 C2008 1.516 1_556 S
C2008 C2007 1.516 1_554 S
C2008 C2009 1.502 . S
C2008 C2010 1.561 . S
C2008 C2011 1.526 . S
C2009 H1993 0.959 . S
C2009 H1994 0.959 . S
C2009 H1995 0.961 1_554 S
C2009 C2008 1.502 . S
C2010 H1996 0.960 1_554 S
C2010 H1997 0.961 . S
C2010 H1998 0.959 . S
C2010 C2008 1.561 . S
C2011 C2008 1.526 . S
C2011 C2012 1.396 1_565 S
C2011 C2016 1.390 . S
C2012 C2006 1.465 1_554 S
C2012 C2011 1.396 1_545 S
C2012 C2013 1.399 . S
C2013 H1999 0.929 . S
C2013 C2012 1.399 . S
C2013 C2014 1.385 . S
C2014 H2000 0.931 . S
C2014 C2013 1.385 . S
C2014 C2015 1.369 1_545 S
C2015 C2014 1.369 1_565 S
C2015 C2016 1.404 . S
C2016 H2001 0.930 . S
C2016 C2011 1.390 . S
C2016 C2015 1.404 . S
H2017 C2029 0.930 . S
H2018 C2031 0.930 . S
H2019 C2032 0.930 . S
H2020 C2036 0.959 . S
H2021 C2036 0.959 . S
H2022 C2036 0.961 1_556 S
H2023 C2037 0.960 1_556 S
H2024 C2037 0.961 . S
H2025 C2037 0.959 . S
H2026 C2040 0.929 . S
H2027 C2041 0.931 . S
H2028 C2043 0.930 . S
C2029 H2017 0.930 . S
C2029 C2030 1.399 . S
C2029 C2034 1.399 . S
C2030 C2029 1.399 . S
C2030 C2031 1.376 . S
C2031 H2018 0.930 . S
C2031 C2030 1.376 . S
C2031 C2032 1.388 . S
C2032 H2019 0.930 . S
C2032 C2031 1.388 . S
C2032 C2033 1.390 . S
C2033 C2032 1.390 . S
C2033 C2034 1.394 . S
C2033 C2039 1.465 1_556 S
C2034 C2029 1.399 . S
C2034 C2033 1.394 . S
C2034 C2035 1.516 1_556 S
C2035 C2034 1.516 1_554 S
C2035 C2036 1.502 . S
C2035 C2037 1.561 . S
C2035 C2038 1.526 . S
C2036 H2020 0.959 . S
C2036 H2021 0.959 . S
C2036 H2022 0.961 1_554 S
C2036 C2035 1.502 . S
C2037 H2023 0.960 1_554 S
C2037 H2024 0.961 . S
C2037 H2025 0.959 . S
C2037 C2035 1.561 . S
C2038 C2035 1.526 . S
C2038 C2039 1.396 . S
C2038 C2043 1.390 . S
C2039 C2033 1.465 1_554 S
C2039 C2038 1.396 . S
C2039 C2040 1.399 . S
C2040 H2026 0.929 . S
C2040 C2039 1.399 . S
C2040 C2041 1.385 . S
C2041 H2027 0.931 . S
C2041 C2040 1.385 . S
C2041 C2042 1.389 . S
C2042 C2041 1.389 . S
C2042 C2043 1.387 . S
C2043 H2028 0.930 . S
C2043 C2038 1.390 . S
C2043 C2042 1.387 . S
H2044 C2056 0.930 . S
H2045 C2058 0.930 1_554 S
H2046 C2059 0.930 . S
H2047 C2063 0.959 . S
H2048 C2063 0.959 . S
H2049 C2063 0.961 . S
H2050 C2064 0.960 . S
H2051 C2064 0.961 . S
H2052 C2064 0.959 . S
H2053 C2067 0.929 . S
H2054 C2068 0.931 . S
H2055 C2070 0.930 . S
C2056 H2044 0.930 . S
C2056 C2057 1.406 . S
C2056 C2061 1.399 . S
C2057 C2056 1.406 . S
C2057 C2058 1.381 . S
C2058 H2045 0.930 1_556 S
C2058 C2057 1.381 . S
C2058 C2059 1.388 . S
C2059 H2046 0.930 . S
C2059 C2058 1.388 . S
C2059 C2060 1.390 . S
C2060 C2059 1.390 . S
C2060 C2061 1.394 . S
C2060 C2066 1.465 . S
C2061 C2056 1.399 . S
C2061 C2060 1.394 . S
C2061 C2062 1.516 . S
C2062 C2061 1.516 . S
C2062 C2063 1.502 . S
C2062 C2064 1.561 . S
C2062 C2065 1.526 . S
C2063 H2047 0.959 . S
C2063 H2048 0.959 . S
C2063 H2049 0.961 . S
C2063 C2062 1.502 . S
C2064 H2050 0.960 . S
C2064 H2051 0.961 . S
C2064 H2052 0.959 . S
C2064 C2062 1.561 . S
C2065 C2062 1.526 . S
C2065 C2066 1.396 . S
C2065 C2070 1.390 . S
C2066 C2060 1.465 . S
C2066 C2065 1.396 . S
C2066 C2067 1.399 . S
C2067 H2053 0.929 . S
C2067 C2066 1.399 . S
C2067 C2068 1.385 . S
C2068 H2054 0.931 . S
C2068 C2067 1.385 . S
C2068 C2069 1.389 . S
C2069 C2068 1.389 . S
C2069 C2070 1.387 . S
C2070 H2055 0.930 . S
C2070 C2065 1.390 . S
C2070 C2069 1.387 . S
H2071 C2083 0.930 . S
H2072 C2085 0.930 . S
H2073 C2086 0.930 . S
H2074 C2090 0.959 . S
H2075 C2090 0.959 . S
H2076 C2090 0.961 . S
H2077 C2091 0.960 . S
H2078 C2091 0.961 . S
H2079 C2091 0.959 . S
H2080 C2094 0.929 . S
H2081 C2095 0.931 1_554 S
H2082 C2097 0.930 . S
C2083 H2071 0.930 . S
C2083 C2084 1.399 1_565 S
C2083 C2088 1.399 . S
C2084 C2083 1.399 1_545 S
C2084 C2085 1.376 . S
C2085 H2072 0.930 . S
C2085 C2084 1.376 . S
C2085 C2086 1.388 . S
C2086 H2073 0.930 . S
C2086 C2085 1.388 . S
C2086 C2087 1.390 . S
C2087 C2086 1.390 . S
C2087 C2088 1.394 1_545 S
C2087 C2093 1.465 . S
C2088 C2083 1.399 . S
C2088 C2087 1.394 1_565 S
C2088 C2089 1.516 . S
C2089 C2088 1.516 . S
C2089 C2090 1.502 . S
C2089 C2091 1.561 . S
C2089 C2092 1.526 . S
C2090 H2074 0.959 . S
C2090 H2075 0.959 . S
C2090 H2076 0.961 . S
C2090 C2089 1.502 . S
C2091 H2077 0.960 . S
C2091 H2078 0.961 . S
C2091 H2079 0.959 . S
C2091 C2089 1.561 . S
C2092 C2089 1.526 . S
C2092 C2093 1.396 1_565 S
C2092 C2097 1.390 . S
C2093 C2087 1.465 . S
C2093 C2092 1.396 1_545 S
C2093 C2094 1.399 . S
C2094 H2080 0.929 . S
C2094 C2093 1.399 . S
C2094 C2095 1.385 . S
C2095 H2081 0.931 1_556 S
C2095 C2094 1.385 . S
C2095 C2096 1.389 . S
C2096 C2095 1.389 . S
C2096 C2097 1.387 1_545 S
C2097 H2082 0.930 . S
C2097 C2092 1.390 . S
C2097 C2096 1.387 1_565 S
H2098 C2110 0.930 . S
H2099 C2112 0.930 . S
H2100 C2113 0.930 . S
H2101 C2117 0.959 . S
H2102 C2117 0.959 1_554 S
H2103 C2117 0.961 . S
H2104 C2118 0.960 . S
H2105 C2118 0.961 1_554 S
H2106 C2118 0.959 . S
H2107 C2121 0.929 . S
H2108 C2122 0.931 . S
H2109 C2124 0.930 . S
C2110 H2098 0.930 . S
C2110 C2111 1.423 . S
C2110 C2115 1.399 . S
C2111 C2110 1.423 . S
C2111 C2112 1.348 1_545 S
C2112 H2099 0.930 . S
C2112 C2111 1.348 1_565 S
C2112 C2113 1.388 . S
C2113 H2100 0.930 . S
C2113 C2112 1.388 . S
C2113 C2114 1.390 . S
C2114 C2113 1.390 . S
C2114 C2115 1.394 1_565 S
C2114 C2120 1.465 1_556 S
C2115 C2110 1.399 . S
C2115 C2114 1.394 1_545 S
C2115 C2116 1.516 . S
C2116 C2115 1.516 . S
C2116 C2117 1.502 . S
C2116 C2118 1.561 . S
C2116 C2119 1.526 1_556 S
C2117 H2101 0.959 . S
C2117 H2102 0.959 1_556 S
C2117 H2103 0.961 . S
C2117 C2116 1.502 . S
C2118 H2104 0.960 . S
C2118 H2105 0.961 1_556 S
C2118 H2106 0.959 . S
C2118 C2116 1.561 . S
C2119 C2116 1.526 1_554 S
C2119 C2120 1.396 1_545 S
C2119 C2124 1.390 . S
C2120 C2114 1.465 1_554 S
C2120 C2119 1.396 1_565 S
C2120 C2121 1.399 . S
C2121 H2107 0.929 . S
C2121 C2120 1.399 . S
C2121 C2122 1.385 . S
C2122 H2108 0.931 . S
C2122 C2121 1.385 . S
C2122 C2123 1.421 . S
C2123 C2122 1.421 . S
C2123 C2124 1.360 1_565 S
C2124 H2109 0.930 . S
C2124 C2119 1.390 . S
C2124 C2123 1.360 1_545 S
H2125 C2137 0.930 . S
H2126 C2139 0.930 . S
H2127 C2140 0.930 . S
H2128 C2144 0.959 . S
H2129 C2144 0.959 1_554 S
H2130 C2144 0.961 . S
H2131 C2145 0.960 . S
H2132 C2145 0.961 1_554 S
H2133 C2145 0.959 . S
H2134 C2148 0.929 . S
H2135 C2149 0.931 . S
H2136 C2151 0.930 . S
C2137 H2125 0.930 . S
C2137 C2138 1.399 . S
C2137 C2142 1.399 . S
C2138 C2137 1.399 . S
C2138 C2139 1.376 . S
C2139 H2126 0.930 . S
C2139 C2138 1.376 . S
C2139 C2140 1.388 . S
C2140 H2127 0.930 . S
C2140 C2139 1.388 . S
C2140 C2141 1.390 . S
C2141 C2140 1.390 . S
C2141 C2142 1.394 . S
C2141 C2147 1.465 1_556 S
C2142 C2137 1.399 . S
C2142 C2141 1.394 . S
C2142 C2143 1.516 . S
C2143 C2142 1.516 . S
C2143 C2144 1.502 . S
C2143 C2145 1.561 . S
C2143 C2146 1.526 1_556 S
C2144 H2128 0.959 . S
C2144 H2129 0.959 1_556 S
C2144 H2130 0.961 . S
C2144 C2143 1.502 . S
C2145 H2131 0.960 . S
C2145 H2132 0.961 1_556 S
C2145 H2133 0.959 . S
C2145 C2143 1.561 . S
C2146 C2143 1.526 1_554 S
C2146 C2147 1.396 . S
C2146 C2151 1.390 . S
C2147 C2141 1.465 1_554 S
C2147 C2146 1.396 . S
C2147 C2148 1.399 . S
C2148 H2134 0.929 . S
C2148 C2147 1.399 . S
C2148 C2149 1.385 . S
C2149 H2135 0.931 . S
C2149 C2148 1.385 . S
C2149 C2150 1.389 . S
C2150 C2149 1.389 . S
C2150 C2151 1.387 . S
C2151 H2136 0.930 . S
C2151 C2146 1.390 . S
C2151 C2150 1.387 . S
H2152 C2164 0.930 . S
H2153 C2166 0.930 . S
H2154 C2167 0.930 . S
H2155 C2171 0.959 . S
H2156 C2171 0.959 . S
H2157 C2171 0.961 . S
H2158 C2172 0.960 . S
H2159 C2172 0.961 . S
H2160 C2172 0.959 . S
H2161 C2175 0.929 . S
H2162 C2176 0.931 . S
H2163 C2178 0.930 . S
C2164 H2152 0.930 . S
C2164 C2165 1.399 . S
C2164 C2169 1.399 . S
C2165 C2164 1.399 . S
C2165 C2166 1.376 . S
C2166 H2153 0.930 . S
C2166 C2165 1.376 . S
C2166 C2167 1.388 . S
C2167 H2154 0.930 . S
C2167 C2166 1.388 . S
C2167 C2168 1.390 . S
C2168 C2167 1.390 . S
C2168 C2169 1.394 . S
C2168 C2174 1.465 . S
C2169 C2164 1.399 . S
C2169 C2168 1.394 . S
C2169 C2170 1.516 . S
C2170 C2169 1.516 . S
C2170 C2171 1.502 . S
C2170 C2172 1.561 . S
C2170 C2173 1.526 . S
C2171 H2155 0.959 . S
C2171 H2156 0.959 . S
C2171 H2157 0.961 . S
C2171 C2170 1.502 . S
C2172 H2158 0.960 . S
C2172 H2159 0.961 . S
C2172 H2160 0.959 . S
C2172 C2170 1.561 . S
C2173 C2170 1.526 . S
C2173 C2174 1.396 . S
C2173 C2178 1.390 . S
C2174 C2168 1.465 . S
C2174 C2173 1.396 . S
C2174 C2175 1.399 . S
C2175 H2161 0.929 . S
C2175 C2174 1.399 . S
C2175 C2176 1.385 . S
C2176 H2162 0.931 . S
C2176 C2175 1.385 . S
C2176 C2177 1.389 . S
C2177 C2176 1.389 . S
C2177 C2178 1.387 . S
C2178 H2163 0.930 . S
C2178 C2173 1.390 . S
C2178 C2177 1.387 . S
H2179 C2191 0.930 . S
H2180 C2193 0.930 . S
H2181 C2194 0.930 . S
H2182 C2198 0.959 . S
H2183 C2198 0.959 . S
H2184 C2198 0.961 . S
H2185 C2199 0.960 . S
H2186 C2199 0.961 . S
H2187 C2199 0.959 . S
H2188 C2202 0.929 . S
H2189 C2203 0.931 . S
H2190 C2205 0.930 . S
C2191 H2179 0.930 . S
C2191 C2192 1.399 . S
C2191 C2196 1.399 . S
C2192 C2191 1.399 . S
C2192 C2193 1.376 . S
C2193 H2180 0.930 . S
C2193 C2192 1.376 . S
C2193 C2194 1.388 . S
C2194 H2181 0.930 . S
C2194 C2193 1.388 . S
C2194 C2195 1.390 . S
C2195 C2194 1.390 . S
C2195 C2196 1.394 . S
C2195 C2201 1.465 . S
C2196 C2191 1.399 . S
C2196 C2195 1.394 . S
C2196 C2197 1.516 . S
C2197 C2196 1.516 . S
C2197 C2198 1.502 . S
C2197 C2199 1.561 . S
C2197 C2200 1.526 . S
C2198 H2182 0.959 . S
C2198 H2183 0.959 . S
C2198 H2184 0.961 . S
C2198 C2197 1.502 . S
C2199 H2185 0.960 . S
C2199 H2186 0.961 . S
C2199 H2187 0.959 . S
C2199 C2197 1.561 . S
C2200 C2197 1.526 . S
C2200 C2201 1.396 . S
C2200 C2205 1.390 . S
C2201 C2195 1.465 . S
C2201 C2200 1.396 . S
C2201 C2202 1.399 . S
C2202 H2188 0.929 . S
C2202 C2201 1.399 . S
C2202 C2203 1.385 . S
C2203 H2189 0.931 . S
C2203 C2202 1.385 . S
C2203 C2204 1.389 . S
C2204 C2203 1.389 . S
C2204 C2205 1.387 . S
C2205 H2190 0.930 . S
C2205 C2200 1.390 . S
C2205 C2204 1.387 . S
H2206 C2218 0.930 . S
H2207 C2220 0.930 . S
H2208 C2221 0.930 . S
H2209 C2225 0.959 . S
H2210 C2225 0.959 . S
H2211 C2225 0.961 . S
H2212 C2226 0.960 . S
H2213 C2226 0.961 . S
H2214 C2226 0.959 . S
H2215 C2229 0.929 . S
H2216 C2230 0.931 . S
H2217 C2232 0.930 . S
C2218 H2206 0.930 . S
C2218 C2219 1.399 . S
C2218 C2223 1.399 . S
C2219 C2218 1.399 . S
C2219 C2220 1.376 . S
C2220 H2207 0.930 . S
C2220 C2219 1.376 . S
C2220 C2221 1.388 . S
C2221 H2208 0.930 . S
C2221 C2220 1.388 . S
C2221 C2222 1.390 . S
C2222 C2221 1.390 . S
C2222 C2223 1.394 . S
C2222 C2228 1.465 . S
C2223 C2218 1.399 . S
C2223 C2222 1.394 . S
C2223 C2224 1.516 . S
C2224 C2223 1.516 . S
C2224 C2225 1.502 . S
C2224 C2226 1.561 . S
C2224 C2227 1.526 . S
C2225 H2209 0.959 . S
C2225 H2210 0.959 . S
C2225 H2211 0.961 . S
C2225 C2224 1.502 . S
C2226 H2212 0.960 . S
C2226 H2213 0.961 . S
C2226 H2214 0.959 . S
C2226 C2224 1.561 . S
C2227 C2224 1.526 . S
C2227 C2228 1.396 . S
C2227 C2232 1.390 . S
C2228 C2222 1.465 . S
C2228 C2227 1.396 . S
C2228 C2229 1.399 . S
C2229 H2215 0.929 . S
C2229 C2228 1.399 . S
C2229 C2230 1.385 . S
C2230 H2216 0.931 . S
C2230 C2229 1.385 . S
C2230 C2231 1.389 . S
C2231 C2230 1.389 . S
C2231 C2232 1.387 . S
C2232 H2217 0.930 . S
C2232 C2227 1.390 . S
C2232 C2231 1.387 . S
H2233 C2245 0.930 . S
H2234 C2247 0.930 . S
H2235 C2248 0.930 . S
H2236 C2252 0.959 . S
H2237 C2252 0.959 . S
H2238 C2252 0.961 . S
H2239 C2253 0.960 . S
H2240 C2253 0.961 . S
H2241 C2253 0.959 . S
H2242 C2256 0.929 . S
H2243 C2257 0.931 . S
H2244 C2259 0.930 . S
C2245 H2233 0.930 . S
C2245 C2246 1.399 . S
C2245 C2250 1.399 . S
C2246 C2245 1.399 . S
C2246 C2247 1.376 . S
C2247 H2234 0.930 . S
C2247 C2246 1.376 . S
C2247 C2248 1.388 . S
C2248 H2235 0.930 . S
C2248 C2247 1.388 . S
C2248 C2249 1.390 . S
C2249 C2248 1.390 . S
C2249 C2250 1.394 . S
C2249 C2255 1.465 . S
C2250 C2245 1.399 . S
C2250 C2249 1.394 . S
C2250 C2251 1.516 . S
C2251 C2250 1.516 . S
C2251 C2252 1.502 . S
C2251 C2253 1.561 . S
C2251 C2254 1.526 . S
C2252 H2236 0.959 . S
C2252 H2237 0.959 . S
C2252 H2238 0.961 . S
C2252 C2251 1.502 . S
C2253 H2239 0.960 . S
C2253 H2240 0.961 . S
C2253 H2241 0.959 . S
C2253 C2251 1.561 . S
C2254 C2251 1.526 . S
C2254 C2255 1.396 . S
C2254 C2259 1.390 . S
C2255 C2249 1.465 . S
C2255 C2254 1.396 . S
C2255 C2256 1.399 . S
C2256 H2242 0.929 . S
C2256 C2255 1.399 . S
C2256 C2257 1.385 . S
C2257 H2243 0.931 . S
C2257 C2256 1.385 . S
C2257 C2258 1.389 . S
C2258 C2257 1.389 . S
C2258 C2259 1.387 . S
C2259 H2244 0.930 . S
C2259 C2254 1.390 . S
C2259 C2258 1.387 . S
H2260 C2272 0.930 . S
H2261 C2274 0.930 . S
H2262 C2275 0.930 . S
H2263 C2279 0.959 . S
H2264 C2279 0.959 . S
H2265 C2279 0.961 . S
H2266 C2280 0.960 . S
H2267 C2280 0.961 . S
H2268 C2280 0.959 . S
H2269 C2283 0.929 . S
H2270 C2284 0.931 . S
H2271 C2286 0.930 . S
C2272 H2260 0.930 . S
C2272 C2273 1.399 . S
C2272 C2277 1.399 . S
C2273 C2272 1.399 . S
C2273 C2274 1.376 . S
C2274 H2261 0.930 . S
C2274 C2273 1.376 . S
C2274 C2275 1.388 . S
C2275 H2262 0.930 . S
C2275 C2274 1.388 . S
C2275 C2276 1.390 . S
C2276 C2275 1.390 . S
C2276 C2277 1.394 . S
C2276 C2282 1.465 . S
C2277 C2272 1.399 . S
C2277 C2276 1.394 . S
C2277 C2278 1.516 . S
C2278 C2277 1.516 . S
C2278 C2279 1.502 . S
C2278 C2280 1.561 . S
C2278 C2281 1.526 . S
C2279 H2263 0.959 . S
C2279 H2264 0.959 . S
C2279 H2265 0.961 . S
C2279 C2278 1.502 . S
C2280 H2266 0.960 . S
C2280 H2267 0.961 . S
C2280 H2268 0.959 . S
C2280 C2278 1.561 . S
C2281 C2278 1.526 . S
C2281 C2282 1.396 . S
C2281 C2286 1.390 . S
C2282 C2276 1.465 . S
C2282 C2281 1.396 . S
C2282 C2283 1.399 . S
C2283 H2269 0.929 . S
C2283 C2282 1.399 . S
C2283 C2284 1.385 . S
C2284 H2270 0.931 . S
C2284 C2283 1.385 . S
C2284 C2285 1.389 . S
C2285 C2284 1.389 . S
C2285 C2286 1.387 . S
C2286 H2271 0.930 . S
C2286 C2281 1.390 . S
C2286 C2285 1.387 . S
H2287 C2299 0.930 . S
H2288 C2301 0.930 . S
H2289 C2302 0.930 . S
H2290 C2306 0.959 . S
H2291 C2306 0.959 . S
H2292 C2306 0.961 . S
H2293 C2307 0.960 . S
H2294 C2307 0.961 . S
H2295 C2307 0.959 . S
H2296 C2310 0.929 . S
H2297 C2311 0.931 . S
H2298 C2313 0.930 . S
C2299 H2287 0.930 . S
C2299 C2300 1.399 . S
C2299 C2304 1.399 . S
C2300 C2299 1.399 . S
C2300 C2301 1.376 . S
C2301 H2288 0.930 . S
C2301 C2300 1.376 . S
C2301 C2302 1.388 . S
C2302 H2289 0.930 . S
C2302 C2301 1.388 . S
C2302 C2303 1.390 . S
C2303 C2302 1.390 . S
C2303 C2304 1.394 . S
C2303 C2309 1.465 . S
C2304 C2299 1.399 . S
C2304 C2303 1.394 . S
C2304 C2305 1.516 . S
C2305 C2304 1.516 . S
C2305 C2306 1.502 . S
C2305 C2307 1.561 . S
C2305 C2308 1.526 . S
C2306 H2290 0.959 . S
C2306 H2291 0.959 . S
C2306 H2292 0.961 . S
C2306 C2305 1.502 . S
C2307 H2293 0.960 . S
C2307 H2294 0.961 . S
C2307 H2295 0.959 . S
C2307 C2305 1.561 . S
C2308 C2305 1.526 . S
C2308 C2309 1.396 . S
C2308 C2313 1.390 . S
C2309 C2303 1.465 . S
C2309 C2308 1.396 . S
C2309 C2310 1.399 . S
C2310 H2296 0.929 . S
C2310 C2309 1.399 . S
C2310 C2311 1.385 . S
C2311 H2297 0.931 . S
C2311 C2310 1.385 . S
C2311 C2312 1.389 . S
C2312 C2311 1.389 . S
C2312 C2313 1.387 . S
C2313 H2298 0.930 . S
C2313 C2308 1.390 . S
C2313 C2312 1.387 . S
H2314 C2326 0.930 . S
H2315 C2328 0.930 . S
H2316 C2329 0.930 . S
H2317 C2333 0.959 . S
H2318 C2333 0.959 . S
H2319 C2333 0.961 . S
H2320 C2334 0.960 . S
H2321 C2334 0.961 . S
H2322 C2334 0.959 . S
H2323 C2337 0.929 . S
H2324 C2338 0.931 . S
H2325 C2340 0.930 . S
C2326 H2314 0.930 . S
C2326 C2327 1.399 . S
C2326 C2331 1.399 . S
C2327 C2326 1.399 . S
C2327 C2328 1.376 . S
C2328 H2315 0.930 . S
C2328 C2327 1.376 . S
C2328 C2329 1.388 . S
C2329 H2316 0.930 . S
C2329 C2328 1.388 . S
C2329 C2330 1.390 . S
C2330 C2329 1.390 . S
C2330 C2331 1.394 . S
C2330 C2336 1.465 . S
C2331 C2326 1.399 . S
C2331 C2330 1.394 . S
C2331 C2332 1.516 . S
C2332 C2331 1.516 . S
C2332 C2333 1.502 . S
C2332 C2334 1.561 . S
C2332 C2335 1.526 . S
C2333 H2317 0.959 . S
C2333 H2318 0.959 . S
C2333 H2319 0.961 . S
C2333 C2332 1.502 . S
C2334 H2320 0.960 . S
C2334 H2321 0.961 . S
C2334 H2322 0.959 . S
C2334 C2332 1.561 . S
C2335 C2332 1.526 . S
C2335 C2336 1.396 . S
C2335 C2340 1.390 . S
C2336 C2330 1.465 . S
C2336 C2335 1.396 . S
C2336 C2337 1.399 . S
C2337 H2323 0.929 . S
C2337 C2336 1.399 . S
C2337 C2338 1.385 . S
C2338 H2324 0.931 . S
C2338 C2337 1.385 . S
C2338 C2339 1.389 . S
C2339 C2338 1.389 . S
C2339 C2340 1.387 . S
C2340 H2325 0.930 . S
C2340 C2335 1.390 . S
C2340 C2339 1.387 . S
H2341 C2353 0.930 . S
H2342 C2355 0.930 . S
H2343 C2356 0.930 . S
H2344 C2360 0.959 . S
H2345 C2360 0.959 . S
H2346 C2360 0.961 . S
H2347 C2361 0.960 . S
H2348 C2361 0.961 . S
H2349 C2361 0.959 . S
H2350 C2364 0.929 . S
H2351 C2365 0.931 . S
H2352 C2367 0.930 . S
C2353 H2341 0.930 . S
C2353 C2354 1.399 . S
C2353 C2358 1.399 . S
C2354 C2353 1.399 . S
C2354 C2355 1.376 . S
C2355 H2342 0.930 . S
C2355 C2354 1.376 . S
C2355 C2356 1.388 . S
C2356 H2343 0.930 . S
C2356 C2355 1.388 . S
C2356 C2357 1.390 . S
C2357 C2356 1.390 . S
C2357 C2358 1.394 . S
C2357 C2363 1.465 . S
C2358 C2353 1.399 . S
C2358 C2357 1.394 . S
C2358 C2359 1.516 . S
C2359 C2358 1.516 . S
C2359 C2360 1.502 . S
C2359 C2361 1.561 . S
C2359 C2362 1.526 . S
C2360 H2344 0.959 . S
C2360 H2345 0.959 . S
C2360 H2346 0.961 . S
C2360 C2359 1.502 . S
C2361 H2347 0.960 . S
C2361 H2348 0.961 . S
C2361 H2349 0.959 . S
C2361 C2359 1.561 . S
C2362 C2359 1.526 . S
C2362 C2363 1.396 . S
C2362 C2367 1.390 . S
C2363 C2357 1.465 . S
C2363 C2362 1.396 . S
C2363 C2364 1.399 . S
C2364 H2350 0.929 . S
C2364 C2363 1.399 . S
C2364 C2365 1.385 . S
C2365 H2351 0.931 . S
C2365 C2364 1.385 . S
C2365 C2366 1.389 . S
C2366 C2365 1.389 . S
C2366 C2367 1.387 . S
C2367 H2352 0.930 . S
C2367 C2362 1.390 . S
C2367 C2366 1.387 . S
H2368 C2380 0.930 . S
H2369 C2382 0.930 . S
H2370 C2383 0.930 . S
H2371 C2387 0.959 . S
H2372 C2387 0.959 . S
H2373 C2387 0.961 . S
H2374 C2388 0.960 . S
H2375 C2388 0.961 . S
H2376 C2388 0.959 . S
H2377 C2391 0.929 . S
H2378 C2392 0.931 . S
H2379 C2394 0.930 . S
C2380 H2368 0.930 . S
C2380 C2381 1.399 . S
C2380 C2385 1.399 . S
C2381 C2380 1.399 . S
C2381 C2382 1.376 . S
C2382 H2369 0.930 . S
C2382 C2381 1.376 . S
C2382 C2383 1.388 . S
C2383 H2370 0.930 . S
C2383 C2382 1.388 . S
C2383 C2384 1.390 . S
C2384 C2383 1.390 . S
C2384 C2385 1.394 . S
C2384 C2390 1.465 . S
C2385 C2380 1.399 . S
C2385 C2384 1.394 . S
C2385 C2386 1.516 . S
C2386 C2385 1.516 . S
C2386 C2387 1.502 . S
C2386 C2388 1.561 . S
C2386 C2389 1.526 . S
C2387 H2371 0.959 . S
C2387 H2372 0.959 . S
C2387 H2373 0.961 . S
C2387 C2386 1.502 . S
C2388 H2374 0.960 . S
C2388 H2375 0.961 . S
C2388 H2376 0.959 . S
C2388 C2386 1.561 . S
C2389 C2386 1.526 . S
C2389 C2390 1.396 . S
C2389 C2394 1.390 . S
C2390 C2384 1.465 . S
C2390 C2389 1.396 . S
C2390 C2391 1.399 . S
C2391 H2377 0.929 . S
C2391 C2390 1.399 . S
C2391 C2392 1.385 . S
C2392 H2378 0.931 . S
C2392 C2391 1.385 . S
C2392 C2393 1.389 . S
C2393 C2392 1.389 . S
C2393 C2394 1.387 . S
C2394 H2379 0.930 . S
C2394 C2389 1.390 . S
C2394 C2393 1.387 . S
H2395 C2407 0.930 . S
H2396 C2409 0.930 . S
H2397 C2410 0.930 . S
H2398 C2414 0.959 . S
H2399 C2414 0.959 . S
H2400 C2414 0.961 . S
H2401 C2415 0.960 . S
H2402 C2415 0.961 . S
H2403 C2415 0.959 . S
H2404 C2418 0.929 . S
H2405 C2419 0.931 . S
H2406 C2421 0.930 . S
C2407 H2395 0.930 . S
C2407 C2408 1.399 . S
C2407 C2412 1.399 . S
C2408 C2407 1.399 . S
C2408 C2409 1.376 . S
C2409 H2396 0.930 . S
C2409 C2408 1.376 . S
C2409 C2410 1.388 . S
C2410 H2397 0.930 . S
C2410 C2409 1.388 . S
C2410 C2411 1.390 . S
C2411 C2410 1.390 . S
C2411 C2412 1.394 . S
C2411 C2417 1.465 . S
C2412 C2407 1.399 . S
C2412 C2411 1.394 . S
C2412 C2413 1.516 . S
C2413 C2412 1.516 . S
C2413 C2414 1.502 . S
C2413 C2415 1.561 . S
C2413 C2416 1.526 . S
C2414 H2398 0.959 . S
C2414 H2399 0.959 . S
C2414 H2400 0.961 . S
C2414 C2413 1.502 . S
C2415 H2401 0.960 . S
C2415 H2402 0.961 . S
C2415 H2403 0.959 . S
C2415 C2413 1.561 . S
C2416 C2413 1.526 . S
C2416 C2417 1.396 . S
C2416 C2421 1.390 . S
C2417 C2411 1.465 . S
C2417 C2416 1.396 . S
C2417 C2418 1.399 . S
C2418 H2404 0.929 . S
C2418 C2417 1.399 . S
C2418 C2419 1.385 . S
C2419 H2405 0.931 . S
C2419 C2418 1.385 . S
C2419 C2420 1.389 . S
C2420 C2419 1.389 . S
C2420 C2421 1.387 . S
C2421 H2406 0.930 . S
C2421 C2416 1.390 . S
C2421 C2420 1.387 . S
H2422 C2434 0.930 . S
H2423 C2436 0.930 . S
H2424 C2437 0.930 . S
H2425 C2441 0.959 . S
H2426 C2441 0.959 . S
H2427 C2441 0.961 . S
H2428 C2442 0.960 1_554 S
H2429 C2442 0.961 . S
H2430 C2442 0.959 1_554 S
H2431 C2445 0.929 . S
H2432 C2446 0.931 . S
H2433 C2448 0.930 . S
C2434 H2422 0.930 . S
C2434 C2435 1.399 . S
C2434 C2439 1.399 . S
C2435 C2434 1.399 . S
C2435 C2436 1.376 . S
C2436 H2423 0.930 . S
C2436 C2435 1.376 . S
C2436 C2437 1.388 . S
C2437 H2424 0.930 . S
C2437 C2436 1.388 . S
C2437 C2438 1.390 . S
C2438 C2437 1.390 . S
C2438 C2439 1.394 . S
C2438 C2444 1.465 . S
C2439 C2434 1.399 . S
C2439 C2438 1.394 . S
C2439 C2440 1.516 . S
C2440 C2439 1.516 . S
C2440 C2441 1.502 . S
C2440 C2442 1.561 . S
C2440 C2443 1.526 . S
C2441 H2425 0.959 . S
C2441 H2426 0.959 . S
C2441 H2427 0.961 . S
C2441 C2440 1.502 . S
C2442 H2428 0.960 1_556 S
C2442 H2429 0.961 . S
C2442 H2430 0.959 1_556 S
C2442 C2440 1.561 . S
C2443 C2440 1.526 . S
C2443 C2444 1.396 . S
C2443 C2448 1.390 . S
C2444 C2438 1.465 . S
C2444 C2443 1.396 . S
C2444 C2445 1.399 . S
C2445 H2431 0.929 . S
C2445 C2444 1.399 . S
C2445 C2446 1.385 . S
C2446 H2432 0.931 . S
C2446 C2445 1.385 . S
C2446 C2447 1.389 . S
C2447 C2446 1.389 . S
C2447 C2448 1.387 . S
C2448 H2433 0.930 . S
C2448 C2443 1.390 . S
C2448 C2447 1.387 . S
H2449 C2461 0.930 . S
H2450 C2463 0.930 . S
H2451 C2464 0.930 . S
H2452 C2468 0.959 . S
H2453 C2468 0.959 . S
H2454 C2468 0.961 . S
H2455 C2469 0.960 . S
H2456 C2469 0.961 . S
H2457 C2469 0.959 1_556 S
H2458 C2472 0.929 . S
H2459 C2473 0.931 . S
H2460 C2475 0.930 1_554 S
C2461 H2449 0.930 . S
C2461 C2462 1.399 . S
C2461 C2466 1.399 . S
C2462 C2461 1.399 . S
C2462 C2463 1.376 . S
C2463 H2450 0.930 . S
C2463 C2462 1.376 . S
C2463 C2464 1.388 . S
C2464 H2451 0.930 . S
C2464 C2463 1.388 . S
C2464 C2465 1.390 . S
C2465 C2464 1.390 . S
C2465 C2466 1.394 . S
C2465 C2471 1.465 . S
C2466 C2461 1.399 . S
C2466 C2465 1.394 . S
C2466 C2467 1.516 . S
C2467 C2466 1.516 . S
C2467 C2468 1.502 1_556 S
C2467 C2469 1.561 1_556 S
C2467 C2470 1.526 . S
C2468 H2452 0.959 . S
C2468 H2453 0.959 . S
C2468 H2454 0.961 . S
C2468 C2467 1.502 1_554 S
C2469 H2455 0.960 . S
C2469 H2456 0.961 . S
C2469 H2457 0.959 1_554 S
C2469 C2467 1.561 1_554 S
C2470 C2467 1.526 . S
C2470 C2471 1.396 . S
C2470 C2475 1.390 . S
C2471 C2465 1.465 . S
C2471 C2470 1.396 . S
C2471 C2472 1.399 . S
C2472 H2458 0.929 . S
C2472 C2471 1.399 . S
C2472 C2473 1.385 . S
C2473 H2459 0.931 . S
C2473 C2472 1.385 . S
C2473 C2474 1.389 . S
C2474 C2473 1.389 . S
C2474 C2475 1.387 . S
C2475 H2460 0.930 1_556 S
C2475 C2470 1.390 . S
C2475 C2474 1.387 . S
H2476 C2488 0.930 . S
H2477 C2490 0.930 . S
H2478 C2491 0.930 . S
H2479 C2495 0.959 . S
H2480 C2495 0.959 . S
H2481 C2495 0.961 . S
H2482 C2496 0.960 . S
H2483 C2496 0.961 . S
H2484 C2496 0.959 . S
H2485 C2499 0.929 . S
H2486 C2500 0.931 . S
H2487 C2502 0.930 . S
C2488 H2476 0.930 . S
C2488 C2489 1.399 . S
C2488 C2493 1.399 . S
C2489 C2488 1.399 . S
C2489 C2490 1.376 . S
C2490 H2477 0.930 . S
C2490 C2489 1.376 . S
C2490 C2491 1.388 . S
C2491 H2478 0.930 . S
C2491 C2490 1.388 . S
C2491 C2492 1.390 . S
C2492 C2491 1.390 . S
C2492 C2493 1.394 . S
C2492 C2498 1.465 . S
C2493 C2488 1.399 . S
C2493 C2492 1.394 . S
C2493 C2494 1.516 . S
C2494 C2493 1.516 . S
C2494 C2495 1.502 . S
C2494 C2496 1.561 . S
C2494 C2497 1.526 . S
C2495 H2479 0.959 . S
C2495 H2480 0.959 . S
C2495 H2481 0.961 . S
C2495 C2494 1.502 . S
C2496 H2482 0.960 . S
C2496 H2483 0.961 . S
C2496 H2484 0.959 . S
C2496 C2494 1.561 . S
C2497 C2494 1.526 . S
C2497 C2498 1.396 . S
C2497 C2502 1.390 . S
C2498 C2492 1.465 . S
C2498 C2497 1.396 . S
C2498 C2499 1.399 . S
C2499 H2485 0.929 . S
C2499 C2498 1.399 . S
C2499 C2500 1.385 . S
C2500 H2486 0.931 . S
C2500 C2499 1.385 . S
C2500 C2501 1.389 . S
C2501 C2500 1.389 . S
C2501 C2502 1.387 . S
C2502 H2487 0.930 . S
C2502 C2497 1.390 . S
C2502 C2501 1.387 . S
H2503 C2515 0.930 . S
H2504 C2517 0.930 . S
H2505 C2518 0.930 . S
H2506 C2522 0.959 . S
H2507 C2522 0.959 . S
H2508 C2522 0.961 . S
H2509 C2523 0.960 . S
H2510 C2523 0.961 . S
H2511 C2523 0.959 . S
H2512 C2526 0.929 . S
H2513 C2527 0.931 . S
H2514 C2529 0.930 . S
C2515 H2503 0.930 . S
C2515 C2516 1.399 . S
C2515 C2520 1.399 . S
C2516 C2515 1.399 . S
C2516 C2517 1.376 . S
C2517 H2504 0.930 . S
C2517 C2516 1.376 . S
C2517 C2518 1.388 . S
C2518 H2505 0.930 . S
C2518 C2517 1.388 . S
C2518 C2519 1.390 . S
C2519 C2518 1.390 . S
C2519 C2520 1.394 . S
C2519 C2525 1.465 . S
C2520 C2515 1.399 . S
C2520 C2519 1.394 . S
C2520 C2521 1.516 . S
C2521 C2520 1.516 . S
C2521 C2522 1.502 . S
C2521 C2523 1.561 . S
C2521 C2524 1.526 . S
C2522 H2506 0.959 . S
C2522 H2507 0.959 . S
C2522 H2508 0.961 . S
C2522 C2521 1.502 . S
C2523 H2509 0.960 . S
C2523 H2510 0.961 . S
C2523 H2511 0.959 . S
C2523 C2521 1.561 . S
C2524 C2521 1.526 . S
C2524 C2525 1.396 . S
C2524 C2529 1.390 . S
C2525 C2519 1.465 . S
C2525 C2524 1.396 . S
C2525 C2526 1.399 . S
C2526 H2512 0.929 . S
C2526 C2525 1.399 . S
C2526 C2527 1.385 . S
C2527 H2513 0.931 . S
C2527 C2526 1.385 . S
C2527 C2528 1.389 . S
C2528 C2527 1.389 . S
C2528 C2529 1.387 . S
C2529 H2514 0.930 . S
C2529 C2524 1.390 . S
C2529 C2528 1.387 . S
H2530 C2542 0.930 . S
H2531 C2544 0.923 1_556 S
H2532 C2545 0.930 1_556 S
H2533 C2549 0.959 . S
H2534 C2549 0.959 . S
H2535 C2549 0.961 . S
H2536 C2550 0.960 . S
H2537 C2550 0.961 . S
H2538 C2550 0.959 . S
H2539 C2553 0.929 . S
H2540 C2554 0.931 . S
H2541 C2556 0.930 . S
C2542 H2530 0.930 . S
C2542 C2543 1.399 . S
C2542 C2547 1.399 . S
C2543 C2542 1.399 . S
C2543 C2544 1.381 . S
C2544 H2531 0.923 1_554 S
C2544 C2543 1.381 . S
C2544 C2545 1.391 . S
C2545 H2532 0.930 1_554 S
C2545 C2544 1.391 . S
C2545 C2546 1.390 . S
C2546 C2545 1.390 . S
C2546 C2547 1.394 . S
C2546 C2552 1.465 . S
C2547 C2542 1.399 . S
C2547 C2546 1.394 . S
C2547 C2548 1.516 . S
C2548 C2547 1.516 . S
C2548 C2549 1.502 . S
C2548 C2550 1.561 . S
C2548 C2551 1.526 . S
C2549 H2533 0.959 . S
C2549 H2534 0.959 . S
C2549 H2535 0.961 . S
C2549 C2548 1.502 . S
C2550 H2536 0.960 . S
C2550 H2537 0.961 . S
C2550 H2538 0.959 . S
C2550 C2548 1.561 . S
C2551 C2548 1.526 . S
C2551 C2552 1.396 . S
C2551 C2556 1.390 . S
C2552 C2546 1.465 . S
C2552 C2551 1.396 . S
C2552 C2553 1.399 . S
C2553 H2539 0.929 . S
C2553 C2552 1.399 . S
C2553 C2554 1.385 . S
C2554 H2540 0.931 . S
C2554 C2553 1.385 . S
C2554 C2555 1.389 . S
C2555 C2554 1.389 . S
C2555 C2556 1.387 . S
C2556 H2541 0.930 . S
C2556 C2551 1.390 . S
C2556 C2555 1.387 . S
H2557 C2569 0.930 1_556 S
H2558 C2571 0.930 . S
H2559 C2572 0.930 . S
H2560 C2576 0.959 . S
H2561 C2576 0.959 . S
H2562 C2576 0.961 . S
H2563 C2577 0.960 1_556 S
H2564 C2577 0.961 . S
H2565 C2577 0.959 . S
H2566 C2580 0.929 . S
H2567 C2581 0.931 . S
H2568 C2583 0.930 . S
C2569 H2557 0.930 1_554 S
C2569 C2570 1.399 . S
C2569 C2574 1.399 . S
C2570 C2569 1.399 . S
C2570 C2571 1.376 . S
C2571 H2558 0.930 . S
C2571 C2570 1.376 . S
C2571 C2572 1.388 . S
C2572 H2559 0.930 . S
C2572 C2571 1.388 . S
C2572 C2573 1.390 . S
C2573 C2572 1.390 . S
C2573 C2574 1.394 . S
C2573 C2579 1.465 . S
C2574 C2569 1.399 . S
C2574 C2573 1.394 . S
C2574 C2575 1.516 . S
C2575 C2574 1.516 . S
C2575 C2576 1.502 1_554 S
C2575 C2577 1.561 . S
C2575 C2578 1.526 . S
C2576 H2560 0.959 . S
C2576 H2561 0.959 . S
C2576 H2562 0.961 . S
C2576 C2575 1.502 1_556 S
C2577 H2563 0.960 1_554 S
C2577 H2564 0.961 . S
C2577 H2565 0.959 . S
C2577 C2575 1.561 . S
C2578 C2575 1.526 . S
C2578 C2579 1.396 . S
C2578 C2583 1.390 . S
C2579 C2573 1.465 . S
C2579 C2578 1.396 . S
C2579 C2580 1.399 . S
C2580 H2566 0.929 . S
C2580 C2579 1.399 . S
C2580 C2581 1.385 . S
C2581 H2567 0.931 . S
C2581 C2580 1.385 . S
C2581 C2582 1.389 . S
C2582 C2581 1.389 . S
C2582 C2583 1.387 . S
C2583 H2568 0.930 . S
C2583 C2578 1.390 . S
C2583 C2582 1.387 . S
H2584 C2596 0.930 1_554 S
H2585 C2598 0.930 . S
H2586 C2599 0.930 . S
H2587 C2603 0.959 . S
H2588 C2603 0.959 . S
H2589 C2603 0.961 . S
H2590 C2604 0.960 . S
H2591 C2604 0.961 . S
H2592 C2604 0.959 . S
H2593 C2607 0.929 . S
H2594 C2608 0.931 . S
H2595 C2610 0.930 . S
C2596 H2584 0.930 1_556 S
C2596 C2597 1.399 . S
C2596 C2601 1.399 . S
C2597 C2596 1.399 . S
C2597 C2598 1.376 . S
C2598 H2585 0.930 . S
C2598 C2597 1.376 . S
C2598 C2599 1.388 . S
C2599 H2586 0.930 . S
C2599 C2598 1.388 . S
C2599 C2600 1.390 . S
C2600 C2599 1.390 . S
C2600 C2601 1.394 . S
C2600 C2606 1.465 . S
C2601 C2596 1.399 . S
C2601 C2600 1.394 . S
C2601 C2602 1.516 . S
C2602 C2601 1.516 . S
C2602 C2603 1.502 1_556 S
C2602 C2604 1.561 . S
C2602 C2605 1.526 . S
C2603 H2587 0.959 . S
C2603 H2588 0.959 . S
C2603 H2589 0.961 . S
C2603 C2602 1.502 1_554 S
C2604 H2590 0.960 . S
C2604 H2591 0.961 . S
C2604 H2592 0.959 . S
C2604 C2602 1.561 . S
C2605 C2602 1.526 . S
C2605 C2606 1.396 . S
C2605 C2610 1.390 . S
C2606 C2600 1.465 . S
C2606 C2605 1.396 . S
C2606 C2607 1.399 . S
C2607 H2593 0.929 . S
C2607 C2606 1.399 . S
C2607 C2608 1.385 . S
C2608 H2594 0.931 . S
C2608 C2607 1.385 . S
C2608 C2609 1.389 . S
C2609 C2608 1.389 . S
C2609 C2610 1.387 . S
C2610 H2595 0.930 . S
C2610 C2605 1.390 . S
C2610 C2609 1.387 . S
H2611 C2623 0.930 . S
H2612 C2625 0.930 . S
H2613 C2626 0.930 . S
H2614 C2630 0.959 . S
H2615 C2630 0.959 . S
H2616 C2630 0.961 . S
H2617 C2631 0.960 . S
H2618 C2631 0.961 . S
H2619 C2631 0.959 . S
H2620 C2634 0.929 . S
H2621 C2635 0.931 . S
H2622 C2637 0.930 . S
C2623 H2611 0.930 . S
C2623 C2624 1.399 . S
C2623 C2628 1.399 . S
C2624 C2623 1.399 . S
C2624 C2625 1.376 . S
C2625 H2612 0.930 . S
C2625 C2624 1.376 . S
C2625 C2626 1.388 . S
C2626 H2613 0.930 . S
C2626 C2625 1.388 . S
C2626 C2627 1.390 . S
C2627 C2626 1.390 . S
C2627 C2628 1.394 . S
C2627 C2633 1.465 . S
C2628 C2623 1.399 . S
C2628 C2627 1.394 . S
C2628 C2629 1.516 . S
C2629 C2628 1.516 . S
C2629 C2630 1.502 . S
C2629 C2631 1.561 . S
C2629 C2632 1.526 . S
C2630 H2614 0.959 . S
C2630 H2615 0.959 . S
C2630 H2616 0.961 . S
C2630 C2629 1.502 . S
C2631 H2617 0.960 . S
C2631 H2618 0.961 . S
C2631 H2619 0.959 . S
C2631 C2629 1.561 . S
C2632 C2629 1.526 . S
C2632 C2633 1.396 . S
C2632 C2637 1.390 . S
C2633 C2627 1.465 . S
C2633 C2632 1.396 . S
C2633 C2634 1.399 1_556 S
C2634 H2620 0.929 . S
C2634 C2633 1.399 1_554 S
C2634 C2635 1.385 . S
C2635 H2621 0.931 . S
C2635 C2634 1.385 . S
C2635 C2636 1.389 1_554 S
C2636 C2635 1.389 1_556 S
C2636 C2637 1.387 . S
C2637 H2622 0.930 . S
C2637 C2632 1.390 . S
C2637 C2636 1.387 . S
H2638 C2650 0.930 . S
H2639 C2652 0.930 . S
H2640 C2653 0.930 . S
H2641 C2657 0.959 . S
H2642 C2657 0.959 . S
H2643 C2657 0.961 . S
H2644 C2658 0.960 . S
H2645 C2658 0.961 . S
H2646 C2658 0.959 . S
H2647 C2661 0.929 . S
H2648 C2662 0.931 . S
H2649 C2664 0.930 . S
C2650 H2638 0.930 . S
C2650 C2651 1.399 . S
C2650 C2655 1.399 . S
C2651 C2650 1.399 . S
C2651 C2652 1.376 . S
C2652 H2639 0.930 . S
C2652 C2651 1.376 . S
C2652 C2653 1.388 . S
C2653 H2640 0.930 . S
C2653 C2652 1.388 . S
C2653 C2654 1.390 . S
C2654 C2653 1.390 . S
C2654 C2655 1.394 . S
C2654 C2660 1.465 . S
C2655 C2650 1.399 . S
C2655 C2654 1.394 . S
C2655 C2656 1.516 . S
C2656 C2655 1.516 . S
C2656 C2657 1.502 . S
C2656 C2658 1.561 . S
C2656 C2659 1.526 . S
C2657 H2641 0.959 . S
C2657 H2642 0.959 . S
C2657 H2643 0.961 . S
C2657 C2656 1.502 . S
C2658 H2644 0.960 . S
C2658 H2645 0.961 . S
C2658 H2646 0.959 . S
C2658 C2656 1.561 . S
C2659 C2656 1.526 . S
C2659 C2660 1.396 . S
C2659 C2664 1.390 . S
C2660 C2654 1.465 . S
C2660 C2659 1.396 . S
C2660 C2661 1.399 . S
C2661 H2647 0.929 . S
C2661 C2660 1.399 . S
C2661 C2662 1.385 . S
C2662 H2648 0.931 . S
C2662 C2661 1.385 . S
C2662 C2663 1.389 . S
C2663 C2662 1.389 . S
C2663 C2664 1.387 . S
C2664 H2649 0.930 . S
C2664 C2659 1.390 . S
C2664 C2663 1.387 . S
H2665 C2677 0.930 . S
H2666 C2679 0.930 . S
H2667 C2680 0.930 . S
H2668 C2684 0.959 . S
H2669 C2684 0.959 . S
H2670 C2684 0.961 . S
H2671 C2685 0.960 . S
H2672 C2685 0.961 . S
H2673 C2685 0.959 . S
H2674 C2688 0.929 . S
H2675 C2689 0.931 . S
H2676 C2691 0.930 . S
C2677 H2665 0.930 . S
C2677 C2678 1.399 . S
C2677 C2682 1.399 . S
C2678 C2677 1.399 . S
C2678 C2679 1.376 . S
C2679 H2666 0.930 . S
C2679 C2678 1.376 . S
C2679 C2680 1.388 . S
C2680 H2667 0.930 . S
C2680 C2679 1.388 . S
C2680 C2681 1.390 . S
C2681 C2680 1.390 . S
C2681 C2682 1.394 . S
C2681 C2687 1.465 . S
C2682 C2677 1.399 . S
C2682 C2681 1.394 . S
C2682 C2683 1.516 . S
C2683 C2682 1.516 . S
C2683 C2684 1.502 . S
C2683 C2685 1.561 . S
C2683 C2686 1.526 . S
C2684 H2668 0.959 . S
C2684 H2669 0.959 . S
C2684 H2670 0.961 . S
C2684 C2683 1.502 . S
C2685 H2671 0.960 . S
C2685 H2672 0.961 . S
C2685 H2673 0.959 . S
C2685 C2683 1.561 . S
C2686 C2683 1.526 . S
C2686 C2687 1.396 . S
C2686 C2691 1.390 . S
C2687 C2681 1.465 . S
C2687 C2686 1.396 . S
C2687 C2688 1.399 . S
C2688 H2674 0.929 . S
C2688 C2687 1.399 . S
C2688 C2689 1.385 . S
C2689 H2675 0.931 . S
C2689 C2688 1.385 . S
C2689 C2690 1.389 . S
C2690 C2689 1.389 . S
C2690 C2691 1.387 . S
C2691 H2676 0.930 . S
C2691 C2686 1.390 . S
C2691 C2690 1.387 . S
H2692 C2704 0.930 . S
H2693 C2706 0.930 . S
H2694 C2707 0.930 . S
H2695 C2711 0.959 . S
H2696 C2711 0.959 . S
H2697 C2711 0.961 . S
H2698 C2712 0.960 . S
H2699 C2712 0.961 . S
H2700 C2712 0.959 . S
H2701 C2715 0.929 . S
H2702 C2716 0.931 . S
H2703 C2718 0.930 . S
C2704 H2692 0.930 . S
C2704 C2705 1.399 . S
C2704 C2709 1.399 . S
C2705 C2704 1.399 . S
C2705 C2706 1.376 1_554 S
C2706 H2693 0.930 . S
C2706 C2705 1.376 1_556 S
C2706 C2707 1.388 . S
C2707 H2694 0.930 . S
C2707 C2706 1.388 . S
C2707 C2708 1.390 1_556 S
C2708 C2707 1.390 1_554 S
C2708 C2709 1.394 . S
C2708 C2714 1.465 . S
C2709 C2704 1.399 . S
C2709 C2708 1.394 . S
C2709 C2710 1.516 . S
C2710 C2709 1.516 . S
C2710 C2711 1.502 . S
C2710 C2712 1.561 . S
C2710 C2713 1.526 . S
C2711 H2695 0.959 . S
C2711 H2696 0.959 . S
C2711 H2697 0.961 . S
C2711 C2710 1.502 . S
C2712 H2698 0.960 . S
C2712 H2699 0.961 . S
C2712 H2700 0.959 . S
C2712 C2710 1.561 . S
C2713 C2710 1.526 . S
C2713 C2714 1.396 . S
C2713 C2718 1.390 . S
C2714 C2708 1.465 . S
C2714 C2713 1.396 . S
C2714 C2715 1.399 . S
C2715 H2701 0.929 . S
C2715 C2714 1.399 . S
C2715 C2716 1.385 . S
C2716 H2702 0.931 . S
C2716 C2715 1.385 . S
C2716 C2717 1.389 . S
C2717 C2716 1.389 . S
C2717 C2718 1.387 . S
C2718 H2703 0.930 . S
C2718 C2713 1.390 . S
C2718 C2717 1.387 . S
H2719 C2731 0.930 . S
H2720 C2733 0.930 . S
H2721 C2734 0.930 . S
H2722 C2738 0.959 . S
H2723 C2738 0.959 . S
H2724 C2738 0.961 . S
H2725 C2739 0.960 . S
H2726 C2739 0.961 . S
H2727 C2739 0.959 . S
H2728 C2742 0.929 1_556 S
H2729 C2743 0.931 . S
H2730 C2745 0.930 . S
C2731 H2719 0.930 . S
C2731 C2732 1.399 . S
C2731 C2736 1.399 . S
C2732 C2731 1.399 . S
C2732 C2733 1.376 . S
C2733 H2720 0.930 . S
C2733 C2732 1.376 . S
C2733 C2734 1.388 . S
C2734 H2721 0.930 . S
C2734 C2733 1.388 . S
C2734 C2735 1.390 . S
C2735 C2734 1.390 . S
C2735 C2736 1.394 . S
C2735 C2741 1.465 . S
C2736 C2731 1.399 . S
C2736 C2735 1.394 . S
C2736 C2737 1.516 . S
C2737 C2736 1.516 . S
C2737 C2738 1.502 . S
C2737 C2739 1.561 . S
C2737 C2740 1.526 . S
C2738 H2722 0.959 . S
C2738 H2723 0.959 . S
C2738 H2724 0.961 . S
C2738 C2737 1.502 . S
C2739 H2725 0.960 . S
C2739 H2726 0.961 . S
C2739 H2727 0.959 . S
C2739 C2737 1.561 . S
C2740 C2737 1.526 . S
C2740 C2741 1.396 . S
C2740 C2745 1.390 . S
C2741 C2735 1.465 . S
C2741 C2740 1.396 . S
C2741 C2742 1.399 . S
C2742 H2728 0.929 1_554 S
C2742 C2741 1.399 . S
C2742 C2743 1.385 1_554 S
C2743 H2729 0.931 . S
C2743 C2742 1.385 1_556 S
C2743 C2744 1.389 1_556 S
C2744 C2743 1.389 1_554 S
C2744 C2745 1.387 . S
C2745 H2730 0.930 . S
C2745 C2740 1.390 . S
C2745 C2744 1.387 . S
H2746 C2758 0.930 . S
H2747 C2760 0.930 . S
H2748 C2761 0.930 . S
H2749 C2765 0.959 . S
H2750 C2765 0.959 . S
H2751 C2765 0.961 . S
H2752 C2766 0.960 . S
H2753 C2766 0.961 . S
H2754 C2766 0.959 . S
H2755 C2769 0.929 . S
H2756 C2770 0.931 . S
H2757 C2772 0.930 . S
C2758 H2746 0.930 . S
C2758 C2759 1.399 . S
C2758 C2763 1.399 . S
C2759 C2758 1.399 . S
C2759 C2760 1.376 . S
C2760 H2747 0.930 . S
C2760 C2759 1.376 . S
C2760 C2761 1.388 . S
C2761 H2748 0.930 . S
C2761 C2760 1.388 . S
C2761 C2762 1.390 . S
C2762 C2761 1.390 . S
C2762 C2763 1.394 . S
C2762 C2768 1.465 . S
C2763 C2758 1.399 . S
C2763 C2762 1.394 . S
C2763 C2764 1.516 . S
C2764 C2763 1.516 . S
C2764 C2765 1.502 . S
C2764 C2766 1.561 . S
C2764 C2767 1.526 . S
C2765 H2749 0.959 . S
C2765 H2750 0.959 . S
C2765 H2751 0.961 . S
C2765 C2764 1.502 . S
C2766 H2752 0.960 . S
C2766 H2753 0.961 . S
C2766 H2754 0.959 . S
C2766 C2764 1.561 . S
C2767 C2764 1.526 . S
C2767 C2768 1.396 . S
C2767 C2772 1.390 . S
C2768 C2762 1.465 . S
C2768 C2767 1.396 . S
C2768 C2769 1.399 . S
C2769 H2755 0.929 . S
C2769 C2768 1.399 . S
C2769 C2770 1.385 . S
C2770 H2756 0.931 . S
C2770 C2769 1.385 . S
C2770 C2771 1.389 . S
C2771 C2770 1.389 . S
C2771 C2772 1.387 . S
C2772 H2757 0.930 . S
C2772 C2767 1.390 . S
C2772 C2771 1.387 . S
H2773 C2785 0.930 . S
H2774 C2787 0.930 . S
H2775 C2788 0.930 . S
H2776 C2792 0.959 . S
H2777 C2792 0.959 . S
H2778 C2792 0.961 . S
H2779 C2793 0.960 . S
H2780 C2793 0.961 . S
H2781 C2793 0.959 . S
H2782 C2796 0.929 . S
H2783 C2797 0.931 . S
H2784 C2799 0.930 . S
C2785 H2773 0.930 . S
C2785 C2786 1.399 . S
C2785 C2790 1.399 . S
C2786 C2785 1.399 . S
C2786 C2787 1.376 . S
C2787 H2774 0.930 . S
C2787 C2786 1.376 . S
C2787 C2788 1.388 . S
C2788 H2775 0.930 . S
C2788 C2787 1.388 . S
C2788 C2789 1.390 . S
C2789 C2788 1.390 . S
C2789 C2790 1.394 . S
C2789 C2795 1.465 . S
C2790 C2785 1.399 . S
C2790 C2789 1.394 . S
C2790 C2791 1.516 . S
C2791 C2790 1.516 . S
C2791 C2792 1.502 . S
C2791 C2793 1.561 . S
C2791 C2794 1.526 . S
C2792 H2776 0.959 . S
C2792 H2777 0.959 . S
C2792 H2778 0.961 . S
C2792 C2791 1.502 . S
C2793 H2779 0.960 . S
C2793 H2780 0.961 . S
C2793 H2781 0.959 . S
C2793 C2791 1.561 . S
C2794 C2791 1.526 . S
C2794 C2795 1.396 . S
C2794 C2799 1.390 . S
C2795 C2789 1.465 . S
C2795 C2794 1.396 . S
C2795 C2796 1.399 . S
C2796 H2782 0.929 . S
C2796 C2795 1.399 . S
C2796 C2797 1.385 . S
C2797 H2783 0.931 . S
C2797 C2796 1.385 . S
C2797 C2798 1.389 . S
C2798 C2797 1.389 . S
C2798 C2799 1.387 . S
C2799 H2784 0.930 . S
C2799 C2794 1.390 . S
C2799 C2798 1.387 . S
H2800 C2812 0.930 . S
H2801 C2814 0.930 . S
H2802 C2815 0.930 1_556 S
H2803 C2819 0.959 . S
H2804 C2819 0.959 . S
H2805 C2819 0.961 . S
H2806 C2820 0.960 . S
H2807 C2820 0.961 . S
H2808 C2820 0.959 . S
H2809 C2823 0.929 1_556 S
H2810 C2824 0.931 1_556 S
H2811 C2826 0.930 . S
C2812 H2800 0.930 . S
C2812 C2813 1.399 . S
C2812 C2817 1.399 . S
C2813 C2812 1.399 . S
C2813 C2814 1.376 . S
C2814 H2801 0.930 . S
C2814 C2813 1.376 . S
C2814 C2815 1.388 . S
C2815 H2802 0.930 1_554 S
C2815 C2814 1.388 . S
C2815 C2816 1.390 . S
C2816 C2815 1.390 . S
C2816 C2817 1.394 . S
C2816 C2822 1.465 . S
C2817 C2812 1.399 . S
C2817 C2816 1.394 . S
C2817 C2818 1.516 . S
C2818 C2817 1.516 . S
C2818 C2819 1.502 . S
C2818 C2820 1.561 . S
C2818 C2821 1.526 . S
C2819 H2803 0.959 . S
C2819 H2804 0.959 . S
C2819 H2805 0.961 . S
C2819 C2818 1.502 . S
C2820 H2806 0.960 . S
C2820 H2807 0.961 . S
C2820 H2808 0.959 . S
C2820 C2818 1.561 . S
C2821 C2818 1.526 . S
C2821 C2822 1.396 . S
C2821 C2826 1.390 . S
C2822 C2816 1.465 . S
C2822 C2821 1.396 . S
C2822 C2823 1.399 . S
C2823 H2809 0.929 1_554 S
C2823 C2822 1.399 . S
C2823 C2824 1.385 . S
C2824 H2810 0.931 1_554 S
C2824 C2823 1.385 . S
C2824 C2825 1.389 . S
C2825 C2824 1.389 . S
C2825 C2826 1.387 . S
C2826 H2811 0.930 . S
C2826 C2821 1.390 . S
C2826 C2825 1.387 . S
H2827 C2839 0.930 . S
H2828 C2841 0.930 1_556 S
H2829 C2842 0.930 1_556 S
H2830 C2846 0.959 . S
H2831 C2846 0.959 . S
H2832 C2846 0.961 . S
H2833 C2847 0.960 . S
H2834 C2847 0.961 . S
H2835 C2847 0.959 . S
H2836 C2850 0.929 1_556 S
H2837 C2851 0.931 . S
H2838 C2853 0.930 . S
C2839 H2827 0.930 . S
C2839 C2840 1.399 . S
C2839 C2844 1.399 . S
C2840 C2839 1.399 . S
C2840 C2841 1.376 . S
C2841 H2828 0.930 1_554 S
C2841 C2840 1.376 . S
C2841 C2842 1.388 . S
C2842 H2829 0.930 1_554 S
C2842 C2841 1.388 . S
C2842 C2843 1.390 . S
C2843 C2842 1.390 . S
C2843 C2844 1.394 . S
C2843 C2849 1.465 . S
C2844 C2839 1.399 . S
C2844 C2843 1.394 . S
C2844 C2845 1.516 . S
C2845 C2844 1.516 . S
C2845 C2846 1.502 . S
C2845 C2847 1.561 . S
C2845 C2848 1.526 . S
C2846 H2830 0.959 . S
C2846 H2831 0.959 . S
C2846 H2832 0.961 . S
C2846 C2845 1.502 . S
C2847 H2833 0.960 . S
C2847 H2834 0.961 . S
C2847 H2835 0.959 . S
C2847 C2845 1.561 . S
C2848 C2845 1.526 . S
C2848 C2849 1.396 . S
C2848 C2853 1.390 . S
C2849 C2843 1.465 . S
C2849 C2848 1.396 . S
C2849 C2850 1.399 . S
C2850 H2836 0.929 1_554 S
C2850 C2849 1.399 . S
C2850 C2851 1.385 . S
C2851 H2837 0.931 . S
C2851 C2850 1.385 . S
C2851 C2852 1.389 . S
C2852 C2851 1.389 . S
C2852 C2853 1.387 . S
C2853 H2838 0.930 . S
C2853 C2848 1.390 . S
C2853 C2852 1.387 . S
H2854 C2866 0.930 . S
H2855 C2868 0.930 1_554 S
H2856 C2869 0.930 1_554 S
H2857 C2873 0.959 . S
H2858 C2873 0.959 . S
H2859 C2873 0.961 . S
H2860 C2874 0.960 . S
H2861 C2874 0.961 . S
H2862 C2874 0.959 . S
H2863 C2877 0.929 . S
H2864 C2878 0.931 . S
H2865 C2880 0.930 . S
C2866 H2854 0.930 . S
C2866 C2867 1.399 . S
C2866 C2871 1.399 . S
C2867 C2866 1.399 . S
C2867 C2868 1.376 . S
C2868 H2855 0.930 1_556 S
C2868 C2867 1.376 . S
C2868 C2869 1.388 . S
C2869 H2856 0.930 1_556 S
C2869 C2868 1.388 . S
C2869 C2870 1.390 . S
C2870 C2869 1.390 . S
C2870 C2871 1.394 . S
C2870 C2876 1.465 . S
C2871 C2866 1.399 . S
C2871 C2870 1.394 . S
C2871 C2872 1.516 . S
C2872 C2871 1.516 . S
C2872 C2873 1.502 . S
C2872 C2874 1.561 . S
C2872 C2875 1.526 . S
C2873 H2857 0.959 . S
C2873 H2858 0.959 . S
C2873 H2859 0.961 . S
C2873 C2872 1.502 . S
C2874 H2860 0.960 . S
C2874 H2861 0.961 . S
C2874 H2862 0.959 . S
C2874 C2872 1.561 . S
C2875 C2872 1.526 . S
C2875 C2876 1.396 . S
C2875 C2880 1.390 . S
C2876 C2870 1.465 . S
C2876 C2875 1.396 . S
C2876 C2877 1.399 . S
C2877 H2863 0.929 . S
C2877 C2876 1.399 . S
C2877 C2878 1.385 . S
C2878 H2864 0.931 . S
C2878 C2877 1.385 . S
C2878 C2879 1.389 . S
C2879 C2878 1.389 . S
C2879 C2880 1.387 . S
C2880 H2865 0.930 . S
C2880 C2875 1.390 . S
C2880 C2879 1.387 . S
H2881 C2893 0.930 . S
H2882 C2895 0.930 . S
H2883 C2896 0.930 . S
H2884 C2900 0.959 . S
H2885 C2900 0.959 . S
H2886 C2900 0.961 . S
H2887 C2901 0.960 . S
H2888 C2901 0.961 . S
H2889 C2901 0.959 . S
H2890 C2904 0.929 1_554 S
H2891 C2905 0.931 1_554 S
H2892 C2907 0.930 . S
C2893 H2881 0.930 . S
C2893 C2894 1.399 . S
C2893 C2898 1.399 . S
C2894 C2893 1.399 . S
C2894 C2895 1.376 . S
C2895 H2882 0.930 . S
C2895 C2894 1.376 . S
C2895 C2896 1.388 . S
C2896 H2883 0.930 . S
C2896 C2895 1.388 . S
C2896 C2897 1.390 . S
C2897 C2896 1.390 . S
C2897 C2898 1.394 . S
C2897 C2903 1.465 . S
C2898 C2893 1.399 . S
C2898 C2897 1.394 . S
C2898 C2899 1.516 . S
C2899 C2898 1.516 . S
C2899 C2900 1.502 . S
C2899 C2901 1.561 . S
C2899 C2902 1.526 . S
C2900 H2884 0.959 . S
C2900 H2885 0.959 . S
C2900 H2886 0.961 . S
C2900 C2899 1.502 . S
C2901 H2887 0.960 . S
C2901 H2888 0.961 . S
C2901 H2889 0.959 . S
C2901 C2899 1.561 . S
C2902 C2899 1.526 . S
C2902 C2903 1.396 . S
C2902 C2907 1.390 . S
C2903 C2897 1.465 . S
C2903 C2902 1.396 . S
C2903 C2904 1.399 . S
C2904 H2890 0.929 1_556 S
C2904 C2903 1.399 . S
C2904 C2905 1.385 . S
C2905 H2891 0.931 1_556 S
C2905 C2904 1.385 . S
C2905 C2906 1.389 . S
C2906 C2905 1.389 . S
C2906 C2907 1.387 . S
C2907 H2892 0.930 . S
C2907 C2902 1.390 . S
C2907 C2906 1.387 . S
H2908 C2920 0.930 . S
H2909 C2922 0.930 . S
H2910 C2923 0.930 . S
H2911 C2927 0.959 . S
H2912 C2927 0.959 . S
H2913 C2927 0.961 . S
H2914 C2928 0.960 . S
H2915 C2928 0.961 . S
H2916 C2928 0.959 . S
H2917 C2931 0.929 . S
H2918 C2932 0.931 . S
H2919 C2934 0.930 . S
C2920 H2908 0.930 . S
C2920 C2921 1.399 . S
C2920 C2925 1.399 . S
C2921 C2920 1.399 . S
C2921 C2922 1.376 . S
C2922 H2909 0.930 . S
C2922 C2921 1.376 . S
C2922 C2923 1.388 . S
C2923 H2910 0.930 . S
C2923 C2922 1.388 . S
C2923 C2924 1.390 . S
C2924 C2923 1.390 . S
C2924 C2925 1.394 . S
C2924 C2930 1.465 . S
C2925 C2920 1.399 . S
C2925 C2924 1.394 . S
C2925 C2926 1.516 . S
C2926 C2925 1.516 . S
C2926 C2927 1.502 . S
C2926 C2928 1.561 . S
C2926 C2929 1.526 . S
C2927 H2911 0.959 . S
C2927 H2912 0.959 . S
C2927 H2913 0.961 . S
C2927 C2926 1.502 . S
C2928 H2914 0.960 . S
C2928 H2915 0.961 . S
C2928 H2916 0.959 . S
C2928 C2926 1.561 . S
C2929 C2926 1.526 . S
C2929 C2930 1.396 . S
C2929 C2934 1.390 . S
C2930 C2924 1.465 . S
C2930 C2929 1.396 . S
C2930 C2931 1.399 . S
C2931 H2917 0.929 . S
C2931 C2930 1.399 . S
C2931 C2932 1.385 . S
C2932 H2918 0.931 . S
C2932 C2931 1.385 . S
C2932 C2933 1.389 . S
C2933 C2932 1.389 . S
C2933 C2934 1.387 . S
C2934 H2919 0.930 . S
C2934 C2929 1.390 . S
C2934 C2933 1.387 . S
H2935 C2947 0.930 . S
H2936 C2949 0.930 . S
H2937 C2950 0.930 . S
H2938 C2954 0.959 . S
H2939 C2954 0.959 . S
H2940 C2954 0.961 . S
H2941 C2955 0.960 . S
H2942 C2955 0.961 . S
H2943 C2955 0.959 . S
H2944 C2958 0.929 . S
H2945 C2959 0.931 . S
H2946 C2961 0.930 . S
C2947 H2935 0.930 . S
C2947 C2948 1.399 . S
C2947 C2952 1.399 . S
C2948 C2947 1.399 . S
C2948 C2949 1.376 . S
C2949 H2936 0.930 . S
C2949 C2948 1.376 . S
C2949 C2950 1.388 . S
C2950 H2937 0.930 . S
C2950 C2949 1.388 . S
C2950 C2951 1.390 . S
C2951 C2950 1.390 . S
C2951 C2952 1.394 . S
C2951 C2957 1.465 . S
C2952 C2947 1.399 . S
C2952 C2951 1.394 . S
C2952 C2953 1.516 . S
C2953 C2952 1.516 . S
C2953 C2954 1.502 . S
C2953 C2955 1.561 . S
C2953 C2956 1.526 . S
C2954 H2938 0.959 . S
C2954 H2939 0.959 . S
C2954 H2940 0.961 . S
C2954 C2953 1.502 . S
C2955 H2941 0.960 . S
C2955 H2942 0.961 . S
C2955 H2943 0.959 . S
C2955 C2953 1.561 . S
C2956 C2953 1.526 . S
C2956 C2957 1.396 . S
C2956 C2961 1.390 . S
C2957 C2951 1.465 . S
C2957 C2956 1.396 . S
C2957 C2958 1.399 . S
C2958 H2944 0.929 . S
C2958 C2957 1.399 . S
C2958 C2959 1.385 . S
C2959 H2945 0.931 . S
C2959 C2958 1.385 . S
C2959 C2960 1.389 . S
C2960 C2959 1.389 . S
C2960 C2961 1.387 . S
C2961 H2946 0.930 . S
C2961 C2956 1.390 . S
C2961 C2960 1.387 . S
H2962 C2974 0.930 . S
H2963 C2976 0.930 . S
H2964 C2977 0.930 . S
H2965 C2981 0.959 . S
H2966 C2981 0.959 . S
H2967 C2981 0.961 . S
H2968 C2982 0.960 . S
H2969 C2982 0.961 . S
H2970 C2982 0.959 . S
H2971 C2985 0.929 . S
H2972 C2986 0.931 . S
H2973 C2988 0.930 . S
C2974 H2962 0.930 . S
C2974 C2975 1.399 . S
C2974 C2979 1.399 . S
C2975 C2974 1.399 . S
C2975 C2976 1.376 . S
C2976 H2963 0.930 . S
C2976 C2975 1.376 . S
C2976 C2977 1.388 . S
C2977 H2964 0.930 . S
C2977 C2976 1.388 . S
C2977 C2978 1.390 . S
C2978 C2977 1.390 . S
C2978 C2979 1.394 . S
C2978 C2984 1.465 . S
C2979 C2974 1.399 . S
C2979 C2978 1.394 . S
C2979 C2980 1.516 . S
C2980 C2979 1.516 . S
C2980 C2981 1.502 . S
C2980 C2982 1.561 . S
C2980 C2983 1.526 . S
C2981 H2965 0.959 . S
C2981 H2966 0.959 . S
C2981 H2967 0.961 . S
C2981 C2980 1.502 . S
C2982 H2968 0.960 . S
C2982 H2969 0.961 . S
C2982 H2970 0.959 . S
C2982 C2980 1.561 . S
C2983 C2980 1.526 . S
C2983 C2984 1.396 . S
C2983 C2988 1.390 . S
C2984 C2978 1.465 . S
C2984 C2983 1.396 . S
C2984 C2985 1.399 . S
C2985 H2971 0.929 . S
C2985 C2984 1.399 . S
C2985 C2986 1.385 . S
C2986 H2972 0.931 . S
C2986 C2985 1.385 . S
C2986 C2987 1.389 . S
C2987 C2986 1.389 . S
C2987 C2988 1.387 . S
C2988 H2973 0.930 . S
C2988 C2983 1.390 . S
C2988 C2987 1.387 . S
H2989 C3001 0.930 . S
H2990 C3003 0.930 . S
H2991 C3004 0.930 . S
H2992 C3008 0.959 . S
H2993 C3008 0.959 . S
H2994 C3008 0.961 . S
H2995 C3009 0.960 . S
H2996 C3009 0.961 . S
H2997 C3009 0.959 . S
H2998 C3012 0.929 . S
H2999 C3013 0.931 . S
H3000 C3015 0.930 . S
C3001 H2989 0.930 . S
C3001 C3002 1.399 . S
C3001 C3006 1.399 . S
C3002 C3001 1.399 . S
C3002 C3003 1.376 . S
C3003 H2990 0.930 . S
C3003 C3002 1.376 . S
C3003 C3004 1.388 . S
C3004 H2991 0.930 . S
C3004 C3003 1.388 . S
C3004 C3005 1.390 . S
C3005 C3004 1.390 . S
C3005 C3006 1.394 . S
C3005 C3011 1.465 . S
C3006 C3001 1.399 . S
C3006 C3005 1.394 . S
C3006 C3007 1.516 . S
C3007 C3006 1.516 . S
C3007 C3008 1.502 . S
C3007 C3009 1.561 . S
C3007 C3010 1.526 . S
C3008 H2992 0.959 . S
C3008 H2993 0.959 . S
C3008 H2994 0.961 . S
C3008 C3007 1.502 . S
C3009 H2995 0.960 . S
C3009 H2996 0.961 . S
C3009 H2997 0.959 . S
C3009 C3007 1.561 . S
C3010 C3007 1.526 . S
C3010 C3011 1.396 . S
C3010 C3015 1.390 . S
C3011 C3005 1.465 . S
C3011 C3010 1.396 . S
C3011 C3012 1.399 . S
C3012 H2998 0.929 . S
C3012 C3011 1.399 . S
C3012 C3013 1.385 . S
C3013 H2999 0.931 . S
C3013 C3012 1.385 . S
C3013 C3014 1.389 . S
C3014 C3013 1.389 . S
C3014 C3015 1.387 . S
C3015 H3000 0.930 . S
C3015 C3010 1.390 . S
C3015 C3014 1.387 . S
H3016 C3028 0.930 . S
H3017 C3030 0.930 . S
H3018 C3031 0.930 . S
H3019 C3035 0.959 . S
H3020 C3035 0.959 . S
H3021 C3035 0.961 . S
H3022 C3036 0.960 . S
H3023 C3036 0.961 . S
H3024 C3036 0.959 . S
H3025 C3039 0.929 . S
H3026 C3040 0.931 . S
H3027 C3042 0.930 . S
C3028 H3016 0.930 . S
C3028 C3029 1.399 . S
C3028 C3033 1.399 . S
C3029 C3028 1.399 . S
C3029 C3030 1.376 . S
C3030 H3017 0.930 . S
C3030 C3029 1.376 . S
C3030 C3031 1.388 . S
C3031 H3018 0.930 . S
C3031 C3030 1.388 . S
C3031 C3032 1.390 . S
C3032 C3031 1.390 . S
C3032 C3033 1.394 . S
C3032 C3038 1.465 . S
C3033 C3028 1.399 . S
C3033 C3032 1.394 . S
C3033 C3034 1.516 . S
C3034 C3033 1.516 . S
C3034 C3035 1.502 . S
C3034 C3036 1.561 . S
C3034 C3037 1.526 . S
C3035 H3019 0.959 . S
C3035 H3020 0.959 . S
C3035 H3021 0.961 . S
C3035 C3034 1.502 . S
C3036 H3022 0.960 . S
C3036 H3023 0.961 . S
C3036 H3024 0.959 . S
C3036 C3034 1.561 . S
C3037 C3034 1.526 . S
C3037 C3038 1.396 . S
C3037 C3042 1.390 . S
C3038 C3032 1.465 . S
C3038 C3037 1.396 . S
C3038 C3039 1.399 . S
C3039 H3025 0.929 . S
C3039 C3038 1.399 . S
C3039 C3040 1.385 . S
C3040 H3026 0.931 . S
C3040 C3039 1.385 . S
C3040 C3041 1.389 . S
C3041 C3040 1.389 . S
C3041 C3042 1.387 . S
C3042 H3027 0.930 . S
C3042 C3037 1.390 . S
C3042 C3041 1.387 . S
H3043 C3055 0.930 . S
H3044 C3057 0.930 . S
H3045 C3058 0.930 . S
H3046 C3062 0.959 . S
H3047 C3062 0.959 . S
H3048 C3062 0.961 . S
H3049 C3063 0.960 . S
H3050 C3063 0.961 . S
H3051 C3063 0.959 . S
H3052 C3066 0.929 . S
H3053 C3067 0.931 . S
H3054 C3069 0.930 . S
C3055 H3043 0.930 . S
C3055 C3056 1.399 . S
C3055 C3060 1.399 . S
C3056 C3055 1.399 . S
C3056 C3057 1.376 . S
C3057 H3044 0.930 . S
C3057 C3056 1.376 . S
C3057 C3058 1.388 . S
C3058 H3045 0.930 . S
C3058 C3057 1.388 . S
C3058 C3059 1.390 . S
C3059 C3058 1.390 . S
C3059 C3060 1.394 . S
C3059 C3065 1.465 . S
C3060 C3055 1.399 . S
C3060 C3059 1.394 . S
C3060 C3061 1.516 . S
C3061 C3060 1.516 . S
C3061 C3062 1.502 . S
C3061 C3063 1.561 . S
C3061 C3064 1.526 . S
C3062 H3046 0.959 . S
C3062 H3047 0.959 . S
C3062 H3048 0.961 . S
C3062 C3061 1.502 . S
C3063 H3049 0.960 . S
C3063 H3050 0.961 . S
C3063 H3051 0.959 . S
C3063 C3061 1.561 . S
C3064 C3061 1.526 . S
C3064 C3065 1.396 . S
C3064 C3069 1.390 . S
C3065 C3059 1.465 . S
C3065 C3064 1.396 . S
C3065 C3066 1.399 . S
C3066 H3052 0.929 . S
C3066 C3065 1.399 . S
C3066 C3067 1.385 . S
C3067 H3053 0.931 . S
C3067 C3066 1.385 . S
C3067 C3068 1.389 . S
C3068 C3067 1.389 . S
C3068 C3069 1.387 . S
C3069 H3054 0.930 . S
C3069 C3064 1.390 . S
C3069 C3068 1.387 . S
H3070 C3082 0.930 . S
H3071 C3084 0.930 . S
H3072 C3085 0.930 . S
H3073 C3089 0.959 . S
H3074 C3089 0.959 . S
H3075 C3089 0.961 . S
H3076 C3090 0.960 . S
H3077 C3090 0.961 . S
H3078 C3090 0.959 . S
H3079 C3093 0.929 . S
H3080 C3094 0.931 . S
H3081 C3096 0.930 . S
C3082 H3070 0.930 . S
C3082 C3083 1.399 . S
C3082 C3087 1.399 . S
C3083 C3082 1.399 . S
C3083 C3084 1.376 . S
C3084 H3071 0.930 . S
C3084 C3083 1.376 . S
C3084 C3085 1.388 . S
C3085 H3072 0.930 . S
C3085 C3084 1.388 . S
C3085 C3086 1.390 . S
C3086 C3085 1.390 . S
C3086 C3087 1.394 . S
C3086 C3092 1.465 . S
C3087 C3082 1.399 . S
C3087 C3086 1.394 . S
C3087 C3088 1.516 . S
C3088 C3087 1.516 . S
C3088 C3089 1.502 . S
C3088 C3090 1.561 . S
C3088 C3091 1.526 . S
C3089 H3073 0.959 . S
C3089 H3074 0.959 . S
C3089 H3075 0.961 . S
C3089 C3088 1.502 . S
C3090 H3076 0.960 . S
C3090 H3077 0.961 . S
C3090 H3078 0.959 . S
C3090 C3088 1.561 . S
C3091 C3088 1.526 . S
C3091 C3092 1.396 . S
C3091 C3096 1.390 . S
C3092 C3086 1.465 . S
C3092 C3091 1.396 . S
C3092 C3093 1.399 . S
C3093 H3079 0.929 . S
C3093 C3092 1.399 . S
C3093 C3094 1.385 . S
C3094 H3080 0.931 . S
C3094 C3093 1.385 . S
C3094 C3095 1.389 . S
C3095 C3094 1.389 . S
C3095 C3096 1.387 . S
C3096 H3081 0.930 . S
C3096 C3091 1.390 . S
C3096 C3095 1.387 . S
H3097 C3109 0.930 . S
H3098 C3111 0.930 . S
H3099 C3112 0.930 . S
H3100 C3116 0.959 . S
H3101 C3116 0.959 . S
H3102 C3116 0.961 . S
H3103 C3117 0.960 . S
H3104 C3117 0.961 . S
H3105 C3117 0.959 . S
H3106 C3120 0.929 . S
H3107 C3121 0.931 . S
H3108 C3123 0.930 . S
C3109 H3097 0.930 . S
C3109 C3110 1.399 . S
C3109 C3114 1.399 . S
C3110 C3109 1.399 . S
C3110 C3111 1.376 . S
C3111 H3098 0.930 . S
C3111 C3110 1.376 . S
C3111 C3112 1.388 . S
C3112 H3099 0.930 . S
C3112 C3111 1.388 . S
C3112 C3113 1.390 . S
C3113 C3112 1.390 . S
C3113 C3114 1.394 . S
C3113 C3119 1.465 . S
C3114 C3109 1.399 . S
C3114 C3113 1.394 . S
C3114 C3115 1.516 . S
C3115 C3114 1.516 . S
C3115 C3116 1.502 . S
C3115 C3117 1.561 . S
C3115 C3118 1.526 . S
C3116 H3100 0.959 . S
C3116 H3101 0.959 . S
C3116 H3102 0.961 . S
C3116 C3115 1.502 . S
C3117 H3103 0.960 . S
C3117 H3104 0.961 . S
C3117 H3105 0.959 . S
C3117 C3115 1.561 . S
C3118 C3115 1.526 . S
C3118 C3119 1.396 . S
C3118 C3123 1.390 . S
C3119 C3113 1.465 . S
C3119 C3118 1.396 . S
C3119 C3120 1.399 . S
C3120 H3106 0.929 . S
C3120 C3119 1.399 . S
C3120 C3121 1.385 . S
C3121 H3107 0.931 . S
C3121 C3120 1.385 . S
C3121 C3122 1.389 . S
C3122 C3121 1.389 . S
C3122 C3123 1.387 . S
C3123 H3108 0.930 . S
C3123 C3118 1.390 . S
C3123 C3122 1.387 . S
H3124 C3136 0.930 . S
H3125 C3138 0.930 . S
H3126 C3139 0.930 1_556 S
H3127 C3143 0.959 . S
H3128 C3143 0.959 . S
H3129 C3143 0.961 . S
H3130 C3144 0.960 . S
H3131 C3144 0.961 . S
H3132 C3144 0.959 . S
H3133 C3147 0.929 1_556 S
H3134 C3148 0.931 1_556 S
H3135 C3150 0.930 . S
C3136 H3124 0.930 . S
C3136 C3137 1.399 . S
C3136 C3141 1.399 . S
C3137 C3136 1.399 . S
C3137 C3138 1.376 . S
C3138 H3125 0.930 . S
C3138 C3137 1.376 . S
C3138 C3139 1.388 . S
C3139 H3126 0.930 1_554 S
C3139 C3138 1.388 . S
C3139 C3140 1.390 . S
C3140 C3139 1.390 . S
C3140 C3141 1.394 . S
C3140 C3146 1.465 . S
C3141 C3136 1.399 . S
C3141 C3140 1.394 . S
C3141 C3142 1.516 . S
C3142 C3141 1.516 . S
C3142 C3143 1.502 . S
C3142 C3144 1.561 . S
C3142 C3145 1.526 . S
C3143 H3127 0.959 . S
C3143 H3128 0.959 . S
C3143 H3129 0.961 . S
C3143 C3142 1.502 . S
C3144 H3130 0.960 . S
C3144 H3131 0.961 . S
C3144 H3132 0.959 . S
C3144 C3142 1.561 . S
C3145 C3142 1.526 . S
C3145 C3146 1.396 . S
C3145 C3150 1.390 . S
C3146 C3140 1.465 . S
C3146 C3145 1.396 . S
C3146 C3147 1.399 . S
C3147 H3133 0.929 1_554 S
C3147 C3146 1.399 . S
C3147 C3148 1.385 . S
C3148 H3134 0.931 1_554 S
C3148 C3147 1.385 . S
C3148 C3149 1.389 . S
C3149 C3148 1.389 . S
C3149 C3150 1.387 . S
C3150 H3135 0.930 . S
C3150 C3145 1.390 . S
C3150 C3149 1.387 . S
H3151 C3163 0.930 . S
H3152 C3165 0.930 . S
H3153 C3166 0.930 1_556 S
H3154 C3170 0.959 . S
H3155 C3170 0.959 . S
H3156 C3170 0.961 . S
H3157 C3171 0.960 . S
H3158 C3171 0.961 . S
H3159 C3171 0.959 . S
H3160 C3174 0.929 1_556 S
H3161 C3175 0.931 1_556 S
H3162 C3177 0.930 . S
C3163 H3151 0.930 . S
C3163 C3164 1.399 . S
C3163 C3168 1.399 . S
C3164 C3163 1.399 . S
C3164 C3165 1.376 . S
C3165 H3152 0.930 . S
C3165 C3164 1.376 . S
C3165 C3166 1.388 . S
C3166 H3153 0.930 1_554 S
C3166 C3165 1.388 . S
C3166 C3167 1.390 . S
C3167 C3166 1.390 . S
C3167 C3168 1.394 . S
C3167 C3173 1.465 . S
C3168 C3163 1.399 . S
C3168 C3167 1.394 . S
C3168 C3169 1.516 . S
C3169 C3168 1.516 . S
C3169 C3170 1.502 . S
C3169 C3171 1.561 . S
C3169 C3172 1.526 . S
C3170 H3154 0.959 . S
C3170 H3155 0.959 . S
C3170 H3156 0.961 . S
C3170 C3169 1.502 . S
C3171 H3157 0.960 . S
C3171 H3158 0.961 . S
C3171 H3159 0.959 . S
C3171 C3169 1.561 . S
C3172 C3169 1.526 . S
C3172 C3173 1.396 . S
C3172 C3177 1.390 . S
C3173 C3167 1.465 . S
C3173 C3172 1.396 . S
C3173 C3174 1.399 . S
C3174 H3160 0.929 1_554 S
C3174 C3173 1.399 . S
C3174 C3175 1.385 . S
C3175 H3161 0.931 1_554 S
C3175 C3174 1.385 . S
C3175 C3176 1.389 . S
C3176 C3175 1.389 . S
C3176 C3177 1.387 . S
C3177 H3162 0.930 . S
C3177 C3172 1.390 . S
C3177 C3176 1.387 . S
H3178 C3190 0.930 . S
H3179 C3192 0.930 . S
H3180 C3193 0.930 . S
H3181 C3197 0.959 . S
H3182 C3197 0.959 1_554 S
H3183 C3197 0.961 . S
H3184 C3198 0.960 . S
H3185 C3198 0.961 . S
H3186 C3198 0.959 . S
H3187 C3201 0.929 . S
H3188 C3202 0.931 . S
H3189 C3204 0.930 . S
C3190 H3178 0.930 . S
C3190 C3191 1.399 . S
C3190 C3195 1.399 . S
C3191 C3190 1.399 . S
C3191 C3192 1.376 . S
C3192 H3179 0.930 . S
C3192 C3191 1.376 . S
C3192 C3193 1.388 . S
C3193 H3180 0.930 . S
C3193 C3192 1.388 . S
C3193 C3194 1.390 . S
C3194 C3193 1.390 . S
C3194 C3195 1.394 . S
C3194 C3200 1.465 . S
C3195 C3190 1.399 . S
C3195 C3194 1.394 . S
C3195 C3196 1.516 . S
C3196 C3195 1.516 . S
C3196 C3197 1.502 . S
C3196 C3198 1.561 1_556 S
C3196 C3199 1.526 . S
C3197 H3181 0.959 . S
C3197 H3182 0.959 1_556 S
C3197 H3183 0.961 . S
C3197 C3196 1.502 . S
C3198 H3184 0.960 . S
C3198 H3185 0.961 . S
C3198 H3186 0.959 . S
C3198 C3196 1.561 1_554 S
C3199 C3196 1.526 . S
C3199 C3200 1.396 . S
C3199 C3204 1.390 . S
C3200 C3194 1.465 . S
C3200 C3199 1.396 . S
C3200 C3201 1.399 . S
C3201 H3187 0.929 . S
C3201 C3200 1.399 . S
C3201 C3202 1.385 . S
C3202 H3188 0.931 . S
C3202 C3201 1.385 . S
C3202 C3203 1.389 . S
C3203 C3202 1.389 . S
C3203 C3204 1.387 . S
C3204 H3189 0.930 . S
C3204 C3199 1.390 . S
C3204 C3203 1.387 . S
H3205 C3217 0.930 . S
H3206 C3219 0.930 . S
H3207 C3220 0.930 . S
H3208 C3224 0.959 . S
H3209 C3224 0.959 . S
H3210 C3224 0.961 . S
H3211 C3225 0.960 . S
H3212 C3225 0.961 . S
H3213 C3225 0.959 . S
H3214 C3228 0.929 . S
H3215 C3229 0.931 . S
H3216 C3231 0.930 . S
C3217 H3205 0.930 . S
C3217 C3218 1.399 . S
C3217 C3222 1.399 . S
C3218 C3217 1.399 . S
C3218 C3219 1.376 . S
C3219 H3206 0.930 . S
C3219 C3218 1.376 . S
C3219 C3220 1.388 . S
C3220 H3207 0.930 . S
C3220 C3219 1.388 . S
C3220 C3221 1.390 . S
C3221 C3220 1.390 . S
C3221 C3222 1.394 . S
C3221 C3227 1.465 . S
C3222 C3217 1.399 . S
C3222 C3221 1.394 . S
C3222 C3223 1.516 . S
C3223 C3222 1.516 . S
C3223 C3224 1.502 . S
C3223 C3225 1.561 . S
C3223 C3226 1.526 . S
C3224 H3208 0.959 . S
C3224 H3209 0.959 . S
C3224 H3210 0.961 . S
C3224 C3223 1.502 . S
C3225 H3211 0.960 . S
C3225 H3212 0.961 . S
C3225 H3213 0.959 . S
C3225 C3223 1.561 . S
C3226 C3223 1.526 . S
C3226 C3227 1.396 . S
C3226 C3231 1.390 . S
C3227 C3221 1.465 . S
C3227 C3226 1.396 . S
C3227 C3228 1.399 . S
C3228 H3214 0.929 . S
C3228 C3227 1.399 . S
C3228 C3229 1.385 . S
C3229 H3215 0.931 . S
C3229 C3228 1.385 . S
C3229 C3230 1.389 . S
C3230 C3229 1.389 . S
C3230 C3231 1.387 . S
C3231 H3216 0.930 . S
C3231 C3226 1.390 . S
C3231 C3230 1.387 . S
C653 C566 1.454 . S
C665 C16 1.513 . S
C680 C106 1.459 . S
C692 C36 1.508 . S
C707 C446 1.512 . S
C719 C56 1.471 1_545 S
C734 C306 1.521 . S
C746 C76 1.459 . S
C761 C86 1.456 . S
C773 C496 1.510 . S
C788 C376 1.476 . S
C800 C126 1.485 1_565 S
C815 C236 1.524 . S
C827 C146 1.453 . S
C842 C406 1.455 . S
C854 C176 1.511 . S
C869 C196 1.469 . S
C881 C266 1.494 . S
C896 C216 1.468 . S
C908 C606 1.496 . S
C923 C336 1.463 . S
C935 C246 1.501 . S
C950 C286 1.514 . S
C962 C536 1.469 . S
C977 C356 1.507 . S
C989 C426 1.477 . S
C1004 C396 1.522 . S
C1016 C626 1.451 . S
C1031 C556 1.520 . S
C1043 C466 1.461 . S
C1058 C586 1.458 . S
C1070 C516 1.507 . S
C1085 C386 1.610 . S
C1097 C6 1.566 . S
C1112 C366 1.626 . S
C1124 C26 1.543 1_545 S
C1139 C346 1.537 . S
C1151 C46 1.615 . S
C1166 C326 1.548 . S
C1178 C66 1.602 . S
C1193 C476 1.607 . S
C1205 C96 1.569 . S
C1220 C116 1.612 . S
C1232 C456 1.564 . S
C1247 C136 1.612 . S
C1259 C436 1.563 . S
C1274 C156 1.558 . S
C1286 C416 1.616 . S
C1301 C166 1.621 . S
C1313 C546 1.551 . S
C1328 C186 1.608 . S
C1340 C526 1.568 . S
C1355 C206 1.609 . S
C1367 C506 1.567 . S
C1382 C486 1.536 . S
C1394 C226 1.628 . S
C1409 C256 1.599 . S
C1421 C636 1.579 . S
C1436 C276 1.614 . S
C1448 C616 1.561 . S
C1463 C296 1.626 . S
C1475 C596 1.543 . S
C1490 C576 1.607 . S
C1502 C316 1.569 . S
C1517 C19 1.831 . S
C1529 C8 1.895 1_556 S
C1544 C39 1.901 1_565 S
C1556 C28 1.838 1_556 S
C1571 C48 1.886 . S
C1583 C59 1.858 1_565 S
C1598 C68 1.885 . S
C1610 C79 1.862 . S
C1625 C99 1.905 1_554 S
C1637 C88 1.836 . S
C1652 C119 1.827 1_554 S
C1664 C108 1.898 1_545 S
C1679 C139 1.827 . S
C1691 C128 1.899 1_545 S
C1706 C148 1.849 . S
C1718 C159 1.873 . S
C1733 C179 1.907 1_554 S
C1745 C168 1.832 . S
C1760 C188 1.888 . S
C1772 C199 1.857 1_554 S
C1787 C208 1.849 . S
C1799 C219 1.874 . S
C1814 C228 1.848 . S
C1826 C239 1.875 . S
C1841 C259 1.831 . S
C1853 C248 1.895 1_556 S
C1868 C268 1.848 . S
C1880 C279 1.873 . S
C1895 C299 1.829 . S
C1907 C288 1.897 . S
C1922 C308 1.847 . S
C1934 C319 1.876 . S
C1949 C339 1.907 1_554 S
C1961 C328 1.832 . S
C1976 C348 1.846 1_545 S
C1988 C359 1.860 1_564 S
C2003 C368 1.839 . S
C2015 C379 1.885 1_565 S
C2030 C388 1.886 . S
C2042 C399 1.861 . S
C2057 C408 1.877 1_556 S
C2069 C419 1.837 . S
C2084 C439 1.827 . S
C2096 C428 1.898 1_546 S
C2111 C448 1.888 1_545 S
C2123 C459 1.852 1_565 S
C2138 C468 1.884 . S
C2150 C479 1.863 . S
C2165 C499 1.902 . S
C2177 C488 1.828 1_556 S
C2192 C508 1.844 1_556 S
C2204 C519 1.879 . S
C2219 C528 1.839 . S
C2231 C539 1.885 . S
C2246 C559 1.827 . S
C2258 C548 1.902 . S
C2273 C579 1.904 1_554 S
C2285 C568 1.838 . S
C2300 C588 1.839 . S
C2312 C599 1.885 1_554 S
C2327 C608 1.886 . S
C2339 C619 1.861 . S
C2354 C628 1.882 . S
C2366 C639 1.865 . S
C2381 C201 1.530 . S
C2393 C1 1.520 . S
C2408 C221 1.539 . S
C2420 C21 1.521 . S
C2435 C41 1.523 . S
C2447 C161 1.524 . S
C2462 C181 1.522 . S
C2474 C61 1.540 . S
C2489 C89 1.541 . S
C2501 C289 1.525 . S
C2516 C109 1.531 . S
C2528 C309 1.524 . S
C2543 C129 1.522 . S
C2555 C249 1.533 . S
C2570 C149 1.541 . S
C2582 C269 1.520 . S
C2597 C521 1.541 . S
C2609 C321 1.523 . S
C2624 C341 1.533 . S
C2636 C541 1.519 . S
C2651 C481 1.540 . S
C2663 C361 1.522 . S
C2678 C381 1.527 . S
C2690 C501 1.522 . S
C2705 C609 1.519 . S
C2717 C409 1.538 . S
C2732 C429 1.538 . S
C2744 C629 1.528 . S
C2759 C449 1.519 . S
C2771 C569 1.537 . S
C2786 C589 1.539 . S
C2798 C469 1.527 . S
C2813 C9 1.495 . S
C2825 C49 1.449 . S
C2840 C69 1.451 . S
C2852 C29 1.491 . S
C2867 C121 1.461 . S
C2879 C81 1.495 . S
C2894 C101 1.482 . S
C2906 C141 1.448 . S
C2921 C169 1.494 . S
C2933 C209 1.450 . S
C2948 C229 1.497 . S
C2960 C189 1.448 . S
C2975 C281 1.455 . S
C2987 C241 1.498 . S
C3002 C301 1.457 . S
C3014 C261 1.497 . S
C3029 C369 1.495 . S
C3041 C329 1.449 . S
C3056 C389 1.491 . S
C3068 C349 1.454 . S
C3083 C441 1.457 . S
C3095 C401 1.497 . S
C3110 C461 1.456 . S
C3122 C421 1.497 . S
C3137 C489 1.495 . S
C3149 C529 1.449 . S
C3164 C509 1.497 . S
C3176 C549 1.448 . S
C3191 C561 1.463 . S
C3203 C601 1.494 . S
C3218 C621 1.449 . S
C3230 C581 1.479 . S
