# Generated by pormake.
# Topology smm, (6)-cn, num edge types: 1
# Building blocks:
#     Node 0, Type 0, BuildingBlock: BETGAK_clean_sbu_0, # of connection points: 6
#     Node 1, Type 0, BuildingBlock: BETGAK_clean_sbu_0, # of connection points: 6
#     Node 2, Type 0, BuildingBlock: BETGAK_clean_sbu_0, # of connection points: 6
#     Node 3, Type 0, BuildingBlock: BETGAK_clean_sbu_0, # of connection points: 6
#     Node 4, Type 0, BuildingBlock: BETGAK_clean_sbu_0, # of connection points: 6
#     Node 5, Type 0, BuildingBlock: BETGAK_clean_sbu_0, # of connection points: 6
#     Node 6, Type 0, BuildingBlock: BETGAK_clean_sbu_0, # of connection points: 6
#     Node 7, Type 0, BuildingBlock: BETGAK_clean_sbu_0, # of connection points: 6
#     Node 8, Type 0, BuildingBlock: BETGAK_clean_sbu_0, # of connection points: 6
#     Edge 9, Type (0, 0), BuildingBlock: CIFDUS_clean_linker_0, # of connection points: 2
#     Edge 10, Type (0, 0), BuildingBlock: CIFDUS_clean_linker_0, # of connection points: 2
#     Edge 11, Type (0, 0), BuildingBlock: CIFDUS_clean_linker_0, # of connection points: 2
#     Edge 12, Type (0, 0), BuildingBlock: CIFDUS_clean_linker_0, # of connection points: 2
#     Edge 13, Type (0, 0), BuildingBlock: CIFDUS_clean_linker_0, # of connection points: 2
#     Edge 14, Type (0, 0), BuildingBlock: CIFDUS_clean_linker_0, # of connection points: 2
#     Edge 15, Type (0, 0), BuildingBlock: CIFDUS_clean_linker_0, # of connection points: 2
#     Edge 16, Type (0, 0), BuildingBlock: CIFDUS_clean_linker_0, # of connection points: 2
#     Edge 17, Type (0, 0), BuildingBlock: CIFDUS_clean_linker_0, # of connection points: 2
#     Edge 18, Type (0, 0), BuildingBlock: CIFDUS_clean_linker_0, # of connection points: 2
#     Edge 19, Type (0, 0), BuildingBlock: CIFDUS_clean_linker_0, # of connection points: 2
#     Edge 20, Type (0, 0), BuildingBlock: CIFDUS_clean_linker_0, # of connection points: 2
#     Edge 21, Type (0, 0), BuildingBlock: CIFDUS_clean_linker_0, # of connection points: 2
#     Edge 22, Type (0, 0), BuildingBlock: CIFDUS_clean_linker_0, # of connection points: 2
#     Edge 23, Type (0, 0), BuildingBlock: CIFDUS_clean_linker_0, # of connection points: 2
#     Edge 24, Type (0, 0), BuildingBlock: CIFDUS_clean_linker_0, # of connection points: 2
#     Edge 25, Type (0, 0), BuildingBlock: CIFDUS_clean_linker_0, # of connection points: 2
#     Edge 26, Type (0, 0), BuildingBlock: CIFDUS_clean_linker_0, # of connection points: 2
#     Edge 27, Type (0, 0), BuildingBlock: CIFDUS_clean_linker_0, # of connection points: 2
#     Edge 28, Type (0, 0), BuildingBlock: CIFDUS_clean_linker_0, # of connection points: 2
#     Edge 29, Type (0, 0), BuildingBlock: CIFDUS_clean_linker_0, # of connection points: 2
#     Edge 30, Type (0, 0), BuildingBlock: CIFDUS_clean_linker_0, # of connection points: 2
#     Edge 31, Type (0, 0), BuildingBlock: CIFDUS_clean_linker_0, # of connection points: 2
#     Edge 32, Type (0, 0), BuildingBlock: CIFDUS_clean_linker_0, # of connection points: 2
#     Edge 33, Type (0, 0), BuildingBlock: CIFDUS_clean_linker_0, # of connection points: 2
#     Edge 34, Type (0, 0), BuildingBlock: CIFDUS_clean_linker_0, # of connection points: 2
#     Edge 35, Type (0, 0), BuildingBlock: CIFDUS_clean_linker_0, # of connection points: 2
# Relax obj value: 0.039
# Max RMSD: 0.117
# Mean RMSD: 0.117
data_MOF--net-smm--node1-BETGAK_clean_sbu_0--edge1-CIFDUS_clean_linker_0
_symmetry_space_group_name_H-M    P1
_symmetry_Int_Tables_number       1
_symmetry_cell_setting            triclinic
loop_
_symmetry_equiv_pos_as_xyz
'x, y, z'
_cell_length_a     64.441193
_cell_length_b     64.627669
_cell_length_c     12.496506
_cell_angle_alpha  90.14707
_cell_angle_beta   90.20605
_cell_angle_gamma 119.88127
loop_
_atom_site_label
_atom_site_type_symbol
_atom_site_fract_x
_atom_site_fract_y
_atom_site_fract_z
_atom_type_partial_charge
La0 La 0.07013 0.2294 0.0061 0.0
La1 La 1.02741 0.17836 0.03018 0.0
C2 C 0.09907 0.27016 0.92971 0.0
C3 C 0.10484 0.29548 0.91449 0.0
C4 C 0.12273 0.31387 0.97732 0.0
C5 C 0.13107 0.338 0.95341 0.0
C6 C 0.12192 0.34458 0.86529 0.0
C7 C 0.10354 0.32612 0.80416 0.0
C8 C 0.09521 0.30198 0.82807 0.0
C9 C 0.05943 0.21369 0.20363 0.0
C10 C 1.01696 0.22154 0.03753 0.0
C11 C 0.99668 0.13674 0.09081 0.0
C12 C 0.98802 0.11086 0.07619 0.0
C13 C 1.0034 0.10196 0.05189 0.0
C14 C 0.99443 0.0772 0.04351 0.0
C15 C 0.96987 0.06073 0.05936 0.0
C16 C 0.9546 0.0699 0.08189 0.0
C17 C 0.96356 0.09457 0.09011 0.0
C18 C 1.03936 0.19386 0.83203 0.0
C19 C 0.08109 0.18669 0.02154 0.0
O20 O 0.10106 0.26318 0.02574 0.0
O21 O 0.08099 0.25321 0.87634 0.0
O22 O 0.08075 0.22965 0.1733 0.0
O23 O 0.045 0.20938 0.12775 0.0
O24 O 1.0393 0.23587 0.00482 0.0
O25 O 1.00964 0.19909 0.06534 0.0
O26 O 0.99341 0.14787 0.01095 0.0
O27 O 1.01737 0.15001 0.13857 0.0
O28 O 1.01792 0.17832 0.86118 0.0
O29 O 0.05319 0.19804 0.90998 0.0
O30 O 0.05819 0.17231 0.04596 0.0
O31 O 0.08914 0.20915 -0.00912 0.0
H32 H 0.13087 0.30965 0.04346 0.0
H33 H 0.14493 0.35152 0.00372 0.0
H34 H 0.09615 0.33028 0.73498 0.0
H35 H 0.08176 0.28843 0.77637 0.0
H36 H 1.02233 0.1141 0.04019 0.0
H37 H 1.00678 0.07098 0.0245 0.0
H38 H 0.93573 0.05801 0.0963 0.0
H39 H 0.95133 0.10097 0.10922 0.0
La40 La 0.85863 0.86179 0.00629 0.0
La41 La 0.90919 0.87346 0.04771 0.0
C42 C 0.8198 0.85659 0.92753 0.0
C43 C 0.79343 0.83982 0.91415 0.0
C44 C 0.77724 0.83532 -0.00176 0.0
C45 C 0.75235 0.82231 0.98031 0.0
C46 C 0.74277 0.81347 0.8776 0.0
C47 C 0.75904 0.81747 0.79428 0.0
C48 C 0.78392 0.83049 0.81223 0.0
C49 C 0.86801 0.85895 0.2112 0.0
C50 C 0.86646 0.81876 0.05239 0.0
C51 C 0.95026 0.88058 0.10296 0.0
C52 C 0.97619 0.8991 0.0903 0.0
C53 C 0.9903 0.89653 0.0113 0.0
C54 C 1.01499 0.91285 0.00373 0.0
C55 C 1.02651 0.93228 0.07538 0.0
C56 C 1.01231 0.93489 0.15408 0.0
C57 C 0.98762 0.91857 0.16158 0.0
C58 C 0.89891 0.87686 0.84375 0.0
C59 C 0.90095 0.91664 0.02878 0.0
O60 O 0.82813 0.86557 0.0225 0.0
O61 O 0.83467 0.85202 0.8753 0.0
O62 O 0.8475 0.84587 0.16444 0.0
O63 O 0.88216 0.87434 0.14502 0.0
O64 O 0.85213 0.82528 0.00586 0.0
O65 O 0.88848 0.83485 0.08368 0.0
O66 O 0.9386 0.86847 0.01778 0.0
O67 O 0.93687 0.8858 0.16306 0.0
O68 O 0.91898 0.89079 0.89128 0.0
O69 O 0.88556 0.86092 0.90941 0.0
O70 O 0.91487 0.90913 0.07011 0.0
O71 O 0.87943 0.90129 -0.01089 0.0
H72 H 0.78375 0.84233 0.07768 0.0
H73 H 0.74058 0.81937 0.04724 0.0
H74 H 0.7526 0.81133 0.7138 0.0
H75 H 0.79578 0.83394 0.74506 0.0
H76 H 0.98231 0.88166 0.95562 0.0
H77 H 1.02502 0.91024 0.94101 0.0
H78 H 1.02035 0.94928 0.21207 0.0
H79 H 0.97756 0.92104 0.22464 0.0
La80 La 0.22384 1.01611 0.0021 0.0
La81 La 0.21786 0.06009 0.03089 0.0
C82 C 0.23276 0.98519 0.92272 0.0
C83 C 0.25044 0.97736 0.90014 0.0
C84 C 0.27515 0.99192 0.9182 0.0
C85 C 0.29108 0.98366 0.89209 0.0
C86 C 0.28264 0.96069 0.84717 0.0
C87 C 0.25782 0.94639 0.82935 0.0
C88 C 0.24203 0.95459 0.85568 0.0
C89 C 0.22042 1.02748 0.20153 0.0
C90 C 0.27072 0.068 0.0305 0.0
C91 C 0.20671 0.09096 0.09016 0.0
C92 C 0.18807 0.09821 0.07546 0.0
C93 C 0.19123 0.11563 -0.00044 0.0
C94 C 0.17515 0.12436 -0.00728 0.0
C95 C 0.1554 0.11609 0.06203 0.0
C96 C 0.15217 0.09849 0.13739 0.0
C97 C 0.16825 0.08976 0.14417 0.0
C98 C 0.22003 0.04762 0.83136 0.0
C99 C 0.17116 1.00707 0.02223 0.0
O100 O 0.22602 0.98481 0.02179 0.0
O101 O 0.23458 1.00349 0.86991 0.0
O102 O 0.21379 1.00592 0.16955 0.0
O103 O 0.23074 0.04167 0.12594 0.0
O104 O 0.26121 0.0458 -0.00698 0.0
O105 O 0.25676 0.07644 0.06496 0.0
O106 O 0.22062 0.09365 0.00897 0.0
O107 O 0.20105 0.07137 0.1432 0.0
O108 O 0.22757 0.06934 0.86238 0.0
O109 O 0.21 0.03398 0.90871 0.0
O110 O 0.1805 0.03003 0.04852 0.0
O111 O 0.18487 0.99845 0.98812 0.0
H112 H 0.2821 1.00961 0.95213 0.0
H113 H 0.30997 0.99521 0.9081 0.0
H114 H 0.25048 0.9289 0.79294 0.0
H115 H 0.22308 0.9431 0.84003 0.0
H116 H 0.20643 0.12289 0.94618 0.0
H117 H 0.17823 0.13761 0.93262 0.0
H118 H 0.13751 0.09184 0.19358 0.0
H119 H 0.16539 0.07673 0.2051 0.0
La120 La 0.74055 0.56265 0.33582 0.0
La121 La 0.69577 0.51309 0.35751 0.0
C122 C 0.77121 0.60295 0.2605 0.0
C123 C 0.77771 0.62839 0.24139 0.0
C124 C 0.79572 0.64693 0.30332 0.0
C125 C 0.80445 0.67103 0.27699 0.0
C126 C 0.79555 0.67743 0.18733 0.0
C127 C 0.77724 0.65882 0.12644 0.0
C128 C 0.76853 0.63473 0.15279 0.0
C129 C 0.72919 0.54675 0.53234 0.0
C130 C 0.68842 0.55785 0.37082 0.0
C131 C 0.66364 0.47136 0.40978 0.0
C132 C 0.65417 0.44558 0.38391 0.0
C133 C 0.64177 0.4354 0.28759 0.0
C134 C 0.63026 0.41063 0.2703 0.0
C135 C 0.63075 0.39525 0.34875 0.0
C136 C 0.6437 0.40555 0.44389 0.0
C137 C 0.65514 0.43032 0.46129 0.0
C138 C 0.70879 0.52857 0.16018 0.0
C139 C 0.74799 0.51785 0.35653 0.0
O140 O 0.77181 0.59611 0.35858 0.0
O141 O 0.75356 0.58608 0.20486 0.0
O142 O 0.75089 0.56166 0.50208 0.0
O143 O 0.71491 0.54356 0.45709 0.0
O144 O 0.71087 0.57129 0.33656 0.0
O145 O 0.68021 0.53528 0.39856 0.0
O146 O 0.66081 0.48445 0.33791 0.0
O147 O 0.68442 0.48316 0.45852 0.0
O148 O 0.68697 0.51433 0.18888 0.0
O149 O 0.72227 0.53163 0.2382 0.0
O150 O 0.72485 0.50511 0.37932 0.0
O151 O 0.75786 0.54047 0.32436 0.0
H152 H 0.80355 0.6428 0.37101 0.0
H153 H 0.81827 0.68467 0.32703 0.0
H154 H 0.77008 0.66278 0.05591 0.0
H155 H 0.75504 0.62108 0.10156 0.0
H156 H 0.64044 0.44648 0.22616 0.0
H157 H 0.62082 0.4035 0.19541 0.0
H158 H 0.64431 0.39439 0.50689 0.0
H159 H 0.66419 0.43749 0.53697 0.0
La160 La 0.52807 0.20185 0.3233 0.0
La161 La 0.57413 0.20266 0.36178 0.0
C162 C 0.48781 0.1935 0.24705 0.0
C163 C 0.46159 0.17587 0.23321 0.0
C164 C 0.44521 0.17091 0.31702 0.0
C165 C 0.42034 0.1576 0.29858 0.0
C166 C 0.4109 0.14887 0.19557 0.0
C167 C 0.42733 0.15317 0.11259 0.0
C168 C 0.45222 0.16652 0.13105 0.0
C169 C 0.54243 0.20942 0.52668 0.0
C170 C 0.52777 0.15294 0.37875 0.0
C171 C 0.61583 0.21171 0.42074 0.0
C172 C 0.64182 0.22929 0.40595 0.0
C173 C 0.65004 0.25265 0.36932 0.0
C174 C 0.67477 0.26896 0.36044 0.0
C175 C 0.69202 0.26235 0.3872 0.0
C176 C 0.68356 0.23875 0.422 0.0
C177 C 0.65889 0.22255 0.43136 0.0
C178 C 0.5595 0.19583 0.15828 0.0
C179 C 0.57404 0.25205 0.33104 0.0
O180 O 0.49587 0.20239 0.34227 0.0
O181 O 0.50348 0.19037 0.19356 0.0
O182 O 0.53081 0.21841 0.47932 0.0
O183 O 0.5443 0.19531 0.46219 0.0
O184 O 0.51683 0.16342 0.33225 0.0
O185 O 0.5502 0.16584 0.4131 0.0
O186 O 0.60415 0.19819 0.33912 0.0
O187 O 0.60278 0.21873 0.47244 0.0
O188 O 0.57017 0.18588 0.20512 0.0
O189 O 0.55827 0.21005 0.22412 0.0
O190 O 0.58504 0.2407 0.36628 0.0
O191 O 0.55174 0.2401 0.29444 0.0
H192 H 0.45156 0.17793 0.39664 0.0
H193 H 0.40848 0.15443 0.36537 0.0
H194 H 0.42101 0.14708 0.03194 0.0
H195 H 0.46418 0.17031 0.064 0.0
H196 H 0.63735 0.2583 0.34786 0.0
H197 H 0.68036 0.28677 0.33183 0.0
H198 H 0.69602 0.23289 0.44475 0.0
H199 H 0.65313 0.20469 0.45988 0.0
La200 La 0.89123 0.35076 0.32143 0.0
La201 La 0.88224 0.39108 0.36162 0.0
C202 C 0.89547 0.31648 0.24563 0.0
C203 C 0.91388 0.30941 0.22233 0.0
C204 C 0.91291 0.2898 0.27557 0.0
C205 C 0.92856 0.28138 0.24873 0.0
C206 C 0.94568 0.29223 0.16717 0.0
C207 C 0.94684 0.31211 0.11483 0.0
C208 C 0.93116 0.32054 0.14178 0.0
C209 C 0.89539 0.36376 0.52614 0.0
C210 C 0.93611 0.40027 0.3583 0.0
C211 C 0.8789 0.42732 0.41518 0.0
C212 C 0.86336 0.43824 0.39675 0.0
C213 C 0.86691 0.453 0.30783 0.0
C214 C 0.85397 0.46511 0.29608 0.0
C215 C 0.83708 0.46299 0.37307 0.0
C216 C 0.83331 0.44795 0.4613 0.0
C217 C 0.84629 0.43587 0.47311 0.0
C218 C 0.87797 0.37725 0.15759 0.0
C219 C 0.83691 0.34021 0.34521 0.0
O220 O 0.89076 0.31819 0.34593 0.0
O221 O 0.89541 0.33329 0.18762 0.0
O222 O 0.90809 0.35601 0.47885 0.0
O223 O 0.87996 0.36287 0.46028 0.0
O224 O 0.92775 0.3798 0.30643 0.0
O225 O 0.92117 0.40678 0.39957 0.0
O226 O 0.89163 0.42685 0.33486 0.0
O227 O 0.8703 0.40774 0.47181 0.0
O228 O 0.8648 0.38437 0.2046 0.0
O229 O 0.89367 0.37905 0.22373 0.0
O230 O 0.84527 0.36229 0.38079 0.0
O231 O 0.85167 0.33291 0.30976 0.0
H232 H 0.89971 0.28067 0.33731 0.0
H233 H 0.92725 0.26633 0.2924 0.0
H234 H 0.95949 0.32086 0.0508 0.0
H235 H 0.93233 0.33552 0.09798 0.0
H236 H 0.88004 0.45557 0.24769 0.0
H237 H 0.85726 0.47618 0.22623 0.0
H238 H 0.82078 0.44601 0.52331 0.0
H239 H 0.84332 0.42504 0.54361 0.0
La240 La 0.40603 0.89704 0.66478 0.0
La241 La 0.36266 0.84614 0.68568 0.0
C242 C 0.43585 0.9376 0.58982 0.0
C243 C 0.44404 0.96365 0.58093 0.0
C244 C 0.45684 0.97975 0.66433 0.0
C245 C 0.46816 1.00454 0.64817 0.0
C246 C 0.46719 1.01405 0.54795 0.0
C247 C 0.4536 0.99788 0.46591 0.0
C248 C 0.4423 0.97309 0.48208 0.0
C249 C 0.3956 0.88042 0.86113 0.0
C250 C 0.35363 0.89023 0.706 0.0
C251 C 0.33105 0.80418 0.7382 0.0
C252 C 0.32012 0.77838 0.70898 0.0
C253 C 0.29609 0.76586 0.6749 0.0
C254 C 0.28433 0.74115 0.65658 0.0
C255 C 0.29617 0.72803 0.67209 0.0
C256 C 0.32043 0.74066 0.70463 0.0
C257 C 0.33222 0.76548 0.72309 0.0
C258 C 0.37468 0.86256 0.48864 0.0
C259 C 0.41579 0.85354 0.67439 0.0
O260 O 0.43857 0.92931 0.68131 0.0
O261 O 0.41617 0.92217 0.5399 0.0
O262 O 0.41681 0.89674 0.8313 0.0
O263 O 0.3811 0.87653 0.78615 0.0
O264 O 0.37577 0.90442 0.67049 0.0
O265 O 0.34625 0.86762 0.7314 0.0
O266 O 0.32731 0.81772 0.67243 0.0
O267 O 0.35269 0.81546 0.77955 0.0
O268 O 0.35325 0.84698 0.51723 0.0
O269 O 0.38842 0.86617 0.56608 0.0
O270 O 0.39301 0.83952 0.70159 0.0
O271 O 0.42396 0.87595 0.64292 0.0
H272 H 0.45883 0.97326 0.74131 0.0
H273 H 0.47806 1.01629 0.7141 0.0
H274 H 0.45256 1.00433 0.38731 0.0
H275 H 0.433 0.96128 0.4154 0.0
H276 H 0.28611 0.77514 0.6649 0.0
H277 H 0.26563 0.73224 0.63347 0.0
H278 H 0.33036 0.73139 0.71619 0.0
H279 H 0.35069 0.77445 0.74991 0.0
La280 La 0.19293 0.53264 0.67258 0.0
La281 La 0.24069 0.53715 0.70972 0.0
C282 C 0.15237 0.52259 0.59384 0.0
C283 C 0.12621 0.50513 0.57805 0.0
C284 C 0.10991 0.49727 0.66364 0.0
C285 C 0.08501 0.48415 0.64483 0.0
C286 C 0.07553 0.47856 0.53981 0.0
C287 C 0.09198 0.48584 0.45465 0.0
C288 C 0.11684 0.49892 0.47353 0.0
C289 C 0.20747 0.54147 0.87533 0.0
C290 C 0.19663 0.4859 0.73355 0.0
C291 C 0.28336 0.549 0.76469 0.0
C292 C 0.30903 0.56755 0.74569 0.0
C293 C 0.32279 0.56378 0.66885 0.0
C294 C 0.34748 0.57979 0.6585 0.0
C295 C 0.35937 0.60008 0.72514 0.0
C296 C 0.3455 0.60397 0.80117 0.0
C297 C 0.32079 0.58796 0.81145 0.0
C298 C 0.22575 0.52934 0.50662 0.0
C299 C 0.23708 0.58443 0.68242 0.0
O300 O 0.16006 0.53195 0.68873 0.0
O301 O 0.16828 0.51937 0.54287 0.0
O302 O 0.19446 0.54889 0.82807 0.0
O303 O 0.21054 0.52803 0.81123 0.0
O304 O 0.18373 0.49454 0.68868 0.0
O305 O 0.21907 0.50047 0.76375 0.0
O306 O 0.27156 0.53429 0.6865 0.0
O307 O 0.26972 0.5551 0.81757 0.0
O308 O 0.23761 0.52065 0.55317 0.0
O309 O 0.22346 0.54291 0.57257 0.0
O310 O 0.2492 0.57431 0.71798 0.0
O311 O 0.21503 0.57136 0.64385 0.0
H312 H 0.11632 0.50182 0.74528 0.0
H313 H 0.07317 0.47861 0.71309 0.0
H314 H 0.08569 0.48231 0.37259 0.0
H315 H 0.12878 0.50502 0.40553 0.0
H316 H 0.31455 0.54814 0.61759 0.0
H317 H 0.35725 0.57619 0.59793 0.0
H318 H 0.35383 0.61908 0.85535 0.0
H319 H 0.31102 0.59132 0.87292 0.0
La320 La 0.55684 0.68077 0.68397 0.0
La321 La 0.55097 0.72488 0.69589 0.0
C322 C 0.56773 0.64908 0.63659 0.0
C323 C 0.58692 0.64406 0.60164 0.0
C324 C 0.58951 0.62653 0.65651 0.0
C325 C 0.60542 0.61917 0.62061 0.0
C326 C 0.61932 0.62911 0.52831 0.0
C327 C 0.61732 0.64728 0.47501 0.0
C328 C 0.60122 0.65458 0.51089 0.0
C329 C 0.54742 0.69119 0.87536 0.0
C330 C 0.60293 0.7324 0.71146 0.0
C331 C 0.53976 0.75656 0.74037 0.0
C332 C 0.52107 0.76358 0.72286 0.0
C333 C 0.52456 0.78112 0.64714 0.0
C334 C 0.50855 0.78991 0.63917 0.0
C335 C 0.48858 0.78155 0.70723 0.0
C336 C 0.48499 0.76377 0.78211 0.0
C337 C 0.50097 0.75498 0.78994 0.0
C338 C 0.55938 0.71374 0.50369 0.0
C339 C 0.50415 0.67206 0.67965 0.0
O340 O 0.56918 0.65755 0.73321 0.0
O341 O 0.55909 0.65819 0.56806 0.0
O342 O 0.54111 0.66982 0.84247 0.0
O343 O 0.56067 0.706 0.80609 0.0
O344 O 0.59366 0.71076 0.66846 0.0
O345 O 0.58881 0.74061 0.74541 0.0
O346 O 0.55329 0.75792 0.65984 0.0
O347 O 0.53423 0.73781 0.79899 0.0
O348 O 0.56532 0.73511 0.53434 0.0
O349 O 0.54666 0.6994 0.57507 0.0
O350 O 0.51328 0.69532 0.69791 0.0
O351 O 0.51804 0.66264 0.66162 0.0
H352 H 0.57874 0.61804 0.72645 0.0
H353 H 0.60671 0.60551 0.66521 0.0
H354 H 0.62763 0.65532 0.40351 0.0
H355 H 0.59966 0.66809 0.46642 0.0
H356 H 0.54001 0.78847 0.59518 0.0
H357 H 0.5119 0.80331 0.57949 0.0
H358 H 0.47016 0.75707 0.83739 0.0
H359 H 0.49785 0.74185 0.85078 0.0
H360 H 0.16867 0.38085 0.87463 0.0
H361 H 0.09803 0.36694 0.78701 0.0
H362 H 0.11451 0.40869 0.73556 0.0
H363 H 0.14922 0.44982 0.71719 0.0
H364 H 0.21946 0.463 0.80912 0.0
H365 H 0.20286 0.42133 0.85755 0.0
C366 C 0.15673 0.38689 0.84558 0.0
C367 C 0.13201 0.37044 0.83541 0.0
C368 C 0.16632 0.41106 0.81648 0.0
C369 C 0.11713 0.37887 0.79502 0.0
C370 C 0.12655 0.4029 0.76591 0.0
C371 C 0.16091 0.44357 0.74745 0.0
C372 C 0.18568 0.45986 0.75924 0.0
C373 C 0.15117 0.41925 0.77618 0.0
C374 C 0.20039 0.45119 0.79909 0.0
C375 C 0.19089 0.42721 0.82705 0.0
H376 H 0.71557 0.77535 0.74333 0.0
H377 H 0.70942 0.82342 0.96413 0.0
H378 H 0.66635 0.80354 0.93117 0.0
H379 H 0.62978 0.77203 0.84014 0.0
H380 H 0.63649 0.72421 0.6196 0.0
H381 H 0.67953 0.74463 0.65052 0.0
C382 C 0.70494 0.78169 0.78376 0.0
C383 C 0.71611 0.80095 0.85684 0.0
C384 C 0.67998 0.7702 0.764 0.0
C385 C 0.70159 0.80846 0.909 0.0
C386 C 0.67683 0.79718 0.88948 0.0
C387 C 0.64066 0.7662 0.7981 0.0
C388 C 0.6296 0.74649 0.72731 0.0
C389 C 0.66573 0.77796 0.81721 0.0
C390 C 0.64422 0.7392 0.67466 0.0
C391 C 0.66899 0.7509 0.69238 0.0
H392 H 0.27488 0.91497 0.86192 0.0
H393 H 0.32839 0.98573 0.7649 0.0
H394 H 0.35491 0.9706 0.71218 0.0
H395 H 0.3629 0.93688 0.691 0.0
H396 H 0.30822 0.86619 0.7841 0.0
H397 H 0.2823 0.88164 0.83785 0.0
C398 C 0.29221 0.92716 0.82809 0.0
C399 C 0.29936 0.95158 0.81758 0.0
C400 C 0.30729 0.91827 0.79616 0.0
C401 C 0.32229 0.96695 0.77574 0.0
C402 C 0.33748 0.95824 0.74451 0.0
C403 C 0.34527 0.92481 0.72243 0.0
C404 C 0.33771 0.90027 0.73293 0.0
C405 C 0.33017 0.93387 0.75391 0.0
C406 C 0.31473 0.88509 0.77453 0.0
C407 C 0.29979 0.89393 0.80576 0.0
H408 H 0.38356 0.11087 0.0598 0.0
H409 H 0.37755 0.15877 0.28219 0.0
H410 H 0.33451 0.13904 0.24932 0.0
H411 H 0.29786 0.10768 0.15847 0.0
H412 H 0.30417 0.05977 0.93718 0.0
H413 H 0.34729 0.08012 0.96721 0.0
C414 C 0.37296 0.1172 0.10065 0.0
C415 C 0.3842 0.13638 0.17426 0.0
C416 C 0.34795 0.10574 0.08108 0.0
C417 C 0.3697 0.14387 0.22674 0.0
C418 C 0.34493 0.13267 0.20726 0.0
C419 C 0.30867 0.10183 0.11592 0.0
C420 C 0.29746 0.08211 0.04511 0.0
C421 C 0.33376 0.11352 0.13473 0.0
C422 C 0.31201 0.07478 -0.00788 0.0
C423 C 0.33682 0.08644 0.00938 0.0
H424 H 0.93543 0.24553 0.15659 0.0
H425 H 0.99309 0.31749 0.10782 0.0
H426 H 1.0197 0.3023 0.05849 0.0
H427 H 1.0272 0.26847 0.03369 0.0
H428 H 0.96948 0.19673 0.08764 0.0
H429 H 0.94273 0.21197 0.13092 0.0
C430 C 0.95387 0.258 0.13625 0.0
C431 C 0.96203 0.28275 0.13652 0.0
C432 C 0.96926 0.24913 0.10863 0.0
C433 C 0.986 0.29838 0.10743 0.0
C434 C 1.00136 0.28968 0.07965 0.0
C435 C 1.00873 0.25613 0.05414 0.0
C436 C 1.00055 0.23137 0.05716 0.0
C437 C 0.99326 0.26507 0.0802 0.0
C438 C 0.97649 0.21582 0.08458 0.0
C439 C 0.96107 0.22454 0.10961 0.0
H440 H 0.82033 0.78129 0.03278 0.0
H441 H 0.89113 0.79771 0.1325 0.0
H442 H 0.87575 0.75611 0.18285 0.0
H443 H 0.84215 0.71479 0.19984 0.0
H444 H 0.77116 0.69871 0.10492 0.0
H445 H 0.78671 0.74007 0.05102 0.0
C446 C 0.83249 0.77581 0.06484 0.0
C447 C 0.857 0.79289 0.07807 0.0
C448 C 0.82345 0.75172 0.09485 0.0
C449 C 0.87225 0.7852 0.12085 0.0
C450 C 0.86343 0.7613 0.15001 0.0
C451 C 0.82996 0.72029 0.16842 0.0
C452 C 0.80537 0.70324 0.15659 0.0
C453 C 0.83903 0.74437 0.13797 0.0
C454 C 0.79015 0.71102 0.11381 0.0
C455 C 0.79904 0.73484 0.08333 0.0
H456 H 0.04918 0.44574 0.38193 0.0
H457 H 1.04101 0.48323 0.65007 0.0
H458 H 0.99795 0.4635 0.61696 0.0
H459 H 0.96184 0.435 0.51208 0.0
H460 H 0.97075 0.39794 0.24417 0.0
H461 H 1.01376 0.41833 0.27572 0.0
C462 C 1.03813 0.44987 0.43284 0.0
C463 C 0.04878 0.46607 0.51906 0.0
C464 C 1.01317 0.43852 0.41289 0.0
C465 C 1.03365 0.47063 0.58434 0.0
C466 C 1.00887 0.45945 0.56483 0.0
C467 C 0.97322 0.4316 0.45983 0.0
C468 C 0.96275 0.41486 0.37539 0.0
C469 C 0.99831 0.4433 0.47932 0.0
C470 C 0.978 0.41059 0.30982 0.0
C471 C 1.00276 0.42228 0.3279 0.0
H472 H 0.60931 0.5829 0.51583 0.0
H473 H 0.66514 0.65456 0.44702 0.0
H474 H 0.69128 0.6393 0.38759 0.0
H475 H 0.69893 0.60524 0.36211 0.0
H476 H 0.64188 0.53393 0.43196 0.0
H477 H 0.61606 0.54944 0.48409 0.0
C478 C 0.62725 0.59528 0.48854 0.0
C479 C 0.6352 0.61993 0.4874 0.0
C480 C 0.64219 0.58639 0.45454 0.0
C481 C 0.65839 0.6355 0.44885 0.0
C482 C 0.67344 0.62677 0.41519 0.0
C483 C 0.6808 0.59309 0.38785 0.0
C484 C 0.67266 0.56834 0.39335 0.0
C485 C 0.66563 0.60219 0.41844 0.0
C486 C 0.64898 0.55302 0.4271 0.0
C487 C 0.63402 0.56187 0.45725 0.0
H488 H 0.54064 0.12548 0.49979 0.0
H489 H 0.48301 0.12083 0.305 0.0
H490 H 0.45936 0.07815 0.34009 0.0
H491 H 0.45456 0.04179 0.42712 0.0
H492 H 0.51219 0.04631 0.62143 0.0
H493 H 0.53583 0.08902 0.58678 0.0
C494 C 0.52295 0.11515 0.46458 0.0
C495 C 0.5138 0.12661 0.39939 0.0
C496 C 0.5092 0.0904 0.48575 0.0
C497 C 0.49068 0.11273 0.35541 0.0
C498 C 0.47705 0.08819 0.37551 0.0
C499 C 0.47234 0.05203 0.46152 0.0
C500 C 0.48133 0.04053 0.52754 0.0
C501 C 0.48606 0.07678 0.44067 0.0
C502 C 0.50441 0.05446 0.57203 0.0
C503 C 0.51812 0.07899 0.55147 0.0
H504 H 0.16538 0.16211 0.01958 0.0
H505 H 0.1066 0.09198 0.09148 0.0
H506 H 0.07892 0.10739 0.08699 0.0
H507 H 0.07099 0.14074 0.06256 0.0
H508 H 0.12956 0.21067 0.98625 0.0
H509 H 0.15731 0.19529 -0.00878 0.0
C510 C 0.14649 0.15005 0.03316 0.0
C511 C 0.13837 0.12578 0.05646 0.0
C512 C 0.13043 0.15903 0.02961 0.0
C513 C 0.11371 0.11076 0.07528 0.0
C514 C 0.09772 0.11955 0.07202 0.0
C515 C 0.08982 0.15269 0.04691 0.0
C516 C 0.09798 0.17697 0.02407 0.0
C517 C 0.10584 0.14368 0.04959 0.0
C518 C 0.12255 0.19196 0.00394 0.0
C519 C 0.13853 0.18315 0.00683 0.0
H520 H 0.94438 0.95252 0.09838 0.0
H521 H 0.87854 0.94042 0.95123 0.0
H522 H 0.89403 0.98354 0.94554 0.0
H523 H 0.92639 1.02489 0.98243 0.0
H524 H 0.99176 0.03634 0.13281 0.0
H525 H 0.97644 0.99345 0.13505 0.0
C526 C 0.9333 0.9592 0.06504 0.0
C527 C 0.91017 0.94298 0.02558 0.0
C528 C 0.94235 0.98406 0.06181 0.0
C529 C 0.89631 0.95227 0.9825 0.0
C530 C 0.90521 0.97702 0.97912 0.0
C531 C 0.93729 1.01807 0.01642 0.0
C532 C 0.96039 0.03419 0.05703 0.0
C533 C 0.92821 0.99313 0.01872 0.0
C534 C 0.97419 1.02471 0.0991 0.0
C535 C 0.96532 1.00004 0.10134 0.0
H536 H 0.06271 0.92305 0.02359 0.0
H537 H 0.05083 0.98088 0.11241 0.0
H538 H 0.09383 1.0088 0.10565 0.0
H539 H 0.13535 1.01719 0.07394 0.0
H540 H 0.14658 0.95912 0.98108 0.0
H541 H 0.1037 0.93143 0.9886 0.0
C542 C 0.06937 0.94178 0.04033 0.0
C543 C 0.05313 0.94956 0.06886 0.0
C544 C 0.09429 0.95795 0.03547 0.0
C545 C 0.06259 0.97403 0.09192 0.0
C546 C 0.08732 0.99016 0.08738 0.0
C547 C 0.12846 0.99849 0.05522 0.0
C548 C 0.14454 0.99049 0.02687 0.0
C549 C 0.10344 0.98237 0.05946 0.0
C550 C 0.13496 0.96606 0.00299 0.0
C551 C 0.11028 0.95006 0.00733 0.0
H552 H 0.79559 0.53381 0.30282 0.0
H553 H 0.73262 0.47302 0.4313 0.0
H554 H 0.75404 0.45123 0.44702 0.0
H555 H 0.79034 0.44852 0.42398 0.0
H556 H 0.85392 0.50875 0.29809 0.0
H557 H 0.83264 0.53106 0.28089 0.0
C558 C 0.78656 0.51583 0.33439 0.0
C559 C 0.76232 0.50531 0.36548 0.0
C560 C 0.79911 0.50299 0.34345 0.0
C561 C 0.75113 0.48185 0.40609 0.0
C562 C 0.76341 0.4692 0.4154 0.0
C563 C 0.79972 0.4666 0.39367 0.0
C564 C 0.82385 0.47671 0.36241 0.0
C565 C 0.78738 0.4795 0.3844 0.0
C566 C 0.83531 0.50015 0.32155 0.0
C567 C 0.82315 0.51308 0.31228 0.0
H568 H 0.64453 0.36284 0.40462 0.0
H569 H 0.58629 0.36737 0.25745 0.0
H570 H 0.56383 0.324 0.23553 0.0
H571 H 0.56013 0.28416 0.26252 0.0
H572 H 0.61864 0.28058 0.41367 0.0
H573 H 0.64112 0.32369 0.42967 0.0
C574 C 0.62686 0.3544 0.3683 0.0
C575 C 0.61726 0.36862 0.33296 0.0
C576 C 0.6139 0.32935 0.35643 0.0
C577 C 0.59442 0.35712 0.28439 0.0
C578 C 0.58142 0.33219 0.27238 0.0
C579 C 0.57782 0.29281 0.29851 0.0
C580 C 0.58753 0.2788 0.336 0.0
C581 C 0.59091 0.31802 0.30851 0.0
C582 C 0.61056 0.29057 0.38279 0.0
C583 C 0.62354 0.31541 0.39263 0.0
H584 H 0.72884 0.25476 0.32456 0.0
H585 H 0.71559 0.31015 0.43901 0.0
H586 H 0.75843 0.3388 0.43522 0.0
H587 H 0.8002 0.34836 0.40259 0.0
H588 H 0.81332 0.29284 0.28861 0.0
H589 H 0.77045 0.26437 0.29035 0.0
C590 C 0.73524 0.27305 0.34939 0.0
C591 C 0.71858 0.28003 0.38194 0.0
C592 C 0.76015 0.2896 0.34749 0.0
C593 C 0.7276 0.30407 0.41201 0.0
C594 C 0.75227 0.32054 0.41063 0.0
C595 C 0.79375 0.33005 0.37803 0.0
C596 C 0.81035 0.32297 0.34575 0.0
C597 C 0.76879 0.31356 0.37881 0.0
C598 C 0.8013 0.29904 0.31401 0.0
C599 C 0.77663 0.28262 0.31498 0.0
H600 H 0.49912 0.82779 0.66742 0.0
H601 H 0.43973 0.75766 0.73405 0.0
H602 H 0.41242 0.77352 0.73155 0.0
H603 H 0.40504 0.80729 0.71093 0.0
H604 H 0.4642 0.87719 0.63914 0.0
H605 H 0.49157 0.86134 0.64171 0.0
C606 C 0.48018 0.81583 0.68013 0.0
C607 C 0.47176 0.79144 0.70155 0.0
C608 C 0.46435 0.82506 0.67763 0.0
C609 C 0.44705 0.77653 0.71931 0.0
C610 C 0.43128 0.78558 0.71721 0.0
C611 C 0.42391 0.81912 0.69575 0.0
C612 C 0.43238 0.84352 0.67497 0.0
C613 C 0.4397 0.80984 0.69691 0.0
C614 C 0.45699 0.85838 0.65524 0.0
C615 C 0.47274 0.84931 0.65678 0.0
H616 H 0.23029 0.61689 0.5627 0.0
H617 H 0.27124 0.61207 0.82584 0.0
H618 H 0.29287 0.65519 0.84526 0.0
H619 H 0.30063 0.69463 0.78952 0.0
H620 H 0.26158 0.70074 0.52192 0.0
H621 H 0.23897 0.65732 0.50346 0.0
C622 C 0.24385 0.62531 0.62447 0.0
C623 C 0.24904 0.61102 0.69234 0.0
C624 C 0.25676 0.65057 0.63475 0.0
C625 C 0.26688 0.62241 0.77153 0.0
C626 C 0.27934 0.64721 0.78308 0.0
C627 C 0.28744 0.6866 0.72602 0.0
C628 C 0.28299 0.70129 0.6576 0.0
C629 C 0.27459 0.66152 0.7149 0.0
C630 C 0.26533 0.69014 0.57725 0.0
C631 C 0.25238 0.66518 0.56614 0.0
H632 H 0.46872 0.68344 0.71621 0.0
H633 H 0.47897 0.62373 0.64511 0.0
H634 H 0.43588 0.59671 0.65146 0.0
H635 H 0.39501 0.58944 0.68156 0.0
H636 H 0.3844 0.64902 0.74944 0.0
H637 H 0.42751 0.67623 0.74124 0.0
C638 C 0.46159 0.66454 0.70159 0.0
C639 C 0.47744 0.65585 0.68011 0.0
C640 C 0.4365 0.64885 0.70556 0.0
C641 C 0.46753 0.63117 0.66175 0.0
C642 C 0.44273 0.61558 0.66549 0.0
C643 C 0.40198 0.60839 0.69329 0.0
C644 C 0.38606 0.61689 0.71664 0.0
C645 C 0.427 0.62415 0.68773 0.0
C646 C 0.3959 0.64164 0.73319 0.0
C647 C 0.4207 0.65735 0.72779 0.0
H648 H 1.01123 0.18046 0.65546 0.0
H649 H 0.08496 0.22028 0.75802 0.0
H650 H 0.09783 0.22973 0.57205 0.0
H651 H 0.08803 0.22664 0.37974 0.0
H652 H 1.01429 0.18581 0.27788 0.0
H653 H 1.00153 0.17646 0.46369 0.0
C654 C 1.0301 0.19125 0.63695 0.0
C655 C 0.0471 0.19993 0.72008 0.0
C656 C 1.03737 0.19625 0.5299 0.0
C657 C 0.07151 0.21371 0.69527 0.0
C658 C 0.07889 0.21899 0.58897 0.0
C659 C 0.0692 0.21562 0.39846 0.0
C660 C 0.05212 0.20699 0.31557 0.0
C661 C 0.06198 0.21035 0.5056 0.0
C662 C 1.02777 0.19268 0.34049 0.0
C663 C 1.02045 0.18738 0.4467 0.0
H664 H 0.86277 0.84302 0.71527 0.0
H665 H 0.92816 0.91081 0.70412 0.0
H666 H 0.92531 0.91135 0.5095 0.0
H667 H 0.9043 0.89257 0.33941 0.0
H668 H 0.83872 0.82497 0.35058 0.0
H669 H 0.84166 0.82433 0.54521 0.0
C670 C 0.8763 0.85795 0.67025 0.0
C671 C 0.89565 0.87684 0.72504 0.0
C672 C 0.87462 0.85815 0.55705 0.0
C673 C 0.91306 0.89598 0.66467 0.0
C674 C 0.91149 0.89631 0.55284 0.0
C675 C 0.89075 0.87767 0.38448 0.0
C676 C 0.87132 0.85886 0.32976 0.0
C677 C 0.89241 0.87747 0.49767 0.0
C678 C 0.85387 0.83975 0.39008 0.0
C679 C 0.8555 0.83935 0.50188 0.0
H680 H 0.23694 0.07575 0.65669 0.0
H681 H 0.19827 1.00206 0.75386 0.0
H682 H 0.19479 0.9892 0.56724 0.0
H683 H 0.20278 0.99899 0.37577 0.0
H684 H 0.24042 0.07277 0.27908 0.0
H685 H 0.24398 0.08552 0.46558 0.0
C686 C 0.22779 0.05689 0.63687 0.0
C687 C 0.21816 0.03988 0.7188 0.0
C688 C 0.22552 0.04965 0.52934 0.0
C689 C 0.20617 1.01549 0.69218 0.0
C690 C 0.20404 1.00813 0.58546 0.0
C691 C 0.21168 1.01784 0.39576 0.0
C692 C 0.22139 0.03491 0.31405 0.0
C693 C 0.21366 1.02505 0.50333 0.0
C694 C 0.23282 0.05928 0.34069 0.0
C695 C 0.23491 0.0666 0.44732 0.0
H696 H 0.75779 0.55789 0.7076 0.0
H697 H 0.6838 0.52122 0.60692 0.0
H698 H 0.67097 0.51282 0.79293 0.0
H699 H 0.68073 0.51667 0.98428 0.0
H700 H 0.7546 0.55198 0.08596 0.0
H701 H 0.76758 0.56046 0.8997 0.0
C702 C 0.73888 0.54796 0.72664 0.0
C703 C 0.72175 0.54031 0.64414 0.0
C704 C 0.73163 0.54321 0.83382 0.0
C705 C 0.69731 0.52737 0.66933 0.0
C706 C 0.68995 0.52261 0.77561 0.0
C707 C 0.69966 0.52627 0.96552 0.0
C708 C 0.71669 0.53404 0.04836 0.0
C709 C 0.70695 0.53062 0.85847 0.0
C710 C 0.74117 0.54622 0.02333 0.0
C711 C 0.74859 0.55091 0.91692 0.0
H712 H 0.55377 0.18152 0.65296 0.0
H713 H 0.53799 0.2389 0.66833 0.0
H714 H 0.54112 0.23971 0.8634 0.0
H715 H 0.54819 0.22398 0.03238 0.0
H716 H 0.56376 0.16645 0.01619 0.0
H717 H 0.56068 0.16574 0.82141 0.0
C718 C 0.55115 0.19427 0.69902 0.0
C719 C 0.54568 0.21014 0.64546 0.0
C720 C 0.55277 0.19453 0.81218 0.0
C721 C 0.54221 0.22645 0.70699 0.0
C722 C 0.54395 0.22691 0.81897 0.0
C723 C 0.5508 0.21124 0.98616 0.0
C724 C 0.55623 0.19531 0.03953 0.0
C725 C 0.54912 0.21098 0.8729 0.0
C726 C 0.5596 0.17897 0.97779 0.0
C727 C 0.55789 0.17855 0.86592 0.0
H728 H 0.86271 0.36816 0.65236 0.0
H729 H 0.92865 0.3664 0.6677 0.0
H730 H 0.92922 0.36977 0.86255 0.0
H731 H 0.91091 0.3731 0.03143 0.0
H732 H 0.84484 0.37461 0.0157 0.0
H733 H 0.84437 0.37135 0.82101 0.0
C734 C 0.87725 0.36863 0.69838 0.0
C735 C 0.8956 0.36701 0.64482 0.0
C736 C 0.8774 0.3704 0.81153 0.0
C737 C 0.91423 0.36756 0.70631 0.0
C738 C 0.91458 0.36946 0.8182 0.0
C739 C 0.89637 0.37259 0.98537 0.0
C740 C 0.87794 0.3741 0.03886 0.0
C741 C 0.89622 0.37079 0.87216 0.0
C742 C 0.8593 0.37351 0.97724 0.0
C743 C 0.85901 0.37168 0.8654 0.0
H744 H 0.34689 0.84771 0.31137 0.0
H745 H 0.42024 0.89005 0.4164 0.0
H746 H 0.43342 0.89897 0.23062 0.0
H747 H 0.42395 0.8947 0.03792 0.0
H748 H 0.35065 0.85121 0.93384 0.0
H749 H 0.3376 0.84238 0.11944 0.0
C750 C 0.36574 0.85895 0.29342 0.0
C751 C 0.38255 0.86849 0.37702 0.0
C752 C 0.3732 0.86358 0.18664 0.0
C753 C 0.40694 0.88282 0.3531 0.0
C754 C 0.4145 0.88779 0.24698 0.0
C755 C 0.40517 0.88318 0.05614 0.0
C756 C 0.38826 0.87371 0.9728 0.0
C757 C 0.39778 0.87823 0.16308 0.0
C758 C 0.36397 0.85877 -0.00305 0.0
C759 C 0.35649 0.85376 0.10297 0.0
H760 H 0.22128 0.51554 0.00152 0.0
H761 H 0.20069 0.56952 0.01671 0.0
H762 H 0.20374 0.57043 0.21188 0.0
H763 H 0.21207 0.5557 0.38091 0.0
H764 H 0.23239 0.5015 0.36457 0.0
H765 H 0.22945 0.50076 0.16979 0.0
C766 C 0.2176 0.52758 0.04756 0.0
C767 C 0.21079 0.54245 -0.00599 0.0
C768 C 0.21917 0.52788 0.16067 0.0
C769 C 0.20596 0.55785 0.05545 0.0
C770 C 0.20765 0.55836 0.16745 0.0
C771 C 0.21574 0.54367 0.33464 0.0
C772 C 0.22247 0.52869 0.38793 0.0
C773 C 0.21413 0.54338 0.22139 0.0
C774 C 0.22721 0.51327 0.32619 0.0
C775 C 0.22558 0.51284 0.21434 0.0
H776 H 0.54178 0.72683 0.33829 0.0
H777 H 0.57669 0.68687 0.41736 0.0
H778 H 0.57537 0.67544 0.22931 0.0
H779 H 0.56461 0.67749 0.04113 0.0
H780 H 0.52932 0.71721 0.96408 0.0
H781 H 0.53065 0.72848 0.15136 0.0
C782 C 0.54905 0.71561 0.31384 0.0
C783 C 0.55883 0.70714 0.39089 0.0
C784 C 0.54836 0.70937 0.20577 0.0
C785 C 0.56832 0.69275 0.35934 0.0
C786 C 0.56781 0.68651 0.25181 0.0
C787 C 0.55723 0.6886 0.0659 0.0
C788 C 0.54751 0.69718 -0.01108 0.0
C789 C 0.55781 0.69468 0.1743 0.0
C790 C 0.53782 0.71135 0.02118 0.0
C791 C 0.53828 0.71749 0.12863 0.0
loop_
_geom_bond_atom_site_label_1
_geom_bond_atom_site_label_2
_geom_bond_distance
_geom_bond_site_symmetry_2
_ccdc_geom_bond_type
La0 C2 2.928 1_554 S
La0 O20 2.521 . S
La0 O21 2.628 1_554 S
La0 O22 2.554 . S
La0 O23 2.757 . S
La0 O24 2.470 . S
La0 O29 2.482 1_554 S
La0 O31 2.503 1_554 S
La1 C11 2.927 1_556 S
La1 O23 2.475 1_656 S
La1 O25 2.502 1_556 S
La1 O26 2.524 . S
La1 O27 2.623 1_556 S
La1 O28 2.564 . S
La1 O29 2.762 1_655 S
La1 O30 2.472 1_655 S
C2 La0 2.928 1_556 S
C2 C3 1.503 . S
C2 O20 1.261 1_556 S
C2 O21 1.243 . S
C3 C2 1.503 . S
C3 C4 1.394 1_556 S
C3 C8 1.373 . S
C4 C3 1.394 1_554 S
C4 C5 1.380 . S
C4 H32 0.930 . S
C5 C4 1.380 . S
C5 C6 1.376 1_554 S
C5 H33 0.930 . S
C6 C5 1.376 1_556 S
C6 C7 1.370 . S
C7 C6 1.370 . S
C7 C8 1.396 . S
C7 H34 0.929 . S
C8 C3 1.373 . S
C8 C7 1.396 . S
C8 H35 0.929 . S
C9 O22 1.240 . S
C9 O23 1.289 . S
C10 O24 1.258 1_655 S
C10 O25 1.256 . S
C11 La1 2.927 1_554 S
C11 C12 1.503 . S
C11 O26 1.261 1_554 S
C11 O27 1.243 . S
C12 C11 1.503 . S
C12 C13 1.394 1_554 S
C12 C17 1.373 . S
C13 C12 1.394 1_556 S
C13 C14 1.380 . S
C13 H36 0.930 . S
C14 C13 1.380 . S
C14 C15 1.376 1_556 S
C14 H37 0.930 . S
C15 C14 1.376 1_554 S
C15 C16 1.370 . S
C16 C15 1.370 . S
C16 C17 1.396 . S
C16 H38 0.929 . S
C17 C12 1.373 . S
C17 C16 1.396 . S
C17 H39 0.929 . S
C18 O28 1.251 . S
C18 O29 1.285 1_655 S
C19 O30 1.258 . S
C19 O31 1.256 . S
O20 La0 2.521 . S
O20 C2 1.261 1_554 S
O21 La0 2.628 1_556 S
O21 C2 1.243 . S
O22 La0 2.554 . S
O22 C9 1.240 . S
O23 La0 2.757 . S
O23 La1 2.475 1_454 S
O23 C9 1.289 . S
O24 La0 2.470 . S
O24 C10 1.258 1_455 S
O25 La1 2.502 1_554 S
O25 C10 1.256 . S
O26 La1 2.524 . S
O26 C11 1.261 1_556 S
O27 La1 2.623 1_554 S
O27 C11 1.243 . S
O28 La1 2.564 . S
O28 C18 1.251 . S
O29 La0 2.482 1_556 S
O29 La1 2.762 1_455 S
O29 C18 1.285 1_455 S
O30 La1 2.472 1_455 S
O30 C19 1.258 . S
O31 La0 2.503 1_556 S
O31 C19 1.256 . S
H32 C4 0.930 . S
H33 C5 0.930 . S
H34 C7 0.929 . S
H35 C8 0.929 . S
H36 C13 0.930 . S
H37 C14 0.930 . S
H38 C16 0.929 . S
H39 C17 0.929 . S
La40 C42 2.928 1_554 S
La40 O60 2.521 . S
La40 O61 2.628 1_554 S
La40 O62 2.554 . S
La40 O63 2.757 . S
La40 O64 2.470 . S
La40 O69 2.482 1_554 S
La40 O71 2.503 1_554 S
La41 C51 2.928 1_556 S
La41 O63 2.482 1_556 S
La41 O65 2.503 1_556 S
La41 O66 2.521 . S
La41 O67 2.628 1_556 S
La41 O68 2.554 . S
La41 O69 2.757 . S
La41 O70 2.470 . S
C42 La40 2.928 1_556 S
C42 C43 1.503 . S
C42 O60 1.261 1_556 S
C42 O61 1.243 . S
C43 C42 1.503 . S
C43 C44 1.394 1_556 S
C43 C48 1.373 . S
C44 C43 1.394 1_554 S
C44 C45 1.380 . S
C44 H72 0.930 . S
C45 C44 1.380 . S
C45 C46 1.376 1_554 S
C45 H73 0.930 . S
C46 C45 1.376 1_556 S
C46 C47 1.370 . S
C47 C46 1.370 . S
C47 C48 1.396 . S
C47 H74 0.929 . S
C48 C43 1.373 . S
C48 C47 1.396 . S
C48 H75 0.929 . S
C49 O62 1.240 . S
C49 O63 1.289 . S
C50 O64 1.258 . S
C50 O65 1.256 . S
C51 La41 2.928 1_554 S
C51 C52 1.503 . S
C51 O66 1.261 1_554 S
C51 O67 1.243 . S
C52 C51 1.503 . S
C52 C53 1.394 1_554 S
C52 C57 1.373 . S
C53 C52 1.394 1_556 S
C53 C54 1.380 . S
C53 H76 0.930 . S
C54 C53 1.380 . S
C54 C55 1.376 1_556 S
C54 H77 0.930 . S
C55 C54 1.376 1_554 S
C55 C56 1.370 . S
C56 C55 1.370 . S
C56 C57 1.396 . S
C56 H78 0.929 . S
C57 C52 1.373 . S
C57 C56 1.396 . S
C57 H79 0.929 . S
C58 O68 1.240 . S
C58 O69 1.289 . S
C59 O70 1.258 . S
C59 O71 1.256 . S
O60 La40 2.521 . S
O60 C42 1.261 1_554 S
O61 La40 2.628 1_556 S
O61 C42 1.243 . S
O62 La40 2.554 . S
O62 C49 1.240 . S
O63 La40 2.757 . S
O63 La41 2.482 1_554 S
O63 C49 1.289 . S
O64 La40 2.470 . S
O64 C50 1.258 . S
O65 La41 2.503 1_554 S
O65 C50 1.256 . S
O66 La41 2.521 . S
O66 C51 1.261 1_556 S
O67 La41 2.628 1_554 S
O67 C51 1.243 . S
O68 La41 2.554 . S
O68 C58 1.240 . S
O69 La40 2.482 1_556 S
O69 La41 2.757 . S
O69 C58 1.289 . S
O70 La41 2.470 . S
O70 C59 1.258 . S
O71 La40 2.503 1_556 S
O71 C59 1.256 . S
H72 C44 0.930 . S
H73 C45 0.930 . S
H74 C47 0.929 . S
H75 C48 0.929 . S
H76 C53 0.930 . S
H77 C54 0.930 . S
H78 C56 0.929 . S
H79 C57 0.929 . S
La80 C82 2.928 1_554 S
La80 O100 2.521 . S
La80 O101 2.628 1_554 S
La80 O102 2.554 . S
La80 O103 2.757 1_565 S
La80 O104 2.470 1_565 S
La80 O109 2.482 1_564 S
La80 O111 2.503 1_554 S
La81 C91 2.928 1_556 S
La81 O103 2.482 1_556 S
La81 O105 2.503 1_556 S
La81 O106 2.521 . S
La81 O107 2.628 1_556 S
La81 O108 2.554 . S
La81 O109 2.757 . S
La81 O110 2.470 . S
C82 La80 2.928 1_556 S
C82 C83 1.503 . S
C82 O100 1.261 1_556 S
C82 O101 1.243 . S
C83 C82 1.503 . S
C83 C84 1.394 1_556 S
C83 C88 1.373 . S
C84 C83 1.394 1_554 S
C84 C85 1.380 . S
C84 H112 0.930 . S
C85 C84 1.380 . S
C85 C86 1.376 1_554 S
C85 H113 0.930 . S
C86 C85 1.376 1_556 S
C86 C87 1.370 . S
C87 C86 1.370 . S
C87 C88 1.396 . S
C87 H114 0.929 . S
C88 C83 1.373 . S
C88 C87 1.396 . S
C88 H115 0.929 . S
C89 O102 1.240 1_545 S
C89 O103 1.289 . S
C90 O104 1.258 . S
C90 O105 1.256 . S
C91 La81 2.928 1_554 S
C91 C92 1.503 . S
C91 O106 1.261 1_554 S
C91 O107 1.243 . S
C92 C91 1.503 . S
C92 C93 1.394 1_554 S
C92 C97 1.373 . S
C93 C92 1.394 1_556 S
C93 C94 1.380 . S
C93 H116 0.930 . S
C94 C93 1.380 . S
C94 C95 1.376 1_556 S
C94 H117 0.930 . S
C95 C94 1.376 1_554 S
C95 C96 1.370 . S
C96 C95 1.370 . S
C96 C97 1.396 . S
C96 H118 0.929 . S
C97 C92 1.373 . S
C97 C96 1.396 . S
C97 H119 0.929 . S
C98 O108 1.240 . S
C98 O109 1.289 . S
C99 O110 1.258 1_565 S
C99 O111 1.256 . S
O100 La80 2.521 . S
O100 C82 1.261 1_554 S
O101 La80 2.628 1_556 S
O101 C82 1.243 . S
O102 La80 2.554 . S
O102 C89 1.240 1_565 S
O103 La80 2.757 1_545 S
O103 La81 2.482 1_554 S
O103 C89 1.289 . S
O104 La80 2.470 1_545 S
O104 C90 1.258 . S
O105 La81 2.503 1_554 S
O105 C90 1.256 . S
O106 La81 2.521 . S
O106 C91 1.261 1_556 S
O107 La81 2.628 1_554 S
O107 C91 1.243 . S
O108 La81 2.554 . S
O108 C98 1.240 . S
O109 La80 2.482 1_546 S
O109 La81 2.757 . S
O109 C98 1.289 . S
O110 La81 2.470 . S
O110 C99 1.258 1_545 S
O111 La80 2.503 1_556 S
O111 C99 1.256 . S
H112 C84 0.930 . S
H113 C85 0.930 . S
H114 C87 0.929 . S
H115 C88 0.929 . S
H116 C93 0.930 . S
H117 C94 0.930 . S
H118 C96 0.929 . S
H119 C97 0.929 . S
La120 C122 2.928 . S
La120 O140 2.521 . S
La120 O141 2.628 . S
La120 O142 2.554 . S
La120 O143 2.757 . S
La120 O144 2.470 . S
La120 O149 2.482 . S
La120 O151 2.503 . S
La121 C131 2.928 . S
La121 O143 2.482 . S
La121 O145 2.503 . S
La121 O146 2.521 . S
La121 O147 2.628 . S
La121 O148 2.554 . S
La121 O149 2.757 . S
La121 O150 2.470 . S
C122 La120 2.928 . S
C122 C123 1.503 . S
C122 O140 1.261 . S
C122 O141 1.243 . S
C123 C122 1.503 . S
C123 C124 1.394 . S
C123 C128 1.373 . S
C124 C123 1.394 . S
C124 C125 1.380 . S
C124 H152 0.930 . S
C125 C124 1.380 . S
C125 C126 1.376 . S
C125 H153 0.930 . S
C126 C125 1.376 . S
C126 C127 1.370 . S
C127 C126 1.370 . S
C127 C128 1.396 . S
C127 H154 0.929 . S
C128 C123 1.373 . S
C128 C127 1.396 . S
C128 H155 0.929 . S
C129 O142 1.240 . S
C129 O143 1.289 . S
C130 O144 1.258 . S
C130 O145 1.256 . S
C131 La121 2.928 . S
C131 C132 1.503 . S
C131 O146 1.261 . S
C131 O147 1.243 . S
C132 C131 1.503 . S
C132 C133 1.394 . S
C132 C137 1.373 . S
C133 C132 1.394 . S
C133 C134 1.380 . S
C133 H156 0.930 . S
C134 C133 1.380 . S
C134 C135 1.376 . S
C134 H157 0.930 . S
C135 C134 1.376 . S
C135 C136 1.370 . S
C136 C135 1.370 . S
C136 C137 1.396 . S
C136 H158 0.929 . S
C137 C132 1.373 . S
C137 C136 1.396 . S
C137 H159 0.929 . S
C138 O148 1.240 . S
C138 O149 1.289 . S
C139 O150 1.258 . S
C139 O151 1.256 . S
O140 La120 2.521 . S
O140 C122 1.261 . S
O141 La120 2.628 . S
O141 C122 1.243 . S
O142 La120 2.554 . S
O142 C129 1.240 . S
O143 La120 2.757 . S
O143 La121 2.482 . S
O143 C129 1.289 . S
O144 La120 2.470 . S
O144 C130 1.258 . S
O145 La121 2.503 . S
O145 C130 1.256 . S
O146 La121 2.521 . S
O146 C131 1.261 . S
O147 La121 2.628 . S
O147 C131 1.243 . S
O148 La121 2.554 . S
O148 C138 1.240 . S
O149 La120 2.482 . S
O149 La121 2.757 . S
O149 C138 1.289 . S
O150 La121 2.470 . S
O150 C139 1.258 . S
O151 La120 2.503 . S
O151 C139 1.256 . S
H152 C124 0.930 . S
H153 C125 0.930 . S
H154 C127 0.929 . S
H155 C128 0.929 . S
H156 C133 0.930 . S
H157 C134 0.930 . S
H158 C136 0.929 . S
H159 C137 0.929 . S
La160 C162 2.928 . S
La160 O180 2.521 . S
La160 O181 2.628 . S
La160 O182 2.554 . S
La160 O183 2.757 . S
La160 O184 2.470 . S
La160 O189 2.482 . S
La160 O191 2.503 . S
La161 C171 2.928 . S
La161 O183 2.482 . S
La161 O185 2.503 . S
La161 O186 2.521 . S
La161 O187 2.628 . S
La161 O188 2.554 . S
La161 O189 2.757 . S
La161 O190 2.470 . S
C162 La160 2.928 . S
C162 C163 1.503 . S
C162 O180 1.261 . S
C162 O181 1.243 . S
C163 C162 1.503 . S
C163 C164 1.394 . S
C163 C168 1.373 . S
C164 C163 1.394 . S
C164 C165 1.380 . S
C164 H192 0.930 . S
C165 C164 1.380 . S
C165 C166 1.376 . S
C165 H193 0.930 . S
C166 C165 1.376 . S
C166 C167 1.370 . S
C167 C166 1.370 . S
C167 C168 1.396 . S
C167 H194 0.929 . S
C168 C163 1.373 . S
C168 C167 1.396 . S
C168 H195 0.929 . S
C169 O182 1.240 . S
C169 O183 1.289 . S
C170 O184 1.258 . S
C170 O185 1.256 . S
C171 La161 2.928 . S
C171 C172 1.503 . S
C171 O186 1.261 . S
C171 O187 1.243 . S
C172 C171 1.503 . S
C172 C173 1.394 . S
C172 C177 1.373 . S
C173 C172 1.394 . S
C173 C174 1.380 . S
C173 H196 0.930 . S
C174 C173 1.380 . S
C174 C175 1.376 . S
C174 H197 0.930 . S
C175 C174 1.376 . S
C175 C176 1.370 . S
C176 C175 1.370 . S
C176 C177 1.396 . S
C176 H198 0.929 . S
C177 C172 1.373 . S
C177 C176 1.396 . S
C177 H199 0.929 . S
C178 O188 1.240 . S
C178 O189 1.289 . S
C179 O190 1.258 . S
C179 O191 1.256 . S
O180 La160 2.521 . S
O180 C162 1.261 . S
O181 La160 2.628 . S
O181 C162 1.243 . S
O182 La160 2.554 . S
O182 C169 1.240 . S
O183 La160 2.757 . S
O183 La161 2.482 . S
O183 C169 1.289 . S
O184 La160 2.470 . S
O184 C170 1.258 . S
O185 La161 2.503 . S
O185 C170 1.256 . S
O186 La161 2.521 . S
O186 C171 1.261 . S
O187 La161 2.628 . S
O187 C171 1.243 . S
O188 La161 2.554 . S
O188 C178 1.240 . S
O189 La160 2.482 . S
O189 La161 2.757 . S
O189 C178 1.289 . S
O190 La161 2.470 . S
O190 C179 1.258 . S
O191 La160 2.503 . S
O191 C179 1.256 . S
H192 C164 0.930 . S
H193 C165 0.930 . S
H194 C167 0.929 . S
H195 C168 0.929 . S
H196 C173 0.930 . S
H197 C174 0.930 . S
H198 C176 0.929 . S
H199 C177 0.929 . S
La200 C202 2.928 . S
La200 O220 2.521 . S
La200 O221 2.628 . S
La200 O222 2.554 . S
La200 O223 2.757 . S
La200 O224 2.470 . S
La200 O229 2.482 . S
La200 O231 2.503 . S
La201 C211 2.928 . S
La201 O223 2.482 . S
La201 O225 2.503 . S
La201 O226 2.521 . S
La201 O227 2.628 . S
La201 O228 2.554 . S
La201 O229 2.757 . S
La201 O230 2.470 . S
C202 La200 2.928 . S
C202 C203 1.503 . S
C202 O220 1.261 . S
C202 O221 1.243 . S
C203 C202 1.503 . S
C203 C204 1.394 . S
C203 C208 1.373 . S
C204 C203 1.394 . S
C204 C205 1.380 . S
C204 H232 0.930 . S
C205 C204 1.380 . S
C205 C206 1.376 . S
C205 H233 0.930 . S
C206 C205 1.376 . S
C206 C207 1.370 . S
C207 C206 1.370 . S
C207 C208 1.396 . S
C207 H234 0.929 . S
C208 C203 1.373 . S
C208 C207 1.396 . S
C208 H235 0.929 . S
C209 O222 1.240 . S
C209 O223 1.289 . S
C210 O224 1.258 . S
C210 O225 1.256 . S
C211 La201 2.928 . S
C211 C212 1.503 . S
C211 O226 1.261 . S
C211 O227 1.243 . S
C212 C211 1.503 . S
C212 C213 1.394 . S
C212 C217 1.373 . S
C213 C212 1.394 . S
C213 C214 1.380 . S
C213 H236 0.930 . S
C214 C213 1.380 . S
C214 C215 1.376 . S
C214 H237 0.930 . S
C215 C214 1.376 . S
C215 C216 1.370 . S
C216 C215 1.370 . S
C216 C217 1.396 . S
C216 H238 0.929 . S
C217 C212 1.373 . S
C217 C216 1.396 . S
C217 H239 0.929 . S
C218 O228 1.240 . S
C218 O229 1.289 . S
C219 O230 1.258 . S
C219 O231 1.256 . S
O220 La200 2.521 . S
O220 C202 1.261 . S
O221 La200 2.628 . S
O221 C202 1.243 . S
O222 La200 2.554 . S
O222 C209 1.240 . S
O223 La200 2.757 . S
O223 La201 2.482 . S
O223 C209 1.289 . S
O224 La200 2.470 . S
O224 C210 1.258 . S
O225 La201 2.503 . S
O225 C210 1.256 . S
O226 La201 2.521 . S
O226 C211 1.261 . S
O227 La201 2.628 . S
O227 C211 1.243 . S
O228 La201 2.554 . S
O228 C218 1.240 . S
O229 La200 2.482 . S
O229 La201 2.757 . S
O229 C218 1.289 . S
O230 La201 2.470 . S
O230 C219 1.258 . S
O231 La200 2.503 . S
O231 C219 1.256 . S
H232 C204 0.930 . S
H233 C205 0.930 . S
H234 C207 0.929 . S
H235 C208 0.929 . S
H236 C213 0.930 . S
H237 C214 0.930 . S
H238 C216 0.929 . S
H239 C217 0.929 . S
La240 C242 2.928 . S
La240 O260 2.521 . S
La240 O261 2.628 . S
La240 O262 2.554 . S
La240 O263 2.757 . S
La240 O264 2.470 . S
La240 O269 2.482 . S
La240 O271 2.503 . S
La241 C251 2.928 . S
La241 O263 2.482 . S
La241 O265 2.503 . S
La241 O266 2.521 . S
La241 O267 2.628 . S
La241 O268 2.554 . S
La241 O269 2.757 . S
La241 O270 2.470 . S
C242 La240 2.928 . S
C242 C243 1.503 . S
C242 O260 1.261 . S
C242 O261 1.243 . S
C243 C242 1.503 . S
C243 C244 1.394 . S
C243 C248 1.373 . S
C244 C243 1.394 . S
C244 C245 1.380 . S
C244 H272 0.930 . S
C245 C244 1.380 . S
C245 C246 1.376 . S
C245 H273 0.930 . S
C246 C245 1.376 . S
C246 C247 1.370 . S
C247 C246 1.370 . S
C247 C248 1.396 . S
C247 H274 0.929 . S
C248 C243 1.373 . S
C248 C247 1.396 . S
C248 H275 0.929 . S
C249 O262 1.240 . S
C249 O263 1.289 . S
C250 O264 1.258 . S
C250 O265 1.256 . S
C251 La241 2.928 . S
C251 C252 1.503 . S
C251 O266 1.261 . S
C251 O267 1.243 . S
C252 C251 1.503 . S
C252 C253 1.394 . S
C252 C257 1.373 . S
C253 C252 1.394 . S
C253 C254 1.380 . S
C253 H276 0.930 . S
C254 C253 1.380 . S
C254 C255 1.376 . S
C254 H277 0.930 . S
C255 C254 1.376 . S
C255 C256 1.370 . S
C256 C255 1.370 . S
C256 C257 1.396 . S
C256 H278 0.929 . S
C257 C252 1.373 . S
C257 C256 1.396 . S
C257 H279 0.929 . S
C258 O268 1.240 . S
C258 O269 1.289 . S
C259 O270 1.258 . S
C259 O271 1.256 . S
O260 La240 2.521 . S
O260 C242 1.261 . S
O261 La240 2.628 . S
O261 C242 1.243 . S
O262 La240 2.554 . S
O262 C249 1.240 . S
O263 La240 2.757 . S
O263 La241 2.482 . S
O263 C249 1.289 . S
O264 La240 2.470 . S
O264 C250 1.258 . S
O265 La241 2.503 . S
O265 C250 1.256 . S
O266 La241 2.521 . S
O266 C251 1.261 . S
O267 La241 2.628 . S
O267 C251 1.243 . S
O268 La241 2.554 . S
O268 C258 1.240 . S
O269 La240 2.482 . S
O269 La241 2.757 . S
O269 C258 1.289 . S
O270 La241 2.470 . S
O270 C259 1.258 . S
O271 La240 2.503 . S
O271 C259 1.256 . S
H272 C244 0.930 . S
H273 C245 0.930 . S
H274 C247 0.929 . S
H275 C248 0.929 . S
H276 C253 0.930 . S
H277 C254 0.930 . S
H278 C256 0.929 . S
H279 C257 0.929 . S
La280 C282 2.928 . S
La280 O300 2.521 . S
La280 O301 2.628 . S
La280 O302 2.554 . S
La280 O303 2.757 . S
La280 O304 2.470 . S
La280 O309 2.482 . S
La280 O311 2.503 . S
La281 C291 2.928 . S
La281 O303 2.482 . S
La281 O305 2.503 . S
La281 O306 2.521 . S
La281 O307 2.628 . S
La281 O308 2.554 . S
La281 O309 2.757 . S
La281 O310 2.470 . S
C282 La280 2.928 . S
C282 C283 1.503 . S
C282 O300 1.261 . S
C282 O301 1.243 . S
C283 C282 1.503 . S
C283 C284 1.394 . S
C283 C288 1.373 . S
C284 C283 1.394 . S
C284 C285 1.380 . S
C284 H312 0.930 . S
C285 C284 1.380 . S
C285 C286 1.376 . S
C285 H313 0.930 . S
C286 C285 1.376 . S
C286 C287 1.370 . S
C287 C286 1.370 . S
C287 C288 1.396 . S
C287 H314 0.929 . S
C288 C283 1.373 . S
C288 C287 1.396 . S
C288 H315 0.929 . S
C289 O302 1.240 . S
C289 O303 1.289 . S
C290 O304 1.258 . S
C290 O305 1.256 . S
C291 La281 2.928 . S
C291 C292 1.503 . S
C291 O306 1.261 . S
C291 O307 1.243 . S
C292 C291 1.503 . S
C292 C293 1.394 . S
C292 C297 1.373 . S
C293 C292 1.394 . S
C293 C294 1.380 . S
C293 H316 0.930 . S
C294 C293 1.380 . S
C294 C295 1.376 . S
C294 H317 0.930 . S
C295 C294 1.376 . S
C295 C296 1.370 . S
C296 C295 1.370 . S
C296 C297 1.396 . S
C296 H318 0.929 . S
C297 C292 1.373 . S
C297 C296 1.396 . S
C297 H319 0.929 . S
C298 O308 1.240 . S
C298 O309 1.289 . S
C299 O310 1.258 . S
C299 O311 1.256 . S
O300 La280 2.521 . S
O300 C282 1.261 . S
O301 La280 2.628 . S
O301 C282 1.243 . S
O302 La280 2.554 . S
O302 C289 1.240 . S
O303 La280 2.757 . S
O303 La281 2.482 . S
O303 C289 1.289 . S
O304 La280 2.470 . S
O304 C290 1.258 . S
O305 La281 2.503 . S
O305 C290 1.256 . S
O306 La281 2.521 . S
O306 C291 1.261 . S
O307 La281 2.628 . S
O307 C291 1.243 . S
O308 La281 2.554 . S
O308 C298 1.240 . S
O309 La280 2.482 . S
O309 La281 2.757 . S
O309 C298 1.289 . S
O310 La281 2.470 . S
O310 C299 1.258 . S
O311 La280 2.503 . S
O311 C299 1.256 . S
H312 C284 0.930 . S
H313 C285 0.930 . S
H314 C287 0.929 . S
H315 C288 0.929 . S
H316 C293 0.930 . S
H317 C294 0.930 . S
H318 C296 0.929 . S
H319 C297 0.929 . S
La320 C322 2.928 . S
La320 O340 2.521 . S
La320 O341 2.628 . S
La320 O342 2.554 . S
La320 O343 2.757 . S
La320 O344 2.470 . S
La320 O349 2.482 . S
La320 O351 2.503 . S
La321 C331 2.928 . S
La321 O343 2.482 . S
La321 O345 2.503 . S
La321 O346 2.521 . S
La321 O347 2.628 . S
La321 O348 2.554 . S
La321 O349 2.757 . S
La321 O350 2.470 . S
C322 La320 2.928 . S
C322 C323 1.503 . S
C322 O340 1.261 . S
C322 O341 1.243 . S
C323 C322 1.503 . S
C323 C324 1.394 . S
C323 C328 1.373 . S
C324 C323 1.394 . S
C324 C325 1.380 . S
C324 H352 0.930 . S
C325 C324 1.380 . S
C325 C326 1.376 . S
C325 H353 0.930 . S
C326 C325 1.376 . S
C326 C327 1.370 . S
C327 C326 1.370 . S
C327 C328 1.396 . S
C327 H354 0.929 . S
C328 C323 1.373 . S
C328 C327 1.396 . S
C328 H355 0.929 . S
C329 O342 1.240 . S
C329 O343 1.289 . S
C330 O344 1.258 . S
C330 O345 1.256 . S
C331 La321 2.928 . S
C331 C332 1.503 . S
C331 O346 1.261 . S
C331 O347 1.243 . S
C332 C331 1.503 . S
C332 C333 1.394 . S
C332 C337 1.373 . S
C333 C332 1.394 . S
C333 C334 1.380 . S
C333 H356 0.930 . S
C334 C333 1.380 . S
C334 C335 1.376 . S
C334 H357 0.930 . S
C335 C334 1.376 . S
C335 C336 1.370 . S
C336 C335 1.370 . S
C336 C337 1.396 . S
C336 H358 0.929 . S
C337 C332 1.373 . S
C337 C336 1.396 . S
C337 H359 0.929 . S
C338 O348 1.240 . S
C338 O349 1.289 . S
C339 O350 1.258 . S
C339 O351 1.256 . S
O340 La320 2.521 . S
O340 C322 1.261 . S
O341 La320 2.628 . S
O341 C322 1.243 . S
O342 La320 2.554 . S
O342 C329 1.240 . S
O343 La320 2.757 . S
O343 La321 2.482 . S
O343 C329 1.289 . S
O344 La320 2.470 . S
O344 C330 1.258 . S
O345 La321 2.503 . S
O345 C330 1.256 . S
O346 La321 2.521 . S
O346 C331 1.261 . S
O347 La321 2.628 . S
O347 C331 1.243 . S
O348 La321 2.554 . S
O348 C338 1.240 . S
O349 La320 2.482 . S
O349 La321 2.757 . S
O349 C338 1.289 . S
O350 La321 2.470 . S
O350 C339 1.258 . S
O351 La320 2.503 . S
O351 C339 1.256 . S
H352 C324 0.930 . S
H353 C325 0.930 . S
H354 C327 0.929 . S
H355 C328 0.929 . S
H356 C333 0.930 . S
H357 C334 0.930 . S
H358 C336 0.929 . S
H359 C337 0.929 . S
H360 C366 0.930 1_554 S
H361 C369 0.930 . S
H362 C370 0.930 . S
H363 C371 0.930 . S
H364 C374 0.930 . S
H365 C375 0.930 . S
C366 H360 0.930 1_556 S
C366 C367 1.355 . S
C366 C368 1.415 . S
C367 C366 1.355 . S
C367 C369 1.419 . S
C368 C366 1.415 . S
C368 C373 1.425 . S
C368 C375 1.409 . S
C369 H361 0.930 . S
C369 C367 1.419 . S
C369 C370 1.362 . S
C370 H362 0.930 . S
C370 C369 1.362 . S
C370 C373 1.409 . S
C371 H363 0.930 . S
C371 C372 1.355 . S
C371 C373 1.415 . S
C372 C371 1.355 . S
C372 C374 1.419 . S
C373 C368 1.425 . S
C373 C370 1.409 . S
C373 C371 1.415 . S
C374 H364 0.930 . S
C374 C372 1.419 . S
C374 C375 1.362 . S
C375 H365 0.930 . S
C375 C368 1.409 . S
C375 C374 1.362 . S
H376 C382 0.930 . S
H377 C385 0.930 . S
H378 C386 0.930 . S
H379 C387 0.930 . S
H380 C390 0.930 . S
H381 C391 0.930 . S
C382 H376 0.930 . S
C382 C383 1.355 . S
C382 C384 1.415 . S
C383 C382 1.355 . S
C383 C385 1.419 . S
C384 C382 1.415 . S
C384 C389 1.425 . S
C384 C391 1.409 . S
C385 H377 0.930 . S
C385 C383 1.419 . S
C385 C386 1.362 . S
C386 H378 0.930 . S
C386 C385 1.362 . S
C386 C389 1.409 . S
C387 H379 0.930 . S
C387 C388 1.355 . S
C387 C389 1.415 . S
C388 C387 1.355 . S
C388 C390 1.419 . S
C389 C384 1.425 . S
C389 C386 1.409 . S
C389 C387 1.415 . S
C390 H380 0.930 . S
C390 C388 1.419 . S
C390 C391 1.362 . S
C391 H381 0.930 . S
C391 C384 1.409 . S
C391 C390 1.362 . S
H392 C398 0.930 . S
H393 C401 0.930 1_554 S
H394 C402 0.930 1_554 S
H395 C403 0.930 . S
H396 C406 0.930 . S
H397 C407 0.930 . S
C398 H392 0.930 . S
C398 C399 1.355 . S
C398 C400 1.415 . S
C399 C398 1.355 . S
C399 C401 1.419 . S
C400 C398 1.415 . S
C400 C405 1.425 . S
C400 C407 1.409 . S
C401 H393 0.930 1_556 S
C401 C399 1.419 . S
C401 C402 1.362 . S
C402 H394 0.930 1_556 S
C402 C401 1.362 . S
C402 C405 1.409 . S
C403 H395 0.930 . S
C403 C404 1.355 . S
C403 C405 1.415 . S
C404 C403 1.355 . S
C404 C406 1.419 . S
C405 C400 1.425 . S
C405 C402 1.409 . S
C405 C403 1.415 . S
C406 H396 0.930 . S
C406 C404 1.419 . S
C406 C407 1.362 . S
C407 H397 0.930 . S
C407 C400 1.409 . S
C407 C406 1.362 . S
H408 C414 0.930 . S
H409 C417 0.930 . S
H410 C418 0.930 . S
H411 C419 0.930 . S
H412 C422 0.930 . S
H413 C423 0.930 . S
C414 H408 0.930 . S
C414 C415 1.355 . S
C414 C416 1.415 . S
C415 C414 1.355 . S
C415 C417 1.419 . S
C416 C414 1.415 . S
C416 C421 1.425 . S
C416 C423 1.409 . S
C417 H409 0.930 . S
C417 C415 1.419 . S
C417 C418 1.362 . S
C418 H410 0.930 . S
C418 C417 1.362 . S
C418 C421 1.409 . S
C419 H411 0.930 . S
C419 C420 1.355 . S
C419 C421 1.415 . S
C420 C419 1.355 . S
C420 C422 1.419 . S
C421 C416 1.425 . S
C421 C418 1.409 . S
C421 C419 1.415 . S
C422 H412 0.930 . S
C422 C420 1.419 . S
C422 C423 1.362 . S
C423 H413 0.930 . S
C423 C416 1.409 . S
C423 C422 1.362 . S
H424 C430 0.930 . S
H425 C433 0.930 . S
H426 C434 0.930 . S
H427 C435 0.930 1_556 S
H428 C438 0.930 . S
H429 C439 0.930 . S
C430 H424 0.930 . S
C430 C431 1.355 . S
C430 C432 1.415 . S
C431 C430 1.355 . S
C431 C433 1.419 . S
C432 C430 1.415 . S
C432 C437 1.425 . S
C432 C439 1.409 . S
C433 H425 0.930 . S
C433 C431 1.419 . S
C433 C434 1.362 . S
C434 H426 0.930 . S
C434 C433 1.362 . S
C434 C437 1.409 . S
C435 H427 0.930 1_554 S
C435 C436 1.355 . S
C435 C437 1.415 . S
C436 C435 1.355 . S
C436 C438 1.419 . S
C437 C432 1.425 . S
C437 C434 1.409 . S
C437 C435 1.415 . S
C438 H428 0.930 . S
C438 C436 1.419 . S
C438 C439 1.362 . S
C439 H429 0.930 . S
C439 C432 1.409 . S
C439 C438 1.362 . S
H440 C446 0.930 1_556 S
H441 C449 0.930 . S
H442 C450 0.930 . S
H443 C451 0.930 . S
H444 C454 0.930 . S
H445 C455 0.930 1_556 S
C446 H440 0.930 1_554 S
C446 C447 1.355 . S
C446 C448 1.415 . S
C447 C446 1.355 . S
C447 C449 1.419 . S
C448 C446 1.415 . S
C448 C453 1.425 . S
C448 C455 1.409 . S
C449 H441 0.930 . S
C449 C447 1.419 . S
C449 C450 1.362 . S
C450 H442 0.930 . S
C450 C449 1.362 . S
C450 C453 1.409 . S
C451 H443 0.930 . S
C451 C452 1.355 . S
C451 C453 1.415 . S
C452 C451 1.355 . S
C452 C454 1.419 . S
C453 C448 1.425 . S
C453 C450 1.409 . S
C453 C451 1.415 . S
C454 H444 0.930 . S
C454 C452 1.419 . S
C454 C455 1.362 . S
C455 H445 0.930 1_554 S
C455 C448 1.409 . S
C455 C454 1.362 . S
H456 C462 0.930 . S
H457 C465 0.930 . S
H458 C466 0.930 . S
H459 C467 0.930 . S
H460 C470 0.930 . S
H461 C471 0.930 . S
C462 H456 0.930 . S
C462 C463 1.355 . S
C462 C464 1.415 . S
C463 C462 1.355 . S
C463 C465 1.419 . S
C464 C462 1.415 . S
C464 C469 1.425 . S
C464 C471 1.409 . S
C465 H457 0.930 . S
C465 C463 1.419 . S
C465 C466 1.362 . S
C466 H458 0.930 . S
C466 C465 1.362 . S
C466 C469 1.409 . S
C467 H459 0.930 . S
C467 C468 1.355 . S
C467 C469 1.415 . S
C468 C467 1.355 . S
C468 C470 1.419 . S
C469 C464 1.425 . S
C469 C466 1.409 . S
C469 C467 1.415 . S
C470 H460 0.930 . S
C470 C468 1.419 . S
C470 C471 1.362 . S
C471 H461 0.930 . S
C471 C464 1.409 . S
C471 C470 1.362 . S
H472 C478 0.930 . S
H473 C481 0.930 . S
H474 C482 0.930 . S
H475 C483 0.930 . S
H476 C486 0.930 . S
H477 C487 0.930 . S
C478 H472 0.930 . S
C478 C479 1.355 . S
C478 C480 1.415 . S
C479 C478 1.355 . S
C479 C481 1.419 . S
C480 C478 1.415 . S
C480 C485 1.425 . S
C480 C487 1.409 . S
C481 H473 0.930 . S
C481 C479 1.419 . S
C481 C482 1.362 . S
C482 H474 0.930 . S
C482 C481 1.362 . S
C482 C485 1.409 . S
C483 H475 0.930 . S
C483 C484 1.355 . S
C483 C485 1.415 . S
C484 C483 1.355 . S
C484 C486 1.419 . S
C485 C480 1.425 . S
C485 C482 1.409 . S
C485 C483 1.415 . S
C486 H476 0.930 . S
C486 C484 1.419 . S
C486 C487 1.362 . S
C487 H477 0.930 . S
C487 C480 1.409 . S
C487 C486 1.362 . S
H488 C494 0.930 . S
H489 C497 0.930 . S
H490 C498 0.930 . S
H491 C499 0.930 . S
H492 C502 0.930 . S
H493 C503 0.930 . S
C494 H488 0.930 . S
C494 C495 1.355 . S
C494 C496 1.415 . S
C495 C494 1.355 . S
C495 C497 1.419 . S
C496 C494 1.415 . S
C496 C501 1.425 . S
C496 C503 1.409 . S
C497 H489 0.930 . S
C497 C495 1.419 . S
C497 C498 1.362 . S
C498 H490 0.930 . S
C498 C497 1.362 . S
C498 C501 1.409 . S
C499 H491 0.930 . S
C499 C500 1.355 . S
C499 C501 1.415 . S
C500 C499 1.355 . S
C500 C502 1.419 . S
C501 C496 1.425 . S
C501 C498 1.409 . S
C501 C499 1.415 . S
C502 H492 0.930 . S
C502 C500 1.419 . S
C502 C503 1.362 . S
C503 H493 0.930 . S
C503 C496 1.409 . S
C503 C502 1.362 . S
H504 C510 0.930 . S
H505 C513 0.930 . S
H506 C514 0.930 . S
H507 C515 0.930 1_556 S
H508 C518 0.930 . S
H509 C519 0.930 . S
C510 H504 0.930 . S
C510 C511 1.355 . S
C510 C512 1.415 . S
C511 C510 1.355 . S
C511 C513 1.419 . S
C512 C510 1.415 . S
C512 C517 1.425 . S
C512 C519 1.409 . S
C513 H505 0.930 . S
C513 C511 1.419 . S
C513 C514 1.362 . S
C514 H506 0.930 . S
C514 C513 1.362 . S
C514 C517 1.409 . S
C515 H507 0.930 1_554 S
C515 C516 1.355 . S
C515 C517 1.415 . S
C516 C515 1.355 . S
C516 C518 1.419 . S
C517 C512 1.425 . S
C517 C514 1.409 . S
C517 C515 1.415 . S
C518 H508 0.930 . S
C518 C516 1.419 . S
C518 C519 1.362 . S
C519 H509 0.930 . S
C519 C512 1.409 . S
C519 C518 1.362 . S
H520 C526 0.930 . S
H521 C529 0.930 . S
H522 C530 0.930 . S
H523 C531 0.930 . S
H524 C534 0.930 1_545 S
H525 C535 0.930 . S
C526 H520 0.930 . S
C526 C527 1.355 1_556 S
C526 C528 1.415 . S
C527 C526 1.355 1_554 S
C527 C529 1.419 . S
C528 C526 1.415 . S
C528 C533 1.425 1_556 S
C528 C535 1.409 . S
C529 H521 0.930 . S
C529 C527 1.419 . S
C529 C530 1.362 . S
C530 H522 0.930 . S
C530 C529 1.362 . S
C530 C533 1.409 . S
C531 H523 0.930 . S
C531 C532 1.355 1_565 S
C531 C533 1.415 . S
C532 C531 1.355 1_545 S
C532 C534 1.419 1_544 S
C533 C528 1.425 1_554 S
C533 C530 1.409 . S
C533 C531 1.415 . S
C534 H524 0.930 1_565 S
C534 C532 1.419 1_566 S
C534 C535 1.362 . S
C535 H525 0.930 . S
C535 C528 1.409 . S
C535 C534 1.362 . S
H536 C542 0.930 . S
H537 C545 0.930 . S
H538 C546 0.930 . S
H539 C547 0.930 . S
H540 C550 0.930 . S
H541 C551 0.930 1_556 S
C542 H536 0.930 . S
C542 C543 1.355 . S
C542 C544 1.415 . S
C543 C542 1.355 . S
C543 C545 1.419 . S
C544 C542 1.415 . S
C544 C549 1.425 . S
C544 C551 1.409 . S
C545 H537 0.930 . S
C545 C543 1.419 . S
C545 C546 1.362 . S
C546 H538 0.930 . S
C546 C545 1.362 . S
C546 C549 1.409 . S
C547 H539 0.930 . S
C547 C548 1.355 . S
C547 C549 1.415 . S
C548 C547 1.355 . S
C548 C550 1.419 1_554 S
C549 C544 1.425 . S
C549 C546 1.409 . S
C549 C547 1.415 . S
C550 H540 0.930 . S
C550 C548 1.419 1_556 S
C550 C551 1.362 1_556 S
C551 H541 0.930 1_554 S
C551 C544 1.409 . S
C551 C550 1.362 1_554 S
H552 C558 0.930 . S
H553 C561 0.930 . S
H554 C562 0.930 . S
H555 C563 0.930 . S
H556 C566 0.930 . S
H557 C567 0.930 . S
C558 H552 0.930 . S
C558 C559 1.355 . S
C558 C560 1.415 . S
C559 C558 1.355 . S
C559 C561 1.419 . S
C560 C558 1.415 . S
C560 C565 1.425 . S
C560 C567 1.409 . S
C561 H553 0.930 . S
C561 C559 1.419 . S
C561 C562 1.362 . S
C562 H554 0.930 . S
C562 C561 1.362 . S
C562 C565 1.409 . S
C563 H555 0.930 . S
C563 C564 1.355 . S
C563 C565 1.415 . S
C564 C563 1.355 . S
C564 C566 1.419 . S
C565 C560 1.425 . S
C565 C562 1.409 . S
C565 C563 1.415 . S
C566 H556 0.930 . S
C566 C564 1.419 . S
C566 C567 1.362 . S
C567 H557 0.930 . S
C567 C560 1.409 . S
C567 C566 1.362 . S
H568 C574 0.930 . S
H569 C577 0.930 . S
H570 C578 0.930 . S
H571 C579 0.930 . S
H572 C582 0.930 . S
H573 C583 0.930 . S
C574 H568 0.930 . S
C574 C575 1.355 . S
C574 C576 1.415 . S
C575 C574 1.355 . S
C575 C577 1.419 . S
C576 C574 1.415 . S
C576 C581 1.425 . S
C576 C583 1.409 . S
C577 H569 0.930 . S
C577 C575 1.419 . S
C577 C578 1.362 . S
C578 H570 0.930 . S
C578 C577 1.362 . S
C578 C581 1.409 . S
C579 H571 0.930 . S
C579 C580 1.355 . S
C579 C581 1.415 . S
C580 C579 1.355 . S
C580 C582 1.419 . S
C581 C576 1.425 . S
C581 C578 1.409 . S
C581 C579 1.415 . S
C582 H572 0.930 . S
C582 C580 1.419 . S
C582 C583 1.362 . S
C583 H573 0.930 . S
C583 C576 1.409 . S
C583 C582 1.362 . S
H584 C590 0.930 . S
H585 C593 0.930 . S
H586 C594 0.930 . S
H587 C595 0.930 . S
H588 C598 0.930 . S
H589 C599 0.930 . S
C590 H584 0.930 . S
C590 C591 1.355 . S
C590 C592 1.415 . S
C591 C590 1.355 . S
C591 C593 1.419 . S
C592 C590 1.415 . S
C592 C597 1.425 . S
C592 C599 1.409 . S
C593 H585 0.930 . S
C593 C591 1.419 . S
C593 C594 1.362 . S
C594 H586 0.930 . S
C594 C593 1.362 . S
C594 C597 1.409 . S
C595 H587 0.930 . S
C595 C596 1.355 . S
C595 C597 1.415 . S
C596 C595 1.355 . S
C596 C598 1.419 . S
C597 C592 1.425 . S
C597 C594 1.409 . S
C597 C595 1.415 . S
C598 H588 0.930 . S
C598 C596 1.419 . S
C598 C599 1.362 . S
C599 H589 0.930 . S
C599 C592 1.409 . S
C599 C598 1.362 . S
H600 C606 0.930 . S
H601 C609 0.930 . S
H602 C610 0.930 . S
H603 C611 0.930 . S
H604 C614 0.930 . S
H605 C615 0.930 . S
C606 H600 0.930 . S
C606 C607 1.355 . S
C606 C608 1.415 . S
C607 C606 1.355 . S
C607 C609 1.419 . S
C608 C606 1.415 . S
C608 C613 1.425 . S
C608 C615 1.409 . S
C609 H601 0.930 . S
C609 C607 1.419 . S
C609 C610 1.362 . S
C610 H602 0.930 . S
C610 C609 1.362 . S
C610 C613 1.409 . S
C611 H603 0.930 . S
C611 C612 1.355 . S
C611 C613 1.415 . S
C612 C611 1.355 . S
C612 C614 1.419 . S
C613 C608 1.425 . S
C613 C610 1.409 . S
C613 C611 1.415 . S
C614 H604 0.930 . S
C614 C612 1.419 . S
C614 C615 1.362 . S
C615 H605 0.930 . S
C615 C608 1.409 . S
C615 C614 1.362 . S
H616 C622 0.930 . S
H617 C625 0.930 . S
H618 C626 0.930 . S
H619 C627 0.930 . S
H620 C630 0.930 . S
H621 C631 0.930 . S
C622 H616 0.930 . S
C622 C623 1.355 . S
C622 C624 1.415 . S
C623 C622 1.355 . S
C623 C625 1.419 . S
C624 C622 1.415 . S
C624 C629 1.425 . S
C624 C631 1.409 . S
C625 H617 0.930 . S
C625 C623 1.419 . S
C625 C626 1.362 . S
C626 H618 0.930 . S
C626 C625 1.362 . S
C626 C629 1.409 . S
C627 H619 0.930 . S
C627 C628 1.355 . S
C627 C629 1.415 . S
C628 C627 1.355 . S
C628 C630 1.419 . S
C629 C624 1.425 . S
C629 C626 1.409 . S
C629 C627 1.415 . S
C630 H620 0.930 . S
C630 C628 1.419 . S
C630 C631 1.362 . S
C631 H621 0.930 . S
C631 C624 1.409 . S
C631 C630 1.362 . S
H632 C638 0.930 . S
H633 C641 0.930 . S
H634 C642 0.930 . S
H635 C643 0.930 . S
H636 C646 0.930 . S
H637 C647 0.930 . S
C638 H632 0.930 . S
C638 C639 1.355 . S
C638 C640 1.415 . S
C639 C638 1.355 . S
C639 C641 1.419 . S
C640 C638 1.415 . S
C640 C645 1.425 . S
C640 C647 1.409 . S
C641 H633 0.930 . S
C641 C639 1.419 . S
C641 C642 1.362 . S
C642 H634 0.930 . S
C642 C641 1.362 . S
C642 C645 1.409 . S
C643 H635 0.930 . S
C643 C644 1.355 . S
C643 C645 1.415 . S
C644 C643 1.355 . S
C644 C646 1.419 . S
C645 C640 1.425 . S
C645 C642 1.409 . S
C645 C643 1.415 . S
C646 H636 0.930 . S
C646 C644 1.419 . S
C646 C647 1.362 . S
C647 H637 0.930 . S
C647 C640 1.409 . S
C647 C646 1.362 . S
H648 C654 0.930 . S
H649 C657 0.930 . S
H650 C658 0.930 . S
H651 C659 0.930 . S
H652 C662 0.930 . S
H653 C663 0.930 . S
C654 H648 0.930 . S
C654 C655 1.355 1_655 S
C654 C656 1.415 . S
C655 C654 1.355 1_455 S
C655 C657 1.419 . S
C656 C654 1.415 . S
C656 C661 1.425 1_655 S
C656 C663 1.409 . S
C657 H649 0.930 . S
C657 C655 1.419 . S
C657 C658 1.362 . S
C658 H650 0.930 . S
C658 C657 1.362 . S
C658 C661 1.409 . S
C659 H651 0.930 . S
C659 C660 1.355 . S
C659 C661 1.415 . S
C660 C659 1.355 . S
C660 C662 1.419 1_455 S
C661 C656 1.425 1_455 S
C661 C658 1.409 . S
C661 C659 1.415 . S
C662 H652 0.930 . S
C662 C660 1.419 1_655 S
C662 C663 1.362 . S
C663 H653 0.930 . S
C663 C656 1.409 . S
C663 C662 1.362 . S
H664 C670 0.930 . S
H665 C673 0.930 . S
H666 C674 0.930 . S
H667 C675 0.930 . S
H668 C678 0.930 . S
H669 C679 0.930 . S
C670 H664 0.930 . S
C670 C671 1.355 . S
C670 C672 1.415 . S
C671 C670 1.355 . S
C671 C673 1.419 . S
C672 C670 1.415 . S
C672 C677 1.425 . S
C672 C679 1.409 . S
C673 H665 0.930 . S
C673 C671 1.419 . S
C673 C674 1.362 . S
C674 H666 0.930 . S
C674 C673 1.362 . S
C674 C677 1.409 . S
C675 H667 0.930 . S
C675 C676 1.355 . S
C675 C677 1.415 . S
C676 C675 1.355 . S
C676 C678 1.419 . S
C677 C672 1.425 . S
C677 C674 1.409 . S
C677 C675 1.415 . S
C678 H668 0.930 . S
C678 C676 1.419 . S
C678 C679 1.362 . S
C679 H669 0.930 . S
C679 C672 1.409 . S
C679 C678 1.362 . S
H680 C686 0.930 . S
H681 C689 0.930 . S
H682 C690 0.918 1_565 S
H683 C691 0.930 . S
H684 C694 0.930 . S
H685 C695 0.930 . S
C686 H680 0.930 . S
C686 C687 1.355 . S
C686 C688 1.415 . S
C687 C686 1.355 . S
C687 C689 1.419 . S
C688 C686 1.415 . S
C688 C693 1.425 . S
C688 C695 1.409 . S
C689 H681 0.930 . S
C689 C687 1.419 . S
C689 C690 1.362 . S
C690 H682 0.918 1_545 S
C690 C689 1.362 . S
C690 C693 1.409 . S
C691 H683 0.930 . S
C691 C692 1.355 . S
C691 C693 1.415 . S
C692 C691 1.355 . S
C692 C694 1.419 . S
C693 C688 1.425 . S
C693 C690 1.409 . S
C693 C691 1.415 . S
C694 H684 0.930 . S
C694 C692 1.419 . S
C694 C695 1.362 . S
C695 H685 0.930 . S
C695 C688 1.409 . S
C695 C694 1.362 . S
H696 C702 0.930 . S
H697 C705 0.930 . S
H698 C706 0.930 . S
H699 C707 0.930 1_554 S
H700 C710 0.930 . S
H701 C711 0.930 . S
C702 H696 0.930 . S
C702 C703 1.355 . S
C702 C704 1.415 . S
C703 C702 1.355 . S
C703 C705 1.419 . S
C704 C702 1.415 . S
C704 C709 1.425 . S
C704 C711 1.409 . S
C705 H697 0.930 . S
C705 C703 1.419 . S
C705 C706 1.362 . S
C706 H698 0.930 . S
C706 C705 1.362 . S
C706 C709 1.409 . S
C707 H699 0.930 1_556 S
C707 C708 1.355 1_556 S
C707 C709 1.415 . S
C708 C707 1.355 1_554 S
C708 C710 1.419 . S
C709 C704 1.425 . S
C709 C706 1.409 . S
C709 C707 1.415 . S
C710 H700 0.930 . S
C710 C708 1.419 . S
C710 C711 1.362 1_554 S
C711 H701 0.930 . S
C711 C704 1.409 . S
C711 C710 1.362 1_556 S
H712 C718 0.930 . S
H713 C721 0.930 . S
H714 C722 0.930 . S
H715 C723 0.930 1_554 S
H716 C726 0.930 1_554 S
H717 C727 0.930 . S
C718 H712 0.930 . S
C718 C719 1.355 . S
C718 C720 1.415 . S
C719 C718 1.355 . S
C719 C721 1.419 . S
C720 C718 1.415 . S
C720 C725 1.425 . S
C720 C727 1.409 . S
C721 H713 0.930 . S
C721 C719 1.419 . S
C721 C722 1.362 . S
C722 H714 0.930 . S
C722 C721 1.362 . S
C722 C725 1.409 . S
C723 H715 0.930 1_556 S
C723 C724 1.355 1_556 S
C723 C725 1.415 . S
C724 C723 1.355 1_554 S
C724 C726 1.419 1_554 S
C725 C720 1.425 . S
C725 C722 1.409 . S
C725 C723 1.415 . S
C726 H716 0.930 1_556 S
C726 C724 1.419 1_556 S
C726 C727 1.362 . S
C727 H717 0.930 . S
C727 C720 1.409 . S
C727 C726 1.362 . S
H728 C734 0.930 . S
H729 C737 0.930 . S
H730 C738 0.930 . S
H731 C739 0.930 1_554 S
H732 C742 0.930 . S
H733 C743 0.930 . S
C734 H728 0.930 . S
C734 C735 1.355 . S
C734 C736 1.415 . S
C735 C734 1.355 . S
C735 C737 1.419 . S
C736 C734 1.415 . S
C736 C741 1.425 . S
C736 C743 1.409 . S
C737 H729 0.930 . S
C737 C735 1.419 . S
C737 C738 1.362 . S
C738 H730 0.930 . S
C738 C737 1.362 . S
C738 C741 1.409 . S
C739 H731 0.930 1_556 S
C739 C740 1.355 1_556 S
C739 C741 1.415 . S
C740 C739 1.355 1_554 S
C740 C742 1.419 . S
C741 C736 1.425 . S
C741 C738 1.409 . S
C741 C739 1.415 . S
C742 H732 0.930 . S
C742 C740 1.419 . S
C742 C743 1.362 1_554 S
C743 H733 0.930 . S
C743 C736 1.409 . S
C743 C742 1.362 1_556 S
H744 C750 0.930 . S
H745 C753 0.930 . S
H746 C754 0.930 . S
H747 C755 0.930 . S
H748 C758 0.930 . S
H749 C759 0.930 . S
C750 H744 0.930 . S
C750 C751 1.355 . S
C750 C752 1.415 . S
C751 C750 1.355 . S
C751 C753 1.419 . S
C752 C750 1.415 . S
C752 C757 1.425 . S
C752 C759 1.409 . S
C753 H745 0.930 . S
C753 C751 1.419 . S
C753 C754 1.362 . S
C754 H746 0.930 . S
C754 C753 1.362 . S
C754 C757 1.409 . S
C755 H747 0.930 . S
C755 C756 1.355 1_554 S
C755 C757 1.415 . S
C756 C755 1.355 1_556 S
C756 C758 1.419 . S
C757 C752 1.425 . S
C757 C754 1.409 . S
C757 C755 1.415 . S
C758 H748 0.930 . S
C758 C756 1.419 . S
C758 C759 1.362 1_556 S
C759 H749 0.930 . S
C759 C752 1.409 . S
C759 C758 1.362 1_554 S
H760 C766 0.930 . S
H761 C769 0.930 1_556 S
H762 C770 0.930 . S
H763 C771 0.930 . S
H764 C774 0.930 . S
H765 C775 0.930 . S
C766 H760 0.930 . S
C766 C767 1.355 1_554 S
C766 C768 1.415 . S
C767 C766 1.355 1_556 S
C767 C769 1.419 1_556 S
C768 C766 1.415 . S
C768 C773 1.425 . S
C768 C775 1.409 . S
C769 H761 0.930 1_554 S
C769 C767 1.419 1_554 S
C769 C770 1.362 . S
C770 H762 0.930 . S
C770 C769 1.362 . S
C770 C773 1.409 . S
C771 H763 0.930 . S
C771 C772 1.355 . S
C771 C773 1.415 . S
C772 C771 1.355 . S
C772 C774 1.419 . S
C773 C768 1.425 . S
C773 C770 1.409 . S
C773 C771 1.415 . S
C774 H764 0.930 . S
C774 C772 1.419 . S
C774 C775 1.362 . S
C775 H765 0.930 . S
C775 C768 1.409 . S
C775 C774 1.362 . S
H776 C782 0.930 . S
H777 C785 0.930 . S
H778 C786 0.930 . S
H779 C787 0.930 . S
H780 C790 0.930 1_556 S
H781 C791 0.930 . S
C782 H776 0.930 . S
C782 C783 1.355 . S
C782 C784 1.415 . S
C783 C782 1.355 . S
C783 C785 1.419 . S
C784 C782 1.415 . S
C784 C789 1.425 . S
C784 C791 1.409 . S
C785 H777 0.930 . S
C785 C783 1.419 . S
C785 C786 1.362 . S
C786 H778 0.930 . S
C786 C785 1.362 . S
C786 C789 1.409 . S
C787 H779 0.930 . S
C787 C788 1.355 1_554 S
C787 C789 1.415 . S
C788 C787 1.355 1_556 S
C788 C790 1.419 1_556 S
C789 C784 1.425 . S
C789 C786 1.409 . S
C789 C787 1.415 . S
C790 H780 0.930 1_554 S
C790 C788 1.419 1_554 S
C790 C791 1.362 . S
C791 H781 0.930 . S
C791 C784 1.409 . S
C791 C790 1.362 . S
C367 C6 1.857 . S
C372 C290 1.753 . S
C383 C46 1.875 . S
C388 C330 1.807 . S
C399 C86 1.897 . S
C404 C250 1.829 . S
C415 C166 1.858 . S
C420 C90 1.772 . S
C431 C206 1.879 . S
C436 C10 1.775 . S
C447 C50 1.753 . S
C452 C126 1.859 . S
C463 C286 1.880 1_655 S
C468 C210 1.815 . S
C479 C326 1.865 . S
C484 C130 1.757 . S
C495 C170 1.828 . S
C500 C246 1.891 1_545 S
C511 C95 1.667 . S
C516 C19 1.652 1_554 S
C527 C59 1.671 1_554 S
C532 C15 1.643 . S
C543 C55 1.669 1_455 S
C548 C99 1.650 1_554 S
C559 C139 1.667 . S
C564 C215 1.647 . S
C575 C135 1.642 . S
C580 C179 1.672 . S
C591 C175 1.652 . S
C596 C219 1.664 . S
C607 C335 1.662 . S
C612 C259 1.656 . S
C623 C299 1.672 . S
C628 C255 1.642 . S
C639 C339 1.651 . S
C644 C295 1.666 . S
C655 C18 1.058 1_455 S
C660 C9 1.065 . S
C671 C58 0.997 . S
C676 C49 0.997 . S
C687 C98 1.077 . S
C692 C89 1.077 . S
C703 C129 1.055 . S
C708 C138 1.055 . S
C719 C169 1.013 . S
C724 C178 1.013 . S
C735 C209 0.985 . S
C740 C218 0.985 . S
C751 C258 1.033 . S
C756 C249 1.033 . S
C767 C289 0.992 . S
C772 C298 0.992 . S
C783 C338 1.077 . S
C788 C329 1.077 . S
