# Generated by pormake.
# Topology yfa, (5)-cn, num edge types: 1
# Building blocks:
#     Node 0, Type 0, BuildingBlock: BEQFEK_clean_sbu_0, # of connection points: 5
#     Node 1, Type 0, BuildingBlock: BEQFEK_clean_sbu_0, # of connection points: 5
#     Node 2, Type 0, BuildingBlock: BEQFEK_clean_sbu_0, # of connection points: 5
#     Node 3, Type 0, BuildingBlock: BEQFEK_clean_sbu_0, # of connection points: 5
#     Node 4, Type 0, BuildingBlock: BEQFEK_clean_sbu_0, # of connection points: 5
#     Node 5, Type 0, BuildingBlock: BEQFEK_clean_sbu_0, # of connection points: 5
#     Node 6, Type 0, BuildingBlock: BEQFEK_clean_sbu_0, # of connection points: 5
#     Node 7, Type 0, BuildingBlock: BEQFEK_clean_sbu_0, # of connection points: 5
#     Node 8, Type 0, BuildingBlock: BEQFEK_clean_sbu_0, # of connection points: 5
#     Node 9, Type 0, BuildingBlock: BEQFEK_clean_sbu_0, # of connection points: 5
#     Node 10, Type 0, BuildingBlock: BEQFEK_clean_sbu_0, # of connection points: 5
#     Node 11, Type 0, BuildingBlock: BEQFEK_clean_sbu_0, # of connection points: 5
#     Node 12, Type 0, BuildingBlock: BEQFEK_clean_sbu_0, # of connection points: 5
#     Node 13, Type 0, BuildingBlock: BEQFEK_clean_sbu_0, # of connection points: 5
#     Node 14, Type 0, BuildingBlock: BEQFEK_clean_sbu_0, # of connection points: 5
#     Node 15, Type 0, BuildingBlock: BEQFEK_clean_sbu_0, # of connection points: 5
#     Edge 16, Type (0, 0), BuildingBlock: XIVTED_clean_linker_0, # of connection points: 2
#     Edge 17, Type (0, 0), BuildingBlock: XIVTED_clean_linker_0, # of connection points: 2
#     Edge 18, Type (0, 0), BuildingBlock: XIVTED_clean_linker_0, # of connection points: 2
#     Edge 19, Type (0, 0), BuildingBlock: XIVTED_clean_linker_0, # of connection points: 2
#     Edge 20, Type (0, 0), BuildingBlock: XIVTED_clean_linker_0, # of connection points: 2
#     Edge 21, Type (0, 0), BuildingBlock: XIVTED_clean_linker_0, # of connection points: 2
#     Edge 22, Type (0, 0), BuildingBlock: XIVTED_clean_linker_0, # of connection points: 2
#     Edge 23, Type (0, 0), BuildingBlock: XIVTED_clean_linker_0, # of connection points: 2
#     Edge 24, Type (0, 0), BuildingBlock: XIVTED_clean_linker_0, # of connection points: 2
#     Edge 25, Type (0, 0), BuildingBlock: XIVTED_clean_linker_0, # of connection points: 2
#     Edge 26, Type (0, 0), BuildingBlock: XIVTED_clean_linker_0, # of connection points: 2
#     Edge 27, Type (0, 0), BuildingBlock: XIVTED_clean_linker_0, # of connection points: 2
#     Edge 28, Type (0, 0), BuildingBlock: XIVTED_clean_linker_0, # of connection points: 2
#     Edge 29, Type (0, 0), BuildingBlock: XIVTED_clean_linker_0, # of connection points: 2
#     Edge 30, Type (0, 0), BuildingBlock: XIVTED_clean_linker_0, # of connection points: 2
#     Edge 31, Type (0, 0), BuildingBlock: XIVTED_clean_linker_0, # of connection points: 2
#     Edge 32, Type (0, 0), BuildingBlock: XIVTED_clean_linker_0, # of connection points: 2
#     Edge 33, Type (0, 0), BuildingBlock: XIVTED_clean_linker_0, # of connection points: 2
#     Edge 34, Type (0, 0), BuildingBlock: XIVTED_clean_linker_0, # of connection points: 2
#     Edge 35, Type (0, 0), BuildingBlock: XIVTED_clean_linker_0, # of connection points: 2
#     Edge 36, Type (0, 0), BuildingBlock: XIVTED_clean_linker_0, # of connection points: 2
#     Edge 37, Type (0, 0), BuildingBlock: XIVTED_clean_linker_0, # of connection points: 2
#     Edge 38, Type (0, 0), BuildingBlock: XIVTED_clean_linker_0, # of connection points: 2
#     Edge 39, Type (0, 0), BuildingBlock: XIVTED_clean_linker_0, # of connection points: 2
#     Edge 40, Type (0, 0), BuildingBlock: XIVTED_clean_linker_0, # of connection points: 2
#     Edge 41, Type (0, 0), BuildingBlock: XIVTED_clean_linker_0, # of connection points: 2
#     Edge 42, Type (0, 0), BuildingBlock: XIVTED_clean_linker_0, # of connection points: 2
#     Edge 43, Type (0, 0), BuildingBlock: XIVTED_clean_linker_0, # of connection points: 2
#     Edge 44, Type (0, 0), BuildingBlock: XIVTED_clean_linker_0, # of connection points: 2
#     Edge 45, Type (0, 0), BuildingBlock: XIVTED_clean_linker_0, # of connection points: 2
#     Edge 46, Type (0, 0), BuildingBlock: XIVTED_clean_linker_0, # of connection points: 2
#     Edge 47, Type (0, 0), BuildingBlock: XIVTED_clean_linker_0, # of connection points: 2
#     Edge 48, Type (0, 0), BuildingBlock: XIVTED_clean_linker_0, # of connection points: 2
#     Edge 49, Type (0, 0), BuildingBlock: XIVTED_clean_linker_0, # of connection points: 2
#     Edge 50, Type (0, 0), BuildingBlock: XIVTED_clean_linker_0, # of connection points: 2
#     Edge 51, Type (0, 0), BuildingBlock: XIVTED_clean_linker_0, # of connection points: 2
#     Edge 52, Type (0, 0), BuildingBlock: XIVTED_clean_linker_0, # of connection points: 2
#     Edge 53, Type (0, 0), BuildingBlock: XIVTED_clean_linker_0, # of connection points: 2
#     Edge 54, Type (0, 0), BuildingBlock: XIVTED_clean_linker_0, # of connection points: 2
#     Edge 55, Type (0, 0), BuildingBlock: XIVTED_clean_linker_0, # of connection points: 2
# Relax obj value: 0.789
# Max RMSD: 0.296
# Mean RMSD: 0.296
data_MOF--net-yfa--node1-BEQFEK_clean_sbu_0--edge1-XIVTED_clean_linker_0
_symmetry_space_group_name_H-M    P1
_symmetry_Int_Tables_number       1
_symmetry_cell_setting            triclinic
loop_
_symmetry_equiv_pos_as_xyz
'x, y, z'
_cell_length_a     49.680167
_cell_length_b     49.859496
_cell_length_c     30.186561
_cell_angle_alpha  90.049817
_cell_angle_beta   89.917297
_cell_angle_gamma 90.017987
loop_
_atom_site_label
_atom_site_type_symbol
_atom_site_fract_x
_atom_site_fract_y
_atom_site_fract_z
_atom_type_partial_charge
Co0 Co 0.65676 0.02424 0.12968 0.0
Co1 Co 0.66194 0.07051 0.06341 0.0
C2 C 0.708 0.03584 0.0987 0.0
O3 O 0.69248 0.01647 0.10776 0.0
O4 O 0.69836 0.05752 0.0831 0.0
C5 C 0.65256 0.97208 0.16988 0.0
O6 O 0.66682 0.96382 0.13581 0.0
C7 C 0.66987 0.07831 0.97024 0.0
C8 C 0.66299 0.12162 0.96056 0.0
C9 C 0.66742 0.09781 0.93782 0.0
N10 N 0.6664 0.08988 0.00995 0.0
N11 N 0.66283 0.11589 0.00419 0.0
C12 C 0.67518 0.04897 0.96413 0.0
H13 H 0.65584 0.03789 0.96322 0.0
H14 H 0.68619 0.04524 0.9327 0.0
H15 H 0.68694 0.04116 0.99256 0.0
C16 C 0.61011 0.01011 0.07482 0.0
N17 N 0.63261 0.02428 0.08277 0.0
N18 N 0.63414 0.04448 0.05504 0.0
C19 C 0.61182 0.04451 0.02958 0.0
C20 C 0.59626 0.02237 0.04068 0.0
C21 C 0.60008 0.9878 0.10368 0.0
H22 H 0.61433 0.97074 0.10173 0.0
H23 H 0.57984 0.98071 0.09361 0.0
H24 H 0.59911 -0.00526 0.13855 0.0
O25 O 0.65602 0.05983 0.16097 0.0
O26 O 0.651 0.09349 0.11291 0.0
H27 H 0.58182 0.06815 0.9953 0.0
H28 H 0.61287 0.06343 0.96619 0.0
C29 C 0.60397 0.06697 -0.00067 0.0
H30 H 0.61168 0.08632 0.01225 0.0
H31 H 0.65895 0.12944 0.02977 0.0
O32 O 0.64667 -0.00322 0.17338 0.0
C33 C 0.65249 0.0847 0.15246 0.0
Co34 Co 0.46604 0.62575 0.14075 0.0
Co35 Co 0.42162 0.64561 0.07527 0.0
C36 C 0.45496 0.68293 0.13204 0.0
O37 O 0.46931 0.66385 0.14625 0.0
O38 O 0.43566 0.67885 0.1051 0.0
C39 C 0.51468 0.62215 0.19227 0.0
O40 O 0.51508 0.64845 0.18998 0.0
C41 C 0.41403 0.66591 0.98733 0.0
C42 C 0.3719 0.65569 0.97189 0.0
C43 C 0.39555 0.66516 0.95285 0.0
N44 N 0.40217 0.65652 0.02415 0.0
N45 N 0.37675 0.65108 0.01513 0.0
C46 C 0.44291 0.67446 0.98569 0.0
H47 H 0.45597 0.65661 0.98142 0.0
H48 H 0.44648 0.68857 0.95787 0.0
H49 H 0.44861 0.68413 0.01743 0.0
C50 C 0.48406 0.59577 0.0645 0.0
N51 N 0.4688 0.61529 0.08201 0.0
N52 N 0.44834 0.62033 0.05589 0.0
C53 C 0.44903 0.60264 0.02194 0.0
C54 C 0.47194 0.58676 0.02602 0.0
C55 C 0.50646 0.58222 0.08896 0.0
H56 H 0.4978 0.56972 0.11582 0.0
H57 H 0.51987 0.59755 0.10379 0.0
H58 H 0.51863 0.56917 0.06701 0.0
O59 O 0.43064 0.61466 0.16568 0.0
O60 O 0.39816 0.62856 0.12011 0.0
H61 H 0.40673 0.60207 0.00721 0.0
H62 H 0.42638 0.57747 0.9769 0.0
C63 C 0.42622 0.59816 0.99044 0.0
H64 H 0.42824 0.61222 0.96225 0.0
H65 H 0.36328 0.6425 0.0376 0.0
O66 O 0.49516 0.6092 0.1754 0.0
C67 C 0.40579 0.6169 0.15554 0.0
Co68 Co 0.83229 0.46863 0.12379 0.0
Co69 Co 0.83451 0.41747 0.06628 0.0
C70 C 0.78778 0.45217 0.08475 0.0
O71 O 0.80379 0.47157 0.08055 0.0
O72 O 0.79573 0.42971 0.0699 0.0
C73 C 0.83278 0.52461 0.14552 0.0
O74 O 0.82683 0.52807 0.10352 0.0
C75 C 0.83619 0.40273 0.97492 0.0
C76 C 0.8452 0.35938 0.97501 0.0
C77 C 0.84158 0.38127 0.94729 0.0
N78 N 0.83708 0.39418 0.01695 0.0
N79 N 0.84209 0.36815 0.01701 0.0
C80 C 0.82995 0.43105 0.96197 0.0
H81 H 0.84883 0.44282 0.96003 0.0
H82 H 0.81998 0.43166 0.92909 0.0
H83 H 0.81688 0.4406 0.98729 0.0
C84 C 0.88616 0.47807 0.08691 0.0
N85 N 0.86293 0.4644 0.0899 0.0
N86 N 0.86368 0.44333 0.06363 0.0
C87 C 0.88814 0.44258 0.0439 0.0
C88 C 0.9028 0.46488 0.05743 0.0
C89 C 0.89326 0.50195 0.11465 0.0
H90 H 0.88568 0.49921 0.14889 0.0
H91 H 0.88376 0.52005 0.10018 0.0
H92 H 0.91534 0.50519 0.11586 0.0
O93 O 0.82924 0.43612 0.16265 0.0
O94 O 0.83819 0.39903 0.12369 0.0
H95 H 0.89013 0.40073 0.02734 0.0
H96 H 0.92022 0.41942 0.01378 0.0
C97 C 0.89794 0.42017 0.01503 0.0
H98 H 0.89061 0.42327 0.98081 0.0
H99 H 0.84423 0.3566 0.0456 0.0
O100 O 0.83462 0.50095 0.16074 0.0
C101 C 0.83301 0.41074 0.16042 0.0
Co102 Co 0.03221 0.86927 0.15421 0.0
Co103 Co 0.07611 0.85509 0.08336 0.0
C104 C 0.04699 0.8131 0.13477 0.0
O105 O 0.03293 0.83084 0.15373 0.0
O106 O 0.06509 0.81925 0.10678 0.0
C107 C 0.97926 0.86602 0.18407 0.0
O108 O 0.97781 0.85008 0.14947 0.0
C109 C 0.08645 0.83765 0.99392 0.0
C110 C 0.12769 0.8519 0.98051 0.0
C111 C 0.10553 0.84001 0.96052 0.0
N112 N 0.09654 0.84829 0.03123 0.0
N113 N 0.12145 0.85626 0.02338 0.0
C114 C 0.05878 0.82583 0.99086 0.0
H115 H 0.04384 0.84207 0.98596 0.0
H116 H 0.0574 0.81144 0.96288 0.0
H117 H 0.05358 0.81549 0.02221 0.0
C118 C 0.01127 0.90249 0.08315 0.0
N119 N 0.02778 0.883 0.09744 0.0
N120 N 0.04698 0.87889 0.06818 0.0
C121 C 0.04369 0.89661 0.0347 0.0
C122 C 0.0206 0.9116 0.04271 0.0
C123 C 0.99039 0.91579 0.11161 0.0
H124 H -0.00124 0.91976 0.145 0.0
H125 H 0.97284 0.90222 0.11502 0.0
H126 H 0.98324 0.93499 0.09735 0.0
O127 O 0.06649 0.88243 0.17977 0.0
O128 O 0.09846 0.87156 0.13078 0.0
H129 H 0.06188 0.92251 0.98545 0.0
H130 H 0.06209 0.88745 0.9725 0.0
C131 C 0.06436 0.90217 -0.00027 0.0
H132 H 0.08488 0.90022 0.01377 0.0
H133 H 0.13366 0.86586 0.04662 0.0
O134 O 0.00136 0.87777 0.19277 0.0
C135 C 0.09114 0.88173 0.16773 0.0
Co136 Co 0.66139 0.45599 0.35497 0.0
Co137 Co 0.66558 0.41016 0.42023 0.0
C138 C 0.71103 0.4451 0.38511 0.0
O139 O 0.69518 0.46482 0.38325 0.0
O140 O 0.70193 0.42271 0.39865 0.0
C141 C 0.65853 0.5082 0.31625 0.0
O142 O 0.67246 0.51574 0.35105 0.0
C143 C 0.67438 0.40435 0.51289 0.0
C144 C 0.66729 0.36139 0.5259 0.0
C145 C 0.67214 0.38576 0.54673 0.0
N146 N 0.67041 0.39178 0.47423 0.0
N147 N 0.66671 0.36597 0.48191 0.0
C148 C 0.67975 0.43383 0.5166 0.0
H149 H 0.69165 0.44073 0.48762 0.0
H150 H 0.66043 0.44494 0.51636 0.0
H151 H 0.69067 0.43853 0.54771 0.0
C152 C 0.6123 0.4691 0.40503 0.0
N153 N 0.63519 0.45529 0.39851 0.0
N154 N 0.63685 0.43564 0.42724 0.0
C155 C 0.61429 0.43569 0.45228 0.0
C156 C 0.59829 0.45724 0.43949 0.0
C157 C 0.60257 0.49112 0.37536 0.0
H158 H 0.61576 0.50888 0.37949 0.0
H159 H 0.58152 0.49699 0.38285 0.0
H160 H 0.60375 0.4845 0.34033 0.0
O161 O 0.66253 0.42025 0.32368 0.0
O162 O 0.65529 0.38669 0.37131 0.0
H163 H 0.58521 0.41321 0.49077 0.0
H164 H 0.61698 0.419 0.51717 0.0
C165 C 0.60723 0.41432 0.4851 0.0
H166 H 0.61479 0.3946 0.47349 0.0
H167 H 0.66243 0.3518 0.45745 0.0
O168 O 0.65275 0.48358 0.31124 0.0
C169 C 0.6585 0.39539 0.33193 0.0
Co170 Co 0.02271 0.6209 0.35221 0.0
Co171 Co 0.06889 0.6353 0.41857 0.0
C172 C 0.03872 0.67666 0.36507 0.0
O173 O 0.02274 0.65931 0.34941 0.0
O174 O 0.05754 0.67022 0.39161 0.0
C175 C 0.97977 0.622 0.28771 0.0
O176 O 0.98959 0.64541 0.27599 0.0
C177 C 0.07973 0.65344 0.50723 0.0
C178 C 0.12186 0.64147 0.51887 0.0
C179 C 0.09937 0.65214 0.53982 0.0
N180 N 0.08988 0.6434 0.46948 0.0
N181 N 0.11526 0.63675 0.47627 0.0
C182 C 0.05151 0.66371 0.51133 0.0
H183 H 0.0377 0.64678 0.51853 0.0
H184 H 0.04993 0.67873 0.53837 0.0
H185 H 0.045 0.6728 0.47959 0.0
C186 C 0.00245 0.59106 0.42719 0.0
N187 N 0.01936 0.60945 0.41053 0.0
N188 N 0.04016 0.61223 0.43685 0.0
C189 C 0.03795 0.59406 0.46984 0.0
C190 C 0.01376 0.58023 0.46502 0.0
C191 C 0.97878 0.58014 0.40237 0.0
H192 H 0.96672 0.59699 0.38898 0.0
H193 H 0.96567 0.56768 0.42384 0.0
H194 H 0.98607 0.56764 0.37439 0.0
O195 O 0.05695 0.60752 0.3253 0.0
O196 O 0.09033 0.61752 0.37194 0.0
H197 H 0.05842 0.56609 0.51306 0.0
H198 H 0.05981 0.60061 0.52971 0.0
C199 C 0.0604 0.58696 0.50072 0.0
H200 H 0.0801 0.58947 0.48386 0.0
H201 H 0.12763 0.62778 0.45253 0.0
O202 O 0.99156 0.60835 0.31745 0.0
C203 C 0.08191 0.60759 0.33553 0.0
Co204 Co 0.83596 0.01685 0.35426 0.0
Co205 Co 0.83502 0.06861 0.41116 0.0
C206 C 0.78999 0.03343 0.3898 0.0
O207 O 0.80624 0.0144 0.3955 0.0
O208 O 0.79657 0.05576 0.40668 0.0
C209 C 0.83799 0.96078 0.33953 0.0
O210 O 0.83267 0.95994 0.38216 0.0
C211 C 0.83286 0.08591 0.50112 0.0
C212 C 0.84422 0.12869 0.49889 0.0
C213 C 0.83826 0.10785 0.52771 0.0
N214 N 0.83604 0.09318 0.45874 0.0
N215 N 0.84233 0.11892 0.45733 0.0
C216 C 0.82508 0.05819 0.51534 0.0
H217 H 0.84317 0.04518 0.51599 0.0
H218 H 0.81584 0.05842 0.54884 0.0
H219 H 0.8108 0.04935 0.49121 0.0
C220 C 0.88906 0.00955 0.39513 0.0
N221 N 0.86541 0.02228 0.39053 0.0
N222 N 0.86458 0.04331 0.41692 0.0
C223 C 0.88837 0.04489 0.43859 0.0
C224 C 0.9043 0.02324 0.42598 0.0
C225 C 0.89804 0.98629 0.3674 0.0
H226 H 0.88991 0.98806 0.33337 0.0
H227 H 0.89049 0.96749 0.38254 0.0
H228 H 0.92032 0.98515 0.36561 0.0
O229 O 0.83374 0.04861 0.31362 0.0
O230 O 0.83985 0.08603 0.35325 0.0
H231 H 0.89025 0.08689 0.45362 0.0
H232 H 0.91824 0.06772 0.47507 0.0
C233 C 0.89632 0.0675 0.46851 0.0
H234 H 0.88587 0.06528 0.50067 0.0
H235 H 0.84638 0.12948 0.42824 0.0
O236 O 0.83931 0.98338 0.32029 0.0
C237 C 0.83666 0.07409 0.31614 0.0
Co238 Co 0.47132 0.85565 0.38021 0.0
Co239 Co 0.42035 0.83997 0.43508 0.0
C240 C 0.45673 0.79947 0.38996 0.0
O241 O 0.47362 0.8172 0.37838 0.0
O242 O 0.43577 0.80553 0.41225 0.0
C243 C 0.51885 0.85837 0.32442 0.0
O244 O 0.51315 0.83362 0.31282 0.0
C245 C 0.39845 0.82867 0.52248 0.0
C246 C 0.3553 0.83683 0.51221 0.0
C247 C 0.37431 0.83215 0.54499 0.0
N248 N 0.39398 0.83211 0.47895 0.0
N249 N 0.36797 0.83596 0.47284 0.0
C250 C 0.4259 0.82559 0.54228 0.0
H251 H 0.44161 0.82513 0.51615 0.0
H252 H 0.43 0.84213 0.56594 0.0
H253 H 0.42677 0.80651 0.56108 0.0
C254 C 0.48255 0.88838 0.45667 0.0
N255 N 0.46869 0.86818 0.43823 0.0
N256 N 0.44539 0.86553 0.45828 0.0
C257 C 0.44277 0.88569 0.48792 0.0
C258 C 0.46648 0.90058 0.4883 0.0
C259 C 0.508 0.89958 0.43752 0.0
H260 H 0.52138 0.883 0.42679 0.0
H261 H 0.5189 0.91211 0.46199 0.0
H262 H 0.503 0.91225 0.40847 0.0
O263 O 0.43924 0.86683 0.34473 0.0
O264 O 0.40265 0.85578 0.3834 0.0
H265 H 0.39939 0.88566 0.48958 0.0
H266 H 0.41481 0.91585 0.51107 0.0
C267 C 0.41659 0.89372 0.50879 0.0
H268 H 0.41565 0.88575 0.54301 0.0
H269 H 0.35925 0.84034 0.44226 0.0
O270 O 0.50356 0.87069 0.35136 0.0
C271 C 0.41368 0.86561 0.34897 0.0
Co272 Co 0.35464 0.97313 0.8816 0.0
Co273 Co 0.3482 0.91969 0.93234 0.0
C274 C 0.30206 0.95298 0.89339 0.0
O275 O 0.31616 0.97398 0.889 0.0
O276 O 0.31235 0.93151 0.90877 0.0
C277 C 0.35427 0.0161 0.81781 0.0
O278 O 0.33389 0.00344 0.79962 0.0
C279 C 0.33456 0.90238 0.01955 0.0
C280 C 0.34976 0.86091 0.0229 0.0
C281 C 0.33954 0.88156 0.04884 0.0
N282 N 0.34228 0.89477 0.97886 0.0
N283 N 0.35071 0.86968 0.98067 0.0
C284 C 0.32409 0.92984 0.02994 0.0
H285 H 0.34118 0.94394 0.03397 0.0
H286 H 0.31202 0.92969 0.06091 0.0
H287 H 0.31164 0.93725 0.00203 0.0
C288 C 0.39232 0.98511 0.95221 0.0
N289 N 0.37216 0.97028 0.9355 0.0
N290 N 0.37165 0.94677 0.95484 0.0
C291 C 0.39253 0.94534 0.98327 0.0
C292 C 0.40616 0.96973 0.98288 0.0
C293 C 0.40141 0.01111 0.93241 0.0
H294 H 0.38371 0.02415 0.92642 0.0
H295 H 0.41576 0.02183 0.95423 0.0
H296 H 0.41143 0.00708 0.9002 0.0
O297 O 0.36428 0.9421 0.8425 0.0
O298 O 0.36508 0.90358 0.87986 0.0
H299 H 0.42281 0.92109 0.01618 0.0
H300 H 0.38893 0.91605 0.03439 0.0
C301 C 0.40161 0.9199 0.00493 0.0
H302 H 0.39914 0.9028 0.98173 0.0
H303 H 0.35898 0.85928 0.9539 0.0
O304 O 0.36553 0.00635 0.85191 0.0
C305 C 0.36837 0.91678 0.84406 0.0
Co306 Co 0.53472 0.35466 0.86053 0.0
Co307 Co 0.58378 0.34496 0.92264 0.0
C308 C 0.55637 0.30035 0.8741 0.0
O309 O 0.53852 0.31631 0.86006 0.0
O310 O 0.57551 0.30848 0.89865 0.0
C311 C 0.47921 0.35184 0.83616 0.0
O312 O 0.4766 0.33719 0.87206 0.0
C313 C 0.60656 0.32968 0.00786 0.0
C314 C 0.64678 0.34846 0.00491 0.0
C315 C 0.62965 0.33432 0.03277 0.0
N316 N 0.60983 0.34113 0.96798 0.0
N317 N 0.63408 0.35188 0.96605 0.0
C318 C 0.5818 0.31443 0.02072 0.0
H319 H 0.57252 0.3052 0.99096 0.0
H320 H 0.56682 0.32838 0.03528 0.0
H321 H 0.58666 0.29863 0.04533 0.0
C322 C 0.51712 0.38867 0.93289 0.0
N323 N 0.53282 0.36871 0.91779 0.0
N324 N 0.55387 0.36591 0.94377 0.0
C325 C 0.55244 0.38472 0.97599 0.0
C326 C 0.5289 0.39948 0.97043 0.0
C327 C 0.49521 0.4014 0.90592 0.0
H328 H 0.50208 0.404 0.87125 0.0
H329 H 0.47734 0.38813 0.90622 0.0
H330 H 0.48902 0.42126 0.91885 0.0
O331 O 0.56572 0.37071 0.82876 0.0
O332 O 0.60085 0.36412 0.87314 0.0
H333 H 0.59425 0.39322 0.98652 0.0
H334 H 0.57178 0.41103 0.0236 0.0
C335 C 0.57535 0.39183 0.00598 0.0
H336 H 0.57785 0.37588 0.03114 0.0
H337 H 0.64157 0.36238 0.93881 0.0
O338 O 0.50199 0.36165 0.82609 0.0
C339 C 0.59076 0.37301 0.83732 0.0
Co340 Co 0.12365 0.53455 0.85283 0.0
Co341 Co 0.14266 0.57848 0.91992 0.0
C342 C 0.18099 0.54729 0.86182 0.0
O343 O 0.16216 0.53279 0.84686 0.0
O344 O 0.17648 0.56583 0.88993 0.0
C345 C 0.11951 0.48251 0.81535 0.0
O346 O 0.13909 0.477 0.84309 0.0
C347 C 0.16244 0.5869 0.00869 0.0
C348 C 0.15058 0.62859 0.02325 0.0
C349 C 0.16063 0.6055 0.04296 0.0
N350 N 0.15295 0.59815 0.97143 0.0
N351 N 0.14661 0.62334 0.97997 0.0
C352 C 0.17219 0.55852 0.01092 0.0
H353 H 0.18249 0.55312 0.97952 0.0
H354 H 0.15482 0.54475 0.01479 0.0
H355 H 0.18616 0.55573 0.03921 0.0
C356 C 0.09332 0.51525 0.92889 0.0
N357 N 0.11263 0.5309 0.91138 0.0
N358 N 0.11808 0.55075 0.9386 0.0
C359 C 0.10119 0.54902 0.97365 0.0
C360 C 0.08556 0.52605 0.96916 0.0
C361 C 0.07885 0.49376 0.90359 0.0
H362 H 0.07123 0.5021 0.87197 0.0
H363 H 0.09311 0.47731 0.89595 0.0
H364 H 0.06165 0.48529 0.92236 0.0
O365 O 0.11126 0.56951 0.82942 0.0
O366 O 0.12469 0.6018 0.87564 0.0
H367 H 0.10054 0.5908 0.99137 0.0
H368 H 0.07632 0.57047 0.02094 0.0
C369 C 0.09692 0.57096 0.00684 0.0
H370 H 0.11115 0.56827 0.03459 0.0
H371 H 0.13778 0.63633 0.95711 0.0
O372 O 0.10942 0.50592 0.81474 0.0
C373 C 0.11284 0.5942 0.84031 0.0
Co374 Co 0.96159 0.14507 0.87115 0.0
Co375 Co 0.90695 0.15246 0.92006 0.0
C376 C 0.93987 0.19803 0.88041 0.0
O377 O 0.9607 0.18364 0.87578 0.0
O378 O 0.91842 0.18831 0.89708 0.0
C379 C 0.01881 0.14402 0.85028 0.0
O380 O 0.02272 0.1593 0.88513 0.0
C381 C 0.87772 0.1613 0.00349 0.0
C382 C 0.83611 0.15228 0.98272 0.0
C383 C 0.85173 0.15763 0.01977 0.0
N384 N 0.87736 0.15739 0.95942 0.0
N385 N 0.8523 0.15287 0.94705 0.0
C386 C 0.90294 0.16632 0.02933 0.0
H387 H 0.92095 0.16497 0.00772 0.0
H388 H 0.90467 0.15191 0.05715 0.0
H389 H 0.90216 0.18682 0.04357 0.0
C390 C 0.9722 0.10813 0.94357 0.0
N391 N 0.95778 0.12831 0.92611 0.0
N392 N 0.93397 0.12936 0.94518 0.0
C393 C 0.93207 0.10874 0.97408 0.0
C394 C 0.95647 0.0951 0.97471 0.0
C395 C -0.00199 0.09794 0.92405 0.0
H396 H 0.99506 0.09349 0.8884 0.0
H397 H 0.01367 0.11361 0.92736 0.0
H398 H 0.00533 0.07951 0.94058 0.0
O399 O 0.93241 0.13266 0.83084 0.0
O400 O 0.89332 0.13495 0.86676 0.0
H401 H 0.88877 0.10607 0.97451 0.0
H402 H 0.9057 0.07716 -0.0027 0.0
C403 C 0.90621 0.09932 0.99443 0.0
H404 H 0.90444 0.10756 0.02839 0.0
H405 H 0.84651 0.1485 0.91462 0.0
O406 O 0.99534 0.13581 0.84076 0.0
C407 C 0.90699 0.12913 0.83244 0.0
Co408 Co 0.3772 0.53399 0.64624 0.0
Co409 Co 0.36154 0.57761 0.57649 0.0
C410 C 0.32035 0.549 0.63093 0.0
O411 O 0.33852 0.5348 0.64838 0.0
O412 O 0.32597 0.56686 0.60233 0.0
C413 C 0.37497 0.48097 0.6743 0.0
O414 O 0.3594 0.4794 0.63924 0.0
C415 C 0.34184 0.58959 0.4886 0.0
C416 C 0.35837 0.62984 0.47524 0.0
C417 C 0.3447 0.6087 0.45547 0.0
N418 N 0.35397 0.59865 0.52542 0.0
N419 N 0.36324 0.62302 0.51766 0.0
C420 C 0.32823 0.56283 0.48568 0.0
H421 H 0.31737 0.55857 0.517 0.0
H422 H 0.34352 0.54686 0.48123 0.0
H423 H 0.31383 0.56222 0.45761 0.0
C424 C 0.40959 0.5133 0.57329 0.0
N425 N 0.3903 0.52974 0.58877 0.0
N426 N 0.38513 0.54851 0.55939 0.0
C427 C 0.40172 0.54479 0.52427 0.0
C428 C 0.41724 0.522 0.53165 0.0
C429 C 0.42402 0.49296 0.6011 0.0
H430 H 0.42709 0.50091 0.63501 0.0
H431 H 0.41166 0.47449 0.60311 0.0
H432 H 0.44394 0.48757 0.58709 0.0
O433 O 0.39091 0.56788 0.67161 0.0
O434 O 0.37917 0.59966 0.62323 0.0
H435 H 0.40468 0.58515 0.50004 0.0
H436 H 0.42419 0.56102 0.46873 0.0
C437 C 0.40513 0.56435 0.48706 0.0
H438 H 0.38841 0.56184 0.46328 0.0
H439 H 0.37417 0.63436 0.54047 0.0
O440 O 0.38614 0.50316 0.68391 0.0
C441 C 0.39001 0.59242 0.65966 0.0
Co442 Co 0.96082 0.34691 0.59729 0.0
Co443 Co 0.90484 0.33679 0.5548 0.0
C444 C 0.93972 0.29381 0.59915 0.0
O445 O 0.96063 0.30837 0.60038 0.0
O446 O 0.91786 0.30251 0.5823 0.0
C447 C 0.00661 0.3514 0.65514 0.0
O448 O 0.99609 0.33086 0.6762 0.0
C449 C 0.87525 0.32491 0.47319 0.0
C450 C 0.83355 0.33359 0.49393 0.0
C451 C 0.84918 0.32782 0.45697 0.0
N452 N 0.87493 0.32958 0.51708 0.0
N453 N 0.84981 0.33389 0.52948 0.0
C454 C 0.90051 0.32028 0.44715 0.0
H455 H 0.91848 0.32104 0.4688 0.0
H456 H 0.90235 0.33528 0.4202 0.0
H457 H 0.89972 0.30009 0.43177 0.0
C458 C 0.96938 0.37848 0.51887 0.0
N459 N 0.95541 0.35923 0.53975 0.0
N460 N 0.93061 0.35878 0.52492 0.0
C461 C 0.92744 0.3794 0.49644 0.0
C462 C 0.95203 0.39253 0.4915 0.0
C463 C -0.00312 0.38741 0.53289 0.0
H464 H 0.995 0.40122 0.56158 0.0
H465 H 0.00918 0.36981 0.54252 0.0
H466 H 0.00734 0.39818 0.50575 0.0
O467 O 0.93229 0.36101 0.63815 0.0
O468 O 0.89214 0.3567 0.60632 0.0
H469 H 0.90054 0.41148 0.47696 0.0
H470 H 0.89578 0.38035 0.44866 0.0
C471 C 0.90054 0.3894 0.48126 0.0
H472 H 0.88461 0.38355 0.50517 0.0
H473 H 0.84404 0.33893 0.56169 0.0
O474 O 0.99504 0.36044 0.62081 0.0
C475 C 0.90677 0.36414 0.63863 0.0
Co476 Co 0.12285 0.95976 0.64716 0.0
Co477 Co 0.14375 0.91616 0.58078 0.0
C478 C 0.18085 0.94824 0.63825 0.0
O479 O 0.16131 0.96186 0.65293 0.0
O480 O 0.1773 0.92953 0.61017 0.0
C481 C 0.11975 0.01257 0.6785 0.0
O482 O 0.13711 0.01639 0.64624 0.0
C483 C 0.16597 0.90591 0.49395 0.0
C484 C 0.15323 0.8644 0.48 0.0
C485 C 0.16483 0.88681 0.46038 0.0
N486 N 0.15467 0.89561 0.53062 0.0
N487 N 0.14779 0.8705 0.52255 0.0
C488 C 0.17679 0.93391 0.49153 0.0
H489 H 0.15998 0.94824 0.4868 0.0
H490 H 0.19136 0.93602 0.46383 0.0
H491 H 0.18678 0.93918 0.5232 0.0
C492 C 0.09199 0.97736 0.57076 0.0
N493 N 0.11186 0.96259 0.58849 0.0
N494 N 0.11882 0.94336 0.56091 0.0
C495 C 0.10268 0.94487 0.52494 0.0
C496 C 0.08566 0.96683 0.52965 0.0
C497 C 0.07579 -0.00253 0.59638 0.0
H498 H 0.07064 0.98921 0.6294 0.0
H499 H 0.08796 0.01588 0.60114 0.0
H500 H 0.05688 0.00303 0.57923 0.0
O501 O 0.11084 0.92502 0.67177 0.0
O502 O 0.12598 0.89319 0.62602 0.0
H503 H 0.0814 0.92458 0.4718 0.0
H504 H 0.11703 0.92658 0.46554 0.0
C505 C 0.10073 0.92361 0.49 0.0
H506 H 0.10298 0.90349 0.50511 0.0
H507 H 0.13775 0.85817 0.54509 0.0
O508 O 0.10968 0.98941 0.68434 0.0
C509 C 0.11352 0.90039 0.66108 0.0
Co510 Co 0.52913 0.13386 0.62368 0.0
Co511 Co 0.57905 0.1425 0.56287 0.0
C512 C 0.55259 0.18724 0.6141 0.0
O513 O 0.53349 0.17209 0.62619 0.0
O514 O 0.57163 0.17856 0.58969 0.0
C515 C 0.47411 0.13658 0.65549 0.0
O516 O 0.46976 0.15421 0.624 0.0
C517 C 0.60055 0.15634 0.47595 0.0
C518 C 0.64164 0.13962 0.47937 0.0
C519 C 0.62356 0.15176 0.45066 0.0
N520 N 0.60478 0.14668 0.51687 0.0
N521 N 0.62954 0.13719 0.51901 0.0
C522 C 0.57495 0.16987 0.46249 0.0
H523 H 0.56546 0.1796 0.49169 0.0
H524 H 0.56057 0.15474 0.44966 0.0
H525 H 0.57882 0.18503 0.43634 0.0
C526 C 0.51023 0.10237 0.54941 0.0
N527 N 0.52679 0.12128 0.56558 0.0
N528 N 0.54865 0.12263 0.54109 0.0
C529 C 0.54718 0.10343 0.50958 0.0
C530 C 0.52264 0.09014 0.51357 0.0
C531 C 0.48643 0.09166 0.57441 0.0
H532 H 0.47142 0.10786 0.57859 0.0
H533 H 0.4765 0.07476 0.55708 0.0
H534 H 0.49295 0.08472 0.6076 0.0
O535 O 0.56014 0.11683 0.65444 0.0
O536 O 0.59592 0.12209 0.61093 0.0
H537 H 0.58931 0.09447 0.5035 0.0
H538 H 0.56774 0.07362 0.46949 0.0
C539 C 0.57086 0.09411 0.48287 0.0
H540 H 0.57387 0.10783 0.45445 0.0
H541 H 0.63776 0.12804 0.54696 0.0
O542 O 0.49708 0.12564 0.65931 0.0
C543 C 0.58514 0.11352 0.64646 0.0
H544 H 0.62935 0.98213 0.24982 0.0
H545 H 0.55339 0.84114 0.25907 0.0
H546 H 0.64459 0.9182 0.15662 0.0
H547 H 0.53846 0.9074 0.34797 0.0
H548 H 0.59089 0.86635 0.22653 0.0
H549 H 0.6007 0.95209 0.29241 0.0
C550 C 0.62692 0.96162 0.23863 0.0
C551 C 0.63908 0.95272 0.19936 0.0
C552 C 0.57951 0.87521 0.25343 0.0
C553 C 0.6059 0.91825 0.2476 0.0
C554 C 0.5581 0.86087 0.27195 0.0
C555 C 0.54256 0.87231 0.30593 0.0
C556 C 0.58537 0.9011 0.26913 0.0
C557 C 0.54964 0.89786 0.32153 0.0
C558 C 0.61049 0.94446 0.26291 0.0
C559 C 0.63548 0.92588 0.18665 0.0
N560 N 0.57039 0.91141 0.30285 0.0
N561 N 0.61886 0.90964 0.2104 0.0
H562 H 0.63105 0.49928 0.2398 0.0
H563 H 0.55892 0.64216 0.23573 0.0
H564 H 0.65208 0.56208 0.33213 0.0
H565 H 0.52417 0.56849 0.18667 0.0
H566 H 0.59867 0.6168 0.25988 0.0
H567 H 0.59854 0.52924 0.20552 0.0
C568 C 0.62917 0.51955 0.25239 0.0
C569 C 0.64389 0.52805 0.28942 0.0
C570 C 0.5823 0.60636 0.24367 0.0
C571 C 0.60647 0.56227 0.25067 0.0
C572 C 0.55963 0.62072 0.23006 0.0
C573 C 0.53819 0.60739 0.20922 0.0
C574 C 0.58356 0.57866 0.23566 0.0
C575 C 0.54015 0.57963 0.20259 0.0
C576 C 0.61049 0.53657 0.23297 0.0
C577 C 0.64092 0.55466 0.30389 0.0
N578 N 0.56247 0.56624 0.21561 0.0
N579 N 0.62218 0.57081 0.28482 0.0
H580 H 0.84076 0.52643 0.23458 0.0
H581 H 0.9515 0.642 0.21675 0.0
H582 H 0.85404 0.5719 0.11493 0.0
H583 H 0.94962 0.57968 0.31596 0.0
H584 H 0.90928 0.62432 0.18611 0.0
H585 H 0.8726 0.55534 0.27316 0.0
C586 C 0.8499 0.54293 0.2167 0.0
C587 C 0.84523 0.54644 0.17129 0.0
C588 C 0.91808 0.61477 0.21485 0.0
C589 C 0.88209 0.57919 0.21494 0.0
C590 C 0.94218 0.62474 0.23223 0.0
C591 C 0.95424 0.61214 0.26874 0.0
C592 C 0.90593 0.59232 0.23458 0.0
C593 C 0.94123 0.58995 0.28765 0.0
C594 C 0.86822 0.5593 0.23864 0.0
C595 C 0.8573 0.56836 0.14988 0.0
N596 N 0.91785 0.58076 0.27032 0.0
N597 N 0.87569 0.58364 0.1717 0.0
H598 H 0.9761 0.88098 0.27067 0.0
H599 H 0.83933 0.95016 0.251 0.0
H600 H 0.92729 0.86574 0.15525 0.0
H601 H 0.86535 0.91934 0.3774 0.0
H602 H 0.87011 0.91901 0.21401 0.0
H603 H 0.93575 0.89562 0.31062 0.0
C604 C 0.95681 0.88049 0.25397 0.0
C605 C 0.95491 0.87241 0.20964 0.0
C606 C 0.8685 0.91857 0.24979 0.0
C607 C 0.90901 0.88931 0.25468 0.0
C608 C 0.85098 0.93629 0.27086 0.0
C609 C 0.85013 0.9375 0.31724 0.0
C610 C 0.88574 0.90264 0.27543 0.0
C611 C 0.86552 0.9191 0.34154 0.0
C612 C 0.93383 0.88858 0.27681 0.0
C613 C 0.9295 0.8719 0.18946 0.0
N614 N 0.88335 0.90292 0.32036 0.0
N615 N 0.90753 0.88083 0.21187 0.0
H616 H 0.34382 0.03723 0.73543 0.0
H617 H 0.47734 0.12238 0.74153 0.0
H618 H 0.39121 0.05012 0.85333 0.0
H619 H 0.42139 0.12813 0.63292 0.0
H620 H 0.44328 0.09925 0.78509 0.0
H621 H 0.36872 0.07351 0.69887 0.0
C622 C 0.35914 0.04794 0.75383 0.0
C623 C 0.3659 0.04026 0.79712 0.0
C624 C 0.43815 0.10589 0.75202 0.0
C625 C 0.39433 0.08153 0.75571 0.0
C626 C 0.45763 0.11906 0.72719 0.0
C627 C 0.4521 0.12689 0.68367 0.0
C628 C 0.41315 0.09985 0.73275 0.0
C629 C 0.42629 0.12234 0.66652 0.0
C630 C 0.37329 0.06865 0.73299 0.0
C631 C 0.38572 0.05493 0.81959 0.0
N632 N 0.40782 0.10856 0.69086 0.0
N633 N 0.39944 0.07459 0.79844 0.0
H634 H 0.38065 0.43024 0.64223 0.0
H635 H 0.43242 0.37057 0.87152 0.0
H636 H 0.38533 0.47686 0.76243 0.0
H637 H 0.47304 0.35639 0.74738 0.0
H638 H 0.39863 0.39753 0.83214 0.0
H639 H 0.39857 0.39135 0.68254 0.0
C640 C 0.38485 0.43205 0.67732 0.0
C641 C 0.38197 0.45671 0.69913 0.0
C642 C 0.41451 0.38776 0.81354 0.0
C643 C 0.40156 0.41257 0.74507 0.0
C644 C 0.43362 0.37235 0.83581 0.0
C645 C 0.4555 0.36164 0.81244 0.0
C646 C 0.41717 0.39174 0.76775 0.0
C647 C 0.45647 0.36462 0.76636 0.0
C648 C 0.39501 0.40996 0.70012 0.0
C649 C 0.38771 0.4582 0.74447 0.0
N650 N 0.43763 0.37962 0.7454 0.0
N651 N 0.39738 0.43638 0.76604 0.0
H652 H 0.03337 0.3422 0.73335 0.0
H653 H 0.09165 0.48904 0.73883 0.0
H654 H 0.03142 0.39548 0.62066 0.0
H655 H 0.12062 0.42816 0.82839 0.0
H656 H 0.06923 0.45441 0.69542 0.0
H657 H 0.06587 0.37222 0.76905 0.0
C658 C 0.04005 0.35995 0.71584 0.0
C659 C 0.02928 0.3666 0.67432 0.0
C660 C 0.08074 0.44853 0.72426 0.0
C661 C 0.06606 0.40097 0.71501 0.0
C662 C 0.0934 0.4683 0.74916 0.0
C663 C 0.10781 0.4614 0.78731 0.0
C664 C 0.08203 0.42168 0.73811 0.0
C665 C 0.10966 0.43424 0.7991 0.0
C666 C 0.05859 0.37704 0.73621 0.0
C667 C 0.0388 0.38975 0.653 0.0
N668 N 0.09653 0.41532 0.7749 0.0
N669 N 0.05632 0.40629 0.67387 0.0
H670 H 0.10349 0.01085 0.76451 0.0
H671 H 0.02663 0.144 0.76168 0.0
H672 H 0.11628 0.06535 0.65556 0.0
H673 H 0.06095 0.11606 0.88426 0.0
H674 H 0.05818 0.11545 0.72068 0.0
H675 H 0.08607 0.04819 0.80892 0.0
C676 C 0.10276 0.03074 0.75012 0.0
C677 C 0.11104 0.03513 0.70634 0.0
C678 C 0.05929 0.11613 0.7565 0.0
C679 C 0.09104 0.07756 0.75649 0.0
C680 C 0.04138 0.13237 0.77978 0.0
C681 C 0.04149 0.13231 0.82614 0.0
C682 C 0.07657 0.09906 0.77997 0.0
C683 C 0.06058 0.11672 0.84841 0.0
C684 C 0.09312 0.052 0.77554 0.0
C685 C 0.11 0.06124 0.68924 0.0
N686 N 0.07701 0.10009 0.82507 0.0
N687 N 0.0996 0.08147 0.7141 0.0
H688 H 0.77059 0.07761 0.3448 0.0
H689 H 0.73966 0.99427 0.12599 0.0
H690 H 0.78119 0.99189 0.33266 0.0
H691 H 0.73158 0.08027 0.13485 0.0
H692 H 0.76274 0.9943 0.19716 0.0
H693 H 0.75928 0.07963 0.26621 0.0
C694 C 0.77016 0.05915 0.32589 0.0
C695 C 0.77729 0.03456 0.3454 0.0
C696 C 0.75648 0.01327 0.1831 0.0
C697 C 0.76492 0.0369 0.25512 0.0
C698 C 0.74379 0.0133 0.14197 0.0
C699 C 0.7329 0.03717 0.12514 0.0
C700 C 0.75818 0.03726 0.20737 0.0
C701 C 0.73913 0.06129 0.14698 0.0
C702 C 0.76409 0.0604 0.28081 0.0
C703 C 0.77624 0.01135 0.31903 0.0
N704 N 0.7506 0.06064 0.18777 0.0
N705 N 0.77042 0.01313 0.27526 0.0
H706 H 0.49955 0.70787 0.16348 0.0
H707 H 0.41372 0.77008 0.36201 0.0
H708 H 0.41285 0.71151 0.1645 0.0
H709 H 0.50038 0.77416 0.35457 0.0
H710 H 0.4133 0.74456 0.29306 0.0
H711 H 0.50048 0.73311 0.23272 0.0
C712 C 0.48075 0.71504 0.17738 0.0
C713 C 0.4561 0.70756 0.15846 0.0
C714 C 0.43244 0.75065 0.30691 0.0
C715 C 0.45689 0.73511 0.23867 0.0
C716 C 0.43276 0.76463 0.34694 0.0
C717 C 0.45713 0.77463 0.36365 0.0
C718 C 0.45667 0.74651 0.2839 0.0
C719 C 0.48113 0.76707 0.34248 0.0
C720 C 0.48124 0.7289 0.2174 0.0
C721 C 0.43229 0.71702 0.17792 0.0
N722 N 0.48028 0.75391 0.30318 0.0
N723 N 0.43323 0.72985 0.2176 0.0
H724 H 0.77469 0.49439 0.13822 0.0
H725 H 0.73244 0.40148 0.34187 0.0
H726 H 0.76767 0.40815 0.12963 0.0
H727 H 0.73699 0.48789 0.34832 0.0
H728 H 0.75092 0.40304 0.26709 0.0
H729 H 0.76215 0.49211 0.21602 0.0
C730 C 0.77004 0.47498 0.15243 0.0
C731 C 0.77288 0.45138 0.12737 0.0
C732 C 0.74829 0.42163 0.28516 0.0
C733 C 0.75876 0.44863 0.21694 0.0
C734 C 0.73824 0.42075 0.32833 0.0
C735 C 0.73248 0.4447 0.35109 0.0
C736 C 0.7527 0.44657 0.26488 0.0
C737 C 0.74062 0.46897 0.3317 0.0
C738 C 0.76318 0.47368 0.19709 0.0
C739 C 0.7661 0.42688 0.14761 0.0
N740 N 0.74975 0.46934 0.28932 0.0
N741 N 0.75966 0.42613 0.19137 0.0
H742 H 0.99629 0.70486 0.33343 0.0
H743 H 0.08943 0.78234 0.15978 0.0
H744 H 0.08301 0.70475 0.33953 0.0
H745 H 0.00272 0.78549 0.15996 0.0
H746 H 0.08775 0.75052 0.22145 0.0
H747 H -0.00159 0.73521 0.27032 0.0
C748 C 0.01576 0.71209 0.32242 0.0
C749 C 0.0395 0.70233 0.34155 0.0
C750 C 0.06908 0.75774 0.20736 0.0
C751 C 0.0422 0.73595 0.26815 0.0
C752 C 0.07003 0.77534 0.17146 0.0
C753 C 0.04616 0.78649 0.15506 0.0
C754 C 0.04408 0.75137 0.22651 0.0
C755 C 0.02154 0.77726 0.17187 0.0
C756 C 0.01701 0.72896 0.28585 0.0
C757 C 0.06424 0.71202 0.32587 0.0
N758 N 0.02113 0.76056 0.20722 0.0
N759 N 0.06499 0.72798 0.28944 0.0
H760 H 0.20414 0.99296 0.67198 0.0
H761 H 0.27898 0.90776 0.85867 0.0
H762 H 0.21175 0.90687 0.66747 0.0
H763 H 0.27166 0.99406 0.8607 0.0
H764 H 0.25266 0.90661 0.79056 0.0
H765 H 0.2315 0.99376 0.73894 0.0
C766 C 0.21252 0.97431 0.6842 0.0
C767 C 0.20569 0.94982 0.66432 0.0
C768 C 0.25649 0.92576 0.80627 0.0
C769 C 0.23581 0.95038 0.74209 0.0
C770 C 0.27104 0.92642 0.84576 0.0
C771 C 0.27791 0.95112 0.86514 0.0
C772 C 0.24865 0.94994 0.7863 0.0
C773 C 0.26711 0.97459 0.84664 0.0
C774 C 0.22765 0.9747 0.72294 0.0
C775 C 0.21676 0.92619 0.68164 0.0
N776 N 0.25341 0.97345 0.80785 0.0
N777 N 0.23088 0.92698 0.72016 0.0
H778 H 0.59969 0.20718 0.64684 0.0
H779 H 0.5161 0.26703 0.849 0.0
H780 H 0.51384 0.22005 0.64702 0.0
H781 H 0.6018 0.27894 0.83823 0.0
H782 H 0.51687 0.24186 0.77978 0.0
H783 H 0.60276 0.23112 0.71756 0.0
C784 C 0.58166 0.21612 0.66066 0.0
C785 C 0.55639 0.2114 0.64134 0.0
C786 C 0.53563 0.24953 0.79292 0.0
C787 C 0.55962 0.23738 0.7229 0.0
C788 C 0.53528 0.26326 0.83302 0.0
C789 C 0.55885 0.27526 0.84902 0.0
C790 C 0.55975 0.24776 0.76878 0.0
C791 C 0.58318 0.26995 0.82695 0.0
C792 C 0.58336 0.22919 0.70155 0.0
C793 C 0.53367 0.22309 0.66103 0.0
N794 N 0.58296 0.25705 0.78724 0.0
N795 N 0.53573 0.235 0.70124 0.0
H796 H 0.20566 0.50339 0.82766 0.0
H797 H 0.28926 0.59164 0.65465 0.0
H798 H 0.21201 0.5895 0.83586 0.0
H799 H 0.29375 0.5054 0.66172 0.0
H800 H 0.25665 0.59128 0.71564 0.0
H801 H 0.23709 0.50362 0.76551 0.0
C802 C 0.21445 0.52226 0.81725 0.0
C803 C 0.20639 0.54644 0.83696 0.0
C804 C 0.26441 0.57241 0.70327 0.0
C805 C 0.24131 0.54704 0.7646 0.0
C806 C 0.2825 0.57258 0.6678 0.0
C807 C 0.29409 0.5485 0.65324 0.0
C808 C 0.2579 0.54797 0.72387 0.0
C809 C 0.28518 0.52437 0.67205 0.0
C810 C 0.23201 0.52246 0.78131 0.0
C811 C 0.218 0.5704 0.82189 0.0
N812 N 0.26784 0.52474 0.70676 0.0
N813 N 0.23459 0.57016 0.78604 0.0
H814 H 0.89431 0.2196 0.84393 0.0
H815 H 0.98158 0.2665 0.63639 0.0
H816 H 0.98085 0.22753 0.84475 0.0
H817 H 0.89501 0.27371 0.64064 0.0
H818 H 0.98076 0.24761 0.71075 0.0
H819 H 0.89326 0.24018 0.77068 0.0
C820 C 0.91303 0.22665 0.82962 0.0
C821 C 0.93782 0.22116 0.8501 0.0
C822 C 0.96189 0.25302 0.69522 0.0
C823 C 0.93675 0.24368 0.76559 0.0
C824 C 0.9623 0.26325 0.65233 0.0
C825 C 0.93839 0.27219 0.63247 0.0
C826 C 0.93739 0.25147 0.7183 0.0
C827 C 0.91398 0.2673 0.65469 0.0
C828 C 0.91243 0.23787 0.78728 0.0
C829 C 0.96133 0.23088 0.82982 0.0
N830 N 0.91414 0.25772 0.69682 0.0
N831 N 0.96029 0.24104 0.78819 0.0
H832 H 0.68391 0.13007 0.87011 0.0
H833 H 0.57121 0.07878 0.71236 0.0
H834 H 0.63892 0.05787 0.89699 0.0
H835 H 0.63794 0.12519 0.66224 0.0
H836 H 0.59714 0.06911 0.77914 0.0
H837 H 0.66912 0.1278 0.79268 0.0
C838 C 0.6715 0.1134 0.85946 0.0
C839 C 0.66289 0.094 0.88991 0.0
C840 C 0.60636 0.08094 0.75314 0.0
C841 C 0.64543 0.0916 0.80214 0.0
C842 C 0.59154 0.08648 0.71509 0.0
C843 C 0.60239 0.10297 0.68203 0.0
C844 C 0.63188 0.09261 0.75863 0.0
C845 C 0.62885 0.11238 0.68706 0.0
C846 C 0.66313 0.11207 0.81536 0.0
C847 C 0.64658 0.07295 0.87464 0.0
N848 N 0.64252 0.10758 0.7252 0.0
N849 N 0.63802 0.07256 0.83201 0.0
H850 H 0.44115 0.64866 0.90857 0.0
H851 H 0.36656 0.64097 0.67633 0.0
H852 H 0.36138 0.68024 0.88653 0.0
H853 H 0.43133 0.58939 0.71834 0.0
H854 H 0.37283 0.66805 0.74354 0.0
H855 H 0.44574 0.64054 0.83 0.0
C856 C 0.42493 0.65498 0.88728 0.0
C857 C 0.40087 0.6655 0.90452 0.0
C858 C 0.3861 0.65122 0.73735 0.0
C859 C 0.40571 0.65492 0.81389 0.0
C860 C 0.38271 0.63592 0.69892 0.0
C861 C 0.39828 0.61278 0.69226 0.0
C862 C 0.40542 0.64341 0.76871 0.0
C863 C 0.41873 0.60693 0.72263 0.0
C864 C 0.42748 0.6499 0.84214 0.0
C865 C 0.38025 0.67206 0.87466 0.0
N866 N 0.42152 0.62197 0.75978 0.0
N867 N 0.38298 0.66632 0.8308 0.0
H868 H 0.82455 0.3462 0.88385 0.0
H869 H 0.92848 0.39474 0.70465 0.0
H870 H 0.87258 0.41734 0.90268 0.0
H871 H 0.856 0.35264 0.6675 0.0
H872 H 0.9094 0.40231 0.77837 0.0
H873 H 0.83708 0.34624 0.80504 0.0
C874 C 0.83744 0.36198 0.87119 0.0
C875 C 0.84723 0.38201 0.89942 0.0
C876 C 0.89751 0.39181 0.75381 0.0
C877 C 0.86198 0.38195 0.81026 0.0
C878 C 0.90838 0.3875 0.7118 0.0
C879 C 0.89381 0.373 0.68006 0.0
C880 C 0.87223 0.38095 0.76437 0.0
C881 C 0.86785 0.36402 0.691 0.0
C882 C 0.84446 0.36209 0.82638 0.0
C883 C 0.86409 0.4019 0.88177 0.0
N884 N 0.85805 0.36771 0.73259 0.0
N885 N 0.87119 0.40121 0.83838 0.0
H886 H 0.14038 0.85479 0.68439 0.0
H887 H 0.06013 0.85114 0.91211 0.0
H888 H 0.06953 0.90129 0.71458 0.0
H889 H 0.14264 0.82542 0.89816 0.0
H890 H 0.05678 0.85513 0.83231 0.0
H891 H 0.13429 0.83011 0.75405 0.0
C892 C 0.12297 0.85907 0.70486 0.0
C893 C 0.10557 0.88026 0.69422 0.0
C894 C 0.07543 0.84795 0.84657 0.0
C895 C 0.09868 0.85247 0.77355 0.0
C896 C 0.07729 0.84528 0.89236 0.0
C897 C 0.10167 0.83759 0.91206 0.0
C898 C 0.09821 0.84334 0.82016 0.0
C899 C 0.1235 0.83146 0.88429 0.0
C900 C 0.11967 0.84519 0.74473 0.0
C901 C 0.08352 0.88526 0.72197 0.0
N902 N 0.12138 0.83478 0.8397 0.0
N903 N 0.08089 0.8717 0.76066 0.0
H904 H 0.64368 0.36052 0.8243 0.0
H905 H 0.64438 0.42716 0.58496 0.0
H906 H 0.57863 0.40756 0.77028 0.0
H907 H 0.6887 0.35526 0.61653 0.0
H908 H 0.63089 0.43103 0.66203 0.0
H909 H 0.6702 0.36966 0.75746 0.0
C910 C 0.63527 0.37336 0.79892 0.0
C911 C 0.6088 0.38301 0.80236 0.0
C912 C 0.64411 0.41478 0.65229 0.0
C913 C 0.63894 0.39351 0.72648 0.0
C914 C 0.65214 0.41269 0.60829 0.0
C915 C 0.66798 0.39096 0.59434 0.0
C916 C 0.65181 0.39494 0.68254 0.0
C917 C 0.67647 0.37229 0.62606 0.0
C918 C 0.65034 0.3784 0.76081 0.0
C919 C 0.59882 0.39945 0.76855 0.0
N920 N 0.66808 0.37456 0.66878 0.0
N921 N 0.61384 0.40401 0.73178 0.0
H922 H 0.13869 0.63997 0.81466 0.0
H923 H 0.05521 0.63929 0.59044 0.0
H924 H 0.06802 0.59223 0.78923 0.0
H925 H 0.13675 0.66854 0.6004 0.0
H926 H 0.05307 0.63589 0.67038 0.0
H927 H 0.13115 0.66384 0.7446 0.0
C928 C 0.12101 0.63527 0.79517 0.0
C929 C 0.10407 0.61398 0.80725 0.0
C930 C 0.07123 0.6437 0.65523 0.0
C931 C 0.09554 0.6408 0.72746 0.0
C932 C 0.07237 0.64604 0.60932 0.0
C933 C 0.09613 0.6546 0.58844 0.0
C934 C 0.09414 0.64944 0.68061 0.0
C935 C 0.11807 0.66181 0.61518 0.0
C936 C 0.11689 0.64867 0.75506 0.0
C937 C 0.08166 0.60839 0.78072 0.0
N938 N 0.11669 0.65875 0.65992 0.0
N939 N 0.07823 0.62147 0.74178 0.0
H940 H 0.82326 0.14565 0.5884 0.0
H941 H 0.92612 0.09664 0.7672 0.0
H942 H 0.86606 0.0708 0.57537 0.0
H943 H 0.85661 0.1432 0.80523 0.0
H944 H 0.90534 0.0882 0.69518 0.0
H945 H 0.83611 0.14719 0.66704 0.0
C946 C 0.83496 0.12938 0.60232 0.0
C947 C 0.84328 0.10788 0.57574 0.0
C948 C 0.89445 0.09991 0.71955 0.0
C949 C 0.85841 0.10974 0.66451 0.0
C950 C 0.90631 0.10475 0.76051 0.0
C951 C 0.89303 0.12064 0.79194 0.0
C952 C 0.8695 0.11166 0.70963 0.0
C953 C 0.86739 0.13071 0.78181 0.0
C954 C 0.84216 0.13019 0.64701 0.0
C955 C 0.85868 0.0874 0.59494 0.0
N956 N 0.85661 0.12647 0.74107 0.0
N957 N 0.86603 0.08899 0.63805 0.0
H958 H 0.34787 0.87616 0.57377 0.0
H959 H 0.37722 0.86266 0.83034 0.0
H960 H 0.39467 0.80924 0.62137 0.0
H961 H 0.37049 0.93824 0.76127 0.0
H962 H 0.37859 0.83952 0.75828 0.0
H963 H 0.34826 0.89533 0.64782 0.0
C964 C 0.35789 0.86525 0.60002 0.0
C965 C 0.37147 0.84118 0.59137 0.0
C966 C 0.37711 0.86118 0.75927 0.0
C967 C 0.37231 0.8633 0.67623 0.0
C968 C 0.3764 0.87441 0.80022 0.0
C969 C 0.37352 0.90245 0.80194 0.0
C970 C 0.3744 0.87614 0.72018 0.0
C971 C 0.37255 0.91663 0.76182 0.0
C972 C 0.35839 0.8764 0.64216 0.0
C973 C 0.38434 0.82807 0.62664 0.0
N974 N 0.37263 0.9033 0.72274 0.0
N975 N 0.38449 0.83934 0.6678 0.0
H976 H 0.3649 0.8445 0.32614 0.0
H977 H 0.35953 0.92354 0.09738 0.0
H978 H 0.42435 0.90237 0.28439 0.0
H979 H 0.32884 0.84295 0.11071 0.0
H980 H 0.37181 0.92336 0.17506 0.0
H981 H 0.34084 0.8513 0.25607 0.0
C982 C 0.37253 0.85909 0.30269 0.0
C983 C 0.39672 0.87281 0.31079 0.0
C984 C 0.36186 0.90593 0.16121 0.0
C985 C 0.36931 0.8807 0.23131 0.0
C986 C 0.35445 0.90609 0.11682 0.0
C987 C 0.3427 0.88331 0.09747 0.0
C988 C 0.35757 0.88284 0.1866 0.0
C989 C 0.33774 0.86095 0.12444 0.0
C990 C 0.35891 0.86277 0.26273 0.0
C991 C 0.40588 0.89127 0.27922 0.0
N992 N 0.34532 0.86119 0.16776 0.0
N993 N 0.39217 0.89464 0.24077 0.0
H994 H 0.69409 0.39263 0.26453 0.0
H995 H 0.5924 0.33412 0.10111 0.0
H996 H 0.62092 0.35684 0.3136 0.0
H997 H 0.67772 0.32917 0.07471 0.0
H998 H 0.60198 0.33901 0.17947 0.0
H999 H 0.68916 0.36737 0.19569 0.0
C1000 C 0.67723 0.37901 0.26093 0.0
C1001 C 0.65776 0.37681 0.29429 0.0
C1002 C 0.61857 0.33597 0.15668 0.0
C1003 C 0.65159 0.34845 0.21552 0.0
C1004 C 0.61311 0.33287 0.11164 0.0
C1005 C 0.63429 0.33103 0.08092 0.0
C1006 C 0.64534 0.33808 0.17086 0.0
C1007 C 0.66076 0.33076 0.09714 0.0
C1008 C 0.67447 0.36452 0.22182 0.0
C1009 C 0.63629 0.35896 0.28838 0.0
N1010 N 0.66557 0.33486 0.14087 0.0
N1011 N 0.63337 0.34587 0.24909 0.0
H1012 H 0.17266 0.6408 0.10921 0.0
H1013 H 0.07634 0.56885 0.27247 0.0
H1014 H 0.14558 0.55956 0.08766 0.0
H1015 H 0.13128 0.62954 0.31922 0.0
H1016 H 0.10402 0.56337 0.20613 0.0
H1017 H 0.16088 0.63623 0.18772 0.0
C1018 C 0.16501 0.62177 0.1211 0.0
C1019 C 0.16016 0.6006 0.09147 0.0
C1020 C 0.11042 0.57746 0.23134 0.0
C1021 C 0.14605 0.59545 0.18085 0.0
C1022 C 0.09461 0.58056 0.26917 0.0
C1023 C 0.1015 0.59974 0.30114 0.0
C1024 C 0.1328 0.59425 0.2248 0.0
C1025 C 0.12534 0.61447 0.29531 0.0
C1026 C 0.1583 0.61917 0.1659 0.0
C1027 C 0.15006 0.57643 0.10875 0.0
N1028 N 0.13983 0.6119 0.25726 0.0
N1029 N 0.14284 0.57473 0.15202 0.0
H1030 H 0.851 0.12687 0.30298 0.0
H1031 H 0.81521 0.1203 0.04541 0.0
H1032 H 0.81998 0.05721 0.23491 0.0
H1033 H 0.86913 0.17993 0.09913 0.0
H1034 H 0.80747 0.1033 0.11969 0.0
H1035 H 0.85011 0.1516 0.2326 0.0
C1036 C 0.84384 0.11685 0.27342 0.0
C1037 C 0.8357 0.08987 0.27478 0.0
C1038 C 0.82095 0.12018 0.11529 0.0
C1039 C 0.83422 0.11807 0.19487 0.0
C1040 C 0.82524 0.13009 0.07286 0.0
C1041 C 0.84365 0.151 0.06572 0.0
C1042 C 0.83506 0.13127 0.15107 0.0
C1043 C 0.85573 0.163 0.10281 0.0
C1044 C 0.84333 0.13096 0.2334 0.0
C1045 C 0.82657 0.07789 0.23551 0.0
N1046 N 0.85151 0.15272 0.144 0.0
N1047 N 0.82607 0.09207 0.19727 0.0
H1048 H 0.36016 0.64386 0.17907 0.0
H1049 H 0.35293 0.56313 0.40597 0.0
H1050 H 0.40722 0.5738 0.21053 0.0
H1051 H 0.33188 0.6468 0.3941 0.0
H1052 H 0.3576 0.56042 0.32611 0.0
H1053 H 0.33526 0.63814 0.2488 0.0
C1054 C 0.36454 0.62671 0.19986 0.0
C1055 C 0.38588 0.60938 0.18946 0.0
C1056 C 0.35126 0.5792 0.34086 0.0
C1057 C 0.35774 0.60284 0.26874 0.0
C1058 C 0.34822 0.58074 0.38666 0.0
C1059 C 0.34177 0.60525 0.40698 0.0
C1060 C 0.3481 0.60236 0.3151 0.0
C1061 C 0.33695 0.62754 0.37975 0.0
C1062 C 0.35052 0.62362 0.23973 0.0
C1063 C 0.39104 0.5877 0.21767 0.0
N1064 N 0.34054 0.62567 0.33516 0.0
N1065 N 0.37725 0.58519 0.25627 0.0
H1066 H 0.81163 0.42693 0.23896 0.0
H1067 H 0.8664 0.30411 0.37854 0.0
H1068 H 0.85004 0.35899 0.1766 0.0
H1069 H 0.8129 0.36492 0.42974 0.0
H1070 H 0.85879 0.32135 0.30364 0.0
H1071 H 0.81006 0.40246 0.30819 0.0
C1072 C 0.81961 0.40673 0.23971 0.0
C1073 C 0.83108 0.39505 0.20185 0.0
C1074 C 0.8485 0.33067 0.33131 0.0
C1075 C 0.82982 0.36689 0.28186 0.0
C1076 C 0.85307 0.32102 0.37416 0.0
C1077 C 0.8411 0.33373 0.41075 0.0
C1078 C 0.83187 0.35314 0.32523 0.0
C1079 C 0.82291 0.35469 0.40272 0.0
C1080 C 0.81866 0.39269 0.27941 0.0
C1081 C 0.84108 0.36878 0.20504 0.0
N1082 N 0.81921 0.36397 0.361 0.0
N1083 N 0.84056 0.35566 0.2446 0.0
H1084 H 0.0891 0.92378 0.22488 0.0
H1085 H 0.17786 0.85003 0.39686 0.0
H1086 H 0.13858 0.85665 0.18646 0.0
H1087 H 0.1531 0.93246 0.41259 0.0
H1088 H 0.16865 0.85359 0.31737 0.0
H1089 H 0.11685 0.92985 0.29074 0.0
C1090 C 0.10629 0.91076 0.22986 0.0
C1091 C 0.11153 0.88962 0.20054 0.0
C1092 C 0.16609 0.87113 0.33813 0.0
C1093 C 0.14282 0.89575 0.27652 0.0
C1094 C 0.17133 0.8691 0.3835 0.0
C1095 C 0.1663 0.89092 0.41176 0.0
C1096 C 0.15516 0.89498 0.32117 0.0
C1097 C 0.1577 0.91512 0.39263 0.0
C1098 C 0.12215 0.91418 0.26745 0.0
C1099 C 0.13398 0.87323 0.20838 0.0
N1100 N 0.15192 0.91631 0.34878 0.0
N1101 N 0.14844 0.87619 0.24633 0.0
H1102 H 0.68806 0.08941 0.21934 0.0
H1103 H 0.58554 0.14789 0.38377 0.0
H1104 H 0.61304 0.12131 0.17103 0.0
H1105 H 0.67092 0.1567 0.40627 0.0
H1106 H 0.59439 0.14055 0.30561 0.0
H1107 H 0.68239 0.11513 0.28769 0.0
C1108 C 0.67059 0.10225 0.22304 0.0
C1109 C 0.6509 0.10331 0.18999 0.0
C1110 C 0.61111 0.14491 0.32746 0.0
C1111 C 0.64392 0.13217 0.26816 0.0
C1112 C 0.60606 0.14944 0.37234 0.0
C1113 C 0.62751 0.15318 0.40202 0.0
C1114 C 0.63778 0.14333 0.3124 0.0
C1115 C 0.65377 0.1537 0.38474 0.0
C1116 C 0.66741 0.11699 0.26184 0.0
C1117 C 0.62862 0.12014 0.19599 0.0
N1118 N 0.65821 0.14826 0.34126 0.0
N1119 N 0.62537 0.13352 0.23496 0.0
H1120 H 0.55149 0.05128 0.06041 0.0
H1121 H 0.45089 0.94354 0.95487 0.0
H1122 H 0.57814 0.9791 0.99534 0.0
H1123 H 0.42464 0.00853 0.03852 0.0
H1124 H 0.49768 0.95667 0.96771 0.0
H1125 H 0.50463 0.03748 0.0488 0.0
C1126 C 0.54731 0.0328 0.0428 0.0
C1127 C 0.56837 0.01645 0.02798 0.0
C1128 C 0.48175 0.96789 0.98378 0.0
C1129 C 0.51527 0.00015 0.01576 0.0
C1130 C 0.45513 0.9602 0.97685 0.0
C1131 C 0.43415 0.97478 -0.00363 0.0
C1132 C 0.48732 0.99055 0.00987 0.0
C1133 C 0.44046 -0.00332 0.02343 0.0
C1134 C 0.52069 0.02475 0.03668 0.0
C1135 C 0.56224 0.99234 0.00652 0.0
N1136 N 0.46654 0.00406 0.02922 0.0
N1137 N 0.53618 0.98487 0.00102 0.0
H1138 H 0.55855 0.44429 0.95599 0.0
H1139 H 0.44173 0.54242 0.0403 0.0
H1140 H 0.48508 0.41649 0.01639 0.0
H1141 H 0.51387 0.56985 0.97535 0.0
H1142 H 0.45634 0.496 0.02946 0.0
H1143 H 0.54316 0.49061 0.96491 0.0
C1144 C 0.53955 0.4481 0.97252 0.0
C1145 C 0.52321 0.4268 0.98635 0.0
C1146 C 0.46879 0.5121 0.01682 0.0
C1147 C 0.5049 0.47941 0.99482 0.0
C1148 C 0.46021 0.53851 0.0223 0.0
C1149 C 0.4765 0.55973 0.00799 0.0
C1150 C 0.49398 0.50701 -0.00266 0.0
C1151 C 0.50065 0.55386 0.98613 0.0
C1152 C 0.53054 0.47445 0.97687 0.0
C1153 C 0.49838 0.43255 0.00616 0.0
N1154 N 0.50883 0.528 0.98184 0.0
N1155 N 0.48986 0.45836 0.00957 0.0
H1156 H 0.0746 0.4815 0.01762 0.0
H1157 H 0.91638 0.51158 0.01841 0.0
H1158 H 0.03911 0.55452 0.96893 0.0
H1159 H 0.95058 0.43849 0.06938 0.0
H1160 H 0.96166 0.52831 0.00293 0.0
H1161 H 0.02992 0.46633 0.04179 0.0
C1162 C 0.05741 0.49459 0.01326 0.0
C1163 C 0.06033 0.5194 0.99215 0.0
C1164 C 0.95937 0.50853 0.01724 0.0
C1165 C 0.00938 0.50206 0.01807 0.0
C1166 C 0.93357 0.49897 0.02574 0.0
C1167 C 0.92997 0.47351 0.04426 0.0
C1168 C 0.98175 0.49251 0.02754 0.0
C1169 C 0.95267 0.45798 0.05398 0.0
C1170 C 0.03195 0.48588 0.02656 0.0
C1171 C 0.03759 0.53549 0.986 0.0
N1172 N 0.97771 0.46773 0.04544 0.0
N1173 N 0.01299 0.52645 -0.00135 0.0
H1174 H 0.9756 0.92318 0.99565 0.0
H1175 H 0.99352 0.0805 0.0357 0.0
H1176 H 0.0471 0.95873 0.05081 0.0
H1177 H 0.93386 0.04838 0.94688 0.0
H1178 H 0.01024 0.03497 0.04894 0.0
H1179 H 0.95779 0.96825 0.98092 0.0
C1180 C 0.98783 0.94057 0.00328 0.0
C1181 C 0.01299 0.93754 0.02345 0.0
C1182 C 0.99323 0.03781 0.02706 0.0
C1183 C 0.99247 0.98873 0.00893 0.0
C1184 C 0.98347 0.06367 0.02015 0.0
C1185 C 0.96201 0.06788 0.99103 0.0
C1186 C 0.98142 0.01613 0.00452 0.0
C1187 C 0.95004 0.04569 0.97047 0.0
C1188 C 0.97759 0.96619 0.99548 0.0
C1189 C 0.02786 0.96046 0.03426 0.0
N1190 N 0.95997 0.02068 0.97751 0.0
N1191 N 0.01725 0.98517 0.02724 0.0
H1192 H 0.42557 0.47262 0.4969 0.0
H1193 H 0.55275 0.42745 0.42933 0.0
H1194 H 0.46394 0.54914 0.51624 0.0
H1195 H 0.5815 0.50335 0.47814 0.0
H1196 H 0.50665 0.44162 0.44414 0.0
H1197 H 0.46831 0.45381 0.47267 0.0
C1198 C 0.44299 0.48562 0.49447 0.0
C1199 C 0.44126 0.5125 0.50759 0.0
C1200 C 0.52281 0.45514 0.45269 0.0
C1201 C 0.49067 0.49125 0.48047 0.0
C1202 C 0.54921 0.44688 0.44434 0.0
C1203 C 0.57074 0.46408 0.45357 0.0
C1204 C 0.51804 0.48083 0.47054 0.0
C1205 C 0.5653 0.48941 0.47137 0.0
C1206 C 0.46757 0.47489 0.48079 0.0
C1207 C 0.46439 0.52846 0.50528 0.0
N1208 N 0.53949 0.49702 0.47929 0.0
N1209 N 0.48818 0.51753 0.49231 0.0
H1210 H 0.97277 0.56377 0.5184 0.0
H1211 H 0.98516 0.4134 0.42871 0.0
H1212 H 0.03933 0.53494 0.44025 0.0
H1213 H 0.93083 0.43559 0.53385 0.0
H1214 H 0.00181 0.45968 0.42645 0.0
H1215 H 0.95518 0.51779 0.52271 0.0
C1216 C 0.98412 0.54751 0.5036 0.0
C1217 C 0.00768 0.5528 0.47969 0.0
C1218 C 0.98593 0.45454 0.44955 0.0
C1219 C 0.98722 0.5008 0.48236 0.0
C1220 C 0.97615 0.42833 0.45021 0.0
C1221 C 0.95635 0.42101 0.48088 0.0
C1222 C 0.9758 0.47344 0.47988 0.0
C1223 C 0.94572 0.44074 0.50903 0.0
C1224 C 0.97392 0.52144 0.50539 0.0
C1225 C 0.02135 0.5314 0.45972 0.0
N1226 N 0.95569 0.46609 0.50805 0.0
N1227 N 0.01075 0.50634 0.46104 0.0
H1228 H 0.04155 0.93515 0.52083 0.0
H1229 H 0.95066 0.05277 0.41959 0.0
H1230 H 0.07304 0.0129 0.48645 0.0
H1231 H 0.91976 0.97637 0.46276 0.0
H1232 H 0.99626 0.03804 0.43933 0.0
H1233 H -0.0025 0.94863 0.49256 0.0
C1234 C 0.03926 0.95481 0.50607 0.0
C1235 C 0.06084 0.97284 0.50504 0.0
C1236 C 0.97949 0.02455 0.4447 0.0
C1237 C 0.01047 0.98886 0.47436 0.0
C1238 C 0.95352 0.03308 0.43396 0.0
C1239 C 0.93159 0.01589 0.44057 0.0
C1240 C 0.98339 -0.0014 0.46175 0.0
C1241 C 0.93626 0.99024 0.45773 0.0
C1242 C 0.01409 0.96267 0.4905 0.0
C1243 C 0.05681 -0.0016 0.48707 0.0
N1244 N 0.96165 0.98237 0.46779 0.0
N1245 N 0.032 0.00577 0.47263 0.0
H1246 H 0.50098 0.9213 0.54891 0.0
H1247 H 0.48261 0.07155 0.46027 0.0
H1248 H 0.44162 0.94347 0.45181 0.0
H1249 H 0.54817 0.04589 0.54321 0.0
H1250 H 0.46613 0.02514 0.45764 0.0
H1251 H 0.51587 0.96811 0.55239 0.0
C1252 C 0.4905 0.93632 0.52957 0.0
C1253 C 0.46982 0.92888 0.50071 0.0
C1254 C 0.48439 0.02957 0.47577 0.0
C1255 C 0.4873 0.98194 0.50281 0.0
C1256 C 0.49397 0.05589 0.4766 0.0
C1257 C 0.51697 0.06218 0.5012 0.0
C1258 C 0.4978 0.00967 0.50026 0.0
C1259 C 0.53065 0.04155 0.52313 0.0
C1260 C 0.49926 0.96287 0.53088 0.0
C1261 C 0.45728 0.94872 0.47518 0.0
N1262 N 0.52072 0.01621 0.52246 0.0
N1263 N 0.46637 0.97438 0.47654 0.0
loop_
_geom_bond_atom_site_label_1
_geom_bond_atom_site_label_2
_geom_bond_distance
_geom_bond_site_symmetry_2
_ccdc_geom_bond_type
Co0 O3 1.970 . S
Co0 N17 1.989 . S
Co0 O25 1.967 . S
Co0 O32 1.920 . S
Co1 O4 1.966 . S
Co1 N10 2.022 . S
Co1 N18 1.993 . S
Co1 O26 1.941 . S
C2 O3 1.258 . S
C2 O4 1.263 . S
O3 Co0 1.970 . S
O3 C2 1.258 . S
O4 Co1 1.966 . S
O4 C2 1.263 . S
C5 O6 1.235 . S
C5 O32 1.289 1_565 S
O6 C5 1.235 . S
C7 C9 1.400 1_554 S
C7 N10 1.351 . S
C7 C12 1.501 . S
C8 C9 1.387 . S
C8 N11 1.341 1_556 S
C9 C7 1.400 1_556 S
C9 C8 1.387 . S
N10 Co1 2.022 . S
N10 C7 1.351 . S
N10 N11 1.365 . S
N11 C8 1.341 1_554 S
N11 N10 1.365 . S
N11 H31 0.862 . S
C12 C7 1.501 . S
C12 H13 0.961 . S
C12 H14 0.961 1_554 S
C12 H15 0.960 . S
H13 C12 0.961 . S
H14 C12 0.961 1_556 S
H15 C12 0.960 . S
C16 N17 1.342 . S
C16 C20 1.401 . S
C16 C21 1.499 1_545 S
N17 Co0 1.989 . S
N17 C16 1.342 . S
N17 N18 1.388 . S
N18 Co1 1.993 . S
N18 N17 1.388 . S
N18 C19 1.346 . S
C19 N18 1.346 . S
C19 C20 1.396 . S
C19 C29 1.510 1_554 S
C20 C16 1.401 . S
C20 C19 1.396 . S
C21 C16 1.499 1_565 S
C21 H22 0.959 . S
C21 H23 0.960 . S
C21 H24 0.961 1_565 S
H22 C21 0.959 . S
H23 C21 0.960 . S
H24 C21 0.961 1_545 S
O25 Co0 1.967 . S
O25 C33 1.258 . S
O26 Co1 1.941 . S
O26 C33 1.266 . S
H27 C29 0.959 . S
H28 C29 0.961 . S
C29 C19 1.510 1_556 S
C29 H27 0.959 . S
C29 H28 0.961 . S
C29 H30 0.960 . S
H30 C29 0.960 . S
H31 N11 0.862 . S
O32 Co0 1.920 . S
O32 C5 1.289 1_545 S
C33 O25 1.258 . S
C33 O26 1.266 . S
Co34 O37 1.970 . S
Co34 N51 1.989 . S
Co34 O59 1.967 . S
Co34 O66 1.920 . S
Co35 O38 1.966 . S
Co35 N44 2.022 . S
Co35 N52 1.993 . S
Co35 O60 1.941 . S
C36 O37 1.258 . S
C36 O38 1.263 . S
O37 Co34 1.970 . S
O37 C36 1.258 . S
O38 Co35 1.966 . S
O38 C36 1.263 . S
C39 O40 1.235 . S
C39 O66 1.289 . S
O40 C39 1.235 . S
C41 C43 1.400 1_554 S
C41 N44 1.351 . S
C41 C46 1.501 . S
C42 C43 1.387 . S
C42 N45 1.341 1_556 S
C43 C41 1.400 1_556 S
C43 C42 1.387 . S
N44 Co35 2.022 . S
N44 C41 1.351 . S
N44 N45 1.365 . S
N45 C42 1.341 1_554 S
N45 N44 1.365 . S
N45 H65 0.862 . S
C46 C41 1.501 . S
C46 H47 0.961 . S
C46 H48 0.961 1_554 S
C46 H49 0.960 . S
H47 C46 0.961 . S
H48 C46 0.961 1_556 S
H49 C46 0.960 . S
C50 N51 1.342 . S
C50 C54 1.401 . S
C50 C55 1.499 . S
N51 Co34 1.989 . S
N51 C50 1.342 . S
N51 N52 1.388 . S
N52 Co35 1.993 . S
N52 N51 1.388 . S
N52 C53 1.346 . S
C53 N52 1.346 . S
C53 C54 1.396 . S
C53 C63 1.510 1_554 S
C54 C50 1.401 . S
C54 C53 1.396 . S
C55 C50 1.499 . S
C55 H56 0.959 . S
C55 H57 0.960 . S
C55 H58 0.961 . S
H56 C55 0.959 . S
H57 C55 0.960 . S
H58 C55 0.961 . S
O59 Co34 1.967 . S
O59 C67 1.258 . S
O60 Co35 1.941 . S
O60 C67 1.266 . S
H61 C63 0.959 . S
H62 C63 0.961 . S
C63 C53 1.510 1_556 S
C63 H61 0.959 . S
C63 H62 0.961 . S
C63 H64 0.960 . S
H64 C63 0.960 . S
H65 N45 0.862 . S
O66 Co34 1.920 . S
O66 C39 1.289 . S
C67 O59 1.258 . S
C67 O60 1.266 . S
Co68 O71 1.970 . S
Co68 N85 1.989 . S
Co68 O93 1.967 . S
Co68 O100 1.920 . S
Co69 O72 1.966 . S
Co69 N78 2.022 . S
Co69 N86 1.993 . S
Co69 O94 1.941 . S
C70 O71 1.258 . S
C70 O72 1.263 . S
O71 Co68 1.970 . S
O71 C70 1.258 . S
O72 Co69 1.966 . S
O72 C70 1.263 . S
C73 O74 1.235 . S
C73 O100 1.289 . S
O74 C73 1.235 . S
C75 C77 1.400 1_554 S
C75 N78 1.351 . S
C75 C80 1.501 . S
C76 C77 1.387 . S
C76 N79 1.341 1_556 S
C77 C75 1.400 1_556 S
C77 C76 1.387 . S
N78 Co69 2.022 . S
N78 C75 1.351 . S
N78 N79 1.365 . S
N79 C76 1.341 1_554 S
N79 N78 1.365 . S
N79 H99 0.862 . S
C80 C75 1.501 . S
C80 H81 0.961 . S
C80 H82 0.961 1_554 S
C80 H83 0.960 . S
H81 C80 0.961 . S
H82 C80 0.961 1_556 S
H83 C80 0.960 . S
C84 N85 1.342 . S
C84 C88 1.401 . S
C84 C89 1.499 . S
N85 Co68 1.989 . S
N85 C84 1.342 . S
N85 N86 1.388 . S
N86 Co69 1.993 . S
N86 N85 1.388 . S
N86 C87 1.346 . S
C87 N86 1.346 . S
C87 C88 1.396 . S
C87 C97 1.510 1_554 S
C88 C84 1.401 . S
C88 C87 1.396 . S
C89 C84 1.499 . S
C89 H90 0.959 . S
C89 H91 0.960 . S
C89 H92 0.961 . S
H90 C89 0.959 . S
H91 C89 0.960 . S
H92 C89 0.961 . S
O93 Co68 1.967 . S
O93 C101 1.258 . S
O94 Co69 1.941 . S
O94 C101 1.266 . S
H95 C97 0.959 . S
H96 C97 0.961 . S
C97 C87 1.510 1_556 S
C97 H95 0.959 . S
C97 H96 0.961 . S
C97 H98 0.960 . S
H98 C97 0.960 . S
H99 N79 0.862 . S
O100 Co68 1.920 . S
O100 C73 1.289 . S
C101 O93 1.258 . S
C101 O94 1.266 . S
Co102 O105 1.970 . S
Co102 N119 1.989 . S
Co102 O127 1.967 . S
Co102 O134 1.920 . S
Co103 O106 1.966 . S
Co103 N112 2.022 . S
Co103 N120 1.993 . S
Co103 O128 1.941 . S
C104 O105 1.258 . S
C104 O106 1.263 . S
O105 Co102 1.970 . S
O105 C104 1.258 . S
O106 Co103 1.966 . S
O106 C104 1.263 . S
C107 O108 1.235 . S
C107 O134 1.289 1_655 S
O108 C107 1.235 . S
C109 C111 1.400 1_554 S
C109 N112 1.351 . S
C109 C114 1.501 . S
C110 C111 1.387 . S
C110 N113 1.341 1_556 S
C111 C109 1.400 1_556 S
C111 C110 1.387 . S
N112 Co103 2.022 . S
N112 C109 1.351 . S
N112 N113 1.365 . S
N113 C110 1.341 1_554 S
N113 N112 1.365 . S
N113 H133 0.862 . S
C114 C109 1.501 . S
C114 H115 0.961 . S
C114 H116 0.961 1_554 S
C114 H117 0.960 . S
H115 C114 0.961 . S
H116 C114 0.961 1_556 S
H117 C114 0.960 . S
C118 N119 1.342 . S
C118 C122 1.401 . S
C118 C123 1.499 1_455 S
N119 Co102 1.989 . S
N119 C118 1.342 . S
N119 N120 1.388 . S
N120 Co103 1.993 . S
N120 N119 1.388 . S
N120 C121 1.346 . S
C121 N120 1.346 . S
C121 C122 1.396 . S
C121 C131 1.510 1_554 S
C122 C118 1.401 . S
C122 C121 1.396 . S
C123 C118 1.499 1_655 S
C123 H124 0.959 . S
C123 H125 0.960 . S
C123 H126 0.961 1_655 S
H124 C123 0.959 . S
H125 C123 0.960 . S
H126 C123 0.961 1_455 S
O127 Co102 1.967 . S
O127 C135 1.258 . S
O128 Co103 1.941 . S
O128 C135 1.266 . S
H129 C131 0.959 . S
H130 C131 0.961 . S
C131 C121 1.510 1_556 S
C131 H129 0.959 . S
C131 H130 0.961 . S
C131 H132 0.960 . S
H132 C131 0.960 . S
H133 N113 0.862 . S
O134 Co102 1.920 . S
O134 C107 1.289 1_455 S
C135 O127 1.258 . S
C135 O128 1.266 . S
Co136 O139 1.970 . S
Co136 N153 1.989 . S
Co136 O161 1.967 . S
Co136 O168 1.920 . S
Co137 O140 1.966 . S
Co137 N146 2.022 . S
Co137 N154 1.993 . S
Co137 O162 1.941 . S
C138 O139 1.258 . S
C138 O140 1.263 . S
O139 Co136 1.970 . S
O139 C138 1.258 . S
O140 Co137 1.966 . S
O140 C138 1.263 . S
C141 O142 1.235 . S
C141 O168 1.289 . S
O142 C141 1.235 . S
C143 C145 1.400 . S
C143 N146 1.351 . S
C143 C148 1.501 . S
C144 C145 1.387 . S
C144 N147 1.341 . S
C145 C143 1.400 . S
C145 C144 1.387 . S
N146 Co137 2.022 . S
N146 C143 1.351 . S
N146 N147 1.365 . S
N147 C144 1.341 . S
N147 N146 1.365 . S
N147 H167 0.862 . S
C148 C143 1.501 . S
C148 H149 0.961 . S
C148 H150 0.961 . S
C148 H151 0.960 . S
H149 C148 0.961 . S
H150 C148 0.961 . S
H151 C148 0.960 . S
C152 N153 1.342 . S
C152 C156 1.401 . S
C152 C157 1.499 . S
N153 Co136 1.989 . S
N153 C152 1.342 . S
N153 N154 1.388 . S
N154 Co137 1.993 . S
N154 N153 1.388 . S
N154 C155 1.346 . S
C155 N154 1.346 . S
C155 C156 1.396 . S
C155 C165 1.510 . S
C156 C152 1.401 . S
C156 C155 1.396 . S
C157 C152 1.499 . S
C157 H158 0.959 . S
C157 H159 0.960 . S
C157 H160 0.961 . S
H158 C157 0.959 . S
H159 C157 0.960 . S
H160 C157 0.961 . S
O161 Co136 1.967 . S
O161 C169 1.258 . S
O162 Co137 1.941 . S
O162 C169 1.266 . S
H163 C165 0.959 . S
H164 C165 0.961 . S
C165 C155 1.510 . S
C165 H163 0.959 . S
C165 H164 0.961 . S
C165 H166 0.960 . S
H166 C165 0.960 . S
H167 N147 0.862 . S
O168 Co136 1.920 . S
O168 C141 1.289 . S
C169 O161 1.258 . S
C169 O162 1.266 . S
Co170 O173 1.970 . S
Co170 N187 1.989 . S
Co170 O195 1.967 . S
Co170 O202 1.920 . S
Co171 O174 1.966 . S
Co171 N180 2.022 . S
Co171 N188 1.993 . S
Co171 O196 1.941 . S
C172 O173 1.258 . S
C172 O174 1.263 . S
O173 Co170 1.970 . S
O173 C172 1.258 . S
O174 Co171 1.966 . S
O174 C172 1.263 . S
C175 O176 1.235 . S
C175 O202 1.289 1_655 S
O176 C175 1.235 . S
C177 C179 1.400 . S
C177 N180 1.351 . S
C177 C182 1.501 . S
C178 C179 1.387 . S
C178 N181 1.341 . S
C179 C177 1.400 . S
C179 C178 1.387 . S
N180 Co171 2.022 . S
N180 C177 1.351 . S
N180 N181 1.365 . S
N181 C178 1.341 . S
N181 N180 1.365 . S
N181 H201 0.862 . S
C182 C177 1.501 . S
C182 H183 0.961 . S
C182 H184 0.961 . S
C182 H185 0.960 . S
H183 C182 0.961 . S
H184 C182 0.961 . S
H185 C182 0.960 . S
C186 N187 1.342 . S
C186 C190 1.401 . S
C186 C191 1.499 1_455 S
N187 Co170 1.989 . S
N187 C186 1.342 . S
N187 N188 1.388 . S
N188 Co171 1.993 . S
N188 N187 1.388 . S
N188 C189 1.346 . S
C189 N188 1.346 . S
C189 C190 1.396 . S
C189 C199 1.510 . S
C190 C186 1.401 . S
C190 C189 1.396 . S
C191 C186 1.499 1_655 S
C191 H192 0.959 . S
C191 H193 0.960 . S
C191 H194 0.961 1_655 S
H192 C191 0.959 . S
H193 C191 0.960 . S
H194 C191 0.961 1_455 S
O195 Co170 1.967 . S
O195 C203 1.258 . S
O196 Co171 1.941 . S
O196 C203 1.266 . S
H197 C199 0.959 . S
H198 C199 0.961 . S
C199 C189 1.510 . S
C199 H197 0.959 . S
C199 H198 0.961 . S
C199 H200 0.960 . S
H200 C199 0.960 . S
H201 N181 0.862 . S
O202 Co170 1.920 . S
O202 C175 1.289 1_455 S
C203 O195 1.258 . S
C203 O196 1.266 . S
Co204 O207 1.970 . S
Co204 N221 1.989 . S
Co204 O229 1.967 . S
Co204 O236 1.920 . S
Co205 O208 1.966 . S
Co205 N214 2.022 . S
Co205 N222 1.993 . S
Co205 O230 1.941 . S
C206 O207 1.258 . S
C206 O208 1.263 . S
O207 Co204 1.970 . S
O207 C206 1.258 . S
O208 Co205 1.966 . S
O208 C206 1.263 . S
C209 O210 1.235 . S
C209 O236 1.289 1_565 S
O210 C209 1.235 . S
C211 C213 1.400 . S
C211 N214 1.351 . S
C211 C216 1.501 . S
C212 C213 1.387 . S
C212 N215 1.341 . S
C213 C211 1.400 . S
C213 C212 1.387 . S
N214 Co205 2.022 . S
N214 C211 1.351 . S
N214 N215 1.365 . S
N215 C212 1.341 . S
N215 N214 1.365 . S
N215 H235 0.862 . S
C216 C211 1.501 . S
C216 H217 0.961 . S
C216 H218 0.961 . S
C216 H219 0.960 . S
H217 C216 0.961 . S
H218 C216 0.961 . S
H219 C216 0.960 . S
C220 N221 1.342 . S
C220 C224 1.401 . S
C220 C225 1.499 1_545 S
N221 Co204 1.989 . S
N221 C220 1.342 . S
N221 N222 1.388 . S
N222 Co205 1.993 . S
N222 N221 1.388 . S
N222 C223 1.346 . S
C223 N222 1.346 . S
C223 C224 1.396 . S
C223 C233 1.510 . S
C224 C220 1.401 . S
C224 C223 1.396 . S
C225 C220 1.499 1_565 S
C225 H226 0.959 . S
C225 H227 0.960 . S
C225 H228 0.961 1_565 S
H226 C225 0.959 . S
H227 C225 0.960 . S
H228 C225 0.961 1_545 S
O229 Co204 1.967 . S
O229 C237 1.258 . S
O230 Co205 1.941 . S
O230 C237 1.266 . S
H231 C233 0.959 . S
H232 C233 0.961 . S
C233 C223 1.510 . S
C233 H231 0.959 . S
C233 H232 0.961 . S
C233 H234 0.960 . S
H234 C233 0.960 . S
H235 N215 0.862 . S
O236 Co204 1.920 . S
O236 C209 1.289 1_545 S
C237 O229 1.258 . S
C237 O230 1.266 . S
Co238 O241 1.970 . S
Co238 N255 1.989 . S
Co238 O263 1.967 . S
Co238 O270 1.920 . S
Co239 O242 1.966 . S
Co239 N248 2.022 . S
Co239 N256 1.993 . S
Co239 O264 1.941 . S
C240 O241 1.258 . S
C240 O242 1.263 . S
O241 Co238 1.970 . S
O241 C240 1.258 . S
O242 Co239 1.966 . S
O242 C240 1.263 . S
C243 O244 1.235 . S
C243 O270 1.289 . S
O244 C243 1.235 . S
C245 C247 1.400 . S
C245 N248 1.351 . S
C245 C250 1.501 . S
C246 C247 1.387 . S
C246 N249 1.341 . S
C247 C245 1.400 . S
C247 C246 1.387 . S
N248 Co239 2.022 . S
N248 C245 1.351 . S
N248 N249 1.365 . S
N249 C246 1.341 . S
N249 N248 1.365 . S
N249 H269 0.862 . S
C250 C245 1.501 . S
C250 H251 0.961 . S
C250 H252 0.961 . S
C250 H253 0.960 . S
H251 C250 0.961 . S
H252 C250 0.961 . S
H253 C250 0.960 . S
C254 N255 1.342 . S
C254 C258 1.401 . S
C254 C259 1.499 . S
N255 Co238 1.989 . S
N255 C254 1.342 . S
N255 N256 1.388 . S
N256 Co239 1.993 . S
N256 N255 1.388 . S
N256 C257 1.346 . S
C257 N256 1.346 . S
C257 C258 1.396 . S
C257 C267 1.510 . S
C258 C254 1.401 . S
C258 C257 1.396 . S
C259 C254 1.499 . S
C259 H260 0.959 . S
C259 H261 0.960 . S
C259 H262 0.961 . S
H260 C259 0.959 . S
H261 C259 0.960 . S
H262 C259 0.961 . S
O263 Co238 1.967 . S
O263 C271 1.258 . S
O264 Co239 1.941 . S
O264 C271 1.266 . S
H265 C267 0.959 . S
H266 C267 0.961 . S
C267 C257 1.510 . S
C267 H265 0.959 . S
C267 H266 0.961 . S
C267 H268 0.960 . S
H268 C267 0.960 . S
H269 N249 0.862 . S
O270 Co238 1.920 . S
O270 C243 1.289 . S
C271 O263 1.258 . S
C271 O264 1.266 . S
Co272 O275 1.970 . S
Co272 N289 1.989 . S
Co272 O297 1.967 . S
Co272 O304 1.920 . S
Co273 O276 1.966 . S
Co273 N282 2.022 . S
Co273 N290 1.993 . S
Co273 O298 1.941 . S
C274 O275 1.258 . S
C274 O276 1.263 . S
O275 Co272 1.970 . S
O275 C274 1.258 . S
O276 Co273 1.966 . S
O276 C274 1.263 . S
C277 O278 1.235 . S
C277 O304 1.289 1_545 S
O278 C277 1.235 . S
C279 C281 1.400 1_556 S
C279 N282 1.351 . S
C279 C284 1.501 . S
C280 C281 1.387 . S
C280 N283 1.341 1_554 S
C281 C279 1.400 1_554 S
C281 C280 1.387 . S
N282 Co273 2.022 . S
N282 C279 1.351 . S
N282 N283 1.365 . S
N283 C280 1.341 1_556 S
N283 N282 1.365 . S
N283 H303 0.862 . S
C284 C279 1.501 . S
C284 H285 0.961 . S
C284 H286 0.961 1_556 S
C284 H287 0.960 . S
H285 C284 0.961 . S
H286 C284 0.961 1_554 S
H287 C284 0.960 . S
C288 N289 1.342 . S
C288 C292 1.401 . S
C288 C293 1.499 1_565 S
N289 Co272 1.989 . S
N289 C288 1.342 . S
N289 N290 1.388 . S
N290 Co273 1.993 . S
N290 N289 1.388 . S
N290 C291 1.346 . S
C291 N290 1.346 . S
C291 C292 1.396 . S
C291 C301 1.510 1_556 S
C292 C288 1.401 . S
C292 C291 1.396 . S
C293 C288 1.499 1_545 S
C293 H294 0.959 . S
C293 H295 0.960 . S
C293 H296 0.961 1_545 S
H294 C293 0.959 . S
H295 C293 0.960 . S
H296 C293 0.961 1_565 S
O297 Co272 1.967 . S
O297 C305 1.258 . S
O298 Co273 1.941 . S
O298 C305 1.266 . S
H299 C301 0.959 . S
H300 C301 0.961 . S
C301 C291 1.510 1_554 S
C301 H299 0.959 . S
C301 H300 0.961 . S
C301 H302 0.960 . S
H302 C301 0.960 . S
H303 N283 0.862 . S
O304 Co272 1.920 . S
O304 C277 1.289 1_565 S
C305 O297 1.258 . S
C305 O298 1.266 . S
Co306 O309 1.970 . S
Co306 N323 1.989 . S
Co306 O331 1.967 . S
Co306 O338 1.920 . S
Co307 O310 1.966 . S
Co307 N316 2.022 . S
Co307 N324 1.993 . S
Co307 O332 1.941 . S
C308 O309 1.258 . S
C308 O310 1.263 . S
O309 Co306 1.970 . S
O309 C308 1.258 . S
O310 Co307 1.966 . S
O310 C308 1.263 . S
C311 O312 1.235 . S
C311 O338 1.289 . S
O312 C311 1.235 . S
C313 C315 1.400 1_556 S
C313 N316 1.351 . S
C313 C318 1.501 . S
C314 C315 1.387 . S
C314 N317 1.341 1_554 S
C315 C313 1.400 1_554 S
C315 C314 1.387 . S
N316 Co307 2.022 . S
N316 C313 1.351 . S
N316 N317 1.365 . S
N317 C314 1.341 1_556 S
N317 N316 1.365 . S
N317 H337 0.862 . S
C318 C313 1.501 . S
C318 H319 0.961 . S
C318 H320 0.961 1_556 S
C318 H321 0.960 . S
H319 C318 0.961 . S
H320 C318 0.961 1_554 S
H321 C318 0.960 . S
C322 N323 1.342 . S
C322 C326 1.401 . S
C322 C327 1.499 . S
N323 Co306 1.989 . S
N323 C322 1.342 . S
N323 N324 1.388 . S
N324 Co307 1.993 . S
N324 N323 1.388 . S
N324 C325 1.346 . S
C325 N324 1.346 . S
C325 C326 1.396 . S
C325 C335 1.510 1_556 S
C326 C322 1.401 . S
C326 C325 1.396 . S
C327 C322 1.499 . S
C327 H328 0.959 . S
C327 H329 0.960 . S
C327 H330 0.961 . S
H328 C327 0.959 . S
H329 C327 0.960 . S
H330 C327 0.961 . S
O331 Co306 1.967 . S
O331 C339 1.258 . S
O332 Co307 1.941 . S
O332 C339 1.266 . S
H333 C335 0.959 . S
H334 C335 0.961 . S
C335 C325 1.510 1_554 S
C335 H333 0.959 . S
C335 H334 0.961 . S
C335 H336 0.960 . S
H336 C335 0.960 . S
H337 N317 0.862 . S
O338 Co306 1.920 . S
O338 C311 1.289 . S
C339 O331 1.258 . S
C339 O332 1.266 . S
Co340 O343 1.970 . S
Co340 N357 1.989 . S
Co340 O365 1.967 . S
Co340 O372 1.920 . S
Co341 O344 1.966 . S
Co341 N350 2.022 . S
Co341 N358 1.993 . S
Co341 O366 1.941 . S
C342 O343 1.258 . S
C342 O344 1.263 . S
O343 Co340 1.970 . S
O343 C342 1.258 . S
O344 Co341 1.966 . S
O344 C342 1.263 . S
C345 O346 1.235 . S
C345 O372 1.289 . S
O346 C345 1.235 . S
C347 C349 1.400 1_556 S
C347 N350 1.351 . S
C347 C352 1.501 . S
C348 C349 1.387 . S
C348 N351 1.341 1_554 S
C349 C347 1.400 1_554 S
C349 C348 1.387 . S
N350 Co341 2.022 . S
N350 C347 1.351 . S
N350 N351 1.365 . S
N351 C348 1.341 1_556 S
N351 N350 1.365 . S
N351 H371 0.862 . S
C352 C347 1.501 . S
C352 H353 0.961 . S
C352 H354 0.961 1_556 S
C352 H355 0.960 . S
H353 C352 0.961 . S
H354 C352 0.961 1_554 S
H355 C352 0.960 . S
C356 N357 1.342 . S
C356 C360 1.401 . S
C356 C361 1.499 . S
N357 Co340 1.989 . S
N357 C356 1.342 . S
N357 N358 1.388 . S
N358 Co341 1.993 . S
N358 N357 1.388 . S
N358 C359 1.346 . S
C359 N358 1.346 . S
C359 C360 1.396 . S
C359 C369 1.510 1_556 S
C360 C356 1.401 . S
C360 C359 1.396 . S
C361 C356 1.499 . S
C361 H362 0.959 . S
C361 H363 0.960 . S
C361 H364 0.961 . S
H362 C361 0.959 . S
H363 C361 0.960 . S
H364 C361 0.961 . S
O365 Co340 1.967 . S
O365 C373 1.258 . S
O366 Co341 1.941 . S
O366 C373 1.266 . S
H367 C369 0.959 . S
H368 C369 0.961 . S
C369 C359 1.510 1_554 S
C369 H367 0.959 . S
C369 H368 0.961 . S
C369 H370 0.960 . S
H370 C369 0.960 . S
H371 N351 0.862 . S
O372 Co340 1.920 . S
O372 C345 1.289 . S
C373 O365 1.258 . S
C373 O366 1.266 . S
Co374 O377 1.970 . S
Co374 N391 1.989 . S
Co374 O399 1.967 . S
Co374 O406 1.920 . S
Co375 O378 1.966 . S
Co375 N384 2.022 . S
Co375 N392 1.993 . S
Co375 O400 1.941 . S
C376 O377 1.258 . S
C376 O378 1.263 . S
O377 Co374 1.970 . S
O377 C376 1.258 . S
O378 Co375 1.966 . S
O378 C376 1.263 . S
C379 O380 1.235 . S
C379 O406 1.289 1_455 S
O380 C379 1.235 . S
C381 C383 1.400 1_556 S
C381 N384 1.351 . S
C381 C386 1.501 . S
C382 C383 1.387 . S
C382 N385 1.341 1_554 S
C383 C381 1.400 1_554 S
C383 C382 1.387 . S
N384 Co375 2.022 . S
N384 C381 1.351 . S
N384 N385 1.365 . S
N385 C382 1.341 1_556 S
N385 N384 1.365 . S
N385 H405 0.862 . S
C386 C381 1.501 . S
C386 H387 0.961 . S
C386 H388 0.961 1_556 S
C386 H389 0.960 . S
H387 C386 0.961 . S
H388 C386 0.961 1_554 S
H389 C386 0.960 . S
C390 N391 1.342 . S
C390 C394 1.401 . S
C390 C395 1.499 1_655 S
N391 Co374 1.989 . S
N391 C390 1.342 . S
N391 N392 1.388 . S
N392 Co375 1.993 . S
N392 N391 1.388 . S
N392 C393 1.346 . S
C393 N392 1.346 . S
C393 C394 1.396 . S
C393 C403 1.510 1_556 S
C394 C390 1.401 . S
C394 C393 1.396 . S
C395 C390 1.499 1_455 S
C395 H396 0.959 . S
C395 H397 0.960 . S
C395 H398 0.961 1_455 S
H396 C395 0.959 . S
H397 C395 0.960 . S
H398 C395 0.961 1_655 S
O399 Co374 1.967 . S
O399 C407 1.258 . S
O400 Co375 1.941 . S
O400 C407 1.266 . S
H401 C403 0.959 . S
H402 C403 0.961 . S
C403 C393 1.510 1_554 S
C403 H401 0.959 . S
C403 H402 0.961 . S
C403 H404 0.960 . S
H404 C403 0.960 . S
H405 N385 0.862 . S
O406 Co374 1.920 . S
O406 C379 1.289 1_655 S
C407 O399 1.258 . S
C407 O400 1.266 . S
Co408 O411 1.970 . S
Co408 N425 1.989 . S
Co408 O433 1.967 . S
Co408 O440 1.920 . S
Co409 O412 1.966 . S
Co409 N418 2.022 . S
Co409 N426 1.993 . S
Co409 O434 1.941 . S
C410 O411 1.258 . S
C410 O412 1.263 . S
O411 Co408 1.970 . S
O411 C410 1.258 . S
O412 Co409 1.966 . S
O412 C410 1.263 . S
C413 O414 1.235 . S
C413 O440 1.289 . S
O414 C413 1.235 . S
C415 C417 1.400 . S
C415 N418 1.351 . S
C415 C420 1.501 . S
C416 C417 1.387 . S
C416 N419 1.341 . S
C417 C415 1.400 . S
C417 C416 1.387 . S
N418 Co409 2.022 . S
N418 C415 1.351 . S
N418 N419 1.365 . S
N419 C416 1.341 . S
N419 N418 1.365 . S
N419 H439 0.862 . S
C420 C415 1.501 . S
C420 H421 0.961 . S
C420 H422 0.961 . S
C420 H423 0.960 . S
H421 C420 0.961 . S
H422 C420 0.961 . S
H423 C420 0.960 . S
C424 N425 1.342 . S
C424 C428 1.401 . S
C424 C429 1.499 . S
N425 Co408 1.989 . S
N425 C424 1.342 . S
N425 N426 1.388 . S
N426 Co409 1.993 . S
N426 N425 1.388 . S
N426 C427 1.346 . S
C427 N426 1.346 . S
C427 C428 1.396 . S
C427 C437 1.510 . S
C428 C424 1.401 . S
C428 C427 1.396 . S
C429 C424 1.499 . S
C429 H430 0.959 . S
C429 H431 0.960 . S
C429 H432 0.961 . S
H430 C429 0.959 . S
H431 C429 0.960 . S
H432 C429 0.961 . S
O433 Co408 1.967 . S
O433 C441 1.258 . S
O434 Co409 1.941 . S
O434 C441 1.266 . S
H435 C437 0.959 . S
H436 C437 0.961 . S
C437 C427 1.510 . S
C437 H435 0.959 . S
C437 H436 0.961 . S
C437 H438 0.960 . S
H438 C437 0.960 . S
H439 N419 0.862 . S
O440 Co408 1.920 . S
O440 C413 1.289 . S
C441 O433 1.258 . S
C441 O434 1.266 . S
Co442 O445 1.970 . S
Co442 N459 1.989 . S
Co442 O467 1.967 . S
Co442 O474 1.920 . S
Co443 O446 1.966 . S
Co443 N452 2.022 . S
Co443 N460 1.993 . S
Co443 O468 1.941 . S
C444 O445 1.258 . S
C444 O446 1.263 . S
O445 Co442 1.970 . S
O445 C444 1.258 . S
O446 Co443 1.966 . S
O446 C444 1.263 . S
C447 O448 1.235 . S
C447 O474 1.289 1_455 S
O448 C447 1.235 . S
C449 C451 1.400 . S
C449 N452 1.351 . S
C449 C454 1.501 . S
C450 C451 1.387 . S
C450 N453 1.341 . S
C451 C449 1.400 . S
C451 C450 1.387 . S
N452 Co443 2.022 . S
N452 C449 1.351 . S
N452 N453 1.365 . S
N453 C450 1.341 . S
N453 N452 1.365 . S
N453 H473 0.862 . S
C454 C449 1.501 . S
C454 H455 0.961 . S
C454 H456 0.961 . S
C454 H457 0.960 . S
H455 C454 0.961 . S
H456 C454 0.961 . S
H457 C454 0.960 . S
C458 N459 1.342 . S
C458 C462 1.401 . S
C458 C463 1.499 1_655 S
N459 Co442 1.989 . S
N459 C458 1.342 . S
N459 N460 1.388 . S
N460 Co443 1.993 . S
N460 N459 1.388 . S
N460 C461 1.346 . S
C461 N460 1.346 . S
C461 C462 1.396 . S
C461 C471 1.510 . S
C462 C458 1.401 . S
C462 C461 1.396 . S
C463 C458 1.499 1_455 S
C463 H464 0.959 . S
C463 H465 0.960 . S
C463 H466 0.961 1_455 S
H464 C463 0.959 . S
H465 C463 0.960 . S
H466 C463 0.961 1_655 S
O467 Co442 1.967 . S
O467 C475 1.258 . S
O468 Co443 1.941 . S
O468 C475 1.266 . S
H469 C471 0.959 . S
H470 C471 0.961 . S
C471 C461 1.510 . S
C471 H469 0.959 . S
C471 H470 0.961 . S
C471 H472 0.960 . S
H472 C471 0.960 . S
H473 N453 0.862 . S
O474 Co442 1.920 . S
O474 C447 1.289 1_655 S
C475 O467 1.258 . S
C475 O468 1.266 . S
Co476 O479 1.970 . S
Co476 N493 1.989 . S
Co476 O501 1.967 . S
Co476 O508 1.920 . S
Co477 O480 1.966 . S
Co477 N486 2.022 . S
Co477 N494 1.993 . S
Co477 O502 1.941 . S
C478 O479 1.258 . S
C478 O480 1.263 . S
O479 Co476 1.970 . S
O479 C478 1.258 . S
O480 Co477 1.966 . S
O480 C478 1.263 . S
C481 O482 1.235 . S
C481 O508 1.289 1_545 S
O482 C481 1.235 . S
C483 C485 1.400 . S
C483 N486 1.351 . S
C483 C488 1.501 . S
C484 C485 1.387 . S
C484 N487 1.341 . S
C485 C483 1.400 . S
C485 C484 1.387 . S
N486 Co477 2.022 . S
N486 C483 1.351 . S
N486 N487 1.365 . S
N487 C484 1.341 . S
N487 N486 1.365 . S
N487 H507 0.862 . S
C488 C483 1.501 . S
C488 H489 0.961 . S
C488 H490 0.961 . S
C488 H491 0.960 . S
H489 C488 0.961 . S
H490 C488 0.961 . S
H491 C488 0.960 . S
C492 N493 1.342 . S
C492 C496 1.401 . S
C492 C497 1.499 1_565 S
N493 Co476 1.989 . S
N493 C492 1.342 . S
N493 N494 1.388 . S
N494 Co477 1.993 . S
N494 N493 1.388 . S
N494 C495 1.346 . S
C495 N494 1.346 . S
C495 C496 1.396 . S
C495 C505 1.510 . S
C496 C492 1.401 . S
C496 C495 1.396 . S
C497 C492 1.499 1_545 S
C497 H498 0.959 . S
C497 H499 0.960 . S
C497 H500 0.961 1_545 S
H498 C497 0.959 . S
H499 C497 0.960 . S
H500 C497 0.961 1_565 S
O501 Co476 1.967 . S
O501 C509 1.258 . S
O502 Co477 1.941 . S
O502 C509 1.266 . S
H503 C505 0.959 . S
H504 C505 0.961 . S
C505 C495 1.510 . S
C505 H503 0.959 . S
C505 H504 0.961 . S
C505 H506 0.960 . S
H506 C505 0.960 . S
H507 N487 0.862 . S
O508 Co476 1.920 . S
O508 C481 1.289 1_565 S
C509 O501 1.258 . S
C509 O502 1.266 . S
Co510 O513 1.970 . S
Co510 N527 1.989 . S
Co510 O535 1.967 . S
Co510 O542 1.920 . S
Co511 O514 1.966 . S
Co511 N520 2.022 . S
Co511 N528 1.993 . S
Co511 O536 1.941 . S
C512 O513 1.258 . S
C512 O514 1.263 . S
O513 Co510 1.970 . S
O513 C512 1.258 . S
O514 Co511 1.966 . S
O514 C512 1.263 . S
C515 O516 1.235 . S
C515 O542 1.289 . S
O516 C515 1.235 . S
C517 C519 1.400 . S
C517 N520 1.351 . S
C517 C522 1.501 . S
C518 C519 1.387 . S
C518 N521 1.341 . S
C519 C517 1.400 . S
C519 C518 1.387 . S
N520 Co511 2.022 . S
N520 C517 1.351 . S
N520 N521 1.365 . S
N521 C518 1.341 . S
N521 N520 1.365 . S
N521 H541 0.862 . S
C522 C517 1.501 . S
C522 H523 0.961 . S
C522 H524 0.961 . S
C522 H525 0.960 . S
H523 C522 0.961 . S
H524 C522 0.961 . S
H525 C522 0.960 . S
C526 N527 1.342 . S
C526 C530 1.401 . S
C526 C531 1.499 . S
N527 Co510 1.989 . S
N527 C526 1.342 . S
N527 N528 1.388 . S
N528 Co511 1.993 . S
N528 N527 1.388 . S
N528 C529 1.346 . S
C529 N528 1.346 . S
C529 C530 1.396 . S
C529 C539 1.510 . S
C530 C526 1.401 . S
C530 C529 1.396 . S
C531 C526 1.499 . S
C531 H532 0.959 . S
C531 H533 0.960 . S
C531 H534 0.961 . S
H532 C531 0.959 . S
H533 C531 0.960 . S
H534 C531 0.961 . S
O535 Co510 1.967 . S
O535 C543 1.258 . S
O536 Co511 1.941 . S
O536 C543 1.266 . S
H537 C539 0.959 . S
H538 C539 0.961 . S
C539 C529 1.510 . S
C539 H537 0.959 . S
C539 H538 0.961 . S
C539 H540 0.960 . S
H540 C539 0.960 . S
H541 N521 0.862 . S
O542 Co510 1.920 . S
O542 C515 1.289 . S
C543 O535 1.258 . S
C543 O536 1.266 . S
H544 C550 0.930 . S
H545 C554 0.930 . S
H546 C559 0.929 . S
H547 C557 0.929 . S
H548 C552 0.929 . S
H549 C558 0.929 . S
C550 H544 0.930 . S
C550 C551 1.367 . S
C550 C558 1.378 . S
C551 C550 1.367 . S
C551 C559 1.433 . S
C552 H548 0.929 . S
C552 C554 1.378 . S
C552 C556 1.350 . S
C553 C556 1.463 . S
C553 C558 1.350 . S
C553 N561 1.427 . S
C554 H545 0.930 . S
C554 C552 1.378 . S
C554 C555 1.367 . S
C555 C554 1.367 . S
C555 C557 1.433 . S
C556 C552 1.350 . S
C556 C553 1.463 . S
C556 N560 1.427 . S
C557 H547 0.929 . S
C557 C555 1.433 . S
C557 N560 1.384 . S
C558 H549 0.929 . S
C558 C550 1.378 . S
C558 C553 1.350 . S
C559 H546 0.929 . S
C559 C551 1.433 . S
C559 N561 1.384 . S
N560 C556 1.427 . S
N560 C557 1.384 . S
N561 C553 1.427 . S
N561 C559 1.384 . S
H562 C568 0.930 . S
H563 C572 0.930 . S
H564 C577 0.929 . S
H565 C575 0.929 . S
H566 C570 0.929 . S
H567 C576 0.929 . S
C568 H562 0.930 . S
C568 C569 1.367 . S
C568 C576 1.378 . S
C569 C568 1.367 . S
C569 C577 1.433 . S
C570 H566 0.929 . S
C570 C572 1.378 . S
C570 C574 1.350 . S
C571 C574 1.463 . S
C571 C576 1.350 . S
C571 N579 1.427 . S
C572 H563 0.930 . S
C572 C570 1.378 . S
C572 C573 1.367 . S
C573 C572 1.367 . S
C573 C575 1.433 . S
C574 C570 1.350 . S
C574 C571 1.463 . S
C574 N578 1.427 . S
C575 H565 0.929 . S
C575 C573 1.433 . S
C575 N578 1.384 . S
C576 H567 0.929 . S
C576 C568 1.378 . S
C576 C571 1.350 . S
C577 H564 0.929 . S
C577 C569 1.433 . S
C577 N579 1.384 . S
N578 C574 1.427 . S
N578 C575 1.384 . S
N579 C571 1.427 . S
N579 C577 1.384 . S
H580 C586 0.930 . S
H581 C590 0.930 . S
H582 C595 0.929 . S
H583 C593 0.929 . S
H584 C588 0.929 . S
H585 C594 0.929 . S
C586 H580 0.930 . S
C586 C587 1.367 . S
C586 C594 1.378 . S
C587 C586 1.367 . S
C587 C595 1.433 . S
C588 H584 0.929 . S
C588 C590 1.378 . S
C588 C592 1.350 . S
C589 C592 1.463 . S
C589 C594 1.350 . S
C589 N597 1.427 . S
C590 H581 0.930 . S
C590 C588 1.378 . S
C590 C591 1.367 . S
C591 C590 1.367 . S
C591 C593 1.433 . S
C592 C588 1.350 . S
C592 C589 1.463 . S
C592 N596 1.427 . S
C593 H583 0.929 . S
C593 C591 1.433 . S
C593 N596 1.384 . S
C594 H585 0.929 . S
C594 C586 1.378 . S
C594 C589 1.350 . S
C595 H582 0.929 . S
C595 C587 1.433 . S
C595 N597 1.384 . S
N596 C592 1.427 . S
N596 C593 1.384 . S
N597 C589 1.427 . S
N597 C595 1.384 . S
H598 C604 0.930 . S
H599 C608 0.930 . S
H600 C613 0.929 . S
H601 C611 0.929 . S
H602 C606 0.929 . S
H603 C612 0.929 . S
C604 H598 0.930 . S
C604 C605 1.367 . S
C604 C612 1.378 . S
C605 C604 1.367 . S
C605 C613 1.433 . S
C606 H602 0.929 . S
C606 C608 1.378 . S
C606 C610 1.350 . S
C607 C610 1.463 . S
C607 C612 1.350 . S
C607 N615 1.427 . S
C608 H599 0.930 . S
C608 C606 1.378 . S
C608 C609 1.367 . S
C609 C608 1.367 . S
C609 C611 1.433 . S
C610 C606 1.350 . S
C610 C607 1.463 . S
C610 N614 1.427 . S
C611 H601 0.929 . S
C611 C609 1.433 . S
C611 N614 1.384 . S
C612 H603 0.929 . S
C612 C604 1.378 . S
C612 C607 1.350 . S
C613 H600 0.929 . S
C613 C605 1.433 . S
C613 N615 1.384 . S
N614 C610 1.427 . S
N614 C611 1.384 . S
N615 C607 1.427 . S
N615 C613 1.384 . S
H616 C622 0.930 . S
H617 C626 0.930 . S
H618 C631 0.929 . S
H619 C629 0.929 . S
H620 C624 0.929 . S
H621 C630 0.929 . S
C622 H616 0.930 . S
C622 C623 1.367 . S
C622 C630 1.378 . S
C623 C622 1.367 . S
C623 C631 1.433 . S
C624 H620 0.929 . S
C624 C626 1.378 . S
C624 C628 1.350 . S
C625 C628 1.463 . S
C625 C630 1.350 . S
C625 N633 1.427 . S
C626 H617 0.930 . S
C626 C624 1.378 . S
C626 C627 1.367 . S
C627 C626 1.367 . S
C627 C629 1.433 . S
C628 C624 1.350 . S
C628 C625 1.463 . S
C628 N632 1.427 . S
C629 H619 0.929 . S
C629 C627 1.433 . S
C629 N632 1.384 . S
C630 H621 0.929 . S
C630 C622 1.378 . S
C630 C625 1.350 . S
C631 H618 0.929 . S
C631 C623 1.433 . S
C631 N633 1.384 . S
N632 C628 1.427 . S
N632 C629 1.384 . S
N633 C625 1.427 . S
N633 C631 1.384 . S
H634 C640 0.930 . S
H635 C644 0.930 . S
H636 C649 0.929 . S
H637 C647 0.929 . S
H638 C642 0.929 . S
H639 C648 0.929 . S
C640 H634 0.930 . S
C640 C641 1.367 . S
C640 C648 1.378 . S
C641 C640 1.367 . S
C641 C649 1.433 . S
C642 H638 0.929 . S
C642 C644 1.378 . S
C642 C646 1.350 . S
C643 C646 1.463 . S
C643 C648 1.350 . S
C643 N651 1.427 . S
C644 H635 0.930 . S
C644 C642 1.378 . S
C644 C645 1.367 . S
C645 C644 1.367 . S
C645 C647 1.433 . S
C646 C642 1.350 . S
C646 C643 1.463 . S
C646 N650 1.427 . S
C647 H637 0.929 . S
C647 C645 1.433 . S
C647 N650 1.384 . S
C648 H639 0.929 . S
C648 C640 1.378 . S
C648 C643 1.350 . S
C649 H636 0.929 . S
C649 C641 1.433 . S
C649 N651 1.384 . S
N650 C646 1.427 . S
N650 C647 1.384 . S
N651 C643 1.427 . S
N651 C649 1.384 . S
H652 C658 0.930 . S
H653 C662 0.930 . S
H654 C667 0.929 . S
H655 C665 0.929 . S
H656 C660 0.929 . S
H657 C666 0.929 . S
C658 H652 0.930 . S
C658 C659 1.367 . S
C658 C666 1.378 . S
C659 C658 1.367 . S
C659 C667 1.433 . S
C660 H656 0.929 . S
C660 C662 1.378 . S
C660 C664 1.350 . S
C661 C664 1.463 . S
C661 C666 1.350 . S
C661 N669 1.427 . S
C662 H653 0.930 . S
C662 C660 1.378 . S
C662 C663 1.367 . S
C663 C662 1.367 . S
C663 C665 1.433 . S
C664 C660 1.350 . S
C664 C661 1.463 . S
C664 N668 1.427 . S
C665 H655 0.929 . S
C665 C663 1.433 . S
C665 N668 1.384 . S
C666 H657 0.929 . S
C666 C658 1.378 . S
C666 C661 1.350 . S
C667 H654 0.929 . S
C667 C659 1.433 . S
C667 N669 1.384 . S
N668 C664 1.427 . S
N668 C665 1.384 . S
N669 C661 1.427 . S
N669 C667 1.384 . S
H670 C676 0.930 . S
H671 C680 0.930 . S
H672 C685 0.929 . S
H673 C683 0.929 . S
H674 C678 0.929 . S
H675 C684 0.929 . S
C676 H670 0.930 . S
C676 C677 1.367 . S
C676 C684 1.378 . S
C677 C676 1.367 . S
C677 C685 1.433 . S
C678 H674 0.929 . S
C678 C680 1.378 . S
C678 C682 1.350 . S
C679 C682 1.463 . S
C679 C684 1.350 . S
C679 N687 1.427 . S
C680 H671 0.930 . S
C680 C678 1.378 . S
C680 C681 1.367 . S
C681 C680 1.367 . S
C681 C683 1.433 . S
C682 C678 1.350 . S
C682 C679 1.463 . S
C682 N686 1.427 . S
C683 H673 0.929 . S
C683 C681 1.433 . S
C683 N686 1.384 . S
C684 H675 0.929 . S
C684 C676 1.378 . S
C684 C679 1.350 . S
C685 H672 0.929 . S
C685 C677 1.433 . S
C685 N687 1.384 . S
N686 C682 1.427 . S
N686 C683 1.384 . S
N687 C679 1.427 . S
N687 C685 1.384 . S
H688 C694 0.930 . S
H689 C698 0.930 . S
H690 C703 0.929 . S
H691 C701 0.929 . S
H692 C696 0.929 . S
H693 C702 0.929 . S
C694 H688 0.930 . S
C694 C695 1.367 . S
C694 C702 1.378 . S
C695 C694 1.367 . S
C695 C703 1.433 . S
C696 H692 0.929 . S
C696 C698 1.378 . S
C696 C700 1.350 . S
C697 C700 1.463 . S
C697 C702 1.350 . S
C697 N705 1.427 . S
C698 H689 0.930 . S
C698 C696 1.378 . S
C698 C699 1.367 . S
C699 C698 1.367 . S
C699 C701 1.433 . S
C700 C696 1.350 . S
C700 C697 1.463 . S
C700 N704 1.427 . S
C701 H691 0.929 . S
C701 C699 1.433 . S
C701 N704 1.384 . S
C702 H693 0.929 . S
C702 C694 1.378 . S
C702 C697 1.350 . S
C703 H690 0.929 . S
C703 C695 1.433 . S
C703 N705 1.384 . S
N704 C700 1.427 . S
N704 C701 1.384 . S
N705 C697 1.427 . S
N705 C703 1.384 . S
H706 C712 0.930 . S
H707 C716 0.930 . S
H708 C721 0.929 . S
H709 C719 0.929 . S
H710 C714 0.929 . S
H711 C720 0.929 . S
C712 H706 0.930 . S
C712 C713 1.367 . S
C712 C720 1.378 . S
C713 C712 1.367 . S
C713 C721 1.433 . S
C714 H710 0.929 . S
C714 C716 1.378 . S
C714 C718 1.350 . S
C715 C718 1.463 . S
C715 C720 1.350 . S
C715 N723 1.427 . S
C716 H707 0.930 . S
C716 C714 1.378 . S
C716 C717 1.367 . S
C717 C716 1.367 . S
C717 C719 1.433 . S
C718 C714 1.350 . S
C718 C715 1.463 . S
C718 N722 1.427 . S
C719 H709 0.929 . S
C719 C717 1.433 . S
C719 N722 1.384 . S
C720 H711 0.929 . S
C720 C712 1.378 . S
C720 C715 1.350 . S
C721 H708 0.929 . S
C721 C713 1.433 . S
C721 N723 1.384 . S
N722 C718 1.427 . S
N722 C719 1.384 . S
N723 C715 1.427 . S
N723 C721 1.384 . S
H724 C730 0.930 . S
H725 C734 0.930 . S
H726 C739 0.929 . S
H727 C737 0.929 . S
H728 C732 0.929 . S
H729 C738 0.929 . S
C730 H724 0.930 . S
C730 C731 1.367 . S
C730 C738 1.378 . S
C731 C730 1.367 . S
C731 C739 1.433 . S
C732 H728 0.929 . S
C732 C734 1.378 . S
C732 C736 1.350 . S
C733 C736 1.463 . S
C733 C738 1.350 . S
C733 N741 1.427 . S
C734 H725 0.930 . S
C734 C732 1.378 . S
C734 C735 1.367 . S
C735 C734 1.367 . S
C735 C737 1.433 . S
C736 C732 1.350 . S
C736 C733 1.463 . S
C736 N740 1.427 . S
C737 H727 0.929 . S
C737 C735 1.433 . S
C737 N740 1.384 . S
C738 H729 0.929 . S
C738 C730 1.378 . S
C738 C733 1.350 . S
C739 H726 0.929 . S
C739 C731 1.433 . S
C739 N741 1.384 . S
N740 C736 1.427 . S
N740 C737 1.384 . S
N741 C733 1.427 . S
N741 C739 1.384 . S
H742 C748 0.930 . S
H743 C752 0.930 . S
H744 C757 0.929 . S
H745 C755 0.929 . S
H746 C750 0.929 . S
H747 C756 0.929 . S
C748 H742 0.930 . S
C748 C749 1.367 . S
C748 C756 1.378 . S
C749 C748 1.367 . S
C749 C757 1.433 . S
C750 H746 0.929 . S
C750 C752 1.378 . S
C750 C754 1.350 . S
C751 C754 1.463 . S
C751 C756 1.350 . S
C751 N759 1.427 . S
C752 H743 0.930 . S
C752 C750 1.378 . S
C752 C753 1.367 . S
C753 C752 1.367 . S
C753 C755 1.433 . S
C754 C750 1.350 . S
C754 C751 1.463 . S
C754 N758 1.427 . S
C755 H745 0.929 . S
C755 C753 1.433 . S
C755 N758 1.384 . S
C756 H747 0.929 . S
C756 C748 1.378 . S
C756 C751 1.350 . S
C757 H744 0.929 . S
C757 C749 1.433 . S
C757 N759 1.384 . S
N758 C754 1.427 . S
N758 C755 1.384 . S
N759 C751 1.427 . S
N759 C757 1.384 . S
H760 C766 0.930 . S
H761 C770 0.930 . S
H762 C775 0.929 . S
H763 C773 0.929 . S
H764 C768 0.929 . S
H765 C774 0.929 . S
C766 H760 0.930 . S
C766 C767 1.367 . S
C766 C774 1.378 . S
C767 C766 1.367 . S
C767 C775 1.433 . S
C768 H764 0.929 . S
C768 C770 1.378 . S
C768 C772 1.350 . S
C769 C772 1.463 . S
C769 C774 1.350 . S
C769 N777 1.427 . S
C770 H761 0.930 . S
C770 C768 1.378 . S
C770 C771 1.367 . S
C771 C770 1.367 . S
C771 C773 1.433 . S
C772 C768 1.350 . S
C772 C769 1.463 . S
C772 N776 1.427 . S
C773 H763 0.929 . S
C773 C771 1.433 . S
C773 N776 1.384 . S
C774 H765 0.929 . S
C774 C766 1.378 . S
C774 C769 1.350 . S
C775 H762 0.929 . S
C775 C767 1.433 . S
C775 N777 1.384 . S
N776 C772 1.427 . S
N776 C773 1.384 . S
N777 C769 1.427 . S
N777 C775 1.384 . S
H778 C784 0.930 . S
H779 C788 0.930 . S
H780 C793 0.929 . S
H781 C791 0.929 . S
H782 C786 0.929 . S
H783 C792 0.929 . S
C784 H778 0.930 . S
C784 C785 1.367 . S
C784 C792 1.378 . S
C785 C784 1.367 . S
C785 C793 1.433 . S
C786 H782 0.929 . S
C786 C788 1.378 . S
C786 C790 1.350 . S
C787 C790 1.463 . S
C787 C792 1.350 . S
C787 N795 1.427 . S
C788 H779 0.930 . S
C788 C786 1.378 . S
C788 C789 1.367 . S
C789 C788 1.367 . S
C789 C791 1.433 . S
C790 C786 1.350 . S
C790 C787 1.463 . S
C790 N794 1.427 . S
C791 H781 0.929 . S
C791 C789 1.433 . S
C791 N794 1.384 . S
C792 H783 0.929 . S
C792 C784 1.378 . S
C792 C787 1.350 . S
C793 H780 0.929 . S
C793 C785 1.433 . S
C793 N795 1.384 . S
N794 C790 1.427 . S
N794 C791 1.384 . S
N795 C787 1.427 . S
N795 C793 1.384 . S
H796 C802 0.930 . S
H797 C806 0.930 . S
H798 C811 0.929 . S
H799 C809 0.929 . S
H800 C804 0.929 . S
H801 C810 0.929 . S
C802 H796 0.930 . S
C802 C803 1.367 . S
C802 C810 1.378 . S
C803 C802 1.367 . S
C803 C811 1.433 . S
C804 H800 0.929 . S
C804 C806 1.378 . S
C804 C808 1.350 . S
C805 C808 1.463 . S
C805 C810 1.350 . S
C805 N813 1.427 . S
C806 H797 0.930 . S
C806 C804 1.378 . S
C806 C807 1.367 . S
C807 C806 1.367 . S
C807 C809 1.433 . S
C808 C804 1.350 . S
C808 C805 1.463 . S
C808 N812 1.427 . S
C809 H799 0.929 . S
C809 C807 1.433 . S
C809 N812 1.384 . S
C810 H801 0.929 . S
C810 C802 1.378 . S
C810 C805 1.350 . S
C811 H798 0.929 . S
C811 C803 1.433 . S
C811 N813 1.384 . S
N812 C808 1.427 . S
N812 C809 1.384 . S
N813 C805 1.427 . S
N813 C811 1.384 . S
H814 C820 0.930 . S
H815 C824 0.930 . S
H816 C829 0.929 . S
H817 C827 0.929 . S
H818 C822 0.929 . S
H819 C828 0.929 . S
C820 H814 0.930 . S
C820 C821 1.367 . S
C820 C828 1.378 . S
C821 C820 1.367 . S
C821 C829 1.433 . S
C822 H818 0.929 . S
C822 C824 1.378 . S
C822 C826 1.350 . S
C823 C826 1.463 . S
C823 C828 1.350 . S
C823 N831 1.427 . S
C824 H815 0.930 . S
C824 C822 1.378 . S
C824 C825 1.367 . S
C825 C824 1.367 . S
C825 C827 1.433 . S
C826 C822 1.350 . S
C826 C823 1.463 . S
C826 N830 1.427 . S
C827 H817 0.929 . S
C827 C825 1.433 . S
C827 N830 1.384 . S
C828 H819 0.929 . S
C828 C820 1.378 . S
C828 C823 1.350 . S
C829 H816 0.929 . S
C829 C821 1.433 . S
C829 N831 1.384 . S
N830 C826 1.427 . S
N830 C827 1.384 . S
N831 C823 1.427 . S
N831 C829 1.384 . S
H832 C838 0.930 . S
H833 C842 0.930 . S
H834 C847 0.929 . S
H835 C845 0.929 . S
H836 C840 0.929 . S
H837 C846 0.929 . S
C838 H832 0.930 . S
C838 C839 1.367 . S
C838 C846 1.378 . S
C839 C838 1.367 . S
C839 C847 1.433 . S
C840 H836 0.929 . S
C840 C842 1.378 . S
C840 C844 1.350 . S
C841 C844 1.463 . S
C841 C846 1.350 . S
C841 N849 1.427 . S
C842 H833 0.930 . S
C842 C840 1.378 . S
C842 C843 1.367 . S
C843 C842 1.367 . S
C843 C845 1.433 . S
C844 C840 1.350 . S
C844 C841 1.463 . S
C844 N848 1.427 . S
C845 H835 0.929 . S
C845 C843 1.433 . S
C845 N848 1.384 . S
C846 H837 0.929 . S
C846 C838 1.378 . S
C846 C841 1.350 . S
C847 H834 0.929 . S
C847 C839 1.433 . S
C847 N849 1.384 . S
N848 C844 1.427 . S
N848 C845 1.384 . S
N849 C841 1.427 . S
N849 C847 1.384 . S
H850 C856 0.930 . S
H851 C860 0.930 . S
H852 C865 0.929 . S
H853 C863 0.929 . S
H854 C858 0.929 . S
H855 C864 0.929 . S
C856 H850 0.930 . S
C856 C857 1.367 . S
C856 C864 1.378 . S
C857 C856 1.367 . S
C857 C865 1.433 . S
C858 H854 0.929 . S
C858 C860 1.378 . S
C858 C862 1.350 . S
C859 C862 1.463 . S
C859 C864 1.350 . S
C859 N867 1.427 . S
C860 H851 0.930 . S
C860 C858 1.378 . S
C860 C861 1.367 . S
C861 C860 1.367 . S
C861 C863 1.433 . S
C862 C858 1.350 . S
C862 C859 1.463 . S
C862 N866 1.427 . S
C863 H853 0.929 . S
C863 C861 1.433 . S
C863 N866 1.384 . S
C864 H855 0.929 . S
C864 C856 1.378 . S
C864 C859 1.350 . S
C865 H852 0.929 . S
C865 C857 1.433 . S
C865 N867 1.384 . S
N866 C862 1.427 . S
N866 C863 1.384 . S
N867 C859 1.427 . S
N867 C865 1.384 . S
H868 C874 0.930 . S
H869 C878 0.930 . S
H870 C883 0.929 . S
H871 C881 0.929 . S
H872 C876 0.929 . S
H873 C882 0.929 . S
C874 H868 0.930 . S
C874 C875 1.367 . S
C874 C882 1.378 . S
C875 C874 1.367 . S
C875 C883 1.433 . S
C876 H872 0.929 . S
C876 C878 1.378 . S
C876 C880 1.350 . S
C877 C880 1.463 . S
C877 C882 1.350 . S
C877 N885 1.427 . S
C878 H869 0.930 . S
C878 C876 1.378 . S
C878 C879 1.367 . S
C879 C878 1.367 . S
C879 C881 1.433 . S
C880 C876 1.350 . S
C880 C877 1.463 . S
C880 N884 1.427 . S
C881 H871 0.929 . S
C881 C879 1.433 . S
C881 N884 1.384 . S
C882 H873 0.929 . S
C882 C874 1.378 . S
C882 C877 1.350 . S
C883 H870 0.929 . S
C883 C875 1.433 . S
C883 N885 1.384 . S
N884 C880 1.427 . S
N884 C881 1.384 . S
N885 C877 1.427 . S
N885 C883 1.384 . S
H886 C892 0.930 . S
H887 C896 0.930 . S
H888 C901 0.929 . S
H889 C899 0.929 . S
H890 C894 0.929 . S
H891 C900 0.929 . S
C892 H886 0.930 . S
C892 C893 1.367 . S
C892 C900 1.378 . S
C893 C892 1.367 . S
C893 C901 1.433 . S
C894 H890 0.929 . S
C894 C896 1.378 . S
C894 C898 1.350 . S
C895 C898 1.463 . S
C895 C900 1.350 . S
C895 N903 1.427 . S
C896 H887 0.930 . S
C896 C894 1.378 . S
C896 C897 1.367 . S
C897 C896 1.367 . S
C897 C899 1.433 . S
C898 C894 1.350 . S
C898 C895 1.463 . S
C898 N902 1.427 . S
C899 H889 0.929 . S
C899 C897 1.433 . S
C899 N902 1.384 . S
C900 H891 0.929 . S
C900 C892 1.378 . S
C900 C895 1.350 . S
C901 H888 0.929 . S
C901 C893 1.433 . S
C901 N903 1.384 . S
N902 C898 1.427 . S
N902 C899 1.384 . S
N903 C895 1.427 . S
N903 C901 1.384 . S
H904 C910 0.930 . S
H905 C914 0.930 . S
H906 C919 0.929 . S
H907 C917 0.929 . S
H908 C912 0.929 . S
H909 C918 0.929 . S
C910 H904 0.930 . S
C910 C911 1.367 . S
C910 C918 1.378 . S
C911 C910 1.367 . S
C911 C919 1.433 . S
C912 H908 0.929 . S
C912 C914 1.378 . S
C912 C916 1.350 . S
C913 C916 1.463 . S
C913 C918 1.350 . S
C913 N921 1.427 . S
C914 H905 0.930 . S
C914 C912 1.378 . S
C914 C915 1.367 . S
C915 C914 1.367 . S
C915 C917 1.433 . S
C916 C912 1.350 . S
C916 C913 1.463 . S
C916 N920 1.427 . S
C917 H907 0.929 . S
C917 C915 1.433 . S
C917 N920 1.384 . S
C918 H909 0.929 . S
C918 C910 1.378 . S
C918 C913 1.350 . S
C919 H906 0.929 . S
C919 C911 1.433 . S
C919 N921 1.384 . S
N920 C916 1.427 . S
N920 C917 1.384 . S
N921 C913 1.427 . S
N921 C919 1.384 . S
H922 C928 0.930 . S
H923 C932 0.930 . S
H924 C937 0.929 . S
H925 C935 0.929 . S
H926 C930 0.929 . S
H927 C936 0.929 . S
C928 H922 0.930 . S
C928 C929 1.367 . S
C928 C936 1.378 . S
C929 C928 1.367 . S
C929 C937 1.433 . S
C930 H926 0.929 . S
C930 C932 1.378 . S
C930 C934 1.350 . S
C931 C934 1.463 . S
C931 C936 1.350 . S
C931 N939 1.427 . S
C932 H923 0.930 . S
C932 C930 1.378 . S
C932 C933 1.367 . S
C933 C932 1.367 . S
C933 C935 1.433 . S
C934 C930 1.350 . S
C934 C931 1.463 . S
C934 N938 1.427 . S
C935 H925 0.929 . S
C935 C933 1.433 . S
C935 N938 1.384 . S
C936 H927 0.929 . S
C936 C928 1.378 . S
C936 C931 1.350 . S
C937 H924 0.929 . S
C937 C929 1.433 . S
C937 N939 1.384 . S
N938 C934 1.427 . S
N938 C935 1.384 . S
N939 C931 1.427 . S
N939 C937 1.384 . S
H940 C946 0.930 . S
H941 C950 0.930 . S
H942 C955 0.929 . S
H943 C953 0.929 . S
H944 C948 0.929 . S
H945 C954 0.929 . S
C946 H940 0.930 . S
C946 C947 1.367 . S
C946 C954 1.378 . S
C947 C946 1.367 . S
C947 C955 1.433 . S
C948 H944 0.929 . S
C948 C950 1.378 . S
C948 C952 1.350 . S
C949 C952 1.463 . S
C949 C954 1.350 . S
C949 N957 1.427 . S
C950 H941 0.930 . S
C950 C948 1.378 . S
C950 C951 1.367 . S
C951 C950 1.367 . S
C951 C953 1.433 . S
C952 C948 1.350 . S
C952 C949 1.463 . S
C952 N956 1.427 . S
C953 H943 0.929 . S
C953 C951 1.433 . S
C953 N956 1.384 . S
C954 H945 0.929 . S
C954 C946 1.378 . S
C954 C949 1.350 . S
C955 H942 0.929 . S
C955 C947 1.433 . S
C955 N957 1.384 . S
N956 C952 1.427 . S
N956 C953 1.384 . S
N957 C949 1.427 . S
N957 C955 1.384 . S
H958 C964 0.930 . S
H959 C968 0.930 . S
H960 C973 0.929 . S
H961 C971 0.929 . S
H962 C966 0.929 . S
H963 C972 0.929 . S
C964 H958 0.930 . S
C964 C965 1.367 . S
C964 C972 1.378 . S
C965 C964 1.367 . S
C965 C973 1.433 . S
C966 H962 0.929 . S
C966 C968 1.378 . S
C966 C970 1.350 . S
C967 C970 1.463 . S
C967 C972 1.350 . S
C967 N975 1.427 . S
C968 H959 0.930 . S
C968 C966 1.378 . S
C968 C969 1.367 . S
C969 C968 1.367 . S
C969 C971 1.433 . S
C970 C966 1.350 . S
C970 C967 1.463 . S
C970 N974 1.427 . S
C971 H961 0.929 . S
C971 C969 1.433 . S
C971 N974 1.384 . S
C972 H963 0.929 . S
C972 C964 1.378 . S
C972 C967 1.350 . S
C973 H960 0.929 . S
C973 C965 1.433 . S
C973 N975 1.384 . S
N974 C970 1.427 . S
N974 C971 1.384 . S
N975 C967 1.427 . S
N975 C973 1.384 . S
H976 C982 0.930 . S
H977 C986 0.930 . S
H978 C991 0.929 . S
H979 C989 0.929 . S
H980 C984 0.929 . S
H981 C990 0.929 . S
C982 H976 0.930 . S
C982 C983 1.367 . S
C982 C990 1.378 . S
C983 C982 1.367 . S
C983 C991 1.433 . S
C984 H980 0.929 . S
C984 C986 1.378 . S
C984 C988 1.350 . S
C985 C988 1.463 . S
C985 C990 1.350 . S
C985 N993 1.427 . S
C986 H977 0.930 . S
C986 C984 1.378 . S
C986 C987 1.367 . S
C987 C986 1.367 . S
C987 C989 1.433 . S
C988 C984 1.350 . S
C988 C985 1.463 . S
C988 N992 1.427 . S
C989 H979 0.929 . S
C989 C987 1.433 . S
C989 N992 1.384 . S
C990 H981 0.929 . S
C990 C982 1.378 . S
C990 C985 1.350 . S
C991 H978 0.929 . S
C991 C983 1.433 . S
C991 N993 1.384 . S
N992 C988 1.427 . S
N992 C989 1.384 . S
N993 C985 1.427 . S
N993 C991 1.384 . S
H994 C1000 0.930 . S
H995 C1004 0.930 . S
H996 C1009 0.929 . S
H997 C1007 0.929 . S
H998 C1002 0.929 . S
H999 C1008 0.929 . S
C1000 H994 0.930 . S
C1000 C1001 1.367 . S
C1000 C1008 1.378 . S
C1001 C1000 1.367 . S
C1001 C1009 1.433 . S
C1002 H998 0.929 . S
C1002 C1004 1.378 . S
C1002 C1006 1.350 . S
C1003 C1006 1.463 . S
C1003 C1008 1.350 . S
C1003 N1011 1.427 . S
C1004 H995 0.930 . S
C1004 C1002 1.378 . S
C1004 C1005 1.367 . S
C1005 C1004 1.367 . S
C1005 C1007 1.433 . S
C1006 C1002 1.350 . S
C1006 C1003 1.463 . S
C1006 N1010 1.427 . S
C1007 H997 0.929 . S
C1007 C1005 1.433 . S
C1007 N1010 1.384 . S
C1008 H999 0.929 . S
C1008 C1000 1.378 . S
C1008 C1003 1.350 . S
C1009 H996 0.929 . S
C1009 C1001 1.433 . S
C1009 N1011 1.384 . S
N1010 C1006 1.427 . S
N1010 C1007 1.384 . S
N1011 C1003 1.427 . S
N1011 C1009 1.384 . S
H1012 C1018 0.930 . S
H1013 C1022 0.930 . S
H1014 C1027 0.929 . S
H1015 C1025 0.929 . S
H1016 C1020 0.929 . S
H1017 C1026 0.929 . S
C1018 H1012 0.930 . S
C1018 C1019 1.367 . S
C1018 C1026 1.378 . S
C1019 C1018 1.367 . S
C1019 C1027 1.433 . S
C1020 H1016 0.929 . S
C1020 C1022 1.378 . S
C1020 C1024 1.350 . S
C1021 C1024 1.463 . S
C1021 C1026 1.350 . S
C1021 N1029 1.427 . S
C1022 H1013 0.930 . S
C1022 C1020 1.378 . S
C1022 C1023 1.367 . S
C1023 C1022 1.367 . S
C1023 C1025 1.433 . S
C1024 C1020 1.350 . S
C1024 C1021 1.463 . S
C1024 N1028 1.427 . S
C1025 H1015 0.929 . S
C1025 C1023 1.433 . S
C1025 N1028 1.384 . S
C1026 H1017 0.929 . S
C1026 C1018 1.378 . S
C1026 C1021 1.350 . S
C1027 H1014 0.929 . S
C1027 C1019 1.433 . S
C1027 N1029 1.384 . S
N1028 C1024 1.427 . S
N1028 C1025 1.384 . S
N1029 C1021 1.427 . S
N1029 C1027 1.384 . S
H1030 C1036 0.930 . S
H1031 C1040 0.930 . S
H1032 C1045 0.929 . S
H1033 C1043 0.929 . S
H1034 C1038 0.929 . S
H1035 C1044 0.929 . S
C1036 H1030 0.930 . S
C1036 C1037 1.367 . S
C1036 C1044 1.378 . S
C1037 C1036 1.367 . S
C1037 C1045 1.433 . S
C1038 H1034 0.929 . S
C1038 C1040 1.378 . S
C1038 C1042 1.350 . S
C1039 C1042 1.463 . S
C1039 C1044 1.350 . S
C1039 N1047 1.427 . S
C1040 H1031 0.930 . S
C1040 C1038 1.378 . S
C1040 C1041 1.367 . S
C1041 C1040 1.367 . S
C1041 C1043 1.433 . S
C1042 C1038 1.350 . S
C1042 C1039 1.463 . S
C1042 N1046 1.427 . S
C1043 H1033 0.929 . S
C1043 C1041 1.433 . S
C1043 N1046 1.384 . S
C1044 H1035 0.929 . S
C1044 C1036 1.378 . S
C1044 C1039 1.350 . S
C1045 H1032 0.929 . S
C1045 C1037 1.433 . S
C1045 N1047 1.384 . S
N1046 C1042 1.427 . S
N1046 C1043 1.384 . S
N1047 C1039 1.427 . S
N1047 C1045 1.384 . S
H1048 C1054 0.930 . S
H1049 C1058 0.930 . S
H1050 C1063 0.929 . S
H1051 C1061 0.929 . S
H1052 C1056 0.929 . S
H1053 C1062 0.929 . S
C1054 H1048 0.930 . S
C1054 C1055 1.367 . S
C1054 C1062 1.378 . S
C1055 C1054 1.367 . S
C1055 C1063 1.433 . S
C1056 H1052 0.929 . S
C1056 C1058 1.378 . S
C1056 C1060 1.350 . S
C1057 C1060 1.463 . S
C1057 C1062 1.350 . S
C1057 N1065 1.427 . S
C1058 H1049 0.930 . S
C1058 C1056 1.378 . S
C1058 C1059 1.367 . S
C1059 C1058 1.367 . S
C1059 C1061 1.433 . S
C1060 C1056 1.350 . S
C1060 C1057 1.463 . S
C1060 N1064 1.427 . S
C1061 H1051 0.929 . S
C1061 C1059 1.433 . S
C1061 N1064 1.384 . S
C1062 H1053 0.929 . S
C1062 C1054 1.378 . S
C1062 C1057 1.350 . S
C1063 H1050 0.929 . S
C1063 C1055 1.433 . S
C1063 N1065 1.384 . S
N1064 C1060 1.427 . S
N1064 C1061 1.384 . S
N1065 C1057 1.427 . S
N1065 C1063 1.384 . S
H1066 C1072 0.930 . S
H1067 C1076 0.930 . S
H1068 C1081 0.929 . S
H1069 C1079 0.929 . S
H1070 C1074 0.929 . S
H1071 C1080 0.929 . S
C1072 H1066 0.930 . S
C1072 C1073 1.367 . S
C1072 C1080 1.378 . S
C1073 C1072 1.367 . S
C1073 C1081 1.433 . S
C1074 H1070 0.929 . S
C1074 C1076 1.378 . S
C1074 C1078 1.350 . S
C1075 C1078 1.463 . S
C1075 C1080 1.350 . S
C1075 N1083 1.427 . S
C1076 H1067 0.930 . S
C1076 C1074 1.378 . S
C1076 C1077 1.367 . S
C1077 C1076 1.367 . S
C1077 C1079 1.433 . S
C1078 C1074 1.350 . S
C1078 C1075 1.463 . S
C1078 N1082 1.427 . S
C1079 H1069 0.929 . S
C1079 C1077 1.433 . S
C1079 N1082 1.384 . S
C1080 H1071 0.929 . S
C1080 C1072 1.378 . S
C1080 C1075 1.350 . S
C1081 H1068 0.929 . S
C1081 C1073 1.433 . S
C1081 N1083 1.384 . S
N1082 C1078 1.427 . S
N1082 C1079 1.384 . S
N1083 C1075 1.427 . S
N1083 C1081 1.384 . S
H1084 C1090 0.930 . S
H1085 C1094 0.930 . S
H1086 C1099 0.929 . S
H1087 C1097 0.929 . S
H1088 C1092 0.929 . S
H1089 C1098 0.929 . S
C1090 H1084 0.930 . S
C1090 C1091 1.367 . S
C1090 C1098 1.378 . S
C1091 C1090 1.367 . S
C1091 C1099 1.433 . S
C1092 H1088 0.929 . S
C1092 C1094 1.378 . S
C1092 C1096 1.350 . S
C1093 C1096 1.463 . S
C1093 C1098 1.350 . S
C1093 N1101 1.427 . S
C1094 H1085 0.930 . S
C1094 C1092 1.378 . S
C1094 C1095 1.367 . S
C1095 C1094 1.367 . S
C1095 C1097 1.433 . S
C1096 C1092 1.350 . S
C1096 C1093 1.463 . S
C1096 N1100 1.427 . S
C1097 H1087 0.929 . S
C1097 C1095 1.433 . S
C1097 N1100 1.384 . S
C1098 H1089 0.929 . S
C1098 C1090 1.378 . S
C1098 C1093 1.350 . S
C1099 H1086 0.929 . S
C1099 C1091 1.433 . S
C1099 N1101 1.384 . S
N1100 C1096 1.427 . S
N1100 C1097 1.384 . S
N1101 C1093 1.427 . S
N1101 C1099 1.384 . S
H1102 C1108 0.930 . S
H1103 C1112 0.930 . S
H1104 C1117 0.929 . S
H1105 C1115 0.929 . S
H1106 C1110 0.929 . S
H1107 C1116 0.929 . S
C1108 H1102 0.930 . S
C1108 C1109 1.367 . S
C1108 C1116 1.378 . S
C1109 C1108 1.367 . S
C1109 C1117 1.433 . S
C1110 H1106 0.929 . S
C1110 C1112 1.378 . S
C1110 C1114 1.350 . S
C1111 C1114 1.463 . S
C1111 C1116 1.350 . S
C1111 N1119 1.427 . S
C1112 H1103 0.930 . S
C1112 C1110 1.378 . S
C1112 C1113 1.367 . S
C1113 C1112 1.367 . S
C1113 C1115 1.433 . S
C1114 C1110 1.350 . S
C1114 C1111 1.463 . S
C1114 N1118 1.427 . S
C1115 H1105 0.929 . S
C1115 C1113 1.433 . S
C1115 N1118 1.384 . S
C1116 H1107 0.929 . S
C1116 C1108 1.378 . S
C1116 C1111 1.350 . S
C1117 H1104 0.929 . S
C1117 C1109 1.433 . S
C1117 N1119 1.384 . S
N1118 C1114 1.427 . S
N1118 C1115 1.384 . S
N1119 C1111 1.427 . S
N1119 C1117 1.384 . S
H1120 C1126 0.930 . S
H1121 C1130 0.930 . S
H1122 C1135 0.929 . S
H1123 C1133 0.929 . S
H1124 C1128 0.936 . S
H1125 C1134 0.936 . S
C1126 H1120 0.930 . S
C1126 C1127 1.367 . S
C1126 C1134 1.378 . S
C1127 C1126 1.367 . S
C1127 C1135 1.433 1_554 S
C1128 H1124 0.936 . S
C1128 C1130 1.378 . S
C1128 C1132 1.350 . S
C1129 C1132 1.463 1_544 S
C1129 C1134 1.350 . S
C1129 N1137 1.427 1_554 S
C1130 H1121 0.930 . S
C1130 C1128 1.378 . S
C1130 C1131 1.367 . S
C1131 C1130 1.367 . S
C1131 C1133 1.433 1_556 S
C1132 C1128 1.350 . S
C1132 C1129 1.463 1_566 S
C1132 N1136 1.427 1_556 S
C1133 H1123 0.929 . S
C1133 C1131 1.433 1_554 S
C1133 N1136 1.384 . S
C1134 H1125 0.936 . S
C1134 C1126 1.378 . S
C1134 C1129 1.350 . S
C1135 H1122 0.929 . S
C1135 C1127 1.433 1_556 S
C1135 N1137 1.384 . S
N1136 C1132 1.427 1_554 S
N1136 C1133 1.384 . S
N1137 C1129 1.427 1_556 S
N1137 C1135 1.384 . S
H1138 C1144 0.930 . S
H1139 C1148 0.930 . S
H1140 C1153 0.929 . S
H1141 C1151 0.929 . S
H1142 C1146 0.929 . S
H1143 C1152 0.929 . S
C1144 H1138 0.930 . S
C1144 C1145 1.367 1_554 S
C1144 C1152 1.378 . S
C1145 C1144 1.367 1_556 S
C1145 C1153 1.433 . S
C1146 H1142 0.929 . S
C1146 C1148 1.378 . S
C1146 C1150 1.350 1_556 S
C1147 C1150 1.463 1_556 S
C1147 C1152 1.350 1_556 S
C1147 N1155 1.427 . S
C1148 H1139 0.930 . S
C1148 C1146 1.378 . S
C1148 C1149 1.367 1_556 S
C1149 C1148 1.367 1_554 S
C1149 C1151 1.433 . S
C1150 C1146 1.350 1_554 S
C1150 C1147 1.463 1_554 S
C1150 N1154 1.427 . S
C1151 H1141 0.929 . S
C1151 C1149 1.433 . S
C1151 N1154 1.384 . S
C1152 H1143 0.929 . S
C1152 C1144 1.378 . S
C1152 C1147 1.350 1_554 S
C1153 H1140 0.929 . S
C1153 C1145 1.433 . S
C1153 N1155 1.384 . S
N1154 C1150 1.427 . S
N1154 C1151 1.384 . S
N1155 C1147 1.427 . S
N1155 C1153 1.384 . S
H1156 C1162 0.930 . S
H1157 C1166 0.930 . S
H1158 C1171 0.929 . S
H1159 C1169 0.929 . S
H1160 C1164 0.929 . S
H1161 C1170 0.929 . S
C1162 H1156 0.930 . S
C1162 C1163 1.367 . S
C1162 C1170 1.378 . S
C1163 C1162 1.367 . S
C1163 C1171 1.433 . S
C1164 H1160 0.929 . S
C1164 C1166 1.378 . S
C1164 C1168 1.350 . S
C1165 C1168 1.463 1_456 S
C1165 C1170 1.350 . S
C1165 N1173 1.427 1_556 S
C1166 H1157 0.930 . S
C1166 C1164 1.378 . S
C1166 C1167 1.367 . S
C1167 C1166 1.367 . S
C1167 C1169 1.433 . S
C1168 C1164 1.350 . S
C1168 C1165 1.463 1_654 S
C1168 N1172 1.427 1_554 S
C1169 H1159 0.929 . S
C1169 C1167 1.433 . S
C1169 N1172 1.384 1_554 S
C1170 H1161 0.929 . S
C1170 C1162 1.378 . S
C1170 C1165 1.350 . S
C1171 H1158 0.929 . S
C1171 C1163 1.433 . S
C1171 N1173 1.384 1_556 S
N1172 C1168 1.427 1_556 S
N1172 C1169 1.384 1_556 S
N1173 C1165 1.427 1_554 S
N1173 C1171 1.384 1_554 S
H1174 C1180 0.928 . S
H1175 C1184 0.928 . S
H1176 C1189 0.929 . S
H1177 C1187 0.929 . S
H1178 C1182 0.929 . S
H1179 C1188 0.929 . S
C1180 H1174 0.928 . S
C1180 C1181 1.370 1_656 S
C1180 C1188 1.376 . S
C1181 C1180 1.370 1_454 S
C1181 C1189 1.433 . S
C1182 H1178 0.929 . S
C1182 C1184 1.376 . S
C1182 C1186 1.350 1_454 S
C1183 C1186 1.463 1_464 S
C1183 C1188 1.350 1_454 S
C1183 N1191 1.427 . S
C1184 H1175 0.928 . S
C1184 C1182 1.376 . S
C1184 C1185 1.370 1_454 S
C1185 C1184 1.370 1_656 S
C1185 C1187 1.433 . S
C1186 C1182 1.350 1_656 S
C1186 C1183 1.463 1_646 S
C1186 N1190 1.427 . S
C1187 H1177 0.929 . S
C1187 C1185 1.433 . S
C1187 N1190 1.384 . S
C1188 H1179 0.929 . S
C1188 C1180 1.376 . S
C1188 C1183 1.350 1_656 S
C1189 H1176 0.929 . S
C1189 C1181 1.433 . S
C1189 N1191 1.384 . S
N1190 C1186 1.427 . S
N1190 C1187 1.384 . S
N1191 C1183 1.427 . S
N1191 C1189 1.384 . S
H1192 C1198 0.930 . S
H1193 C1202 0.930 . S
H1194 C1207 0.929 . S
H1195 C1205 0.929 . S
H1196 C1200 0.929 . S
H1197 C1206 0.929 . S
C1198 H1192 0.930 . S
C1198 C1199 1.367 . S
C1198 C1206 1.378 . S
C1199 C1198 1.367 . S
C1199 C1207 1.433 . S
C1200 H1196 0.929 . S
C1200 C1202 1.378 . S
C1200 C1204 1.350 . S
C1201 C1204 1.463 . S
C1201 C1206 1.350 . S
C1201 N1209 1.427 . S
C1202 H1193 0.930 . S
C1202 C1200 1.378 . S
C1202 C1203 1.367 . S
C1203 C1202 1.367 . S
C1203 C1205 1.433 . S
C1204 C1200 1.350 . S
C1204 C1201 1.463 . S
C1204 N1208 1.427 . S
C1205 H1195 0.929 . S
C1205 C1203 1.433 . S
C1205 N1208 1.384 . S
C1206 H1197 0.929 . S
C1206 C1198 1.378 . S
C1206 C1201 1.350 . S
C1207 H1194 0.929 . S
C1207 C1199 1.433 . S
C1207 N1209 1.384 . S
N1208 C1204 1.427 . S
N1208 C1205 1.384 . S
N1209 C1201 1.427 . S
N1209 C1207 1.384 . S
H1210 C1216 0.930 . S
H1211 C1220 0.930 . S
H1212 C1225 0.929 . S
H1213 C1223 0.929 . S
H1214 C1218 0.929 . S
H1215 C1224 0.929 . S
C1216 H1210 0.930 . S
C1216 C1217 1.367 1_655 S
C1216 C1224 1.378 . S
C1217 C1216 1.367 1_455 S
C1217 C1225 1.433 . S
C1218 H1214 0.929 . S
C1218 C1220 1.378 . S
C1218 C1222 1.350 1_455 S
C1219 C1222 1.463 1_455 S
C1219 C1224 1.350 1_455 S
C1219 N1227 1.427 . S
C1220 H1211 0.930 . S
C1220 C1218 1.378 . S
C1220 C1221 1.367 1_455 S
C1221 C1220 1.367 1_655 S
C1221 C1223 1.433 . S
C1222 C1218 1.350 1_655 S
C1222 C1219 1.463 1_655 S
C1222 N1226 1.427 . S
C1223 H1213 0.929 . S
C1223 C1221 1.433 . S
C1223 N1226 1.384 . S
C1224 H1215 0.929 . S
C1224 C1216 1.378 . S
C1224 C1219 1.350 1_655 S
C1225 H1212 0.929 . S
C1225 C1217 1.433 . S
C1225 N1227 1.384 . S
N1226 C1222 1.427 . S
N1226 C1223 1.384 . S
N1227 C1219 1.427 . S
N1227 C1225 1.384 . S
H1228 C1234 0.930 . S
H1229 C1238 0.930 . S
H1230 C1243 0.929 . S
H1231 C1241 0.929 . S
H1232 C1236 0.929 . S
H1233 C1242 0.929 . S
C1234 H1228 0.930 . S
C1234 C1235 1.367 . S
C1234 C1242 1.378 . S
C1235 C1234 1.367 . S
C1235 C1243 1.433 . S
C1236 H1232 0.929 . S
C1236 C1238 1.378 . S
C1236 C1240 1.350 . S
C1237 C1240 1.463 1_465 S
C1237 C1242 1.350 . S
C1237 N1245 1.427 . S
C1238 H1229 0.930 . S
C1238 C1236 1.378 . S
C1238 C1239 1.367 . S
C1239 C1238 1.367 . S
C1239 C1241 1.433 . S
C1240 C1236 1.350 . S
C1240 C1237 1.463 1_645 S
C1240 N1244 1.427 . S
C1241 H1231 0.929 . S
C1241 C1239 1.433 . S
C1241 N1244 1.384 . S
C1242 H1233 0.929 . S
C1242 C1234 1.378 . S
C1242 C1237 1.350 . S
C1243 H1230 0.929 . S
C1243 C1235 1.433 . S
C1243 N1245 1.384 . S
N1244 C1240 1.427 . S
N1244 C1241 1.384 . S
N1245 C1237 1.427 . S
N1245 C1243 1.384 . S
H1246 C1252 0.930 . S
H1247 C1256 0.930 . S
H1248 C1261 0.929 . S
H1249 C1259 0.929 . S
H1250 C1254 0.929 . S
H1251 C1260 0.929 . S
C1252 H1246 0.930 . S
C1252 C1253 1.367 . S
C1252 C1260 1.378 . S
C1253 C1252 1.367 . S
C1253 C1261 1.433 . S
C1254 H1250 0.929 . S
C1254 C1256 1.378 . S
C1254 C1258 1.350 . S
C1255 C1258 1.463 1_565 S
C1255 C1260 1.350 . S
C1255 N1263 1.427 . S
C1256 H1247 0.930 . S
C1256 C1254 1.378 . S
C1256 C1257 1.367 . S
C1257 C1256 1.367 . S
C1257 C1259 1.433 . S
C1258 C1254 1.350 . S
C1258 C1255 1.463 1_545 S
C1258 N1262 1.427 . S
C1259 H1249 0.929 . S
C1259 C1257 1.433 . S
C1259 N1262 1.384 . S
C1260 H1251 0.929 . S
C1260 C1252 1.378 . S
C1260 C1255 1.350 . S
C1261 H1248 0.929 . S
C1261 C1253 1.433 . S
C1261 N1263 1.384 . S
N1262 C1258 1.427 . S
N1262 C1259 1.384 . S
N1263 C1255 1.427 . S
N1263 C1261 1.384 . S
C551 C5 0.754 . S
C555 C243 0.762 . S
C569 C141 0.752 . S
C573 C39 0.761 . S
C587 C73 0.756 . S
C591 C175 0.763 . S
C605 C107 0.765 . S
C609 C209 0.765 . S
C623 C277 0.757 . S
C627 C515 0.748 . S
C641 C413 0.734 . S
C645 C311 0.737 . S
C659 C447 0.757 . S
C663 C345 0.747 . S
C677 C481 0.765 . S
C681 C379 0.765 . S
C695 C206 1.323 . S
C699 C2 1.325 . S
C713 C36 1.323 . S
C717 C240 1.322 . S
C731 C70 1.344 . S
C735 C138 1.342 . S
C749 C172 1.322 . S
C753 C104 1.321 . S
C767 C478 1.324 . S
C771 C274 1.323 . S
C785 C512 1.324 . S
C789 C308 1.326 . S
C803 C342 1.337 . S
C807 C410 1.334 . S
C821 C376 1.323 . S
C825 C444 1.325 . S
C839 C9 1.316 . S
C843 C543 1.473 . S
C857 C43 1.294 . S
C861 C441 1.475 . S
C875 C77 1.317 . S
C879 C475 1.473 . S
C893 C509 1.475 . S
C897 C111 1.293 . S
C911 C339 1.477 . S
C915 C145 1.292 . S
C929 C373 1.474 . S
C933 C179 1.295 . S
C947 C213 1.308 . S
C951 C407 1.476 . S
C965 C247 1.292 . S
C969 C305 1.477 . S
C983 C271 1.475 . S
C987 C281 1.294 . S
C1001 C169 1.469 . S
C1005 C315 1.314 . S
C1019 C349 1.304 . S
C1023 C203 1.477 . S
C1037 C237 1.477 . S
C1041 C383 1.292 . S
C1055 C67 1.470 . S
C1059 C417 1.309 . S
C1073 C101 1.470 . S
C1077 C451 1.318 . S
C1091 C135 1.473 . S
C1095 C485 1.318 . S
C1109 C33 1.469 . S
C1113 C519 1.313 . S
C1127 C20 1.196 . S
C1131 C292 1.196 . S
C1145 C326 1.209 . S
C1149 C54 1.209 . S
C1163 C360 1.201 . S
C1167 C88 1.201 . S
C1181 C122 1.207 . S
C1185 C394 1.207 . S
C1199 C428 1.196 . S
C1203 C156 1.196 . S
C1217 C190 1.203 . S
C1221 C462 1.203 . S
C1235 C496 1.196 . S
C1239 C224 1.196 . S
C1253 C258 1.209 . S
C1257 C530 1.209 . S
