# Generated by pormake.
# Topology uof, (4)-cn, num edge types: 1
# Building blocks:
#     Node 0, Type 0, BuildingBlock: ICAMEG_clean_sbu_1, # of connection points: 4
#     Node 1, Type 0, BuildingBlock: ICAMEG_clean_sbu_1, # of connection points: 4
#     Node 2, Type 0, BuildingBlock: ICAMEG_clean_sbu_1, # of connection points: 4
#     Node 3, Type 0, BuildingBlock: ICAMEG_clean_sbu_1, # of connection points: 4
#     Node 4, Type 0, BuildingBlock: ICAMEG_clean_sbu_1, # of connection points: 4
#     Node 5, Type 0, BuildingBlock: ICAMEG_clean_sbu_1, # of connection points: 4
#     Node 6, Type 0, BuildingBlock: ICAMEG_clean_sbu_1, # of connection points: 4
#     Node 7, Type 0, BuildingBlock: ICAMEG_clean_sbu_1, # of connection points: 4
#     Node 8, Type 0, BuildingBlock: ICAMEG_clean_sbu_1, # of connection points: 4
#     Node 9, Type 0, BuildingBlock: ICAMEG_clean_sbu_1, # of connection points: 4
#     Node 10, Type 0, BuildingBlock: ICAMEG_clean_sbu_1, # of connection points: 4
#     Node 11, Type 0, BuildingBlock: ICAMEG_clean_sbu_1, # of connection points: 4
#     Edge 12, Type (0, 0), BuildingBlock: CIFDUS_clean_linker_0, # of connection points: 2
#     Edge 13, Type (0, 0), BuildingBlock: CIFDUS_clean_linker_0, # of connection points: 2
#     Edge 14, Type (0, 0), BuildingBlock: CIFDUS_clean_linker_0, # of connection points: 2
#     Edge 15, Type (0, 0), BuildingBlock: CIFDUS_clean_linker_0, # of connection points: 2
#     Edge 16, Type (0, 0), BuildingBlock: CIFDUS_clean_linker_0, # of connection points: 2
#     Edge 17, Type (0, 0), BuildingBlock: CIFDUS_clean_linker_0, # of connection points: 2
#     Edge 18, Type (0, 0), BuildingBlock: CIFDUS_clean_linker_0, # of connection points: 2
#     Edge 19, Type (0, 0), BuildingBlock: CIFDUS_clean_linker_0, # of connection points: 2
#     Edge 20, Type (0, 0), BuildingBlock: CIFDUS_clean_linker_0, # of connection points: 2
#     Edge 21, Type (0, 0), BuildingBlock: CIFDUS_clean_linker_0, # of connection points: 2
#     Edge 22, Type (0, 0), BuildingBlock: CIFDUS_clean_linker_0, # of connection points: 2
#     Edge 23, Type (0, 0), BuildingBlock: CIFDUS_clean_linker_0, # of connection points: 2
#     Edge 24, Type (0, 0), BuildingBlock: CIFDUS_clean_linker_0, # of connection points: 2
#     Edge 25, Type (0, 0), BuildingBlock: CIFDUS_clean_linker_0, # of connection points: 2
#     Edge 26, Type (0, 0), BuildingBlock: CIFDUS_clean_linker_0, # of connection points: 2
#     Edge 27, Type (0, 0), BuildingBlock: CIFDUS_clean_linker_0, # of connection points: 2
#     Edge 28, Type (0, 0), BuildingBlock: CIFDUS_clean_linker_0, # of connection points: 2
#     Edge 29, Type (0, 0), BuildingBlock: CIFDUS_clean_linker_0, # of connection points: 2
#     Edge 30, Type (0, 0), BuildingBlock: CIFDUS_clean_linker_0, # of connection points: 2
#     Edge 31, Type (0, 0), BuildingBlock: CIFDUS_clean_linker_0, # of connection points: 2
#     Edge 32, Type (0, 0), BuildingBlock: CIFDUS_clean_linker_0, # of connection points: 2
#     Edge 33, Type (0, 0), BuildingBlock: CIFDUS_clean_linker_0, # of connection points: 2
#     Edge 34, Type (0, 0), BuildingBlock: CIFDUS_clean_linker_0, # of connection points: 2
#     Edge 35, Type (0, 0), BuildingBlock: CIFDUS_clean_linker_0, # of connection points: 2
# Relax obj value: 0.217
# Max RMSD: 0.165
# Mean RMSD: 0.165
data_MOF--net-uof--node1-ICAMEG_clean_sbu_1--edge1-CIFDUS_clean_linker_0
_symmetry_space_group_name_H-M    P1
_symmetry_Int_Tables_number       1
_symmetry_cell_setting            triclinic
loop_
_symmetry_equiv_pos_as_xyz
'x, y, z'
_cell_length_a     28.913975
_cell_length_b     29.054262
_cell_length_c     63.6097
_cell_angle_alpha  90.036329
_cell_angle_beta   90.030213
_cell_angle_gamma 120.04325
loop_
_atom_site_label
_atom_site_type_symbol
_atom_site_fract_x
_atom_site_fract_y
_atom_site_fract_z
_atom_type_partial_charge
Co0 Co 0.24308 0.34864 0.21826 0.0
Co1 Co 0.20321 0.22137 0.23629 0.0
O2 O 0.2398 0.29896 0.23999 0.0
C3 C 0.35782 0.38968 0.2273 0.0
O4 O 0.34678 0.34027 0.22511 0.0
C5 C 0.19001 0.23962 0.28231 0.0
O6 O 0.21454 0.29122 0.27954 0.0
O7 O 0.13603 0.21971 0.22687 0.0
O8 O 0.16652 0.2975 0.2097 0.0
H9 H 0.09457 0.05118 0.19586 0.0
H10 H 0.27724 0.39066 0.26139 0.0
O11 O 0.32019 0.40053 0.22592 0.0
H12 H 0.1246 0.41618 0.24557 0.0
H13 H 0.29579 0.52965 0.18939 0.0
H14 H 0.20504 0.33742 0.17423 0.0
H15 H 0.15666 0.37615 0.21931 0.0
H16 H 0.28995 0.46624 0.21649 0.0
O17 O 0.17849 0.2083 0.26664 0.0
H18 H 0.1436 0.14819 0.20098 0.0
H19 H 0.1861 0.12889 0.26295 0.0
H20 H 0.20952 0.39938 0.14674 0.0
H21 H 0.24704 0.43157 0.28805 0.0
H22 H 0.2552 0.49626 0.15425 0.0
H23 H 0.17003 0.44437 0.28022 0.0
O24 O 0.26864 0.31661 0.19686 0.0
H25 H 0.3732 0.28177 0.27782 0.0
H26 H 0.2607 0.16789 0.21996 0.0
H27 H 0.34362 0.16835 0.22897 0.0
H28 H 0.40038 0.22514 0.25825 0.0
H29 H 0.2909 0.28109 0.26795 0.0
H30 H 0.137 0.03163 0.25854 0.0
H31 H 0.09064 0.99204 0.22482 0.0
O32 O 0.22746 0.23088 0.20681 0.0
C33 C 0.12922 0.25042 0.21435 0.0
C34 C 0.11422 0.06791 0.2107 0.0
C35 C 0.13796 0.05695 0.24587 0.0
N36 N 0.16665 0.1445 0.23243 0.0
C37 C 0.14194 0.12292 0.21373 0.0
C38 C 0.16535 0.11217 0.24833 0.0
C39 C 0.11207 0.03476 0.22694 0.0
C40 C 0.24383 0.39628 0.25786 0.0
N41 N 0.2184 0.38057 0.23891 0.0
C42 C 0.22684 0.41937 0.27302 0.0
C43 C 0.1836 0.42649 0.26863 0.0
C44 C 0.15803 0.41059 0.24921 0.0
C45 C 0.17611 0.3876 0.23445 0.0
C46 C 0.27568 0.48751 0.18594 0.0
C47 C 0.22462 0.37949 0.17766 0.0
C48 C 0.27234 0.45144 0.20121 0.0
N49 N 0.2468 0.39816 0.19699 0.0
C50 C 0.22719 0.41439 0.16201 0.0
C51 C 0.25288 0.46875 0.16623 0.0
C52 C 0.25541 0.26825 0.19408 0.0
C53 C 0.34826 0.25597 0.26532 0.0
C54 C 0.28453 0.19216 0.23296 0.0
C55 C 0.33175 0.19247 0.23789 0.0
C56 C 0.3636 0.22438 0.25428 0.0
N57 N 0.26884 0.22219 0.2442 0.0
C58 C 0.30081 0.25469 0.2599 0.0
Co59 Co 0.93356 0.24752 0.54477 0.0
Co60 Co 0.97769 0.18496 0.57845 0.0
O61 O 0.94735 0.2311 0.5732 0.0
C62 C 0.99835 0.35693 0.56203 0.0
O63 O 0.03573 0.34525 0.56626 0.0
C64 C 0.91431 0.1769 0.61682 0.0
O65 O 0.89123 0.2009 0.60787 0.0
O66 O 0.91869 0.12673 0.56141 0.0
O67 O 0.91318 0.17418 0.53457 0.0
H68 H 0.03921 0.05848 0.55582 0.0
H69 H 0.88167 0.26964 0.58046 0.0
O70 O 0.95407 0.32177 0.55407 0.0
H71 H 0.73381 0.13895 0.53626 0.0
H72 H 0.866 0.3295 0.49217 0.0
H73 H 0.95776 0.22646 0.50167 0.0
H74 H 0.82745 0.17176 0.52606 0.0
H75 H 0.88185 0.30634 0.52771 0.0
O76 O 0.93571 0.15656 0.6054 0.0
H77 H 1.00113 0.11694 0.55082 0.0
H78 H 0.01695 0.15218 0.61611 0.0
H79 H 0.94245 0.24849 0.46586 0.0
H80 H 0.78857 0.23835 0.59114 0.0
H81 H 0.89626 0.30037 0.46093 0.0
H82 H 0.71387 0.17241 0.56899 0.0
O83 O 1.00869 0.27252 0.53646 0.0
H84 H 0.06181 0.34598 0.62626 0.0
H85 H 0.09482 0.22412 0.58352 0.0
H86 H 0.169 0.29623 0.60292 0.0
H87 H 0.15282 0.35754 0.62481 0.0
H88 H 0.98924 0.27465 0.60619 0.0
H89 H 0.05384 0.09302 0.6219 0.0
H90 H 0.0663 0.04655 0.59154 0.0
O91 O 0.02272 0.21227 0.55284 0.0
C92 C 0.9043 0.13032 0.5427 0.0
C93 C 0.03417 0.07867 0.56916 0.0
C94 C 0.04221 0.09791 0.60626 0.0
N95 N 1.00661 0.138 0.58317 0.0
C96 C 0.01266 0.11191 0.56644 0.0
C97 C 0.02061 0.13087 0.60293 0.0
C98 C 0.04924 0.0719 0.58921 0.0
C99 C 0.84937 0.24112 0.5707 0.0
N100 N 0.85999 0.22243 0.55271 0.0
C101 C 0.79674 0.22347 0.57684 0.0
C102 C 0.75485 0.18643 0.56442 0.0
C103 C 0.76601 0.1676 0.54607 0.0
C104 C 0.81913 0.18615 0.54042 0.0
C105 C 0.88607 0.30678 0.49411 0.0
C106 C 0.93734 0.24877 0.49966 0.0
C107 C 0.89523 0.29361 0.5142 0.0
N108 N 0.92035 0.26474 0.51676 0.0
C109 C 0.92891 0.26125 0.47934 0.0
C110 C 0.90304 0.29041 0.47659 0.0
C111 C 0.03628 0.25018 0.53982 0.0
C112 C 0.06925 0.31895 0.61709 0.0
C113 C 0.08687 0.25014 0.59296 0.0
C114 C 0.12935 0.29117 0.60395 0.0
C115 C 0.12029 0.32555 0.61621 0.0
N116 N 0.03628 0.24263 0.59432 0.0
C117 C 0.0278 0.27756 0.60582 0.0
Co118 Co 0.72786 0.94426 0.8931 0.0
Co119 Co 0.82848 0.96852 0.92693 0.0
O120 O 0.7546 0.95229 0.92202 0.0
C121 C 0.67586 0.01042 0.8937 0.0
O122 O 0.70958 0.03918 0.87887 0.0
C123 C 0.76661 0.91251 0.96606 0.0
O124 O 0.72022 0.89406 0.95669 0.0
O125 O 0.81132 0.90099 0.91209 0.0
O126 O 0.77434 0.91441 0.88344 0.0
H127 H 1.00202 0.98447 0.90369 0.0
H128 H 0.64904 0.89638 0.92756 0.0
O129 O 0.67957 0.97248 0.90217 0.0
H130 H 0.61446 0.74686 0.88089 0.0
H131 H 0.58769 0.89631 0.83697 0.0
H132 H 0.77975 0.97066 0.85131 0.0
H133 H 0.68543 0.83804 0.87247 0.0
H134 H 0.62032 0.90405 0.87336 0.0
O135 O 0.80971 0.93358 0.95541 0.0
H136 H 0.91005 0.96632 0.89932 0.0
H137 H 0.90392 1.00067 0.96383 0.0
H138 H 0.74884 0.96345 0.81468 0.0
H139 H 0.57725 0.80585 0.93646 0.0
H140 H 0.65216 0.92606 0.80732 0.0
H141 H 0.55964 0.7303 0.91305 0.0
O142 O 0.78681 0.018 0.88702 0.0
H143 H 0.7879 0.08737 0.97163 0.0
H144 H 0.92279 0.07911 0.92706 0.0
H145 H 0.94349 0.16398 0.94339 0.0
H146 H 0.87598 0.16857 0.96604 0.0
H147 H 0.76855 1.00346 0.95486 0.0
H148 H 0.99535 0.01737 0.96905 0.0
H149 H 0.04538 0.00962 0.9388 0.0
O150 O 0.85213 0.00685 0.89975 0.0
C151 C 0.79848 0.89304 0.89257 0.0
C152 C 0.98064 0.98765 0.91704 0.0
C153 C 0.97687 1.00618 0.95368 0.0
N154 N 0.90119 0.98251 0.93128 0.0
C155 C 0.92842 0.97765 0.91465 0.0
C156 C 0.92479 0.99627 0.95066 0.0
C157 C 1.00494 1.00187 0.93672 0.0
C158 C 0.64145 0.86375 0.91725 0.0
N159 N 0.67141 0.87255 0.89953 0.0
C160 C 0.60083 0.81256 0.92239 0.0
C161 C 0.591 0.77018 0.90926 0.0
C162 C 0.62178 0.77944 0.89123 0.0
C163 C 0.66208 0.83116 0.88659 0.0
C164 C 0.6299 0.9126 0.83997 0.0
C165 C 0.73761 0.95421 0.84823 0.0
C166 C 0.64862 0.91709 0.86054 0.0
N167 N 0.7019 0.93761 0.86445 0.0
C168 C 0.72034 0.95028 0.82746 0.0
C169 C 0.6661 0.92931 0.82334 0.0
C170 C 0.83627 0.03392 0.88957 0.0
C171 C 0.81786 0.0858 0.96195 0.0
C172 C 0.89315 0.08038 0.93693 0.0
C173 C 0.90513 0.12877 0.94612 0.0
C174 C 0.86724 0.13134 0.95879 0.0
N175 N 0.84496 0.03547 0.94037 0.0
C176 C 0.80723 0.03814 0.95243 0.0
Co177 Co 0.7585 0.69748 0.21443 0.0
Co178 Co 0.829 0.79963 0.24863 0.0
O179 O 0.77596 0.72452 0.24336 0.0
C180 C 0.64722 0.6533 0.23117 0.0
O181 O 0.65945 0.70204 0.23598 0.0
C182 C 0.82237 0.74457 0.28912 0.0
O183 O 0.78448 0.69823 0.28232 0.0
O184 O 0.8827 0.78899 0.23289 0.0
O185 O 0.83375 0.7487 0.20436 0.0
H186 H 0.97922 0.9782 0.2261 0.0
H187 H 0.73611 0.62161 0.24914 0.0
O188 O 0.68274 0.64446 0.22333 0.0
H189 H 0.8567 0.59775 0.20132 0.0
H190 H 0.67057 0.55667 0.1586 0.0
H191 H 0.78055 0.74893 0.17266 0.0
H192 H 0.82785 0.66249 0.19306 0.0
H193 H 0.69511 0.58992 0.19494 0.0
O194 O 0.85111 0.7812 0.27608 0.0
H195 H 0.90591 0.88631 0.22093 0.0
H196 H 0.87277 0.87131 0.28646 0.0
H197 H 0.75733 0.71746 0.13608 0.0
H198 H 0.76366 0.55607 0.25795 0.0
H199 H 0.70197 0.62063 0.12886 0.0
H200 H 0.82444 0.54389 0.23395 0.0
O201 O 0.73664 0.75084 0.20871 0.0
H202 H 0.6591 0.74327 0.29017 0.0
H203 H 0.81098 0.89242 0.25455 0.0
H204 H 0.74464 0.90733 0.27216 0.0
H205 H 0.66807 0.83277 0.29049 0.0
H206 H 0.72544 0.7295 0.27214 0.0
H207 H 0.9464 0.96273 0.29232 0.0
H208 H 1.00014 0.01699 0.262 0.0
O209 O 0.80803 0.82183 0.22216 0.0
C210 C 0.87903 0.77584 0.21351 0.0
C211 C 0.95597 0.95502 0.23943 0.0
C212 C 0.93769 0.94626 0.27659 0.0
N213 N 0.88459 0.87325 0.25332 0.0
C214 C 0.91415 0.90294 0.2366 0.0
C215 C 0.89623 0.89427 0.27318 0.0
C216 C 0.96776 0.97672 0.25958 0.0
C217 C 0.7624 0.61632 0.2386 0.0
N218 N 0.78026 0.64572 0.22062 0.0
C219 C 0.77793 0.57925 0.24368 0.0
C220 C 0.81207 0.57247 0.23021 0.0
C221 C 0.83021 0.60269 0.2119 0.0
C222 C 0.81385 0.6394 0.20734 0.0
C223 C 0.69484 0.59893 0.16154 0.0
C224 C 0.75675 0.70674 0.16963 0.0
C225 C 0.70878 0.61798 0.18208 0.0
N226 N 0.73971 0.67127 0.18588 0.0
C227 C 0.74359 0.68915 0.14889 0.0
C228 C 0.71248 0.63484 0.14486 0.0
C229 C 0.76328 0.80048 0.21257 0.0
C230 C 0.69302 0.77648 0.28271 0.0
C231 C 0.77897 0.85957 0.26278 0.0
C232 C 0.74092 0.86837 0.27262 0.0
C233 C 0.69792 0.82657 0.28282 0.0
N234 N 0.7754 0.81071 0.26333 0.0
C235 C 0.73179 0.76915 0.27264 0.0
Co236 Co 0.07987 0.75021 0.54695 0.0
Co237 Co 0.03749 0.81259 0.58105 0.0
O238 O 0.06522 0.76438 0.5756 0.0
C239 C 0.01297 0.63938 0.56263 0.0
O240 O 0.97554 0.65102 0.56682 0.0
C241 C 0.09424 0.81231 0.62045 0.0
O242 O 0.11623 0.78725 0.61149 0.0
O243 O 0.10071 0.87085 0.56595 0.0
O244 O 0.10262 0.82512 0.5378 0.0
H245 H 0.9913 0.95136 0.55965 0.0
H246 H 0.12933 0.72429 0.58241 0.0
O247 O 0.05776 0.6749 0.55521 0.0
H248 H 0.28014 0.85548 0.53968 0.0
H249 H 0.14747 0.67127 0.49298 0.0
H250 H 0.05722 0.77513 0.5043 0.0
H251 H 0.18724 0.82528 0.52905 0.0
H252 H 0.13064 0.69144 0.5289 0.0
O253 O 0.0755 0.83531 0.60906 0.0
H254 H 0.02475 0.88913 0.55431 0.0
H255 H 0.99359 0.84177 0.61824 0.0
H256 H 0.07366 0.75629 0.46812 0.0
H257 H 0.22164 0.75302 0.59353 0.0
H258 H 0.11911 0.704 0.46228 0.0
H259 H 0.29782 0.81919 0.57211 0.0
O260 O 1.00519 0.72716 0.5386 0.0
H261 H 0.94014 0.64622 0.6253 0.0
H262 H 0.9208 0.77812 0.58356 0.0
H263 H 0.84198 0.70544 0.60052 0.0
H264 H 0.85123 0.63904 0.62191 0.0
H265 H 0.01743 0.71816 0.60755 0.0
H266 H 0.96122 0.90454 0.62444 0.0
H267 H 0.95892 0.95916 0.5949 0.0
O268 O 0.99618 0.79117 0.55428 0.0
C269 C 0.11468 0.86893 0.54699 0.0
C270 C 0.99202 0.92771 0.57264 0.0
C271 C 0.97533 0.9016 0.60902 0.0
N272 N 1.01156 0.86195 0.586 0.0
C273 C 1.01092 0.89234 0.56973 0.0
C274 C 0.99445 0.86662 0.6055 0.0
C275 C 0.97397 0.93216 0.59243 0.0
C276 C 0.16228 0.75297 0.57299 0.0
N277 N 0.1529 0.77321 0.55516 0.0
C278 C 0.21446 0.76914 0.57937 0.0
C279 C 0.25718 0.8063 0.56735 0.0
C280 C 0.24729 0.82672 0.54917 0.0
C281 C 0.19459 0.80964 0.54328 0.0
C282 C 0.12777 0.69422 0.49532 0.0
C283 C 0.07737 0.7527 0.50189 0.0
C284 C 0.11806 0.70569 0.51562 0.0
N285 N 0.09348 0.73491 0.51868 0.0
C286 C 0.08641 0.74199 0.48136 0.0
C287 C 0.11186 0.7126 0.4781 0.0
C288 C 0.97971 0.75174 0.5418 0.0
C289 C 0.93567 0.67538 0.6163 0.0
C290 C 0.92571 0.74972 0.59271 0.0
C291 C 0.88063 0.70845 0.60236 0.0
C292 C 0.8858 0.67124 0.61434 0.0
N293 N 0.97504 0.75462 0.59507 0.0
C294 C 0.97981 0.71709 0.60636 0.0
Co295 Co 0.36961 0.11858 0.87749 0.0
Co296 Co 0.25253 0.03552 0.90334 0.0
O297 O 0.3308 0.07994 0.90291 0.0
C298 C 0.43095 0.06554 0.89046 0.0
O299 O 0.38526 0.02114 0.89268 0.0
C300 C 0.28456 0.07824 0.94743 0.0
O301 O 0.33321 0.11255 0.94132 0.0
O302 O 0.24562 0.09752 0.89342 0.0
O303 O 0.30906 0.12991 0.86852 0.0
H304 H 0.06924 0.96269 0.87199 0.0
H305 H 0.42658 0.15339 0.91824 0.0
O306 O 0.43143 0.10816 0.8852 0.0
H307 H 0.41964 0.30876 0.8911 0.0
H308 H 0.53354 0.24712 0.83696 0.0
H309 H 0.34025 0.11988 0.83286 0.0
H310 H 0.38068 0.22533 0.87076 0.0
H311 H 0.48326 0.19907 0.86856 0.0
O312 O 0.24816 0.05267 0.93382 0.0
H313 H 0.16746 0.01778 0.87283 0.0
H314 H 0.17061 0.96021 0.93389 0.0
H315 H 0.38874 0.16731 0.80088 0.0
H316 H 0.46662 0.23628 0.93901 0.0
H317 H 0.48621 0.2315 0.80281 0.0
H318 H 0.46312 0.31466 0.92547 0.0
O319 O 0.3368 0.05117 0.86118 0.0
H320 H 0.33217 0.94351 0.94461 0.0
H321 H 0.19743 0.9206 0.89184 0.0
H322 H 0.20474 0.84323 0.90267 0.0
H323 H 0.27223 0.85421 0.92938 0.0
H324 H 0.32425 0.01982 0.93311 0.0
H325 H 0.07244 0.90542 0.93385 0.0
H326 H 0.02111 0.90566 0.90258 0.0
O327 O 0.25294 0.01376 0.8737 0.0
C328 C 0.26624 0.12457 0.87667 0.0
C329 C 0.09121 0.96207 0.88566 0.0
C330 C 0.09298 0.93002 0.9204 0.0
N331 N 0.17494 0.99237 0.9034 0.0
C332 C 0.14687 0.99318 0.88624 0.0
C333 C 0.1486 0.96157 0.92041 0.0
C334 C 0.06421 0.93015 0.90285 0.0
C335 C 0.42514 0.18742 0.91221 0.0
N336 N 0.40109 0.18441 0.89338 0.0
C337 C 0.44777 0.2342 0.92406 0.0
C338 C 0.44574 0.27814 0.91646 0.0
C339 C 0.42129 0.27483 0.89719 0.0
C340 C 0.39904 0.22738 0.8858 0.0
C341 C 0.4911 0.21922 0.83591 0.0
C342 C 0.38252 0.14771 0.83383 0.0
C343 C 0.46243 0.19174 0.85374 0.0
N344 N 0.40876 0.15659 0.85256 0.0
C345 C 0.40984 0.17448 0.81566 0.0
C346 C 0.46452 0.21047 0.81676 0.0
C347 C 0.28748 0.01591 0.86071 0.0
C348 C 0.3021 0.93803 0.93317 0.0
C349 C 0.22671 0.92588 0.90358 0.0
C350 C 0.23071 0.8818 0.90962 0.0
C351 C 0.26859 0.88799 0.92458 0.0
N352 N 0.25912 0.97483 0.9123 0.0
C353 C 0.29695 0.98121 0.92674 0.0
Co354 Co 0.65778 0.75634 0.46359 0.0
Co355 Co 0.78386 0.80954 0.44245 0.0
O356 O 0.70557 0.76657 0.43995 0.0
C357 C 0.61514 0.64377 0.45009 0.0
O358 O 0.66401 0.65187 0.45129 0.0
C359 C 0.75468 0.82834 0.39943 0.0
O360 O 0.70871 0.82066 0.40643 0.0
O361 O 0.77887 0.87194 0.4532 0.0
O362 O 0.70784 0.83006 0.47446 0.0
H363 H 0.95527 0.935 0.4795 0.0
H364 H 0.60944 0.73123 0.42102 0.0
O365 O 0.60629 0.68189 0.45371 0.0
H366 H 0.58161 0.87497 0.44764 0.0
H367 H 0.4789 0.69145 0.49803 0.0
H368 H 0.6738 0.78253 0.50906 0.0
H369 H 0.62752 0.83985 0.4694 0.0
H370 H 0.53961 0.70597 0.46837 0.0
O371 O 0.79063 0.83364 0.41236 0.0
H372 H 0.85775 0.8774 0.47611 0.0
H373 H 0.87645 0.83384 0.41427 0.0
H374 H 0.61458 0.76925 0.53912 0.0
H375 H 0.56243 0.76451 0.39888 0.0
H376 H 0.51634 0.7234 0.5337 0.0
H377 H 0.5485 0.83711 0.41213 0.0
O378 O 0.69511 0.72863 0.4812 0.0
H379 H 0.73615 0.65023 0.39669 0.0
H380 H 0.84718 0.75931 0.45586 0.0
H381 H 0.85376 0.68189 0.44428 0.0
H382 H 0.79817 0.62682 0.41441 0.0
H383 H 0.73025 0.72743 0.40894 0.0
H384 H 0.97417 0.89121 0.41698 0.0
H385 H 0.01424 0.94242 0.44976 0.0
O386 O 0.78035 0.78468 0.47179 0.0
C387 C 0.75072 0.87183 0.46877 0.0
C388 C 0.9383 0.91294 0.46513 0.0
C389 C 0.94888 0.88846 0.43003 0.0
N390 N 0.86119 0.8525 0.44496 0.0
C391 C 0.88305 0.88018 0.46311 0.0
C392 C 0.89343 0.85621 0.42855 0.0
C393 C 0.97135 0.91711 0.44843 0.0
C394 C 0.60305 0.76245 0.42698 0.0
N395 N 0.62145 0.78372 0.44644 0.0
C396 C 0.57663 0.78131 0.41433 0.0
C397 C 0.56892 0.82211 0.42176 0.0
C398 C 0.58758 0.84344 0.44167 0.0
C399 C 0.61388 0.82362 0.45387 0.0
C400 C 0.52163 0.71155 0.50059 0.0
C401 C 0.63113 0.76278 0.50655 0.0
C402 C 0.55621 0.71978 0.48386 0.0
N403 N 0.61025 0.74538 0.48696 0.0
C404 C 0.59778 0.75526 0.52365 0.0
C405 C 0.54267 0.7295 0.5206 0.0
C406 C 0.74525 0.74856 0.4835 0.0
C407 C 0.7609 0.67415 0.40961 0.0
C408 C 0.82298 0.73576 0.44279 0.0
C409 C 0.82686 0.69188 0.43632 0.0
C410 C 0.79564 0.66099 0.41958 0.0
N411 N 0.78914 0.74876 0.43283 0.0
C412 C 0.75803 0.71827 0.41654 0.0
Co413 Co 0.94274 0.6893 0.80257 0.0
Co414 Co 0.98316 0.79367 0.76888 0.0
O415 O 0.95446 0.71758 0.7739 0.0
C416 C 1.00044 0.63534 0.78549 0.0
O417 O 0.04295 0.68199 0.78222 0.0
C418 C 0.93181 0.74209 0.7284 0.0
O419 O 0.91646 0.69362 0.73486 0.0
O420 O 0.92206 0.78938 0.78535 0.0
O421 O 0.92588 0.74465 0.81328 0.0
H422 H 0.03022 0.97734 0.79238 0.0
H423 H 0.88381 0.61681 0.76731 0.0
O424 O 0.95788 0.63212 0.79286 0.0
H425 H 0.7449 0.60468 0.81568 0.0
H426 H 0.87681 0.54388 0.85684 0.0
H427 H 0.97542 0.73758 0.84493 0.0
H428 H 0.84037 0.66246 0.82407 0.0
H429 H 0.88921 0.58012 0.82092 0.0
O430 O 0.94126 0.77849 0.74181 0.0
H431 H 1.00271 0.88294 0.79706 0.0
H432 H 0.01711 0.86674 0.73142 0.0
H433 H 0.96355 0.70306 0.88112 0.0
H434 H 0.78876 0.55819 0.75837 0.0
H435 H 0.91391 0.60553 0.88725 0.0
H436 H 0.71856 0.55191 0.78265 0.0
O437 O 0.01961 0.73772 0.80882 0.0
H438 H 0.08129 0.72159 0.72613 0.0
H439 H 0.09767 0.87944 0.76161 0.0
H440 H 0.17443 0.88616 0.74292 0.0
H441 H 0.16683 0.80719 0.72463 0.0
H442 H 1.00564 0.71592 0.74513 0.0
H443 H 0.04337 0.9606 0.72595 0.0
H444 H 0.05045 0.01679 0.75661 0.0
O445 O 0.02777 0.81221 0.79486 0.0
C446 C 0.91184 0.77548 0.80464 0.0
C447 C 0.02737 0.95331 0.77889 0.0
C448 C 0.0345 0.94385 0.74162 0.0
N449 N 1.00821 0.869 0.76452 0.0
C450 C 1.01203 0.89978 0.78145 0.0
C451 C 0.01897 0.89046 0.74477 0.0
C452 C 0.03861 0.97539 0.75882 0.0
C453 C 0.85347 0.61413 0.77798 0.0
N454 N 0.86763 0.64296 0.79619 0.0
C455 C 0.79973 0.58094 0.77282 0.0
C456 C 0.76036 0.57747 0.78644 0.0
C457 C 0.77512 0.60709 0.80497 0.0
C458 C 0.82925 0.63986 0.80961 0.0
C459 C 0.8984 0.58645 0.85438 0.0
C460 C 0.95349 0.69511 0.84748 0.0
C461 C 0.90564 0.60721 0.83407 0.0
N462 N 0.93258 0.66094 0.83085 0.0
C463 C 0.94703 0.67579 0.868 0.0
C464 C 0.91922 0.62107 0.87143 0.0
C465 C 0.0459 0.78778 0.80572 0.0
C466 C 0.08481 0.75671 0.73359 0.0
C467 C 0.09262 0.84476 0.75347 0.0
C468 C 0.13697 0.84888 0.74298 0.0
C469 C 0.13279 0.80461 0.7328 0.0
N470 N 0.04452 0.79821 0.7535 0.0
C471 C 0.04133 0.75407 0.74427 0.0
Co472 Co 0.2423 0.94588 0.13179 0.0
Co473 Co 0.16774 0.95872 0.0936 0.0
O474 O 0.22691 0.94769 0.10197 0.0
C475 C 0.35714 0.02192 0.11935 0.0
O476 O 0.34536 0.05917 0.11528 0.0
C477 C 0.19248 0.91567 0.05535 0.0
O478 O 0.23087 0.91118 0.06438 0.0
O479 O 0.11749 0.89262 0.10941 0.0
O480 O 0.16417 0.91391 0.13945 0.0
H481 H 0.99786 0.96173 0.10726 0.0
H482 H 0.2792 0.8951 0.10089 0.0
O483 O 0.32065 0.97573 0.12511 0.0
H484 H 0.16581 0.75279 0.15065 0.0
H485 H 0.33519 0.9194 0.19371 0.0
H486 H 0.20741 0.97489 0.1709 0.0
H487 H 0.18092 0.84359 0.15527 0.0
H488 H 0.31344 0.91824 0.15614 0.0
O489 O 0.15695 0.91759 0.06662 0.0
H490 H 0.07659 0.95473 0.11683 0.0
H491 H 0.12759 0.97909 0.05315 0.0
H492 H 0.22763 0.9762 0.20864 0.0
H493 H 0.26548 0.8049 0.09577 0.0
H494 H 0.29197 0.9483 0.22026 0.0
H495 H 0.20839 0.73301 0.12076 0.0
O496 O 0.25285 0.01878 0.13479 0.0
H497 H 0.33903 0.08796 0.05596 0.0
H498 H 0.17246 0.0631 0.08718 0.0
H499 H 0.23387 0.14768 0.07024 0.0
H500 H 0.31771 0.16064 0.0541 0.0
H501 H 0.27724 1.0045 0.07319 0.0
H502 H 0.04887 0.98545 0.04286 0.0
H503 H 0.98345 0.97713 0.07003 0.0
O504 O 0.17666 1.00139 0.1193 0.0
C505 C 0.11991 0.88858 0.12941 0.0
C506 C 0.02609 0.96546 0.09527 0.0
C507 C 0.05461 0.9786 0.05913 0.0
N508 N 0.10684 0.96632 0.08558 0.0
C509 C 0.07089 0.96161 0.1006 0.0
C510 C 0.09892 0.97445 0.06503 0.0
C511 C 0.01798 0.97402 0.07438 0.0
C512 C 0.25446 0.86404 0.11186 0.0
N513 N 0.23104 0.87463 0.12837 0.0
C514 C 0.24677 0.81304 0.10887 0.0
C515 C 0.2147 0.77271 0.12289 0.0
C516 C 0.19078 0.78378 0.13966 0.0
C517 C 0.19937 0.83525 0.14215 0.0
C518 C 0.30702 0.93154 0.18885 0.0
C519 C 0.23519 0.96239 0.17585 0.0
C520 C 0.29463 0.93108 0.16759 0.0
N521 N 0.25883 0.94607 0.16136 0.0
C522 C 0.2466 0.96335 0.19723 0.0
C523 C 0.28273 0.94775 0.20374 0.0
C524 C 0.21861 0.0322 0.12964 0.0
C525 C 0.30179 0.08225 0.0623 0.0
C526 C 0.20762 0.06701 0.07961 0.0
C527 C 0.24285 0.11572 0.07029 0.0
C528 C 0.28995 0.12307 0.06134 0.0
N529 N 0.21783 0.02573 0.07955 0.0
C530 C 0.26563 0.03414 0.07181 0.0
Co531 Co 0.34442 0.22147 0.46078 0.0
Co532 Co 0.22427 0.17647 0.43514 0.0
O533 O 0.30282 0.21548 0.43538 0.0
C534 C 0.3943 0.33444 0.44741 0.0
O535 O 0.34582 0.32736 0.4462 0.0
C536 C 0.25883 0.15866 0.39282 0.0
O537 O 0.30551 0.16988 0.40039 0.0
O538 O 0.22336 0.11179 0.44658 0.0
O539 O 0.28876 0.14829 0.47066 0.0
H540 H 0.04433 0.05554 0.46711 0.0
H541 H 0.40179 0.24614 0.42005 0.0
O542 O 0.40088 0.29542 0.45217 0.0
H543 H 0.41164 0.09372 0.44882 0.0
H544 H 0.51429 0.27534 0.50084 0.0
H545 H 0.31867 0.19375 0.50581 0.0
H546 H 0.36571 0.13243 0.46843 0.0
H547 H 0.46048 0.26534 0.46928 0.0
O548 O 0.22151 0.15203 0.40526 0.0
H549 H 0.14268 0.10893 0.46652 0.0
H550 H 0.1386 0.15813 0.40399 0.0
H551 H 0.37079 0.20254 0.53776 0.0
H552 H 0.44891 0.20922 0.40008 0.0
H553 H 0.46942 0.24362 0.53539 0.0
H554 H 0.45383 0.13228 0.41442 0.0
O555 O 0.30702 0.25177 0.47666 0.0
H556 H 0.29122 0.33944 0.38962 0.0
H557 H 0.16188 0.23055 0.44435 0.0
H558 H 0.16255 0.31056 0.43118 0.0
H559 H 0.22741 0.36558 0.40353 0.0
H560 H 0.28971 0.25969 0.4034 0.0
H561 H 0.04025 0.10494 0.40388 0.0
H562 H 0.99242 0.05315 0.43561 0.0
O563 O 0.2233 0.20186 0.4642 0.0
C564 C 0.24631 0.10871 0.46328 0.0
C565 C 0.06471 0.07801 0.4532 0.0
C566 C 0.06243 0.10563 0.4177 0.0
N567 N 0.14654 0.13676 0.43526 0.0
C568 C 0.12043 0.10843 0.45278 0.0
C569 C 0.1182 0.13552 0.41783 0.0
C570 C 0.03561 0.07663 0.43551 0.0
C571 C 0.40414 0.21294 0.42647 0.0
N572 N 0.38077 0.19131 0.44532 0.0
C573 C 0.43069 0.19207 0.41505 0.0
C574 C 0.43337 0.14885 0.42309 0.0
C575 C 0.40962 0.12713 0.44238 0.0
C576 C 0.38336 0.14902 0.45334 0.0
C577 C 0.47134 0.2573 0.50208 0.0
C578 C 0.36145 0.2114 0.50464 0.0
C579 C 0.44066 0.25163 0.48426 0.0
N580 N 0.38636 0.22866 0.48568 0.0
C581 C 0.39081 0.21639 0.52279 0.0
C582 C 0.44614 0.23948 0.52145 0.0
C583 C 0.25725 0.23576 0.477 0.0
C584 C 0.26247 0.31558 0.40155 0.0
C585 C 0.19012 0.25406 0.43226 0.0
C586 C 0.19032 0.29942 0.42487 0.0
C587 C 0.22673 0.33027 0.40938 0.0
N588 N 0.225 0.23956 0.4244 0.0
C589 C 0.26113 0.26999 0.40933 0.0
Co590 Co 0.12085 0.34103 0.79481 0.0
Co591 Co 0.04187 0.21987 0.77222 0.0
O592 O 0.0809 0.29775 0.77043 0.0
C593 C 0.06106 0.39536 0.78205 0.0
O594 O 0.01715 0.34881 0.78269 0.0
C595 C 0.07016 0.24581 0.72633 0.0
O596 O 0.09625 0.29704 0.73024 0.0
O597 O 0.10985 0.22171 0.78023 0.0
O598 O 0.13703 0.28457 0.80512 0.0
H599 H 0.99427 0.04602 0.80682 0.0
H600 H 0.1501 0.39017 0.75259 0.0
O601 O 0.10615 0.39887 0.78561 0.0
H602 H 0.31373 0.39924 0.78036 0.0
H603 H 0.24661 0.51177 0.83205 0.0
H604 H 0.12494 0.31884 0.84007 0.0
H605 H 0.23135 0.36016 0.80157 0.0
H606 H 0.19836 0.45633 0.8014 0.0
O607 O 0.05382 0.21226 0.74136 0.0
H608 H 0.03854 0.14356 0.80408 0.0
H609 H 0.96579 0.12997 0.74458 0.0
H610 H 0.17274 0.37268 0.87109 0.0
H611 H 0.23175 0.42999 0.73089 0.0
H612 H 0.2341 0.4699 0.86719 0.0
H613 H 0.31431 0.43462 0.74476 0.0
O614 O 0.05407 0.30796 0.81153 0.0
H615 H 0.9255 0.27856 0.73489 0.0
H616 H 0.93054 0.15855 0.78835 0.0
H617 H 0.84568 0.15553 0.78083 0.0
H618 H 0.84248 0.21542 0.75376 0.0
H619 H 1.00946 0.28121 0.7432 0.0
H620 H 0.92128 0.03227 0.74662 0.0
H621 H 0.93526 0.98962 0.77793 0.0
O622 O 0.02604 0.22344 0.80247 0.0
C623 C 0.13628 0.24393 0.79697 0.0
C624 C 0.98783 0.06414 0.7931 0.0
C625 C 0.94695 0.05642 0.7593 0.0
N626 N 1.00491 0.14267 0.77419 0.0
C627 C 0.01275 0.11942 0.79146 0.0
C628 C 0.97253 0.11184 0.75819 0.0
C629 C 0.95475 0.03251 0.77688 0.0
C630 C 0.18591 0.39215 0.75873 0.0
N631 N 0.18589 0.37269 0.77826 0.0
C632 C 0.232 0.41469 0.74637 0.0
C633 C 0.2783 0.41724 0.75416 0.0
C634 C 0.27799 0.39736 0.77412 0.0
C635 C 0.23114 0.37506 0.78602 0.0
C636 C 0.22008 0.46943 0.83394 0.0
C637 C 0.15184 0.36104 0.83821 0.0
C638 C 0.19258 0.43785 0.81665 0.0
N639 N 0.15923 0.38431 0.81891 0.0
C640 C 0.17868 0.39136 0.85585 0.0
C641 C 0.21305 0.44591 0.85365 0.0
C642 C 0.02288 0.25823 0.81361 0.0
C643 C 0.9261 0.25148 0.74642 0.0
C644 C 0.92965 0.18429 0.77629 0.0
C645 C 0.88135 0.18256 0.77221 0.0
C646 C 0.8796 0.21621 0.75706 0.0
N647 N 0.97506 0.21808 0.76544 0.0
C648 C 0.97371 0.25218 0.75098 0.0
Co649 Co 0.75781 0.10223 0.13811 0.0
Co650 Co 0.77242 0.99392 0.12603 0.0
O651 O 0.74982 0.04515 0.11917 0.0
C652 C 0.64209 0.03862 0.13042 0.0
O653 O 0.64897 0.99834 0.1348 0.0
C654 C 0.81711 0.03004 0.08282 0.0
O655 O 0.83763 0.07998 0.08851 0.0
O656 O 0.84559 0.05294 0.13388 0.0
O657 O 0.83191 0.1178 0.1466 0.0
H658 H 0.8519 0.91204 0.17292 0.0
H659 H 0.72422 0.10042 0.09392 0.0
O660 O 0.68264 0.08567 0.13048 0.0
H661 H 0.89468 0.26882 0.10166 0.0
H662 H 0.73674 0.25865 0.15749 0.0
H663 H 0.80366 0.14059 0.18061 0.0
H664 H 0.85545 0.20766 0.13172 0.0
H665 H 0.72775 0.18604 0.13456 0.0
O666 O 0.79344 0.99301 0.09617 0.0
H667 H 0.82655 0.97825 0.16279 0.0
H668 H 0.7657 0.89899 0.10452 0.0
H669 H 0.81399 0.213 0.20392 0.0
H670 H 0.76178 0.16057 0.06347 0.0
H671 H 0.78034 0.27261 0.1924 0.0
H672 H 0.84768 0.24542 0.06725 0.0
O673 O 0.72801 0.05356 0.16276 0.0
H674 H 0.60626 0.90199 0.08174 0.0
H675 H 0.69383 0.89241 0.14679 0.0
H676 H 0.60228 0.82096 0.13874 0.0
H677 H 0.55789 0.82542 0.10596 0.0
H678 H 0.69752 0.97297 0.09059 0.0
H679 H 0.79141 0.83251 0.11391 0.0
H680 H 0.83439 0.83847 0.1484 0.0
O681 O 0.74992 0.99137 0.1553 0.0
C682 C 0.86129 0.09664 0.14398 0.0
C683 C 0.83331 0.90907 0.15782 0.0
C684 C 0.79942 0.86449 0.12469 0.0
N685 N 0.79481 0.94278 0.13302 0.0
C686 C 0.8188 0.94647 0.15198 0.0
C687 C 0.78531 0.90254 0.1194 0.0
C688 C 0.82346 0.8678 0.14406 0.0
C689 C 0.76139 0.13748 0.09571 0.0
N690 N 0.7875 0.15069 0.11457 0.0
C691 C 0.78256 0.17128 0.0784 0.0
C692 C 0.8308 0.21885 0.08052 0.0
C693 C 0.85721 0.23199 0.09983 0.0
C694 C 0.83489 0.19717 0.11677 0.0
C695 C 0.75163 0.23298 0.16267 0.0
C696 C 0.78924 0.16658 0.17542 0.0
C697 C 0.74652 0.19174 0.14978 0.0
N698 N 0.76545 0.15936 0.1562 0.0
C699 C 0.79505 0.20741 0.18872 0.0
C700 C 0.77612 0.24081 0.18226 0.0
C701 C 0.73116 0.01269 0.16741 0.0
C702 C 0.62521 0.89952 0.09604 0.0
C703 C 0.67473 0.89477 0.13256 0.0
C704 C 0.62292 0.8541 0.12805 0.0
C705 C 0.59807 0.85661 0.10965 0.0
N706 N 0.70111 0.93677 0.11915 0.0
C707 C 0.677 0.93947 0.10108 0.0
H708 H 0.92097 0.1972 0.16127 0.0
H709 H 0.91983 0.04901 0.15336 0.0
H710 H 0.99767 0.081 0.17606 0.0
H711 H 0.06587 0.15023 0.19869 0.0
H712 H 0.076 0.3029 0.20314 0.0
H713 H 0.99486 0.2699 0.18178 0.0
C714 C 0.93804 0.17207 0.16429 0.0
C715 C 0.91367 0.12032 0.15552 0.0
C716 C 0.98428 0.19134 0.1771 0.0
C717 C 0.93704 0.0888 0.15972 0.0
C718 C 0.98169 0.10701 0.17287 0.0
C719 C 0.05049 0.17639 0.1951 0.0
C720 C 0.0771 0.22895 0.20288 0.0
C721 C 1.00542 0.15799 0.18182 0.0
C722 C 0.05635 0.26217 0.19764 0.0
C723 C 1.00998 0.24334 0.18528 0.0
H724 H 0.8037 0.04329 0.54087 0.0
H725 H 0.95832 0.1157 0.51139 0.0
H726 H 0.9247 0.04475 0.48496 0.0
H727 H 0.85087 0.96174 0.47005 0.0
H728 H 0.69581 0.88967 0.49964 0.0
H729 H 0.72945 0.96073 0.52561 0.0
C730 C 0.83002 0.04291 0.52881 0.0
C731 C 0.88367 0.08393 0.52832 0.0
C732 C 0.81003 1.00235 0.51337 0.0
C733 C 0.91708 0.08392 0.51227 0.0
C734 C 0.89775 0.04357 0.49706 0.0
C735 C 0.82423 0.9617 0.48204 0.0
C736 C 0.77068 0.91981 0.48269 0.0
C737 C 0.84414 1.00259 0.49735 0.0
C738 C 0.73715 0.92099 0.49854 0.0
C739 C 0.75644 0.96165 0.51358 0.0
H740 H 0.80106 0.89029 0.84965 0.0
H741 H 0.84228 0.83225 0.90492 0.0
H742 H 0.879 0.78957 0.88262 0.0
H743 H 0.90146 0.77056 0.8475 0.0
H744 H 0.86456 0.83298 0.79242 0.0
H745 H 0.82419 0.87207 0.81464 0.0
C746 C 0.81761 0.86796 0.85692 0.0
C747 C 0.81834 0.86432 0.87908 0.0
C748 C 0.83971 0.84442 0.844 0.0
C749 C 0.84078 0.83565 0.88801 0.0
C750 C 0.86194 0.81129 0.87523 0.0
C751 C 0.88437 0.79245 0.84026 0.0
C752 C 0.88596 0.79838 0.81815 0.0
C753 C 0.86191 0.81565 0.85321 0.0
C754 C 0.86394 0.82748 0.80927 0.0
C755 C 0.84079 0.84991 0.82202 0.0
H756 H 0.88825 0.7699 0.17066 0.0
H757 H 0.98292 0.8292 0.2272 0.0
H758 H 0.0646 0.86626 0.20636 0.0
H759 H 0.10962 0.88436 0.1722 0.0
H760 H 0.01598 0.82888 0.11531 0.0
H761 H 0.93385 0.78763 0.13621 0.0
C762 C 0.9267 0.79057 0.1785 0.0
C763 C 0.92894 0.79633 0.20064 0.0
C764 C 0.97394 0.81257 0.16633 0.0
C765 C 0.97948 0.82379 0.21031 0.0
C766 C 0.02642 0.84513 0.19836 0.0
C767 C 0.07139 0.86294 0.16425 0.0
C768 C 0.0695 0.85979 0.14205 0.0
C769 C 0.02419 0.84006 0.17636 0.0
C770 C 0.01911 0.83194 0.13228 0.0
C771 C 0.97197 0.80842 0.14426 0.0
H772 H 0.2495 0.09799 0.50579 0.0
H773 H 0.18261 1.00658 0.44918 0.0
H774 H 0.13765 0.92476 0.46999 0.0
H775 H 0.11647 0.87924 0.5043 0.0
H776 H 0.17741 0.97141 0.56116 0.0
H777 H 0.22543 0.05281 0.54025 0.0
C778 C 0.22559 0.06013 0.49795 0.0
C779 C 0.22029 0.05851 0.47582 0.0
C780 C 0.19854 0.01336 0.51011 0.0
C781 C 0.18782 0.00909 0.46609 0.0
C782 C 0.16203 0.96226 0.47802 0.0
C783 C 0.14046 0.91706 0.51218 0.0
C784 C 0.14365 0.91889 0.53438 0.0
C785 C 0.16699 0.9639 0.50004 0.0
C786 C 0.17421 0.9686 0.54418 0.0
C787 C 0.20179 0.0152 0.5322 0.0
H788 H 0.25967 0.13269 0.83431 0.0
H789 H 0.20847 0.16823 0.89269 0.0
H790 H 0.16532 0.20954 0.87321 0.0
H791 H 0.14321 0.23672 0.83947 0.0
H792 H 0.18756 0.19372 0.78111 0.0
H793 H 0.23234 0.15426 0.80063 0.0
C794 C 0.23928 0.1497 0.8428 0.0
C795 C 0.23814 0.14811 0.86502 0.0
C796 C 0.2134 0.17213 0.83144 0.0
C797 C 0.21026 0.16911 0.87567 0.0
C798 C 0.18568 0.19284 0.86451 0.0
C799 C 0.16293 0.21893 0.83101 0.0
C800 C 0.16279 0.21902 0.80878 0.0
C801 C 0.18725 0.19488 0.84239 0.0
C802 C 0.18733 0.19454 0.79814 0.0
C803 C 0.21297 0.17201 0.80932 0.0
H804 H 0.60835 0.54626 0.22706 0.0
H805 H 0.5586 0.6611 0.23943 0.0
H806 H 0.46528 0.59028 0.23991 0.0
H807 H 0.39685 0.49575 0.23528 0.0
H808 H 0.44715 0.38086 0.22395 0.0
H809 H 0.54044 0.45129 0.22472 0.0
C810 C 0.57716 0.55582 0.23 0.0
C811 C 0.5908 0.6092 0.23307 0.0
C812 C 0.52328 0.51472 0.23038 0.0
C813 C 0.5496 0.62054 0.237 0.0
C814 C 0.49601 0.57997 0.23722 0.0
C815 C 0.42821 0.48605 0.23311 0.0
C816 C 0.41461 0.43287 0.22942 0.0
C817 C 0.48224 0.52693 0.2337 0.0
C818 C 0.45605 0.42125 0.22679 0.0
C819 C 0.50965 0.46163 0.22718 0.0
H820 H 0.08451 0.60439 0.56507 0.0
H821 H 0.91543 0.54911 0.56472 0.0
H822 H 0.89578 0.45698 0.56508 0.0
H823 H 0.92656 0.39178 0.56371 0.0
H824 H 0.09559 0.44706 0.56579 0.0
H825 H 0.11515 0.53912 0.56668 0.0
C826 C 0.04336 0.57217 0.56521 0.0
C827 C 1.00154 0.58373 0.5647 0.0
C828 C 0.03227 0.51913 0.56567 0.0
C829 C 0.94844 0.54146 0.56512 0.0
C830 C 0.93713 0.48867 0.56525 0.0
C831 C 0.96767 0.42397 0.5645 0.0
C832 C 1.00952 0.41243 0.56451 0.0
C833 C 0.9787 0.47698 0.56525 0.0
C834 C 0.06254 0.45466 0.56578 0.0
C835 C 0.07382 0.50744 0.5662 0.0
H836 H 0.44837 0.98805 0.90669 0.0
H837 H 0.52965 0.14328 0.8778 0.0
H838 H 0.61289 0.14133 0.87748 0.0
H839 H 0.6618 0.09351 0.88328 0.0
H840 H 0.58196 0.93921 0.91284 0.0
H841 H 0.49966 0.94323 0.91522 0.0
C842 C 0.48438 0.02161 0.90046 0.0
C843 C 0.48235 0.06553 0.89211 0.0
C844 C 0.53261 0.02045 0.90041 0.0
C845 C 0.5297 0.10887 0.88431 0.0
C846 C 0.57749 0.10778 0.88406 0.0
C847 C 0.62659 0.06097 0.89046 0.0
C848 C 0.6282 0.01603 0.89776 0.0
C849 C 0.57928 0.06349 0.89177 0.0
C850 C 0.58214 0.97444 0.90715 0.0
C851 C 0.53483 0.97654 0.9084 0.0
H852 H 0.61584 0.54997 0.44854 0.0
H853 H 0.5105 0.6147 0.44382 0.0
H854 H 0.43356 0.52518 0.44116 0.0
H855 H 0.39526 0.42826 0.44237 0.0
H856 H 0.5001 0.36319 0.44811 0.0
H857 H 0.57772 0.45277 0.44801 0.0
C858 C 0.57614 0.54458 0.44671 0.0
C859 C 0.56919 0.58927 0.4465 0.0
C860 C 0.53171 0.49273 0.44547 0.0
C861 C 0.51725 0.58124 0.44414 0.0
C862 C 0.47307 0.52994 0.44264 0.0
C863 C 0.43508 0.43355 0.4434 0.0
C864 C 0.44157 0.38879 0.44535 0.0
C865 C 0.47969 0.48534 0.44362 0.0
C866 C 0.49367 0.39672 0.44667 0.0
C867 C 0.53821 0.44805 0.44664 0.0
H868 H 0.08843 0.62536 0.77868 0.0
H869 H 0.917 0.53328 0.78543 0.0
H870 H 0.92023 0.45112 0.78336 0.0
H871 H 0.97198 0.40514 0.78193 0.0
H872 H 0.14374 0.49698 0.7766 0.0
H873 H 0.13995 0.57905 0.77566 0.0
C874 C 0.05171 0.58734 0.77947 0.0
C875 C 1.00259 0.58572 0.78231 0.0
C876 C 0.05387 0.53998 0.77862 0.0
C877 C 0.95545 0.53593 0.78337 0.0
C878 C 0.95722 0.48878 0.7822 0.0
C879 C 1.00859 0.44302 0.78032 0.0
C880 C 0.05807 0.44468 0.77941 0.0
C881 C 1.00626 0.49029 0.78017 0.0
C882 C 0.10506 0.49434 0.77741 0.0
C883 C 0.10296 0.54142 0.7769 0.0
H884 H 0.39402 0.95233 0.12225 0.0
H885 H 0.44827 0.11952 0.11564 0.0
H886 H 0.54122 0.14002 0.11777 0.0
H887 H 0.60761 0.1105 0.1232 0.0
H888 H 0.55105 0.94246 0.12918 0.0
H889 H 0.45932 0.92274 0.12557 0.0
C890 C 0.42608 0.9933 0.12115 0.0
C891 C 0.41383 0.03426 0.1189 0.0
C892 C 0.47947 1.00485 0.12238 0.0
C893 C 0.45624 0.08705 0.11736 0.0
C894 C 0.50956 0.09887 0.11865 0.0
C895 C 0.57524 0.06959 0.12357 0.0
C896 C 0.58669 0.02822 0.12667 0.0
C897 C 0.52177 0.05813 0.12141 0.0
C898 C 0.54393 0.97538 0.127 0.0
C899 C 0.49114 0.96386 0.12492 0.0
H900 H 0.30456 0.1148 0.14906 0.0
H901 H 0.14598 0.06482 0.12548 0.0
H902 H 0.15224 0.14638 0.13794 0.0
H903 H 0.19536 0.22369 0.16066 0.0
H904 H 0.34867 0.27001 0.18789 0.0
H905 H 0.35344 0.20023 0.16805 0.0
C906 C 0.27161 0.12201 0.14655 0.0
C907 C 0.22457 0.08319 0.13674 0.0
C908 C 0.27501 0.16906 0.15405 0.0
C909 C 0.18251 0.09353 0.13325 0.0
C910 C 0.18604 0.14044 0.14024 0.0
C911 C 0.23106 0.22023 0.16122 0.0
C912 C 0.27182 0.25175 0.17532 0.0
C913 C 0.23132 0.17763 0.1512 0.0
C914 C 0.31745 0.2466 0.17663 0.0
C915 C 0.31944 0.20582 0.16575 0.0
H916 H 0.11512 0.23005 0.54939 0.0
H917 H 0.06741 0.30575 0.50263 0.0
H918 H 0.14186 0.31853 0.48022 0.0
H919 H 0.21136 0.29562 0.47225 0.0
H920 H 0.25331 0.21462 0.51853 0.0
H921 H 0.19188 0.21925 0.54367 0.0
C922 C 0.12146 0.25053 0.53458 0.0
C923 C 0.08527 0.26618 0.52757 0.0
C924 C 0.1636 0.25717 0.52189 0.0
C925 C 0.09446 0.2929 0.50829 0.0
C926 C 0.13693 0.30015 0.4955 0.0
C927 C 0.20751 0.27992 0.48797 0.0
C928 C 0.23572 0.25412 0.49361 0.0
C929 C 0.1704 0.2806 0.50186 0.0
C930 C 0.23206 0.23497 0.51407 0.0
C931 C 0.19644 0.23695 0.52827 0.0
H932 H 0.04076 0.21913 0.84793 0.0
H933 H 0.92421 0.24693 0.81749 0.0
H934 H 0.85362 0.18075 0.84026 0.0
H935 H 0.824 0.10466 0.86477 0.0
H936 H 0.94321 0.07304 0.89127 0.0
H937 H 0.01336 0.15051 0.87423 0.0
C938 C 1.00024 0.21224 0.84704 0.0
C939 C 0.98728 0.23787 0.83158 0.0
C940 C 0.96002 0.17217 0.85908 0.0
C941 C 0.93477 0.22812 0.82982 0.0
C942 C 0.89443 0.18962 0.84251 0.0
C943 C 0.86533 0.11508 0.86692 0.0
C944 C 0.87788 0.0827 0.87927 0.0
C945 C 0.90625 0.15954 0.85651 0.0
C946 C 0.93184 0.09692 0.88193 0.0
C947 C 0.97241 0.14148 0.87221 0.0
H948 H 0.64735 0.9182 0.17766 0.0
H949 H 0.78785 0.05225 0.2032 0.0
H950 H 0.81243 0.99288 0.22071 0.0
H951 H 0.80745 0.90647 0.21933 0.0
H952 H 0.66878 0.77125 0.19238 0.0
H953 H 0.6321 0.82812 0.183 0.0
C954 C 0.68151 0.93405 0.18818 0.0
C955 C 0.71747 0.98908 0.18829 0.0
C956 C 0.69796 0.89971 0.19627 0.0
C957 C 0.76035 0.00976 0.20248 0.0
C958 C 0.77551 0.97584 0.21181 0.0
C959 C 0.76848 0.88885 0.21197 0.0
C960 C 0.74116 0.83466 0.20647 0.0
C961 C 0.74696 0.92127 0.20722 0.0
C962 C 0.69115 0.81303 0.1965 0.0
C963 C 0.66972 0.8453 0.19142 0.0
H964 H 0.78211 0.68059 0.48192 0.0
H965 H 0.75973 0.78565 0.52302 0.0
H966 H 0.83093 0.79323 0.54599 0.0
H967 H 0.90994 0.78558 0.54952 0.0
H968 H 0.93552 0.6815 0.50877 0.0
H969 H 0.85368 0.66001 0.48946 0.0
C970 C 0.79159 0.70323 0.49641 0.0
C971 C 0.76621 0.73247 0.501 0.0
C972 C 0.8344 0.70957 0.50882 0.0
C973 C 0.77837 0.76212 0.51957 0.0
C974 C 0.81978 0.76736 0.53238 0.0
C975 C 0.89706 0.7567 0.53695 0.0
C976 C 0.92896 0.73521 0.53065 0.0
C977 C 0.84982 0.7437 0.52642 0.0
C978 C 0.91189 0.6989 0.51386 0.0
C979 C 0.86499 0.68637 0.50292 0.0
H980 H 0.24978 0.91081 0.86247 0.0
H981 H 0.27267 0.03728 0.82083 0.0
H982 H 0.20032 0.9739 0.7984 0.0
H983 H 0.11945 0.88835 0.79576 0.0
H984 H 0.09131 0.76071 0.83797 0.0
H985 H 0.17574 0.81959 0.85601 0.0
C986 C 0.23986 0.92389 0.84809 0.0
C987 C 0.26586 0.97835 0.84329 0.0
C988 C 0.19598 0.88765 0.83609 0.0
C989 C 0.25367 0.9954 0.82459 0.0
C990 C 0.21148 0.95932 0.81206 0.0
C991 C 0.13217 0.87257 0.80846 0.0
C992 C 0.09881 0.82033 0.8156 0.0
C993 C 0.1805 0.90618 0.81845 0.0
C994 C 0.11605 0.80097 0.83229 0.0
C995 C 0.16435 0.83451 0.84253 0.0
H996 H 0.16766 0.12686 0.36984 0.0
H997 H 0.33965 0.21997 0.36587 0.0
H998 H 0.3328 0.25551 0.33206 0.0
H999 H 0.27835 0.26473 0.30469 0.0
H1000 H 0.10709 0.1658 0.30609 0.0
H1001 H 0.11295 0.12888 0.34016 0.0
C1002 C 0.20364 0.15421 0.36139 0.0
C1003 C 0.25413 0.17074 0.37048 0.0
C1004 C 0.19945 0.17445 0.34178 0.0
C1005 C 0.30031 0.20608 0.35925 0.0
C1006 C 0.29645 0.227 0.33999 0.0
C1007 C 0.2423 0.2351 0.31246 0.0
C1008 C 0.19225 0.21878 0.30323 0.0
C1009 C 0.2463 0.21235 0.33135 0.0
C1010 C 0.14592 0.17958 0.31319 0.0
C1011 C 0.14938 0.15828 0.33253 0.0
H1012 H 0.95164 0.12739 0.64271 0.0
H1013 H 0.92165 0.25866 0.64056 0.0
H1014 H 0.97085 0.2935 0.6733 0.0
H1015 H 0.02658 0.28974 0.70165 0.0
H1016 H 0.05312 0.15666 0.70527 0.0
H1017 H 1.003 0.1206 0.67246 0.0
C1018 C 0.95569 0.1635 0.64946 0.0
C1019 C 0.93355 0.19067 0.63891 0.0
C1020 C 0.98473 0.18383 0.66826 0.0
C1021 C 0.93793 0.23662 0.64825 0.0
C1022 C 0.96679 0.25709 0.66688 0.0
C1023 C 0.02214 0.25329 0.69505 0.0
C1024 C 0.0449 0.22668 0.70548 0.0
C1025 C 0.99139 0.23174 0.67675 0.0
C1026 C 0.03697 0.1784 0.69724 0.0
C1027 C 1.00789 0.15757 0.67862 0.0
H1028 H 0.74743 0.93661 0.06401 0.0
H1029 H 0.88541 0.09006 0.05139 0.0
H1030 H 0.88394 0.06481 0.01453 0.0
H1031 H 0.84209 1.00053 0.98603 0.0
H1032 H 0.69913 0.85055 0.99747 0.0
H1033 H 0.70396 0.87292 0.03497 0.0
C1034 C 0.77746 0.96449 0.05324 0.0
C1035 C 0.81689 0.01512 0.06049 0.0
C1036 C 0.77546 0.95018 0.03199 0.0
C1037 C 0.85481 0.05097 0.04623 0.0
C1038 C 0.854 0.03646 0.02519 0.0
C1039 C 0.81248 0.97215 0.9967 0.0
C1040 C 0.77092 0.92329 0.989 0.0
C1041 C 0.81446 0.98627 0.01792 0.0
C1042 C 0.73181 0.88803 1.00304 0.0
C1043 C 0.73453 0.90096 0.02443 0.0
H1044 H 0.73337 0.71859 0.31173 0.0
H1045 H 0.90521 0.81064 0.31473 0.0
H1046 H 0.89985 0.84706 0.34888 0.0
H1047 H 0.84568 0.85341 0.37763 0.0
H1048 H 0.67378 0.76891 0.37204 0.0
H1049 H 0.67982 0.73085 0.33866 0.0
C1050 C 0.76969 0.74631 0.31992 0.0
C1051 C 0.81969 0.76115 0.31091 0.0
C1052 C 0.7662 0.76955 0.3388 0.0
C1053 C 0.86632 0.7979 0.32155 0.0
C1054 C 0.86321 0.81915 0.34094 0.0
C1055 C 0.80958 0.8273 0.36894 0.0
C1056 C 0.75934 0.81416 0.37739 0.0
C1057 C 0.8133 0.80565 0.34962 0.0
C1058 C 0.713 0.7803 0.36588 0.0
C1059 C 0.71635 0.75789 0.34689 0.0
H1060 H 0.05235 0.85926 0.64528 0.0
H1061 H 0.08819 0.73187 0.64488 0.0
H1062 H 0.03729 0.69642 0.67724 0.0
H1063 H 0.9786 0.69863 0.70469 0.0
H1064 H 0.94119 0.82488 0.70486 0.0
H1065 H 0.9937 0.86165 0.67277 0.0
C1066 C 0.04872 0.82351 0.65216 0.0
C1067 C 0.07336 0.79786 0.64231 0.0
C1068 C 0.01769 0.80214 0.6704 0.0
C1069 C 0.06992 0.75273 0.65202 0.0
C1070 C 0.04007 0.73187 0.6704 0.0
C1071 C 0.98124 0.73375 0.69755 0.0
C1072 C 0.95587 0.75895 0.70718 0.0
C1073 C 0.01277 0.75551 0.67946 0.0
C1074 C 0.96027 0.80473 0.69777 0.0
C1075 C 0.99072 0.82605 0.67955 0.0
H1076 H 0.28658 0.98031 0.03572 0.0
H1077 H 0.11601 0.90171 0.02671 0.0
H1078 H 0.12902 0.94761 0.99304 0.0
H1079 H 0.18914 0.01181 0.96659 0.0
H1080 H 0.35953 0.0947 0.97721 0.0
H1081 H 0.34609 0.0474 0.01032 0.0
C1082 C 0.2522 0.97269 0.0263 0.0
C1083 C 0.20034 0.93713 0.03364 0.0
C1084 C 0.25994 1.00122 1.00752 0.0
C1085 C 0.15632 0.92846 0.02132 0.0
C1086 C 0.16376 0.95513 1.00218 0.0
C1087 C 0.22336 0.01985 0.9762 0.0
C1088 C 0.27534 0.05674 0.96923 0.0
C1089 C 0.21541 0.99212 0.99524 0.0
C1090 C 0.31905 0.06695 0.98211 0.0
C1091 C 0.31147 0.03937 1.00098 0.0
loop_
_geom_bond_atom_site_label_1
_geom_bond_atom_site_label_2
_geom_bond_distance
_geom_bond_site_symmetry_2
_ccdc_geom_bond_type
Co0 O2 2.143 . S
Co0 O8 2.074 . S
Co0 O11 2.093 . S
Co0 O24 2.097 . S
Co0 N41 2.151 . S
Co0 N49 2.214 . S
Co1 O2 2.160 . S
Co1 O7 2.058 . S
Co1 O17 2.057 . S
Co1 O32 2.037 . S
Co1 N36 2.145 . S
Co1 N57 2.257 . S
O2 Co0 2.143 . S
O2 Co1 2.160 . S
C3 O4 1.278 . S
C3 O11 1.224 . S
O4 C3 1.278 . S
C5 O6 1.245 . S
C5 O17 1.232 . S
O6 C5 1.245 . S
O7 Co1 2.058 . S
O7 C33 1.269 . S
O8 Co0 2.074 . S
O8 C33 1.257 . S
H9 C34 0.930 . S
H10 C40 0.930 . S
O11 Co0 2.093 . S
O11 C3 1.224 . S
H12 C44 0.929 . S
H13 C46 0.930 . S
H14 C47 0.930 . S
H15 C45 0.929 . S
H16 C48 0.928 . S
O17 Co1 2.057 . S
O17 C5 1.232 . S
H18 C37 0.929 . S
H19 C38 0.929 . S
H20 C50 0.931 . S
H21 C42 0.929 . S
H22 C51 0.930 . S
H23 C43 0.931 . S
O24 Co0 2.097 . S
O24 C52 1.214 . S
H25 C53 0.929 . S
H26 C54 0.929 . S
H27 C55 0.930 . S
H28 C56 0.929 . S
H29 C58 0.930 . S
H30 C35 0.930 . S
H31 C39 0.930 1_565 S
O32 Co1 2.037 . S
O32 C52 1.234 . S
C33 O7 1.269 . S
C33 O8 1.257 . S
C34 H9 0.930 . S
C34 C37 1.388 . S
C34 C39 1.418 . S
C35 H30 0.930 . S
C35 C38 1.404 . S
C35 C39 1.353 . S
N36 Co1 2.145 . S
N36 C37 1.397 . S
N36 C38 1.334 . S
C37 H18 0.929 . S
C37 C34 1.388 . S
C37 N36 1.397 . S
C38 H19 0.929 . S
C38 C35 1.404 . S
C38 N36 1.334 . S
C39 H31 0.930 1_545 S
C39 C34 1.418 . S
C39 C35 1.353 . S
C40 H10 0.930 . S
C40 N41 1.330 . S
C40 C42 1.446 . S
N41 Co0 2.151 . S
N41 C40 1.330 . S
N41 C45 1.418 . S
C42 H21 0.929 . S
C42 C40 1.446 . S
C42 C43 1.332 . S
C43 H23 0.931 . S
C43 C42 1.332 . S
C43 C44 1.267 . S
C44 H12 0.929 . S
C44 C43 1.267 . S
C44 C45 1.251 . S
C45 H15 0.929 . S
C45 N41 1.418 . S
C45 C44 1.251 . S
C46 H13 0.930 . S
C46 C48 1.406 . S
C46 C51 1.261 . S
C47 H14 0.930 . S
C47 N49 1.325 . S
C47 C50 1.357 . S
C48 H16 0.928 . S
C48 C46 1.406 . S
C48 N49 1.261 . S
N49 Co0 2.214 . S
N49 C47 1.325 . S
N49 C48 1.261 . S
C50 H20 0.931 . S
C50 C47 1.357 . S
C50 C51 1.312 . S
C51 H22 0.930 . S
C51 C46 1.261 . S
C51 C50 1.312 . S
C52 O24 1.214 . S
C52 O32 1.234 . S
C53 H25 0.929 . S
C53 C56 1.391 . S
C53 C58 1.391 . S
C54 H26 0.929 . S
C54 C55 1.390 . S
C54 N57 1.391 . S
C55 H27 0.930 . S
C55 C54 1.390 . S
C55 C56 1.392 . S
C56 H28 0.929 . S
C56 C53 1.391 . S
C56 C55 1.392 . S
N57 Co1 2.257 . S
N57 C54 1.391 . S
N57 C58 1.388 . S
C58 H29 0.930 . S
C58 C53 1.391 . S
C58 N57 1.388 . S
Co59 O61 2.143 . S
Co59 O67 2.074 . S
Co59 O70 2.093 . S
Co59 O83 2.097 1_655 S
Co59 N100 2.151 . S
Co59 N108 2.214 . S
Co60 O61 2.160 1_455 S
Co60 O66 2.058 1_455 S
Co60 O76 2.057 1_455 S
Co60 O91 2.037 . S
Co60 N95 2.145 . S
Co60 N116 2.257 . S
O61 Co59 2.143 . S
O61 Co60 2.160 1_655 S
C62 O63 1.278 1_655 S
C62 O70 1.224 . S
O63 C62 1.278 1_455 S
C64 O65 1.245 . S
C64 O76 1.232 . S
O65 C64 1.245 . S
O66 Co60 2.058 1_655 S
O66 C92 1.269 . S
O67 Co59 2.074 . S
O67 C92 1.257 . S
H68 C93 0.930 . S
H69 C99 0.930 . S
O70 Co59 2.093 . S
O70 C62 1.224 . S
H71 C103 0.929 . S
H72 C105 0.930 . S
H73 C106 0.930 . S
H74 C104 0.929 . S
H75 C107 0.928 . S
O76 Co60 2.057 1_655 S
O76 C64 1.232 . S
H77 C96 0.929 . S
H78 C97 0.929 . S
H79 C109 0.931 . S
H80 C101 0.929 . S
H81 C110 0.930 . S
H82 C102 0.931 . S
O83 Co59 2.097 1_455 S
O83 C111 1.214 . S
H84 C112 0.929 . S
H85 C113 0.929 . S
H86 C114 0.930 . S
H87 C115 0.929 . S
H88 C117 0.930 . S
H89 C94 0.930 . S
H90 C98 0.930 . S
O91 Co60 2.037 . S
O91 C111 1.234 . S
C92 O66 1.269 . S
C92 O67 1.257 . S
C93 H68 0.930 . S
C93 C96 1.388 . S
C93 C98 1.418 . S
C94 H89 0.930 . S
C94 C97 1.404 . S
C94 C98 1.353 . S
N95 Co60 2.145 . S
N95 C96 1.397 . S
N95 C97 1.334 . S
C96 H77 0.929 . S
C96 C93 1.388 . S
C96 N95 1.397 . S
C97 H78 0.929 . S
C97 C94 1.404 . S
C97 N95 1.334 . S
C98 H90 0.930 . S
C98 C93 1.418 . S
C98 C94 1.353 . S
C99 H69 0.930 . S
C99 N100 1.330 . S
C99 C101 1.446 . S
N100 Co59 2.151 . S
N100 C99 1.330 . S
N100 C104 1.418 . S
C101 H80 0.929 . S
C101 C99 1.446 . S
C101 C102 1.332 . S
C102 H82 0.931 . S
C102 C101 1.332 . S
C102 C103 1.267 . S
C103 H71 0.929 . S
C103 C102 1.267 . S
C103 C104 1.251 . S
C104 H74 0.929 . S
C104 N100 1.418 . S
C104 C103 1.251 . S
C105 H72 0.930 . S
C105 C107 1.406 . S
C105 C110 1.261 . S
C106 H73 0.930 . S
C106 N108 1.325 . S
C106 C109 1.357 . S
C107 H75 0.928 . S
C107 C105 1.406 . S
C107 N108 1.261 . S
N108 Co59 2.214 . S
N108 C106 1.325 . S
N108 C107 1.261 . S
C109 H79 0.931 . S
C109 C106 1.357 . S
C109 C110 1.312 . S
C110 H81 0.930 . S
C110 C105 1.261 . S
C110 C109 1.312 . S
C111 O83 1.214 . S
C111 O91 1.234 . S
C112 H84 0.929 . S
C112 C115 1.391 . S
C112 C117 1.391 . S
C113 H85 0.929 . S
C113 C114 1.390 . S
C113 N116 1.391 . S
C114 H86 0.930 . S
C114 C113 1.390 . S
C114 C115 1.392 . S
C115 H87 0.929 . S
C115 C112 1.391 . S
C115 C114 1.392 . S
N116 Co60 2.257 . S
N116 C113 1.391 . S
N116 C117 1.388 . S
C117 H88 0.930 . S
C117 C112 1.391 . S
C117 N116 1.388 . S
Co118 O120 2.143 . S
Co118 O126 2.074 . S
Co118 O129 2.093 . S
Co118 O142 2.097 1_565 S
Co118 N159 2.151 . S
Co118 N167 2.214 . S
Co119 O120 2.160 1_545 S
Co119 O125 2.058 1_545 S
Co119 O135 2.057 1_545 S
Co119 O150 2.037 . S
Co119 N154 2.145 . S
Co119 N175 2.257 . S
O120 Co118 2.143 . S
O120 Co119 2.160 1_565 S
C121 O122 1.278 1_565 S
C121 O129 1.224 . S
O122 C121 1.278 1_545 S
C123 O124 1.245 . S
C123 O135 1.232 . S
O124 C123 1.245 . S
O125 Co119 2.058 1_565 S
O125 C151 1.269 . S
O126 Co118 2.074 . S
O126 C151 1.257 . S
H127 C152 0.930 . S
H128 C158 0.930 . S
O129 Co118 2.093 . S
O129 C121 1.224 . S
H130 C162 0.929 . S
H131 C164 0.930 . S
H132 C165 0.930 . S
H133 C163 0.929 . S
H134 C166 0.928 . S
O135 Co119 2.057 1_565 S
O135 C123 1.232 . S
H136 C155 0.929 . S
H137 C156 0.929 . S
H138 C168 0.931 . S
H139 C160 0.929 . S
H140 C169 0.930 . S
H141 C161 0.931 . S
O142 Co118 2.097 1_545 S
O142 C170 1.214 . S
H143 C171 0.929 . S
H144 C172 0.929 . S
H145 C173 0.930 . S
H146 C174 0.929 . S
H147 C176 0.930 . S
H148 C153 0.930 . S
H149 C157 0.930 1_455 S
O150 Co119 2.037 . S
O150 C170 1.234 . S
C151 O125 1.269 . S
C151 O126 1.257 . S
C152 H127 0.930 . S
C152 C155 1.388 . S
C152 C157 1.418 . S
C153 H148 0.930 . S
C153 C156 1.404 . S
C153 C157 1.353 . S
N154 Co119 2.145 . S
N154 C155 1.397 . S
N154 C156 1.334 . S
C155 H136 0.929 . S
C155 C152 1.388 . S
C155 N154 1.397 . S
C156 H137 0.929 . S
C156 C153 1.404 . S
C156 N154 1.334 . S
C157 H149 0.930 1_655 S
C157 C152 1.418 . S
C157 C153 1.353 . S
C158 H128 0.930 . S
C158 N159 1.330 . S
C158 C160 1.446 . S
N159 Co118 2.151 . S
N159 C158 1.330 . S
N159 C163 1.418 . S
C160 H139 0.929 . S
C160 C158 1.446 . S
C160 C161 1.332 . S
C161 H141 0.931 . S
C161 C160 1.332 . S
C161 C162 1.267 . S
C162 H130 0.929 . S
C162 C161 1.267 . S
C162 C163 1.251 . S
C163 H133 0.929 . S
C163 N159 1.418 . S
C163 C162 1.251 . S
C164 H131 0.930 . S
C164 C166 1.406 . S
C164 C169 1.261 . S
C165 H132 0.930 . S
C165 N167 1.325 . S
C165 C168 1.357 . S
C166 H134 0.928 . S
C166 C164 1.406 . S
C166 N167 1.261 . S
N167 Co118 2.214 . S
N167 C165 1.325 . S
N167 C166 1.261 . S
C168 H138 0.931 . S
C168 C165 1.357 . S
C168 C169 1.312 . S
C169 H140 0.930 . S
C169 C164 1.261 . S
C169 C168 1.312 . S
C170 O142 1.214 . S
C170 O150 1.234 . S
C171 H143 0.929 . S
C171 C174 1.391 . S
C171 C176 1.391 . S
C172 H144 0.929 . S
C172 C173 1.390 . S
C172 N175 1.391 . S
C173 H145 0.930 . S
C173 C172 1.390 . S
C173 C174 1.392 . S
C174 H146 0.929 . S
C174 C171 1.391 . S
C174 C173 1.392 . S
N175 Co119 2.257 . S
N175 C172 1.391 . S
N175 C176 1.388 . S
C176 H147 0.930 . S
C176 C171 1.391 . S
C176 N175 1.388 . S
Co177 O179 2.143 . S
Co177 O185 2.074 . S
Co177 O188 2.093 . S
Co177 O201 2.097 . S
Co177 N218 2.151 . S
Co177 N226 2.214 . S
Co178 O179 2.160 . S
Co178 O184 2.058 . S
Co178 O194 2.057 . S
Co178 O209 2.037 . S
Co178 N213 2.145 . S
Co178 N234 2.257 . S
O179 Co177 2.143 . S
O179 Co178 2.160 . S
C180 O181 1.278 . S
C180 O188 1.224 . S
O181 C180 1.278 . S
C182 O183 1.245 . S
C182 O194 1.232 . S
O183 C182 1.245 . S
O184 Co178 2.058 . S
O184 C210 1.269 . S
O185 Co177 2.074 . S
O185 C210 1.257 . S
H186 C211 0.930 . S
H187 C217 0.930 . S
O188 Co177 2.093 . S
O188 C180 1.224 . S
H189 C221 0.929 . S
H190 C223 0.930 . S
H191 C224 0.930 . S
H192 C222 0.929 . S
H193 C225 0.928 . S
O194 Co178 2.057 . S
O194 C182 1.232 . S
H195 C214 0.929 . S
H196 C215 0.929 . S
H197 C227 0.931 . S
H198 C219 0.929 . S
H199 C228 0.930 . S
H200 C220 0.931 . S
O201 Co177 2.097 . S
O201 C229 1.214 . S
H202 C230 0.929 . S
H203 C231 0.929 . S
H204 C232 0.930 . S
H205 C233 0.929 . S
H206 C235 0.930 . S
H207 C212 0.930 . S
H208 C216 0.930 1_545 S
O209 Co178 2.037 . S
O209 C229 1.234 . S
C210 O184 1.269 . S
C210 O185 1.257 . S
C211 H186 0.930 . S
C211 C214 1.388 . S
C211 C216 1.418 . S
C212 H207 0.930 . S
C212 C215 1.404 . S
C212 C216 1.353 . S
N213 Co178 2.145 . S
N213 C214 1.397 . S
N213 C215 1.334 . S
C214 H195 0.929 . S
C214 C211 1.388 . S
C214 N213 1.397 . S
C215 H196 0.929 . S
C215 C212 1.404 . S
C215 N213 1.334 . S
C216 H208 0.930 1_565 S
C216 C211 1.418 . S
C216 C212 1.353 . S
C217 H187 0.930 . S
C217 N218 1.330 . S
C217 C219 1.446 . S
N218 Co177 2.151 . S
N218 C217 1.330 . S
N218 C222 1.418 . S
C219 H198 0.929 . S
C219 C217 1.446 . S
C219 C220 1.332 . S
C220 H200 0.931 . S
C220 C219 1.332 . S
C220 C221 1.267 . S
C221 H189 0.929 . S
C221 C220 1.267 . S
C221 C222 1.251 . S
C222 H192 0.929 . S
C222 N218 1.418 . S
C222 C221 1.251 . S
C223 H190 0.930 . S
C223 C225 1.406 . S
C223 C228 1.261 . S
C224 H191 0.930 . S
C224 N226 1.325 . S
C224 C227 1.357 . S
C225 H193 0.928 . S
C225 C223 1.406 . S
C225 N226 1.261 . S
N226 Co177 2.214 . S
N226 C224 1.325 . S
N226 C225 1.261 . S
C227 H197 0.931 . S
C227 C224 1.357 . S
C227 C228 1.312 . S
C228 H199 0.930 . S
C228 C223 1.261 . S
C228 C227 1.312 . S
C229 O201 1.214 . S
C229 O209 1.234 . S
C230 H202 0.929 . S
C230 C233 1.391 . S
C230 C235 1.391 . S
C231 H203 0.929 . S
C231 C232 1.390 . S
C231 N234 1.391 . S
C232 H204 0.930 . S
C232 C231 1.390 . S
C232 C233 1.392 . S
C233 H205 0.929 . S
C233 C230 1.391 . S
C233 C232 1.392 . S
N234 Co178 2.257 . S
N234 C231 1.391 . S
N234 C235 1.388 . S
C235 H206 0.930 . S
C235 C230 1.391 . S
C235 N234 1.388 . S
Co236 O238 2.143 . S
Co236 O244 2.074 . S
Co236 O247 2.093 . S
Co236 O260 2.097 1_455 S
Co236 N277 2.151 . S
Co236 N285 2.214 . S
Co237 O238 2.160 1_655 S
Co237 O243 2.058 1_655 S
Co237 O253 2.057 1_655 S
Co237 O268 2.037 . S
Co237 N272 2.145 . S
Co237 N293 2.257 . S
O238 Co236 2.143 . S
O238 Co237 2.160 1_455 S
C239 O240 1.278 1_455 S
C239 O247 1.224 . S
O240 C239 1.278 1_655 S
C241 O242 1.245 . S
C241 O253 1.232 . S
O242 C241 1.245 . S
O243 Co237 2.058 1_455 S
O243 C269 1.269 . S
O244 Co236 2.074 . S
O244 C269 1.257 . S
H245 C270 0.930 . S
H246 C276 0.930 . S
O247 Co236 2.093 . S
O247 C239 1.224 . S
H248 C280 0.929 . S
H249 C282 0.930 . S
H250 C283 0.930 . S
H251 C281 0.929 . S
H252 C284 0.928 . S
O253 Co237 2.057 1_455 S
O253 C241 1.232 . S
H254 C273 0.929 . S
H255 C274 0.929 . S
H256 C286 0.931 . S
H257 C278 0.929 . S
H258 C287 0.930 . S
H259 C279 0.931 . S
O260 Co236 2.097 1_655 S
O260 C288 1.214 . S
H261 C289 0.929 . S
H262 C290 0.929 . S
H263 C291 0.930 . S
H264 C292 0.929 . S
H265 C294 0.930 . S
H266 C271 0.930 . S
H267 C275 0.930 . S
O268 Co237 2.037 . S
O268 C288 1.234 . S
C269 O243 1.269 . S
C269 O244 1.257 . S
C270 H245 0.930 . S
C270 C273 1.388 . S
C270 C275 1.418 . S
C271 H266 0.930 . S
C271 C274 1.404 . S
C271 C275 1.353 . S
N272 Co237 2.145 . S
N272 C273 1.397 . S
N272 C274 1.334 . S
C273 H254 0.929 . S
C273 C270 1.388 . S
C273 N272 1.397 . S
C274 H255 0.929 . S
C274 C271 1.404 . S
C274 N272 1.334 . S
C275 H267 0.930 . S
C275 C270 1.418 . S
C275 C271 1.353 . S
C276 H246 0.930 . S
C276 N277 1.330 . S
C276 C278 1.446 . S
N277 Co236 2.151 . S
N277 C276 1.330 . S
N277 C281 1.418 . S
C278 H257 0.929 . S
C278 C276 1.446 . S
C278 C279 1.332 . S
C279 H259 0.931 . S
C279 C278 1.332 . S
C279 C280 1.267 . S
C280 H248 0.929 . S
C280 C279 1.267 . S
C280 C281 1.251 . S
C281 H251 0.929 . S
C281 N277 1.418 . S
C281 C280 1.251 . S
C282 H249 0.930 . S
C282 C284 1.406 . S
C282 C287 1.261 . S
C283 H250 0.930 . S
C283 N285 1.325 . S
C283 C286 1.357 . S
C284 H252 0.928 . S
C284 C282 1.406 . S
C284 N285 1.261 . S
N285 Co236 2.214 . S
N285 C283 1.325 . S
N285 C284 1.261 . S
C286 H256 0.931 . S
C286 C283 1.357 . S
C286 C287 1.312 . S
C287 H258 0.930 . S
C287 C282 1.261 . S
C287 C286 1.312 . S
C288 O260 1.214 . S
C288 O268 1.234 . S
C289 H261 0.929 . S
C289 C292 1.391 . S
C289 C294 1.391 . S
C290 H262 0.929 . S
C290 C291 1.390 . S
C290 N293 1.391 . S
C291 H263 0.930 . S
C291 C290 1.390 . S
C291 C292 1.392 . S
C292 H264 0.929 . S
C292 C289 1.391 . S
C292 C291 1.392 . S
N293 Co237 2.257 . S
N293 C290 1.391 . S
N293 C294 1.388 . S
C294 H265 0.930 . S
C294 C289 1.391 . S
C294 N293 1.388 . S
Co295 O297 2.143 . S
Co295 O303 2.074 . S
Co295 O306 2.093 . S
Co295 O319 2.097 1_545 S
Co295 N336 2.151 . S
Co295 N344 2.214 . S
Co296 O297 2.160 1_565 S
Co296 O302 2.058 1_565 S
Co296 O312 2.057 1_565 S
Co296 O327 2.037 . S
Co296 N331 2.145 . S
Co296 N352 2.257 . S
O297 Co295 2.143 . S
O297 Co296 2.160 1_545 S
C298 O299 1.278 1_545 S
C298 O306 1.224 . S
O299 C298 1.278 1_565 S
C300 O301 1.245 . S
C300 O312 1.232 . S
O301 C300 1.245 . S
O302 Co296 2.058 1_545 S
O302 C328 1.269 . S
O303 Co295 2.074 . S
O303 C328 1.257 . S
H304 C329 0.930 . S
H305 C335 0.930 . S
O306 Co295 2.093 . S
O306 C298 1.224 . S
H307 C339 0.929 . S
H308 C341 0.930 . S
H309 C342 0.930 . S
H310 C340 0.929 . S
H311 C343 0.928 . S
O312 Co296 2.057 1_545 S
O312 C300 1.232 . S
H313 C332 0.929 . S
H314 C333 0.929 . S
H315 C345 0.931 . S
H316 C337 0.929 . S
H317 C346 0.930 . S
H318 C338 0.931 . S
O319 Co295 2.097 1_565 S
O319 C347 1.214 . S
H320 C348 0.929 . S
H321 C349 0.929 . S
H322 C350 0.930 . S
H323 C351 0.929 . S
H324 C353 0.930 . S
H325 C330 0.930 . S
H326 C334 0.930 1_655 S
O327 Co296 2.037 . S
O327 C347 1.234 . S
C328 O302 1.269 . S
C328 O303 1.257 . S
C329 H304 0.930 . S
C329 C332 1.388 . S
C329 C334 1.418 . S
C330 H325 0.930 . S
C330 C333 1.404 . S
C330 C334 1.353 . S
N331 Co296 2.145 . S
N331 C332 1.397 . S
N331 C333 1.334 . S
C332 H313 0.929 . S
C332 C329 1.388 . S
C332 N331 1.397 . S
C333 H314 0.929 . S
C333 C330 1.404 . S
C333 N331 1.334 . S
C334 H326 0.930 1_455 S
C334 C329 1.418 . S
C334 C330 1.353 . S
C335 H305 0.930 . S
C335 N336 1.330 . S
C335 C337 1.446 . S
N336 Co295 2.151 . S
N336 C335 1.330 . S
N336 C340 1.418 . S
C337 H316 0.929 . S
C337 C335 1.446 . S
C337 C338 1.332 . S
C338 H318 0.931 . S
C338 C337 1.332 . S
C338 C339 1.267 . S
C339 H307 0.929 . S
C339 C338 1.267 . S
C339 C340 1.251 . S
C340 H310 0.929 . S
C340 N336 1.418 . S
C340 C339 1.251 . S
C341 H308 0.930 . S
C341 C343 1.406 . S
C341 C346 1.261 . S
C342 H309 0.930 . S
C342 N344 1.325 . S
C342 C345 1.357 . S
C343 H311 0.928 . S
C343 C341 1.406 . S
C343 N344 1.261 . S
N344 Co295 2.214 . S
N344 C342 1.325 . S
N344 C343 1.261 . S
C345 H315 0.931 . S
C345 C342 1.357 . S
C345 C346 1.312 . S
C346 H317 0.930 . S
C346 C341 1.261 . S
C346 C345 1.312 . S
C347 O319 1.214 . S
C347 O327 1.234 . S
C348 H320 0.929 . S
C348 C351 1.391 . S
C348 C353 1.391 . S
C349 H321 0.929 . S
C349 C350 1.390 . S
C349 N352 1.391 . S
C350 H322 0.930 . S
C350 C349 1.390 . S
C350 C351 1.392 . S
C351 H323 0.929 . S
C351 C348 1.391 . S
C351 C350 1.392 . S
N352 Co296 2.257 . S
N352 C349 1.391 . S
N352 C353 1.388 . S
C353 H324 0.930 . S
C353 C348 1.391 . S
C353 N352 1.388 . S
Co354 O356 2.143 . S
Co354 O362 2.074 . S
Co354 O365 2.093 . S
Co354 O378 2.097 . S
Co354 N395 2.151 . S
Co354 N403 2.214 . S
Co355 O356 2.160 . S
Co355 O361 2.058 . S
Co355 O371 2.057 . S
Co355 O386 2.037 . S
Co355 N390 2.145 . S
Co355 N411 2.257 . S
O356 Co354 2.143 . S
O356 Co355 2.160 . S
C357 O358 1.278 . S
C357 O365 1.224 . S
O358 C357 1.278 . S
C359 O360 1.245 . S
C359 O371 1.232 . S
O360 C359 1.245 . S
O361 Co355 2.058 . S
O361 C387 1.269 . S
O362 Co354 2.074 . S
O362 C387 1.257 . S
H363 C388 0.930 . S
H364 C394 0.930 . S
O365 Co354 2.093 . S
O365 C357 1.224 . S
H366 C398 0.929 . S
H367 C400 0.930 . S
H368 C401 0.930 . S
H369 C399 0.929 . S
H370 C402 0.928 . S
O371 Co355 2.057 . S
O371 C359 1.232 . S
H372 C391 0.929 . S
H373 C392 0.929 . S
H374 C404 0.931 . S
H375 C396 0.929 . S
H376 C405 0.930 . S
H377 C397 0.931 . S
O378 Co354 2.097 . S
O378 C406 1.214 . S
H379 C407 0.929 . S
H380 C408 0.929 . S
H381 C409 0.930 . S
H382 C410 0.929 . S
H383 C412 0.930 . S
H384 C389 0.930 . S
H385 C393 0.930 1_455 S
O386 Co355 2.037 . S
O386 C406 1.234 . S
C387 O361 1.269 . S
C387 O362 1.257 . S
C388 H363 0.930 . S
C388 C391 1.388 . S
C388 C393 1.418 . S
C389 H384 0.930 . S
C389 C392 1.404 . S
C389 C393 1.353 . S
N390 Co355 2.145 . S
N390 C391 1.397 . S
N390 C392 1.334 . S
C391 H372 0.929 . S
C391 C388 1.388 . S
C391 N390 1.397 . S
C392 H373 0.929 . S
C392 C389 1.404 . S
C392 N390 1.334 . S
C393 H385 0.930 1_655 S
C393 C388 1.418 . S
C393 C389 1.353 . S
C394 H364 0.930 . S
C394 N395 1.330 . S
C394 C396 1.446 . S
N395 Co354 2.151 . S
N395 C394 1.330 . S
N395 C399 1.418 . S
C396 H375 0.929 . S
C396 C394 1.446 . S
C396 C397 1.332 . S
C397 H377 0.931 . S
C397 C396 1.332 . S
C397 C398 1.267 . S
C398 H366 0.929 . S
C398 C397 1.267 . S
C398 C399 1.251 . S
C399 H369 0.929 . S
C399 N395 1.418 . S
C399 C398 1.251 . S
C400 H367 0.930 . S
C400 C402 1.406 . S
C400 C405 1.261 . S
C401 H368 0.930 . S
C401 N403 1.325 . S
C401 C404 1.357 . S
C402 H370 0.928 . S
C402 C400 1.406 . S
C402 N403 1.261 . S
N403 Co354 2.214 . S
N403 C401 1.325 . S
N403 C402 1.261 . S
C404 H374 0.931 . S
C404 C401 1.357 . S
C404 C405 1.312 . S
C405 H376 0.930 . S
C405 C400 1.261 . S
C405 C404 1.312 . S
C406 O378 1.214 . S
C406 O386 1.234 . S
C407 H379 0.929 . S
C407 C410 1.391 . S
C407 C412 1.391 . S
C408 H380 0.929 . S
C408 C409 1.390 . S
C408 N411 1.391 . S
C409 H381 0.930 . S
C409 C408 1.390 . S
C409 C410 1.392 . S
C410 H382 0.929 . S
C410 C407 1.391 . S
C410 C409 1.392 . S
N411 Co355 2.257 . S
N411 C408 1.391 . S
N411 C412 1.388 . S
C412 H383 0.930 . S
C412 C407 1.391 . S
C412 N411 1.388 . S
Co413 O415 2.143 . S
Co413 O421 2.074 . S
Co413 O424 2.093 . S
Co413 O437 2.097 1_655 S
Co413 N454 2.151 . S
Co413 N462 2.214 . S
Co414 O415 2.160 1_455 S
Co414 O420 2.058 1_455 S
Co414 O430 2.057 1_455 S
Co414 O445 2.037 . S
Co414 N449 2.145 . S
Co414 N470 2.257 . S
O415 Co413 2.143 . S
O415 Co414 2.160 1_655 S
C416 O417 1.278 1_655 S
C416 O424 1.224 . S
O417 C416 1.278 1_455 S
C418 O419 1.245 . S
C418 O430 1.232 . S
O419 C418 1.245 . S
O420 Co414 2.058 1_655 S
O420 C446 1.269 . S
O421 Co413 2.074 . S
O421 C446 1.257 . S
H422 C447 0.930 . S
H423 C453 0.930 . S
O424 Co413 2.093 . S
O424 C416 1.224 . S
H425 C457 0.929 . S
H426 C459 0.930 . S
H427 C460 0.930 . S
H428 C458 0.929 . S
H429 C461 0.928 . S
O430 Co414 2.057 1_655 S
O430 C418 1.232 . S
H431 C450 0.929 . S
H432 C451 0.929 . S
H433 C463 0.931 . S
H434 C455 0.929 . S
H435 C464 0.930 . S
H436 C456 0.931 . S
O437 Co413 2.097 1_455 S
O437 C465 1.214 . S
H438 C466 0.929 . S
H439 C467 0.929 . S
H440 C468 0.930 . S
H441 C469 0.929 . S
H442 C471 0.930 . S
H443 C448 0.930 . S
H444 C452 0.930 1_545 S
O445 Co414 2.037 . S
O445 C465 1.234 . S
C446 O420 1.269 . S
C446 O421 1.257 . S
C447 H422 0.930 . S
C447 C450 1.388 . S
C447 C452 1.418 . S
C448 H443 0.930 . S
C448 C451 1.404 . S
C448 C452 1.353 . S
N449 Co414 2.145 . S
N449 C450 1.397 . S
N449 C451 1.334 . S
C450 H431 0.929 . S
C450 C447 1.388 . S
C450 N449 1.397 . S
C451 H432 0.929 . S
C451 C448 1.404 . S
C451 N449 1.334 . S
C452 H444 0.930 1_565 S
C452 C447 1.418 . S
C452 C448 1.353 . S
C453 H423 0.930 . S
C453 N454 1.330 . S
C453 C455 1.446 . S
N454 Co413 2.151 . S
N454 C453 1.330 . S
N454 C458 1.418 . S
C455 H434 0.929 . S
C455 C453 1.446 . S
C455 C456 1.332 . S
C456 H436 0.931 . S
C456 C455 1.332 . S
C456 C457 1.267 . S
C457 H425 0.929 . S
C457 C456 1.267 . S
C457 C458 1.251 . S
C458 H428 0.929 . S
C458 N454 1.418 . S
C458 C457 1.251 . S
C459 H426 0.930 . S
C459 C461 1.406 . S
C459 C464 1.261 . S
C460 H427 0.930 . S
C460 N462 1.325 . S
C460 C463 1.357 . S
C461 H429 0.928 . S
C461 C459 1.406 . S
C461 N462 1.261 . S
N462 Co413 2.214 . S
N462 C460 1.325 . S
N462 C461 1.261 . S
C463 H433 0.931 . S
C463 C460 1.357 . S
C463 C464 1.312 . S
C464 H435 0.930 . S
C464 C459 1.261 . S
C464 C463 1.312 . S
C465 O437 1.214 . S
C465 O445 1.234 . S
C466 H438 0.929 . S
C466 C469 1.391 . S
C466 C471 1.391 . S
C467 H439 0.929 . S
C467 C468 1.390 . S
C467 N470 1.391 . S
C468 H440 0.930 . S
C468 C467 1.390 . S
C468 C469 1.392 . S
C469 H441 0.929 . S
C469 C466 1.391 . S
C469 C468 1.392 . S
N470 Co414 2.257 . S
N470 C467 1.391 . S
N470 C471 1.388 . S
C471 H442 0.930 . S
C471 C466 1.391 . S
C471 N470 1.388 . S
Co472 O474 2.143 . S
Co472 O480 2.074 . S
Co472 O483 2.093 . S
Co472 O496 2.097 1_565 S
Co472 N513 2.151 . S
Co472 N521 2.214 . S
Co473 O474 2.160 1_545 S
Co473 O479 2.058 1_545 S
Co473 O489 2.057 1_545 S
Co473 O504 2.037 . S
Co473 N508 2.145 . S
Co473 N529 2.257 . S
O474 Co472 2.143 . S
O474 Co473 2.160 1_565 S
C475 O476 1.278 1_565 S
C475 O483 1.224 . S
O476 C475 1.278 1_545 S
C477 O478 1.245 . S
C477 O489 1.232 . S
O478 C477 1.245 . S
O479 Co473 2.058 1_565 S
O479 C505 1.269 . S
O480 Co472 2.074 . S
O480 C505 1.257 . S
H481 C506 0.930 . S
H482 C512 0.930 . S
O483 Co472 2.093 . S
O483 C475 1.224 . S
H484 C516 0.929 . S
H485 C518 0.930 . S
H486 C519 0.930 . S
H487 C517 0.929 . S
H488 C520 0.928 . S
O489 Co473 2.057 1_565 S
O489 C477 1.232 . S
H490 C509 0.929 . S
H491 C510 0.929 . S
H492 C522 0.931 . S
H493 C514 0.929 . S
H494 C523 0.930 . S
H495 C515 0.931 . S
O496 Co472 2.097 1_545 S
O496 C524 1.214 . S
H497 C525 0.929 . S
H498 C526 0.929 . S
H499 C527 0.930 . S
H500 C528 0.929 . S
H501 C530 0.930 . S
H502 C507 0.930 . S
H503 C511 0.930 . S
O504 Co473 2.037 . S
O504 C524 1.234 . S
C505 O479 1.269 . S
C505 O480 1.257 . S
C506 H481 0.930 . S
C506 C509 1.388 . S
C506 C511 1.418 . S
C507 H502 0.930 . S
C507 C510 1.404 . S
C507 C511 1.353 . S
N508 Co473 2.145 . S
N508 C509 1.397 . S
N508 C510 1.334 . S
C509 H490 0.929 . S
C509 C506 1.388 . S
C509 N508 1.397 . S
C510 H491 0.929 . S
C510 C507 1.404 . S
C510 N508 1.334 . S
C511 H503 0.930 . S
C511 C506 1.418 . S
C511 C507 1.353 . S
C512 H482 0.930 . S
C512 N513 1.330 . S
C512 C514 1.446 . S
N513 Co472 2.151 . S
N513 C512 1.330 . S
N513 C517 1.418 . S
C514 H493 0.929 . S
C514 C512 1.446 . S
C514 C515 1.332 . S
C515 H495 0.931 . S
C515 C514 1.332 . S
C515 C516 1.267 . S
C516 H484 0.929 . S
C516 C515 1.267 . S
C516 C517 1.251 . S
C517 H487 0.929 . S
C517 N513 1.418 . S
C517 C516 1.251 . S
C518 H485 0.930 . S
C518 C520 1.406 . S
C518 C523 1.261 . S
C519 H486 0.930 . S
C519 N521 1.325 . S
C519 C522 1.357 . S
C520 H488 0.928 . S
C520 C518 1.406 . S
C520 N521 1.261 . S
N521 Co472 2.214 . S
N521 C519 1.325 . S
N521 C520 1.261 . S
C522 H492 0.931 . S
C522 C519 1.357 . S
C522 C523 1.312 . S
C523 H494 0.930 . S
C523 C518 1.261 . S
C523 C522 1.312 . S
C524 O496 1.214 . S
C524 O504 1.234 . S
C525 H497 0.929 . S
C525 C528 1.391 . S
C525 C530 1.391 . S
C526 H498 0.929 . S
C526 C527 1.390 . S
C526 N529 1.391 . S
C527 H499 0.930 . S
C527 C526 1.390 . S
C527 C528 1.392 . S
C528 H500 0.929 . S
C528 C525 1.391 . S
C528 C527 1.392 . S
N529 Co473 2.257 . S
N529 C526 1.391 . S
N529 C530 1.388 . S
C530 H501 0.930 . S
C530 C525 1.391 . S
C530 N529 1.388 . S
Co531 O533 2.143 . S
Co531 O539 2.074 . S
Co531 O542 2.093 . S
Co531 O555 2.097 . S
Co531 N572 2.151 . S
Co531 N580 2.214 . S
Co532 O533 2.160 . S
Co532 O538 2.058 . S
Co532 O548 2.057 . S
Co532 O563 2.037 . S
Co532 N567 2.145 . S
Co532 N588 2.257 . S
O533 Co531 2.143 . S
O533 Co532 2.160 . S
C534 O535 1.278 . S
C534 O542 1.224 . S
O535 C534 1.278 . S
C536 O537 1.245 . S
C536 O548 1.232 . S
O537 C536 1.245 . S
O538 Co532 2.058 . S
O538 C564 1.269 . S
O539 Co531 2.074 . S
O539 C564 1.257 . S
H540 C565 0.930 . S
H541 C571 0.930 . S
O542 Co531 2.093 . S
O542 C534 1.224 . S
H543 C575 0.929 . S
H544 C577 0.930 . S
H545 C578 0.930 . S
H546 C576 0.929 . S
H547 C579 0.928 . S
O548 Co532 2.057 . S
O548 C536 1.232 . S
H549 C568 0.929 . S
H550 C569 0.929 . S
H551 C581 0.931 . S
H552 C573 0.929 . S
H553 C582 0.930 . S
H554 C574 0.931 . S
O555 Co531 2.097 . S
O555 C583 1.214 . S
H556 C584 0.929 . S
H557 C585 0.929 . S
H558 C586 0.930 . S
H559 C587 0.929 . S
H560 C589 0.930 . S
H561 C566 0.930 . S
H562 C570 0.930 1_655 S
O563 Co532 2.037 . S
O563 C583 1.234 . S
C564 O538 1.269 . S
C564 O539 1.257 . S
C565 H540 0.930 . S
C565 C568 1.388 . S
C565 C570 1.418 . S
C566 H561 0.930 . S
C566 C569 1.404 . S
C566 C570 1.353 . S
N567 Co532 2.145 . S
N567 C568 1.397 . S
N567 C569 1.334 . S
C568 H549 0.929 . S
C568 C565 1.388 . S
C568 N567 1.397 . S
C569 H550 0.929 . S
C569 C566 1.404 . S
C569 N567 1.334 . S
C570 H562 0.930 1_455 S
C570 C565 1.418 . S
C570 C566 1.353 . S
C571 H541 0.930 . S
C571 N572 1.330 . S
C571 C573 1.446 . S
N572 Co531 2.151 . S
N572 C571 1.330 . S
N572 C576 1.418 . S
C573 H552 0.929 . S
C573 C571 1.446 . S
C573 C574 1.332 . S
C574 H554 0.931 . S
C574 C573 1.332 . S
C574 C575 1.267 . S
C575 H543 0.929 . S
C575 C574 1.267 . S
C575 C576 1.251 . S
C576 H546 0.929 . S
C576 N572 1.418 . S
C576 C575 1.251 . S
C577 H544 0.930 . S
C577 C579 1.406 . S
C577 C582 1.261 . S
C578 H545 0.930 . S
C578 N580 1.325 . S
C578 C581 1.357 . S
C579 H547 0.928 . S
C579 C577 1.406 . S
C579 N580 1.261 . S
N580 Co531 2.214 . S
N580 C578 1.325 . S
N580 C579 1.261 . S
C581 H551 0.931 . S
C581 C578 1.357 . S
C581 C582 1.312 . S
C582 H553 0.930 . S
C582 C577 1.261 . S
C582 C581 1.312 . S
C583 O555 1.214 . S
C583 O563 1.234 . S
C584 H556 0.929 . S
C584 C587 1.391 . S
C584 C589 1.391 . S
C585 H557 0.929 . S
C585 C586 1.390 . S
C585 N588 1.391 . S
C586 H558 0.930 . S
C586 C585 1.390 . S
C586 C587 1.392 . S
C587 H559 0.929 . S
C587 C584 1.391 . S
C587 C586 1.392 . S
N588 Co532 2.257 . S
N588 C585 1.391 . S
N588 C589 1.388 . S
C589 H560 0.930 . S
C589 C584 1.391 . S
C589 N588 1.388 . S
Co590 O592 2.143 . S
Co590 O598 2.074 . S
Co590 O601 2.093 . S
Co590 O614 2.097 1_455 S
Co590 N631 2.151 . S
Co590 N639 2.214 . S
Co591 O592 2.160 1_655 S
Co591 O597 2.058 1_655 S
Co591 O607 2.057 1_655 S
Co591 O622 2.037 . S
Co591 N626 2.145 . S
Co591 N647 2.257 . S
O592 Co590 2.143 . S
O592 Co591 2.160 1_455 S
C593 O594 1.278 1_455 S
C593 O601 1.224 . S
O594 C593 1.278 1_655 S
C595 O596 1.245 . S
C595 O607 1.232 . S
O596 C595 1.245 . S
O597 Co591 2.058 1_455 S
O597 C623 1.269 . S
O598 Co590 2.074 . S
O598 C623 1.257 . S
H599 C624 0.930 . S
H600 C630 0.930 . S
O601 Co590 2.093 . S
O601 C593 1.224 . S
H602 C634 0.929 . S
H603 C636 0.930 . S
H604 C637 0.930 . S
H605 C635 0.929 . S
H606 C638 0.928 . S
O607 Co591 2.057 1_455 S
O607 C595 1.232 . S
H608 C627 0.929 . S
H609 C628 0.929 . S
H610 C640 0.931 . S
H611 C632 0.929 . S
H612 C641 0.930 . S
H613 C633 0.931 . S
O614 Co590 2.097 1_655 S
O614 C642 1.214 . S
H615 C643 0.929 . S
H616 C644 0.929 . S
H617 C645 0.930 . S
H618 C646 0.929 . S
H619 C648 0.930 . S
H620 C625 0.930 . S
H621 C629 0.930 1_565 S
O622 Co591 2.037 . S
O622 C642 1.234 . S
C623 O597 1.269 . S
C623 O598 1.257 . S
C624 H599 0.930 . S
C624 C627 1.388 . S
C624 C629 1.418 . S
C625 H620 0.930 . S
C625 C628 1.404 . S
C625 C629 1.353 . S
N626 Co591 2.145 . S
N626 C627 1.397 . S
N626 C628 1.334 . S
C627 H608 0.929 . S
C627 C624 1.388 . S
C627 N626 1.397 . S
C628 H609 0.929 . S
C628 C625 1.404 . S
C628 N626 1.334 . S
C629 H621 0.930 1_545 S
C629 C624 1.418 . S
C629 C625 1.353 . S
C630 H600 0.930 . S
C630 N631 1.330 . S
C630 C632 1.446 . S
N631 Co590 2.151 . S
N631 C630 1.330 . S
N631 C635 1.418 . S
C632 H611 0.929 . S
C632 C630 1.446 . S
C632 C633 1.332 . S
C633 H613 0.931 . S
C633 C632 1.332 . S
C633 C634 1.267 . S
C634 H602 0.929 . S
C634 C633 1.267 . S
C634 C635 1.251 . S
C635 H605 0.929 . S
C635 N631 1.418 . S
C635 C634 1.251 . S
C636 H603 0.930 . S
C636 C638 1.406 . S
C636 C641 1.261 . S
C637 H604 0.930 . S
C637 N639 1.325 . S
C637 C640 1.357 . S
C638 H606 0.928 . S
C638 C636 1.406 . S
C638 N639 1.261 . S
N639 Co590 2.214 . S
N639 C637 1.325 . S
N639 C638 1.261 . S
C640 H610 0.931 . S
C640 C637 1.357 . S
C640 C641 1.312 . S
C641 H612 0.930 . S
C641 C636 1.261 . S
C641 C640 1.312 . S
C642 O614 1.214 . S
C642 O622 1.234 . S
C643 H615 0.929 . S
C643 C646 1.391 . S
C643 C648 1.391 . S
C644 H616 0.929 . S
C644 C645 1.390 . S
C644 N647 1.391 . S
C645 H617 0.930 . S
C645 C644 1.390 . S
C645 C646 1.392 . S
C646 H618 0.929 . S
C646 C643 1.391 . S
C646 C645 1.392 . S
N647 Co591 2.257 . S
N647 C644 1.391 . S
N647 C648 1.388 . S
C648 H619 0.930 . S
C648 C643 1.391 . S
C648 N647 1.388 . S
Co649 O651 2.143 . S
Co649 O657 2.074 . S
Co649 O660 2.093 . S
Co649 O673 2.097 1_545 S
Co649 N690 2.151 . S
Co649 N698 2.214 . S
Co650 O651 2.160 1_565 S
Co650 O656 2.058 1_565 S
Co650 O666 2.057 1_565 S
Co650 O681 2.037 . S
Co650 N685 2.145 . S
Co650 N706 2.257 . S
O651 Co649 2.143 . S
O651 Co650 2.160 1_545 S
C652 O653 1.278 1_545 S
C652 O660 1.224 . S
O653 C652 1.278 1_565 S
C654 O655 1.245 . S
C654 O666 1.232 . S
O655 C654 1.245 . S
O656 Co650 2.058 1_545 S
O656 C682 1.269 . S
O657 Co649 2.074 . S
O657 C682 1.257 . S
H658 C683 0.930 . S
H659 C689 0.930 . S
O660 Co649 2.093 . S
O660 C652 1.224 . S
H661 C693 0.929 . S
H662 C695 0.930 . S
H663 C696 0.930 . S
H664 C694 0.929 . S
H665 C697 0.928 . S
O666 Co650 2.057 1_545 S
O666 C654 1.232 . S
H667 C686 0.929 . S
H668 C687 0.929 . S
H669 C699 0.931 . S
H670 C691 0.929 . S
H671 C700 0.930 . S
H672 C692 0.931 . S
O673 Co649 2.097 1_565 S
O673 C701 1.214 . S
H674 C702 0.929 . S
H675 C703 0.929 . S
H676 C704 0.930 . S
H677 C705 0.929 . S
H678 C707 0.930 . S
H679 C684 0.930 . S
H680 C688 0.930 . S
O681 Co650 2.037 . S
O681 C701 1.234 . S
C682 O656 1.269 . S
C682 O657 1.257 . S
C683 H658 0.930 . S
C683 C686 1.388 . S
C683 C688 1.418 . S
C684 H679 0.930 . S
C684 C687 1.404 . S
C684 C688 1.353 . S
N685 Co650 2.145 . S
N685 C686 1.397 . S
N685 C687 1.334 . S
C686 H667 0.929 . S
C686 C683 1.388 . S
C686 N685 1.397 . S
C687 H668 0.929 . S
C687 C684 1.404 . S
C687 N685 1.334 . S
C688 H680 0.930 . S
C688 C683 1.418 . S
C688 C684 1.353 . S
C689 H659 0.930 . S
C689 N690 1.330 . S
C689 C691 1.446 . S
N690 Co649 2.151 . S
N690 C689 1.330 . S
N690 C694 1.418 . S
C691 H670 0.929 . S
C691 C689 1.446 . S
C691 C692 1.332 . S
C692 H672 0.931 . S
C692 C691 1.332 . S
C692 C693 1.267 . S
C693 H661 0.929 . S
C693 C692 1.267 . S
C693 C694 1.251 . S
C694 H664 0.929 . S
C694 N690 1.418 . S
C694 C693 1.251 . S
C695 H662 0.930 . S
C695 C697 1.406 . S
C695 C700 1.261 . S
C696 H663 0.930 . S
C696 N698 1.325 . S
C696 C699 1.357 . S
C697 H665 0.928 . S
C697 C695 1.406 . S
C697 N698 1.261 . S
N698 Co649 2.214 . S
N698 C696 1.325 . S
N698 C697 1.261 . S
C699 H669 0.931 . S
C699 C696 1.357 . S
C699 C700 1.312 . S
C700 H671 0.930 . S
C700 C695 1.261 . S
C700 C699 1.312 . S
C701 O673 1.214 . S
C701 O681 1.234 . S
C702 H674 0.929 . S
C702 C705 1.391 . S
C702 C707 1.391 . S
C703 H675 0.929 . S
C703 C704 1.390 . S
C703 N706 1.391 . S
C704 H676 0.930 . S
C704 C703 1.390 . S
C704 C705 1.392 . S
C705 H677 0.929 . S
C705 C702 1.391 . S
C705 C704 1.392 . S
N706 Co650 2.257 . S
N706 C703 1.391 . S
N706 C707 1.388 . S
C707 H678 0.930 . S
C707 C702 1.391 . S
C707 N706 1.388 . S
H708 C714 0.930 . S
H709 C717 0.930 . S
H710 C718 0.930 . S
H711 C719 0.930 . S
H712 C722 0.930 . S
H713 C723 0.930 . S
C714 H708 0.930 . S
C714 C715 1.355 . S
C714 C716 1.415 1_655 S
C715 C714 1.355 . S
C715 C717 1.419 . S
C716 C714 1.415 1_455 S
C716 C721 1.425 1_455 S
C716 C723 1.409 . S
C717 H709 0.930 . S
C717 C715 1.419 . S
C717 C718 1.362 . S
C718 H710 0.930 . S
C718 C717 1.362 . S
C718 C721 1.409 . S
C719 H711 0.930 . S
C719 C720 1.355 . S
C719 C721 1.415 1_455 S
C720 C719 1.355 . S
C720 C722 1.419 . S
C721 C716 1.425 1_655 S
C721 C718 1.409 . S
C721 C719 1.415 1_655 S
C722 H712 0.930 . S
C722 C720 1.419 . S
C722 C723 1.362 . S
C723 H713 0.930 . S
C723 C716 1.409 . S
C723 C722 1.362 . S
H724 C730 0.930 . S
H725 C733 0.930 . S
H726 C734 0.930 . S
H727 C735 0.930 . S
H728 C738 0.930 . S
H729 C739 0.930 . S
C730 H724 0.930 . S
C730 C731 1.355 . S
C730 C732 1.415 1_545 S
C731 C730 1.355 . S
C731 C733 1.419 . S
C732 C730 1.415 1_565 S
C732 C737 1.425 1_565 S
C732 C739 1.409 . S
C733 H725 0.930 . S
C733 C731 1.419 . S
C733 C734 1.362 . S
C734 H726 0.930 . S
C734 C733 1.362 . S
C734 C737 1.409 . S
C735 H727 0.930 . S
C735 C736 1.355 . S
C735 C737 1.415 1_565 S
C736 C735 1.355 . S
C736 C738 1.419 . S
C737 C732 1.425 1_545 S
C737 C734 1.409 . S
C737 C735 1.415 1_545 S
C738 H728 0.930 . S
C738 C736 1.419 . S
C738 C739 1.362 . S
C739 H729 0.930 . S
C739 C732 1.409 . S
C739 C738 1.362 . S
H740 C746 0.930 . S
H741 C749 0.930 . S
H742 C750 0.930 . S
H743 C751 0.930 . S
H744 C754 0.930 . S
H745 C755 0.930 . S
C746 H740 0.930 . S
C746 C747 1.355 . S
C746 C748 1.415 . S
C747 C746 1.355 . S
C747 C749 1.419 . S
C748 C746 1.415 . S
C748 C753 1.425 . S
C748 C755 1.409 . S
C749 H741 0.930 . S
C749 C747 1.419 . S
C749 C750 1.362 . S
C750 H742 0.930 . S
C750 C749 1.362 . S
C750 C753 1.409 . S
C751 H743 0.930 . S
C751 C752 1.355 . S
C751 C753 1.415 . S
C752 C751 1.355 . S
C752 C754 1.419 . S
C753 C748 1.425 . S
C753 C750 1.409 . S
C753 C751 1.415 . S
C754 H744 0.930 . S
C754 C752 1.419 . S
C754 C755 1.362 . S
C755 H745 0.930 . S
C755 C748 1.409 . S
C755 C754 1.362 . S
H756 C762 0.930 . S
H757 C765 0.930 . S
H758 C766 0.930 . S
H759 C767 0.930 . S
H760 C770 0.930 . S
H761 C771 0.930 . S
C762 H756 0.930 . S
C762 C763 1.355 . S
C762 C764 1.415 . S
C763 C762 1.355 . S
C763 C765 1.419 . S
C764 C762 1.415 . S
C764 C769 1.425 1_655 S
C764 C771 1.409 . S
C765 H757 0.930 . S
C765 C763 1.419 . S
C765 C766 1.362 1_655 S
C766 H758 0.930 . S
C766 C765 1.362 1_455 S
C766 C769 1.409 . S
C767 H759 0.930 . S
C767 C768 1.355 . S
C767 C769 1.415 . S
C768 C767 1.355 . S
C768 C770 1.419 . S
C769 C764 1.425 1_455 S
C769 C766 1.409 . S
C769 C767 1.415 . S
C770 H760 0.930 . S
C770 C768 1.419 . S
C770 C771 1.362 1_455 S
C771 H761 0.930 . S
C771 C764 1.409 . S
C771 C770 1.362 1_655 S
H772 C778 0.930 . S
H773 C781 0.930 . S
H774 C782 0.930 . S
H775 C783 0.930 . S
H776 C786 0.930 . S
H777 C787 0.930 . S
C778 H772 0.930 . S
C778 C779 1.355 . S
C778 C780 1.415 . S
C779 C778 1.355 . S
C779 C781 1.419 . S
C780 C778 1.415 . S
C780 C785 1.425 1_545 S
C780 C787 1.409 . S
C781 H773 0.930 . S
C781 C779 1.419 . S
C781 C782 1.362 1_545 S
C782 H774 0.930 . S
C782 C781 1.362 1_565 S
C782 C785 1.409 . S
C783 H775 0.930 . S
C783 C784 1.355 . S
C783 C785 1.415 . S
C784 C783 1.355 . S
C784 C786 1.419 . S
C785 C780 1.425 1_565 S
C785 C782 1.409 . S
C785 C783 1.415 . S
C786 H776 0.930 . S
C786 C784 1.419 . S
C786 C787 1.362 1_565 S
C787 H777 0.930 . S
C787 C780 1.409 . S
C787 C786 1.362 1_545 S
H788 C794 0.930 . S
H789 C797 0.930 . S
H790 C798 0.930 . S
H791 C799 0.930 . S
H792 C802 0.930 . S
H793 C803 0.930 . S
C794 H788 0.930 . S
C794 C795 1.355 . S
C794 C796 1.415 . S
C795 C794 1.355 . S
C795 C797 1.419 . S
C796 C794 1.415 . S
C796 C801 1.425 . S
C796 C803 1.409 . S
C797 H789 0.930 . S
C797 C795 1.419 . S
C797 C798 1.362 . S
C798 H790 0.930 . S
C798 C797 1.362 . S
C798 C801 1.409 . S
C799 H791 0.930 . S
C799 C800 1.355 . S
C799 C801 1.415 . S
C800 C799 1.355 . S
C800 C802 1.419 . S
C801 C796 1.425 . S
C801 C798 1.409 . S
C801 C799 1.415 . S
C802 H792 0.930 . S
C802 C800 1.419 . S
C802 C803 1.362 . S
C803 H793 0.930 . S
C803 C796 1.409 . S
C803 C802 1.362 . S
H804 C810 0.930 . S
H805 C813 0.930 . S
H806 C814 0.930 . S
H807 C815 0.930 . S
H808 C818 0.930 . S
H809 C819 0.930 . S
C810 H804 0.930 . S
C810 C811 1.355 . S
C810 C812 1.415 . S
C811 C810 1.355 . S
C811 C813 1.419 . S
C812 C810 1.415 . S
C812 C817 1.425 . S
C812 C819 1.409 . S
C813 H805 0.930 . S
C813 C811 1.419 . S
C813 C814 1.362 . S
C814 H806 0.930 . S
C814 C813 1.362 . S
C814 C817 1.409 . S
C815 H807 0.930 . S
C815 C816 1.355 . S
C815 C817 1.415 . S
C816 C815 1.355 . S
C816 C818 1.419 . S
C817 C812 1.425 . S
C817 C814 1.409 . S
C817 C815 1.415 . S
C818 H808 0.930 . S
C818 C816 1.419 . S
C818 C819 1.362 . S
C819 H809 0.930 . S
C819 C812 1.409 . S
C819 C818 1.362 . S
H820 C826 0.930 . S
H821 C829 0.930 . S
H822 C830 0.930 . S
H823 C831 0.930 . S
H824 C834 0.930 . S
H825 C835 0.930 . S
C826 H820 0.930 . S
C826 C827 1.355 . S
C826 C828 1.415 . S
C827 C826 1.355 . S
C827 C829 1.419 1_455 S
C828 C826 1.415 . S
C828 C833 1.425 1_455 S
C828 C835 1.409 . S
C829 H821 0.930 . S
C829 C827 1.419 1_655 S
C829 C830 1.362 . S
C830 H822 0.930 . S
C830 C829 1.362 . S
C830 C833 1.409 . S
C831 H823 0.930 . S
C831 C832 1.355 . S
C831 C833 1.415 . S
C832 C831 1.355 . S
C832 C834 1.419 1_655 S
C833 C828 1.425 1_655 S
C833 C830 1.409 . S
C833 C831 1.415 . S
C834 H824 0.930 . S
C834 C832 1.419 1_455 S
C834 C835 1.362 . S
C835 H825 0.930 . S
C835 C828 1.409 . S
C835 C834 1.362 . S
H836 C842 0.930 . S
H837 C845 0.930 . S
H838 C846 0.930 . S
H839 C847 0.930 . S
H840 C850 0.930 . S
H841 C851 0.930 . S
C842 H836 0.930 . S
C842 C843 1.355 1_565 S
C842 C844 1.415 . S
C843 C842 1.355 1_545 S
C843 C845 1.419 . S
C844 C842 1.415 . S
C844 C849 1.425 1_565 S
C844 C851 1.409 . S
C845 H837 0.930 . S
C845 C843 1.419 . S
C845 C846 1.362 . S
C846 H838 0.930 . S
C846 C845 1.362 . S
C846 C849 1.409 . S
C847 H839 0.930 . S
C847 C848 1.355 1_545 S
C847 C849 1.415 . S
C848 C847 1.355 1_565 S
C848 C850 1.419 . S
C849 C844 1.425 1_545 S
C849 C846 1.409 . S
C849 C847 1.415 . S
C850 H840 0.930 . S
C850 C848 1.419 . S
C850 C851 1.362 . S
C851 H841 0.930 . S
C851 C844 1.409 . S
C851 C850 1.362 . S
H852 C858 0.930 . S
H853 C861 0.930 . S
H854 C862 0.930 . S
H855 C863 0.930 . S
H856 C866 0.930 . S
H857 C867 0.930 . S
C858 H852 0.930 . S
C858 C859 1.355 . S
C858 C860 1.415 . S
C859 C858 1.355 . S
C859 C861 1.419 . S
C860 C858 1.415 . S
C860 C865 1.425 . S
C860 C867 1.409 . S
C861 H853 0.930 . S
C861 C859 1.419 . S
C861 C862 1.362 . S
C862 H854 0.930 . S
C862 C861 1.362 . S
C862 C865 1.409 . S
C863 H855 0.930 . S
C863 C864 1.355 . S
C863 C865 1.415 . S
C864 C863 1.355 . S
C864 C866 1.419 . S
C865 C860 1.425 . S
C865 C862 1.409 . S
C865 C863 1.415 . S
C866 H856 0.930 . S
C866 C864 1.419 . S
C866 C867 1.362 . S
C867 H857 0.930 . S
C867 C860 1.409 . S
C867 C866 1.362 . S
H868 C874 0.929 . S
H869 C877 0.930 . S
H870 C878 0.930 . S
H871 C879 0.929 . S
H872 C882 0.930 . S
H873 C883 0.930 . S
C874 H868 0.929 . S
C874 C875 1.345 1_455 S
C874 C876 1.425 . S
C875 C874 1.345 1_655 S
C875 C877 1.419 . S
C876 C874 1.425 . S
C876 C881 1.425 1_455 S
C876 C883 1.409 . S
C877 H869 0.930 . S
C877 C875 1.419 . S
C877 C878 1.362 . S
C878 H870 0.930 . S
C878 C877 1.362 . S
C878 C881 1.409 . S
C879 H871 0.929 . S
C879 C880 1.345 1_655 S
C879 C881 1.426 . S
C880 C879 1.345 1_455 S
C880 C882 1.419 . S
C881 C876 1.425 1_655 S
C881 C878 1.409 . S
C881 C879 1.426 . S
C882 H872 0.930 . S
C882 C880 1.419 . S
C882 C883 1.362 . S
C883 H873 0.930 . S
C883 C876 1.409 . S
C883 C882 1.362 . S
H884 C890 0.930 . S
H885 C893 0.930 . S
H886 C894 0.930 . S
H887 C895 0.930 . S
H888 C898 0.930 . S
H889 C899 0.930 . S
C890 H884 0.930 . S
C890 C891 1.355 . S
C890 C892 1.415 . S
C891 C890 1.355 . S
C891 C893 1.419 1_565 S
C892 C890 1.415 . S
C892 C897 1.425 1_565 S
C892 C899 1.409 . S
C893 H885 0.930 . S
C893 C891 1.419 1_545 S
C893 C894 1.362 . S
C894 H886 0.930 . S
C894 C893 1.362 . S
C894 C897 1.409 . S
C895 H887 0.930 . S
C895 C896 1.355 . S
C895 C897 1.415 . S
C896 C895 1.355 . S
C896 C898 1.419 1_545 S
C897 C892 1.425 1_545 S
C897 C894 1.409 . S
C897 C895 1.415 . S
C898 H888 0.930 . S
C898 C896 1.419 1_565 S
C898 C899 1.362 . S
C899 H889 0.930 . S
C899 C892 1.409 . S
C899 C898 1.362 . S
H900 C906 0.930 . S
H901 C909 0.930 . S
H902 C910 0.930 . S
H903 C911 0.930 . S
H904 C914 0.930 . S
H905 C915 0.930 . S
C906 H900 0.930 . S
C906 C907 1.355 . S
C906 C908 1.415 . S
C907 C906 1.355 . S
C907 C909 1.419 . S
C908 C906 1.415 . S
C908 C913 1.425 . S
C908 C915 1.409 . S
C909 H901 0.930 . S
C909 C907 1.419 . S
C909 C910 1.362 . S
C910 H902 0.930 . S
C910 C909 1.362 . S
C910 C913 1.409 . S
C911 H903 0.930 . S
C911 C912 1.355 . S
C911 C913 1.415 . S
C912 C911 1.355 . S
C912 C914 1.419 . S
C913 C908 1.425 . S
C913 C910 1.409 . S
C913 C911 1.415 . S
C914 H904 0.930 . S
C914 C912 1.419 . S
C914 C915 1.362 . S
C915 H905 0.930 . S
C915 C908 1.409 . S
C915 C914 1.362 . S
H916 C922 0.930 . S
H917 C925 0.930 . S
H918 C926 0.930 . S
H919 C927 0.930 . S
H920 C930 0.930 . S
H921 C931 0.930 . S
C922 H916 0.930 . S
C922 C923 1.355 . S
C922 C924 1.415 . S
C923 C922 1.355 . S
C923 C925 1.419 . S
C924 C922 1.415 . S
C924 C929 1.425 . S
C924 C931 1.409 . S
C925 H917 0.930 . S
C925 C923 1.419 . S
C925 C926 1.362 . S
C926 H918 0.930 . S
C926 C925 1.362 . S
C926 C929 1.409 . S
C927 H919 0.930 . S
C927 C928 1.355 . S
C927 C929 1.415 . S
C928 C927 1.355 . S
C928 C930 1.419 . S
C929 C924 1.425 . S
C929 C926 1.409 . S
C929 C927 1.415 . S
C930 H920 0.930 . S
C930 C928 1.419 . S
C930 C931 1.362 . S
C931 H921 0.930 . S
C931 C924 1.409 . S
C931 C930 1.362 . S
H932 C938 0.930 . S
H933 C941 0.930 . S
H934 C942 0.930 . S
H935 C943 0.930 . S
H936 C946 0.930 . S
H937 C947 0.930 . S
C938 H932 0.930 . S
C938 C939 1.355 . S
C938 C940 1.415 . S
C939 C938 1.355 . S
C939 C941 1.419 . S
C940 C938 1.415 . S
C940 C945 1.425 . S
C940 C947 1.409 . S
C941 H933 0.930 . S
C941 C939 1.419 . S
C941 C942 1.362 . S
C942 H934 0.930 . S
C942 C941 1.362 . S
C942 C945 1.409 . S
C943 H935 0.930 . S
C943 C944 1.355 . S
C943 C945 1.415 . S
C944 C943 1.355 . S
C944 C946 1.419 . S
C945 C940 1.425 . S
C945 C942 1.409 . S
C945 C943 1.415 . S
C946 H936 0.930 . S
C946 C944 1.419 . S
C946 C947 1.362 . S
C947 H937 0.930 . S
C947 C940 1.409 . S
C947 C946 1.362 . S
H948 C954 0.930 . S
H949 C957 0.930 . S
H950 C958 0.930 . S
H951 C959 0.930 . S
H952 C962 0.930 . S
H953 C963 0.930 . S
C954 H948 0.930 . S
C954 C955 1.355 . S
C954 C956 1.415 . S
C955 C954 1.355 . S
C955 C957 1.419 . S
C956 C954 1.415 . S
C956 C961 1.425 . S
C956 C963 1.409 . S
C957 H949 0.930 . S
C957 C955 1.419 . S
C957 C958 1.362 . S
C958 H950 0.930 . S
C958 C957 1.362 . S
C958 C961 1.409 . S
C959 H951 0.930 . S
C959 C960 1.355 . S
C959 C961 1.415 . S
C960 C959 1.355 . S
C960 C962 1.419 . S
C961 C956 1.425 . S
C961 C958 1.409 . S
C961 C959 1.415 . S
C962 H952 0.930 . S
C962 C960 1.419 . S
C962 C963 1.362 . S
C963 H953 0.930 . S
C963 C956 1.409 . S
C963 C962 1.362 . S
H964 C970 0.930 . S
H965 C973 0.930 . S
H966 C974 0.930 . S
H967 C975 0.930 . S
H968 C978 0.930 . S
H969 C979 0.930 . S
C970 H964 0.930 . S
C970 C971 1.355 . S
C970 C972 1.415 . S
C971 C970 1.355 . S
C971 C973 1.419 . S
C972 C970 1.415 . S
C972 C977 1.425 . S
C972 C979 1.409 . S
C973 H965 0.930 . S
C973 C971 1.419 . S
C973 C974 1.362 . S
C974 H966 0.930 . S
C974 C973 1.362 . S
C974 C977 1.409 . S
C975 H967 0.930 . S
C975 C976 1.355 . S
C975 C977 1.415 . S
C976 C975 1.355 . S
C976 C978 1.419 . S
C977 C972 1.425 . S
C977 C974 1.409 . S
C977 C975 1.415 . S
C978 H968 0.930 . S
C978 C976 1.419 . S
C978 C979 1.362 . S
C979 H969 0.930 . S
C979 C972 1.409 . S
C979 C978 1.362 . S
H980 C986 0.930 . S
H981 C989 0.930 . S
H982 C990 0.930 . S
H983 C991 0.930 . S
H984 C994 0.930 . S
H985 C995 0.930 . S
C986 H980 0.930 . S
C986 C987 1.355 . S
C986 C988 1.415 . S
C987 C986 1.355 . S
C987 C989 1.419 . S
C988 C986 1.415 . S
C988 C993 1.425 . S
C988 C995 1.409 . S
C989 H981 0.930 . S
C989 C987 1.419 . S
C989 C990 1.362 . S
C990 H982 0.930 . S
C990 C989 1.362 . S
C990 C993 1.409 . S
C991 H983 0.930 . S
C991 C992 1.355 . S
C991 C993 1.415 . S
C992 C991 1.355 . S
C992 C994 1.419 . S
C993 C988 1.425 . S
C993 C990 1.409 . S
C993 C991 1.415 . S
C994 H984 0.930 . S
C994 C992 1.419 . S
C994 C995 1.362 . S
C995 H985 0.930 . S
C995 C988 1.409 . S
C995 C994 1.362 . S
H996 C1002 0.930 . S
H997 C1005 0.930 . S
H998 C1006 0.930 . S
H999 C1007 0.930 . S
H1000 C1010 0.930 . S
H1001 C1011 0.930 . S
C1002 H996 0.930 . S
C1002 C1003 1.355 . S
C1002 C1004 1.415 . S
C1003 C1002 1.355 . S
C1003 C1005 1.419 . S
C1004 C1002 1.415 . S
C1004 C1009 1.425 . S
C1004 C1011 1.409 . S
C1005 H997 0.930 . S
C1005 C1003 1.419 . S
C1005 C1006 1.362 . S
C1006 H998 0.930 . S
C1006 C1005 1.362 . S
C1006 C1009 1.409 . S
C1007 H999 0.930 . S
C1007 C1008 1.355 . S
C1007 C1009 1.415 . S
C1008 C1007 1.355 . S
C1008 C1010 1.419 . S
C1009 C1004 1.425 . S
C1009 C1006 1.409 . S
C1009 C1007 1.415 . S
C1010 H1000 0.930 . S
C1010 C1008 1.419 . S
C1010 C1011 1.362 . S
C1011 H1001 0.930 . S
C1011 C1004 1.409 . S
C1011 C1010 1.362 . S
H1012 C1018 0.930 . S
H1013 C1021 0.930 . S
H1014 C1022 0.930 . S
H1015 C1023 0.930 . S
H1016 C1026 0.930 . S
H1017 C1027 0.930 . S
C1018 H1012 0.930 . S
C1018 C1019 1.355 . S
C1018 C1020 1.415 1_655 S
C1019 C1018 1.355 . S
C1019 C1021 1.419 . S
C1020 C1018 1.415 1_455 S
C1020 C1025 1.425 1_455 S
C1020 C1027 1.409 . S
C1021 H1013 0.930 . S
C1021 C1019 1.419 . S
C1021 C1022 1.362 . S
C1022 H1014 0.930 . S
C1022 C1021 1.362 . S
C1022 C1025 1.409 . S
C1023 H1015 0.930 . S
C1023 C1024 1.355 . S
C1023 C1025 1.415 1_455 S
C1024 C1023 1.355 . S
C1024 C1026 1.419 . S
C1025 C1020 1.425 1_655 S
C1025 C1022 1.409 . S
C1025 C1023 1.415 1_655 S
C1026 H1016 0.930 . S
C1026 C1024 1.419 . S
C1026 C1027 1.362 . S
C1027 H1017 0.930 . S
C1027 C1020 1.409 . S
C1027 C1026 1.362 . S
H1028 C1034 0.930 . S
H1029 C1037 0.930 . S
H1030 C1038 0.930 1_556 S
H1031 C1039 0.930 . S
H1032 C1042 0.930 . S
H1033 C1043 0.930 1_554 S
C1034 H1028 0.930 . S
C1034 C1035 1.355 1_565 S
C1034 C1036 1.415 . S
C1035 C1034 1.355 1_545 S
C1035 C1037 1.419 . S
C1036 C1034 1.415 . S
C1036 C1041 1.425 1_564 S
C1036 C1043 1.409 1_554 S
C1037 H1029 0.930 . S
C1037 C1035 1.419 . S
C1037 C1038 1.362 . S
C1038 H1030 0.930 1_554 S
C1038 C1037 1.362 . S
C1038 C1041 1.409 1_554 S
C1039 H1031 0.930 . S
C1039 C1040 1.355 1_545 S
C1039 C1041 1.415 . S
C1040 C1039 1.355 1_565 S
C1040 C1042 1.419 . S
C1041 C1036 1.425 1_546 S
C1041 C1038 1.409 1_556 S
C1041 C1039 1.415 . S
C1042 H1032 0.930 . S
C1042 C1040 1.419 . S
C1042 C1043 1.362 . S
C1043 H1033 0.930 1_556 S
C1043 C1036 1.409 1_556 S
C1043 C1042 1.362 . S
H1044 C1050 0.930 . S
H1045 C1053 0.930 . S
H1046 C1054 0.930 . S
H1047 C1055 0.930 . S
H1048 C1058 0.930 . S
H1049 C1059 0.930 . S
C1050 H1044 0.930 . S
C1050 C1051 1.355 . S
C1050 C1052 1.415 . S
C1051 C1050 1.355 . S
C1051 C1053 1.419 . S
C1052 C1050 1.415 . S
C1052 C1057 1.425 . S
C1052 C1059 1.409 . S
C1053 H1045 0.930 . S
C1053 C1051 1.419 . S
C1053 C1054 1.362 . S
C1054 H1046 0.930 . S
C1054 C1053 1.362 . S
C1054 C1057 1.409 . S
C1055 H1047 0.930 . S
C1055 C1056 1.355 . S
C1055 C1057 1.415 . S
C1056 C1055 1.355 . S
C1056 C1058 1.419 . S
C1057 C1052 1.425 . S
C1057 C1054 1.409 . S
C1057 C1055 1.415 . S
C1058 H1048 0.930 . S
C1058 C1056 1.419 . S
C1058 C1059 1.362 . S
C1059 H1049 0.930 . S
C1059 C1052 1.409 . S
C1059 C1058 1.362 . S
H1060 C1066 0.930 . S
H1061 C1069 0.930 . S
H1062 C1070 0.930 . S
H1063 C1071 0.930 . S
H1064 C1074 0.930 . S
H1065 C1075 0.930 . S
C1066 H1060 0.930 . S
C1066 C1067 1.355 . S
C1066 C1068 1.415 1_455 S
C1067 C1066 1.355 . S
C1067 C1069 1.419 . S
C1068 C1066 1.415 1_655 S
C1068 C1073 1.425 1_655 S
C1068 C1075 1.409 . S
C1069 H1061 0.930 . S
C1069 C1067 1.419 . S
C1069 C1070 1.362 . S
C1070 H1062 0.930 . S
C1070 C1069 1.362 . S
C1070 C1073 1.409 . S
C1071 H1063 0.930 . S
C1071 C1072 1.355 . S
C1071 C1073 1.415 1_655 S
C1072 C1071 1.355 . S
C1072 C1074 1.419 . S
C1073 C1068 1.425 1_455 S
C1073 C1070 1.409 . S
C1073 C1071 1.415 1_455 S
C1074 H1064 0.930 . S
C1074 C1072 1.419 . S
C1074 C1075 1.362 . S
C1075 H1065 0.930 . S
C1075 C1068 1.409 . S
C1075 C1074 1.362 . S
H1076 C1082 0.930 . S
H1077 C1085 0.930 . S
H1078 C1086 0.930 . S
H1079 C1087 0.930 . S
H1080 C1090 0.930 . S
H1081 C1091 0.930 . S
C1082 H1076 0.930 . S
C1082 C1083 1.355 . S
C1082 C1084 1.415 . S
C1083 C1082 1.355 . S
C1083 C1085 1.419 1_565 S
C1084 C1082 1.415 . S
C1084 C1089 1.425 1_564 S
C1084 C1091 1.409 1_554 S
C1085 H1077 0.930 . S
C1085 C1083 1.419 1_545 S
C1085 C1086 1.362 . S
C1086 H1078 0.930 . S
C1086 C1085 1.362 . S
C1086 C1089 1.409 1_554 S
C1087 H1079 0.930 . S
C1087 C1088 1.355 . S
C1087 C1089 1.415 . S
C1088 C1087 1.355 . S
C1088 C1090 1.419 1_545 S
C1089 C1084 1.425 1_546 S
C1089 C1086 1.409 1_556 S
C1089 C1087 1.415 . S
C1090 H1080 0.930 . S
C1090 C1088 1.419 1_565 S
C1090 C1091 1.362 . S
C1091 H1081 0.930 . S
C1091 C1084 1.409 1_556 S
C1091 C1090 1.362 . S
C715 C682 1.812 . S
C720 C33 1.826 . S
C731 C92 1.811 . S
C736 C387 1.822 . S
C747 C151 1.856 . S
C752 C446 1.843 . S
C763 C210 1.855 . S
C768 C505 1.841 . S
C779 C564 1.852 . S
C784 C269 1.856 . S
C795 C328 1.837 . S
C800 C623 1.853 . S
C811 C180 1.396 . S
C816 C3 1.389 . S
C827 C239 1.390 . S
C832 C62 1.393 . S
C843 C298 1.414 . S
C848 C121 1.400 . S
C859 C357 1.408 . S
C864 C534 1.417 . S
C875 C416 1.409 . S
C880 C593 1.394 . S
C891 C475 1.389 . S
C896 C652 1.398 . S
C907 C524 0.359 . S
C912 C52 0.368 . S
C923 C111 0.493 . S
C928 C583 0.483 . S
C939 C642 0.345 . S
C944 C170 0.346 . S
C955 C701 0.522 . S
C960 C229 0.517 . S
C971 C406 0.520 . S
C976 C288 0.524 . S
C987 C347 0.529 . S
C992 C465 0.528 . S
C1003 C536 1.653 . S
C1008 C5 1.660 . S
C1019 C64 1.662 . S
C1024 C595 1.668 . S
C1035 C654 1.669 . S
C1040 C123 1.664 . S
C1051 C182 1.630 . S
C1056 C359 1.627 . S
C1067 C241 1.665 . S
C1072 C418 1.671 . S
C1083 C477 1.632 . S
C1088 C300 1.628 . S
