# Generated by pormake.
# Topology sni, (6)-cn, num edge types: 1
# Building blocks:
#     Node 0, Type 0, BuildingBlock: OJICUG_clean_sbu_0, # of connection points: 6
#     Node 1, Type 0, BuildingBlock: OJICUG_clean_sbu_0, # of connection points: 6
#     Node 2, Type 0, BuildingBlock: OJICUG_clean_sbu_0, # of connection points: 6
#     Node 3, Type 0, BuildingBlock: OJICUG_clean_sbu_0, # of connection points: 6
#     Node 4, Type 0, BuildingBlock: OJICUG_clean_sbu_0, # of connection points: 6
#     Node 5, Type 0, BuildingBlock: OJICUG_clean_sbu_0, # of connection points: 6
#     Node 6, Type 0, BuildingBlock: OJICUG_clean_sbu_0, # of connection points: 6
#     Node 7, Type 0, BuildingBlock: OJICUG_clean_sbu_0, # of connection points: 6
#     Edge 8, Type (0, 0), BuildingBlock: XIVTED_clean_linker_0, # of connection points: 2
#     Edge 9, Type (0, 0), BuildingBlock: XIVTED_clean_linker_0, # of connection points: 2
#     Edge 10, Type (0, 0), BuildingBlock: XIVTED_clean_linker_0, # of connection points: 2
#     Edge 11, Type (0, 0), BuildingBlock: XIVTED_clean_linker_0, # of connection points: 2
#     Edge 12, Type (0, 0), BuildingBlock: XIVTED_clean_linker_0, # of connection points: 2
#     Edge 13, Type (0, 0), BuildingBlock: XIVTED_clean_linker_0, # of connection points: 2
#     Edge 14, Type (0, 0), BuildingBlock: XIVTED_clean_linker_0, # of connection points: 2
#     Edge 15, Type (0, 0), BuildingBlock: XIVTED_clean_linker_0, # of connection points: 2
#     Edge 16, Type (0, 0), BuildingBlock: XIVTED_clean_linker_0, # of connection points: 2
#     Edge 17, Type (0, 0), BuildingBlock: XIVTED_clean_linker_0, # of connection points: 2
#     Edge 18, Type (0, 0), BuildingBlock: XIVTED_clean_linker_0, # of connection points: 2
#     Edge 19, Type (0, 0), BuildingBlock: XIVTED_clean_linker_0, # of connection points: 2
#     Edge 20, Type (0, 0), BuildingBlock: XIVTED_clean_linker_0, # of connection points: 2
#     Edge 21, Type (0, 0), BuildingBlock: XIVTED_clean_linker_0, # of connection points: 2
#     Edge 22, Type (0, 0), BuildingBlock: XIVTED_clean_linker_0, # of connection points: 2
#     Edge 23, Type (0, 0), BuildingBlock: XIVTED_clean_linker_0, # of connection points: 2
#     Edge 24, Type (0, 0), BuildingBlock: XIVTED_clean_linker_0, # of connection points: 2
#     Edge 25, Type (0, 0), BuildingBlock: XIVTED_clean_linker_0, # of connection points: 2
#     Edge 26, Type (0, 0), BuildingBlock: XIVTED_clean_linker_0, # of connection points: 2
#     Edge 27, Type (0, 0), BuildingBlock: XIVTED_clean_linker_0, # of connection points: 2
#     Edge 28, Type (0, 0), BuildingBlock: XIVTED_clean_linker_0, # of connection points: 2
#     Edge 29, Type (0, 0), BuildingBlock: XIVTED_clean_linker_0, # of connection points: 2
#     Edge 30, Type (0, 0), BuildingBlock: XIVTED_clean_linker_0, # of connection points: 2
#     Edge 31, Type (0, 0), BuildingBlock: XIVTED_clean_linker_0, # of connection points: 2
# Relax obj value: 0.093
# Max RMSD: 0.105
# Mean RMSD: 0.105
data_MOF--net-sni--node1-OJICUG_clean_sbu_0--edge1-XIVTED_clean_linker_0
_symmetry_space_group_name_H-M    P1
_symmetry_Int_Tables_number       1
_symmetry_cell_setting            triclinic
loop_
_symmetry_equiv_pos_as_xyz
'x, y, z'
_cell_length_a     40.291022
_cell_length_b     40.294571
_cell_length_c     22.450803
_cell_angle_alpha  89.917386
_cell_angle_beta   89.913596
_cell_angle_gamma 89.456256
loop_
_atom_site_label
_atom_site_type_symbol
_atom_site_fract_x
_atom_site_fract_y
_atom_site_fract_z
_atom_type_partial_charge
Sc0 Sc 0.60653 0.10402 -0.00653 0.0
Sc1 Sc 0.68961 0.12568 0.97413 0.0
Sc2 Sc 0.62882 0.18784 0.00157 0.0
O3 O 0.64172 0.13931 -0.01008 0.0
C4 C 0.56547 0.16359 0.93318 0.0
C5 C 0.64862 0.08059 0.88313 0.0
C6 C 0.68001 0.19048 0.894 0.0
C7 C 0.66807 0.06594 0.05412 0.0
C8 C 0.58831 0.14977 0.10314 0.0
C9 C 0.69849 0.18384 0.06785 0.0
O10 O 0.56945 0.13369 0.9496 0.0
O11 O 0.67565 0.09163 0.90438 0.0
O12 O 0.65669 0.20342 0.92464 0.0
O13 O 0.63804 0.06844 0.03761 0.0
O14 O 0.59945 0.17625 0.07956 0.0
O15 O 0.70925 0.15812 0.04127 0.0
O16 O 0.59044 0.1214 0.0786 0.0
O17 O 0.68999 0.08684 0.03971 0.0
O18 O 0.67006 0.19651 0.0584 0.0
O19 O 0.62064 0.08493 0.90824 0.0
O20 O 0.58608 0.18607 0.94531 0.0
O21 O 0.69385 0.16296 0.90696 0.0
Sc22 Sc 0.88327 0.60922 0.94698 0.0
Sc23 Sc 0.86161 0.69066 0.98818 0.0
Sc24 Sc 0.80047 0.62786 0.9844 0.0
O25 O 0.84839 0.64264 0.9732 0.0
C26 C 0.82125 0.58946 0.86684 0.0
C27 C 0.90235 0.67333 0.87133 0.0
C28 C 0.79081 0.69959 0.92685 0.0
C29 C 0.9237 0.65128 0.04157 0.0
C30 C 0.84068 0.56605 0.03715 0.0
C31 C 0.81187 0.67576 0.09526 0.0
O32 O 0.85199 0.59024 0.87873 0.0
O33 O 0.8893 0.69459 0.90612 0.0
O34 O 0.78085 0.67053 0.9389 0.0
O35 O 0.91863 0.62493 0.01218 0.0
O36 O 0.81451 0.58358 0.03163 0.0
O37 O 0.83548 0.69178 0.07148 0.0
O38 O 0.86751 0.57245 0.00989 0.0
O39 O 0.9054 0.67697 0.03702 0.0
O40 O 0.79679 0.65239 0.06906 0.0
O41 O 0.90218 0.64231 0.88105 0.0
O42 O 0.79895 0.60154 0.90072 0.0
O43 O 0.81925 0.71009 0.94158 0.0
Sc44 Sc 0.30203 0.86604 0.00076 0.0
Sc45 Sc 0.36488 0.80605 0.97457 0.0
Sc46 Sc 0.38564 0.88924 -0.00391 0.0
O47 O 0.35074 0.8537 -0.00936 0.0
C48 C 0.32646 0.93019 0.93481 0.0
C49 C 0.3007 0.81522 0.89305 0.0
C50 C 0.41027 0.84836 0.88528 0.0
C51 C 0.30593 0.79616 0.06677 0.0
C52 C 0.33852 0.90583 0.10471 0.0
C53 C 0.42401 0.82745 0.05525 0.0
O54 O 0.30429 0.90882 0.9445 0.0
O55 O 0.32828 0.80161 0.9064 0.0
O56 O 0.40537 0.87621 0.91054 0.0
O57 O 0.2931 0.82453 0.05725 0.0
O58 O 0.36741 0.90387 0.08184 0.0
O59 O 0.4031 0.80556 0.04105 0.0
O60 O 0.31249 0.89517 0.07914 0.0
O61 O 0.33198 0.78574 0.04067 0.0
O62 O 0.42143 0.85753 0.03905 0.0
O63 O 0.28742 0.83835 0.92353 0.0
O64 O 0.356 0.92688 0.9534 0.0
O65 O 0.39936 0.8211 0.90604 0.0
Sc66 Sc 0.10684 0.38413 0.02933 0.0
Sc67 Sc 0.12999 0.30243 -0.0072 0.0
Sc68 Sc 0.19025 0.36608 -0.00434 0.0
O69 O 0.14241 0.35084 0.00574 0.0
C70 C 0.14994 0.42718 0.93996 0.0
C71 C 0.06721 0.3398 0.93722 0.0
C72 C 0.18 0.31712 0.88597 0.0
C73 C 0.08882 0.32097 0.1084 0.0
C74 C 0.16772 0.40502 0.11134 0.0
C75 C 0.20061 0.29503 0.05526 0.0
O76 O 0.1227 0.4204 0.96552 0.0
O77 O 0.08586 0.31449 0.94351 0.0
O78 O 0.19468 0.34093 0.91173 0.0
O79 O 0.08808 0.35173 0.09638 0.0
O80 O 0.19059 0.39259 0.07913 0.0
O81 O 0.17242 0.28407 0.04031 0.0
O82 O 0.13724 0.40437 0.09752 0.0
O83 O 0.10251 0.29929 0.07523 0.0
O84 O 0.21028 0.32407 0.04251 0.0
O85 O 0.07208 0.3669 0.96441 0.0
O86 O 0.17626 0.41009 0.94735 0.0
O87 O 0.15642 0.30101 0.90975 0.0
Sc88 Sc 0.62831 0.80028 0.48677 0.0
Sc89 Sc 0.69158 0.86101 0.48656 0.0
Sc90 Sc 0.60964 0.88303 0.44922 0.0
O91 O 0.64324 0.84805 0.47416 0.0
C92 C 0.58827 0.82076 0.37097 0.0
C93 C 0.69913 0.78984 0.42598 0.0
C94 C 0.67265 0.9014 0.37003 0.0
C95 C 0.67782 0.812 0.59516 0.0
C96 C 0.56762 0.84116 0.5422 0.0
C97 C 0.65349 0.92359 0.54103 0.0
O98 O 0.60082 0.79853 0.40442 0.0
O99 O 0.71001 0.81829 0.43972 0.0
O100 O 0.64179 0.90142 0.38132 0.0
O101 O 0.65397 0.79698 0.57028 0.0
O102 O 0.57381 0.86785 0.51437 0.0
O103 O 0.67899 0.90511 0.53546 0.0
O104 O 0.5848 0.81481 0.5359 0.0
O105 O 0.69378 0.83527 0.57022 0.0
O106 O 0.62667 0.91855 0.51303 0.0
O107 O 0.6702 0.78011 0.43957 0.0
O108 O 0.58934 0.85154 0.38245 0.0
O109 O 0.69439 0.88837 0.40392 0.0
Sc110 Sc 0.18696 0.6277 0.50224 0.0
Sc111 Sc 0.12574 0.68918 0.47494 0.0
Sc112 Sc 0.10284 0.60649 0.49555 0.0
O113 O 0.13864 0.64119 0.4911 0.0
C114 C 0.1616 0.56451 0.43511 0.0
C115 C 0.19014 0.67869 0.39431 0.0
C116 C 0.07982 0.64842 0.38493 0.0
C117 C 0.1844 0.69745 0.56794 0.0
C118 C 0.14852 0.58811 0.60505 0.0
C119 C 0.06591 0.66897 0.55538 0.0
O120 O 0.18416 0.58532 0.44549 0.0
O121 O 0.16264 0.69267 0.40697 0.0
O122 O 0.0841 0.62036 0.40984 0.0
O123 O 0.19639 0.66866 0.55925 0.0
O124 O 0.11996 0.59086 0.58129 0.0
O125 O 0.08742 0.69036 0.54138 0.0
O126 O 0.17505 0.59844 0.58037 0.0
O127 O 0.15896 0.70861 0.54097 0.0
O128 O 0.06766 0.63893 0.5386 0.0
O129 O 0.20292 0.65546 0.42536 0.0
O130 O 0.13194 0.56835 0.45301 0.0
O131 O 0.09104 0.67535 0.40623 0.0
Sc132 Sc 0.36364 0.18905 0.49374 0.0
Sc133 Sc 0.29929 0.12942 0.49567 0.0
Sc134 Sc 0.38177 0.1054 0.52172 0.0
O135 O 0.34811 0.14138 0.5036 0.0
C136 C 0.42108 0.1475 0.42782 0.0
C137 C 0.31149 0.17974 0.38836 0.0
C138 C 0.33251 0.06539 0.43834 0.0
C139 C 0.29434 0.19988 0.5594 0.0
C140 C 0.40989 0.16577 0.59829 0.0
C141 C 0.3226 0.08952 0.61066 0.0
O142 O 0.40654 0.1745 0.4421 0.0
O143 O 0.29538 0.15661 0.41362 0.0
O144 O 0.35988 0.06934 0.46483 0.0
O145 O 0.32297 0.20953 0.54386 0.0
O146 O 0.40881 0.13597 0.58072 0.0
O147 O 0.29956 0.10126 0.57784 0.0
O148 O 0.39253 0.18883 0.57496 0.0
O149 O 0.28301 0.17162 0.54591 0.0
O150 O 0.35312 0.08965 0.59638 0.0
O151 O 0.33643 0.19377 0.41185 0.0
O152 O 0.41311 0.1195 0.44931 0.0
O153 O 0.30841 0.08562 0.44349 0.0
Sc154 Sc 0.80627 0.36571 0.47271 0.0
Sc155 Sc 0.8664 0.30344 0.5018 0.0
Sc156 Sc 0.88963 0.38684 0.49041 0.0
O157 O 0.85402 0.35188 0.48851 0.0
C158 C 0.84779 0.40927 0.37949 0.0
C159 C 0.81484 0.30003 0.39517 0.0
C160 C 0.92977 0.32629 0.43167 0.0
C161 C 0.79705 0.30868 0.56906 0.0
C162 C 0.82833 0.42616 0.5495 0.0
C163 C 0.90726 0.34229 0.60184 0.0
O164 O 0.82066 0.39904 0.40189 0.0
O165 O 0.8379 0.28712 0.42638 0.0
O166 O 0.92682 0.35623 0.44841 0.0
O167 O 0.78632 0.33394 0.54092 0.0
O168 O 0.85825 0.42347 0.53224 0.0
O169 O 0.89635 0.31566 0.57861 0.0
O170 O 0.80639 0.40495 0.53713 0.0
O171 O 0.8255 0.29589 0.56027 0.0
O172 O 0.90511 0.37056 0.57675 0.0
O173 O 0.80154 0.32799 0.40678 0.0
O174 O 0.87584 0.40467 0.4041 0.0
O175 O 0.90851 0.3044 0.44383 0.0
H176 H 0.46169 0.09641 0.39279 0.0
H177 H 0.56113 0.20511 0.15606 0.0
H178 H 0.44447 0.20147 0.36661 0.0
H179 H 0.57325 0.0992 0.17877 0.0
H180 H 0.52372 0.20605 0.24201 0.0
H181 H 0.50729 0.09865 0.32204 0.0
C182 C 0.46745 0.11999 0.37216 0.0
C183 C 0.44896 0.14874 0.38525 0.0
C184 C 0.53487 0.1827 0.22844 0.0
C185 C 0.50136 0.15147 0.30413 0.0
C186 C 0.55634 0.18216 0.17962 0.0
C187 C 0.56985 0.15194 0.15968 0.0
C188 C 0.52706 0.15282 0.25732 0.0
C189 C 0.5629 0.12298 0.19193 0.0
C190 C 0.49363 0.12127 0.33187 0.0
C191 C 0.45789 0.17863 0.35754 0.0
N192 N 0.54175 0.12411 0.2388 0.0
N193 N 0.48338 0.17918 0.31794 0.0
H194 H 0.78737 0.54037 0.09675 0.0
H195 H 0.90001 0.42902 0.31032 0.0
H196 H 0.89339 0.52822 0.07513 0.0
H197 H 0.79288 0.43211 0.31961 0.0
H198 H 0.89769 0.46279 0.22036 0.0
H199 H 0.78842 0.49801 0.17434 0.0
C200 C 0.81084 0.52863 0.10794 0.0
C201 C 0.8404 0.53815 0.0798 0.0
C202 C 0.87468 0.45589 0.24183 0.0
C203 C 0.84176 0.48977 0.16883 0.0
C204 C 0.87597 0.43669 0.29338 0.0
C205 C 0.8466 0.42802 0.32302 0.0
C206 C 0.84382 0.46673 0.21996 0.0
C207 C 0.81618 0.43837 0.29852 0.0
C208 C 0.8114 0.5044 0.15223 0.0
C209 C 0.87001 0.52184 0.09582 0.0
N210 N 0.8156 0.45745 0.24866 0.0
N211 N 0.86997 0.49868 0.13972 0.0
H212 H 0.54482 0.76966 0.35297 0.0
H213 H 0.48499 0.85481 0.05157 0.0
H214 H 0.59326 0.85097 0.26438 0.0
H215 H 0.42902 0.77847 0.1403 0.0
H216 H 0.53127 0.84397 0.11813 0.0
H217 H 0.50884 0.7629 0.26535 0.0
C218 C 0.54838 0.78545 0.31444 0.0
C219 C 0.57143 0.81127 0.31582 0.0
C220 C 0.50904 0.82932 0.12302 0.0
C221 C 0.53082 0.80389 0.21659 0.0
C222 C 0.48254 0.83563 0.08513 0.0
C223 C 0.45296 0.81803 0.09152 0.0
C224 C 0.50576 0.8057 0.16864 0.0
C225 C 0.45138 0.79284 0.1346 0.0
C226 C 0.52783 0.78173 0.26474 0.0
C227 C 0.57527 0.83116 0.26522 0.0
N228 N 0.47727 0.78781 0.17252 0.0
N229 N 0.55494 0.82727 0.21795 0.0
H230 H 0.22104 0.44425 0.13868 0.0
H231 H 0.12853 0.50601 0.43188 0.0
H232 H 0.13259 0.40117 0.2131 0.0
H233 H 0.21324 0.55595 0.35678 0.0
H234 H 0.13808 0.45999 0.36394 0.0
H235 H 0.22695 0.47784 0.22946 0.0
C236 C 0.20338 0.44136 0.1747 0.0
C237 C 0.17592 0.42061 0.16833 0.0
C238 C 0.15484 0.48084 0.36253 0.0
C239 C 0.18237 0.45846 0.27117 0.0
C240 C 0.14928 0.50718 0.40121 0.0
C241 C 0.16967 0.5351 0.39895 0.0
C242 C 0.1806 0.48266 0.32043 0.0
C243 C 0.19668 0.53499 0.35936 0.0
C244 C 0.20665 0.46052 0.22624 0.0
C245 C 0.15371 0.41748 0.21598 0.0
N246 N 0.20104 0.50938 0.32074 0.0
N247 N 0.15723 0.43648 0.26508 0.0
H248 H 0.54186 0.7881 0.60237 0.0
H249 H 0.4327 0.90101 0.8197 0.0
H250 H 0.53141 0.89439 0.58288 0.0
H251 H 0.4328 0.79378 0.8242 0.0
H252 H 0.46743 0.89896 0.73078 0.0
H253 H 0.50026 0.78949 0.68127 0.0
C254 C 0.53067 0.81171 0.61435 0.0
C255 C 0.54038 0.84122 0.58625 0.0
C256 C 0.45968 0.87588 0.75102 0.0
C257 C 0.49286 0.84297 0.67683 0.0
C258 C 0.43993 0.87702 0.80196 0.0
C259 C 0.43004 0.84751 0.82986 0.0
C260 C 0.46982 0.84504 0.728 0.0
C261 C 0.43995 0.81717 0.80445 0.0
C262 C 0.50688 0.81247 0.65939 0.0
C263 C 0.52481 0.87104 0.6034 0.0
N264 N 0.4595 0.81674 0.75519 0.0
N265 N 0.50203 0.87118 0.64798 0.0
H266 H 0.09891 0.4692 0.90921 0.0
H267 H 0.20428 0.56337 0.66031 0.0
H268 H 0.20308 0.45024 0.87614 0.0
H269 H 0.09794 0.57246 0.68079 0.0
H270 H 0.20613 0.5286 0.74961 0.0
H271 H 0.10007 0.51359 0.83552 0.0
C272 C 0.1221 0.47445 0.88676 0.0
C273 C 0.15085 0.45563 0.89842 0.0
C274 C 0.18246 0.53847 0.73475 0.0
C275 C 0.15229 0.50647 0.81387 0.0
C276 C 0.18139 0.5584 0.68391 0.0
C277 C 0.15084 0.57041 0.66251 0.0
C278 C 0.1528 0.53065 0.76435 0.0
C279 C 0.12199 0.5633 0.69506 0.0
C280 C 0.12273 0.49984 0.84466 0.0
C281 C 0.18022 0.46384 0.86821 0.0
N282 N 0.12367 0.54368 0.74406 0.0
N283 N 0.18011 0.48851 0.82697 0.0
H284 H 0.46033 0.1265 0.63548 0.0
H285 H 0.55272 0.22131 0.87069 0.0
H286 H 0.41144 0.21996 0.67489 0.0
H287 H 0.51297 0.12414 0.90756 0.0
H288 H 0.51071 0.22868 0.79218 0.0
H289 H 0.4935 0.13232 0.72435 0.0
C290 C 0.45653 0.14838 0.66274 0.0
C291 C 0.43242 0.17244 0.64843 0.0
C292 C 0.51083 0.20629 0.81894 0.0
C293 C 0.47086 0.17913 0.75015 0.0
C294 C 0.5348 0.20189 0.86331 0.0
C295 C 0.53695 0.17161 0.89449 0.0
C296 C 0.48945 0.18013 0.80595 0.0
C297 C 0.51288 0.14749 0.88364 0.0
C298 C 0.47551 0.15156 0.71344 0.0
C299 C 0.42953 0.20071 0.68482 0.0
N300 N 0.49061 0.15198 0.83932 0.0
N301 N 0.44859 0.20332 0.73477 0.0
H302 H 0.76967 0.54692 0.8465 0.0
H303 H 0.85721 0.48662 0.54762 0.0
H304 H 0.85233 0.59481 0.76102 0.0
H305 H 0.77855 0.4321 0.63276 0.0
H306 H 0.84654 0.53291 0.61431 0.0
H307 H 0.76331 0.51143 0.75819 0.0
C308 C 0.78584 0.5505 0.80849 0.0
C309 C 0.81191 0.57322 0.811 0.0
C310 C 0.83134 0.51099 0.61833 0.0
C311 C 0.80503 0.53309 0.71099 0.0
C312 C 0.83756 0.48448 0.58037 0.0
C313 C 0.81923 0.45528 0.5857 0.0
C314 C 0.80705 0.50811 0.66291 0.0
C315 C 0.79349 0.45413 0.62782 0.0
C316 C 0.78236 0.53021 0.75839 0.0
C317 C 0.8323 0.57706 0.76101 0.0
N318 N 0.78853 0.48001 0.66575 0.0
N319 N 0.82865 0.55694 0.71335 0.0
H320 H 0.89141 0.64972 0.76126 0.0
H321 H 0.06183 0.71979 0.63688 0.0
H322 H 0.95008 0.72066 0.85731 0.0
H323 H 0.00514 0.64079 0.55828 0.0
H324 H 0.01566 0.7308 0.70597 0.0
H325 H 0.92613 0.65793 0.67376 0.0
C326 C 0.91136 0.66755 0.76327 0.0
C327 C 0.91837 0.68424 0.81626 0.0
C328 C 0.01324 0.71141 0.67295 0.0
C329 C 0.95896 0.69295 0.71736 0.0
C330 C 0.03951 0.70512 0.63364 0.0
C331 C 0.03749 0.67886 0.59284 0.0
C332 C 0.98485 0.69147 0.67069 0.0
C333 C 0.00804 0.66076 0.59002 0.0
C334 C 0.93126 0.67218 0.71351 0.0
C335 C 0.94416 0.7073 0.81694 0.0
N336 N 0.98304 0.66724 0.62872 0.0
N337 N 0.96416 0.71048 0.76839 0.0
H338 H 0.35622 0.09703 0.71333 0.0
H339 H 0.27273 0.93971 0.86144 0.0
H340 H 0.27077 0.04871 0.63886 0.0
H341 H 0.36117 0.98766 0.92553 0.0
H342 H 0.26375 0.98594 0.79229 0.0
H343 H 0.34971 0.06483 0.80422 0.0
C344 C 0.33576 0.07984 0.71668 0.0
C345 C 0.31437 0.07487 0.66852 0.0
C346 C 0.28482 0.98651 0.82215 0.0
C347 C 0.30719 0.03732 0.77162 0.0
C348 C 0.28998 0.96016 0.86158 0.0
C349 C 0.31817 0.95952 0.8983 0.0
C350 C 0.30796 0.01231 0.81977 0.0
C351 C 0.33953 0.98675 0.89707 0.0
C352 C 0.33203 0.06146 0.7685 0.0
C353 C 0.28789 0.0529 0.67514 0.0
N354 N 0.33415 0.01183 0.85798 0.0
N355 N 0.28544 0.03426 0.72549 0.0
H356 H 0.92035 0.39305 0.67822 0.0
H357 H 0.0464 0.2859 0.87327 0.0
H358 H 0.93409 0.28732 0.6564 0.0
H359 H 0.02384 0.38942 0.90545 0.0
H360 H 0.0023 0.28464 0.799 0.0
H361 H 0.9547 0.39089 0.76716 0.0
C362 C 0.93044 0.36931 0.69238 0.0
C363 C 0.92478 0.34039 0.65934 0.0
C364 C 0.00683 0.30753 0.82273 0.0
C365 C 0.96435 0.33779 0.76106 0.0
C366 C 0.03208 0.30832 0.86504 0.0
C367 C 0.03915 0.33794 0.89518 0.0
C368 C 0.98867 0.3366 0.81022 0.0
C369 C 0.01953 0.3661 0.883 0.0
C370 C 0.95 0.36808 0.74331 0.0
C371 C 0.93801 0.31025 0.68035 0.0
N372 N 0.99539 0.36479 0.84109 0.0
N373 N 0.95759 0.30979 0.72954 0.0
H374 H 0.5964 0.0613 0.81413 0.0
H375 H 0.70706 0.94614 0.60377 0.0
H376 H 0.7034 0.05608 0.82467 0.0
H377 H 0.60206 0.96351 0.5777 0.0
H378 H 0.7068 0.98808 0.68202 0.0
H379 H 0.59845 0.02701 0.72502 0.0
C380 C 0.62036 0.05302 0.79765 0.0
C381 C 0.64977 0.06131 0.82733 0.0
C382 C 0.6839 0.98291 0.65877 0.0
C383 C 0.65225 0.02198 0.72519 0.0
C384 C 0.68399 0.95892 0.61412 0.0
C385 C 0.65446 0.95103 0.58446 0.0
C386 C 0.65401 -0.00109 0.67418 0.0
C387 C 0.6254 0.96861 0.59952 0.0
C388 C 0.62151 0.03354 0.74656 0.0
C389 C 0.68009 0.05017 0.80344 0.0
N390 N 0.62586 0.9915 0.64372 0.0
N391 N 0.68053 0.03081 0.754 0.0
H392 H 0.10051 0.34804 0.21541 0.0
H393 H 0.9366 0.27291 0.35673 0.0
H394 H 0.04316 0.27225 0.12933 0.0
H395 H 0.98856 0.35865 0.42228 0.0
H396 H 0.98225 0.26242 0.28678 0.0
H397 H 0.06769 0.34101 0.30559 0.0
C398 C 0.08125 0.32947 0.21614 0.0
C399 C 0.07397 0.31106 0.16511 0.0
C400 C 0.9838 0.2832 0.31714 0.0
C401 C 0.03569 0.30347 0.26718 0.0
C402 C 0.95782 0.28921 0.35704 0.0
C403 C 0.95855 0.3171 0.39447 0.0
C404 C 0.01066 0.3051 0.31523 0.0
C405 C 0.98665 0.33728 0.39334 0.0
C406 C 0.06247 0.32548 0.26745 0.0
C407 C 0.04922 0.28698 0.16805 0.0
N408 N 0.01142 0.33103 0.35399 0.0
N409 N 0.03033 0.28432 0.2181 0.0
H410 H 0.64627 0.89194 0.26148 0.0
H411 H 0.71977 0.06022 0.13363 0.0
H412 H 0.7211 0.94778 0.3534 0.0
H413 H 0.63758 0.00633 0.05923 0.0
H414 H 0.73015 0.01378 0.20245 0.0
H415 H 0.65367 0.92688 0.17406 0.0
C416 C 0.66475 0.91131 0.26259 0.0
C417 C 0.68281 0.91746 0.31448 0.0
C418 C 0.71017 0.01204 0.17043 0.0
C419 C 0.69067 0.95832 0.21565 0.0
C420 C 0.70424 0.03847 0.13126 0.0
C421 C 0.67734 0.03733 0.09167 0.0
C422 C 0.68922 0.98437 0.16923 0.0
C423 C 0.65811 0.00856 0.09 0.0
C424 C 0.66892 0.93134 0.21286 0.0
C425 C 0.70668 0.94252 0.31393 0.0
N426 N 0.66428 0.9834 0.1285 0.0
N427 N 0.70946 0.96266 0.26549 0.0
H428 H 0.96311 0.59907 0.07662 0.0
H429 H 0.05745 0.70365 0.32532 0.0
H430 H 0.94662 0.7039 0.10626 0.0
H431 H 0.05832 0.59649 0.31715 0.0
H432 H 0.02331 0.70519 0.23565 0.0
H433 H 0.00488 0.59898 0.15506 0.0
C434 C 0.96844 0.62214 0.0992 0.0
C435 C 0.95105 0.65148 0.08521 0.0
C436 C 0.0311 0.68137 0.25343 0.0
C437 C -0.00123 0.65145 0.17514 0.0
C438 C 0.05062 0.68044 0.30458 0.0
C439 C 0.06048 0.64987 0.32921 0.0
C440 C 0.02153 0.65153 0.22658 0.0
C441 C 0.051 0.62063 0.30018 0.0
C442 C 0.99223 0.62203 0.14412 0.0
C443 C 0.95914 0.68063 0.11592 0.0
N444 N 0.03195 0.62219 0.25049 0.0
N445 N 0.98231 0.67983 0.1597 0.0
H446 H 0.38663 0.91617 0.18762 0.0
H447 H 0.27991 0.049 0.36658 0.0
H448 H 0.28262 0.93428 0.15293 0.0
H449 H 0.37824 0.01627 0.41806 0.0
H450 H 0.27839 0.00438 0.29296 0.0
H451 H 0.38225 0.94982 0.2772 0.0
C452 C 0.36278 0.92705 0.19914 0.0
C453 C 0.33506 0.92285 0.16239 0.0
C454 C 0.3001 0.00679 0.32093 0.0
C455 C 0.3299 0.96165 0.26466 0.0
C456 C 0.30102 0.03229 0.36287 0.0
C457 C 0.32946 0.03675 0.39789 0.0
C458 C 0.32788 0.98585 0.31387 0.0
C459 C 0.35596 0.01416 0.3915 0.0
C460 C 0.36025 0.94618 0.25043 0.0
C461 C 0.30465 0.93708 0.17991 0.0
N462 N 0.35465 0.98994 0.34985 0.0
N463 N 0.30298 0.95631 0.22946 0.0
H464 H 0.82511 0.23456 0.36415 0.0
H465 H 0.69606 0.2488 0.09715 0.0
H466 H 0.77728 0.32529 0.30544 0.0
H467 H 0.74976 0.15793 0.13479 0.0
H468 H 0.72872 0.27711 0.17132 0.0
H469 H 0.80099 0.20577 0.27841 0.0
C470 C 0.80977 0.24843 0.33313 0.0
C471 C 0.80269 0.28222 0.34248 0.0
C472 C 0.73363 0.25101 0.16346 0.0
C473 C 0.77538 0.24969 0.24496 0.0
C474 C 0.71482 0.23478 0.12122 0.0
C475 C 0.71995 0.2009 0.11052 0.0
C476 C 0.75758 0.23323 0.19606 0.0
C477 C 0.74501 0.1841 0.14212 0.0
C478 C 0.79609 0.23203 0.28431 0.0
C479 C 0.78291 0.2991 0.30079 0.0
N480 N 0.76276 0.20041 0.18424 0.0
N481 N 0.76985 0.2826 0.25419 0.0
H482 H 0.76021 0.65048 0.16017 0.0
H483 H 0.76335 0.80003 0.39074 0.0
H484 H 0.83702 0.72455 0.16643 0.0
H485 H 0.68371 0.72924 0.37876 0.0
H486 H 0.79565 0.76653 0.32109 0.0
H487 H 0.73715 0.67282 0.25234 0.0
C488 C 0.77245 0.67122 0.18116 0.0
C489 C 0.80018 0.68614 0.15475 0.0
C490 C 0.77125 0.75815 0.33419 0.0
C491 C 0.77382 0.71182 0.26013 0.0
C492 C 0.75273 0.7773 0.37392 0.0
C493 C 0.72047 0.7678 0.38971 0.0
C494 C 0.75733 0.72942 0.30978 0.0
C495 C 0.70828 0.73781 0.36719 0.0
C496 C 0.75926 0.68394 0.23385 0.0
C497 C 0.81525 0.71262 0.18453 0.0
N498 N 0.72657 0.7199 0.32772 0.0
N499 N 0.80162 0.72488 0.23525 0.0
H500 H 0.24086 0.79825 0.09626 0.0
H501 H 0.25547 0.66826 0.36224 0.0
H502 H 0.33182 0.74452 0.13295 0.0
H503 H 0.16446 0.71565 0.30407 0.0
H504 H 0.28408 0.69251 0.27614 0.0
H505 H 0.21254 0.76501 0.16998 0.0
C506 C 0.2549 0.77936 0.11999 0.0
C507 C 0.28882 0.77439 0.10915 0.0
C508 C 0.25779 0.69726 0.28218 0.0
C509 C 0.25646 0.7361 0.19417 0.0
C510 C 0.24148 0.68348 0.3312 0.0
C511 C 0.20769 0.69046 0.34087 0.0
C512 C 0.24003 0.71798 0.24297 0.0
C513 C 0.19067 0.71012 0.29917 0.0
C514 C 0.23865 0.76022 0.16197 0.0
C515 C 0.30563 0.74916 0.14036 0.0
N516 N 0.20708 0.72331 0.2524 0.0
N517 N 0.28931 0.73109 0.18222 0.0
H518 H 0.26125 0.15492 0.32003 0.0
H519 H 0.26251 0.30901 0.09845 0.0
H520 H 0.33541 0.23173 0.32283 0.0
H521 H 0.18803 0.23252 0.09695 0.0
H522 H 0.29443 0.27643 0.17011 0.0
H523 H 0.23903 0.17848 0.22833 0.0
C524 C 0.27303 0.17661 0.30122 0.0
C525 C 0.29986 0.19175 0.32986 0.0
C526 C 0.27128 0.26662 0.15359 0.0
C527 C 0.27447 0.21883 0.22487 0.0
C528 C 0.253 0.28522 0.11266 0.0
C529 C 0.22221 0.27379 0.09249 0.0
C530 C 0.25857 0.23649 0.17469 0.0
C531 C 0.21139 0.24258 0.11191 0.0
C532 C 0.26036 0.19 0.24871 0.0
C533 C 0.3144 0.21948 0.30281 0.0
N534 N 0.22937 0.2252 0.15253 0.0
N535 N 0.30126 0.23237 0.25216 0.0
H536 H 0.24886 0.69264 0.60054 0.0
H537 H 0.2362 0.82718 0.85833 0.0
H538 H 0.15995 0.75102 0.63053 0.0
H539 H 0.32626 0.77587 0.80584 0.0
H540 H 0.20782 0.80265 0.77276 0.0
H541 H 0.27767 0.72571 0.67353 0.0
C542 C 0.23536 0.71249 0.62266 0.0
C543 C 0.20186 0.71886 0.61016 0.0
C544 C 0.23386 0.79708 0.7799 0.0
C545 C 0.23479 0.75698 0.69419 0.0
C546 C 0.25005 0.81101 0.82864 0.0
C547 C 0.28348 0.80306 0.83978 0.0
C548 C 0.25135 0.7752 0.74243 0.0
C549 C 0.30031 0.78221 0.79975 0.0
C550 C 0.25191 0.73154 0.66418 0.0
C551 C 0.18579 0.74528 0.63928 0.0
N552 N 0.28399 0.76886 0.75319 0.0
N553 N 0.20237 0.76326 0.68069 0.0
H554 H 0.22998 0.19075 0.59407 0.0
H555 H 0.23299 0.34116 0.82304 0.0
H556 H 0.31119 0.25954 0.60898 0.0
H557 H 0.15508 0.2683 0.81467 0.0
H558 H 0.25718 0.31766 0.73272 0.0
H559 H 0.19783 0.2248 0.66292 0.0
C560 C 0.24102 0.21312 0.61151 0.0
C561 C 0.27359 0.22197 0.59656 0.0
C562 C 0.2346 0.30707 0.75034 0.0
C563 C 0.23685 0.26104 0.67554 0.0
C564 C 0.22074 0.32047 0.80193 0.0
C565 C 0.19234 0.30622 0.82725 0.0
C566 C 0.22 0.27922 0.72406 0.0
C567 C 0.17732 0.27973 0.79742 0.0
C568 C 0.22257 0.23261 0.65074 0.0
C569 C 0.28633 0.25154 0.61982 0.0
N570 N 0.19158 0.26684 0.74777 0.0
N571 N 0.26804 0.26983 0.65877 0.0
H572 H 0.74329 0.3346 0.62986 0.0
H573 H 0.71518 0.1638 0.80251 0.0
H574 H 0.80137 0.2449 0.60617 0.0
H575 H 0.67147 0.25616 0.86287 0.0
H576 H 0.7388 0.19254 0.71795 0.0
H577 H 0.70947 0.30561 0.70466 0.0
C578 C 0.74878 0.30885 0.64014 0.0
C579 C 0.77537 0.2922 0.61246 0.0
C580 C 0.72402 0.20663 0.74954 0.0
C581 C 0.73693 0.25916 0.69654 0.0
C582 C 0.71056 0.19022 0.798 0.0
C583 C 0.69192 0.20778 0.84046 0.0
C584 C 0.71912 0.24097 0.74348 0.0
C585 C 0.68603 0.24182 0.83138 0.0
C586 C 0.72958 0.29242 0.6827 0.0
C587 C 0.78146 0.25889 0.62707 0.0
N588 N 0.69997 0.25751 0.78399 0.0
N589 N 0.76243 0.24355 0.66809 0.0
H590 H 0.65111 0.76266 0.66377 0.0
H591 H 0.8029 0.76314 0.88964 0.0
H592 H 0.72879 0.83592 0.66277 0.0
H593 H 0.72917 0.68602 0.88229 0.0
H594 H 0.76998 0.79587 0.81971 0.0
H595 H 0.67337 0.74029 0.75646 0.0
C596 C 0.67267 0.77425 0.68323 0.0
C597 C 0.68856 0.80075 0.65468 0.0
C598 C 0.76084 0.77194 0.83393 0.0
C599 C 0.71413 0.7752 0.76072 0.0
C600 C 0.77964 0.75319 0.87385 0.0
C601 C 0.76915 0.72144 0.8909 0.0
C602 C 0.73146 0.75878 0.8107 0.0
C603 C 0.73854 0.71012 0.86965 0.0
C604 C 0.68533 0.76148 0.73625 0.0
C605 C 0.71607 0.81509 0.68259 0.0
N606 N 0.72097 0.72861 0.83001 0.0
N607 N 0.72824 0.80184 0.73372 0.0
loop_
_geom_bond_atom_site_label_1
_geom_bond_atom_site_label_2
_geom_bond_distance
_geom_bond_site_symmetry_2
_ccdc_geom_bond_type
Sc0 O3 2.025 . S
Sc0 O10 2.105 1_554 S
Sc0 O13 2.105 . S
Sc0 O16 2.105 . S
Sc0 O19 2.105 1_554 S
Sc1 O3 2.025 . S
Sc1 O11 2.105 1_554 S
Sc1 O15 2.105 . S
Sc1 O17 2.105 . S
Sc1 O21 2.105 1_554 S
Sc2 O3 2.025 . S
Sc2 O12 2.105 1_554 S
Sc2 O14 2.105 . S
Sc2 O18 2.105 . S
Sc2 O20 2.105 1_554 S
O3 Sc0 2.025 . S
O3 Sc1 2.025 . S
O3 Sc2 2.025 . S
C4 O10 1.268 . S
C4 O20 1.268 . S
C5 O11 1.268 . S
C5 O19 1.268 . S
C6 O12 1.268 . S
C6 O21 1.268 . S
C7 O13 1.268 . S
C7 O17 1.268 . S
C8 O14 1.268 . S
C8 O16 1.268 . S
C9 O15 1.268 . S
C9 O18 1.268 . S
O10 Sc0 2.105 1_556 S
O10 C4 1.268 . S
O11 Sc1 2.105 1_556 S
O11 C5 1.268 . S
O12 Sc2 2.105 1_556 S
O12 C6 1.268 . S
O13 Sc0 2.105 . S
O13 C7 1.268 . S
O14 Sc2 2.105 . S
O14 C8 1.268 . S
O15 Sc1 2.105 . S
O15 C9 1.268 . S
O16 Sc0 2.105 . S
O16 C8 1.268 . S
O17 Sc1 2.105 . S
O17 C7 1.268 . S
O18 Sc2 2.105 . S
O18 C9 1.268 . S
O19 Sc0 2.105 1_556 S
O19 C5 1.268 . S
O20 Sc2 2.105 1_556 S
O20 C4 1.268 . S
O21 Sc1 2.105 1_556 S
O21 C6 1.268 . S
Sc22 O25 2.025 . S
Sc22 O32 2.105 1_554 S
Sc22 O35 2.105 . S
Sc22 O38 2.105 . S
Sc22 O41 2.105 1_554 S
Sc23 O25 2.025 . S
Sc23 O33 2.105 1_554 S
Sc23 O37 2.105 . S
Sc23 O39 2.105 . S
Sc23 O43 2.105 1_554 S
Sc24 O25 2.025 . S
Sc24 O34 2.105 1_554 S
Sc24 O36 2.105 . S
Sc24 O40 2.105 . S
Sc24 O42 2.105 1_554 S
O25 Sc22 2.025 . S
O25 Sc23 2.025 . S
O25 Sc24 2.025 . S
C26 O32 1.268 . S
C26 O42 1.268 . S
C27 O33 1.268 . S
C27 O41 1.268 . S
C28 O34 1.268 . S
C28 O43 1.268 . S
C29 O35 1.268 . S
C29 O39 1.268 . S
C30 O36 1.268 . S
C30 O38 1.268 . S
C31 O37 1.268 . S
C31 O40 1.268 . S
O32 Sc22 2.105 1_556 S
O32 C26 1.268 . S
O33 Sc23 2.105 1_556 S
O33 C27 1.268 . S
O34 Sc24 2.105 1_556 S
O34 C28 1.268 . S
O35 Sc22 2.105 . S
O35 C29 1.268 . S
O36 Sc24 2.105 . S
O36 C30 1.268 . S
O37 Sc23 2.105 . S
O37 C31 1.268 . S
O38 Sc22 2.105 . S
O38 C30 1.268 . S
O39 Sc23 2.105 . S
O39 C29 1.268 . S
O40 Sc24 2.105 . S
O40 C31 1.268 . S
O41 Sc22 2.105 1_556 S
O41 C27 1.268 . S
O42 Sc24 2.105 1_556 S
O42 C26 1.268 . S
O43 Sc23 2.105 1_556 S
O43 C28 1.268 . S
Sc44 O47 2.025 . S
Sc44 O54 2.105 1_554 S
Sc44 O57 2.105 . S
Sc44 O60 2.105 . S
Sc44 O63 2.105 1_554 S
Sc45 O47 2.025 . S
Sc45 O55 2.105 1_554 S
Sc45 O59 2.105 . S
Sc45 O61 2.105 . S
Sc45 O65 2.105 1_554 S
Sc46 O47 2.025 . S
Sc46 O56 2.105 1_554 S
Sc46 O58 2.105 . S
Sc46 O62 2.105 . S
Sc46 O64 2.105 1_554 S
O47 Sc44 2.025 . S
O47 Sc45 2.025 . S
O47 Sc46 2.025 . S
C48 O54 1.268 . S
C48 O64 1.268 . S
C49 O55 1.268 . S
C49 O63 1.268 . S
C50 O56 1.268 . S
C50 O65 1.268 . S
C51 O57 1.268 . S
C51 O61 1.268 . S
C52 O58 1.268 . S
C52 O60 1.268 . S
C53 O59 1.268 . S
C53 O62 1.268 . S
O54 Sc44 2.105 1_556 S
O54 C48 1.268 . S
O55 Sc45 2.105 1_556 S
O55 C49 1.268 . S
O56 Sc46 2.105 1_556 S
O56 C50 1.268 . S
O57 Sc44 2.105 . S
O57 C51 1.268 . S
O58 Sc46 2.105 . S
O58 C52 1.268 . S
O59 Sc45 2.105 . S
O59 C53 1.268 . S
O60 Sc44 2.105 . S
O60 C52 1.268 . S
O61 Sc45 2.105 . S
O61 C51 1.268 . S
O62 Sc46 2.105 . S
O62 C53 1.268 . S
O63 Sc44 2.105 1_556 S
O63 C49 1.268 . S
O64 Sc46 2.105 1_556 S
O64 C48 1.268 . S
O65 Sc45 2.105 1_556 S
O65 C50 1.268 . S
Sc66 O69 2.025 . S
Sc66 O76 2.105 1_554 S
Sc66 O79 2.105 . S
Sc66 O82 2.105 . S
Sc66 O85 2.105 1_554 S
Sc67 O69 2.025 . S
Sc67 O77 2.105 1_554 S
Sc67 O81 2.105 . S
Sc67 O83 2.105 . S
Sc67 O87 2.105 1_554 S
Sc68 O69 2.025 . S
Sc68 O78 2.105 1_554 S
Sc68 O80 2.105 . S
Sc68 O84 2.105 . S
Sc68 O86 2.105 1_554 S
O69 Sc66 2.025 . S
O69 Sc67 2.025 . S
O69 Sc68 2.025 . S
C70 O76 1.268 . S
C70 O86 1.268 . S
C71 O77 1.268 . S
C71 O85 1.268 . S
C72 O78 1.268 . S
C72 O87 1.268 . S
C73 O79 1.268 . S
C73 O83 1.268 . S
C74 O80 1.268 . S
C74 O82 1.268 . S
C75 O81 1.268 . S
C75 O84 1.268 . S
O76 Sc66 2.105 1_556 S
O76 C70 1.268 . S
O77 Sc67 2.105 1_556 S
O77 C71 1.268 . S
O78 Sc68 2.105 1_556 S
O78 C72 1.268 . S
O79 Sc66 2.105 . S
O79 C73 1.268 . S
O80 Sc68 2.105 . S
O80 C74 1.268 . S
O81 Sc67 2.105 . S
O81 C75 1.268 . S
O82 Sc66 2.105 . S
O82 C74 1.268 . S
O83 Sc67 2.105 . S
O83 C73 1.268 . S
O84 Sc68 2.105 . S
O84 C75 1.268 . S
O85 Sc66 2.105 1_556 S
O85 C71 1.268 . S
O86 Sc68 2.105 1_556 S
O86 C70 1.268 . S
O87 Sc67 2.105 1_556 S
O87 C72 1.268 . S
Sc88 O91 2.025 . S
Sc88 O98 2.105 . S
Sc88 O101 2.105 . S
Sc88 O104 2.105 . S
Sc88 O107 2.105 . S
Sc89 O91 2.025 . S
Sc89 O99 2.105 . S
Sc89 O103 2.105 . S
Sc89 O105 2.105 . S
Sc89 O109 2.105 . S
Sc90 O91 2.025 . S
Sc90 O100 2.105 . S
Sc90 O102 2.105 . S
Sc90 O106 2.105 . S
Sc90 O108 2.105 . S
O91 Sc88 2.025 . S
O91 Sc89 2.025 . S
O91 Sc90 2.025 . S
C92 O98 1.268 . S
C92 O108 1.268 . S
C93 O99 1.268 . S
C93 O107 1.268 . S
C94 O100 1.268 . S
C94 O109 1.268 . S
C95 O101 1.268 . S
C95 O105 1.268 . S
C96 O102 1.268 . S
C96 O104 1.268 . S
C97 O103 1.268 . S
C97 O106 1.268 . S
O98 Sc88 2.105 . S
O98 C92 1.268 . S
O99 Sc89 2.105 . S
O99 C93 1.268 . S
O100 Sc90 2.105 . S
O100 C94 1.268 . S
O101 Sc88 2.105 . S
O101 C95 1.268 . S
O102 Sc90 2.105 . S
O102 C96 1.268 . S
O103 Sc89 2.105 . S
O103 C97 1.268 . S
O104 Sc88 2.105 . S
O104 C96 1.268 . S
O105 Sc89 2.105 . S
O105 C95 1.268 . S
O106 Sc90 2.105 . S
O106 C97 1.268 . S
O107 Sc88 2.105 . S
O107 C93 1.268 . S
O108 Sc90 2.105 . S
O108 C92 1.268 . S
O109 Sc89 2.105 . S
O109 C94 1.268 . S
Sc110 O113 2.025 . S
Sc110 O120 2.105 . S
Sc110 O123 2.105 . S
Sc110 O126 2.105 . S
Sc110 O129 2.105 . S
Sc111 O113 2.025 . S
Sc111 O121 2.105 . S
Sc111 O125 2.105 . S
Sc111 O127 2.105 . S
Sc111 O131 2.105 . S
Sc112 O113 2.025 . S
Sc112 O122 2.105 . S
Sc112 O124 2.105 . S
Sc112 O128 2.105 . S
Sc112 O130 2.105 . S
O113 Sc110 2.025 . S
O113 Sc111 2.025 . S
O113 Sc112 2.025 . S
C114 O120 1.268 . S
C114 O130 1.268 . S
C115 O121 1.268 . S
C115 O129 1.268 . S
C116 O122 1.268 . S
C116 O131 1.268 . S
C117 O123 1.268 . S
C117 O127 1.268 . S
C118 O124 1.268 . S
C118 O126 1.268 . S
C119 O125 1.268 . S
C119 O128 1.268 . S
O120 Sc110 2.105 . S
O120 C114 1.268 . S
O121 Sc111 2.105 . S
O121 C115 1.268 . S
O122 Sc112 2.105 . S
O122 C116 1.268 . S
O123 Sc110 2.105 . S
O123 C117 1.268 . S
O124 Sc112 2.105 . S
O124 C118 1.268 . S
O125 Sc111 2.105 . S
O125 C119 1.268 . S
O126 Sc110 2.105 . S
O126 C118 1.268 . S
O127 Sc111 2.105 . S
O127 C117 1.268 . S
O128 Sc112 2.105 . S
O128 C119 1.268 . S
O129 Sc110 2.105 . S
O129 C115 1.268 . S
O130 Sc112 2.105 . S
O130 C114 1.268 . S
O131 Sc111 2.105 . S
O131 C116 1.268 . S
Sc132 O135 2.025 . S
Sc132 O142 2.105 . S
Sc132 O145 2.105 . S
Sc132 O148 2.105 . S
Sc132 O151 2.105 . S
Sc133 O135 2.025 . S
Sc133 O143 2.105 . S
Sc133 O147 2.105 . S
Sc133 O149 2.105 . S
Sc133 O153 2.105 . S
Sc134 O135 2.025 . S
Sc134 O144 2.105 . S
Sc134 O146 2.105 . S
Sc134 O150 2.105 . S
Sc134 O152 2.105 . S
O135 Sc132 2.025 . S
O135 Sc133 2.025 . S
O135 Sc134 2.025 . S
C136 O142 1.268 . S
C136 O152 1.268 . S
C137 O143 1.268 . S
C137 O151 1.268 . S
C138 O144 1.268 . S
C138 O153 1.268 . S
C139 O145 1.268 . S
C139 O149 1.268 . S
C140 O146 1.268 . S
C140 O148 1.268 . S
C141 O147 1.268 . S
C141 O150 1.268 . S
O142 Sc132 2.105 . S
O142 C136 1.268 . S
O143 Sc133 2.105 . S
O143 C137 1.268 . S
O144 Sc134 2.105 . S
O144 C138 1.268 . S
O145 Sc132 2.105 . S
O145 C139 1.268 . S
O146 Sc134 2.105 . S
O146 C140 1.268 . S
O147 Sc133 2.105 . S
O147 C141 1.268 . S
O148 Sc132 2.105 . S
O148 C140 1.268 . S
O149 Sc133 2.105 . S
O149 C139 1.268 . S
O150 Sc134 2.105 . S
O150 C141 1.268 . S
O151 Sc132 2.105 . S
O151 C137 1.268 . S
O152 Sc134 2.105 . S
O152 C136 1.268 . S
O153 Sc133 2.105 . S
O153 C138 1.268 . S
Sc154 O157 2.025 . S
Sc154 O164 2.105 . S
Sc154 O167 2.105 . S
Sc154 O170 2.105 . S
Sc154 O173 2.105 . S
Sc155 O157 2.025 . S
Sc155 O165 2.105 . S
Sc155 O169 2.105 . S
Sc155 O171 2.105 . S
Sc155 O175 2.105 . S
Sc156 O157 2.025 . S
Sc156 O166 2.105 . S
Sc156 O168 2.105 . S
Sc156 O172 2.105 . S
Sc156 O174 2.105 . S
O157 Sc154 2.025 . S
O157 Sc155 2.025 . S
O157 Sc156 2.025 . S
C158 O164 1.268 . S
C158 O174 1.268 . S
C159 O165 1.268 . S
C159 O173 1.268 . S
C160 O166 1.268 . S
C160 O175 1.268 . S
C161 O167 1.268 . S
C161 O171 1.268 . S
C162 O168 1.268 . S
C162 O170 1.268 . S
C163 O169 1.268 . S
C163 O172 1.268 . S
O164 Sc154 2.105 . S
O164 C158 1.268 . S
O165 Sc155 2.105 . S
O165 C159 1.268 . S
O166 Sc156 2.105 . S
O166 C160 1.268 . S
O167 Sc154 2.105 . S
O167 C161 1.268 . S
O168 Sc156 2.105 . S
O168 C162 1.268 . S
O169 Sc155 2.105 . S
O169 C163 1.268 . S
O170 Sc154 2.105 . S
O170 C162 1.268 . S
O171 Sc155 2.105 . S
O171 C161 1.268 . S
O172 Sc156 2.105 . S
O172 C163 1.268 . S
O173 Sc154 2.105 . S
O173 C159 1.268 . S
O174 Sc156 2.105 . S
O174 C158 1.268 . S
O175 Sc155 2.105 . S
O175 C160 1.268 . S
H176 C182 0.930 . S
H177 C186 0.930 . S
H178 C191 0.929 . S
H179 C189 0.929 . S
H180 C184 0.929 . S
H181 C190 0.929 . S
C182 H176 0.930 . S
C182 C183 1.367 . S
C182 C190 1.378 . S
C183 C182 1.367 . S
C183 C191 1.433 . S
C184 H180 0.929 . S
C184 C186 1.378 . S
C184 C188 1.350 . S
C185 C188 1.463 . S
C185 C190 1.350 . S
C185 N193 1.427 . S
C186 H177 0.930 . S
C186 C184 1.378 . S
C186 C187 1.367 . S
C187 C186 1.367 . S
C187 C189 1.433 . S
C188 C184 1.350 . S
C188 C185 1.463 . S
C188 N192 1.427 . S
C189 H179 0.929 . S
C189 C187 1.433 . S
C189 N192 1.384 . S
C190 H181 0.929 . S
C190 C182 1.378 . S
C190 C185 1.350 . S
C191 H178 0.929 . S
C191 C183 1.433 . S
C191 N193 1.384 . S
N192 C188 1.427 . S
N192 C189 1.384 . S
N193 C185 1.427 . S
N193 C191 1.384 . S
H194 C200 0.930 . S
H195 C204 0.930 . S
H196 C209 0.929 . S
H197 C207 0.929 . S
H198 C202 0.929 . S
H199 C208 0.929 . S
C200 H194 0.930 . S
C200 C201 1.367 . S
C200 C208 1.378 . S
C201 C200 1.367 . S
C201 C209 1.433 . S
C202 H198 0.929 . S
C202 C204 1.378 . S
C202 C206 1.350 . S
C203 C206 1.463 . S
C203 C208 1.350 . S
C203 N211 1.427 . S
C204 H195 0.930 . S
C204 C202 1.378 . S
C204 C205 1.367 . S
C205 C204 1.367 . S
C205 C207 1.433 . S
C206 C202 1.350 . S
C206 C203 1.463 . S
C206 N210 1.427 . S
C207 H197 0.929 . S
C207 C205 1.433 . S
C207 N210 1.384 . S
C208 H199 0.929 . S
C208 C200 1.378 . S
C208 C203 1.350 . S
C209 H196 0.929 . S
C209 C201 1.433 . S
C209 N211 1.384 . S
N210 C206 1.427 . S
N210 C207 1.384 . S
N211 C203 1.427 . S
N211 C209 1.384 . S
H212 C218 0.930 . S
H213 C222 0.930 . S
H214 C227 0.929 . S
H215 C225 0.929 . S
H216 C220 0.929 . S
H217 C226 0.929 . S
C218 H212 0.930 . S
C218 C219 1.367 . S
C218 C226 1.378 . S
C219 C218 1.367 . S
C219 C227 1.433 . S
C220 H216 0.929 . S
C220 C222 1.378 . S
C220 C224 1.350 . S
C221 C224 1.463 . S
C221 C226 1.350 . S
C221 N229 1.427 . S
C222 H213 0.930 . S
C222 C220 1.378 . S
C222 C223 1.367 . S
C223 C222 1.367 . S
C223 C225 1.433 . S
C224 C220 1.350 . S
C224 C221 1.463 . S
C224 N228 1.427 . S
C225 H215 0.929 . S
C225 C223 1.433 . S
C225 N228 1.384 . S
C226 H217 0.929 . S
C226 C218 1.378 . S
C226 C221 1.350 . S
C227 H214 0.929 . S
C227 C219 1.433 . S
C227 N229 1.384 . S
N228 C224 1.427 . S
N228 C225 1.384 . S
N229 C221 1.427 . S
N229 C227 1.384 . S
H230 C236 0.930 . S
H231 C240 0.930 . S
H232 C245 0.929 . S
H233 C243 0.929 . S
H234 C238 0.929 . S
H235 C244 0.929 . S
C236 H230 0.930 . S
C236 C237 1.367 . S
C236 C244 1.378 . S
C237 C236 1.367 . S
C237 C245 1.433 . S
C238 H234 0.929 . S
C238 C240 1.378 . S
C238 C242 1.350 . S
C239 C242 1.463 . S
C239 C244 1.350 . S
C239 N247 1.427 . S
C240 H231 0.930 . S
C240 C238 1.378 . S
C240 C241 1.367 . S
C241 C240 1.367 . S
C241 C243 1.433 . S
C242 C238 1.350 . S
C242 C239 1.463 . S
C242 N246 1.427 . S
C243 H233 0.929 . S
C243 C241 1.433 . S
C243 N246 1.384 . S
C244 H235 0.929 . S
C244 C236 1.378 . S
C244 C239 1.350 . S
C245 H232 0.929 . S
C245 C237 1.433 . S
C245 N247 1.384 . S
N246 C242 1.427 . S
N246 C243 1.384 . S
N247 C239 1.427 . S
N247 C245 1.384 . S
H248 C254 0.930 . S
H249 C258 0.930 . S
H250 C263 0.929 . S
H251 C261 0.929 . S
H252 C256 0.929 . S
H253 C262 0.929 . S
C254 H248 0.930 . S
C254 C255 1.367 . S
C254 C262 1.378 . S
C255 C254 1.367 . S
C255 C263 1.433 . S
C256 H252 0.929 . S
C256 C258 1.378 . S
C256 C260 1.350 . S
C257 C260 1.463 . S
C257 C262 1.350 . S
C257 N265 1.427 . S
C258 H249 0.930 . S
C258 C256 1.378 . S
C258 C259 1.367 . S
C259 C258 1.367 . S
C259 C261 1.433 . S
C260 C256 1.350 . S
C260 C257 1.463 . S
C260 N264 1.427 . S
C261 H251 0.929 . S
C261 C259 1.433 . S
C261 N264 1.384 . S
C262 H253 0.929 . S
C262 C254 1.378 . S
C262 C257 1.350 . S
C263 H250 0.929 . S
C263 C255 1.433 . S
C263 N265 1.384 . S
N264 C260 1.427 . S
N264 C261 1.384 . S
N265 C257 1.427 . S
N265 C263 1.384 . S
H266 C272 0.930 . S
H267 C276 0.930 . S
H268 C281 0.929 . S
H269 C279 0.929 . S
H270 C274 0.929 . S
H271 C280 0.929 . S
C272 H266 0.930 . S
C272 C273 1.367 . S
C272 C280 1.378 . S
C273 C272 1.367 . S
C273 C281 1.433 . S
C274 H270 0.929 . S
C274 C276 1.378 . S
C274 C278 1.350 . S
C275 C278 1.463 . S
C275 C280 1.350 . S
C275 N283 1.427 . S
C276 H267 0.930 . S
C276 C274 1.378 . S
C276 C277 1.367 . S
C277 C276 1.367 . S
C277 C279 1.433 . S
C278 C274 1.350 . S
C278 C275 1.463 . S
C278 N282 1.427 . S
C279 H269 0.929 . S
C279 C277 1.433 . S
C279 N282 1.384 . S
C280 H271 0.929 . S
C280 C272 1.378 . S
C280 C275 1.350 . S
C281 H268 0.929 . S
C281 C273 1.433 . S
C281 N283 1.384 . S
N282 C278 1.427 . S
N282 C279 1.384 . S
N283 C275 1.427 . S
N283 C281 1.384 . S
H284 C290 0.930 . S
H285 C294 0.930 . S
H286 C299 0.929 . S
H287 C297 0.929 . S
H288 C292 0.929 . S
H289 C298 0.929 . S
C290 H284 0.930 . S
C290 C291 1.367 . S
C290 C298 1.378 . S
C291 C290 1.367 . S
C291 C299 1.433 . S
C292 H288 0.929 . S
C292 C294 1.378 . S
C292 C296 1.350 . S
C293 C296 1.463 . S
C293 C298 1.350 . S
C293 N301 1.427 . S
C294 H285 0.930 . S
C294 C292 1.378 . S
C294 C295 1.367 . S
C295 C294 1.367 . S
C295 C297 1.433 . S
C296 C292 1.350 . S
C296 C293 1.463 . S
C296 N300 1.427 . S
C297 H287 0.929 . S
C297 C295 1.433 . S
C297 N300 1.384 . S
C298 H289 0.929 . S
C298 C290 1.378 . S
C298 C293 1.350 . S
C299 H286 0.929 . S
C299 C291 1.433 . S
C299 N301 1.384 . S
N300 C296 1.427 . S
N300 C297 1.384 . S
N301 C293 1.427 . S
N301 C299 1.384 . S
H302 C308 0.930 . S
H303 C312 0.930 . S
H304 C317 0.929 . S
H305 C315 0.929 . S
H306 C310 0.929 . S
H307 C316 0.929 . S
C308 H302 0.930 . S
C308 C309 1.367 . S
C308 C316 1.378 . S
C309 C308 1.367 . S
C309 C317 1.433 . S
C310 H306 0.929 . S
C310 C312 1.378 . S
C310 C314 1.350 . S
C311 C314 1.463 . S
C311 C316 1.350 . S
C311 N319 1.427 . S
C312 H303 0.930 . S
C312 C310 1.378 . S
C312 C313 1.367 . S
C313 C312 1.367 . S
C313 C315 1.433 . S
C314 C310 1.350 . S
C314 C311 1.463 . S
C314 N318 1.427 . S
C315 H305 0.929 . S
C315 C313 1.433 . S
C315 N318 1.384 . S
C316 H307 0.929 . S
C316 C308 1.378 . S
C316 C311 1.350 . S
C317 H304 0.929 . S
C317 C309 1.433 . S
C317 N319 1.384 . S
N318 C314 1.427 . S
N318 C315 1.384 . S
N319 C311 1.427 . S
N319 C317 1.384 . S
H320 C326 0.930 . S
H321 C330 0.930 . S
H322 C335 0.929 . S
H323 C333 0.929 . S
H324 C328 0.929 . S
H325 C334 0.929 . S
C326 H320 0.930 . S
C326 C327 1.367 . S
C326 C334 1.378 . S
C327 C326 1.367 . S
C327 C335 1.433 . S
C328 H324 0.929 . S
C328 C330 1.378 . S
C328 C332 1.350 . S
C329 C332 1.463 1_655 S
C329 C334 1.350 . S
C329 N337 1.427 . S
C330 H321 0.930 . S
C330 C328 1.378 . S
C330 C331 1.367 . S
C331 C330 1.367 . S
C331 C333 1.433 . S
C332 C328 1.350 . S
C332 C329 1.463 1_455 S
C332 N336 1.427 . S
C333 H323 0.929 . S
C333 C331 1.433 . S
C333 N336 1.384 . S
C334 H325 0.929 . S
C334 C326 1.378 . S
C334 C329 1.350 . S
C335 H322 0.929 . S
C335 C327 1.433 . S
C335 N337 1.384 . S
N336 C332 1.427 . S
N336 C333 1.384 . S
N337 C329 1.427 . S
N337 C335 1.384 . S
H338 C344 0.930 . S
H339 C348 0.930 . S
H340 C353 0.929 . S
H341 C351 0.929 . S
H342 C346 0.929 . S
H343 C352 0.929 . S
C344 H338 0.930 . S
C344 C345 1.367 . S
C344 C352 1.378 . S
C345 C344 1.367 . S
C345 C353 1.433 . S
C346 H342 0.929 . S
C346 C348 1.378 . S
C346 C350 1.350 . S
C347 C350 1.463 1_545 S
C347 C352 1.350 . S
C347 N355 1.427 . S
C348 H339 0.930 . S
C348 C346 1.378 . S
C348 C349 1.367 . S
C349 C348 1.367 . S
C349 C351 1.433 . S
C350 C346 1.350 . S
C350 C347 1.463 1_565 S
C350 N354 1.427 . S
C351 H341 0.929 . S
C351 C349 1.433 . S
C351 N354 1.384 . S
C352 H343 0.929 . S
C352 C344 1.378 . S
C352 C347 1.350 . S
C353 H340 0.929 . S
C353 C345 1.433 . S
C353 N355 1.384 . S
N354 C350 1.427 . S
N354 C351 1.384 . S
N355 C347 1.427 . S
N355 C353 1.384 . S
H356 C362 0.930 . S
H357 C366 0.930 . S
H358 C371 0.929 . S
H359 C369 0.929 . S
H360 C364 0.929 . S
H361 C370 0.929 . S
C362 H356 0.930 . S
C362 C363 1.367 . S
C362 C370 1.378 . S
C363 C362 1.367 . S
C363 C371 1.433 . S
C364 H360 0.929 . S
C364 C366 1.378 . S
C364 C368 1.350 . S
C365 C368 1.463 1_655 S
C365 C370 1.350 . S
C365 N373 1.427 . S
C366 H357 0.930 . S
C366 C364 1.378 . S
C366 C367 1.367 . S
C367 C366 1.367 . S
C367 C369 1.433 . S
C368 C364 1.350 . S
C368 C365 1.463 1_455 S
C368 N372 1.427 . S
C369 H359 0.929 . S
C369 C367 1.433 . S
C369 N372 1.384 . S
C370 H361 0.929 . S
C370 C362 1.378 . S
C370 C365 1.350 . S
C371 H358 0.929 . S
C371 C363 1.433 . S
C371 N373 1.384 . S
N372 C368 1.427 . S
N372 C369 1.384 . S
N373 C365 1.427 . S
N373 C371 1.384 . S
H374 C380 0.930 . S
H375 C384 0.930 . S
H376 C389 0.929 . S
H377 C387 0.929 . S
H378 C382 0.929 1_545 S
H379 C388 0.929 1_565 S
C380 H374 0.930 . S
C380 C381 1.367 . S
C380 C388 1.378 . S
C381 C380 1.367 . S
C381 C389 1.433 . S
C382 H378 0.929 1_565 S
C382 C384 1.378 . S
C382 C386 1.350 . S
C383 C386 1.463 1_545 S
C383 C388 1.350 . S
C383 N391 1.427 . S
C384 H375 0.930 . S
C384 C382 1.378 . S
C384 C385 1.367 . S
C385 C384 1.367 . S
C385 C387 1.433 . S
C386 C382 1.350 . S
C386 C383 1.463 1_565 S
C386 N390 1.427 . S
C387 H377 0.929 . S
C387 C385 1.433 . S
C387 N390 1.384 . S
C388 H379 0.929 1_545 S
C388 C380 1.378 . S
C388 C383 1.350 . S
C389 H376 0.929 . S
C389 C381 1.433 . S
C389 N391 1.384 . S
N390 C386 1.427 . S
N390 C387 1.384 . S
N391 C383 1.427 . S
N391 C389 1.384 . S
H392 C398 0.930 . S
H393 C402 0.930 . S
H394 C407 0.929 . S
H395 C405 0.929 . S
H396 C400 0.929 . S
H397 C406 0.929 . S
C398 H392 0.930 . S
C398 C399 1.367 . S
C398 C406 1.378 . S
C399 C398 1.367 . S
C399 C407 1.433 . S
C400 H396 0.929 . S
C400 C402 1.378 . S
C400 C404 1.350 . S
C401 C404 1.463 1_455 S
C401 C406 1.350 . S
C401 N409 1.427 . S
C402 H393 0.930 . S
C402 C400 1.378 . S
C402 C403 1.367 . S
C403 C402 1.367 . S
C403 C405 1.433 . S
C404 C400 1.350 . S
C404 C401 1.463 1_655 S
C404 N408 1.427 . S
C405 H395 0.929 . S
C405 C403 1.433 . S
C405 N408 1.384 . S
C406 H397 0.929 . S
C406 C398 1.378 . S
C406 C401 1.350 . S
C407 H394 0.929 . S
C407 C399 1.433 . S
C407 N409 1.384 . S
N408 C404 1.427 . S
N408 C405 1.384 . S
N409 C401 1.427 . S
N409 C407 1.384 . S
H410 C416 0.930 . S
H411 C420 0.930 . S
H412 C425 0.929 . S
H413 C423 0.929 . S
H414 C418 0.929 . S
H415 C424 0.929 . S
C416 H410 0.930 . S
C416 C417 1.367 . S
C416 C424 1.378 . S
C417 C416 1.367 . S
C417 C425 1.433 . S
C418 H414 0.929 . S
C418 C420 1.378 . S
C418 C422 1.350 . S
C419 C422 1.463 1_565 S
C419 C424 1.350 . S
C419 N427 1.427 . S
C420 H411 0.930 . S
C420 C418 1.378 . S
C420 C421 1.367 . S
C421 C420 1.367 . S
C421 C423 1.433 . S
C422 C418 1.350 . S
C422 C419 1.463 1_545 S
C422 N426 1.427 . S
C423 H413 0.929 . S
C423 C421 1.433 . S
C423 N426 1.384 . S
C424 H415 0.929 . S
C424 C416 1.378 . S
C424 C419 1.350 . S
C425 H412 0.929 . S
C425 C417 1.433 . S
C425 N427 1.384 . S
N426 C422 1.427 . S
N426 C423 1.384 . S
N427 C419 1.427 . S
N427 C425 1.384 . S
H428 C434 0.930 . S
H429 C438 0.930 . S
H430 C443 0.929 . S
H431 C441 0.929 . S
H432 C436 0.929 1_655 S
H433 C442 0.929 1_455 S
C434 H428 0.930 . S
C434 C435 1.367 . S
C434 C442 1.378 . S
C435 C434 1.367 . S
C435 C443 1.433 . S
C436 H432 0.929 1_455 S
C436 C438 1.378 . S
C436 C440 1.350 . S
C437 C440 1.463 1_655 S
C437 C442 1.350 . S
C437 N445 1.427 . S
C438 H429 0.930 . S
C438 C436 1.378 . S
C438 C439 1.367 . S
C439 C438 1.367 . S
C439 C441 1.433 . S
C440 C436 1.350 . S
C440 C437 1.463 1_455 S
C440 N444 1.427 . S
C441 H431 0.929 . S
C441 C439 1.433 . S
C441 N444 1.384 . S
C442 H433 0.929 1_655 S
C442 C434 1.378 . S
C442 C437 1.350 . S
C443 H430 0.929 . S
C443 C435 1.433 . S
C443 N445 1.384 . S
N444 C440 1.427 . S
N444 C441 1.384 . S
N445 C437 1.427 . S
N445 C443 1.384 . S
H446 C452 0.930 . S
H447 C456 0.930 . S
H448 C461 0.929 . S
H449 C459 0.929 . S
H450 C454 0.929 . S
H451 C460 0.929 . S
C452 H446 0.930 . S
C452 C453 1.367 . S
C452 C460 1.378 . S
C453 C452 1.367 . S
C453 C461 1.433 . S
C454 H450 0.929 . S
C454 C456 1.378 . S
C454 C458 1.350 . S
C455 C458 1.463 1_565 S
C455 C460 1.350 . S
C455 N463 1.427 . S
C456 H447 0.930 . S
C456 C454 1.378 . S
C456 C457 1.367 . S
C457 C456 1.367 . S
C457 C459 1.433 . S
C458 C454 1.350 . S
C458 C455 1.463 1_545 S
C458 N462 1.427 . S
C459 H449 0.929 . S
C459 C457 1.433 . S
C459 N462 1.384 . S
C460 H451 0.929 . S
C460 C452 1.378 . S
C460 C455 1.350 . S
C461 H448 0.929 . S
C461 C453 1.433 . S
C461 N463 1.384 . S
N462 C458 1.427 . S
N462 C459 1.384 . S
N463 C455 1.427 . S
N463 C461 1.384 . S
H464 C470 0.930 . S
H465 C474 0.930 . S
H466 C479 0.929 . S
H467 C477 0.929 . S
H468 C472 0.929 . S
H469 C478 0.929 . S
C470 H464 0.930 . S
C470 C471 1.367 . S
C470 C478 1.378 . S
C471 C470 1.367 . S
C471 C479 1.433 . S
C472 H468 0.929 . S
C472 C474 1.378 . S
C472 C476 1.350 . S
C473 C476 1.463 . S
C473 C478 1.350 . S
C473 N481 1.427 . S
C474 H465 0.930 . S
C474 C472 1.378 . S
C474 C475 1.367 . S
C475 C474 1.367 . S
C475 C477 1.433 . S
C476 C472 1.350 . S
C476 C473 1.463 . S
C476 N480 1.427 . S
C477 H467 0.929 . S
C477 C475 1.433 . S
C477 N480 1.384 . S
C478 H469 0.929 . S
C478 C470 1.378 . S
C478 C473 1.350 . S
C479 H466 0.929 . S
C479 C471 1.433 . S
C479 N481 1.384 . S
N480 C476 1.427 . S
N480 C477 1.384 . S
N481 C473 1.427 . S
N481 C479 1.384 . S
H482 C488 0.930 . S
H483 C492 0.930 . S
H484 C497 0.929 . S
H485 C495 0.929 . S
H486 C490 0.929 . S
H487 C496 0.929 . S
C488 H482 0.930 . S
C488 C489 1.367 . S
C488 C496 1.378 . S
C489 C488 1.367 . S
C489 C497 1.433 . S
C490 H486 0.929 . S
C490 C492 1.378 . S
C490 C494 1.350 . S
C491 C494 1.463 . S
C491 C496 1.350 . S
C491 N499 1.427 . S
C492 H483 0.930 . S
C492 C490 1.378 . S
C492 C493 1.367 . S
C493 C492 1.367 . S
C493 C495 1.433 . S
C494 C490 1.350 . S
C494 C491 1.463 . S
C494 N498 1.427 . S
C495 H485 0.929 . S
C495 C493 1.433 . S
C495 N498 1.384 . S
C496 H487 0.929 . S
C496 C488 1.378 . S
C496 C491 1.350 . S
C497 H484 0.929 . S
C497 C489 1.433 . S
C497 N499 1.384 . S
N498 C494 1.427 . S
N498 C495 1.384 . S
N499 C491 1.427 . S
N499 C497 1.384 . S
H500 C506 0.930 . S
H501 C510 0.930 . S
H502 C515 0.929 . S
H503 C513 0.929 . S
H504 C508 0.929 . S
H505 C514 0.929 . S
C506 H500 0.930 . S
C506 C507 1.367 . S
C506 C514 1.378 . S
C507 C506 1.367 . S
C507 C515 1.433 . S
C508 H504 0.929 . S
C508 C510 1.378 . S
C508 C512 1.350 . S
C509 C512 1.463 . S
C509 C514 1.350 . S
C509 N517 1.427 . S
C510 H501 0.930 . S
C510 C508 1.378 . S
C510 C511 1.367 . S
C511 C510 1.367 . S
C511 C513 1.433 . S
C512 C508 1.350 . S
C512 C509 1.463 . S
C512 N516 1.427 . S
C513 H503 0.929 . S
C513 C511 1.433 . S
C513 N516 1.384 . S
C514 H505 0.929 . S
C514 C506 1.378 . S
C514 C509 1.350 . S
C515 H502 0.929 . S
C515 C507 1.433 . S
C515 N517 1.384 . S
N516 C512 1.427 . S
N516 C513 1.384 . S
N517 C509 1.427 . S
N517 C515 1.384 . S
H518 C524 0.930 . S
H519 C528 0.930 . S
H520 C533 0.929 . S
H521 C531 0.929 . S
H522 C526 0.929 . S
H523 C532 0.929 . S
C524 H518 0.930 . S
C524 C525 1.367 . S
C524 C532 1.378 . S
C525 C524 1.367 . S
C525 C533 1.433 . S
C526 H522 0.929 . S
C526 C528 1.378 . S
C526 C530 1.350 . S
C527 C530 1.463 . S
C527 C532 1.350 . S
C527 N535 1.427 . S
C528 H519 0.930 . S
C528 C526 1.378 . S
C528 C529 1.367 . S
C529 C528 1.367 . S
C529 C531 1.433 . S
C530 C526 1.350 . S
C530 C527 1.463 . S
C530 N534 1.427 . S
C531 H521 0.929 . S
C531 C529 1.433 . S
C531 N534 1.384 . S
C532 H523 0.929 . S
C532 C524 1.378 . S
C532 C527 1.350 . S
C533 H520 0.929 . S
C533 C525 1.433 . S
C533 N535 1.384 . S
N534 C530 1.427 . S
N534 C531 1.384 . S
N535 C527 1.427 . S
N535 C533 1.384 . S
H536 C542 0.930 . S
H537 C546 0.930 . S
H538 C551 0.929 . S
H539 C549 0.929 . S
H540 C544 0.929 . S
H541 C550 0.929 . S
C542 H536 0.930 . S
C542 C543 1.367 . S
C542 C550 1.378 . S
C543 C542 1.367 . S
C543 C551 1.433 . S
C544 H540 0.929 . S
C544 C546 1.378 . S
C544 C548 1.350 . S
C545 C548 1.463 . S
C545 C550 1.350 . S
C545 N553 1.427 . S
C546 H537 0.930 . S
C546 C544 1.378 . S
C546 C547 1.367 . S
C547 C546 1.367 . S
C547 C549 1.433 . S
C548 C544 1.350 . S
C548 C545 1.463 . S
C548 N552 1.427 . S
C549 H539 0.929 . S
C549 C547 1.433 . S
C549 N552 1.384 . S
C550 H541 0.929 . S
C550 C542 1.378 . S
C550 C545 1.350 . S
C551 H538 0.929 . S
C551 C543 1.433 . S
C551 N553 1.384 . S
N552 C548 1.427 . S
N552 C549 1.384 . S
N553 C545 1.427 . S
N553 C551 1.384 . S
H554 C560 0.930 . S
H555 C564 0.930 . S
H556 C569 0.929 . S
H557 C567 0.929 . S
H558 C562 0.929 . S
H559 C568 0.929 . S
C560 H554 0.930 . S
C560 C561 1.367 . S
C560 C568 1.378 . S
C561 C560 1.367 . S
C561 C569 1.433 . S
C562 H558 0.929 . S
C562 C564 1.378 . S
C562 C566 1.350 . S
C563 C566 1.463 . S
C563 C568 1.350 . S
C563 N571 1.427 . S
C564 H555 0.930 . S
C564 C562 1.378 . S
C564 C565 1.367 . S
C565 C564 1.367 . S
C565 C567 1.433 . S
C566 C562 1.350 . S
C566 C563 1.463 . S
C566 N570 1.427 . S
C567 H557 0.929 . S
C567 C565 1.433 . S
C567 N570 1.384 . S
C568 H559 0.929 . S
C568 C560 1.378 . S
C568 C563 1.350 . S
C569 H556 0.929 . S
C569 C561 1.433 . S
C569 N571 1.384 . S
N570 C566 1.427 . S
N570 C567 1.384 . S
N571 C563 1.427 . S
N571 C569 1.384 . S
H572 C578 0.930 . S
H573 C582 0.930 . S
H574 C587 0.929 . S
H575 C585 0.929 . S
H576 C580 0.929 . S
H577 C586 0.929 . S
C578 H572 0.930 . S
C578 C579 1.367 . S
C578 C586 1.378 . S
C579 C578 1.367 . S
C579 C587 1.433 . S
C580 H576 0.929 . S
C580 C582 1.378 . S
C580 C584 1.350 . S
C581 C584 1.463 . S
C581 C586 1.350 . S
C581 N589 1.427 . S
C582 H573 0.930 . S
C582 C580 1.378 . S
C582 C583 1.367 . S
C583 C582 1.367 . S
C583 C585 1.433 . S
C584 C580 1.350 . S
C584 C581 1.463 . S
C584 N588 1.427 . S
C585 H575 0.929 . S
C585 C583 1.433 . S
C585 N588 1.384 . S
C586 H577 0.929 . S
C586 C578 1.378 . S
C586 C581 1.350 . S
C587 H574 0.929 . S
C587 C579 1.433 . S
C587 N589 1.384 . S
N588 C584 1.427 . S
N588 C585 1.384 . S
N589 C581 1.427 . S
N589 C587 1.384 . S
H590 C596 0.930 . S
H591 C600 0.930 . S
H592 C605 0.929 . S
H593 C603 0.929 . S
H594 C598 0.929 . S
H595 C604 0.929 . S
C596 H590 0.930 . S
C596 C597 1.367 . S
C596 C604 1.378 . S
C597 C596 1.367 . S
C597 C605 1.433 . S
C598 H594 0.929 . S
C598 C600 1.378 . S
C598 C602 1.350 . S
C599 C602 1.463 . S
C599 C604 1.350 . S
C599 N607 1.427 . S
C600 H591 0.930 . S
C600 C598 1.378 . S
C600 C601 1.367 . S
C601 C600 1.367 . S
C601 C603 1.433 . S
C602 C598 1.350 . S
C602 C599 1.463 . S
C602 N606 1.427 . S
C603 H593 0.929 . S
C603 C601 1.433 . S
C603 N606 1.384 . S
C604 H595 0.929 . S
C604 C596 1.378 . S
C604 C599 1.350 . S
C605 H592 0.929 . S
C605 C597 1.433 . S
C605 N607 1.384 . S
N606 C602 1.427 . S
N606 C603 1.384 . S
N607 C599 1.427 . S
N607 C605 1.384 . S
C183 C136 1.433 . S
C187 C8 1.434 . S
C201 C30 1.436 . S
C205 C158 1.431 . S
C219 C92 1.428 . S
C223 C53 1.426 . S
C237 C74 1.437 . S
C241 C114 1.433 . S
C255 C96 1.435 . S
C259 C50 1.432 . S
C273 C70 1.437 . S
C277 C118 1.439 . S
C291 C140 1.428 . S
C295 C4 1.431 . S
C309 C26 1.429 . S
C313 C162 1.429 . S
C327 C27 1.434 . S
C331 C119 1.439 . S
C345 C141 1.433 . S
C349 C48 1.438 . S
C363 C163 1.434 . S
C367 C71 1.438 . S
C381 C5 1.428 . S
C385 C97 1.433 . S
C399 C73 1.429 . S
C403 C160 1.431 . S
C417 C94 1.437 . S
C421 C7 1.435 . S
C435 C29 1.428 . S
C439 C116 1.429 . S
C453 C52 1.434 . S
C457 C138 1.435 . S
C471 C159 1.208 . S
C475 C9 1.206 . S
C489 C31 1.209 . S
C493 C93 1.207 . S
C507 C51 1.211 . S
C511 C115 1.209 . S
C525 C137 1.204 . S
C529 C75 1.202 . S
C543 C117 1.207 . S
C547 C49 1.209 . S
C561 C139 1.208 . S
C565 C72 1.210 . S
C579 C161 1.206 . S
C583 C6 1.208 . S
C597 C95 1.210 . S
C601 C28 1.211 . S
