# Generated by pormake.
# Topology whw, (6)-cn, num edge types: 1
# Building blocks:
#     Node 0, Type 0, BuildingBlock: KUMBUR_clean_sbu_1, # of connection points: 6
#     Node 1, Type 0, BuildingBlock: KUMBUR_clean_sbu_1, # of connection points: 6
#     Node 2, Type 0, BuildingBlock: KUMBUR_clean_sbu_1, # of connection points: 6
#     Node 3, Type 0, BuildingBlock: KUMBUR_clean_sbu_1, # of connection points: 6
#     Node 4, Type 0, BuildingBlock: KUMBUR_clean_sbu_1, # of connection points: 6
#     Node 5, Type 0, BuildingBlock: KUMBUR_clean_sbu_1, # of connection points: 6
#     Node 6, Type 0, BuildingBlock: KUMBUR_clean_sbu_1, # of connection points: 6
#     Node 7, Type 0, BuildingBlock: KUMBUR_clean_sbu_1, # of connection points: 6
#     Node 8, Type 0, BuildingBlock: KUMBUR_clean_sbu_1, # of connection points: 6
#     Node 9, Type 0, BuildingBlock: KUMBUR_clean_sbu_1, # of connection points: 6
#     Node 10, Type 0, BuildingBlock: KUMBUR_clean_sbu_1, # of connection points: 6
#     Node 11, Type 0, BuildingBlock: KUMBUR_clean_sbu_1, # of connection points: 6
#     Node 12, Type 0, BuildingBlock: KUMBUR_clean_sbu_1, # of connection points: 6
#     Node 13, Type 0, BuildingBlock: KUMBUR_clean_sbu_1, # of connection points: 6
#     Node 14, Type 0, BuildingBlock: KUMBUR_clean_sbu_1, # of connection points: 6
#     Node 15, Type 0, BuildingBlock: KUMBUR_clean_sbu_1, # of connection points: 6
#     Edge 16, Type (0, 0), BuildingBlock: OJICUG_clean_linker_0, # of connection points: 2
#     Edge 17, Type (0, 0), BuildingBlock: OJICUG_clean_linker_0, # of connection points: 2
#     Edge 18, Type (0, 0), BuildingBlock: OJICUG_clean_linker_0, # of connection points: 2
#     Edge 19, Type (0, 0), BuildingBlock: OJICUG_clean_linker_0, # of connection points: 2
#     Edge 20, Type (0, 0), BuildingBlock: OJICUG_clean_linker_0, # of connection points: 2
#     Edge 21, Type (0, 0), BuildingBlock: OJICUG_clean_linker_0, # of connection points: 2
#     Edge 22, Type (0, 0), BuildingBlock: OJICUG_clean_linker_0, # of connection points: 2
#     Edge 23, Type (0, 0), BuildingBlock: OJICUG_clean_linker_0, # of connection points: 2
#     Edge 24, Type (0, 0), BuildingBlock: OJICUG_clean_linker_0, # of connection points: 2
#     Edge 25, Type (0, 0), BuildingBlock: OJICUG_clean_linker_0, # of connection points: 2
#     Edge 26, Type (0, 0), BuildingBlock: OJICUG_clean_linker_0, # of connection points: 2
#     Edge 27, Type (0, 0), BuildingBlock: OJICUG_clean_linker_0, # of connection points: 2
#     Edge 28, Type (0, 0), BuildingBlock: OJICUG_clean_linker_0, # of connection points: 2
#     Edge 29, Type (0, 0), BuildingBlock: OJICUG_clean_linker_0, # of connection points: 2
#     Edge 30, Type (0, 0), BuildingBlock: OJICUG_clean_linker_0, # of connection points: 2
#     Edge 31, Type (0, 0), BuildingBlock: OJICUG_clean_linker_0, # of connection points: 2
#     Edge 32, Type (0, 0), BuildingBlock: OJICUG_clean_linker_0, # of connection points: 2
#     Edge 33, Type (0, 0), BuildingBlock: OJICUG_clean_linker_0, # of connection points: 2
#     Edge 34, Type (0, 0), BuildingBlock: OJICUG_clean_linker_0, # of connection points: 2
#     Edge 35, Type (0, 0), BuildingBlock: OJICUG_clean_linker_0, # of connection points: 2
#     Edge 36, Type (0, 0), BuildingBlock: OJICUG_clean_linker_0, # of connection points: 2
#     Edge 37, Type (0, 0), BuildingBlock: OJICUG_clean_linker_0, # of connection points: 2
#     Edge 38, Type (0, 0), BuildingBlock: OJICUG_clean_linker_0, # of connection points: 2
#     Edge 39, Type (0, 0), BuildingBlock: OJICUG_clean_linker_0, # of connection points: 2
#     Edge 40, Type (0, 0), BuildingBlock: OJICUG_clean_linker_0, # of connection points: 2
#     Edge 41, Type (0, 0), BuildingBlock: OJICUG_clean_linker_0, # of connection points: 2
#     Edge 42, Type (0, 0), BuildingBlock: OJICUG_clean_linker_0, # of connection points: 2
#     Edge 43, Type (0, 0), BuildingBlock: OJICUG_clean_linker_0, # of connection points: 2
#     Edge 44, Type (0, 0), BuildingBlock: OJICUG_clean_linker_0, # of connection points: 2
#     Edge 45, Type (0, 0), BuildingBlock: OJICUG_clean_linker_0, # of connection points: 2
#     Edge 46, Type (0, 0), BuildingBlock: OJICUG_clean_linker_0, # of connection points: 2
#     Edge 47, Type (0, 0), BuildingBlock: OJICUG_clean_linker_0, # of connection points: 2
#     Edge 48, Type (0, 0), BuildingBlock: OJICUG_clean_linker_0, # of connection points: 2
#     Edge 49, Type (0, 0), BuildingBlock: OJICUG_clean_linker_0, # of connection points: 2
#     Edge 50, Type (0, 0), BuildingBlock: OJICUG_clean_linker_0, # of connection points: 2
#     Edge 51, Type (0, 0), BuildingBlock: OJICUG_clean_linker_0, # of connection points: 2
#     Edge 52, Type (0, 0), BuildingBlock: OJICUG_clean_linker_0, # of connection points: 2
#     Edge 53, Type (0, 0), BuildingBlock: OJICUG_clean_linker_0, # of connection points: 2
#     Edge 54, Type (0, 0), BuildingBlock: OJICUG_clean_linker_0, # of connection points: 2
#     Edge 55, Type (0, 0), BuildingBlock: OJICUG_clean_linker_0, # of connection points: 2
#     Edge 56, Type (0, 0), BuildingBlock: OJICUG_clean_linker_0, # of connection points: 2
#     Edge 57, Type (0, 0), BuildingBlock: OJICUG_clean_linker_0, # of connection points: 2
#     Edge 58, Type (0, 0), BuildingBlock: OJICUG_clean_linker_0, # of connection points: 2
#     Edge 59, Type (0, 0), BuildingBlock: OJICUG_clean_linker_0, # of connection points: 2
#     Edge 60, Type (0, 0), BuildingBlock: OJICUG_clean_linker_0, # of connection points: 2
#     Edge 61, Type (0, 0), BuildingBlock: OJICUG_clean_linker_0, # of connection points: 2
#     Edge 62, Type (0, 0), BuildingBlock: OJICUG_clean_linker_0, # of connection points: 2
#     Edge 63, Type (0, 0), BuildingBlock: OJICUG_clean_linker_0, # of connection points: 2
# Relax obj value: 0.508
# Max RMSD: 0.258
# Mean RMSD: 0.247
data_MOF--net-whw--node1-KUMBUR_clean_sbu_1--edge1-OJICUG_clean_linker_0
_symmetry_space_group_name_H-M    P1
_symmetry_Int_Tables_number       1
_symmetry_cell_setting            triclinic
loop_
_symmetry_equiv_pos_as_xyz
'x, y, z'
_cell_length_a     31.771456
_cell_length_b     35.321242
_cell_length_c     25.001126
_cell_angle_alpha  104.19545
_cell_angle_beta   90.075172
_cell_angle_gamma 90.001548
loop_
_atom_site_label
_atom_site_type_symbol
_atom_site_fract_x
_atom_site_fract_y
_atom_site_fract_z
_atom_type_partial_charge
Tb0 Tb 0.97923 0.13915 0.19884 0.0
C1 C 0.18015 0.10496 0.16387 0.0
N2 N 0.151 0.0853 0.18652 0.0
C3 C 0.18426 0.02455 0.14384 0.0
C4 C 0.20998 0.08458 0.12583 0.0
C5 C 0.15492 0.04606 0.1808 0.0
C6 C 0.21101 0.04382 0.11495 0.0
C7 C 0.21677 0.16569 0.16607 0.0
C8 C 0.18397 0.14526 0.18486 0.0
C9 C 0.24296 0.14602 0.12297 0.0
C10 C 0.23989 0.10546 0.10329 0.0
Tb11 Tb 0.105 0.12356 0.24537 0.0
N12 N 0.15914 0.16309 0.2284 0.0
C13 C 0.22439 0.20448 0.19382 0.0
C14 C 0.17026 0.19952 0.25945 0.0
C15 C 0.20181 0.22109 0.24152 0.0
H16 H 0.13493 0.03131 0.20429 0.0
H17 H 0.2094 0.25025 0.26532 0.0
H18 H 0.9322 0.22403 0.24678 0.0
H19 H 0.91179 0.99286 0.15639 0.0
H20 H 0.1555 0.21238 0.29858 0.0
H21 H 0.24969 0.22087 0.18117 0.0
H22 H 0.96497 0.03912 0.14868 0.0
H23 H 0.18645 0.99322 0.13801 0.0
H24 H 0.26749 0.16146 0.10701 0.0
H25 H 0.26231 0.09032 0.07286 0.0
H26 H 0.8618 0.246 0.27936 0.0
H27 H 0.23435 0.0273 0.08741 0.0
H28 H 0.85664 0.01003 0.22694 0.0
N29 N 0.92293 0.16519 0.25083 0.0
C30 C 0.89465 0.13857 0.26009 0.0
C31 C 0.87093 0.21593 0.27554 0.0
C32 C 0.85416 0.15053 0.28127 0.0
C33 C 0.91154 0.20345 0.25836 0.0
C34 C 0.84213 0.18946 0.2874 0.0
N35 N 0.93831 0.08738 0.20862 0.0
C36 C 0.94101 0.04941 0.1784 0.0
C37 C 0.87343 0.07114 0.249 0.0
C38 C 0.90354 0.0988 0.24098 0.0
C39 C 0.87877 0.03211 0.22168 0.0
C40 C 0.91058 0.02203 0.18295 0.0
H41 H 0.81087 0.19938 0.30158 0.0
H42 H 0.79561 0.13204 0.31123 0.0
H43 H 0.8136 0.06254 0.28596 0.0
O44 O 0.92724 0.13775 0.14779 0.0
O45 O 0.98692 0.14897 0.29182 0.0
O46 O 0.05423 0.12641 0.3126 0.0
O47 O 0.96954 0.18752 0.16505 0.0
O48 O 0.00968 0.08851 0.14773 0.0
O49 O 0.07337 0.07251 0.18608 0.0
O50 O 0.16379 0.11961 0.28052 0.0
O51 O 0.09629 0.13742 0.16231 0.0
O52 O 0.02666 0.1496 0.13788 0.0
O53 O 0.11023 0.09315 0.30888 0.0
O54 O 0.09042 0.18558 0.27501 0.0
O55 O 0.03413 0.16057 0.24067 0.0
C56 C 0.01435 0.13836 0.32704 0.0
C57 C 0.94234 0.16548 0.0745 0.0
C58 C 0.9453 0.12528 0.98093 0.0
C59 C 0.95102 0.1588 0.96108 0.0
C60 C 0.94954 0.19845 0.05465 0.0
C61 C 0.95347 0.19538 0.9981 0.0
C62 C 0.94073 0.12862 1.0373 0.0
C63 C 0.04297 0.06605 0.14748 0.0
C64 C 0.93881 0.16948 0.1341 0.0
C65 C 0.82606 0.1231 0.29297 0.0
C66 C 0.83636 0.08353 0.27856 0.0
C67 C 0.06811 0.1476 0.12845 0.0
C68 C 0.16946 0.11262 0.3698 0.0
C69 C 0.19569 0.16451 0.44601 0.0
C70 C 0.22291 0.13748 0.46089 0.0
C71 C 0.19655 0.08613 0.38603 0.0
C72 C 0.16854 0.1519 0.40044 0.0
C73 C 0.2231 0.09853 0.43136 0.0
C74 C 0.05409 0.19303 0.25822 0.0
C75 C 0.15052 0.10026 0.31465 0.0
H76 H 0.95532 0.15643 0.91738 0.0
H77 H 0.95433 0.22592 0.08382 0.0
H78 H 0.95946 0.22117 0.98322 0.0
H79 H 0.93703 0.10231 1.05185 0.0
H80 H 0.24359 0.14649 0.49607 0.0
H81 H 0.19855 0.05613 0.36204 0.0
H82 H 0.1483 0.17273 0.38752 0.0
H83 H 0.24442 0.07804 0.44312 0.0
Tb84 Tb 0.19223 0.62385 0.4561 0.0
C85 C 0.18785 0.78762 0.4115 0.0
N86 N 0.15715 0.76021 0.40096 0.0
C87 C 0.11172 0.80195 0.46601 0.0
C88 C 0.18083 0.82424 0.44783 0.0
C89 C 0.11818 0.76822 0.42386 0.0
C90 C 0.14356 0.83005 0.47857 0.0
C91 C 0.25733 0.80812 0.39119 0.0
C92 C 0.2262 0.77895 0.38524 0.0
C93 C 0.24784 0.84643 0.42027 0.0
C94 C 0.21005 0.85425 0.44989 0.0
Tb95 Tb 0.17403 0.70265 0.34108 0.0
N96 N 0.2324 0.74256 0.35245 0.0
C97 C 0.29698 0.79787 0.36814 0.0
C98 C 0.26996 0.73373 0.32533 0.0
C99 C 0.30365 0.76004 0.33632 0.0
H100 H 0.0933 0.74733 0.41176 0.0
H101 H 0.33393 0.75205 0.31709 0.0
H102 H 0.2867 0.5916 0.46929 0.0
H103 H 0.04592 0.54356 0.40516 0.0
H104 H 0.27431 0.70671 0.29449 0.0
H105 H 0.32231 0.81904 0.37368 0.0
H106 H 0.08913 0.59876 0.45388 0.0
H107 H 0.08174 0.80707 0.48704 0.0
H108 H 0.27047 0.86974 0.42264 0.0
H109 H 0.20376 0.88354 0.47434 0.0
H110 H 0.32607 0.52852 0.44228 0.0
H111 H 0.13783 0.85719 0.50903 0.0
H112 H 0.07981 0.48235 0.35365 0.0
N113 N 0.22943 0.56678 0.43536 0.0
C114 C 0.20891 0.53403 0.40914 0.0
C115 C 0.29333 0.53007 0.43137 0.0
C116 C 0.23013 0.49837 0.38915 0.0
C117 C 0.27106 0.56534 0.44745 0.0
C118 C 0.27304 0.49665 0.4007 0.0
N119 N 0.14779 0.57103 0.42676 0.0
C120 C 0.10482 0.57305 0.43033 0.0
C121 C 0.14285 0.50352 0.37644 0.0
C122 C 0.16628 0.53635 0.40403 0.0
C123 C 0.09907 0.50674 0.37487 0.0
C124 C 0.07989 0.54131 0.40357 0.0
H125 H 0.29046 0.46962 0.38727 0.0
H126 H 0.22341 0.43842 0.34154 0.0
H127 H 0.14699 0.444 0.32768 0.0
O128 O 0.15855 0.64817 0.52978 0.0
O129 O 0.17731 0.63545 0.38134 0.0
O130 O 0.16679 0.64026 0.29878 0.0
O131 O 0.21806 0.62147 0.53346 0.0
O132 O 0.13072 0.65228 0.44907 0.0
O133 O 0.11724 0.67679 0.36878 0.0
O134 O 0.18468 0.71543 0.26316 0.0
O135 O 0.17374 0.71423 0.43284 0.0
O136 O 0.22474 0.67927 0.46597 0.0
O137 O 0.12407 0.72311 0.29814 0.0
O138 O 0.23255 0.66806 0.33716 0.0
O139 O 0.25006 0.63476 0.40838 0.0
C140 C 0.16974 0.61655 0.33112 0.0
C141 C 0.16626 0.61301 0.59933 0.0
C142 C 0.12925 0.60587 0.68447 0.0
C143 C 0.12694 0.56568 0.66038 0.0
C144 C 0.1647 0.57235 0.57938 0.0
C145 C 0.1459 0.54914 0.61004 0.0
C146 C 0.14926 0.62998 0.65329 0.0
C147 C 0.10581 0.66366 0.41265 0.0
C148 C 0.18487 0.63612 0.56184 0.0
C149 C 0.2076 0.46585 0.35901 0.0
C150 C 0.16404 0.46875 0.35175 0.0
C151 C 0.20354 0.71166 0.46899 0.0
C152 C 0.14192 0.76493 0.23737 0.0
C153 C 0.1226 0.80336 0.16804 0.0
C154 C 0.13934 0.83657 0.2048 0.0
C155 C 0.15771 0.79955 0.27149 0.0
C156 C 0.12352 0.76716 0.18515 0.0
C157 C 0.15636 0.83469 0.25554 0.0
C158 C 0.25805 0.64787 0.36263 0.0
C159 C 0.14669 0.7273 0.25666 0.0
H160 H 0.11055 0.54664 0.68095 0.0
H161 H 0.17779 0.55831 0.53943 0.0
H162 H 0.14591 0.51795 0.59451 0.0
H163 H 0.15085 0.66126 0.6701 0.0
H164 H 0.13941 0.86448 0.19402 0.0
H165 H 0.1717 0.79945 0.31069 0.0
H166 H 0.11075 0.74115 0.15794 0.0
H167 H 0.1691 0.86087 0.28275 0.0
Tb168 Tb 0.56649 0.86137 0.58459 0.0
C169 C 0.36502 0.87682 0.56998 0.0
N170 N 0.3955 0.90121 0.59682 0.0
C171 C 0.35247 0.95689 0.59544 0.0
C172 C 0.32663 0.89177 0.55626 0.0
C173 C 0.38973 0.94086 0.60986 0.0
C174 C 0.32054 0.93221 0.56909 0.0
C175 C 0.34051 0.81071 0.52976 0.0
C176 C 0.37152 0.83654 0.55804 0.0
C177 C 0.30169 0.82563 0.5182 0.0
C178 C 0.29477 0.86601 0.53232 0.0
Tb179 Tb 0.44818 0.87002 0.63009 0.0
N180 N 0.40806 0.82277 0.57433 0.0
C181 C 0.34898 0.77064 0.51535 0.0
C182 C 0.41567 0.7834 0.56256 0.0
C183 C 0.38682 0.75698 0.53164 0.0
H184 H 0.41279 0.96029 0.63389 0.0
H185 H 0.39345 0.726 0.52111 0.0
H186 H 0.62297 0.7789 0.56887 0.0
H187 H 0.57515 0.99784 0.74308 0.0
H188 H 0.44377 0.7718 0.57619 0.0
H189 H 0.32656 0.75003 0.49179 0.0
H190 H 0.54078 0.95044 0.66919 0.0
H191 H 0.34789 0.98821 0.60624 0.0
H192 H 0.2765 0.80613 0.49981 0.0
H193 H 0.26406 0.87749 0.52737 0.0
H194 H 0.69012 0.75982 0.6045 0.0
H195 H 0.29118 0.94462 0.55927 0.0
H196 H 0.64839 0.98655 0.76955 0.0
N197 N 0.62456 0.83697 0.61839 0.0
C198 C 0.64769 0.86464 0.65376 0.0
C199 C 0.6783 0.78924 0.61903 0.0
C200 C 0.6876 0.85562 0.67223 0.0
C201 C 0.63944 0.79968 0.60063 0.0
C202 C 0.70269 0.8174 0.65455 0.0
N203 N 0.59122 0.90956 0.65655 0.0
C204 C 0.57193 0.94415 0.68023 0.0
C205 C 0.65296 0.93015 0.71253 0.0
C206 C 0.63068 0.90194 0.67321 0.0
C207 C 0.63277 0.96498 0.73759 0.0
C208 C 0.59165 0.97151 0.72253 0.0
H209 H 0.73317 0.80939 0.66791 0.0
H210 H 0.74253 0.87897 0.72067 0.0
H211 H 0.71275 0.94468 0.75379 0.0
O212 O 0.60115 0.90031 0.55051 0.0
O213 O 0.55863 0.85942 0.6715 0.0
O214 O 0.49568 0.89088 0.69792 0.0
O215 O 0.61414 0.83765 0.52791 0.0
O216 O 0.52684 0.9027 0.55479 0.0
O217 O 0.47779 0.92422 0.62262 0.0
O218 O 0.41322 0.84182 0.68079 0.0
O219 O 0.45661 0.85129 0.53751 0.0
O220 O 0.52393 0.82466 0.52093 0.0
O221 O 0.40806 0.90358 0.68998 0.0
O222 O 0.48312 0.82147 0.64302 0.0
O223 O 0.53901 0.80463 0.58271 0.0
C224 C 0.53148 0.8752 0.71024 0.0
C225 C 0.66229 0.87894 0.49335 0.0
C226 C 0.69785 0.92144 0.44503 0.0
C227 C 0.72999 0.89309 0.43002 0.0
C228 C 0.69343 0.8504 0.47655 0.0
C229 C 0.72795 0.85808 0.44647 0.0
C230 C 0.66671 0.91539 0.48157 0.0
C231 C 0.49994 0.92899 0.58044 0.0
C232 C 0.62691 0.87239 0.52707 0.0
C233 C 0.71122 0.88495 0.70757 0.0
C234 C 0.69409 0.92223 0.72707 0.0
C235 C 0.48448 0.82853 0.50469 0.0
C236 C 0.40099 0.88115 0.77145 0.0
C237 C 0.3989 0.85616 0.85434 0.0
C238 C 0.40228 0.89437 0.88718 0.0
C239 C 0.40383 0.91936 0.80529 0.0
C240 C 0.39864 0.84957 0.79653 0.0
C241 C 0.40498 0.92577 0.86267 0.0
C242 C 0.51342 0.79787 0.62077 0.0
C243 C 0.39809 0.87445 0.71058 0.0
H244 H 0.75483 0.89618 0.40185 0.0
H245 H 0.69135 0.82251 0.48722 0.0
H246 H 0.75205 0.83608 0.43343 0.0
H247 H 0.643 0.93766 0.4957 0.0
H248 H 0.40243 0.89988 0.93177 0.0
H249 H 0.40524 0.94439 0.78754 0.0
H250 H 0.39539 0.82 0.77132 0.0
H251 H 0.40747 0.95524 0.88823 0.0
Tb252 Tb 0.47379 0.35425 0.91403 0.0
C253 C 0.35528 0.19189 0.8996 0.0
N254 N 0.3462 0.22995 0.90516 0.0
C255 C 0.27904 0.21242 0.86203 0.0
C256 C 0.32786 0.16216 0.87181 0.0
C257 C 0.30828 0.24077 0.88779 0.0
C258 C 0.28952 0.1729 0.85208 0.0
C259 C 0.39807 0.14448 0.92914 0.0
C260 C 0.38925 0.18343 0.9284 0.0
C261 C 0.37367 0.11411 0.89668 0.0
C262 C 0.33831 0.12299 0.8683 0.0
Tb263 Tb 0.39476 0.27475 0.94842 0.0
N264 N 0.41003 0.21391 0.96141 0.0
C265 C 0.42912 0.13757 0.96528 0.0
C266 C 0.4367 0.20743 1.00114 0.0
C267 C 0.44769 0.16925 1.00252 0.0
H268 H 0.30037 0.27138 0.89472 0.0
H269 H 0.47012 0.16429 1.03268 0.0
H270 H 0.57444 0.33563 0.89369 0.0
H271 H 0.3866 0.48337 1.00949 0.0
H272 H 0.45013 0.23162 1.03143 0.0
H273 H 0.43712 0.10808 0.96703 0.0
H274 H 0.39558 0.41266 0.98221 0.0
H275 H 0.24882 0.22108 0.84895 0.0
H276 H 0.38034 0.0839 0.89591 0.0
H277 H 0.31818 0.09956 0.84619 0.0
H278 H 0.63962 0.37496 0.90132 0.0
H279 H 0.26709 0.15104 0.8314 0.0
H280 H 0.44788 0.52701 1.01294 0.0
N281 N 0.53747 0.38258 0.93888 0.0
C282 C 0.53575 0.42154 0.96256 0.0
C283 C 0.61102 0.38801 0.92077 0.0
C284 C 0.57206 0.44518 0.96678 0.0
C285 C 0.57435 0.36562 0.91761 0.0
C286 C 0.61026 0.42762 0.94711 0.0
N287 N 0.46221 0.41492 0.97011 0.0
C288 C 0.4232 0.43061 0.98439 0.0
C289 C 0.49257 0.47946 0.99194 0.0
C290 C 0.49662 0.43847 0.97639 0.0
C291 C 0.45235 0.49563 1.00188 0.0
C292 C 0.41771 0.47109 0.99992 0.0
H293 H 0.63865 0.44485 0.94848 0.0
H294 H 0.59571 0.50456 0.98705 0.0
H295 H 0.52602 0.53455 1.00755 0.0
O296 O 0.44596 0.38472 0.86085 0.0
O297 O 0.48086 0.35764 1.00469 0.0
O298 O 0.43559 0.30878 1.02168 0.0
O299 O 0.51042 0.366 0.84981 0.0
O300 O 0.40572 0.35426 0.9193 0.0
O301 O 0.3745 0.29843 0.88049 0.0
O302 O 0.34268 0.2658 0.99403 0.0
O303 O 0.41563 0.25774 0.85814 0.0
O304 O 0.47073 0.29967 0.84672 0.0
O305 O 0.36383 0.32464 0.99697 0.0
O306 O 0.45932 0.2744 0.96926 0.0
O307 O 0.50264 0.29684 0.91045 0.0
C308 C 0.4637 0.33846 1.03935 0.0
C309 C 0.49336 0.42732 0.83284 0.0
C310 C 0.47224 0.48784 0.80977 0.0
C311 C 0.51258 0.50329 0.82492 0.0
C312 C 0.53445 0.44193 0.84291 0.0
C313 C 0.54348 0.48034 0.84134 0.0
C314 C 0.46267 0.45046 0.81691 0.0
C315 C 0.38308 0.33387 0.87894 0.0
C316 C 0.48141 0.38761 0.83604 0.0
C317 C 0.5683 0.48593 0.98442 0.0
C318 C 0.52855 0.50304 0.99559 0.0
C319 C 0.44634 0.26853 0.82771 0.0
C320 C 0.34426 0.30873 0.08146 0.0
C321 C 0.35892 0.28216 0.16174 0.0
C322 C 0.35921 0.32044 0.19497 0.0
C323 C 0.34329 0.34651 0.11602 0.0
C324 C 0.35144 0.27669 0.10498 0.0
C325 C 0.35083 0.35227 0.17254 0.0
C326 C 0.49018 0.26957 0.93492 0.0
C327 C 0.34096 0.30239 1.02073 0.0
H328 H 0.52119 0.53189 0.82011 0.0
H329 H 0.55956 0.42377 0.85163 0.0
H330 H 0.57502 0.49173 0.85041 0.0
H331 H 0.43222 0.43723 0.80518 0.0
H332 H 0.36656 0.32567 0.23808 0.0
H333 H 0.33783 0.37155 0.09915 0.0
H334 H 0.3531 0.24735 0.0788 0.0
H335 H 0.35095 0.38156 0.19893 0.0
Tb336 Tb 0.97974 0.87595 0.89891 0.0
C337 C 0.18176 0.90071 0.93283 0.0
N338 N 0.15029 0.9189 0.91162 0.0
C339 C 0.18084 0.98139 0.95274 0.0
C340 C 0.21226 0.92261 0.96835 0.0
C341 C 0.15115 0.95853 0.9179 0.0
C342 C 0.21106 0.96338 0.97878 0.0
C343 C 0.21911 0.84087 0.93472 0.0
C344 C 0.18586 0.86011 0.91494 0.0
C345 C 0.24732 0.86247 0.9738 0.0
C346 C 0.2442 0.90324 0.99008 0.0
Tb347 Tb 0.10486 0.877 0.856 0.0
N348 N 0.15889 0.83993 0.87554 0.0
C349 C 0.22376 0.80061 0.91341 0.0
C350 C 0.16566 0.80126 0.85144 0.0
C351 C 0.19753 0.78089 0.87089 0.0
H352 H 0.12799 0.97242 0.89727 0.0
H353 H 0.20213 0.75005 0.8527 0.0
H354 H 0.95452 0.78162 0.82722 0.0
H355 H 0.89349 0.00639 0.94292 0.0
H356 H 0.14724 0.78607 0.81647 0.0
H357 H 0.24822 0.78461 0.92828 0.0
H358 H 0.95686 0.96899 0.90574 0.0
H359 H 0.18068 0.01283 0.95912 0.0
H360 H 0.27272 0.84807 0.99001 0.0
H361 H 0.26743 0.91962 1.01824 0.0
H362 H 0.8884 0.74457 0.81503 0.0
H363 H 0.23463 0.98103 1.00464 0.0
H364 H 0.82525 0.97257 0.93784 0.0
N365 N 0.92476 0.83725 0.85527 0.0
C366 C 0.88731 0.85635 0.85973 0.0
C367 C 0.88784 0.77609 0.8268 0.0
C368 C 0.84863 0.83606 0.85087 0.0
C369 C 0.92544 0.79752 0.83535 0.0
C370 C 0.8493 0.79538 0.83444 0.0
N371 N 0.92563 0.91474 0.88509 0.0
C372 C 0.92736 0.95433 0.90263 0.0
C373 C 0.85004 0.91719 0.89227 0.0
C374 C 0.8878 0.89644 0.87739 0.0
C375 C 0.85264 0.95674 0.91889 0.0
C376 C 0.89128 0.97571 0.9226 0.0
H377 H 0.82036 0.77862 0.82802 0.0
H378 H 0.78069 0.84177 0.85593 0.0
H379 H 0.78209 0.91286 0.89522 0.0
O380 O 0.96233 0.91173 0.97514 0.0
O381 O 0.98446 0.88635 0.81449 0.0
O382 O 0.05549 0.87335 0.78831 0.0
O383 O 0.94041 0.85166 0.94954 0.0
O384 O 0.01568 0.9301 0.91059 0.0
O385 O 0.08331 0.91979 0.93029 0.0
O386 O 0.16015 0.86949 0.81187 0.0
O387 O 0.09727 0.85615 0.93203 0.0
O388 O 0.02587 0.85592 0.95565 0.0
O389 O 0.11523 0.91376 0.801 0.0
O390 O 0.08116 0.81738 0.83192 0.0
O391 O 0.01161 0.82916 0.84 0.0
C392 C 0.01503 0.87951 0.77644 0.0
C393 C 0.94669 0.87998 1.04598 0.0
C394 C 0.95988 0.91124 0.14254 0.0
C395 C 0.95139 0.87589 0.15654 0.0
C396 C 0.93757 0.84483 0.06053 0.0
C397 C 0.94061 0.84277 0.11555 0.0
C398 C 0.95778 0.91306 0.0874 0.0
C399 C 0.04787 0.93814 0.94419 0.0
C400 C 0.94128 0.88369 0.98898 0.0
C401 C 0.81067 0.85687 0.86195 0.0
C402 C 0.81141 0.89732 0.88401 0.0
C403 C 0.06663 0.85037 0.96517 0.0
C404 C 0.17041 0.89137 0.73299 0.0
C405 C 0.20014 0.84345 0.65486 0.0
C406 C 0.23113 0.87081 0.6503 0.0
C407 C 0.2001 0.91888 0.72526 0.0
C408 C 0.16943 0.85406 0.69634 0.0
C409 C 0.23044 0.90854 0.68413 0.0
C410 C 0.04379 0.80767 0.84591 0.0
C411 C 0.15239 0.89762 0.78822 0.0
H412 H 0.95365 0.87381 0.19899 0.0
H413 H 0.92842 0.81897 1.02948 0.0
H414 H 0.93457 0.81555 0.12668 0.0
H415 H 0.96392 0.94064 0.07711 0.0
H416 H 0.25593 0.86298 0.62055 0.0
H417 H 0.2021 0.94731 0.75402 0.0
H418 H 0.14706 0.83246 0.70293 0.0
H419 H 0.25453 0.92928 0.67989 0.0
Tb420 Tb 0.47246 0.64972 0.18665 0.0
C421 C 0.35941 0.81448 0.19926 0.0
N422 N 0.34925 0.77682 0.19503 0.0
C423 C 0.283 0.79665 0.23914 0.0
C424 C 0.33316 0.84519 0.22698 0.0
C425 C 0.31122 0.76732 0.2136 0.0
C426 C 0.29472 0.83581 0.24787 0.0
C427 C 0.40324 0.85998 0.16725 0.0
C428 C 0.3932 0.82152 0.16922 0.0
C429 C 0.38013 0.89133 0.19962 0.0
C430 C 0.34481 0.8839 0.22919 0.0
Tb431 Tb 0.39582 0.73022 0.15143 0.0
N432 N 0.41264 0.79014 0.13643 0.0
C433 C 0.43417 0.86544 0.13013 0.0
C434 C 0.43937 0.79524 0.09604 0.0
C435 C 0.45151 0.83288 0.09333 0.0
H436 H 0.30235 0.737 0.20759 0.0
H437 H 0.47394 0.83674 0.06256 0.0
H438 H 0.57189 0.6735 0.19072 0.0
H439 H 0.38986 0.51294 0.13355 0.0
H440 H 0.45203 0.77035 0.06633 0.0
H441 H 0.44309 0.89452 0.1274 0.0
H442 H 0.39391 0.58355 0.15023 0.0
H443 H 0.2526 0.78902 0.25298 0.0
H444 H 0.38775 0.9212 0.19946 0.0
H445 H 0.32563 0.90807 0.25123 0.0
H446 H 0.63881 0.63741 0.18633 0.0
H447 H 0.27311 0.85845 0.26846 0.0
H448 H 0.45468 0.47326 0.12152 0.0
N449 N 0.53573 0.62286 0.15673 0.0
C450 C 0.53552 0.58316 0.13937 0.0
C451 C 0.61041 0.62221 0.16954 0.0
C452 C 0.5734 0.56163 0.13503 0.0
C453 C 0.57249 0.64259 0.17149 0.0
C454 C 0.6112 0.58184 0.14903 0.0
N455 N 0.46112 0.58553 0.14358 0.0
C456 C 0.42283 0.5674 0.14194 0.0
C457 C 0.49577 0.52286 0.12628 0.0
C458 C 0.49701 0.56387 0.13419 0.0
C459 C 0.45683 0.50459 0.12685 0.0
C460 C 0.42019 0.52688 0.13348 0.0
H461 H 0.64071 0.56634 0.14832 0.0
H462 H 0.60086 0.50384 0.12104 0.0
H463 H 0.53292 0.46996 0.11426 0.0
O464 O 0.44596 0.62668 0.24803 0.0
O465 O 0.47536 0.64344 0.09433 0.0
O466 O 0.43621 0.69635 0.07771 0.0
O467 O 0.51318 0.63542 0.24526 0.0
O468 O 0.40489 0.64954 0.17683 0.0
O469 O 0.37506 0.70571 0.218 0.0
O470 O 0.3428 0.73932 0.1074 0.0
O471 O 0.41514 0.74756 0.24184 0.0
O472 O 0.46763 0.70399 0.25604 0.0
O473 O 0.3631 0.68061 0.10565 0.0
O474 O 0.46116 0.72892 0.13137 0.0
O475 O 0.50159 0.7066 0.19297 0.0
C476 C 0.46107 0.66423 0.05968 0.0
C477 C 0.48875 0.58023 0.27409 0.0
C478 C 0.46476 0.53591 0.32707 0.0
C479 C 0.50261 0.51467 0.3153 0.0
C480 C 0.52735 0.56035 0.26455 0.0
C481 C 0.53317 0.52617 0.2823 0.0
C482 C 0.45636 0.56515 0.29986 0.0
C483 C 0.3818 0.66954 0.21699 0.0
C484 C 0.48266 0.61974 0.26678 0.0
C485 C 0.5721 0.52072 0.12401 0.0
C486 C 0.5334 0.50144 0.1206 0.0
C487 C 0.44388 0.73591 0.27403 0.0
C488 C 0.34479 0.69561 1.02132 0.0
C489 C 0.36994 0.72361 0.94712 0.0
C490 C 0.38151 0.68581 0.91773 0.0
C491 C 0.35333 0.65795 0.98926 0.0
C492 C 0.35032 0.7279 0.99815 0.0
C493 C 0.37144 0.65316 0.93733 0.0
C494 C 0.49128 0.73346 0.16711 0.0
C495 C 0.34029 0.7026 0.08155 0.0
H496 H 0.51091 0.49276 0.33692 0.0
H497 H 0.55343 0.57196 0.24591 0.0
H498 H 0.56306 0.51103 0.27548 0.0
H499 H 0.42747 0.58193 0.30881 0.0
H500 H 0.39992 0.68113 0.88095 0.0
H501 H 0.34908 0.63266 1.00597 0.0
H502 H 0.34311 0.75718 1.02195 0.0
H503 H 0.3803 0.62428 0.91377 0.0
Tb504 Tb 0.57138 0.1513 0.52808 0.0
C505 C 0.36998 0.16152 0.54057 0.0
N506 N 0.39353 0.12989 0.51654 0.0
C507 C 0.33737 0.08709 0.5273 0.0
C508 C 0.32855 0.15703 0.55798 0.0
C509 C 0.37804 0.09301 0.50993 0.0
C510 C 0.31228 0.11924 0.55064 0.0
C511 C 0.36322 0.2319 0.57209 0.0
C512 C 0.3865 0.19868 0.54493 0.0
C513 C 0.32256 0.22737 0.59098 0.0
C514 C 0.30442 0.19033 0.5805 0.0
Tb515 Tb 0.45235 0.14312 0.47363 0.0
N516 N 0.42473 0.20223 0.5219 0.0
C517 C 0.38066 0.26889 0.57752 0.0
C518 C 0.4412 0.23877 0.52621 0.0
C519 C 0.41984 0.27228 0.55451 0.0
H520 H 0.3958 0.06823 0.48776 0.0
H521 H 0.43338 0.30087 0.55758 0.0
H522 H 0.62291 0.23584 0.54697 0.0
H523 H 0.60481 0.00862 0.39546 0.0
H524 H 0.47038 0.24358 0.50821 0.0
H525 H 0.36374 0.295 0.59826 0.0
H526 H 0.56334 0.05598 0.45999 0.0
H527 H 0.32487 0.0578 0.52081 0.0
H528 H 0.30431 0.25249 0.61203 0.0
H529 H 0.27149 0.1881 0.58922 0.0
H530 H 0.69126 0.25902 0.51975 0.0
H531 H 0.28032 0.11442 0.56211 0.0
H532 H 0.67667 0.02518 0.37007 0.0
N533 N 0.63305 0.17683 0.50417 0.0
C534 C 0.66009 0.15058 0.47305 0.0
C535 C 0.68282 0.22848 0.50612 0.0
C536 C 0.6996 0.16242 0.45704 0.0
C537 C 0.64395 0.21543 0.52076 0.0
C538 C 0.71084 0.20184 0.47426 0.0
N539 N 0.60867 0.10172 0.47051 0.0
C540 C 0.59438 0.06428 0.45102 0.0
C541 C 0.67376 0.08433 0.42052 0.0
C542 C 0.64777 0.11177 0.45609 0.0
C543 C 0.65839 0.04657 0.39923 0.0
C544 C 0.61825 0.03684 0.41386 0.0
H545 H 0.74099 0.21198 0.46302 0.0
H546 H 0.75691 0.14328 0.41141 0.0
H547 H 0.73382 0.07506 0.37829 0.0
O548 O 0.5789 0.12645 0.5954 0.0
O549 O 0.56957 0.13401 0.43757 0.0
O550 O 0.50036 0.12419 0.40564 0.0
O551 O 0.61654 0.17559 0.58835 0.0
O552 O 0.53391 0.10264 0.54282 0.0
O553 O 0.47403 0.08754 0.48793 0.0
O554 O 0.40606 0.16159 0.42541 0.0
O555 O 0.46308 0.15547 0.56519 0.0
O556 O 0.52307 0.19229 0.57301 0.0
O557 O 0.42029 0.10058 0.41385 0.0
O558 O 0.49165 0.18286 0.44427 0.0
O559 O 0.54406 0.2031 0.50886 0.0
C560 C 0.54193 0.12395 0.39727 0.0
C561 C 0.65028 0.12501 0.61902 0.0
C562 C 0.6806 0.07302 0.6562 0.0
C563 C 0.7194 0.07859 0.63167 0.0
C564 C 0.6897 0.13158 0.59776 0.0
C565 C 0.7238 0.10779 0.60301 0.0
C566 C 0.64603 0.09568 0.64695 0.0
C567 C 0.50219 0.0795 0.52231 0.0
C568 C 0.61233 0.1474 0.61256 0.0
C569 C 0.7264 0.13474 0.42388 0.0
C570 C 0.71336 0.09585 0.40528 0.0
C571 C 0.48877 0.18178 0.5958 0.0
C572 C 0.40042 0.12163 0.33411 0.0
C573 C 0.39231 0.14895 0.25353 0.0
C574 C 0.39853 0.11156 0.21889 0.0
C575 C 0.40642 0.08448 0.29849 0.0
C576 C 0.39321 0.15371 0.3111 0.0
C577 C 0.40563 0.07961 0.24134 0.0
C578 C 0.52611 0.20248 0.461 0.0
C579 C 0.39988 0.12649 0.3948 0.0
H580 H 0.74698 0.06178 0.63635 0.0
H581 H 0.69428 0.15483 0.57716 0.0
H582 H 0.75408 0.11269 0.58604 0.0
H583 H 0.6154 0.09288 0.66421 0.0
H584 H 0.39816 0.1071 0.17445 0.0
H585 H 0.41151 0.0591 0.31473 0.0
H586 H 0.38725 0.18227 0.33783 0.0
H587 H 0.41037 0.0509 0.21432 0.0
Tb588 Tb 0.18647 0.38439 0.65024 0.0
C589 C 0.19207 0.2147 0.68226 0.0
N590 N 0.16088 0.2416 0.69425 0.0
C591 C 0.11593 0.20049 0.62753 0.0
C592 C 0.18577 0.17872 0.6438 0.0
C593 C 0.12192 0.2335 0.67105 0.0
C594 C 0.14833 0.17309 0.6133 0.0
C595 C 0.26177 0.19434 0.7022 0.0
C596 C 0.23018 0.22318 0.70925 0.0
C597 C 0.25352 0.15662 0.66957 0.0
C598 C 0.21613 0.1492 0.63882 0.0
Tb599 Tb 0.17713 0.29842 0.75684 0.0
N600 N 0.23578 0.25914 0.74362 0.0
C601 C 0.30083 0.20439 0.72741 0.0
C602 C 0.27303 0.26803 0.77143 0.0
C603 C 0.30679 0.2418 0.76101 0.0
H604 H 0.09663 0.25394 0.6837 0.0
H605 H 0.33662 0.2496 0.78166 0.0
H606 H 0.27743 0.43149 0.65588 0.0
H607 H 0.02881 0.44532 0.68306 0.0
H608 H 0.27686 0.29499 0.80265 0.0
H609 H 0.32634 0.18343 0.72166 0.0
H610 H 0.08198 0.39833 0.63581 0.0
H611 H 0.08597 0.19554 0.6063 0.0
H612 H 0.27686 0.13372 0.66536 0.0
H613 H 0.21095 0.12063 0.61149 0.0
H614 H 0.30461 0.49808 0.70205 0.0
H615 H 0.14304 0.1466 0.58136 0.0
H616 H 0.05098 0.50558 0.75124 0.0
N617 N 0.21502 0.44508 0.68443 0.0
C618 C 0.18862 0.47305 0.71251 0.0
C619 C 0.27236 0.49038 0.70645 0.0
C620 C 0.2035 0.50959 0.7428 0.0
C621 C 0.25657 0.45338 0.67983 0.0
C622 C 0.24609 0.51807 0.73947 0.0
N623 N 0.13392 0.42964 0.68001 0.0
C624 C 0.09222 0.42369 0.66668 0.0
C625 C 0.11739 0.49261 0.73916 0.0
C626 C 0.14644 0.46487 0.71057 0.0
C627 C 0.07443 0.4848 0.73067 0.0
C628 C 0.06185 0.45076 0.69255 0.0
H629 H 0.2588 0.54612 0.76115 0.0
H630 H 0.18657 0.56364 0.80105 0.0
H631 H 0.11061 0.54808 0.79865 0.0
O632 O 0.15963 0.35748 0.57254 0.0
O633 O 0.17679 0.36824 0.72334 0.0
O634 O 0.16919 0.3592 0.80445 0.0
O635 O 0.20689 0.40101 0.57838 0.0
O636 O 0.12837 0.35094 0.65501 0.0
O637 O 0.11855 0.32425 0.73359 0.0
O638 O 0.18951 0.28311 0.83284 0.0
O639 O 0.17458 0.29016 0.66549 0.0
O640 O 0.22139 0.32967 0.63269 0.0
O641 O 0.12825 0.27643 0.79946 0.0
O642 O 0.23517 0.33422 0.75911 0.0
O643 O 0.24706 0.37403 0.69368 0.0
C644 C 0.16958 0.38454 0.77464 0.0
C645 C 0.14985 0.40116 0.51459 0.0
C646 C 0.10647 0.40644 0.43292 0.0
C647 C 0.09189 0.44264 0.46468 0.0
C648 C 0.13362 0.43728 0.54329 0.0
C649 C 0.10485 0.45746 0.51879 0.0
C650 C 0.13623 0.3856 0.45853 0.0
C651 C 0.10508 0.3402 0.69318 0.0
C652 C 0.17843 0.38013 0.54622 0.0
C653 C 0.17538 0.53616 0.77544 0.0
C654 C 0.1323 0.52736 0.77421 0.0
C655 C 0.20178 0.29612 0.62802 0.0
C656 C 0.1468 0.23307 0.8577 0.0
C657 C 0.12959 0.19303 0.92599 0.0
C658 C 0.14199 0.15982 0.88545 0.0
C659 C 0.15817 0.19837 0.81988 0.0
C660 C 0.13171 0.2302 0.91134 0.0
C661 C 0.15575 0.16245 0.83349 0.0
C662 C 0.25819 0.35764 0.73568 0.0
C663 C 0.1516 0.27127 0.83989 0.0
H664 H 0.07033 0.46033 0.44769 0.0
H665 H 0.14306 0.44995 0.58541 0.0
H666 H 0.09209 0.48498 0.54195 0.0
H667 H 0.14799 0.35751 0.43572 0.0
H668 H 0.14063 0.13115 0.89379 0.0
H669 H 0.16927 0.19895 0.77935 0.0
H670 H 0.12249 0.25648 0.94139 0.0
H671 H 0.16483 0.13617 0.80329 0.0
Tb672 Tb 0.97206 0.15125 0.68998 0.0
C673 C 0.859 0.31832 0.71293 0.0
N674 N 0.84754 0.28065 0.7062 0.0
C675 C 0.78166 0.30087 0.75093 0.0
C676 C 0.83354 0.34905 0.7424 0.0
C677 C 0.809 0.27137 0.72351 0.0
C678 C 0.79467 0.33983 0.7624 0.0
C679 C 0.90397 0.36441 0.68362 0.0
C680 C 0.89309 0.32571 0.68333 0.0
C681 C 0.88168 0.39551 0.71786 0.0
C682 C 0.84622 0.38781 0.74696 0.0
Tb683 Tb 0.89216 0.23431 0.6579 0.0
N684 N 0.91171 0.29475 0.64843 0.0
C685 C 0.93466 0.37048 0.64652 0.0
C686 C 0.93785 0.30059 0.60797 0.0
C687 C 0.95077 0.33844 0.60745 0.0
H688 H 0.79903 0.2412 0.71502 0.0
H689 H 0.97282 0.3429 0.5766 0.0
H690 H 0.07171 0.17388 0.70613 0.0
H691 H 0.88833 0.0178 0.61218 0.0
H692 H 0.94934 0.27604 0.57658 0.0
H693 H 0.94416 0.39975 0.64546 0.0
H694 H 0.89416 0.08892 0.63609 0.0
H695 H 0.75089 0.29351 0.76401 0.0
H696 H 0.88994 0.42551 0.71938 0.0
H697 H 0.82761 0.41195 0.77033 0.0
H698 H 0.13804 0.13679 0.70081 0.0
H699 H 0.77369 0.36256 0.7843 0.0
H700 H 0.95227 0.97694 0.60348 0.0
N701 N 0.03616 0.12529 0.66238 0.0
C702 C 0.03574 0.08604 0.64028 0.0
C703 C 0.11002 0.12265 0.68086 0.0
C704 C 0.0731 0.06379 0.63633 0.0
C705 C 0.07255 0.14374 0.68293 0.0
C706 C 0.11073 0.0829 0.6554 0.0
N707 N 0.96147 0.08945 0.63767 0.0
C708 C 0.92273 0.07205 0.62956 0.0
C709 C -0.00518 0.02623 0.61662 0.0
C710 C -0.00296 0.06738 0.62929 0.0
C711 C 0.95524 0.00843 0.61192 0.0
C712 C 0.9191 0.03139 0.61675 0.0
H713 H 0.13979 0.06673 0.65473 0.0
H714 H 0.09935 0.00538 0.61759 0.0
H715 H 0.03081 0.97257 0.60175 0.0
O716 O 0.94678 0.11862 0.74207 0.0
O717 O 0.97486 0.14688 0.59881 0.0
O718 O 0.93074 0.19755 0.58449 0.0
O719 O 0.01029 0.1408 0.75351 0.0
O720 O 0.90457 0.1537 0.68252 0.0
O721 O 0.86994 0.20749 0.72161 0.0
O722 O 0.84286 0.25099 0.61382 0.0
O723 O 0.91385 0.25002 0.74736 0.0
O724 O 0.96584 0.20485 0.75906 0.0
O725 O 0.85538 0.18963 0.60712 0.0
O726 O 0.95683 0.22935 0.63692 0.0
O727 O 0.00172 0.20787 0.69408 0.0
C728 C 0.95717 0.16671 0.56527 0.0
C729 C -0.00079 0.07667 0.76324 0.0
C730 C 0.98394 0.01938 0.79462 0.0
C731 C 0.0258 0.00639 0.78462 0.0
C732 C 0.04244 0.06787 0.76322 0.0
C733 C 0.05532 0.03115 0.76904 0.0
C734 C 0.9704 0.04802 0.76829 0.0
C735 C 0.88177 0.1729 0.72354 0.0
C736 C 0.98341 0.11624 0.76472 0.0
C737 C 0.07105 0.02288 0.62026 0.0
C738 C 0.03197 0.00416 0.61165 0.0
C739 C 0.9433 0.23736 0.77767 0.0
C740 C 0.84293 0.21088 0.52454 0.0
C741 C 0.8673 0.23905 0.449 0.0
C742 C 0.86987 0.20087 0.41554 0.0
C743 C 0.84291 0.17364 0.4886 0.0
C744 C 0.85384 0.24357 0.50385 0.0
C745 C 0.85655 0.16872 0.43439 0.0
C746 C 0.9872 0.23551 0.67208 0.0
C747 C 0.83714 0.21543 0.5846 0.0
H748 H 0.03703 0.98172 0.79918 0.0
H749 H 0.066 0.08915 0.75951 0.0
H750 H 0.08842 0.02373 0.76729 0.0
H751 H 0.93722 0.0549 0.76751 0.0
H752 H 0.88385 0.19552 0.37551 0.0
H753 H 0.83454 0.14819 0.50321 0.0
H754 H 0.85421 0.27247 0.53135 0.0
H755 H 0.85861 0.13965 0.40755 0.0
Tb756 Tb 0.69427 0.88278 0.14974 0.0
C757 C 0.70637 0.71177 0.1701 0.0
N758 N 0.67575 0.73915 0.18377 0.0
C759 C 0.62802 0.69845 0.12062 0.0
C760 C 0.69821 0.67566 0.13281 0.0
C761 C 0.63601 0.73189 0.16263 0.0
C762 C 0.65953 0.67032 0.10511 0.0
C763 C 0.77635 0.68981 0.1866 0.0
C764 C 0.74555 0.71941 0.19518 0.0
C765 C 0.7665 0.65238 0.15451 0.0
C766 C 0.7279 0.64557 0.12652 0.0
Tb767 Tb 0.69404 0.79293 0.2501 0.0
N768 N 0.75249 0.75475 0.23064 0.0
C769 C 0.81552 0.69825 0.21228 0.0
C770 C 0.78925 0.76165 0.25986 0.0
C771 C 0.82212 0.73458 0.24862 0.0
H772 H 0.61108 0.75259 0.1764 0.0
H773 H 0.85148 0.74078 0.27089 0.0
H774 H 0.78545 0.91204 0.11615 0.0
H775 H 0.55651 0.96581 0.24028 0.0
H776 H 0.79303 0.78757 0.29304 0.0
H777 H 0.84024 0.67648 0.20593 0.0
H778 H 0.59271 0.90929 0.18331 0.0
H779 H 0.59731 0.69394 0.10129 0.0
H780 H 0.78902 0.62876 0.14987 0.0
H781 H 0.72107 0.61684 0.10067 0.0
H782 H 0.82494 0.97425 0.12936 0.0
H783 H 0.65277 0.64361 0.07424 0.0
H784 H 0.59543 0.02713 0.27859 0.0
N785 N 0.73291 0.9385 0.16304 0.0
C786 C 0.71531 0.97185 0.19285 0.0
C787 C 0.79428 0.9739 0.14806 0.0
C788 C 0.73706 0.00763 0.20354 0.0
C789 C 0.77195 0.93884 0.1406 0.0
C790 C 0.77669 0.00848 0.17966 0.0
N791 N 0.65379 0.93585 0.19306 0.0
C792 C 0.61119 0.93473 0.20126 0.0
C793 C 0.65442 0.00414 0.24099 0.0
C794 C 0.67444 0.9703 0.20969 0.0
C795 C 0.61196 1.00187 0.25437 0.0
C796 C 0.58996 0.96732 0.23291 0.0
H797 H 0.79354 0.03572 0.18453 0.0
H798 H 0.73451 0.06904 0.24605 0.0
H799 H 0.66253 0.06545 0.28093 0.0
O800 O 0.65613 0.85484 0.08153 0.0
O801 O 0.6901 0.86335 0.22113 0.0
O802 O 0.68322 0.85244 0.30133 0.0
O803 O 0.70357 0.89461 0.07128 0.0
O804 O 0.6352 0.85498 0.16794 0.0
O805 O 0.63254 0.81777 0.23707 0.0
O806 O 0.70586 0.78447 0.33102 0.0
O807 O 0.68869 0.79265 0.16067 0.0
O808 O 0.73266 0.83087 0.12334 0.0
O809 O 0.65889 0.75175 0.28069 0.0
O810 O 0.75208 0.82801 0.24889 0.0
O811 O 0.7568 0.87328 0.18988 0.0
C812 C 0.68409 0.87878 0.27291 0.0
C813 C 0.63984 0.89503 1.01972 0.0
C814 C 0.59439 0.90232 0.94058 0.0
C815 C 0.57963 0.9376 0.97494 0.0
C816 C 0.62329 0.93025 1.05101 0.0
C817 C 0.5935 0.951 1.02901 0.0
C818 C 0.62537 0.88098 0.96367 0.0
C819 C 0.61568 0.83631 0.20141 0.0
C820 C 0.67136 0.87421 1.04789 0.0
C821 C 0.71804 0.04133 0.23628 0.0
C822 C 0.677 0.03937 0.25592 0.0
C823 C 0.71899 0.7961 0.12555 0.0
C824 C 0.65083 0.75579 0.3771 0.0
C825 C 0.62221 0.72549 0.45169 0.0
C826 C 0.59071 0.75425 0.45987 0.0
C827 C 0.6183 0.78303 0.38839 0.0
C828 C 0.65303 0.72655 0.4093 0.0
C829 C 0.58862 0.78194 0.42848 0.0
C830 C 0.77202 0.8541 0.22692 0.0
C831 C 0.67826 0.75663 0.32761 0.0
H832 H 0.55735 0.9558 0.96008 0.0
H833 H 0.63363 0.94205 0.09295 0.0
H834 H 0.58098 0.97802 0.05415 0.0
H835 H 0.63762 0.85372 0.93886 0.0
H836 H 0.56729 0.75538 0.49154 0.0
H837 H 0.61517 0.80498 0.36496 0.0
H838 H 0.67736 0.70445 0.40028 0.0
H839 H 0.5638 0.80336 0.4352 0.0
Tb840 Tb 0.69447 0.12825 0.96192 0.0
C841 C 0.68821 0.2929 0.92289 0.0
N842 N 0.65828 0.26489 0.90972 0.0
C843 C 0.61005 0.30502 0.97242 0.0
C844 C 0.6797 0.32892 0.96012 0.0
C845 C 0.61849 0.27178 0.93027 0.0
C846 C 0.64116 0.33362 0.98806 0.0
C847 C 0.75761 0.31544 0.9064 0.0
C848 C 0.72726 0.28547 0.89839 0.0
C849 C 0.74694 0.35316 0.93674 0.0
C850 C 0.70888 0.35946 0.96593 0.0
Tb851 Tb 0.67773 0.20813 0.84969 0.0
N852 N 0.73489 0.24948 0.86522 0.0
C853 C 0.79766 0.3066 0.88375 0.0
C854 C 0.77303 0.24189 0.83926 0.0
C855 C 0.80567 0.26925 0.85112 0.0
H856 H 0.59442 0.25033 0.91633 0.0
H857 H 0.83613 0.26232 0.83196 0.0
H858 H 0.79449 0.09908 0.95337 0.0
H859 H 0.55065 0.04286 0.93447 0.0
H860 H 0.77853 0.21522 0.80813 0.0
H861 H 0.82227 0.32851 0.89033 0.0
H862 H 0.59396 0.1008 0.97153 0.0
H863 H 0.5793 0.3092 0.99155 0.0
H864 H 0.76893 0.37709 0.94034 0.0
H865 H 0.70197 0.38813 0.99196 0.0
H866 H 0.83358 0.04126 0.90164 0.0
H867 H 0.63413 0.36018 1.01906 0.0
H868 H 0.58396 0.98128 0.88336 0.0
N869 N 0.73428 0.07314 0.93155 0.0
C870 C 0.71326 0.03959 0.90942 0.0
C871 C 0.79971 0.04056 0.90355 0.0
C872 C 0.73457 0.00508 0.88346 0.0
C873 C 0.77729 0.07332 0.93231 0.0
C874 C 0.77805 0.00669 0.87744 0.0
N875 N 0.65138 0.07434 0.93635 0.0
C876 C 0.60909 0.07499 0.94711 0.0
C877 C 0.64686 0.00541 0.89322 0.0
C878 C 0.67024 0.04001 0.91277 0.0
C879 C 0.60316 0.00695 0.89906 0.0
C880 C 0.58427 0.04173 0.92732 0.0
H881 H 0.79518 0.98158 0.85403 0.0
H882 H 0.72786 0.94327 0.84568 0.0
H883 H 0.65067 0.94351 0.8543 0.0
O884 O 0.6612 0.15162 1.03631 0.0
O885 O 0.68119 0.14003 0.88701 0.0
O886 O 0.673 0.14598 0.80476 0.0
O887 O 0.71777 0.11913 1.03705 0.0
O888 O 0.63119 0.1514 0.94855 0.0
O889 O 0.62032 0.1809 0.87252 0.0
O890 O 0.62788 0.22424 0.80269 0.0
O891 O 0.67225 0.2166 0.94114 0.0
O892 O 0.723 0.18609 0.98149 0.0
O893 O 0.69055 0.22499 0.77513 0.0
O894 O 0.73621 0.17371 0.8447 0.0
O895 O 0.75295 0.14565 0.92109 0.0
C896 C 0.67505 0.12165 0.83626 0.0
C897 C 0.66257 0.10959 0.09823 0.0
C898 C 0.61815 0.09941 0.17604 0.0
C899 C 0.61887 0.05921 0.15093 0.0
C900 C 0.66293 0.069 0.07665 0.0
C901 C 0.6419 0.0443 0.10309 0.0
C902 C 0.64066 0.12489 0.14927 0.0
C903 C 0.60744 0.16446 0.91257 0.0
C904 C 0.68487 0.13447 0.06581 0.0
C905 C 0.71182 0.97035 0.86425 0.0
C906 C 0.66795 0.97044 0.86937 0.0
C907 C 0.70162 0.21761 0.97922 0.0
C908 C 0.64282 0.26956 0.7468 0.0
C909 C 0.62465 0.30657 0.67611 0.0
C910 C 0.62796 0.34117 0.71785 0.0
C911 C 0.64536 0.30531 0.78629 0.0
C912 C 0.63206 0.27031 0.69101 0.0
C913 C 0.63804 0.34052 0.77193 0.0
C914 C 0.76159 0.15586 0.8734 0.0
C915 C 0.65173 0.23229 0.76473 0.0
H916 H 0.6024 0.03879 0.16931 0.0
H917 H 0.67964 0.05606 1.03886 0.0
H918 H 0.64369 0.01317 0.08629 0.0
H919 H 0.64065 0.15606 0.1674 0.0
H920 H 0.62264 0.36918 0.70851 0.0
H921 H 0.65314 0.30613 0.82858 0.0
H922 H 0.63001 0.2432 0.65964 0.0
H923 H 0.64039 0.36778 0.80299 0.0
Tb924 Tb 0.97685 0.85258 0.40973 0.0
C925 C 0.86493 0.68748 0.39488 0.0
N926 N 0.85242 0.7246 0.39871 0.0
C927 C 0.79014 0.70132 0.34673 0.0
C928 C 0.84183 0.6555 0.36393 0.0
C929 C 0.81489 0.73209 0.37678 0.0
C930 C 0.80439 0.66289 0.33863 0.0
C931 C 0.90941 0.64395 0.43052 0.0
C932 C 0.89786 0.68194 0.42789 0.0
C933 C 0.88931 0.61162 0.39571 0.0
C934 C 0.85537 0.61741 0.36256 0.0
Tb935 Tb 0.89445 0.77289 0.44799 0.0
N936 N 0.91481 0.71402 0.46247 0.0
C937 C 0.93867 0.63981 0.47058 0.0
C938 C 0.93985 0.71013 0.50517 0.0
C939 C 0.95303 0.67304 0.50907 0.0
H940 H 0.80383 0.7618 0.38301 0.0
H941 H 0.97408 0.67011 0.54187 0.0
H942 H 0.07474 0.82892 0.38332 0.0
H943 H 0.89783 0.98877 0.49092 0.0
H944 H 0.95038 0.73568 0.53566 0.0
H945 H 0.94853 0.61115 0.47405 0.0
H946 H 0.90175 0.91752 0.46525 0.0
H947 H 0.76036 0.70727 0.32936 0.0
H948 H 0.89817 0.58213 0.3964 0.0
H949 H 0.83856 0.59233 0.33825 0.0
H950 H 0.14106 0.86472 0.38163 0.0
H951 H 0.78534 0.63915 0.31502 0.0
H952 H 0.96266 0.02829 0.49763 0.0
N953 N 0.04207 0.87803 0.43106 0.0
C954 C 0.04296 0.91734 0.4525 0.0
C955 C 0.11443 0.87943 0.40443 0.0
C956 C 0.08059 0.93882 0.45313 0.0
C957 C 0.07692 0.85909 0.40622 0.0
C958 C 0.11687 0.91905 0.43016 0.0
N959 N 0.9689 0.91556 0.45937 0.0
C960 C 0.93074 0.93377 0.4701 0.0
C961 C 0.00392 0.97802 0.48018 0.0
C962 C 0.00504 0.93682 0.46615 0.0
C963 C 0.96484 0.99671 0.48786 0.0
C964 C 0.92818 0.9745 0.48407 0.0
H965 H 0.14597 0.93463 0.42812 0.0
H966 H 0.10841 0.99659 0.47115 0.0
H967 H 0.0412 0.03095 0.49427 0.0
O968 O 0.01015 0.84917 0.33649 0.0
O969 O 0.98058 0.8593 0.50137 0.0
O970 O 0.93287 0.81241 0.51936 0.0
O971 O 0.95834 0.88928 0.35881 0.0
O972 O 0.90965 0.8522 0.41966 0.0
O973 O 0.87157 0.79996 0.38409 0.0
O974 O 0.84512 0.7558 0.49184 0.0
O975 O 0.91565 0.75323 0.35872 0.0
O976 O 0.96609 0.79832 0.34418 0.0
O977 O 0.85786 0.81718 0.49986 0.0
O978 O 0.95921 0.77806 0.46869 0.0
O979 O 0.00636 0.79695 0.41254 0.0
C980 C 0.96064 0.84244 0.53677 0.0
C981 C 0.02108 0.91209 0.32407 0.0
C982 C 0.02923 0.97854 0.31581 0.0
C983 C 0.07301 0.97265 0.30872 0.0
C984 C 0.06296 0.90443 0.30658 0.0
C985 C 0.08964 0.93524 0.30326 0.0
C986 C 0.00687 0.95061 0.33633 0.0
C987 C 0.885 0.83379 0.38028 0.0
C988 C 0.99212 0.88021 0.3285 0.0
C989 C 0.07984 0.97972 0.47051 0.0
C990 C 0.04153 0.9993 0.48325 0.0
C991 C 0.94453 0.76526 0.32729 0.0
C992 C 0.8484 0.79468 0.5822 0.0
C993 C 0.87575 0.76556 0.65535 0.0
C994 C 0.87369 0.80263 0.69225 0.0
C995 C 0.8462 0.8311 0.62021 0.0
C996 C 0.86249 0.76192 0.60062 0.0
C997 C 0.85864 0.83493 0.67495 0.0
C998 C 0.98947 0.76985 0.43368 0.0
C999 C 0.84052 0.79107 0.52249 0.0
H1000 H 0.09282 0.99479 0.29844 0.0
H1001 H 0.07528 0.87497 0.29676 0.0
H1002 H 0.12238 0.92956 0.2923 0.0
H1003 H 0.97487 0.95639 0.35083 0.0
H1004 H 0.88384 0.80685 0.73446 0.0
H1005 H 0.83589 0.8567 0.60727 0.0
H1006 H 0.86476 0.73357 0.57188 0.0
H1007 H 0.85741 0.86325 0.70395 0.0
Tb1008 Tb 0.48821 0.64459 0.69516 0.0
C1009 C 0.69331 0.60797 0.68441 0.0
N1010 N 0.65944 0.58482 0.68742 0.0
C1011 C 0.69268 0.53086 0.62452 0.0
C1012 C 0.72782 0.59338 0.65005 0.0
C1013 C 0.65918 0.54644 0.65917 0.0
C1014 C 0.72689 0.55451 0.61938 0.0
C1015 C 0.7303 0.66955 0.71824 0.0
C1016 C 0.69442 0.64598 0.71784 0.0
C1017 C 0.76371 0.65554 0.68242 0.0
C1018 C 0.76257 0.61764 0.64837 0.0
Tb1019 Tb 0.60665 0.61585 0.74288 0.0
N1020 N 0.6616 0.65897 0.75225 0.0
C1021 C 0.73233 0.70604 0.75602 0.0
C1022 C 0.66501 0.69327 0.79234 0.0
C1023 C 0.69987 0.7176 0.79396 0.0
H1024 H 0.63389 0.52728 0.66401 0.0
H1025 H 0.70178 0.74513 0.82465 0.0
H1026 H 0.44216 0.70957 0.79474 0.0
H1027 H 0.41533 0.53159 0.5353 0.0
H1028 H 0.64018 0.70231 0.82235 0.0
H1029 H 0.75947 0.72487 0.75751 0.0
H1030 H 0.47035 0.57697 0.57867 0.0
H1031 H 0.69226 0.50045 0.60222 0.0
H1032 H 0.79099 0.6736 0.68198 0.0
H1033 H 0.7892 0.60705 0.62188 0.0
H1034 H 0.36856 0.72881 0.81941 0.0
H1035 H 0.75287 0.54221 0.59271 0.0
H1036 H 0.3472 0.53173 0.5821 0.0
N1037 N 0.42539 0.6542 0.74313 0.0
C1038 C 0.3936 0.62868 0.7253 0.0
C1039 C 0.37572 0.69967 0.79604 0.0
C1040 C 0.35217 0.63639 0.74596 0.0
C1041 C 0.41718 0.68857 0.7813 0.0
C1042 C 0.34348 0.6726 0.78142 0.0
N1043 N 0.43927 0.59677 0.65553 0.0
C1044 C 0.4431 0.57458 0.60248 0.0
C1045 C 0.36711 0.57426 0.65543 0.0
C1046 C 0.40103 0.59831 0.68035 0.0
C1047 C 0.37288 0.54931 0.60345 0.0
C1048 C 0.41109 0.5495 0.57675 0.0
H1049 H 0.31167 0.68078 0.79511 0.0
H1050 H 0.28793 0.61521 0.74139 0.0
H1051 H 0.30116 0.56026 0.66183 0.0
O1052 O 0.49448 0.67191 0.62896 0.0
O1053 O 0.4966 0.64782 0.78668 0.0
O1054 O 0.55067 0.60569 0.79553 0.0
O1055 O 0.45187 0.69414 0.69188 0.0
O1056 O 0.51663 0.5882 0.65163 0.0
O1057 O 0.57242 0.56417 0.69418 0.0
O1058 O 0.6151 0.63159 0.82858 0.0
O1059 O 0.60878 0.63083 0.65979 0.0
O1060 O 0.54057 0.64699 0.63646 0.0
O1061 O 0.6491 0.58255 0.77708 0.0
O1062 O 0.59523 0.6754 0.73893 0.0
O1063 O 0.52816 0.67639 0.76032 0.0
C1064 C 0.51781 0.62794 0.81753 0.0
C1065 C 0.42486 0.68199 0.60257 0.0
C1066 C 0.40299 0.63089 0.52293 0.0
C1067 C 0.36226 0.63237 0.54524 0.0
C1068 C 0.38333 0.68464 0.62263 0.0
C1069 C 0.35206 0.66031 0.59344 0.0
C1070 C 0.43286 0.65841 0.54987 0.0
C1071 C 0.54585 0.56161 0.65251 0.0
C1072 C 0.46055 0.69222 0.64151 0.0
C1073 C 0.31966 0.61004 0.72536 0.0
C1074 C 0.3272 0.57879 0.68011 0.0
C1075 C 0.58161 0.64216 0.6257 0.0
C1076 C 0.68618 0.62262 0.85354 0.0
C1077 C 0.72285 0.6722 0.92472 0.0
C1078 C 0.76116 0.65301 0.90733 0.0
C1079 C 0.72492 0.60436 0.837 0.0
C1080 C 0.68565 0.65668 0.89677 0.0
C1081 C 0.76209 0.61968 0.86357 0.0
C1082 C 0.56086 0.6951 0.75052 0.0
C1083 C 0.64621 0.60673 0.82587 0.0
H1084 H 0.33899 0.61079 0.52746 0.0
H1085 H 0.37584 0.70292 0.663 0.0
H1086 H 0.3207 0.66095 0.61053 0.0
H1087 H 0.4641 0.65871 0.53296 0.0
H1088 H 0.7905 0.66297 0.928 0.0
H1089 H 0.72657 0.57828 0.80356 0.0
H1090 H 0.6559 0.67131 0.90766 0.0
H1091 H 0.7918 0.60533 0.85067 0.0
Tb1092 Tb 0.07627 0.3543 0.07408 0.0
C1093 C 0.87288 0.39341 0.08115 0.0
N1094 N 0.90716 0.41423 0.10402 0.0
C1095 C 0.87165 0.47417 0.1034 0.0
C1096 C 0.83632 0.41237 0.06931 0.0
C1097 C 0.90691 0.45423 0.11583 0.0
C1098 C 0.83612 0.45317 0.08022 0.0
C1099 C 0.8393 0.33042 1.04633 0.0
C1100 C 0.87394 0.3528 0.0707 0.0
C1101 C 0.80219 0.34926 1.03766 0.0
C1102 C 0.80073 0.39014 1.0487 0.0
Tb1103 Tb 0.95806 0.37686 0.12995 0.0
N1104 N 0.90879 0.33523 0.08479 0.0
C1105 C 0.84285 0.28974 1.03216 0.0
C1106 C 0.91186 0.29577 0.07363 0.0
C1107 C 0.87916 0.27226 1.04623 0.0
H1108 H 0.93371 0.4708 0.13573 0.0
H1109 H 0.88154 0.24083 1.03603 0.0
H1110 H 0.11628 0.26566 1.04795 0.0
H1111 H 0.16522 0.48731 0.11611 0.0
H1112 H 0.94012 0.28323 0.08456 0.0
H1113 H 0.81817 0.27163 1.0095 0.0
H1114 H 0.10648 0.44491 0.08035 0.0
H1115 H 0.87159 0.50576 0.1127 0.0
H1116 H 0.77434 0.3322 1.02349 0.0
H1117 H 0.77191 0.40447 1.04154 0.0
H1118 H 0.17798 0.23267 0.07785 0.0
H1119 H 0.80856 0.46874 0.07151 0.0
H1120 H 0.22149 0.46505 0.17046 0.0
N1121 N 0.13295 0.32149 0.09643 0.0
C1122 C 0.16304 0.34365 0.12793 0.0
C1123 C 0.17385 0.26387 0.09279 0.0
C1124 C 0.19928 0.32658 0.14469 0.0
C1125 C 0.13894 0.28241 0.07629 0.0
C1126 C 0.20384 0.28602 0.12789 0.0
N1127 N 0.12678 0.3983 0.11433 0.0
C1128 C 0.12898 0.43509 0.10617 0.0
C1129 C 0.1942 0.40766 0.16019 0.0
C1130 C 0.16004 0.38369 0.13686 0.0
C1131 C 0.19479 0.44633 0.15572 0.0
C1132 C 0.16293 0.45937 0.12618 0.0
H1133 H 0.23153 0.27192 0.13918 0.0
H1134 H 0.25878 0.33804 0.1882 0.0
H1135 H 0.25485 0.40925 0.20058 0.0
O1136 O 0.07486 0.37808 1.00466 0.0
O1137 O 0.07505 0.36147 0.16319 0.0
O1138 O 0.0123 0.39549 0.18998 0.0
O1139 O 0.11892 0.33236 1.01013 0.0
O1140 O 0.04653 0.41128 0.10448 0.0
O1141 O 0.97943 0.41576 0.08143 0.0
O1142 O 0.91189 0.36207 0.18174 0.0
O1143 O 0.96388 0.35137 1.03834 0.0
O1144 O 0.02663 0.31672 1.02576 0.0
O1145 O 0.93779 0.42065 0.19769 0.0
O1146 O 0.98818 0.32796 0.15099 0.0
O1147 O 0.04227 0.30351 0.08908 0.0
C1148 C 0.04884 0.38003 0.20159 0.0
C1149 C 0.14543 0.38587 0.97985 0.0
C1150 C 0.17026 0.4429 0.94963 0.0
C1151 C 0.20818 0.44161 0.9785 0.0
C1152 C 0.18485 0.38341 1.00446 0.0
C1153 C 0.21546 0.41181 1.00511 0.0
C1154 C 0.13842 0.41557 0.95306 0.0
C1155 C 0.0182 0.42542 0.07704 0.0
C1156 C 0.11002 0.36024 0.98622 0.0
C1157 C 0.23106 0.35063 0.17413 0.0
C1158 C 0.22869 0.3912 0.1815 0.0
C1159 C 0.99002 0.32591 1.00676 0.0
C1160 C 0.91252 0.40003 0.27561 0.0
C1161 C 0.90306 0.37203 0.35566 0.0
C1162 C 0.90607 0.40983 0.39044 0.0
C1163 C 0.91476 0.43738 0.31167 0.0
C1164 C 0.90672 0.36727 0.29796 0.0
C1165 C 0.91191 0.44212 0.36854 0.0
C1166 C 0.01744 0.30223 0.13136 0.0
C1167 C 0.91266 0.39691 0.21525 0.0
H1168 H 0.23304 0.46255 0.97866 0.0
H1169 H 0.1916 0.36047 1.02499 0.0
H1170 H 0.24517 0.41045 1.02579 0.0
H1171 H 0.10823 0.41581 0.93309 0.0
H1172 H 0.90396 0.41446 0.43482 0.0
H1173 H 0.91831 0.46312 0.29579 0.0
H1174 H 0.90376 0.33838 0.27068 0.0
H1175 H 0.9138 0.47108 0.3958 0.0
Tb1176 Tb 0.49435 0.37214 0.4039 0.0
C1177 C 0.69586 0.36306 0.42625 0.0
N1178 N 0.67188 0.39287 0.41841 0.0
C1179 C 0.71274 0.43856 0.48524 0.0
C1180 C 0.72749 0.36944 0.46693 0.0
C1181 C 0.68117 0.4306 0.445 0.0
C1182 C 0.73527 0.40772 0.49737 0.0
C1183 C 0.71647 0.29538 0.39515 0.0
C1184 C 0.69014 0.32662 0.39089 0.0
C1185 C 0.74552 0.30059 0.4389 0.0
C1186 C 0.75066 0.33757 0.47508 0.0
Tb1187 Tb 0.6168 0.37571 0.35916 0.0
N1188 N 0.6612 0.32283 0.34962 0.0
C1189 C 0.71383 0.26047 0.35425 0.0
C1190 C 0.66171 0.29024 0.30662 0.0
C1191 C 0.68724 0.2583 0.30899 0.0
H1192 H 0.66378 0.45455 0.43574 0.0
H1193 H 0.68637 0.23201 0.27589 0.0
H1194 H 0.47475 0.28218 0.41434 0.0
H1195 H 0.40546 0.47248 0.31747 0.0
H1196 H 0.64189 0.28819 0.27087 0.0
H1197 H 0.73351 0.23572 0.35595 0.0
H1198 H 0.46856 0.44823 0.35743 0.0
H1199 H 0.71956 0.4684 0.50692 0.0
H1200 H 0.76512 0.27661 0.44397 0.0
H1201 H 0.77332 0.34164 0.50834 0.0
H1202 H 0.4136 0.23826 0.40351 0.0
H1203 H 0.75953 0.41388 0.52881 0.0
H1204 H 0.33974 0.434 0.30557 0.0
N1205 N 0.44332 0.32517 0.38238 0.0
C1206 C 0.40655 0.3363 0.36333 0.0
C1207 C 0.41127 0.26547 0.3912 0.0
C1208 C 0.3702 0.31285 0.35843 0.0
C1209 C 0.44627 0.2901 0.39614 0.0
C1210 C 0.37302 0.27685 0.37224 0.0
N1211 N 0.4405 0.3944 0.35964 0.0
C1212 C 0.44074 0.43045 0.34906 0.0
C1213 C 0.36734 0.38626 0.33372 0.0
C1214 C 0.40508 0.37236 0.3516 0.0
C1215 C 0.36778 0.42259 0.32072 0.0
C1216 C 0.40486 0.44451 0.32766 0.0
H1217 H 0.34581 0.25795 0.36925 0.0
H1218 H 0.30364 0.30939 0.33829 0.0
H1219 H 0.3011 0.3739 0.31675 0.0
O1220 O 0.48505 0.41888 0.47304 0.0
O1221 O 0.49721 0.36689 0.3135 0.0
O1222 O 0.56844 0.37037 0.28924 0.0
O1223 O 0.45406 0.36383 0.4666 0.0
O1224 O 0.52926 0.42706 0.40933 0.0
O1225 O 0.59633 0.41942 0.43309 0.0
O1226 O 0.67335 0.38459 0.32272 0.0
O1227 O 0.60622 0.36907 0.4455 0.0
O1228 O 0.53906 0.34366 0.45059 0.0
O1229 O 0.61939 0.42079 0.31648 0.0
O1230 O 0.58342 0.32279 0.31977 0.0
O1231 O 0.5313 0.31908 0.3827 0.0
C1232 C 0.52707 0.36708 0.27623 0.0
C1233 C 0.42367 0.41954 0.52535 0.0
C1234 C 0.39863 0.46181 0.61097 0.0
C1235 C 0.35713 0.45593 0.59107 0.0
C1236 C 0.38236 0.4142 0.50514 0.0
C1237 C 0.34914 0.43258 0.53812 0.0
C1238 C 0.43152 0.44323 0.57759 0.0
C1239 C 0.56098 0.43821 0.44361 0.0
C1240 C 0.45977 0.399 0.49628 0.0
C1241 C 0.33207 0.32678 0.34187 0.0
C1242 C 0.33057 0.36358 0.32987 0.0
C1243 C 0.5777 0.3517 0.47052 0.0
C1244 C 0.66828 0.40309 0.24052 0.0
C1245 C 0.68807 0.35583 0.15497 0.0
C1246 C 0.70761 0.38609 0.13697 0.0
C1247 C 0.68814 0.4327 0.2215 0.0
C1248 C 0.66741 0.36461 0.20636 0.0
C1249 C 0.70741 0.42425 0.16978 0.0
C1250 C 0.55845 0.30301 0.34416 0.0
C1251 C 0.65788 0.41069 0.2997 0.0
H1252 H 0.33108 0.46995 0.61573 0.0
H1253 H 0.37577 0.39552 0.46478 0.0
H1254 H 0.31714 0.42843 0.5229 0.0
H1255 H 0.4636 0.44585 0.5931 0.0
H1256 H 0.72293 0.38003 0.09725 0.0
H1257 H 0.69034 0.46204 0.24767 0.0
H1258 H 0.65311 0.34127 0.22116 0.0
H1259 H 0.72323 0.44714 0.15565 0.0
Tb1260 Tb 0.08375 0.64938 1.04008 0.0
C1261 C 0.8826 0.61385 1.02059 0.0
N1262 N 0.91839 0.59307 1.00511 0.0
C1263 C 0.88158 0.53358 1.00396 0.0
C1264 C 0.84423 0.59502 1.02514 0.0
C1265 C 0.9185 0.55341 0.99694 0.0
C1266 C 0.84407 0.5544 1.01721 0.0
C1267 C 0.84807 0.67685 1.04741 0.0
C1268 C 0.88421 0.65429 1.03037 0.0
C1269 C 0.80916 0.65813 1.04701 0.0
C1270 C 0.80719 0.61722 1.0355 0.0
Tb1271 Tb 0.96861 0.62837 0.97453 0.0
N1272 N 0.92127 0.67139 1.023 0.0
C1273 C 0.85217 0.71745 0.06334 0.0
C1274 C 0.92546 0.71103 1.03723 0.0
C1275 C 0.8911 0.73463 0.05865 0.0
H1276 H 0.94599 0.53667 0.98134 0.0
H1277 H 0.89432 0.766 0.07062 0.0
H1278 H 0.11741 0.73786 1.03103 0.0
H1279 H 0.16736 0.51601 1.01781 0.0
H1280 H 0.9553 0.72439 1.0335 0.0
H1281 H 0.82582 0.73563 0.08048 0.0
H1282 H 0.10792 0.56017 1.04291 0.0
H1283 H 0.88166 0.50209 0.99668 0.0
H1284 H 0.78052 0.6751 0.05588 0.0
H1285 H 0.77704 0.60297 1.03541 0.0
H1286 H 0.17777 0.76417 0.99028 0.0
H1287 H 0.81521 0.53884 1.02072 0.0
H1288 H 0.22738 0.53414 0.96588 0.0
N1289 N 0.13701 0.67858 1.0034 0.0
C1290 C 0.16858 0.65407 0.97981 0.0
C1291 C 0.17535 0.73312 0.98663 0.0
C1292 C 0.20463 0.66825 0.95815 0.0
C1293 C 0.14076 0.71794 1.00901 0.0
C1294 C 0.20723 0.70814 0.96066 0.0
N1295 N 0.13139 0.60245 1.00338 0.0
C1296 C 0.13194 0.56744 1.01706 0.0
C1297 C 0.20062 0.58993 0.96352 0.0
C1298 C 0.16604 0.61494 0.98064 0.0
C1299 C 0.20033 0.55321 0.97521 0.0
C1300 C 0.16639 0.54255 1.00374 0.0
H1301 H 0.23441 0.72005 0.9444 0.0
H1302 H 0.26539 0.65287 0.91951 0.0
H1303 H 0.26241 0.58453 0.92581 0.0
O1304 O 0.09186 0.63447 0.11552 0.0
O1305 O 0.08386 0.6204 0.94964 0.0
O1306 O 0.01856 0.63103 0.91419 0.0
O1307 O 0.13198 0.67716 0.09359 0.0
O1308 O 0.04256 0.60365 0.05514 0.0
O1309 O 0.00806 0.57786 0.97489 0.0
O1310 O 0.92659 0.64756 0.92114 0.0
O1311 O 0.97274 0.64759 0.0679 0.0
O1312 O 0.03204 0.6868 0.08284 0.0
O1313 O 0.94108 0.58658 0.90938 0.0
O1314 O 0.00027 0.67868 0.96062 0.0
O1315 O 0.0542 0.70078 1.02433 0.0
C1316 C 0.05946 0.62456 0.90829 0.0
C1317 C 0.16396 0.6293 0.13248 0.0
C1318 C 0.18913 0.57144 0.16063 0.0
C1319 C 0.22723 0.57365 0.13291 0.0
C1320 C 0.20298 0.63203 0.1073 0.0
C1321 C 0.23417 0.60404 0.10704 0.0
C1322 C 0.15784 0.59962 0.15965 0.0
C1323 C 0.02836 0.57335 1.01846 0.0
C1324 C 0.1273 0.65347 0.12548 0.0
C1325 C 0.23758 0.64251 0.93658 0.0
C1326 C 0.23578 0.60352 0.93984 0.0
C1327 C -0.004 0.67547 0.10062 0.0
C1328 C 0.9269 0.60843 0.82819 0.0
C1329 C 0.92255 0.63476 0.74589 0.0
C1330 C 0.93042 0.59724 0.71267 0.0
C1331 C 0.93444 0.57119 0.7935 0.0
C1332 C 0.92117 0.64033 0.80388 0.0
C1333 C 0.93657 0.56582 0.73639 0.0
C1334 C 0.03008 0.70313 0.98268 0.0
C1335 C 0.92247 0.61273 0.88878 0.0
H1336 H 0.25215 0.55271 0.13264 0.0
H1337 H 0.20895 0.65488 0.08629 0.0
H1338 H 0.26384 0.60586 0.08657 0.0
H1339 H 0.12826 0.59941 0.18101 0.0
H1340 H 0.93164 0.59222 0.66817 0.0
H1341 H 0.93841 0.54598 0.81045 0.0
H1342 H 0.91432 0.66911 0.82966 0.0
H1343 H 0.94245 0.53699 0.71031 0.0
C1344 C 0.05998 0.18356 1.05035 0.0
C1345 C 0.08449 0.16031 0.07738 0.0
H1346 H 0.05405 0.21306 0.98428 0.0
C1347 C 0.12529 0.15088 0.05581 0.0
H1348 H 0.02942 0.19304 0.06645 0.0
C1349 C 0.14011 0.16312 1.00907 0.0
C1350 C 0.11529 0.18605 0.98168 0.0
H1351 H 0.14575 0.13319 0.07429 0.0
H1352 H 0.17127 0.15399 0.99365 0.0
C1353 C 0.07479 0.19612 1.00373 0.0
C1354 C 0.13614 0.82255 0.07783 0.0
C1355 C 0.10755 0.80884 0.11206 0.0
H1356 H 0.14653 0.84566 1.00731 0.0
C1357 C 0.06459 0.80849 0.0969 0.0
H1358 H 0.16932 0.82447 0.08822 0.0
C1359 C 0.05115 0.82161 1.0499 0.0
C1360 C 0.07993 0.83543 1.01574 0.0
H1361 H 0.04107 0.79958 0.1226 0.0
H1362 H 0.01802 0.82113 1.04056 0.0
C1363 C 0.12281 0.8351 1.03092 0.0
C1364 C 0.43527 0.79804 0.35578 0.0
C1365 C 0.45117 0.75976 0.33416 0.0
H1366 H 0.43265 0.84937 0.42457 0.0
C1367 C 0.47543 0.74419 0.3713 0.0
H1368 H 0.41605 0.81152 0.3298 0.0
C1369 C 0.48441 0.76581 0.42598 0.0
C1370 C 0.47079 0.80473 0.44675 0.0
H1371 H 0.48769 0.71477 0.35822 0.0
H1372 H 0.50204 0.75162 0.45243 0.0
C1373 C 0.44483 0.81997 0.41075 0.0
C1374 C 0.43012 0.21456 0.7378 0.0
C1375 C 0.4561 0.24481 0.7685 0.0
H1376 H 0.41895 0.1717 0.66067 0.0
C1377 C 0.49267 0.25328 0.74106 0.0
H1378 H 0.40181 0.2066 0.75644 0.0
C1379 C 0.50282 0.23296 0.68638 0.0
C1380 C 0.47689 0.20307 0.6553 0.0
H1381 H 0.51415 0.27591 0.76201 0.0
H1382 H 0.53146 0.24093 0.66839 0.0
C1383 C 0.44014 0.19433 0.68235 0.0
C1384 C 0.02515 0.99388 0.2254 0.0
C1385 C 0.00558 0.99741 0.27703 0.0
H1386 H 0.0286 0.95737 0.143 0.0
C1387 C 0.96179 0.9907 0.27445 0.0
H1388 H 0.05667 0.00485 0.22274 0.0
C1389 C 0.94699 0.95998 0.23196 0.0
C1390 C 0.97223 0.94604 0.18524 0.0
H1391 H 0.94272 0.99986 0.31123 0.0
H1392 H 0.91625 0.94746 0.23529 0.0
C1393 C 0.0097 0.96589 0.17999 0.0
C1394 C -0.00368 0.03608 0.89561 0.0
C1395 C 0.96713 0.02585 0.85176 0.0
H1396 H 0.01207 0.07744 0.97097 0.0
C1397 C 0.92549 0.03979 0.86173 0.0
H1398 H 0.02812 0.02475 0.89172 0.0
C1399 C 0.9174 0.0719 0.90561 0.0
C1400 C 0.94927 0.08665 0.94343 0.0
H1401 H 0.90134 0.03078 0.83056 0.0
H1402 H 0.8875 0.08692 0.90783 0.0
C1403 C 0.98749 0.06675 0.94095 0.0
C1404 C 0.63636 0.06661 0.78488 0.0
C1405 C 0.67345 0.07945 0.81365 0.0
H1406 H 0.60945 0.04693 0.70485 0.0
C1407 C 0.71108 0.06244 0.79055 0.0
H1408 H 0.60601 0.07559 0.80347 0.0
C1409 C 0.71372 0.0493 0.73313 0.0
C1410 C 0.67767 0.05182 0.70128 0.0
H1411 H 0.73979 0.06731 0.8145 0.0
H1412 H 0.74468 0.0443 0.71496 0.0
C1413 C 0.6386 0.05156 0.72792 0.0
C1414 C 0.64666 0.94377 0.38692 0.0
C1415 C 0.68794 0.94784 0.4086 0.0
H1416 H 0.61168 0.91508 0.31571 0.0
C1417 C 0.71976 0.95547 0.37358 0.0
H1418 H 0.61956 0.94265 0.41267 0.0
C1419 C 0.71396 0.94169 0.31663 0.0
C1420 C 0.67759 0.92014 0.29807 0.0
H1421 H 0.75117 0.96333 0.38927 0.0
H1422 H 0.74029 0.94064 0.28904 0.0
C1423 C 0.64155 0.92845 0.3306 0.0
C1424 C 0.57872 0.67703 0.48995 0.0
C1425 C 0.61813 0.69528 0.48724 0.0
H1426 H 0.53746 0.64592 0.53217 0.0
C1427 C 0.64817 0.69066 0.52725 0.0
H1428 H 0.55423 0.67947 0.46079 0.0
C1429 C 0.63808 0.67109 0.56973 0.0
C1430 C 0.59731 0.65549 0.57441 0.0
H1431 H 0.67875 0.70422 0.5278 0.0
H1432 H 0.66149 0.67046 0.60102 0.0
C1433 C 0.56875 0.6578 0.53191 0.0
C1434 C 0.57315 0.30556 0.59669 0.0
C1435 C 0.61434 0.31106 0.61845 0.0
H1436 H 0.52933 0.31368 0.53448 0.0
C1437 C 0.64338 0.32942 0.5902 0.0
H1438 H 0.54935 0.29281 0.61783 0.0
C1439 C 0.63179 0.34205 0.54266 0.0
C1440 C 0.5905 0.33724 0.52117 0.0
H1441 H 0.67504 0.33531 0.6062 0.0
H1442 H 0.65516 0.35661 0.52364 0.0
C1443 C 0.5615 0.31827 0.54901 0.0
C1444 C 0.93998 0.31304 0.9216 0.0
C1445 C 0.97642 0.30354 0.94853 0.0
H1446 H 0.90134 0.30128 0.84778 0.0
C1447 C 0.00098 0.27229 0.91809 0.0
H1448 H 0.91995 0.33681 0.94274 0.0
C1449 C 0.98981 0.25141 0.8641 0.0
C1450 C 0.95373 0.26087 0.83664 0.0
H1451 H 0.02932 0.26364 0.93605 0.0
H1452 H 0.01023 0.22777 0.84355 0.0
C1453 C 0.92913 0.29243 0.86666 0.0
C1454 C 0.93506 0.70588 0.24137 0.0
C1455 C 0.95544 0.74106 0.26872 0.0
H1456 H 0.93029 0.65824 0.16776 0.0
C1457 C 0.98838 0.75364 0.23902 0.0
H1458 H 0.91004 0.69436 0.26212 0.0
C1459 C 0.0006 0.73255 0.18575 0.0
C1460 C 0.98041 0.69766 0.158 0.0
H1461 H 0.00567 0.78008 0.25712 0.0
H1462 H 0.02638 0.74398 0.16618 0.0
C1463 C 0.94693 0.68489 0.18686 0.0
C1464 C 0.44623 0.50663 0.67708 0.0
C1465 C 0.40881 0.48473 0.66743 0.0
H1466 H 0.49586 0.52775 0.7331 0.0
C1467 C 0.38598 0.47914 0.71272 0.0
H1468 H 0.46447 0.51181 0.6431 0.0
C1469 C 0.40246 0.49167 0.76581 0.0
C1470 C 0.4447 0.50403 0.77267 0.0
H1471 H 0.35836 0.46073 0.70677 0.0
H1472 H 0.38552 0.48414 0.79935 0.0
C1473 C 0.46404 0.5165 0.72947 0.0
C1474 C 0.45809 0.58493 0.4724 0.0
C1475 C 0.41625 0.59828 0.47596 0.0
H1476 H 0.50589 0.55392 0.42158 0.0
C1477 C 0.3881 0.58069 0.43384 0.0
H1478 H 0.48127 0.59733 0.5032 0.0
C1479 C 0.40209 0.55213 0.38813 0.0
C1480 C 0.44523 0.54287 0.38204 0.0
H1481 H 0.35614 0.59106 0.43392 0.0
H1482 H 0.38062 0.54195 0.3539 0.0
C1483 C 0.47228 0.55779 0.42628 0.0
C1484 C 0.21139 0.55933 0.29172 0.0
C1485 C 0.17148 0.5743 0.30903 0.0
H1486 H 0.25014 0.54113 0.2204 0.0
C1487 C 0.13695 0.55826 0.27634 0.0
H1488 H 0.23844 0.56724 0.31842 0.0
C1489 C 0.14375 0.54176 0.22033 0.0
C1490 C 0.1843 0.5456 0.19942 0.0
H1491 H 0.10517 0.56634 0.29025 0.0
H1492 H 0.1167 0.53688 0.19305 0.0
C1493 C 0.21806 0.54442 0.23526 0.0
C1494 C 0.12767 0.43931 0.8254 0.0
C1495 C 0.16589 0.42599 0.79958 0.0
H1496 H 0.09927 0.47008 0.9007 0.0
C1497 C 0.20284 0.44557 0.82038 0.0
H1498 H 0.09806 0.42639 0.80861 0.0
C1499 C 0.20351 0.46676 0.87524 0.0
C1500 C 0.16707 0.46614 0.90705 0.0
H1501 H 0.23193 0.43936 0.79765 0.0
H1502 H 0.23396 0.47454 0.89408 0.0
C1503 C 0.12867 0.46402 0.87833 0.0
C1504 C 0.00139 0.27407 0.21212 0.0
C1505 C 0.02708 0.27531 0.1664 0.0
H1506 H 0.99227 0.24834 0.28117 0.0
C1507 C 0.0648 0.25464 0.1595 0.0
H1508 H 0.97282 0.29118 0.22082 0.0
C1509 C 0.07609 0.23187 0.19493 0.0
C1510 C 0.04799 0.22671 0.23541 0.0
H1511 H 0.08507 0.25483 0.12579 0.0
H1512 H 0.10526 0.21564 0.1873 0.0
C1513 C 0.01209 0.24984 0.24665 0.0
C1514 C 0.03236 0.73097 0.48131 0.0
C1515 C 0.01195 0.73479 0.43327 0.0
H1516 H 0.07704 0.69794 0.51422 0.0
C1517 C 0.00972 0.70339 0.38689 0.0
H1518 H 0.03163 0.7543 0.51869 0.0
C1519 C 0.03415 0.67071 0.38522 0.0
C1520 C 0.0625 0.67154 0.42844 0.0
H1521 H 0.99138 0.70498 0.35108 0.0
H1522 H 0.0371 0.64894 0.34641 0.0
C1523 C 0.05678 0.69821 0.47941 0.0
C1524 C 0.57933 0.73087 0.68082 0.0
C1525 C 0.55485 0.72797 0.72618 0.0
H1526 H 0.57914 0.74671 0.60424 0.0
C1527 C 0.51908 0.75104 0.73998 0.0
H1528 H 0.60871 0.71526 0.67167 0.0
C1529 C 0.50517 0.77314 0.70485 0.0
C1530 C 0.52653 0.77172 0.65481 0.0
H1531 H 0.50055 0.75015 0.776 0.0
H1532 H 0.47693 0.79034 0.71653 0.0
C1533 C 0.56336 0.74993 0.643 0.0
C1534 C 0.53725 0.17172 0.88044 0.0
C1535 C 0.56331 0.17023 0.92519 0.0
H1536 H 0.49735 0.20861 0.84661 0.0
C1537 C 0.55533 0.19487 0.97712 0.0
H1538 H 0.54176 0.1514 0.84065 0.0
C1539 C 0.53174 0.22826 0.97999 0.0
C1540 C 0.51412 0.2348 0.93165 0.0
H1541 H 0.57366 0.1928 1.01289 0.0
H1542 H 0.52931 0.24996 1.01894 0.0
C1543 C 0.51383 0.2052 0.88299 0.0
C1544 C 0.07328 0.75237 0.87997 0.0
C1545 C 0.04003 0.77788 0.87726 0.0
H1546 H 0.09591 0.70786 0.91692 0.0
C1547 C 0.00499 0.77847 0.911 0.0
H1548 H 0.09992 0.7496 0.85259 0.0
C1549 C 0.00375 0.7568 0.94946 0.0
C1550 C 0.03746 0.73293 0.95414 0.0
H1551 H 0.97949 0.79771 0.91088 0.0
H1552 H 0.97596 0.75842 0.97477 0.0
C1553 C 0.0717 0.7295 0.91797 0.0
C1554 C 0.54785 0.82374 0.23664 0.0
C1555 C 0.57143 0.82934 0.19201 0.0
H1556 H 0.50644 0.78512 0.26372 0.0
C1557 C 0.5601 0.81054 0.1379 0.0
H1558 H 0.55587 0.839 0.27856 0.0
C1559 C 0.53271 0.77919 0.12953 0.0
C1560 C 0.51555 0.76856 0.1752 0.0
H1561 H 0.57768 0.81517 0.10291 0.0
H1562 H 0.52769 0.76146 0.08803 0.0
C1563 C 0.5208 0.79224 0.22836 0.0
C1564 C 0.52755 0.21381 0.36657 0.0
C1565 C 0.54525 0.22068 0.42004 0.0
H1566 H 0.52226 0.23442 0.29345 0.0
C1567 C 0.58054 0.24446 0.43236 0.0
H1568 H 0.50111 0.19426 0.35416 0.0
C1569 C 0.59527 0.26417 0.39455 0.0
C1570 C 0.57113 0.26433 0.34757 0.0
H1571 H 0.59397 0.2513 0.47282 0.0
H1572 H 0.61918 0.28596 0.40885 0.0
C1573 C 0.5408 0.23542 0.3302 0.0
C1574 C 0.03495 0.33277 0.72489 0.0
C1575 C 0.06129 0.33322 0.68023 0.0
H1576 H -0.00638 0.2973 0.75889 0.0
C1577 C 0.05355 0.30816 0.62851 0.0
H1578 H 0.03949 0.35346 0.76438 0.0
C1579 C 0.0296 0.27518 0.62614 0.0
C1580 C 0.01105 0.26992 0.67451 0.0
H1581 H 0.07211 0.30967 0.59275 0.0
H1582 H 0.02735 0.25296 0.58766 0.0
C1583 C 0.01066 0.29997 0.72261 0.0
C1584 C 0.01285 0.02711 0.0567 0.0
C1585 C 0.04462 0.03131 0.09748 0.0
H1586 H 0.9876 0.99512 0.98056 0.0
C1587 C 0.07695 1.00316 0.08734 0.0
H1588 H 0.98696 0.04755 0.06122 0.0
C1589 C 0.07823 0.97335 1.03779 0.0
C1590 C 0.04637 0.9698 0.99726 0.0
H1591 H 0.1009 1.00344 0.11761 0.0
H1592 H 0.10405 0.95271 1.03164 0.0
C1593 C 0.01326 0.99669 1.00876 0.0
C1594 C 0.33446 0.6606 0.35178 0.0
C1595 C 0.29826 0.63874 0.33236 0.0
H1596 H 0.38983 0.6881 0.32933 0.0
C1597 C 0.29545 0.62082 0.27549 0.0
H1598 H 0.33687 0.67614 0.3948 0.0
C1599 C 0.32601 0.62669 0.23834 0.0
C1600 C 0.35936 0.65217 0.25691 0.0
H1601 H 0.26662 0.60711 0.25834 0.0
H1602 H 0.32057 0.61534 0.19451 0.0
C1603 C 0.36448 0.66782 0.31413 0.0
C1604 C 0.53665 0.02696 0.56018 0.0
C1605 C 0.501 0.04059 0.53673 0.0
H1606 H 0.56449 0.98106 0.59081 0.0
C1607 C 0.46518 0.01635 0.52704 0.0
H1608 H 0.56535 0.04401 0.56737 0.0
C1609 C 0.46457 0.98038 0.5417 0.0
C1610 C 0.49989 0.96743 0.56599 0.0
H1611 H 0.43756 0.02483 0.50795 0.0
H1612 H 0.43684 0.96221 0.53245 0.0
C1613 C 0.53625 0.99074 0.57385 0.0
C1614 C 0.3313 0.38027 0.85545 0.0
C1615 C 0.36104 0.35072 0.83787 0.0
H1616 H 0.27464 0.40559 0.83616 0.0
C1617 C 0.36298 0.33175 0.78138 0.0
H1618 H 0.3286 0.39477 0.89885 0.0
C1619 C 0.33297 0.33957 0.74411 0.0
C1620 C 0.29983 0.36574 0.76301 0.0
H1621 H 0.38554 0.30853 0.76685 0.0
H1622 H 0.33252 0.32143 0.70231 0.0
C1623 C 0.30064 0.38718 0.81868 0.0
C1624 C 0.83789 0.16884 0.86163 0.0
C1625 C 0.80229 0.1455 0.84447 0.0
H1626 H 0.892 0.19596 0.83564 0.0
C1627 C 0.80038 0.12395 0.78892 0.0
H1628 H 0.83977 0.18691 0.90339 0.0
C1629 C 0.83065 0.12827 0.75043 0.0
C1630 C 0.86284 0.15558 0.76607 0.0
H1631 H 0.7723 0.10834 0.77285 0.0
H1632 H 0.82539 0.11442 0.70721 0.0
C1633 C 0.86762 0.1743 0.82249 0.0
C1634 C 0.87234 0.82694 0.27943 0.0
C1635 C 0.87011 0.84992 0.33399 0.0
H1636 H 0.84388 0.81246 0.19914 0.0
C1637 C 0.84467 0.88327 0.34471 0.0
H1638 H 0.89194 0.80122 0.26946 0.0
C1639 C 0.81713 0.88979 0.30391 0.0
C1640 C 0.81445 0.86321 0.25174 0.0
H1641 H 0.8422 0.90158 0.38626 0.0
H1642 H 0.79426 0.9126 0.31623 0.0
C1643 C 0.84515 0.83382 0.23851 0.0
C1644 C 0.56239 0.49021 0.59983 0.0
C1645 C 0.55003 0.5287 0.60019 0.0
H1646 H 0.57571 0.43184 0.55098 0.0
C1647 C 0.5428 0.53663 0.54813 0.0
H1648 H 0.56912 0.48264 0.63838 0.0
C1649 C 0.54537 0.50728 0.4984 0.0
C1650 C 0.55656 0.46891 0.49785 0.0
H1651 H 0.53634 0.56617 0.5455 0.0
H1652 H 0.54054 0.51476 0.45965 0.0
C1653 C 0.56598 0.46093 0.54946 0.0
C1654 C 0.03753 0.53215 0.08649 0.0
C1655 C 0.0282 0.53473 1.03233 0.0
H1656 H 0.04252 0.49516 0.14277 0.0
C1657 C 0.01876 0.50026 0.99226 0.0
H1658 H 0.04525 0.55801 0.11841 0.0
C1659 C 0.01656 0.46444 1.00671 0.0
C1660 C 0.02522 0.46225 0.06091 0.0
H1661 H 0.01221 0.50109 0.95004 0.0
H1662 H 0.00771 0.43845 0.97566 0.0
C1663 C 0.03625 0.49622 0.10054 0.0
C1664 C 0.15781 0.21985 0.5083 0.0
C1665 C 0.19492 0.20499 0.48085 0.0
H1666 H 0.13083 0.2618 0.57609 0.0
C1667 C 0.23262 0.22612 0.49459 0.0
H1668 H 0.12822 0.20452 0.49797 0.0
C1669 C 0.23394 0.25902 0.53924 0.0
C1670 C 0.19818 0.26991 0.5721 0.0
H1671 H 0.26154 0.21576 0.47299 0.0
H1672 H 0.26346 0.27413 0.55035 0.0
C1673 C 0.15948 0.25215 0.55359 0.0
C1674 C 0.16322 0.7572 0.54365 0.0
C1675 C 0.20161 0.73975 0.52349 0.0
H1676 H 0.13261 0.80413 0.60086 0.0
C1677 C 0.23837 0.75151 0.55403 0.0
H1678 H 0.134 0.74689 0.52302 0.0
C1679 C 0.23765 0.78392 0.59936 0.0
C1680 C 0.19989 0.80446 0.61536 0.0
H1681 H 0.26796 0.73712 0.54095 0.0
H1682 H 0.26694 0.79397 0.6203 0.0
C1683 C 0.16233 0.78947 0.58894 0.0
C1684 C 0.34744 0.78715 0.92822 0.0
C1685 C 0.37898 0.75898 0.92649 0.0
H1686 H 0.32909 0.83991 0.90637 0.0
C1687 C 0.4184 0.76487 0.90431 0.0
H1688 H 0.31724 0.78402 0.94634 0.0
C1689 C 0.42509 0.79642 0.88063 0.0
C1690 C 0.3928 0.82342 0.88054 0.0
H1691 H 0.44385 0.745 0.90471 0.0
H1692 H 0.45538 0.79975 0.86244 0.0
C1693 C 0.35423 0.81906 0.90551 0.0
C1694 C 0.40609 0.21811 0.24919 0.0
C1695 C 0.38419 0.18288 0.22971 0.0
H1696 H 0.41562 0.27681 0.24334 0.0
C1697 C 0.3543 0.18033 0.18754 0.0
H1698 H 0.42998 0.22058 0.28081 0.0
C1699 C 0.34615 0.2125 0.16578 0.0
C1700 C 0.3677 0.24801 0.1855 0.0
H1701 H 0.33671 0.15361 0.17198 0.0
H1702 H 0.32245 0.2097 0.13395 0.0
C1703 C 0.39787 0.25032 0.22752 0.0
C1704 C 0.00097 0.88546 0.6219 0.0
C1705 C 0.97473 0.85297 0.59838 0.0
H1706 H 0.03432 0.91936 0.69391 0.0
C1707 C 0.9631 0.82977 0.63483 0.0
H1708 H 0.01145 0.9043 0.59633 0.0
C1709 C 0.97555 0.83902 0.69145 0.0
C1710 C 0.00153 0.87132 0.71502 0.0
H1711 H 0.94455 0.80376 0.61929 0.0
H1712 H 0.96535 0.82026 0.71711 0.0
C1713 C 0.01431 0.89422 0.67854 0.0
C1714 C 0.00171 0.12862 0.48043 0.0
C1715 C 0.97255 0.1586 0.5043 0.0
H1716 H 0.03815 0.099 0.40874 0.0
C1717 C 0.95937 0.18208 0.46899 0.0
H1718 H 0.01402 0.10997 0.50527 0.0
C1719 C 0.97233 0.17493 0.41275 0.0
C1720 C 0.00077 0.14486 0.38844 0.0
H1721 H 0.93905 0.20669 0.48522 0.0
H1722 H 0.96076 0.19386 0.38819 0.0
C1723 C 0.01581 0.12224 0.42429 0.0
C1724 C 0.55496 0.09725 0.23846 0.0
C1725 C 0.5955 0.11204 0.23115 0.0
H1726 H 0.50616 0.08929 0.29484 0.0
C1727 C 0.61667 0.13254 0.2789 0.0
H1728 H 0.53746 0.0812 0.20288 0.0
C1729 C 0.59923 0.13597 0.33187 0.0
C1730 C 0.55942 0.11978 0.33945 0.0
H1731 H 0.64794 0.144 0.27564 0.0
H1732 H 0.61735 0.15144 0.36717 0.0
C1733 C 0.53703 0.10147 0.29146 0.0
C1734 C 0.52088 0.89666 0.81492 0.0
C1735 C 0.54615 0.87947 0.7695 0.0
H1736 H 0.51419 0.91453 0.90256 0.0
C1737 C 0.58635 0.86584 0.78135 0.0
H1738 H 0.48975 0.90688 0.80835 0.0
C1739 C 0.60153 0.87145 0.83609 0.0
C1740 C 0.57686 0.89032 0.88162 0.0
H1741 H 0.6068 0.85125 0.74815 0.0
H1742 H 0.63324 0.86219 0.84245 0.0
C1743 C 0.53554 0.90139 0.86955 0.0
C1744 C 0.68407 0.71603 1.00447 0.0
C1745 C 0.72122 0.70701 0.97321 0.0
H1746 H 0.65332 0.75439 0.07216 0.0
C1747 C 0.75659 0.73137 0.98971 0.0
H1748 H 0.65559 0.69912 0.99418 0.0
C1749 C 0.75573 0.76112 1.03859 0.0
C1750 C 0.71965 0.76715 0.07174 0.0
H1751 H 0.78517 0.72741 0.96554 0.0
H1752 H 0.78338 0.77909 1.05086 0.0
C1753 C 0.68303 0.74669 1.05151 0.0
C1754 C 0.65431 0.29599 0.0953 0.0
C1755 C 0.69065 0.31542 0.11958 0.0
H1756 H 0.62934 0.24882 1.0321 0.0
C1757 C 0.73013 0.29819 0.10402 0.0
H1758 H 0.62347 0.30824 0.1072 0.0
C1759 C 0.73333 0.26421 0.06126 0.0
C1760 C 0.69748 0.24795 1.03183 0.0
H1761 H 0.75862 0.31197 0.12338 0.0
H1762 H 0.76385 0.25162 1.04942 0.0
C1763 C 0.65775 0.26243 1.05177 0.0
C1764 C 0.86565 0.34124 0.42307 0.0
C1765 C 0.89497 0.33817 0.3801 0.0
H1766 H 0.83504 0.31322 0.47874 0.0
C1767 C 0.91706 0.30296 0.36197 0.0
H1768 H 0.84796 0.36792 0.43825 0.0
C1769 C 0.90945 0.27144 0.38555 0.0
C1770 C 0.87886 0.2738 0.42711 0.0
H1771 H 0.94056 0.29989 0.32987 0.0
H1772 H 0.9276 0.24524 0.37066 0.0
C1773 C 0.85801 0.30966 0.4463 0.0
C1774 C 0.93648 0.70218 0.73294 0.0
C1775 C 0.91342 0.66725 0.7193 0.0
H1776 H 0.94374 0.76004 0.72189 0.0
C1777 C 0.88139 0.66327 0.67947 0.0
H1778 H 0.96225 0.70562 0.76216 0.0
C1779 C 0.87049 0.69458 0.65697 0.0
C1780 C 0.8912 0.73073 0.67387 0.0
H1781 H 0.86375 0.63628 0.66711 0.0
H1782 H 0.84464 0.69091 0.62791 0.0
C1783 C 0.92571 0.73342 0.71002 0.0
C1784 C 0.47486 0.339 0.19636 0.0
C1785 C 0.51235 0.36007 0.21484 0.0
H1786 H 0.43243 0.31412 0.12934 0.0
C1787 C 0.53411 0.37385 0.17365 0.0
H1788 H 0.45671 0.3274 0.22524 0.0
C1789 C 0.51846 0.36776 0.11807 0.0
C1790 C 0.48087 0.34639 0.09981 0.0
H1791 H 0.56308 0.39008 0.18454 0.0
H1792 H 0.53639 0.37952 0.08904 0.0
C1793 C 0.4603 0.33163 0.14062 0.0
C1794 C 0.49918 0.61902 0.97244 0.0
C1795 C 0.47745 0.65416 0.99822 0.0
H1796 H 0.52965 0.58312 0.89937 0.0
C1797 C 0.47245 0.68034 0.9638 0.0
H1798 H 0.50533 0.59786 0.99625 0.0
C1799 C 0.48575 0.67127 0.90724 0.0
C1800 C 0.50579 0.63587 0.88053 0.0
H1801 H 0.45779 0.70838 0.9806 0.0
H1802 H 0.48078 0.69259 0.88362 0.0
C1803 C 0.51325 0.61029 0.91565 0.0
C1804 C 0.13662 0.62947 0.78921 0.0
C1805 C 0.11066 0.6196 0.742 0.0
H1806 H 0.14198 0.63746 0.87697 0.0
C1807 C 0.06768 0.61293 0.75078 0.0
H1808 H 0.17003 0.63376 0.78448 0.0
C1809 C 0.05155 0.61511 0.80413 0.0
C1810 C 0.0778 0.6229 0.85127 0.0
H1811 H 0.04664 0.6043 0.71576 0.0
H1812 H 0.01845 0.60924 0.80806 0.0
C1813 C 0.12056 0.63078 0.84265 0.0
C1814 C 0.10251 0.37066 0.27393 0.0
C1815 C 0.06257 0.38414 0.26098 0.0
H1816 H 0.14756 0.36616 0.33683 0.0
C1817 C 0.03563 0.39962 0.30544 0.0
H1818 H 0.12418 0.35754 0.24127 0.0
C1819 C 0.04881 0.40359 0.36043 0.0
C1820 C 0.08999 0.39313 0.37379 0.0
H1821 H 0.00428 0.40909 0.29792 0.0
H1822 H 0.02667 0.41605 0.39283 0.0
C1823 C 0.1159 0.37491 0.32922 0.0
loop_
_geom_bond_atom_site_label_1
_geom_bond_atom_site_label_2
_geom_bond_distance
_geom_bond_site_symmetry_2
_ccdc_geom_bond_type
Tb0 N29 2.617 1_455 S
Tb0 N35 2.563 1_455 S
Tb0 O44 2.465 . S
Tb0 O45 2.387 . S
Tb0 O47 2.428 . S
Tb0 O48 2.308 . S
Tb0 O52 2.349 . S
Tb0 O55 2.393 . S
Tb0 C64 2.802 . S
C1 N2 1.379 . S
C1 C4 1.416 . S
C1 C8 1.424 . S
N2 C1 1.379 . S
N2 C5 1.334 . S
N2 Tb11 2.617 . S
C3 C5 1.390 . S
C3 C6 1.339 . S
C3 H23 0.930 . S
C4 C1 1.416 . S
C4 C6 1.416 . S
C4 C10 1.448 . S
C5 N2 1.334 . S
C5 C3 1.390 . S
C5 H16 0.930 . S
C6 C3 1.339 . S
C6 C4 1.416 . S
C6 H27 0.930 . S
C7 C8 1.413 . S
C7 C9 1.427 . S
C7 C13 1.416 . S
C8 C1 1.424 . S
C8 C7 1.413 . S
C8 N12 1.361 . S
C9 C7 1.427 . S
C9 C10 1.328 . S
C9 H24 0.929 . S
C10 C4 1.448 . S
C10 C9 1.328 . S
C10 H25 0.930 . S
Tb11 N2 2.617 . S
Tb11 N12 2.572 . S
Tb11 O46 2.349 . S
Tb11 O49 2.393 . S
Tb11 O50 2.465 . S
Tb11 O51 2.387 . S
Tb11 O53 2.428 . S
Tb11 O54 2.308 . S
Tb11 C75 2.802 . S
N12 C8 1.361 . S
N12 Tb11 2.572 . S
N12 C14 1.340 . S
C13 C7 1.416 . S
C13 C15 1.332 . S
C13 H21 0.931 . S
C14 N12 1.340 . S
C14 C15 1.407 . S
C14 H20 0.930 . S
C15 C13 1.332 . S
C15 C14 1.407 . S
C15 H17 0.929 . S
H16 C5 0.930 . S
H17 C15 0.929 . S
H18 C33 0.930 . S
H19 C40 0.929 1_565 S
H20 C14 0.930 . S
H21 C13 0.931 . S
H22 C36 0.930 . S
H23 C3 0.930 . S
H24 C9 0.929 . S
H25 C10 0.930 . S
H26 C31 0.930 . S
H27 C6 0.930 . S
H28 C39 0.931 . S
N29 Tb0 2.617 1_655 S
N29 C30 1.379 . S
N29 C33 1.334 . S
C30 N29 1.379 . S
C30 C32 1.416 . S
C30 C38 1.424 . S
C31 H26 0.930 . S
C31 C33 1.390 . S
C31 C34 1.339 . S
C32 C30 1.416 . S
C32 C34 1.416 . S
C32 C65 1.448 . S
C33 H18 0.930 . S
C33 N29 1.334 . S
C33 C31 1.390 . S
C34 C31 1.339 . S
C34 C32 1.416 . S
C34 H41 0.930 . S
N35 Tb0 2.563 1_655 S
N35 C36 1.338 1_655 S
N35 C38 1.372 . S
C36 H22 0.930 . S
C36 N35 1.338 1_455 S
C36 C40 1.407 1_455 S
C37 C38 1.413 . S
C37 C39 1.416 . S
C37 C66 1.427 . S
C38 C30 1.424 . S
C38 N35 1.372 . S
C38 C37 1.413 . S
C39 H28 0.931 . S
C39 C37 1.416 . S
C39 C40 1.332 . S
C40 H19 0.929 1_545 S
C40 C36 1.407 1_655 S
C40 C39 1.332 . S
H41 C34 0.930 . S
H42 C65 0.930 . S
H43 C66 0.929 . S
O44 Tb0 2.465 . S
O44 C64 1.264 . S
O45 Tb0 2.387 . S
O45 C56 1.264 . S
O46 Tb11 2.349 . S
O46 C56 1.243 . S
O47 Tb0 2.428 . S
O47 C64 1.256 . S
O48 Tb0 2.308 . S
O48 C63 1.266 . S
O49 Tb11 2.393 . S
O49 C63 1.248 . S
O50 Tb11 2.465 . S
O50 C75 1.264 . S
O51 Tb11 2.387 . S
O51 C67 1.264 . S
O52 Tb0 2.349 . S
O52 C67 1.243 . S
O53 Tb11 2.428 . S
O53 C75 1.256 . S
O54 Tb11 2.308 . S
O54 C74 1.266 . S
O55 Tb0 2.393 . S
O55 C74 1.248 . S
C56 O45 1.264 . S
C56 O46 1.243 . S
C57 C60 1.399 1_455 S
C57 C62 1.383 . S
C57 C64 1.496 1_556 S
C58 C59 1.399 1_455 S
C58 C62 1.389 . S
C59 C58 1.399 1_655 S
C59 C61 1.380 . S
C59 H76 0.929 . S
C60 C57 1.399 1_655 S
C60 C61 1.392 . S
C60 H77 0.929 . S
C61 C59 1.380 . S
C61 C60 1.392 . S
C61 H78 0.929 . S
C62 C57 1.383 . S
C62 C58 1.389 . S
C62 H79 0.931 . S
C63 O48 1.266 . S
C63 O49 1.248 . S
C64 Tb0 2.802 . S
C64 O44 1.264 . S
C64 O47 1.256 . S
C64 C57 1.496 1_554 S
C65 C32 1.448 . S
C65 H42 0.930 . S
C65 C66 1.328 . S
C66 C37 1.427 . S
C66 H43 0.929 . S
C66 C65 1.328 . S
C67 O51 1.264 . S
C67 O52 1.243 . S
C68 C71 1.399 . S
C68 C72 1.383 . S
C68 C75 1.496 . S
C69 C70 1.399 . S
C69 C72 1.389 . S
C70 C69 1.399 . S
C70 C73 1.380 . S
C70 H80 0.929 . S
C71 C68 1.399 . S
C71 C73 1.392 . S
C71 H81 0.929 . S
C72 C68 1.383 . S
C72 C69 1.389 . S
C72 H82 0.931 . S
C73 C70 1.380 . S
C73 C71 1.392 . S
C73 H83 0.929 . S
C74 O54 1.266 . S
C74 O55 1.248 . S
C75 Tb11 2.802 . S
C75 O50 1.264 . S
C75 O53 1.256 . S
C75 C68 1.496 . S
H76 C59 0.929 . S
H77 C60 0.929 . S
H78 C61 0.929 . S
H79 C62 0.931 . S
H80 C70 0.929 . S
H81 C71 0.929 . S
H82 C72 0.931 . S
H83 C73 0.929 . S
Tb84 N113 2.617 . S
Tb84 N119 2.572 . S
Tb84 O128 2.465 . S
Tb84 O129 2.387 . S
Tb84 O131 2.428 . S
Tb84 O132 2.308 . S
Tb84 O136 2.349 . S
Tb84 O139 2.393 . S
Tb84 C148 2.802 . S
C85 N86 1.379 . S
C85 C88 1.416 . S
C85 C92 1.424 . S
N86 C85 1.379 . S
N86 C89 1.334 . S
N86 Tb95 2.617 . S
C87 C89 1.390 . S
C87 C90 1.339 . S
C87 H107 0.930 . S
C88 C85 1.416 . S
C88 C90 1.416 . S
C88 C94 1.448 . S
C89 N86 1.334 . S
C89 C87 1.390 . S
C89 H100 0.930 . S
C90 C87 1.339 . S
C90 C88 1.416 . S
C90 H111 0.930 . S
C91 C92 1.413 . S
C91 C93 1.427 . S
C91 C97 1.416 . S
C92 C85 1.424 . S
C92 C91 1.413 . S
C92 N96 1.361 . S
C93 C91 1.427 . S
C93 C94 1.328 . S
C93 H108 0.929 . S
C94 C88 1.448 . S
C94 C93 1.328 . S
C94 H109 0.930 . S
Tb95 N86 2.617 . S
Tb95 N96 2.572 . S
Tb95 O130 2.349 . S
Tb95 O133 2.393 . S
Tb95 O134 2.465 . S
Tb95 O135 2.387 . S
Tb95 O137 2.428 . S
Tb95 O138 2.308 . S
Tb95 C159 2.802 . S
N96 C92 1.361 . S
N96 Tb95 2.572 . S
N96 C98 1.340 . S
C97 C91 1.416 . S
C97 C99 1.332 . S
C97 H105 0.931 . S
C98 N96 1.340 . S
C98 C99 1.407 . S
C98 H104 0.930 . S
C99 C97 1.332 . S
C99 C98 1.407 . S
C99 H101 0.929 . S
H100 C89 0.930 . S
H101 C99 0.929 . S
H102 C117 0.930 . S
H103 C124 0.929 . S
H104 C98 0.930 . S
H105 C97 0.931 . S
H106 C120 0.930 . S
H107 C87 0.930 . S
H108 C93 0.929 . S
H109 C94 0.930 . S
H110 C115 0.930 . S
H111 C90 0.930 . S
H112 C123 0.931 . S
N113 Tb84 2.617 . S
N113 C114 1.379 . S
N113 C117 1.334 . S
C114 N113 1.379 . S
C114 C116 1.416 . S
C114 C122 1.424 . S
C115 H110 0.930 . S
C115 C117 1.390 . S
C115 C118 1.339 . S
C116 C114 1.416 . S
C116 C118 1.416 . S
C116 C149 1.448 . S
C117 H102 0.930 . S
C117 N113 1.334 . S
C117 C115 1.390 . S
C118 C115 1.339 . S
C118 C116 1.416 . S
C118 H125 0.930 . S
N119 Tb84 2.572 . S
N119 C120 1.340 . S
N119 C122 1.361 . S
C120 H106 0.930 . S
C120 N119 1.340 . S
C120 C124 1.407 . S
C121 C122 1.413 . S
C121 C123 1.416 . S
C121 C150 1.427 . S
C122 C114 1.424 . S
C122 N119 1.361 . S
C122 C121 1.413 . S
C123 H112 0.931 . S
C123 C121 1.416 . S
C123 C124 1.332 . S
C124 H103 0.929 . S
C124 C120 1.407 . S
C124 C123 1.332 . S
H125 C118 0.930 . S
H126 C149 0.930 . S
H127 C150 0.929 . S
O128 Tb84 2.465 . S
O128 C148 1.264 . S
O129 Tb84 2.387 . S
O129 C140 1.264 . S
O130 Tb95 2.349 . S
O130 C140 1.243 . S
O131 Tb84 2.428 . S
O131 C148 1.256 . S
O132 Tb84 2.308 . S
O132 C147 1.266 . S
O133 Tb95 2.393 . S
O133 C147 1.248 . S
O134 Tb95 2.465 . S
O134 C159 1.264 . S
O135 Tb95 2.387 . S
O135 C151 1.264 . S
O136 Tb84 2.349 . S
O136 C151 1.243 . S
O137 Tb95 2.428 . S
O137 C159 1.256 . S
O138 Tb95 2.308 . S
O138 C158 1.266 . S
O139 Tb84 2.393 . S
O139 C158 1.248 . S
C140 O129 1.264 . S
C140 O130 1.243 . S
C141 C144 1.399 . S
C141 C146 1.383 . S
C141 C148 1.496 . S
C142 C143 1.399 . S
C142 C146 1.389 . S
C143 C142 1.399 . S
C143 C145 1.380 . S
C143 H160 0.929 . S
C144 C141 1.399 . S
C144 C145 1.392 . S
C144 H161 0.929 . S
C145 C143 1.380 . S
C145 C144 1.392 . S
C145 H162 0.929 . S
C146 C141 1.383 . S
C146 C142 1.389 . S
C146 H163 0.931 . S
C147 O132 1.266 . S
C147 O133 1.248 . S
C148 Tb84 2.802 . S
C148 O128 1.264 . S
C148 O131 1.256 . S
C148 C141 1.496 . S
C149 C116 1.448 . S
C149 H126 0.930 . S
C149 C150 1.328 . S
C150 C121 1.427 . S
C150 H127 0.929 . S
C150 C149 1.328 . S
C151 O135 1.264 . S
C151 O136 1.243 . S
C152 C155 1.399 . S
C152 C156 1.383 . S
C152 C159 1.496 . S
C153 C154 1.399 . S
C153 C156 1.389 . S
C154 C153 1.399 . S
C154 C157 1.380 . S
C154 H164 0.929 . S
C155 C152 1.399 . S
C155 C157 1.392 . S
C155 H165 0.929 . S
C156 C152 1.383 . S
C156 C153 1.389 . S
C156 H166 0.931 . S
C157 C154 1.380 . S
C157 C155 1.392 . S
C157 H167 0.929 . S
C158 O138 1.266 . S
C158 O139 1.248 . S
C159 Tb95 2.802 . S
C159 O134 1.264 . S
C159 O137 1.256 . S
C159 C152 1.496 . S
H160 C143 0.929 . S
H161 C144 0.929 . S
H162 C145 0.929 . S
H163 C146 0.931 . S
H164 C154 0.929 . S
H165 C155 0.929 . S
H166 C156 0.931 . S
H167 C157 0.929 . S
Tb168 N197 2.617 . S
Tb168 N203 2.572 . S
Tb168 O212 2.465 . S
Tb168 O213 2.387 . S
Tb168 O215 2.428 . S
Tb168 O216 2.308 . S
Tb168 O220 2.349 . S
Tb168 O223 2.393 . S
Tb168 C232 2.802 . S
C169 N170 1.379 . S
C169 C172 1.416 . S
C169 C176 1.424 . S
N170 C169 1.379 . S
N170 C173 1.334 . S
N170 Tb179 2.617 . S
C171 C173 1.390 . S
C171 C174 1.339 . S
C171 H191 0.930 . S
C172 C169 1.416 . S
C172 C174 1.416 . S
C172 C178 1.448 . S
C173 N170 1.334 . S
C173 C171 1.390 . S
C173 H184 0.930 . S
C174 C171 1.339 . S
C174 C172 1.416 . S
C174 H195 0.930 . S
C175 C176 1.413 . S
C175 C177 1.427 . S
C175 C181 1.416 . S
C176 C169 1.424 . S
C176 C175 1.413 . S
C176 N180 1.361 . S
C177 C175 1.427 . S
C177 C178 1.328 . S
C177 H192 0.929 . S
C178 C172 1.448 . S
C178 C177 1.328 . S
C178 H193 0.930 . S
Tb179 N170 2.617 . S
Tb179 N180 2.572 . S
Tb179 O214 2.349 . S
Tb179 O217 2.393 . S
Tb179 O218 2.465 . S
Tb179 O219 2.387 . S
Tb179 O221 2.428 . S
Tb179 O222 2.308 . S
Tb179 C243 2.802 . S
N180 C176 1.361 . S
N180 Tb179 2.572 . S
N180 C182 1.340 . S
C181 C175 1.416 . S
C181 C183 1.332 . S
C181 H189 0.931 . S
C182 N180 1.340 . S
C182 C183 1.407 . S
C182 H188 0.930 . S
C183 C181 1.332 . S
C183 C182 1.407 . S
C183 H185 0.929 . S
H184 C173 0.930 . S
H185 C183 0.929 . S
H186 C201 0.930 . S
H187 C208 0.929 . S
H188 C182 0.930 . S
H189 C181 0.931 . S
H190 C204 0.930 . S
H191 C171 0.930 . S
H192 C177 0.929 . S
H193 C178 0.930 . S
H194 C199 0.930 . S
H195 C174 0.930 . S
H196 C207 0.931 . S
N197 Tb168 2.617 . S
N197 C198 1.379 . S
N197 C201 1.334 . S
C198 N197 1.379 . S
C198 C200 1.416 . S
C198 C206 1.424 . S
C199 H194 0.930 . S
C199 C201 1.390 . S
C199 C202 1.339 . S
C200 C198 1.416 . S
C200 C202 1.416 . S
C200 C233 1.448 . S
C201 H186 0.930 . S
C201 N197 1.334 . S
C201 C199 1.390 . S
C202 C199 1.339 . S
C202 C200 1.416 . S
C202 H209 0.930 . S
N203 Tb168 2.572 . S
N203 C204 1.340 . S
N203 C206 1.361 . S
C204 H190 0.930 . S
C204 N203 1.340 . S
C204 C208 1.407 1_565 S
C205 C206 1.413 . S
C205 C207 1.416 1_565 S
C205 C234 1.427 . S
C206 C198 1.424 . S
C206 N203 1.361 . S
C206 C205 1.413 . S
C207 H196 0.931 . S
C207 C205 1.416 1_545 S
C207 C208 1.332 . S
C208 H187 0.929 . S
C208 C204 1.407 1_545 S
C208 C207 1.332 . S
H209 C202 0.930 . S
H210 C233 0.930 . S
H211 C234 0.929 . S
O212 Tb168 2.465 . S
O212 C232 1.264 . S
O213 Tb168 2.387 . S
O213 C224 1.264 . S
O214 Tb179 2.349 . S
O214 C224 1.243 . S
O215 Tb168 2.428 . S
O215 C232 1.256 . S
O216 Tb168 2.308 . S
O216 C231 1.266 . S
O217 Tb179 2.393 . S
O217 C231 1.248 . S
O218 Tb179 2.465 . S
O218 C243 1.264 . S
O219 Tb179 2.387 . S
O219 C235 1.264 . S
O220 Tb168 2.349 . S
O220 C235 1.243 . S
O221 Tb179 2.428 . S
O221 C243 1.256 . S
O222 Tb179 2.308 . S
O222 C242 1.266 . S
O223 Tb168 2.393 . S
O223 C242 1.248 . S
C224 O213 1.264 . S
C224 O214 1.243 . S
C225 C228 1.399 . S
C225 C230 1.383 . S
C225 C232 1.496 . S
C226 C227 1.399 . S
C226 C230 1.389 . S
C227 C226 1.399 . S
C227 C229 1.380 . S
C227 H244 0.929 . S
C228 C225 1.399 . S
C228 C229 1.392 . S
C228 H245 0.929 . S
C229 C227 1.380 . S
C229 C228 1.392 . S
C229 H246 0.929 . S
C230 C225 1.383 . S
C230 C226 1.389 . S
C230 H247 0.931 . S
C231 O216 1.266 . S
C231 O217 1.248 . S
C232 Tb168 2.802 . S
C232 O212 1.264 . S
C232 O215 1.256 . S
C232 C225 1.496 . S
C233 C200 1.448 . S
C233 H210 0.930 . S
C233 C234 1.328 . S
C234 C205 1.427 . S
C234 H211 0.929 . S
C234 C233 1.328 . S
C235 O219 1.264 . S
C235 O220 1.243 . S
C236 C239 1.399 . S
C236 C240 1.383 . S
C236 C243 1.496 . S
C237 C238 1.399 . S
C237 C240 1.389 . S
C238 C237 1.399 . S
C238 C241 1.380 . S
C238 H248 0.929 . S
C239 C236 1.399 . S
C239 C241 1.392 . S
C239 H249 0.929 . S
C240 C236 1.383 . S
C240 C237 1.389 . S
C240 H250 0.931 . S
C241 C238 1.380 . S
C241 C239 1.392 . S
C241 H251 0.929 . S
C242 O222 1.266 . S
C242 O223 1.248 . S
C243 Tb179 2.802 . S
C243 O218 1.264 . S
C243 O221 1.256 . S
C243 C236 1.496 . S
H244 C227 0.929 . S
H245 C228 0.929 . S
H246 C229 0.929 . S
H247 C230 0.931 . S
H248 C238 0.929 . S
H249 C239 0.929 . S
H250 C240 0.931 . S
H251 C241 0.929 . S
Tb252 N281 2.617 . S
Tb252 N287 2.572 . S
Tb252 O296 2.465 . S
Tb252 O297 2.387 . S
Tb252 O299 2.428 . S
Tb252 O300 2.308 . S
Tb252 O304 2.349 . S
Tb252 O307 2.393 . S
Tb252 C316 2.802 . S
C253 N254 1.379 . S
C253 C256 1.416 . S
C253 C260 1.424 . S
N254 C253 1.379 . S
N254 C257 1.334 . S
N254 Tb263 2.617 . S
C255 C257 1.390 . S
C255 C258 1.339 . S
C255 H275 0.930 . S
C256 C253 1.416 . S
C256 C258 1.416 . S
C256 C262 1.448 . S
C257 N254 1.334 . S
C257 C255 1.390 . S
C257 H268 0.930 . S
C258 C255 1.339 . S
C258 C256 1.416 . S
C258 H279 0.930 . S
C259 C260 1.413 . S
C259 C261 1.427 . S
C259 C265 1.416 . S
C260 C253 1.424 . S
C260 C259 1.413 . S
C260 N264 1.361 . S
C261 C259 1.427 . S
C261 C262 1.328 . S
C261 H276 0.929 . S
C262 C256 1.448 . S
C262 C261 1.328 . S
C262 H277 0.930 . S
Tb263 N254 2.617 . S
Tb263 N264 2.572 . S
Tb263 O298 2.349 . S
Tb263 O301 2.393 . S
Tb263 O302 2.465 . S
Tb263 O303 2.387 . S
Tb263 O305 2.428 . S
Tb263 O306 2.308 . S
Tb263 C327 2.802 1_556 S
N264 C260 1.361 . S
N264 Tb263 2.572 . S
N264 C266 1.340 . S
C265 C259 1.416 . S
C265 C267 1.332 . S
C265 H273 0.931 . S
C266 N264 1.340 . S
C266 C267 1.407 . S
C266 H272 0.930 . S
C267 C265 1.332 . S
C267 C266 1.407 . S
C267 H269 0.929 . S
H268 C257 0.930 . S
H269 C267 0.929 . S
H270 C285 0.930 . S
H271 C292 0.929 . S
H272 C266 0.930 . S
H273 C265 0.931 . S
H274 C288 0.930 . S
H275 C255 0.930 . S
H276 C261 0.929 . S
H277 C262 0.930 . S
H278 C283 0.930 . S
H279 C258 0.930 . S
H280 C291 0.931 . S
N281 Tb252 2.617 . S
N281 C282 1.379 . S
N281 C285 1.334 . S
C282 N281 1.379 . S
C282 C284 1.416 . S
C282 C290 1.424 . S
C283 H278 0.930 . S
C283 C285 1.390 . S
C283 C286 1.339 . S
C284 C282 1.416 . S
C284 C286 1.416 . S
C284 C317 1.448 . S
C285 H270 0.930 . S
C285 N281 1.334 . S
C285 C283 1.390 . S
C286 C283 1.339 . S
C286 C284 1.416 . S
C286 H293 0.930 . S
N287 Tb252 2.572 . S
N287 C288 1.340 . S
N287 C290 1.361 . S
C288 H274 0.930 . S
C288 N287 1.340 . S
C288 C292 1.407 . S
C289 C290 1.413 . S
C289 C291 1.416 . S
C289 C318 1.427 . S
C290 C282 1.424 . S
C290 N287 1.361 . S
C290 C289 1.413 . S
C291 H280 0.931 . S
C291 C289 1.416 . S
C291 C292 1.332 . S
C292 H271 0.929 . S
C292 C288 1.407 . S
C292 C291 1.332 . S
H293 C286 0.930 . S
H294 C317 0.930 . S
H295 C318 0.929 1_554 S
O296 Tb252 2.465 . S
O296 C316 1.264 . S
O297 Tb252 2.387 . S
O297 C308 1.264 . S
O298 Tb263 2.349 . S
O298 C308 1.243 . S
O299 Tb252 2.428 . S
O299 C316 1.256 . S
O300 Tb252 2.308 . S
O300 C315 1.266 . S
O301 Tb263 2.393 . S
O301 C315 1.248 . S
O302 Tb263 2.465 . S
O302 C327 1.264 1_556 S
O303 Tb263 2.387 . S
O303 C319 1.264 . S
O304 Tb252 2.349 . S
O304 C319 1.243 . S
O305 Tb263 2.428 . S
O305 C327 1.256 1_556 S
O306 Tb263 2.308 . S
O306 C326 1.266 . S
O307 Tb252 2.393 . S
O307 C326 1.248 . S
C308 O297 1.264 . S
C308 O298 1.243 . S
C309 C312 1.399 . S
C309 C314 1.383 . S
C309 C316 1.496 . S
C310 C311 1.399 . S
C310 C314 1.389 . S
C311 C310 1.399 . S
C311 C313 1.380 . S
C311 H328 0.929 . S
C312 C309 1.399 . S
C312 C313 1.392 . S
C312 H329 0.929 . S
C313 C311 1.380 . S
C313 C312 1.392 . S
C313 H330 0.929 . S
C314 C309 1.383 . S
C314 C310 1.389 . S
C314 H331 0.931 . S
C315 O300 1.266 . S
C315 O301 1.248 . S
C316 Tb252 2.802 . S
C316 O296 1.264 . S
C316 O299 1.256 . S
C316 C309 1.496 . S
C317 C284 1.448 . S
C317 H294 0.930 . S
C317 C318 1.328 . S
C318 C289 1.427 . S
C318 H295 0.929 1_556 S
C318 C317 1.328 . S
C319 O303 1.264 . S
C319 O304 1.243 . S
C320 C323 1.399 . S
C320 C324 1.383 . S
C320 C327 1.496 . S
C321 C322 1.399 . S
C321 C324 1.389 . S
C322 C321 1.399 . S
C322 C325 1.380 . S
C322 H332 0.929 . S
C323 C320 1.399 . S
C323 C325 1.392 . S
C323 H333 0.929 . S
C324 C320 1.383 . S
C324 C321 1.389 . S
C324 H334 0.931 . S
C325 C322 1.380 . S
C325 C323 1.392 . S
C325 H335 0.929 . S
C326 O306 1.266 . S
C326 O307 1.248 . S
C327 Tb263 2.802 1_554 S
C327 O302 1.264 1_554 S
C327 O305 1.256 1_554 S
C327 C320 1.496 . S
H328 C311 0.929 . S
H329 C312 0.929 . S
H330 C313 0.929 . S
H331 C314 0.931 . S
H332 C322 0.929 . S
H333 C323 0.929 . S
H334 C324 0.931 . S
H335 C325 0.929 . S
Tb336 N365 2.617 1_455 S
Tb336 N371 2.563 1_455 S
Tb336 O380 2.465 . S
Tb336 O381 2.387 . S
Tb336 O383 2.428 . S
Tb336 O384 2.308 . S
Tb336 O388 2.349 . S
Tb336 O391 2.393 . S
Tb336 C400 2.802 . S
C337 N338 1.379 . S
C337 C340 1.416 . S
C337 C344 1.424 . S
N338 C337 1.379 . S
N338 C341 1.334 . S
N338 Tb347 2.617 . S
C339 C341 1.390 . S
C339 C342 1.339 . S
C339 H359 0.930 . S
C340 C337 1.416 . S
C340 C342 1.416 . S
C340 C346 1.448 . S
C341 N338 1.334 . S
C341 C339 1.390 . S
C341 H352 0.930 . S
C342 C339 1.339 . S
C342 C340 1.416 . S
C342 H363 0.930 . S
C343 C344 1.413 . S
C343 C345 1.427 . S
C343 C349 1.416 . S
C344 C337 1.424 . S
C344 C343 1.413 . S
C344 N348 1.361 . S
C345 C343 1.427 . S
C345 C346 1.328 . S
C345 H360 0.929 . S
C346 C340 1.448 . S
C346 C345 1.328 . S
C346 H361 0.930 . S
Tb347 N338 2.617 . S
Tb347 N348 2.572 . S
Tb347 O382 2.349 . S
Tb347 O385 2.393 . S
Tb347 O386 2.465 . S
Tb347 O387 2.387 . S
Tb347 O389 2.428 . S
Tb347 O390 2.308 . S
Tb347 C411 2.802 . S
N348 C344 1.361 . S
N348 Tb347 2.572 . S
N348 C350 1.340 . S
C349 C343 1.416 . S
C349 C351 1.332 . S
C349 H357 0.931 . S
C350 N348 1.340 . S
C350 C351 1.407 . S
C350 H356 0.930 . S
C351 C349 1.332 . S
C351 C350 1.407 . S
C351 H353 0.929 . S
H352 C341 0.930 . S
H353 C351 0.929 . S
H354 C369 0.930 . S
H355 C376 0.929 1_545 S
H356 C350 0.930 . S
H357 C349 0.931 . S
H358 C372 0.930 . S
H359 C339 0.930 . S
H360 C345 0.929 . S
H361 C346 0.930 . S
H362 C367 0.930 . S
H363 C342 0.930 . S
H364 C375 0.931 . S
N365 Tb336 2.617 1_655 S
N365 C366 1.379 . S
N365 C369 1.334 . S
C366 N365 1.379 . S
C366 C368 1.416 . S
C366 C374 1.424 . S
C367 H362 0.930 . S
C367 C369 1.390 . S
C367 C370 1.339 . S
C368 C366 1.416 . S
C368 C370 1.416 . S
C368 C401 1.448 . S
C369 H354 0.930 . S
C369 N365 1.334 . S
C369 C367 1.390 . S
C370 C367 1.339 . S
C370 C368 1.416 . S
C370 H377 0.930 . S
N371 Tb336 2.563 1_655 S
N371 C372 1.338 1_655 S
N371 C374 1.372 . S
C372 H358 0.930 . S
C372 N371 1.338 1_455 S
C372 C376 1.407 1_455 S
C373 C374 1.413 . S
C373 C375 1.416 . S
C373 C402 1.427 . S
C374 C366 1.424 . S
C374 N371 1.372 . S
C374 C373 1.413 . S
C375 H364 0.931 . S
C375 C373 1.416 . S
C375 C376 1.332 . S
C376 H355 0.929 1_565 S
C376 C372 1.407 1_655 S
C376 C375 1.332 . S
H377 C370 0.930 . S
H378 C401 0.930 . S
H379 C402 0.929 . S
O380 Tb336 2.465 . S
O380 C400 1.264 . S
O381 Tb336 2.387 . S
O381 C392 1.264 . S
O382 Tb347 2.349 . S
O382 C392 1.243 . S
O383 Tb336 2.428 . S
O383 C400 1.256 . S
O384 Tb336 2.308 . S
O384 C399 1.266 . S
O385 Tb347 2.393 . S
O385 C399 1.248 . S
O386 Tb347 2.465 . S
O386 C411 1.264 . S
O387 Tb347 2.387 . S
O387 C403 1.264 . S
O388 Tb336 2.349 . S
O388 C403 1.243 . S
O389 Tb347 2.428 . S
O389 C411 1.256 . S
O390 Tb347 2.308 . S
O390 C410 1.266 . S
O391 Tb336 2.393 . S
O391 C410 1.248 . S
C392 O381 1.264 . S
C392 O382 1.243 . S
C393 C396 1.399 1_455 S
C393 C398 1.383 . S
C393 C400 1.496 1_554 S
C394 C395 1.399 1_455 S
C394 C398 1.389 . S
C395 C394 1.399 1_655 S
C395 C397 1.380 . S
C395 H412 0.929 . S
C396 C393 1.399 1_655 S
C396 C397 1.392 . S
C396 H413 0.929 . S
C397 C395 1.380 . S
C397 C396 1.392 . S
C397 H414 0.929 . S
C398 C393 1.383 . S
C398 C394 1.389 . S
C398 H415 0.931 . S
C399 O384 1.266 . S
C399 O385 1.248 . S
C400 Tb336 2.802 . S
C400 O380 1.264 . S
C400 O383 1.256 . S
C400 C393 1.496 1_556 S
C401 C368 1.448 . S
C401 H378 0.930 . S
C401 C402 1.328 . S
C402 C373 1.427 . S
C402 H379 0.929 . S
C402 C401 1.328 . S
C403 O387 1.264 . S
C403 O388 1.243 . S
C404 C407 1.399 . S
C404 C408 1.383 . S
C404 C411 1.496 . S
C405 C406 1.399 . S
C405 C408 1.389 . S
C406 C405 1.399 . S
C406 C409 1.380 . S
C406 H416 0.929 . S
C407 C404 1.399 . S
C407 C409 1.392 . S
C407 H417 0.929 . S
C408 C404 1.383 . S
C408 C405 1.389 . S
C408 H418 0.931 . S
C409 C406 1.380 . S
C409 C407 1.392 . S
C409 H419 0.929 . S
C410 O390 1.266 . S
C410 O391 1.248 . S
C411 Tb347 2.802 . S
C411 O386 1.264 . S
C411 O389 1.256 . S
C411 C404 1.496 . S
H412 C395 0.929 . S
H413 C396 0.929 . S
H414 C397 0.929 . S
H415 C398 0.931 . S
H416 C406 0.929 . S
H417 C407 0.929 . S
H418 C408 0.931 . S
H419 C409 0.929 . S
Tb420 N449 2.617 . S
Tb420 N455 2.572 . S
Tb420 O464 2.465 . S
Tb420 O465 2.387 . S
Tb420 O467 2.428 . S
Tb420 O468 2.308 . S
Tb420 O472 2.349 . S
Tb420 O475 2.393 . S
Tb420 C484 2.802 . S
C421 N422 1.379 . S
C421 C424 1.416 . S
C421 C428 1.424 . S
N422 C421 1.379 . S
N422 C425 1.334 . S
N422 Tb431 2.617 . S
C423 C425 1.390 . S
C423 C426 1.339 . S
C423 H443 0.930 . S
C424 C421 1.416 . S
C424 C426 1.416 . S
C424 C430 1.448 . S
C425 N422 1.334 . S
C425 C423 1.390 . S
C425 H436 0.930 . S
C426 C423 1.339 . S
C426 C424 1.416 . S
C426 H447 0.930 . S
C427 C428 1.413 . S
C427 C429 1.427 . S
C427 C433 1.416 . S
C428 C421 1.424 . S
C428 C427 1.413 . S
C428 N432 1.361 . S
C429 C427 1.427 . S
C429 C430 1.328 . S
C429 H444 0.929 . S
C430 C424 1.448 . S
C430 C429 1.328 . S
C430 H445 0.930 . S
Tb431 N422 2.617 . S
Tb431 N432 2.572 . S
Tb431 O466 2.349 . S
Tb431 O469 2.393 . S
Tb431 O470 2.465 . S
Tb431 O471 2.387 . S
Tb431 O473 2.428 . S
Tb431 O474 2.308 . S
Tb431 C495 2.802 1_554 S
N432 C428 1.361 . S
N432 Tb431 2.572 . S
N432 C434 1.340 . S
C433 C427 1.416 . S
C433 C435 1.332 . S
C433 H441 0.931 . S
C434 N432 1.340 . S
C434 C435 1.407 . S
C434 H440 0.930 . S
C435 C433 1.332 . S
C435 C434 1.407 . S
C435 H437 0.929 . S
H436 C425 0.930 . S
H437 C435 0.929 . S
H438 C453 0.930 . S
H439 C460 0.929 . S
H440 C434 0.930 . S
H441 C433 0.931 . S
H442 C456 0.930 . S
H443 C423 0.930 . S
H444 C429 0.929 . S
H445 C430 0.930 . S
H446 C451 0.930 . S
H447 C426 0.930 . S
H448 C459 0.931 . S
N449 Tb420 2.617 . S
N449 C450 1.379 . S
N449 C453 1.334 . S
C450 N449 1.379 . S
C450 C452 1.416 . S
C450 C458 1.424 . S
C451 H446 0.930 . S
C451 C453 1.390 . S
C451 C454 1.339 . S
C452 C450 1.416 . S
C452 C454 1.416 . S
C452 C485 1.448 . S
C453 H438 0.930 . S
C453 N449 1.334 . S
C453 C451 1.390 . S
C454 C451 1.339 . S
C454 C452 1.416 . S
C454 H461 0.930 . S
N455 Tb420 2.572 . S
N455 C456 1.340 . S
N455 C458 1.361 . S
C456 H442 0.930 . S
C456 N455 1.340 . S
C456 C460 1.407 . S
C457 C458 1.413 . S
C457 C459 1.416 . S
C457 C486 1.427 . S
C458 C450 1.424 . S
C458 N455 1.361 . S
C458 C457 1.413 . S
C459 H448 0.931 . S
C459 C457 1.416 . S
C459 C460 1.332 . S
C460 H439 0.929 . S
C460 C456 1.407 . S
C460 C459 1.332 . S
H461 C454 0.930 . S
H462 C485 0.930 . S
H463 C486 0.929 1_556 S
O464 Tb420 2.465 . S
O464 C484 1.264 . S
O465 Tb420 2.387 . S
O465 C476 1.264 . S
O466 Tb431 2.349 . S
O466 C476 1.243 . S
O467 Tb420 2.428 . S
O467 C484 1.256 . S
O468 Tb420 2.308 . S
O468 C483 1.266 . S
O469 Tb431 2.393 . S
O469 C483 1.248 . S
O470 Tb431 2.465 . S
O470 C495 1.264 1_554 S
O471 Tb431 2.387 . S
O471 C487 1.264 . S
O472 Tb420 2.349 . S
O472 C487 1.243 . S
O473 Tb431 2.428 . S
O473 C495 1.256 1_554 S
O474 Tb431 2.308 . S
O474 C494 1.266 . S
O475 Tb420 2.393 . S
O475 C494 1.248 . S
C476 O465 1.264 . S
C476 O466 1.243 . S
C477 C480 1.399 . S
C477 C482 1.383 . S
C477 C484 1.496 . S
C478 C479 1.399 . S
C478 C482 1.389 . S
C479 C478 1.399 . S
C479 C481 1.380 . S
C479 H496 0.929 . S
C480 C477 1.399 . S
C480 C481 1.392 . S
C480 H497 0.929 . S
C481 C479 1.380 . S
C481 C480 1.392 . S
C481 H498 0.929 . S
C482 C477 1.383 . S
C482 C478 1.389 . S
C482 H499 0.931 . S
C483 O468 1.266 . S
C483 O469 1.248 . S
C484 Tb420 2.802 . S
C484 O464 1.264 . S
C484 O467 1.256 . S
C484 C477 1.496 . S
C485 C452 1.448 . S
C485 H462 0.930 . S
C485 C486 1.328 . S
C486 C457 1.427 . S
C486 H463 0.929 1_554 S
C486 C485 1.328 . S
C487 O471 1.264 . S
C487 O472 1.243 . S
C488 C491 1.399 . S
C488 C492 1.383 . S
C488 C495 1.496 . S
C489 C490 1.399 . S
C489 C492 1.389 . S
C490 C489 1.399 . S
C490 C493 1.380 . S
C490 H500 0.929 . S
C491 C488 1.399 . S
C491 C493 1.392 . S
C491 H501 0.929 . S
C492 C488 1.383 . S
C492 C489 1.389 . S
C492 H502 0.931 . S
C493 C490 1.380 . S
C493 C491 1.392 . S
C493 H503 0.929 . S
C494 O474 1.266 . S
C494 O475 1.248 . S
C495 Tb431 2.802 1_556 S
C495 O470 1.264 1_556 S
C495 O473 1.256 1_556 S
C495 C488 1.496 . S
H496 C479 0.929 . S
H497 C480 0.929 . S
H498 C481 0.929 . S
H499 C482 0.931 . S
H500 C490 0.929 . S
H501 C491 0.929 . S
H502 C492 0.931 . S
H503 C493 0.929 . S
Tb504 N533 2.617 . S
Tb504 N539 2.572 . S
Tb504 O548 2.465 . S
Tb504 O549 2.387 . S
Tb504 O551 2.428 . S
Tb504 O552 2.308 . S
Tb504 O556 2.349 . S
Tb504 O559 2.393 . S
Tb504 C568 2.802 . S
C505 N506 1.379 . S
C505 C508 1.416 . S
C505 C512 1.424 . S
N506 C505 1.379 . S
N506 C509 1.334 . S
N506 Tb515 2.617 . S
C507 C509 1.390 . S
C507 C510 1.339 . S
C507 H527 0.930 . S
C508 C505 1.416 . S
C508 C510 1.416 . S
C508 C514 1.448 . S
C509 N506 1.334 . S
C509 C507 1.390 . S
C509 H520 0.930 . S
C510 C507 1.339 . S
C510 C508 1.416 . S
C510 H531 0.930 . S
C511 C512 1.413 . S
C511 C513 1.427 . S
C511 C517 1.416 . S
C512 C505 1.424 . S
C512 C511 1.413 . S
C512 N516 1.361 . S
C513 C511 1.427 . S
C513 C514 1.328 . S
C513 H528 0.929 . S
C514 C508 1.448 . S
C514 C513 1.328 . S
C514 H529 0.930 . S
Tb515 N506 2.617 . S
Tb515 N516 2.572 . S
Tb515 O550 2.349 . S
Tb515 O553 2.393 . S
Tb515 O554 2.465 . S
Tb515 O555 2.387 . S
Tb515 O557 2.428 . S
Tb515 O558 2.308 . S
Tb515 C579 2.802 . S
N516 C512 1.361 . S
N516 Tb515 2.572 . S
N516 C518 1.340 . S
C517 C511 1.416 . S
C517 C519 1.332 . S
C517 H525 0.931 . S
C518 N516 1.340 . S
C518 C519 1.407 . S
C518 H524 0.930 . S
C519 C517 1.332 . S
C519 C518 1.407 . S
C519 H521 0.929 . S
H520 C509 0.930 . S
H521 C519 0.929 . S
H522 C537 0.930 . S
H523 C544 0.929 . S
H524 C518 0.930 . S
H525 C517 0.931 . S
H526 C540 0.930 . S
H527 C507 0.930 . S
H528 C513 0.929 . S
H529 C514 0.930 . S
H530 C535 0.930 . S
H531 C510 0.930 . S
H532 C543 0.931 . S
N533 Tb504 2.617 . S
N533 C534 1.379 . S
N533 C537 1.334 . S
C534 N533 1.379 . S
C534 C536 1.416 . S
C534 C542 1.424 . S
C535 H530 0.930 . S
C535 C537 1.390 . S
C535 C538 1.339 . S
C536 C534 1.416 . S
C536 C538 1.416 . S
C536 C569 1.448 . S
C537 H522 0.930 . S
C537 N533 1.334 . S
C537 C535 1.390 . S
C538 C535 1.339 . S
C538 C536 1.416 . S
C538 H545 0.930 . S
N539 Tb504 2.572 . S
N539 C540 1.340 . S
N539 C542 1.361 . S
C540 H526 0.930 . S
C540 N539 1.340 . S
C540 C544 1.407 1_545 S
C541 C542 1.413 . S
C541 C543 1.416 1_545 S
C541 C570 1.427 . S
C542 C534 1.424 . S
C542 N539 1.361 . S
C542 C541 1.413 . S
C543 H532 0.931 . S
C543 C541 1.416 1_565 S
C543 C544 1.332 . S
C544 H523 0.929 . S
C544 C540 1.407 1_565 S
C544 C543 1.332 . S
H545 C538 0.930 . S
H546 C569 0.930 . S
H547 C570 0.929 . S
O548 Tb504 2.465 . S
O548 C568 1.264 . S
O549 Tb504 2.387 . S
O549 C560 1.264 . S
O550 Tb515 2.349 . S
O550 C560 1.243 . S
O551 Tb504 2.428 . S
O551 C568 1.256 . S
O552 Tb504 2.308 . S
O552 C567 1.266 . S
O553 Tb515 2.393 . S
O553 C567 1.248 . S
O554 Tb515 2.465 . S
O554 C579 1.264 . S
O555 Tb515 2.387 . S
O555 C571 1.264 . S
O556 Tb504 2.349 . S
O556 C571 1.243 . S
O557 Tb515 2.428 . S
O557 C579 1.256 . S
O558 Tb515 2.308 . S
O558 C578 1.266 . S
O559 Tb504 2.393 . S
O559 C578 1.248 . S
C560 O549 1.264 . S
C560 O550 1.243 . S
C561 C564 1.399 . S
C561 C566 1.383 . S
C561 C568 1.496 . S
C562 C563 1.399 . S
C562 C566 1.389 . S
C563 C562 1.399 . S
C563 C565 1.380 . S
C563 H580 0.929 . S
C564 C561 1.399 . S
C564 C565 1.392 . S
C564 H581 0.929 . S
C565 C563 1.380 . S
C565 C564 1.392 . S
C565 H582 0.929 . S
C566 C561 1.383 . S
C566 C562 1.389 . S
C566 H583 0.931 . S
C567 O552 1.266 . S
C567 O553 1.248 . S
C568 Tb504 2.802 . S
C568 O548 1.264 . S
C568 O551 1.256 . S
C568 C561 1.496 . S
C569 C536 1.448 . S
C569 H546 0.930 . S
C569 C570 1.328 . S
C570 C541 1.427 . S
C570 H547 0.929 . S
C570 C569 1.328 . S
C571 O555 1.264 . S
C571 O556 1.243 . S
C572 C575 1.399 . S
C572 C576 1.383 . S
C572 C579 1.496 . S
C573 C574 1.399 . S
C573 C576 1.389 . S
C574 C573 1.399 . S
C574 C577 1.380 . S
C574 H584 0.929 . S
C575 C572 1.399 . S
C575 C577 1.392 . S
C575 H585 0.929 . S
C576 C572 1.383 . S
C576 C573 1.389 . S
C576 H586 0.931 . S
C577 C574 1.380 . S
C577 C575 1.392 . S
C577 H587 0.929 . S
C578 O558 1.266 . S
C578 O559 1.248 . S
C579 Tb515 2.802 . S
C579 O554 1.264 . S
C579 O557 1.256 . S
C579 C572 1.496 . S
H580 C563 0.929 . S
H581 C564 0.929 . S
H582 C565 0.929 . S
H583 C566 0.931 . S
H584 C574 0.929 . S
H585 C575 0.929 . S
H586 C576 0.931 . S
H587 C577 0.929 . S
Tb588 N617 2.617 . S
Tb588 N623 2.572 . S
Tb588 O632 2.465 . S
Tb588 O633 2.387 . S
Tb588 O635 2.428 . S
Tb588 O636 2.308 . S
Tb588 O640 2.349 . S
Tb588 O643 2.393 . S
Tb588 C652 2.802 . S
C589 N590 1.379 . S
C589 C592 1.416 . S
C589 C596 1.424 . S
N590 C589 1.379 . S
N590 C593 1.334 . S
N590 Tb599 2.617 . S
C591 C593 1.390 . S
C591 C594 1.339 . S
C591 H611 0.930 . S
C592 C589 1.416 . S
C592 C594 1.416 . S
C592 C598 1.448 . S
C593 N590 1.334 . S
C593 C591 1.390 . S
C593 H604 0.930 . S
C594 C591 1.339 . S
C594 C592 1.416 . S
C594 H615 0.930 . S
C595 C596 1.413 . S
C595 C597 1.427 . S
C595 C601 1.416 . S
C596 C589 1.424 . S
C596 C595 1.413 . S
C596 N600 1.361 . S
C597 C595 1.427 . S
C597 C598 1.328 . S
C597 H612 0.929 . S
C598 C592 1.448 . S
C598 C597 1.328 . S
C598 H613 0.930 . S
Tb599 N590 2.617 . S
Tb599 N600 2.572 . S
Tb599 O634 2.349 . S
Tb599 O637 2.393 . S
Tb599 O638 2.465 . S
Tb599 O639 2.387 . S
Tb599 O641 2.428 . S
Tb599 O642 2.308 . S
Tb599 C663 2.802 . S
N600 C596 1.361 . S
N600 Tb599 2.572 . S
N600 C602 1.340 . S
C601 C595 1.416 . S
C601 C603 1.332 . S
C601 H609 0.931 . S
C602 N600 1.340 . S
C602 C603 1.407 . S
C602 H608 0.930 . S
C603 C601 1.332 . S
C603 C602 1.407 . S
C603 H605 0.929 . S
H604 C593 0.930 . S
H605 C603 0.929 . S
H606 C621 0.930 . S
H607 C628 0.929 . S
H608 C602 0.930 . S
H609 C601 0.931 . S
H610 C624 0.930 . S
H611 C591 0.930 . S
H612 C597 0.929 . S
H613 C598 0.930 . S
H614 C619 0.930 . S
H615 C594 0.930 . S
H616 C627 0.931 . S
N617 Tb588 2.617 . S
N617 C618 1.379 . S
N617 C621 1.334 . S
C618 N617 1.379 . S
C618 C620 1.416 . S
C618 C626 1.424 . S
C619 H614 0.930 . S
C619 C621 1.390 . S
C619 C622 1.339 . S
C620 C618 1.416 . S
C620 C622 1.416 . S
C620 C653 1.448 . S
C621 H606 0.930 . S
C621 N617 1.334 . S
C621 C619 1.390 . S
C622 C619 1.339 . S
C622 C620 1.416 . S
C622 H629 0.930 . S
N623 Tb588 2.572 . S
N623 C624 1.340 . S
N623 C626 1.361 . S
C624 H610 0.930 . S
C624 N623 1.340 . S
C624 C628 1.407 . S
C625 C626 1.413 . S
C625 C627 1.416 . S
C625 C654 1.427 . S
C626 C618 1.424 . S
C626 N623 1.361 . S
C626 C625 1.413 . S
C627 H616 0.931 . S
C627 C625 1.416 . S
C627 C628 1.332 . S
C628 H607 0.929 . S
C628 C624 1.407 . S
C628 C627 1.332 . S
H629 C622 0.930 . S
H630 C653 0.930 . S
H631 C654 0.929 . S
O632 Tb588 2.465 . S
O632 C652 1.264 . S
O633 Tb588 2.387 . S
O633 C644 1.264 . S
O634 Tb599 2.349 . S
O634 C644 1.243 . S
O635 Tb588 2.428 . S
O635 C652 1.256 . S
O636 Tb588 2.308 . S
O636 C651 1.266 . S
O637 Tb599 2.393 . S
O637 C651 1.248 . S
O638 Tb599 2.465 . S
O638 C663 1.264 . S
O639 Tb599 2.387 . S
O639 C655 1.264 . S
O640 Tb588 2.349 . S
O640 C655 1.243 . S
O641 Tb599 2.428 . S
O641 C663 1.256 . S
O642 Tb599 2.308 . S
O642 C662 1.266 . S
O643 Tb588 2.393 . S
O643 C662 1.248 . S
C644 O633 1.264 . S
C644 O634 1.243 . S
C645 C648 1.399 . S
C645 C650 1.383 . S
C645 C652 1.496 . S
C646 C647 1.399 . S
C646 C650 1.389 . S
C647 C646 1.399 . S
C647 C649 1.380 . S
C647 H664 0.929 . S
C648 C645 1.399 . S
C648 C649 1.392 . S
C648 H665 0.929 . S
C649 C647 1.380 . S
C649 C648 1.392 . S
C649 H666 0.929 . S
C650 C645 1.383 . S
C650 C646 1.389 . S
C650 H667 0.931 . S
C651 O636 1.266 . S
C651 O637 1.248 . S
C652 Tb588 2.802 . S
C652 O632 1.264 . S
C652 O635 1.256 . S
C652 C645 1.496 . S
C653 C620 1.448 . S
C653 H630 0.930 . S
C653 C654 1.328 . S
C654 C625 1.427 . S
C654 H631 0.929 . S
C654 C653 1.328 . S
C655 O639 1.264 . S
C655 O640 1.243 . S
C656 C659 1.399 . S
C656 C660 1.383 . S
C656 C663 1.496 . S
C657 C658 1.399 . S
C657 C660 1.389 . S
C658 C657 1.399 . S
C658 C661 1.380 . S
C658 H668 0.929 . S
C659 C656 1.399 . S
C659 C661 1.392 . S
C659 H669 0.929 . S
C660 C656 1.383 . S
C660 C657 1.389 . S
C660 H670 0.931 . S
C661 C658 1.380 . S
C661 C659 1.392 . S
C661 H671 0.929 . S
C662 O642 1.266 . S
C662 O643 1.248 . S
C663 Tb599 2.802 . S
C663 O638 1.264 . S
C663 O641 1.256 . S
C663 C656 1.496 . S
H664 C647 0.929 . S
H665 C648 0.929 . S
H666 C649 0.929 . S
H667 C650 0.931 . S
H668 C658 0.929 . S
H669 C659 0.929 . S
H670 C660 0.931 . S
H671 C661 0.929 . S
Tb672 N701 2.617 1_655 S
Tb672 N707 2.572 . S
Tb672 O716 2.465 . S
Tb672 O717 2.387 . S
Tb672 O719 2.428 1_655 S
Tb672 O720 2.308 . S
Tb672 O724 2.349 . S
Tb672 O727 2.393 1_655 S
Tb672 C736 2.802 . S
C673 N674 1.379 . S
C673 C676 1.416 . S
C673 C680 1.424 . S
N674 C673 1.379 . S
N674 C677 1.334 . S
N674 Tb683 2.617 . S
C675 C677 1.390 . S
C675 C678 1.339 . S
C675 H695 0.930 . S
C676 C673 1.416 . S
C676 C678 1.416 . S
C676 C682 1.448 . S
C677 N674 1.334 . S
C677 C675 1.390 . S
C677 H688 0.930 . S
C678 C675 1.339 . S
C678 C676 1.416 . S
C678 H699 0.930 . S
C679 C680 1.413 . S
C679 C681 1.427 . S
C679 C685 1.416 . S
C680 C673 1.424 . S
C680 C679 1.413 . S
C680 N684 1.361 . S
C681 C679 1.427 . S
C681 C682 1.328 . S
C681 H696 0.929 . S
C682 C676 1.448 . S
C682 C681 1.328 . S
C682 H697 0.930 . S
Tb683 N674 2.617 . S
Tb683 N684 2.572 . S
Tb683 O718 2.349 . S
Tb683 O721 2.393 . S
Tb683 O722 2.465 . S
Tb683 O723 2.387 . S
Tb683 O725 2.428 . S
Tb683 O726 2.308 . S
Tb683 C747 2.802 . S
N684 C680 1.361 . S
N684 Tb683 2.572 . S
N684 C686 1.340 . S
C685 C679 1.416 . S
C685 C687 1.332 . S
C685 H693 0.931 . S
C686 N684 1.340 . S
C686 C687 1.407 . S
C686 H692 0.930 . S
C687 C685 1.332 . S
C687 C686 1.407 . S
C687 H689 0.929 . S
H688 C677 0.930 . S
H689 C687 0.929 . S
H690 C705 0.930 . S
H691 C712 0.929 1_565 S
H692 C686 0.930 . S
H693 C685 0.931 . S
H694 C708 0.930 . S
H695 C675 0.930 . S
H696 C681 0.929 . S
H697 C682 0.930 . S
H698 C703 0.930 . S
H699 C678 0.930 . S
H700 C711 0.931 . S
N701 Tb672 2.617 1_455 S
N701 C702 1.379 . S
N701 C705 1.334 . S
C702 N701 1.379 . S
C702 C704 1.416 . S
C702 C710 1.426 . S
C703 H698 0.930 . S
C703 C705 1.390 . S
C703 C706 1.339 . S
C704 C702 1.416 . S
C704 C706 1.416 . S
C704 C737 1.448 . S
C705 H690 0.930 . S
C705 N701 1.334 . S
C705 C703 1.390 . S
C706 C703 1.339 . S
C706 C704 1.416 . S
C706 H713 0.930 . S
N707 Tb672 2.572 . S
N707 C708 1.340 . S
N707 C710 1.359 1_655 S
C708 H694 0.930 . S
C708 N707 1.340 . S
C708 C712 1.407 . S
C709 C710 1.412 . S
C709 C711 1.393 1_445 S
C709 C738 1.450 1_545 S
C710 C702 1.426 . S
C710 N707 1.359 1_455 S
C710 C709 1.412 . S
C711 H700 0.931 . S
C711 C709 1.393 1_665 S
C711 C712 1.332 1_565 S
C712 H691 0.929 1_545 S
C712 C708 1.407 . S
C712 C711 1.332 1_545 S
H713 C706 0.930 . S
H714 C737 0.930 . S
H715 C738 0.929 . S
O716 Tb672 2.465 . S
O716 C736 1.264 . S
O717 Tb672 2.387 . S
O717 C728 1.264 . S
O718 Tb683 2.349 . S
O718 C728 1.243 . S
O719 Tb672 2.428 1_455 S
O719 C736 1.256 1_455 S
O720 Tb672 2.308 . S
O720 C735 1.266 . S
O721 Tb683 2.393 . S
O721 C735 1.248 . S
O722 Tb683 2.465 . S
O722 C747 1.264 . S
O723 Tb683 2.387 . S
O723 C739 1.264 . S
O724 Tb672 2.349 . S
O724 C739 1.243 . S
O725 Tb683 2.428 . S
O725 C747 1.256 . S
O726 Tb683 2.308 . S
O726 C746 1.266 . S
O727 Tb672 2.393 1_455 S
O727 C746 1.248 1_455 S
C728 O717 1.264 . S
C728 O718 1.243 . S
C729 C732 1.399 1_655 S
C729 C734 1.383 . S
C729 C736 1.496 . S
C730 C731 1.399 1_655 S
C730 C734 1.389 . S
C731 C730 1.399 1_455 S
C731 C733 1.380 . S
C731 H748 0.929 . S
C732 C729 1.399 1_455 S
C732 C733 1.392 . S
C732 H749 0.929 . S
C733 C731 1.380 . S
C733 C732 1.392 . S
C733 H750 0.929 . S
C734 C729 1.383 . S
C734 C730 1.389 . S
C734 H751 0.931 . S
C735 O720 1.266 . S
C735 O721 1.248 . S
C736 Tb672 2.802 . S
C736 O716 1.264 . S
C736 O719 1.256 1_655 S
C736 C729 1.496 . S
C737 C704 1.448 . S
C737 H714 0.930 . S
C737 C738 1.328 1_545 S
C738 C709 1.450 1_565 S
C738 H715 0.929 . S
C738 C737 1.328 1_565 S
C739 O723 1.264 . S
C739 O724 1.243 . S
C740 C743 1.399 . S
C740 C744 1.383 . S
C740 C747 1.496 . S
C741 C742 1.399 . S
C741 C744 1.389 . S
C742 C741 1.399 . S
C742 C745 1.380 . S
C742 H752 0.929 . S
C743 C740 1.399 . S
C743 C745 1.392 . S
C743 H753 0.929 . S
C744 C740 1.383 . S
C744 C741 1.389 . S
C744 H754 0.931 . S
C745 C742 1.380 . S
C745 C743 1.392 . S
C745 H755 0.929 . S
C746 O726 1.266 . S
C746 O727 1.248 1_655 S
C747 Tb683 2.802 . S
C747 O722 1.264 . S
C747 O725 1.256 . S
C747 C740 1.496 . S
H748 C731 0.929 . S
H749 C732 0.929 . S
H750 C733 0.929 . S
H751 C734 0.931 . S
H752 C742 0.929 . S
H753 C743 0.929 . S
H754 C744 0.931 . S
H755 C745 0.929 . S
Tb756 N785 2.617 . S
Tb756 N791 2.572 . S
Tb756 O800 2.465 . S
Tb756 O801 2.387 . S
Tb756 O803 2.428 . S
Tb756 O804 2.308 . S
Tb756 O808 2.349 . S
Tb756 O811 2.393 . S
Tb756 C820 2.802 . S
C757 N758 1.379 . S
C757 C760 1.416 . S
C757 C764 1.424 . S
N758 C757 1.379 . S
N758 C761 1.334 . S
N758 Tb767 2.617 . S
C759 C761 1.390 . S
C759 C762 1.339 . S
C759 H779 0.930 . S
C760 C757 1.416 . S
C760 C762 1.416 . S
C760 C766 1.448 . S
C761 N758 1.334 . S
C761 C759 1.390 . S
C761 H772 0.930 . S
C762 C759 1.339 . S
C762 C760 1.416 . S
C762 H783 0.930 . S
C763 C764 1.413 . S
C763 C765 1.427 . S
C763 C769 1.416 . S
C764 C757 1.424 . S
C764 C763 1.413 . S
C764 N768 1.361 . S
C765 C763 1.427 . S
C765 C766 1.328 . S
C765 H780 0.929 . S
C766 C760 1.448 . S
C766 C765 1.328 . S
C766 H781 0.930 . S
Tb767 N758 2.617 . S
Tb767 N768 2.572 . S
Tb767 O802 2.349 . S
Tb767 O805 2.393 . S
Tb767 O806 2.465 . S
Tb767 O807 2.387 . S
Tb767 O809 2.428 . S
Tb767 O810 2.308 . S
Tb767 C831 2.802 . S
N768 C764 1.361 . S
N768 Tb767 2.572 . S
N768 C770 1.340 . S
C769 C763 1.416 . S
C769 C771 1.332 . S
C769 H777 0.931 . S
C770 N768 1.340 . S
C770 C771 1.407 . S
C770 H776 0.930 . S
C771 C769 1.332 . S
C771 C770 1.407 . S
C771 H773 0.929 . S
H772 C761 0.930 . S
H773 C771 0.929 . S
H774 C789 0.930 . S
H775 C796 0.929 . S
H776 C770 0.930 . S
H777 C769 0.931 . S
H778 C792 0.930 . S
H779 C759 0.930 . S
H780 C765 0.929 . S
H781 C766 0.930 . S
H782 C787 0.930 . S
H783 C762 0.930 . S
H784 C795 0.931 . S
N785 Tb756 2.617 . S
N785 C786 1.379 1_565 S
N785 C789 1.334 . S
C786 N785 1.379 1_545 S
C786 C788 1.416 . S
C786 C794 1.424 . S
C787 H782 0.930 . S
C787 C789 1.390 1_545 S
C787 C790 1.339 . S
C788 C786 1.416 . S
C788 C790 1.416 . S
C788 C821 1.448 . S
C789 H774 0.930 . S
C789 N785 1.334 . S
C789 C787 1.390 1_565 S
C790 C787 1.339 . S
C790 C788 1.416 . S
C790 H797 0.930 . S
N791 Tb756 2.572 . S
N791 C792 1.340 . S
N791 C794 1.361 1_565 S
C792 H778 0.930 . S
C792 N791 1.340 . S
C792 C796 1.407 . S
C793 C794 1.413 . S
C793 C795 1.416 . S
C793 C822 1.427 . S
C794 C786 1.424 . S
C794 N791 1.361 1_545 S
C794 C793 1.413 . S
C795 H784 0.931 . S
C795 C793 1.416 . S
C795 C796 1.332 1_545 S
C796 H775 0.929 . S
C796 C792 1.407 . S
C796 C795 1.332 1_565 S
H797 C790 0.930 . S
H798 C821 0.930 . S
H799 C822 0.929 . S
O800 Tb756 2.465 . S
O800 C820 1.264 . S
O801 Tb756 2.387 . S
O801 C812 1.264 . S
O802 Tb767 2.349 . S
O802 C812 1.243 . S
O803 Tb756 2.428 . S
O803 C820 1.256 . S
O804 Tb756 2.308 . S
O804 C819 1.266 . S
O805 Tb767 2.393 . S
O805 C819 1.248 . S
O806 Tb767 2.465 . S
O806 C831 1.264 . S
O807 Tb767 2.387 . S
O807 C823 1.264 . S
O808 Tb756 2.349 . S
O808 C823 1.243 . S
O809 Tb767 2.428 . S
O809 C831 1.256 . S
O810 Tb767 2.308 . S
O810 C830 1.266 . S
O811 Tb756 2.393 . S
O811 C830 1.248 . S
C812 O801 1.264 . S
C812 O802 1.243 . S
C813 C816 1.399 1_554 S
C813 C818 1.383 1_554 S
C813 C820 1.496 . S
C814 C815 1.399 . S
C814 C818 1.389 . S
C815 C814 1.399 . S
C815 C817 1.380 . S
C815 H832 0.935 . S
C816 C813 1.399 1_556 S
C816 C817 1.392 . S
C816 H833 0.929 1_556 S
C817 C815 1.380 . S
C817 C816 1.392 . S
C817 H834 0.929 1_565 S
C818 C813 1.383 1_556 S
C818 C814 1.389 . S
C818 H835 0.931 . S
C819 O804 1.266 . S
C819 O805 1.248 . S
C820 Tb756 2.802 . S
C820 O800 1.264 . S
C820 O803 1.256 . S
C820 C813 1.496 . S
C821 C788 1.448 . S
C821 H798 0.930 . S
C821 C822 1.328 . S
C822 C793 1.427 . S
C822 H799 0.929 . S
C822 C821 1.328 . S
C823 O807 1.264 . S
C823 O808 1.243 . S
C824 C827 1.399 . S
C824 C828 1.383 . S
C824 C831 1.496 . S
C825 C826 1.399 . S
C825 C828 1.389 . S
C826 C825 1.399 . S
C826 C829 1.380 . S
C826 H836 0.929 . S
C827 C824 1.399 . S
C827 C829 1.392 . S
C827 H837 0.929 . S
C828 C824 1.383 . S
C828 C825 1.389 . S
C828 H838 0.931 . S
C829 C826 1.380 . S
C829 C827 1.392 . S
C829 H839 0.929 . S
C830 O810 1.266 . S
C830 O811 1.248 . S
C831 Tb767 2.802 . S
C831 O806 1.264 . S
C831 O809 1.256 . S
C831 C824 1.496 . S
H832 C815 0.935 . S
H833 C816 0.929 1_554 S
H834 C817 0.929 1_545 S
H835 C818 0.931 . S
H836 C826 0.929 . S
H837 C827 0.929 . S
H838 C828 0.931 . S
H839 C829 0.929 . S
Tb840 N869 2.617 . S
Tb840 N875 2.572 . S
Tb840 O884 2.465 . S
Tb840 O885 2.387 . S
Tb840 O887 2.428 . S
Tb840 O888 2.308 . S
Tb840 O892 2.349 . S
Tb840 O895 2.393 . S
Tb840 C904 2.802 . S
C841 N842 1.379 . S
C841 C844 1.416 . S
C841 C848 1.424 . S
N842 C841 1.379 . S
N842 C845 1.334 . S
N842 Tb851 2.617 . S
C843 C845 1.390 . S
C843 C846 1.339 . S
C843 H863 0.930 . S
C844 C841 1.416 . S
C844 C846 1.416 . S
C844 C850 1.448 . S
C845 N842 1.334 . S
C845 C843 1.390 . S
C845 H856 0.930 . S
C846 C843 1.339 . S
C846 C844 1.416 . S
C846 H867 0.930 . S
C847 C848 1.413 . S
C847 C849 1.427 . S
C847 C853 1.416 . S
C848 C841 1.424 . S
C848 C847 1.413 . S
C848 N852 1.361 . S
C849 C847 1.427 . S
C849 C850 1.328 . S
C849 H864 0.929 . S
C850 C844 1.448 . S
C850 C849 1.328 . S
C850 H865 0.930 . S
Tb851 N842 2.617 . S
Tb851 N852 2.572 . S
Tb851 O886 2.349 . S
Tb851 O889 2.393 . S
Tb851 O890 2.465 . S
Tb851 O891 2.387 . S
Tb851 O893 2.428 . S
Tb851 O894 2.308 . S
Tb851 C915 2.802 . S
N852 C848 1.361 . S
N852 Tb851 2.572 . S
N852 C854 1.340 . S
C853 C847 1.416 . S
C853 C855 1.332 . S
C853 H861 0.931 . S
C854 N852 1.340 . S
C854 C855 1.407 . S
C854 H860 0.930 . S
C855 C853 1.332 . S
C855 C854 1.407 . S
C855 H857 0.929 . S
H856 C845 0.930 . S
H857 C855 0.929 . S
H858 C873 0.930 . S
H859 C880 0.929 . S
H860 C854 0.930 . S
H861 C853 0.931 . S
H862 C876 0.930 . S
H863 C843 0.930 . S
H864 C849 0.929 . S
H865 C850 0.930 . S
H866 C871 0.930 . S
H867 C846 0.930 . S
H868 C879 0.931 . S
N869 Tb840 2.617 . S
N869 C870 1.379 1_545 S
N869 C873 1.334 . S
C870 N869 1.379 1_565 S
C870 C872 1.416 . S
C870 C878 1.424 . S
C871 H866 0.930 . S
C871 C873 1.390 1_565 S
C871 C874 1.339 . S
C872 C870 1.416 . S
C872 C874 1.416 . S
C872 C905 1.448 . S
C873 H858 0.930 . S
C873 N869 1.334 . S
C873 C871 1.390 1_545 S
C874 C871 1.339 . S
C874 C872 1.416 . S
C874 H881 0.930 . S
N875 Tb840 2.572 . S
N875 C876 1.340 . S
N875 C878 1.361 1_545 S
C876 H862 0.930 . S
C876 N875 1.340 . S
C876 C880 1.407 . S
C877 C878 1.413 . S
C877 C879 1.416 . S
C877 C906 1.427 . S
C878 C870 1.424 . S
C878 N875 1.361 1_565 S
C878 C877 1.413 . S
C879 H868 0.931 . S
C879 C877 1.416 . S
C879 C880 1.332 1_565 S
C880 H859 0.929 . S
C880 C876 1.407 . S
C880 C879 1.332 1_545 S
H881 C874 0.930 . S
H882 C905 0.930 . S
H883 C906 0.929 . S
O884 Tb840 2.465 . S
O884 C904 1.264 . S
O885 Tb840 2.387 . S
O885 C896 1.264 . S
O886 Tb851 2.349 . S
O886 C896 1.243 . S
O887 Tb840 2.428 . S
O887 C904 1.256 . S
O888 Tb840 2.308 . S
O888 C903 1.266 . S
O889 Tb851 2.393 . S
O889 C903 1.248 . S
O890 Tb851 2.465 . S
O890 C915 1.264 . S
O891 Tb851 2.387 . S
O891 C907 1.264 . S
O892 Tb840 2.349 . S
O892 C907 1.243 . S
O893 Tb851 2.428 . S
O893 C915 1.256 . S
O894 Tb851 2.308 . S
O894 C914 1.266 . S
O895 Tb840 2.393 . S
O895 C914 1.248 . S
C896 O885 1.264 . S
C896 O886 1.243 . S
C897 C900 1.399 1_556 S
C897 C902 1.383 1_556 S
C897 C904 1.496 . S
C898 C899 1.399 . S
C898 C902 1.389 . S
C899 C898 1.399 . S
C899 C901 1.380 . S
C899 H916 0.935 . S
C900 C897 1.399 1_554 S
C900 C901 1.392 . S
C900 H917 0.929 1_554 S
C901 C899 1.380 . S
C901 C900 1.392 . S
C901 H918 0.929 1_545 S
C902 C897 1.383 1_554 S
C902 C898 1.389 . S
C902 H919 0.931 . S
C903 O888 1.266 . S
C903 O889 1.248 . S
C904 Tb840 2.802 . S
C904 O884 1.264 . S
C904 O887 1.256 . S
C904 C897 1.496 . S
C905 C872 1.448 . S
C905 H882 0.930 . S
C905 C906 1.328 . S
C906 C877 1.427 . S
C906 H883 0.929 . S
C906 C905 1.328 . S
C907 O891 1.264 . S
C907 O892 1.243 . S
C908 C911 1.399 . S
C908 C912 1.383 . S
C908 C915 1.496 . S
C909 C910 1.399 . S
C909 C912 1.389 . S
C910 C909 1.399 . S
C910 C913 1.380 . S
C910 H920 0.929 . S
C911 C908 1.399 . S
C911 C913 1.392 . S
C911 H921 0.929 . S
C912 C908 1.383 . S
C912 C909 1.389 . S
C912 H922 0.931 . S
C913 C910 1.380 . S
C913 C911 1.392 . S
C913 H923 0.929 . S
C914 O894 1.266 . S
C914 O895 1.248 . S
C915 Tb851 2.802 . S
C915 O890 1.264 . S
C915 O893 1.256 . S
C915 C908 1.496 . S
H916 C899 0.935 . S
H917 C900 0.929 1_556 S
H918 C901 0.929 1_565 S
H919 C902 0.931 . S
H920 C910 0.929 . S
H921 C911 0.929 . S
H922 C912 0.931 . S
H923 C913 0.929 . S
Tb924 N953 2.617 1_655 S
Tb924 N959 2.572 . S
Tb924 O968 2.465 . S
Tb924 O969 2.387 . S
Tb924 O971 2.428 1_655 S
Tb924 O972 2.308 . S
Tb924 O976 2.349 . S
Tb924 O979 2.393 1_655 S
Tb924 C988 2.802 . S
C925 N926 1.379 . S
C925 C928 1.416 . S
C925 C932 1.424 . S
N926 C925 1.379 . S
N926 C929 1.334 . S
N926 Tb935 2.617 . S
C927 C929 1.390 . S
C927 C930 1.339 . S
C927 H947 0.930 . S
C928 C925 1.416 . S
C928 C930 1.416 . S
C928 C934 1.448 . S
C929 N926 1.334 . S
C929 C927 1.390 . S
C929 H940 0.930 . S
C930 C927 1.339 . S
C930 C928 1.416 . S
C930 H951 0.930 . S
C931 C932 1.413 . S
C931 C933 1.427 . S
C931 C937 1.416 . S
C932 C925 1.424 . S
C932 C931 1.413 . S
C932 N936 1.361 . S
C933 C931 1.427 . S
C933 C934 1.328 . S
C933 H948 0.929 . S
C934 C928 1.448 . S
C934 C933 1.328 . S
C934 H949 0.930 . S
Tb935 N926 2.617 . S
Tb935 N936 2.572 . S
Tb935 O970 2.349 . S
Tb935 O973 2.393 . S
Tb935 O974 2.465 . S
Tb935 O975 2.387 . S
Tb935 O977 2.428 . S
Tb935 O978 2.308 . S
Tb935 C999 2.802 . S
N936 C932 1.361 . S
N936 Tb935 2.572 . S
N936 C938 1.340 . S
C937 C931 1.416 . S
C937 C939 1.332 . S
C937 H945 0.931 . S
C938 N936 1.340 . S
C938 C939 1.407 . S
C938 H944 0.930 . S
C939 C937 1.332 . S
C939 C938 1.407 . S
C939 H941 0.929 . S
H940 C929 0.930 . S
H941 C939 0.929 . S
H942 C957 0.930 . S
H943 C964 0.929 1_545 S
H944 C938 0.930 . S
H945 C937 0.931 . S
H946 C960 0.930 . S
H947 C927 0.930 . S
H948 C933 0.929 . S
H949 C934 0.930 . S
H950 C955 0.930 . S
H951 C930 0.930 . S
H952 C963 0.931 . S
N953 Tb924 2.617 1_455 S
N953 C954 1.379 . S
N953 C957 1.334 . S
C954 N953 1.379 . S
C954 C956 1.416 . S
C954 C962 1.426 . S
C955 H950 0.930 . S
C955 C957 1.390 . S
C955 C958 1.339 . S
C956 C954 1.416 . S
C956 C958 1.416 . S
C956 C989 1.448 . S
C957 H942 0.930 . S
C957 N953 1.334 . S
C957 C955 1.390 . S
C958 C955 1.339 . S
C958 C956 1.416 . S
C958 H965 0.930 . S
N959 Tb924 2.572 . S
N959 C960 1.340 . S
N959 C962 1.359 1_655 S
C960 H946 0.930 . S
C960 N959 1.340 . S
C960 C964 1.407 . S
C961 C962 1.412 . S
C961 C963 1.393 1_465 S
C961 C990 1.450 1_565 S
C962 C954 1.426 . S
C962 N959 1.359 1_455 S
C962 C961 1.412 . S
C963 H952 0.931 . S
C963 C961 1.393 1_645 S
C963 C964 1.332 1_545 S
C964 H943 0.929 1_565 S
C964 C960 1.407 . S
C964 C963 1.332 1_565 S
H965 C958 0.930 . S
H966 C989 0.930 . S
H967 C990 0.929 . S
O968 Tb924 2.465 . S
O968 C988 1.264 . S
O969 Tb924 2.387 . S
O969 C980 1.264 . S
O970 Tb935 2.349 . S
O970 C980 1.243 . S
O971 Tb924 2.428 1_455 S
O971 C988 1.256 1_455 S
O972 Tb924 2.308 . S
O972 C987 1.266 . S
O973 Tb935 2.393 . S
O973 C987 1.248 . S
O974 Tb935 2.465 . S
O974 C999 1.264 . S
O975 Tb935 2.387 . S
O975 C991 1.264 . S
O976 Tb924 2.349 . S
O976 C991 1.243 . S
O977 Tb935 2.428 . S
O977 C999 1.256 . S
O978 Tb935 2.308 . S
O978 C998 1.266 . S
O979 Tb924 2.393 1_455 S
O979 C998 1.248 1_455 S
C980 O969 1.264 . S
C980 O970 1.243 . S
C981 C984 1.399 1_655 S
C981 C986 1.383 . S
C981 C988 1.496 . S
C982 C983 1.399 1_655 S
C982 C986 1.389 . S
C983 C982 1.399 1_455 S
C983 C985 1.380 . S
C983 H1000 0.929 . S
C984 C981 1.399 1_455 S
C984 C985 1.392 . S
C984 H1001 0.929 . S
C985 C983 1.380 . S
C985 C984 1.392 . S
C985 H1002 0.929 . S
C986 C981 1.383 . S
C986 C982 1.389 . S
C986 H1003 0.931 . S
C987 O972 1.266 . S
C987 O973 1.248 . S
C988 Tb924 2.802 . S
C988 O968 1.264 . S
C988 O971 1.256 1_655 S
C988 C981 1.496 . S
C989 C956 1.448 . S
C989 H966 0.930 . S
C989 C990 1.328 1_565 S
C990 C961 1.450 1_545 S
C990 H967 0.929 . S
C990 C989 1.328 1_545 S
C991 O975 1.264 . S
C991 O976 1.243 . S
C992 C995 1.399 . S
C992 C996 1.383 . S
C992 C999 1.496 . S
C993 C994 1.399 . S
C993 C996 1.389 . S
C994 C993 1.399 . S
C994 C997 1.380 . S
C994 H1004 0.929 . S
C995 C992 1.399 . S
C995 C997 1.392 . S
C995 H1005 0.929 . S
C996 C992 1.383 . S
C996 C993 1.389 . S
C996 H1006 0.931 . S
C997 C994 1.380 . S
C997 C995 1.392 . S
C997 H1007 0.929 . S
C998 O978 1.266 . S
C998 O979 1.248 1_655 S
C999 Tb935 2.802 . S
C999 O974 1.264 . S
C999 O977 1.256 . S
C999 C992 1.496 . S
H1000 C983 0.929 . S
H1001 C984 0.929 . S
H1002 C985 0.929 . S
H1003 C986 0.931 . S
H1004 C994 0.929 . S
H1005 C995 0.929 . S
H1006 C996 0.931 . S
H1007 C997 0.929 . S
Tb1008 N1037 2.617 . S
Tb1008 N1043 2.572 . S
Tb1008 O1052 2.465 . S
Tb1008 O1053 2.387 . S
Tb1008 O1055 2.428 . S
Tb1008 O1056 2.308 . S
Tb1008 O1060 2.349 . S
Tb1008 O1063 2.393 . S
Tb1008 C1072 2.802 . S
C1009 N1010 1.379 . S
C1009 C1012 1.416 . S
C1009 C1016 1.424 . S
N1010 C1009 1.379 . S
N1010 C1013 1.334 . S
N1010 Tb1019 2.617 . S
C1011 C1013 1.390 . S
C1011 C1014 1.339 . S
C1011 H1031 0.930 . S
C1012 C1009 1.416 . S
C1012 C1014 1.416 . S
C1012 C1018 1.448 . S
C1013 N1010 1.334 . S
C1013 C1011 1.390 . S
C1013 H1024 0.930 . S
C1014 C1011 1.339 . S
C1014 C1012 1.416 . S
C1014 H1035 0.930 . S
C1015 C1016 1.413 . S
C1015 C1017 1.427 . S
C1015 C1021 1.416 . S
C1016 C1009 1.424 . S
C1016 C1015 1.413 . S
C1016 N1020 1.361 . S
C1017 C1015 1.427 . S
C1017 C1018 1.328 . S
C1017 H1032 0.929 . S
C1018 C1012 1.448 . S
C1018 C1017 1.328 . S
C1018 H1033 0.930 . S
Tb1019 N1010 2.617 . S
Tb1019 N1020 2.572 . S
Tb1019 O1054 2.349 . S
Tb1019 O1057 2.393 . S
Tb1019 O1058 2.465 . S
Tb1019 O1059 2.387 . S
Tb1019 O1061 2.428 . S
Tb1019 O1062 2.308 . S
Tb1019 C1083 2.802 . S
N1020 C1016 1.361 . S
N1020 Tb1019 2.572 . S
N1020 C1022 1.340 . S
C1021 C1015 1.416 . S
C1021 C1023 1.332 . S
C1021 H1029 0.931 . S
C1022 N1020 1.340 . S
C1022 C1023 1.407 . S
C1022 H1028 0.930 . S
C1023 C1021 1.332 . S
C1023 C1022 1.407 . S
C1023 H1025 0.929 . S
H1024 C1013 0.930 . S
H1025 C1023 0.929 . S
H1026 C1041 0.930 . S
H1027 C1048 0.929 . S
H1028 C1022 0.930 . S
H1029 C1021 0.931 . S
H1030 C1044 0.930 . S
H1031 C1011 0.930 . S
H1032 C1017 0.929 . S
H1033 C1018 0.930 . S
H1034 C1039 0.930 . S
H1035 C1014 0.930 . S
H1036 C1047 0.931 . S
N1037 Tb1008 2.617 . S
N1037 C1038 1.379 . S
N1037 C1041 1.334 . S
C1038 N1037 1.379 . S
C1038 C1040 1.416 . S
C1038 C1046 1.424 . S
C1039 H1034 0.930 . S
C1039 C1041 1.390 . S
C1039 C1042 1.339 . S
C1040 C1038 1.416 . S
C1040 C1042 1.416 . S
C1040 C1073 1.448 . S
C1041 H1026 0.930 . S
C1041 N1037 1.334 . S
C1041 C1039 1.390 . S
C1042 C1039 1.339 . S
C1042 C1040 1.416 . S
C1042 H1049 0.930 . S
N1043 Tb1008 2.572 . S
N1043 C1044 1.340 . S
N1043 C1046 1.361 . S
C1044 H1030 0.930 . S
C1044 N1043 1.340 . S
C1044 C1048 1.407 . S
C1045 C1046 1.413 . S
C1045 C1047 1.416 . S
C1045 C1074 1.427 . S
C1046 C1038 1.424 . S
C1046 N1043 1.361 . S
C1046 C1045 1.413 . S
C1047 H1036 0.931 . S
C1047 C1045 1.416 . S
C1047 C1048 1.332 . S
C1048 H1027 0.929 . S
C1048 C1044 1.407 . S
C1048 C1047 1.332 . S
H1049 C1042 0.930 . S
H1050 C1073 0.930 . S
H1051 C1074 0.929 . S
O1052 Tb1008 2.465 . S
O1052 C1072 1.264 . S
O1053 Tb1008 2.387 . S
O1053 C1064 1.264 . S
O1054 Tb1019 2.349 . S
O1054 C1064 1.243 . S
O1055 Tb1008 2.428 . S
O1055 C1072 1.256 . S
O1056 Tb1008 2.308 . S
O1056 C1071 1.266 . S
O1057 Tb1019 2.393 . S
O1057 C1071 1.248 . S
O1058 Tb1019 2.465 . S
O1058 C1083 1.264 . S
O1059 Tb1019 2.387 . S
O1059 C1075 1.264 . S
O1060 Tb1008 2.349 . S
O1060 C1075 1.243 . S
O1061 Tb1019 2.428 . S
O1061 C1083 1.256 . S
O1062 Tb1019 2.308 . S
O1062 C1082 1.266 . S
O1063 Tb1008 2.393 . S
O1063 C1082 1.248 . S
C1064 O1053 1.264 . S
C1064 O1054 1.243 . S
C1065 C1068 1.399 . S
C1065 C1070 1.383 . S
C1065 C1072 1.496 . S
C1066 C1067 1.399 . S
C1066 C1070 1.389 . S
C1067 C1066 1.399 . S
C1067 C1069 1.380 . S
C1067 H1084 0.929 . S
C1068 C1065 1.399 . S
C1068 C1069 1.392 . S
C1068 H1085 0.929 . S
C1069 C1067 1.380 . S
C1069 C1068 1.392 . S
C1069 H1086 0.929 . S
C1070 C1065 1.383 . S
C1070 C1066 1.389 . S
C1070 H1087 0.931 . S
C1071 O1056 1.266 . S
C1071 O1057 1.248 . S
C1072 Tb1008 2.802 . S
C1072 O1052 1.264 . S
C1072 O1055 1.256 . S
C1072 C1065 1.496 . S
C1073 C1040 1.448 . S
C1073 H1050 0.930 . S
C1073 C1074 1.328 . S
C1074 C1045 1.427 . S
C1074 H1051 0.929 . S
C1074 C1073 1.328 . S
C1075 O1059 1.264 . S
C1075 O1060 1.243 . S
C1076 C1079 1.399 . S
C1076 C1080 1.383 . S
C1076 C1083 1.496 . S
C1077 C1078 1.399 . S
C1077 C1080 1.389 . S
C1078 C1077 1.399 . S
C1078 C1081 1.380 . S
C1078 H1088 0.929 . S
C1079 C1076 1.399 . S
C1079 C1081 1.392 . S
C1079 H1089 0.929 . S
C1080 C1076 1.383 . S
C1080 C1077 1.389 . S
C1080 H1090 0.931 . S
C1081 C1078 1.380 . S
C1081 C1079 1.392 . S
C1081 H1091 0.929 . S
C1082 O1062 1.266 . S
C1082 O1063 1.248 . S
C1083 Tb1019 2.802 . S
C1083 O1058 1.264 . S
C1083 O1061 1.256 . S
C1083 C1076 1.496 . S
H1084 C1067 0.929 . S
H1085 C1068 0.929 . S
H1086 C1069 0.929 . S
H1087 C1070 0.931 . S
H1088 C1078 0.929 . S
H1089 C1079 0.929 . S
H1090 C1080 0.931 . S
H1091 C1081 0.929 . S
Tb1092 N1121 2.617 . S
Tb1092 N1127 2.572 . S
Tb1092 O1136 2.465 1_554 S
Tb1092 O1137 2.387 . S
Tb1092 O1139 2.428 1_554 S
Tb1092 O1140 2.308 . S
Tb1092 O1144 2.349 1_554 S
Tb1092 O1147 2.393 . S
Tb1092 C1156 2.802 1_554 S
C1093 N1094 1.379 . S
C1093 C1096 1.416 . S
C1093 C1100 1.424 . S
N1094 C1093 1.379 . S
N1094 C1097 1.334 . S
N1094 Tb1103 2.617 . S
C1095 C1097 1.390 . S
C1095 C1098 1.339 . S
C1095 H1115 0.930 . S
C1096 C1093 1.416 . S
C1096 C1098 1.416 . S
C1096 C1102 1.448 . S
C1097 N1094 1.334 . S
C1097 C1095 1.390 . S
C1097 H1108 0.930 . S
C1098 C1095 1.339 . S
C1098 C1096 1.416 . S
C1098 H1119 0.930 . S
C1099 C1100 1.413 . S
C1099 C1101 1.427 . S
C1099 C1105 1.416 . S
C1100 C1093 1.424 . S
C1100 C1099 1.413 . S
C1100 N1104 1.361 . S
C1101 C1099 1.427 . S
C1101 C1102 1.328 . S
C1101 H1116 0.929 . S
C1102 C1096 1.448 . S
C1102 C1101 1.328 . S
C1102 H1117 0.930 . S
Tb1103 N1094 2.617 . S
Tb1103 N1104 2.572 . S
Tb1103 O1138 2.349 . S
Tb1103 O1141 2.393 . S
Tb1103 O1142 2.465 . S
Tb1103 O1143 2.387 . S
Tb1103 O1145 2.428 . S
Tb1103 O1146 2.308 . S
Tb1103 C1167 2.802 . S
N1104 C1100 1.361 . S
N1104 Tb1103 2.572 . S
N1104 C1106 1.340 . S
C1105 C1099 1.416 . S
C1105 C1107 1.332 . S
C1105 H1113 0.931 . S
C1106 N1104 1.340 . S
C1106 C1107 1.407 . S
C1106 H1112 0.930 . S
C1107 C1105 1.332 . S
C1107 C1106 1.407 . S
C1107 H1109 0.929 . S
H1108 C1097 0.930 . S
H1109 C1107 0.929 . S
H1110 C1125 0.930 . S
H1111 C1132 0.929 . S
H1112 C1106 0.930 . S
H1113 C1105 0.931 . S
H1114 C1128 0.930 . S
H1115 C1095 0.930 . S
H1116 C1101 0.929 . S
H1117 C1102 0.930 . S
H1118 C1123 0.930 . S
H1119 C1098 0.930 . S
H1120 C1131 0.931 . S
N1121 Tb1092 2.617 . S
N1121 C1122 1.379 . S
N1121 C1125 1.334 . S
C1122 N1121 1.379 . S
C1122 C1124 1.416 . S
C1122 C1130 1.424 . S
C1123 H1118 0.930 . S
C1123 C1125 1.390 . S
C1123 C1126 1.339 . S
C1124 C1122 1.416 . S
C1124 C1126 1.416 . S
C1124 C1157 1.448 . S
C1125 H1110 0.930 . S
C1125 N1121 1.334 . S
C1125 C1123 1.390 . S
C1126 C1123 1.339 . S
C1126 C1124 1.416 . S
C1126 H1133 0.930 . S
N1127 Tb1092 2.572 . S
N1127 C1128 1.340 . S
N1127 C1130 1.361 . S
C1128 H1114 0.930 . S
C1128 N1127 1.340 . S
C1128 C1132 1.407 . S
C1129 C1130 1.413 . S
C1129 C1131 1.416 . S
C1129 C1158 1.427 . S
C1130 C1122 1.424 . S
C1130 N1127 1.361 . S
C1130 C1129 1.413 . S
C1131 H1120 0.931 . S
C1131 C1129 1.416 . S
C1131 C1132 1.332 . S
C1132 H1111 0.929 . S
C1132 C1128 1.407 . S
C1132 C1131 1.332 . S
H1133 C1126 0.930 . S
H1134 C1157 0.930 . S
H1135 C1158 0.929 . S
O1136 Tb1092 2.465 1_556 S
O1136 C1156 1.264 . S
O1137 Tb1092 2.387 . S
O1137 C1148 1.264 . S
O1138 Tb1103 2.349 . S
O1138 C1148 1.243 1_655 S
O1139 Tb1092 2.428 1_556 S
O1139 C1156 1.256 . S
O1140 Tb1092 2.308 . S
O1140 C1155 1.266 1_455 S
O1141 Tb1103 2.393 . S
O1141 C1155 1.248 . S
O1142 Tb1103 2.465 . S
O1142 C1167 1.264 . S
O1143 Tb1103 2.387 . S
O1143 C1159 1.264 1_554 S
O1144 Tb1092 2.349 1_556 S
O1144 C1159 1.243 1_455 S
O1145 Tb1103 2.428 . S
O1145 C1167 1.256 . S
O1146 Tb1103 2.308 . S
O1146 C1166 1.266 1_655 S
O1147 Tb1092 2.393 . S
O1147 C1166 1.248 . S
C1148 O1137 1.264 . S
C1148 O1138 1.243 1_455 S
C1149 C1152 1.399 . S
C1149 C1154 1.383 . S
C1149 C1156 1.496 . S
C1150 C1151 1.399 . S
C1150 C1154 1.389 . S
C1151 C1150 1.399 . S
C1151 C1153 1.380 . S
C1151 H1168 0.929 . S
C1152 C1149 1.399 . S
C1152 C1153 1.392 . S
C1152 H1169 0.929 . S
C1153 C1151 1.380 . S
C1153 C1152 1.392 . S
C1153 H1170 0.929 . S
C1154 C1149 1.383 . S
C1154 C1150 1.389 . S
C1154 H1171 0.931 . S
C1155 O1140 1.266 1_655 S
C1155 O1141 1.248 . S
C1156 Tb1092 2.802 1_556 S
C1156 O1136 1.264 . S
C1156 O1139 1.256 . S
C1156 C1149 1.496 . S
C1157 C1124 1.448 . S
C1157 H1134 0.930 . S
C1157 C1158 1.328 . S
C1158 C1129 1.427 . S
C1158 H1135 0.929 . S
C1158 C1157 1.328 . S
C1159 O1143 1.264 1_556 S
C1159 O1144 1.243 1_655 S
C1160 C1163 1.399 . S
C1160 C1164 1.383 . S
C1160 C1167 1.496 . S
C1161 C1162 1.399 . S
C1161 C1164 1.389 . S
C1162 C1161 1.399 . S
C1162 C1165 1.380 . S
C1162 H1172 0.929 . S
C1163 C1160 1.399 . S
C1163 C1165 1.392 . S
C1163 H1173 0.929 . S
C1164 C1160 1.383 . S
C1164 C1161 1.389 . S
C1164 H1174 0.931 . S
C1165 C1162 1.380 . S
C1165 C1163 1.392 . S
C1165 H1175 0.929 . S
C1166 O1146 1.266 1_455 S
C1166 O1147 1.248 . S
C1167 Tb1103 2.802 . S
C1167 O1142 1.264 . S
C1167 O1145 1.256 . S
C1167 C1160 1.496 . S
H1168 C1151 0.929 . S
H1169 C1152 0.929 . S
H1170 C1153 0.929 . S
H1171 C1154 0.931 . S
H1172 C1162 0.929 . S
H1173 C1163 0.929 . S
H1174 C1164 0.931 . S
H1175 C1165 0.929 . S
Tb1176 N1205 2.617 . S
Tb1176 N1211 2.572 . S
Tb1176 O1220 2.465 . S
Tb1176 O1221 2.387 . S
Tb1176 O1223 2.428 . S
Tb1176 O1224 2.308 . S
Tb1176 O1228 2.349 . S
Tb1176 O1231 2.393 . S
Tb1176 C1240 2.802 . S
C1177 N1178 1.379 . S
C1177 C1180 1.416 . S
C1177 C1184 1.424 . S
N1178 C1177 1.379 . S
N1178 C1181 1.334 . S
N1178 Tb1187 2.617 . S
C1179 C1181 1.390 . S
C1179 C1182 1.339 . S
C1179 H1199 0.930 . S
C1180 C1177 1.416 . S
C1180 C1182 1.416 . S
C1180 C1186 1.448 . S
C1181 N1178 1.334 . S
C1181 C1179 1.390 . S
C1181 H1192 0.930 . S
C1182 C1179 1.339 . S
C1182 C1180 1.416 . S
C1182 H1203 0.930 . S
C1183 C1184 1.413 . S
C1183 C1185 1.427 . S
C1183 C1189 1.416 . S
C1184 C1177 1.424 . S
C1184 C1183 1.413 . S
C1184 N1188 1.361 . S
C1185 C1183 1.427 . S
C1185 C1186 1.328 . S
C1185 H1200 0.929 . S
C1186 C1180 1.448 . S
C1186 C1185 1.328 . S
C1186 H1201 0.930 . S
Tb1187 N1178 2.617 . S
Tb1187 N1188 2.572 . S
Tb1187 O1222 2.349 . S
Tb1187 O1225 2.393 . S
Tb1187 O1226 2.465 . S
Tb1187 O1227 2.387 . S
Tb1187 O1229 2.428 . S
Tb1187 O1230 2.308 . S
Tb1187 C1251 2.802 . S
N1188 C1184 1.361 . S
N1188 Tb1187 2.572 . S
N1188 C1190 1.340 . S
C1189 C1183 1.416 . S
C1189 C1191 1.332 . S
C1189 H1197 0.931 . S
C1190 N1188 1.340 . S
C1190 C1191 1.407 . S
C1190 H1196 0.930 . S
C1191 C1189 1.332 . S
C1191 C1190 1.407 . S
C1191 H1193 0.929 . S
H1192 C1181 0.930 . S
H1193 C1191 0.929 . S
H1194 C1209 0.930 . S
H1195 C1216 0.929 . S
H1196 C1190 0.930 . S
H1197 C1189 0.931 . S
H1198 C1212 0.930 . S
H1199 C1179 0.930 . S
H1200 C1185 0.929 . S
H1201 C1186 0.930 . S
H1202 C1207 0.930 . S
H1203 C1182 0.930 . S
H1204 C1215 0.931 . S
N1205 Tb1176 2.617 . S
N1205 C1206 1.379 . S
N1205 C1209 1.334 . S
C1206 N1205 1.379 . S
C1206 C1208 1.416 . S
C1206 C1214 1.424 . S
C1207 H1202 0.930 . S
C1207 C1209 1.390 . S
C1207 C1210 1.339 . S
C1208 C1206 1.416 . S
C1208 C1210 1.416 . S
C1208 C1241 1.448 . S
C1209 H1194 0.930 . S
C1209 N1205 1.334 . S
C1209 C1207 1.390 . S
C1210 C1207 1.339 . S
C1210 C1208 1.416 . S
C1210 H1217 0.930 . S
N1211 Tb1176 2.572 . S
N1211 C1212 1.340 . S
N1211 C1214 1.361 . S
C1212 H1198 0.930 . S
C1212 N1211 1.340 . S
C1212 C1216 1.407 . S
C1213 C1214 1.413 . S
C1213 C1215 1.416 . S
C1213 C1242 1.427 . S
C1214 C1206 1.424 . S
C1214 N1211 1.361 . S
C1214 C1213 1.413 . S
C1215 H1204 0.931 . S
C1215 C1213 1.416 . S
C1215 C1216 1.332 . S
C1216 H1195 0.929 . S
C1216 C1212 1.407 . S
C1216 C1215 1.332 . S
H1217 C1210 0.930 . S
H1218 C1241 0.930 . S
H1219 C1242 0.929 . S
O1220 Tb1176 2.465 . S
O1220 C1240 1.264 . S
O1221 Tb1176 2.387 . S
O1221 C1232 1.264 . S
O1222 Tb1187 2.349 . S
O1222 C1232 1.243 . S
O1223 Tb1176 2.428 . S
O1223 C1240 1.256 . S
O1224 Tb1176 2.308 . S
O1224 C1239 1.266 . S
O1225 Tb1187 2.393 . S
O1225 C1239 1.248 . S
O1226 Tb1187 2.465 . S
O1226 C1251 1.264 . S
O1227 Tb1187 2.387 . S
O1227 C1243 1.264 . S
O1228 Tb1176 2.349 . S
O1228 C1243 1.243 . S
O1229 Tb1187 2.428 . S
O1229 C1251 1.256 . S
O1230 Tb1187 2.308 . S
O1230 C1250 1.266 . S
O1231 Tb1176 2.393 . S
O1231 C1250 1.248 . S
C1232 O1221 1.264 . S
C1232 O1222 1.243 . S
C1233 C1236 1.399 . S
C1233 C1238 1.383 . S
C1233 C1240 1.496 . S
C1234 C1235 1.399 . S
C1234 C1238 1.389 . S
C1235 C1234 1.399 . S
C1235 C1237 1.380 . S
C1235 H1252 0.929 . S
C1236 C1233 1.399 . S
C1236 C1237 1.392 . S
C1236 H1253 0.929 . S
C1237 C1235 1.380 . S
C1237 C1236 1.392 . S
C1237 H1254 0.929 . S
C1238 C1233 1.383 . S
C1238 C1234 1.389 . S
C1238 H1255 0.931 . S
C1239 O1224 1.266 . S
C1239 O1225 1.248 . S
C1240 Tb1176 2.802 . S
C1240 O1220 1.264 . S
C1240 O1223 1.256 . S
C1240 C1233 1.496 . S
C1241 C1208 1.448 . S
C1241 H1218 0.930 . S
C1241 C1242 1.328 . S
C1242 C1213 1.427 . S
C1242 H1219 0.929 . S
C1242 C1241 1.328 . S
C1243 O1227 1.264 . S
C1243 O1228 1.243 . S
C1244 C1247 1.399 . S
C1244 C1248 1.383 . S
C1244 C1251 1.496 . S
C1245 C1246 1.399 . S
C1245 C1248 1.389 . S
C1246 C1245 1.399 . S
C1246 C1249 1.380 . S
C1246 H1256 0.929 . S
C1247 C1244 1.399 . S
C1247 C1249 1.392 . S
C1247 H1257 0.929 . S
C1248 C1244 1.383 . S
C1248 C1245 1.389 . S
C1248 H1258 0.931 . S
C1249 C1246 1.380 . S
C1249 C1247 1.392 . S
C1249 H1259 0.929 . S
C1250 O1230 1.266 . S
C1250 O1231 1.248 . S
C1251 Tb1187 2.802 . S
C1251 O1226 1.264 . S
C1251 O1229 1.256 . S
C1251 C1244 1.496 . S
H1252 C1235 0.929 . S
H1253 C1236 0.929 . S
H1254 C1237 0.929 . S
H1255 C1238 0.931 . S
H1256 C1246 0.929 . S
H1257 C1247 0.929 . S
H1258 C1248 0.931 . S
H1259 C1249 0.929 . S
Tb1260 N1289 2.617 . S
Tb1260 N1295 2.572 . S
Tb1260 O1304 2.465 1_556 S
Tb1260 O1305 2.387 . S
Tb1260 O1307 2.428 1_556 S
Tb1260 O1308 2.308 . S
Tb1260 O1312 2.349 1_556 S
Tb1260 O1315 2.393 . S
Tb1260 C1324 2.802 1_556 S
C1261 N1262 1.379 . S
C1261 C1264 1.416 . S
C1261 C1268 1.424 . S
N1262 C1261 1.379 . S
N1262 C1265 1.334 . S
N1262 Tb1271 2.617 . S
C1263 C1265 1.390 . S
C1263 C1266 1.339 . S
C1263 H1283 0.930 . S
C1264 C1261 1.416 . S
C1264 C1266 1.416 . S
C1264 C1270 1.448 . S
C1265 N1262 1.334 . S
C1265 C1263 1.390 . S
C1265 H1276 0.930 . S
C1266 C1263 1.339 . S
C1266 C1264 1.416 . S
C1266 H1287 0.930 . S
C1267 C1268 1.413 . S
C1267 C1269 1.427 . S
C1267 C1273 1.416 . S
C1268 C1261 1.424 . S
C1268 C1267 1.413 . S
C1268 N1272 1.361 . S
C1269 C1267 1.427 . S
C1269 C1270 1.328 . S
C1269 H1284 0.929 . S
C1270 C1264 1.448 . S
C1270 C1269 1.328 . S
C1270 H1285 0.930 . S
Tb1271 N1262 2.617 . S
Tb1271 N1272 2.572 . S
Tb1271 O1306 2.349 . S
Tb1271 O1309 2.393 . S
Tb1271 O1310 2.465 . S
Tb1271 O1311 2.387 . S
Tb1271 O1313 2.428 . S
Tb1271 O1314 2.308 . S
Tb1271 C1335 2.802 . S
N1272 C1268 1.361 . S
N1272 Tb1271 2.572 . S
N1272 C1274 1.340 . S
C1273 C1267 1.416 . S
C1273 C1275 1.332 . S
C1273 H1281 0.931 . S
C1274 N1272 1.340 . S
C1274 C1275 1.407 . S
C1274 H1280 0.930 . S
C1275 C1273 1.332 . S
C1275 C1274 1.407 . S
C1275 H1277 0.929 . S
H1276 C1265 0.930 . S
H1277 C1275 0.929 . S
H1278 C1293 0.930 . S
H1279 C1300 0.929 . S
H1280 C1274 0.930 . S
H1281 C1273 0.931 . S
H1282 C1296 0.930 . S
H1283 C1263 0.930 . S
H1284 C1269 0.929 . S
H1285 C1270 0.930 . S
H1286 C1291 0.930 . S
H1287 C1266 0.930 . S
H1288 C1299 0.931 . S
N1289 Tb1260 2.617 . S
N1289 C1290 1.379 . S
N1289 C1293 1.334 . S
C1290 N1289 1.379 . S
C1290 C1292 1.416 . S
C1290 C1298 1.424 . S
C1291 H1286 0.930 . S
C1291 C1293 1.390 . S
C1291 C1294 1.339 . S
C1292 C1290 1.416 . S
C1292 C1294 1.416 . S
C1292 C1325 1.448 . S
C1293 H1278 0.930 . S
C1293 N1289 1.334 . S
C1293 C1291 1.390 . S
C1294 C1291 1.339 . S
C1294 C1292 1.416 . S
C1294 H1301 0.930 . S
N1295 Tb1260 2.572 . S
N1295 C1296 1.340 . S
N1295 C1298 1.361 . S
C1296 H1282 0.930 . S
C1296 N1295 1.340 . S
C1296 C1300 1.407 . S
C1297 C1298 1.413 . S
C1297 C1299 1.416 . S
C1297 C1326 1.427 . S
C1298 C1290 1.424 . S
C1298 N1295 1.361 . S
C1298 C1297 1.413 . S
C1299 H1288 0.931 . S
C1299 C1297 1.416 . S
C1299 C1300 1.332 . S
C1300 H1279 0.929 . S
C1300 C1296 1.407 . S
C1300 C1299 1.332 . S
H1301 C1294 0.930 . S
H1302 C1325 0.930 . S
H1303 C1326 0.929 . S
O1304 Tb1260 2.465 1_554 S
O1304 C1324 1.264 . S
O1305 Tb1260 2.387 . S
O1305 C1316 1.264 . S
O1306 Tb1271 2.349 . S
O1306 C1316 1.243 1_655 S
O1307 Tb1260 2.428 1_554 S
O1307 C1324 1.256 . S
O1308 Tb1260 2.308 . S
O1308 C1323 1.266 1_455 S
O1309 Tb1271 2.393 . S
O1309 C1323 1.248 . S
O1310 Tb1271 2.465 . S
O1310 C1335 1.264 . S
O1311 Tb1271 2.387 . S
O1311 C1327 1.264 1_556 S
O1312 Tb1260 2.349 1_554 S
O1312 C1327 1.243 1_455 S
O1313 Tb1271 2.428 . S
O1313 C1335 1.256 . S
O1314 Tb1271 2.308 . S
O1314 C1334 1.266 1_655 S
O1315 Tb1260 2.393 . S
O1315 C1334 1.248 . S
C1316 O1305 1.264 . S
C1316 O1306 1.243 1_455 S
C1317 C1320 1.399 . S
C1317 C1322 1.383 . S
C1317 C1324 1.496 . S
C1318 C1319 1.399 . S
C1318 C1322 1.389 . S
C1319 C1318 1.399 . S
C1319 C1321 1.380 . S
C1319 H1336 0.929 . S
C1320 C1317 1.399 . S
C1320 C1321 1.392 . S
C1320 H1337 0.929 . S
C1321 C1319 1.380 . S
C1321 C1320 1.392 . S
C1321 H1338 0.929 . S
C1322 C1317 1.383 . S
C1322 C1318 1.389 . S
C1322 H1339 0.931 . S
C1323 O1308 1.266 1_655 S
C1323 O1309 1.248 . S
C1324 Tb1260 2.802 1_554 S
C1324 O1304 1.264 . S
C1324 O1307 1.256 . S
C1324 C1317 1.496 . S
C1325 C1292 1.448 . S
C1325 H1302 0.930 . S
C1325 C1326 1.328 . S
C1326 C1297 1.427 . S
C1326 H1303 0.929 . S
C1326 C1325 1.328 . S
C1327 O1311 1.264 1_554 S
C1327 O1312 1.243 1_655 S
C1328 C1331 1.399 . S
C1328 C1332 1.383 . S
C1328 C1335 1.496 . S
C1329 C1330 1.399 . S
C1329 C1332 1.389 . S
C1330 C1329 1.399 . S
C1330 C1333 1.380 . S
C1330 H1340 0.929 . S
C1331 C1328 1.399 . S
C1331 C1333 1.392 . S
C1331 H1341 0.929 . S
C1332 C1328 1.383 . S
C1332 C1329 1.389 . S
C1332 H1342 0.931 . S
C1333 C1330 1.380 . S
C1333 C1331 1.392 . S
C1333 H1343 0.929 . S
C1334 O1314 1.266 1_455 S
C1334 O1315 1.248 . S
C1335 Tb1271 2.802 . S
C1335 O1310 1.264 . S
C1335 O1313 1.256 . S
C1335 C1328 1.496 . S
H1336 C1319 0.929 . S
H1337 C1320 0.929 . S
H1338 C1321 0.929 . S
H1339 C1322 0.931 . S
H1340 C1330 0.929 . S
H1341 C1331 0.929 . S
H1342 C1332 0.931 . S
H1343 C1333 0.929 . S
C1344 C1345 1.387 1_556 S
C1344 H1348 0.950 . S
C1344 C1353 1.390 . S
C1345 C1344 1.387 1_554 S
C1345 C1347 1.387 . S
H1346 C1353 0.950 . S
C1347 C1345 1.387 . S
C1347 C1349 1.390 1_554 S
C1347 H1351 0.950 . S
H1348 C1344 0.950 . S
C1349 C1347 1.390 1_556 S
C1349 C1350 1.387 . S
C1349 H1352 0.950 . S
C1350 C1349 1.387 . S
C1350 C1353 1.387 . S
H1351 C1347 0.950 . S
H1352 C1349 0.950 . S
C1353 C1344 1.390 . S
C1353 H1346 0.950 . S
C1353 C1350 1.387 . S
C1354 C1355 1.387 . S
C1354 H1358 0.950 . S
C1354 C1363 1.390 1_554 S
C1355 C1354 1.387 . S
C1355 C1357 1.387 . S
H1356 C1363 0.950 . S
C1357 C1355 1.387 . S
C1357 C1359 1.390 . S
C1357 H1361 0.950 . S
H1358 C1354 0.950 . S
C1359 C1357 1.390 . S
C1359 C1360 1.387 1_554 S
C1359 H1362 0.950 . S
C1360 C1359 1.387 1_556 S
C1360 C1363 1.387 . S
H1361 C1357 0.950 . S
H1362 C1359 0.950 . S
C1363 C1354 1.390 1_556 S
C1363 H1356 0.950 . S
C1363 C1360 1.387 . S
C1364 C1365 1.387 . S
C1364 H1368 0.950 . S
C1364 C1373 1.390 . S
C1365 C1364 1.387 . S
C1365 C1367 1.387 . S
H1366 C1373 0.950 . S
C1367 C1365 1.387 . S
C1367 C1369 1.390 . S
C1367 H1371 0.950 . S
H1368 C1364 0.950 . S
C1369 C1367 1.390 . S
C1369 C1370 1.387 . S
C1369 H1372 0.950 . S
C1370 C1369 1.387 . S
C1370 C1373 1.387 . S
H1371 C1367 0.950 . S
H1372 C1369 0.950 . S
C1373 C1364 1.390 . S
C1373 H1366 0.950 . S
C1373 C1370 1.387 . S
C1374 C1375 1.387 . S
C1374 H1378 0.950 . S
C1374 C1383 1.390 . S
C1375 C1374 1.387 . S
C1375 C1377 1.387 . S
H1376 C1383 0.950 . S
C1377 C1375 1.387 . S
C1377 C1379 1.390 . S
C1377 H1381 0.950 . S
H1378 C1374 0.950 . S
C1379 C1377 1.390 . S
C1379 C1380 1.387 . S
C1379 H1382 0.950 . S
C1380 C1379 1.387 . S
C1380 C1383 1.387 . S
H1381 C1377 0.950 . S
H1382 C1379 0.950 . S
C1383 C1374 1.390 . S
C1383 H1376 0.950 . S
C1383 C1380 1.387 . S
C1384 C1385 1.387 . S
C1384 H1388 0.950 . S
C1384 C1393 1.390 1_655 S
C1385 C1384 1.387 . S
C1385 C1387 1.387 . S
H1386 C1393 0.950 . S
C1387 C1385 1.387 . S
C1387 C1389 1.390 . S
C1387 H1391 0.950 . S
H1388 C1384 0.950 . S
C1389 C1387 1.390 . S
C1389 C1390 1.387 1_655 S
C1389 H1392 0.950 . S
C1390 C1389 1.387 1_455 S
C1390 C1393 1.387 . S
H1391 C1387 0.950 . S
H1392 C1389 0.950 . S
C1393 C1384 1.390 1_455 S
C1393 H1386 0.950 . S
C1393 C1390 1.387 . S
C1394 C1395 1.387 . S
C1394 H1398 0.950 . S
C1394 C1403 1.390 . S
C1395 C1394 1.387 . S
C1395 C1397 1.387 . S
H1396 C1403 0.950 1_465 S
C1397 C1395 1.387 . S
C1397 C1399 1.390 . S
C1397 H1401 0.950 . S
H1398 C1394 0.950 . S
C1399 C1397 1.390 . S
C1399 C1400 1.387 1_655 S
C1399 H1402 0.950 1_655 S
C1400 C1399 1.387 1_455 S
C1400 C1403 1.387 1_455 S
H1401 C1397 0.950 . S
H1402 C1399 0.950 1_455 S
C1403 C1394 1.390 . S
C1403 H1396 0.950 1_645 S
C1403 C1400 1.387 1_655 S
C1404 C1405 1.387 . S
C1404 H1408 0.950 . S
C1404 C1413 1.390 . S
C1405 C1404 1.387 . S
C1405 C1407 1.387 . S
H1406 C1413 0.950 . S
C1407 C1405 1.387 . S
C1407 C1409 1.390 . S
C1407 H1411 0.950 . S
H1408 C1404 0.950 . S
C1409 C1407 1.390 . S
C1409 C1410 1.387 . S
C1409 H1412 0.950 . S
C1410 C1409 1.387 . S
C1410 C1413 1.387 . S
H1411 C1407 0.950 . S
H1412 C1409 0.950 . S
C1413 C1404 1.390 . S
C1413 H1406 0.950 . S
C1413 C1410 1.387 . S
C1414 C1415 1.387 . S
C1414 H1418 0.950 . S
C1414 C1423 1.390 . S
C1415 C1414 1.387 . S
C1415 C1417 1.387 . S
H1416 C1423 0.950 . S
C1417 C1415 1.387 . S
C1417 C1419 1.390 . S
C1417 H1421 0.950 . S
H1418 C1414 0.950 . S
C1419 C1417 1.390 . S
C1419 C1420 1.387 . S
C1419 H1422 0.950 . S
C1420 C1419 1.387 . S
C1420 C1423 1.387 . S
H1421 C1417 0.950 . S
H1422 C1419 0.950 . S
C1423 C1414 1.390 . S
C1423 H1416 0.950 . S
C1423 C1420 1.387 . S
C1424 C1425 1.387 . S
C1424 H1428 0.950 . S
C1424 C1433 1.390 . S
C1425 C1424 1.387 . S
C1425 C1427 1.387 . S
H1426 C1433 0.950 . S
C1427 C1425 1.387 . S
C1427 C1429 1.390 . S
C1427 H1431 0.950 . S
H1428 C1424 0.950 . S
C1429 C1427 1.390 . S
C1429 C1430 1.387 . S
C1429 H1432 0.950 . S
C1430 C1429 1.387 . S
C1430 C1433 1.387 . S
H1431 C1427 0.950 . S
H1432 C1429 0.950 . S
C1433 C1424 1.390 . S
C1433 H1426 0.950 . S
C1433 C1430 1.387 . S
C1434 C1435 1.387 . S
C1434 H1438 0.950 . S
C1434 C1443 1.390 . S
C1435 C1434 1.387 . S
C1435 C1437 1.387 . S
H1436 C1443 0.950 . S
C1437 C1435 1.387 . S
C1437 C1439 1.390 . S
C1437 H1441 0.950 . S
H1438 C1434 0.950 . S
C1439 C1437 1.390 . S
C1439 C1440 1.387 . S
C1439 H1442 0.950 . S
C1440 C1439 1.387 . S
C1440 C1443 1.387 . S
H1441 C1437 0.950 . S
H1442 C1439 0.950 . S
C1443 C1434 1.390 . S
C1443 H1436 0.950 . S
C1443 C1440 1.387 . S
C1444 C1445 1.387 . S
C1444 H1448 0.950 . S
C1444 C1453 1.390 . S
C1445 C1444 1.387 . S
C1445 C1447 1.387 . S
H1446 C1453 0.950 . S
C1447 C1445 1.387 . S
C1447 C1449 1.390 . S
C1447 H1451 0.950 1_655 S
H1448 C1444 0.950 . S
C1449 C1447 1.390 . S
C1449 C1450 1.387 . S
C1449 H1452 0.950 . S
C1450 C1449 1.387 . S
C1450 C1453 1.387 . S
H1451 C1447 0.950 1_455 S
H1452 C1449 0.950 . S
C1453 C1444 1.390 . S
C1453 H1446 0.950 . S
C1453 C1450 1.387 . S
C1454 C1455 1.387 . S
C1454 H1458 0.950 . S
C1454 C1463 1.390 . S
C1455 C1454 1.387 . S
C1455 C1457 1.387 . S
H1456 C1463 0.950 . S
C1457 C1455 1.387 . S
C1457 C1459 1.390 . S
C1457 H1461 0.950 . S
H1458 C1454 0.950 . S
C1459 C1457 1.390 . S
C1459 C1460 1.387 . S
C1459 H1462 0.950 1_655 S
C1460 C1459 1.387 . S
C1460 C1463 1.387 . S
H1461 C1457 0.950 . S
H1462 C1459 0.950 1_455 S
C1463 C1454 1.390 . S
C1463 H1456 0.950 . S
C1463 C1460 1.387 . S
C1464 C1465 1.387 . S
C1464 H1468 0.950 . S
C1464 C1473 1.390 . S
C1465 C1464 1.387 . S
C1465 C1467 1.387 . S
H1466 C1473 0.950 . S
C1467 C1465 1.387 . S
C1467 C1469 1.390 . S
C1467 H1471 0.950 . S
H1468 C1464 0.950 . S
C1469 C1467 1.390 . S
C1469 C1470 1.387 . S
C1469 H1472 0.950 . S
C1470 C1469 1.387 . S
C1470 C1473 1.387 . S
H1471 C1467 0.950 . S
H1472 C1469 0.950 . S
C1473 C1464 1.390 . S
C1473 H1466 0.950 . S
C1473 C1470 1.387 . S
C1474 C1475 1.387 . S
C1474 H1478 0.950 . S
C1474 C1483 1.390 . S
C1475 C1474 1.387 . S
C1475 C1477 1.387 . S
H1476 C1483 0.950 . S
C1477 C1475 1.387 . S
C1477 C1479 1.390 . S
C1477 H1481 0.950 . S
H1478 C1474 0.950 . S
C1479 C1477 1.390 . S
C1479 C1480 1.387 . S
C1479 H1482 0.950 . S
C1480 C1479 1.387 . S
C1480 C1483 1.387 . S
H1481 C1477 0.950 . S
H1482 C1479 0.950 . S
C1483 C1474 1.390 . S
C1483 H1476 0.950 . S
C1483 C1480 1.387 . S
C1484 C1485 1.387 . S
C1484 H1488 0.950 . S
C1484 C1493 1.390 . S
C1485 C1484 1.387 . S
C1485 C1487 1.387 . S
H1486 C1493 0.950 . S
C1487 C1485 1.387 . S
C1487 C1489 1.390 . S
C1487 H1491 0.950 . S
H1488 C1484 0.950 . S
C1489 C1487 1.390 . S
C1489 C1490 1.387 . S
C1489 H1492 0.950 . S
C1490 C1489 1.387 . S
C1490 C1493 1.387 . S
H1491 C1487 0.950 . S
H1492 C1489 0.950 . S
C1493 C1484 1.390 . S
C1493 H1486 0.950 . S
C1493 C1490 1.387 . S
C1494 C1495 1.387 . S
C1494 H1498 0.950 . S
C1494 C1503 1.390 . S
C1495 C1494 1.387 . S
C1495 C1497 1.387 . S
H1496 C1503 0.950 . S
C1497 C1495 1.387 . S
C1497 C1499 1.390 . S
C1497 H1501 0.950 . S
H1498 C1494 0.950 . S
C1499 C1497 1.390 . S
C1499 C1500 1.387 . S
C1499 H1502 0.950 . S
C1500 C1499 1.387 . S
C1500 C1503 1.387 . S
H1501 C1497 0.950 . S
H1502 C1499 0.950 . S
C1503 C1494 1.390 . S
C1503 H1496 0.950 . S
C1503 C1500 1.387 . S
C1504 C1505 1.387 . S
C1504 H1508 0.951 . S
C1504 C1513 1.390 . S
C1505 C1504 1.387 . S
C1505 C1507 1.387 . S
H1506 C1513 0.950 . S
C1507 C1505 1.387 . S
C1507 C1509 1.390 . S
C1507 H1511 0.950 . S
H1508 C1504 0.951 . S
C1509 C1507 1.390 . S
C1509 C1510 1.387 . S
C1509 H1512 0.950 . S
C1510 C1509 1.387 . S
C1510 C1513 1.387 . S
H1511 C1507 0.950 . S
H1512 C1509 0.950 . S
C1513 C1504 1.390 . S
C1513 H1506 0.950 . S
C1513 C1510 1.387 . S
C1514 C1515 1.387 . S
C1514 H1518 0.950 . S
C1514 C1523 1.390 . S
C1515 C1514 1.387 . S
C1515 C1517 1.387 . S
H1516 C1523 0.950 . S
C1517 C1515 1.387 . S
C1517 C1519 1.390 . S
C1517 H1521 0.950 . S
H1518 C1514 0.950 . S
C1519 C1517 1.390 . S
C1519 C1520 1.387 . S
C1519 H1522 0.950 . S
C1520 C1519 1.387 . S
C1520 C1523 1.387 . S
H1521 C1517 0.950 . S
H1522 C1519 0.950 . S
C1523 C1514 1.390 . S
C1523 H1516 0.950 . S
C1523 C1520 1.387 . S
C1524 C1525 1.387 . S
C1524 H1528 0.950 . S
C1524 C1533 1.390 . S
C1525 C1524 1.387 . S
C1525 C1527 1.387 . S
H1526 C1533 0.950 . S
C1527 C1525 1.387 . S
C1527 C1529 1.390 . S
C1527 H1531 0.950 . S
H1528 C1524 0.950 . S
C1529 C1527 1.390 . S
C1529 C1530 1.387 . S
C1529 H1532 0.950 . S
C1530 C1529 1.387 . S
C1530 C1533 1.387 . S
H1531 C1527 0.950 . S
H1532 C1529 0.950 . S
C1533 C1524 1.390 . S
C1533 H1526 0.950 . S
C1533 C1530 1.387 . S
C1534 C1535 1.387 . S
C1534 H1538 0.950 . S
C1534 C1543 1.390 . S
C1535 C1534 1.387 . S
C1535 C1537 1.387 . S
H1536 C1543 0.950 . S
C1537 C1535 1.387 . S
C1537 C1539 1.390 . S
C1537 H1541 0.950 . S
H1538 C1534 0.950 . S
C1539 C1537 1.390 . S
C1539 C1540 1.387 . S
C1539 H1542 0.950 . S
C1540 C1539 1.387 . S
C1540 C1543 1.387 . S
H1541 C1537 0.950 . S
H1542 C1539 0.950 . S
C1543 C1534 1.390 . S
C1543 H1536 0.950 . S
C1543 C1540 1.387 . S
C1544 C1545 1.387 . S
C1544 H1548 0.950 . S
C1544 C1553 1.390 . S
C1545 C1544 1.387 . S
C1545 C1547 1.387 . S
H1546 C1553 0.950 . S
C1547 C1545 1.387 . S
C1547 C1549 1.390 . S
C1547 H1551 0.950 . S
H1548 C1544 0.950 . S
C1549 C1547 1.390 . S
C1549 C1550 1.387 . S
C1549 H1552 0.950 . S
C1550 C1549 1.387 . S
C1550 C1553 1.387 . S
H1551 C1547 0.950 . S
H1552 C1549 0.950 . S
C1553 C1544 1.390 . S
C1553 H1546 0.950 . S
C1553 C1550 1.387 . S
C1554 C1555 1.387 . S
C1554 H1558 0.950 . S
C1554 C1563 1.390 . S
C1555 C1554 1.387 . S
C1555 C1557 1.387 . S
H1556 C1563 0.950 . S
C1557 C1555 1.387 . S
C1557 C1559 1.390 . S
C1557 H1561 0.950 . S
H1558 C1554 0.950 . S
C1559 C1557 1.390 . S
C1559 C1560 1.387 . S
C1559 H1562 0.950 . S
C1560 C1559 1.387 . S
C1560 C1563 1.387 . S
H1561 C1557 0.950 . S
H1562 C1559 0.950 . S
C1563 C1554 1.390 . S
C1563 H1556 0.950 . S
C1563 C1560 1.387 . S
C1564 C1565 1.387 . S
C1564 H1568 0.950 . S
C1564 C1573 1.390 . S
C1565 C1564 1.387 . S
C1565 C1567 1.387 . S
H1566 C1573 0.950 . S
C1567 C1565 1.387 . S
C1567 C1569 1.390 . S
C1567 H1571 0.950 . S
H1568 C1564 0.950 . S
C1569 C1567 1.390 . S
C1569 C1570 1.387 . S
C1569 H1572 0.950 . S
C1570 C1569 1.387 . S
C1570 C1573 1.387 . S
H1571 C1567 0.950 . S
H1572 C1569 0.950 . S
C1573 C1564 1.390 . S
C1573 H1566 0.950 . S
C1573 C1570 1.387 . S
C1574 C1575 1.387 . S
C1574 H1578 0.950 . S
C1574 C1583 1.390 . S
C1575 C1574 1.387 . S
C1575 C1577 1.387 . S
H1576 C1583 0.950 1_655 S
C1577 C1575 1.387 . S
C1577 C1579 1.390 . S
C1577 H1581 0.950 . S
H1578 C1574 0.950 . S
C1579 C1577 1.390 . S
C1579 C1580 1.387 . S
C1579 H1582 0.950 . S
C1580 C1579 1.387 . S
C1580 C1583 1.387 . S
H1581 C1577 0.950 . S
H1582 C1579 0.950 . S
C1583 C1574 1.390 . S
C1583 H1576 0.950 1_455 S
C1583 C1580 1.387 . S
C1584 C1585 1.387 . S
C1584 H1588 0.950 . S
C1584 C1593 1.390 1_544 S
C1585 C1584 1.387 . S
C1585 C1587 1.387 . S
H1586 C1593 0.950 . S
C1587 C1585 1.387 . S
C1587 C1589 1.390 1_544 S
C1587 H1591 0.950 . S
H1588 C1584 0.950 . S
C1589 C1587 1.390 1_566 S
C1589 C1590 1.387 . S
C1589 H1592 0.950 . S
C1590 C1589 1.387 . S
C1590 C1593 1.387 . S
H1591 C1587 0.950 . S
H1592 C1589 0.950 . S
C1593 C1584 1.390 1_566 S
C1593 H1586 0.950 . S
C1593 C1590 1.387 . S
C1594 C1595 1.387 . S
C1594 H1598 0.950 . S
C1594 C1603 1.390 . S
C1595 C1594 1.387 . S
C1595 C1597 1.387 . S
H1596 C1603 0.950 . S
C1597 C1595 1.387 . S
C1597 C1599 1.390 . S
C1597 H1601 0.950 . S
H1598 C1594 0.950 . S
C1599 C1597 1.390 . S
C1599 C1600 1.387 . S
C1599 H1602 0.950 . S
C1600 C1599 1.387 . S
C1600 C1603 1.387 . S
H1601 C1597 0.950 . S
H1602 C1599 0.950 . S
C1603 C1594 1.390 . S
C1603 H1596 0.950 . S
C1603 C1600 1.387 . S
C1604 C1605 1.387 . S
C1604 H1608 0.950 . S
C1604 C1613 1.390 1_545 S
C1605 C1604 1.387 . S
C1605 C1607 1.387 . S
H1606 C1613 0.950 . S
C1607 C1605 1.387 . S
C1607 C1609 1.390 1_545 S
C1607 H1611 0.950 . S
H1608 C1604 0.950 . S
C1609 C1607 1.390 1_565 S
C1609 C1610 1.387 . S
C1609 H1612 0.950 . S
C1610 C1609 1.387 . S
C1610 C1613 1.387 . S
H1611 C1607 0.950 . S
H1612 C1609 0.950 . S
C1613 C1604 1.390 1_565 S
C1613 H1606 0.950 . S
C1613 C1610 1.387 . S
C1614 C1615 1.387 . S
C1614 H1618 0.950 . S
C1614 C1623 1.390 . S
C1615 C1614 1.387 . S
C1615 C1617 1.387 . S
H1616 C1623 0.950 . S
C1617 C1615 1.387 . S
C1617 C1619 1.390 . S
C1617 H1621 0.950 . S
H1618 C1614 0.950 . S
C1619 C1617 1.390 . S
C1619 C1620 1.387 . S
C1619 H1622 0.950 . S
C1620 C1619 1.387 . S
C1620 C1623 1.387 . S
H1621 C1617 0.950 . S
H1622 C1619 0.950 . S
C1623 C1614 1.390 . S
C1623 H1616 0.950 . S
C1623 C1620 1.387 . S
C1624 C1625 1.387 . S
C1624 H1628 0.950 . S
C1624 C1633 1.390 . S
C1625 C1624 1.387 . S
C1625 C1627 1.387 . S
H1626 C1633 0.950 . S
C1627 C1625 1.387 . S
C1627 C1629 1.390 . S
C1627 H1631 0.950 . S
H1628 C1624 0.950 . S
C1629 C1627 1.390 . S
C1629 C1630 1.387 . S
C1629 H1632 0.950 . S
C1630 C1629 1.387 . S
C1630 C1633 1.387 . S
H1631 C1627 0.950 . S
H1632 C1629 0.950 . S
C1633 C1624 1.390 . S
C1633 H1626 0.950 . S
C1633 C1630 1.387 . S
C1634 C1635 1.387 . S
C1634 H1638 0.950 . S
C1634 C1643 1.390 . S
C1635 C1634 1.387 . S
C1635 C1637 1.387 . S
H1636 C1643 0.950 . S
C1637 C1635 1.387 . S
C1637 C1639 1.390 . S
C1637 H1641 0.950 . S
H1638 C1634 0.950 . S
C1639 C1637 1.390 . S
C1639 C1640 1.387 . S
C1639 H1642 0.950 . S
C1640 C1639 1.387 . S
C1640 C1643 1.387 . S
H1641 C1637 0.950 . S
H1642 C1639 0.950 . S
C1643 C1634 1.390 . S
C1643 H1636 0.950 . S
C1643 C1640 1.387 . S
C1644 C1645 1.387 . S
C1644 H1648 0.950 . S
C1644 C1653 1.390 . S
C1645 C1644 1.387 . S
C1645 C1647 1.387 . S
H1646 C1653 0.950 . S
C1647 C1645 1.387 . S
C1647 C1649 1.390 . S
C1647 H1651 0.950 . S
H1648 C1644 0.950 . S
C1649 C1647 1.390 . S
C1649 C1650 1.387 . S
C1649 H1652 0.950 . S
C1650 C1649 1.387 . S
C1650 C1653 1.387 . S
H1651 C1647 0.950 . S
H1652 C1649 0.950 . S
C1653 C1644 1.390 . S
C1653 H1646 0.950 . S
C1653 C1650 1.387 . S
C1654 C1655 1.387 . S
C1654 H1658 0.950 . S
C1654 C1663 1.390 1_556 S
C1655 C1654 1.387 . S
C1655 C1657 1.387 1_655 S
H1656 C1663 0.950 . S
C1657 C1655 1.387 1_455 S
C1657 C1659 1.390 1_556 S
C1657 H1661 0.950 . S
H1658 C1654 0.950 . S
C1659 C1657 1.390 1_554 S
C1659 C1660 1.387 1_455 S
C1659 H1662 0.950 . S
C1660 C1659 1.387 1_655 S
C1660 C1663 1.387 . S
H1661 C1657 0.950 . S
H1662 C1659 0.950 . S
C1663 C1654 1.390 1_554 S
C1663 H1656 0.950 . S
C1663 C1660 1.387 . S
C1664 C1665 1.387 . S
C1664 H1668 0.950 . S
C1664 C1673 1.390 . S
C1665 C1664 1.387 . S
C1665 C1667 1.387 . S
H1666 C1673 0.950 . S
C1667 C1665 1.387 . S
C1667 C1669 1.390 . S
C1667 H1671 0.950 . S
H1668 C1664 0.950 . S
C1669 C1667 1.390 . S
C1669 C1670 1.387 . S
C1669 H1672 0.950 . S
C1670 C1669 1.387 . S
C1670 C1673 1.387 . S
H1671 C1667 0.950 . S
H1672 C1669 0.950 . S
C1673 C1664 1.390 . S
C1673 H1666 0.950 . S
C1673 C1670 1.387 . S
C1674 C1675 1.387 . S
C1674 H1678 0.950 . S
C1674 C1683 1.390 . S
C1675 C1674 1.387 . S
C1675 C1677 1.387 . S
H1676 C1683 0.950 . S
C1677 C1675 1.387 . S
C1677 C1679 1.390 . S
C1677 H1681 0.950 . S
H1678 C1674 0.950 . S
C1679 C1677 1.390 . S
C1679 C1680 1.387 . S
C1679 H1682 0.950 . S
C1680 C1679 1.387 . S
C1680 C1683 1.387 . S
H1681 C1677 0.950 . S
H1682 C1679 0.950 . S
C1683 C1674 1.390 . S
C1683 H1676 0.950 . S
C1683 C1680 1.387 . S
C1684 C1685 1.387 . S
C1684 H1688 0.950 . S
C1684 C1693 1.390 . S
C1685 C1684 1.387 . S
C1685 C1687 1.387 . S
H1686 C1693 0.950 . S
C1687 C1685 1.387 . S
C1687 C1689 1.390 . S
C1687 H1691 0.950 . S
H1688 C1684 0.950 . S
C1689 C1687 1.390 . S
C1689 C1690 1.387 . S
C1689 H1692 0.950 . S
C1690 C1689 1.387 . S
C1690 C1693 1.387 . S
H1691 C1687 0.950 . S
H1692 C1689 0.950 . S
C1693 C1684 1.390 . S
C1693 H1686 0.950 . S
C1693 C1690 1.387 . S
C1694 C1695 1.387 . S
C1694 H1698 0.950 . S
C1694 C1703 1.390 . S
C1695 C1694 1.387 . S
C1695 C1697 1.387 . S
H1696 C1703 0.950 . S
C1697 C1695 1.387 . S
C1697 C1699 1.390 . S
C1697 H1701 0.950 . S
H1698 C1694 0.950 . S
C1699 C1697 1.390 . S
C1699 C1700 1.387 . S
C1699 H1702 0.950 . S
C1700 C1699 1.387 . S
C1700 C1703 1.387 . S
H1701 C1697 0.950 . S
H1702 C1699 0.950 . S
C1703 C1694 1.390 . S
C1703 H1696 0.950 . S
C1703 C1700 1.387 . S
C1704 C1705 1.387 . S
C1704 H1708 0.950 . S
C1704 C1713 1.390 1_655 S
C1705 C1704 1.387 . S
C1705 C1707 1.387 . S
H1706 C1713 0.950 . S
C1707 C1705 1.387 . S
C1707 C1709 1.390 1_655 S
C1707 H1711 0.950 . S
H1708 C1704 0.950 . S
C1709 C1707 1.390 1_455 S
C1709 C1710 1.387 . S
C1709 H1712 0.950 . S
C1710 C1709 1.387 . S
C1710 C1713 1.387 . S
H1711 C1707 0.950 . S
H1712 C1709 0.950 . S
C1713 C1704 1.390 1_455 S
C1713 H1706 0.950 . S
C1713 C1710 1.387 . S
C1714 C1715 1.387 . S
C1714 H1718 0.950 . S
C1714 C1723 1.390 1_655 S
C1715 C1714 1.387 . S
C1715 C1717 1.387 . S
H1716 C1723 0.950 . S
C1717 C1715 1.387 . S
C1717 C1719 1.390 1_655 S
C1717 H1721 0.950 . S
H1718 C1714 0.950 . S
C1719 C1717 1.390 1_455 S
C1719 C1720 1.387 . S
C1719 H1722 0.950 . S
C1720 C1719 1.387 . S
C1720 C1723 1.387 . S
H1721 C1717 0.950 . S
H1722 C1719 0.950 . S
C1723 C1714 1.390 1_455 S
C1723 H1716 0.950 . S
C1723 C1720 1.387 . S
C1724 C1725 1.387 . S
C1724 H1728 0.950 1_545 S
C1724 C1733 1.390 . S
C1725 C1724 1.387 . S
C1725 C1727 1.387 . S
H1726 C1733 0.950 1_565 S
C1727 C1725 1.387 . S
C1727 C1729 1.390 . S
C1727 H1731 0.950 . S
H1728 C1724 0.950 1_565 S
C1729 C1727 1.390 . S
C1729 C1730 1.387 . S
C1729 H1732 0.950 . S
C1730 C1729 1.387 . S
C1730 C1733 1.387 . S
H1731 C1727 0.950 . S
H1732 C1729 0.950 . S
C1733 C1724 1.390 . S
C1733 H1726 0.950 1_545 S
C1733 C1730 1.387 . S
C1734 C1735 1.387 . S
C1734 H1738 0.950 1_565 S
C1734 C1743 1.390 . S
C1735 C1734 1.387 . S
C1735 C1737 1.387 . S
H1736 C1743 0.950 1_545 S
C1737 C1735 1.387 . S
C1737 C1739 1.390 . S
C1737 H1741 0.950 . S
H1738 C1734 0.950 1_545 S
C1739 C1737 1.390 . S
C1739 C1740 1.387 . S
C1739 H1742 0.950 . S
C1740 C1739 1.387 . S
C1740 C1743 1.387 . S
H1741 C1737 0.950 . S
H1742 C1739 0.950 . S
C1743 C1734 1.390 . S
C1743 H1736 0.950 1_565 S
C1743 C1740 1.387 . S
C1744 C1745 1.387 . S
C1744 H1748 0.950 . S
C1744 C1753 1.390 1_556 S
C1745 C1744 1.387 . S
C1745 C1747 1.387 . S
H1746 C1753 0.950 . S
C1747 C1745 1.387 . S
C1747 C1749 1.390 1_556 S
C1747 H1751 0.950 . S
H1748 C1744 0.950 . S
C1749 C1747 1.390 1_554 S
C1749 C1750 1.387 . S
C1749 H1752 0.950 . S
C1750 C1749 1.387 . S
C1750 C1753 1.387 . S
H1751 C1747 0.950 . S
H1752 C1749 0.950 . S
C1753 C1744 1.390 1_554 S
C1753 H1746 0.950 . S
C1753 C1750 1.387 . S
C1754 C1755 1.387 . S
C1754 H1758 0.950 . S
C1754 C1763 1.390 1_554 S
C1755 C1754 1.387 . S
C1755 C1757 1.387 . S
H1756 C1763 0.950 . S
C1757 C1755 1.387 . S
C1757 C1759 1.390 1_554 S
C1757 H1761 0.950 . S
H1758 C1754 0.950 . S
C1759 C1757 1.390 1_556 S
C1759 C1760 1.387 . S
C1759 H1762 0.950 . S
C1760 C1759 1.387 . S
C1760 C1763 1.387 . S
H1761 C1757 0.950 . S
H1762 C1759 0.950 . S
C1763 C1754 1.390 1_556 S
C1763 H1756 0.950 . S
C1763 C1760 1.387 . S
C1764 C1765 1.387 . S
C1764 H1768 0.950 . S
C1764 C1773 1.390 . S
C1765 C1764 1.387 . S
C1765 C1767 1.387 . S
H1766 C1773 0.950 . S
C1767 C1765 1.387 . S
C1767 C1769 1.390 . S
C1767 H1771 0.950 . S
H1768 C1764 0.950 . S
C1769 C1767 1.390 . S
C1769 C1770 1.387 . S
C1769 H1772 0.950 . S
C1770 C1769 1.387 . S
C1770 C1773 1.387 . S
H1771 C1767 0.950 . S
H1772 C1769 0.950 . S
C1773 C1764 1.390 . S
C1773 H1766 0.950 . S
C1773 C1770 1.387 . S
C1774 C1775 1.387 . S
C1774 H1778 0.950 . S
C1774 C1783 1.390 . S
C1775 C1774 1.387 . S
C1775 C1777 1.387 . S
H1776 C1783 0.950 . S
C1777 C1775 1.387 . S
C1777 C1779 1.390 . S
C1777 H1781 0.950 . S
H1778 C1774 0.950 . S
C1779 C1777 1.390 . S
C1779 C1780 1.387 . S
C1779 H1782 0.950 . S
C1780 C1779 1.387 . S
C1780 C1783 1.387 . S
H1781 C1777 0.950 . S
H1782 C1779 0.950 . S
C1783 C1774 1.390 . S
C1783 H1776 0.950 . S
C1783 C1780 1.387 . S
C1784 C1785 1.387 . S
C1784 H1788 0.950 . S
C1784 C1793 1.390 . S
C1785 C1784 1.387 . S
C1785 C1787 1.387 . S
H1786 C1793 0.950 . S
C1787 C1785 1.387 . S
C1787 C1789 1.390 . S
C1787 H1791 0.950 . S
H1788 C1784 0.950 . S
C1789 C1787 1.390 . S
C1789 C1790 1.387 . S
C1789 H1792 0.950 . S
C1790 C1789 1.387 . S
C1790 C1793 1.387 . S
H1791 C1787 0.950 . S
H1792 C1789 0.950 . S
C1793 C1784 1.390 . S
C1793 H1786 0.950 . S
C1793 C1790 1.387 . S
C1794 C1795 1.387 . S
C1794 H1798 0.950 . S
C1794 C1803 1.390 . S
C1795 C1794 1.387 . S
C1795 C1797 1.387 . S
H1796 C1803 0.950 . S
C1797 C1795 1.387 . S
C1797 C1799 1.390 . S
C1797 H1801 0.950 . S
H1798 C1794 0.950 . S
C1799 C1797 1.390 . S
C1799 C1800 1.387 . S
C1799 H1802 0.950 . S
C1800 C1799 1.387 . S
C1800 C1803 1.387 . S
H1801 C1797 0.950 . S
H1802 C1799 0.950 . S
C1803 C1794 1.390 . S
C1803 H1796 0.950 . S
C1803 C1800 1.387 . S
C1804 C1805 1.387 . S
C1804 H1808 0.950 . S
C1804 C1813 1.390 . S
C1805 C1804 1.387 . S
C1805 C1807 1.387 . S
H1806 C1813 0.950 . S
C1807 C1805 1.387 . S
C1807 C1809 1.390 . S
C1807 H1811 0.950 . S
H1808 C1804 0.950 . S
C1809 C1807 1.390 . S
C1809 C1810 1.387 . S
C1809 H1812 0.950 . S
C1810 C1809 1.387 . S
C1810 C1813 1.387 . S
H1811 C1807 0.950 . S
H1812 C1809 0.950 . S
C1813 C1804 1.390 . S
C1813 H1806 0.950 . S
C1813 C1810 1.387 . S
C1814 C1815 1.387 . S
C1814 H1818 0.950 . S
C1814 C1823 1.390 . S
C1815 C1814 1.387 . S
C1815 C1817 1.387 . S
H1816 C1823 0.950 . S
C1817 C1815 1.387 . S
C1817 C1819 1.390 . S
C1817 H1821 0.950 . S
H1818 C1814 0.950 . S
C1819 C1817 1.390 . S
C1819 C1820 1.387 . S
C1819 H1822 0.950 . S
C1820 C1819 1.387 . S
C1820 C1823 1.387 . S
H1821 C1817 0.950 . S
H1822 C1819 0.950 . S
C1823 C1814 1.390 . S
C1823 H1816 0.950 . S
C1823 C1820 1.387 . S
C1345 C67 2.698 . S
C1350 C657 2.097 . S
C1355 C153 2.095 . S
C1360 C403 2.698 . S
C1365 C487 2.936 . S
C1370 C235 2.944 . S
C1375 C319 2.936 . S
C1380 C571 2.944 . S
C1385 C982 0.905 . S
C1390 C394 0.865 . S
C1395 C730 0.905 . S
C1400 C58 0.869 . S
C1405 C896 0.422 . S
C1410 C562 0.919 . S
C1415 C226 0.921 . S
C1420 C812 0.424 . S
C1425 C825 2.095 . S
C1430 C1075 2.698 . S
C1435 C909 2.097 . S
C1440 C1243 2.698 . S
C1445 C1159 2.944 . S
C1450 C739 2.937 . S
C1455 C991 2.937 . S
C1460 C1327 2.944 . S
C1465 C1234 0.870 . S
C1470 C310 0.905 . S
C1475 C1066 0.870 . S
C1480 C478 0.904 . S
C1485 C140 0.425 . S
C1490 C1318 0.928 . S
C1495 C644 0.425 . S
C1500 C1150 0.922 . S
C1505 C1166 1.719 . S
C1510 C74 1.331 . S
C1515 C998 1.465 1_455 S
C1520 C147 1.363 . S
C1525 C1082 1.335 . S
C1530 C242 1.720 . S
C1535 C903 1.359 . S
C1540 C326 1.466 . S
C1545 C410 1.336 . S
C1550 C1334 1.719 . S
C1555 C819 1.359 . S
C1560 C494 1.464 . S
C1565 C578 1.719 . S
C1570 C1250 1.331 . S
C1575 C651 1.358 . S
C1580 C746 1.465 1_455 S
C1585 C63 2.329 . S
C1590 C399 2.329 . S
C1595 C158 1.876 . S
C1600 C483 1.881 . S
C1605 C567 1.388 . S
C1610 C231 1.388 . S
C1615 C315 1.879 . S
C1620 C662 1.874 . S
C1625 C914 1.876 . S
C1630 C735 1.881 . S
C1635 C987 1.880 . S
C1640 C830 1.873 . S
C1645 C1071 2.327 . S
C1650 C1239 2.327 . S
C1655 C1323 1.384 . S
C1660 C1155 1.384 . S
C1665 C69 1.018 . S
C1670 C655 0.991 . S
C1675 C151 0.991 . S
C1680 C405 1.018 . S
C1685 C489 0.636 . S
C1690 C237 0.358 . S
C1695 C573 0.360 . S
C1700 C321 0.643 . S
C1705 C980 2.960 . S
C1710 C392 3.134 . S
C1715 C728 2.959 . S
C1720 C56 3.134 . S
C1725 C898 2.373 . S
C1730 C560 2.413 . S
C1735 C224 2.413 . S
C1740 C814 2.373 . S
C1745 C1077 1.018 . S
C1750 C823 0.991 . S
C1755 C1245 1.018 . S
C1760 C907 0.991 . S
C1765 C1161 0.359 . S
C1770 C741 0.633 . S
C1775 C1329 0.360 . S
C1780 C993 0.639 . S
C1785 C1232 3.134 . S
C1790 C308 2.961 1_554 S
C1795 C476 2.960 1_556 S
C1800 C1064 3.134 . S
C1805 C142 2.370 . S
C1810 C1316 2.413 . S
C1815 C1148 2.413 . S
C1820 C646 2.370 . S
