# Generated by pormake.
# Topology dia-f, (3)-cn, num edge types: 1
# Building blocks:
#     Node 0, Type 0, BuildingBlock: WUSLED_clean_sbu_0, # of connection points: 3
#     Node 1, Type 0, BuildingBlock: WUSLED_clean_sbu_0, # of connection points: 3
#     Node 2, Type 0, BuildingBlock: WUSLED_clean_sbu_0, # of connection points: 3
#     Node 3, Type 0, BuildingBlock: WUSLED_clean_sbu_0, # of connection points: 3
#     Node 4, Type 0, BuildingBlock: WUSLED_clean_sbu_0, # of connection points: 3
#     Node 5, Type 0, BuildingBlock: WUSLED_clean_sbu_0, # of connection points: 3
#     Node 6, Type 0, BuildingBlock: WUSLED_clean_sbu_0, # of connection points: 3
#     Node 7, Type 0, BuildingBlock: WUSLED_clean_sbu_0, # of connection points: 3
#     Node 8, Type 0, BuildingBlock: WUSLED_clean_sbu_0, # of connection points: 3
#     Node 9, Type 0, BuildingBlock: WUSLED_clean_sbu_0, # of connection points: 3
#     Node 10, Type 0, BuildingBlock: WUSLED_clean_sbu_0, # of connection points: 3
#     Node 11, Type 0, BuildingBlock: WUSLED_clean_sbu_0, # of connection points: 3
#     Node 12, Type 0, BuildingBlock: WUSLED_clean_sbu_0, # of connection points: 3
#     Node 13, Type 0, BuildingBlock: WUSLED_clean_sbu_0, # of connection points: 3
#     Node 14, Type 0, BuildingBlock: WUSLED_clean_sbu_0, # of connection points: 3
#     Node 15, Type 0, BuildingBlock: WUSLED_clean_sbu_0, # of connection points: 3
#     Edge 16, Type (0, 0), BuildingBlock: OJICUG_clean_linker_0, # of connection points: 2
#     Edge 17, Type (0, 0), BuildingBlock: OJICUG_clean_linker_0, # of connection points: 2
#     Edge 18, Type (0, 0), BuildingBlock: OJICUG_clean_linker_0, # of connection points: 2
#     Edge 19, Type (0, 0), BuildingBlock: OJICUG_clean_linker_0, # of connection points: 2
#     Edge 20, Type (0, 0), BuildingBlock: OJICUG_clean_linker_0, # of connection points: 2
#     Edge 21, Type (0, 0), BuildingBlock: OJICUG_clean_linker_0, # of connection points: 2
#     Edge 22, Type (0, 0), BuildingBlock: OJICUG_clean_linker_0, # of connection points: 2
#     Edge 23, Type (0, 0), BuildingBlock: OJICUG_clean_linker_0, # of connection points: 2
#     Edge 24, Type (0, 0), BuildingBlock: OJICUG_clean_linker_0, # of connection points: 2
#     Edge 25, Type (0, 0), BuildingBlock: OJICUG_clean_linker_0, # of connection points: 2
#     Edge 26, Type (0, 0), BuildingBlock: OJICUG_clean_linker_0, # of connection points: 2
#     Edge 27, Type (0, 0), BuildingBlock: OJICUG_clean_linker_0, # of connection points: 2
#     Edge 28, Type (0, 0), BuildingBlock: OJICUG_clean_linker_0, # of connection points: 2
#     Edge 29, Type (0, 0), BuildingBlock: OJICUG_clean_linker_0, # of connection points: 2
#     Edge 30, Type (0, 0), BuildingBlock: OJICUG_clean_linker_0, # of connection points: 2
#     Edge 31, Type (0, 0), BuildingBlock: OJICUG_clean_linker_0, # of connection points: 2
#     Edge 32, Type (0, 0), BuildingBlock: OJICUG_clean_linker_0, # of connection points: 2
#     Edge 33, Type (0, 0), BuildingBlock: OJICUG_clean_linker_0, # of connection points: 2
#     Edge 34, Type (0, 0), BuildingBlock: OJICUG_clean_linker_0, # of connection points: 2
#     Edge 35, Type (0, 0), BuildingBlock: OJICUG_clean_linker_0, # of connection points: 2
#     Edge 36, Type (0, 0), BuildingBlock: OJICUG_clean_linker_0, # of connection points: 2
#     Edge 37, Type (0, 0), BuildingBlock: OJICUG_clean_linker_0, # of connection points: 2
#     Edge 38, Type (0, 0), BuildingBlock: OJICUG_clean_linker_0, # of connection points: 2
#     Edge 39, Type (0, 0), BuildingBlock: OJICUG_clean_linker_0, # of connection points: 2
# Relax obj value: 0.108
# Max RMSD: 0.092
# Mean RMSD: 0.090
data_MOF--net-dia-f--node1-WUSLED_clean_sbu_0--edge1-OJICUG_clean_linker_0
_symmetry_space_group_name_H-M    P1
_symmetry_Int_Tables_number       1
_symmetry_cell_setting            triclinic
loop_
_symmetry_equiv_pos_as_xyz
'x, y, z'
_cell_length_a     83.370742
_cell_length_b     83.456838
_cell_length_c     54.10703
_cell_angle_alpha  89.571408
_cell_angle_beta   89.965583
_cell_angle_gamma 90.305179
loop_
_atom_site_label
_atom_site_type_symbol
_atom_site_fract_x
_atom_site_fract_y
_atom_site_fract_z
_atom_type_partial_charge
C0 C 1.00724 0.61691 0.10141 0.0
C1 C 0.01175 0.63272 0.10684 0.0
C2 C 0.98436 0.6389 0.11926 0.0
C3 C 1.00044 0.64361 0.11556 0.0
C4 C 0.9799 0.62301 0.11371 0.0
C5 C 0.99125 0.61213 0.10488 0.0
U6 U 0.05076 0.60624 0.09381 0.0
O7 O 0.06381 0.5836 0.09959 0.0
O8 O 0.06422 0.5955 0.06323 0.0
C9 C 0.06817 0.58276 0.07628 0.0
C10 C 0.01931 0.60538 0.09285 0.0
C11 C 0.06608 0.56702 0.06429 0.0
C12 C 0.0545 0.54992 0.03255 0.0
C13 C 0.05513 0.56464 0.04488 0.0
C14 C 0.07532 0.53963 0.05939 0.0
C15 C 0.0648 0.53731 0.03939 0.0
C16 C 0.07597 0.55432 0.07162 0.0
C17 C 0.0801 0.63871 0.11896 0.0
C18 C 0.10805 0.6441 0.10877 0.0
C19 C 0.09558 0.65769 0.14313 0.0
C20 C 0.08127 0.64947 0.13862 0.0
C21 C 0.10911 0.65532 0.12806 0.0
C22 C 0.09366 0.63585 0.10426 0.0
C23 C 0.06429 0.63164 0.11345 0.0
O24 O 0.02808 0.61024 0.07401 0.0
O25 O 0.02781 0.59864 0.11049 0.0
O26 O 0.06011 0.61891 0.12642 0.0
O27 O 0.06027 0.63074 0.09002 0.0
H28 H 0.02407 0.63664 0.10437 0.0
H29 H 1.00428 0.65577 0.11922 0.0
H30 H 0.9677 0.6189 0.11661 0.0
H31 H 0.98758 0.59994 0.10096 0.0
H32 H 0.04632 0.54861 0.01715 0.0
H33 H 0.04732 0.57423 0.03888 0.0
H34 H 0.0832 0.53012 0.06552 0.0
H35 H 0.08446 0.55585 0.08658 0.0
H36 H 0.11828 0.64186 0.09696 0.0
H37 H 0.09579 0.66641 0.15785 0.0
H38 H 0.07091 0.6519 0.15008 0.0
H39 H 0.09301 0.62753 0.08901 0.0
C40 C 0.69642 0.80571 0.34801 0.0
C41 C 0.68422 0.79984 0.36354 0.0
C42 C 0.67201 0.82627 0.36501 0.0
C43 C 0.67218 0.80999 0.37199 0.0
C44 C 0.6843 0.83213 0.34944 0.0
C45 C 0.69642 0.82192 0.34104 0.0
U46 U 0.70939 0.76326 0.34007 0.0
O47 O 0.71987 0.75021 0.30879 0.0
O48 O 0.73257 0.75107 0.34429 0.0
C49 C 0.73299 0.74661 0.32104 0.0
C50 C 0.70863 0.79465 0.33847 0.0
C51 C 0.74822 0.7496 0.30796 0.0
C52 C 0.7686 0.76765 0.29134 0.0
C53 C 0.75393 0.7652 0.30352 0.0
C54 C 0.77191 0.73894 0.28789 0.0
C55 C 0.77782 0.75453 0.28346 0.0
C56 C 0.75728 0.73652 0.30001 0.0
C57 C 0.67787 0.7334 0.36869 0.0
C58 C 0.66739 0.70714 0.35758 0.0
C59 C 0.66047 0.71878 0.39702 0.0
C60 C 0.67 0.73213 0.39152 0.0
C61 C 0.65863 0.70641 0.37978 0.0
C62 C 0.67691 0.7206 0.35199 0.0
C63 C 0.68498 0.74903 0.36188 0.0
O64 O 0.7165 0.78657 0.35549 0.0
O65 O 0.70376 0.78562 0.32011 0.0
O66 O 0.68517 0.75291 0.33828 0.0
O67 O 0.69794 0.75353 0.37382 0.0
H68 H 0.6839 0.7873 0.36891 0.0
H69 H 0.66276 0.80498 0.38353 0.0
H70 H 0.68458 0.84461 0.34384 0.0
H71 H 0.7057 0.82664 0.32896 0.0
H72 H 0.77285 0.77981 0.28847 0.0
H73 H 0.74709 0.77545 0.30959 0.0
H74 H 0.77853 0.72856 0.28175 0.0
H75 H 0.75302 0.72439 0.30322 0.0
H76 H 0.66612 0.69779 0.34393 0.0
H77 H 0.65398 0.71845 0.41438 0.0
H78 H 0.67056 0.74186 0.40464 0.0
H79 H 0.68287 0.72133 0.33422 0.0
C80 C 0.5124 0.39221 0.591 0.0
C81 C 0.51752 0.37625 0.58963 0.0
C82 C 0.49148 0.36682 0.60419 0.0
C83 C 0.50716 0.36371 0.59602 0.0
C84 C 0.48642 0.38284 0.60595 0.0
C85 C 0.4968 0.39544 0.59929 0.0
U86 U 0.55498 0.40644 0.58556 0.0
O87 O 0.56793 0.41969 0.55646 0.0
O88 O 0.56694 0.42937 0.59407 0.0
C89 C 0.57141 0.43176 0.57102 0.0
C90 C 0.52356 0.40536 0.58455 0.0
C91 C 0.56851 0.44787 0.5607 0.0
C92 C 0.55198 0.46708 0.53836 0.0
C93 C 0.55398 0.45187 0.54912 0.0
C94 C 0.57887 0.47443 0.55104 0.0
C95 C 0.56444 0.47853 0.53913 0.0
C96 C 0.58086 0.45928 0.56169 0.0
C97 C 0.58581 0.37388 0.60599 0.0
C98 C 0.61187 0.37432 0.62634 0.0
C99 C 0.60298 0.35047 0.605 0.0
C100 C 0.58879 0.35817 0.59834 0.0
C101 C 0.61452 0.35829 0.61959 0.0
C102 C 0.59759 0.38205 0.61965 0.0
C103 C 0.56973 0.38061 0.60144 0.0
O104 O 0.53167 0.4113 0.60322 0.0
O105 O 0.53254 0.40282 0.56499 0.0
O106 O 0.56556 0.38279 0.57824 0.0
O107 O 0.56493 0.39214 0.6161 0.0
H108 H 0.5296 0.37347 0.5837 0.0
H109 H 0.51153 0.35153 0.59493 0.0
H110 H 0.47441 0.38559 0.61216 0.0
H111 H 0.49268 0.40769 0.60068 0.0
H112 H 0.54068 0.46988 0.52952 0.0
H113 H 0.54429 0.4432 0.5482 0.0
H114 H 0.58882 0.48282 0.55164 0.0
H115 H 0.59219 0.45637 0.57041 0.0
H116 H 0.62051 0.38066 0.63762 0.0
H117 H 0.60478 0.33824 0.59907 0.0
H118 H 0.57988 0.35163 0.58782 0.0
H119 H 0.59559 0.39419 0.6258 0.0
C120 C 0.91997 0.30662 0.84835 0.0
C121 C 0.93578 0.30211 0.85383 0.0
C122 C 0.94219 0.3294 0.86632 0.0
C123 C 0.94679 0.31339 0.86263 0.0
C124 C 0.92627 0.33381 0.86106 0.0
C125 C 0.91527 0.32251 0.85209 0.0
U126 U 0.90887 0.26329 0.83825 0.0
O127 O 0.88604 0.25014 0.8419 0.0
O128 O 0.89856 0.25084 0.80615 0.0
C129 C 0.88569 0.24625 0.81839 0.0
C130 C 0.90841 0.29471 0.83899 0.0
C131 C 0.87025 0.24817 0.80545 0.0
C132 C 0.8454 0.26243 0.79709 0.0
C133 C 0.8604 0.26158 0.80882 0.0
C134 C 0.85018 0.23668 0.7782 0.0
C135 C 0.84002 0.24985 0.78192 0.0
C136 C 0.8651 0.23586 0.78985 0.0
C137 C 0.94011 0.23239 0.86162 0.0
C138 C 0.93807 0.20548 0.87914 0.0
C139 C 0.96282 0.21428 0.85978 0.0
C140 C 0.95593 0.22914 0.85452 0.0
C141 C 0.95405 0.20232 0.87242 0.0
C142 C 0.93114 0.22037 0.87374 0.0
C143 C 0.9338 0.24873 0.8576 0.0
O144 O 0.91335 0.28646 0.81985 0.0
O145 O 0.90146 0.28574 0.856 0.0
O146 O 0.92112 0.25286 0.87049 0.0
O147 O 0.93339 0.25385 0.83459 0.0
H148 H 0.9396 0.28984 0.85129 0.0
H149 H 0.95887 0.30953 0.86685 0.0
H150 H 0.92238 0.34606 0.86352 0.0
H151 H 0.9031 0.3262 0.84803 0.0
H152 H 0.83785 0.27272 0.80041 0.0
H153 H 0.86419 0.27125 0.82076 0.0
H154 H 0.84661 0.22694 0.76625 0.0
H155 H 0.87256 0.22545 0.78689 0.0
H156 H 0.93095 0.19647 0.88869 0.0
H157 H 0.97521 0.21236 0.85465 0.0
H158 H 0.96312 0.23826 0.84535 0.0
H159 H 0.91888 0.22252 0.87942 0.0
C160 C 0.01202 0.39738 0.92102 0.0
C161 C 0.01642 0.38163 0.91532 0.0
C162 C 0.9889 0.37534 0.90336 0.0
C163 C 1.00498 0.37071 0.90669 0.0
C164 C 0.98456 0.39117 0.90918 0.0
C165 C 0.99603 0.40207 0.91793 0.0
U166 U 0.05557 0.4097 0.92648 0.0
O167 O 0.06753 0.43309 0.92101 0.0
O168 O 0.06927 0.4206 0.95678 0.0
C169 C 0.07244 0.43374 0.94406 0.0
C170 C 0.02414 0.40904 0.9294 0.0
C171 C 0.06989 0.44908 0.95686 0.0
C172 C 0.05576 0.46572 0.98648 0.0
C173 C 0.05719 0.45128 0.97355 0.0
C174 C 0.07942 0.47601 0.96564 0.0
C175 C 0.06701 0.47819 0.98293 0.0
C176 C 0.08084 0.46161 0.95282 0.0
C177 C 0.08585 0.37972 0.8975 0.0
C178 C 0.11253 0.36996 0.90788 0.0
C179 C 0.10245 0.36723 0.86617 0.0
C180 C 0.08823 0.37477 0.87307 0.0
C181 C 0.11463 0.36438 0.8836 0.0
C182 C 0.09825 0.37753 0.9148 0.0
C183 C 0.06982 0.38562 0.90464 0.0
O184 O 0.03356 0.40406 0.94733 0.0
O185 O 0.03196 0.41652 0.91161 0.0
O186 O 0.0645 0.39825 0.89261 0.0
O187 O 0.06628 0.38571 0.92834 0.0
H188 H 0.02874 0.37779 0.91747 0.0
H189 H 1.00874 0.35859 0.9028 0.0
H190 H 0.97237 0.39525 0.90654 0.0
H191 H 0.99243 0.41422 0.92204 0.0
H192 H 0.04612 0.46694 0.99974 0.0
H193 H 0.04855 0.44177 0.9769 0.0
H194 H 0.08811 0.48544 0.96203 0.0
H195 H 0.09067 0.46019 0.93992 0.0
H196 H 0.12163 0.36788 0.9218 0.0
H197 H 0.10378 0.36335 0.84722 0.0
H198 H 0.07885 0.37629 0.85941 0.0
H199 H 0.09675 0.38121 0.93381 0.0
C200 C 0.91703 0.70926 0.17173 0.0
C201 C 0.93301 0.71332 0.1663 0.0
C202 C 0.93861 0.68567 0.15515 0.0
C203 C 0.94371 0.70164 0.15818 0.0
C204 C 0.92253 0.68169 0.1604 0.0
C205 C 0.91184 0.6934 0.16868 0.0
U206 U 0.90767 0.75304 0.17957 0.0
O207 O 0.88549 0.76682 0.17417 0.0
O208 O 0.89719 0.7664 0.21048 0.0
C209 C 0.88461 0.77088 0.19757 0.0
C210 C 0.9058 0.72164 0.18017 0.0
C211 C 0.86896 0.76821 0.20959 0.0
C212 C 0.8482 0.75043 0.22575 0.0
C213 C 0.86302 0.75269 0.21396 0.0
C214 C 0.84511 0.77919 0.22882 0.0
C215 C 0.83906 0.76367 0.23336 0.0
C216 C 0.85992 0.78142 0.21706 0.0
C217 C 0.94155 0.78141 0.15513 0.0
C218 C 0.94087 0.80938 0.14212 0.0
C219 C 0.96635 0.79596 0.1474 0.0
C220 C 0.95833 0.78196 0.15451 0.0
C221 C 0.95774 0.80977 0.14067 0.0
C222 C 0.93282 0.79527 0.14924 0.0
C223 C 0.93374 0.7659 0.16046 0.0
O224 O 0.91075 0.73007 0.19915 0.0
O225 O 0.89954 0.73052 0.16252 0.0
O226 O 0.92095 0.76232 0.14738 0.0
O227 O 0.93253 0.76171 0.18385 0.0
H228 H 0.93721 0.72555 0.1683 0.0
H229 H 0.95593 0.70516 0.15394 0.0
H230 H 0.91826 0.66949 0.15843 0.0
H231 H 0.89953 0.69007 0.17271 0.0
H232 H 0.84384 0.73832 0.22866 0.0
H233 H 0.86985 0.74234 0.20827 0.0
H234 H 0.83854 0.78965 0.23472 0.0
H235 H 0.86436 0.79349 0.21393 0.0
H236 H 0.9339 0.8198 0.13702 0.0
H237 H 0.97934 0.79593 0.147 0.0
H238 H 0.96528 0.7714 0.15905 0.0
H239 H 0.91983 0.79509 0.14964 0.0
C240 C 0.50966 0.62193 0.42462 0.0
C241 C 0.51646 0.63574 0.41393 0.0
C242 C 0.49011 0.64791 0.41035 0.0
C243 C 0.50681 0.64857 0.40689 0.0
C244 C 0.48323 0.63388 0.42047 0.0
C245 C 0.49297 0.62098 0.42769 0.0
U246 U 0.55168 0.60804 0.43012 0.0
O247 O 0.56566 0.59763 0.46072 0.0
O248 O 0.56368 0.58484 0.42548 0.0
C249 C 0.56887 0.5845 0.44844 0.0
C250 C 0.52034 0.60902 0.43314 0.0
C251 C 0.56665 0.56934 0.46219 0.0
C252 C 0.55077 0.54601 0.47433 0.0
C253 C 0.55226 0.56053 0.46126 0.0
C254 C 0.57792 0.54913 0.48953 0.0
C255 C 0.56359 0.54015 0.48867 0.0
C256 C 0.5794 0.56354 0.47644 0.0
C257 C 0.58054 0.64049 0.40149 0.0
C258 C 0.60872 0.6464 0.40903 0.0
C259 C 0.59376 0.66213 0.3792 0.0
C260 C 0.58017 0.65277 0.38374 0.0
C261 C 0.60804 0.65932 0.39223 0.0
C262 C 0.59498 0.63706 0.41378 0.0
C263 C 0.56522 0.63291 0.4084 0.0
O264 O 0.52792 0.60145 0.41543 0.0
O265 O 0.52983 0.61312 0.45143 0.0
O266 O 0.56183 0.63231 0.43211 0.0
O267 O 0.56089 0.61996 0.39639 0.0
H268 H 0.52931 0.63668 0.4113 0.0
H269 H 0.51247 0.65907 0.39874 0.0
H270 H 0.4704 0.63305 0.42341 0.0
H271 H 0.48753 0.61041 0.43593 0.0
H272 H 0.53954 0.53945 0.47341 0.0
H273 H 0.54223 0.56486 0.45043 0.0
H274 H 0.58812 0.54487 0.50002 0.0
H275 H 0.59062 0.57014 0.47732 0.0
H276 H 0.61959 0.64407 0.41937 0.0
H277 H 0.59297 0.67195 0.36604 0.0
H278 H 0.56913 0.6556 0.37412 0.0
H279 H 0.59545 0.62764 0.42763 0.0
C280 C 0.69545 0.30213 0.6678 0.0
C281 C 0.68327 0.29587 0.65278 0.0
C282 C 0.66979 0.32167 0.65209 0.0
C283 C 0.67063 0.30553 0.64494 0.0
C284 C 0.68221 0.32803 0.66677 0.0
C285 C 0.69493 0.3183 0.67463 0.0
U286 U 0.70901 0.26003 0.67653 0.0
O287 O 0.73217 0.24792 0.67127 0.0
O288 O 0.72025 0.24711 0.7075 0.0
C289 C 0.73307 0.24346 0.69458 0.0
C290 C 0.70808 0.2914 0.67713 0.0
C291 C 0.74871 0.24591 0.70676 0.0
C292 C 0.76688 0.26099 0.73319 0.0
C293 C 0.75215 0.2596 0.72079 0.0
C294 C 0.77491 0.23523 0.71715 0.0
C295 C 0.77835 0.24868 0.73179 0.0
C296 C 0.76026 0.23387 0.70483 0.0
C297 C 0.67724 0.22979 0.65077 0.0
C298 C 0.6702 0.20238 0.66214 0.0
C299 C 0.65881 0.21446 0.62534 0.0
C300 C 0.66745 0.2285 0.62985 0.0
C301 C 0.65978 0.20131 0.64169 0.0
C302 C 0.67885 0.21651 0.66667 0.0
C303 C 0.68416 0.2456 0.65653 0.0
O304 O 0.70376 0.28244 0.6961 0.0
O305 O 0.71568 0.2833 0.66001 0.0
O306 O 0.69681 0.25016 0.64376 0.0
O307 O 0.68488 0.24955 0.67998 0.0
H308 H 0.68343 0.2834 0.64735 0.0
H309 H 0.66145 0.3003 0.6333 0.0
H310 H 0.68186 0.34038 0.67273 0.0
H311 H 0.70419 0.3233 0.68635 0.0
H312 H 0.76912 0.27148 0.74437 0.0
H313 H 0.74338 0.26907 0.72246 0.0
H314 H 0.78356 0.22569 0.71521 0.0
H315 H 0.75787 0.22326 0.69397 0.0
H316 H 0.6714 0.19242 0.67494 0.0
H317 H 0.65075 0.21425 0.60967 0.0
H318 H 0.66596 0.23865 0.61746 0.0
H319 H 0.68638 0.21724 0.68293 0.0
C320 C 0.4181 0.20976 0.67293 0.0
C321 C 0.43394 0.2139 0.66674 0.0
C322 C 0.43943 0.18631 0.65499 0.0
C323 C 0.44451 0.2023 0.65797 0.0
C324 C 0.42352 0.18222 0.66132 0.0
C325 C 0.41296 0.19385 0.67021 0.0
U326 U 0.40792 0.25351 0.67877 0.0
O327 O 0.38529 0.26658 0.67343 0.0
O328 O 0.39766 0.26747 0.70919 0.0
C329 C 0.38472 0.27125 0.69657 0.0
C330 C 0.40686 0.22211 0.68144 0.0
C331 C 0.36934 0.26854 0.70937 0.0
C332 C 0.35054 0.25116 0.73131 0.0
C333 C 0.36516 0.25341 0.71894 0.0
C334 C 0.34408 0.2791 0.72449 0.0
C335 C 0.33981 0.264 0.7343 0.0
C336 C 0.35869 0.28133 0.71217 0.0
C337 C 0.4404 0.28184 0.65018 0.0
C338 C 0.4398 0.31089 0.64618 0.0
C339 C 0.46276 0.29608 0.63136 0.0
C340 C 0.45555 0.28178 0.63903 0.0
C341 C 0.45495 0.31082 0.6346 0.0
C342 C 0.43254 0.29646 0.65386 0.0
C343 C 0.43321 0.26635 0.65722 0.0
O344 O 0.41212 0.23116 0.69954 0.0
O345 O 0.39989 0.23037 0.66371 0.0
O346 O 0.42021 0.26209 0.64518 0.0
O347 O 0.43256 0.26303 0.68098 0.0
H348 H 0.43812 0.22615 0.66862 0.0
H349 H 0.45671 0.20587 0.65369 0.0
H350 H 0.41912 0.1701 0.65898 0.0
H351 H 0.40074 0.19046 0.67472 0.0
H352 H 0.34776 0.23941 0.73884 0.0
H353 H 0.37325 0.24338 0.71695 0.0
H354 H 0.33604 0.28919 0.72608 0.0
H355 H 0.36168 0.29308 0.70481 0.0
H356 H 0.43346 0.32203 0.64888 0.0
H357 H 0.47456 0.29559 0.62302 0.0
H358 H 0.46181 0.2706 0.63616 0.0
H359 H 0.42081 0.29669 0.66247 0.0
C360 C 0.19797 0.80304 0.16939 0.0
C361 C 0.18488 0.79776 0.1553 0.0
C362 C 0.17424 0.82487 0.15358 0.0
C363 C 0.17316 0.80854 0.14745 0.0
C364 C 0.18747 0.83014 0.1676 0.0
C365 C 0.19925 0.8193 0.17542 0.0
U366 U 0.20938 0.75999 0.17711 0.0
O367 O 0.23217 0.74712 0.17252 0.0
O368 O 0.21965 0.7464 0.20823 0.0
C369 C 0.23255 0.74242 0.19576 0.0
C370 C 0.20982 0.79139 0.17845 0.0
C371 C 0.24795 0.7445 0.20868 0.0
C372 C 0.26814 0.76103 0.22886 0.0
C373 C 0.25355 0.75962 0.21607 0.0
C374 C 0.27162 0.73228 0.22672 0.0
C375 C 0.27727 0.74733 0.23454 0.0
C376 C 0.25713 0.7309 0.21396 0.0
C377 C 0.17703 0.73091 0.15049 0.0
C378 C 0.17002 0.70342 0.16144 0.0
C379 C 0.15812 0.71594 0.12538 0.0
C380 C 0.16689 0.7299 0.12992 0.0
C381 C 0.1593 0.7026 0.14134 0.0
C382 C 0.17881 0.71747 0.166 0.0
C383 C 0.18426 0.74657 0.15631 0.0
O384 O 0.20486 0.78242 0.19703 0.0
O385 O 0.21706 0.78313 0.16115 0.0
O386 O 0.19721 0.75071 0.14391 0.0
O387 O 0.18483 0.7505 0.17977 0.0
H388 H 0.18361 0.7852 0.15066 0.0
H389 H 0.16302 0.80399 0.13709 0.0
H390 H 0.18872 0.84265 0.17249 0.0
H391 H 0.20925 0.82358 0.18635 0.0
H392 H 0.2721 0.77278 0.23472 0.0
H393 H 0.2466 0.77026 0.21212 0.0
H394 H 0.27846 0.72152 0.23031 0.0
H395 H 0.25304 0.71914 0.20828 0.0
H396 H 0.17138 0.69332 0.17393 0.0
H397 H 0.14983 0.71591 0.10998 0.0
H398 H 0.16528 0.74018 0.11784 0.0
H399 H 0.18662 0.71798 0.18197 0.0
C400 C 0.19504 0.30477 0.84508 0.0
C401 C 0.18044 0.29827 0.85341 0.0
C402 C 0.1695 0.32504 0.85847 0.0
C403 C 0.1678 0.30829 0.86 0.0
C404 C 0.18429 0.33154 0.85063 0.0
C405 C 0.19696 0.32146 0.8439 0.0
U406 U 0.20962 0.26263 0.84008 0.0
O407 O 0.2214 0.24942 0.81019 0.0
O408 O 0.2331 0.25133 0.84639 0.0
C409 C 0.2343 0.24648 0.8234 0.0
C410 C 0.20801 0.29397 0.8374 0.0
C411 C 0.24975 0.24967 0.81106 0.0
C412 C 0.26824 0.2674 0.78913 0.0
C413 C 0.25362 0.26487 0.80144 0.0
C414 C 0.27527 0.23962 0.79618 0.0
C415 C 0.27921 0.25476 0.78621 0.0
C416 C 0.26069 0.23712 0.80845 0.0
C417 C 0.17842 0.23188 0.86645 0.0
C418 C 0.17258 0.20411 0.85628 0.0
C419 C 0.16013 0.21621 0.89198 0.0
C420 C 0.16832 0.2305 0.88705 0.0
C421 C 0.16186 0.20291 0.87638 0.0
C422 C 0.18079 0.21849 0.85133 0.0
C423 C 0.1849 0.24784 0.86014 0.0
O424 O 0.21523 0.28635 0.85556 0.0
O425 O 0.20431 0.28455 0.81887 0.0
O426 O 0.18579 0.25156 0.83653 0.0
O427 O 0.19726 0.25289 0.87302 0.0
H428 H 0.17877 0.2854 0.85463 0.0
H429 H 0.15668 0.30289 0.86635 0.0
H430 H 0.18594 0.34439 0.84913 0.0
H431 H 0.20817 0.32668 0.83755 0.0
H432 H 0.2708 0.27917 0.78151 0.0
H433 H 0.24529 0.27471 0.80326 0.0
H434 H 0.28351 0.22968 0.79467 0.0
H435 H 0.25793 0.22532 0.81583 0.0
H436 H 0.17435 0.19406 0.84406 0.0
H437 H 0.15181 0.2159 0.90735 0.0
H438 H 0.16626 0.24073 0.89884 0.0
H439 H 0.18858 0.2193 0.83533 0.0
C440 C 0.41898 0.80602 0.34568 0.0
C441 C 0.4347 0.80148 0.35173 0.0
C442 C 0.44137 0.82904 0.36244 0.0
C443 C 0.44579 0.81288 0.35995 0.0
C444 C 0.42555 0.8335 0.35652 0.0
C445 C 0.41447 0.82208 0.34816 0.0
U446 U 0.40803 0.7625 0.33847 0.0
O447 O 0.3854 0.74921 0.34379 0.0
O448 O 0.39737 0.7491 0.30763 0.0
C449 C 0.38474 0.74468 0.32059 0.0
C450 C 0.40732 0.79392 0.3372 0.0
C451 C 0.3691 0.74634 0.30823 0.0
C452 C 0.34663 0.76224 0.29338 0.0
C453 C 0.36169 0.76127 0.3049 0.0
C454 C 0.34642 0.73343 0.28833 0.0
C455 C 0.33875 0.74829 0.28515 0.0
C456 C 0.3614 0.73249 0.29974 0.0
C457 C 0.4403 0.73319 0.36391 0.0
C458 C 0.43822 0.70577 0.37934 0.0
C459 C 0.46427 0.71723 0.36977 0.0
C460 C 0.45697 0.73151 0.36249 0.0
C461 C 0.45504 0.70429 0.37877 0.0
C462 C 0.4309 0.72014 0.37201 0.0
C463 C 0.43338 0.74903 0.35835 0.0
O464 O 0.41211 0.7852 0.31847 0.0
O465 O 0.40053 0.78537 0.35486 0.0
O466 O 0.42068 0.75321 0.37113 0.0
O467 O 0.4326 0.75317 0.3349 0.0
H468 H 0.43837 0.7891 0.35017 0.0
H469 H 0.45778 0.80898 0.3647 0.0
H470 H 0.4218 0.84586 0.35805 0.0
H471 H 0.40238 0.82578 0.34363 0.0
H472 H 0.34104 0.77386 0.29134 0.0
H473 H 0.3675 0.77211 0.31133 0.0
H474 H 0.34088 0.72248 0.2818 0.0
H475 H 0.36698 0.72087 0.30201 0.0
H476 H 0.43079 0.69603 0.38621 0.0
H477 H 0.4772 0.71639 0.36856 0.0
H478 H 0.46443 0.74141 0.35622 0.0
H479 H 0.41797 0.72117 0.37321 0.0
C480 C 0.50729 0.11689 0.60099 0.0
C481 C 0.51188 0.13276 0.60584 0.0
C482 C 0.48456 0.13922 0.61811 0.0
C483 C 0.50063 0.14383 0.61421 0.0
C484 C 0.48003 0.12325 0.61342 0.0
C485 C 0.49131 0.11219 0.60488 0.0
U486 U 0.55071 0.1057 0.59351 0.0
O487 O 0.5635 0.0829 0.59917 0.0
O488 O 0.56407 0.09489 0.56289 0.0
C489 C 0.56789 0.08208 0.57588 0.0
C490 C 0.51925 0.10521 0.5925 0.0
C491 C 0.5657 0.0664 0.56375 0.0
C492 C 0.55378 0.0494 0.53218 0.0
C493 C 0.55451 0.06406 0.54466 0.0
C494 C 0.57499 0.03908 0.55825 0.0
C495 C 0.56421 0.0368 0.53855 0.0
C496 C 0.57574 0.05371 0.57062 0.0
C497 C 0.58032 0.13787 0.61893 0.0
C498 C 0.60839 0.1429 0.60911 0.0
C499 C 0.59583 0.15683 0.64307 0.0
C500 C 0.58147 0.14873 0.63844 0.0
C501 C 0.60944 0.15422 0.62827 0.0
C502 C 0.59393 0.13478 0.60448 0.0
C503 C 0.56447 0.13092 0.6133 0.0
O504 O 0.52809 0.10995 0.57366 0.0
O505 O 0.52765 0.09837 0.61015 0.0
O506 O 0.56017 0.11821 0.6262 0.0
O507 O 0.56048 0.1301 0.58984 0.0
H508 H 0.52422 0.13658 0.60324 0.0
H509 H 0.50457 0.15595 0.61801 0.0
H510 H 0.46774 0.11936 0.61606 0.0
H511 H 0.48756 0.09997 0.60134 0.0
H512 H 0.5454 0.04812 0.51703 0.0
H513 H 0.54659 0.07366 0.53902 0.0
H514 H 0.58298 0.02957 0.56402 0.0
H515 H 0.58442 0.05521 0.58534 0.0
H516 H 0.61867 0.14048 0.59751 0.0
H517 H 0.59603 0.16564 0.65766 0.0
H518 H 0.57106 0.15134 0.64971 0.0
H519 H 0.5933 0.12638 0.58933 0.0
C520 C 0.01512 0.89111 0.09544 0.0
C521 C 0.02177 0.8764 0.10262 0.0
C522 C 0.99508 0.86518 0.10928 0.0
C523 C 0.01187 0.86357 0.10943 0.0
C524 C 0.98844 0.88004 0.10242 0.0
C525 C 0.99841 0.89291 0.09548 0.0
U526 U 0.05707 0.90722 0.09084 0.0
O527 O 0.06996 0.92042 0.06161 0.0
O528 O 0.06759 0.93096 0.09854 0.0
C529 C 0.07242 0.93303 0.07559 0.0
C530 C 0.02576 0.90446 0.08816 0.0
C531 C 0.06928 0.94889 0.06433 0.0
C532 C 0.05668 0.966 0.03333 0.0
C533 C 0.05822 0.95101 0.04499 0.0
C534 C 0.07681 0.97698 0.06074 0.0
C535 C 0.06619 0.9791 0.04079 0.0
C536 C 0.07835 0.96205 0.0723 0.0
C537 C 0.08942 0.87784 0.11604 0.0
C538 C 0.11648 0.8703 0.10393 0.0
C539 C 0.10739 0.86536 0.14582 0.0
C540 C 0.09256 0.87212 0.13999 0.0
C541 C 0.11944 0.86409 0.12776 0.0
C542 C 0.10162 0.87713 0.09812 0.0
C543 C 0.07295 0.88299 0.10991 0.0
O544 O 0.03313 0.91157 0.10658 0.0
O545 O 0.03537 0.9014 0.06953 0.0
O546 O 0.06916 0.88409 0.08636 0.0
O547 O 0.06696 0.8946 0.1233 0.0
H548 H 0.03467 0.87484 0.10293 0.0
H549 H 0.01739 0.85241 0.11505 0.0
H550 H 0.97556 0.88164 0.102 0.0
H551 H 0.99308 0.90421 0.09007 0.0
H552 H 0.04843 0.96718 0.01798 0.0
H553 H 0.05104 0.94103 0.03852 0.0
H554 H 0.08408 0.98686 0.06731 0.0
H555 H 0.08691 0.9607 0.08723 0.0
H556 H 0.12557 0.86967 0.08967 0.0
H557 H 0.10915 0.86051 0.16424 0.0
H558 H 0.0833 0.8724 0.15406 0.0
H559 H 0.09956 0.88145 0.07948 0.0
C560 C 0.51145 0.89692 0.41673 0.0
C561 C 0.51565 0.88098 0.41198 0.0
C562 C 0.48831 0.87505 0.39864 0.0
C563 C 0.5042 0.87014 0.40312 0.0
C564 C 0.4842 0.89109 0.40341 0.0
C565 C 0.49567 0.9019 0.41238 0.0
U566 U 0.55499 0.9082 0.42719 0.0
O567 O 0.56784 0.93119 0.42227 0.0
O568 O 0.56712 0.91944 0.45873 0.0
C569 C 0.57136 0.93222 0.44589 0.0
C570 C 0.52351 0.90842 0.42577 0.0
C571 C 0.56859 0.94791 0.45759 0.0
C572 C 0.55465 0.96503 0.48681 0.0
C573 C 0.55604 0.95036 0.47449 0.0
C574 C 0.57797 0.97511 0.46489 0.0
C575 C 0.56578 0.9775 0.48247 0.0
C576 C 0.57937 0.96048 0.45267 0.0
C577 C 0.58631 0.87683 0.40575 0.0
C578 C 0.6131 0.87853 0.38785 0.0
C579 C 0.60439 0.8541 0.40834 0.0
C580 C 0.5896 0.86112 0.4135 0.0
C581 C 0.61627 0.86263 0.39516 0.0
C582 C 0.59827 0.88558 0.39313 0.0
C583 C 0.56994 0.88315 0.40941 0.0
O584 O 0.53173 0.90371 0.44522 0.0
O585 O 0.53254 0.91508 0.40859 0.0
O586 O 0.56568 0.89553 0.3958 0.0
O587 O 0.56484 0.88394 0.43236 0.0
H588 H 0.5278 0.87691 0.41516 0.0
H589 H 0.50777 0.85786 0.40003 0.0
H590 H 0.47218 0.89537 0.39987 0.0
H591 H 0.49224 0.9142 0.41578 0.0
H592 H 0.54517 0.96639 0.5003 0.0
H593 H 0.54754 0.94085 0.47857 0.0
H594 H 0.58656 0.98452 0.46068 0.0
H595 H 0.5891 0.95888 0.43965 0.0
H596 H 0.62204 0.88548 0.3779 0.0
H597 H 0.6063 0.84177 0.41393 0.0
H598 H 0.58052 0.85407 0.42304 0.0
H599 H 0.59609 0.89775 0.38694 0.0
C600 C 0.01025 0.12169 0.92048 0.0
C601 C 0.01623 0.13385 0.90493 0.0
C602 C 0.98983 0.14616 0.9029 0.0
C603 C 1.00614 0.14593 0.89621 0.0
C604 C 0.98385 0.13387 0.91841 0.0
C605 C 0.99399 0.12172 0.92711 0.0
U606 U 0.05268 0.10861 0.92922 0.0
O607 O 0.06572 0.0988 0.96131 0.0
O608 O 0.06475 0.08533 0.92658 0.0
C609 C 0.06915 0.08538 0.94993 0.0
C610 C 0.02126 0.10955 0.93053 0.0
C611 C 0.06664 0.0704 0.96424 0.0
C612 C 0.05492 0.04377 0.96949 0.0
C613 C 0.05581 0.05843 0.95668 0.0
C614 C 0.07525 0.05307 0.99798 0.0
C615 C 0.06486 0.04081 0.99004 0.0
C616 C 0.07616 0.06765 0.98518 0.0
C617 C 0.0832 0.13892 0.90035 0.0
C618 C 0.11119 0.14398 0.91041 0.0
C619 C 0.09908 0.15718 0.87509 0.0
C620 C 0.08463 0.14926 0.87998 0.0
C621 C 0.11249 0.1549 0.8905 0.0
C622 C 0.09665 0.13605 0.91531 0.0
C623 C 0.06719 0.13255 0.90652 0.0
O624 O 0.02929 0.10145 0.91387 0.0
O625 O 0.03035 0.11462 0.94873 0.0
O626 O 0.06309 0.13281 0.92997 0.0
O627 O 0.06263 0.11943 0.89516 0.0
H628 H 0.0288 0.13414 0.89983 0.0
H629 H 0.01124 0.15534 0.88472 0.0
H630 H 0.97134 0.13363 0.92378 0.0
H631 H 0.9892 0.11246 0.9392 0.0
H632 H 0.04684 0.03458 0.96279 0.0
H633 H 0.0483 0.06023 0.94058 0.0
H634 H 0.08284 0.05136 0.014 0.0
H635 H 0.08457 0.07671 0.99139 0.0
H636 H 0.12131 0.1418 0.92248 0.0
H637 H 0.09947 0.16568 0.85988 0.0
H638 H 0.07435 0.1517 0.86831 0.0
H639 H 0.09578 0.12806 0.93113 0.0
C640 C 0.14086 0.68133 0.15857 0.0
C641 C 0.14834 0.68859 0.13802 0.0
H642 H 0.12294 0.66487 0.17161 0.0
C643 C 0.14405 0.68338 0.11423 0.0
H644 H 0.14376 0.68506 0.17717 0.0
C645 C 0.13188 0.67198 0.11102 0.0
C646 C 0.12372 0.66545 0.13154 0.0
H647 H 0.14976 0.68849 0.09798 0.0
H648 H 0.12833 0.66892 0.09239 0.0
C649 C 0.12874 0.66988 0.15537 0.0
C650 C 0.65263 0.8354 0.39759 0.0
C651 C 0.65872 0.83681 0.37341 0.0
H652 H 0.63475 0.84265 0.42355 0.0
C653 C 0.65143 0.8477 0.357 0.0
H654 H 0.65815 0.82737 0.41086 0.0
C655 C 0.63799 0.8565 0.36431 0.0
C656 C 0.63153 0.8546 0.38819 0.0
H657 H 0.6557 0.84897 0.33818 0.0
H658 H 0.63228 0.86429 0.3509 0.0
C659 C 0.63922 0.84418 0.40487 0.0
C660 C 0.46286 0.3398 0.64037 0.0
C661 C 0.46281 0.32589 0.62582 0.0
H662 H 0.47205 0.36368 0.64499 0.0
C663 C 0.47115 0.32614 0.60322 0.0
H664 H 0.45663 0.33998 0.65793 0.0
C665 C 0.47999 0.33961 0.59592 0.0
C666 C 0.48067 0.35325 0.61095 0.0
H667 H 0.47104 0.31579 0.59126 0.0
H668 H 0.48649 0.33928 0.57859 0.0
C669 C 0.4717 0.35336 0.63298 0.0
C670 C 0.97234 0.17933 0.86289 0.0
C671 C 0.96191 0.18696 0.87942 0.0
H672 H 0.989 0.16031 0.85709 0.0
C673 C 0.95983 0.18034 0.9032 0.0
H674 H 0.97399 0.18394 0.84429 0.0
C675 C 0.96848 0.16678 0.91058 0.0
C676 C 0.9794 0.15954 0.89435 0.0
H677 H 0.95201 0.18601 0.91648 0.0
H678 H 0.96709 0.16239 0.92935 0.0
C679 C 0.98095 0.16579 0.87024 0.0
C680 C 0.12703 0.34095 0.86221 0.0
C681 C 0.12892 0.35472 0.87675 0.0
H682 H 0.13827 0.321 0.84487 0.0
C683 C 0.1444 0.35887 0.88497 0.0
H684 H 0.11527 0.33726 0.85583 0.0
C685 C 0.15765 0.34942 0.87877 0.0
C686 C 0.15566 0.33554 0.86446 0.0
H687 H 0.14627 0.36945 0.89609 0.0
H688 H 0.16939 0.3528 0.88557 0.0
C689 C 0.14021 0.3315 0.85616 0.0
C690 C 0.97128 0.8531 0.13164 0.0
C691 C 0.9847 0.85127 0.11615 0.0
H692 H 0.9523 0.84141 0.1518 0.0
C693 C 0.98855 0.83586 0.10779 0.0
H694 H 0.96806 0.8648 0.13851 0.0
C695 C 0.97958 0.82254 0.11537 0.0
C696 C 0.96651 0.82424 0.13155 0.0
H697 H 0.99857 0.83406 0.09538 0.0
H698 H 0.98293 0.81085 0.10856 0.0
C699 C 0.96227 0.83971 0.13927 0.0
C700 C 0.47719 0.69107 0.40246 0.0
C701 C 0.46317 0.68962 0.38822 0.0
H702 H 0.49642 0.67912 0.4209 0.0
C703 C 0.45738 0.67418 0.38271 0.0
H704 H 0.48175 0.70275 0.40764 0.0
C705 C 0.46582 0.66053 0.39046 0.0
C706 C 0.48021 0.6621 0.40382 0.0
H707 H 0.44663 0.67265 0.37173 0.0
H708 H 0.4614 0.64881 0.38528 0.0
C709 C 0.48559 0.67752 0.41012 0.0
C710 C 0.62898 0.16881 0.65571 0.0
C711 C 0.62413 0.16422 0.63186 0.0
H712 H 0.64386 0.18409 0.67753 0.0
C713 C 0.63253 0.17051 0.6114 0.0
H714 H 0.623 0.16398 0.67192 0.0
C715 C 0.64476 0.18185 0.61465 0.0
C716 C 0.64884 0.18727 0.63842 0.0
H717 H 0.62913 0.16732 0.59275 0.0
H718 H 0.65065 0.18678 0.59843 0.0
C719 C 0.64113 0.18021 0.65895 0.0
C720 C 0.98099 0.35275 0.87518 0.0
C721 C 0.9768 0.36375 0.89366 0.0
H722 H 0.9734 0.3335 0.85194 0.0
C723 C 0.96098 0.36349 0.9028 0.0
H724 H 0.99294 0.35279 0.8673 0.0
C725 C 0.94972 0.35247 0.8938 0.0
C726 C 0.95401 0.34138 0.87555 0.0
H727 H 0.95735 0.37161 0.91726 0.0
H728 H 0.93773 0.35242 0.90153 0.0
C729 C 0.96977 0.3417 0.8663 0.0
C730 C 0.46152 0.14694 0.64565 0.0
C731 C 0.47265 0.15108 0.6271 0.0
H732 H 0.44257 0.15479 0.66933 0.0
C733 C 0.47252 0.16677 0.61746 0.0
H734 H 0.46142 0.13501 0.65367 0.0
C735 C 0.46167 0.17808 0.6263 0.0
C736 C 0.45069 0.17405 0.64515 0.0
H737 H 0.48075 0.17028 0.60287 0.0
H738 H 0.46181 0.18998 0.61818 0.0
C739 C 0.4507 0.15829 0.6546 0.0
C740 C 0.63704 0.66611 0.38362 0.0
C741 C 0.62144 0.67095 0.38991 0.0
H742 H 0.66116 0.67364 0.37509 0.0
C743 C 0.6184 0.68729 0.39347 0.0
H744 H 0.63964 0.65356 0.38074 0.0
C745 C 0.63059 0.69862 0.39059 0.0
C746 C 0.64613 0.69393 0.38382 0.0
H747 H 0.6065 0.69132 0.39847 0.0
H748 H 0.62776 0.71116 0.39313 0.0
C749 C 0.64927 0.67756 0.38031 0.0
C750 C 0.14212 0.85696 0.15652 0.0
C751 C 0.13454 0.85532 0.13343 0.0
H752 H 0.16052 0.84866 0.181 0.0
C753 C 0.14088 0.84439 0.1164 0.0
H754 H 0.13766 0.8654 0.16996 0.0
C755 C 0.15406 0.8349 0.12265 0.0
C756 C 0.16126 0.8361 0.14608 0.0
H757 H 0.13528 0.84271 0.09855 0.0
H758 H 0.15845 0.82641 0.10924 0.0
C759 C 0.15533 0.84748 0.16275 0.0
C760 C 0.97682 0.66163 0.14721 0.0
C761 C 0.97241 0.65052 0.12896 0.0
H762 H 0.96963 0.68122 0.16993 0.0
C763 C 0.95659 0.65079 0.11989 0.0
H764 H 0.98877 0.66158 0.15504 0.0
C765 C 0.94556 0.66203 0.1286 0.0
C766 C 0.95009 0.6733 0.1465 0.0
H767 H 0.95281 0.64257 0.10562 0.0
H768 H 0.93358 0.66213 0.12086 0.0
C769 C 0.96583 0.67289 0.15581 0.0
C770 C 0.13507 0.17172 0.90728 0.0
C771 C 0.12713 0.165 0.88687 0.0
H772 H 0.15256 0.18858 0.92003 0.0
C773 C 0.13227 0.16938 0.86296 0.0
H774 H 0.13143 0.16871 0.92597 0.0
C775 C 0.14419 0.18104 0.85955 0.0
C776 C 0.15136 0.18855 0.87997 0.0
H777 H 0.12666 0.16422 0.8468 0.0
H778 H 0.14712 0.18478 0.84087 0.0
C779 C 0.14707 0.1833 0.90387 0.0
C780 C 0.64024 0.32474 0.64522 0.0
C781 C 0.6557 0.33152 0.64473 0.0
H782 H 0.61526 0.32788 0.63807 0.0
C783 C 0.65751 0.34752 0.63674 0.0
H784 H 0.63833 0.3126 0.65185 0.0
C785 C 0.64417 0.35636 0.62882 0.0
C786 C 0.62878 0.34935 0.62869 0.0
H787 H 0.66927 0.35308 0.63603 0.0
H788 H 0.64595 0.36852 0.62224 0.0
C789 C 0.62698 0.33351 0.6373 0.0
C790 C 0.44886 0.85274 0.38866 0.0
C791 C 0.45324 0.8411 0.37128 0.0
H792 H 0.45646 0.8723 0.41128 0.0
C793 C 0.46916 0.84091 0.36268 0.0
H794 H 0.43675 0.8531 0.3959 0.0
C795 C 0.48044 0.85197 0.37137 0.0
C796 C 0.47615 0.86349 0.38901 0.0
H797 H 0.47287 0.83227 0.34899 0.0
H798 H 0.49252 0.85157 0.36405 0.0
C799 C 0.46018 0.86377 0.39745 0.0
C800 C 0.05093 0.5149 0.01633 0.0
C801 C 0.06513 0.52205 0.02517 0.0
H802 H 0.04034 0.49556 0.99604 0.0
C803 C 0.07984 0.51457 0.02007 0.0
H804 H 0.03939 0.52025 0.02006 0.0
C805 C 0.08036 0.50038 1.00657 0.0
C806 C 0.06621 0.49325 0.99762 0.0
H807 H 0.09104 0.5198 0.02624 0.0
H808 H 0.09193 0.49493 1.0033 0.0
C809 C 0.05147 0.50065 1.00278 0.0
C810 C 0.80662 0.74695 0.27603 0.0
C811 C 0.79354 0.757 0.27074 0.0
H812 H 0.83118 0.74128 0.26874 0.0
C813 C 0.79557 0.76928 0.25306 0.0
H814 H 0.80559 0.73754 0.28983 0.0
C815 C 0.81028 0.77141 0.24092 0.0
C816 C 0.82334 0.76133 0.24616 0.0
H817 H 0.7857 0.77709 0.24825 0.0
H818 H 0.81132 0.78083 0.22712 0.0
C819 C 0.82132 0.74909 0.2639 0.0
C820 C 0.55559 0.49618 0.50365 0.0
C821 C 0.56275 0.49457 0.52708 0.0
H822 H 0.55033 0.51177 0.47305 0.0
C823 C 0.56909 0.50832 0.53842 0.0
H824 H 0.55071 0.48582 0.49428 0.0
C825 C 0.5689 0.52315 0.52626 0.0
C826 C 0.56234 0.52465 0.50242 0.0
H827 H 0.57438 0.5076 0.55667 0.0
H828 H 0.57405 0.53344 0.53547 0.0
C829 C 0.55538 0.51106 0.49146 0.0
C830 C 0.81451 0.23597 0.76963 0.0
C831 C 0.82379 0.25007 0.77033 0.0
H832 H 0.79293 0.22458 0.75748 0.0
C833 C 0.8176 0.26407 0.75933 0.0
H834 H 0.81869 0.22507 0.77843 0.0
C835 C 0.80271 0.26379 0.74722 0.0
C836 C 0.79372 0.2495 0.74585 0.0
H837 H 0.82447 0.27512 0.75944 0.0
H838 H 0.79848 0.27463 0.7383 0.0
C839 C 0.79971 0.23569 0.75759 0.0
C840 C 0.31833 0.27352 0.76349 0.0
C841 C 0.32425 0.26167 0.74755 0.0
H842 H 0.29968 0.28059 0.78834 0.0
C843 C 0.31514 0.24761 0.74431 0.0
H844 H 0.32512 0.2844 0.76673 0.0
C845 C 0.30055 0.24543 0.75673 0.0
C846 C 0.29466 0.25724 0.77274 0.0
H847 H 0.31916 0.23835 0.73187 0.0
H848 H 0.29377 0.23454 0.7535 0.0
C849 C 0.30372 0.27134 0.7759 0.0
C850 C 0.31099 0.73719 0.27905 0.0
C851 C 0.32258 0.74897 0.27341 0.0
H852 H 0.28766 0.72763 0.27167 0.0
C853 C 0.31874 0.7609 0.25589 0.0
H854 H 0.31336 0.72804 0.29286 0.0
C855 C 0.3039 0.76066 0.24366 0.0
C856 C 0.29259 0.74849 0.24869 0.0
H857 H 0.32742 0.7701 0.25101 0.0
H858 H 0.30152 0.76969 0.22968 0.0
C859 C 0.29623 0.73695 0.26687 0.0
C860 C 0.57942 0.99994 0.50514 0.0
C861 C 0.56516 0.99271 0.4968 0.0
H862 H 0.59032 0.01945 0.52432 0.0
C863 C 0.55046 1.00009 0.50242 0.0
H864 H 0.59094 0.99452 0.50151 0.0
C865 C 0.55009 0.01438 0.5159 0.0
C866 C 0.56439 0.02158 0.52421 0.0
H867 H 0.53925 0.99492 0.49616 0.0
H868 H 0.53858 0.01969 0.52003 0.0
C869 C 0.57904 0.01417 0.51857 0.0
C870 C 0.05068 0.01624 1.00711 0.0
C871 C 0.06497 0.02485 1.00265 0.0
H872 H 0.03977 0.99517 0.0229 0.0
C873 C 0.07956 0.01808 1.01033 0.0
H874 H 0.03921 0.02114 1.00159 0.0
C875 C 0.07988 1.00328 0.0225 0.0
C876 C 0.06561 0.99476 0.02736 0.0
H877 H 0.09084 0.02415 1.00668 0.0
H878 H 0.09139 0.9984 0.02785 0.0
C879 C 0.051 1.00136 0.01933 0.0
loop_
_geom_bond_atom_site_label_1
_geom_bond_atom_site_label_2
_geom_bond_distance
_geom_bond_site_symmetry_2
_ccdc_geom_bond_type
C0 C1 1.264 . S
C0 C5 1.479 1_455 S
C0 C10 1.465 . S
C1 C0 1.264 . S
C1 C3 1.339 1_455 S
C1 H28 0.931 . S
C2 C3 1.395 . S
C2 C4 1.320 . S
C3 C1 1.339 1_655 S
C3 C2 1.395 . S
C3 H29 0.929 . S
C4 C2 1.320 . S
C4 C5 1.405 . S
C4 H30 0.930 . S
C5 C0 1.479 1_655 S
C5 C4 1.405 . S
C5 H31 0.931 . S
U6 O7 2.454 . S
U6 O8 2.458 . S
U6 C9 2.984 . S
U6 C10 2.847 . S
U6 C23 2.882 . S
U6 O24 2.441 . S
U6 O25 2.420 . S
U6 O26 2.455 . S
U6 O27 2.449 . S
O7 U6 2.454 . S
O7 C9 1.353 . S
O8 U6 2.458 . S
O8 C9 1.286 . S
C9 U6 2.984 . S
C9 O7 1.353 . S
C9 O8 1.286 . S
C9 C11 1.363 . S
C10 C0 1.465 . S
C10 U6 2.847 . S
C10 O24 1.249 . S
C10 O25 1.202 . S
C11 C9 1.363 . S
C11 C13 1.408 . S
C11 C16 1.342 . S
C12 C13 1.310 . S
C12 C15 1.461 . S
C12 H32 0.932 . S
C13 C11 1.408 . S
C13 C12 1.310 . S
C13 H33 0.930 . S
C14 C15 1.474 . S
C14 C16 1.285 . S
C14 H34 0.929 . S
C15 C12 1.461 . S
C15 C14 1.474 . S
C16 C11 1.342 . S
C16 C14 1.285 . S
C16 H35 0.930 . S
C17 C20 1.424 . S
C17 C22 1.245 . S
C17 C23 1.428 . S
C18 C21 1.260 . S
C18 C22 1.477 . S
C18 H36 0.932 . S
C19 C20 1.384 . S
C19 C21 1.479 . S
C19 H37 0.929 . S
C20 C17 1.424 . S
C20 C19 1.384 . S
C20 H38 0.928 . S
C21 C18 1.260 . S
C21 C19 1.479 . S
C22 C17 1.245 . S
C22 C18 1.477 . S
C22 H39 0.932 . S
C23 U6 2.882 . S
C23 C17 1.428 . S
C23 O26 1.301 . S
C23 O27 1.282 . S
O24 U6 2.441 . S
O24 C10 1.249 . S
O25 U6 2.420 . S
O25 C10 1.202 . S
O26 U6 2.455 . S
O26 C23 1.301 . S
O27 U6 2.449 . S
O27 C23 1.282 . S
H28 C1 0.931 . S
H29 C3 0.929 . S
H30 C4 0.930 . S
H31 C5 0.931 . S
H32 C12 0.932 . S
H33 C13 0.930 . S
H34 C14 0.929 . S
H35 C16 0.930 . S
H36 C18 0.932 . S
H37 C19 0.929 . S
H38 C20 0.928 . S
H39 C22 0.932 . S
C40 C41 1.264 . S
C40 C45 1.479 . S
C40 C50 1.465 . S
C41 C40 1.264 . S
C41 C43 1.339 . S
C41 H68 0.931 . S
C42 C43 1.395 . S
C42 C44 1.320 . S
C43 C41 1.339 . S
C43 C42 1.395 . S
C43 H69 0.929 . S
C44 C42 1.320 . S
C44 C45 1.405 . S
C44 H70 0.930 . S
C45 C40 1.479 . S
C45 C44 1.405 . S
C45 H71 0.931 . S
U46 O47 2.454 . S
U46 O48 2.458 . S
U46 C49 2.984 . S
U46 C50 2.847 . S
U46 C63 2.882 . S
U46 O64 2.441 . S
U46 O65 2.420 . S
U46 O66 2.455 . S
U46 O67 2.449 . S
O47 U46 2.454 . S
O47 C49 1.353 . S
O48 U46 2.458 . S
O48 C49 1.286 . S
C49 U46 2.984 . S
C49 O47 1.353 . S
C49 O48 1.286 . S
C49 C51 1.363 . S
C50 C40 1.465 . S
C50 U46 2.847 . S
C50 O64 1.249 . S
C50 O65 1.202 . S
C51 C49 1.363 . S
C51 C53 1.408 . S
C51 C56 1.342 . S
C52 C53 1.310 . S
C52 C55 1.461 . S
C52 H72 0.932 . S
C53 C51 1.408 . S
C53 C52 1.310 . S
C53 H73 0.930 . S
C54 C55 1.474 . S
C54 C56 1.285 . S
C54 H74 0.929 . S
C55 C52 1.461 . S
C55 C54 1.474 . S
C56 C51 1.342 . S
C56 C54 1.285 . S
C56 H75 0.930 . S
C57 C60 1.424 . S
C57 C62 1.245 . S
C57 C63 1.428 . S
C58 C61 1.260 . S
C58 C62 1.477 . S
C58 H76 0.932 . S
C59 C60 1.384 . S
C59 C61 1.479 . S
C59 H77 0.929 . S
C60 C57 1.424 . S
C60 C59 1.384 . S
C60 H78 0.928 . S
C61 C58 1.260 . S
C61 C59 1.479 . S
C62 C57 1.245 . S
C62 C58 1.477 . S
C62 H79 0.932 . S
C63 U46 2.882 . S
C63 C57 1.428 . S
C63 O66 1.301 . S
C63 O67 1.282 . S
O64 U46 2.441 . S
O64 C50 1.249 . S
O65 U46 2.420 . S
O65 C50 1.202 . S
O66 U46 2.455 . S
O66 C63 1.301 . S
O67 U46 2.449 . S
O67 C63 1.282 . S
H68 C41 0.931 . S
H69 C43 0.929 . S
H70 C44 0.930 . S
H71 C45 0.931 . S
H72 C52 0.932 . S
H73 C53 0.930 . S
H74 C54 0.929 . S
H75 C56 0.930 . S
H76 C58 0.932 . S
H77 C59 0.929 . S
H78 C60 0.928 . S
H79 C62 0.932 . S
C80 C81 1.264 . S
C80 C85 1.479 . S
C80 C90 1.465 . S
C81 C80 1.264 . S
C81 C83 1.339 . S
C81 H108 0.931 . S
C82 C83 1.395 . S
C82 C84 1.320 . S
C83 C81 1.339 . S
C83 C82 1.395 . S
C83 H109 0.929 . S
C84 C82 1.320 . S
C84 C85 1.405 . S
C84 H110 0.930 . S
C85 C80 1.479 . S
C85 C84 1.405 . S
C85 H111 0.931 . S
U86 O87 2.454 . S
U86 O88 2.458 . S
U86 C89 2.984 . S
U86 C90 2.847 . S
U86 C103 2.882 . S
U86 O104 2.441 . S
U86 O105 2.420 . S
U86 O106 2.455 . S
U86 O107 2.449 . S
O87 U86 2.454 . S
O87 C89 1.353 . S
O88 U86 2.458 . S
O88 C89 1.286 . S
C89 U86 2.984 . S
C89 O87 1.353 . S
C89 O88 1.286 . S
C89 C91 1.363 . S
C90 C80 1.465 . S
C90 U86 2.847 . S
C90 O104 1.249 . S
C90 O105 1.202 . S
C91 C89 1.363 . S
C91 C93 1.408 . S
C91 C96 1.342 . S
C92 C93 1.310 . S
C92 C95 1.461 . S
C92 H112 0.932 . S
C93 C91 1.408 . S
C93 C92 1.310 . S
C93 H113 0.930 . S
C94 C95 1.474 . S
C94 C96 1.285 . S
C94 H114 0.929 . S
C95 C92 1.461 . S
C95 C94 1.474 . S
C96 C91 1.342 . S
C96 C94 1.285 . S
C96 H115 0.930 . S
C97 C100 1.424 . S
C97 C102 1.245 . S
C97 C103 1.428 . S
C98 C101 1.260 . S
C98 C102 1.477 . S
C98 H116 0.932 . S
C99 C100 1.384 . S
C99 C101 1.479 . S
C99 H117 0.929 . S
C100 C97 1.424 . S
C100 C99 1.384 . S
C100 H118 0.928 . S
C101 C98 1.260 . S
C101 C99 1.479 . S
C102 C97 1.245 . S
C102 C98 1.477 . S
C102 H119 0.932 . S
C103 U86 2.882 . S
C103 C97 1.428 . S
C103 O106 1.301 . S
C103 O107 1.282 . S
O104 U86 2.441 . S
O104 C90 1.249 . S
O105 U86 2.420 . S
O105 C90 1.202 . S
O106 U86 2.455 . S
O106 C103 1.301 . S
O107 U86 2.449 . S
O107 C103 1.282 . S
H108 C81 0.931 . S
H109 C83 0.929 . S
H110 C84 0.930 . S
H111 C85 0.931 . S
H112 C92 0.932 . S
H113 C93 0.930 . S
H114 C94 0.929 . S
H115 C96 0.930 . S
H116 C98 0.932 . S
H117 C99 0.929 . S
H118 C100 0.928 . S
H119 C102 0.932 . S
C120 C121 1.264 . S
C120 C125 1.479 . S
C120 C130 1.465 . S
C121 C120 1.264 . S
C121 C123 1.339 . S
C121 H148 0.931 . S
C122 C123 1.395 . S
C122 C124 1.320 . S
C123 C121 1.339 . S
C123 C122 1.395 . S
C123 H149 0.929 . S
C124 C122 1.320 . S
C124 C125 1.405 . S
C124 H150 0.930 . S
C125 C120 1.479 . S
C125 C124 1.405 . S
C125 H151 0.931 . S
U126 O127 2.454 . S
U126 O128 2.458 . S
U126 C129 2.984 . S
U126 C130 2.847 . S
U126 C143 2.882 . S
U126 O144 2.441 . S
U126 O145 2.420 . S
U126 O146 2.455 . S
U126 O147 2.449 . S
O127 U126 2.454 . S
O127 C129 1.353 . S
O128 U126 2.458 . S
O128 C129 1.286 . S
C129 U126 2.984 . S
C129 O127 1.353 . S
C129 O128 1.286 . S
C129 C131 1.363 . S
C130 C120 1.465 . S
C130 U126 2.847 . S
C130 O144 1.249 . S
C130 O145 1.202 . S
C131 C129 1.363 . S
C131 C133 1.408 . S
C131 C136 1.342 . S
C132 C133 1.310 . S
C132 C135 1.461 . S
C132 H152 0.932 . S
C133 C131 1.408 . S
C133 C132 1.310 . S
C133 H153 0.930 . S
C134 C135 1.474 . S
C134 C136 1.285 . S
C134 H154 0.929 . S
C135 C132 1.461 . S
C135 C134 1.474 . S
C136 C131 1.342 . S
C136 C134 1.285 . S
C136 H155 0.930 . S
C137 C140 1.424 . S
C137 C142 1.245 . S
C137 C143 1.428 . S
C138 C141 1.260 . S
C138 C142 1.477 . S
C138 H156 0.932 . S
C139 C140 1.384 . S
C139 C141 1.479 . S
C139 H157 0.929 . S
C140 C137 1.424 . S
C140 C139 1.384 . S
C140 H158 0.928 . S
C141 C138 1.260 . S
C141 C139 1.479 . S
C142 C137 1.245 . S
C142 C138 1.477 . S
C142 H159 0.932 . S
C143 U126 2.882 . S
C143 C137 1.428 . S
C143 O146 1.301 . S
C143 O147 1.282 . S
O144 U126 2.441 . S
O144 C130 1.249 . S
O145 U126 2.420 . S
O145 C130 1.202 . S
O146 U126 2.455 . S
O146 C143 1.301 . S
O147 U126 2.449 . S
O147 C143 1.282 . S
H148 C121 0.931 . S
H149 C123 0.929 . S
H150 C124 0.930 . S
H151 C125 0.931 . S
H152 C132 0.932 . S
H153 C133 0.930 . S
H154 C134 0.929 . S
H155 C136 0.930 . S
H156 C138 0.932 . S
H157 C139 0.929 . S
H158 C140 0.928 . S
H159 C142 0.932 . S
C160 C161 1.264 . S
C160 C165 1.479 1_455 S
C160 C170 1.465 . S
C161 C160 1.264 . S
C161 C163 1.339 1_455 S
C161 H188 0.931 . S
C162 C163 1.395 . S
C162 C164 1.320 . S
C163 C161 1.339 1_655 S
C163 C162 1.395 . S
C163 H189 0.929 . S
C164 C162 1.320 . S
C164 C165 1.405 . S
C164 H190 0.930 . S
C165 C160 1.479 1_655 S
C165 C164 1.405 . S
C165 H191 0.931 . S
U166 O167 2.454 . S
U166 O168 2.458 . S
U166 C169 2.984 . S
U166 C170 2.847 . S
U166 C183 2.882 . S
U166 O184 2.441 . S
U166 O185 2.420 . S
U166 O186 2.455 . S
U166 O187 2.449 . S
O167 U166 2.454 . S
O167 C169 1.353 . S
O168 U166 2.458 . S
O168 C169 1.286 . S
C169 U166 2.984 . S
C169 O167 1.353 . S
C169 O168 1.286 . S
C169 C171 1.363 . S
C170 C160 1.465 . S
C170 U166 2.847 . S
C170 O184 1.249 . S
C170 O185 1.202 . S
C171 C169 1.363 . S
C171 C173 1.408 . S
C171 C176 1.342 . S
C172 C173 1.310 . S
C172 C175 1.461 . S
C172 H192 0.932 . S
C173 C171 1.408 . S
C173 C172 1.310 . S
C173 H193 0.930 . S
C174 C175 1.474 . S
C174 C176 1.285 . S
C174 H194 0.929 . S
C175 C172 1.461 . S
C175 C174 1.474 . S
C176 C171 1.342 . S
C176 C174 1.285 . S
C176 H195 0.930 . S
C177 C180 1.424 . S
C177 C182 1.245 . S
C177 C183 1.428 . S
C178 C181 1.260 . S
C178 C182 1.477 . S
C178 H196 0.932 . S
C179 C180 1.384 . S
C179 C181 1.479 . S
C179 H197 0.929 . S
C180 C177 1.424 . S
C180 C179 1.384 . S
C180 H198 0.928 . S
C181 C178 1.260 . S
C181 C179 1.479 . S
C182 C177 1.245 . S
C182 C178 1.477 . S
C182 H199 0.932 . S
C183 U166 2.882 . S
C183 C177 1.428 . S
C183 O186 1.301 . S
C183 O187 1.282 . S
O184 U166 2.441 . S
O184 C170 1.249 . S
O185 U166 2.420 . S
O185 C170 1.202 . S
O186 U166 2.455 . S
O186 C183 1.301 . S
O187 U166 2.449 . S
O187 C183 1.282 . S
H188 C161 0.931 . S
H189 C163 0.929 . S
H190 C164 0.930 . S
H191 C165 0.931 . S
H192 C172 0.932 . S
H193 C173 0.930 . S
H194 C174 0.929 . S
H195 C176 0.930 . S
H196 C178 0.932 . S
H197 C179 0.929 . S
H198 C180 0.928 . S
H199 C182 0.932 . S
C200 C201 1.264 . S
C200 C205 1.479 . S
C200 C210 1.465 . S
C201 C200 1.264 . S
C201 C203 1.339 . S
C201 H228 0.931 . S
C202 C203 1.395 . S
C202 C204 1.320 . S
C203 C201 1.339 . S
C203 C202 1.395 . S
C203 H229 0.929 . S
C204 C202 1.320 . S
C204 C205 1.405 . S
C204 H230 0.930 . S
C205 C200 1.479 . S
C205 C204 1.405 . S
C205 H231 0.931 . S
U206 O207 2.454 . S
U206 O208 2.458 . S
U206 C209 2.984 . S
U206 C210 2.847 . S
U206 C223 2.882 . S
U206 O224 2.441 . S
U206 O225 2.420 . S
U206 O226 2.455 . S
U206 O227 2.449 . S
O207 U206 2.454 . S
O207 C209 1.353 . S
O208 U206 2.458 . S
O208 C209 1.286 . S
C209 U206 2.984 . S
C209 O207 1.353 . S
C209 O208 1.286 . S
C209 C211 1.363 . S
C210 C200 1.465 . S
C210 U206 2.847 . S
C210 O224 1.249 . S
C210 O225 1.202 . S
C211 C209 1.363 . S
C211 C213 1.408 . S
C211 C216 1.342 . S
C212 C213 1.310 . S
C212 C215 1.461 . S
C212 H232 0.932 . S
C213 C211 1.408 . S
C213 C212 1.310 . S
C213 H233 0.930 . S
C214 C215 1.474 . S
C214 C216 1.285 . S
C214 H234 0.929 . S
C215 C212 1.461 . S
C215 C214 1.474 . S
C216 C211 1.342 . S
C216 C214 1.285 . S
C216 H235 0.930 . S
C217 C220 1.424 . S
C217 C222 1.245 . S
C217 C223 1.428 . S
C218 C221 1.260 . S
C218 C222 1.477 . S
C218 H236 0.932 . S
C219 C220 1.384 . S
C219 C221 1.479 . S
C219 H237 0.929 . S
C220 C217 1.424 . S
C220 C219 1.384 . S
C220 H238 0.928 . S
C221 C218 1.260 . S
C221 C219 1.479 . S
C222 C217 1.245 . S
C222 C218 1.477 . S
C222 H239 0.932 . S
C223 U206 2.882 . S
C223 C217 1.428 . S
C223 O226 1.301 . S
C223 O227 1.282 . S
O224 U206 2.441 . S
O224 C210 1.249 . S
O225 U206 2.420 . S
O225 C210 1.202 . S
O226 U206 2.455 . S
O226 C223 1.301 . S
O227 U206 2.449 . S
O227 C223 1.282 . S
H228 C201 0.931 . S
H229 C203 0.929 . S
H230 C204 0.930 . S
H231 C205 0.931 . S
H232 C212 0.932 . S
H233 C213 0.930 . S
H234 C214 0.929 . S
H235 C216 0.930 . S
H236 C218 0.932 . S
H237 C219 0.929 . S
H238 C220 0.928 . S
H239 C222 0.932 . S
C240 C241 1.264 . S
C240 C245 1.479 . S
C240 C250 1.465 . S
C241 C240 1.264 . S
C241 C243 1.339 . S
C241 H268 0.931 . S
C242 C243 1.395 . S
C242 C244 1.320 . S
C243 C241 1.339 . S
C243 C242 1.395 . S
C243 H269 0.929 . S
C244 C242 1.320 . S
C244 C245 1.405 . S
C244 H270 0.930 . S
C245 C240 1.479 . S
C245 C244 1.405 . S
C245 H271 0.931 . S
U246 O247 2.454 . S
U246 O248 2.458 . S
U246 C249 2.984 . S
U246 C250 2.847 . S
U246 C263 2.882 . S
U246 O264 2.441 . S
U246 O265 2.420 . S
U246 O266 2.455 . S
U246 O267 2.449 . S
O247 U246 2.454 . S
O247 C249 1.353 . S
O248 U246 2.458 . S
O248 C249 1.286 . S
C249 U246 2.984 . S
C249 O247 1.353 . S
C249 O248 1.286 . S
C249 C251 1.363 . S
C250 C240 1.465 . S
C250 U246 2.847 . S
C250 O264 1.249 . S
C250 O265 1.202 . S
C251 C249 1.363 . S
C251 C253 1.408 . S
C251 C256 1.342 . S
C252 C253 1.310 . S
C252 C255 1.461 . S
C252 H272 0.932 . S
C253 C251 1.408 . S
C253 C252 1.310 . S
C253 H273 0.930 . S
C254 C255 1.474 . S
C254 C256 1.285 . S
C254 H274 0.929 . S
C255 C252 1.461 . S
C255 C254 1.474 . S
C256 C251 1.342 . S
C256 C254 1.285 . S
C256 H275 0.930 . S
C257 C260 1.424 . S
C257 C262 1.245 . S
C257 C263 1.428 . S
C258 C261 1.260 . S
C258 C262 1.477 . S
C258 H276 0.932 . S
C259 C260 1.384 . S
C259 C261 1.479 . S
C259 H277 0.929 . S
C260 C257 1.424 . S
C260 C259 1.384 . S
C260 H278 0.928 . S
C261 C258 1.260 . S
C261 C259 1.479 . S
C262 C257 1.245 . S
C262 C258 1.477 . S
C262 H279 0.932 . S
C263 U246 2.882 . S
C263 C257 1.428 . S
C263 O266 1.301 . S
C263 O267 1.282 . S
O264 U246 2.441 . S
O264 C250 1.249 . S
O265 U246 2.420 . S
O265 C250 1.202 . S
O266 U246 2.455 . S
O266 C263 1.301 . S
O267 U246 2.449 . S
O267 C263 1.282 . S
H268 C241 0.931 . S
H269 C243 0.929 . S
H270 C244 0.930 . S
H271 C245 0.931 . S
H272 C252 0.932 . S
H273 C253 0.930 . S
H274 C254 0.929 . S
H275 C256 0.930 . S
H276 C258 0.932 . S
H277 C259 0.929 . S
H278 C260 0.928 . S
H279 C262 0.932 . S
C280 C281 1.264 . S
C280 C285 1.479 . S
C280 C290 1.465 . S
C281 C280 1.264 . S
C281 C283 1.339 . S
C281 H308 0.931 . S
C282 C283 1.395 . S
C282 C284 1.320 . S
C283 C281 1.339 . S
C283 C282 1.395 . S
C283 H309 0.929 . S
C284 C282 1.320 . S
C284 C285 1.405 . S
C284 H310 0.930 . S
C285 C280 1.479 . S
C285 C284 1.405 . S
C285 H311 0.931 . S
U286 O287 2.454 . S
U286 O288 2.458 . S
U286 C289 2.984 . S
U286 C290 2.847 . S
U286 C303 2.882 . S
U286 O304 2.441 . S
U286 O305 2.420 . S
U286 O306 2.455 . S
U286 O307 2.449 . S
O287 U286 2.454 . S
O287 C289 1.353 . S
O288 U286 2.458 . S
O288 C289 1.286 . S
C289 U286 2.984 . S
C289 O287 1.353 . S
C289 O288 1.286 . S
C289 C291 1.363 . S
C290 C280 1.465 . S
C290 U286 2.847 . S
C290 O304 1.249 . S
C290 O305 1.202 . S
C291 C289 1.363 . S
C291 C293 1.408 . S
C291 C296 1.342 . S
C292 C293 1.310 . S
C292 C295 1.461 . S
C292 H312 0.932 . S
C293 C291 1.408 . S
C293 C292 1.310 . S
C293 H313 0.930 . S
C294 C295 1.474 . S
C294 C296 1.285 . S
C294 H314 0.929 . S
C295 C292 1.461 . S
C295 C294 1.474 . S
C296 C291 1.342 . S
C296 C294 1.285 . S
C296 H315 0.930 . S
C297 C300 1.424 . S
C297 C302 1.245 . S
C297 C303 1.428 . S
C298 C301 1.260 . S
C298 C302 1.477 . S
C298 H316 0.932 . S
C299 C300 1.384 . S
C299 C301 1.479 . S
C299 H317 0.929 . S
C300 C297 1.424 . S
C300 C299 1.384 . S
C300 H318 0.928 . S
C301 C298 1.260 . S
C301 C299 1.479 . S
C302 C297 1.245 . S
C302 C298 1.477 . S
C302 H319 0.932 . S
C303 U286 2.882 . S
C303 C297 1.428 . S
C303 O306 1.301 . S
C303 O307 1.282 . S
O304 U286 2.441 . S
O304 C290 1.249 . S
O305 U286 2.420 . S
O305 C290 1.202 . S
O306 U286 2.455 . S
O306 C303 1.301 . S
O307 U286 2.449 . S
O307 C303 1.282 . S
H308 C281 0.931 . S
H309 C283 0.929 . S
H310 C284 0.930 . S
H311 C285 0.931 . S
H312 C292 0.932 . S
H313 C293 0.930 . S
H314 C294 0.929 . S
H315 C296 0.930 . S
H316 C298 0.932 . S
H317 C299 0.929 . S
H318 C300 0.928 . S
H319 C302 0.932 . S
C320 C321 1.264 . S
C320 C325 1.479 . S
C320 C330 1.465 . S
C321 C320 1.264 . S
C321 C323 1.339 . S
C321 H348 0.931 . S
C322 C323 1.395 . S
C322 C324 1.320 . S
C323 C321 1.339 . S
C323 C322 1.395 . S
C323 H349 0.929 . S
C324 C322 1.320 . S
C324 C325 1.405 . S
C324 H350 0.930 . S
C325 C320 1.479 . S
C325 C324 1.405 . S
C325 H351 0.931 . S
U326 O327 2.454 . S
U326 O328 2.458 . S
U326 C329 2.984 . S
U326 C330 2.847 . S
U326 C343 2.882 . S
U326 O344 2.441 . S
U326 O345 2.420 . S
U326 O346 2.455 . S
U326 O347 2.449 . S
O327 U326 2.454 . S
O327 C329 1.353 . S
O328 U326 2.458 . S
O328 C329 1.286 . S
C329 U326 2.984 . S
C329 O327 1.353 . S
C329 O328 1.286 . S
C329 C331 1.363 . S
C330 C320 1.465 . S
C330 U326 2.847 . S
C330 O344 1.249 . S
C330 O345 1.202 . S
C331 C329 1.363 . S
C331 C333 1.408 . S
C331 C336 1.342 . S
C332 C333 1.310 . S
C332 C335 1.461 . S
C332 H352 0.932 . S
C333 C331 1.408 . S
C333 C332 1.310 . S
C333 H353 0.930 . S
C334 C335 1.474 . S
C334 C336 1.285 . S
C334 H354 0.929 . S
C335 C332 1.461 . S
C335 C334 1.474 . S
C336 C331 1.342 . S
C336 C334 1.285 . S
C336 H355 0.930 . S
C337 C340 1.424 . S
C337 C342 1.245 . S
C337 C343 1.428 . S
C338 C341 1.260 . S
C338 C342 1.477 . S
C338 H356 0.932 . S
C339 C340 1.384 . S
C339 C341 1.479 . S
C339 H357 0.929 . S
C340 C337 1.424 . S
C340 C339 1.384 . S
C340 H358 0.928 . S
C341 C338 1.260 . S
C341 C339 1.479 . S
C342 C337 1.245 . S
C342 C338 1.477 . S
C342 H359 0.932 . S
C343 U326 2.882 . S
C343 C337 1.428 . S
C343 O346 1.301 . S
C343 O347 1.282 . S
O344 U326 2.441 . S
O344 C330 1.249 . S
O345 U326 2.420 . S
O345 C330 1.202 . S
O346 U326 2.455 . S
O346 C343 1.301 . S
O347 U326 2.449 . S
O347 C343 1.282 . S
H348 C321 0.931 . S
H349 C323 0.929 . S
H350 C324 0.930 . S
H351 C325 0.931 . S
H352 C332 0.932 . S
H353 C333 0.930 . S
H354 C334 0.929 . S
H355 C336 0.930 . S
H356 C338 0.932 . S
H357 C339 0.929 . S
H358 C340 0.928 . S
H359 C342 0.932 . S
C360 C361 1.264 . S
C360 C365 1.479 . S
C360 C370 1.465 . S
C361 C360 1.264 . S
C361 C363 1.339 . S
C361 H388 0.931 . S
C362 C363 1.395 . S
C362 C364 1.320 . S
C363 C361 1.339 . S
C363 C362 1.395 . S
C363 H389 0.929 . S
C364 C362 1.320 . S
C364 C365 1.405 . S
C364 H390 0.930 . S
C365 C360 1.479 . S
C365 C364 1.405 . S
C365 H391 0.931 . S
U366 O367 2.454 . S
U366 O368 2.458 . S
U366 C369 2.984 . S
U366 C370 2.847 . S
U366 C383 2.882 . S
U366 O384 2.441 . S
U366 O385 2.420 . S
U366 O386 2.455 . S
U366 O387 2.449 . S
O367 U366 2.454 . S
O367 C369 1.353 . S
O368 U366 2.458 . S
O368 C369 1.286 . S
C369 U366 2.984 . S
C369 O367 1.353 . S
C369 O368 1.286 . S
C369 C371 1.363 . S
C370 C360 1.465 . S
C370 U366 2.847 . S
C370 O384 1.249 . S
C370 O385 1.202 . S
C371 C369 1.363 . S
C371 C373 1.408 . S
C371 C376 1.342 . S
C372 C373 1.310 . S
C372 C375 1.461 . S
C372 H392 0.932 . S
C373 C371 1.408 . S
C373 C372 1.310 . S
C373 H393 0.930 . S
C374 C375 1.474 . S
C374 C376 1.285 . S
C374 H394 0.929 . S
C375 C372 1.461 . S
C375 C374 1.474 . S
C376 C371 1.342 . S
C376 C374 1.285 . S
C376 H395 0.930 . S
C377 C380 1.424 . S
C377 C382 1.245 . S
C377 C383 1.428 . S
C378 C381 1.260 . S
C378 C382 1.477 . S
C378 H396 0.932 . S
C379 C380 1.384 . S
C379 C381 1.479 . S
C379 H397 0.929 . S
C380 C377 1.424 . S
C380 C379 1.384 . S
C380 H398 0.928 . S
C381 C378 1.260 . S
C381 C379 1.479 . S
C382 C377 1.245 . S
C382 C378 1.477 . S
C382 H399 0.932 . S
C383 U366 2.882 . S
C383 C377 1.428 . S
C383 O386 1.301 . S
C383 O387 1.282 . S
O384 U366 2.441 . S
O384 C370 1.249 . S
O385 U366 2.420 . S
O385 C370 1.202 . S
O386 U366 2.455 . S
O386 C383 1.301 . S
O387 U366 2.449 . S
O387 C383 1.282 . S
H388 C361 0.931 . S
H389 C363 0.929 . S
H390 C364 0.930 . S
H391 C365 0.931 . S
H392 C372 0.932 . S
H393 C373 0.930 . S
H394 C374 0.929 . S
H395 C376 0.930 . S
H396 C378 0.932 . S
H397 C379 0.929 . S
H398 C380 0.928 . S
H399 C382 0.932 . S
C400 C401 1.264 . S
C400 C405 1.479 . S
C400 C410 1.465 . S
C401 C400 1.264 . S
C401 C403 1.339 . S
C401 H428 0.931 . S
C402 C403 1.395 . S
C402 C404 1.320 . S
C403 C401 1.339 . S
C403 C402 1.395 . S
C403 H429 0.929 . S
C404 C402 1.320 . S
C404 C405 1.405 . S
C404 H430 0.930 . S
C405 C400 1.479 . S
C405 C404 1.405 . S
C405 H431 0.931 . S
U406 O407 2.454 . S
U406 O408 2.458 . S
U406 C409 2.984 . S
U406 C410 2.847 . S
U406 C423 2.882 . S
U406 O424 2.441 . S
U406 O425 2.420 . S
U406 O426 2.455 . S
U406 O427 2.449 . S
O407 U406 2.454 . S
O407 C409 1.353 . S
O408 U406 2.458 . S
O408 C409 1.286 . S
C409 U406 2.984 . S
C409 O407 1.353 . S
C409 O408 1.286 . S
C409 C411 1.363 . S
C410 C400 1.465 . S
C410 U406 2.847 . S
C410 O424 1.249 . S
C410 O425 1.202 . S
C411 C409 1.363 . S
C411 C413 1.408 . S
C411 C416 1.342 . S
C412 C413 1.310 . S
C412 C415 1.461 . S
C412 H432 0.932 . S
C413 C411 1.408 . S
C413 C412 1.310 . S
C413 H433 0.930 . S
C414 C415 1.474 . S
C414 C416 1.285 . S
C414 H434 0.929 . S
C415 C412 1.461 . S
C415 C414 1.474 . S
C416 C411 1.342 . S
C416 C414 1.285 . S
C416 H435 0.930 . S
C417 C420 1.424 . S
C417 C422 1.245 . S
C417 C423 1.428 . S
C418 C421 1.260 . S
C418 C422 1.477 . S
C418 H436 0.932 . S
C419 C420 1.384 . S
C419 C421 1.479 . S
C419 H437 0.929 . S
C420 C417 1.424 . S
C420 C419 1.384 . S
C420 H438 0.928 . S
C421 C418 1.260 . S
C421 C419 1.479 . S
C422 C417 1.245 . S
C422 C418 1.477 . S
C422 H439 0.932 . S
C423 U406 2.882 . S
C423 C417 1.428 . S
C423 O426 1.301 . S
C423 O427 1.282 . S
O424 U406 2.441 . S
O424 C410 1.249 . S
O425 U406 2.420 . S
O425 C410 1.202 . S
O426 U406 2.455 . S
O426 C423 1.301 . S
O427 U406 2.449 . S
O427 C423 1.282 . S
H428 C401 0.931 . S
H429 C403 0.929 . S
H430 C404 0.930 . S
H431 C405 0.931 . S
H432 C412 0.932 . S
H433 C413 0.930 . S
H434 C414 0.929 . S
H435 C416 0.930 . S
H436 C418 0.932 . S
H437 C419 0.929 . S
H438 C420 0.928 . S
H439 C422 0.932 . S
C440 C441 1.264 . S
C440 C445 1.479 . S
C440 C450 1.465 . S
C441 C440 1.264 . S
C441 C443 1.339 . S
C441 H468 0.931 . S
C442 C443 1.395 . S
C442 C444 1.320 . S
C443 C441 1.339 . S
C443 C442 1.395 . S
C443 H469 0.929 . S
C444 C442 1.320 . S
C444 C445 1.405 . S
C444 H470 0.930 . S
C445 C440 1.479 . S
C445 C444 1.405 . S
C445 H471 0.931 . S
U446 O447 2.454 . S
U446 O448 2.458 . S
U446 C449 2.984 . S
U446 C450 2.847 . S
U446 C463 2.882 . S
U446 O464 2.441 . S
U446 O465 2.420 . S
U446 O466 2.455 . S
U446 O467 2.449 . S
O447 U446 2.454 . S
O447 C449 1.353 . S
O448 U446 2.458 . S
O448 C449 1.286 . S
C449 U446 2.984 . S
C449 O447 1.353 . S
C449 O448 1.286 . S
C449 C451 1.363 . S
C450 C440 1.465 . S
C450 U446 2.847 . S
C450 O464 1.249 . S
C450 O465 1.202 . S
C451 C449 1.363 . S
C451 C453 1.408 . S
C451 C456 1.342 . S
C452 C453 1.310 . S
C452 C455 1.461 . S
C452 H472 0.932 . S
C453 C451 1.408 . S
C453 C452 1.310 . S
C453 H473 0.930 . S
C454 C455 1.474 . S
C454 C456 1.285 . S
C454 H474 0.929 . S
C455 C452 1.461 . S
C455 C454 1.474 . S
C456 C451 1.342 . S
C456 C454 1.285 . S
C456 H475 0.930 . S
C457 C460 1.424 . S
C457 C462 1.245 . S
C457 C463 1.428 . S
C458 C461 1.260 . S
C458 C462 1.477 . S
C458 H476 0.932 . S
C459 C460 1.384 . S
C459 C461 1.479 . S
C459 H477 0.929 . S
C460 C457 1.424 . S
C460 C459 1.384 . S
C460 H478 0.928 . S
C461 C458 1.260 . S
C461 C459 1.479 . S
C462 C457 1.245 . S
C462 C458 1.477 . S
C462 H479 0.932 . S
C463 U446 2.882 . S
C463 C457 1.428 . S
C463 O466 1.301 . S
C463 O467 1.282 . S
O464 U446 2.441 . S
O464 C450 1.249 . S
O465 U446 2.420 . S
O465 C450 1.202 . S
O466 U446 2.455 . S
O466 C463 1.301 . S
O467 U446 2.449 . S
O467 C463 1.282 . S
H468 C441 0.931 . S
H469 C443 0.929 . S
H470 C444 0.930 . S
H471 C445 0.931 . S
H472 C452 0.932 . S
H473 C453 0.930 . S
H474 C454 0.929 . S
H475 C456 0.930 . S
H476 C458 0.932 . S
H477 C459 0.929 . S
H478 C460 0.928 . S
H479 C462 0.932 . S
C480 C481 1.264 . S
C480 C485 1.479 . S
C480 C490 1.465 . S
C481 C480 1.264 . S
C481 C483 1.339 . S
C481 H508 0.931 . S
C482 C483 1.395 . S
C482 C484 1.320 . S
C483 C481 1.339 . S
C483 C482 1.395 . S
C483 H509 0.929 . S
C484 C482 1.320 . S
C484 C485 1.405 . S
C484 H510 0.930 . S
C485 C480 1.479 . S
C485 C484 1.405 . S
C485 H511 0.931 . S
U486 O487 2.454 . S
U486 O488 2.458 . S
U486 C489 2.984 . S
U486 C490 2.847 . S
U486 C503 2.882 . S
U486 O504 2.441 . S
U486 O505 2.420 . S
U486 O506 2.455 . S
U486 O507 2.449 . S
O487 U486 2.454 . S
O487 C489 1.353 . S
O488 U486 2.458 . S
O488 C489 1.286 . S
C489 U486 2.984 . S
C489 O487 1.353 . S
C489 O488 1.286 . S
C489 C491 1.363 . S
C490 C480 1.465 . S
C490 U486 2.847 . S
C490 O504 1.249 . S
C490 O505 1.202 . S
C491 C489 1.363 . S
C491 C493 1.408 . S
C491 C496 1.342 . S
C492 C493 1.310 . S
C492 C495 1.461 . S
C492 H512 0.932 . S
C493 C491 1.408 . S
C493 C492 1.310 . S
C493 H513 0.930 . S
C494 C495 1.474 . S
C494 C496 1.285 . S
C494 H514 0.929 . S
C495 C492 1.461 . S
C495 C494 1.474 . S
C496 C491 1.342 . S
C496 C494 1.285 . S
C496 H515 0.930 . S
C497 C500 1.424 . S
C497 C502 1.245 . S
C497 C503 1.428 . S
C498 C501 1.260 . S
C498 C502 1.477 . S
C498 H516 0.932 . S
C499 C500 1.384 . S
C499 C501 1.479 . S
C499 H517 0.929 . S
C500 C497 1.424 . S
C500 C499 1.384 . S
C500 H518 0.928 . S
C501 C498 1.260 . S
C501 C499 1.479 . S
C502 C497 1.245 . S
C502 C498 1.477 . S
C502 H519 0.932 . S
C503 U486 2.882 . S
C503 C497 1.428 . S
C503 O506 1.301 . S
C503 O507 1.282 . S
O504 U486 2.441 . S
O504 C490 1.249 . S
O505 U486 2.420 . S
O505 C490 1.202 . S
O506 U486 2.455 . S
O506 C503 1.301 . S
O507 U486 2.449 . S
O507 C503 1.282 . S
H508 C481 0.931 . S
H509 C483 0.929 . S
H510 C484 0.930 . S
H511 C485 0.931 . S
H512 C492 0.932 . S
H513 C493 0.930 . S
H514 C494 0.929 . S
H515 C496 0.930 . S
H516 C498 0.932 . S
H517 C499 0.929 . S
H518 C500 0.928 . S
H519 C502 0.932 . S
C520 C521 1.264 . S
C520 C525 1.479 1_455 S
C520 C530 1.465 . S
C521 C520 1.264 . S
C521 C523 1.339 1_455 S
C521 H548 0.931 . S
C522 C523 1.395 . S
C522 C524 1.320 . S
C523 C521 1.339 1_655 S
C523 C522 1.395 . S
C523 H549 0.929 . S
C524 C522 1.320 . S
C524 C525 1.405 . S
C524 H550 0.930 . S
C525 C520 1.479 1_655 S
C525 C524 1.405 . S
C525 H551 0.931 . S
U526 O527 2.454 . S
U526 O528 2.458 . S
U526 C529 2.984 . S
U526 C530 2.847 . S
U526 C543 2.882 . S
U526 O544 2.441 . S
U526 O545 2.420 . S
U526 O546 2.455 . S
U526 O547 2.449 . S
O527 U526 2.454 . S
O527 C529 1.353 . S
O528 U526 2.458 . S
O528 C529 1.286 . S
C529 U526 2.984 . S
C529 O527 1.353 . S
C529 O528 1.286 . S
C529 C531 1.363 . S
C530 C520 1.465 . S
C530 U526 2.847 . S
C530 O544 1.249 . S
C530 O545 1.202 . S
C531 C529 1.363 . S
C531 C533 1.408 . S
C531 C536 1.342 . S
C532 C533 1.310 . S
C532 C535 1.461 . S
C532 H552 0.932 . S
C533 C531 1.408 . S
C533 C532 1.310 . S
C533 H553 0.930 . S
C534 C535 1.474 . S
C534 C536 1.285 . S
C534 H554 0.929 . S
C535 C532 1.461 . S
C535 C534 1.474 . S
C536 C531 1.342 . S
C536 C534 1.285 . S
C536 H555 0.930 . S
C537 C540 1.424 . S
C537 C542 1.245 . S
C537 C543 1.428 . S
C538 C541 1.260 . S
C538 C542 1.477 . S
C538 H556 0.932 . S
C539 C540 1.384 . S
C539 C541 1.479 . S
C539 H557 0.929 . S
C540 C537 1.424 . S
C540 C539 1.384 . S
C540 H558 0.928 . S
C541 C538 1.260 . S
C541 C539 1.479 . S
C542 C537 1.245 . S
C542 C538 1.477 . S
C542 H559 0.932 . S
C543 U526 2.882 . S
C543 C537 1.428 . S
C543 O546 1.301 . S
C543 O547 1.282 . S
O544 U526 2.441 . S
O544 C530 1.249 . S
O545 U526 2.420 . S
O545 C530 1.202 . S
O546 U526 2.455 . S
O546 C543 1.301 . S
O547 U526 2.449 . S
O547 C543 1.282 . S
H548 C521 0.931 . S
H549 C523 0.929 . S
H550 C524 0.930 . S
H551 C525 0.931 . S
H552 C532 0.932 . S
H553 C533 0.930 . S
H554 C534 0.929 . S
H555 C536 0.930 . S
H556 C538 0.932 . S
H557 C539 0.929 . S
H558 C540 0.928 . S
H559 C542 0.932 . S
C560 C561 1.264 . S
C560 C565 1.479 . S
C560 C570 1.465 . S
C561 C560 1.264 . S
C561 C563 1.339 . S
C561 H588 0.931 . S
C562 C563 1.395 . S
C562 C564 1.320 . S
C563 C561 1.339 . S
C563 C562 1.395 . S
C563 H589 0.929 . S
C564 C562 1.320 . S
C564 C565 1.405 . S
C564 H590 0.930 . S
C565 C560 1.479 . S
C565 C564 1.405 . S
C565 H591 0.931 . S
U566 O567 2.454 . S
U566 O568 2.458 . S
U566 C569 2.984 . S
U566 C570 2.847 . S
U566 C583 2.882 . S
U566 O584 2.441 . S
U566 O585 2.420 . S
U566 O586 2.455 . S
U566 O587 2.449 . S
O567 U566 2.454 . S
O567 C569 1.353 . S
O568 U566 2.458 . S
O568 C569 1.286 . S
C569 U566 2.984 . S
C569 O567 1.353 . S
C569 O568 1.286 . S
C569 C571 1.363 . S
C570 C560 1.465 . S
C570 U566 2.847 . S
C570 O584 1.249 . S
C570 O585 1.202 . S
C571 C569 1.363 . S
C571 C573 1.408 . S
C571 C576 1.342 . S
C572 C573 1.310 . S
C572 C575 1.461 . S
C572 H592 0.932 . S
C573 C571 1.408 . S
C573 C572 1.310 . S
C573 H593 0.930 . S
C574 C575 1.474 . S
C574 C576 1.285 . S
C574 H594 0.929 . S
C575 C572 1.461 . S
C575 C574 1.474 . S
C576 C571 1.342 . S
C576 C574 1.285 . S
C576 H595 0.930 . S
C577 C580 1.424 . S
C577 C582 1.245 . S
C577 C583 1.428 . S
C578 C581 1.260 . S
C578 C582 1.477 . S
C578 H596 0.932 . S
C579 C580 1.384 . S
C579 C581 1.479 . S
C579 H597 0.929 . S
C580 C577 1.424 . S
C580 C579 1.384 . S
C580 H598 0.928 . S
C581 C578 1.260 . S
C581 C579 1.479 . S
C582 C577 1.245 . S
C582 C578 1.477 . S
C582 H599 0.932 . S
C583 U566 2.882 . S
C583 C577 1.428 . S
C583 O586 1.301 . S
C583 O587 1.282 . S
O584 U566 2.441 . S
O584 C570 1.249 . S
O585 U566 2.420 . S
O585 C570 1.202 . S
O586 U566 2.455 . S
O586 C583 1.301 . S
O587 U566 2.449 . S
O587 C583 1.282 . S
H588 C561 0.931 . S
H589 C563 0.929 . S
H590 C564 0.930 . S
H591 C565 0.931 . S
H592 C572 0.932 . S
H593 C573 0.930 . S
H594 C574 0.929 . S
H595 C576 0.930 . S
H596 C578 0.932 . S
H597 C579 0.929 . S
H598 C580 0.928 . S
H599 C582 0.932 . S
C600 C601 1.264 . S
C600 C605 1.479 1_455 S
C600 C610 1.465 . S
C601 C600 1.264 . S
C601 C603 1.339 1_455 S
C601 H628 0.931 . S
C602 C603 1.395 . S
C602 C604 1.320 . S
C603 C601 1.339 1_655 S
C603 C602 1.395 . S
C603 H629 0.929 . S
C604 C602 1.320 . S
C604 C605 1.405 . S
C604 H630 0.930 . S
C605 C600 1.479 1_655 S
C605 C604 1.405 . S
C605 H631 0.931 . S
U606 O607 2.454 . S
U606 O608 2.458 . S
U606 C609 2.984 . S
U606 C610 2.847 . S
U606 C623 2.882 . S
U606 O624 2.441 . S
U606 O625 2.420 . S
U606 O626 2.455 . S
U606 O627 2.449 . S
O607 U606 2.454 . S
O607 C609 1.353 . S
O608 U606 2.458 . S
O608 C609 1.286 . S
C609 U606 2.984 . S
C609 O607 1.353 . S
C609 O608 1.286 . S
C609 C611 1.363 . S
C610 C600 1.465 . S
C610 U606 2.847 . S
C610 O624 1.249 . S
C610 O625 1.202 . S
C611 C609 1.363 . S
C611 C613 1.408 . S
C611 C616 1.342 . S
C612 C613 1.310 . S
C612 C615 1.461 . S
C612 H632 0.932 . S
C613 C611 1.408 . S
C613 C612 1.310 . S
C613 H633 0.930 . S
C614 C615 1.474 . S
C614 C616 1.285 . S
C614 H634 0.929 . S
C615 C612 1.461 . S
C615 C614 1.474 . S
C616 C611 1.342 . S
C616 C614 1.285 . S
C616 H635 0.930 . S
C617 C620 1.424 . S
C617 C622 1.245 . S
C617 C623 1.428 . S
C618 C621 1.260 . S
C618 C622 1.477 . S
C618 H636 0.932 . S
C619 C620 1.384 . S
C619 C621 1.479 . S
C619 H637 0.929 . S
C620 C617 1.424 . S
C620 C619 1.384 . S
C620 H638 0.928 . S
C621 C618 1.260 . S
C621 C619 1.479 . S
C622 C617 1.245 . S
C622 C618 1.477 . S
C622 H639 0.932 . S
C623 U606 2.882 . S
C623 C617 1.428 . S
C623 O626 1.301 . S
C623 O627 1.282 . S
O624 U606 2.441 . S
O624 C610 1.249 . S
O625 U606 2.420 . S
O625 C610 1.202 . S
O626 U606 2.455 . S
O626 C623 1.301 . S
O627 U606 2.449 . S
O627 C623 1.282 . S
H628 C601 0.931 . S
H629 C603 0.929 . S
H630 C604 0.930 . S
H631 C605 0.931 . S
H632 C612 0.932 . S
H633 C613 0.930 . S
H634 C614 0.929 . S
H635 C616 0.930 . S
H636 C618 0.932 . S
H637 C619 0.929 . S
H638 C620 0.928 . S
H639 C622 0.932 . S
C640 C641 1.387 . S
C640 H644 0.950 . S
C640 C649 1.390 . S
C641 C640 1.387 . S
C641 C643 1.387 . S
H642 C649 0.950 . S
C643 C641 1.387 . S
C643 C645 1.390 . S
C643 H647 0.950 . S
H644 C640 0.950 . S
C645 C643 1.390 . S
C645 C646 1.387 . S
C645 H648 0.950 . S
C646 C645 1.387 . S
C646 C649 1.387 . S
H647 C643 0.950 . S
H648 C645 0.950 . S
C649 C640 1.390 . S
C649 H642 0.950 . S
C649 C646 1.387 . S
C650 C651 1.387 . S
C650 H654 0.950 . S
C650 C659 1.390 . S
C651 C650 1.387 . S
C651 C653 1.387 . S
H652 C659 0.950 . S
C653 C651 1.387 . S
C653 C655 1.390 . S
C653 H657 0.950 . S
H654 C650 0.950 . S
C655 C653 1.390 . S
C655 C656 1.387 . S
C655 H658 0.950 . S
C656 C655 1.387 . S
C656 C659 1.387 . S
H657 C653 0.950 . S
H658 C655 0.950 . S
C659 C650 1.390 . S
C659 H652 0.950 . S
C659 C656 1.387 . S
C660 C661 1.387 . S
C660 H664 0.950 . S
C660 C669 1.390 . S
C661 C660 1.387 . S
C661 C663 1.387 . S
H662 C669 0.950 . S
C663 C661 1.387 . S
C663 C665 1.390 . S
C663 H667 0.950 . S
H664 C660 0.950 . S
C665 C663 1.390 . S
C665 C666 1.387 . S
C665 H668 0.950 . S
C666 C665 1.387 . S
C666 C669 1.387 . S
H667 C663 0.950 . S
H668 C665 0.950 . S
C669 C660 1.390 . S
C669 H662 0.950 . S
C669 C666 1.387 . S
C670 C671 1.387 . S
C670 H674 0.950 . S
C670 C679 1.390 . S
C671 C670 1.387 . S
C671 C673 1.387 . S
H672 C679 0.950 . S
C673 C671 1.387 . S
C673 C675 1.390 . S
C673 H677 0.950 . S
H674 C670 0.950 . S
C675 C673 1.390 . S
C675 C676 1.387 . S
C675 H678 0.950 . S
C676 C675 1.387 . S
C676 C679 1.387 . S
H677 C673 0.950 . S
H678 C675 0.950 . S
C679 C670 1.390 . S
C679 H672 0.950 . S
C679 C676 1.387 . S
C680 C681 1.387 . S
C680 H684 0.950 . S
C680 C689 1.390 . S
C681 C680 1.387 . S
C681 C683 1.387 . S
H682 C689 0.950 . S
C683 C681 1.387 . S
C683 C685 1.390 . S
C683 H687 0.950 . S
H684 C680 0.950 . S
C685 C683 1.390 . S
C685 C686 1.387 . S
C685 H688 0.950 . S
C686 C685 1.387 . S
C686 C689 1.387 . S
H687 C683 0.950 . S
H688 C685 0.950 . S
C689 C680 1.390 . S
C689 H682 0.950 . S
C689 C686 1.387 . S
C690 C691 1.387 . S
C690 H694 0.950 . S
C690 C699 1.390 . S
C691 C690 1.387 . S
C691 C693 1.387 . S
H692 C699 0.950 . S
C693 C691 1.387 . S
C693 C695 1.390 . S
C693 H697 0.950 . S
H694 C690 0.950 . S
C695 C693 1.390 . S
C695 C696 1.387 . S
C695 H698 0.950 . S
C696 C695 1.387 . S
C696 C699 1.387 . S
H697 C693 0.950 . S
H698 C695 0.950 . S
C699 C690 1.390 . S
C699 H692 0.950 . S
C699 C696 1.387 . S
C700 C701 1.387 . S
C700 H704 0.950 . S
C700 C709 1.390 . S
C701 C700 1.387 . S
C701 C703 1.387 . S
H702 C709 0.950 . S
C703 C701 1.387 . S
C703 C705 1.390 . S
C703 H707 0.950 . S
H704 C700 0.950 . S
C705 C703 1.390 . S
C705 C706 1.387 . S
C705 H708 0.950 . S
C706 C705 1.387 . S
C706 C709 1.387 . S
H707 C703 0.950 . S
H708 C705 0.950 . S
C709 C700 1.390 . S
C709 H702 0.950 . S
C709 C706 1.387 . S
C710 C711 1.387 . S
C710 H714 0.950 . S
C710 C719 1.390 . S
C711 C710 1.387 . S
C711 C713 1.387 . S
H712 C719 0.950 . S
C713 C711 1.387 . S
C713 C715 1.390 . S
C713 H717 0.950 . S
H714 C710 0.950 . S
C715 C713 1.390 . S
C715 C716 1.387 . S
C715 H718 0.950 . S
C716 C715 1.387 . S
C716 C719 1.387 . S
H717 C713 0.950 . S
H718 C715 0.950 . S
C719 C710 1.390 . S
C719 H712 0.950 . S
C719 C716 1.387 . S
C720 C721 1.387 . S
C720 H724 0.950 . S
C720 C729 1.390 . S
C721 C720 1.387 . S
C721 C723 1.387 . S
H722 C729 0.950 . S
C723 C721 1.387 . S
C723 C725 1.390 . S
C723 H727 0.950 . S
H724 C720 0.950 . S
C725 C723 1.390 . S
C725 C726 1.387 . S
C725 H728 0.950 . S
C726 C725 1.387 . S
C726 C729 1.387 . S
H727 C723 0.950 . S
H728 C725 0.950 . S
C729 C720 1.390 . S
C729 H722 0.950 . S
C729 C726 1.387 . S
C730 C731 1.387 . S
C730 H734 0.950 . S
C730 C739 1.390 . S
C731 C730 1.387 . S
C731 C733 1.387 . S
H732 C739 0.950 . S
C733 C731 1.387 . S
C733 C735 1.390 . S
C733 H737 0.950 . S
H734 C730 0.950 . S
C735 C733 1.390 . S
C735 C736 1.387 . S
C735 H738 0.950 . S
C736 C735 1.387 . S
C736 C739 1.387 . S
H737 C733 0.950 . S
H738 C735 0.950 . S
C739 C730 1.390 . S
C739 H732 0.950 . S
C739 C736 1.387 . S
C740 C741 1.387 . S
C740 H744 0.950 . S
C740 C749 1.390 . S
C741 C740 1.387 . S
C741 C743 1.387 . S
H742 C749 0.950 . S
C743 C741 1.387 . S
C743 C745 1.390 . S
C743 H747 0.950 . S
H744 C740 0.950 . S
C745 C743 1.390 . S
C745 C746 1.387 . S
C745 H748 0.950 . S
C746 C745 1.387 . S
C746 C749 1.387 . S
H747 C743 0.950 . S
H748 C745 0.950 . S
C749 C740 1.390 . S
C749 H742 0.950 . S
C749 C746 1.387 . S
C750 C751 1.387 . S
C750 H754 0.950 . S
C750 C759 1.390 . S
C751 C750 1.387 . S
C751 C753 1.387 . S
H752 C759 0.950 . S
C753 C751 1.387 . S
C753 C755 1.390 . S
C753 H757 0.950 . S
H754 C750 0.950 . S
C755 C753 1.390 . S
C755 C756 1.387 . S
C755 H758 0.950 . S
C756 C755 1.387 . S
C756 C759 1.387 . S
H757 C753 0.950 . S
H758 C755 0.950 . S
C759 C750 1.390 . S
C759 H752 0.950 . S
C759 C756 1.387 . S
C760 C761 1.387 . S
C760 H764 0.950 . S
C760 C769 1.390 . S
C761 C760 1.387 . S
C761 C763 1.387 . S
H762 C769 0.950 . S
C763 C761 1.387 . S
C763 C765 1.390 . S
C763 H767 0.950 . S
H764 C760 0.950 . S
C765 C763 1.390 . S
C765 C766 1.387 . S
C765 H768 0.950 . S
C766 C765 1.387 . S
C766 C769 1.387 . S
H767 C763 0.950 . S
H768 C765 0.950 . S
C769 C760 1.390 . S
C769 H762 0.950 . S
C769 C766 1.387 . S
C770 C771 1.387 . S
C770 H774 0.950 . S
C770 C779 1.390 . S
C771 C770 1.387 . S
C771 C773 1.387 . S
H772 C779 0.950 . S
C773 C771 1.387 . S
C773 C775 1.390 . S
C773 H777 0.950 . S
H774 C770 0.950 . S
C775 C773 1.390 . S
C775 C776 1.387 . S
C775 H778 0.950 . S
C776 C775 1.387 . S
C776 C779 1.387 . S
H777 C773 0.950 . S
H778 C775 0.950 . S
C779 C770 1.390 . S
C779 H772 0.950 . S
C779 C776 1.387 . S
C780 C781 1.387 . S
C780 H784 0.950 . S
C780 C789 1.390 . S
C781 C780 1.387 . S
C781 C783 1.387 . S
H782 C789 0.950 . S
C783 C781 1.387 . S
C783 C785 1.390 . S
C783 H787 0.950 . S
H784 C780 0.950 . S
C785 C783 1.390 . S
C785 C786 1.387 . S
C785 H788 0.950 . S
C786 C785 1.387 . S
C786 C789 1.387 . S
H787 C783 0.950 . S
H788 C785 0.950 . S
C789 C780 1.390 . S
C789 H782 0.950 . S
C789 C786 1.387 . S
C790 C791 1.387 . S
C790 H794 0.950 . S
C790 C799 1.390 . S
C791 C790 1.387 . S
C791 C793 1.387 . S
H792 C799 0.950 . S
C793 C791 1.387 . S
C793 C795 1.390 . S
C793 H797 0.950 . S
H794 C790 0.950 . S
C795 C793 1.390 . S
C795 C796 1.387 . S
C795 H798 0.950 . S
C796 C795 1.387 . S
C796 C799 1.387 . S
H797 C793 0.950 . S
H798 C795 0.950 . S
C799 C790 1.390 . S
C799 H792 0.950 . S
C799 C796 1.387 . S
C800 C801 1.387 . S
C800 H804 0.950 . S
C800 C809 1.390 1_554 S
C801 C800 1.387 . S
C801 C803 1.387 . S
H802 C809 0.950 . S
C803 C801 1.387 . S
C803 C805 1.390 1_554 S
C803 H807 0.950 . S
H804 C800 0.950 . S
C805 C803 1.390 1_556 S
C805 C806 1.387 . S
C805 H808 0.950 . S
C806 C805 1.387 . S
C806 C809 1.387 . S
H807 C803 0.950 . S
H808 C805 0.950 . S
C809 C800 1.390 1_556 S
C809 H802 0.950 . S
C809 C806 1.387 . S
C810 C811 1.387 . S
C810 H814 0.950 . S
C810 C819 1.390 . S
C811 C810 1.387 . S
C811 C813 1.387 . S
H812 C819 0.950 . S
C813 C811 1.387 . S
C813 C815 1.390 . S
C813 H817 0.950 . S
H814 C810 0.950 . S
C815 C813 1.390 . S
C815 C816 1.387 . S
C815 H818 0.950 . S
C816 C815 1.387 . S
C816 C819 1.387 . S
H817 C813 0.950 . S
H818 C815 0.950 . S
C819 C810 1.390 . S
C819 H812 0.950 . S
C819 C816 1.387 . S
C820 C821 1.387 . S
C820 H824 0.950 . S
C820 C829 1.390 . S
C821 C820 1.387 . S
C821 C823 1.387 . S
H822 C829 0.950 . S
C823 C821 1.387 . S
C823 C825 1.390 . S
C823 H827 0.950 . S
H824 C820 0.950 . S
C825 C823 1.390 . S
C825 C826 1.387 . S
C825 H828 0.950 . S
C826 C825 1.387 . S
C826 C829 1.387 . S
H827 C823 0.950 . S
H828 C825 0.950 . S
C829 C820 1.390 . S
C829 H822 0.950 . S
C829 C826 1.387 . S
C830 C831 1.387 . S
C830 H834 0.950 . S
C830 C839 1.390 . S
C831 C830 1.387 . S
C831 C833 1.387 . S
H832 C839 0.950 . S
C833 C831 1.387 . S
C833 C835 1.390 . S
C833 H837 0.950 . S
H834 C830 0.950 . S
C835 C833 1.390 . S
C835 C836 1.387 . S
C835 H838 0.950 . S
C836 C835 1.387 . S
C836 C839 1.387 . S
H837 C833 0.950 . S
H838 C835 0.950 . S
C839 C830 1.390 . S
C839 H832 0.950 . S
C839 C836 1.387 . S
C840 C841 1.387 . S
C840 H844 0.950 . S
C840 C849 1.390 . S
C841 C840 1.387 . S
C841 C843 1.387 . S
H842 C849 0.950 . S
C843 C841 1.387 . S
C843 C845 1.390 . S
C843 H847 0.950 . S
H844 C840 0.950 . S
C845 C843 1.390 . S
C845 C846 1.387 . S
C845 H848 0.950 . S
C846 C845 1.387 . S
C846 C849 1.387 . S
H847 C843 0.950 . S
H848 C845 0.950 . S
C849 C840 1.390 . S
C849 H842 0.950 . S
C849 C846 1.387 . S
C850 C851 1.387 . S
C850 H854 0.950 . S
C850 C859 1.390 . S
C851 C850 1.387 . S
C851 C853 1.387 . S
H852 C859 0.950 . S
C853 C851 1.387 . S
C853 C855 1.390 . S
C853 H857 0.950 . S
H854 C850 0.950 . S
C855 C853 1.390 . S
C855 C856 1.387 . S
C855 H858 0.950 . S
C856 C855 1.387 . S
C856 C859 1.387 . S
H857 C853 0.950 . S
H858 C855 0.950 . S
C859 C850 1.390 . S
C859 H852 0.950 . S
C859 C856 1.387 . S
C860 C861 1.387 . S
C860 H864 0.950 . S
C860 C869 1.388 1_565 S
C861 C860 1.387 . S
C861 C863 1.387 . S
H862 C869 0.953 . S
C863 C861 1.387 . S
C863 C865 1.388 1_565 S
C863 H867 0.953 . S
H864 C860 0.950 . S
C865 C863 1.388 1_545 S
C865 C866 1.387 . S
C865 H868 0.950 . S
C866 C865 1.387 . S
C866 C869 1.387 . S
H867 C863 0.953 . S
H868 C865 0.950 . S
C869 C860 1.388 1_545 S
C869 H862 0.953 . S
C869 C866 1.387 . S
C870 C871 1.389 . S
C870 H874 0.954 . S
C870 C879 1.388 1_546 S
C871 C870 1.389 . S
C871 C873 1.389 . S
H872 C879 0.950 . S
C873 C871 1.389 . S
C873 C875 1.388 1_546 S
C873 H877 0.950 . S
H874 C870 0.954 . S
C875 C873 1.388 1_564 S
C875 C876 1.389 . S
C875 H878 0.954 . S
C876 C875 1.389 . S
C876 C879 1.389 . S
H877 C873 0.950 . S
H878 C875 0.954 . S
C879 C870 1.388 1_564 S
C879 H872 0.950 . S
C879 C876 1.389 . S
C641 C381 2.467 . S
C646 C21 2.466 . S
C651 C42 2.224 . S
C656 C581 2.436 . S
C661 C341 2.385 . S
C666 C82 2.177 . S
C671 C141 2.414 . S
C676 C602 2.203 . S
C681 C181 2.436 . S
C686 C402 2.224 . S
C691 C522 2.177 . S
C696 C221 2.385 . S
C701 C461 2.414 . S
C706 C242 2.204 . S
C711 C501 2.466 . S
C716 C301 2.468 . S
C721 C162 2.368 . S
C726 C122 2.369 . S
C731 C482 2.395 . S
C736 C322 2.398 . S
C741 C261 2.270 . S
C746 C61 2.269 . S
C751 C541 2.245 . S
C756 C362 2.434 . S
C761 C2 2.395 . S
C766 C202 2.399 . S
C771 C621 2.270 . S
C776 C421 2.271 . S
C781 C282 2.435 . S
C786 C101 2.246 . S
C791 C442 2.368 . S
C796 C562 2.366 . S
C801 C15 2.538 . S
C806 C175 2.541 . S
C811 C55 2.505 . S
C816 C215 2.535 . S
C821 C95 2.506 . S
C826 C255 2.503 . S
C831 C135 2.533 . S
C836 C295 2.526 . S
C841 C335 2.532 . S
C846 C415 2.502 . S
C851 C455 2.533 . S
C856 C375 2.526 . S
C861 C575 2.554 . S
C866 C495 2.551 . S
C871 C615 2.503 . S
C876 C535 2.506 . S
