# Generated by pormake.
# Topology wjh, (4)-cn, num edge types: 1
# Building blocks:
#     Node 0, Type 0, BuildingBlock: UXUYUI_clean_sbu_0, # of connection points: 4
#     Node 1, Type 0, BuildingBlock: UXUYUI_clean_sbu_0, # of connection points: 4
#     Node 2, Type 0, BuildingBlock: UXUYUI_clean_sbu_0, # of connection points: 4
#     Node 3, Type 0, BuildingBlock: UXUYUI_clean_sbu_0, # of connection points: 4
#     Node 4, Type 0, BuildingBlock: UXUYUI_clean_sbu_0, # of connection points: 4
#     Node 5, Type 0, BuildingBlock: UXUYUI_clean_sbu_0, # of connection points: 4
#     Node 6, Type 0, BuildingBlock: UXUYUI_clean_sbu_0, # of connection points: 4
#     Node 7, Type 0, BuildingBlock: UXUYUI_clean_sbu_0, # of connection points: 4
#     Node 8, Type 0, BuildingBlock: UXUYUI_clean_sbu_0, # of connection points: 4
#     Node 9, Type 0, BuildingBlock: UXUYUI_clean_sbu_0, # of connection points: 4
#     Node 10, Type 0, BuildingBlock: UXUYUI_clean_sbu_0, # of connection points: 4
#     Node 11, Type 0, BuildingBlock: UXUYUI_clean_sbu_0, # of connection points: 4
#     Edge 12, Type (0, 0), BuildingBlock: XIVTED_clean_linker_0, # of connection points: 2
#     Edge 13, Type (0, 0), BuildingBlock: XIVTED_clean_linker_0, # of connection points: 2
#     Edge 14, Type (0, 0), BuildingBlock: XIVTED_clean_linker_0, # of connection points: 2
#     Edge 15, Type (0, 0), BuildingBlock: XIVTED_clean_linker_0, # of connection points: 2
#     Edge 16, Type (0, 0), BuildingBlock: XIVTED_clean_linker_0, # of connection points: 2
#     Edge 17, Type (0, 0), BuildingBlock: XIVTED_clean_linker_0, # of connection points: 2
#     Edge 18, Type (0, 0), BuildingBlock: XIVTED_clean_linker_0, # of connection points: 2
#     Edge 19, Type (0, 0), BuildingBlock: XIVTED_clean_linker_0, # of connection points: 2
#     Edge 20, Type (0, 0), BuildingBlock: XIVTED_clean_linker_0, # of connection points: 2
#     Edge 21, Type (0, 0), BuildingBlock: XIVTED_clean_linker_0, # of connection points: 2
#     Edge 22, Type (0, 0), BuildingBlock: XIVTED_clean_linker_0, # of connection points: 2
#     Edge 23, Type (0, 0), BuildingBlock: XIVTED_clean_linker_0, # of connection points: 2
#     Edge 24, Type (0, 0), BuildingBlock: XIVTED_clean_linker_0, # of connection points: 2
#     Edge 25, Type (0, 0), BuildingBlock: XIVTED_clean_linker_0, # of connection points: 2
#     Edge 26, Type (0, 0), BuildingBlock: XIVTED_clean_linker_0, # of connection points: 2
#     Edge 27, Type (0, 0), BuildingBlock: XIVTED_clean_linker_0, # of connection points: 2
#     Edge 28, Type (0, 0), BuildingBlock: XIVTED_clean_linker_0, # of connection points: 2
#     Edge 29, Type (0, 0), BuildingBlock: XIVTED_clean_linker_0, # of connection points: 2
#     Edge 30, Type (0, 0), BuildingBlock: XIVTED_clean_linker_0, # of connection points: 2
#     Edge 31, Type (0, 0), BuildingBlock: XIVTED_clean_linker_0, # of connection points: 2
#     Edge 32, Type (0, 0), BuildingBlock: XIVTED_clean_linker_0, # of connection points: 2
#     Edge 33, Type (0, 0), BuildingBlock: XIVTED_clean_linker_0, # of connection points: 2
#     Edge 34, Type (0, 0), BuildingBlock: XIVTED_clean_linker_0, # of connection points: 2
#     Edge 35, Type (0, 0), BuildingBlock: XIVTED_clean_linker_0, # of connection points: 2
# Relax obj value: 0.245
# Max RMSD: 0.173
# Mean RMSD: 0.173
data_MOF--net-wjh--node1-UXUYUI_clean_sbu_0--edge1-XIVTED_clean_linker_0
_symmetry_space_group_name_H-M    P1
_symmetry_Int_Tables_number       1
_symmetry_cell_setting            triclinic
loop_
_symmetry_equiv_pos_as_xyz
'x, y, z'
_cell_length_a     91.034262
_cell_length_b     90.951332
_cell_length_c     36.071427
_cell_angle_alpha  90.038581
_cell_angle_beta   89.970766
_cell_angle_gamma 119.97323
loop_
_atom_site_label
_atom_site_type_symbol
_atom_site_fract_x
_atom_site_fract_y
_atom_site_fract_z
_atom_type_partial_charge
Li0 Li 0.46816 0.10666 0.06977 0.0
Li1 Li 0.49414 0.1216 0.10701 0.0
Li2 Li 0.48095 0.13663 0.07623 0.0
Li3 Li 0.49608 0.12611 0.03915 0.0
C4 C 0.45826 0.10935 0.13825 0.0
N5 N 0.43077 0.08806 0.18178 0.0
C6 C 0.4605 0.10159 0.16948 0.0
C7 C 0.44205 0.1064 0.12935 0.0
C8 C 0.44643 0.09084 0.1911 0.0
C9 C 0.42831 0.09555 0.15164 0.0
C10 C 0.4963 0.09476 0.06841 0.0
C11 C 0.52049 0.091 0.05931 0.0
N12 N 0.51112 0.07463 0.07083 0.0
C13 C 0.48687 0.07783 0.07976 0.0
C14 C 0.51322 0.10135 0.05777 0.0
C15 C 0.49461 0.06789 0.08096 0.0
C16 C 0.43722 0.08295 0.03541 0.0
N17 N 0.44752 0.0858 0.06507 0.0
C18 C 0.42869 0.05824 0.08919 0.0
C19 C 0.44356 0.07384 0.09169 0.0
C20 C 0.41788 0.05479 0.05867 0.0
C21 C 0.42225 0.06738 0.03154 0.0
H22 H 0.44075 0.09267 0.01452 0.0
H23 H 0.45206 0.07636 0.11474 0.0
C24 C 0.51067 0.13517 0.17314 0.0
N25 N 0.50578 0.12153 0.15059 0.0
C26 C 0.51953 0.13668 0.20577 0.0
C27 C 0.51811 0.11003 0.19142 0.0
C28 C 0.50915 0.10896 0.1592 0.0
C29 C 0.52344 0.12405 0.2151 0.0
H30 H 0.50776 0.14494 0.16554 0.0
H31 H 0.50493 0.09812 0.14126 0.0
C32 C 0.46765 0.1327 0.01097 0.0
N33 N 0.45669 0.15238 0.97551 0.0
C34 C 0.47791 0.14459 0.98439 0.0
C35 C 0.45176 0.1307 0.01932 0.0
C36 C 0.47215 0.15445 0.9668 0.0
C37 C 0.44647 0.14082 0.00116 0.0
C38 C 0.52254 0.15371 0.07948 0.0
C39 C 0.5298 0.17109 0.07246 0.0
C40 C 0.53303 0.14701 0.08767 0.0
C41 C 0.54743 0.18139 0.07299 0.0
C42 C 0.5506 0.15771 0.08798 0.0
N43 N 0.55738 0.17454 0.08063 0.0
C44 C 0.46581 0.15367 0.10946 0.0
C45 C 0.48624 0.1696 0.06342 0.0
C46 C 0.46392 0.16756 0.11817 0.0
N47 N 0.47698 0.155 0.08285 0.0
C48 C 0.48488 0.18388 0.07149 0.0
C49 C 0.47381 0.183 0.09964 0.0
H50 H 0.45883 0.14204 0.12491 0.0
H51 H 0.495 0.17027 0.04237 0.0
C52 C 0.50606 0.11485 0.97741 0.0
N53 N 0.50957 0.1291 0.99661 0.0
C54 C 0.51613 0.11575 0.9474 0.0
C55 C 0.53276 0.14613 0.95623 0.0
C56 C 0.5224 0.14461 0.98625 0.0
C57 C 0.52982 0.13152 0.93675 0.0
H58 H 0.4956 0.10271 0.98595 0.0
H59 H 0.5247 0.1558 0.00143 0.0
O60 O 0.47187 0.11983 0.11663 0.0
O61 O 0.48885 0.10465 0.06699 0.0
O62 O 0.47321 0.12317 0.02897 0.0
O63 O 0.50527 0.14348 0.0791 0.0
H64 H 0.47293 0.10374 0.17686 0.0
H65 H 0.44008 0.11225 0.10521 0.0
H66 H 0.44797 0.08469 0.21525 0.0
H67 H 0.41569 0.09306 0.14492 0.0
H68 H 0.53358 0.09597 0.0512 0.0
H69 H 0.47374 0.07241 0.08772 0.0
H70 H 0.52066 0.11425 0.04801 0.0
H71 H 0.48746 0.0548 0.0899 0.0
H72 H 0.42599 0.04875 0.11029 0.0
H73 H 0.41425 0.06516 0.00755 0.0
H74 H 0.52355 0.14776 0.22315 0.0
H75 H 0.52069 0.09991 0.19793 0.0
H76 H 0.49025 0.14629 0.97766 0.0
H77 H 0.44368 0.12154 0.03982 0.0
H78 H 0.47998 0.16376 0.9463 0.0
H79 H 0.43425 0.13949 0.00749 0.0
H80 H 0.52192 0.17659 0.06653 0.0
H81 H 0.5277 0.13374 0.09418 0.0
H82 H 0.5532 0.19483 0.06737 0.0
H83 H 0.55884 0.15265 0.09422 0.0
H84 H 0.45542 0.16645 0.14039 0.0
H85 H 0.49263 0.19556 0.05643 0.0
H86 H 0.51322 0.10422 0.93267 0.0
H87 H 0.54318 0.15853 0.94892 0.0
Li88 Li 0.37039 0.49775 0.26655 0.0
Li89 Li 0.35665 0.47069 0.23131 0.0
Li90 Li 0.36632 0.49685 0.19741 0.0
Li91 Li 0.34252 0.48556 0.24115 0.0
C92 C 0.39723 0.50125 0.22221 0.0
N93 N 0.4313 0.5242 0.21243 0.0
C94 C 0.40864 0.49549 0.21566 0.0
C95 C 0.40314 0.51869 0.22372 0.0
C96 C 0.42582 0.50729 0.21081 0.0
C97 C 0.42042 0.53008 0.21872 0.0
C98 C 0.33805 0.47002 0.30618 0.0
C99 C 0.30927 0.45076 0.32544 0.0
N100 N 0.31253 0.45888 0.35865 0.0
C101 C 0.34116 0.47801 0.34073 0.0
C102 C 0.32203 0.45612 0.29869 0.0
C103 C 0.32809 0.47225 0.3668 0.0
C104 C 0.37934 0.51978 0.32636 0.0
N105 N 0.38443 0.51036 0.30677 0.0
C106 C 0.40824 0.51896 0.34684 0.0
C107 C 0.39851 0.50969 0.31642 0.0
C108 C 0.40327 0.52882 0.36769 0.0
C109 C 0.38857 0.52911 0.35706 0.0
H110 H 0.36778 0.5196 0.31872 0.0
H111 H 0.40215 0.5019 0.30066 0.0
C112 C 0.3653 0.44785 0.20127 0.0
N113 N 0.35557 0.44944 0.22773 0.0
C114 C 0.36626 0.43306 0.19899 0.0
C115 C 0.34691 0.42168 0.25085 0.0
C116 C 0.3463 0.43671 0.25206 0.0
C117 C 0.35724 0.41985 0.22445 0.0
H118 H 0.37269 0.4583 0.18261 0.0
H119 H 0.33882 0.43839 0.27307 0.0
C120 C 0.35403 0.51905 0.22927 0.0
N121 N 0.33794 0.53754 0.21666 0.0
C122 C 0.34191 0.51423 0.20113 0.0
C123 C 0.3581 0.5334 0.25069 0.0
C124 C 0.33387 0.5237 0.19529 0.0
C125 C 0.3498 0.54255 0.24394 0.0
C126 C 0.33768 0.46136 0.17234 0.0
C127 C 0.34567 0.46137 0.13924 0.0
C128 C 0.32345 0.4464 0.18427 0.0
C129 C 0.33953 0.44631 0.11907 0.0
C130 C 0.3177 0.43159 0.16336 0.0
N131 N 0.32581 0.43184 0.13149 0.0
C132 C 0.38665 0.50353 0.13411 0.0
C133 C 0.37695 0.52308 0.1428 0.0
C134 C 0.3961 0.51251 0.10319 0.0
N135 N 0.37732 0.50891 0.1532 0.0
C136 C 0.3861 0.53239 0.11193 0.0
C137 C 0.39597 0.52722 0.0918 0.0
H138 H 0.38702 0.49241 0.14337 0.0
H139 H 0.36983 0.52742 0.15873 0.0
C140 C 0.32223 0.49402 0.28257 0.0
N141 N 0.32168 0.48446 0.25308 0.0
C142 C 0.30773 0.4942 0.29383 0.0
C143 C 0.29223 0.47463 0.24418 0.0
C144 C 0.30714 0.47487 0.23376 0.0
C145 C 0.29249 0.48448 0.27449 0.0
H146 H 0.33402 0.5015 0.29738 0.0
H147 H 0.30714 0.4675 0.21023 0.0
O148 O 0.38035 0.4898 0.22656 0.0
O149 O 0.35066 0.47568 0.28007 0.0
O150 O 0.36168 0.50963 0.23608 0.0
O151 O 0.34375 0.47592 0.19289 0.0
H152 H 0.40423 0.48202 0.21427 0.0
H153 H 0.39452 0.52342 0.22862 0.0
H154 H 0.43479 0.50301 0.20572 0.0
H155 H 0.42517 0.54361 0.21982 0.0
H156 H 0.29678 0.44015 0.31978 0.0
H157 H 0.35353 0.48851 0.34745 0.0
H158 H 0.31939 0.44968 0.27233 0.0
H159 H 0.33031 0.4784 0.39353 0.0
H160 H 0.41955 0.51845 0.35381 0.0
H161 H 0.38397 0.53614 0.37279 0.0
H162 H 0.37465 0.43236 0.17866 0.0
H163 H 0.33971 0.41179 0.27087 0.0
H164 H 0.33865 0.5032 0.18416 0.0
H165 H 0.36763 0.53751 0.27216 0.0
H166 H 0.32439 0.52003 0.1738 0.0
H167 H 0.3528 0.55366 0.26037 0.0
H168 H 0.35652 0.47284 0.12925 0.0
H169 H 0.31694 0.44618 0.20946 0.0
H170 H 0.34568 0.44612 0.09355 0.0
H171 H 0.30679 0.4199 0.17246 0.0
H172 H 0.40374 0.50821 0.089 0.0
H173 H 0.38547 0.54353 0.10401 0.0
H174 H 0.30842 0.50176 0.31768 0.0
H175 H 0.28074 0.46709 0.2284 0.0
Li176 Li 0.88258 0.35995 0.40334 0.0
Li177 Li 0.86482 0.36916 0.43811 0.0
Li178 Li 0.85316 0.34171 0.40677 0.0
Li179 Li 0.86304 0.36611 0.36925 0.0
C180 C 0.87944 0.34791 0.47143 0.0
N181 N 0.9019 0.34384 0.5157 0.0
C182 C 0.8883 0.35961 0.49955 0.0
C183 C 0.88185 0.33404 0.46608 0.0
C184 C 0.89963 0.35735 0.52159 0.0
C185 C 0.89331 0.33224 0.48867 0.0
C186 C 0.8911 0.39571 0.37893 0.0
C187 C 0.89399 0.42161 0.35393 0.0
N188 N 0.90644 0.42295 0.33093 0.0
C189 C 0.90394 0.39734 0.3551 0.0
C190 C 0.8861 0.40795 0.37846 0.0
C191 C 0.91155 0.41122 0.33105 0.0
C192 C 0.90809 0.35249 0.3811 0.0
N193 N 0.90431 0.36211 0.40367 0.0
C194 C 0.93233 0.3762 0.42847 0.0
C195 C 0.91601 0.37385 0.42696 0.0
C196 C 0.93669 0.36655 0.40532 0.0
C197 C 0.92435 0.35454 0.38143 0.0
H198 H 0.89859 0.34342 0.36251 0.0
H199 H 0.91267 0.38151 0.44407 0.0
C200 C 0.85282 0.37281 0.50721 0.0
N201 N 0.86416 0.38134 0.4798 0.0
C202 C 0.85244 0.38137 0.53901 0.0
C203 C 0.87556 0.40727 0.51385 0.0
C204 C 0.87549 0.3982 0.48256 0.0
C205 C 0.86394 0.39884 0.54264 0.0
H206 H 0.84421 0.35932 0.50454 0.0
H207 H 0.88465 0.40455 0.46074 0.0
C208 C 0.86058 0.33269 0.34175 0.0
N209 N 0.8463 0.30292 0.30126 0.0
C210 C 0.85134 0.33113 0.3096 0.0
C211 C 0.86267 0.31916 0.35316 0.0
C212 C 0.8442 0.31597 0.28953 0.0
C213 C 0.85531 0.3042 0.33237 0.0
C214 C 0.82755 0.34735 0.40115 0.0
C215 C 0.82057 0.34263 0.36566 0.0
C216 C 0.81716 0.34046 0.43224 0.0
C217 C 0.80327 0.33102 0.36188 0.0
C218 C 0.79993 0.32884 0.42729 0.0
N219 N 0.7934 0.3244 0.39252 0.0
C220 C 0.83434 0.31309 0.45 0.0
C221 C 0.82469 0.30884 0.38785 0.0
C222 C 0.82117 0.29711 0.45995 0.0
N223 N 0.83582 0.31869 0.41454 0.0
C224 C 0.81142 0.29266 0.39647 0.0
C225 C 0.80936 0.28669 0.43312 0.0
H226 H 0.84304 0.32128 0.47099 0.0
H227 H 0.82573 0.31367 0.36011 0.0
C228 C 0.87001 0.37796 0.29556 0.0
N229 N 0.86072 0.37665 0.32615 0.0
C230 C 0.86963 0.387 0.2647 0.0
C231 C 0.85 0.393 0.29737 0.0
C232 C 0.85078 0.38385 0.3276 0.0
C233 C 0.85962 0.39478 0.26547 0.0
H234 H 0.87803 0.37231 0.29555 0.0
H235 H 0.84371 0.38276 0.35256 0.0
O236 O 0.86853 0.35006 0.4491 0.0
O237 O 0.88312 0.38193 0.40179 0.0
O238 O 0.86785 0.34752 0.36144 0.0
O239 O 0.84454 0.35841 0.40539 0.0
H240 H 0.88659 0.37042 0.50404 0.0
H241 H 0.87501 0.32483 0.44456 0.0
H242 H 0.90666 0.36635 0.5433 0.0
H243 H 0.89539 0.32162 0.48469 0.0
H244 H 0.89014 0.4311 0.35303 0.0
H245 H 0.90786 0.3879 0.35485 0.0
H246 H 0.876 0.40673 0.39635 0.0
H247 H 0.92146 0.41261 0.31234 0.0
H248 H 0.94159 0.38585 0.44668 0.0
H249 H 0.92726 0.34691 0.3631 0.0
H250 H 0.8432 0.37439 0.56041 0.0
H251 H 0.88487 0.42064 0.51582 0.0
H252 H 0.84958 0.34145 0.30037 0.0
H253 H 0.86978 0.32016 0.37796 0.0
H254 H 0.83696 0.31455 0.26469 0.0
H255 H 0.85674 0.29359 0.34099 0.0
H256 H 0.82845 0.34766 0.34128 0.0
H257 H 0.82236 0.34389 0.45987 0.0
H258 H 0.79772 0.32718 0.33459 0.0
H259 H 0.79176 0.32331 0.4511 0.0
H260 H 0.81991 0.29329 0.48873 0.0
H261 H 0.80271 0.28506 0.37477 0.0
H262 H 0.87747 0.38829 0.24095 0.0
H263 H 0.84199 0.39864 0.29901 0.0
Li264 Li 0.51431 0.88083 0.57511 0.0
Li265 Li 0.48797 0.86379 0.6128 0.0
Li266 Li 0.50384 0.85136 0.58085 0.0
Li267 Li 0.48815 0.86052 0.54583 0.0
C268 C 0.52419 0.8799 0.64382 0.0
N269 N 0.54993 0.90445 0.68677 0.0
C270 C 0.52036 0.887 0.67409 0.0
C271 C 0.54114 0.88519 0.63565 0.0
C272 C 0.53354 0.89941 0.69542 0.0
C273 C 0.55396 0.89765 0.6576 0.0
C274 C 0.48779 0.88961 0.55189 0.0
C275 C 0.46709 0.89705 0.53174 0.0
N276 N 0.47732 0.90585 0.50285 0.0
C277 C 0.49813 0.89876 0.52206 0.0
C278 C 0.47215 0.88875 0.55686 0.0
C279 C 0.4926 0.90688 0.49755 0.0
C280 C 0.54582 0.9072 0.54687 0.0
N281 N 0.53331 0.90297 0.5723 0.0
C282 C 0.54716 0.93112 0.59653 0.0
C283 C 0.53361 0.91455 0.59654 0.0
C284 C 0.56031 0.9359 0.57071 0.0
C285 C 0.55953 0.92377 0.54549 0.0
H286 H 0.54504 0.89781 0.5274 0.0
H287 H 0.52326 0.91086 0.61583 0.0
C288 C 0.47068 0.8506 0.67969 0.0
N289 N 0.47574 0.86355 0.65511 0.0
C290 C 0.46185 0.85022 0.71163 0.0
C291 C 0.46377 0.8766 0.69236 0.0
C292 C 0.4726 0.87648 0.66085 0.0
C293 C 0.45827 0.86334 0.71824 0.0
H294 H 0.47349 0.84055 0.67434 0.0
H295 H 0.47713 0.8868 0.64117 0.0
C296 C 0.51874 0.85668 0.51905 0.0
N297 N 0.53338 0.83889 0.49005 0.0
C298 C 0.50974 0.84341 0.49402 0.0
C299 C 0.53524 0.86096 0.52915 0.0
C300 C 0.51736 0.83457 0.47969 0.0
C301 C 0.5424 0.85179 0.51425 0.0
C302 C 0.46314 0.83088 0.57158 0.0
C303 C 0.46122 0.82138 0.53959 0.0
C304 C 0.44876 0.8285 0.59073 0.0
C305 C 0.44493 0.80977 0.52712 0.0
C306 C 0.43269 0.81674 0.57741 0.0
N307 N 0.43112 0.80771 0.54614 0.0
C308 C 0.52284 0.83787 0.61231 0.0
C309 C 0.5007 0.81887 0.57267 0.0
C310 C 0.52653 0.82523 0.62201 0.0
N311 N 0.50998 0.83443 0.58844 0.0
C312 C 0.50393 0.80583 0.58161 0.0
C313 C 0.51676 0.80885 0.60722 0.0
H314 H 0.52992 0.85027 0.62474 0.0
H315 H 0.49046 0.81641 0.55405 0.0
C316 C 0.48189 0.86149 0.46937 0.0
N317 N 0.47441 0.85771 0.50332 0.0
C318 C 0.47277 0.86135 0.43815 0.0
C319 C 0.44838 0.85335 0.47735 0.0
C320 C 0.45801 0.85381 0.50781 0.0
C321 C 0.45581 0.85732 0.44202 0.0
H322 H 0.49511 0.86513 0.4667 0.0
H323 H 0.45257 0.85165 0.53524 0.0
O324 O 0.51143 0.86789 0.62229 0.0
O325 O 0.49274 0.88111 0.57543 0.0
O326 O 0.51136 0.86523 0.53409 0.0
O327 O 0.47898 0.8423 0.58435 0.0
H328 H 0.50736 0.88307 0.68103 0.0
H329 H 0.5444 0.87998 0.6122 0.0
H330 H 0.53075 0.90505 0.71881 0.0
H331 H 0.56712 0.90197 0.65134 0.0
H332 H 0.45497 0.89641 0.5351 0.0
H333 H 0.51017 0.89936 0.51751 0.0
H334 H 0.46388 0.88151 0.57947 0.0
H335 H 0.50042 0.91391 0.47421 0.0
H336 H 0.54712 0.94023 0.61584 0.0
H337 H 0.5694 0.92706 0.52501 0.0
H338 H 0.45772 0.83969 0.73072 0.0
H339 H 0.46153 0.8871 0.69673 0.0
H340 H 0.49696 0.83987 0.48596 0.0
H341 H 0.54235 0.8711 0.54866 0.0
H342 H 0.5105 0.82422 0.46044 0.0
H343 H 0.5551 0.8549 0.52202 0.0
H344 H 0.47215 0.82319 0.52409 0.0
H345 H 0.44996 0.83573 0.61546 0.0
H346 H 0.44327 0.80245 0.50225 0.0
H347 H 0.42146 0.81483 0.59189 0.0
H348 H 0.53667 0.82816 0.64153 0.0
H349 H 0.49593 0.79334 0.56991 0.0
H350 H 0.47896 0.86453 0.41134 0.0
H351 H 0.43546 0.85056 0.48162 0.0
Li352 Li 0.63412 0.51935 0.72573 0.0
Li353 Li 0.62325 0.4926 0.75909 0.0
Li354 Li 0.65207 0.50665 0.7304 0.0
Li355 Li 0.6265 0.49217 0.69212 0.0
C356 C 0.65169 0.52947 0.79079 0.0
N357 N 0.66873 0.55944 0.83022 0.0
C358 C 0.64514 0.53133 0.82439 0.0
C359 C 0.667 0.54277 0.77746 0.0
C360 C 0.65391 0.54661 0.84385 0.0
C361 C 0.6754 0.55784 0.79774 0.0
C362 C 0.59494 0.48959 0.73026 0.0
C363 C 0.56882 0.46301 0.73687 0.0
N364 N 0.56133 0.47142 0.75155 0.0
C365 C 0.58696 0.498 0.74509 0.0
C366 C 0.58578 0.47198 0.72582 0.0
C367 C 0.56997 0.48857 0.7558 0.0
C368 C 0.63936 0.55037 0.69532 0.0
N369 N 0.63351 0.53976 0.72498 0.0
C370 C 0.62477 0.55747 0.75511 0.0
C371 C 0.6264 0.54305 0.75461 0.0
C372 C 0.63038 0.56855 0.7246 0.0
C373 C 0.63795 0.56496 0.69458 0.0
H374 H 0.64474 0.54729 0.67191 0.0
H375 H 0.62156 0.53418 0.77745 0.0
C376 C 0.60979 0.4658 0.81091 0.0
N377 N 0.61046 0.48054 0.80108 0.0
C378 C 0.60071 0.45696 0.84228 0.0
C379 C 0.59333 0.47873 0.85295 0.0
C380 C 0.60258 0.48716 0.82142 0.0
C381 C 0.59233 0.46342 0.86379 0.0
H382 H 0.6165 0.46104 0.7947 0.0
H383 H 0.60357 0.49906 0.81323 0.0
C384 C 0.66018 0.52271 0.66182 0.0
N385 N 0.6878 0.53755 0.61472 0.0
C386 C 0.66162 0.51335 0.63274 0.0
C387 C 0.67269 0.53969 0.66667 0.0
C388 C 0.6757 0.52107 0.60927 0.0
C389 C 0.68659 0.54694 0.64267 0.0
C390 C 0.63377 0.46784 0.7173 0.0
C391 C 0.6484 0.46849 0.70325 0.0
C392 C 0.61851 0.4524 0.71766 0.0
C393 C 0.64746 0.4537 0.68939 0.0
C394 C 0.61808 0.43789 0.70348 0.0
N395 N 0.63244 0.43884 0.68974 0.0
C396 C 0.67758 0.51116 0.77728 0.0
C397 C 0.68647 0.51407 0.71463 0.0
C398 C 0.69329 0.51401 0.78948 0.0
N399 N 0.67448 0.51131 0.7405 0.0
C400 C 0.70239 0.51689 0.72561 0.0
C401 C 0.70591 0.51685 0.76351 0.0
H402 H 0.66771 0.50856 0.79723 0.0
H403 H 0.68366 0.51372 0.68554 0.0
C404 C 0.60244 0.48076 0.63577 0.0
N405 N 0.61585 0.47949 0.64825 0.0
C406 C 0.59326 0.47152 0.60489 0.0
C407 C 0.6121 0.4601 0.59943 0.0
C408 C 0.62095 0.46962 0.63042 0.0
C409 C 0.59798 0.46091 0.58643 0.0
H410 H 0.59877 0.48888 0.65003 0.0
H411 H 0.63193 0.46915 0.63998 0.0
O412 O 0.64315 0.51469 0.7711 0.0
O413 O 0.61165 0.49855 0.72018 0.0
O414 O 0.64638 0.51541 0.68479 0.0
O415 O 0.63449 0.48218 0.73125 0.0
H416 H 0.63335 0.52113 0.83521 0.0
H417 H 0.67234 0.54144 0.75179 0.0
H418 H 0.64894 0.54827 0.86978 0.0
H419 H 0.68724 0.56825 0.78768 0.0
H420 H 0.5616 0.44936 0.73375 0.0
H421 H 0.59383 0.51163 0.74848 0.0
H422 H 0.59173 0.46533 0.71401 0.0
H423 H 0.56365 0.4949 0.76752 0.0
H424 H 0.6185 0.55951 0.77843 0.0
H425 H 0.64244 0.57318 0.67055 0.0
H426 H 0.60055 0.44538 0.85 0.0
H427 H 0.58696 0.4841 0.86852 0.0
H428 H 0.65205 0.50025 0.62844 0.0
H429 H 0.67167 0.54723 0.68863 0.0
H430 H 0.67702 0.51394 0.58677 0.0
H431 H 0.69639 0.56004 0.6462 0.0
H432 H 0.66032 0.48029 0.70278 0.0
H433 H 0.6071 0.45159 0.72879 0.0
H434 H 0.65867 0.45404 0.67828 0.0
H435 H 0.60633 0.42588 0.70345 0.0
H436 H 0.69534 0.51348 0.81891 0.0
H437 H 0.71178 0.51899 0.70472 0.0
H438 H 0.58239 0.47245 0.596 0.0
H439 H 0.61637 0.45234 0.58559 0.0
Li440 Li 0.12634 0.63029 0.86015 0.0
Li441 Li 0.13683 0.65501 0.90053 0.0
Li442 Li 0.12257 0.62628 0.92586 0.0
Li443 Li 0.107 0.63735 0.89177 0.0
C444 C 0.15415 0.63429 0.91997 0.0
N445 N 0.17291 0.62635 0.96767 0.0
C446 C 0.16542 0.64642 0.94502 0.0
C447 C 0.15248 0.61816 0.91908 0.0
C448 C 0.1748 0.64215 0.9689 0.0
C449 C 0.16205 0.61438 0.94347 0.0
C450 C 0.13298 0.6656 0.83539 0.0
C451 C 0.14165 0.69518 0.82783 0.0
N452 N 0.15244 0.6964 0.80034 0.0
C453 C 0.14409 0.66711 0.80697 0.0
C454 C 0.13166 0.6797 0.84582 0.0
C455 C 0.15383 0.68281 0.7896 0.0
C456 C 0.11965 0.61888 0.78624 0.0
N457 N 0.12999 0.62145 0.81563 0.0
C458 C 0.14392 0.60903 0.78303 0.0
C459 C 0.14221 0.61705 0.81436 0.0
C460 C 0.13296 0.60555 0.75273 0.0
C461 C 0.12086 0.61083 0.7544 0.0
H462 H 0.11012 0.62264 0.78802 0.0
H463 H 0.15045 0.61952 0.83789 0.0
C464 C 0.15403 0.68502 0.94153 0.0
N465 N 0.15482 0.67722 0.9101 0.0
C466 C 0.16791 0.70035 0.9526 0.0
C467 C 0.18302 0.69959 0.89815 0.0
C468 C 0.16888 0.68416 0.88831 0.0
C469 C 0.18278 0.70771 0.93115 0.0
H470 H 0.14292 0.67896 0.95896 0.0
H471 H 0.16931 0.67743 0.86401 0.0
C472 C 0.09723 0.6016 0.86351 0.0
N473 N 0.08203 0.57573 0.81208 0.0
C474 C 0.08382 0.60006 0.8418 0.0
C475 C 0.10286 0.58992 0.8592 0.0
C476 C 0.0763 0.58689 0.81595 0.0
C477 C 0.09504 0.57697 0.83297 0.0
C478 C 0.1085 0.64812 0.96024 0.0
C479 C 0.09863 0.63628 0.98731 0.0
C480 C 0.1066 0.66225 0.95396 0.0
C481 C 0.08692 0.63872 0.00749 0.0
C482 C 0.09472 0.66421 0.97467 0.0
N483 N 0.08521 0.6525 0.00078 0.0
C484 C 0.12979 0.62187 -0.00116 0.0
C485 C 0.1141 0.59607 0.96577 0.0
C486 C 0.13007 0.61312 0.03029 0.0
N487 N 0.12196 0.61327 0.96745 0.0
C488 C 0.11416 0.58679 0.99653 0.0
C489 C 0.12225 0.59533 0.02938 0.0
H490 H 0.13581 0.63557 -0.00063 0.0
H491 H 0.10789 0.58956 0.94052 0.0
C492 C 0.08322 0.64699 0.86696 0.0
N493 N 0.0859 0.63656 0.88943 0.0
C494 C 0.06734 0.64587 0.86624 0.0
C495 C 0.05756 0.62354 0.91214 0.0
C496 C 0.07345 0.62487 0.91147 0.0
C497 C 0.05434 0.63408 0.88925 0.0
H498 H 0.09334 0.65604 0.84944 0.0
H499 H 0.07591 0.61654 0.92845 0.0
O500 O 0.14452 0.63807 0.89702 0.0
O501 O 0.12345 0.65039 0.85296 0.0
O502 O 0.10497 0.61459 0.8885 0.0
O503 O 0.11982 0.6458 0.93968 0.0
H504 H 0.16682 0.65893 0.94632 0.0
H505 H 0.14363 0.60853 0.90027 0.0
H506 H 0.18352 0.65139 0.98852 0.0
H507 H 0.16077 0.6019 0.9433 0.0
H508 H 0.14084 0.70622 0.83576 0.0
H509 H 0.14529 0.65634 0.7986 0.0
H510 H 0.12314 0.67873 0.8678 0.0
H511 H 0.16254 0.6842 0.76767 0.0
H512 H 0.15366 0.60551 0.78264 0.0
H513 H 0.11205 0.60829 0.73187 0.0
H514 H 0.16724 0.7059 0.97866 0.0
H515 H 0.19415 0.70486 0.88059 0.0
H516 H 0.07936 0.60901 0.84457 0.0
H517 H 0.11338 0.59107 0.87536 0.0
H518 H 0.06595 0.58558 0.79886 0.0
H519 H 0.09937 0.56795 0.8291 0.0
H520 H 0.09982 0.6252 0.99235 0.0
H521 H 0.11408 0.67149 0.933 0.0
H522 H 0.07913 0.62961 0.02838 0.0
H523 H 0.09304 0.67502 0.96993 0.0
H524 H 0.13619 0.62023 0.05515 0.0
H525 H 0.10813 0.57311 0.9944 0.0
H526 H 0.06522 0.6541 0.84802 0.0
H527 H 0.04773 0.61402 0.92961 0.0
Li528 Li 0.8503 0.50578 0.90519 0.0
Li529 Li 0.8645 0.49502 0.94077 0.0
Li530 Li 0.88095 0.52213 0.90465 0.0
Li531 Li 0.86513 0.49339 0.87496 0.0
C532 C 0.85904 0.52627 0.96417 0.0
N533 N 0.84563 0.54444 0.99701 0.0
C534 C 0.84342 0.51778 0.98242 0.0
C535 C 0.8679 0.544 0.96287 0.0
C536 C 0.83683 0.5272 -0.00125 0.0
C537 C 0.86089 0.55296 0.9796 0.0
C538 C 0.83593 0.46819 0.92923 0.0
C539 C 0.83124 0.44175 0.95526 0.0
N540 N 0.81846 0.4409 0.97638 0.0
C541 C 0.82273 0.46703 0.95118 0.0
C542 C 0.8402 0.45542 0.9312 0.0
C543 C 0.81404 0.45313 0.97481 0.0
C544 C 0.81669 0.49439 0.88566 0.0
N545 N 0.83098 0.50836 0.89779 0.0
C546 C 0.81896 0.52592 0.885 0.0
C547 C 0.83229 0.52393 0.89799 0.0
C548 C 0.80432 0.5118 0.8711 0.0
C549 C 0.80311 0.49581 0.8723 0.0
H550 H 0.81621 0.48229 0.88435 0.0
H551 H 0.84406 0.53499 0.90588 0.0
C552 C 0.87524 0.47727 0.98697 0.0
N553 N 0.86486 0.48399 0.98548 0.0
C554 C 0.87491 0.46778 0.01762 0.0
C555 C 0.85369 0.47287 0.04547 0.0
C556 C 0.85442 0.48224 0.01418 0.0
C557 C 0.86386 0.46529 0.04719 0.0
H558 H 0.88361 0.47905 0.9641 0.0
H559 H 0.84632 0.48772 0.01237 0.0
C560 C 0.85673 0.5176 0.83559 0.0
N561 N 0.83706 0.52287 0.78493 0.0
C562 C 0.84444 0.50403 0.81487 0.0
C563 C 0.85906 0.53387 0.83044 0.0
C564 C 0.83461 0.50695 0.78943 0.0
C565 C 0.84899 0.53626 0.80469 0.0
C566 C 0.89554 0.49859 0.8898 0.0
C567 C 0.90988 0.51145 0.87209 0.0
C568 C 0.89188 0.48175 0.88677 0.0
C569 C 0.92024 0.50724 0.85141 0.0
C570 C 0.90253 0.47806 0.86577 0.0
N571 N 0.91637 0.49077 0.84867 0.0
C572 C 0.91105 0.54901 0.93225 0.0
C573 C 0.90473 0.55274 0.87039 0.0
C574 C 0.92665 0.56399 0.9304 0.0
N575 N 0.90063 0.54363 0.90232 0.0
C576 C 0.92014 0.56788 0.8674 0.0
C577 C 0.93152 0.5735 0.8974 0.0
H578 H 0.90747 0.54132 0.95708 0.0
H579 H 0.89631 0.54795 0.84681 0.0
C580 C 0.85378 0.46428 0.82949 0.0
N581 N 0.86534 0.48106 0.83268 0.0
C582 C 0.85371 0.45524 0.79817 0.0
C583 C 0.87723 0.48103 0.77368 0.0
C584 C 0.87684 0.48956 0.80549 0.0
C585 C 0.86556 0.46362 0.76973 0.0
H586 H 0.84446 0.45796 0.851 0.0
H587 H 0.8857 0.50299 0.80857 0.0
O588 O 0.86578 0.51732 0.94816 0.0
O589 O 0.84484 0.48191 0.9065 0.0
O590 O 0.86609 0.51488 0.86152 0.0
O591 O 0.88508 0.50243 0.9097 0.0
H592 H 0.83632 0.50409 0.98345 0.0
H593 H 0.88001 0.55079 0.94894 0.0
H594 H 0.82469 0.52079 0.01271 0.0
H595 H 0.86758 0.56668 0.97869 0.0
H596 H 0.83451 0.43187 0.95728 0.0
H597 H 0.81933 0.47684 0.95037 0.0
H598 H 0.85052 0.4562 0.91487 0.0
H599 H 0.80385 0.45212 0.99206 0.0
H600 H 0.82051 0.53852 0.88387 0.0
H601 H 0.79198 0.48459 0.86197 0.0
H602 H 0.8832 0.46245 0.01814 0.0
H603 H 0.84491 0.47116 0.06755 0.0
H604 H 0.84227 0.49131 0.81886 0.0
H605 H 0.8683 0.54447 0.84671 0.0
H606 H 0.82496 0.49654 0.77343 0.0
H607 H 0.85057 0.54876 0.80063 0.0
H608 H 0.91297 0.52454 0.87407 0.0
H609 H 0.88076 0.4716 0.8999 0.0
H610 H 0.93134 0.51707 0.83747 0.0
H611 H 0.89975 0.46508 0.86294 0.0
H612 H 0.9351 0.56758 0.95398 0.0
H613 H 0.92329 0.57485 0.84155 0.0
H614 H 0.84426 0.44193 0.79591 0.0
H615 H 0.88665 0.48796 0.75256 0.0
Li616 Li 0.33791 0.85002 0.08125 0.0
Li617 Li 0.3628 0.8648 0.11625 0.0
Li618 Li 0.35234 0.88079 0.07808 0.0
Li619 Li 0.36506 0.86442 0.05062 0.0
C620 C 0.32576 0.85969 0.13664 0.0
N621 N 0.29335 0.84639 0.1649 0.0
C622 C 0.31836 0.84446 0.1565 0.0
C623 C 0.31672 0.86823 0.13143 0.0
C624 C 0.30194 0.83791 0.17045 0.0
C625 C 0.30034 0.86128 0.14588 0.0
C626 C 0.36183 0.83661 0.1075 0.0
C627 C 0.38424 0.8326 0.13205 0.0
N628 N 0.37318 0.82129 0.15704 0.0
C629 C 0.35069 0.82491 0.1334 0.0
C630 C 0.37874 0.84046 0.10676 0.0
C631 C 0.35667 0.81731 0.15819 0.0
C632 C 0.31479 0.8154 0.06978 0.0
N633 N 0.31594 0.83075 0.07479 0.0
C634 C 0.2871 0.81953 0.05623 0.0
C635 C 0.30243 0.83298 0.06881 0.0
C636 C 0.28572 0.80367 0.04953 0.0
C637 C 0.29967 0.80158 0.05749 0.0
H638 H 0.32586 0.8141 0.07326 0.0
H639 H 0.30387 0.84546 0.07141 0.0
C640 C 0.39139 0.87417 0.16129 0.0
N641 N 0.37417 0.86583 0.16146 0.0
C642 C 0.4003 0.87408 0.1926 0.0
C643 C 0.3736 0.85738 0.2244 0.0
C644 C 0.3652 0.85775 0.19233 0.0
C645 C 0.3914 0.86546 0.22466 0.0
H646 H 0.39822 0.88055 0.13651 0.0
H647 H 0.35152 0.85131 0.19184 0.0
C648 C 0.33345 0.85523 0.00924 0.0
N649 N 0.31051 0.83467 0.95605 0.0
C650 C 0.33458 0.84167 0.99416 0.0
C651 C 0.32065 0.85834 0.99726 0.0
C652 C 0.32286 0.83141 0.96732 0.0
C653 C 0.30918 0.8478 0.97032 0.0
C654 C 0.39048 0.89527 0.06423 0.0
C655 C 0.39246 0.91005 0.04767 0.0
C656 C 0.40332 0.89118 0.0605 0.0
C657 C 0.40715 0.92038 0.02736 0.0
C658 C 0.4178 0.90181 0.0399 0.0
N659 N 0.4194 0.91607 0.02388 0.0
C660 C 0.35467 0.91102 0.10272 0.0
C661 C 0.3471 0.90463 0.03943 0.0
C662 C 0.35571 0.92677 0.09881 0.0
N663 N 0.3507 0.90051 0.07309 0.0
C664 C 0.3479 0.92021 0.03429 0.0
C665 C 0.35267 0.93171 0.06401 0.0
H666 H 0.35768 0.90743 0.12899 0.0
H667 H 0.34433 0.89613 0.01621 0.0
C668 C 0.38178 0.85201 0.0044 0.0
N669 N 0.37733 0.86414 0.0083 0.0
C670 C 0.39059 0.85178 0.97296 0.0
C671 C 0.38972 0.87628 0.94981 0.0
C672 C 0.38088 0.876 0.98164 0.0
C673 C 0.39472 0.86406 0.94518 0.0
H674 H 0.37825 0.84236 0.02539 0.0
H675 H 0.37688 0.88528 0.98522 0.0
O676 O 0.34181 0.86631 0.12267 0.0
O677 O 0.35632 0.84455 0.08366 0.0
O678 O 0.34443 0.86503 0.03656 0.0
O679 O 0.37608 0.8849 0.08393 0.0
H680 H 0.3251 0.83762 0.16065 0.0
H681 H 0.32221 0.88002 0.11616 0.0
H682 H 0.29602 0.82607 0.18563 0.0
H683 H 0.29318 0.86772 0.14191 0.0
H684 H 0.39732 0.83557 0.13196 0.0
H685 H 0.33761 0.82189 0.13474 0.0
H686 H 0.38764 0.84966 0.0874 0.0
H687 H 0.3482 0.80831 0.17849 0.0
H688 H 0.27681 0.82183 0.04977 0.0
H689 H 0.29913 0.78954 0.05308 0.0
H690 H 0.414 0.88031 0.19129 0.0
H691 H 0.36623 0.85081 0.24865 0.0
H692 H 0.34417 0.83884 0.00365 0.0
H693 H 0.31937 0.86857 0.00911 0.0
H694 H 0.32352 0.8208 0.95562 0.0
H695 H 0.29916 0.85 0.96093 0.0
H696 H 0.38279 0.91355 0.05037 0.0
H697 H 0.40197 0.87971 0.07263 0.0
H698 H 0.4088 0.93182 0.01432 0.0
H699 H 0.42773 0.89868 0.03649 0.0
H700 H 0.35975 0.93531 0.12232 0.0
H701 H 0.34535 0.92344 0.00708 0.0
H702 H 0.39384 0.84189 0.97013 0.0
H703 H 0.39273 0.88605 0.92925 0.0
Li704 Li 0.48336 0.34066 0.22275 0.0
Li705 Li 0.49702 0.36549 0.26298 0.0
Li706 Li 0.47047 0.35783 0.22774 0.0
Li707 Li 0.49768 0.36986 0.19518 0.0
C708 C 0.46784 0.33015 0.28672 0.0
N709 N 0.45583 0.29942 0.32256 0.0
C710 C 0.47696 0.32864 0.31618 0.0
C711 C 0.45254 0.3161 0.2757 0.0
C712 C 0.47069 0.31298 0.33391 0.0
C713 C 0.44671 0.30065 0.29409 0.0
C714 C 0.52459 0.36373 0.22817 0.0
C715 C 0.55398 0.38568 0.22455 0.0
N716 N 0.55869 0.37438 0.23589 0.0
C717 C 0.52975 0.35228 0.23927 0.0
C718 C 0.53682 0.38052 0.2203 0.0
C719 C 0.54703 0.35792 0.24322 0.0
C720 C 0.47084 0.31034 0.18308 0.0
N721 N 0.47943 0.3184 0.21433 0.0
C722 C 0.48427 0.29555 0.2288 0.0
C723 C 0.48595 0.31128 0.23739 0.0
C724 C 0.47574 0.28711 0.19628 0.0
C725 C 0.46872 0.29455 0.17362 0.0
H726 H 0.46607 0.31639 0.16484 0.0
H727 H 0.49275 0.31798 0.26202 0.0
C728 C 0.50468 0.38555 0.32626 0.0
N729 N 0.50894 0.37518 0.30784 0.0
C730 C 0.51374 0.3944 0.35762 0.0
C731 C 0.53091 0.38109 0.35161 0.0
C732 C 0.5215 0.3725 0.32031 0.0
C733 C 0.52726 0.39246 0.37031 0.0
H734 H 0.49445 0.38723 0.31603 0.0
H735 H 0.52439 0.3639 0.30579 0.0
C736 C 0.46266 0.34649 0.15852 0.0
N737 N 0.43584 0.34055 0.113 0.0
C738 C 0.46524 0.35711 0.12828 0.0
C739 C 0.44648 0.33272 0.16534 0.0
C740 C 0.4515 0.35392 0.10564 0.0
C741 C 0.43308 0.32997 0.1421 0.0
C742 C 0.49956 0.39785 0.23571 0.0
C743 C 0.49132 0.40689 0.22698 0.0
C744 C 0.5166 0.40668 0.2464 0.0
C745 C 0.50035 0.42461 0.2283 0.0
C746 C 0.52519 0.4244 0.24745 0.0
N747 N 0.51697 0.43293 0.23838 0.0
C748 C 0.43729 0.34887 0.25265 0.0
C749 C 0.44826 0.36823 0.20243 0.0
C750 C 0.42229 0.34956 0.25218 0.0
N751 N 0.44987 0.3582 0.22805 0.0
C752 C 0.43349 0.36916 0.20069 0.0
C753 C 0.4203 0.35984 0.22591 0.0
H754 H 0.43897 0.34104 0.27281 0.0
H755 H 0.45854 0.37559 0.18342 0.0
C756 C 0.51941 0.3772 0.13493 0.0
N757 N 0.5105 0.38301 0.15415 0.0
C758 C 0.52867 0.38584 0.10359 0.0
C759 C 0.51925 0.40621 0.11218 0.0
C760 C 0.51016 0.39715 0.14336 0.0
C761 C 0.52862 0.40053 0.09179 0.0
H762 H 0.51925 0.36578 0.14393 0.0
H763 H 0.50255 0.4012 0.15838 0.0
O764 O 0.47387 0.34533 0.26879 0.0
O765 O 0.50768 0.35834 0.22403 0.0
O766 O 0.47592 0.34955 0.1813 0.0
O767 O 0.49085 0.38047 0.23457 0.0
H768 H 0.48881 0.33941 0.3251 0.0
H769 H 0.44531 0.31708 0.25302 0.0
H770 H 0.47765 0.31159 0.35664 0.0
H771 H 0.43494 0.28964 0.28571 0.0
H772 H 0.56356 0.39865 0.21863 0.0
H773 H 0.52053 0.33919 0.24502 0.0
H774 H 0.53318 0.38945 0.2105 0.0
H775 H 0.55117 0.34922 0.25208 0.0
H776 H 0.48977 0.29015 0.24707 0.0
H777 H 0.46229 0.28857 0.14801 0.0
H778 H 0.51026 0.40275 0.37163 0.0
H779 H 0.54124 0.37922 0.36038 0.0
H780 H 0.47767 0.36776 0.12245 0.0
H781 H 0.44428 0.32436 0.18858 0.0
H782 H 0.45329 0.36209 0.08226 0.0
H783 H 0.42047 0.31945 0.14724 0.0
H784 H 0.47809 0.40032 0.21918 0.0
H785 H 0.52307 0.39997 0.25442 0.0
H786 H 0.49414 0.43175 0.22138 0.0
H787 H 0.53838 0.43137 0.25566 0.0
H788 H 0.41241 0.34223 0.27214 0.0
H789 H 0.43263 0.37752 0.18053 0.0
H790 H 0.53583 0.38111 0.08885 0.0
H791 H 0.51861 0.41728 0.10362 0.0
Li792 Li 0.13024 0.50562 0.42927 0.0
Li793 Li 0.14292 0.49321 0.3942 0.0
Li794 Li 0.12779 0.50489 0.36203 0.0
Li795 Li 0.11265 0.47771 0.40103 0.0
C796 C 0.16322 0.5285 0.40883 0.0
N797 N 0.19322 0.55143 0.44294 0.0
C798 C 0.16925 0.52348 0.43907 0.0
C799 C 0.17246 0.54518 0.39587 0.0
C800 C 0.18444 0.53525 0.45595 0.0
C801 C 0.1876 0.55659 0.41351 0.0
C802 C 0.13279 0.47332 0.46057 0.0
C803 C 0.12849 0.44529 0.47183 0.0
N804 N 0.13893 0.45133 0.50177 0.0
C805 C 0.14328 0.47919 0.49179 0.0
C806 C 0.12516 0.45618 0.45077 0.0
C807 C 0.1463 0.4679 0.51211 0.0
C808 C 0.12623 0.51126 0.5045 0.0
N809 N 0.13197 0.51898 0.47118 0.0
C810 C 0.13912 0.54591 0.49703 0.0
C811 C 0.13837 0.53594 0.46691 0.0
C812 C 0.13317 0.53831 0.53184 0.0
C813 C 0.12671 0.52074 0.5354 0.0
H814 H 0.12103 0.4977 0.50689 0.0
H815 H 0.14268 0.5417 0.43995 0.0
C816 C 0.17406 0.50322 0.36266 0.0
N817 N 0.1627 0.49136 0.3863 0.0
C818 C 0.1885 0.50276 0.35186 0.0
C819 C 0.17936 0.47778 0.38979 0.0
C820 C 0.16507 0.47877 0.4 0.0
C821 C 0.19124 0.48988 0.36532 0.0
H822 H 0.17164 0.5128 0.35124 0.0
H823 H 0.15578 0.46924 0.41803 0.0
C824 C 0.10267 0.50685 0.41546 0.0
N825 N 0.09053 0.52557 0.45095 0.0
C826 C 0.09159 0.49993 0.4455 0.0
C827 C 0.10751 0.52325 0.40335 0.0
C828 C 0.08562 0.50961 0.46313 0.0
C829 C 0.10124 0.53251 0.42167 0.0
C830 C 0.13331 0.47587 0.33187 0.0
C831 C 0.14292 0.48518 0.30136 0.0
C832 C 0.13191 0.4602 0.34002 0.0
C833 C 0.15122 0.47876 0.27983 0.0
C834 C 0.14041 0.45422 0.31784 0.0
N835 N 0.14982 0.46356 0.28849 0.0
C836 C 0.14142 0.52734 0.30252 0.0
C837 C 0.11141 0.51307 0.30617 0.0
C838 C 0.14122 0.53603 0.27086 0.0
N839 N 0.12666 0.51614 0.31931 0.0
C840 C 0.11061 0.52158 0.27472 0.0
C841 C 0.12566 0.53326 0.25661 0.0
H842 H 0.15335 0.52941 0.31363 0.0
H843 H 0.09989 0.50412 0.32034 0.0
C844 C 0.08311 0.45249 0.43564 0.0
N845 N 0.09246 0.45664 0.40407 0.0
C846 C 0.06715 0.43792 0.43683 0.0
C847 C 0.07136 0.43161 0.37387 0.0
C848 C 0.08712 0.44644 0.37373 0.0
C849 C 0.06088 0.42745 0.4053 0.0
H850 H 0.08782 0.46082 0.45943 0.0
H851 H 0.09487 0.45009 0.34902 0.0
O852 O 0.14832 0.51724 0.39196 0.0
O853 O 0.12943 0.48416 0.44085 0.0
O854 O 0.1091 0.4978 0.3986 0.0
O855 O 0.12553 0.4822 0.35393 0.0
H856 H 0.1623 0.51062 0.44925 0.0
H857 H 0.16793 0.54927 0.37252 0.0
H858 H 0.18925 0.53152 0.47938 0.0
H859 H 0.19487 0.56955 0.40383 0.0
H860 H 0.12278 0.43203 0.46437 0.0
H861 H 0.14894 0.49231 0.50042 0.0
H862 H 0.11689 0.45133 0.42702 0.0
H863 H 0.15446 0.4723 0.53621 0.0
H864 H 0.14438 0.55942 0.49309 0.0
H865 H 0.12175 0.51432 0.56156 0.0
H866 H 0.19716 0.51213 0.33232 0.0
H867 H 0.18106 0.46766 0.40085 0.0
H868 H 0.08779 0.48731 0.45538 0.0
H869 H 0.11625 0.52888 0.38045 0.0
H870 H 0.07712 0.50446 0.48656 0.0
H871 H 0.10497 0.54526 0.41274 0.0
H872 H 0.14414 0.49731 0.29463 0.0
H873 H 0.12451 0.45281 0.36345 0.0
H874 H 0.15881 0.4859 0.25632 0.0
H875 H 0.13955 0.44218 0.32403 0.0
H876 H 0.15312 0.54467 0.25752 0.0
H877 H 0.09835 0.51922 0.26509 0.0
H878 H 0.05952 0.43541 0.46156 0.0
H879 H 0.06724 0.42379 0.34919 0.0
Li880 Li 0.62659 0.13346 0.60958 0.0
Li881 Li 0.6501 0.14571 0.56935 0.0
Li882 Li 0.62232 0.13198 0.54343 0.0
Li883 Li 0.63378 0.11555 0.57311 0.0
C884 C 0.62163 0.15846 0.57793 0.0
N885 N 0.59922 0.17047 0.5846 0.0
C886 C 0.6274 0.1758 0.57439 0.0
C887 C 0.60445 0.14722 0.58486 0.0
C888 C 0.61588 0.18163 0.57785 0.0
C889 C 0.59333 0.15355 0.58814 0.0
C890 C 0.65699 0.14116 0.64236 0.0
C891 C 0.6729 0.1444 0.6982 0.0
N892 N 0.67628 0.1607 0.70127 0.0
C893 C 0.66064 0.15796 0.64605 0.0
C894 C 0.66318 0.13432 0.66861 0.0
C895 C 0.6704 0.16763 0.67602 0.0
C896 C 0.60611 0.12016 0.67228 0.0
N897 N 0.61733 0.13496 0.65561 0.0
C898 C 0.61319 0.15101 0.70272 0.0
C899 C 0.62114 0.15024 0.67028 0.0
C900 C 0.6012 0.1359 0.72014 0.0
C901 C 0.59784 0.12033 0.70471 0.0
H902 H 0.60335 0.10821 0.65992 0.0
H903 H 0.63013 0.16183 0.65645 0.0
C904 C 0.6723 0.17636 0.53736 0.0
N905 N 0.67195 0.16413 0.55946 0.0
C906 C 0.68764 0.1892 0.52349 0.0
C907 C 0.70204 0.17681 0.55615 0.0
C908 C 0.68638 0.16427 0.56975 0.0
C909 C 0.70275 0.1893 0.53204 0.0
H910 H 0.66055 0.17576 0.52944 0.0
H911 H 0.68564 0.1542 0.587 0.0
C912 C 0.59898 0.09847 0.56396 0.0
N913 N 0.57486 0.06849 0.53156 0.0
C914 C 0.60151 0.09421 0.52818 0.0
C915 C 0.58417 0.08748 0.58321 0.0
C916 C 0.58917 0.079 0.51231 0.0
C917 C 0.57212 0.07238 0.56635 0.0
C918 C 0.65625 0.13264 0.50973 0.0
C919 C 0.66033 0.1408 0.47533 0.0
C920 C 0.66752 0.12843 0.52646 0.0
C921 C 0.67564 0.14467 0.45832 0.0
C922 C 0.68268 0.13247 0.5085 0.0
N923 N 0.68641 0.14046 0.47511 0.0
C924 C 0.61723 0.14266 0.47477 0.0
C925 C 0.59154 0.12342 0.50481 0.0
C926 C 0.60838 0.143 0.44355 0.0
N927 N 0.60877 0.13262 0.50408 0.0
C928 C 0.58215 0.12345 0.47426 0.0
C929 C 0.59062 0.13308 0.44284 0.0
H930 H 0.63087 0.15034 0.47563 0.0
H931 H 0.58506 0.11586 0.52885 0.0
C932 C 0.62772 0.08469 0.60297 0.0
N933 N 0.63283 0.09432 0.57179 0.0
C934 C 0.62437 0.06796 0.60206 0.0
C935 C 0.63239 0.07169 0.53735 0.0
C936 C 0.63533 0.08824 0.5394 0.0
C937 C 0.62639 0.06113 0.56869 0.0
H938 H 0.6255 0.0898 0.6281 0.0
H939 H 0.63895 0.096 0.51471 0.0
O940 O 0.63288 0.15269 0.57462 0.0
O941 O 0.64743 0.13134 0.61337 0.0
O942 O 0.61096 0.11317 0.58047 0.0
O943 O 0.64156 0.12918 0.52748 0.0
H944 H 0.64066 0.18467 0.56907 0.0
H945 H 0.59971 0.13378 0.58788 0.0
H946 H 0.62018 0.19502 0.57519 0.0
H947 H 0.58002 0.14499 0.59354 0.0
H948 H 0.67776 0.13926 0.71873 0.0
H949 H 0.65601 0.16352 0.62605 0.0
H950 H 0.66046 0.12133 0.66613 0.0
H951 H 0.6733 0.18063 0.67922 0.0
H952 H 0.61635 0.16329 0.71392 0.0
H953 H 0.58854 0.10837 0.71689 0.0
H954 H 0.68761 0.19877 0.50573 0.0
H955 H 0.71333 0.1763 0.56322 0.0
H956 H 0.61284 0.10254 0.51273 0.0
H957 H 0.582 0.09057 0.6109 0.0
H958 H 0.59098 0.07555 0.48467 0.0
H959 H 0.56061 0.06376 0.58095 0.0
H960 H 0.65183 0.14415 0.46184 0.0
H961 H 0.66475 0.12239 0.55338 0.0
H962 H 0.67898 0.15104 0.43175 0.0
H963 H 0.69154 0.12936 0.52126 0.0
H964 H 0.61535 0.1509 0.4202 0.0
H965 H 0.56846 0.11564 0.47482 0.0
H966 H 0.61944 0.06026 0.62675 0.0
H967 H 0.63431 0.06708 0.51116 0.0
Li968 Li 0.50509 0.6507 0.73217 0.0
Li969 Li 0.4945 0.62596 0.76878 0.0
Li970 Li 0.52093 0.63633 0.73506 0.0
Li971 Li 0.49374 0.62382 0.70207 0.0
C972 C 0.51448 0.65575 0.80688 0.0
N973 N 0.51092 0.67185 0.86835 0.0
C974 C 0.5005 0.65813 0.80999 0.0
C975 C 0.52665 0.66157 0.83503 0.0
C976 C 0.49893 0.66629 0.84127 0.0
C977 C 0.52462 0.66968 0.86589 0.0
C978 C 0.46463 0.61971 0.73418 0.0
C979 C 0.44252 0.59046 0.73989 0.0
N980 N 0.43067 0.59523 0.7351 0.0
C981 C 0.45224 0.62431 0.72931 0.0
C982 C 0.45975 0.60264 0.73951 0.0
C983 C 0.43513 0.61176 0.72987 0.0
C984 C 0.49628 0.67241 0.69896 0.0
N985 N 0.50695 0.67215 0.72485 0.0
C986 C 0.52177 0.70237 0.72926 0.0
C987 C 0.51939 0.68664 0.74054 0.0
C988 C 0.51132 0.70305 0.70146 0.0
C989 C 0.49823 0.6878 0.68679 0.0
H990 H 0.48667 0.66064 0.68671 0.0
H991 H 0.52794 0.68605 0.76047 0.0
C992 C 0.48697 0.60369 0.82875 0.0
N993 N 0.48296 0.61479 0.81296 0.0
C994 C 0.47824 0.59447 0.86012 0.0
C995 C 0.46174 0.60862 0.85887 0.0
C996 C 0.47069 0.61747 0.82739 0.0
C997 C 0.46538 0.59684 0.87545 0.0
H998 H 0.49685 0.60191 0.81674 0.0
H999 H 0.46765 0.62627 0.81411 0.0
C1000 C 0.52599 0.66025 0.675 0.0
N1001 N 0.54711 0.6922 0.64612 0.0
C1002 C 0.52255 0.66471 0.64034 0.0
C1003 C 0.54024 0.67204 0.69488 0.0
C1004 C 0.53335 0.68093 0.62627 0.0
C1005 C 0.55076 0.68811 0.6798 0.0
C1006 C 0.50603 0.60196 0.72066 0.0
C1007 C 0.51367 0.60612 0.68567 0.0
C1008 C 0.50312 0.587 0.73797 0.0
C1009 C 0.51831 0.59524 0.66864 0.0
C1010 C 0.50792 0.57644 0.72 0.0
N1011 N 0.51536 0.58075 0.68601 0.0
C1012 C 0.54661 0.63154 0.76489 0.0
C1013 C 0.55162 0.64186 0.70317 0.0
C1014 C 0.56073 0.62936 0.76354 0.0
N1015 N 0.5422 0.63739 0.73472 0.0
C1016 C 0.56594 0.64013 0.70077 0.0
C1017 C 0.57037 0.63328 0.73079 0.0
H1018 H 0.53863 0.62774 0.7893 0.0
H1019 H 0.54758 0.64602 0.67918 0.0
C1020 C 0.47953 0.61936 0.6315 0.0
N1021 N 0.48115 0.61075 0.66046 0.0
C1022 C 0.47096 0.61075 0.59949 0.0
C1023 C 0.46516 0.58442 0.62839 0.0
C1024 C 0.47395 0.59357 0.65976 0.0
C1025 C 0.46372 0.59303 0.5975 0.0
H1026 H 0.48492 0.63294 0.63332 0.0
H1027 H 0.47499 0.58693 0.68355 0.0
O1028 O 0.51635 0.64772 0.77668 0.0
O1029 O 0.4814 0.63196 0.7336 0.0
O1030 O 0.51525 0.64464 0.69 0.0
O1031 O 0.5016 0.61252 0.73831 0.0
H1032 H 0.49096 0.65375 0.78853 0.0
H1033 H 0.53754 0.65981 0.83304 0.0
H1034 H 0.48816 0.66821 0.84403 0.0
H1035 H 0.53394 0.67424 0.88789 0.0
H1036 H 0.43857 0.57721 0.74402 0.0
H1037 H 0.45582 0.63748 0.72514 0.0
H1038 H 0.4691 0.59878 0.74345 0.0
H1039 H 0.42541 0.61515 0.72614 0.0
H1040 H 0.5321 0.71386 0.74097 0.0
H1041 H 0.48976 0.68778 0.6657 0.0
H1042 H 0.48157 0.58565 0.87232 0.0
H1043 H 0.45179 0.61068 0.86957 0.0
H1044 H 0.51165 0.65581 0.62445 0.0
H1045 H 0.54298 0.66891 0.72199 0.0
H1046 H 0.53079 0.68457 0.59956 0.0
H1047 H 0.56175 0.69737 0.69501 0.0
H1048 H 0.51601 0.6176 0.67171 0.0
H1049 H 0.49721 0.58358 0.76502 0.0
H1050 H 0.52425 0.59832 0.64161 0.0
H1051 H 0.50575 0.56483 0.7331 0.0
H1052 H 0.56343 0.62374 0.78713 0.0
H1053 H 0.57308 0.6435 0.67513 0.0
H1054 H 0.47025 0.61796 0.57637 0.0
H1055 H 0.45944 0.57073 0.62851 0.0
H1056 H 0.51912 0.13341 0.28462 0.0
H1057 H 0.59827 0.13009 0.37106 0.0
H1058 H 0.55 0.11828 0.22286 0.0
H1059 H 0.56116 0.13427 0.43776 0.0
H1060 H 0.58209 0.12824 0.31555 0.0
H1061 H 0.53567 0.13614 0.34031 0.0
C1062 C 0.52942 0.13072 0.28279 0.0
C1063 C 0.5332 0.12559 0.24914 0.0
C1064 C 0.57747 0.12957 0.34231 0.0
C1065 C 0.55213 0.12866 0.31258 0.0
C1066 C 0.58677 0.13075 0.37397 0.0
C1067 C 0.58105 0.13236 0.40904 0.0
C1068 C 0.56239 0.13011 0.34568 0.0
C1069 C 0.56593 0.13289 0.41126 0.0
C1070 C 0.53879 0.13219 0.31458 0.0
C1071 C 0.54656 0.12209 0.24835 0.0
N1072 N 0.55713 0.13181 0.37997 0.0
N1073 N 0.55558 0.12375 0.27958 0.0
H1074 H 0.41899 0.51942 0.41997 0.0
H1075 H 0.44323 0.59896 0.55139 0.0
H1076 H 0.40982 0.56024 0.39121 0.0
H1077 H 0.46383 0.56562 0.56569 0.0
H1078 H 0.42924 0.58374 0.49477 0.0
H1079 H 0.43408 0.53513 0.47543 0.0
C1080 C 0.42027 0.53174 0.42506 0.0
C1081 C 0.41305 0.53847 0.40082 0.0
C1082 C 0.43685 0.57978 0.51027 0.0
C1083 C 0.43003 0.55635 0.46472 0.0
C1084 C 0.44492 0.58851 0.54256 0.0
C1085 C 0.4548 0.58363 0.56339 0.0
C1086 C 0.43854 0.56595 0.49876 0.0
C1087 C 0.45617 0.56972 0.55088 0.0
C1088 C 0.4288 0.54065 0.45688 0.0
C1089 C 0.41488 0.55438 0.40935 0.0
N1090 N 0.44811 0.56136 0.51942 0.0
N1091 N 0.42312 0.56273 0.44063 0.0
H1092 H 0.86984 0.4744 0.69754 0.0
H1093 H 0.86002 0.3882 0.61493 0.0
H1094 H 0.86117 0.43159 0.76492 0.0
H1095 H 0.86806 0.43078 0.54745 0.0
H1096 H 0.86032 0.40386 0.6702 0.0
H1097 H 0.86955 0.45874 0.64227 0.0
C1098 C 0.86799 0.46175 0.70074 0.0
C1099 C 0.86554 0.4543 0.73594 0.0
C1100 C 0.86201 0.40978 0.6433 0.0
C1101 C 0.865 0.43621 0.67271 0.0
C1102 C 0.86173 0.4008 0.6117 0.0
C1103 C 0.86399 0.40817 0.57646 0.0
C1104 C 0.86457 0.42627 0.63972 0.0
C1105 C 0.86647 0.42467 0.57406 0.0
C1106 C 0.86772 0.45277 0.66914 0.0
C1107 C 0.8629 0.43775 0.73833 0.0
N1108 N 0.86668 0.43315 0.60525 0.0
N1109 N 0.86272 0.42927 0.70715 0.0
H1110 H 0.46223 0.85516 0.7892 0.0
H1111 H 0.38935 0.8701 0.87337 0.0
H1112 H 0.43309 0.87135 0.72415 0.0
H1113 H 0.42117 0.85782 0.9399 0.0
H1114 H 0.40483 0.87003 0.8182 0.0
H1115 H 0.4467 0.85514 0.84447 0.0
C1116 C 0.4525 0.85862 0.78652 0.0
C1117 C 0.44894 0.86326 0.75201 0.0
C1118 C 0.40844 0.86736 0.84486 0.0
C1119 C 0.43121 0.86341 0.8152 0.0
C1120 C 0.39967 0.8675 0.87644 0.0
C1121 C 0.40398 0.864 0.91138 0.0
C1122 C 0.42163 0.86367 0.84817 0.0
C1123 C 0.41726 0.86039 0.9135 0.0
C1124 C 0.4437 0.85871 0.81812 0.0
C1125 C 0.43637 0.86788 0.75026 0.0
N1126 N 0.42562 0.86032 0.88234 0.0
N1127 N 0.42795 0.86781 0.7814 0.0
H1128 H 0.53083 0.38697 0.02564 0.0
H1129 H 0.5911 0.47707 0.93077 0.0
H1130 H 0.54771 0.4349 0.08084 0.0
H1131 H 0.57196 0.42913 0.87397 0.0
H1132 H 0.5755 0.46188 0.98618 0.0
H1133 H 0.54634 0.40222 0.97023 0.0
C1134 C 0.53789 0.40071 0.02619 0.0
C1135 C 0.53801 0.40967 0.05797 0.0
C1136 C 0.5747 0.45469 0.96158 0.0
C1137 C 0.55565 0.42724 0.99444 0.0
C1138 C 0.58352 0.46335 0.92984 0.0
C1139 C 0.58283 0.45437 0.89761 0.0
C1140 C 0.56511 0.43688 0.96117 0.0
C1141 C 0.57305 0.43658 0.8983 0.0
C1142 C 0.54665 0.40942 0.99444 0.0
C1143 C 0.54713 0.42748 0.05684 0.0
N1144 N 0.56457 0.42843 0.92956 0.0
N1145 N 0.55561 0.43568 0.02561 0.0
H1146 H 0.14771 0.56634 0.2373 0.0
H1147 H 0.09694 0.56465 0.05547 0.0
H1148 H 0.10252 0.52144 0.19959 0.0
H1149 H 0.14818 0.60421 0.07903 0.0
H1150 H 0.09771 0.54935 0.1104 0.0
H1151 H 0.14699 0.58123 0.18177 0.0
C1152 C 0.13769 0.55955 0.21727 0.0
C1153 C 0.1252 0.54255 0.22316 0.0
C1154 C 0.10878 0.56137 0.10347 0.0
C1155 C 0.12415 0.55969 0.15971 0.0
C1156 C 0.1084 0.57008 0.07199 0.0
C1157 C 0.12252 0.58578 0.06254 0.0
C1158 C 0.12334 0.56845 0.12585 0.0
C1159 C 0.13689 0.59231 0.08549 0.0
C1160 C 0.13725 0.56811 0.18563 0.0
C1161 C 0.11231 0.53459 0.19653 0.0
N1162 N 0.13691 0.58364 0.1161 0.0
N1163 N 0.11211 0.54323 0.16599 0.0
H1164 H 0.50161 0.28016 0.19596 0.0
H1165 H 0.44615 0.18638 0.11477 0.0
H1166 H 0.44855 0.25818 0.16915 0.0
H1167 H 0.50085 0.21438 0.1132 0.0
H1168 H 0.44623 0.21149 0.13974 0.0
H1169 H 0.50097 0.25471 0.17195 0.0
C1170 C 0.48978 0.26987 0.18542 0.0
C1171 C 0.47511 0.27124 0.18452 0.0
C1172 C 0.4582 0.21215 0.13369 0.0
C1173 C 0.47432 0.24222 0.15662 0.0
C1174 C 0.45816 0.19785 0.11953 0.0
C1175 C 0.47351 0.19837 0.11182 0.0
C1176 C 0.47372 0.22696 0.14064 0.0
C1177 C 0.48873 0.21353 0.11832 0.0
C1178 C 0.48946 0.25544 0.17139 0.0
C1179 C 0.46016 0.25765 0.17006 0.0
N1180 N 0.48845 0.2272 0.1326 0.0
N1181 N 0.46014 0.24368 0.15669 0.0
H1182 H 0.25999 0.45774 0.28082 0.0
H1183 H 0.22376 0.51599 0.35789 0.0
H1184 H 0.28997 0.51206 0.29456 0.0
H1185 H 0.19288 0.46172 0.34454 0.0
H1186 H 0.24815 0.51457 0.33454 0.0
H1187 H 0.23506 0.45872 0.30307 0.0
C1188 C 0.26128 0.46987 0.28824 0.0
C1189 C 0.27707 0.48483 0.28607 0.0
C1190 C 0.23606 0.50295 0.33674 0.0
C1191 C 0.24875 0.48603 0.31184 0.0
C1192 C 0.22212 0.50376 0.34997 0.0
C1193 C 0.20628 0.48896 0.35304 0.0
C1194 C 0.23417 0.4872 0.32641 0.0
C1195 C 0.20493 0.47342 0.34295 0.0
C1196 C 0.2471 0.47042 0.30116 0.0
C1197 C 0.2781 0.50019 0.29638 0.0
N1198 N 0.2187 0.47295 0.32995 0.0
N1199 N 0.26415 0.50038 0.30886 0.0
H1200 H 0.708 0.20178 0.46125 0.0
H1201 H 0.80757 0.2636 0.48481 0.0
H1202 H 0.7346 0.20569 0.56322 0.0
H1203 H 0.77681 0.27248 0.4068 0.0
H1204 H 0.78201 0.23845 0.50717 0.0
H1205 H 0.73442 0.22394 0.43439 0.0
C1206 C 0.71936 0.20734 0.47811 0.0
C1207 C 0.71898 0.20206 0.51487 0.0
C1208 C 0.78095 0.24588 0.48497 0.0
C1209 C 0.74935 0.22712 0.48378 0.0
C1210 C 0.7955 0.26026 0.47225 0.0
C1211 C 0.79437 0.27033 0.44407 0.0
C1212 C 0.76521 0.2414 0.4691 0.0
C1213 C 0.77841 0.26508 0.42825 0.0
C1214 C 0.73445 0.2199 0.46261 0.0
C1215 C 0.73427 0.20932 0.53481 0.0
N1216 N 0.76445 0.25102 0.44109 0.0
N1217 N 0.74885 0.22155 0.51904 0.0
H1218 H 0.5227 0.8026 0.67823 0.0
H1219 H 0.51112 0.71178 0.62913 0.0
H1220 H 0.51559 0.78266 0.56694 0.0
H1221 H 0.51858 0.73183 0.74031 0.0
H1222 H 0.51477 0.73851 0.60537 0.0
H1223 H 0.52374 0.77789 0.70083 0.0
C1224 C 0.52163 0.79316 0.65842 0.0
C1225 C 0.51899 0.79468 0.6206 0.0
C1226 C 0.51568 0.73711 0.63495 0.0
C1227 C 0.51983 0.76616 0.64648 0.0
C1228 C 0.51348 0.72181 0.64856 0.0
C1229 C 0.51432 0.71952 0.6868 0.0
C1230 C 0.51871 0.75023 0.65977 0.0
C1231 C 0.51785 0.73308 0.71063 0.0
C1232 C 0.52209 0.77897 0.67142 0.0
C1233 C 0.51739 0.78188 0.59638 0.0
N1234 N 0.51979 0.74783 0.69673 0.0
N1235 N 0.51773 0.76811 0.60977 0.0
H1236 H 0.72547 0.53542 0.8222 0.0
H1237 H 0.78789 0.4977 0.80621 0.0
H1238 H 0.72333 0.50235 0.73391 0.0
H1239 H 0.79041 0.53086 0.89468 0.0
H1240 H 0.76536 0.50075 0.77725 0.0
H1241 H 0.75062 0.53569 0.84673 0.0
C1242 C 0.73036 0.52829 0.80787 0.0
C1243 C 0.72223 0.51873 0.77615 0.0
C1244 C 0.77084 0.5074 0.80295 0.0
C1245 C 0.75096 0.51897 0.80403 0.0
C1246 C 0.7836 0.50554 0.81967 0.0
C1247 C 0.79084 0.51385 0.85317 0.0
C1248 C 0.76523 0.51761 0.81989 0.0
C1249 C 0.78515 0.52423 0.86885 0.0
C1250 C 0.74473 0.52848 0.82182 0.0
C1251 C 0.72925 0.50997 0.7583 0.0
N1252 N 0.77259 0.52573 0.85218 0.0
N1253 N 0.74313 0.51018 0.77269 0.0
H1254 H 0.21568 0.71463 0.92636 0.0
H1255 H 0.25238 0.7945 0.06163 0.0
H1256 H 0.18532 0.73539 0.96801 0.0
H1257 H 0.28398 0.78148 0.9961 0.0
H1258 H 0.22739 0.77209 0.03016 0.0
H1259 H 0.24073 0.73848 0.95354 0.0
C1260 C 0.21428 0.72433 0.94069 0.0
C1261 C 0.1983 0.72295 0.94486 0.0
C1262 C 0.23982 0.77418 0.02271 0.0
C1263 C 0.22697 0.75011 0.97701 0.0
C1264 C 0.25408 0.78697 0.04062 0.0
C1265 C 0.27032 0.78981 0.03174 0.0
C1266 C 0.24179 0.7641 0.99589 0.0
C1267 C 0.27172 0.77953 0.00452 0.0
C1268 C 0.2286 0.73789 0.9565 0.0
C1269 C 0.19731 0.73576 0.96456 0.0
N1270 N 0.25765 0.76711 0.98767 0.0
N1271 N 0.21143 0.74875 0.98013 0.0
H1272 H 0.58868 0.15723 0.73433 0.0
H1273 H 0.54245 0.11041 0.92237 0.0
H1274 H 0.59212 0.11547 0.78173 0.0
H1275 H 0.54293 0.15517 0.88099 0.0
H1276 H 0.56057 0.11204 0.8708 0.0
H1277 H 0.57221 0.15693 0.78802 0.0
C1278 C 0.58614 0.14811 0.75619 0.0
C1279 C 0.5918 0.13633 0.75342 0.0
C1280 C 0.55676 0.12153 0.873 0.0
C1281 C 0.57266 0.13574 0.81476 0.0
C1282 C 0.54631 0.12055 0.90231 0.0
C1283 C 0.54109 0.13262 0.90586 0.0
C1284 C 0.56199 0.13465 0.84688 0.0
C1285 C 0.54676 0.14566 0.87945 0.0
C1286 C 0.57663 0.14788 0.78676 0.0
C1287 C 0.58782 0.12462 0.78236 0.0
N1288 N 0.55684 0.14629 0.85097 0.0
N1289 N 0.57846 0.12459 0.81173 0.0
H1290 H 0.45604 0.60801 0.93672 0.0
H1291 H 0.40188 0.51563 0.02624 0.0
H1292 H 0.45233 0.56289 0.88826 0.0
H1293 H 0.41378 0.56189 0.08399 0.0
H1294 H 0.41918 0.53254 0.97409 0.0
H1295 H 0.43921 0.5911 0.98947 0.0
C1296 C 0.45164 0.59453 0.93717 0.0
C1297 C 0.45558 0.58684 0.90808 0.0
C1298 C 0.41801 0.53898 0.99821 0.0
C1299 C 0.43635 0.56741 0.96835 0.0
C1300 C 0.40819 0.52933 0.0281 0.0
C1301 C 0.40632 0.53731 0.05964 0.0
C1302 C 0.42597 0.55676 -0.00029 0.0
C1303 C 0.41459 0.55513 0.06008 0.0
C1304 C 0.44212 0.5849 0.96736 0.0
C1305 C 0.44973 0.56936 0.91029 0.0
N1306 N 0.42401 0.56424 0.03058 0.0
N1307 N 0.44035 0.56022 0.93982 0.0
H1308 H 0.86352 0.43505 0.04615 0.0
H1309 H 0.85991 0.42507 0.26691 0.0
H1310 H 0.86158 0.47105 0.12112 0.0
H1311 H 0.85933 0.38797 0.1913 0.0
H1312 H 0.86029 0.442 0.214 0.0
H1313 H 0.86211 0.41771 0.09912 0.0
C1314 C 0.86289 0.43936 0.0738 0.0
C1315 C 0.86277 0.45458 0.07923 0.0
C1316 C 0.86004 0.43013 0.20898 0.0
C1317 C 0.86095 0.43467 0.14006 0.0
C1318 C 0.85971 0.4204 0.23918 0.0
C1319 C 0.85957 0.40505 0.23356 0.0
C1320 C 0.86026 0.42451 0.17283 0.0
C1321 C 0.85966 0.39982 0.19698 0.0
C1322 C 0.86197 0.42939 0.10403 0.0
C1323 C 0.86158 0.45935 0.11564 0.0
N1324 N 0.86001 0.40953 0.16803 0.0
N1325 N 0.86078 0.44946 0.14468 0.0
H1326 H 0.42308 0.83454 0.42246 0.0
H1327 H 0.4216 0.89046 0.25313 0.0
H1328 H 0.46645 0.88184 0.3886 0.0
H1329 H 0.38245 0.8385 0.27154 0.0
H1330 H 0.43731 0.88833 0.30565 0.0
H1331 H 0.40704 0.83657 0.37017 0.0
C1332 C 0.42921 0.84535 0.40399 0.0
C1333 C 0.44612 0.85802 0.40975 0.0
C1334 C 0.42527 0.8774 0.2982 0.0
C1335 C 0.42788 0.86045 0.35006 0.0
C1336 C 0.41631 0.87858 0.26811 0.0
C1337 C 0.40069 0.86461 0.25771 0.0
C1338 C 0.41855 0.86218 0.31829 0.0
C1339 C 0.39433 0.84966 0.27876 0.0
C1340 C 0.42008 0.84647 0.37411 0.0
C1341 C 0.45351 0.87168 0.38487 0.0
N1342 N 0.40329 0.84884 0.30802 0.0
N1343 N 0.44432 0.87257 0.3562 0.0
H1344 H 0.5886 0.42794 0.56965 0.0
H1345 H 0.53838 0.42585 0.38572 0.0
H1346 H 0.5849 0.47066 0.52934 0.0
H1347 H 0.54034 0.38234 0.42712 0.0
H1348 H 0.55579 0.44251 0.43783 0.0
H1349 H 0.57169 0.41121 0.51678 0.0
C1350 C 0.58434 0.43384 0.54953 0.0
C1351 C 0.58814 0.45072 0.55398 0.0
C1352 C 0.55241 0.42932 0.43558 0.0
C1353 C 0.56864 0.43159 0.49363 0.0
C1354 C 0.54236 0.41975 0.40594 0.0
C1355 C 0.53779 0.40263 0.40211 0.0
C1356 C 0.55801 0.42175 0.46169 0.0
C1357 C 0.54366 0.39553 0.42877 0.0
C1358 C 0.5746 0.42425 0.51949 0.0
C1359 C 0.58208 0.45763 0.52732 0.0
N1360 N 0.55345 0.40512 0.45746 0.0
N1361 N 0.57264 0.44804 0.49834 0.0
H1362 H 0.12604 0.56426 0.53296 0.0
H1363 H 0.13825 0.57842 0.7521 0.0
H1364 H 0.14096 0.53587 0.60425 0.0
H1365 H 0.12935 0.61076 0.67907 0.0
H1366 H 0.13889 0.56243 0.69841 0.0
H1367 H 0.12669 0.58111 0.58627 0.0
C1368 C 0.12958 0.56164 0.55977 0.0
C1369 C 0.13349 0.54863 0.56408 0.0
C1370 C 0.13685 0.57305 0.6941 0.0
C1371 C 0.13402 0.56775 0.6254 0.0
C1372 C 0.13659 0.58228 0.72474 0.0
C1373 C 0.13378 0.596 0.72013 0.0
C1374 C 0.1342 0.57752 0.65849 0.0
C1375 C 0.13135 0.60016 0.68403 0.0
C1376 C 0.12986 0.57122 0.59025 0.0
C1377 C 0.13765 0.54561 0.59967 0.0
N1378 N 0.13159 0.59094 0.65462 0.0
N1379 N 0.13779 0.55509 0.62894 0.0
H1380 H 0.40762 0.03521 0.99609 0.0
H1381 H 0.34634 0.95184 0.11072 0.0
H1382 H 0.39446 0.0352 0.11102 0.0
H1383 H 0.36779 0.95206 0.00376 0.0
H1384 H 0.35759 0.98242 0.105 0.0
H1385 H 0.38653 0.00503 0.99237 0.0
C1386 C 0.4 0.02895 0.02029 0.0
C1387 C 0.40298 0.03761 0.0541 0.0
C1388 C 0.35956 0.97569 0.08252 0.0
C1389 C 0.37906 0.00308 0.05022 0.0
C1390 C 0.35321 0.95826 0.08583 0.0
C1391 C 0.35639 0.94939 0.05801 0.0
C1392 C 0.36917 0.98432 0.05121 0.0
C1393 C 0.36499 0.9583 0.02594 0.0
C1394 C 0.38805 0.0117 0.01823 0.0
C1395 C 0.3928 0.02886 0.08465 0.0
N1396 N 0.37129 0.9753 0.02367 0.0
N1397 N 0.38145 0.01201 0.08213 0.0
H1398 H 0.40182 0.36035 0.16664 0.0
H1399 H 0.36129 0.40446 0.28568 0.0
H1400 H 0.40477 0.36464 0.28586 0.0
H1401 H 0.36004 0.40199 0.16613 0.0
H1402 H 0.37125 0.38408 0.28699 0.0
H1403 H 0.38094 0.36975 0.1668 0.0
C1404 C 0.39786 0.36304 0.1929 0.0
C1405 C 0.40526 0.36205 0.22623 0.0
C1406 C 0.36853 0.38777 0.26047 0.0
C1407 C 0.38148 0.37289 0.22664 0.0
C1408 C 0.36271 0.39933 0.2597 0.0
C1409 C 0.36011 0.40518 0.22569 0.0
C1410 C 0.37188 0.3821 0.22701 0.0
C1411 C 0.3623 0.39815 0.19294 0.0
C1412 C 0.38592 0.36836 0.193 0.0
C1413 C 0.39943 0.36531 0.25952 0.0
N1414 N 0.36831 0.38718 0.19439 0.0
N1415 N 0.3881 0.37088 0.25884 0.0
H1416 H 0.04152 0.40577 0.4614 0.0
H1417 H 0.956 0.37011 0.34435 0.0
H1418 H 0.03907 0.41732 0.34614 0.0
H1419 H 0.95771 0.37121 0.46392 0.0
H1420 H 0.98643 0.3803 0.343 0.0
H1421 H 0.01086 0.38641 0.46069 0.0
C1422 C 0.03463 0.40414 0.43585 0.0
C1423 C 0.04294 0.41347 0.40396 0.0
C1424 C 0.9801 0.37807 0.36953 0.0
C1425 C 0.00793 0.39112 0.4029 0.0
C1426 C 0.96272 0.37215 0.37033 0.0
C1427 C 0.9544 0.37006 0.40431 0.0
C1428 C 0.98919 0.38189 0.40294 0.0
C1429 C 0.96374 0.373 0.43714 0.0
C1430 C 0.01714 0.39301 0.43546 0.0
C1431 C 0.03335 0.41041 0.3714 0.0
N1432 N 0.9807 0.37894 0.43565 0.0
N1433 N 0.01636 0.39965 0.37185 0.0
H1434 H 0.57892 0.9564 0.62803 0.0
H1435 H 0.6107 0.03981 0.50992 0.0
H1436 H 0.5728 0.95602 0.5094 0.0
H1437 H 0.62877 0.04031 0.62092 0.0
H1438 H 0.59849 0.0092 0.50807 0.0
H1439 H 0.59869 0.98699 0.62552 0.0
C1440 C 0.58192 0.96277 0.60141 0.0
C1441 C 0.57412 0.95377 0.56892 0.0
C1442 C 0.60533 0.01602 0.53266 0.0
C1443 C 0.59654 0.98868 0.56583 0.0
C1444 C 0.61244 0.03358 0.53369 0.0
C1445 C 0.62071 0.04275 0.56578 0.0
C1446 C 0.60622 0.00745 0.56413 0.0
C1447 C 0.62218 0.03377 0.5959 0.0
C1448 C 0.59324 0.98018 0.59996 0.0
C1449 C 0.57857 0.96251 0.53508 0.0
N1450 N 0.6148 0.0166 0.59452 0.0
N1451 N 0.58929 0.97955 0.53447 0.0
H1452 H 0.63325 0.59049 0.78017 0.0
H1453 H 0.57748 0.62032 0.66923 0.0
H1454 H 0.61897 0.57866 0.66525 0.0
H1455 H 0.59333 0.63481 0.78268 0.0
H1456 H 0.59654 0.609 0.66472 0.0
H1457 H 0.62251 0.61034 0.7793 0.0
C1458 C 0.62805 0.59223 0.75463 0.0
C1459 C 0.62677 0.58272 0.72289 0.0
C1460 C 0.59604 0.61485 0.6905 0.0
C1461 C 0.61447 0.60537 0.72169 0.0
C1462 C 0.58523 0.62148 0.69304 0.0
C1463 C 0.58365 0.62846 0.72654 0.0
C1464 C 0.60523 0.61492 0.7218 0.0
C1465 C 0.59384 0.62924 0.75655 0.0
C1466 C 0.62198 0.6036 0.75412 0.0
C1467 C 0.62024 0.58572 0.69036 0.0
N1468 N 0.60404 0.62234 0.75362 0.0
N1469 N 0.61412 0.5966 0.69077 0.0
H1470 H 0.03507 0.63019 0.8281 0.0
H1471 H 0.95111 0.59765 0.94919 0.0
H1472 H 0.03437 0.63226 0.94749 0.0
H1473 H 0.95206 0.58248 0.8361 0.0
H1474 H 0.98151 0.61787 0.94506 0.0
H1475 H 0.00467 0.62057 0.82726 0.0
C1476 C 0.02858 0.62903 0.85405 0.0
C1477 C 0.03708 0.63173 0.88795 0.0
C1478 C 0.97496 0.6103 0.92098 0.0
C1479 C 0.00247 0.62065 0.88724 0.0
C1480 C 0.95763 0.5987 0.92336 0.0
C1481 C 0.94904 0.58806 0.89322 0.0
C1482 C 0.98373 0.61132 0.88822 0.0
C1483 C 0.95807 0.59037 0.86009 0.0
C1484 C 0.01125 0.62345 0.85359 0.0
C1485 C 0.02813 0.62999 0.92083 0.0
N1486 N 0.97497 0.60158 0.85866 0.0
N1487 N 0.01124 0.62436 0.9197 0.0
loop_
_geom_bond_atom_site_label_1
_geom_bond_atom_site_label_2
_geom_bond_distance
_geom_bond_site_symmetry_2
_ccdc_geom_bond_type
Li0 N17 1.990 . S
Li0 O60 1.956 . S
Li0 O61 1.970 . S
Li0 O62 1.961 . S
Li1 N25 1.990 . S
Li1 O60 1.970 . S
Li1 O61 1.956 . S
Li1 O63 1.961 . S
Li2 N47 1.990 . S
Li2 O60 1.961 . S
Li2 O62 1.956 . S
Li2 O63 1.970 . S
Li3 N53 1.990 1_554 S
Li3 O61 1.961 . S
Li3 O62 1.970 . S
Li3 O63 1.956 . S
C4 C6 1.348 . S
C4 C7 1.356 . S
C4 O60 1.325 . S
N5 C8 1.314 . S
N5 C9 1.279 . S
C6 C4 1.348 . S
C6 C8 1.353 . S
C6 H64 0.929 . S
C7 C4 1.356 . S
C7 C9 1.358 . S
C7 H65 0.930 . S
C8 N5 1.314 . S
C8 C6 1.353 . S
C8 H66 0.930 . S
C9 N5 1.279 . S
C9 C7 1.358 . S
C9 H67 0.930 . S
C10 C13 1.348 . S
C10 C14 1.356 . S
C10 O61 1.325 . S
C11 N12 1.279 . S
C11 C14 1.358 . S
C11 H68 0.930 . S
N12 C11 1.279 . S
N12 C15 1.314 . S
C13 C10 1.348 . S
C13 C15 1.353 . S
C13 H69 0.929 . S
C14 C10 1.356 . S
C14 C11 1.358 . S
C14 H70 0.930 . S
C15 N12 1.314 . S
C15 C13 1.353 . S
C15 H71 0.930 . S
C16 N17 1.314 . S
C16 C21 1.353 . S
C16 H22 0.930 . S
N17 Li0 1.990 . S
N17 C16 1.314 . S
N17 C19 1.279 . S
C18 C19 1.358 . S
C18 C20 1.356 . S
C18 H72 0.930 . S
C19 N17 1.279 . S
C19 C18 1.358 . S
C19 H23 0.930 . S
C20 C18 1.356 . S
C20 C21 1.348 . S
C21 C16 1.353 . S
C21 C20 1.348 . S
C21 H73 0.929 . S
H22 C16 0.930 . S
H23 C19 0.930 . S
C24 N25 1.314 . S
C24 C26 1.353 . S
C24 H30 0.930 . S
N25 Li1 1.990 . S
N25 C24 1.314 . S
N25 C28 1.279 . S
C26 C24 1.353 . S
C26 C29 1.348 . S
C26 H74 0.929 . S
C27 C28 1.358 . S
C27 C29 1.356 . S
C27 H75 0.930 . S
C28 N25 1.279 . S
C28 C27 1.358 . S
C28 H31 0.930 . S
C29 C26 1.348 . S
C29 C27 1.356 . S
H30 C24 0.930 . S
H31 C28 0.930 . S
C32 C34 1.348 1_554 S
C32 C35 1.356 . S
C32 O62 1.325 . S
N33 C36 1.314 . S
N33 C37 1.279 . S
C34 C32 1.348 1_556 S
C34 C36 1.353 . S
C34 H76 0.929 . S
C35 C32 1.356 . S
C35 C37 1.358 1_554 S
C35 H77 0.930 . S
C36 N33 1.314 . S
C36 C34 1.353 . S
C36 H78 0.930 . S
C37 N33 1.279 . S
C37 C35 1.358 1_556 S
C37 H79 0.930 . S
C38 C39 1.348 . S
C38 C40 1.356 . S
C38 O63 1.325 . S
C39 C38 1.348 . S
C39 C41 1.353 . S
C39 H80 0.929 . S
C40 C38 1.356 . S
C40 C42 1.358 . S
C40 H81 0.930 . S
C41 C39 1.353 . S
C41 N43 1.314 . S
C41 H82 0.930 . S
C42 C40 1.358 . S
C42 N43 1.279 . S
C42 H83 0.930 . S
N43 C41 1.314 . S
N43 C42 1.279 . S
C44 C46 1.353 . S
C44 N47 1.314 . S
C44 H50 0.930 . S
C45 N47 1.279 . S
C45 C48 1.358 . S
C45 H51 0.930 . S
C46 C44 1.353 . S
C46 C49 1.348 . S
C46 H84 0.929 . S
N47 Li2 1.990 . S
N47 C44 1.314 . S
N47 C45 1.279 . S
C48 C45 1.358 . S
C48 C49 1.356 . S
C48 H85 0.930 . S
C49 C46 1.348 . S
C49 C48 1.356 . S
H50 C44 0.930 . S
H51 C45 0.930 . S
C52 N53 1.314 . S
C52 C54 1.353 . S
C52 H58 0.930 . S
N53 Li3 1.990 1_556 S
N53 C52 1.314 . S
N53 C56 1.279 . S
C54 C52 1.353 . S
C54 C57 1.348 . S
C54 H86 0.929 . S
C55 C56 1.358 . S
C55 C57 1.356 . S
C55 H87 0.930 . S
C56 N53 1.279 . S
C56 C55 1.358 . S
C56 H59 0.930 . S
C57 C54 1.348 . S
C57 C55 1.356 . S
H58 C52 0.930 . S
H59 C56 0.930 . S
O60 Li0 1.956 . S
O60 Li1 1.970 . S
O60 Li2 1.961 . S
O60 C4 1.325 . S
O61 Li0 1.970 . S
O61 Li1 1.956 . S
O61 Li3 1.961 . S
O61 C10 1.325 . S
O62 Li0 1.961 . S
O62 Li2 1.956 . S
O62 Li3 1.970 . S
O62 C32 1.325 . S
O63 Li1 1.961 . S
O63 Li2 1.970 . S
O63 Li3 1.956 . S
O63 C38 1.325 . S
H64 C6 0.929 . S
H65 C7 0.930 . S
H66 C8 0.930 . S
H67 C9 0.930 . S
H68 C11 0.930 . S
H69 C13 0.929 . S
H70 C14 0.930 . S
H71 C15 0.930 . S
H72 C18 0.930 . S
H73 C21 0.929 . S
H74 C26 0.929 . S
H75 C27 0.930 . S
H76 C34 0.929 . S
H77 C35 0.930 . S
H78 C36 0.930 . S
H79 C37 0.930 . S
H80 C39 0.929 . S
H81 C40 0.930 . S
H82 C41 0.930 . S
H83 C42 0.930 . S
H84 C46 0.929 . S
H85 C48 0.930 . S
H86 C54 0.929 . S
H87 C55 0.930 . S
Li88 N105 1.990 . S
Li88 O148 1.956 . S
Li88 O149 1.970 . S
Li88 O150 1.961 . S
Li89 N113 1.990 . S
Li89 O148 1.970 . S
Li89 O149 1.956 . S
Li89 O151 1.961 . S
Li90 N135 1.990 . S
Li90 O148 1.961 . S
Li90 O150 1.956 . S
Li90 O151 1.970 . S
Li91 N141 1.990 . S
Li91 O149 1.961 . S
Li91 O150 1.970 . S
Li91 O151 1.956 . S
C92 C94 1.348 . S
C92 C95 1.356 . S
C92 O148 1.325 . S
N93 C96 1.314 . S
N93 C97 1.279 . S
C94 C92 1.348 . S
C94 C96 1.353 . S
C94 H152 0.929 . S
C95 C92 1.356 . S
C95 C97 1.358 . S
C95 H153 0.930 . S
C96 N93 1.314 . S
C96 C94 1.353 . S
C96 H154 0.930 . S
C97 N93 1.279 . S
C97 C95 1.358 . S
C97 H155 0.930 . S
C98 C101 1.348 . S
C98 C102 1.356 . S
C98 O149 1.325 . S
C99 N100 1.279 . S
C99 C102 1.358 . S
C99 H156 0.930 . S
N100 C99 1.279 . S
N100 C103 1.314 . S
C101 C98 1.348 . S
C101 C103 1.353 . S
C101 H157 0.929 . S
C102 C98 1.356 . S
C102 C99 1.358 . S
C102 H158 0.930 . S
C103 N100 1.314 . S
C103 C101 1.353 . S
C103 H159 0.930 . S
C104 N105 1.314 . S
C104 C109 1.353 . S
C104 H110 0.930 . S
N105 Li88 1.990 . S
N105 C104 1.314 . S
N105 C107 1.279 . S
C106 C107 1.358 . S
C106 C108 1.356 . S
C106 H160 0.930 . S
C107 N105 1.279 . S
C107 C106 1.358 . S
C107 H111 0.930 . S
C108 C106 1.356 . S
C108 C109 1.348 . S
C109 C104 1.353 . S
C109 C108 1.348 . S
C109 H161 0.929 . S
H110 C104 0.930 . S
H111 C107 0.930 . S
C112 N113 1.314 . S
C112 C114 1.353 . S
C112 H118 0.930 . S
N113 Li89 1.990 . S
N113 C112 1.314 . S
N113 C116 1.279 . S
C114 C112 1.353 . S
C114 C117 1.348 . S
C114 H162 0.929 . S
C115 C116 1.358 . S
C115 C117 1.356 . S
C115 H163 0.930 . S
C116 N113 1.279 . S
C116 C115 1.358 . S
C116 H119 0.930 . S
C117 C114 1.348 . S
C117 C115 1.356 . S
H118 C112 0.930 . S
H119 C116 0.930 . S
C120 C122 1.348 . S
C120 C123 1.356 . S
C120 O150 1.325 . S
N121 C124 1.314 . S
N121 C125 1.279 . S
C122 C120 1.348 . S
C122 C124 1.353 . S
C122 H164 0.929 . S
C123 C120 1.356 . S
C123 C125 1.358 . S
C123 H165 0.930 . S
C124 N121 1.314 . S
C124 C122 1.353 . S
C124 H166 0.930 . S
C125 N121 1.279 . S
C125 C123 1.358 . S
C125 H167 0.930 . S
C126 C127 1.348 . S
C126 C128 1.356 . S
C126 O151 1.325 . S
C127 C126 1.348 . S
C127 C129 1.353 . S
C127 H168 0.929 . S
C128 C126 1.356 . S
C128 C130 1.358 . S
C128 H169 0.930 . S
C129 C127 1.353 . S
C129 N131 1.314 . S
C129 H170 0.930 . S
C130 C128 1.358 . S
C130 N131 1.279 . S
C130 H171 0.930 . S
N131 C129 1.314 . S
N131 C130 1.279 . S
C132 C134 1.353 . S
C132 N135 1.314 . S
C132 H138 0.930 . S
C133 N135 1.279 . S
C133 C136 1.358 . S
C133 H139 0.930 . S
C134 C132 1.353 . S
C134 C137 1.348 . S
C134 H172 0.929 . S
N135 Li90 1.990 . S
N135 C132 1.314 . S
N135 C133 1.279 . S
C136 C133 1.358 . S
C136 C137 1.356 . S
C136 H173 0.930 . S
C137 C134 1.348 . S
C137 C136 1.356 . S
H138 C132 0.930 . S
H139 C133 0.930 . S
C140 N141 1.314 . S
C140 C142 1.353 . S
C140 H146 0.930 . S
N141 Li91 1.990 . S
N141 C140 1.314 . S
N141 C144 1.279 . S
C142 C140 1.353 . S
C142 C145 1.348 . S
C142 H174 0.929 . S
C143 C144 1.358 . S
C143 C145 1.356 . S
C143 H175 0.930 . S
C144 N141 1.279 . S
C144 C143 1.358 . S
C144 H147 0.930 . S
C145 C142 1.348 . S
C145 C143 1.356 . S
H146 C140 0.930 . S
H147 C144 0.930 . S
O148 Li88 1.956 . S
O148 Li89 1.970 . S
O148 Li90 1.961 . S
O148 C92 1.325 . S
O149 Li88 1.970 . S
O149 Li89 1.956 . S
O149 Li91 1.961 . S
O149 C98 1.325 . S
O150 Li88 1.961 . S
O150 Li90 1.956 . S
O150 Li91 1.970 . S
O150 C120 1.325 . S
O151 Li89 1.961 . S
O151 Li90 1.970 . S
O151 Li91 1.956 . S
O151 C126 1.325 . S
H152 C94 0.929 . S
H153 C95 0.930 . S
H154 C96 0.930 . S
H155 C97 0.930 . S
H156 C99 0.930 . S
H157 C101 0.929 . S
H158 C102 0.930 . S
H159 C103 0.930 . S
H160 C106 0.930 . S
H161 C109 0.929 . S
H162 C114 0.929 . S
H163 C115 0.930 . S
H164 C122 0.929 . S
H165 C123 0.930 . S
H166 C124 0.930 . S
H167 C125 0.930 . S
H168 C127 0.929 . S
H169 C128 0.930 . S
H170 C129 0.930 . S
H171 C130 0.930 . S
H172 C134 0.929 . S
H173 C136 0.930 . S
H174 C142 0.929 . S
H175 C143 0.930 . S
Li176 N193 1.990 . S
Li176 O236 1.956 . S
Li176 O237 1.970 . S
Li176 O238 1.961 . S
Li177 N201 1.990 . S
Li177 O236 1.970 . S
Li177 O237 1.956 . S
Li177 O239 1.961 . S
Li178 N223 1.990 . S
Li178 O236 1.961 . S
Li178 O238 1.956 . S
Li178 O239 1.970 . S
Li179 N229 1.990 . S
Li179 O237 1.961 . S
Li179 O238 1.970 . S
Li179 O239 1.956 . S
C180 C182 1.348 . S
C180 C183 1.356 . S
C180 O236 1.325 . S
N181 C184 1.314 . S
N181 C185 1.279 . S
C182 C180 1.348 . S
C182 C184 1.353 . S
C182 H240 0.929 . S
C183 C180 1.356 . S
C183 C185 1.358 . S
C183 H241 0.930 . S
C184 N181 1.314 . S
C184 C182 1.353 . S
C184 H242 0.930 . S
C185 N181 1.279 . S
C185 C183 1.358 . S
C185 H243 0.930 . S
C186 C189 1.348 . S
C186 C190 1.356 . S
C186 O237 1.325 . S
C187 N188 1.279 . S
C187 C190 1.358 . S
C187 H244 0.930 . S
N188 C187 1.279 . S
N188 C191 1.314 . S
C189 C186 1.348 . S
C189 C191 1.353 . S
C189 H245 0.929 . S
C190 C186 1.356 . S
C190 C187 1.358 . S
C190 H246 0.930 . S
C191 N188 1.314 . S
C191 C189 1.353 . S
C191 H247 0.930 . S
C192 N193 1.314 . S
C192 C197 1.353 . S
C192 H198 0.930 . S
N193 Li176 1.990 . S
N193 C192 1.314 . S
N193 C195 1.279 . S
C194 C195 1.358 . S
C194 C196 1.356 . S
C194 H248 0.930 . S
C195 N193 1.279 . S
C195 C194 1.358 . S
C195 H199 0.930 . S
C196 C194 1.356 . S
C196 C197 1.348 . S
C197 C192 1.353 . S
C197 C196 1.348 . S
C197 H249 0.929 . S
H198 C192 0.930 . S
H199 C195 0.930 . S
C200 N201 1.314 . S
C200 C202 1.353 . S
C200 H206 0.930 . S
N201 Li177 1.990 . S
N201 C200 1.314 . S
N201 C204 1.279 . S
C202 C200 1.353 . S
C202 C205 1.348 . S
C202 H250 0.929 . S
C203 C204 1.358 . S
C203 C205 1.356 . S
C203 H251 0.930 . S
C204 N201 1.279 . S
C204 C203 1.358 . S
C204 H207 0.930 . S
C205 C202 1.348 . S
C205 C203 1.356 . S
H206 C200 0.930 . S
H207 C204 0.930 . S
C208 C210 1.348 . S
C208 C211 1.356 . S
C208 O238 1.325 . S
N209 C212 1.314 . S
N209 C213 1.279 . S
C210 C208 1.348 . S
C210 C212 1.353 . S
C210 H252 0.929 . S
C211 C208 1.356 . S
C211 C213 1.358 . S
C211 H253 0.930 . S
C212 N209 1.314 . S
C212 C210 1.353 . S
C212 H254 0.930 . S
C213 N209 1.279 . S
C213 C211 1.358 . S
C213 H255 0.930 . S
C214 C215 1.348 . S
C214 C216 1.356 . S
C214 O239 1.325 . S
C215 C214 1.348 . S
C215 C217 1.353 . S
C215 H256 0.929 . S
C216 C214 1.356 . S
C216 C218 1.358 . S
C216 H257 0.930 . S
C217 C215 1.353 . S
C217 N219 1.314 . S
C217 H258 0.930 . S
C218 C216 1.358 . S
C218 N219 1.279 . S
C218 H259 0.930 . S
N219 C217 1.314 . S
N219 C218 1.279 . S
C220 C222 1.353 . S
C220 N223 1.314 . S
C220 H226 0.930 . S
C221 N223 1.279 . S
C221 C224 1.358 . S
C221 H227 0.930 . S
C222 C220 1.353 . S
C222 C225 1.348 . S
C222 H260 0.929 . S
N223 Li178 1.990 . S
N223 C220 1.314 . S
N223 C221 1.279 . S
C224 C221 1.358 . S
C224 C225 1.356 . S
C224 H261 0.930 . S
C225 C222 1.348 . S
C225 C224 1.356 . S
H226 C220 0.930 . S
H227 C221 0.930 . S
C228 N229 1.314 . S
C228 C230 1.353 . S
C228 H234 0.930 . S
N229 Li179 1.990 . S
N229 C228 1.314 . S
N229 C232 1.279 . S
C230 C228 1.353 . S
C230 C233 1.348 . S
C230 H262 0.929 . S
C231 C232 1.358 . S
C231 C233 1.356 . S
C231 H263 0.930 . S
C232 N229 1.279 . S
C232 C231 1.358 . S
C232 H235 0.930 . S
C233 C230 1.348 . S
C233 C231 1.356 . S
H234 C228 0.930 . S
H235 C232 0.930 . S
O236 Li176 1.956 . S
O236 Li177 1.970 . S
O236 Li178 1.961 . S
O236 C180 1.325 . S
O237 Li176 1.970 . S
O237 Li177 1.956 . S
O237 Li179 1.961 . S
O237 C186 1.325 . S
O238 Li176 1.961 . S
O238 Li178 1.956 . S
O238 Li179 1.970 . S
O238 C208 1.325 . S
O239 Li177 1.961 . S
O239 Li178 1.970 . S
O239 Li179 1.956 . S
O239 C214 1.325 . S
H240 C182 0.929 . S
H241 C183 0.930 . S
H242 C184 0.930 . S
H243 C185 0.930 . S
H244 C187 0.930 . S
H245 C189 0.929 . S
H246 C190 0.930 . S
H247 C191 0.930 . S
H248 C194 0.930 . S
H249 C197 0.929 . S
H250 C202 0.929 . S
H251 C203 0.930 . S
H252 C210 0.929 . S
H253 C211 0.930 . S
H254 C212 0.930 . S
H255 C213 0.930 . S
H256 C215 0.929 . S
H257 C216 0.930 . S
H258 C217 0.930 . S
H259 C218 0.930 . S
H260 C222 0.929 . S
H261 C224 0.930 . S
H262 C230 0.929 . S
H263 C231 0.930 . S
Li264 N281 1.990 . S
Li264 O324 1.956 . S
Li264 O325 1.970 . S
Li264 O326 1.961 . S
Li265 N289 1.990 . S
Li265 O324 1.970 . S
Li265 O325 1.956 . S
Li265 O327 1.961 . S
Li266 N311 1.990 . S
Li266 O324 1.961 . S
Li266 O326 1.956 . S
Li266 O327 1.970 . S
Li267 N317 1.990 . S
Li267 O325 1.961 . S
Li267 O326 1.970 . S
Li267 O327 1.956 . S
C268 C270 1.348 . S
C268 C271 1.356 . S
C268 O324 1.325 . S
N269 C272 1.314 . S
N269 C273 1.279 . S
C270 C268 1.348 . S
C270 C272 1.353 . S
C270 H328 0.929 . S
C271 C268 1.356 . S
C271 C273 1.358 . S
C271 H329 0.930 . S
C272 N269 1.314 . S
C272 C270 1.353 . S
C272 H330 0.930 . S
C273 N269 1.279 . S
C273 C271 1.358 . S
C273 H331 0.930 . S
C274 C277 1.348 . S
C274 C278 1.356 . S
C274 O325 1.325 . S
C275 N276 1.279 . S
C275 C278 1.358 . S
C275 H332 0.930 . S
N276 C275 1.279 . S
N276 C279 1.314 . S
C277 C274 1.348 . S
C277 C279 1.353 . S
C277 H333 0.929 . S
C278 C274 1.356 . S
C278 C275 1.358 . S
C278 H334 0.930 . S
C279 N276 1.314 . S
C279 C277 1.353 . S
C279 H335 0.930 . S
C280 N281 1.314 . S
C280 C285 1.353 . S
C280 H286 0.930 . S
N281 Li264 1.990 . S
N281 C280 1.314 . S
N281 C283 1.279 . S
C282 C283 1.358 . S
C282 C284 1.356 . S
C282 H336 0.930 . S
C283 N281 1.279 . S
C283 C282 1.358 . S
C283 H287 0.930 . S
C284 C282 1.356 . S
C284 C285 1.348 . S
C285 C280 1.353 . S
C285 C284 1.348 . S
C285 H337 0.929 . S
H286 C280 0.930 . S
H287 C283 0.930 . S
C288 N289 1.314 . S
C288 C290 1.353 . S
C288 H294 0.930 . S
N289 Li265 1.990 . S
N289 C288 1.314 . S
N289 C292 1.279 . S
C290 C288 1.353 . S
C290 C293 1.348 . S
C290 H338 0.929 . S
C291 C292 1.358 . S
C291 C293 1.356 . S
C291 H339 0.930 . S
C292 N289 1.279 . S
C292 C291 1.358 . S
C292 H295 0.930 . S
C293 C290 1.348 . S
C293 C291 1.356 . S
H294 C288 0.930 . S
H295 C292 0.930 . S
C296 C298 1.348 . S
C296 C299 1.356 . S
C296 O326 1.325 . S
N297 C300 1.314 . S
N297 C301 1.279 . S
C298 C296 1.348 . S
C298 C300 1.353 . S
C298 H340 0.929 . S
C299 C296 1.356 . S
C299 C301 1.358 . S
C299 H341 0.930 . S
C300 N297 1.314 . S
C300 C298 1.353 . S
C300 H342 0.930 . S
C301 N297 1.279 . S
C301 C299 1.358 . S
C301 H343 0.930 . S
C302 C303 1.348 . S
C302 C304 1.356 . S
C302 O327 1.325 . S
C303 C302 1.348 . S
C303 C305 1.353 . S
C303 H344 0.929 . S
C304 C302 1.356 . S
C304 C306 1.358 . S
C304 H345 0.930 . S
C305 C303 1.353 . S
C305 N307 1.314 . S
C305 H346 0.930 . S
C306 C304 1.358 . S
C306 N307 1.279 . S
C306 H347 0.930 . S
N307 C305 1.314 . S
N307 C306 1.279 . S
C308 C310 1.353 . S
C308 N311 1.314 . S
C308 H314 0.930 . S
C309 N311 1.279 . S
C309 C312 1.358 . S
C309 H315 0.930 . S
C310 C308 1.353 . S
C310 C313 1.348 . S
C310 H348 0.929 . S
N311 Li266 1.990 . S
N311 C308 1.314 . S
N311 C309 1.279 . S
C312 C309 1.358 . S
C312 C313 1.356 . S
C312 H349 0.930 . S
C313 C310 1.348 . S
C313 C312 1.356 . S
H314 C308 0.930 . S
H315 C309 0.930 . S
C316 N317 1.314 . S
C316 C318 1.353 . S
C316 H322 0.930 . S
N317 Li267 1.990 . S
N317 C316 1.314 . S
N317 C320 1.279 . S
C318 C316 1.353 . S
C318 C321 1.348 . S
C318 H350 0.929 . S
C319 C320 1.358 . S
C319 C321 1.356 . S
C319 H351 0.930 . S
C320 N317 1.279 . S
C320 C319 1.358 . S
C320 H323 0.930 . S
C321 C318 1.348 . S
C321 C319 1.356 . S
H322 C316 0.930 . S
H323 C320 0.930 . S
O324 Li264 1.956 . S
O324 Li265 1.970 . S
O324 Li266 1.961 . S
O324 C268 1.325 . S
O325 Li264 1.970 . S
O325 Li265 1.956 . S
O325 Li267 1.961 . S
O325 C274 1.325 . S
O326 Li264 1.961 . S
O326 Li266 1.956 . S
O326 Li267 1.970 . S
O326 C296 1.325 . S
O327 Li265 1.961 . S
O327 Li266 1.970 . S
O327 Li267 1.956 . S
O327 C302 1.325 . S
H328 C270 0.929 . S
H329 C271 0.930 . S
H330 C272 0.930 . S
H331 C273 0.930 . S
H332 C275 0.930 . S
H333 C277 0.929 . S
H334 C278 0.930 . S
H335 C279 0.930 . S
H336 C282 0.930 . S
H337 C285 0.929 . S
H338 C290 0.929 . S
H339 C291 0.930 . S
H340 C298 0.929 . S
H341 C299 0.930 . S
H342 C300 0.930 . S
H343 C301 0.930 . S
H344 C303 0.929 . S
H345 C304 0.930 . S
H346 C305 0.930 . S
H347 C306 0.930 . S
H348 C310 0.929 . S
H349 C312 0.930 . S
H350 C318 0.929 . S
H351 C319 0.930 . S
Li352 N369 1.990 . S
Li352 O412 1.956 . S
Li352 O413 1.970 . S
Li352 O414 1.961 . S
Li353 N377 1.990 . S
Li353 O412 1.970 . S
Li353 O413 1.956 . S
Li353 O415 1.961 . S
Li354 N399 1.990 . S
Li354 O412 1.961 . S
Li354 O414 1.956 . S
Li354 O415 1.970 . S
Li355 N405 1.990 . S
Li355 O413 1.961 . S
Li355 O414 1.970 . S
Li355 O415 1.956 . S
C356 C358 1.348 . S
C356 C359 1.356 . S
C356 O412 1.325 . S
N357 C360 1.314 . S
N357 C361 1.279 . S
C358 C356 1.348 . S
C358 C360 1.353 . S
C358 H416 0.929 . S
C359 C356 1.356 . S
C359 C361 1.358 . S
C359 H417 0.930 . S
C360 N357 1.314 . S
C360 C358 1.353 . S
C360 H418 0.930 . S
C361 N357 1.279 . S
C361 C359 1.358 . S
C361 H419 0.930 . S
C362 C365 1.348 . S
C362 C366 1.356 . S
C362 O413 1.325 . S
C363 N364 1.279 . S
C363 C366 1.358 . S
C363 H420 0.930 . S
N364 C363 1.279 . S
N364 C367 1.314 . S
C365 C362 1.348 . S
C365 C367 1.353 . S
C365 H421 0.929 . S
C366 C362 1.356 . S
C366 C363 1.358 . S
C366 H422 0.930 . S
C367 N364 1.314 . S
C367 C365 1.353 . S
C367 H423 0.930 . S
C368 N369 1.314 . S
C368 C373 1.353 . S
C368 H374 0.930 . S
N369 Li352 1.990 . S
N369 C368 1.314 . S
N369 C371 1.279 . S
C370 C371 1.358 . S
C370 C372 1.356 . S
C370 H424 0.930 . S
C371 N369 1.279 . S
C371 C370 1.358 . S
C371 H375 0.930 . S
C372 C370 1.356 . S
C372 C373 1.348 . S
C373 C368 1.353 . S
C373 C372 1.348 . S
C373 H425 0.929 . S
H374 C368 0.930 . S
H375 C371 0.930 . S
C376 N377 1.314 . S
C376 C378 1.353 . S
C376 H382 0.930 . S
N377 Li353 1.990 . S
N377 C376 1.314 . S
N377 C380 1.279 . S
C378 C376 1.353 . S
C378 C381 1.348 . S
C378 H426 0.929 . S
C379 C380 1.358 . S
C379 C381 1.356 . S
C379 H427 0.930 . S
C380 N377 1.279 . S
C380 C379 1.358 . S
C380 H383 0.930 . S
C381 C378 1.348 . S
C381 C379 1.356 . S
H382 C376 0.930 . S
H383 C380 0.930 . S
C384 C386 1.348 . S
C384 C387 1.356 . S
C384 O414 1.325 . S
N385 C388 1.314 . S
N385 C389 1.279 . S
C386 C384 1.348 . S
C386 C388 1.353 . S
C386 H428 0.929 . S
C387 C384 1.356 . S
C387 C389 1.358 . S
C387 H429 0.930 . S
C388 N385 1.314 . S
C388 C386 1.353 . S
C388 H430 0.930 . S
C389 N385 1.279 . S
C389 C387 1.358 . S
C389 H431 0.930 . S
C390 C391 1.348 . S
C390 C392 1.356 . S
C390 O415 1.325 . S
C391 C390 1.348 . S
C391 C393 1.353 . S
C391 H432 0.929 . S
C392 C390 1.356 . S
C392 C394 1.358 . S
C392 H433 0.930 . S
C393 C391 1.353 . S
C393 N395 1.314 . S
C393 H434 0.930 . S
C394 C392 1.358 . S
C394 N395 1.279 . S
C394 H435 0.930 . S
N395 C393 1.314 . S
N395 C394 1.279 . S
C396 C398 1.353 . S
C396 N399 1.314 . S
C396 H402 0.930 . S
C397 N399 1.279 . S
C397 C400 1.358 . S
C397 H403 0.930 . S
C398 C396 1.353 . S
C398 C401 1.348 . S
C398 H436 0.929 . S
N399 Li354 1.990 . S
N399 C396 1.314 . S
N399 C397 1.279 . S
C400 C397 1.358 . S
C400 C401 1.356 . S
C400 H437 0.930 . S
C401 C398 1.348 . S
C401 C400 1.356 . S
H402 C396 0.930 . S
H403 C397 0.930 . S
C404 N405 1.314 . S
C404 C406 1.353 . S
C404 H410 0.930 . S
N405 Li355 1.990 . S
N405 C404 1.314 . S
N405 C408 1.279 . S
C406 C404 1.353 . S
C406 C409 1.348 . S
C406 H438 0.929 . S
C407 C408 1.358 . S
C407 C409 1.356 . S
C407 H439 0.930 . S
C408 N405 1.279 . S
C408 C407 1.358 . S
C408 H411 0.930 . S
C409 C406 1.348 . S
C409 C407 1.356 . S
H410 C404 0.930 . S
H411 C408 0.930 . S
O412 Li352 1.956 . S
O412 Li353 1.970 . S
O412 Li354 1.961 . S
O412 C356 1.325 . S
O413 Li352 1.970 . S
O413 Li353 1.956 . S
O413 Li355 1.961 . S
O413 C362 1.325 . S
O414 Li352 1.961 . S
O414 Li354 1.956 . S
O414 Li355 1.970 . S
O414 C384 1.325 . S
O415 Li353 1.961 . S
O415 Li354 1.970 . S
O415 Li355 1.956 . S
O415 C390 1.325 . S
H416 C358 0.929 . S
H417 C359 0.930 . S
H418 C360 0.930 . S
H419 C361 0.930 . S
H420 C363 0.930 . S
H421 C365 0.929 . S
H422 C366 0.930 . S
H423 C367 0.930 . S
H424 C370 0.930 . S
H425 C373 0.929 . S
H426 C378 0.929 . S
H427 C379 0.930 . S
H428 C386 0.929 . S
H429 C387 0.930 . S
H430 C388 0.930 . S
H431 C389 0.930 . S
H432 C391 0.929 . S
H433 C392 0.930 . S
H434 C393 0.930 . S
H435 C394 0.930 . S
H436 C398 0.929 . S
H437 C400 0.930 . S
H438 C406 0.929 . S
H439 C407 0.930 . S
Li440 N457 1.990 . S
Li440 O500 1.956 . S
Li440 O501 1.970 . S
Li440 O502 1.961 . S
Li441 N465 1.990 . S
Li441 O500 1.970 . S
Li441 O501 1.956 . S
Li441 O503 1.961 . S
Li442 N487 1.990 . S
Li442 O500 1.961 . S
Li442 O502 1.956 . S
Li442 O503 1.970 . S
Li443 N493 1.990 . S
Li443 O501 1.961 . S
Li443 O502 1.970 . S
Li443 O503 1.956 . S
C444 C446 1.348 . S
C444 C447 1.356 . S
C444 O500 1.325 . S
N445 C448 1.314 . S
N445 C449 1.279 . S
C446 C444 1.348 . S
C446 C448 1.353 . S
C446 H504 0.929 . S
C447 C444 1.356 . S
C447 C449 1.358 . S
C447 H505 0.930 . S
C448 N445 1.314 . S
C448 C446 1.353 . S
C448 H506 0.930 . S
C449 N445 1.279 . S
C449 C447 1.358 . S
C449 H507 0.930 . S
C450 C453 1.348 . S
C450 C454 1.356 . S
C450 O501 1.325 . S
C451 N452 1.279 . S
C451 C454 1.358 . S
C451 H508 0.930 . S
N452 C451 1.279 . S
N452 C455 1.314 . S
C453 C450 1.348 . S
C453 C455 1.353 . S
C453 H509 0.929 . S
C454 C450 1.356 . S
C454 C451 1.358 . S
C454 H510 0.930 . S
C455 N452 1.314 . S
C455 C453 1.353 . S
C455 H511 0.930 . S
C456 N457 1.314 . S
C456 C461 1.353 . S
C456 H462 0.930 . S
N457 Li440 1.990 . S
N457 C456 1.314 . S
N457 C459 1.279 . S
C458 C459 1.358 . S
C458 C460 1.356 . S
C458 H512 0.930 . S
C459 N457 1.279 . S
C459 C458 1.358 . S
C459 H463 0.930 . S
C460 C458 1.356 . S
C460 C461 1.348 . S
C461 C456 1.353 . S
C461 C460 1.348 . S
C461 H513 0.929 . S
H462 C456 0.930 . S
H463 C459 0.930 . S
C464 N465 1.314 . S
C464 C466 1.353 . S
C464 H470 0.930 . S
N465 Li441 1.990 . S
N465 C464 1.314 . S
N465 C468 1.279 . S
C466 C464 1.353 . S
C466 C469 1.348 . S
C466 H514 0.929 . S
C467 C468 1.358 . S
C467 C469 1.356 . S
C467 H515 0.930 . S
C468 N465 1.279 . S
C468 C467 1.358 . S
C468 H471 0.930 . S
C469 C466 1.348 . S
C469 C467 1.356 . S
H470 C464 0.930 . S
H471 C468 0.930 . S
C472 C474 1.348 . S
C472 C475 1.356 . S
C472 O502 1.325 . S
N473 C476 1.314 . S
N473 C477 1.279 . S
C474 C472 1.348 . S
C474 C476 1.353 . S
C474 H516 0.929 . S
C475 C472 1.356 . S
C475 C477 1.358 . S
C475 H517 0.930 . S
C476 N473 1.314 . S
C476 C474 1.353 . S
C476 H518 0.930 . S
C477 N473 1.279 . S
C477 C475 1.358 . S
C477 H519 0.930 . S
C478 C479 1.348 1_556 S
C478 C480 1.356 . S
C478 O503 1.325 . S
C479 C478 1.348 1_554 S
C479 C481 1.353 . S
C479 H520 0.929 . S
C480 C478 1.356 . S
C480 C482 1.358 1_556 S
C480 H521 0.930 . S
C481 C479 1.353 . S
C481 N483 1.314 . S
C481 H522 0.930 . S
C482 C480 1.358 1_554 S
C482 N483 1.279 . S
C482 H523 0.930 . S
N483 C481 1.314 . S
N483 C482 1.279 . S
C484 C486 1.353 . S
C484 N487 1.314 1_554 S
C484 H490 0.930 . S
C485 N487 1.279 . S
C485 C488 1.358 1_556 S
C485 H491 0.930 . S
C486 C484 1.353 . S
C486 C489 1.348 . S
C486 H524 0.929 . S
N487 Li442 1.990 . S
N487 C484 1.314 1_556 S
N487 C485 1.279 . S
C488 C485 1.358 1_554 S
C488 C489 1.356 . S
C488 H525 0.930 . S
C489 C486 1.348 . S
C489 C488 1.356 . S
H490 C484 0.930 . S
H491 C485 0.930 . S
C492 N493 1.314 . S
C492 C494 1.353 . S
C492 H498 0.930 . S
N493 Li443 1.990 . S
N493 C492 1.314 . S
N493 C496 1.279 . S
C494 C492 1.353 . S
C494 C497 1.348 . S
C494 H526 0.929 . S
C495 C496 1.358 . S
C495 C497 1.356 . S
C495 H527 0.930 . S
C496 N493 1.279 . S
C496 C495 1.358 . S
C496 H499 0.930 . S
C497 C494 1.348 . S
C497 C495 1.356 . S
H498 C492 0.930 . S
H499 C496 0.930 . S
O500 Li440 1.956 . S
O500 Li441 1.970 . S
O500 Li442 1.961 . S
O500 C444 1.325 . S
O501 Li440 1.970 . S
O501 Li441 1.956 . S
O501 Li443 1.961 . S
O501 C450 1.325 . S
O502 Li440 1.961 . S
O502 Li442 1.956 . S
O502 Li443 1.970 . S
O502 C472 1.325 . S
O503 Li441 1.961 . S
O503 Li442 1.970 . S
O503 Li443 1.956 . S
O503 C478 1.325 . S
H504 C446 0.929 . S
H505 C447 0.930 . S
H506 C448 0.930 . S
H507 C449 0.930 . S
H508 C451 0.930 . S
H509 C453 0.929 . S
H510 C454 0.930 . S
H511 C455 0.930 . S
H512 C458 0.930 . S
H513 C461 0.929 . S
H514 C466 0.929 . S
H515 C467 0.930 . S
H516 C474 0.929 . S
H517 C475 0.930 . S
H518 C476 0.930 . S
H519 C477 0.930 . S
H520 C479 0.929 . S
H521 C480 0.930 . S
H522 C481 0.930 . S
H523 C482 0.930 . S
H524 C486 0.929 . S
H525 C488 0.930 . S
H526 C494 0.929 . S
H527 C495 0.930 . S
Li528 N545 1.990 . S
Li528 O588 1.956 . S
Li528 O589 1.970 . S
Li528 O590 1.961 . S
Li529 N553 1.990 . S
Li529 O588 1.970 . S
Li529 O589 1.956 . S
Li529 O591 1.961 . S
Li530 N575 1.990 . S
Li530 O588 1.961 . S
Li530 O590 1.956 . S
Li530 O591 1.970 . S
Li531 N581 1.990 . S
Li531 O589 1.961 . S
Li531 O590 1.970 . S
Li531 O591 1.956 . S
C532 C534 1.348 . S
C532 C535 1.356 . S
C532 O588 1.325 . S
N533 C536 1.314 . S
N533 C537 1.279 1_554 S
C534 C532 1.348 . S
C534 C536 1.353 1_556 S
C534 H592 0.930 . S
C535 C532 1.356 . S
C535 C537 1.358 . S
C535 H593 0.930 . S
C536 N533 1.314 . S
C536 C534 1.353 1_554 S
C536 H594 0.930 . S
C537 N533 1.279 1_556 S
C537 C535 1.358 . S
C537 H595 0.930 . S
C538 C541 1.348 . S
C538 C542 1.356 . S
C538 O589 1.325 . S
C539 N540 1.279 . S
C539 C542 1.358 . S
C539 H596 0.930 . S
N540 C539 1.279 . S
N540 C543 1.314 . S
C541 C538 1.348 . S
C541 C543 1.353 . S
C541 H597 0.929 . S
C542 C538 1.356 . S
C542 C539 1.358 . S
C542 H598 0.930 . S
C543 N540 1.314 . S
C543 C541 1.353 . S
C543 H599 0.930 . S
C544 N545 1.314 . S
C544 C549 1.353 . S
C544 H550 0.930 . S
N545 Li528 1.990 . S
N545 C544 1.314 . S
N545 C547 1.279 . S
C546 C547 1.358 . S
C546 C548 1.356 . S
C546 H600 0.930 . S
C547 N545 1.279 . S
C547 C546 1.358 . S
C547 H551 0.930 . S
C548 C546 1.356 . S
C548 C549 1.348 . S
C549 C544 1.353 . S
C549 C548 1.348 . S
C549 H601 0.929 . S
H550 C544 0.930 . S
H551 C547 0.930 . S
C552 N553 1.297 1_554 S
C552 C554 1.377 . S
C552 H558 0.923 1_554 S
N553 Li529 1.990 . S
N553 C552 1.297 1_556 S
N553 C556 1.279 . S
C554 C552 1.377 . S
C554 C557 1.348 . S
C554 H602 0.929 . S
C555 C556 1.358 1_554 S
C555 C557 1.356 . S
C555 H603 0.930 . S
C556 N553 1.279 . S
C556 C555 1.358 1_556 S
C556 H559 0.930 . S
C557 C554 1.348 . S
C557 C555 1.356 . S
H558 C552 0.923 1_556 S
H559 C556 0.930 . S
C560 C562 1.348 . S
C560 C563 1.356 . S
C560 O590 1.325 . S
N561 C564 1.314 . S
N561 C565 1.279 . S
C562 C560 1.348 . S
C562 C564 1.353 . S
C562 H604 0.929 . S
C563 C560 1.356 . S
C563 C565 1.358 . S
C563 H605 0.930 . S
C564 N561 1.314 . S
C564 C562 1.353 . S
C564 H606 0.930 . S
C565 N561 1.279 . S
C565 C563 1.358 . S
C565 H607 0.930 . S
C566 C567 1.348 . S
C566 C568 1.356 . S
C566 O591 1.325 . S
C567 C566 1.348 . S
C567 C569 1.353 . S
C567 H608 0.929 . S
C568 C566 1.356 . S
C568 C570 1.358 . S
C568 H609 0.930 . S
C569 C567 1.353 . S
C569 N571 1.314 . S
C569 H610 0.930 . S
C570 C568 1.358 . S
C570 N571 1.279 . S
C570 H611 0.930 . S
N571 C569 1.314 . S
N571 C570 1.279 . S
C572 C574 1.353 . S
C572 N575 1.314 . S
C572 H578 0.930 . S
C573 N575 1.279 . S
C573 C576 1.358 . S
C573 H579 0.930 . S
C574 C572 1.353 . S
C574 C577 1.348 . S
C574 H612 0.929 . S
N575 Li530 1.990 . S
N575 C572 1.314 . S
N575 C573 1.279 . S
C576 C573 1.358 . S
C576 C577 1.356 . S
C576 H613 0.930 . S
C577 C574 1.348 . S
C577 C576 1.356 . S
H578 C572 0.930 . S
H579 C573 0.930 . S
C580 N581 1.314 . S
C580 C582 1.353 . S
C580 H586 0.930 . S
N581 Li531 1.990 . S
N581 C580 1.314 . S
N581 C584 1.279 . S
C582 C580 1.353 . S
C582 C585 1.348 . S
C582 H614 0.929 . S
C583 C584 1.358 . S
C583 C585 1.356 . S
C583 H615 0.930 . S
C584 N581 1.279 . S
C584 C583 1.358 . S
C584 H587 0.930 . S
C585 C582 1.348 . S
C585 C583 1.356 . S
H586 C580 0.930 . S
H587 C584 0.930 . S
O588 Li528 1.956 . S
O588 Li529 1.970 . S
O588 Li530 1.961 . S
O588 C532 1.325 . S
O589 Li528 1.970 . S
O589 Li529 1.956 . S
O589 Li531 1.961 . S
O589 C538 1.325 . S
O590 Li528 1.961 . S
O590 Li530 1.956 . S
O590 Li531 1.970 . S
O590 C560 1.325 . S
O591 Li529 1.961 . S
O591 Li530 1.970 . S
O591 Li531 1.956 . S
O591 C566 1.325 . S
H592 C534 0.930 . S
H593 C535 0.930 . S
H594 C536 0.930 . S
H595 C537 0.930 . S
H596 C539 0.930 . S
H597 C541 0.929 . S
H598 C542 0.930 . S
H599 C543 0.930 . S
H600 C546 0.930 . S
H601 C549 0.929 . S
H602 C554 0.929 . S
H603 C555 0.930 . S
H604 C562 0.929 . S
H605 C563 0.930 . S
H606 C564 0.930 . S
H607 C565 0.930 . S
H608 C567 0.929 . S
H609 C568 0.930 . S
H610 C569 0.930 . S
H611 C570 0.930 . S
H612 C574 0.929 . S
H613 C576 0.930 . S
H614 C582 0.929 . S
H615 C583 0.930 . S
Li616 N633 1.990 . S
Li616 O676 1.956 . S
Li616 O677 1.970 . S
Li616 O678 1.961 . S
Li617 N641 1.990 . S
Li617 O676 1.970 . S
Li617 O677 1.956 . S
Li617 O679 1.961 . S
Li618 N663 1.990 . S
Li618 O676 1.961 . S
Li618 O678 1.956 . S
Li618 O679 1.970 . S
Li619 N669 1.990 1_554 S
Li619 O677 1.961 . S
Li619 O678 1.970 . S
Li619 O679 1.956 . S
C620 C622 1.348 . S
C620 C623 1.356 . S
C620 O676 1.325 . S
N621 C624 1.314 . S
N621 C625 1.279 . S
C622 C620 1.348 . S
C622 C624 1.353 . S
C622 H680 0.929 . S
C623 C620 1.356 . S
C623 C625 1.358 . S
C623 H681 0.930 . S
C624 N621 1.314 . S
C624 C622 1.353 . S
C624 H682 0.930 . S
C625 N621 1.279 . S
C625 C623 1.358 . S
C625 H683 0.930 . S
C626 C629 1.348 . S
C626 C630 1.356 . S
C626 O677 1.325 . S
C627 N628 1.279 . S
C627 C630 1.358 . S
C627 H684 0.930 . S
N628 C627 1.279 . S
N628 C631 1.314 . S
C629 C626 1.348 . S
C629 C631 1.353 . S
C629 H685 0.929 . S
C630 C626 1.356 . S
C630 C627 1.358 . S
C630 H686 0.930 . S
C631 N628 1.314 . S
C631 C629 1.353 . S
C631 H687 0.930 . S
C632 N633 1.314 . S
C632 C637 1.353 . S
C632 H638 0.930 . S
N633 Li616 1.990 . S
N633 C632 1.314 . S
N633 C635 1.279 . S
C634 C635 1.358 . S
C634 C636 1.356 . S
C634 H688 0.930 . S
C635 N633 1.279 . S
C635 C634 1.358 . S
C635 H639 0.930 . S
C636 C634 1.356 . S
C636 C637 1.348 . S
C637 C632 1.353 . S
C637 C636 1.348 . S
C637 H689 0.929 1_554 S
H638 C632 0.930 . S
H639 C635 0.930 . S
C640 N641 1.314 . S
C640 C642 1.353 . S
C640 H646 0.930 . S
N641 Li617 1.990 . S
N641 C640 1.314 . S
N641 C644 1.279 . S
C642 C640 1.353 . S
C642 C645 1.348 . S
C642 H690 0.929 . S
C643 C644 1.358 . S
C643 C645 1.356 . S
C643 H691 0.930 . S
C644 N641 1.279 . S
C644 C643 1.358 . S
C644 H647 0.930 . S
C645 C642 1.348 . S
C645 C643 1.356 . S
H646 C640 0.930 . S
H647 C644 0.930 . S
C648 C650 1.348 . S
C648 C651 1.356 . S
C648 O678 1.325 1_556 S
N649 C652 1.314 . S
N649 C653 1.279 . S
C650 C648 1.348 . S
C650 C652 1.353 . S
C650 H692 0.929 . S
C651 C648 1.356 . S
C651 C653 1.358 . S
C651 H693 0.930 1_556 S
C652 N649 1.314 . S
C652 C650 1.353 . S
C652 H694 0.930 . S
C653 N649 1.279 . S
C653 C651 1.358 . S
C653 H695 0.930 . S
C654 C655 1.348 . S
C654 C656 1.356 . S
C654 O679 1.325 . S
C655 C654 1.348 . S
C655 C657 1.353 . S
C655 H696 0.929 . S
C656 C654 1.356 . S
C656 C658 1.358 . S
C656 H697 0.930 . S
C657 C655 1.353 . S
C657 N659 1.314 . S
C657 H698 0.930 . S
C658 C656 1.358 . S
C658 N659 1.279 . S
C658 H699 0.930 . S
N659 C657 1.314 . S
N659 C658 1.279 . S
C660 C662 1.353 . S
C660 N663 1.314 . S
C660 H666 0.930 . S
C661 N663 1.279 . S
C661 C664 1.358 . S
C661 H667 0.930 . S
C662 C660 1.353 . S
C662 C665 1.348 . S
C662 H700 0.929 . S
N663 Li618 1.990 . S
N663 C660 1.314 . S
N663 C661 1.279 . S
C664 C661 1.358 . S
C664 C665 1.356 . S
C664 H701 0.930 . S
C665 C662 1.348 . S
C665 C664 1.356 . S
H666 C660 0.930 . S
H667 C661 0.930 . S
C668 N669 1.314 . S
C668 C670 1.353 . S
C668 H674 0.930 . S
N669 Li619 1.990 1_556 S
N669 C668 1.314 . S
N669 C672 1.279 . S
C670 C668 1.353 . S
C670 C673 1.348 . S
C670 H702 0.929 . S
C671 C672 1.358 . S
C671 C673 1.356 . S
C671 H703 0.930 . S
C672 N669 1.279 . S
C672 C671 1.358 . S
C672 H675 0.930 . S
C673 C670 1.348 . S
C673 C671 1.356 . S
H674 C668 0.930 . S
H675 C672 0.930 . S
O676 Li616 1.956 . S
O676 Li617 1.970 . S
O676 Li618 1.961 . S
O676 C620 1.325 . S
O677 Li616 1.970 . S
O677 Li617 1.956 . S
O677 Li619 1.961 . S
O677 C626 1.325 . S
O678 Li616 1.961 . S
O678 Li618 1.956 . S
O678 Li619 1.970 . S
O678 C648 1.325 1_554 S
O679 Li617 1.961 . S
O679 Li618 1.970 . S
O679 Li619 1.956 . S
O679 C654 1.325 . S
H680 C622 0.929 . S
H681 C623 0.930 . S
H682 C624 0.930 . S
H683 C625 0.930 . S
H684 C627 0.930 . S
H685 C629 0.929 . S
H686 C630 0.930 . S
H687 C631 0.930 . S
H688 C634 0.930 . S
H689 C637 0.929 1_556 S
H690 C642 0.929 . S
H691 C643 0.930 . S
H692 C650 0.929 . S
H693 C651 0.930 1_554 S
H694 C652 0.930 . S
H695 C653 0.930 . S
H696 C655 0.929 . S
H697 C656 0.930 . S
H698 C657 0.930 . S
H699 C658 0.930 . S
H700 C662 0.929 . S
H701 C664 0.930 . S
H702 C670 0.929 . S
H703 C671 0.930 . S
Li704 N721 1.990 . S
Li704 O764 1.956 . S
Li704 O765 1.970 . S
Li704 O766 1.961 . S
Li705 N729 1.990 . S
Li705 O764 1.970 . S
Li705 O765 1.956 . S
Li705 O767 1.961 . S
Li706 N751 1.990 . S
Li706 O764 1.961 . S
Li706 O766 1.956 . S
Li706 O767 1.970 . S
Li707 N757 1.990 . S
Li707 O765 1.961 . S
Li707 O766 1.970 . S
Li707 O767 1.956 . S
C708 C710 1.348 . S
C708 C711 1.356 . S
C708 O764 1.325 . S
N709 C712 1.314 . S
N709 C713 1.279 . S
C710 C708 1.348 . S
C710 C712 1.353 . S
C710 H768 0.929 . S
C711 C708 1.356 . S
C711 C713 1.358 . S
C711 H769 0.930 . S
C712 N709 1.314 . S
C712 C710 1.353 . S
C712 H770 0.930 . S
C713 N709 1.279 . S
C713 C711 1.358 . S
C713 H771 0.930 . S
C714 C717 1.348 . S
C714 C718 1.356 . S
C714 O765 1.325 . S
C715 N716 1.279 . S
C715 C718 1.358 . S
C715 H772 0.930 . S
N716 C715 1.279 . S
N716 C719 1.314 . S
C717 C714 1.348 . S
C717 C719 1.353 . S
C717 H773 0.929 . S
C718 C714 1.356 . S
C718 C715 1.358 . S
C718 H774 0.930 . S
C719 N716 1.314 . S
C719 C717 1.353 . S
C719 H775 0.930 . S
C720 N721 1.314 . S
C720 C725 1.353 . S
C720 H726 0.930 . S
N721 Li704 1.990 . S
N721 C720 1.314 . S
N721 C723 1.279 . S
C722 C723 1.358 . S
C722 C724 1.356 . S
C722 H776 0.930 . S
C723 N721 1.279 . S
C723 C722 1.358 . S
C723 H727 0.930 . S
C724 C722 1.356 . S
C724 C725 1.348 . S
C725 C720 1.353 . S
C725 C724 1.348 . S
C725 H777 0.929 . S
H726 C720 0.930 . S
H727 C723 0.930 . S
C728 N729 1.314 . S
C728 C730 1.353 . S
C728 H734 0.930 . S
N729 Li705 1.990 . S
N729 C728 1.314 . S
N729 C732 1.279 . S
C730 C728 1.353 . S
C730 C733 1.348 . S
C730 H778 0.929 . S
C731 C732 1.358 . S
C731 C733 1.356 . S
C731 H779 0.930 . S
C732 N729 1.279 . S
C732 C731 1.358 . S
C732 H735 0.930 . S
C733 C730 1.348 . S
C733 C731 1.356 . S
H734 C728 0.930 . S
H735 C732 0.930 . S
C736 C738 1.348 . S
C736 C739 1.356 . S
C736 O766 1.325 . S
N737 C740 1.314 . S
N737 C741 1.279 . S
C738 C736 1.348 . S
C738 C740 1.353 . S
C738 H780 0.929 . S
C739 C736 1.356 . S
C739 C741 1.358 . S
C739 H781 0.930 . S
C740 N737 1.314 . S
C740 C738 1.353 . S
C740 H782 0.930 . S
C741 N737 1.279 . S
C741 C739 1.358 . S
C741 H783 0.930 . S
C742 C743 1.348 . S
C742 C744 1.356 . S
C742 O767 1.325 . S
C743 C742 1.348 . S
C743 C745 1.353 . S
C743 H784 0.929 . S
C744 C742 1.356 . S
C744 C746 1.358 . S
C744 H785 0.930 . S
C745 C743 1.353 . S
C745 N747 1.314 . S
C745 H786 0.930 . S
C746 C744 1.358 . S
C746 N747 1.279 . S
C746 H787 0.930 . S
N747 C745 1.314 . S
N747 C746 1.279 . S
C748 C750 1.353 . S
C748 N751 1.314 . S
C748 H754 0.930 . S
C749 N751 1.279 . S
C749 C752 1.358 . S
C749 H755 0.930 . S
C750 C748 1.353 . S
C750 C753 1.348 . S
C750 H788 0.929 . S
N751 Li706 1.990 . S
N751 C748 1.314 . S
N751 C749 1.279 . S
C752 C749 1.358 . S
C752 C753 1.356 . S
C752 H789 0.930 . S
C753 C750 1.348 . S
C753 C752 1.356 . S
H754 C748 0.930 . S
H755 C749 0.930 . S
C756 N757 1.314 . S
C756 C758 1.353 . S
C756 H762 0.930 . S
N757 Li707 1.990 . S
N757 C756 1.314 . S
N757 C760 1.279 . S
C758 C756 1.353 . S
C758 C761 1.348 . S
C758 H790 0.929 . S
C759 C760 1.358 . S
C759 C761 1.356 . S
C759 H791 0.930 . S
C760 N757 1.279 . S
C760 C759 1.358 . S
C760 H763 0.930 . S
C761 C758 1.348 . S
C761 C759 1.356 . S
H762 C756 0.930 . S
H763 C760 0.930 . S
O764 Li704 1.956 . S
O764 Li705 1.970 . S
O764 Li706 1.961 . S
O764 C708 1.325 . S
O765 Li704 1.970 . S
O765 Li705 1.956 . S
O765 Li707 1.961 . S
O765 C714 1.325 . S
O766 Li704 1.961 . S
O766 Li706 1.956 . S
O766 Li707 1.970 . S
O766 C736 1.325 . S
O767 Li705 1.961 . S
O767 Li706 1.970 . S
O767 Li707 1.956 . S
O767 C742 1.325 . S
H768 C710 0.929 . S
H769 C711 0.930 . S
H770 C712 0.930 . S
H771 C713 0.930 . S
H772 C715 0.930 . S
H773 C717 0.929 . S
H774 C718 0.930 . S
H775 C719 0.930 . S
H776 C722 0.930 . S
H777 C725 0.929 . S
H778 C730 0.929 . S
H779 C731 0.930 . S
H780 C738 0.929 . S
H781 C739 0.930 . S
H782 C740 0.930 . S
H783 C741 0.930 . S
H784 C743 0.929 . S
H785 C744 0.930 . S
H786 C745 0.930 . S
H787 C746 0.930 . S
H788 C750 0.929 . S
H789 C752 0.930 . S
H790 C758 0.929 . S
H791 C759 0.930 . S
Li792 N809 1.990 . S
Li792 O852 1.956 . S
Li792 O853 1.970 . S
Li792 O854 1.961 . S
Li793 N817 1.990 . S
Li793 O852 1.970 . S
Li793 O853 1.956 . S
Li793 O855 1.961 . S
Li794 N839 1.990 . S
Li794 O852 1.961 . S
Li794 O854 1.956 . S
Li794 O855 1.970 . S
Li795 N845 1.990 . S
Li795 O853 1.961 . S
Li795 O854 1.970 . S
Li795 O855 1.956 . S
C796 C798 1.348 . S
C796 C799 1.356 . S
C796 O852 1.325 . S
N797 C800 1.314 . S
N797 C801 1.279 . S
C798 C796 1.348 . S
C798 C800 1.353 . S
C798 H856 0.929 . S
C799 C796 1.356 . S
C799 C801 1.358 . S
C799 H857 0.930 . S
C800 N797 1.314 . S
C800 C798 1.353 . S
C800 H858 0.930 . S
C801 N797 1.279 . S
C801 C799 1.358 . S
C801 H859 0.930 . S
C802 C805 1.348 . S
C802 C806 1.356 . S
C802 O853 1.325 . S
C803 N804 1.279 . S
C803 C806 1.358 . S
C803 H860 0.930 . S
N804 C803 1.279 . S
N804 C807 1.314 . S
C805 C802 1.348 . S
C805 C807 1.353 . S
C805 H861 0.929 . S
C806 C802 1.356 . S
C806 C803 1.358 . S
C806 H862 0.930 . S
C807 N804 1.314 . S
C807 C805 1.353 . S
C807 H863 0.930 . S
C808 N809 1.314 . S
C808 C813 1.353 . S
C808 H814 0.930 . S
N809 Li792 1.990 . S
N809 C808 1.314 . S
N809 C811 1.279 . S
C810 C811 1.358 . S
C810 C812 1.356 . S
C810 H864 0.930 . S
C811 N809 1.279 . S
C811 C810 1.358 . S
C811 H815 0.930 . S
C812 C810 1.356 . S
C812 C813 1.348 . S
C813 C808 1.353 . S
C813 C812 1.348 . S
C813 H865 0.929 . S
H814 C808 0.930 . S
H815 C811 0.930 . S
C816 N817 1.314 . S
C816 C818 1.353 . S
C816 H822 0.930 . S
N817 Li793 1.990 . S
N817 C816 1.314 . S
N817 C820 1.279 . S
C818 C816 1.353 . S
C818 C821 1.348 . S
C818 H866 0.929 . S
C819 C820 1.358 . S
C819 C821 1.356 . S
C819 H867 0.930 . S
C820 N817 1.279 . S
C820 C819 1.358 . S
C820 H823 0.930 . S
C821 C818 1.348 . S
C821 C819 1.356 . S
H822 C816 0.930 . S
H823 C820 0.930 . S
C824 C826 1.348 . S
C824 C827 1.356 . S
C824 O854 1.325 . S
N825 C828 1.314 . S
N825 C829 1.279 . S
C826 C824 1.348 . S
C826 C828 1.353 . S
C826 H868 0.929 . S
C827 C824 1.356 . S
C827 C829 1.358 . S
C827 H869 0.930 . S
C828 N825 1.314 . S
C828 C826 1.353 . S
C828 H870 0.930 . S
C829 N825 1.279 . S
C829 C827 1.358 . S
C829 H871 0.930 . S
C830 C831 1.348 . S
C830 C832 1.356 . S
C830 O855 1.325 . S
C831 C830 1.348 . S
C831 C833 1.353 . S
C831 H872 0.929 . S
C832 C830 1.356 . S
C832 C834 1.358 . S
C832 H873 0.930 . S
C833 C831 1.353 . S
C833 N835 1.314 . S
C833 H874 0.930 . S
C834 C832 1.358 . S
C834 N835 1.279 . S
C834 H875 0.930 . S
N835 C833 1.314 . S
N835 C834 1.279 . S
C836 C838 1.353 . S
C836 N839 1.314 . S
C836 H842 0.930 . S
C837 N839 1.279 . S
C837 C840 1.358 . S
C837 H843 0.930 . S
C838 C836 1.353 . S
C838 C841 1.348 . S
C838 H876 0.929 . S
N839 Li794 1.990 . S
N839 C836 1.314 . S
N839 C837 1.279 . S
C840 C837 1.358 . S
C840 C841 1.356 . S
C840 H877 0.930 . S
C841 C838 1.348 . S
C841 C840 1.356 . S
H842 C836 0.930 . S
H843 C837 0.930 . S
C844 N845 1.314 . S
C844 C846 1.353 . S
C844 H850 0.930 . S
N845 Li795 1.990 . S
N845 C844 1.314 . S
N845 C848 1.279 . S
C846 C844 1.353 . S
C846 C849 1.348 . S
C846 H878 0.929 . S
C847 C848 1.358 . S
C847 C849 1.356 . S
C847 H879 0.930 . S
C848 N845 1.279 . S
C848 C847 1.358 . S
C848 H851 0.930 . S
C849 C846 1.348 . S
C849 C847 1.356 . S
H850 C844 0.930 . S
H851 C848 0.930 . S
O852 Li792 1.956 . S
O852 Li793 1.970 . S
O852 Li794 1.961 . S
O852 C796 1.325 . S
O853 Li792 1.970 . S
O853 Li793 1.956 . S
O853 Li795 1.961 . S
O853 C802 1.325 . S
O854 Li792 1.961 . S
O854 Li794 1.956 . S
O854 Li795 1.970 . S
O854 C824 1.325 . S
O855 Li793 1.961 . S
O855 Li794 1.970 . S
O855 Li795 1.956 . S
O855 C830 1.325 . S
H856 C798 0.929 . S
H857 C799 0.930 . S
H858 C800 0.930 . S
H859 C801 0.930 . S
H860 C803 0.930 . S
H861 C805 0.929 . S
H862 C806 0.930 . S
H863 C807 0.930 . S
H864 C810 0.930 . S
H865 C813 0.929 . S
H866 C818 0.929 . S
H867 C819 0.930 . S
H868 C826 0.929 . S
H869 C827 0.930 . S
H870 C828 0.930 . S
H871 C829 0.930 . S
H872 C831 0.929 . S
H873 C832 0.930 . S
H874 C833 0.930 . S
H875 C834 0.930 . S
H876 C838 0.929 . S
H877 C840 0.930 . S
H878 C846 0.929 . S
H879 C847 0.930 . S
Li880 N897 1.990 . S
Li880 O940 1.956 . S
Li880 O941 1.970 . S
Li880 O942 1.961 . S
Li881 N905 1.990 . S
Li881 O940 1.970 . S
Li881 O941 1.956 . S
Li881 O943 1.961 . S
Li882 N927 1.990 . S
Li882 O940 1.961 . S
Li882 O942 1.956 . S
Li882 O943 1.970 . S
Li883 N933 1.990 . S
Li883 O941 1.961 . S
Li883 O942 1.970 . S
Li883 O943 1.956 . S
C884 C886 1.348 . S
C884 C887 1.356 . S
C884 O940 1.325 . S
N885 C888 1.314 . S
N885 C889 1.279 . S
C886 C884 1.348 . S
C886 C888 1.353 . S
C886 H944 0.929 . S
C887 C884 1.356 . S
C887 C889 1.358 . S
C887 H945 0.930 . S
C888 N885 1.314 . S
C888 C886 1.353 . S
C888 H946 0.930 . S
C889 N885 1.279 . S
C889 C887 1.358 . S
C889 H947 0.930 . S
C890 C893 1.348 . S
C890 C894 1.356 . S
C890 O941 1.325 . S
C891 N892 1.279 . S
C891 C894 1.358 . S
C891 H948 0.930 . S
N892 C891 1.279 . S
N892 C895 1.314 . S
C893 C890 1.348 . S
C893 C895 1.353 . S
C893 H949 0.929 . S
C894 C890 1.356 . S
C894 C891 1.358 . S
C894 H950 0.930 . S
C895 N892 1.314 . S
C895 C893 1.353 . S
C895 H951 0.930 . S
C896 N897 1.314 . S
C896 C901 1.353 . S
C896 H902 0.930 . S
N897 Li880 1.990 . S
N897 C896 1.314 . S
N897 C899 1.279 . S
C898 C899 1.358 . S
C898 C900 1.356 . S
C898 H952 0.930 . S
C899 N897 1.279 . S
C899 C898 1.358 . S
C899 H903 0.930 . S
C900 C898 1.356 . S
C900 C901 1.348 . S
C901 C896 1.353 . S
C901 C900 1.348 . S
C901 H953 0.929 . S
H902 C896 0.930 . S
H903 C899 0.930 . S
C904 N905 1.314 . S
C904 C906 1.353 . S
C904 H910 0.930 . S
N905 Li881 1.990 . S
N905 C904 1.314 . S
N905 C908 1.279 . S
C906 C904 1.353 . S
C906 C909 1.348 . S
C906 H954 0.929 . S
C907 C908 1.358 . S
C907 C909 1.356 . S
C907 H955 0.930 . S
C908 N905 1.279 . S
C908 C907 1.358 . S
C908 H911 0.930 . S
C909 C906 1.348 . S
C909 C907 1.356 . S
H910 C904 0.930 . S
H911 C908 0.930 . S
C912 C914 1.348 . S
C912 C915 1.356 . S
C912 O942 1.325 . S
N913 C916 1.314 . S
N913 C917 1.279 . S
C914 C912 1.348 . S
C914 C916 1.353 . S
C914 H956 0.929 . S
C915 C912 1.356 . S
C915 C917 1.358 . S
C915 H957 0.930 . S
C916 N913 1.314 . S
C916 C914 1.353 . S
C916 H958 0.930 . S
C917 N913 1.279 . S
C917 C915 1.358 . S
C917 H959 0.930 . S
C918 C919 1.348 . S
C918 C920 1.356 . S
C918 O943 1.325 . S
C919 C918 1.348 . S
C919 C921 1.353 . S
C919 H960 0.929 . S
C920 C918 1.356 . S
C920 C922 1.358 . S
C920 H961 0.930 . S
C921 C919 1.353 . S
C921 N923 1.314 . S
C921 H962 0.930 . S
C922 C920 1.358 . S
C922 N923 1.279 . S
C922 H963 0.930 . S
N923 C921 1.314 . S
N923 C922 1.279 . S
C924 C926 1.353 . S
C924 N927 1.314 . S
C924 H930 0.930 . S
C925 N927 1.279 . S
C925 C928 1.358 . S
C925 H931 0.930 . S
C926 C924 1.353 . S
C926 C929 1.348 . S
C926 H964 0.929 . S
N927 Li882 1.990 . S
N927 C924 1.314 . S
N927 C925 1.279 . S
C928 C925 1.358 . S
C928 C929 1.356 . S
C928 H965 0.930 . S
C929 C926 1.348 . S
C929 C928 1.356 . S
H930 C924 0.930 . S
H931 C925 0.930 . S
C932 N933 1.314 . S
C932 C934 1.353 . S
C932 H938 0.930 . S
N933 Li883 1.990 . S
N933 C932 1.314 . S
N933 C936 1.279 . S
C934 C932 1.353 . S
C934 C937 1.348 . S
C934 H966 0.929 . S
C935 C936 1.358 . S
C935 C937 1.356 . S
C935 H967 0.930 . S
C936 N933 1.279 . S
C936 C935 1.358 . S
C936 H939 0.930 . S
C937 C934 1.348 . S
C937 C935 1.356 . S
H938 C932 0.930 . S
H939 C936 0.930 . S
O940 Li880 1.956 . S
O940 Li881 1.970 . S
O940 Li882 1.961 . S
O940 C884 1.325 . S
O941 Li880 1.970 . S
O941 Li881 1.956 . S
O941 Li883 1.961 . S
O941 C890 1.325 . S
O942 Li880 1.961 . S
O942 Li882 1.956 . S
O942 Li883 1.970 . S
O942 C912 1.325 . S
O943 Li881 1.961 . S
O943 Li882 1.970 . S
O943 Li883 1.956 . S
O943 C918 1.325 . S
H944 C886 0.929 . S
H945 C887 0.930 . S
H946 C888 0.930 . S
H947 C889 0.930 . S
H948 C891 0.930 . S
H949 C893 0.929 . S
H950 C894 0.930 . S
H951 C895 0.930 . S
H952 C898 0.930 . S
H953 C901 0.929 . S
H954 C906 0.929 . S
H955 C907 0.930 . S
H956 C914 0.929 . S
H957 C915 0.930 . S
H958 C916 0.930 . S
H959 C917 0.930 . S
H960 C919 0.929 . S
H961 C920 0.930 . S
H962 C921 0.930 . S
H963 C922 0.930 . S
H964 C926 0.929 . S
H965 C928 0.930 . S
H966 C934 0.929 . S
H967 C935 0.930 . S
Li968 N985 1.990 . S
Li968 O1028 1.956 . S
Li968 O1029 1.970 . S
Li968 O1030 1.961 . S
Li969 N993 1.990 . S
Li969 O1028 1.970 . S
Li969 O1029 1.956 . S
Li969 O1031 1.961 . S
Li970 N1015 1.990 . S
Li970 O1028 1.961 . S
Li970 O1030 1.956 . S
Li970 O1031 1.970 . S
Li971 N1021 1.990 . S
Li971 O1029 1.961 . S
Li971 O1030 1.970 . S
Li971 O1031 1.956 . S
C972 C974 1.348 . S
C972 C975 1.356 . S
C972 O1028 1.325 . S
N973 C976 1.314 . S
N973 C977 1.279 . S
C974 C972 1.348 . S
C974 C976 1.353 . S
C974 H1032 0.929 . S
C975 C972 1.356 . S
C975 C977 1.358 . S
C975 H1033 0.930 . S
C976 N973 1.314 . S
C976 C974 1.353 . S
C976 H1034 0.930 . S
C977 N973 1.279 . S
C977 C975 1.358 . S
C977 H1035 0.930 . S
C978 C981 1.348 . S
C978 C982 1.356 . S
C978 O1029 1.325 . S
C979 N980 1.279 . S
C979 C982 1.358 . S
C979 H1036 0.930 . S
N980 C979 1.279 . S
N980 C983 1.314 . S
C981 C978 1.348 . S
C981 C983 1.353 . S
C981 H1037 0.929 . S
C982 C978 1.356 . S
C982 C979 1.358 . S
C982 H1038 0.930 . S
C983 N980 1.314 . S
C983 C981 1.353 . S
C983 H1039 0.930 . S
C984 N985 1.314 . S
C984 C989 1.353 . S
C984 H990 0.930 . S
N985 Li968 1.990 . S
N985 C984 1.314 . S
N985 C987 1.279 . S
C986 C987 1.358 . S
C986 C988 1.356 . S
C986 H1040 0.930 . S
C987 N985 1.279 . S
C987 C986 1.358 . S
C987 H991 0.930 . S
C988 C986 1.356 . S
C988 C989 1.348 . S
C989 C984 1.353 . S
C989 C988 1.348 . S
C989 H1041 0.929 . S
H990 C984 0.930 . S
H991 C987 0.930 . S
C992 N993 1.314 . S
C992 C994 1.353 . S
C992 H998 0.930 . S
N993 Li969 1.990 . S
N993 C992 1.314 . S
N993 C996 1.279 . S
C994 C992 1.353 . S
C994 C997 1.348 . S
C994 H1042 0.929 . S
C995 C996 1.358 . S
C995 C997 1.356 . S
C995 H1043 0.930 . S
C996 N993 1.279 . S
C996 C995 1.358 . S
C996 H999 0.930 . S
C997 C994 1.348 . S
C997 C995 1.356 . S
H998 C992 0.930 . S
H999 C996 0.930 . S
C1000 C1002 1.348 . S
C1000 C1003 1.356 . S
C1000 O1030 1.325 . S
N1001 C1004 1.314 . S
N1001 C1005 1.279 . S
C1002 C1000 1.348 . S
C1002 C1004 1.353 . S
C1002 H1044 0.929 . S
C1003 C1000 1.356 . S
C1003 C1005 1.358 . S
C1003 H1045 0.930 . S
C1004 N1001 1.314 . S
C1004 C1002 1.353 . S
C1004 H1046 0.930 . S
C1005 N1001 1.279 . S
C1005 C1003 1.358 . S
C1005 H1047 0.930 . S
C1006 C1007 1.348 . S
C1006 C1008 1.356 . S
C1006 O1031 1.325 . S
C1007 C1006 1.348 . S
C1007 C1009 1.353 . S
C1007 H1048 0.929 . S
C1008 C1006 1.356 . S
C1008 C1010 1.358 . S
C1008 H1049 0.930 . S
C1009 C1007 1.353 . S
C1009 N1011 1.314 . S
C1009 H1050 0.930 . S
C1010 C1008 1.358 . S
C1010 N1011 1.279 . S
C1010 H1051 0.930 . S
N1011 C1009 1.314 . S
N1011 C1010 1.279 . S
C1012 C1014 1.353 . S
C1012 N1015 1.314 . S
C1012 H1018 0.930 . S
C1013 N1015 1.279 . S
C1013 C1016 1.358 . S
C1013 H1019 0.930 . S
C1014 C1012 1.353 . S
C1014 C1017 1.348 . S
C1014 H1052 0.929 . S
N1015 Li970 1.990 . S
N1015 C1012 1.314 . S
N1015 C1013 1.279 . S
C1016 C1013 1.358 . S
C1016 C1017 1.356 . S
C1016 H1053 0.930 . S
C1017 C1014 1.348 . S
C1017 C1016 1.356 . S
H1018 C1012 0.930 . S
H1019 C1013 0.930 . S
C1020 N1021 1.314 . S
C1020 C1022 1.353 . S
C1020 H1026 0.930 . S
N1021 Li971 1.990 . S
N1021 C1020 1.314 . S
N1021 C1024 1.279 . S
C1022 C1020 1.353 . S
C1022 C1025 1.348 . S
C1022 H1054 0.929 . S
C1023 C1024 1.358 . S
C1023 C1025 1.356 . S
C1023 H1055 0.930 . S
C1024 N1021 1.279 . S
C1024 C1023 1.358 . S
C1024 H1027 0.930 . S
C1025 C1022 1.348 . S
C1025 C1023 1.356 . S
H1026 C1020 0.930 . S
H1027 C1024 0.930 . S
O1028 Li968 1.956 . S
O1028 Li969 1.970 . S
O1028 Li970 1.961 . S
O1028 C972 1.325 . S
O1029 Li968 1.970 . S
O1029 Li969 1.956 . S
O1029 Li971 1.961 . S
O1029 C978 1.325 . S
O1030 Li968 1.961 . S
O1030 Li970 1.956 . S
O1030 Li971 1.970 . S
O1030 C1000 1.325 . S
O1031 Li969 1.961 . S
O1031 Li970 1.970 . S
O1031 Li971 1.956 . S
O1031 C1006 1.325 . S
H1032 C974 0.929 . S
H1033 C975 0.930 . S
H1034 C976 0.930 . S
H1035 C977 0.930 . S
H1036 C979 0.930 . S
H1037 C981 0.929 . S
H1038 C982 0.930 . S
H1039 C983 0.930 . S
H1040 C986 0.930 . S
H1041 C989 0.929 . S
H1042 C994 0.929 . S
H1043 C995 0.930 . S
H1044 C1002 0.929 . S
H1045 C1003 0.930 . S
H1046 C1004 0.930 . S
H1047 C1005 0.930 . S
H1048 C1007 0.929 . S
H1049 C1008 0.930 . S
H1050 C1009 0.930 . S
H1051 C1010 0.930 . S
H1052 C1014 0.929 . S
H1053 C1016 0.930 . S
H1054 C1022 0.929 . S
H1055 C1023 0.930 . S
H1056 C1062 0.930 . S
H1057 C1066 0.930 . S
H1058 C1071 0.929 . S
H1059 C1069 0.929 . S
H1060 C1064 0.929 . S
H1061 C1070 0.929 . S
C1062 H1056 0.930 . S
C1062 C1063 1.367 . S
C1062 C1070 1.378 . S
C1063 C1062 1.367 . S
C1063 C1071 1.433 . S
C1064 H1060 0.929 . S
C1064 C1066 1.378 . S
C1064 C1068 1.350 . S
C1065 C1068 1.463 . S
C1065 C1070 1.350 . S
C1065 N1073 1.427 . S
C1066 H1057 0.930 . S
C1066 C1064 1.378 . S
C1066 C1067 1.367 . S
C1067 C1066 1.367 . S
C1067 C1069 1.433 . S
C1068 C1064 1.350 . S
C1068 C1065 1.463 . S
C1068 N1072 1.427 . S
C1069 H1059 0.929 . S
C1069 C1067 1.433 . S
C1069 N1072 1.384 . S
C1070 H1061 0.929 . S
C1070 C1062 1.378 . S
C1070 C1065 1.350 . S
C1071 H1058 0.929 . S
C1071 C1063 1.433 . S
C1071 N1073 1.384 . S
N1072 C1068 1.427 . S
N1072 C1069 1.384 . S
N1073 C1065 1.427 . S
N1073 C1071 1.384 . S
H1074 C1080 0.930 . S
H1075 C1084 0.930 . S
H1076 C1089 0.929 . S
H1077 C1087 0.929 . S
H1078 C1082 0.929 . S
H1079 C1088 0.929 . S
C1080 H1074 0.930 . S
C1080 C1081 1.367 . S
C1080 C1088 1.378 . S
C1081 C1080 1.367 . S
C1081 C1089 1.433 . S
C1082 H1078 0.929 . S
C1082 C1084 1.378 . S
C1082 C1086 1.350 . S
C1083 C1086 1.463 . S
C1083 C1088 1.350 . S
C1083 N1091 1.427 . S
C1084 H1075 0.930 . S
C1084 C1082 1.378 . S
C1084 C1085 1.367 . S
C1085 C1084 1.367 . S
C1085 C1087 1.433 . S
C1086 C1082 1.350 . S
C1086 C1083 1.463 . S
C1086 N1090 1.427 . S
C1087 H1077 0.929 . S
C1087 C1085 1.433 . S
C1087 N1090 1.384 . S
C1088 H1079 0.929 . S
C1088 C1080 1.378 . S
C1088 C1083 1.350 . S
C1089 H1076 0.929 . S
C1089 C1081 1.433 . S
C1089 N1091 1.384 . S
N1090 C1086 1.427 . S
N1090 C1087 1.384 . S
N1091 C1083 1.427 . S
N1091 C1089 1.384 . S
H1092 C1098 0.930 . S
H1093 C1102 0.930 . S
H1094 C1107 0.929 . S
H1095 C1105 0.929 . S
H1096 C1100 0.929 . S
H1097 C1106 0.929 . S
C1098 H1092 0.930 . S
C1098 C1099 1.367 . S
C1098 C1106 1.378 . S
C1099 C1098 1.367 . S
C1099 C1107 1.433 . S
C1100 H1096 0.929 . S
C1100 C1102 1.378 . S
C1100 C1104 1.350 . S
C1101 C1104 1.463 . S
C1101 C1106 1.350 . S
C1101 N1109 1.427 . S
C1102 H1093 0.930 . S
C1102 C1100 1.378 . S
C1102 C1103 1.367 . S
C1103 C1102 1.367 . S
C1103 C1105 1.433 . S
C1104 C1100 1.350 . S
C1104 C1101 1.463 . S
C1104 N1108 1.427 . S
C1105 H1095 0.929 . S
C1105 C1103 1.433 . S
C1105 N1108 1.384 . S
C1106 H1097 0.929 . S
C1106 C1098 1.378 . S
C1106 C1101 1.350 . S
C1107 H1094 0.929 . S
C1107 C1099 1.433 . S
C1107 N1109 1.384 . S
N1108 C1104 1.427 . S
N1108 C1105 1.384 . S
N1109 C1101 1.427 . S
N1109 C1107 1.384 . S
H1110 C1116 0.930 . S
H1111 C1120 0.930 . S
H1112 C1125 0.929 . S
H1113 C1123 0.929 . S
H1114 C1118 0.929 . S
H1115 C1124 0.929 . S
C1116 H1110 0.930 . S
C1116 C1117 1.367 . S
C1116 C1124 1.378 . S
C1117 C1116 1.367 . S
C1117 C1125 1.433 . S
C1118 H1114 0.929 . S
C1118 C1120 1.378 . S
C1118 C1122 1.350 . S
C1119 C1122 1.463 . S
C1119 C1124 1.350 . S
C1119 N1127 1.427 . S
C1120 H1111 0.930 . S
C1120 C1118 1.378 . S
C1120 C1121 1.367 . S
C1121 C1120 1.367 . S
C1121 C1123 1.433 . S
C1122 C1118 1.350 . S
C1122 C1119 1.463 . S
C1122 N1126 1.427 . S
C1123 H1113 0.929 . S
C1123 C1121 1.433 . S
C1123 N1126 1.384 . S
C1124 H1115 0.929 . S
C1124 C1116 1.378 . S
C1124 C1119 1.350 . S
C1125 H1112 0.929 . S
C1125 C1117 1.433 . S
C1125 N1127 1.384 . S
N1126 C1122 1.427 . S
N1126 C1123 1.384 . S
N1127 C1119 1.427 . S
N1127 C1125 1.384 . S
H1128 C1134 0.930 . S
H1129 C1138 0.930 . S
H1130 C1143 0.929 . S
H1131 C1141 0.929 . S
H1132 C1136 0.929 . S
H1133 C1142 0.919 1_556 S
C1134 H1128 0.930 . S
C1134 C1135 1.367 . S
C1134 C1142 1.387 . S
C1135 C1134 1.367 . S
C1135 C1143 1.433 . S
C1136 H1132 0.929 . S
C1136 C1138 1.378 . S
C1136 C1140 1.350 . S
C1137 C1140 1.463 1_554 S
C1137 C1142 1.350 . S
C1137 N1145 1.427 . S
C1138 H1129 0.930 . S
C1138 C1136 1.378 . S
C1138 C1139 1.367 . S
C1139 C1138 1.367 . S
C1139 C1141 1.433 . S
C1140 C1136 1.350 . S
C1140 C1137 1.463 1_556 S
C1140 N1144 1.427 . S
C1141 H1131 0.929 . S
C1141 C1139 1.433 . S
C1141 N1144 1.384 . S
C1142 H1133 0.919 1_554 S
C1142 C1134 1.387 . S
C1142 C1137 1.350 . S
C1143 H1130 0.929 . S
C1143 C1135 1.433 . S
C1143 N1145 1.384 . S
N1144 C1140 1.427 . S
N1144 C1141 1.384 . S
N1145 C1137 1.427 . S
N1145 C1143 1.384 . S
H1146 C1152 0.930 . S
H1147 C1156 0.930 . S
H1148 C1161 0.929 . S
H1149 C1159 0.929 . S
H1150 C1154 0.929 . S
H1151 C1160 0.929 . S
C1152 H1146 0.930 . S
C1152 C1153 1.367 . S
C1152 C1160 1.378 . S
C1153 C1152 1.367 . S
C1153 C1161 1.433 . S
C1154 H1150 0.929 . S
C1154 C1156 1.378 . S
C1154 C1158 1.350 . S
C1155 C1158 1.463 . S
C1155 C1160 1.350 . S
C1155 N1163 1.427 . S
C1156 H1147 0.930 . S
C1156 C1154 1.378 . S
C1156 C1157 1.367 . S
C1157 C1156 1.367 . S
C1157 C1159 1.433 . S
C1158 C1154 1.350 . S
C1158 C1155 1.463 . S
C1158 N1162 1.427 . S
C1159 H1149 0.929 . S
C1159 C1157 1.433 . S
C1159 N1162 1.384 . S
C1160 H1151 0.929 . S
C1160 C1152 1.378 . S
C1160 C1155 1.350 . S
C1161 H1148 0.929 . S
C1161 C1153 1.433 . S
C1161 N1163 1.384 . S
N1162 C1158 1.427 . S
N1162 C1159 1.384 . S
N1163 C1155 1.427 . S
N1163 C1161 1.384 . S
H1164 C1170 0.930 . S
H1165 C1174 0.930 . S
H1166 C1179 0.929 . S
H1167 C1177 0.929 . S
H1168 C1172 0.929 . S
H1169 C1178 0.929 . S
C1170 H1164 0.930 . S
C1170 C1171 1.367 . S
C1170 C1178 1.378 . S
C1171 C1170 1.367 . S
C1171 C1179 1.433 . S
C1172 H1168 0.929 . S
C1172 C1174 1.378 . S
C1172 C1176 1.350 . S
C1173 C1176 1.463 . S
C1173 C1178 1.350 . S
C1173 N1181 1.427 . S
C1174 H1165 0.930 . S
C1174 C1172 1.378 . S
C1174 C1175 1.367 . S
C1175 C1174 1.367 . S
C1175 C1177 1.433 . S
C1176 C1172 1.350 . S
C1176 C1173 1.463 . S
C1176 N1180 1.427 . S
C1177 H1167 0.929 . S
C1177 C1175 1.433 . S
C1177 N1180 1.384 . S
C1178 H1169 0.929 . S
C1178 C1170 1.378 . S
C1178 C1173 1.350 . S
C1179 H1166 0.929 . S
C1179 C1171 1.433 . S
C1179 N1181 1.384 . S
N1180 C1176 1.427 . S
N1180 C1177 1.384 . S
N1181 C1173 1.427 . S
N1181 C1179 1.384 . S
H1182 C1188 0.930 . S
H1183 C1192 0.930 . S
H1184 C1197 0.929 . S
H1185 C1195 0.929 . S
H1186 C1190 0.929 . S
H1187 C1196 0.929 . S
C1188 H1182 0.930 . S
C1188 C1189 1.367 . S
C1188 C1196 1.378 . S
C1189 C1188 1.367 . S
C1189 C1197 1.433 . S
C1190 H1186 0.929 . S
C1190 C1192 1.378 . S
C1190 C1194 1.350 . S
C1191 C1194 1.463 . S
C1191 C1196 1.350 . S
C1191 N1199 1.427 . S
C1192 H1183 0.930 . S
C1192 C1190 1.378 . S
C1192 C1193 1.367 . S
C1193 C1192 1.367 . S
C1193 C1195 1.433 . S
C1194 C1190 1.350 . S
C1194 C1191 1.463 . S
C1194 N1198 1.427 . S
C1195 H1185 0.929 . S
C1195 C1193 1.433 . S
C1195 N1198 1.384 . S
C1196 H1187 0.929 . S
C1196 C1188 1.378 . S
C1196 C1191 1.350 . S
C1197 H1184 0.929 . S
C1197 C1189 1.433 . S
C1197 N1199 1.384 . S
N1198 C1194 1.427 . S
N1198 C1195 1.384 . S
N1199 C1191 1.427 . S
N1199 C1197 1.384 . S
H1200 C1206 0.930 . S
H1201 C1210 0.930 . S
H1202 C1215 0.929 . S
H1203 C1213 0.929 . S
H1204 C1208 0.929 . S
H1205 C1214 0.929 . S
C1206 H1200 0.930 . S
C1206 C1207 1.367 . S
C1206 C1214 1.378 . S
C1207 C1206 1.367 . S
C1207 C1215 1.433 . S
C1208 H1204 0.929 . S
C1208 C1210 1.378 . S
C1208 C1212 1.350 . S
C1209 C1212 1.463 . S
C1209 C1214 1.350 . S
C1209 N1217 1.427 . S
C1210 H1201 0.930 . S
C1210 C1208 1.378 . S
C1210 C1211 1.367 . S
C1211 C1210 1.367 . S
C1211 C1213 1.433 . S
C1212 C1208 1.350 . S
C1212 C1209 1.463 . S
C1212 N1216 1.427 . S
C1213 H1203 0.929 . S
C1213 C1211 1.433 . S
C1213 N1216 1.384 . S
C1214 H1205 0.929 . S
C1214 C1206 1.378 . S
C1214 C1209 1.350 . S
C1215 H1202 0.929 . S
C1215 C1207 1.433 . S
C1215 N1217 1.384 . S
N1216 C1212 1.427 . S
N1216 C1213 1.384 . S
N1217 C1209 1.427 . S
N1217 C1215 1.384 . S
H1218 C1224 0.930 . S
H1219 C1228 0.930 . S
H1220 C1233 0.929 . S
H1221 C1231 0.929 . S
H1222 C1226 0.929 . S
H1223 C1232 0.929 . S
C1224 H1218 0.930 . S
C1224 C1225 1.367 . S
C1224 C1232 1.378 . S
C1225 C1224 1.367 . S
C1225 C1233 1.433 . S
C1226 H1222 0.929 . S
C1226 C1228 1.378 . S
C1226 C1230 1.350 . S
C1227 C1230 1.463 . S
C1227 C1232 1.350 . S
C1227 N1235 1.427 . S
C1228 H1219 0.930 . S
C1228 C1226 1.378 . S
C1228 C1229 1.367 . S
C1229 C1228 1.367 . S
C1229 C1231 1.433 . S
C1230 C1226 1.350 . S
C1230 C1227 1.463 . S
C1230 N1234 1.427 . S
C1231 H1221 0.929 . S
C1231 C1229 1.433 . S
C1231 N1234 1.384 . S
C1232 H1223 0.929 . S
C1232 C1224 1.378 . S
C1232 C1227 1.350 . S
C1233 H1220 0.929 . S
C1233 C1225 1.433 . S
C1233 N1235 1.384 . S
N1234 C1230 1.427 . S
N1234 C1231 1.384 . S
N1235 C1227 1.427 . S
N1235 C1233 1.384 . S
H1236 C1242 0.930 . S
H1237 C1246 0.930 . S
H1238 C1251 0.929 . S
H1239 C1249 0.929 . S
H1240 C1244 0.929 . S
H1241 C1250 0.929 . S
C1242 H1236 0.930 . S
C1242 C1243 1.367 . S
C1242 C1250 1.378 . S
C1243 C1242 1.367 . S
C1243 C1251 1.433 . S
C1244 H1240 0.929 . S
C1244 C1246 1.378 . S
C1244 C1248 1.350 . S
C1245 C1248 1.463 . S
C1245 C1250 1.350 . S
C1245 N1253 1.427 . S
C1246 H1237 0.930 . S
C1246 C1244 1.378 . S
C1246 C1247 1.367 . S
C1247 C1246 1.367 . S
C1247 C1249 1.433 . S
C1248 C1244 1.350 . S
C1248 C1245 1.463 . S
C1248 N1252 1.427 . S
C1249 H1239 0.929 . S
C1249 C1247 1.433 . S
C1249 N1252 1.384 . S
C1250 H1241 0.929 . S
C1250 C1242 1.378 . S
C1250 C1245 1.350 . S
C1251 H1238 0.929 . S
C1251 C1243 1.433 . S
C1251 N1253 1.384 . S
N1252 C1248 1.427 . S
N1252 C1249 1.384 . S
N1253 C1245 1.427 . S
N1253 C1251 1.384 . S
H1254 C1260 0.930 . S
H1255 C1264 0.930 . S
H1256 C1269 0.929 . S
H1257 C1267 0.929 . S
H1258 C1262 0.929 . S
H1259 C1268 0.929 . S
C1260 H1254 0.930 . S
C1260 C1261 1.367 . S
C1260 C1268 1.378 . S
C1261 C1260 1.367 . S
C1261 C1269 1.433 . S
C1262 H1258 0.929 . S
C1262 C1264 1.378 . S
C1262 C1266 1.350 1_554 S
C1263 C1266 1.463 . S
C1263 C1268 1.350 . S
C1263 N1271 1.427 . S
C1264 H1255 0.930 . S
C1264 C1262 1.378 . S
C1264 C1265 1.367 . S
C1265 C1264 1.367 . S
C1265 C1267 1.433 1_554 S
C1266 C1262 1.350 1_556 S
C1266 C1263 1.463 . S
C1266 N1270 1.427 . S
C1267 H1257 0.929 . S
C1267 C1265 1.433 1_556 S
C1267 N1270 1.384 . S
C1268 H1259 0.929 . S
C1268 C1260 1.378 . S
C1268 C1263 1.350 . S
C1269 H1256 0.929 . S
C1269 C1261 1.433 . S
C1269 N1271 1.384 . S
N1270 C1266 1.427 . S
N1270 C1267 1.384 . S
N1271 C1263 1.427 . S
N1271 C1269 1.384 . S
H1272 C1278 0.930 . S
H1273 C1282 0.930 . S
H1274 C1287 0.929 . S
H1275 C1285 0.929 . S
H1276 C1280 0.929 . S
H1277 C1286 0.929 . S
C1278 H1272 0.930 . S
C1278 C1279 1.367 . S
C1278 C1286 1.378 . S
C1279 C1278 1.367 . S
C1279 C1287 1.433 . S
C1280 H1276 0.929 . S
C1280 C1282 1.378 . S
C1280 C1284 1.350 . S
C1281 C1284 1.463 . S
C1281 C1286 1.350 . S
C1281 N1289 1.427 . S
C1282 H1273 0.930 . S
C1282 C1280 1.378 . S
C1282 C1283 1.367 . S
C1283 C1282 1.367 . S
C1283 C1285 1.433 . S
C1284 C1280 1.350 . S
C1284 C1281 1.463 . S
C1284 N1288 1.427 . S
C1285 H1275 0.929 . S
C1285 C1283 1.433 . S
C1285 N1288 1.384 . S
C1286 H1277 0.929 . S
C1286 C1278 1.378 . S
C1286 C1281 1.350 . S
C1287 H1274 0.929 . S
C1287 C1279 1.433 . S
C1287 N1289 1.384 . S
N1288 C1284 1.427 . S
N1288 C1285 1.384 . S
N1289 C1281 1.427 . S
N1289 C1287 1.384 . S
H1290 C1296 0.930 . S
H1291 C1300 0.930 . S
H1292 C1305 0.929 . S
H1293 C1303 0.929 . S
H1294 C1298 0.929 1_556 S
H1295 C1304 0.929 . S
C1296 H1290 0.930 . S
C1296 C1297 1.367 . S
C1296 C1304 1.378 . S
C1297 C1296 1.367 . S
C1297 C1305 1.433 . S
C1298 H1294 0.929 1_554 S
C1298 C1300 1.378 . S
C1298 C1302 1.350 1_554 S
C1299 C1302 1.464 . S
C1299 C1304 1.350 . S
C1299 N1307 1.427 . S
C1300 H1291 0.930 . S
C1300 C1298 1.378 . S
C1300 C1301 1.367 . S
C1301 C1300 1.367 . S
C1301 C1303 1.433 . S
C1302 C1298 1.350 1_556 S
C1302 C1299 1.464 . S
C1302 N1306 1.426 1_556 S
C1303 H1293 0.929 . S
C1303 C1301 1.433 . S
C1303 N1306 1.384 . S
C1304 H1295 0.929 . S
C1304 C1296 1.378 . S
C1304 C1299 1.350 . S
C1305 H1292 0.929 . S
C1305 C1297 1.433 . S
C1305 N1307 1.384 . S
N1306 C1302 1.426 1_554 S
N1306 C1303 1.384 . S
N1307 C1299 1.427 . S
N1307 C1305 1.384 . S
H1308 C1314 0.930 . S
H1309 C1318 0.930 . S
H1310 C1323 0.929 . S
H1311 C1321 0.929 . S
H1312 C1316 0.929 . S
H1313 C1322 0.929 . S
C1314 H1308 0.930 . S
C1314 C1315 1.367 . S
C1314 C1322 1.378 . S
C1315 C1314 1.367 . S
C1315 C1323 1.433 . S
C1316 H1312 0.929 . S
C1316 C1318 1.378 . S
C1316 C1320 1.350 . S
C1317 C1320 1.463 . S
C1317 C1322 1.350 . S
C1317 N1325 1.427 . S
C1318 H1309 0.930 . S
C1318 C1316 1.378 . S
C1318 C1319 1.367 . S
C1319 C1318 1.367 . S
C1319 C1321 1.433 . S
C1320 C1316 1.350 . S
C1320 C1317 1.463 . S
C1320 N1324 1.427 . S
C1321 H1311 0.929 . S
C1321 C1319 1.433 . S
C1321 N1324 1.384 . S
C1322 H1313 0.929 . S
C1322 C1314 1.378 . S
C1322 C1317 1.350 . S
C1323 H1310 0.929 . S
C1323 C1315 1.433 . S
C1323 N1325 1.384 . S
N1324 C1320 1.427 . S
N1324 C1321 1.384 . S
N1325 C1317 1.427 . S
N1325 C1323 1.384 . S
H1326 C1332 0.930 . S
H1327 C1336 0.930 . S
H1328 C1341 0.929 . S
H1329 C1339 0.929 . S
H1330 C1334 0.929 . S
H1331 C1340 0.929 . S
C1332 H1326 0.930 . S
C1332 C1333 1.367 . S
C1332 C1340 1.378 . S
C1333 C1332 1.367 . S
C1333 C1341 1.433 . S
C1334 H1330 0.929 . S
C1334 C1336 1.378 . S
C1334 C1338 1.350 . S
C1335 C1338 1.463 . S
C1335 C1340 1.350 . S
C1335 N1343 1.427 . S
C1336 H1327 0.930 . S
C1336 C1334 1.378 . S
C1336 C1337 1.367 . S
C1337 C1336 1.367 . S
C1337 C1339 1.433 . S
C1338 C1334 1.350 . S
C1338 C1335 1.463 . S
C1338 N1342 1.427 . S
C1339 H1329 0.929 . S
C1339 C1337 1.433 . S
C1339 N1342 1.384 . S
C1340 H1331 0.929 . S
C1340 C1332 1.378 . S
C1340 C1335 1.350 . S
C1341 H1328 0.929 . S
C1341 C1333 1.433 . S
C1341 N1343 1.384 . S
N1342 C1338 1.427 . S
N1342 C1339 1.384 . S
N1343 C1335 1.427 . S
N1343 C1341 1.384 . S
H1344 C1350 0.930 . S
H1345 C1354 0.930 . S
H1346 C1359 0.929 . S
H1347 C1357 0.929 . S
H1348 C1352 0.929 . S
H1349 C1358 0.929 . S
C1350 H1344 0.930 . S
C1350 C1351 1.367 . S
C1350 C1358 1.378 . S
C1351 C1350 1.367 . S
C1351 C1359 1.433 . S
C1352 H1348 0.929 . S
C1352 C1354 1.378 . S
C1352 C1356 1.350 . S
C1353 C1356 1.463 . S
C1353 C1358 1.350 . S
C1353 N1361 1.427 . S
C1354 H1345 0.930 . S
C1354 C1352 1.378 . S
C1354 C1355 1.367 . S
C1355 C1354 1.367 . S
C1355 C1357 1.433 . S
C1356 C1352 1.350 . S
C1356 C1353 1.463 . S
C1356 N1360 1.427 . S
C1357 H1347 0.929 . S
C1357 C1355 1.433 . S
C1357 N1360 1.384 . S
C1358 H1349 0.929 . S
C1358 C1350 1.378 . S
C1358 C1353 1.350 . S
C1359 H1346 0.929 . S
C1359 C1351 1.433 . S
C1359 N1361 1.384 . S
N1360 C1356 1.427 . S
N1360 C1357 1.384 . S
N1361 C1353 1.427 . S
N1361 C1359 1.384 . S
H1362 C1368 0.930 . S
H1363 C1372 0.930 . S
H1364 C1377 0.929 . S
H1365 C1375 0.929 . S
H1366 C1370 0.929 . S
H1367 C1376 0.929 . S
C1368 H1362 0.930 . S
C1368 C1369 1.367 . S
C1368 C1376 1.378 . S
C1369 C1368 1.367 . S
C1369 C1377 1.433 . S
C1370 H1366 0.929 . S
C1370 C1372 1.378 . S
C1370 C1374 1.350 . S
C1371 C1374 1.463 . S
C1371 C1376 1.350 . S
C1371 N1379 1.427 . S
C1372 H1363 0.930 . S
C1372 C1370 1.378 . S
C1372 C1373 1.367 . S
C1373 C1372 1.367 . S
C1373 C1375 1.433 . S
C1374 C1370 1.350 . S
C1374 C1371 1.463 . S
C1374 N1378 1.427 . S
C1375 H1365 0.929 . S
C1375 C1373 1.433 . S
C1375 N1378 1.384 . S
C1376 H1367 0.929 . S
C1376 C1368 1.378 . S
C1376 C1371 1.350 . S
C1377 H1364 0.929 . S
C1377 C1369 1.433 . S
C1377 N1379 1.384 . S
N1378 C1374 1.427 . S
N1378 C1375 1.384 . S
N1379 C1371 1.427 . S
N1379 C1377 1.384 . S
H1380 C1386 0.930 . S
H1381 C1390 0.930 . S
H1382 C1395 0.929 . S
H1383 C1393 0.929 . S
H1384 C1388 0.929 . S
H1385 C1394 0.929 . S
C1386 H1380 0.930 . S
C1386 C1387 1.367 . S
C1386 C1394 1.378 . S
C1387 C1386 1.367 . S
C1387 C1395 1.433 . S
C1388 H1384 0.929 . S
C1388 C1390 1.378 . S
C1388 C1392 1.350 . S
C1389 C1392 1.463 1_545 S
C1389 C1394 1.350 . S
C1389 N1397 1.427 . S
C1390 H1381 0.930 . S
C1390 C1388 1.378 . S
C1390 C1391 1.367 . S
C1391 C1390 1.367 . S
C1391 C1393 1.433 . S
C1392 C1388 1.350 . S
C1392 C1389 1.463 1_565 S
C1392 N1396 1.427 . S
C1393 H1383 0.929 . S
C1393 C1391 1.433 . S
C1393 N1396 1.384 . S
C1394 H1385 0.929 . S
C1394 C1386 1.378 . S
C1394 C1389 1.350 . S
C1395 H1382 0.929 . S
C1395 C1387 1.433 . S
C1395 N1397 1.384 . S
N1396 C1392 1.427 . S
N1396 C1393 1.384 . S
N1397 C1389 1.427 . S
N1397 C1395 1.384 . S
H1398 C1404 0.930 . S
H1399 C1408 0.930 . S
H1400 C1413 0.929 . S
H1401 C1411 0.929 . S
H1402 C1406 0.929 . S
H1403 C1412 0.929 . S
C1404 H1398 0.930 . S
C1404 C1405 1.367 . S
C1404 C1412 1.378 . S
C1405 C1404 1.367 . S
C1405 C1413 1.433 . S
C1406 H1402 0.929 . S
C1406 C1408 1.378 . S
C1406 C1410 1.350 . S
C1407 C1410 1.463 . S
C1407 C1412 1.350 . S
C1407 N1415 1.427 . S
C1408 H1399 0.930 . S
C1408 C1406 1.378 . S
C1408 C1409 1.367 . S
C1409 C1408 1.367 . S
C1409 C1411 1.433 . S
C1410 C1406 1.350 . S
C1410 C1407 1.463 . S
C1410 N1414 1.427 . S
C1411 H1401 0.929 . S
C1411 C1409 1.433 . S
C1411 N1414 1.384 . S
C1412 H1403 0.929 . S
C1412 C1404 1.378 . S
C1412 C1407 1.350 . S
C1413 H1400 0.929 . S
C1413 C1405 1.433 . S
C1413 N1415 1.384 . S
N1414 C1410 1.427 . S
N1414 C1411 1.384 . S
N1415 C1407 1.427 . S
N1415 C1413 1.384 . S
H1416 C1422 0.930 . S
H1417 C1426 0.930 . S
H1418 C1431 0.929 . S
H1419 C1429 0.929 . S
H1420 C1424 0.929 . S
H1421 C1430 0.929 . S
C1422 H1416 0.930 . S
C1422 C1423 1.367 . S
C1422 C1430 1.378 . S
C1423 C1422 1.367 . S
C1423 C1431 1.433 . S
C1424 H1420 0.929 . S
C1424 C1426 1.378 . S
C1424 C1428 1.350 . S
C1425 C1428 1.463 1_455 S
C1425 C1430 1.350 . S
C1425 N1433 1.427 . S
C1426 H1417 0.930 . S
C1426 C1424 1.378 . S
C1426 C1427 1.367 . S
C1427 C1426 1.367 . S
C1427 C1429 1.433 . S
C1428 C1424 1.350 . S
C1428 C1425 1.463 1_655 S
C1428 N1432 1.427 . S
C1429 H1419 0.929 . S
C1429 C1427 1.433 . S
C1429 N1432 1.384 . S
C1430 H1421 0.929 . S
C1430 C1422 1.378 . S
C1430 C1425 1.350 . S
C1431 H1418 0.929 . S
C1431 C1423 1.433 . S
C1431 N1433 1.384 . S
N1432 C1428 1.427 . S
N1432 C1429 1.384 . S
N1433 C1425 1.427 . S
N1433 C1431 1.384 . S
H1434 C1440 0.930 . S
H1435 C1444 0.930 . S
H1436 C1449 0.929 . S
H1437 C1447 0.929 . S
H1438 C1442 0.929 . S
H1439 C1448 0.929 . S
C1440 H1434 0.930 . S
C1440 C1441 1.367 . S
C1440 C1448 1.378 . S
C1441 C1440 1.367 . S
C1441 C1449 1.433 . S
C1442 H1438 0.929 . S
C1442 C1444 1.378 . S
C1442 C1446 1.350 . S
C1443 C1446 1.463 1_565 S
C1443 C1448 1.350 . S
C1443 N1451 1.427 . S
C1444 H1435 0.930 . S
C1444 C1442 1.378 . S
C1444 C1445 1.367 . S
C1445 C1444 1.367 . S
C1445 C1447 1.433 . S
C1446 C1442 1.350 . S
C1446 C1443 1.463 1_545 S
C1446 N1450 1.427 . S
C1447 H1437 0.929 . S
C1447 C1445 1.433 . S
C1447 N1450 1.384 . S
C1448 H1439 0.929 . S
C1448 C1440 1.378 . S
C1448 C1443 1.350 . S
C1449 H1436 0.929 . S
C1449 C1441 1.433 . S
C1449 N1451 1.384 . S
N1450 C1446 1.427 . S
N1450 C1447 1.384 . S
N1451 C1443 1.427 . S
N1451 C1449 1.384 . S
H1452 C1458 0.930 . S
H1453 C1462 0.930 . S
H1454 C1467 0.929 . S
H1455 C1465 0.929 . S
H1456 C1460 0.929 . S
H1457 C1466 0.929 . S
C1458 H1452 0.930 . S
C1458 C1459 1.367 . S
C1458 C1466 1.378 . S
C1459 C1458 1.367 . S
C1459 C1467 1.433 . S
C1460 H1456 0.929 . S
C1460 C1462 1.378 . S
C1460 C1464 1.350 . S
C1461 C1464 1.463 . S
C1461 C1466 1.350 . S
C1461 N1469 1.427 . S
C1462 H1453 0.930 . S
C1462 C1460 1.378 . S
C1462 C1463 1.367 . S
C1463 C1462 1.367 . S
C1463 C1465 1.433 . S
C1464 C1460 1.350 . S
C1464 C1461 1.463 . S
C1464 N1468 1.427 . S
C1465 H1455 0.929 . S
C1465 C1463 1.433 . S
C1465 N1468 1.384 . S
C1466 H1457 0.929 . S
C1466 C1458 1.378 . S
C1466 C1461 1.350 . S
C1467 H1454 0.929 . S
C1467 C1459 1.433 . S
C1467 N1469 1.384 . S
N1468 C1464 1.427 . S
N1468 C1465 1.384 . S
N1469 C1461 1.427 . S
N1469 C1467 1.384 . S
H1470 C1476 0.930 . S
H1471 C1480 0.930 . S
H1472 C1485 0.929 . S
H1473 C1483 0.929 . S
H1474 C1478 0.929 . S
H1475 C1484 0.929 . S
C1476 H1470 0.930 . S
C1476 C1477 1.367 . S
C1476 C1484 1.378 . S
C1477 C1476 1.367 . S
C1477 C1485 1.433 . S
C1478 H1474 0.929 . S
C1478 C1480 1.378 . S
C1478 C1482 1.350 . S
C1479 C1482 1.463 1_455 S
C1479 C1484 1.350 . S
C1479 N1487 1.427 . S
C1480 H1471 0.930 . S
C1480 C1478 1.378 . S
C1480 C1481 1.367 . S
C1481 C1480 1.367 . S
C1481 C1483 1.433 . S
C1482 C1478 1.350 . S
C1482 C1479 1.463 1_655 S
C1482 N1486 1.427 . S
C1483 H1473 0.929 . S
C1483 C1481 1.433 . S
C1483 N1486 1.384 . S
C1484 H1475 0.929 . S
C1484 C1476 1.378 . S
C1484 C1479 1.350 . S
C1485 H1472 0.929 . S
C1485 C1477 1.433 . S
C1485 N1487 1.384 . S
N1486 C1482 1.427 . S
N1486 C1483 1.384 . S
N1487 C1479 1.427 . S
N1487 C1485 1.384 . S
C1063 C29 1.205 . S
C1067 C929 1.204 . S
C1081 C108 1.202 . S
C1085 C1025 1.204 . S
C1099 C585 1.203 . S
C1103 C205 1.205 . S
C1117 C293 1.205 . S
C1121 C673 1.203 . S
C1135 C761 1.205 . S
C1139 C381 1.203 . S
C1153 C841 1.204 . S
C1157 C489 1.202 . S
C1171 C724 1.148 . S
C1175 C49 1.157 . S
C1189 C145 1.148 . S
C1193 C821 1.142 . S
C1207 C909 1.144 . S
C1211 C225 1.146 . S
C1225 C313 1.144 . S
C1229 C988 1.152 . S
C1243 C401 1.144 . S
C1247 C548 1.142 . S
C1261 C469 1.160 . S
C1265 C636 1.160 . S
C1279 C900 1.775 . S
C1283 C57 1.772 . S
C1297 C997 1.779 . S
C1301 C137 1.776 . S
C1315 C557 1.772 . S
C1319 C233 1.775 . S
C1333 C321 1.779 . S
C1337 C645 1.776 . S
C1351 C409 1.773 . S
C1355 C733 1.772 . S
C1369 C812 1.772 . S
C1373 C460 1.772 . S
C1387 C20 1.149 . S
C1391 C665 1.156 . S
C1405 C753 1.151 . S
C1409 C117 1.148 . S
C1423 C849 1.155 . S
C1427 C196 1.147 . S
C1441 C284 1.154 . S
C1445 C937 1.149 . S
C1459 C372 1.155 . S
C1463 C1017 1.147 . S
C1477 C497 1.148 . S
C1481 C577 1.155 . S
