# Generated by pormake.
# Topology qtz-x, (6)-cn, num edge types: 1
# Building blocks:
#     Node 0, Type 0, BuildingBlock: GEDQOX_clean_sbu_0, # of connection points: 6
#     Node 1, Type 0, BuildingBlock: GEDQOX_clean_sbu_0, # of connection points: 6
#     Node 2, Type 0, BuildingBlock: GEDQOX_clean_sbu_0, # of connection points: 6
#     Edge 3, Type (0, 0), BuildingBlock: FUNLAD_clean_linker_1, # of connection points: 2
#     Edge 4, Type (0, 0), BuildingBlock: FUNLAD_clean_linker_1, # of connection points: 2
#     Edge 5, Type (0, 0), BuildingBlock: FUNLAD_clean_linker_1, # of connection points: 2
#     Edge 6, Type (0, 0), BuildingBlock: FUNLAD_clean_linker_1, # of connection points: 2
#     Edge 7, Type (0, 0), BuildingBlock: FUNLAD_clean_linker_1, # of connection points: 2
#     Edge 8, Type (0, 0), BuildingBlock: FUNLAD_clean_linker_1, # of connection points: 2
#     Edge 9, Type (0, 0), BuildingBlock: FUNLAD_clean_linker_1, # of connection points: 2
#     Edge 10, Type (0, 0), BuildingBlock: FUNLAD_clean_linker_1, # of connection points: 2
#     Edge 11, Type (0, 0), BuildingBlock: FUNLAD_clean_linker_1, # of connection points: 2
# Relax obj value: 0.209
# Max RMSD: 0.261
# Mean RMSD: 0.233
data_MOF--net-qtz-x--node1-GEDQOX_clean_sbu_0--edge1-FUNLAD_clean_linker_1
_symmetry_space_group_name_H-M    P1
_symmetry_Int_Tables_number       1
_symmetry_cell_setting            triclinic
loop_
_symmetry_equiv_pos_as_xyz
'x, y, z'
_cell_length_a     15.522992
_cell_length_b     15.473474
_cell_length_c     55.240202
_cell_angle_alpha  69.777036
_cell_angle_beta   114.55251
_cell_angle_gamma 121.32214
loop_
_atom_site_label
_atom_site_type_symbol
_atom_site_fract_x
_atom_site_fract_y
_atom_site_fract_z
_atom_type_partial_charge
Nd0 Nd 0.19343 0.73041 0.18328 0.0
Nd1 Nd 0.98686 0.60392 0.19672 0.0
C2 C 0.34647 0.8741 0.16209 0.0
C3 C 0.36488 0.89783 0.13608 0.0
C4 C 0.44712 -0.00937 0.12915 0.0
C5 C 0.46619 0.01207 0.10462 0.0
C6 C 0.40374 0.94074 0.08678 0.0
C7 C 0.31875 0.84916 0.09346 0.0
C8 C 0.30005 0.82777 0.118 0.0
C9 C 0.12488 0.52266 0.19015 0.0
C10 C 0.96894 0.66817 0.13319 0.0
C11 C 0.83946 0.45834 0.21983 0.0
C12 C 0.83126 0.41973 0.24771 0.0
C13 C 0.774 0.3144 0.2558 0.0
C14 C 0.76818 0.27562 0.28233 0.0
C15 C 0.81851 0.34139 0.30131 0.0
C16 C 0.87691 0.44714 0.29325 0.0
C17 C 0.88339 0.4858 0.26672 0.0
C18 C 0.05473 0.81146 0.18934 0.0
C19 C 0.21421 0.67104 0.24606 0.0
O20 O 0.26828 0.88696 0.16124 0.0
O21 O 0.34864 0.78889 0.17755 0.0
O22 O 0.22352 0.58742 0.1977 0.0
O23 O 0.0672 0.56868 0.17816 0.0
O24 O 0.07181 0.72586 0.14113 0.0
O25 O 0.915 0.60658 0.15071 0.0
O26 O 0.90419 0.44153 0.21477 0.0
O27 O 0.84462 0.54997 0.20871 0.0
O28 O 0.95604 0.74658 0.18152 0.0
O29 O 0.11261 0.76561 0.20172 0.0
O30 O 0.11204 0.60933 0.23881 0.0
O31 O 0.26465 0.7351 0.22822 0.0
H32 H 0.49725 0.04591 0.14283 0.0
H33 H 0.53143 0.08356 0.09985 0.0
H34 H 0.26629 0.79389 0.07986 0.0
H35 H 0.2355 0.75612 0.123 0.0
H36 H 0.73431 0.26183 0.24161 0.0
H37 H 0.72363 0.19382 0.28801 0.0
H38 H 0.91977 0.49992 0.30747 0.0
H39 H 0.93003 0.56717 0.26114 0.0
Nd40 Nd 0.75366 0.95855 0.55142 0.0
Nd41 Nd 0.87006 0.16847 0.56301 0.0
C42 C 0.67248 0.79054 0.53133 0.0
C43 C 0.61521 0.76357 0.50384 0.0
C44 C 0.6663 0.80728 0.48369 0.0
C45 C 0.60993 0.78539 0.45746 0.0
C46 C 0.50119 0.71919 0.45082 0.0
C47 C 0.45029 0.67557 0.47092 0.0
C48 C 0.50683 0.69668 0.49722 0.0
C49 C 0.62613 0.03061 0.55243 0.0
C50 C 0.79941 0.15484 0.5014 0.0
C51 C 0.95255 0.34098 0.58122 0.0
C52 C 1.00345 0.36989 0.60809 0.0
C53 C 1.02699 0.46656 0.61117 0.0
C54 C 0.06887 0.49181 0.63694 0.0
C55 C 0.08654 0.41978 0.66005 0.0
C56 C 0.06799 0.3251 0.65664 0.0
C57 C 1.02614 0.30001 0.63089 0.0
C58 C 0.99648 0.09569 0.5617 0.0
C59 C 0.82645 0.97502 0.61318 0.0
O60 O 0.77223 0.85634 0.53602 0.0
O61 O 0.62249 0.8064 0.54217 0.0
O62 O 0.61758 0.93862 0.56309 0.0
O63 O 0.69893 0.08143 0.54123 0.0
O64 O 0.78466 0.05867 0.51071 0.0
O65 O 0.81733 0.2126 0.51729 0.0
O66 O 0.85219 0.27736 0.57599 0.0
O67 O 1.0047 0.31727 0.57323 0.0
O68 O 1.00451 0.18735 0.55084 0.0
O69 O 0.92455 0.04543 0.57316 0.0
O70 O 0.83583 0.06931 0.60336 0.0
O71 O 0.81195 0.91779 0.59756 0.0
H72 H 0.7495 0.85996 0.48796 0.0
H73 H 0.65113 0.82293 0.44229 0.0
H74 H 0.36643 0.62499 0.46626 0.0
H75 H 0.46534 0.66198 0.51229 0.0
H76 H 1.01132 0.52186 0.59368 0.0
H77 H 0.08585 0.56718 0.6385 0.0
H78 H 0.08208 0.26869 0.67399 0.0
H79 H 1.00947 0.22527 0.62882 0.0
Nd80 Nd 0.93781 0.76962 0.87745 0.0
Nd81 Nd 0.7894 0.85943 0.86476 0.0
C82 C 0.08892 0.73262 0.87967 0.0
C83 C 0.10664 0.6979 0.86115 0.0
C84 C 0.19093 0.76423 0.85016 0.0
C85 C 0.20514 0.73515 0.83134 0.0
C86 C 0.1356 0.6391 0.82321 0.0
C87 C 1.05059 0.57277 0.83409 0.0
C88 C 1.03677 0.6016 0.85302 0.0
C89 C 0.73126 0.62768 0.87123 0.0
C90 C 0.8306 0.85149 0.81343 0.0
C91 C 0.63569 0.89418 0.86188 0.0
C92 C 0.6053 0.90882 0.88148 0.0
C93 C 0.49835 0.86853 0.87902 0.0
C94 C 0.46837 0.87476 0.89872 0.0
C95 C 0.54465 0.92235 0.92102 0.0
C96 C 0.65224 0.96284 0.92339 0.0
C97 C 0.68212 0.95586 0.9038 0.0
C98 C 0.99679 0.00025 0.8711 0.0
C99 C 0.89815 0.78078 0.92862 0.0
O100 O 0.09284 0.82437 0.87194 0.0
O101 O 1.01253 0.66579 0.89042 0.0
O102 O 0.80964 0.61071 0.88919 0.0
O103 O 0.76304 0.71407 0.85659 0.0
O104 O 0.90852 0.82921 0.83114 0.0
O105 O 0.7635 0.85553 0.82125 0.0
O106 O 0.62576 0.80209 0.8649 0.0
O107 O 0.72326 0.96695 0.85658 0.0
O108 O 0.91902 0.0175 0.85275 0.0
O109 O 0.96388 0.91428 0.88575 0.0
O110 O 0.81685 0.79755 0.91094 0.0
O111 O 0.96767 0.78151 0.92063 0.0
H112 H 0.24438 0.83966 0.85563 0.0
H113 H 0.26983 0.78849 0.82282 0.0
H114 H 0.99291 0.49968 0.82761 0.0
H115 H 0.96979 0.54928 0.86074 0.0
H116 H 0.43815 0.83016 0.8622 0.0
H117 H 0.38525 0.84106 0.89676 0.0
H118 H 0.71394 -0.00325 0.94067 0.0
H119 H 0.76528 -0.01489 0.90644 0.0
H120 H 0.1742 0.96478 0.19984 0.0
C121 C 0.09088 0.91955 0.19057 0.0
H122 H 0.93952 0.91495 0.17349 0.0
H123 H 1.04282 0.26207 0.23036 0.0
H124 H 0.92696 0.1108 0.25387 0.0
H125 H 0.86967 0.93792 0.24658 0.0
H126 H 0.92844 0.91528 0.21583 0.0
C127 C 1.02345 0.96131 0.18178 0.0
C128 C 0.05818 0.06685 0.18575 0.0
C129 C 1.0215 0.07925 0.20341 0.0
C130 C 1.05337 0.17927 0.20734 0.0
C131 C 1.01881 0.1885 0.22597 0.0
C132 C 0.95281 0.10213 0.23979 0.0
C133 C 0.92064 0.0048 0.2357 0.0
C134 C 0.9547 -0.00703 0.21788 0.0
H135 H 1.00485 0.36956 0.17955 0.0
C136 C 0.08831 0.41467 0.18871 0.0
H137 H 0.23958 0.4191 0.20547 0.0
H138 H 0.13616 0.07194 0.14871 0.0
H139 H 0.25208 0.22321 0.12519 0.0
H140 H 0.30923 0.39611 0.13243 0.0
H141 H 0.25027 0.41882 0.16313 0.0
C142 C 0.15557 0.37283 0.19726 0.0
C143 C 0.12054 0.26728 0.19322 0.0
C144 C 0.15722 0.25486 0.17556 0.0
C145 C 0.12538 0.15484 0.17165 0.0
C146 C 0.16008 0.14556 0.15306 0.0
C147 C 0.22613 0.23191 0.13925 0.0
C148 C 0.25822 0.32925 0.14331 0.0
C149 C 0.22405 0.34112 0.1611 0.0
H150 H 0.56069 0.1427 0.53955 0.0
C151 C 0.55073 0.0662 0.55039 0.0
H152 H 0.45906 0.92829 0.57155 0.0
H153 H 0.31389 0.24596 0.58226 0.0
H154 H 0.49632 0.33581 0.60766 0.0
H155 H 0.63141 0.28846 0.61167 0.0
H156 H 0.58527 0.15181 0.59012 0.0
C157 C 0.47053 0.00586 0.56143 0.0
C158 C 0.3899 0.03736 0.5587 0.0
C159 C 0.41792 0.11709 0.57166 0.0
C160 C 0.33935 0.1433 0.56971 0.0
C161 C 0.37003 0.22314 0.58292 0.0
C162 C 0.47448 0.27513 0.59768 0.0
C163 C 0.55056 0.24854 0.59992 0.0
C164 C 0.52302 0.17025 0.58724 0.0
H165 H 0.06221 -0.01618 0.57469 0.0
C166 C 0.07179 0.0601 0.56372 0.0
H167 H 0.16272 0.19761 0.54228 0.0
H168 H 0.308 0.87989 0.53176 0.0
H169 H 0.12539 0.78952 0.50656 0.0
H170 H 0.99028 0.83668 0.50263 0.0
H171 H 1.03659 0.97373 0.52405 0.0
C172 C 0.15155 0.12022 0.55253 0.0
C173 C 0.23216 0.08871 0.55528 0.0
C174 C 0.20409 0.00884 0.54238 0.0
C175 C 0.28266 -0.01734 0.5443 0.0
C176 C 0.25188 0.90267 0.53114 0.0
C177 C 0.14731 0.85038 0.51648 0.0
C178 C 0.07122 0.87687 0.51429 0.0
C179 C 0.09887 0.95541 0.52689 0.0
H180 H 0.16421 0.05565 0.89474 0.0
C181 C 0.10894 0.0747 0.87647 0.0
H182 H 0.08893 0.18291 0.8415 0.0
H183 H 0.50037 0.56606 0.88643 0.0
H184 H 0.36289 0.60642 0.88202 0.0
H185 H 0.17652 0.47869 0.87106 0.0
H186 H 0.12567 0.31215 0.86303 0.0
C187 C 0.1444 0.16291 0.85955 0.0
C188 C 0.25796 0.23939 0.86599 0.0
C189 C 0.28619 0.33847 0.86949 0.0
C190 C 0.39405 0.41207 0.87589 0.0
C191 C 0.41979 0.50852 0.88051 0.0
C192 C 0.34165 0.53242 0.87836 0.0
C193 C 0.23663 0.46076 0.87204 0.0
C194 C 0.20866 0.36509 0.86756 0.0
H195 H 0.56246 0.56929 0.84835 0.0
C196 C 0.61952 0.55214 0.86644 0.0
H197 H 0.64398 0.44716 0.90188 0.0
H198 H 0.232 0.06012 0.85824 0.0
H199 H 0.37019 0.01652 0.86522 0.0
H200 H 0.55736 0.1406 0.87861 0.0
H201 H 0.60722 0.31046 0.88437 0.0
C202 C 0.58677 0.46483 0.88391 0.0
C203 C 0.47378 0.38702 0.87844 0.0
C204 C 0.44592 0.28693 0.87577 0.0
C205 C 0.33793 0.21382 0.86897 0.0
C206 C 0.31255 0.11695 0.86473 0.0
C207 C 0.39122 0.0911 0.86839 0.0
C208 C 0.49657 0.16116 0.87582 0.0
C209 C 0.52403 0.25838 0.87917 0.0
H210 H 0.42718 0.86861 0.94204 0.0
C211 C 0.50847 0.92137 0.94215 0.0
H212 H 0.65167 0.03395 0.9628 0.0
H213 H 0.29526 -0.0209 1.0109 0.0
H214 H 0.24003 0.0768 0.96752 0.0
H215 H 0.32117 0.12695 0.93171 0.0
H216 H 0.45437 0.07568 0.93861 0.0
C217 C 0.57031 -0.02059 0.96168 0.0
C218 C 0.53175 0.96204 0.98418 0.0
C219 C 0.45591 -0.00525 0.97999 0.0
C220 C 0.41281 0.96989 1.00106 0.0
C221 C 0.33327 -0.001 0.99591 0.0
C222 C 0.30045 0.05462 0.97105 0.0
C223 C 0.34556 0.08226 0.95081 0.0
C224 C 0.42197 0.05238 0.95505 0.0
H225 H 0.48087 0.04277 0.05483 0.0
C226 C 0.43109 0.96355 0.06179 0.0
H227 H 0.3636 0.80967 0.05652 0.0
H228 H 0.678 0.89035 0.99879 0.0
H229 H 0.73778 0.79757 0.04254 0.0
H230 H 0.66732 0.75905 0.07963 0.0
H231 H 0.53611 0.81226 0.07312 0.0
C232 C 0.40564 0.89025 0.04891 0.0
C233 C 0.44863 0.91555 1.02653 0.0
C234 C 0.52616 0.88469 1.03084 0.0
C235 C 0.56774 0.90797 1.00961 0.0
C236 C 0.64419 0.87523 1.0143 0.0
C237 C 0.67927 0.82193 1.03932 0.0
C238 C 0.63952 0.80016 0.06018 0.0
C239 C 0.564 0.83103 0.05614 0.0
H240 H 0.80695 0.27843 0.46594 0.0
C241 C 0.80033 0.20096 0.47309 0.0
H242 H 0.79083 0.07533 0.46322 0.0
H243 H 0.62185 0.21294 0.33694 0.0
H244 H 0.46449 0.06408 0.34573 0.0
H245 H 0.46228 0.97416 0.39221 0.0
H246 H 0.61602 0.03554 0.43031 0.0
C247 C 0.79905 0.15336 0.45655 0.0
C248 C 0.8044 0.20357 0.42835 0.0
C249 C 0.71575 0.16386 0.40618 0.0
C250 C 0.71868 0.21293 0.37923 0.0
C251 C 0.62584 0.17621 0.3577 0.0
C252 C 0.53446 0.09135 0.36248 0.0
C253 C 0.53312 0.04085 0.38865 0.0
C254 C 0.62217 0.07668 0.41033 0.0
H255 H 0.7947 0.21568 0.33636 0.0
C256 C 0.81126 0.29617 0.32943 0.0
H257 H 0.83377 0.42751 0.33975 0.0
H258 H 0.9921 0.29477 0.46597 0.0
H259 H 0.14768 0.44662 0.45727 0.0
H260 H 0.15155 0.53341 0.41073 0.0
H261 H 1.00099 0.46723 0.37253 0.0
C262 C 0.81896 0.34757 0.34617 0.0
C263 C 0.81234 0.29886 0.37437 0.0
C264 C 0.9006 0.33932 0.39658 0.0
C265 C 0.89722 0.29096 0.42353 0.0
C266 C 0.98857 0.33044 0.44517 0.0
C267 C 0.07891 0.41718 0.44046 0.0
C268 C 0.08119 0.46589 0.41425 0.0
C269 C 0.99386 0.4272 0.39249 0.0
H270 H 0.75083 0.89052 0.7705 0.0
C271 C 0.81575 0.87199 0.78401 0.0
H272 H 0.94216 0.84922 0.78635 0.0
H273 H 0.72924 0.75544 0.66573 0.0
H274 H 0.70843 0.58727 0.6915 0.0
H275 H 0.75825 0.5571 0.7412 0.0
H276 H 0.82769 0.69477 0.76537 0.0
C277 C 0.87875 0.87055 0.77332 0.0
C278 C 0.86023 0.89286 0.74335 0.0
C279 C 0.82499 0.81327 0.72942 0.0
C280 C 0.80103 0.83214 0.70069 0.0
C281 C 0.7561 0.74801 0.68745 0.0
C282 C 0.74194 0.6503 0.70201 0.0
C283 C 0.76967 0.63318 0.72999 0.0
C284 C 0.80974 0.71308 0.74362 0.0
H285 H 0.88417 0.89275 0.6532 0.0
C286 C 0.83854 0.93632 0.64242 0.0
H287 H 0.74936 -0.00175 0.64405 0.0
H288 H 0.93503 0.06512 0.76374 0.0
H289 H 0.95532 0.23367 0.73825 0.0
H290 H 0.91372 0.26686 0.68871 0.0
H291 H 0.85683 0.1343 0.66454 0.0
C292 C 0.79646 0.95637 0.65567 0.0
C293 C 0.8184 0.93274 0.6859 0.0
C294 C 0.85406 0.01249 0.70001 0.0
C295 C 0.87552 -0.00731 0.72863 0.0
C296 C 0.91395 0.07472 0.74203 0.0
C297 C 0.92692 0.17227 0.72768 0.0
C298 C 0.90405 0.19113 0.69982 0.0
C299 C 0.86996 0.11331 0.68612 0.0
H300 H 0.98666 0.75587 0.97151 0.0
C301 C 0.9164 0.76548 0.95806 0.0
H302 H 0.77996 0.77086 0.95589 0.0
H303 H 0.79707 0.52073 0.0761 0.0
H304 H 0.64229 0.39515 0.0499 0.0
H305 H 0.59095 0.43052 1.00015 0.0
H306 H 0.69553 0.59158 0.97632 0.0
C307 C 0.85223 0.76441 0.96885 0.0
C308 C 0.87596 0.74947 0.99885 0.0
C309 C 0.81127 0.65729 1.01261 0.0
C310 C 0.8391 0.63829 0.04142 0.0
C311 C 0.77746 0.54177 0.05441 0.0
C312 C 0.6887 0.46826 1.03957 0.0
C313 C 0.65992 0.48806 1.01156 0.0
C314 C 0.72055 0.58097 0.99814 0.0
H315 H 0.83382 0.65939 0.09591 0.0
C316 C 0.91549 0.67185 0.1037 0.0
H317 H 1.04993 0.70304 0.09525 0.0
H318 H 1.00987 0.93964 0.97893 0.0
H319 H 0.1637 0.06717 1.0049 0.0
H320 H 0.21118 0.03595 0.05458 0.0
H321 H 0.10443 0.87797 0.07853 0.0
C322 C 0.96883 0.6925 0.08674 0.0
C323 C 0.92955 0.7137 0.05649 0.0
C324 C 0.99159 0.80786 0.04254 0.0
C325 C 0.96484 0.8257 1.01383 0.0
C326 C 1.02796 0.92084 1.00067 0.0
C327 C 0.11612 -0.00478 1.01533 0.0
C328 C 0.14278 -0.0223 0.04328 0.0
C329 C 0.08107 0.88595 0.0568 0.0
H330 H 0.35715 0.69536 0.28081 0.0
C331 C 0.2733 0.67374 0.27483 0.0
H332 H 0.14602 0.64157 0.2869 0.0
H333 H 0.33585 0.50795 0.41113 0.0
H334 H 0.17573 0.35374 0.39908 0.0
H335 H 0.06579 0.34353 0.35169 0.0
H336 H 0.11677 0.4863 0.31603 0.0
C337 C 0.22946 0.66127 0.29301 0.0
C338 C 0.29191 0.6718 0.32183 0.0
C339 C 0.25952 0.58826 0.34257 0.0
C340 C 0.32138 0.59511 0.37003 0.0
C341 C 0.29004 0.50844 0.3901 0.0
C342 C 0.19877 0.41892 0.38342 0.0
C343 C 0.13697 0.4131 0.35675 0.0
C344 C 0.16698 0.4961 0.33646 0.0
H345 H 0.35543 0.68338 0.41633 0.0
C346 C 0.4379 0.69891 0.42284 0.0
H347 H 0.55881 0.71045 0.41171 0.0
H348 H 0.36653 0.85484 0.28803 0.0
H349 H 0.53116 0.00534 0.29986 0.0
H350 H 0.64591 0.01107 0.34687 0.0
H351 H 0.5935 0.86887 0.38253 0.0
C352 C 0.47731 0.6972 0.40552 0.0
C353 C 0.41438 0.68644 0.3768 0.0
C354 C 0.44739 0.76955 0.35607 0.0
C355 C 0.38441 0.7637 0.32869 0.0
C356 C 0.41478 0.85174 0.30883 0.0
C357 C 0.50852 0.93948 0.3154 0.0
C358 C 0.57285 0.94292 0.34188 0.0
C359 C 0.54199 0.86023 0.36214 0.0
H360 H 0.1898 0.67824 0.78804 0.0
C361 C 0.14874 0.61435 0.80174 0.0
H362 H 0.06915 0.45217 0.81102 0.0
H363 H 0.90438 0.43107 0.68587 0.0
H364 H 0.74261 0.37863 0.69497 0.0
H365 H 0.74531 0.38162 0.73964 0.0
H366 H 0.90997 0.43708 0.77547 0.0
C367 C 0.10946 0.51831 0.79769 0.0
C368 C 0.10715 0.50156 0.77253 0.0
C369 C 1.01006 0.4682 0.75192 0.0
C370 C 1.00871 0.46747 0.72614 0.0
C371 C 0.91051 0.43435 0.7058 0.0
C372 C 0.81682 0.40372 0.71076 0.0
C373 C 0.81833 0.40536 0.7359 0.0
C374 C 0.91353 0.43741 0.75629 0.0
H375 H 0.14117 0.38343 0.70465 0.0
C376 C 0.11705 0.43689 0.68792 0.0
H377 H 0.06975 0.55427 0.67739 0.0
H378 H 0.30309 0.55248 0.80922 0.0
H379 H 0.46604 0.60519 0.80033 0.0
H380 H 0.46557 0.61221 0.75499 0.0
H381 H 0.30235 0.56585 0.71827 0.0
C382 C 0.10166 0.50496 0.69346 0.0
C383 C 0.1045 0.49975 0.72111 0.0
C384 C 0.20113 0.52869 0.74213 0.0
C385 C 0.20207 0.52799 0.76804 0.0
C386 C 0.29882 0.55473 0.78896 0.0
C387 C 0.39262 0.58441 0.78418 0.0
C388 C 0.39229 0.58816 0.75864 0.0
C389 C 0.29795 0.56089 0.73777 0.0
loop_
_geom_bond_atom_site_label_1
_geom_bond_atom_site_label_2
_geom_bond_distance
_geom_bond_site_symmetry_2
_ccdc_geom_bond_type
Nd0 C2 2.836 . S
Nd0 O20 2.500 . S
Nd0 O21 2.492 . S
Nd0 O22 2.487 . S
Nd0 O23 2.682 1_455 S
Nd0 O24 2.410 1_455 S
Nd0 O29 2.414 . S
Nd0 O31 2.424 . S
Nd1 C11 2.836 . S
Nd1 O23 2.414 . S
Nd1 O25 2.424 . S
Nd1 O26 2.500 . S
Nd1 O27 2.492 . S
Nd1 O28 2.487 . S
Nd1 O29 2.682 1_655 S
Nd1 O30 2.410 1_655 S
C2 Nd0 2.836 . S
C2 C3 1.498 . S
C2 O20 1.258 . S
C2 O21 1.239 . S
C3 C2 1.498 . S
C3 C4 1.366 . S
C3 C8 1.407 . S
C4 C3 1.366 . S
C4 C5 1.392 . S
C4 H32 0.930 . S
C5 C4 1.392 . S
C5 C6 1.398 . S
C5 H33 0.929 1_565 S
C6 C5 1.398 . S
C6 C7 1.352 . S
C7 C6 1.352 . S
C7 C8 1.384 . S
C7 H34 0.930 . S
C8 C3 1.407 . S
C8 C7 1.384 . S
C8 H35 0.929 . S
C9 O22 1.241 . S
C9 O23 1.273 1_455 S
C10 O24 1.251 . S
C10 O25 1.268 . S
C11 Nd1 2.836 . S
C11 C12 1.498 . S
C11 O26 1.258 . S
C11 O27 1.239 . S
C12 C11 1.498 . S
C12 C13 1.366 . S
C12 C17 1.407 . S
C13 C12 1.366 . S
C13 C14 1.392 . S
C13 H36 0.930 . S
C14 C13 1.392 . S
C14 C15 1.398 . S
C14 H37 0.929 . S
C15 C14 1.398 . S
C15 C16 1.352 . S
C16 C15 1.352 . S
C16 C17 1.384 . S
C16 H38 0.930 . S
C17 C12 1.407 . S
C17 C16 1.384 . S
C17 H39 0.929 . S
C18 O28 1.241 . S
C18 O29 1.273 1_655 S
C19 O30 1.251 . S
C19 O31 1.268 . S
O20 Nd0 2.500 . S
O20 C2 1.258 . S
O21 Nd0 2.492 . S
O21 C2 1.239 . S
O22 Nd0 2.487 . S
O22 C9 1.241 . S
O23 Nd0 2.682 1_655 S
O23 Nd1 2.414 . S
O23 C9 1.273 1_655 S
O24 Nd0 2.410 1_655 S
O24 C10 1.251 . S
O25 Nd1 2.424 . S
O25 C10 1.268 . S
O26 Nd1 2.500 . S
O26 C11 1.258 . S
O27 Nd1 2.492 . S
O27 C11 1.239 . S
O28 Nd1 2.487 . S
O28 C18 1.241 . S
O29 Nd0 2.414 . S
O29 Nd1 2.682 1_455 S
O29 C18 1.273 1_455 S
O30 Nd1 2.410 1_455 S
O30 C19 1.251 . S
O31 Nd0 2.424 . S
O31 C19 1.268 . S
H32 C4 0.930 . S
H33 C5 0.929 1_545 S
H34 C7 0.930 . S
H35 C8 0.929 . S
H36 C13 0.930 . S
H37 C14 0.929 . S
H38 C16 0.930 . S
H39 C17 0.929 . S
Nd40 C42 2.836 . S
Nd40 O60 2.500 . S
Nd40 O61 2.492 . S
Nd40 O62 2.487 . S
Nd40 O63 2.682 1_565 S
Nd40 O64 2.410 1_565 S
Nd40 O69 2.414 . S
Nd40 O71 2.424 . S
Nd41 C51 2.836 . S
Nd41 O63 2.414 . S
Nd41 O65 2.424 . S
Nd41 O66 2.500 . S
Nd41 O67 2.492 . S
Nd41 O68 2.487 . S
Nd41 O69 2.682 1_545 S
Nd41 O70 2.410 . S
C42 Nd40 2.836 . S
C42 C43 1.498 . S
C42 O60 1.258 . S
C42 O61 1.239 . S
C43 C42 1.498 . S
C43 C44 1.366 . S
C43 C48 1.407 . S
C44 C43 1.366 . S
C44 C45 1.392 . S
C44 H72 0.930 . S
C45 C44 1.392 . S
C45 C46 1.398 . S
C45 H73 0.929 . S
C46 C45 1.398 . S
C46 C47 1.352 . S
C47 C46 1.352 . S
C47 C48 1.384 . S
C47 H74 0.930 . S
C48 C43 1.407 . S
C48 C47 1.384 . S
C48 H75 0.929 . S
C49 O62 1.241 . S
C49 O63 1.273 1_565 S
C50 O64 1.251 . S
C50 O65 1.268 . S
C51 Nd41 2.836 . S
C51 C52 1.498 . S
C51 O66 1.258 . S
C51 O67 1.239 . S
C52 C51 1.498 . S
C52 C53 1.366 . S
C52 C57 1.407 1_655 S
C53 C52 1.366 . S
C53 C54 1.392 . S
C53 H76 0.930 . S
C54 C53 1.392 . S
C54 C55 1.398 . S
C54 H77 0.929 . S
C55 C54 1.398 . S
C55 C56 1.352 1_655 S
C56 C55 1.352 1_455 S
C56 C57 1.384 . S
C56 H78 0.930 . S
C57 C52 1.407 1_455 S
C57 C56 1.384 . S
C57 H79 0.929 . S
C58 O68 1.241 . S
C58 O69 1.273 1_545 S
C59 O70 1.251 1_565 S
C59 O71 1.268 . S
O60 Nd40 2.500 . S
O60 C42 1.258 . S
O61 Nd40 2.492 . S
O61 C42 1.239 . S
O62 Nd40 2.487 . S
O62 C49 1.241 . S
O63 Nd40 2.682 1_545 S
O63 Nd41 2.414 . S
O63 C49 1.273 1_545 S
O64 Nd40 2.410 1_545 S
O64 C50 1.251 . S
O65 Nd41 2.424 . S
O65 C50 1.268 . S
O66 Nd41 2.500 . S
O66 C51 1.258 . S
O67 Nd41 2.492 . S
O67 C51 1.239 . S
O68 Nd41 2.487 . S
O68 C58 1.241 . S
O69 Nd40 2.414 . S
O69 Nd41 2.682 1_565 S
O69 C58 1.273 1_565 S
O70 Nd41 2.410 . S
O70 C59 1.251 1_545 S
O71 Nd40 2.424 . S
O71 C59 1.268 . S
H72 C44 0.930 . S
H73 C45 0.929 . S
H74 C47 0.930 . S
H75 C48 0.929 . S
H76 C53 0.930 . S
H77 C54 0.929 . S
H78 C56 0.930 . S
H79 C57 0.929 . S
Nd80 C82 2.836 . S
Nd80 O100 2.500 1_655 S
Nd80 O101 2.492 . S
Nd80 O102 2.487 . S
Nd80 O103 2.682 . S
Nd80 O104 2.410 . S
Nd80 O109 2.414 1_565 S
Nd80 O111 2.424 . S
Nd81 C91 2.829 1_565 S
Nd81 O103 2.425 . S
Nd81 O105 2.427 . S
Nd81 O106 2.497 . S
Nd81 O107 2.482 1_565 S
Nd81 O108 2.483 1_565 S
Nd81 O109 2.688 1_565 S
Nd81 O110 2.414 . S
C82 Nd80 2.836 . S
C82 C83 1.498 1_655 S
C82 O100 1.258 1_655 S
C82 O101 1.239 . S
C83 C82 1.498 1_455 S
C83 C84 1.366 . S
C83 C88 1.407 1_455 S
C84 C83 1.366 . S
C84 C85 1.392 . S
C84 H112 0.930 . S
C85 C84 1.392 . S
C85 C86 1.398 . S
C85 H113 0.929 . S
C86 C85 1.398 . S
C86 C87 1.352 1_455 S
C87 C86 1.352 1_655 S
C87 C88 1.384 . S
C87 H114 0.930 . S
C88 C83 1.407 1_655 S
C88 C87 1.384 . S
C88 H115 0.929 . S
C89 O102 1.241 . S
C89 O103 1.273 . S
C90 O104 1.251 . S
C90 O105 1.271 . S
C91 Nd81 2.829 1_545 S
C91 C92 1.498 . S
C91 O106 1.258 1_545 S
C91 O107 1.239 . S
C92 C91 1.498 . S
C92 C93 1.366 1_545 S
C92 C97 1.407 . S
C93 C92 1.366 1_565 S
C93 C94 1.392 . S
C93 H116 0.930 . S
C94 C93 1.392 . S
C94 C95 1.398 1_565 S
C94 H117 0.929 . S
C95 C94 1.398 1_545 S
C95 C96 1.352 . S
C96 C95 1.352 . S
C96 C97 1.384 . S
C96 H118 0.930 . S
C97 C92 1.407 . S
C97 C96 1.384 . S
C97 H119 0.929 . S
C98 O108 1.241 1_455 S
C98 O109 1.273 1_455 S
C99 O110 1.251 . S
C99 O111 1.268 . S
O100 Nd80 2.500 1_455 S
O100 C82 1.258 1_455 S
O101 Nd80 2.492 . S
O101 C82 1.239 . S
O102 Nd80 2.487 . S
O102 C89 1.241 . S
O103 Nd80 2.682 . S
O103 Nd81 2.425 . S
O103 C89 1.273 . S
O104 Nd80 2.410 . S
O104 C90 1.251 . S
O105 Nd81 2.427 . S
O105 C90 1.271 . S
O106 Nd81 2.497 . S
O106 C91 1.258 1_565 S
O107 Nd81 2.482 1_545 S
O107 C91 1.239 . S
O108 Nd81 2.483 1_545 S
O108 C98 1.241 1_655 S
O109 Nd80 2.414 1_545 S
O109 Nd81 2.688 1_545 S
O109 C98 1.273 1_655 S
O110 Nd81 2.414 . S
O110 C99 1.251 . S
O111 Nd80 2.424 . S
O111 C99 1.268 . S
H112 C84 0.930 . S
H113 C85 0.929 . S
H114 C87 0.930 . S
H115 C88 0.929 . S
H116 C93 0.930 . S
H117 C94 0.929 . S
H118 C96 0.930 . S
H119 C97 0.929 . S
H120 C121 0.951 . S
C121 H120 0.951 . S
C121 C127 1.265 1_455 S
H122 C127 0.950 . S
H123 C131 0.949 . S
H124 C132 0.950 . S
H125 C133 0.951 . S
H126 C134 0.951 . S
C127 C121 1.265 1_655 S
C127 H122 0.950 . S
C127 C128 1.478 1_565 S
C128 C127 1.478 1_545 S
C128 C129 1.397 . S
C128 C145 1.394 1_655 S
C129 C128 1.397 . S
C129 C130 1.438 . S
C129 C134 1.429 1_545 S
C130 C129 1.438 . S
C130 C131 1.428 . S
C130 C143 1.394 1_655 S
C131 H123 0.949 . S
C131 C130 1.428 . S
C131 C132 1.345 . S
C132 H124 0.950 . S
C132 C131 1.345 . S
C132 C133 1.424 1_545 S
C133 H125 0.951 . S
C133 C132 1.424 1_565 S
C133 C134 1.347 . S
C134 H126 0.951 . S
C134 C129 1.429 1_565 S
C134 C133 1.347 . S
H135 C136 0.951 . S
C136 H135 0.951 . S
C136 C142 1.265 1_655 S
H137 C142 0.950 . S
H138 C146 0.949 . S
H139 C147 0.950 . S
H140 C148 0.951 . S
H141 C149 0.951 . S
C142 C136 1.265 1_455 S
C142 H137 0.950 . S
C142 C143 1.478 . S
C143 C130 1.394 1_455 S
C143 C142 1.478 . S
C143 C144 1.397 . S
C144 C143 1.397 . S
C144 C145 1.438 . S
C144 C149 1.429 . S
C145 C128 1.394 1_455 S
C145 C144 1.438 . S
C145 C146 1.428 . S
C146 H138 0.949 . S
C146 C145 1.428 . S
C146 C147 1.345 . S
C147 H139 0.950 . S
C147 C146 1.345 . S
C147 C148 1.424 . S
C148 H140 0.951 . S
C148 C147 1.424 . S
C148 C149 1.347 . S
C149 H141 0.951 . S
C149 C144 1.429 . S
C149 C148 1.347 . S
H150 C151 0.951 . S
C151 H150 0.951 . S
C151 C157 1.265 . S
H152 C157 0.950 . S
H153 C161 0.949 . S
H154 C162 0.950 . S
H155 C163 0.951 . S
H156 C164 0.951 . S
C157 C151 1.265 . S
C157 H152 0.950 . S
C157 C158 1.478 . S
C158 C157 1.478 . S
C158 C159 1.397 . S
C158 C175 1.394 1_545 S
C159 C158 1.397 . S
C159 C160 1.438 . S
C159 C164 1.429 . S
C160 C159 1.438 . S
C160 C161 1.428 . S
C160 C173 1.394 . S
C161 H153 0.949 . S
C161 C160 1.428 . S
C161 C162 1.345 . S
C162 H154 0.950 . S
C162 C161 1.345 . S
C162 C163 1.424 . S
C163 H155 0.951 . S
C163 C162 1.424 . S
C163 C164 1.347 . S
C164 H156 0.951 . S
C164 C159 1.429 . S
C164 C163 1.347 . S
H165 C166 0.951 . S
C166 H165 0.951 . S
C166 C172 1.265 . S
H167 C172 0.950 1_655 S
H168 C176 0.949 . S
H169 C177 0.950 . S
H170 C178 0.951 1_655 S
H171 C179 0.951 1_655 S
C172 C166 1.265 . S
C172 H167 0.950 1_455 S
C172 C173 1.478 . S
C173 C160 1.394 . S
C173 C172 1.478 . S
C173 C174 1.397 1_545 S
C174 C173 1.397 1_565 S
C174 C175 1.438 . S
C174 C179 1.429 . S
C175 C158 1.394 1_565 S
C175 C174 1.438 . S
C175 C176 1.428 . S
C176 H168 0.949 . S
C176 C175 1.428 . S
C176 C177 1.345 . S
C177 H169 0.950 . S
C177 C176 1.345 . S
C177 C178 1.424 . S
C178 H170 0.951 1_455 S
C178 C177 1.424 . S
C178 C179 1.347 . S
C179 H171 0.951 1_455 S
C179 C174 1.429 . S
C179 C178 1.347 . S
H180 C181 0.951 . S
C181 H180 0.951 . S
C181 C187 1.265 . S
H182 C187 0.950 . S
H183 C191 0.949 . S
H184 C192 0.950 . S
H185 C193 0.951 . S
H186 C194 0.951 . S
C187 C181 1.265 . S
C187 H182 0.950 . S
C187 C188 1.478 . S
C188 C187 1.478 . S
C188 C189 1.397 . S
C188 C205 1.394 . S
C189 C188 1.397 . S
C189 C190 1.438 . S
C189 C194 1.429 . S
C190 C189 1.438 . S
C190 C191 1.428 . S
C190 C203 1.394 . S
C191 H183 0.949 . S
C191 C190 1.428 . S
C191 C192 1.345 . S
C192 H184 0.950 . S
C192 C191 1.345 . S
C192 C193 1.424 . S
C193 H185 0.951 . S
C193 C192 1.424 . S
C193 C194 1.347 . S
C194 H186 0.951 . S
C194 C189 1.429 . S
C194 C193 1.347 . S
H195 C196 0.951 . S
C196 H195 0.951 . S
C196 C202 1.265 . S
H197 C202 0.950 . S
H198 C206 0.949 . S
H199 C207 0.950 . S
H200 C208 0.951 . S
H201 C209 0.951 . S
C202 C196 1.265 . S
C202 H197 0.950 . S
C202 C203 1.478 . S
C203 C190 1.394 . S
C203 C202 1.478 . S
C203 C204 1.397 . S
C204 C203 1.397 . S
C204 C205 1.438 . S
C204 C209 1.429 . S
C205 C188 1.394 . S
C205 C204 1.438 . S
C205 C206 1.428 . S
C206 H198 0.949 . S
C206 C205 1.428 . S
C206 C207 1.345 . S
C207 H199 0.950 . S
C207 C206 1.345 . S
C207 C208 1.424 . S
C208 H200 0.951 . S
C208 C207 1.424 . S
C208 C209 1.347 . S
C209 H201 0.951 . S
C209 C204 1.429 . S
C209 C208 1.347 . S
H210 C211 0.951 . S
C211 H210 0.951 . S
C211 C217 1.265 . S
H212 C217 0.950 . S
H213 C221 0.949 . S
H214 C222 0.950 . S
H215 C223 0.951 . S
H216 C224 0.951 . S
C217 C211 1.265 . S
C217 H212 0.950 . S
C217 C218 1.478 . S
C218 C217 1.478 . S
C218 C219 1.397 . S
C218 C235 1.394 1_545 S
C219 C218 1.397 . S
C219 C220 1.438 . S
C219 C224 1.429 . S
C220 C219 1.438 . S
C220 C221 1.428 . S
C220 C233 1.394 1_545 S
C221 H213 0.949 . S
C221 C220 1.428 . S
C221 C222 1.345 . S
C222 H214 0.950 . S
C222 C221 1.345 . S
C222 C223 1.424 . S
C223 H215 0.951 . S
C223 C222 1.424 . S
C223 C224 1.347 . S
C224 H216 0.951 . S
C224 C219 1.429 . S
C224 C223 1.347 . S
H225 C226 0.951 1_545 S
C226 H225 0.951 1_565 S
C226 C232 1.265 . S
H227 C232 0.950 . S
H228 C236 0.949 . S
H229 C237 0.950 . S
H230 C238 0.951 . S
H231 C239 0.951 . S
C232 C226 1.265 . S
C232 H227 0.950 . S
C232 C233 1.478 1_554 S
C233 C220 1.394 1_565 S
C233 C232 1.478 1_556 S
C233 C234 1.397 . S
C234 C233 1.397 . S
C234 C235 1.438 . S
C234 C239 1.429 1_556 S
C235 C218 1.394 1_565 S
C235 C234 1.438 . S
C235 C236 1.428 . S
C236 H228 0.949 . S
C236 C235 1.428 . S
C236 C237 1.345 1_556 S
C237 H229 0.950 . S
C237 C236 1.345 1_554 S
C237 C238 1.424 . S
C238 H230 0.951 . S
C238 C237 1.424 . S
C238 C239 1.347 . S
C239 H231 0.951 . S
C239 C234 1.429 1_554 S
C239 C238 1.347 . S
H240 C241 0.951 . S
C241 H240 0.951 . S
C241 C247 1.265 . S
H242 C247 0.950 . S
H243 C251 0.949 . S
H244 C252 0.950 . S
H245 C253 0.951 1_565 S
H246 C254 0.951 . S
C247 C241 1.265 . S
C247 H242 0.950 . S
C247 C248 1.478 . S
C248 C247 1.478 . S
C248 C249 1.397 . S
C248 C265 1.394 . S
C249 C248 1.397 . S
C249 C250 1.438 . S
C249 C254 1.429 . S
C250 C249 1.438 . S
C250 C251 1.428 . S
C250 C263 1.394 . S
C251 H243 0.949 . S
C251 C250 1.428 . S
C251 C252 1.345 . S
C252 H244 0.950 . S
C252 C251 1.345 . S
C252 C253 1.424 . S
C253 H245 0.951 1_545 S
C253 C252 1.424 . S
C253 C254 1.347 . S
C254 H246 0.951 . S
C254 C249 1.429 . S
C254 C253 1.347 . S
H255 C256 0.951 . S
C256 H255 0.951 . S
C256 C262 1.265 . S
H257 C262 0.950 . S
H258 C266 0.949 . S
H259 C267 0.950 1_455 S
H260 C268 0.951 . S
H261 C269 0.951 . S
C262 C256 1.265 . S
C262 H257 0.950 . S
C262 C263 1.478 . S
C263 C250 1.394 . S
C263 C262 1.478 . S
C263 C264 1.397 . S
C264 C263 1.397 . S
C264 C265 1.438 . S
C264 C269 1.429 . S
C265 C248 1.394 . S
C265 C264 1.438 . S
C265 C266 1.428 . S
C266 H258 0.949 . S
C266 C265 1.428 . S
C266 C267 1.345 . S
C267 H259 0.950 1_655 S
C267 C266 1.345 . S
C267 C268 1.424 . S
C268 H260 0.951 . S
C268 C267 1.424 . S
C268 C269 1.347 . S
C269 H261 0.951 . S
C269 C264 1.429 . S
C269 C268 1.347 . S
H270 C271 0.951 . S
C271 H270 0.951 . S
C271 C277 1.265 . S
H272 C277 0.950 . S
H273 C281 0.949 . S
H274 C282 0.950 . S
H275 C283 0.951 . S
H276 C284 0.951 . S
C277 C271 1.265 . S
C277 H272 0.950 . S
C277 C278 1.478 . S
C278 C277 1.478 . S
C278 C279 1.397 . S
C278 C295 1.394 1_565 S
C279 C278 1.397 . S
C279 C280 1.438 . S
C279 C284 1.429 . S
C280 C279 1.438 . S
C280 C281 1.428 . S
C280 C293 1.394 . S
C281 H273 0.949 . S
C281 C280 1.428 . S
C281 C282 1.345 . S
C282 H274 0.950 . S
C282 C281 1.345 . S
C282 C283 1.424 . S
C283 H275 0.951 . S
C283 C282 1.424 . S
C283 C284 1.347 . S
C284 H276 0.951 . S
C284 C279 1.429 . S
C284 C283 1.347 . S
H285 C286 0.951 . S
C286 H285 0.951 . S
C286 C292 1.265 . S
H287 C292 0.950 . S
H288 C296 0.949 . S
H289 C297 0.950 . S
H290 C298 0.951 . S
H291 C299 0.951 . S
C292 C286 1.265 . S
C292 H287 0.950 . S
C292 C293 1.478 . S
C293 C280 1.394 . S
C293 C292 1.478 . S
C293 C294 1.397 1_565 S
C294 C293 1.397 1_545 S
C294 C295 1.438 . S
C294 C299 1.429 . S
C295 C278 1.394 1_545 S
C295 C294 1.438 . S
C295 C296 1.428 . S
C296 H288 0.949 . S
C296 C295 1.428 . S
C296 C297 1.345 . S
C297 H289 0.950 . S
C297 C296 1.345 . S
C297 C298 1.424 . S
C298 H290 0.951 . S
C298 C297 1.424 . S
C298 C299 1.347 . S
C299 H291 0.951 . S
C299 C294 1.429 . S
C299 C298 1.347 . S
H300 C301 0.951 . S
C301 H300 0.951 . S
C301 C307 1.265 . S
H302 C307 0.950 . S
H303 C311 0.949 . S
H304 C312 0.950 1_554 S
H305 C313 0.951 . S
H306 C314 0.951 . S
C307 C301 1.265 . S
C307 H302 0.950 . S
C307 C308 1.478 . S
C308 C307 1.478 . S
C308 C309 1.397 . S
C308 C325 1.394 . S
C309 C308 1.397 . S
C309 C310 1.438 1_556 S
C309 C314 1.429 . S
C310 C309 1.438 1_554 S
C310 C311 1.428 . S
C310 C323 1.394 . S
C311 H303 0.949 . S
C311 C310 1.428 . S
C311 C312 1.345 1_554 S
C312 H304 0.950 1_556 S
C312 C311 1.345 1_556 S
C312 C313 1.424 . S
C313 H305 0.951 . S
C313 C312 1.424 . S
C313 C314 1.347 . S
C314 H306 0.951 . S
C314 C309 1.429 . S
C314 C313 1.347 . S
H315 C316 0.951 . S
C316 H315 0.951 . S
C316 C322 1.265 . S
H317 C322 0.946 1_455 S
H318 C326 0.949 . S
H319 C327 0.950 . S
H320 C328 0.951 . S
H321 C329 0.951 . S
C322 C316 1.265 . S
C322 H317 0.946 1_655 S
C322 C323 1.478 . S
C323 C310 1.394 . S
C323 C322 1.478 . S
C323 C324 1.397 . S
C324 C323 1.397 . S
C324 C325 1.438 1_554 S
C324 C329 1.429 1_655 S
C325 C308 1.394 . S
C325 C324 1.438 1_556 S
C325 C326 1.428 1_655 S
C326 H318 0.949 . S
C326 C325 1.428 1_455 S
C326 C327 1.345 1_565 S
C327 H319 0.950 . S
C327 C326 1.345 1_545 S
C327 C328 1.424 1_556 S
C328 H320 0.951 . S
C328 C327 1.424 1_554 S
C328 C329 1.347 1_545 S
C329 H321 0.951 . S
C329 C324 1.429 1_455 S
C329 C328 1.347 1_565 S
H330 C331 0.951 . S
C331 H330 0.951 . S
C331 C337 1.265 . S
H332 C337 0.950 . S
H333 C341 0.949 . S
H334 C342 0.950 . S
H335 C343 0.951 1_655 S
H336 C344 0.951 . S
C337 C331 1.265 . S
C337 H332 0.950 . S
C337 C338 1.478 . S
C338 C337 1.478 . S
C338 C339 1.397 . S
C338 C355 1.394 . S
C339 C338 1.397 . S
C339 C340 1.438 . S
C339 C344 1.429 . S
C340 C339 1.438 . S
C340 C341 1.428 . S
C340 C353 1.394 . S
C341 H333 0.949 . S
C341 C340 1.428 . S
C341 C342 1.345 . S
C342 H334 0.950 . S
C342 C341 1.345 . S
C342 C343 1.424 . S
C343 H335 0.951 1_455 S
C343 C342 1.424 . S
C343 C344 1.347 . S
C344 H336 0.951 . S
C344 C339 1.429 . S
C344 C343 1.347 . S
H345 C346 0.951 . S
C346 H345 0.951 . S
C346 C352 1.265 . S
H347 C352 0.950 . S
H348 C356 0.949 . S
H349 C357 0.950 . S
H350 C358 0.951 . S
H351 C359 0.951 . S
C352 C346 1.265 . S
C352 H347 0.950 . S
C352 C353 1.478 . S
C353 C340 1.394 . S
C353 C352 1.478 . S
C353 C354 1.397 . S
C354 C353 1.397 . S
C354 C355 1.438 . S
C354 C359 1.429 . S
C355 C338 1.394 . S
C355 C354 1.438 . S
C355 C356 1.428 . S
C356 H348 0.949 . S
C356 C355 1.428 . S
C356 C357 1.345 . S
C357 H349 0.950 . S
C357 C356 1.345 . S
C357 C358 1.424 . S
C358 H350 0.951 . S
C358 C357 1.424 . S
C358 C359 1.347 . S
C359 H351 0.951 . S
C359 C354 1.429 . S
C359 C358 1.347 . S
H360 C361 0.951 . S
C361 H360 0.951 . S
C361 C367 1.265 . S
H362 C367 0.950 . S
H363 C371 0.949 . S
H364 C372 0.950 . S
H365 C373 0.951 . S
H366 C374 0.951 . S
C367 C361 1.265 . S
C367 H362 0.950 . S
C367 C368 1.478 . S
C368 C367 1.478 . S
C368 C369 1.397 1_455 S
C368 C385 1.394 . S
C369 C368 1.397 1_655 S
C369 C370 1.438 . S
C369 C374 1.429 . S
C370 C369 1.438 . S
C370 C371 1.428 . S
C370 C383 1.394 1_655 S
C371 H363 0.949 . S
C371 C370 1.428 . S
C371 C372 1.345 . S
C372 H364 0.950 . S
C372 C371 1.345 . S
C372 C373 1.424 . S
C373 H365 0.951 . S
C373 C372 1.424 . S
C373 C374 1.347 . S
C374 H366 0.951 . S
C374 C369 1.429 . S
C374 C373 1.347 . S
H375 C376 0.951 . S
C376 H375 0.951 . S
C376 C382 1.265 1_655 S
H377 C382 0.950 . S
H378 C386 0.949 . S
H379 C387 0.950 . S
H380 C388 0.951 . S
H381 C389 0.951 . S
C382 C376 1.265 1_455 S
C382 H377 0.950 . S
C382 C383 1.478 . S
C383 C370 1.394 1_455 S
C383 C382 1.478 . S
C383 C384 1.397 . S
C384 C383 1.397 . S
C384 C385 1.438 . S
C384 C389 1.429 . S
C385 C368 1.394 . S
C385 C384 1.438 . S
C385 C386 1.428 . S
C386 H378 0.949 . S
C386 C385 1.428 . S
C386 C387 1.345 . S
C387 H379 0.950 . S
C387 C386 1.345 . S
C387 C388 1.424 . S
C388 H380 0.951 . S
C388 C387 1.424 . S
C388 C389 1.347 . S
C389 H381 0.951 . S
C389 C384 1.429 . S
C389 C388 1.347 . S
C121 C18 1.499 1_455 S
C136 C9 1.499 1_655 S
C151 C49 1.576 1_545 S
C166 C58 1.576 1_455 S
C181 C98 1.268 . S
C196 C89 1.268 . S
C211 C95 0.935 . S
C226 C6 1.009 . S
C241 C50 1.967 . S
C256 C15 1.929 . S
C271 C90 2.432 . S
C286 C59 2.427 . S
C301 C99 2.320 . S
C316 C10 2.296 . S
C331 C19 1.605 . S
C346 C46 1.500 . S
C361 C86 0.998 . S
C376 C55 0.996 . S
