# Generated by pormake.
# Topology wgb, (5)-cn, num edge types: 1
# Building blocks:
#     Node 0, Type 0, BuildingBlock: BEQFEK_clean_sbu_0, # of connection points: 5
#     Node 1, Type 0, BuildingBlock: BEQFEK_clean_sbu_0, # of connection points: 5
#     Node 2, Type 0, BuildingBlock: BEQFEK_clean_sbu_0, # of connection points: 5
#     Node 3, Type 0, BuildingBlock: BEQFEK_clean_sbu_0, # of connection points: 5
#     Node 4, Type 0, BuildingBlock: BEQFEK_clean_sbu_0, # of connection points: 5
#     Node 5, Type 0, BuildingBlock: BEQFEK_clean_sbu_0, # of connection points: 5
#     Node 6, Type 0, BuildingBlock: BEQFEK_clean_sbu_0, # of connection points: 5
#     Node 7, Type 0, BuildingBlock: BEQFEK_clean_sbu_0, # of connection points: 5
#     Node 8, Type 0, BuildingBlock: BEQFEK_clean_sbu_0, # of connection points: 5
#     Node 9, Type 0, BuildingBlock: BEQFEK_clean_sbu_0, # of connection points: 5
#     Node 10, Type 0, BuildingBlock: BEQFEK_clean_sbu_0, # of connection points: 5
#     Node 11, Type 0, BuildingBlock: BEQFEK_clean_sbu_0, # of connection points: 5
#     Node 12, Type 0, BuildingBlock: BEQFEK_clean_sbu_0, # of connection points: 5
#     Node 13, Type 0, BuildingBlock: BEQFEK_clean_sbu_0, # of connection points: 5
#     Node 14, Type 0, BuildingBlock: BEQFEK_clean_sbu_0, # of connection points: 5
#     Node 15, Type 0, BuildingBlock: BEQFEK_clean_sbu_0, # of connection points: 5
#     Edge 16, Type (0, 0), BuildingBlock: KIFKEQ_clean_linker_1, # of connection points: 2
#     Edge 17, Type (0, 0), BuildingBlock: KIFKEQ_clean_linker_1, # of connection points: 2
#     Edge 18, Type (0, 0), BuildingBlock: KIFKEQ_clean_linker_1, # of connection points: 2
#     Edge 19, Type (0, 0), BuildingBlock: KIFKEQ_clean_linker_1, # of connection points: 2
#     Edge 20, Type (0, 0), BuildingBlock: KIFKEQ_clean_linker_1, # of connection points: 2
#     Edge 21, Type (0, 0), BuildingBlock: KIFKEQ_clean_linker_1, # of connection points: 2
#     Edge 22, Type (0, 0), BuildingBlock: KIFKEQ_clean_linker_1, # of connection points: 2
#     Edge 23, Type (0, 0), BuildingBlock: KIFKEQ_clean_linker_1, # of connection points: 2
#     Edge 24, Type (0, 0), BuildingBlock: KIFKEQ_clean_linker_1, # of connection points: 2
#     Edge 25, Type (0, 0), BuildingBlock: KIFKEQ_clean_linker_1, # of connection points: 2
#     Edge 26, Type (0, 0), BuildingBlock: KIFKEQ_clean_linker_1, # of connection points: 2
#     Edge 27, Type (0, 0), BuildingBlock: KIFKEQ_clean_linker_1, # of connection points: 2
#     Edge 28, Type (0, 0), BuildingBlock: KIFKEQ_clean_linker_1, # of connection points: 2
#     Edge 29, Type (0, 0), BuildingBlock: KIFKEQ_clean_linker_1, # of connection points: 2
#     Edge 30, Type (0, 0), BuildingBlock: KIFKEQ_clean_linker_1, # of connection points: 2
#     Edge 31, Type (0, 0), BuildingBlock: KIFKEQ_clean_linker_1, # of connection points: 2
#     Edge 32, Type (0, 0), BuildingBlock: KIFKEQ_clean_linker_1, # of connection points: 2
#     Edge 33, Type (0, 0), BuildingBlock: KIFKEQ_clean_linker_1, # of connection points: 2
#     Edge 34, Type (0, 0), BuildingBlock: KIFKEQ_clean_linker_1, # of connection points: 2
#     Edge 35, Type (0, 0), BuildingBlock: KIFKEQ_clean_linker_1, # of connection points: 2
#     Edge 36, Type (0, 0), BuildingBlock: KIFKEQ_clean_linker_1, # of connection points: 2
#     Edge 37, Type (0, 0), BuildingBlock: KIFKEQ_clean_linker_1, # of connection points: 2
#     Edge 38, Type (0, 0), BuildingBlock: KIFKEQ_clean_linker_1, # of connection points: 2
#     Edge 39, Type (0, 0), BuildingBlock: KIFKEQ_clean_linker_1, # of connection points: 2
#     Edge 40, Type (0, 0), BuildingBlock: KIFKEQ_clean_linker_1, # of connection points: 2
#     Edge 41, Type (0, 0), BuildingBlock: KIFKEQ_clean_linker_1, # of connection points: 2
#     Edge 42, Type (0, 0), BuildingBlock: KIFKEQ_clean_linker_1, # of connection points: 2
#     Edge 43, Type (0, 0), BuildingBlock: KIFKEQ_clean_linker_1, # of connection points: 2
#     Edge 44, Type (0, 0), BuildingBlock: KIFKEQ_clean_linker_1, # of connection points: 2
#     Edge 45, Type (0, 0), BuildingBlock: KIFKEQ_clean_linker_1, # of connection points: 2
#     Edge 46, Type (0, 0), BuildingBlock: KIFKEQ_clean_linker_1, # of connection points: 2
#     Edge 47, Type (0, 0), BuildingBlock: KIFKEQ_clean_linker_1, # of connection points: 2
#     Edge 48, Type (0, 0), BuildingBlock: KIFKEQ_clean_linker_1, # of connection points: 2
#     Edge 49, Type (0, 0), BuildingBlock: KIFKEQ_clean_linker_1, # of connection points: 2
#     Edge 50, Type (0, 0), BuildingBlock: KIFKEQ_clean_linker_1, # of connection points: 2
#     Edge 51, Type (0, 0), BuildingBlock: KIFKEQ_clean_linker_1, # of connection points: 2
#     Edge 52, Type (0, 0), BuildingBlock: KIFKEQ_clean_linker_1, # of connection points: 2
#     Edge 53, Type (0, 0), BuildingBlock: KIFKEQ_clean_linker_1, # of connection points: 2
#     Edge 54, Type (0, 0), BuildingBlock: KIFKEQ_clean_linker_1, # of connection points: 2
#     Edge 55, Type (0, 0), BuildingBlock: KIFKEQ_clean_linker_1, # of connection points: 2
# Relax obj value: 0.140
# Max RMSD: 0.139
# Mean RMSD: 0.139
data_MOF--net-wgb--node1-BEQFEK_clean_sbu_0--edge1-KIFKEQ_clean_linker_1
_symmetry_space_group_name_H-M    P1
_symmetry_Int_Tables_number       1
_symmetry_cell_setting            triclinic
loop_
_symmetry_equiv_pos_as_xyz
'x, y, z'
_cell_length_a     64.608722
_cell_length_b     64.725592
_cell_length_c     20.688792
_cell_angle_alpha  89.998993
_cell_angle_beta   89.999167
_cell_angle_gamma 90.02883
loop_
_atom_site_label
_atom_site_type_symbol
_atom_site_fract_x
_atom_site_fract_y
_atom_site_fract_z
_atom_type_partial_charge
Co0 Co 0.34392 0.0694 0.12901 0.0
Co1 Co 0.33484 0.11748 0.12401 0.0
C2 C 0.31941 0.09021 0.01937 0.0
O3 O 0.32686 0.07422 0.04776 0.0
O4 O 0.32282 0.10843 0.04069 0.0
C5 C 0.36388 0.02778 0.10467 0.0
O6 O 0.36804 0.03254 0.04432 0.0
C7 C 0.33356 0.16373 0.10624 0.0
C8 C 0.32489 0.17253 0.20591 0.0
C9 C 0.32937 0.18066 0.14576 0.0
N10 N 0.33173 0.14641 0.14202 0.0
N11 N 0.32653 0.15191 0.20139 0.0
C12 C 0.3384 0.1639 0.03557 0.0
H13 H 0.33497 0.14862 0.01373 0.0
H14 H 0.35509 0.16726 0.02869 0.0
H15 H 0.32939 0.17618 0.01081 0.0
C16 C 0.38532 0.08587 0.16647 0.0
N17 N 0.36609 0.08862 0.14224 0.0
N18 N 0.3624 0.10857 0.13782 0.0
C19 C 0.37921 0.11908 0.15797 0.0
C20 C 0.39426 0.10512 0.17756 0.0
C21 C 0.39361 0.06535 0.18756 0.0
H22 H 0.38176 0.05716 0.21666 0.0
H23 H 0.397 0.05586 0.14421 0.0
H24 H 0.40792 0.06693 0.21672 0.0
O25 O 0.32397 0.07186 0.20006 0.0
O26 O 0.31682 0.10507 0.18926 0.0
H27 H 0.37118 0.14773 0.20284 0.0
H28 H 0.39671 0.14747 0.16713 0.0
C29 C 0.38049 0.14214 0.16132 0.0
H30 H 0.37408 0.14887 0.11642 0.0
H31 H 0.32418 0.14155 0.2393 0.0
O32 O 0.35435 0.04065 0.14027 0.0
C33 C 0.31369 0.08773 0.2161 0.0
Co34 Co 0.06804 0.66764 0.86698 0.0
Co35 Co 0.11629 0.67527 0.87247 0.0
C36 C 0.09012 0.69244 0.97514 0.0
O37 O 0.074 0.68534 0.94653 0.0
O38 O 0.1083 0.68824 0.95486 0.0
C39 C 0.0291 0.64355 0.88756 0.0
O40 O 0.03909 0.63147 0.92795 0.0
C41 C 0.16267 0.6771 0.88684 0.0
C42 C 0.17078 0.68158 0.78391 0.0
C43 C 0.17934 0.67974 0.84486 0.0
N44 N 0.14511 0.67728 0.85171 0.0
N45 N 0.15019 0.67994 0.79037 0.0
C46 C 0.1633 0.67533 0.95887 0.0
H47 H 0.14823 0.67996 0.98012 0.0
H48 H 0.16635 0.65902 0.97231 0.0
H49 H 0.17593 0.68503 0.97894 0.0
C50 C 0.08402 0.62597 0.82587 0.0
N51 N 0.08665 0.6448 0.85325 0.0
N52 N 0.10659 0.64788 0.86203 0.0
C53 C 0.11711 0.63092 0.84358 0.0
C54 C 0.10327 0.61653 0.81901 0.0
C55 C 0.06423 0.61878 0.79571 0.0
H56 H 0.05457 0.63216 0.78136 0.0
H57 H 0.05558 0.60922 0.83107 0.0
H58 H 0.0673 0.60911 0.75246 0.0
O59 O 0.07064 0.68669 0.79403 0.0
O60 O 0.10407 0.69293 0.8056 0.0
H61 H 0.14719 0.63655 0.8042 0.0
H62 H 0.14488 0.6124 0.84706 0.0
C63 C 0.14016 0.62889 0.84682 0.0
H64 H 0.14602 0.63646 0.89122 0.0
H65 H 0.13952 0.68066 0.75257 0.0
O66 O 0.03845 0.65881 0.86207 0.0
C67 C 0.08692 0.69631 0.77768 0.0
Co68 Co 0.67087 0.9446 0.12853 0.0
Co69 Co 0.67934 0.89655 0.12485 0.0
C70 C 0.69575 0.92323 0.02054 0.0
O71 O 0.68837 0.93937 0.04825 0.0
O72 O 0.692 0.9051 0.04207 0.0
C73 C 0.65055 0.98598 0.10346 0.0
O74 O 0.64543 0.98074 0.04425 0.0
C75 C 0.6809 0.8503 0.1096 0.0
C76 C 0.68745 0.84206 0.21133 0.0
C77 C 0.68427 0.83361 0.15082 0.0
N78 N 0.68195 0.86779 0.14479 0.0
N79 N 0.68588 0.86263 0.2054 0.0
C80 C 0.67752 0.84977 0.03813 0.0
H81 H 0.68177 0.86481 0.01612 0.0
H82 H 0.66091 0.84682 0.0282 0.0
H83 H 0.68668 0.83712 0.0159 0.0
C84 C 0.62903 0.92861 0.16459 0.0
N85 N 0.64832 0.9257 0.14097 0.0
N86 N 0.65181 0.90572 0.13643 0.0
C87 C 0.63481 0.89535 0.15567 0.0
C88 C 0.61984 0.90943 0.17501 0.0
C89 C 0.62084 0.94914 0.18586 0.0
H90 H 0.63282 0.95738 0.21434 0.0
H91 H 0.61722 0.95857 0.14257 0.0
H92 H 0.60666 0.94757 0.21562 0.0
O93 O 0.69032 0.94219 0.20103 0.0
O94 O 0.69697 0.90888 0.19102 0.0
H95 H 0.64188 0.86661 0.20148 0.0
H96 H 0.61692 0.86717 0.16233 0.0
C97 C 0.63327 0.8723 0.15868 0.0
H98 H 0.64023 0.8655 0.11467 0.0
H99 H 0.6874 0.87321 0.24314 0.0
O100 O 0.66071 0.97345 0.13849 0.0
C101 C 0.7002 0.92616 0.21802 0.0
Co102 Co 0.94404 0.34598 0.88062 0.0
Co103 Co 0.89617 0.33569 0.88171 0.0
C104 C 0.92235 0.32127 0.98885 0.0
O105 O 0.93841 0.3287 0.96083 0.0
O106 O 0.90418 0.32454 0.96682 0.0
C107 C 0.98808 0.34752 0.86482 0.0
O108 O 0.98585 0.32744 0.85832 0.0
C109 C 0.84989 0.33323 0.89407 0.0
C110 C 0.84227 0.324 0.79394 0.0
C111 C 0.83343 0.32858 0.85306 0.0
N112 N 0.86761 0.33162 0.8601 0.0
N113 N 0.86284 0.32605 0.80044 0.0
C114 C 0.84895 0.33826 0.96456 0.0
H115 H 0.86399 0.33489 0.98814 0.0
H116 H 0.84558 0.35494 0.97065 0.0
H117 H 0.83637 0.32935 0.98829 0.0
C118 C 0.92695 0.38657 0.8402 0.0
N119 N 0.92433 0.36744 0.8649 0.0
N120 N 0.90441 0.3633 0.86748 0.0
C121 C 0.89374 0.37973 0.84541 0.0
C122 C 0.90761 0.39499 0.82666 0.0
C123 C 0.94756 0.3952 0.82119 0.0
H124 H 0.95613 0.38357 0.79226 0.0
H125 H 0.9567 0.39839 0.86547 0.0
H126 H 0.94608 0.40961 0.79262 0.0
O127 O 0.94336 0.32606 0.80861 0.0
O128 O 0.91031 0.31778 0.81992 0.0
H129 H 0.86582 0.37077 0.79758 0.0
H130 H 0.86503 0.39643 0.83189 0.0
C131 C 0.87068 0.38041 0.83922 0.0
H132 H 0.86353 0.37409 0.88362 0.0
H133 H 0.87368 0.32375 0.76377 0.0
O134 O 0.97237 0.35837 0.87948 0.0
C135 C 0.92784 0.31499 0.79371 0.0
Co136 Co 0.34371 0.44709 0.11666 0.0
Co137 Co 0.33719 0.39873 0.11997 0.0
C138 C 0.31917 0.42415 0.22344 0.0
O139 O 0.3261 0.44046 0.19566 0.0
O140 O 0.3237 0.40614 0.20249 0.0
C141 C 0.36652 0.48648 0.14078 0.0
O142 O 0.37801 0.47688 0.18371 0.0
C143 C 0.33706 0.35234 0.13279 0.0
C144 C 0.33353 0.34444 0.02942 0.0
C145 C 0.3357 0.33564 0.09003 0.0
N146 N 0.33588 0.36996 0.09826 0.0
N147 N 0.33365 0.36501 0.03672 0.0
C148 C 0.34082 0.35188 0.20408 0.0
H149 H 0.34694 0.367 0.22082 0.0
H150 H 0.35188 0.33939 0.21658 0.0
H151 H 0.32598 0.3489 0.22937 0.0
C152 C 0.3861 0.43247 0.07779 0.0
N153 N 0.36706 0.42914 0.103 0.0
N154 N 0.36452 0.4091 0.11087 0.0
C155 C 0.38214 0.39925 0.09436 0.0
C156 C 0.39636 0.41368 0.0725 0.0
C157 C 0.39351 0.4528 0.05219 0.0
H158 H 0.40132 0.4614 0.09156 0.0
H159 H 0.40492 0.4507 0.0127 0.0
H160 H 0.38028 0.46203 0.03406 0.0
O161 O 0.32477 0.44436 0.04343 0.0
O162 O 0.31936 0.41079 0.05309 0.0
H163 H 0.40089 0.37161 0.08803 0.0
H164 H 0.37737 0.36915 0.13453 0.0
C165 C 0.38441 0.37627 0.0911 0.0
H166 H 0.3763 0.37043 0.04755 0.0
H167 H 0.33251 0.37575 -0.00072 0.0
O168 O 0.35196 0.47677 0.11269 0.0
C169 C 0.31557 0.42797 0.02606 0.0
Co170 Co 0.44487 0.66832 0.87059 0.0
Co171 Co 0.3974 0.67969 0.88155 0.0
C172 C 0.42368 0.69562 0.77168 0.0
O173 O 0.43998 0.68649 0.79245 0.0
O174 O 0.40618 0.69339 0.79973 0.0
C175 C 0.48975 0.65537 0.84727 0.0
O176 O 0.4911 0.6648 0.79121 0.0
C177 C 0.35128 0.6801 0.86645 0.0
C178 C 0.34262 0.69118 0.96384 0.0
C179 C 0.33428 0.68442 0.90597 0.0
N180 N 0.36867 0.68392 0.90033 0.0
N181 N 0.36328 0.69075 0.95812 0.0
C182 C 0.3513 0.67105 0.79994 0.0
H183 H 0.36667 0.66425 0.78874 0.0
H184 H 0.33907 0.6591 0.79545 0.0
H185 H 0.34814 0.68347 0.76431 0.0
C186 C 0.42725 0.62681 0.89884 0.0
N187 N 0.42471 0.64683 0.88228 0.0
N188 N 0.40491 0.65148 0.88649 0.0
C189 C 0.39431 0.63462 0.90606 0.0
C190 C 0.40811 0.61841 0.91443 0.0
C191 C 0.4478 0.61637 0.90479 0.0
H192 H 0.45708 0.61927 0.86061 0.0
H193 H 0.44605 0.59945 0.91177 0.0
H194 H 0.45624 0.62295 0.9467 0.0
O195 O 0.44465 0.68724 0.94505 0.0
O196 O 0.41124 0.69444 0.95164 0.0
H197 H 0.36735 0.62026 0.95013 0.0
H198 H 0.36216 0.63752 0.88393 0.0
C199 C 0.3721 0.63492 0.92675 0.0
H200 H 0.36958 0.64773 0.96138 0.0
H201 H 0.37372 0.69461 0.9946 0.0
O202 O 0.47287 0.65582 0.87871 0.0
C203 C 0.42963 0.69644 0.97203 0.0
Co204 Co 0.66781 0.56811 0.11996 0.0
Co205 Co 0.67803 0.6159 0.12157 0.0
C206 C 0.69357 0.58886 0.22666 0.0
O207 O 0.6857 0.5728 0.19976 0.0
O208 O 0.69036 0.607 0.20438 0.0
C209 C 0.65744 0.5227 0.13866 0.0
O210 O 0.6698 0.52098 0.18879 0.0
C211 C 0.67927 0.66206 0.13604 0.0
C212 C 0.68797 0.67018 0.03583 0.0
C213 C 0.68286 0.67881 0.09489 0.0
N214 N 0.68194 0.64452 0.10194 0.0
N215 N 0.68734 0.6496 0.04242 0.0
C216 C 0.6719 0.66242 0.20453 0.0
H217 H 0.66509 0.64726 0.21792 0.0
H218 H 0.6603 0.67487 0.21144 0.0
H219 H 0.68524 0.66546 0.23693 0.0
C220 C 0.62626 0.58543 0.08884 0.0
N221 N 0.646 0.58793 0.10886 0.0
N222 N 0.65016 0.60783 0.11095 0.0
C223 C 0.63322 0.61856 0.09285 0.0
C224 C 0.61752 0.60472 0.07803 0.0
C225 C 0.61645 0.56493 0.07556 0.0
H226 H 0.6244 0.5576 0.03396 0.0
H227 H 0.61832 0.55475 0.11827 0.0
H228 H 0.59972 0.56652 0.0644 0.0
O229 O 0.68721 0.56951 0.04651 0.0
O230 O 0.69486 0.60263 0.05562 0.0
H231 H 0.64456 0.64515 0.04283 0.0
H232 H 0.61768 0.64693 0.06441 0.0
C233 C 0.63303 0.64136 0.08066 0.0
H234 H 0.63733 0.64959 0.12561 0.0
H235 H 0.69003 0.63898 0.00544 0.0
O236 O 0.65546 0.54005 0.11063 0.0
C237 C 0.69753 0.58522 0.02896 0.0
Co238 Co 0.56692 0.344 0.87335 0.0
Co239 Co 0.61502 0.3348 0.87977 0.0
C240 C 0.58963 0.31796 0.77173 0.0
O241 O 0.57314 0.32613 0.79492 0.0
O242 O 0.60731 0.32106 0.79761 0.0
C243 C 0.52672 0.36656 0.84644 0.0
O244 O 0.53459 0.37561 0.79517 0.0
C245 C 0.66133 0.33357 0.8664 0.0
C246 C 0.66943 0.32832 0.96891 0.0
C247 C 0.67812 0.33134 0.90848 0.0
N248 N 0.64375 0.33212 0.90117 0.0
N249 N 0.64881 0.3288 0.96215 0.0
C250 C 0.6617 0.33854 0.79584 0.0
H251 H 0.64656 0.34496 0.78035 0.0
H252 H 0.67425 0.34974 0.78505 0.0
H253 H 0.66461 0.32418 0.76805 0.0
C254 C 0.58327 0.38602 0.90822 0.0
N255 N 0.58606 0.3664 0.88735 0.0
N256 N 0.6061 0.36262 0.88521 0.0
C257 C 0.61656 0.37982 0.90218 0.0
C258 C 0.60249 0.39518 0.91754 0.0
C259 C 0.56271 0.39521 0.92484 0.0
H260 H 0.55309 0.38368 0.95079 0.0
H261 H 0.55466 0.39961 0.8796 0.0
H262 H 0.56438 0.40927 0.95503 0.0
O263 O 0.5681 0.32498 0.94691 0.0
O264 O 0.60177 0.31881 0.94878 0.0
H265 H 0.64367 0.37112 0.9547 0.0
H266 H 0.64496 0.39671 0.92105 0.0
C267 C 0.63949 0.38071 0.91229 0.0
H268 H 0.64745 0.37449 0.86911 0.0
H269 H 0.63814 0.32734 -0.00028 0.0
O270 O 0.53764 0.35381 0.87844 0.0
C271 C 0.5837 0.31599 0.97111 0.0
Co272 Co 0.84449 0.56791 0.62185 0.0
Co273 Co 0.83515 0.61589 0.61949 0.0
C274 C 0.82035 0.58905 0.51259 0.0
O275 O 0.8277 0.57291 0.54036 0.0
O276 O 0.82366 0.60717 0.53499 0.0
C277 C 0.86119 0.52467 0.59711 0.0
O278 O 0.86026 0.52667 0.534 0.0
C279 C 0.83451 0.66221 0.60475 0.0
C280 C 0.82354 0.67036 0.70273 0.0
C281 C 0.82956 0.6789 0.64446 0.0
N282 N 0.83164 0.64466 0.63871 0.0
N283 N 0.82505 0.64978 0.69707 0.0
C284 C 0.84091 0.66277 0.53532 0.0
H285 H 0.83782 0.64766 0.51185 0.0
H286 H 0.85774 0.66597 0.53221 0.0
H287 H 0.83259 0.67529 0.50946 0.0
C288 C 0.88612 0.58424 0.65646 0.0
N289 N 0.86654 0.58718 0.63558 0.0
N290 N 0.86274 0.60715 0.63391 0.0
C291 C 0.87977 0.61751 0.6533 0.0
C292 C 0.89518 0.60334 0.66835 0.0
C293 C 0.89559 0.56347 0.66795 0.0
H294 H 0.89426 0.55405 0.62336 0.0
H295 H 0.91215 0.5647 0.68159 0.0
H296 H 0.88696 0.55545 0.70696 0.0
O297 O 0.82419 0.56977 0.6924 0.0
O298 O 0.81677 0.60293 0.68232 0.0
H299 H 0.86839 0.6443 0.70207 0.0
H300 H 0.89557 0.64556 0.68359 0.0
C301 C 0.8803 0.6403 0.6656 0.0
H302 H 0.87661 0.6486 0.62025 0.0
H303 H 0.8217 0.63918 0.73358 0.0
O304 O 0.8554 0.53943 0.6333 0.0
C305 C 0.81356 0.58545 0.70805 0.0
Co306 Co 0.56917 0.16767 0.37053 0.0
Co307 Co 0.61696 0.17822 0.36232 0.0
C308 C 0.59083 0.19415 0.47162 0.0
O309 O 0.57448 0.18544 0.44939 0.0
O310 O 0.60847 0.19168 0.44466 0.0
C311 C 0.52582 0.15116 0.39939 0.0
O312 O 0.52759 0.15369 0.46214 0.0
C313 C 0.6631 0.17971 0.3781 0.0
C314 C 0.67178 0.18671 0.27709 0.0
C315 C 0.68013 0.18272 0.33743 0.0
N316 N 0.64572 0.18166 0.34262 0.0
N317 N 0.65112 0.18602 0.28256 0.0
C318 C 0.66306 0.17345 0.44767 0.0
H319 H 0.64782 0.16676 0.46111 0.0
H320 H 0.67553 0.16206 0.45715 0.0
H321 H 0.66581 0.18728 0.47817 0.0
C322 C 0.58608 0.12612 0.33853 0.0
N323 N 0.58886 0.14588 0.35777 0.0
N324 N 0.60875 0.15025 0.35564 0.0
C325 C 0.6192 0.13344 0.33525 0.0
C326 C 0.60522 0.11764 0.32313 0.0
C327 C 0.56531 0.11668 0.32604 0.0
H328 H 0.55699 0.12602 0.28936 0.0
H329 H 0.55608 0.11693 0.37124 0.0
H330 H 0.56659 0.10054 0.3085 0.0
O331 O 0.57002 0.18688 0.29708 0.0
O332 O 0.60354 0.19382 0.29315 0.0
H333 H 0.64569 0.14276 0.28058 0.0
H334 H 0.64756 0.11698 0.31354 0.0
C335 C 0.64201 0.13292 0.32292 0.0
H336 H 0.65031 0.13908 0.36558 0.0
H337 H 0.64067 0.18805 0.24467 0.0
O338 O 0.54072 0.1561 0.36239 0.0
C339 C 0.58529 0.19617 0.27182 0.0
Co340 Co 0.16763 0.44273 0.62121 0.0
Co341 Co 0.17832 0.39507 0.61501 0.0
C342 C 0.19239 0.42256 0.5101 0.0
O343 O 0.18482 0.43837 0.53929 0.0
O344 O 0.18938 0.40423 0.53102 0.0
C345 C 0.15278 0.48656 0.59669 0.0
O346 O 0.15903 0.48613 0.53628 0.0
C347 C 0.18115 0.34888 0.59984 0.0
C348 C 0.18993 0.34097 0.70017 0.0
C349 C 0.18563 0.33235 0.64059 0.0
N350 N 0.18257 0.36646 0.63445 0.0
N351 N 0.18791 0.36151 0.69418 0.0
C352 C 0.1764 0.34812 0.52913 0.0
H353 H 0.1796 0.36329 0.50625 0.0
H354 H 0.15978 0.34444 0.5222 0.0
H355 H 0.18564 0.33582 0.50537 0.0
C356 C 0.12679 0.42467 0.65821 0.0
N357 N 0.14618 0.42267 0.63448 0.0
N358 N 0.15058 0.4029 0.62956 0.0
C359 C 0.13412 0.39173 0.64893 0.0
C360 C 0.11853 0.40507 0.66862 0.0
C361 C 0.11766 0.44485 0.679 0.0
H362 H 0.12837 0.45255 0.7133 0.0
H363 H 0.11595 0.45504 0.63622 0.0
H364 H 0.10238 0.44285 0.70257 0.0
O365 O 0.18787 0.44119 0.69216 0.0
O366 O 0.19622 0.40838 0.67843 0.0
H367 H 0.14309 0.36316 0.69258 0.0
H368 H 0.11759 0.36272 0.65668 0.0
C369 C 0.13362 0.36863 0.65127 0.0
H370 H 0.14026 0.36235 0.60609 0.0
H371 H 0.18995 0.37218 0.73141 0.0
O372 O 0.15535 0.47079 0.63239 0.0
C373 C 0.19894 0.42563 0.70612 0.0
Co374 Co 0.44546 0.84536 0.36781 0.0
Co375 Co 0.39772 0.83448 0.35997 0.0
C376 C 0.42399 0.81898 0.46963 0.0
O377 O 0.44033 0.82769 0.44721 0.0
O378 O 0.40637 0.82131 0.44255 0.0
C379 C 0.48846 0.86277 0.39637 0.0
O380 O 0.48644 0.8609 0.45928 0.0
C381 C 0.35156 0.8321 0.3763 0.0
C382 C 0.34296 0.82359 0.27632 0.0
C383 C 0.33471 0.82774 0.33655 0.0
N384 N 0.36894 0.83071 0.34057 0.0
N385 N 0.36358 0.82558 0.28102 0.0
C386 C 0.35128 0.83679 0.44706 0.0
H387 H 0.36653 0.83328 0.46909 0.0
H388 H 0.34801 0.85346 0.45419 0.0
H389 H 0.3389 0.82781 0.47149 0.0
C390 C 0.42816 0.8868 0.33548 0.0
N391 N 0.42557 0.867 0.35464 0.0
N392 N 0.40572 0.86246 0.35261 0.0
C393 C 0.3951 0.87917 0.33234 0.0
C394 C 0.40892 0.89513 0.32026 0.0
C395 C 0.44883 0.89644 0.3231 0.0
H396 H 0.45735 0.88707 0.28693 0.0
H397 H 0.45796 0.89645 0.36851 0.0
H398 H 0.44742 0.9125 0.30494 0.0
O399 O 0.44476 0.82591 0.29481 0.0
O400 O 0.41128 0.81876 0.29134 0.0
H401 H 0.36861 0.8697 0.27793 0.0
H402 H 0.36648 0.89536 0.31184 0.0
C403 C 0.37225 0.87945 0.32052 0.0
H404 H 0.36414 0.873 0.36308 0.0
H405 H 0.37402 0.82358 0.24311 0.0
O406 O 0.47382 0.85717 0.35929 0.0
C407 C 0.42953 0.81643 0.26998 0.0
Co408 Co 0.84691 0.94509 0.6247 0.0
Co409 Co 0.83867 0.89692 0.62812 0.0
C410 C 0.82255 0.92339 0.73338 0.0
O411 O 0.82969 0.9396 0.70538 0.0
O412 O 0.82641 0.90526 0.71187 0.0
C413 C 0.8628 0.98846 0.65168 0.0
O414 O 0.86126 0.98615 0.71458 0.0
C415 C 0.83831 0.85052 0.64083 0.0
C416 C 0.83199 0.84279 0.5386 0.0
C417 C 0.8359 0.83393 0.59821 0.0
N418 N 0.83612 0.8682 0.60709 0.0
N419 N 0.83216 0.86335 0.5463 0.0
C420 C 0.84411 0.84986 0.71074 0.0
H421 H 0.85076 0.86491 0.72607 0.0
H422 H 0.85537 0.83725 0.71982 0.0
H423 H 0.83002 0.84688 0.73999 0.0
C424 C 0.88894 0.92959 0.59115 0.0
N425 N 0.86944 0.92633 0.6123 0.0
N426 N 0.86616 0.90629 0.61579 0.0
C427 C 0.88353 0.89622 0.59805 0.0
C428 C 0.89854 0.91063 0.58147 0.0
C429 C 0.89775 0.95046 0.57661 0.0
H430 H 0.88843 0.95791 0.53807 0.0
H431 H 0.89679 0.96025 0.62048 0.0
H432 H 0.91415 0.9495 0.56097 0.0
O433 O 0.82714 0.94272 0.55284 0.0
O434 O 0.82045 0.90945 0.56404 0.0
H435 H 0.87455 0.86874 0.54819 0.0
H436 H 0.90072 0.86811 0.57753 0.0
C437 C 0.88479 0.87332 0.58874 0.0
H438 H 0.87939 0.86543 0.63316 0.0
H439 H 0.83005 0.87413 0.50941 0.0
O440 O 0.85748 0.97381 0.61431 0.0
C441 C 0.81699 0.92671 0.53727 0.0
Co442 Co 0.94626 0.17007 0.38204 0.0
Co443 Co 0.89808 0.17846 0.37971 0.0
C444 C 0.92412 0.19472 0.2746 0.0
O445 O 0.94035 0.18746 0.30213 0.0
O446 O 0.90605 0.19094 0.29656 0.0
C447 C 0.98496 0.14579 0.35919 0.0
O448 O 0.97514 0.13462 0.31591 0.0
C449 C 0.8518 0.18011 0.36424 0.0
C450 C 0.84331 0.18669 0.46572 0.0
C451 C 0.83498 0.18354 0.40498 0.0
N452 N 0.86924 0.18107 0.39985 0.0
N453 N 0.86394 0.18502 0.46033 0.0
C454 C 0.85142 0.17684 0.29269 0.0
H455 H 0.86659 0.18092 0.27107 0.0
H456 H 0.84828 0.16031 0.28243 0.0
H457 H 0.83893 0.18617 0.27027 0.0
C458 C 0.93001 0.12854 0.42324 0.0
N459 N 0.92736 0.14754 0.39709 0.0
N460 N 0.90736 0.15098 0.3909 0.0
C461 C 0.8968 0.13415 0.41044 0.0
C462 C 0.91072 0.11943 0.43233 0.0
C463 C 0.95009 0.12076 0.44983 0.0
H464 H 0.95985 0.13383 0.46622 0.0
H465 H 0.95841 0.11211 0.41157 0.0
H466 H 0.94749 0.1101 0.49108 0.0
O467 O 0.94428 0.18953 0.45431 0.0
O468 O 0.91082 0.1961 0.44561 0.0
H469 H 0.86757 0.14105 0.45373 0.0
H470 H 0.86858 0.11623 0.41417 0.0
C471 C 0.8737 0.13257 0.41127 0.0
H472 H 0.86729 0.13959 0.36678 0.0
H473 H 0.87446 0.18655 0.49827 0.0
O474 O 0.97562 0.16066 0.38675 0.0
C475 C 0.92826 0.19937 0.4719 0.0
Co476 Co 0.16787 0.06625 0.62511 0.0
Co477 Co 0.17587 0.11443 0.62878 0.0
C478 C 0.19257 0.08804 0.73307 0.0
O479 O 0.18544 0.07178 0.70521 0.0
O480 O 0.18852 0.10615 0.7118 0.0
C481 C 0.15279 0.02245 0.65158 0.0
O482 O 0.15572 0.024 0.71422 0.0
C483 C 0.17665 0.16084 0.64049 0.0
C484 C 0.18227 0.16822 0.5376 0.0
C485 C 0.17897 0.17729 0.59726 0.0
N486 N 0.17834 0.14305 0.60704 0.0
N487 N 0.18185 0.1477 0.54583 0.0
C488 C 0.17145 0.16173 0.71083 0.0
H489 H 0.16485 0.14677 0.72712 0.0
H490 H 0.16031 0.17442 0.72045 0.0
H491 H 0.18578 0.16472 0.73885 0.0
C492 C 0.12563 0.08171 0.59336 0.0
N493 N 0.1452 0.08498 0.61393 0.0
N494 N 0.1484 0.10501 0.61792 0.0
C495 C 0.13093 0.11508 0.60122 0.0
C496 C 0.11592 0.10067 0.58469 0.0
C497 C 0.11687 0.06088 0.57811 0.0
H498 H 0.11808 0.05085 0.62141 0.0
H499 H 0.1004 0.06184 0.56318 0.0
H500 H 0.12606 0.05369 0.53879 0.0
O501 O 0.18726 0.06868 0.55216 0.0
O502 O 0.19366 0.10197 0.56369 0.0
H503 H 0.13927 0.14269 0.55103 0.0
H504 H 0.1135 0.14323 0.5836 0.0
C505 C 0.12956 0.13801 0.59269 0.0
H506 H 0.13551 0.14578 0.63662 0.0
H507 H 0.18354 0.1368 0.50906 0.0
O508 O 0.15718 0.03758 0.61491 0.0
C509 C 0.19714 0.08483 0.53626 0.0
Co510 Co 0.0683 0.84273 0.37219 0.0
Co511 Co 0.11648 0.83493 0.36589 0.0
C512 C 0.0904 0.81917 0.26122 0.0
O513 O 0.07432 0.8259 0.2909 0.0
O514 O 0.10862 0.82322 0.28152 0.0
C515 C 0.02961 0.86719 0.35274 0.0
O516 O 0.03957 0.87895 0.31135 0.0
C517 C 0.16285 0.83399 0.35243 0.0
C518 C 0.17081 0.82903 0.45521 0.0
C519 C 0.17958 0.83189 0.39482 0.0
N520 N 0.14522 0.83258 0.38698 0.0
N521 N 0.15019 0.82947 0.44813 0.0
C522 C 0.16331 0.83872 0.2817 0.0
H523 H 0.1482 0.84512 0.26582 0.0
H524 H 0.1759 0.84985 0.27066 0.0
H525 H 0.16619 0.82424 0.25443 0.0
C526 C 0.08429 0.88392 0.41712 0.0
N527 N 0.08696 0.86529 0.38854 0.0
N528 N 0.10693 0.86221 0.38018 0.0
C529 C 0.11743 0.87899 0.40043 0.0
C530 C 0.10353 0.89322 0.42538 0.0
C531 C 0.06438 0.89105 0.4466 0.0
H532 H 0.05479 0.87763 0.46111 0.0
H533 H 0.05575 0.90042 0.41073 0.0
H534 H 0.06727 0.90088 0.48963 0.0
O535 O 0.07072 0.82277 0.44287 0.0
O536 O 0.10403 0.81623 0.42948 0.0
H537 H 0.14732 0.87273 0.4402 0.0
H538 H 0.14525 0.89752 0.40102 0.0
C539 C 0.14048 0.88106 0.39851 0.0
H540 H 0.14653 0.87424 0.35322 0.0
H541 H 0.13945 0.82802 0.48551 0.0
O542 O 0.03883 0.85185 0.37813 0.0
C543 C 0.08687 0.81261 0.45709 0.0
H544 H 0.30372 0.05473 0.29378 0.0
H545 H 0.28508 0.11695 0.24424 0.0
H546 H 0.27506 0.05266 0.3711 0.0
H547 H 0.25645 0.11458 0.31891 0.0
H548 H 0.22497 0.11492 0.51002 0.0
H549 H 0.2534 0.11401 0.43461 0.0
H550 H 0.23632 0.05207 0.37748 0.0
H551 H 0.20778 0.05266 0.45572 0.0
C552 C 0.29353 0.06789 0.29928 0.0
C553 C 0.29681 0.08609 0.26361 0.0
C554 C 0.27707 0.06663 0.34298 0.0
C555 C 0.26368 0.08352 0.35128 0.0
C556 C 0.26678 0.10148 0.31455 0.0
C557 C 0.28321 0.10281 0.27162 0.0
C558 C 0.2271 0.10106 0.48139 0.0
C559 C 0.21395 0.08391 0.48833 0.0
C560 C 0.24342 0.10059 0.43798 0.0
C561 C 0.2469 0.08308 0.39962 0.0
C562 C 0.23399 0.06574 0.4068 0.0
C563 C 0.21761 0.06613 0.45106 0.0
H564 H 0.05529 0.80284 0.54059 0.0
H565 H 0.11598 0.78321 0.4771 0.0
H566 H 0.05432 0.77398 0.61708 0.0
H567 H 0.11466 0.75433 0.55104 0.0
H568 H 0.11798 0.72217 0.74246 0.0
H569 H 0.11666 0.75029 0.66586 0.0
H570 H 0.05281 0.73579 0.62301 0.0
H571 H 0.05385 0.70771 0.70218 0.0
C572 C 0.06834 0.79236 0.54278 0.0
C573 C 0.08582 0.79544 0.50355 0.0
C574 C 0.06771 0.77578 0.58606 0.0
C575 C 0.08449 0.76204 0.59029 0.0
C576 C 0.10169 0.76493 0.54989 0.0
C577 C 0.10241 0.78149 0.50739 0.0
C578 C 0.10363 0.72483 0.71667 0.0
C579 C 0.08603 0.71263 0.72818 0.0
C580 C 0.10292 0.74094 0.6725 0.0
C581 C 0.08468 0.74513 0.63811 0.0
C582 C 0.06702 0.73297 0.64933 0.0
C583 C 0.06767 0.71683 0.69416 0.0
H584 H 0.8077 0.95824 0.4529 0.0
H585 H 0.78685 0.89832 0.51901 0.0
H586 H 0.77866 0.95944 0.3766 0.0
H587 H 0.75787 0.8999 0.4455 0.0
H588 H 0.72629 0.89553 0.25424 0.0
H589 H 0.75454 0.89731 0.3303 0.0
H590 H 0.74002 0.96123 0.37017 0.0
H591 H 0.71173 0.95971 0.29136 0.0
C592 C 0.79692 0.94542 0.4513 0.0
C593 C 0.79974 0.92804 0.49102 0.0
C594 C 0.78026 0.94619 0.40818 0.0
C595 C 0.76619 0.92965 0.40473 0.0
C596 C 0.76875 0.91265 0.44596 0.0
C597 C 0.78539 0.91177 0.48817 0.0
C598 C 0.72896 0.91001 0.27921 0.0
C599 C 0.71666 0.92746 0.26707 0.0
C600 C 0.74515 0.91098 0.32305 0.0
C601 C 0.74934 0.92935 0.3566 0.0
C602 C 0.73716 0.94692 0.34456 0.0
C603 C 0.72091 0.94599 0.29999 0.0
H604 H 0.959 0.3075 0.70588 0.0
H605 H 0.90166 0.28274 0.78121 0.0
H606 H 0.96081 0.27866 0.62886 0.0
H607 H 0.90384 0.25409 0.70682 0.0
H608 H 0.89735 0.22439 0.51317 0.0
H609 H 0.89933 0.25222 0.59055 0.0
H610 H 0.96429 0.23965 0.62076 0.0
H611 H 0.96252 0.21171 0.54088 0.0
C612 C 0.94693 0.29589 0.70625 0.0
C613 C 0.92998 0.2976 0.74846 0.0
C614 C 0.94804 0.27937 0.66269 0.0
C615 C 0.93229 0.26437 0.6614 0.0
C616 C 0.91592 0.2657 0.70565 0.0
C617 C 0.9147 0.28216 0.74828 0.0
C618 C 0.9121 0.2274 0.53623 0.0
C619 C 0.92976 0.2157 0.52123 0.0
C620 C 0.9132 0.24336 0.5808 0.0
C621 C 0.93191 0.24792 0.6121 0.0
C622 C 0.9497 0.23644 0.59698 0.0
C623 C 0.94863 0.22039 0.5518 0.0
H624 H 0.30287 0.4613 0.95387 0.0
H625 H 0.29079 0.39643 0.98788 0.0
H626 H 0.27461 0.46211 0.87499 0.0
H627 H 0.26252 0.39748 0.9116 0.0
H628 H 0.23022 0.3984 0.72257 0.0
H629 H 0.25905 0.4006 0.79643 0.0
H630 H 0.23609 0.45892 0.8685 0.0
H631 H 0.20713 0.45709 0.79198 0.0
C632 C 0.29425 0.44726 0.94452 0.0
C633 C 0.29918 0.42877 0.97665 0.0
C634 C 0.27799 0.44779 0.8999 0.0
C635 C 0.26649 0.42984 0.88697 0.0
C636 C 0.27137 0.41147 0.9196 0.0
C637 C 0.28758 0.4109 0.96355 0.0
C638 C 0.23117 0.41172 0.75414 0.0
C639 C 0.21622 0.42746 0.75212 0.0
C640 C 0.24773 0.41295 0.79657 0.0
C641 C 0.24964 0.42978 0.8388 0.0
C642 C 0.23499 0.44581 0.83615 0.0
C643 C 0.21838 0.44469 0.79286 0.0
H644 H 0.40192 0.80339 0.18064 0.0
H645 H 0.46466 0.79401 0.24683 0.0
H646 H 0.40483 0.77332 0.11118 0.0
H647 H 0.46744 0.76337 0.1777 0.0
H648 H 0.46414 0.72012 0.99119 0.0
H649 H 0.46672 0.75031 0.0623 0.0
H650 H 0.40623 0.73641 0.14016 0.0
H651 H 0.40347 0.70678 0.06858 0.0
C652 C 0.41642 0.79499 0.17977 0.0
C653 C 0.43296 0.8008 0.21968 0.0
C654 C 0.41803 0.77769 0.14044 0.0
C655 C 0.43614 0.76571 0.14071 0.0
C656 C 0.45326 0.7723 0.17709 0.0
C657 C 0.45169 0.78982 0.21635 0.0
C658 C 0.45166 0.72331 0.02469 0.0
C659 C 0.43345 0.71143 0.02384 0.0
C660 C 0.45311 0.74057 0.06511 0.0
C661 C 0.43641 0.74596 0.10516 0.0
C662 C 0.41904 0.73295 0.10815 0.0
C663 C 0.41752 0.71593 0.06759 0.0
H664 H 0.72382 0.61542 0.99097 0.0
H665 H 0.70858 0.55122 0.95635 0.0
H666 H 0.7515 0.61333 0.91334 0.0
H667 H 0.73651 0.54937 0.87598 0.0
H668 H 0.80507 0.55376 0.79274 0.0
H669 H 0.77591 0.55181 0.86866 0.0
H670 H 0.75305 0.61014 0.79646 0.0
H671 H 0.78206 0.61245 0.72319 0.0
C672 C 0.7262 0.60085 0.96626 0.0
C673 C 0.71381 0.58351 0.97941 0.0
C674 C 0.7421 0.5997 0.92153 0.0
C675 C 0.74595 0.58127 0.88809 0.0
C676 C 0.73382 0.56375 0.90137 0.0
C677 C 0.7178 0.56487 0.94683 0.0
C678 C 0.79377 0.56611 0.79341 0.0
C679 C 0.79607 0.58345 0.75314 0.0
C680 C 0.77705 0.5649 0.83627 0.0
C681 C 0.76244 0.58096 0.83884 0.0
C682 C 0.76436 0.59777 0.79654 0.0
C683 C 0.78103 0.59909 0.75461 0.0
H684 H 0.61256 0.20793 0.17977 0.0
H685 H 0.55063 0.21932 0.25002 0.0
H686 H 0.6098 0.23751 0.10815 0.0
H687 H 0.54805 0.24953 0.17926 0.0
H688 H 0.54934 0.29264 0.99577 0.0
H689 H 0.5475 0.26231 0.06624 0.0
H690 H 0.60994 0.27429 0.13132 0.0
H691 H 0.61197 0.304 0.05996 0.0
C692 C 0.59828 0.21669 0.17936 0.0
C693 C 0.58192 0.21157 0.22086 0.0
C694 C 0.59675 0.23372 0.13883 0.0
C695 C 0.57894 0.24615 0.13966 0.0
C696 C 0.56199 0.24025 0.17797 0.0
C697 C 0.56345 0.22297 0.21824 0.0
C698 C 0.56249 0.28894 0.02613 0.0
C699 C 0.58092 0.3004 0.02188 0.0
C700 C 0.56145 0.2716 0.06625 0.0
C701 C 0.57877 0.26567 0.10279 0.0
C702 C 0.59659 0.27811 0.10198 0.0
C703 C 0.5977 0.29522 0.0616 0.0
H704 H 0.34814 0.30634 0.00489 0.0
H705 H 0.32427 0.31324 0.19881 0.0
H706 H 0.34644 0.26911 0.01555 0.0
H707 H 0.32395 0.27591 0.21116 0.0
H708 H 0.30255 0.20971 0.18811 0.0
H709 H 0.3049 0.24702 0.17581 0.0
H710 H 0.36098 0.23959 0.06408 0.0
H711 H 0.35811 0.20216 0.07488 0.0
C712 C 0.34287 0.29995 0.05039 0.0
C713 C 0.33656 0.31296 0.10124 0.0
C714 C 0.34208 0.2785 0.05666 0.0
C715 C 0.33505 0.26937 0.11418 0.0
C716 C 0.3292 0.28236 0.16574 0.0
C717 C 0.3298 0.30389 0.15919 0.0
C718 C 0.31522 0.21609 0.1602 0.0
C719 C 0.32995 0.20303 0.13156 0.0
C720 C 0.31673 0.2375 0.1538 0.0
C721 C 0.33325 0.24645 0.1195 0.0
C722 C 0.34787 0.2333 0.09008 0.0
C723 C 0.34619 0.2118 0.09586 0.0
H724 H 0.20749 0.70467 0.78771 0.0
H725 H 0.20196 0.65593 0.92903 0.0
H726 H 0.24489 0.70465 0.8012 0.0
H727 H 0.23953 0.65547 0.94165 0.0
H728 H 0.30503 0.67618 0.99617 0.0
H729 H 0.26777 0.67491 0.98303 0.0
H730 H 0.27491 0.68487 0.77766 0.0
H731 H 0.31223 0.68743 0.79151 0.0
C732 C 0.21432 0.69398 0.82191 0.0
C733 C 0.2018 0.68054 0.85811 0.0
C734 C 0.23579 0.69381 0.82913 0.0
C735 C 0.24532 0.67995 0.87213 0.0
C736 C 0.23272 0.66656 0.90875 0.0
C737 C 0.21116 0.66689 0.90191 0.0
C738 C 0.2987 0.67806 0.94804 0.0
C739 C 0.31175 0.68172 0.89478 0.0
C740 C 0.27727 0.67712 0.94047 0.0
C741 C 0.26825 0.67978 0.87932 0.0
C742 C 0.28131 0.68299 0.82567 0.0
C743 C 0.30281 0.68406 0.83337 0.0
H744 H 0.6578 0.81158 0.07317 0.0
H745 H 0.70995 0.805 0.20186 0.0
H746 H 0.65583 0.77408 0.06223 0.0
H747 H 0.70843 0.76764 0.18989 0.0
H748 H 0.68932 0.70114 0.20732 0.0
H749 H 0.68825 0.7385 0.21999 0.0
H750 H 0.67316 0.74509 0.01751 0.0
H751 H 0.67295 0.70783 0.00588 0.0
C752 C 0.66918 0.80214 0.0977 0.0
C753 C 0.68422 0.81119 0.13758 0.0
C754 C 0.66798 0.78063 0.09187 0.0
C755 C 0.68189 0.76777 0.12556 0.0
C756 C 0.69717 0.77697 0.1644 0.0
C757 C 0.69821 0.7984 0.17068 0.0
C758 C 0.68514 0.71046 0.16603 0.0
C759 C 0.68095 0.70138 0.10582 0.0
C760 C 0.68492 0.73198 0.17294 0.0
C761 C 0.68074 0.74488 0.11962 0.0
C762 C 0.67618 0.73571 0.05982 0.0
C763 C 0.67626 0.71428 0.05308 0.0
H764 H 0.81104 0.3568 0.92299 0.0
H765 H 0.80489 0.3017 0.80717 0.0
H766 H 0.7735 0.35878 0.93323 0.0
H767 H 0.76742 0.30324 0.81861 0.0
H768 H 0.70041 0.32139 0.79818 0.0
H769 H 0.73782 0.32199 0.78482 0.0
H770 H 0.74471 0.34265 0.98233 0.0
H771 H 0.70742 0.34334 0.99423 0.0
C772 C 0.80169 0.3448 0.90122 0.0
C773 C 0.81089 0.32889 0.86528 0.0
C774 C 0.78013 0.34598 0.90666 0.0
C775 C 0.76734 0.33119 0.87656 0.0
C776 C 0.77668 0.31514 0.84135 0.0
C777 C 0.79818 0.3141 0.83539 0.0
C778 C 0.7098 0.32668 0.83807 0.0
C779 C 0.70077 0.33264 0.89693 0.0
C780 C 0.73136 0.32663 0.83087 0.0
C781 C 0.74438 0.3323 0.8826 0.0
C782 C 0.73527 0.33848 0.94108 0.0
C783 C 0.7138 0.33868 0.94806 0.0
H784 H 0.84854 0.80528 0.51143 0.0
H785 H 0.82594 0.81117 0.70709 0.0
H786 H 0.84741 0.76794 0.52079 0.0
H787 H 0.82589 0.77369 0.71775 0.0
H788 H 0.80289 0.708 0.6873 0.0
H789 H 0.80587 0.74536 0.6784 0.0
H790 H 0.86254 0.73814 0.56966 0.0
H791 H 0.85925 0.70065 0.57772 0.0
C792 C 0.84367 0.79861 0.55699 0.0
C793 C 0.83747 0.81131 0.60869 0.0
C794 C 0.84319 0.77714 0.56248 0.0
C795 C 0.8365 0.76773 0.61991 0.0
C796 C 0.83088 0.78041 0.67244 0.0
C797 C 0.83128 0.80198 0.66681 0.0
C798 C 0.81588 0.71441 0.6609 0.0
C799 C 0.83065 0.70139 0.63228 0.0
C800 C 0.81772 0.73584 0.65644 0.0
C801 C 0.83455 0.74483 0.62388 0.0
C802 C 0.84923 0.73176 0.59445 0.0
C803 C 0.84728 0.71025 0.59855 0.0
H804 H 0.81308 0.15715 0.32691 0.0
H805 H 0.80624 0.20952 0.45416 0.0
H806 H 0.77561 0.15566 0.31316 0.0
H807 H 0.76889 0.20854 0.4392 0.0
H808 H 0.70172 0.19044 0.45082 0.0
H809 H 0.739 0.18937 0.46658 0.0
H810 H 0.7472 0.17286 0.26578 0.0
H811 H 0.71001 0.17254 0.25125 0.0
C812 C 0.8036 0.16868 0.35055 0.0
C813 C 0.81257 0.18365 0.39078 0.0
C814 C 0.78209 0.16778 0.34304 0.0
C815 C 0.76912 0.18194 0.3753 0.0
C816 C 0.77826 0.19711 0.41469 0.0
C817 C 0.7997 0.19783 0.42272 0.0
C818 C 0.71136 0.18594 0.41057 0.0
C819 C 0.70271 0.18123 0.35006 0.0
C820 C 0.73286 0.18574 0.41923 0.0
C821 C 0.74621 0.1811 0.36736 0.0
C822 C 0.73749 0.1762 0.30713 0.0
C823 C 0.71608 0.17623 0.29868 0.0
H824 H 0.15677 0.31044 0.57178 0.0
H825 H 0.21227 0.30356 0.68578 0.0
H826 H 0.15362 0.27296 0.56443 0.0
H827 H 0.20956 0.26614 0.67718 0.0
H828 H 0.18932 0.20027 0.70557 0.0
H829 H 0.18973 0.23775 0.71525 0.0
H830 H 0.1686 0.24316 0.51774 0.0
H831 H 0.16694 0.20587 0.50952 0.0
C832 C 0.16863 0.30092 0.5936 0.0
C833 C 0.18495 0.30988 0.6284 0.0
C834 C 0.16677 0.27941 0.58989 0.0
C835 C 0.18127 0.26645 0.62061 0.0
C836 C 0.19785 0.27556 0.65417 0.0
C837 C 0.19956 0.29701 0.65841 0.0
C838 C 0.18413 0.20939 0.66496 0.0
C839 C 0.17783 0.19996 0.60709 0.0
C840 C 0.18476 0.23096 0.67 0.0
C841 C 0.17933 0.24355 0.61707 0.0
C842 C 0.17265 0.23406 0.55978 0.0
C843 C 0.17187 0.21259 0.55494 0.0
H844 H 0.30589 0.80087 0.29274 0.0
H845 H 0.31289 0.85581 0.40882 0.0
H846 H 0.26849 0.80264 0.30569 0.0
H847 H 0.27539 0.85806 0.42043 0.0
H848 H 0.20895 0.8437 0.48072 0.0
H849 H 0.24624 0.8425 0.46919 0.0
H850 H 0.23926 0.82173 0.27183 0.0
H851 H 0.20186 0.82157 0.28488 0.0
C852 C 0.29937 0.81328 0.3214 0.0
C853 C 0.3123 0.82799 0.3507 0.0
C854 C 0.27792 0.81445 0.3282 0.0
C855 C 0.26881 0.8306 0.36363 0.0
C856 C 0.28183 0.84522 0.39359 0.0
C857 C 0.30336 0.84389 0.38735 0.0
C858 C 0.21532 0.8389 0.43467 0.0
C859 C 0.20225 0.83295 0.38348 0.0
C860 C 0.23679 0.83841 0.42791 0.0
C861 C 0.24587 0.83202 0.3696 0.0
C862 C 0.23283 0.82649 0.3178 0.0
C863 C 0.21127 0.82681 0.32479 0.0
H864 H 0.29645 0.05562 0.99132 0.0
H865 H 0.30476 0.11931 0.93493 0.0
H866 H 0.26492 0.05385 0.92681 0.0
H867 H 0.27373 0.11737 0.86863 0.0
H868 H 0.20646 0.11764 0.81706 0.0
H869 H 0.23763 0.11676 0.88289 0.0
H870 H 0.24848 0.05358 0.82452 0.0
H871 H 0.2168 0.05428 0.76044 0.0
C872 C 0.29191 0.06908 0.96365 0.0
C873 C 0.30319 0.08764 0.96868 0.0
C874 C 0.2737 0.06809 0.9267 0.0
C875 C 0.26635 0.0856 0.89334 0.0
C876 C 0.27841 0.10373 0.89519 0.0
C877 C 0.29647 0.10478 0.93254 0.0
C878 C 0.21524 0.1034 0.81927 0.0
C879 C 0.20903 0.08604 0.78326 0.0
C880 C 0.23337 0.10298 0.85635 0.0
C881 C 0.24603 0.08526 0.85805 0.0
C882 C 0.23923 0.06752 0.82473 0.0
C883 C 0.22093 0.06789 0.78804 0.0
H884 H 0.05615 0.79563 0.23334 0.0
H885 H 0.11973 0.80514 0.17629 0.0
H886 H 0.05488 0.76419 0.16858 0.0
H887 H 0.11827 0.77418 0.1098 0.0
H888 H 0.11961 0.7069 0.05876 0.0
H889 H 0.11828 0.73807 0.12429 0.0
H890 H 0.05484 0.74792 0.06588 0.0
H891 H 0.05599 0.71627 0.00201 0.0
C892 C 0.06969 0.79138 0.2055 0.0
C893 C 0.08808 0.80297 0.21042 0.0
C894 C 0.06899 0.77322 0.1684 0.0
C895 C 0.08661 0.76622 0.13479 0.0
C896 C 0.10456 0.77859 0.13653 0.0
C897 C 0.10532 0.7966 0.174 0.0
C898 C 0.10522 0.71547 0.06085 0.0
C899 C 0.08792 0.70898 0.02491 0.0
C900 C 0.10454 0.7336 0.09778 0.0
C901 C 0.0866 0.74596 0.09943 0.0
C902 C 0.06894 0.7389 0.06611 0.0
C903 C 0.06957 0.72062 0.02954 0.0
H904 H 0.71944 0.95735 0.99279 0.0
H905 H 0.71007 0.89379 0.93673 0.0
H906 H 0.75104 0.95854 0.92844 0.0
H907 H 0.74115 0.89516 0.87051 0.0
H908 H 0.80826 0.89382 0.817 0.0
H909 H 0.77723 0.89513 0.88348 0.0
H910 H 0.76742 0.95861 0.82647 0.0
H911 H 0.79896 0.95748 0.76191 0.0
C912 C 0.72377 0.9438 0.96525 0.0
C913 C 0.71216 0.92545 0.97025 0.0
C914 C 0.74202 0.94445 0.92837 0.0
C915 C 0.74908 0.92681 0.89504 0.0
C916 C 0.73671 0.90888 0.89702 0.0
C917 C 0.71863 0.90817 0.93433 0.0
C918 C 0.79974 0.90821 0.81967 0.0
C919 C 0.80621 0.92553 0.78391 0.0
C920 C 0.78168 0.90889 0.85713 0.0
C921 C 0.76935 0.92683 0.85943 0.0
C922 C 0.77642 0.9445 0.8263 0.0
C923 C 0.79463 0.94388 0.78929 0.0
H924 H 0.95801 0.21878 0.24727 0.0
H925 H 0.89452 0.20854 0.19051 0.0
H926 H 0.95877 0.25044 0.18342 0.0
H927 H 0.89548 0.23967 0.12477 0.0
H928 H 0.89306 0.30668 0.07294 0.0
H929 H 0.89491 0.27568 0.13916 0.0
H930 H 0.95859 0.2669 0.08154 0.0
H931 H 0.95693 0.29841 0.01727 0.0
C932 C 0.94439 0.22293 0.21963 0.0
C933 C 0.92618 0.21108 0.22432 0.0
C934 C 0.94479 0.24121 0.18308 0.0
C935 C 0.92704 0.24803 0.14979 0.0
C936 C 0.90927 0.2354 0.15132 0.0
C937 C 0.9088 0.2173 0.18831 0.0
C938 C 0.90761 0.2984 0.0755 0.0
C939 C 0.92483 0.30512 0.03962 0.0
C940 C 0.90859 0.28037 0.11277 0.0
C941 C 0.92675 0.26832 0.11469 0.0
C942 C 0.94433 0.27567 0.08159 0.0
C943 C 0.94341 0.29387 0.04479 0.0
H944 H 0.21615 0.45686 0.48511 0.0
H945 H 0.20577 0.39418 0.4216 0.0
H946 H 0.24763 0.45841 0.42007 0.0
H947 H 0.23672 0.39592 0.35494 0.0
H948 H 0.30407 0.39402 0.30372 0.0
H949 H 0.27286 0.39517 0.36935 0.0
H950 H 0.26402 0.45922 0.31746 0.0
H951 H 0.29571 0.45823 0.25356 0.0
C952 C 0.22021 0.44362 0.4557 0.0
C953 C 0.20839 0.42537 0.45888 0.0
C954 C 0.23839 0.44446 0.41851 0.0
C955 C 0.24515 0.42712 0.38312 0.0
C956 C 0.23251 0.40938 0.38307 0.0
C957 C 0.2145 0.40848 0.42062 0.0
C958 C 0.29571 0.40848 0.30724 0.0
C959 C 0.30251 0.42601 0.2731 0.0
C960 C 0.27756 0.40908 0.34424 0.0
C961 C 0.26546 0.42716 0.34776 0.0
C962 C 0.27282 0.44501 0.31623 0.0
C963 C 0.29112 0.44445 0.2796 0.0
H964 H 0.45783 0.79555 0.50152 0.0
H965 H 0.39386 0.80555 0.55246 0.0
H966 H 0.45865 0.7649 0.5698 0.0
H967 H 0.39487 0.77566 0.62358 0.0
H968 H 0.39322 0.71007 0.69182 0.0
H969 H 0.39441 0.74009 0.62126 0.0
H970 H 0.45882 0.74926 0.67044 0.0
H971 H 0.45777 0.71848 0.73817 0.0
C972 C 0.4441 0.79157 0.52889 0.0
C973 C 0.42577 0.80306 0.52138 0.0
C974 C 0.44453 0.77387 0.56816 0.0
C975 C 0.42671 0.76731 0.60184 0.0
C976 C 0.40875 0.77961 0.59702 0.0
C977 C 0.40823 0.79704 0.55691 0.0
C978 C 0.40774 0.71827 0.68653 0.0
C979 C 0.4254 0.71176 0.72056 0.0
C980 C 0.40838 0.73578 0.64674 0.0
C981 C 0.4266 0.74765 0.64073 0.0
C982 C 0.4445 0.74062 0.67302 0.0
C983 C 0.44394 0.72285 0.71197 0.0
H984 H 0.70776 0.61802 0.31143 0.0
H985 H 0.71731 0.5547 0.25314 0.0
H986 H 0.73896 0.61663 0.37698 0.0
H987 H 0.74906 0.55349 0.3169 0.0
H988 H 0.79724 0.55469 0.48331 0.0
H989 H 0.76569 0.55334 0.41881 0.0
H990 H 0.77501 0.61694 0.36226 0.0
H991 H 0.80604 0.61847 0.42866 0.0
C992 C 0.71638 0.60368 0.31325 0.0
C993 C 0.70994 0.58648 0.27688 0.0
C994 C 0.73453 0.60296 0.35014 0.0
C995 C 0.747 0.58511 0.35121 0.0
C996 C 0.73996 0.56752 0.31757 0.0
C997 C 0.72163 0.56818 0.28111 0.0
C998 C 0.79282 0.56826 0.45597 0.0
C999 C 0.80422 0.58672 0.46154 0.0
C1000 C 0.77459 0.56751 0.41904 0.0
C1001 C 0.76737 0.58517 0.38621 0.0
C1002 C 0.77959 0.6032 0.38845 0.0
C1003 C 0.79764 0.604 0.42583 0.0
H1004 H 0.61995 0.3045 0.68952 0.0
H1005 H 0.55605 0.29402 0.7407 0.0
H1006 H 0.6192 0.27437 0.61931 0.0
H1007 H 0.5555 0.26319 0.67327 0.0
H1008 H 0.55665 0.21686 0.50486 0.0
H1009 H 0.55546 0.24763 0.57244 0.0
H1010 H 0.61982 0.23871 0.62247 0.0
H1011 H 0.62118 0.20865 0.55207 0.0
C1012 C 0.60565 0.29584 0.68534 0.0
C1013 C 0.58805 0.30179 0.72066 0.0
C1014 C 0.60528 0.27827 0.64575 0.0
C1015 C 0.58742 0.26583 0.64119 0.0
C1016 C 0.56955 0.27229 0.67472 0.0
C1017 C 0.56983 0.2901 0.7135 0.0
C1018 C 0.57045 0.22126 0.53122 0.0
C1019 C 0.58902 0.21023 0.52288 0.0
C1020 C 0.5698 0.23903 0.5701 0.0
C1021 C 0.58764 0.24613 0.60255 0.0
C1022 C 0.60589 0.23432 0.59686 0.0
C1023 C 0.60662 0.21679 0.55717 0.0
H1024 H 0.38237 0.99468 0.04428 0.0
H1025 H 0.3628 0.01667 0.23179 0.0
H1026 H 0.39512 0.96284 0.09439 0.0
H1027 H 0.3753 0.98501 0.28126 0.0
H1028 H 0.41709 0.93446 0.36021 0.0
H1029 H 0.40772 0.96678 0.30566 0.0
H1030 H 0.38098 0.93183 0.14852 0.0
H1031 H 0.39069 0.89969 0.20275 0.0
C1032 C 0.38076 0.99274 0.09602 0.0
C1033 C 0.37148 0.00822 0.13384 0.0
C1034 C 0.38801 0.97448 0.12473 0.0
C1035 C 0.38632 0.97142 0.19192 0.0
C1036 C 0.37715 0.98697 0.22958 0.0
C1037 C 0.36979 1.00508 0.20097 0.0
C1038 C 0.40939 0.9338 0.31373 0.0
C1039 C 0.40445 0.9147 0.2858 0.0
C1040 C 0.40391 0.95224 0.28266 0.0
C1041 C 0.39348 0.95189 0.22284 0.0
C1042 C 0.38913 0.93268 0.19419 0.0
C1043 C 0.39452 0.91429 0.22543 0.0
H1044 H 0.92694 0.62671 0.623 0.0
H1045 H 0.90807 0.59014 0.78678 0.0
H1046 H 0.95895 0.63601 0.6788 0.0
H1047 H 0.93981 0.59978 0.84396 0.0
H1048 H 0.00882 0.60647 0.90031 0.0
H1049 H 0.97671 0.59585 0.84752 0.0
H1050 H 0.97032 0.657 0.76605 0.0
H1051 H 1.00259 0.66734 0.81706 0.0
C1052 C 0.92975 0.62065 0.67102 0.0
C1053 C 0.91517 0.60772 0.70066 0.0
C1054 C 0.94796 0.6261 0.70335 0.0
C1055 C 0.95194 0.61885 0.76638 0.0
C1056 C 0.93742 0.60551 0.79536 0.0
C1057 C 0.91924 0.59999 0.76275 0.0
C1058 C 1.00042 0.6177 0.87175 0.0
C1059 C 0.00834 0.63773 0.86271 0.0
C1060 C 0.98198 0.61162 0.84143 0.0
C1061 C 0.97099 0.62547 0.80166 0.0
C1062 C 0.97858 0.64573 0.79486 0.0
C1063 C 0.99702 0.65174 0.82471 0.0
H1064 H 0.65274 0.99741 0.23007 0.0
H1065 H 0.63088 0.01862 0.04412 0.0
H1066 H 0.63992 0.0288 0.28026 0.0
H1067 H 0.61787 0.05025 0.09502 0.0
H1068 H 0.62248 0.11358 0.20414 0.0
H1069 H 0.63214 0.08166 0.14846 0.0
H1070 H 0.6069 0.04607 0.30662 0.0
H1071 H 0.59751 0.07817 0.36248 0.0
C1072 C 0.6452 0.00878 0.19972 0.0
C1073 C 0.64293 1.00549 0.13284 0.0
C1074 C 0.63766 0.02673 0.22878 0.0
C1075 C 0.62775 0.04198 0.19179 0.0
C1076 C 0.62553 0.03881 0.1248 0.0
C1077 C 0.63295 0.02069 0.09566 0.0
C1078 C 0.61893 0.09888 0.22665 0.0
C1079 C 0.60945 0.09822 0.28771 0.0
C1080 C 0.6243 0.08063 0.19463 0.0
C1081 C 0.62039 0.06132 0.22322 0.0
C1082 C 0.61035 0.06071 0.28367 0.0
C1083 C 0.60487 0.07901 0.31549 0.0
H1084 H 0.11593 0.38101 0.77575 0.0
H1085 H 0.07848 0.41622 0.64303 0.0
H1086 H 0.08477 0.36852 0.82988 0.0
H1087 H 0.04708 0.40383 0.69752 0.0
H1088 H 0.99567 0.38875 0.84429 0.0
H1089 H 0.02731 0.4045 0.80201 0.0
H1090 H 0.05669 0.34461 0.79907 0.0
H1091 H 0.02521 0.3289 0.8413 0.0
C1092 C 0.10097 0.38611 0.75836 0.0
C1093 C 0.09954 0.39934 0.70474 0.0
C1094 C 0.08314 0.37896 0.7893 0.0
C1095 C 0.06343 0.385 0.76764 0.0
C1096 C 0.06203 0.39898 0.71563 0.0
C1097 C 0.07995 0.40606 0.68437 0.0
C1098 C 0.00896 0.37898 0.8354 0.0
C1099 C 0.00788 0.35753 0.84616 0.0
C1100 C 0.02703 0.388 0.81069 0.0
C1101 C 0.04449 0.37581 0.79698 0.0
C1102 C 0.04359 0.35448 0.80969 0.0
C1103 C 0.0255 0.34545 0.83374 0.0
H1104 H 0.38265 0.58773 0.87339 0.0
H1105 H 0.42336 0.60479 0.02948 0.0
H1106 H 0.37314 0.55616 0.9308 0.0
H1107 H 0.41334 0.57366 0.0888 0.0
H1108 H 0.40424 0.5057 0.15 0.0
H1109 H 0.41533 0.53717 0.09488 0.0
H1110 H 0.35341 0.54527 0.01983 0.0
H1111 H 0.34268 0.51348 0.07269 0.0
C1112 C 0.3896 0.58458 0.92003 0.0
C1113 C 0.40378 0.59851 0.94699 0.0
C1114 C 0.384 0.56665 0.95342 0.0
C1115 C 0.39224 0.56237 0.01509 0.0
C1116 C 0.40681 0.57624 0.04129 0.0
C1117 C 0.41256 0.59408 0.00745 0.0
C1118 C 0.39296 0.51438 0.12242 0.0
C1119 C 0.3726 0.50705 0.11556 0.0
C1120 C 0.39931 0.53245 0.09071 0.0
C1121 C 0.38538 0.54371 0.05192 0.0
C1122 C 0.36477 0.53677 0.04762 0.0
C1123 C 0.35852 0.51863 0.07861 0.0
H1124 H 0.60557 0.59308 0.95711 0.0
H1125 H 0.58568 0.62782 0.12362 0.0
H1126 H 0.57431 0.60375 0.89854 0.0
H1127 H 0.55453 0.63865 0.06549 0.0
H1128 H 0.49209 0.63796 0.96707 0.0
H1129 H 0.52226 0.6239 0.02133 0.0
H1130 H 0.5595 0.6366 0.8527 0.0
H1131 H 0.52905 0.65066 0.79746 0.0
C1132 C 0.59432 0.60279 0.98129 0.0
C1133 C 0.59783 0.60957 0.04482 0.0
C1134 C 0.57658 0.60906 0.94768 0.0
C1135 C 0.56196 0.62207 0.97731 0.0
C1136 C 0.56537 0.62845 0.0415 0.0
C1137 C 0.58316 0.62231 0.07479 0.0
C1138 C 0.50662 0.63765 0.94101 0.0
C1139 C 0.50811 0.64557 0.87779 0.0
C1140 C 0.52397 0.62967 0.97247 0.0
C1141 C 0.54331 0.62929 0.94161 0.0
C1142 C 0.54477 0.63659 0.87765 0.0
C1143 C 0.52735 0.64473 0.84611 0.0
H1144 H 0.63486 0.5209 0.02733 0.0
H1145 H 0.65655 0.48277 0.18483 0.0
H1146 H 0.61952 0.49083 0.97614 0.0
H1147 H 0.64126 0.45241 0.13262 0.0
H1148 H 0.59573 0.40531 0.04347 0.0
H1149 H 0.60746 0.4365 0.10032 0.0
H1150 H 0.63305 0.45985 0.92171 0.0
H1151 H 0.62119 0.42876 0.86548 0.0
C1152 C 0.63625 0.50613 0.05146 0.0
C1153 C 0.64703 0.50431 0.11031 0.0
C1154 C 0.62754 0.48883 0.0217 0.0
C1155 C 0.62928 0.46919 0.04998 0.0
C1156 C 0.63953 0.46737 0.10979 0.0
C1157 C 0.64838 0.48474 0.13954 0.0
C1158 C 0.60355 0.41736 0.0165 0.0
C1159 C 0.60736 0.41491 0.95015 0.0
C1160 C 0.61045 0.43506 0.04902 0.0
C1161 C 0.62119 0.45066 0.01557 0.0
C1162 C 0.62459 0.44827 0.94876 0.0
C1163 C 0.61783 0.43053 0.91649 0.0
H1164 H 0.4041 0.41692 0.94348 0.0
H1165 H 0.43212 0.3993 0.12418 0.0
H1166 H 0.43516 0.40569 0.88529 0.0
H1167 H 0.4634 0.38846 0.0669 0.0
H1168 H 0.50508 0.34854 0.94451 0.0
H1169 H 0.47384 0.36091 0.99702 0.0
H1170 H 0.47154 0.41259 0.86505 0.0
H1171 H 0.50276 0.39987 0.81124 0.0
C1172 C 0.41715 0.41102 0.97068 0.0
C1173 C 0.41592 0.4091 0.03815 0.0
C1174 C 0.43492 0.40458 0.9375 0.0
C1175 C 0.45178 0.396 0.97124 0.0
C1176 C 0.4506 0.39462 0.03913 0.0
C1177 C 0.43282 0.401 0.07212 0.0
C1178 C 0.49787 0.36247 0.92621 0.0
C1179 C 0.50651 0.37324 0.87368 0.0
C1180 C 0.48001 0.36969 0.95682 0.0
C1181 C 0.47029 0.38796 0.93608 0.0
C1182 C 0.47855 0.39842 0.88222 0.0
C1183 C 0.49646 0.39113 0.85133 0.0
H1184 H 0.88479 0.39807 0.71654 0.0
H1185 H 0.9199 0.43447 0.85236 0.0
H1186 H 0.87489 0.4294 0.65853 0.0
H1187 H 0.91062 0.46592 0.79323 0.0
H1188 H 0.86701 0.51746 0.72563 0.0
H1189 H 0.87977 0.48639 0.77753 0.0
H1190 H 0.88741 0.45751 0.5908 0.0
H1191 H 0.87416 0.48873 0.53837 0.0
C1192 C 0.89045 0.41284 0.73371 0.0
C1193 C 0.90286 0.41395 0.78935 0.0
C1194 C 0.885 0.43076 0.70008 0.0
C1195 C 0.89187 0.45022 0.72131 0.0
C1196 C 0.9048 0.45122 0.77607 0.0
C1197 C 0.91025 0.43325 0.80971 0.0
C1198 C 0.87141 0.50454 0.69533 0.0
C1199 C 0.86944 0.5056 0.62765 0.0
C1200 C 0.87893 0.48673 0.72525 0.0
C1201 C 0.88472 0.46944 0.68846 0.0
C1202 C 0.88291 0.4705 0.62066 0.0
C1203 C 0.87539 0.48841 0.59056 0.0
H1204 H 0.4895 0.13999 0.45989 0.0
H1205 H 0.51861 0.14299 0.27204 0.0
H1206 H 0.45787 0.12682 0.40948 0.0
H1207 H 0.48711 0.13035 0.22201 0.0
H1208 H 0.43342 0.09141 0.1526 0.0
H1209 H 0.46533 0.10044 0.21 0.0
H1210 H 0.43016 0.13897 0.34053 0.0
H1211 H 0.39837 0.12929 0.28446 0.0
C1212 C 0.48919 0.13784 0.40799 0.0
C1213 C 0.50661 0.14264 0.37015 0.0
C1214 C 0.47103 0.13037 0.37901 0.0
C1215 C 0.46991 0.12749 0.31157 0.0
C1216 C 0.48746 0.13204 0.27408 0.0
C1217 C 0.50552 0.13949 0.3029 0.0
C1218 C 0.43259 0.10163 0.19398 0.0
C1219 C 0.41353 0.10984 0.2137 0.0
C1220 C 0.45083 0.10694 0.22662 0.0
C1221 C 0.45037 0.12057 0.27974 0.0
C1222 C 0.43113 0.12831 0.30031 0.0
C1223 C 0.41294 0.12298 0.26771 0.0
H1224 H 0.13844 0.49184 0.71977 0.0
H1225 H 0.14587 0.52417 0.53851 0.0
H1226 H 0.12481 0.523 0.76917 0.0
H1227 H 0.13171 0.55543 0.58791 0.0
H1228 H 0.13151 0.61248 0.72191 0.0
H1229 H 0.14188 0.58111 0.66564 0.0
H1230 H 0.096 0.54654 0.77258 0.0
H1231 H 0.08627 0.57803 0.83088 0.0
C1232 C 0.13698 0.50555 0.69012 0.0
C1233 C 0.14339 0.50547 0.62508 0.0
C1234 C 0.12897 0.52344 0.71849 0.0
C1235 C 0.12712 0.5418 0.6827 0.0
C1236 C 0.13315 0.54164 0.61723 0.0
C1237 C 0.14118 0.52369 0.58875 0.0
C1238 C 0.12378 0.59813 0.73381 0.0
C1239 C 0.10841 0.59758 0.78182 0.0
C1240 C 0.1295 0.58018 0.7008 0.0
C1241 C 0.11988 0.56119 0.71465 0.0
C1242 C 0.10399 0.5608 0.76134 0.0
C1243 C 0.09828 0.57883 0.79444 0.0
H1244 H 0.58066 0.92307 0.14969 0.0
H1245 H 0.61574 0.88548 0.2823 0.0
H1246 H 0.54871 0.91389 0.20681 0.0
H1247 H 0.58395 0.87576 0.33828 0.0
H1248 H 0.52447 0.87474 0.4571 0.0
H1249 H 0.55602 0.88817 0.40677 0.0
H1250 H 0.52724 0.88346 0.2189 0.0
H1251 H 0.49583 0.87049 0.2688 0.0
C1252 C 0.58149 0.9129 0.1912 0.0
C1253 C 0.60056 0.90478 0.21118 0.0
C1254 C 0.56323 0.90751 0.22369 0.0
C1255 C 0.56371 0.89396 0.27701 0.0
C1256 C 0.58297 0.88636 0.29789 0.0
C1257 C 0.60116 0.89172 0.26537 0.0
C1258 C 0.52487 0.87669 0.40512 0.0
C1259 C 0.50761 0.87144 0.36712 0.0
C1260 C 0.54297 0.8843 0.37621 0.0
C1261 C 0.54419 0.88693 0.30869 0.0
C1262 C 0.5268 0.88196 0.27102 0.0
C1263 C 0.50879 0.87433 0.29977 0.0
H1264 H 0.92557 0.08052 0.41176 0.0
H1265 H 0.88506 0.1155 0.53606 0.0
H1266 H 0.91582 0.04872 0.46859 0.0
H1267 H 0.87492 0.08385 0.59193 0.0
H1268 H 0.87369 0.02463 0.71305 0.0
H1269 H 0.88732 0.05621 0.66364 0.0
H1270 H 0.88465 0.02728 0.47572 0.0
H1271 H 0.87134 0.99588 0.52465 0.0
C1272 C 0.91464 0.08136 0.45139 0.0
C1273 C 0.90579 0.10034 0.46888 0.0
C1274 C 0.90895 0.0632 0.4837 0.0
C1275 C 0.89445 0.06371 0.53455 0.0
C1276 C 0.8862 0.08288 0.55334 0.0
C1277 C 0.89181 0.10098 0.52084 0.0
C1278 C 0.87608 0.02501 0.66126 0.0
C1279 C 0.87132 0.00772 0.62293 0.0
C1280 C 0.88383 0.04312 0.6329 0.0
C1281 C 0.88713 0.04427 0.56568 0.0
C1282 C 0.88261 0.02686 0.52767 0.0
C1283 C 0.87478 0.00887 0.55584 0.0
H1284 H 0.10475 0.09012 0.46213 0.0
H1285 H 0.08276 0.12131 0.6328 0.0
H1286 H 0.07358 0.10073 0.40348 0.0
H1287 H 0.05137 0.1316 0.5753 0.0
H1288 H 0.01067 0.1674 0.43882 0.0
H1289 H 0.042 0.15539 0.49174 0.0
H1290 H 0.03643 0.09668 0.39388 0.0
H1291 H 1.00518 0.10896 0.33946 0.0
C1292 C 0.093 0.09893 0.48729 0.0
C1293 C 0.09605 0.10496 0.55177 0.0
C1294 C 0.07516 0.10502 0.45383 0.0
C1295 C 0.06003 0.11725 0.48433 0.0
C1296 C 0.06288 0.1226 0.54975 0.0
C1297 C 0.08072 0.11657 0.58298 0.0
C1298 C 0.0162 0.15199 0.42798 0.0
C1299 C 1.00534 0.13913 0.385 0.0
C1300 C 0.0341 0.14501 0.4589 0.0
C1301 C 0.04159 0.12491 0.44807 0.0
C1302 C 0.03116 0.11227 0.40325 0.0
C1303 C 0.01323 0.11932 0.37199 0.0
H1304 H 0.08755 0.93202 0.41183 0.0
H1305 H 0.13058 0.89648 0.52588 0.0
H1306 H 0.09751 0.96332 0.47093 0.0
H1307 H 0.14097 0.92765 0.58377 0.0
H1308 H 0.14353 0.98545 0.71073 0.0
H1309 H 0.12949 0.95422 0.66027 0.0
H1310 H 0.12821 0.98531 0.47562 0.0
H1311 H 0.14192 0.01635 0.52562 0.0
C1312 C 0.09907 0.93094 0.44971 0.0
C1313 C 0.10857 0.91197 0.46356 0.0
C1314 C 0.10488 0.94883 0.48329 0.0
C1315 C 0.12018 0.94804 0.53179 0.0
C1316 C 0.12908 0.92883 0.54707 0.0
C1317 C 0.12332 0.91102 0.51335 0.0
C1318 C 0.14017 0.98562 0.65945 0.0
C1319 C 0.14394 1.00342 0.62233 0.0
C1320 C 0.13218 0.96771 0.63047 0.0
C1321 C 0.12767 0.96727 0.56386 0.0
C1322 C 0.13119 0.98517 0.52714 0.0
C1323 C 0.13924 1.00296 0.55589 0.0
H1324 H 1.00391 0.84488 0.43065 0.0
H1325 H 0.00938 0.90417 0.3363 0.0
H1326 H 0.97254 0.8564 0.48443 0.0
H1327 H 0.97808 0.91593 0.39154 0.0
H1328 H 0.90975 0.92195 0.45959 0.0
H1329 H 0.94094 0.91173 0.40033 0.0
H1330 H 0.96298 0.87947 0.56984 0.0
H1331 H 0.93159 0.8894 0.62797 0.0
C1332 C 0.99836 0.86037 0.42109 0.0
C1333 C 0.00923 0.8736 0.37922 0.0
C1334 C 0.98044 0.86706 0.45251 0.0
C1335 C 0.97291 0.88723 0.44329 0.0
C1336 C 0.98337 0.90027 0.39964 0.0
C1337 C 1.00132 0.89352 0.36791 0.0
C1338 C 0.92147 0.91291 0.48413 0.0
C1339 C 0.91837 0.90641 0.54814 0.0
C1340 C 0.93931 0.90704 0.45032 0.0
C1341 C 0.95442 0.89456 0.47996 0.0
C1342 C 0.9515 0.88869 0.54491 0.0
C1343 C 0.93365 0.8945 0.57851 0.0
loop_
_geom_bond_atom_site_label_1
_geom_bond_atom_site_label_2
_geom_bond_distance
_geom_bond_site_symmetry_2
_ccdc_geom_bond_type
Co0 O3 1.970 . S
Co0 N17 1.989 . S
Co0 O25 1.967 . S
Co0 O32 1.920 . S
Co1 O4 1.966 . S
Co1 N10 2.022 . S
Co1 N18 1.993 . S
Co1 O26 1.941 . S
C2 O3 1.258 . S
C2 O4 1.263 . S
O3 Co0 1.970 . S
O3 C2 1.258 . S
O4 Co1 1.966 . S
O4 C2 1.263 . S
C5 O6 1.235 . S
C5 O32 1.289 . S
O6 C5 1.235 . S
C7 C9 1.400 . S
C7 N10 1.351 . S
C7 C12 1.501 . S
C8 C9 1.387 . S
C8 N11 1.341 . S
C9 C7 1.400 . S
C9 C8 1.387 . S
N10 Co1 2.022 . S
N10 C7 1.351 . S
N10 N11 1.365 . S
N11 C8 1.341 . S
N11 N10 1.365 . S
N11 H31 0.862 . S
C12 C7 1.501 . S
C12 H13 0.961 . S
C12 H14 0.969 . S
C12 H15 0.960 . S
H13 C12 0.961 . S
H14 C12 0.969 . S
H15 C12 0.960 . S
C16 N17 1.342 . S
C16 C20 1.401 . S
C16 C21 1.499 . S
N17 Co0 1.989 . S
N17 C16 1.342 . S
N17 N18 1.388 . S
N18 Co1 1.993 . S
N18 N17 1.388 . S
N18 C19 1.346 . S
C19 N18 1.346 . S
C19 C20 1.396 . S
C19 C29 1.510 . S
C20 C16 1.401 . S
C20 C19 1.396 . S
C21 C16 1.499 . S
C21 H22 0.959 . S
C21 H23 0.960 . S
C21 H24 0.961 . S
H22 C21 0.959 . S
H23 C21 0.960 . S
H24 C21 0.961 . S
O25 Co0 1.967 . S
O25 C33 1.258 . S
O26 Co1 1.941 . S
O26 C33 1.266 . S
H27 C29 0.959 . S
H28 C29 0.961 . S
C29 C19 1.510 . S
C29 H27 0.959 . S
C29 H28 0.961 . S
C29 H30 0.960 . S
H30 C29 0.960 . S
H31 N11 0.862 . S
O32 Co0 1.920 . S
O32 C5 1.289 . S
C33 O25 1.258 . S
C33 O26 1.266 . S
Co34 O37 1.970 . S
Co34 N51 1.989 . S
Co34 O59 1.967 . S
Co34 O66 1.920 . S
Co35 O38 1.966 . S
Co35 N44 2.022 . S
Co35 N52 1.993 . S
Co35 O60 1.941 . S
C36 O37 1.258 . S
C36 O38 1.263 . S
O37 Co34 1.970 . S
O37 C36 1.258 . S
O38 Co35 1.966 . S
O38 C36 1.263 . S
C39 O40 1.235 . S
C39 O66 1.289 . S
O40 C39 1.235 . S
C41 C43 1.400 . S
C41 N44 1.351 . S
C41 C46 1.501 . S
C42 C43 1.387 . S
C42 N45 1.341 . S
C43 C41 1.400 . S
C43 C42 1.387 . S
N44 Co35 2.022 . S
N44 C41 1.351 . S
N44 N45 1.365 . S
N45 C42 1.341 . S
N45 N44 1.365 . S
N45 H65 0.862 . S
C46 C41 1.501 . S
C46 H47 0.961 . S
C46 H48 0.969 . S
C46 H49 0.960 . S
H47 C46 0.961 . S
H48 C46 0.969 . S
H49 C46 0.960 . S
C50 N51 1.342 . S
C50 C54 1.401 . S
C50 C55 1.499 . S
N51 Co34 1.989 . S
N51 C50 1.342 . S
N51 N52 1.388 . S
N52 Co35 1.993 . S
N52 N51 1.388 . S
N52 C53 1.346 . S
C53 N52 1.346 . S
C53 C54 1.396 . S
C53 C63 1.510 . S
C54 C50 1.401 . S
C54 C53 1.396 . S
C55 C50 1.499 . S
C55 H56 0.959 . S
C55 H57 0.960 . S
C55 H58 0.961 . S
H56 C55 0.959 . S
H57 C55 0.960 . S
H58 C55 0.961 . S
O59 Co34 1.967 . S
O59 C67 1.258 . S
O60 Co35 1.941 . S
O60 C67 1.266 . S
H61 C63 0.959 . S
H62 C63 0.961 . S
C63 C53 1.510 . S
C63 H61 0.959 . S
C63 H62 0.961 . S
C63 H64 0.960 . S
H64 C63 0.960 . S
H65 N45 0.862 . S
O66 Co34 1.920 . S
O66 C39 1.289 . S
C67 O59 1.258 . S
C67 O60 1.266 . S
Co68 O71 1.970 . S
Co68 N85 1.989 . S
Co68 O93 1.967 . S
Co68 O100 1.920 . S
Co69 O72 1.966 . S
Co69 N78 2.022 . S
Co69 N86 1.993 . S
Co69 O94 1.941 . S
C70 O71 1.258 . S
C70 O72 1.263 . S
O71 Co68 1.970 . S
O71 C70 1.258 . S
O72 Co69 1.966 . S
O72 C70 1.263 . S
C73 O74 1.235 . S
C73 O100 1.289 . S
O74 C73 1.235 . S
C75 C77 1.400 . S
C75 N78 1.351 . S
C75 C80 1.501 . S
C76 C77 1.387 . S
C76 N79 1.341 . S
C77 C75 1.400 . S
C77 C76 1.387 . S
N78 Co69 2.022 . S
N78 C75 1.351 . S
N78 N79 1.365 . S
N79 C76 1.341 . S
N79 N78 1.365 . S
N79 H99 0.862 . S
C80 C75 1.501 . S
C80 H81 0.961 . S
C80 H82 0.969 . S
C80 H83 0.960 . S
H81 C80 0.961 . S
H82 C80 0.969 . S
H83 C80 0.960 . S
C84 N85 1.342 . S
C84 C88 1.401 . S
C84 C89 1.499 . S
N85 Co68 1.989 . S
N85 C84 1.342 . S
N85 N86 1.388 . S
N86 Co69 1.993 . S
N86 N85 1.388 . S
N86 C87 1.346 . S
C87 N86 1.346 . S
C87 C88 1.396 . S
C87 C97 1.510 . S
C88 C84 1.401 . S
C88 C87 1.396 . S
C89 C84 1.499 . S
C89 H90 0.959 . S
C89 H91 0.960 . S
C89 H92 0.961 . S
H90 C89 0.959 . S
H91 C89 0.960 . S
H92 C89 0.961 . S
O93 Co68 1.967 . S
O93 C101 1.258 . S
O94 Co69 1.941 . S
O94 C101 1.266 . S
H95 C97 0.959 . S
H96 C97 0.961 . S
C97 C87 1.510 . S
C97 H95 0.959 . S
C97 H96 0.961 . S
C97 H98 0.960 . S
H98 C97 0.960 . S
H99 N79 0.862 . S
O100 Co68 1.920 . S
O100 C73 1.289 . S
C101 O93 1.258 . S
C101 O94 1.266 . S
Co102 O105 1.970 . S
Co102 N119 1.989 . S
Co102 O127 1.967 . S
Co102 O134 1.920 . S
Co103 O106 1.966 . S
Co103 N112 2.022 . S
Co103 N120 1.993 . S
Co103 O128 1.941 . S
C104 O105 1.258 . S
C104 O106 1.263 . S
O105 Co102 1.970 . S
O105 C104 1.258 . S
O106 Co103 1.966 . S
O106 C104 1.263 . S
C107 O108 1.235 . S
C107 O134 1.289 . S
O108 C107 1.235 . S
C109 C111 1.400 . S
C109 N112 1.351 . S
C109 C114 1.501 . S
C110 C111 1.387 . S
C110 N113 1.341 . S
C111 C109 1.400 . S
C111 C110 1.387 . S
N112 Co103 2.022 . S
N112 C109 1.351 . S
N112 N113 1.365 . S
N113 C110 1.341 . S
N113 N112 1.365 . S
N113 H133 0.862 . S
C114 C109 1.501 . S
C114 H115 0.961 . S
C114 H116 0.969 . S
C114 H117 0.960 . S
H115 C114 0.961 . S
H116 C114 0.969 . S
H117 C114 0.960 . S
C118 N119 1.342 . S
C118 C122 1.401 . S
C118 C123 1.499 . S
N119 Co102 1.989 . S
N119 C118 1.342 . S
N119 N120 1.388 . S
N120 Co103 1.993 . S
N120 N119 1.388 . S
N120 C121 1.346 . S
C121 N120 1.346 . S
C121 C122 1.396 . S
C121 C131 1.510 . S
C122 C118 1.401 . S
C122 C121 1.396 . S
C123 C118 1.499 . S
C123 H124 0.959 . S
C123 H125 0.960 . S
C123 H126 0.961 . S
H124 C123 0.959 . S
H125 C123 0.960 . S
H126 C123 0.961 . S
O127 Co102 1.967 . S
O127 C135 1.258 . S
O128 Co103 1.941 . S
O128 C135 1.266 . S
H129 C131 0.959 . S
H130 C131 0.961 . S
C131 C121 1.510 . S
C131 H129 0.959 . S
C131 H130 0.961 . S
C131 H132 0.960 . S
H132 C131 0.960 . S
H133 N113 0.862 . S
O134 Co102 1.920 . S
O134 C107 1.289 . S
C135 O127 1.258 . S
C135 O128 1.266 . S
Co136 O139 1.970 . S
Co136 N153 1.989 . S
Co136 O161 1.967 . S
Co136 O168 1.920 . S
Co137 O140 1.966 . S
Co137 N146 2.022 . S
Co137 N154 1.993 . S
Co137 O162 1.941 . S
C138 O139 1.258 . S
C138 O140 1.263 . S
O139 Co136 1.970 . S
O139 C138 1.258 . S
O140 Co137 1.966 . S
O140 C138 1.263 . S
C141 O142 1.235 . S
C141 O168 1.289 . S
O142 C141 1.235 . S
C143 C145 1.400 . S
C143 N146 1.351 . S
C143 C148 1.501 . S
C144 C145 1.387 . S
C144 N147 1.341 . S
C145 C143 1.400 . S
C145 C144 1.387 . S
N146 Co137 2.022 . S
N146 C143 1.351 . S
N146 N147 1.365 . S
N147 C144 1.341 . S
N147 N146 1.365 . S
N147 H167 0.862 . S
C148 C143 1.501 . S
C148 H149 0.961 . S
C148 H150 0.961 . S
C148 H151 0.960 . S
H149 C148 0.961 . S
H150 C148 0.961 . S
H151 C148 0.960 . S
C152 N153 1.342 . S
C152 C156 1.401 . S
C152 C157 1.499 . S
N153 Co136 1.989 . S
N153 C152 1.342 . S
N153 N154 1.388 . S
N154 Co137 1.993 . S
N154 N153 1.388 . S
N154 C155 1.346 . S
C155 N154 1.346 . S
C155 C156 1.396 . S
C155 C165 1.510 . S
C156 C152 1.401 . S
C156 C155 1.396 . S
C157 C152 1.499 . S
C157 H158 0.959 . S
C157 H159 0.960 . S
C157 H160 0.961 1_554 S
H158 C157 0.959 . S
H159 C157 0.960 . S
H160 C157 0.961 1_556 S
O161 Co136 1.967 . S
O161 C169 1.258 . S
O162 Co137 1.941 . S
O162 C169 1.266 . S
H163 C165 0.959 . S
H164 C165 0.961 . S
C165 C155 1.510 . S
C165 H163 0.959 . S
C165 H164 0.961 . S
C165 H166 0.960 . S
H166 C165 0.960 . S
H167 N147 0.862 . S
O168 Co136 1.920 . S
O168 C141 1.289 . S
C169 O161 1.258 . S
C169 O162 1.266 . S
Co170 O173 1.970 . S
Co170 N187 1.989 . S
Co170 O195 1.967 . S
Co170 O202 1.920 . S
Co171 O174 1.966 . S
Co171 N180 2.022 . S
Co171 N188 1.993 . S
Co171 O196 1.941 . S
C172 O173 1.258 . S
C172 O174 1.263 . S
O173 Co170 1.970 . S
O173 C172 1.258 . S
O174 Co171 1.966 . S
O174 C172 1.263 . S
C175 O176 1.235 . S
C175 O202 1.289 . S
O176 C175 1.235 . S
C177 C179 1.400 . S
C177 N180 1.351 . S
C177 C182 1.501 . S
C178 C179 1.387 . S
C178 N181 1.341 . S
C179 C177 1.400 . S
C179 C178 1.387 . S
N180 Co171 2.022 . S
N180 C177 1.351 . S
N180 N181 1.365 . S
N181 C178 1.341 . S
N181 N180 1.365 . S
N181 H201 0.862 . S
C182 C177 1.501 . S
C182 H183 0.961 . S
C182 H184 0.961 . S
C182 H185 0.960 . S
H183 C182 0.961 . S
H184 C182 0.961 . S
H185 C182 0.960 . S
C186 N187 1.342 . S
C186 C190 1.401 . S
C186 C191 1.499 . S
N187 Co170 1.989 . S
N187 C186 1.342 . S
N187 N188 1.388 . S
N188 Co171 1.993 . S
N188 N187 1.388 . S
N188 C189 1.346 . S
C189 N188 1.346 . S
C189 C190 1.396 . S
C189 C199 1.510 . S
C190 C186 1.401 . S
C190 C189 1.396 . S
C191 C186 1.499 . S
C191 H192 0.959 . S
C191 H193 0.960 . S
C191 H194 0.961 1_556 S
H192 C191 0.959 . S
H193 C191 0.960 . S
H194 C191 0.961 1_554 S
O195 Co170 1.967 . S
O195 C203 1.258 . S
O196 Co171 1.941 . S
O196 C203 1.266 . S
H197 C199 0.959 . S
H198 C199 0.961 . S
C199 C189 1.510 . S
C199 H197 0.959 . S
C199 H198 0.961 . S
C199 H200 0.960 . S
H200 C199 0.960 . S
H201 N181 0.862 . S
O202 Co170 1.920 . S
O202 C175 1.289 . S
C203 O195 1.258 . S
C203 O196 1.266 . S
Co204 O207 1.970 . S
Co204 N221 1.989 . S
Co204 O229 1.967 . S
Co204 O236 1.920 . S
Co205 O208 1.966 . S
Co205 N214 2.022 . S
Co205 N222 1.993 . S
Co205 O230 1.941 . S
C206 O207 1.258 . S
C206 O208 1.263 . S
O207 Co204 1.970 . S
O207 C206 1.258 . S
O208 Co205 1.966 . S
O208 C206 1.263 . S
C209 O210 1.235 . S
C209 O236 1.289 . S
O210 C209 1.235 . S
C211 C213 1.400 . S
C211 N214 1.351 . S
C211 C216 1.501 . S
C212 C213 1.387 . S
C212 N215 1.341 . S
C213 C211 1.400 . S
C213 C212 1.387 . S
N214 Co205 2.022 . S
N214 C211 1.351 . S
N214 N215 1.365 . S
N215 C212 1.341 . S
N215 N214 1.365 . S
N215 H235 0.862 . S
C216 C211 1.501 . S
C216 H217 0.961 . S
C216 H218 0.961 . S
C216 H219 0.960 . S
H217 C216 0.961 . S
H218 C216 0.961 . S
H219 C216 0.960 . S
C220 N221 1.342 . S
C220 C224 1.401 . S
C220 C225 1.499 . S
N221 Co204 1.989 . S
N221 C220 1.342 . S
N221 N222 1.388 . S
N222 Co205 1.993 . S
N222 N221 1.388 . S
N222 C223 1.346 . S
C223 N222 1.346 . S
C223 C224 1.396 . S
C223 C233 1.510 . S
C224 C220 1.401 . S
C224 C223 1.396 . S
C225 C220 1.499 . S
C225 H226 0.959 . S
C225 H227 0.960 . S
C225 H228 0.961 1_554 S
H226 C225 0.959 . S
H227 C225 0.960 . S
H228 C225 0.961 1_556 S
O229 Co204 1.967 . S
O229 C237 1.258 . S
O230 Co205 1.941 . S
O230 C237 1.266 . S
H231 C233 0.959 . S
H232 C233 0.961 . S
C233 C223 1.510 . S
C233 H231 0.959 . S
C233 H232 0.961 . S
C233 H234 0.960 . S
H234 C233 0.960 . S
H235 N215 0.862 . S
O236 Co204 1.920 . S
O236 C209 1.289 . S
C237 O229 1.258 . S
C237 O230 1.266 . S
Co238 O241 1.970 . S
Co238 N255 1.989 . S
Co238 O263 1.967 . S
Co238 O270 1.920 . S
Co239 O242 1.966 . S
Co239 N248 2.022 . S
Co239 N256 1.993 . S
Co239 O264 1.941 . S
C240 O241 1.258 . S
C240 O242 1.263 . S
O241 Co238 1.970 . S
O241 C240 1.258 . S
O242 Co239 1.966 . S
O242 C240 1.263 . S
C243 O244 1.235 . S
C243 O270 1.289 . S
O244 C243 1.235 . S
C245 C247 1.400 . S
C245 N248 1.351 . S
C245 C250 1.501 . S
C246 C247 1.387 . S
C246 N249 1.341 . S
C247 C245 1.400 . S
C247 C246 1.387 . S
N248 Co239 2.022 . S
N248 C245 1.351 . S
N248 N249 1.365 . S
N249 C246 1.341 . S
N249 N248 1.365 . S
N249 H269 0.862 . S
C250 C245 1.501 . S
C250 H251 0.961 . S
C250 H252 0.961 . S
C250 H253 0.960 . S
H251 C250 0.961 . S
H252 C250 0.961 . S
H253 C250 0.960 . S
C254 N255 1.342 . S
C254 C258 1.401 . S
C254 C259 1.499 . S
N255 Co238 1.989 . S
N255 C254 1.342 . S
N255 N256 1.388 . S
N256 Co239 1.993 . S
N256 N255 1.388 . S
N256 C257 1.346 . S
C257 N256 1.346 . S
C257 C258 1.396 . S
C257 C267 1.510 . S
C258 C254 1.401 . S
C258 C257 1.396 . S
C259 C254 1.499 . S
C259 H260 0.959 . S
C259 H261 0.960 . S
C259 H262 0.961 1_556 S
H260 C259 0.959 . S
H261 C259 0.960 . S
H262 C259 0.961 1_554 S
O263 Co238 1.967 . S
O263 C271 1.258 . S
O264 Co239 1.941 . S
O264 C271 1.266 . S
H265 C267 0.959 . S
H266 C267 0.961 . S
C267 C257 1.510 . S
C267 H265 0.959 . S
C267 H266 0.961 . S
C267 H268 0.960 . S
H268 C267 0.960 . S
H269 N249 0.862 . S
O270 Co238 1.920 . S
O270 C243 1.289 . S
C271 O263 1.258 . S
C271 O264 1.266 . S
Co272 O275 1.970 . S
Co272 N289 1.989 . S
Co272 O297 1.967 . S
Co272 O304 1.920 . S
Co273 O276 1.966 . S
Co273 N282 2.022 . S
Co273 N290 1.993 . S
Co273 O298 1.941 . S
C274 O275 1.258 . S
C274 O276 1.263 . S
O275 Co272 1.970 . S
O275 C274 1.258 . S
O276 Co273 1.966 . S
O276 C274 1.263 . S
C277 O278 1.235 . S
C277 O304 1.289 . S
O278 C277 1.235 . S
C279 C281 1.400 . S
C279 N282 1.351 . S
C279 C284 1.501 . S
C280 C281 1.387 . S
C280 N283 1.341 . S
C281 C279 1.400 . S
C281 C280 1.387 . S
N282 Co273 2.022 . S
N282 C279 1.351 . S
N282 N283 1.365 . S
N283 C280 1.341 . S
N283 N282 1.365 . S
N283 H303 0.862 . S
C284 C279 1.501 . S
C284 H285 0.961 . S
C284 H286 0.961 . S
C284 H287 0.960 . S
H285 C284 0.961 . S
H286 C284 0.961 . S
H287 C284 0.960 . S
C288 N289 1.342 . S
C288 C292 1.401 . S
C288 C293 1.499 . S
N289 Co272 1.989 . S
N289 C288 1.342 . S
N289 N290 1.388 . S
N290 Co273 1.993 . S
N290 N289 1.388 . S
N290 C291 1.346 . S
C291 N290 1.346 . S
C291 C292 1.396 . S
C291 C301 1.510 . S
C292 C288 1.401 . S
C292 C291 1.396 . S
C293 C288 1.499 . S
C293 H294 0.959 . S
C293 H295 0.960 . S
C293 H296 0.961 . S
H294 C293 0.959 . S
H295 C293 0.960 . S
H296 C293 0.961 . S
O297 Co272 1.967 . S
O297 C305 1.258 . S
O298 Co273 1.941 . S
O298 C305 1.266 . S
H299 C301 0.959 . S
H300 C301 0.961 . S
C301 C291 1.510 . S
C301 H299 0.959 . S
C301 H300 0.961 . S
C301 H302 0.960 . S
H302 C301 0.960 . S
H303 N283 0.862 . S
O304 Co272 1.920 . S
O304 C277 1.289 . S
C305 O297 1.258 . S
C305 O298 1.266 . S
Co306 O309 1.970 . S
Co306 N323 1.989 . S
Co306 O331 1.967 . S
Co306 O338 1.920 . S
Co307 O310 1.966 . S
Co307 N316 2.022 . S
Co307 N324 1.993 . S
Co307 O332 1.941 . S
C308 O309 1.258 . S
C308 O310 1.263 . S
O309 Co306 1.970 . S
O309 C308 1.258 . S
O310 Co307 1.966 . S
O310 C308 1.263 . S
C311 O312 1.235 . S
C311 O338 1.289 . S
O312 C311 1.235 . S
C313 C315 1.400 . S
C313 N316 1.351 . S
C313 C318 1.501 . S
C314 C315 1.387 . S
C314 N317 1.341 . S
C315 C313 1.400 . S
C315 C314 1.387 . S
N316 Co307 2.022 . S
N316 C313 1.351 . S
N316 N317 1.365 . S
N317 C314 1.341 . S
N317 N316 1.365 . S
N317 H337 0.862 . S
C318 C313 1.501 . S
C318 H319 0.961 . S
C318 H320 0.961 . S
C318 H321 0.960 . S
H319 C318 0.961 . S
H320 C318 0.961 . S
H321 C318 0.960 . S
C322 N323 1.342 . S
C322 C326 1.401 . S
C322 C327 1.499 . S
N323 Co306 1.989 . S
N323 C322 1.342 . S
N323 N324 1.388 . S
N324 Co307 1.993 . S
N324 N323 1.388 . S
N324 C325 1.346 . S
C325 N324 1.346 . S
C325 C326 1.396 . S
C325 C335 1.510 . S
C326 C322 1.401 . S
C326 C325 1.396 . S
C327 C322 1.499 . S
C327 H328 0.959 . S
C327 H329 0.960 . S
C327 H330 0.961 . S
H328 C327 0.959 . S
H329 C327 0.960 . S
H330 C327 0.961 . S
O331 Co306 1.967 . S
O331 C339 1.258 . S
O332 Co307 1.941 . S
O332 C339 1.266 . S
H333 C335 0.959 . S
H334 C335 0.961 . S
C335 C325 1.510 . S
C335 H333 0.959 . S
C335 H334 0.961 . S
C335 H336 0.960 . S
H336 C335 0.960 . S
H337 N317 0.862 . S
O338 Co306 1.920 . S
O338 C311 1.289 . S
C339 O331 1.258 . S
C339 O332 1.266 . S
Co340 O343 1.970 . S
Co340 N357 1.989 . S
Co340 O365 1.967 . S
Co340 O372 1.920 . S
Co341 O344 1.966 . S
Co341 N350 2.022 . S
Co341 N358 1.993 . S
Co341 O366 1.941 . S
C342 O343 1.258 . S
C342 O344 1.263 . S
O343 Co340 1.970 . S
O343 C342 1.258 . S
O344 Co341 1.966 . S
O344 C342 1.263 . S
C345 O346 1.235 . S
C345 O372 1.289 . S
O346 C345 1.235 . S
C347 C349 1.400 . S
C347 N350 1.351 . S
C347 C352 1.501 . S
C348 C349 1.387 . S
C348 N351 1.341 . S
C349 C347 1.400 . S
C349 C348 1.387 . S
N350 Co341 2.022 . S
N350 C347 1.351 . S
N350 N351 1.365 . S
N351 C348 1.341 . S
N351 N350 1.365 . S
N351 H371 0.862 . S
C352 C347 1.501 . S
C352 H353 0.961 . S
C352 H354 0.961 . S
C352 H355 0.960 . S
H353 C352 0.961 . S
H354 C352 0.961 . S
H355 C352 0.960 . S
C356 N357 1.342 . S
C356 C360 1.401 . S
C356 C361 1.499 . S
N357 Co340 1.989 . S
N357 C356 1.342 . S
N357 N358 1.388 . S
N358 Co341 1.993 . S
N358 N357 1.388 . S
N358 C359 1.346 . S
C359 N358 1.346 . S
C359 C360 1.396 . S
C359 C369 1.510 . S
C360 C356 1.401 . S
C360 C359 1.396 . S
C361 C356 1.499 . S
C361 H362 0.959 . S
C361 H363 0.960 . S
C361 H364 0.961 . S
H362 C361 0.959 . S
H363 C361 0.960 . S
H364 C361 0.961 . S
O365 Co340 1.967 . S
O365 C373 1.258 . S
O366 Co341 1.941 . S
O366 C373 1.266 . S
H367 C369 0.959 . S
H368 C369 0.961 . S
C369 C359 1.510 . S
C369 H367 0.959 . S
C369 H368 0.961 . S
C369 H370 0.960 . S
H370 C369 0.960 . S
H371 N351 0.862 . S
O372 Co340 1.920 . S
O372 C345 1.289 . S
C373 O365 1.258 . S
C373 O366 1.266 . S
Co374 O377 1.970 . S
Co374 N391 1.989 . S
Co374 O399 1.967 . S
Co374 O406 1.920 . S
Co375 O378 1.966 . S
Co375 N384 2.022 . S
Co375 N392 1.993 . S
Co375 O400 1.941 . S
C376 O377 1.258 . S
C376 O378 1.263 . S
O377 Co374 1.970 . S
O377 C376 1.258 . S
O378 Co375 1.966 . S
O378 C376 1.263 . S
C379 O380 1.235 . S
C379 O406 1.289 . S
O380 C379 1.235 . S
C381 C383 1.400 . S
C381 N384 1.351 . S
C381 C386 1.501 . S
C382 C383 1.387 . S
C382 N385 1.341 . S
C383 C381 1.400 . S
C383 C382 1.387 . S
N384 Co375 2.022 . S
N384 C381 1.351 . S
N384 N385 1.365 . S
N385 C382 1.341 . S
N385 N384 1.365 . S
N385 H405 0.862 . S
C386 C381 1.501 . S
C386 H387 0.961 . S
C386 H388 0.961 . S
C386 H389 0.960 . S
H387 C386 0.961 . S
H388 C386 0.961 . S
H389 C386 0.960 . S
C390 N391 1.342 . S
C390 C394 1.401 . S
C390 C395 1.499 . S
N391 Co374 1.989 . S
N391 C390 1.342 . S
N391 N392 1.388 . S
N392 Co375 1.993 . S
N392 N391 1.388 . S
N392 C393 1.346 . S
C393 N392 1.346 . S
C393 C394 1.396 . S
C393 C403 1.510 . S
C394 C390 1.401 . S
C394 C393 1.396 . S
C395 C390 1.499 . S
C395 H396 0.959 . S
C395 H397 0.960 . S
C395 H398 0.961 . S
H396 C395 0.959 . S
H397 C395 0.960 . S
H398 C395 0.961 . S
O399 Co374 1.967 . S
O399 C407 1.258 . S
O400 Co375 1.941 . S
O400 C407 1.266 . S
H401 C403 0.959 . S
H402 C403 0.961 . S
C403 C393 1.510 . S
C403 H401 0.959 . S
C403 H402 0.961 . S
C403 H404 0.960 . S
H404 C403 0.960 . S
H405 N385 0.862 . S
O406 Co374 1.920 . S
O406 C379 1.289 . S
C407 O399 1.258 . S
C407 O400 1.266 . S
Co408 O411 1.970 . S
Co408 N425 1.989 . S
Co408 O433 1.967 . S
Co408 O440 1.920 . S
Co409 O412 1.966 . S
Co409 N418 2.022 . S
Co409 N426 1.993 . S
Co409 O434 1.941 . S
C410 O411 1.258 . S
C410 O412 1.263 . S
O411 Co408 1.970 . S
O411 C410 1.258 . S
O412 Co409 1.966 . S
O412 C410 1.263 . S
C413 O414 1.235 . S
C413 O440 1.289 . S
O414 C413 1.235 . S
C415 C417 1.400 . S
C415 N418 1.351 . S
C415 C420 1.501 . S
C416 C417 1.387 . S
C416 N419 1.341 . S
C417 C415 1.400 . S
C417 C416 1.387 . S
N418 Co409 2.022 . S
N418 C415 1.351 . S
N418 N419 1.365 . S
N419 C416 1.341 . S
N419 N418 1.365 . S
N419 H439 0.862 . S
C420 C415 1.501 . S
C420 H421 0.961 . S
C420 H422 0.961 . S
C420 H423 0.960 . S
H421 C420 0.961 . S
H422 C420 0.961 . S
H423 C420 0.960 . S
C424 N425 1.342 . S
C424 C428 1.401 . S
C424 C429 1.499 . S
N425 Co408 1.989 . S
N425 C424 1.342 . S
N425 N426 1.388 . S
N426 Co409 1.993 . S
N426 N425 1.388 . S
N426 C427 1.346 . S
C427 N426 1.346 . S
C427 C428 1.396 . S
C427 C437 1.510 . S
C428 C424 1.401 . S
C428 C427 1.396 . S
C429 C424 1.499 . S
C429 H430 0.959 . S
C429 H431 0.960 . S
C429 H432 0.961 . S
H430 C429 0.959 . S
H431 C429 0.960 . S
H432 C429 0.961 . S
O433 Co408 1.967 . S
O433 C441 1.258 . S
O434 Co409 1.941 . S
O434 C441 1.266 . S
H435 C437 0.959 . S
H436 C437 0.961 . S
C437 C427 1.510 . S
C437 H435 0.959 . S
C437 H436 0.961 . S
C437 H438 0.960 . S
H438 C437 0.960 . S
H439 N419 0.862 . S
O440 Co408 1.920 . S
O440 C413 1.289 . S
C441 O433 1.258 . S
C441 O434 1.266 . S
Co442 O445 1.970 . S
Co442 N459 1.989 . S
Co442 O467 1.967 . S
Co442 O474 1.920 . S
Co443 O446 1.966 . S
Co443 N452 2.022 . S
Co443 N460 1.993 . S
Co443 O468 1.941 . S
C444 O445 1.258 . S
C444 O446 1.263 . S
O445 Co442 1.970 . S
O445 C444 1.258 . S
O446 Co443 1.966 . S
O446 C444 1.263 . S
C447 O448 1.235 . S
C447 O474 1.289 . S
O448 C447 1.235 . S
C449 C451 1.400 . S
C449 N452 1.351 . S
C449 C454 1.501 . S
C450 C451 1.387 . S
C450 N453 1.341 . S
C451 C449 1.400 . S
C451 C450 1.387 . S
N452 Co443 2.022 . S
N452 C449 1.351 . S
N452 N453 1.365 . S
N453 C450 1.341 . S
N453 N452 1.365 . S
N453 H473 0.862 . S
C454 C449 1.501 . S
C454 H455 0.961 . S
C454 H456 0.961 . S
C454 H457 0.960 . S
H455 C454 0.961 . S
H456 C454 0.961 . S
H457 C454 0.960 . S
C458 N459 1.342 . S
C458 C462 1.401 . S
C458 C463 1.499 . S
N459 Co442 1.989 . S
N459 C458 1.342 . S
N459 N460 1.388 . S
N460 Co443 1.993 . S
N460 N459 1.388 . S
N460 C461 1.346 . S
C461 N460 1.346 . S
C461 C462 1.396 . S
C461 C471 1.510 . S
C462 C458 1.401 . S
C462 C461 1.396 . S
C463 C458 1.499 . S
C463 H464 0.959 . S
C463 H465 0.960 . S
C463 H466 0.961 . S
H464 C463 0.959 . S
H465 C463 0.960 . S
H466 C463 0.961 . S
O467 Co442 1.967 . S
O467 C475 1.258 . S
O468 Co443 1.941 . S
O468 C475 1.266 . S
H469 C471 0.959 . S
H470 C471 0.961 . S
C471 C461 1.510 . S
C471 H469 0.959 . S
C471 H470 0.961 . S
C471 H472 0.960 . S
H472 C471 0.960 . S
H473 N453 0.862 . S
O474 Co442 1.920 . S
O474 C447 1.289 . S
C475 O467 1.258 . S
C475 O468 1.266 . S
Co476 O479 1.970 . S
Co476 N493 1.989 . S
Co476 O501 1.967 . S
Co476 O508 1.920 . S
Co477 O480 1.966 . S
Co477 N486 2.022 . S
Co477 N494 1.993 . S
Co477 O502 1.941 . S
C478 O479 1.258 . S
C478 O480 1.263 . S
O479 Co476 1.970 . S
O479 C478 1.258 . S
O480 Co477 1.966 . S
O480 C478 1.263 . S
C481 O482 1.235 . S
C481 O508 1.289 . S
O482 C481 1.235 . S
C483 C485 1.400 . S
C483 N486 1.351 . S
C483 C488 1.501 . S
C484 C485 1.387 . S
C484 N487 1.341 . S
C485 C483 1.400 . S
C485 C484 1.387 . S
N486 Co477 2.022 . S
N486 C483 1.351 . S
N486 N487 1.365 . S
N487 C484 1.341 . S
N487 N486 1.365 . S
N487 H507 0.862 . S
C488 C483 1.501 . S
C488 H489 0.961 . S
C488 H490 0.961 . S
C488 H491 0.960 . S
H489 C488 0.961 . S
H490 C488 0.961 . S
H491 C488 0.960 . S
C492 N493 1.342 . S
C492 C496 1.401 . S
C492 C497 1.499 . S
N493 Co476 1.989 . S
N493 C492 1.342 . S
N493 N494 1.388 . S
N494 Co477 1.993 . S
N494 N493 1.388 . S
N494 C495 1.346 . S
C495 N494 1.346 . S
C495 C496 1.396 . S
C495 C505 1.510 . S
C496 C492 1.401 . S
C496 C495 1.396 . S
C497 C492 1.499 . S
C497 H498 0.959 . S
C497 H499 0.960 . S
C497 H500 0.961 . S
H498 C497 0.959 . S
H499 C497 0.960 . S
H500 C497 0.961 . S
O501 Co476 1.967 . S
O501 C509 1.258 . S
O502 Co477 1.941 . S
O502 C509 1.266 . S
H503 C505 0.959 . S
H504 C505 0.961 . S
C505 C495 1.510 . S
C505 H503 0.959 . S
C505 H504 0.961 . S
C505 H506 0.960 . S
H506 C505 0.960 . S
H507 N487 0.862 . S
O508 Co476 1.920 . S
O508 C481 1.289 . S
C509 O501 1.258 . S
C509 O502 1.266 . S
Co510 O513 1.970 . S
Co510 N527 1.989 . S
Co510 O535 1.967 . S
Co510 O542 1.920 . S
Co511 O514 1.966 . S
Co511 N520 2.022 . S
Co511 N528 1.993 . S
Co511 O536 1.941 . S
C512 O513 1.258 . S
C512 O514 1.263 . S
O513 Co510 1.970 . S
O513 C512 1.258 . S
O514 Co511 1.966 . S
O514 C512 1.263 . S
C515 O516 1.235 . S
C515 O542 1.289 . S
O516 C515 1.235 . S
C517 C519 1.400 . S
C517 N520 1.351 . S
C517 C522 1.501 . S
C518 C519 1.387 . S
C518 N521 1.341 . S
C519 C517 1.400 . S
C519 C518 1.387 . S
N520 Co511 2.022 . S
N520 C517 1.351 . S
N520 N521 1.365 . S
N521 C518 1.341 . S
N521 N520 1.365 . S
N521 H541 0.862 . S
C522 C517 1.501 . S
C522 H523 0.961 . S
C522 H524 0.961 . S
C522 H525 0.960 . S
H523 C522 0.961 . S
H524 C522 0.961 . S
H525 C522 0.960 . S
C526 N527 1.342 . S
C526 C530 1.401 . S
C526 C531 1.499 . S
N527 Co510 1.989 . S
N527 C526 1.342 . S
N527 N528 1.388 . S
N528 Co511 1.993 . S
N528 N527 1.388 . S
N528 C529 1.346 . S
C529 N528 1.346 . S
C529 C530 1.396 . S
C529 C539 1.510 . S
C530 C526 1.401 . S
C530 C529 1.396 . S
C531 C526 1.499 . S
C531 H532 0.959 . S
C531 H533 0.960 . S
C531 H534 0.961 . S
H532 C531 0.959 . S
H533 C531 0.960 . S
H534 C531 0.961 . S
O535 Co510 1.967 . S
O535 C543 1.258 . S
O536 Co511 1.941 . S
O536 C543 1.266 . S
H537 C539 0.959 . S
H538 C539 0.961 . S
C539 C529 1.510 . S
C539 H537 0.959 . S
C539 H538 0.961 . S
C539 H540 0.960 . S
H540 C539 0.960 . S
H541 N521 0.862 . S
O542 Co510 1.920 . S
O542 C515 1.289 . S
C543 O535 1.258 . S
C543 O536 1.266 . S
H544 C552 0.950 . S
H545 C557 0.950 . S
H546 C554 0.950 . S
H547 C556 0.950 . S
H548 C558 0.950 . S
H549 C560 0.950 . S
H550 C562 0.950 . S
H551 C563 0.950 . S
C552 H544 0.950 . S
C552 C553 1.386 . S
C552 C554 1.391 . S
C553 C552 1.386 . S
C553 C557 1.393 . S
C554 H546 0.950 . S
C554 C552 1.391 . S
C554 C555 1.400 . S
C555 C554 1.400 . S
C555 C556 1.398 . S
C555 C561 1.491 . S
C556 H547 0.950 . S
C556 C555 1.398 . S
C556 C557 1.391 . S
C557 H545 0.950 . S
C557 C553 1.393 . S
C557 C556 1.391 . S
C558 H548 0.950 . S
C558 C559 1.386 . S
C558 C560 1.391 . S
C559 C558 1.386 . S
C559 C563 1.393 . S
C560 H549 0.950 . S
C560 C558 1.391 . S
C560 C561 1.400 . S
C561 C555 1.491 . S
C561 C560 1.400 . S
C561 C562 1.398 . S
C562 H550 0.950 . S
C562 C561 1.398 . S
C562 C563 1.391 . S
C563 H551 0.950 . S
C563 C559 1.393 . S
C563 C562 1.391 . S
H564 C572 0.950 . S
H565 C577 0.950 . S
H566 C574 0.950 . S
H567 C576 0.950 . S
H568 C578 0.950 . S
H569 C580 0.950 . S
H570 C582 0.950 . S
H571 C583 0.950 . S
C572 H564 0.950 . S
C572 C573 1.386 . S
C572 C574 1.391 . S
C573 C572 1.386 . S
C573 C577 1.393 . S
C574 H566 0.950 . S
C574 C572 1.391 . S
C574 C575 1.400 . S
C575 C574 1.400 . S
C575 C576 1.398 . S
C575 C581 1.491 . S
C576 H567 0.950 . S
C576 C575 1.398 . S
C576 C577 1.391 . S
C577 H565 0.950 . S
C577 C573 1.393 . S
C577 C576 1.391 . S
C578 H568 0.950 . S
C578 C579 1.386 . S
C578 C580 1.391 . S
C579 C578 1.386 . S
C579 C583 1.393 . S
C580 H569 0.950 . S
C580 C578 1.391 . S
C580 C581 1.400 . S
C581 C575 1.491 . S
C581 C580 1.400 . S
C581 C582 1.398 . S
C582 H570 0.950 . S
C582 C581 1.398 . S
C582 C583 1.391 . S
C583 H571 0.950 . S
C583 C579 1.393 . S
C583 C582 1.391 . S
H584 C592 0.950 . S
H585 C597 0.950 . S
H586 C594 0.950 . S
H587 C596 0.950 . S
H588 C598 0.950 . S
H589 C600 0.950 . S
H590 C602 0.950 . S
H591 C603 0.950 . S
C592 H584 0.950 . S
C592 C593 1.386 . S
C592 C594 1.391 . S
C593 C592 1.386 . S
C593 C597 1.393 . S
C594 H586 0.950 . S
C594 C592 1.391 . S
C594 C595 1.400 . S
C595 C594 1.400 . S
C595 C596 1.398 . S
C595 C601 1.491 . S
C596 H587 0.950 . S
C596 C595 1.398 . S
C596 C597 1.391 . S
C597 H585 0.950 . S
C597 C593 1.393 . S
C597 C596 1.391 . S
C598 H588 0.950 . S
C598 C599 1.386 . S
C598 C600 1.391 . S
C599 C598 1.386 . S
C599 C603 1.393 . S
C600 H589 0.950 . S
C600 C598 1.391 . S
C600 C601 1.400 . S
C601 C595 1.491 . S
C601 C600 1.400 . S
C601 C602 1.398 . S
C602 H590 0.950 . S
C602 C601 1.398 . S
C602 C603 1.391 . S
C603 H591 0.950 . S
C603 C599 1.393 . S
C603 C602 1.391 . S
H604 C612 0.950 . S
H605 C617 0.950 . S
H606 C614 0.950 . S
H607 C616 0.950 . S
H608 C618 0.950 . S
H609 C620 0.950 . S
H610 C622 0.950 . S
H611 C623 0.950 . S
C612 H604 0.950 . S
C612 C613 1.386 . S
C612 C614 1.391 . S
C613 C612 1.386 . S
C613 C617 1.393 . S
C614 H606 0.950 . S
C614 C612 1.391 . S
C614 C615 1.400 . S
C615 C614 1.400 . S
C615 C616 1.398 . S
C615 C621 1.491 . S
C616 H607 0.950 . S
C616 C615 1.398 . S
C616 C617 1.391 . S
C617 H605 0.950 . S
C617 C613 1.393 . S
C617 C616 1.391 . S
C618 H608 0.950 . S
C618 C619 1.386 . S
C618 C620 1.391 . S
C619 C618 1.386 . S
C619 C623 1.393 . S
C620 H609 0.950 . S
C620 C618 1.391 . S
C620 C621 1.400 . S
C621 C615 1.491 . S
C621 C620 1.400 . S
C621 C622 1.398 . S
C622 H610 0.950 . S
C622 C621 1.398 . S
C622 C623 1.391 . S
C623 H611 0.950 . S
C623 C619 1.393 . S
C623 C622 1.391 . S
H624 C632 0.950 1_554 S
H625 C637 0.950 . S
H626 C634 0.950 . S
H627 C636 0.950 . S
H628 C638 0.950 . S
H629 C640 0.950 . S
H630 C642 0.950 . S
H631 C643 0.950 . S
C632 H624 0.950 1_556 S
C632 C633 1.386 . S
C632 C634 1.391 . S
C633 C632 1.386 . S
C633 C637 1.393 . S
C634 H626 0.950 . S
C634 C632 1.391 . S
C634 C635 1.400 . S
C635 C634 1.400 . S
C635 C636 1.398 . S
C635 C641 1.491 . S
C636 H627 0.950 . S
C636 C635 1.398 . S
C636 C637 1.391 . S
C637 H625 0.950 . S
C637 C633 1.393 . S
C637 C636 1.391 . S
C638 H628 0.950 . S
C638 C639 1.386 . S
C638 C640 1.391 . S
C639 C638 1.386 . S
C639 C643 1.393 . S
C640 H629 0.950 . S
C640 C638 1.391 . S
C640 C641 1.400 . S
C641 C635 1.491 . S
C641 C640 1.400 . S
C641 C642 1.398 . S
C642 H630 0.950 . S
C642 C641 1.398 . S
C642 C643 1.391 . S
C643 H631 0.950 . S
C643 C639 1.393 . S
C643 C642 1.391 . S
H644 C652 0.950 . S
H645 C657 0.950 . S
H646 C654 0.950 . S
H647 C656 0.950 . S
H648 C658 0.950 . S
H649 C660 0.950 . S
H650 C662 0.950 . S
H651 C663 0.950 . S
C652 H644 0.950 . S
C652 C653 1.386 . S
C652 C654 1.391 . S
C653 C652 1.386 . S
C653 C657 1.393 . S
C654 H646 0.950 . S
C654 C652 1.391 . S
C654 C655 1.400 . S
C655 C654 1.400 . S
C655 C656 1.398 . S
C655 C661 1.491 . S
C656 H647 0.950 . S
C656 C655 1.398 . S
C656 C657 1.391 . S
C657 H645 0.950 . S
C657 C653 1.393 . S
C657 C656 1.391 . S
C658 H648 0.950 . S
C658 C659 1.386 . S
C658 C660 1.391 . S
C659 C658 1.386 . S
C659 C663 1.393 . S
C660 H649 0.950 . S
C660 C658 1.391 . S
C660 C661 1.400 . S
C661 C655 1.491 . S
C661 C660 1.400 . S
C661 C662 1.398 . S
C662 H650 0.950 . S
C662 C661 1.398 . S
C662 C663 1.391 . S
C663 H651 0.950 . S
C663 C659 1.393 . S
C663 C662 1.391 . S
H664 C672 0.950 . S
H665 C677 0.950 1_554 S
H666 C674 0.950 . S
H667 C676 0.950 . S
H668 C678 0.950 . S
H669 C680 0.950 . S
H670 C682 0.950 . S
H671 C683 0.950 . S
C672 H664 0.950 . S
C672 C673 1.386 . S
C672 C674 1.391 . S
C673 C672 1.386 . S
C673 C677 1.393 . S
C674 H666 0.950 . S
C674 C672 1.391 . S
C674 C675 1.400 . S
C675 C674 1.400 . S
C675 C676 1.398 . S
C675 C681 1.491 . S
C676 H667 0.950 . S
C676 C675 1.398 . S
C676 C677 1.391 . S
C677 H665 0.950 1_556 S
C677 C673 1.393 . S
C677 C676 1.391 . S
C678 H668 0.950 . S
C678 C679 1.386 . S
C678 C680 1.391 . S
C679 C678 1.386 . S
C679 C683 1.393 . S
C680 H669 0.950 . S
C680 C678 1.391 . S
C680 C681 1.400 . S
C681 C675 1.491 . S
C681 C680 1.400 . S
C681 C682 1.398 . S
C682 H670 0.950 . S
C682 C681 1.398 . S
C682 C683 1.391 . S
C683 H671 0.950 . S
C683 C679 1.393 . S
C683 C682 1.391 . S
H684 C692 0.950 . S
H685 C697 0.950 . S
H686 C694 0.950 . S
H687 C696 0.950 . S
H688 C698 0.947 1_556 S
H689 C700 0.950 . S
H690 C702 0.950 . S
H691 C703 0.950 . S
C692 H684 0.950 . S
C692 C693 1.386 . S
C692 C694 1.391 . S
C693 C692 1.386 . S
C693 C697 1.393 . S
C694 H686 0.950 . S
C694 C692 1.391 . S
C694 C695 1.400 . S
C695 C694 1.400 . S
C695 C696 1.398 . S
C695 C701 1.491 . S
C696 H687 0.950 . S
C696 C695 1.398 . S
C696 C697 1.391 . S
C697 H685 0.950 . S
C697 C693 1.393 . S
C697 C696 1.391 . S
C698 H688 0.947 1_554 S
C698 C699 1.386 . S
C698 C700 1.391 . S
C699 C698 1.386 . S
C699 C703 1.393 . S
C700 H689 0.950 . S
C700 C698 1.391 . S
C700 C701 1.400 . S
C701 C695 1.491 . S
C701 C700 1.400 . S
C701 C702 1.398 . S
C702 H690 0.950 . S
C702 C701 1.398 . S
C702 C703 1.391 . S
C703 H691 0.950 . S
C703 C699 1.393 . S
C703 C702 1.391 . S
H704 C712 0.950 . S
H705 C717 0.950 . S
H706 C714 0.950 . S
H707 C716 0.950 . S
H708 C718 0.950 . S
H709 C720 0.950 . S
H710 C722 0.950 . S
H711 C723 0.950 . S
C712 H704 0.950 . S
C712 C713 1.386 . S
C712 C714 1.391 . S
C713 C712 1.386 . S
C713 C717 1.393 . S
C714 H706 0.950 . S
C714 C712 1.391 . S
C714 C715 1.400 . S
C715 C714 1.400 . S
C715 C716 1.398 . S
C715 C721 1.491 . S
C716 H707 0.950 . S
C716 C715 1.398 . S
C716 C717 1.391 . S
C717 H705 0.950 . S
C717 C713 1.393 . S
C717 C716 1.391 . S
C718 H708 0.950 . S
C718 C719 1.386 . S
C718 C720 1.391 . S
C719 C718 1.386 . S
C719 C723 1.393 . S
C720 H709 0.950 . S
C720 C718 1.391 . S
C720 C721 1.400 . S
C721 C715 1.491 . S
C721 C720 1.400 . S
C721 C722 1.398 . S
C722 H710 0.950 . S
C722 C721 1.398 . S
C722 C723 1.391 . S
C723 H711 0.950 . S
C723 C719 1.393 . S
C723 C722 1.391 . S
H724 C732 0.950 . S
H725 C737 0.950 . S
H726 C734 0.950 . S
H727 C736 0.950 . S
H728 C738 0.950 . S
H729 C740 0.950 . S
H730 C742 0.950 . S
H731 C743 0.950 . S
C732 H724 0.950 . S
C732 C733 1.386 . S
C732 C734 1.391 . S
C733 C732 1.386 . S
C733 C737 1.393 . S
C734 H726 0.950 . S
C734 C732 1.391 . S
C734 C735 1.400 . S
C735 C734 1.400 . S
C735 C736 1.398 . S
C735 C741 1.491 . S
C736 H727 0.950 . S
C736 C735 1.398 . S
C736 C737 1.391 . S
C737 H725 0.950 . S
C737 C733 1.393 . S
C737 C736 1.391 . S
C738 H728 0.950 . S
C738 C739 1.386 . S
C738 C740 1.391 . S
C739 C738 1.386 . S
C739 C743 1.393 . S
C740 H729 0.950 . S
C740 C738 1.391 . S
C740 C741 1.400 . S
C741 C735 1.491 . S
C741 C740 1.400 . S
C741 C742 1.398 . S
C742 H730 0.950 . S
C742 C741 1.398 . S
C742 C743 1.391 . S
C743 H731 0.950 . S
C743 C739 1.393 . S
C743 C742 1.391 . S
H744 C752 0.950 . S
H745 C757 0.950 . S
H746 C754 0.950 . S
H747 C756 0.950 . S
H748 C758 0.950 . S
H749 C760 0.950 . S
H750 C762 0.950 . S
H751 C763 0.950 . S
C752 H744 0.950 . S
C752 C753 1.386 . S
C752 C754 1.391 . S
C753 C752 1.386 . S
C753 C757 1.393 . S
C754 H746 0.950 . S
C754 C752 1.391 . S
C754 C755 1.400 . S
C755 C754 1.400 . S
C755 C756 1.398 . S
C755 C761 1.491 . S
C756 H747 0.950 . S
C756 C755 1.398 . S
C756 C757 1.391 . S
C757 H745 0.950 . S
C757 C753 1.393 . S
C757 C756 1.391 . S
C758 H748 0.950 . S
C758 C759 1.386 . S
C758 C760 1.391 . S
C759 C758 1.386 . S
C759 C763 1.393 . S
C760 H749 0.950 . S
C760 C758 1.391 . S
C760 C761 1.400 . S
C761 C755 1.491 . S
C761 C760 1.400 . S
C761 C762 1.398 . S
C762 H750 0.950 . S
C762 C761 1.398 . S
C762 C763 1.391 . S
C763 H751 0.950 . S
C763 C759 1.393 . S
C763 C762 1.391 . S
H764 C772 0.950 . S
H765 C777 0.950 . S
H766 C774 0.950 . S
H767 C776 0.950 . S
H768 C778 0.950 . S
H769 C780 0.950 . S
H770 C782 0.950 . S
H771 C783 0.950 . S
C772 H764 0.950 . S
C772 C773 1.386 . S
C772 C774 1.391 . S
C773 C772 1.386 . S
C773 C777 1.393 . S
C774 H766 0.950 . S
C774 C772 1.391 . S
C774 C775 1.400 . S
C775 C774 1.400 . S
C775 C776 1.398 . S
C775 C781 1.491 . S
C776 H767 0.950 . S
C776 C775 1.398 . S
C776 C777 1.391 . S
C777 H765 0.950 . S
C777 C773 1.393 . S
C777 C776 1.391 . S
C778 H768 0.950 . S
C778 C779 1.386 . S
C778 C780 1.391 . S
C779 C778 1.386 . S
C779 C783 1.393 . S
C780 H769 0.950 . S
C780 C778 1.391 . S
C780 C781 1.400 . S
C781 C775 1.491 . S
C781 C780 1.400 . S
C781 C782 1.398 . S
C782 H770 0.950 . S
C782 C781 1.398 . S
C782 C783 1.391 . S
C783 H771 0.950 . S
C783 C779 1.393 . S
C783 C782 1.391 . S
H784 C792 0.950 . S
H785 C797 0.950 . S
H786 C794 0.950 . S
H787 C796 0.950 . S
H788 C798 0.950 . S
H789 C800 0.950 . S
H790 C802 0.950 . S
H791 C803 0.950 . S
C792 H784 0.950 . S
C792 C793 1.386 . S
C792 C794 1.391 . S
C793 C792 1.386 . S
C793 C797 1.393 . S
C794 H786 0.950 . S
C794 C792 1.391 . S
C794 C795 1.400 . S
C795 C794 1.400 . S
C795 C796 1.398 . S
C795 C801 1.491 . S
C796 H787 0.950 . S
C796 C795 1.398 . S
C796 C797 1.391 . S
C797 H785 0.950 . S
C797 C793 1.393 . S
C797 C796 1.391 . S
C798 H788 0.950 . S
C798 C799 1.386 . S
C798 C800 1.391 . S
C799 C798 1.386 . S
C799 C803 1.393 . S
C800 H789 0.950 . S
C800 C798 1.391 . S
C800 C801 1.400 . S
C801 C795 1.491 . S
C801 C800 1.400 . S
C801 C802 1.398 . S
C802 H790 0.950 . S
C802 C801 1.398 . S
C802 C803 1.391 . S
C803 H791 0.950 . S
C803 C799 1.393 . S
C803 C802 1.391 . S
H804 C812 0.950 . S
H805 C817 0.950 . S
H806 C814 0.950 . S
H807 C816 0.950 . S
H808 C818 0.950 . S
H809 C820 0.950 . S
H810 C822 0.950 . S
H811 C823 0.950 . S
C812 H804 0.950 . S
C812 C813 1.386 . S
C812 C814 1.391 . S
C813 C812 1.386 . S
C813 C817 1.393 . S
C814 H806 0.950 . S
C814 C812 1.391 . S
C814 C815 1.400 . S
C815 C814 1.400 . S
C815 C816 1.398 . S
C815 C821 1.491 . S
C816 H807 0.950 . S
C816 C815 1.398 . S
C816 C817 1.391 . S
C817 H805 0.950 . S
C817 C813 1.393 . S
C817 C816 1.391 . S
C818 H808 0.950 . S
C818 C819 1.386 . S
C818 C820 1.391 . S
C819 C818 1.386 . S
C819 C823 1.393 . S
C820 H809 0.950 . S
C820 C818 1.391 . S
C820 C821 1.400 . S
C821 C815 1.491 . S
C821 C820 1.400 . S
C821 C822 1.398 . S
C822 H810 0.950 . S
C822 C821 1.398 . S
C822 C823 1.391 . S
C823 H811 0.950 . S
C823 C819 1.393 . S
C823 C822 1.391 . S
H824 C832 0.950 . S
H825 C837 0.950 . S
H826 C834 0.950 . S
H827 C836 0.950 . S
H828 C838 0.950 . S
H829 C840 0.950 . S
H830 C842 0.950 . S
H831 C843 0.950 . S
C832 H824 0.950 . S
C832 C833 1.386 . S
C832 C834 1.391 . S
C833 C832 1.386 . S
C833 C837 1.393 . S
C834 H826 0.950 . S
C834 C832 1.391 . S
C834 C835 1.400 . S
C835 C834 1.400 . S
C835 C836 1.398 . S
C835 C841 1.491 . S
C836 H827 0.950 . S
C836 C835 1.398 . S
C836 C837 1.391 . S
C837 H825 0.950 . S
C837 C833 1.393 . S
C837 C836 1.391 . S
C838 H828 0.950 . S
C838 C839 1.386 . S
C838 C840 1.391 . S
C839 C838 1.386 . S
C839 C843 1.393 . S
C840 H829 0.950 . S
C840 C838 1.391 . S
C840 C841 1.400 . S
C841 C835 1.491 . S
C841 C840 1.400 . S
C841 C842 1.398 . S
C842 H830 0.950 . S
C842 C841 1.398 . S
C842 C843 1.391 . S
C843 H831 0.950 . S
C843 C839 1.393 . S
C843 C842 1.391 . S
H844 C852 0.950 . S
H845 C857 0.950 . S
H846 C854 0.950 . S
H847 C856 0.950 . S
H848 C858 0.950 . S
H849 C860 0.950 . S
H850 C862 0.950 . S
H851 C863 0.950 . S
C852 H844 0.950 . S
C852 C853 1.386 . S
C852 C854 1.391 . S
C853 C852 1.386 . S
C853 C857 1.393 . S
C854 H846 0.950 . S
C854 C852 1.391 . S
C854 C855 1.400 . S
C855 C854 1.400 . S
C855 C856 1.398 . S
C855 C861 1.491 . S
C856 H847 0.950 . S
C856 C855 1.398 . S
C856 C857 1.391 . S
C857 H845 0.950 . S
C857 C853 1.393 . S
C857 C856 1.391 . S
C858 H848 0.950 . S
C858 C859 1.386 . S
C858 C860 1.391 . S
C859 C858 1.386 . S
C859 C863 1.393 . S
C860 H849 0.950 . S
C860 C858 1.391 . S
C860 C861 1.400 . S
C861 C855 1.491 . S
C861 C860 1.400 . S
C861 C862 1.398 . S
C862 H850 0.950 . S
C862 C861 1.398 . S
C862 C863 1.391 . S
C863 H851 0.950 . S
C863 C859 1.393 . S
C863 C862 1.391 . S
H864 C872 0.950 . S
H865 C877 0.950 . S
H866 C874 0.950 . S
H867 C876 0.950 . S
H868 C878 0.950 . S
H869 C880 0.950 . S
H870 C882 0.950 . S
H871 C883 0.950 . S
C872 H864 0.950 . S
C872 C873 1.386 . S
C872 C874 1.391 . S
C873 C872 1.386 . S
C873 C877 1.393 1_556 S
C874 H866 0.950 . S
C874 C872 1.391 . S
C874 C875 1.400 . S
C875 C874 1.400 . S
C875 C876 1.398 . S
C875 C881 1.491 . S
C876 H867 0.950 . S
C876 C875 1.398 . S
C876 C877 1.391 1_556 S
C877 H865 0.950 . S
C877 C873 1.393 1_554 S
C877 C876 1.391 1_554 S
C878 H868 0.950 . S
C878 C879 1.386 . S
C878 C880 1.391 . S
C879 C878 1.386 . S
C879 C883 1.393 . S
C880 H869 0.950 . S
C880 C878 1.391 . S
C880 C881 1.400 . S
C881 C875 1.491 . S
C881 C880 1.400 . S
C881 C882 1.398 . S
C882 H870 0.950 . S
C882 C881 1.398 . S
C882 C883 1.391 . S
C883 H871 0.950 . S
C883 C879 1.393 . S
C883 C882 1.391 . S
H884 C892 0.950 . S
H885 C897 0.950 . S
H886 C894 0.950 . S
H887 C896 0.950 . S
H888 C898 0.950 . S
H889 C900 0.950 . S
H890 C902 0.950 . S
H891 C903 0.950 . S
C892 H884 0.950 . S
C892 C893 1.386 . S
C892 C894 1.391 . S
C893 C892 1.386 . S
C893 C897 1.393 . S
C894 H886 0.950 . S
C894 C892 1.391 . S
C894 C895 1.400 . S
C895 C894 1.400 . S
C895 C896 1.398 . S
C895 C901 1.491 . S
C896 H887 0.950 . S
C896 C895 1.398 . S
C896 C897 1.391 . S
C897 H885 0.950 . S
C897 C893 1.393 . S
C897 C896 1.391 . S
C898 H888 0.950 . S
C898 C899 1.386 1_556 S
C898 C900 1.391 1_556 S
C899 C898 1.386 1_554 S
C899 C903 1.393 . S
C900 H889 0.950 . S
C900 C898 1.391 1_554 S
C900 C901 1.400 . S
C901 C895 1.491 . S
C901 C900 1.400 . S
C901 C902 1.398 . S
C902 H890 0.950 . S
C902 C901 1.398 . S
C902 C903 1.391 . S
C903 H891 0.950 . S
C903 C899 1.393 . S
C903 C902 1.391 . S
H904 C912 0.950 . S
H905 C917 0.950 . S
H906 C914 0.950 . S
H907 C916 0.950 . S
H908 C918 0.950 . S
H909 C920 0.950 . S
H910 C922 0.950 . S
H911 C923 0.950 . S
C912 H904 0.950 . S
C912 C913 1.386 . S
C912 C914 1.391 . S
C913 C912 1.386 . S
C913 C917 1.393 1_556 S
C914 H906 0.950 . S
C914 C912 1.391 . S
C914 C915 1.400 . S
C915 C914 1.400 . S
C915 C916 1.398 . S
C915 C921 1.491 . S
C916 H907 0.950 . S
C916 C915 1.398 . S
C916 C917 1.391 1_556 S
C917 H905 0.950 . S
C917 C913 1.393 1_554 S
C917 C916 1.391 1_554 S
C918 H908 0.950 . S
C918 C919 1.386 . S
C918 C920 1.391 . S
C919 C918 1.386 . S
C919 C923 1.393 . S
C920 H909 0.950 . S
C920 C918 1.391 . S
C920 C921 1.400 . S
C921 C915 1.491 . S
C921 C920 1.400 . S
C921 C922 1.398 . S
C922 H910 0.950 . S
C922 C921 1.398 . S
C922 C923 1.391 . S
C923 H911 0.950 . S
C923 C919 1.393 . S
C923 C922 1.391 . S
H924 C932 0.950 . S
H925 C937 0.950 . S
H926 C934 0.950 . S
H927 C936 0.950 . S
H928 C938 0.950 . S
H929 C940 0.950 . S
H930 C942 0.950 . S
H931 C943 0.950 . S
C932 H924 0.950 . S
C932 C933 1.386 . S
C932 C934 1.391 . S
C933 C932 1.386 . S
C933 C937 1.393 . S
C934 H926 0.950 . S
C934 C932 1.391 . S
C934 C935 1.400 . S
C935 C934 1.400 . S
C935 C936 1.398 . S
C935 C941 1.491 . S
C936 H927 0.950 . S
C936 C935 1.398 . S
C936 C937 1.391 . S
C937 H925 0.950 . S
C937 C933 1.393 . S
C937 C936 1.391 . S
C938 H928 0.950 . S
C938 C939 1.386 . S
C938 C940 1.391 . S
C939 C938 1.386 . S
C939 C943 1.393 1_554 S
C940 H929 0.950 . S
C940 C938 1.391 . S
C940 C941 1.400 . S
C941 C935 1.491 . S
C941 C940 1.400 . S
C941 C942 1.398 . S
C942 H930 0.950 . S
C942 C941 1.398 . S
C942 C943 1.391 1_554 S
C943 H931 0.950 . S
C943 C939 1.393 1_556 S
C943 C942 1.391 1_556 S
H944 C952 0.950 . S
H945 C957 0.950 . S
H946 C954 0.950 . S
H947 C956 0.950 . S
H948 C958 0.950 . S
H949 C960 0.950 . S
H950 C962 0.950 . S
H951 C963 0.950 . S
C952 H944 0.950 . S
C952 C953 1.386 . S
C952 C954 1.391 . S
C953 C952 1.386 . S
C953 C957 1.393 . S
C954 H946 0.950 . S
C954 C952 1.391 . S
C954 C955 1.400 . S
C955 C954 1.400 . S
C955 C956 1.398 . S
C955 C961 1.491 . S
C956 H947 0.950 . S
C956 C955 1.398 . S
C956 C957 1.391 . S
C957 H945 0.950 . S
C957 C953 1.393 . S
C957 C956 1.391 . S
C958 H948 0.950 . S
C958 C959 1.386 . S
C958 C960 1.391 . S
C959 C958 1.386 . S
C959 C963 1.393 . S
C960 H949 0.950 . S
C960 C958 1.391 . S
C960 C961 1.400 . S
C961 C955 1.491 . S
C961 C960 1.400 . S
C961 C962 1.398 . S
C962 H950 0.950 . S
C962 C961 1.398 . S
C962 C963 1.391 . S
C963 H951 0.950 . S
C963 C959 1.393 . S
C963 C962 1.391 . S
H964 C972 0.950 . S
H965 C977 0.950 . S
H966 C974 0.950 . S
H967 C976 0.950 . S
H968 C978 0.950 . S
H969 C980 0.950 . S
H970 C982 0.950 . S
H971 C983 0.950 . S
C972 H964 0.950 . S
C972 C973 1.386 . S
C972 C974 1.391 . S
C973 C972 1.386 . S
C973 C977 1.393 . S
C974 H966 0.950 . S
C974 C972 1.391 . S
C974 C975 1.400 . S
C975 C974 1.400 . S
C975 C976 1.398 . S
C975 C981 1.491 . S
C976 H967 0.950 . S
C976 C975 1.398 . S
C976 C977 1.391 . S
C977 H965 0.950 . S
C977 C973 1.393 . S
C977 C976 1.391 . S
C978 H968 0.950 . S
C978 C979 1.386 . S
C978 C980 1.391 . S
C979 C978 1.386 . S
C979 C983 1.393 . S
C980 H969 0.950 . S
C980 C978 1.391 . S
C980 C981 1.400 . S
C981 C975 1.491 . S
C981 C980 1.400 . S
C981 C982 1.398 . S
C982 H970 0.950 . S
C982 C981 1.398 . S
C982 C983 1.391 . S
C983 H971 0.950 . S
C983 C979 1.393 . S
C983 C982 1.391 . S
H984 C992 0.950 . S
H985 C997 0.950 . S
H986 C994 0.950 . S
H987 C996 0.950 . S
H988 C998 0.950 . S
H989 C1000 0.950 . S
H990 C1002 0.950 . S
H991 C1003 0.950 . S
C992 H984 0.950 . S
C992 C993 1.386 . S
C992 C994 1.391 . S
C993 C992 1.386 . S
C993 C997 1.393 . S
C994 H986 0.950 . S
C994 C992 1.391 . S
C994 C995 1.400 . S
C995 C994 1.400 . S
C995 C996 1.398 . S
C995 C1001 1.491 . S
C996 H987 0.950 . S
C996 C995 1.398 . S
C996 C997 1.391 . S
C997 H985 0.950 . S
C997 C993 1.393 . S
C997 C996 1.391 . S
C998 H988 0.950 . S
C998 C999 1.386 . S
C998 C1000 1.391 . S
C999 C998 1.386 . S
C999 C1003 1.393 . S
C1000 H989 0.950 . S
C1000 C998 1.391 . S
C1000 C1001 1.400 . S
C1001 C995 1.491 . S
C1001 C1000 1.400 . S
C1001 C1002 1.398 . S
C1002 H990 0.950 . S
C1002 C1001 1.398 . S
C1002 C1003 1.391 . S
C1003 H991 0.950 . S
C1003 C999 1.393 . S
C1003 C1002 1.391 . S
H1004 C1012 0.950 . S
H1005 C1017 0.950 . S
H1006 C1014 0.950 . S
H1007 C1016 0.950 . S
H1008 C1018 0.950 . S
H1009 C1020 0.950 . S
H1010 C1022 0.950 . S
H1011 C1023 0.950 . S
C1012 H1004 0.950 . S
C1012 C1013 1.386 . S
C1012 C1014 1.391 . S
C1013 C1012 1.386 . S
C1013 C1017 1.393 . S
C1014 H1006 0.950 . S
C1014 C1012 1.391 . S
C1014 C1015 1.400 . S
C1015 C1014 1.400 . S
C1015 C1016 1.398 . S
C1015 C1021 1.491 . S
C1016 H1007 0.950 . S
C1016 C1015 1.398 . S
C1016 C1017 1.391 . S
C1017 H1005 0.950 . S
C1017 C1013 1.393 . S
C1017 C1016 1.391 . S
C1018 H1008 0.950 . S
C1018 C1019 1.386 . S
C1018 C1020 1.391 . S
C1019 C1018 1.386 . S
C1019 C1023 1.393 . S
C1020 H1009 0.950 . S
C1020 C1018 1.391 . S
C1020 C1021 1.400 . S
C1021 C1015 1.491 . S
C1021 C1020 1.400 . S
C1021 C1022 1.398 . S
C1022 H1010 0.950 . S
C1022 C1021 1.398 . S
C1022 C1023 1.391 . S
C1023 H1011 0.950 . S
C1023 C1019 1.393 . S
C1023 C1022 1.391 . S
H1024 C1032 0.950 . S
H1025 C1037 0.950 . S
H1026 C1034 0.950 . S
H1027 C1036 0.950 . S
H1028 C1038 0.950 . S
H1029 C1040 0.950 . S
H1030 C1042 0.950 . S
H1031 C1043 0.950 . S
C1032 H1024 0.950 . S
C1032 C1033 1.386 1_565 S
C1032 C1034 1.391 . S
C1033 C1032 1.386 1_545 S
C1033 C1037 1.393 . S
C1034 H1026 0.950 . S
C1034 C1032 1.391 . S
C1034 C1035 1.400 . S
C1035 C1034 1.400 . S
C1035 C1036 1.398 . S
C1035 C1041 1.491 . S
C1036 H1027 0.950 . S
C1036 C1035 1.398 . S
C1036 C1037 1.391 1_565 S
C1037 H1025 0.950 . S
C1037 C1033 1.393 . S
C1037 C1036 1.391 1_545 S
C1038 H1028 0.950 . S
C1038 C1039 1.386 . S
C1038 C1040 1.391 . S
C1039 C1038 1.386 . S
C1039 C1043 1.393 . S
C1040 H1029 0.950 . S
C1040 C1038 1.391 . S
C1040 C1041 1.400 . S
C1041 C1035 1.491 . S
C1041 C1040 1.400 . S
C1041 C1042 1.398 . S
C1042 H1030 0.950 . S
C1042 C1041 1.398 . S
C1042 C1043 1.391 . S
C1043 H1031 0.950 . S
C1043 C1039 1.393 . S
C1043 C1042 1.391 . S
H1044 C1052 0.950 . S
H1045 C1057 0.950 . S
H1046 C1054 0.950 . S
H1047 C1056 0.950 . S
H1048 C1058 0.950 . S
H1049 C1060 0.950 . S
H1050 C1062 0.950 . S
H1051 C1063 0.954 . S
C1052 H1044 0.950 . S
C1052 C1053 1.386 . S
C1052 C1054 1.391 . S
C1053 C1052 1.386 . S
C1053 C1057 1.393 . S
C1054 H1046 0.950 . S
C1054 C1052 1.391 . S
C1054 C1055 1.400 . S
C1055 C1054 1.400 . S
C1055 C1056 1.398 . S
C1055 C1061 1.491 . S
C1056 H1047 0.950 . S
C1056 C1055 1.398 . S
C1056 C1057 1.391 . S
C1057 H1045 0.950 . S
C1057 C1053 1.393 . S
C1057 C1056 1.391 . S
C1058 H1048 0.950 . S
C1058 C1059 1.386 . S
C1058 C1060 1.391 1_455 S
C1059 C1058 1.386 . S
C1059 C1063 1.393 1_455 S
C1060 H1049 0.950 . S
C1060 C1058 1.391 1_655 S
C1060 C1061 1.400 . S
C1061 C1055 1.491 . S
C1061 C1060 1.400 . S
C1061 C1062 1.398 . S
C1062 H1050 0.950 . S
C1062 C1061 1.398 . S
C1062 C1063 1.391 . S
C1063 H1051 0.954 . S
C1063 C1059 1.393 1_655 S
C1063 C1062 1.391 . S
H1064 C1072 0.950 . S
H1065 C1077 0.950 . S
H1066 C1074 0.950 . S
H1067 C1076 0.950 . S
H1068 C1078 0.950 . S
H1069 C1080 0.950 . S
H1070 C1082 0.950 . S
H1071 C1083 0.950 . S
C1072 H1064 0.950 . S
C1072 C1073 1.386 . S
C1072 C1074 1.391 1_565 S
C1073 C1072 1.386 . S
C1073 C1077 1.393 1_565 S
C1074 H1066 0.950 . S
C1074 C1072 1.391 1_545 S
C1074 C1075 1.400 . S
C1075 C1074 1.400 . S
C1075 C1076 1.398 . S
C1075 C1081 1.491 . S
C1076 H1067 0.950 . S
C1076 C1075 1.398 . S
C1076 C1077 1.391 . S
C1077 H1065 0.950 . S
C1077 C1073 1.393 1_545 S
C1077 C1076 1.391 . S
C1078 H1068 0.950 . S
C1078 C1079 1.386 . S
C1078 C1080 1.391 . S
C1079 C1078 1.386 . S
C1079 C1083 1.393 . S
C1080 H1069 0.950 . S
C1080 C1078 1.391 . S
C1080 C1081 1.400 . S
C1081 C1075 1.491 . S
C1081 C1080 1.400 . S
C1081 C1082 1.398 . S
C1082 H1070 0.950 . S
C1082 C1081 1.398 . S
C1082 C1083 1.391 . S
C1083 H1071 0.950 . S
C1083 C1079 1.393 . S
C1083 C1082 1.391 . S
H1084 C1092 0.950 . S
H1085 C1097 0.950 . S
H1086 C1094 0.950 . S
H1087 C1096 0.950 . S
H1088 C1098 0.950 . S
H1089 C1100 0.950 . S
H1090 C1102 0.950 . S
H1091 C1103 0.950 . S
C1092 H1084 0.950 . S
C1092 C1093 1.386 . S
C1092 C1094 1.391 . S
C1093 C1092 1.386 . S
C1093 C1097 1.393 . S
C1094 H1086 0.950 . S
C1094 C1092 1.391 . S
C1094 C1095 1.400 . S
C1095 C1094 1.400 . S
C1095 C1096 1.398 . S
C1095 C1101 1.491 . S
C1096 H1087 0.950 . S
C1096 C1095 1.398 . S
C1096 C1097 1.391 . S
C1097 H1085 0.950 . S
C1097 C1093 1.393 . S
C1097 C1096 1.391 . S
C1098 H1088 0.950 . S
C1098 C1099 1.386 . S
C1098 C1100 1.391 1_655 S
C1099 C1098 1.386 . S
C1099 C1103 1.393 1_655 S
C1100 H1089 0.950 . S
C1100 C1098 1.391 1_455 S
C1100 C1101 1.400 . S
C1101 C1095 1.491 . S
C1101 C1100 1.400 . S
C1101 C1102 1.398 . S
C1102 H1090 0.950 . S
C1102 C1101 1.398 . S
C1102 C1103 1.391 . S
C1103 H1091 0.950 . S
C1103 C1099 1.393 1_455 S
C1103 C1102 1.391 . S
H1104 C1112 0.950 . S
H1105 C1117 0.950 . S
H1106 C1114 0.950 . S
H1107 C1116 0.950 . S
H1108 C1118 0.950 . S
H1109 C1120 0.950 . S
H1110 C1122 0.950 1_556 S
H1111 C1123 0.950 . S
C1112 H1104 0.950 . S
C1112 C1113 1.386 . S
C1112 C1114 1.391 . S
C1113 C1112 1.386 . S
C1113 C1117 1.393 1_556 S
C1114 H1106 0.950 . S
C1114 C1112 1.391 . S
C1114 C1115 1.400 1_556 S
C1115 C1114 1.400 1_554 S
C1115 C1116 1.398 . S
C1115 C1121 1.491 . S
C1116 H1107 0.950 . S
C1116 C1115 1.398 . S
C1116 C1117 1.391 . S
C1117 H1105 0.950 . S
C1117 C1113 1.393 1_554 S
C1117 C1116 1.391 . S
C1118 H1108 0.950 . S
C1118 C1119 1.386 . S
C1118 C1120 1.391 . S
C1119 C1118 1.386 . S
C1119 C1123 1.393 . S
C1120 H1109 0.950 . S
C1120 C1118 1.391 . S
C1120 C1121 1.400 . S
C1121 C1115 1.491 . S
C1121 C1120 1.400 . S
C1121 C1122 1.398 . S
C1122 H1110 0.950 1_554 S
C1122 C1121 1.398 . S
C1122 C1123 1.391 . S
C1123 H1111 0.950 . S
C1123 C1119 1.393 . S
C1123 C1122 1.391 . S
H1124 C1132 0.950 . S
H1125 C1137 0.950 . S
H1126 C1134 0.950 . S
H1127 C1136 0.950 . S
H1128 C1138 0.950 1_554 S
H1129 C1140 0.937 1_554 S
H1130 C1142 0.950 . S
H1131 C1143 0.950 . S
C1132 H1124 0.950 . S
C1132 C1133 1.386 1_556 S
C1132 C1134 1.391 . S
C1133 C1132 1.386 1_554 S
C1133 C1137 1.393 . S
C1134 H1126 0.950 . S
C1134 C1132 1.391 . S
C1134 C1135 1.400 . S
C1135 C1134 1.400 . S
C1135 C1136 1.398 1_556 S
C1135 C1141 1.491 . S
C1136 H1127 0.950 . S
C1136 C1135 1.398 1_554 S
C1136 C1137 1.391 . S
C1137 H1125 0.950 . S
C1137 C1133 1.393 . S
C1137 C1136 1.391 . S
C1138 H1128 0.950 1_556 S
C1138 C1139 1.386 . S
C1138 C1140 1.396 . S
C1139 C1138 1.386 . S
C1139 C1143 1.393 . S
C1140 H1129 0.937 1_556 S
C1140 C1138 1.396 . S
C1140 C1141 1.409 . S
C1141 C1135 1.491 . S
C1141 C1140 1.409 . S
C1141 C1142 1.398 . S
C1142 H1130 0.950 . S
C1142 C1141 1.398 . S
C1142 C1143 1.391 . S
C1143 H1131 0.950 . S
C1143 C1139 1.393 . S
C1143 C1142 1.391 . S
H1144 C1152 0.950 1_556 S
H1145 C1157 0.950 . S
H1146 C1154 0.964 . S
H1147 C1156 0.950 . S
H1148 C1158 0.950 . S
H1149 C1160 0.950 . S
H1150 C1162 0.950 . S
H1151 C1163 0.950 . S
C1152 H1144 0.950 1_554 S
C1152 C1153 1.386 . S
C1152 C1154 1.387 1_554 S
C1153 C1152 1.386 . S
C1153 C1157 1.393 . S
C1154 H1146 0.964 . S
C1154 C1152 1.387 1_556 S
C1154 C1155 1.391 1_556 S
C1155 C1154 1.391 1_554 S
C1155 C1156 1.398 . S
C1155 C1161 1.491 . S
C1156 H1147 0.950 . S
C1156 C1155 1.398 . S
C1156 C1157 1.391 . S
C1157 H1145 0.950 . S
C1157 C1153 1.393 . S
C1157 C1156 1.391 . S
C1158 H1148 0.950 . S
C1158 C1159 1.386 1_554 S
C1158 C1160 1.391 . S
C1159 C1158 1.386 1_556 S
C1159 C1163 1.393 . S
C1160 H1149 0.950 . S
C1160 C1158 1.391 . S
C1160 C1161 1.400 . S
C1161 C1155 1.491 . S
C1161 C1160 1.400 . S
C1161 C1162 1.398 1_554 S
C1162 H1150 0.950 . S
C1162 C1161 1.398 1_556 S
C1162 C1163 1.391 . S
C1163 H1151 0.950 . S
C1163 C1159 1.393 . S
C1163 C1162 1.391 . S
H1164 C1172 0.950 . S
H1165 C1177 0.950 . S
H1166 C1174 0.950 . S
H1167 C1176 0.950 . S
H1168 C1178 0.950 . S
H1169 C1180 0.950 . S
H1170 C1182 0.950 . S
H1171 C1183 0.950 . S
C1172 H1164 0.950 . S
C1172 C1173 1.386 1_556 S
C1172 C1174 1.391 . S
C1173 C1172 1.386 1_554 S
C1173 C1177 1.393 . S
C1174 H1166 0.950 . S
C1174 C1172 1.391 . S
C1174 C1175 1.400 . S
C1175 C1174 1.400 . S
C1175 C1176 1.398 1_556 S
C1175 C1181 1.491 . S
C1176 H1167 0.950 . S
C1176 C1175 1.398 1_554 S
C1176 C1177 1.391 . S
C1177 H1165 0.950 . S
C1177 C1173 1.393 . S
C1177 C1176 1.391 . S
C1178 H1168 0.950 . S
C1178 C1179 1.386 . S
C1178 C1180 1.391 . S
C1179 C1178 1.386 . S
C1179 C1183 1.393 . S
C1180 H1169 0.950 . S
C1180 C1178 1.391 . S
C1180 C1181 1.400 . S
C1181 C1175 1.491 . S
C1181 C1180 1.400 . S
C1181 C1182 1.398 . S
C1182 H1170 0.950 . S
C1182 C1181 1.398 . S
C1182 C1183 1.391 . S
C1183 H1171 0.950 . S
C1183 C1179 1.393 . S
C1183 C1182 1.391 . S
H1184 C1192 0.950 . S
H1185 C1197 0.950 . S
H1186 C1194 0.950 . S
H1187 C1196 0.950 . S
H1188 C1198 0.950 . S
H1189 C1200 0.950 . S
H1190 C1202 0.950 . S
H1191 C1203 0.950 . S
C1192 H1184 0.950 . S
C1192 C1193 1.386 . S
C1192 C1194 1.391 . S
C1193 C1192 1.386 . S
C1193 C1197 1.393 . S
C1194 H1186 0.950 . S
C1194 C1192 1.391 . S
C1194 C1195 1.400 . S
C1195 C1194 1.400 . S
C1195 C1196 1.398 . S
C1195 C1201 1.491 . S
C1196 H1187 0.950 . S
C1196 C1195 1.398 . S
C1196 C1197 1.391 . S
C1197 H1185 0.950 . S
C1197 C1193 1.393 . S
C1197 C1196 1.391 . S
C1198 H1188 0.950 . S
C1198 C1199 1.386 . S
C1198 C1200 1.391 . S
C1199 C1198 1.386 . S
C1199 C1203 1.393 . S
C1200 H1189 0.950 . S
C1200 C1198 1.391 . S
C1200 C1201 1.400 . S
C1201 C1195 1.491 . S
C1201 C1200 1.400 . S
C1201 C1202 1.398 . S
C1202 H1190 0.950 . S
C1202 C1201 1.398 . S
C1202 C1203 1.391 . S
C1203 H1191 0.950 . S
C1203 C1199 1.393 . S
C1203 C1202 1.391 . S
H1204 C1212 0.950 . S
H1205 C1217 0.950 . S
H1206 C1214 0.950 . S
H1207 C1216 0.950 . S
H1208 C1218 0.950 . S
H1209 C1220 0.950 . S
H1210 C1222 0.950 . S
H1211 C1223 0.950 . S
C1212 H1204 0.950 . S
C1212 C1213 1.386 . S
C1212 C1214 1.391 . S
C1213 C1212 1.386 . S
C1213 C1217 1.393 . S
C1214 H1206 0.950 . S
C1214 C1212 1.391 . S
C1214 C1215 1.400 . S
C1215 C1214 1.400 . S
C1215 C1216 1.398 . S
C1215 C1221 1.491 . S
C1216 H1207 0.950 . S
C1216 C1215 1.398 . S
C1216 C1217 1.391 . S
C1217 H1205 0.950 . S
C1217 C1213 1.393 . S
C1217 C1216 1.391 . S
C1218 H1208 0.950 . S
C1218 C1219 1.386 . S
C1218 C1220 1.391 . S
C1219 C1218 1.386 . S
C1219 C1223 1.393 . S
C1220 H1209 0.950 . S
C1220 C1218 1.391 . S
C1220 C1221 1.400 . S
C1221 C1215 1.491 . S
C1221 C1220 1.400 . S
C1221 C1222 1.398 . S
C1222 H1210 0.950 . S
C1222 C1221 1.398 . S
C1222 C1223 1.391 . S
C1223 H1211 0.950 . S
C1223 C1219 1.393 . S
C1223 C1222 1.391 . S
H1224 C1232 0.950 . S
H1225 C1237 0.950 . S
H1226 C1234 0.950 . S
H1227 C1236 0.950 . S
H1228 C1238 0.950 . S
H1229 C1240 0.950 . S
H1230 C1242 0.950 . S
H1231 C1243 0.950 . S
C1232 H1224 0.950 . S
C1232 C1233 1.386 . S
C1232 C1234 1.391 . S
C1233 C1232 1.386 . S
C1233 C1237 1.393 . S
C1234 H1226 0.950 . S
C1234 C1232 1.391 . S
C1234 C1235 1.400 . S
C1235 C1234 1.400 . S
C1235 C1236 1.398 . S
C1235 C1241 1.491 . S
C1236 H1227 0.950 . S
C1236 C1235 1.398 . S
C1236 C1237 1.391 . S
C1237 H1225 0.950 . S
C1237 C1233 1.393 . S
C1237 C1236 1.391 . S
C1238 H1228 0.950 . S
C1238 C1239 1.386 . S
C1238 C1240 1.391 . S
C1239 C1238 1.386 . S
C1239 C1243 1.393 . S
C1240 H1229 0.950 . S
C1240 C1238 1.391 . S
C1240 C1241 1.400 . S
C1241 C1235 1.491 . S
C1241 C1240 1.400 . S
C1241 C1242 1.398 . S
C1242 H1230 0.950 . S
C1242 C1241 1.398 . S
C1242 C1243 1.391 . S
C1243 H1231 0.950 . S
C1243 C1239 1.393 . S
C1243 C1242 1.391 . S
H1244 C1252 0.950 . S
H1245 C1257 0.950 . S
H1246 C1254 0.950 . S
H1247 C1256 0.950 . S
H1248 C1258 0.950 . S
H1249 C1260 0.950 . S
H1250 C1262 0.950 . S
H1251 C1263 0.950 . S
C1252 H1244 0.950 . S
C1252 C1253 1.386 . S
C1252 C1254 1.391 . S
C1253 C1252 1.386 . S
C1253 C1257 1.393 . S
C1254 H1246 0.950 . S
C1254 C1252 1.391 . S
C1254 C1255 1.400 . S
C1255 C1254 1.400 . S
C1255 C1256 1.398 . S
C1255 C1261 1.491 . S
C1256 H1247 0.950 . S
C1256 C1255 1.398 . S
C1256 C1257 1.391 . S
C1257 H1245 0.950 . S
C1257 C1253 1.393 . S
C1257 C1256 1.391 . S
C1258 H1248 0.950 . S
C1258 C1259 1.386 . S
C1258 C1260 1.391 . S
C1259 C1258 1.386 . S
C1259 C1263 1.393 . S
C1260 H1249 0.950 . S
C1260 C1258 1.391 . S
C1260 C1261 1.400 . S
C1261 C1255 1.491 . S
C1261 C1260 1.400 . S
C1261 C1262 1.398 . S
C1262 H1250 0.950 . S
C1262 C1261 1.398 . S
C1262 C1263 1.391 . S
C1263 H1251 0.950 . S
C1263 C1259 1.393 . S
C1263 C1262 1.391 . S
H1264 C1272 0.950 . S
H1265 C1277 0.950 . S
H1266 C1274 0.950 . S
H1267 C1276 0.950 . S
H1268 C1278 0.950 . S
H1269 C1280 0.950 . S
H1270 C1282 0.950 . S
H1271 C1283 0.950 . S
C1272 H1264 0.950 . S
C1272 C1273 1.386 . S
C1272 C1274 1.391 . S
C1273 C1272 1.386 . S
C1273 C1277 1.393 . S
C1274 H1266 0.950 . S
C1274 C1272 1.391 . S
C1274 C1275 1.400 . S
C1275 C1274 1.400 . S
C1275 C1276 1.398 . S
C1275 C1281 1.491 . S
C1276 H1267 0.950 . S
C1276 C1275 1.398 . S
C1276 C1277 1.391 . S
C1277 H1265 0.950 . S
C1277 C1273 1.393 . S
C1277 C1276 1.391 . S
C1278 H1268 0.950 . S
C1278 C1279 1.386 1_545 S
C1278 C1280 1.391 . S
C1279 C1278 1.386 1_565 S
C1279 C1283 1.393 . S
C1280 H1269 0.950 . S
C1280 C1278 1.391 . S
C1280 C1281 1.400 . S
C1281 C1275 1.491 . S
C1281 C1280 1.400 . S
C1281 C1282 1.398 . S
C1282 H1270 0.950 . S
C1282 C1281 1.398 . S
C1282 C1283 1.391 1_545 S
C1283 H1271 0.950 . S
C1283 C1279 1.393 . S
C1283 C1282 1.391 1_565 S
H1284 C1292 0.950 . S
H1285 C1297 0.950 . S
H1286 C1294 0.950 . S
H1287 C1296 0.950 . S
H1288 C1298 0.950 1_655 S
H1289 C1300 0.950 . S
H1290 C1302 0.950 . S
H1291 C1303 0.950 1_655 S
C1292 H1284 0.950 . S
C1292 C1293 1.386 . S
C1292 C1294 1.391 . S
C1293 C1292 1.386 . S
C1293 C1297 1.393 . S
C1294 H1286 0.950 . S
C1294 C1292 1.391 . S
C1294 C1295 1.400 . S
C1295 C1294 1.400 . S
C1295 C1296 1.398 . S
C1295 C1301 1.491 . S
C1296 H1287 0.950 . S
C1296 C1295 1.398 . S
C1296 C1297 1.391 . S
C1297 H1285 0.950 . S
C1297 C1293 1.393 . S
C1297 C1296 1.391 . S
C1298 H1288 0.950 1_455 S
C1298 C1299 1.386 1_455 S
C1298 C1300 1.391 . S
C1299 C1298 1.386 1_655 S
C1299 C1303 1.393 1_655 S
C1300 H1289 0.950 . S
C1300 C1298 1.391 . S
C1300 C1301 1.400 . S
C1301 C1295 1.491 . S
C1301 C1300 1.400 . S
C1301 C1302 1.398 . S
C1302 H1290 0.950 . S
C1302 C1301 1.398 . S
C1302 C1303 1.391 . S
C1303 H1291 0.950 1_455 S
C1303 C1299 1.393 1_455 S
C1303 C1302 1.391 . S
H1304 C1312 0.950 . S
H1305 C1317 0.950 . S
H1306 C1314 0.950 . S
H1307 C1316 0.950 . S
H1308 C1318 0.950 . S
H1309 C1320 0.950 . S
H1310 C1322 0.950 . S
H1311 C1323 0.950 . S
C1312 H1304 0.950 . S
C1312 C1313 1.386 . S
C1312 C1314 1.391 . S
C1313 C1312 1.386 . S
C1313 C1317 1.393 . S
C1314 H1306 0.950 . S
C1314 C1312 1.391 . S
C1314 C1315 1.400 . S
C1315 C1314 1.400 . S
C1315 C1316 1.398 . S
C1315 C1321 1.491 . S
C1316 H1307 0.950 . S
C1316 C1315 1.398 . S
C1316 C1317 1.391 . S
C1317 H1305 0.950 . S
C1317 C1313 1.393 . S
C1317 C1316 1.391 . S
C1318 H1308 0.950 . S
C1318 C1319 1.386 1_565 S
C1318 C1320 1.391 . S
C1319 C1318 1.386 1_545 S
C1319 C1323 1.393 . S
C1320 H1309 0.950 . S
C1320 C1318 1.391 . S
C1320 C1321 1.400 . S
C1321 C1315 1.491 . S
C1321 C1320 1.400 . S
C1321 C1322 1.398 . S
C1322 H1310 0.950 . S
C1322 C1321 1.398 . S
C1322 C1323 1.391 1_565 S
C1323 H1311 0.950 . S
C1323 C1319 1.393 . S
C1323 C1322 1.391 1_545 S
H1324 C1332 0.950 . S
H1325 C1337 0.950 . S
H1326 C1334 0.950 . S
H1327 C1336 0.950 . S
H1328 C1338 0.950 . S
H1329 C1340 0.950 . S
H1330 C1342 0.950 . S
H1331 C1343 0.950 . S
C1332 H1324 0.950 . S
C1332 C1333 1.386 . S
C1332 C1334 1.391 1_455 S
C1333 C1332 1.386 . S
C1333 C1337 1.393 1_455 S
C1334 H1326 0.950 . S
C1334 C1332 1.391 1_655 S
C1334 C1335 1.400 . S
C1335 C1334 1.400 . S
C1335 C1336 1.398 . S
C1335 C1341 1.491 . S
C1336 H1327 0.950 . S
C1336 C1335 1.398 . S
C1336 C1337 1.391 . S
C1337 H1325 0.950 . S
C1337 C1333 1.393 1_655 S
C1337 C1336 1.391 . S
C1338 H1328 0.950 . S
C1338 C1339 1.386 . S
C1338 C1340 1.391 . S
C1339 C1338 1.386 . S
C1339 C1343 1.393 . S
C1340 H1329 0.950 . S
C1340 C1338 1.391 . S
C1340 C1341 1.400 . S
C1341 C1335 1.491 . S
C1341 C1340 1.400 . S
C1341 C1342 1.398 . S
C1342 H1330 0.950 . S
C1342 C1341 1.398 . S
C1342 C1343 1.391 . S
C1343 H1331 0.950 . S
C1343 C1339 1.393 . S
C1343 C1342 1.391 . S
C553 C33 0.921 . S
C559 C509 0.914 . S
C573 C543 0.910 . S
C579 C67 0.900 . S
C593 C441 0.904 . S
C599 C101 0.915 . S
C613 C135 0.910 . S
C619 C475 0.900 . S
C633 C169 0.920 1_556 S
C639 C373 0.909 . S
C653 C407 0.919 . S
C659 C203 0.920 1_554 S
C673 C237 0.899 1_556 S
C679 C305 0.905 . S
C693 C339 0.917 . S
C699 C271 0.921 1_554 S
C713 C145 1.152 . S
C719 C9 1.145 . S
C733 C43 1.146 . S
C739 C179 1.152 . S
C753 C77 1.134 . S
C759 C213 1.143 . S
C773 C111 1.111 . S
C779 C247 1.105 . S
C793 C417 1.155 . S
C799 C281 1.152 . S
C813 C451 1.114 . S
C819 C315 1.107 . S
C833 C349 1.151 . S
C839 C485 1.155 . S
C853 C383 1.133 . S
C859 C519 1.142 . S
C873 C2 1.956 1_556 S
C879 C478 1.953 . S
C893 C512 1.957 . S
C899 C36 1.955 1_554 S
C913 C70 1.956 1_556 S
C919 C410 1.953 . S
C933 C444 1.954 . S
C939 C104 1.957 1_554 S
C953 C342 1.953 . S
C959 C138 1.952 . S
C973 C376 1.958 . S
C979 C172 1.955 . S
C993 C206 1.957 . S
C999 C274 1.959 . S
C1013 C240 1.952 . S
C1019 C308 1.953 . S
C1033 C5 1.640 . S
C1039 C394 1.657 . S
C1053 C292 1.659 . S
C1059 C39 1.643 . S
C1073 C73 1.652 . S
C1079 C326 1.664 . S
C1093 C360 1.663 . S
C1099 C107 1.649 . S
C1113 C190 1.662 . S
C1119 C141 1.652 . S
C1133 C224 1.663 . S
C1139 C175 1.653 . S
C1153 C209 1.653 . S
C1159 C258 1.663 . S
C1173 C156 1.661 . S
C1179 C243 1.650 . S
C1193 C122 1.657 . S
C1199 C277 1.641 . S
C1213 C311 1.648 . S
C1219 C20 1.662 . S
C1233 C345 1.649 . S
C1239 C54 1.663 . S
C1253 C88 1.657 . S
C1259 C379 1.641 . S
C1273 C462 1.664 . S
C1279 C413 1.653 . S
C1293 C496 1.662 . S
C1299 C447 1.652 . S
C1313 C530 1.664 . S
C1319 C481 1.652 . S
C1333 C515 1.640 . S
C1339 C428 1.657 . S
