# Generated by pormake.
# Topology why, (6)-cn, num edge types: 1
# Building blocks:
#     Node 0, Type 0, BuildingBlock: JUFBIX_clean_sbu_0, # of connection points: 6
#     Node 1, Type 0, BuildingBlock: JUFBIX_clean_sbu_0, # of connection points: 6
#     Node 2, Type 0, BuildingBlock: JUFBIX_clean_sbu_0, # of connection points: 6
#     Node 3, Type 0, BuildingBlock: JUFBIX_clean_sbu_0, # of connection points: 6
#     Node 4, Type 0, BuildingBlock: JUFBIX_clean_sbu_0, # of connection points: 6
#     Node 5, Type 0, BuildingBlock: JUFBIX_clean_sbu_0, # of connection points: 6
#     Node 6, Type 0, BuildingBlock: JUFBIX_clean_sbu_0, # of connection points: 6
#     Node 7, Type 0, BuildingBlock: JUFBIX_clean_sbu_0, # of connection points: 6
#     Node 8, Type 0, BuildingBlock: JUFBIX_clean_sbu_0, # of connection points: 6
#     Node 9, Type 0, BuildingBlock: JUFBIX_clean_sbu_0, # of connection points: 6
#     Node 10, Type 0, BuildingBlock: JUFBIX_clean_sbu_0, # of connection points: 6
#     Node 11, Type 0, BuildingBlock: JUFBIX_clean_sbu_0, # of connection points: 6
#     Node 12, Type 0, BuildingBlock: JUFBIX_clean_sbu_0, # of connection points: 6
#     Node 13, Type 0, BuildingBlock: JUFBIX_clean_sbu_0, # of connection points: 6
#     Node 14, Type 0, BuildingBlock: JUFBIX_clean_sbu_0, # of connection points: 6
#     Node 15, Type 0, BuildingBlock: JUFBIX_clean_sbu_0, # of connection points: 6
#     Edge 16, Type (0, 0), BuildingBlock: KIFKEQ_clean_linker_1, # of connection points: 2
#     Edge 17, Type (0, 0), BuildingBlock: KIFKEQ_clean_linker_1, # of connection points: 2
#     Edge 18, Type (0, 0), BuildingBlock: KIFKEQ_clean_linker_1, # of connection points: 2
#     Edge 19, Type (0, 0), BuildingBlock: KIFKEQ_clean_linker_1, # of connection points: 2
#     Edge 20, Type (0, 0), BuildingBlock: KIFKEQ_clean_linker_1, # of connection points: 2
#     Edge 21, Type (0, 0), BuildingBlock: KIFKEQ_clean_linker_1, # of connection points: 2
#     Edge 22, Type (0, 0), BuildingBlock: KIFKEQ_clean_linker_1, # of connection points: 2
#     Edge 23, Type (0, 0), BuildingBlock: KIFKEQ_clean_linker_1, # of connection points: 2
#     Edge 24, Type (0, 0), BuildingBlock: KIFKEQ_clean_linker_1, # of connection points: 2
#     Edge 25, Type (0, 0), BuildingBlock: KIFKEQ_clean_linker_1, # of connection points: 2
#     Edge 26, Type (0, 0), BuildingBlock: KIFKEQ_clean_linker_1, # of connection points: 2
#     Edge 27, Type (0, 0), BuildingBlock: KIFKEQ_clean_linker_1, # of connection points: 2
#     Edge 28, Type (0, 0), BuildingBlock: KIFKEQ_clean_linker_1, # of connection points: 2
#     Edge 29, Type (0, 0), BuildingBlock: KIFKEQ_clean_linker_1, # of connection points: 2
#     Edge 30, Type (0, 0), BuildingBlock: KIFKEQ_clean_linker_1, # of connection points: 2
#     Edge 31, Type (0, 0), BuildingBlock: KIFKEQ_clean_linker_1, # of connection points: 2
#     Edge 32, Type (0, 0), BuildingBlock: KIFKEQ_clean_linker_1, # of connection points: 2
#     Edge 33, Type (0, 0), BuildingBlock: KIFKEQ_clean_linker_1, # of connection points: 2
#     Edge 34, Type (0, 0), BuildingBlock: KIFKEQ_clean_linker_1, # of connection points: 2
#     Edge 35, Type (0, 0), BuildingBlock: KIFKEQ_clean_linker_1, # of connection points: 2
#     Edge 36, Type (0, 0), BuildingBlock: KIFKEQ_clean_linker_1, # of connection points: 2
#     Edge 37, Type (0, 0), BuildingBlock: KIFKEQ_clean_linker_1, # of connection points: 2
#     Edge 38, Type (0, 0), BuildingBlock: KIFKEQ_clean_linker_1, # of connection points: 2
#     Edge 39, Type (0, 0), BuildingBlock: KIFKEQ_clean_linker_1, # of connection points: 2
#     Edge 40, Type (0, 0), BuildingBlock: KIFKEQ_clean_linker_1, # of connection points: 2
#     Edge 41, Type (0, 0), BuildingBlock: KIFKEQ_clean_linker_1, # of connection points: 2
#     Edge 42, Type (0, 0), BuildingBlock: KIFKEQ_clean_linker_1, # of connection points: 2
#     Edge 43, Type (0, 0), BuildingBlock: KIFKEQ_clean_linker_1, # of connection points: 2
#     Edge 44, Type (0, 0), BuildingBlock: KIFKEQ_clean_linker_1, # of connection points: 2
#     Edge 45, Type (0, 0), BuildingBlock: KIFKEQ_clean_linker_1, # of connection points: 2
#     Edge 46, Type (0, 0), BuildingBlock: KIFKEQ_clean_linker_1, # of connection points: 2
#     Edge 47, Type (0, 0), BuildingBlock: KIFKEQ_clean_linker_1, # of connection points: 2
#     Edge 48, Type (0, 0), BuildingBlock: KIFKEQ_clean_linker_1, # of connection points: 2
#     Edge 49, Type (0, 0), BuildingBlock: KIFKEQ_clean_linker_1, # of connection points: 2
#     Edge 50, Type (0, 0), BuildingBlock: KIFKEQ_clean_linker_1, # of connection points: 2
#     Edge 51, Type (0, 0), BuildingBlock: KIFKEQ_clean_linker_1, # of connection points: 2
#     Edge 52, Type (0, 0), BuildingBlock: KIFKEQ_clean_linker_1, # of connection points: 2
#     Edge 53, Type (0, 0), BuildingBlock: KIFKEQ_clean_linker_1, # of connection points: 2
#     Edge 54, Type (0, 0), BuildingBlock: KIFKEQ_clean_linker_1, # of connection points: 2
#     Edge 55, Type (0, 0), BuildingBlock: KIFKEQ_clean_linker_1, # of connection points: 2
#     Edge 56, Type (0, 0), BuildingBlock: KIFKEQ_clean_linker_1, # of connection points: 2
#     Edge 57, Type (0, 0), BuildingBlock: KIFKEQ_clean_linker_1, # of connection points: 2
#     Edge 58, Type (0, 0), BuildingBlock: KIFKEQ_clean_linker_1, # of connection points: 2
#     Edge 59, Type (0, 0), BuildingBlock: KIFKEQ_clean_linker_1, # of connection points: 2
#     Edge 60, Type (0, 0), BuildingBlock: KIFKEQ_clean_linker_1, # of connection points: 2
#     Edge 61, Type (0, 0), BuildingBlock: KIFKEQ_clean_linker_1, # of connection points: 2
#     Edge 62, Type (0, 0), BuildingBlock: KIFKEQ_clean_linker_1, # of connection points: 2
#     Edge 63, Type (0, 0), BuildingBlock: KIFKEQ_clean_linker_1, # of connection points: 2
# Relax obj value: 0.354
# Max RMSD: 0.185
# Mean RMSD: 0.177
data_MOF--net-why--node1-JUFBIX_clean_sbu_0--edge1-KIFKEQ_clean_linker_1
_symmetry_space_group_name_H-M    P1
_symmetry_Int_Tables_number       1
_symmetry_cell_setting            triclinic
loop_
_symmetry_equiv_pos_as_xyz
'x, y, z'
_cell_length_a     51.98043
_cell_length_b     51.228265
_cell_length_c     27.869443
_cell_angle_alpha  92.099336
_cell_angle_beta   80.802454
_cell_angle_gamma 95.442438
loop_
_atom_site_label
_atom_site_type_symbol
_atom_site_fract_x
_atom_site_fract_y
_atom_site_fract_z
_atom_type_partial_charge
Co0 Co 0.32983 0.19924 0.06101 0.0
C1 C 0.35139 0.2493 0.02737 0.0
Co2 Co 0.36221 0.21665 0.09685 0.0
C3 C 0.29099 0.16367 1.01881 0.0
C4 C 0.28294 0.20404 0.02556 0.0
N5 N 0.30085 0.18769 0.03255 0.0
N6 N 0.26756 0.16474 1.00416 0.0
C7 C 0.26254 0.19003 1.0083 0.0
H8 H 0.30013 0.14577 1.0215 0.0
H9 H 0.28416 0.22483 0.03422 0.0
C10 C 0.34261 0.16624 0.12852 0.0
N11 N 0.38998 0.22925 0.12651 0.0
C12 C 0.41241 0.24203 0.1052 0.0
C13 C 0.39246 0.22789 0.17375 0.0
N14 N 0.429 0.24871 0.1371 0.0
C15 C 0.41649 0.23983 0.18039 0.0
C16 C 0.31486 0.22955 0.14639 0.0
O17 O 0.32663 0.16756 0.09853 0.0
O18 O 0.35889 0.18584 0.13346 0.0
O19 O 0.33929 0.23284 0.14706 0.0
O20 O 0.30676 0.21564 0.11218 0.0
O21 O 0.36596 0.24774 0.05941 0.0
H22 H 0.37777 0.21871 0.20147 0.0
H23 H 0.41626 0.24652 0.06697 0.0
O24 O 0.33405 0.23053 1.02289 0.0
O25 O 0.35275 0.1831 1.01053 0.0
O26 O 0.38533 0.20015 0.04634 0.0
C27 C 0.37723 0.18629 1.01189 0.0
H28 H 0.24498 0.19767 1.00043 0.0
H29 H 0.42426 0.2414 0.21427 0.0
Co30 Co 0.58035 0.59655 0.31042 0.0
C31 C 0.5333 0.61762 0.30278 0.0
Co32 Co 0.57052 0.6293 0.36116 0.0
C33 C 0.5974 0.54651 0.26893 0.0
C34 C 0.58385 0.5705 0.21849 0.0
N35 N 0.58776 0.56984 0.26507 0.0
N36 N 0.59933 0.53257 0.22652 0.0
C37 C 0.59088 0.54774 0.19483 0.0
H38 H 0.60256 0.53978 0.30222 0.0
H39 H 0.5764 0.58662 0.20261 0.0
C40 C 0.61695 0.60881 0.37085 0.0
N41 N 0.56317 0.65585 0.40566 0.0
C42 C 0.55497 0.679 0.39659 0.0
C43 C 0.56406 0.65647 0.45382 0.0
N44 N 0.55058 0.69411 0.43708 0.0
C45 C 0.55615 0.68003 0.47337 0.0
C46 C 0.55073 0.58029 0.39762 0.0
O47 O 0.6124 0.59353 0.33548 0.0
O48 O 0.60109 0.62567 0.38614 0.0
O49 O 0.55198 0.60484 0.40606 0.0
O50 O 0.56229 0.57165 0.35719 0.0
O51 O 0.53965 0.63298 0.33644 0.0
H52 H 0.56978 0.6407 0.47345 0.0
H53 H 0.5515 0.6843 0.36108 0.0
O54 O 0.54813 0.59989 0.28634 0.0
O55 O 0.59808 0.62188 0.26376 0.0
O56 O 0.58895 0.65404 0.31561 0.0
C57 C 0.59913 0.64639 0.27358 0.0
H58 H 0.59025 0.54293 0.15686 0.0
H59 H 0.55454 0.68626 0.51118 0.0
Co60 Co 0.15683 0.84062 0.48388 0.0
C61 C 0.16363 0.86679 0.57145 0.0
Co62 Co 0.16886 0.81625 0.53886 0.0
C63 C 0.12444 0.8618 0.42182 0.0
C64 C 0.15978 0.88624 0.42597 0.0
N65 N 0.14691 0.86308 0.44069 0.0
N66 N 0.12265 0.88336 0.39644 0.0
C67 C 0.14496 0.8987 0.39879 0.0
H68 H 0.10914 0.8459 0.42854 0.0
H69 H 0.17834 0.89405 0.43585 0.0
C70 C 0.16063 0.79001 0.45083 0.0
N71 N 0.1784 0.79387 0.58257 0.0
C72 C 0.19613 0.79782 0.61329 0.0
C73 C 0.16767 0.76909 0.59048 0.0
N74 N 0.19686 0.77641 0.64 0.0
C75 C 0.17889 0.75837 0.62559 0.0
C76 C 0.11538 0.81613 0.54564 0.0
O77 O 0.15476 0.8122 0.4392 0.0
O78 O 0.16851 0.78787 0.49141 0.0
O79 O 0.13353 0.80641 0.56242 0.0
O80 O 0.12114 0.83217 0.51105 0.0
O81 O 0.16833 0.84467 0.58577 0.0
H82 H 0.15236 0.7595 0.57224 0.0
H83 H 0.20829 0.81603 0.61572 0.0
O84 O 0.15876 0.86874 0.52861 0.0
O85 O 0.19245 0.84904 0.45801 0.0
O86 O 0.20456 0.82693 0.51535 0.0
C87 C 0.21046 0.84207 0.47927 0.0
H88 H 0.15009 0.91777 0.38269 0.0
H89 H 0.17369 0.73894 0.6401 0.0
Co90 Co 0.9291 0.44452 0.81843 0.0
C91 C 0.97759 0.42469 0.78344 0.0
Co92 Co 0.93967 0.41273 0.86127 0.0
C93 C 0.90929 0.49272 0.787 0.0
C94 C 0.92349 0.4667 0.72897 0.0
N95 N 0.92082 0.46997 0.77776 0.0
N96 N 0.90443 0.50328 0.74578 0.0
C97 C 0.91334 0.48691 0.70941 0.0
H98 H 0.90364 0.50081 0.82317 0.0
H99 H 0.93165 0.45016 0.70884 0.0
C100 C 0.89037 0.42987 0.89373 0.0
N101 N 0.9474 0.38763 0.90125 0.0
C102 C 0.96086 0.36649 0.88931 0.0
C103 C 0.9418 0.38772 0.95022 0.0
N104 N 0.96402 0.35348 0.92894 0.0
C105 C 0.95196 0.36677 0.96733 0.0
C106 C 0.95607 0.46287 0.89374 0.0
O107 O 0.89613 0.44627 0.8596 0.0
O108 O 0.90717 0.41464 0.90081 0.0
O109 O 0.95506 0.43838 0.89947 0.0
O110 O 0.94571 0.47127 0.85919 0.0
O111 O 0.97192 0.41057 0.82076 0.0
H112 H 0.9314 0.4024 0.97218 0.0
H113 H 0.96887 0.36127 0.85232 0.0
O114 O 0.96208 0.44147 0.77618 0.0
O115 O 0.9127 0.41723 0.78001 0.0
O116 O 0.92428 0.38657 0.8229 0.0
C117 C 0.91303 0.39297 0.78843 0.0
H118 H 0.91231 0.48933 0.67134 0.0
H119 H 0.95059 0.36178 1.0051 0.0
Co120 Co 0.6327 0.81903 0.95107 0.0
C121 C 0.65009 0.87012 0.92005 0.0
Co122 Co 0.66402 0.83828 0.98794 0.0
C123 C 0.58441 0.79166 0.93816 0.0
C124 C 0.60589 0.80402 0.86962 0.0
N125 N 0.60735 0.80374 0.91746 0.0
N126 N 0.56826 0.78476 0.90561 0.0
C127 C 0.5818 0.79232 0.86218 0.0
H128 H 0.57957 0.78851 0.97684 0.0
H129 H 0.62094 0.813 0.84231 0.0
C130 C 0.64493 0.78735 1.02067 0.0
N131 N 0.68818 0.8537 0.02537 0.0
C132 C 0.70934 0.8714 1.01645 0.0
C133 C 0.6847 0.85027 0.07387 0.0
N134 N 0.71872 0.8792 0.05787 0.0
C135 C 0.70329 0.8657 0.09372 0.0
C136 C 0.61317 0.84781 0.03245 0.0
O137 O 0.62979 0.7884 0.98943 0.0
O138 O 0.66182 0.80662 0.02456 0.0
O139 O 0.63736 0.85157 0.03492 0.0
O140 O 0.6061 0.83381 0.99749 0.0
O141 O 0.66543 0.86985 0.95148 0.0
H142 H 0.66906 0.83776 0.09407 0.0
H143 H 0.71721 0.87892 0.98079 0.0
O144 O 0.63524 0.84958 0.91344 0.0
O145 O 0.65926 0.80458 0.90498 0.0
O146 O 0.6909 0.82482 0.93974 0.0
C147 C 0.68365 0.80967 0.90596 0.0
H148 H 0.57448 0.79058 0.82787 0.0
H149 H 0.70547 0.86667 0.13175 0.0
Co150 Co 0.4305 0.40972 0.68884 0.0
C151 C 0.38332 0.42744 0.67884 0.0
Co152 Co 0.41924 0.4414 0.74112 0.0
C153 C 0.44985 0.36164 0.65261 0.0
C154 C 0.43903 0.38326 0.59584 0.0
N155 N 0.43995 0.38397 0.64399 0.0
N156 N 0.45521 0.34693 0.61185 0.0
C157 C 0.44855 0.36046 0.57585 0.0
H158 H 0.45364 0.35662 0.68806 0.0
H159 H 0.43206 0.39843 0.57654 0.0
C160 C 0.46709 0.42337 0.74941 0.0
N161 N 0.40932 0.46741 0.78618 0.0
C162 C 0.39804 0.48953 0.78015 0.0
C163 C 0.40959 0.46649 0.83442 0.0
N164 N 0.39096 0.50207 0.82292 0.0
C165 C 0.39812 0.48768 0.85712 0.0
C166 C 0.40242 0.39083 0.77589 0.0
O167 O 0.46182 0.40835 0.71441 0.0
O168 O 0.45102 0.43978 0.76718 0.0
O169 O 0.40221 0.41521 0.78631 0.0
O170 O 0.41338 0.38385 0.73391 0.0
O171 O 0.38736 0.44264 0.71453 0.0
H172 H 0.41688 0.4509 0.85213 0.0
H173 H 0.39403 0.49568 0.74553 0.0
O174 O 0.39973 0.41122 0.66293 0.0
O175 O 0.44743 0.43511 0.64457 0.0
O176 O 0.43677 0.46733 0.69554 0.0
C177 C 0.44801 0.45951 0.6542 0.0
H178 H 0.45033 0.35428 0.538 0.0
H179 H 0.39482 0.492 0.89583 0.0
Co180 Co 0.8278 0.21536 0.50936 0.0
C181 C 0.83656 0.2423 0.5962 0.0
Co182 Co 0.84144 0.19152 0.5633 0.0
C183 C 0.79904 0.23318 0.43604 0.0
C184 C 0.82818 0.26186 0.45669 0.0
N185 N 0.81741 0.23717 0.46551 0.0
N186 N 0.79795 0.25453 0.40932 0.0
C187 C 0.81637 0.2725 0.42237 0.0
H188 H 0.78665 0.21505 0.43455 0.0
H189 H 0.84388 0.27149 0.47389 0.0
C190 C 0.83418 0.16452 0.47716 0.0
N191 N 0.85234 0.17019 0.60709 0.0
C192 C 0.87504 0.17295 0.62521 0.0
C193 C 0.83979 0.14767 0.62588 0.0
N194 N 0.87711 0.15311 0.65447 0.0
C195 C 0.8549 0.13722 0.65528 0.0
C196 C 0.78728 0.18881 0.57054 0.0
O197 O 0.82801 0.18623 0.46341 0.0
O198 O 0.84029 0.16312 0.51924 0.0
O199 O 0.80618 0.18198 0.58952 0.0
O200 O 0.79206 0.20452 0.53515 0.0
O201 O 0.84275 0.22022 0.60762 0.0
H202 H 0.82119 0.13895 0.61764 0.0
H203 H 0.88995 0.18906 0.61675 0.0
O204 O 0.82848 0.24429 0.55579 0.0
O205 O 0.8632 0.22549 0.4838 0.0
O206 O 0.87673 0.20096 0.53572 0.0
C207 C 0.88186 0.21661 0.50054 0.0
H208 H 0.82145 0.29186 0.40747 0.0
H209 H 0.85043 0.11885 0.67414 0.0
Co210 Co 0.058 0.62154 0.18339 0.0
C211 C 0.10647 0.60121 0.15949 0.0
Co212 Co 0.06424 0.5895 0.23001 0.0
C213 C 0.04113 0.66852 0.14966 0.0
C214 C 0.06403 0.64762 0.0929 0.0
N215 N 0.05427 0.64701 0.14083 0.0
N216 N 0.04247 0.68251 0.10923 0.0
C217 C 0.05696 0.6696 0.07343 0.0
H218 H 0.03087 0.67391 0.18503 0.0
H219 H 0.07531 0.63284 0.07315 0.0
C220 C 0.01673 0.6126 0.25739 0.0
N221 N 0.06878 0.56355 0.27297 0.0
C222 C 0.08342 0.54274 0.26667 0.0
C223 C 0.05972 0.56432 0.32108 0.0
N224 N 0.08392 0.5308 0.30912 0.0
C225 C 0.06878 0.54432 0.34316 0.0
C226 C 0.08199 0.6401 0.26057 0.0
O227 O 0.02461 0.62619 0.21978 0.0
O228 O 0.03044 0.59472 0.26697 0.0
O229 O 0.08021 0.61585 0.27072 0.0
O230 O 0.0731 0.64684 0.22348 0.0
O231 O 0.09818 0.58562 0.19416 0.0
H232 H 0.04802 0.57912 0.33952 0.0
H233 H 0.09441 0.53721 0.23207 0.0
O234 O 0.09148 0.61731 0.14838 0.0
O235 O 0.04302 0.59676 0.14323 0.0
O236 O 0.04806 0.56352 0.18708 0.0
C237 C 0.04027 0.57229 0.14986 0.0
H238 H 0.0615 0.67533 0.0358 0.0
H239 H 0.06474 0.5403 0.38161 0.0
Co240 Co 0.83382 0.70035 0.55975 0.0
C241 C 0.8537 0.75101 0.52827 0.0
Co242 Co 0.86502 0.71854 0.59814 0.0
C243 C 0.78957 0.66652 0.5295 0.0
C244 C 0.8129 0.68976 0.47349 0.0
N245 N 0.80987 0.68526 0.52161 0.0
N246 N 0.78024 0.65916 0.48785 0.0
C247 C 0.79481 0.67399 0.45291 0.0
H248 H 0.78239 0.65787 0.56452 0.0
H249 H 0.82801 0.70307 0.4539 0.0
C250 C 0.84696 0.6677 0.62804 0.0
N251 N 0.8901 0.73387 0.63269 0.0
C252 C 0.91487 0.74204 0.61373 0.0
C253 C 0.88823 0.73977 0.6807 0.0
N254 N 0.92854 0.75269 0.64772 0.0
C255 C 0.91195 0.75159 0.69003 0.0
C256 C 0.81384 0.72831 0.64209 0.0
O257 O 0.83225 0.66844 0.5956 0.0
O258 O 0.86186 0.68799 0.63606 0.0
O259 O 0.83819 0.73306 0.64367 0.0
O260 O 0.80671 0.71365 0.60761 0.0
O261 O 0.86868 0.74932 0.55963 0.0
H262 H 0.87085 0.73563 0.70723 0.0
H263 H 0.9228 0.74049 0.57548 0.0
O264 O 0.83637 0.73222 0.52403 0.0
O265 O 0.86047 0.68737 0.51278 0.0
O266 O 0.89166 0.70345 0.55199 0.0
C267 C 0.88459 0.6904 0.51595 0.0
H268 H 0.79249 0.67363 0.41498 0.0
H269 H 0.91683 0.75825 0.72506 0.0
Co270 Co 0.08076 0.09334 0.80076 0.0
C271 C 0.03448 0.11588 0.79738 0.0
Co272 Co 0.07324 0.12545 0.8543 0.0
C273 C 0.09605 0.04324 0.75977 0.0
C274 C 0.08155 0.06646 0.70933 0.0
N275 N 0.08637 0.06645 0.75543 0.0
N276 N 0.09731 0.02872 0.71814 0.0
C277 C 0.08821 0.04334 0.6864 0.0
H278 H 0.10193 0.03711 0.79286 0.0
H279 H 0.07392 0.08241 0.69327 0.0
C280 C 0.11923 0.1029 0.85812 0.0
N281 N 0.0675 0.15248 0.89883 0.0
C282 C 0.05973 0.17581 0.88937 0.0
C283 C 0.06874 0.15342 0.94684 0.0
N284 N 0.05589 0.19133 0.92943 0.0
C285 C 0.06145 0.17734 0.96588 0.0
C286 C 0.05214 0.07716 0.88999 0.0
O287 O 0.11318 0.08914 0.82209 0.0
O288 O 0.10438 0.11991 0.87772 0.0
O289 O 0.05434 0.1016 0.89947 0.0
O290 O 0.06281 0.06869 0.84865 0.0
O291 O 0.04186 0.13066 0.83103 0.0
H292 H 0.07411 0.13759 0.96677 0.0
H293 H 0.05601 0.1809 0.85391 0.0
O294 O 0.04844 0.0978 0.77948 0.0
O295 O 0.09824 0.11832 0.75354 0.0
O296 O 0.0921 0.14969 0.80841 0.0
C297 C 0.10083 0.14257 0.76523 0.0
H298 H 0.08705 0.03803 0.64881 0.0
H299 H 0.06014 0.1838 1.00353 0.0
Co300 Co 0.65659 0.34394 0.98501 0.0
C301 C 0.66331 0.37053 0.07201 0.0
Co302 Co 0.66662 0.3191 0.04139 0.0
C303 C 0.62474 0.36575 0.92327 0.0
C304 C 0.66224 0.38739 0.91967 0.0
N305 N 0.6478 0.36613 0.93993 0.0
N306 N 0.62414 0.38596 0.89389 0.0
C307 C 0.64779 0.39953 0.89115 0.0
H308 H 0.6085 0.35109 0.93292 0.0
H309 H 0.68171 0.39417 0.92639 0.0
C310 C 0.65801 0.29257 0.95382 0.0
N311 N 0.6748 0.29669 0.08662 0.0
C312 C 0.69136 0.3007 0.11952 0.0
C313 C 0.66413 0.27181 0.09337 0.0
N314 N 0.69135 0.27925 0.14661 0.0
C315 C 0.67424 0.26108 0.1299 0.0
C316 C 0.61374 0.32159 0.04637 0.0
O317 O 0.65359 0.31517 0.94161 0.0
O318 O 0.66546 0.2901 0.99471 0.0
O319 O 0.63087 0.31092 0.06456 0.0
O320 O 0.62088 0.33707 1.01129 0.0
O321 O 0.66688 0.34817 0.0871 0.0
H322 H 0.64978 0.26207 0.07305 0.0
H323 H 0.70283 0.31913 0.12391 0.0
O324 O 0.65924 0.37256 0.02863 0.0
O325 O 0.69244 0.35072 0.95998 0.0
O326 O 0.70272 0.32808 1.0185 0.0
C327 C 0.70971 0.34288 0.98214 0.0
H328 H 0.65382 0.41751 0.87159 0.0
H329 H 0.66949 0.24124 0.14265 0.0
Co330 Co 0.43002 0.94664 0.31625 0.0
C331 C 0.47884 0.92567 0.28641 0.0
Co332 Co 0.4388 0.91498 0.36123 0.0
C333 C 0.40827 0.99243 0.28011 0.0
C334 C 0.43222 0.9713 0.2254 0.0
N335 N 0.42363 0.97216 0.27369 0.0
N336 N 0.40692 1.00397 0.23755 0.0
C337 C 0.42222 0.9907 0.20338 0.0
H338 H 0.39747 0.99792 0.31492 0.0
H339 H 0.44432 0.95685 0.20681 0.0
C340 C 0.38932 0.93291 0.38855 0.0
N341 N 0.44436 0.88996 0.4031 0.0
C342 C 0.45709 0.86827 0.3929 0.0
C343 C 0.43745 0.89042 0.45189 0.0
N344 N 0.45855 0.85525 0.43344 0.0
C345 C 0.44616 0.86909 0.47066 0.0
C346 C 0.45453 0.96491 0.39521 0.0
O347 O 0.39605 0.9491 0.35426 0.0
O348 O 0.40561 0.91756 0.39737 0.0
O349 O 0.45312 0.94042 0.40102 0.0
O350 O 0.44588 0.97338 0.35863 0.0
O351 O 0.47203 0.91192 0.32404 0.0
H352 H 0.42714 0.90558 0.47259 0.0
H353 H 0.46584 0.86267 0.35656 0.0
O354 O 0.46398 0.9427 0.27742 0.0
O355 O 0.41443 0.91956 0.27625 0.0
O356 O 0.42432 0.889 0.32148 0.0
C357 C 0.41419 0.89532 0.28554 0.0
H358 H 0.42586 0.99454 0.16485 0.0
H359 H 0.44366 0.86425 0.50869 0.0
Co360 Co 0.13192 0.31854 0.45013 0.0
C361 C 0.1494 0.36883 0.41658 0.0
Co362 Co 0.16289 0.3384 0.4875 0.0
C363 C 0.08211 0.29405 0.43491 0.0
C364 C 0.10942 0.29431 0.36878 0.0
N365 N 0.10709 0.30174 0.41618 0.0
N366 N 0.06877 0.28227 0.40133 0.0
C367 C 0.08581 0.28211 0.35961 0.0
H368 H 0.0738 0.29672 0.47273 0.0
H369 H 0.12705 0.29764 0.34252 0.0
C370 C 0.14389 0.28819 0.52221 0.0
N371 N 0.18663 0.35493 0.52457 0.0
C372 C 0.21008 0.36896 0.51313 0.0
C373 C 0.18159 0.35586 0.57368 0.0
N374 N 0.21921 0.379 0.55338 0.0
C375 C 0.20138 0.37074 0.59134 0.0
C376 C 0.11168 0.34837 0.52898 0.0
O377 O 0.12903 0.28885 0.49034 0.0
O378 O 0.16056 0.30766 0.52646 0.0
O379 O 0.13576 0.35221 0.53209 0.0
O380 O 0.10485 0.33379 0.49459 0.0
O381 O 0.16443 0.36903 0.44864 0.0
H382 H 0.16444 0.34633 0.59553 0.0
H383 H 0.22005 0.37201 0.47632 0.0
O384 O 0.13453 0.34821 0.41039 0.0
O385 O 0.15927 0.30377 0.40621 0.0
O386 O 0.19023 0.32461 0.44182 0.0
C387 C 0.18351 0.30907 0.40828 0.0
H388 H 0.08135 0.27428 0.32498 0.0
H389 H 0.20295 0.3747 0.62925 0.0
Co390 Co 0.93065 0.90845 0.18558 0.0
C391 C 0.88344 0.92659 0.176 0.0
Co392 Co 0.92026 0.94107 0.23628 0.0
C393 C 0.95298 0.86178 0.147 0.0
C394 C 0.93353 0.87899 0.09555 0.0
N395 N 0.9393 0.88211 0.14111 0.0
N396 N 0.9559 0.84611 0.10711 0.0
C397 C 0.94357 0.85662 0.07463 0.0
H398 H 0.9604 0.85831 0.18014 0.0
H399 H 0.92283 0.89218 0.07854 0.0
C400 C 0.96789 0.92216 0.24444 0.0
N401 N 0.91109 0.96769 0.2807 0.0
C402 C 0.89975 0.98979 0.27457 0.0
C403 C 0.9121 0.96728 0.32874 0.0
N404 N 0.89343 1.00283 0.3171 0.0
C405 C 0.90107 0.98876 0.35124 0.0
C406 C 0.90311 0.89088 0.27351 0.0
O407 O 0.96226 0.90723 0.2096 0.0
O408 O 0.95218 0.93892 0.26214 0.0
O409 O 0.9028 0.91541 0.28253 0.0
O410 O 0.91413 0.88325 0.23202 0.0
O411 O 0.88831 0.9429 0.20966 0.0
H412 H 0.91954 0.95183 0.34653 0.0
H413 H 0.89516 0.99555 0.24015 0.0
O414 O 0.89936 0.90968 0.16183 0.0
O415 O 0.94717 0.93331 0.13948 0.0
O416 O 0.93817 0.96623 0.18991 0.0
C417 C 0.94862 0.95782 0.14844 0.0
H418 H 0.94232 0.8489 0.0383 0.0
H419 H 0.89832 0.99345 0.38982 0.0
Co420 Co 0.32809 0.71561 1.01126 0.0
C421 C 0.33685 0.74277 0.09857 0.0
Co422 Co 0.34069 0.69201 0.0667 0.0
C423 C 0.30195 0.73302 0.93405 0.0
C424 C 0.32819 0.76281 0.96051 0.0
N425 N 0.3184 0.73764 0.96703 0.0
N426 N 0.30122 0.75437 0.90715 0.0
C427 C 0.31767 0.77312 0.9241 0.0
H428 H 0.29124 0.71419 0.9292 0.0
H429 H 0.34239 0.773 0.98062 0.0
C430 C 0.33345 0.66484 0.98005 0.0
N431 N 0.35088 0.67006 0.11023 0.0
C432 C 0.37303 0.67238 0.13013 0.0
C433 C 0.33884 0.64647 0.12435 0.0
N434 N 0.37545 0.65106 0.15565 0.0
C435 C 0.35383 0.63479 0.1523 0.0
C436 C 0.28692 0.69 0.0725 0.0
O437 O 0.3277 0.68654 0.96563 0.0
O438 O 0.33937 0.66366 1.0223 0.0
O439 O 0.30551 0.68303 0.09212 0.0
O440 O 0.29209 0.70555 0.03685 0.0
O441 O 0.34224 0.72059 0.1112 0.0
H442 H 0.32084 0.63781 0.1134 0.0
H443 H 0.38772 0.68885 0.12394 0.0
O444 O 0.32932 0.74459 0.0576 0.0
O445 O 0.36374 0.7248 0.98575 0.0
O446 O 0.37593 0.7009 0.04022 0.0
C447 C 0.38185 0.71584 1.00407 0.0
H448 H 0.3218 0.793 0.91135 0.0
H449 H 0.34936 0.61558 0.16806 0.0
Co450 Co 0.55807 0.12198 0.68524 0.0
C451 C 0.60605 0.10114 0.6615 0.0
Co452 Co 0.56356 0.09023 0.73291 0.0
C453 C 0.54442 0.17039 0.65194 0.0
C454 C 0.56076 0.14576 0.59349 0.0
N455 N 0.55451 0.14722 0.64236 0.0
N456 N 0.54399 0.18344 0.61096 0.0
C457 C 0.55427 0.16802 0.57405 0.0
H458 H 0.53676 0.17712 0.68822 0.0
H459 H 0.56912 0.12935 0.57325 0.0
C460 C 0.51634 0.11381 0.75966 0.0
N461 N 0.56791 0.06428 0.77616 0.0
C462 C 0.58292 0.04375 0.7704 0.0
C463 C 0.55821 0.06479 0.82402 0.0
N464 N 0.58304 0.03172 0.81295 0.0
C465 C 0.56727 0.04492 0.84647 0.0
C466 C 0.58284 0.14061 0.76167 0.0
O467 O 0.52523 0.12808 0.7233 0.0
O468 O 0.52934 0.09521 0.76877 0.0
O469 O 0.57895 0.1167 0.77434 0.0
O470 O 0.57511 0.1471 0.72319 0.0
O471 O 0.5979 0.08666 0.69791 0.0
H472 H 0.54604 0.07933 0.84208 0.0
H473 H 0.59442 0.03846 0.73615 0.0
O474 O 0.59081 0.11638 0.64835 0.0
O475 O 0.54126 0.09735 0.64718 0.0
O476 O 0.54789 0.06408 0.68936 0.0
C477 C 0.53883 0.07287 0.65355 0.0
H478 H 0.55679 0.17243 0.53581 0.0
H479 H 0.56277 0.04075 0.88484 0.0
H480 H 0.46014 0.25177 0.04927 0.0
H481 H 0.45684 0.27565 0.20055 0.0
H482 H 0.50376 0.2738 0.03105 0.0
H483 H 0.50118 0.29707 0.18206 0.0
H484 H 0.59223 0.29383 0.12674 0.0
H485 H 0.54609 0.27949 0.15201 0.0
H486 H 0.52619 0.32049 0.03225 0.0
H487 H 0.57227 0.33491 1.00677 0.0
C488 C 0.46846 0.26199 0.07861 0.0
C489 C 0.45482 0.26199 0.12643 0.0
C490 C 0.49351 0.2746 0.06806 0.0
C491 C 0.5056 0.28723 0.10514 0.0
C492 C 0.49216 0.28735 0.15295 0.0
C493 C 0.46689 0.27496 0.16349 0.0
C494 C 0.57797 0.30004 0.10615 0.0
C495 C 0.58582 0.31518 0.06444 0.0
C496 C 0.55161 0.29201 0.12085 0.0
C497 C 0.53279 0.29882 0.09382 0.0
C498 C 0.54048 0.31485 0.05334 0.0
C499 C 0.5668 0.32309 0.03887 0.0
H500 H 0.55867 0.73076 0.36816 0.0
H501 H 0.5187 0.71387 0.51327 0.0
H502 H 0.5368 0.77081 0.36931 0.0
H503 H 0.49674 0.75408 0.51453 0.0
H504 H 0.48082 0.8412 0.50896 0.0
H505 H 0.50489 0.80288 0.5125 0.0
H506 H 0.49077 0.77906 0.36797 0.0
H507 H 0.46661 0.81719 0.36453 0.0
C508 C 0.54524 0.73569 0.40034 0.0
C509 C 0.54008 0.71911 0.44038 0.0
C510 C 0.53273 0.75855 0.40098 0.0
C511 C 0.51482 0.76527 0.44172 0.0
C512 C 0.51056 0.74936 0.48274 0.0
C513 C 0.52314 0.72643 0.48208 0.0
C514 C 0.4826 0.82762 0.4782 0.0
C515 C 0.47193 0.83224 0.43635 0.0
C516 C 0.49643 0.80576 0.48021 0.0
C517 C 0.49987 0.78821 0.44035 0.0
C518 C 0.48886 0.79261 0.39883 0.0
C519 C 0.47503 0.81441 0.39686 0.0
H520 H 0.09691 0.7735 0.59995 0.0
H521 H 0.07208 0.84094 0.53689 0.0
H522 H 0.05139 0.75898 0.63063 0.0
H523 H 0.02638 0.82644 0.56866 0.0
H524 H 0.95059 0.79819 0.68087 0.0
H525 H 0.99679 0.8155 0.66012 0.0
H526 H 0.01316 0.74492 0.57581 0.0
H527 H 0.96718 0.72811 0.59557 0.0
C528 C 0.08175 0.78537 0.59314 0.0
C529 C 0.08795 0.80826 0.56579 0.0
C530 C 0.05579 0.77706 0.61072 0.0
C531 C 0.03565 0.79172 0.60203 0.0
C532 C 0.04177 0.81503 0.57607 0.0
C533 C 0.06778 0.82315 0.55765 0.0
C534 C 0.96427 0.78644 0.65839 0.0
C535 C 0.95565 0.76196 0.63962 0.0
C536 C 0.99045 0.79631 0.64634 0.0
C537 C 0.00825 0.78143 0.61649 0.0
C538 C -0.00029 0.75662 0.59907 0.0
C539 C 0.97356 0.74708 0.61018 0.0
H540 H 0.98811 0.33946 1.00222 0.0
H541 H 0.97234 0.3161 0.85844 0.0
H542 H 0.01233 0.30116 1.00412 0.0
H543 H 0.99666 0.27791 0.86028 0.0
H544 H 0.0632 0.22723 0.85895 0.0
H545 H 0.04192 0.26763 0.85988 0.0
H546 H 0.00393 0.25293 1.00716 0.0
H547 H 0.02529 0.21241 1.00613 0.0
C548 C 0.98961 0.32606 0.97119 0.0
C549 C 0.97827 0.33083 0.93015 0.0
C550 C 0.00354 0.30416 0.97227 0.0
C551 C 0.00647 0.28663 0.9323 0.0
C552 C 0.99512 0.29136 0.8913 0.0
C553 C 0.98118 0.31323 0.89024 0.0
C554 C 0.05033 0.23265 0.89153 0.0
C555 C 0.04566 0.21653 0.93228 0.0
C556 C 0.03814 0.25575 0.89204 0.0
C557 C 0.02101 0.26323 0.93335 0.0
C558 C 0.01717 0.24771 0.9749 0.0
C559 C 0.02942 0.22456 0.97438 0.0
H560 H 0.53606 0.78717 0.99208 0.0
H561 H 0.53909 0.75806 0.84373 0.0
H562 H 0.49152 0.76783 1.01158 0.0
H563 H 0.49358 0.73937 0.86349 0.0
H564 H 0.40174 0.74332 0.92197 0.0
H565 H 0.44766 0.75826 0.89388 0.0
H566 H 0.47006 0.72012 1.01447 0.0
H567 H 0.42447 0.7051 0.04257 0.0
C568 C 0.52746 0.77639 0.96363 0.0
C569 C 0.54148 0.7738 0.91642 0.0
C570 C 0.5018 0.76543 0.97489 0.0
C571 C 0.48936 0.75191 0.93915 0.0
C572 C 0.50291 0.74975 0.8916 0.0
C573 C 0.52886 0.76049 0.88036 0.0
C574 C 0.41652 0.73793 0.94217 0.0
C575 C 0.40952 0.72329 0.98474 0.0
C576 C 0.44272 0.74631 0.92589 0.0
C577 C 0.46219 0.74041 0.95227 0.0
C578 C 0.45529 0.72506 0.99382 0.0
C579 C 0.42921 0.71648 1.00981 0.0
H580 H 0.44964 0.31054 0.68097 0.0
H581 H 0.48699 0.32809 0.53441 0.0
H582 H 0.47237 0.27102 0.67806 0.0
H583 H 0.50971 0.28823 0.53134 0.0
H584 H 0.52198 0.1991 0.53637 0.0
H585 H 0.50022 0.23906 0.53366 0.0
H586 H 0.51907 0.26265 0.67529 0.0
H587 H 0.54097 0.22289 0.67787 0.0
C588 C 0.46277 0.30596 0.64818 0.0
C589 C 0.46683 0.32252 0.60814 0.0
C590 C 0.47576 0.28338 0.64653 0.0
C591 C 0.49304 0.27688 0.60475 0.0
C592 C 0.49641 0.29285 0.56394 0.0
C593 C 0.48339 0.31555 0.56563 0.0
C594 C 0.52184 0.21302 0.56653 0.0
C595 C 0.53294 0.20779 0.60757 0.0
C596 C 0.50935 0.23583 0.56499 0.0
C597 C 0.50774 0.25367 0.6045 0.0
C598 C 0.51959 0.24887 0.64478 0.0
C599 C 0.53209 0.22615 0.64628 0.0
H600 H 0.9256 0.19254 0.50846 0.0
H601 H 0.89968 0.25978 0.44676 0.0
H602 H 0.97111 0.2079 0.47752 0.0
H603 H 0.94517 0.27527 0.41693 0.0
H604 H 0.02951 0.30692 0.45194 0.0
H605 H 0.98348 0.28999 0.47043 0.0
H606 H 0.0009 0.21901 0.38828 0.0
H607 H 0.0471 0.23638 0.36883 0.0
C608 C 0.92963 0.21048 0.4881 0.0
C609 C 0.90917 0.22503 0.48011 0.0
C610 C 0.95558 0.21912 0.4702 0.0
C611 C 0.96143 0.24267 0.4449 0.0
C612 C 0.94101 0.25703 0.43635 0.0
C613 C 0.91506 0.24815 0.45337 0.0
C614 C 0.02338 0.28782 0.43755 0.0
C615 C 0.04162 0.27285 0.40912 0.0
C616 C 0.99715 0.27822 0.44787 0.0
C617 C 0.98885 0.25326 0.43071 0.0
C618 C 0.007 0.23832 0.40185 0.0
C619 C 0.03322 0.24823 0.39058 0.0
H620 H 0.99397 0.69252 0.15052 0.0
H621 H 0.06336 0.72493 0.058 0.0
H622 H 0.97299 0.73285 0.1438 0.0
H623 H 0.04258 0.76556 0.05213 0.0
H624 H 0.00209 0.84009 0.13458 0.0
H625 H 0.024 0.79954 0.12976 0.0
H626 H 0.96153 0.75929 0.06305 0.0
H627 H 0.93991 0.80013 0.06685 0.0
C628 C 0.00465 0.70835 0.12889 0.0
C629 C 0.03018 0.7059 0.10484 0.0
C630 C 0.99266 0.73117 0.12473 0.0
C631 C 0.00629 0.75195 0.0973 0.0
C632 C 0.03181 0.74958 0.07327 0.0
C633 C 0.04359 0.72651 0.07655 0.0
C634 C 0.99329 0.82259 0.11848 0.0
C635 C 0.96944 0.82294 0.10114 0.0
C636 C 0.00579 0.7996 0.11549 0.0
C637 C 0.99428 0.7766 0.09606 0.0
C638 C 0.97062 0.77697 0.07809 0.0
C639 C 0.9584 0.80016 0.08007 0.0
H640 H 0.12226 0.08797 0.94856 0.0
H641 H 0.16947 0.11082 0.81256 0.0
H642 H 0.16128 0.09091 0.98754 0.0
H643 H 0.20849 0.11573 0.85187 0.0
H644 H 0.27598 0.12957 0.92999 0.0
H645 H 0.24148 0.10307 0.89442 0.0
H646 H 0.184 0.12896 1.01209 0.0
H647 H 0.21838 0.15423 0.04714 0.0
C648 C 0.1412 0.09318 0.92695 0.0
C649 C 0.1431 0.09943 0.87796 0.0
C650 C 0.16352 0.09504 0.94919 0.0
C651 C 0.18802 0.10425 0.92329 0.0
C652 C 0.19007 0.10843 0.87304 0.0
C653 C 0.16774 0.10583 0.85046 0.0
C654 C 0.25604 0.12845 0.94892 0.0
C655 C 0.24957 0.14382 0.99099 0.0
C656 C 0.23625 0.11364 0.92841 0.0
C657 C 0.20981 0.11407 0.94992 0.0
C658 C 0.20399 0.12768 0.99455 0.0
C659 C 0.22365 0.14235 1.01473 0.0
H660 H 0.64799 0.37282 0.17124 0.0
H661 H 0.67304 0.42112 0.0455 0.0
H662 H 0.63408 0.41183 0.21923 0.0
H663 H 0.65922 0.45955 0.09313 0.0
H664 H 0.58311 0.49664 0.16237 0.0
H665 H 0.60314 0.45672 0.13378 0.0
H666 H 0.65681 0.46996 0.23704 0.0
H667 H 0.63693 0.51074 0.26551 0.0
C668 C 0.65139 0.39182 0.15441 0.0
C669 C 0.66126 0.39393 0.10453 0.0
C670 C 0.64343 0.41405 0.1818 0.0
C671 C 0.64547 0.43847 0.15952 0.0
C672 C 0.65742 0.44085 0.11093 0.0
C673 C 0.66525 0.41884 0.08373 0.0
C674 C 0.59908 0.49108 0.17926 0.0
C675 C 0.60878 0.50712 0.21551 0.0
C676 C 0.6104 0.46815 0.16311 0.0
C677 C 0.63156 0.46054 0.18303 0.0
C678 C 0.64042 0.47553 0.22134 0.0
C679 C 0.62905 0.49874 0.23757 0.0
H680 H 0.37179 0.90428 0.46879 0.0
H681 H 0.34472 0.94791 0.35984 0.0
H682 H 0.32843 0.88317 0.49176 0.0
H683 H 0.30023 0.92805 0.38547 0.0
H684 H 0.23474 0.86153 0.39209 0.0
H685 H 0.27662 0.88791 0.37573 0.0
H686 H 0.2859 0.88208 0.52651 0.0
H687 H 0.24519 0.85416 0.54134 0.0
C688 C 0.35628 0.91011 0.45087 0.0
C689 C 0.36182 0.92746 0.41189 0.0
C690 C 0.33116 0.898 0.46429 0.0
C691 C 0.31063 0.90336 0.43992 0.0
C692 C 0.31567 0.92273 0.40405 0.0
C693 C 0.34108 0.93458 0.38997 0.0
C694 C 0.24612 0.86551 0.42131 0.0
C695 C 0.23705 0.85534 0.46765 0.0
C696 C 0.26991 0.88108 0.41229 0.0
C697 C 0.28482 0.88744 0.4498 0.0
C698 C 0.27546 0.87726 0.49627 0.0
C699 C 0.25208 0.86113 0.50488 0.0
H700 H 0.83841 0.61716 0.59476 0.0
H701 H 0.86192 0.66242 0.71646 0.0
H702 H 0.84978 0.57747 0.62855 0.0
H703 H 0.87173 0.62262 0.75233 0.0
H704 H 0.91905 0.55317 0.77137 0.0
H705 H 0.90208 0.59277 0.74723 0.0
H706 H 0.84294 0.54458 0.68304 0.0
H707 H 0.86144 0.50541 0.70453 0.0
C708 C 0.84526 0.61848 0.62957 0.0
C709 C 0.84928 0.64297 0.65281 0.0
C710 C 0.85178 0.59561 0.64929 0.0
C711 C 0.86202 0.59645 0.69342 0.0
C712 C 0.86466 0.62094 0.71778 0.0
C713 C 0.85869 0.64385 0.69749 0.0
C714 C 0.90214 0.55128 0.75288 0.0
C715 C 0.89148 0.52636 0.7399 0.0
C716 C 0.89225 0.57397 0.73896 0.0
C717 C 0.87109 0.57227 0.71242 0.0
C718 C 0.85964 0.54706 0.70201 0.0
C719 C 0.86995 0.52449 0.71494 0.0
H720 H 0.72461 0.91055 0.13588 0.0
H721 H 0.76409 0.88734 0.99492 0.0
H722 H 0.76581 0.92931 0.15785 0.0
H723 H 0.80549 0.90771 1.01557 0.0
H724 H 0.86993 0.89342 0.10448 0.0
H725 H 0.83102 0.8907 0.06748 0.0
H726 H 0.80473 0.95781 0.15379 0.0
H727 H 0.84406 0.96003 0.19265 0.0
C728 C 0.7421 0.91013 0.10904 0.0
C729 C 0.74135 0.89662 0.06437 0.0
C730 C 0.76575 0.92125 0.1214 0.0
C731 C 0.78918 0.91938 0.08905 0.0
C732 C 0.78789 0.90876 0.04196 0.0
C733 C 0.76416 0.89734 0.0298 0.0
C734 C 0.85605 0.90782 0.11557 0.0
C735 C 0.85996 0.92673 0.15219 0.0
C736 C 0.83377 0.90649 0.09358 0.0
C737 C 0.81467 0.92412 0.10724 0.0
C738 C 0.81897 0.94376 0.14264 0.0
C739 C 0.84143 0.94505 0.16498 0.0
H740 H 0.34256 0.66061 0.87988 0.0
H741 H 0.32719 0.61502 1.0103 0.0
H742 H 0.35122 0.62045 0.83119 0.0
H743 H 0.33622 0.57566 0.96286 0.0
H744 H 0.34397 0.50443 0.8773 0.0
H745 H 0.32304 0.54411 0.90564 0.0
H746 H 0.38635 0.59094 0.81991 0.0
H747 H 0.40631 0.55071 0.78977 0.0
C748 C 0.3405 0.64199 0.89794 0.0
C749 C 0.33441 0.64093 0.94883 0.0
C750 C 0.34566 0.61907 0.87021 0.0
C751 C 0.34445 0.59478 0.89303 0.0
C752 C 0.33694 0.5938 0.94372 0.0
C753 C 0.33199 0.61651 0.97113 0.0
C754 C 0.35287 0.52324 0.86365 0.0
C755 C 0.37671 0.5248 0.83193 0.0
C756 C 0.34107 0.54595 0.87995 0.0
C757 C 0.35332 0.5708 0.86596 0.0
C758 C 0.37629 0.57217 0.83126 0.0
C759 C 0.38782 0.54925 0.81415 0.0
H760 H 0.64683 0.0974 0.71016 0.0
H761 H 0.62844 0.11757 0.57133 0.0
H762 H 0.69083 0.11845 0.68861 0.0
H763 H 0.67302 0.13736 0.54817 0.0
H764 H 0.74062 0.20063 0.54589 0.0
H765 H 0.69795 0.17586 0.56518 0.0
H766 H 0.7322 0.1205 0.64407 0.0
H767 H 0.77406 0.14607 0.62747 0.0
C768 C 0.6526 0.10528 0.67408 0.0
C769 C 0.63422 0.10579 0.6424 0.0
C770 C 0.67789 0.11757 0.66169 0.0
C771 C 0.68554 0.1302 0.61687 0.0
C772 C 0.66769 0.12866 0.58361 0.0
C773 C 0.64227 0.11683 0.59642 0.0
C774 C 0.73886 0.18339 0.56796 0.0
C775 C 0.76074 0.1755 0.58538 0.0
C776 C 0.71447 0.16888 0.57846 0.0
C777 C 0.71148 0.14586 0.60588 0.0
C778 C 0.73343 0.13823 0.62354 0.0
C779 C 0.7576 0.15296 0.61384 0.0
H780 H 0.17159 0.41897 0.43015 0.0
H781 H 0.11976 0.37375 0.34538 0.0
H782 H 0.16052 0.45933 0.39736 0.0
H783 H 0.1082 0.41389 0.31382 0.0
H784 H 0.09837 0.4906 0.24692 0.0
H785 H 0.11973 0.45232 0.26521 0.0
H786 H 0.12284 0.48346 0.41056 0.0
H787 H 0.10263 0.52175 0.3917 0.0
C788 C 0.15818 0.41758 0.40396 0.0
C789 C 0.14642 0.39307 0.39083 0.0
C790 C 0.15163 0.44075 0.38544 0.0
C791 C 0.13314 0.44001 0.35335 0.0
C792 C 0.12263 0.41537 0.33807 0.0
C793 C 0.12918 0.39226 0.3565 0.0
C794 C 0.10404 0.48941 0.28243 0.0
C795 C 0.09838 0.50911 0.318 0.0
C796 C 0.1161 0.46737 0.29313 0.0
C797 C 0.12296 0.46461 0.33954 0.0
C798 C 0.11818 0.48488 0.37429 0.0
C799 C 0.10614 0.50676 0.36367 0.0
H800 H 0.65781 0.57739 0.34845 0.0
H801 H 0.62833 0.63783 0.44906 0.0
H802 H 0.69735 0.57932 0.38657 0.0
H803 H 0.66747 0.64049 0.48521 0.0
H804 H 0.73617 0.64626 0.552 0.0
H805 H 0.69557 0.62388 0.53161 0.0
H806 H 0.73453 0.60941 0.38526 0.0
H807 H 0.77509 0.62992 0.40686 0.0
C808 C 0.65967 0.5909 0.37877 0.0
C809 C 0.64016 0.60777 0.39505 0.0
C810 C 0.68228 0.59205 0.40064 0.0
C811 C 0.68575 0.61014 0.43902 0.0
C812 C 0.6655 0.62594 0.45655 0.0
C813 C 0.64307 0.6247 0.43506 0.0
C814 C 0.73619 0.63739 0.51614 0.0
C815 C 0.75849 0.64068 0.4805 0.0
C816 C 0.71289 0.62481 0.50416 0.0
C817 C 0.71147 0.61565 0.45619 0.0
C818 C 0.73465 0.61628 0.42243 0.0
C819 C 0.75791 0.62849 0.43461 0.0
H820 H 0.13491 1.00815 0.75907 0.0
H821 H 0.0823 0.99191 0.65415 0.0
H822 H 0.15525 0.96737 0.73349 0.0
H823 H 0.10291 0.95188 0.62837 0.0
H824 H 0.17551 0.91714 0.54555 0.0
H825 H 0.16103 0.95578 0.5918 0.0
H826 H 0.13122 0.9081 0.7163 0.0
H827 H 0.14586 0.86891 0.66972 0.0
C828 C 0.12737 0.9957 0.73133 0.0
C829 C 0.10727 1.00345 0.70802 0.0
C830 C 0.13902 0.97247 0.7168 0.0
C831 C 0.13062 0.95681 0.67894 0.0
C832 C 0.10971 0.96384 0.65753 0.0
C833 C 0.0981 0.98683 0.67201 0.0
C834 C 0.16663 0.91496 0.58329 0.0
C835 C 0.16152 0.89006 0.60399 0.0
C836 C 0.15841 0.93706 0.60966 0.0
C837 C 0.14494 0.9347 0.65722 0.0
C838 C 0.14177 0.91025 0.67967 0.0
C839 C 0.15017 0.88795 0.65314 0.0
H840 H 0.73446 0.36381 0.89661 0.0
H841 H 0.7455 0.35027 0.04365 0.0
H842 H 0.77717 0.38868 0.88175 0.0
H843 H 0.78736 0.37648 0.03016 0.0
H844 H 0.84551 0.4479 0.87205 0.0
H845 H 0.80096 0.42831 0.89754 0.0
H846 H 0.8299 0.37678 0.99219 0.0
H847 H 0.87361 0.39739 0.96931 0.0
C848 C 0.74614 0.36606 0.92565 0.0
C849 C 0.73687 0.35478 0.97099 0.0
C850 C 0.77043 0.38075 0.9175 0.0
C851 C 0.78574 0.38499 0.9549 0.0
C852 C 0.77643 0.37341 1.00017 0.0
C853 C 0.75242 0.35825 1.00793 0.0
C854 C 0.84212 0.43307 0.89963 0.0
C855 C 0.86314 0.42398 0.91815 0.0
C856 C 0.81665 0.42144 0.9136 0.0
C857 C 0.81181 0.40037 0.94595 0.0
C858 C 0.83263 0.39293 0.96736 0.0
C859 C 0.85788 0.40476 0.95403 0.0
H860 H 0.38777 1.01234 0.15499 0.0
H861 H 0.39165 0.04406 0.2995 0.0
H862 H 0.36748 0.05041 0.13541 0.0
H863 H 0.37006 0.08204 0.28059 0.0
H864 H 0.37069 0.16049 0.2014 0.0
H865 H 0.38154 0.12019 0.23304 0.0
H866 H 0.33073 0.07541 0.14565 0.0
H867 H 0.32044 0.11613 0.11258 0.0
C868 C 0.38413 0.02739 0.18286 0.0
C869 C 0.39193 0.02528 0.2286 0.0
C870 C 0.37201 0.04916 0.1718 0.0
C871 C 0.36714 0.06959 0.20618 0.0
C872 C 0.37382 0.06694 0.25282 0.0
C873 C 0.38601 0.04504 0.26391 0.0
C874 C 0.36144 0.1421 0.18935 0.0
C875 C 0.34485 0.14163 0.15393 0.0
C876 C 0.36757 0.11885 0.20791 0.0
C877 C 0.35729 0.09431 0.19174 0.0
C878 C 0.33945 0.09388 0.15839 0.0
C879 C 0.33329 0.11725 0.13971 0.0
H880 H 0.26695 0.36557 0.51456 0.0
H881 H 0.22645 0.42372 0.60429 0.0
H882 H 0.30803 0.38292 0.54026 0.0
H883 H 0.26761 0.44238 0.62836 0.0
H884 H 0.33353 0.43652 0.72031 0.0
H885 H 0.29439 0.43008 0.68163 0.0
H886 H 0.3425 0.41481 0.54362 0.0
H887 H 0.38116 0.41967 0.58323 0.0
C888 C 0.26719 0.38284 0.53816 0.0
C889 C 0.24378 0.39335 0.55763 0.0
C890 C 0.29068 0.39287 0.55307 0.0
C891 C 0.29119 0.41391 0.58718 0.0
C892 C 0.26792 0.42576 0.6032 0.0
C893 C 0.24443 0.41538 0.58898 0.0
C894 C 0.33562 0.43218 0.68161 0.0
C895 C 0.36017 0.42817 0.65486 0.0
C896 C 0.31324 0.42862 0.65919 0.0
C897 C 0.31514 0.42154 0.60938 0.0
C898 C 0.3401 0.41948 0.58219 0.0
C899 C 0.3623 0.42244 0.6048 0.0
H900 H 0.84423 0.16104 0.37693 0.0
H901 H 0.82779 0.11444 0.50606 0.0
H902 H 0.85358 0.12125 0.32748 0.0
H903 H 0.83743 0.07543 0.45786 0.0
H904 H 0.84603 1.00479 0.3701 0.0
H905 H 0.82492 0.04428 0.39918 0.0
H906 H 0.88888 0.09181 0.31671 0.0
H907 H 0.90909 0.0518 0.28591 0.0
C908 C 0.84205 0.14227 0.39451 0.0
C909 C 0.83546 0.14082 0.44531 0.0
C910 C 0.84761 0.11956 0.36636 0.0
C911 C 0.84629 0.09509 0.38861 0.0
C912 C 0.83827 0.09372 0.43913 0.0
C913 C 0.83294 0.11622 0.46699 0.0
C914 C 0.85503 0.02372 0.35727 0.0
C915 C 0.8791 0.02552 0.32625 0.0
C916 C 0.84313 0.04633 0.37404 0.0
C917 C 0.85548 0.07131 0.36116 0.0
C918 C 0.87873 0.07294 0.32718 0.0
C919 C 0.89039 0.05015 0.30968 0.0
H920 H 0.12872 0.61808 0.06971 0.0
H921 H 0.14706 0.59697 0.20802 0.0
H922 H 0.17323 0.6382 0.04713 0.0
H923 H 0.1909 0.61842 0.18726 0.0
H924 H 0.27371 0.64699 0.12828 0.0
H925 H 0.23215 0.621 0.14327 0.0
H926 H 0.19782 0.67668 0.06513 0.0
H927 H 0.24039 0.70187 0.04711 0.0
C928 C 0.14255 0.61719 0.09474 0.0
C929 C 0.13456 0.60581 0.14041 0.0
C930 C 0.16791 0.62921 0.08231 0.0
C931 C 0.18564 0.63062 0.11574 0.0
C932 C 0.17804 0.61763 0.16019 0.0
C933 C 0.15286 0.60511 0.17214 0.0
C934 C 0.25731 0.65388 0.11447 0.0
C935 C 0.2604 0.67663 0.08657 0.0
C936 C 0.2333 0.6389 0.12325 0.0
C937 C 0.21142 0.64652 0.10539 0.0
C938 C 0.21432 0.66974 0.07855 0.0
C939 C 0.23862 0.68449 0.06881 0.0
H940 H 0.59919 0.99212 0.75068 0.0
H941 H 0.60041 0.02246 0.89689 0.0
H942 H 0.62085 0.95418 0.76959 0.0
H943 H 0.62093 0.98447 0.91629 0.0
H944 H 0.67068 0.92058 0.93694 0.0
H945 H 0.65912 0.96099 0.90493 0.0
H946 H 0.60935 0.91533 0.81678 0.0
H947 H 0.62138 0.87522 0.84761 0.0
C948 C 0.60424 0.99084 0.78666 0.0
C949 C 0.59764 1.01022 0.82238 0.0
C950 C 0.61648 0.96897 0.79771 0.0
C951 C 0.62259 0.96605 0.84466 0.0
C952 C 0.61687 0.98601 0.87963 0.0
C953 C 0.60464 1.00772 0.86866 0.0
C954 C 0.65773 0.91918 0.90993 0.0
C955 C 0.64684 0.8946 0.89523 0.0
C956 C 0.65088 0.94238 0.89186 0.0
C957 C 0.63298 0.94156 0.8586 0.0
C958 C 0.62332 0.91689 0.84193 0.0
C959 C 0.63014 0.89378 0.85996 0.0
H960 H 0.36948 0.16619 0.92201 0.0
H961 H 0.42812 0.17856 1.01618 0.0
H962 H 0.40126 0.14662 0.85974 0.0
H963 H 0.45959 0.15867 0.9544 0.0
H964 H 0.50022 0.0973 0.8529 0.0
H965 H 0.46552 0.11344 0.91317 0.0
H966 H 0.44485 0.16271 0.80559 0.0
H967 H 0.47987 0.14691 0.74529 0.0
C968 C 0.38907 0.16462 0.92955 0.0
C969 C 0.39624 0.17399 0.97412 0.0
C970 C 0.40729 0.1535 0.89381 0.0
C971 C 0.43291 0.15098 0.90221 0.0
C972 C 0.43994 0.16006 0.94699 0.0
C973 C 0.42192 0.17161 0.98229 0.0
C974 C 0.48806 0.11128 0.84179 0.0
C975 C 0.49291 0.1208 0.79416 0.0
C976 C 0.46829 0.12067 0.87648 0.0
C977 C 0.45254 0.13949 0.86426 0.0
C978 C 0.45657 0.14814 0.81609 0.0
C979 C 0.47666 0.13909 0.78157 0.0
H980 H 0.61233 0.63793 0.17516 0.0
H981 H 0.6096 0.6994 0.28562 0.0
H982 H 0.62578 0.67078 0.11228 0.0
H983 H 0.62302 0.73211 0.22292 0.0
H984 H 0.66839 0.78295 0.10104 0.0
H985 H 0.66012 0.74814 0.16061 0.0
H986 H 0.60533 0.70642 0.07754 0.0
H987 H 0.61358 0.74123 1.01788 0.0
C988 C 0.61493 0.65839 0.18613 0.0
C989 C 0.60991 0.66596 0.23556 0.0
C990 C 0.62244 0.67725 0.15002 0.0
C991 C 0.62544 0.70414 0.16244 0.0
C992 C 0.62118 0.71159 0.21198 0.0
C993 C 0.61339 0.6928 0.24799 0.0
C994 C 0.65478 0.76624 0.09512 0.0
C995 C 0.64164 0.76498 0.05456 0.0
C996 C 0.64992 0.74633 0.12951 0.0
C997 C 0.63197 0.72447 0.12408 0.0
C998 C 0.61944 0.72282 0.08272 0.0
C999 C 0.62411 0.74286 0.04856 0.0
H1000 H 0.00448 0.88812 0.21308 0.0
H1001 H 0.98512 0.94769 0.32347 0.0
H1002 H 0.04204 0.87953 0.24989 0.0
H1003 H 0.02285 0.93876 0.3608 0.0
H1004 H 0.10824 0.93179 0.38303 0.0
H1005 H 0.07134 0.94236 0.34551 0.0
H1006 H 0.04966 0.85974 0.32448 0.0
H1007 H 0.08702 0.84918 0.36069 0.0
C1008 C 0.00828 0.89949 0.24516 0.0
C1009 C 0.99172 0.91858 0.26542 0.0
C1010 C 0.02974 0.89439 0.26646 0.0
C1011 C 0.03528 0.90825 0.30854 0.0
C1012 C 0.01916 0.92784 0.32821 0.0
C1013 C 0.99754 0.93292 0.3069 0.0
C1014 C 0.09578 0.91588 0.36995 0.0
C1015 C 0.1007 0.88961 0.37458 0.0
C1016 C 0.07444 0.92195 0.34899 0.0
C1017 C 0.05762 0.90191 0.33192 0.0
C1018 C 0.06245 0.87565 0.33677 0.0
C1019 C 0.08371 0.86958 0.35793 0.0
H1020 H 0.84429 0.2938 0.56952 0.0
H1021 H 0.84219 0.24395 0.69187 0.0
H1022 H 0.86131 0.33112 0.61581 0.0
H1023 H 0.85801 0.28128 0.7389 0.0
H1024 H 0.91912 0.34078 0.78602 0.0
H1025 H 0.89799 0.30597 0.74098 0.0
H1026 H 0.8559 0.36251 0.68108 0.0
H1027 H 0.87809 0.39777 0.72521 0.0
C1028 C 0.84679 0.29097 0.60677 0.0
C1029 C 0.84207 0.26585 0.62689 0.0
C1030 C 0.85656 0.31241 0.63341 0.0
C1031 C 0.86159 0.30927 0.68097 0.0
C1032 C 0.85521 0.28441 0.70194 0.0
C1033 C 0.84583 0.26298 0.67514 0.0
C1034 C 0.90537 0.34588 0.76325 0.0
C1035 C 0.90026 0.37211 0.75941 0.0
C1036 C 0.89299 0.32579 0.73764 0.0
C1037 C 0.8748 0.33119 0.70777 0.0
C1038 C 0.86987 0.35753 0.70344 0.0
C1039 C 0.88253 0.37777 0.72884 0.0
H1040 H 0.62195 0.87151 0.11829 0.0
H1041 H 0.56101 0.85245 0.03067 0.0
H1042 H 0.5912 0.89285 0.17892 0.0
H1043 H 0.53014 0.87401 0.09167 0.0
H1044 H 0.48965 0.93757 0.18967 0.0
H1045 H 0.52249 0.91957 0.12761 0.0
H1046 H 0.55134 0.87912 0.23847 0.0
H1047 H 0.51854 0.8969 0.30034 0.0
C1048 C 0.60197 0.87185 0.11192 0.0
C1049 C 0.59395 0.86019 0.06957 0.0
C1050 C 0.58432 0.88406 0.14681 0.0
C1051 C 0.55824 0.88522 0.14012 0.0
C1052 C 0.55019 0.87371 0.09765 0.0
C1053 C 0.56781 0.86117 0.0629 0.0
C1054 C 0.50334 0.92527 0.20094 0.0
C1055 C 0.5015 0.91877 0.25007 0.0
C1056 C 0.52194 0.9147 0.16528 0.0
C1057 C 0.53938 0.89772 0.17803 0.0
C1058 C 0.53829 0.89221 0.22742 0.0
C1059 C 0.51949 0.90245 0.26292 0.0
H1060 H 0.38753 0.39864 0.87394 0.0
H1061 H 0.39372 0.33761 0.76271 0.0
H1062 H 0.37331 0.3655 0.93594 0.0
H1063 H 0.37937 0.30455 0.82469 0.0
H1064 H 0.33009 0.254 0.94458 0.0
H1065 H 0.34032 0.28866 0.88474 0.0
H1066 H 0.39343 0.32963 0.97207 0.0
H1067 H 0.38334 0.2949 0.03188 0.0
C1068 C 0.38559 0.37819 0.86259 0.0
C1069 C 0.39175 0.37084 0.81321 0.0
C1070 C 0.37761 0.35917 0.89823 0.0
C1071 C 0.37522 0.33233 0.88539 0.0
C1072 C 0.38075 0.32504 0.83587 0.0
C1073 C 0.38907 0.34402 0.80031 0.0
C1074 C 0.34377 0.27051 0.95134 0.0
C1075 C 0.35588 0.27159 0.99317 0.0
C1076 C 0.34976 0.29031 0.9168 0.0
C1077 C 0.36778 0.31192 0.92342 0.0
C1078 C 0.37931 0.3134 0.96596 0.0
C1079 C 0.37357 0.29342 1.00022 0.0
H1080 H 0.02115 0.09933 0.70982 0.0
H1081 H 0.9939 0.14288 0.84092 0.0
H1082 H 0.98255 0.10881 0.67588 0.0
H1083 H 0.95506 0.15189 0.80711 0.0
H1084 H 0.87648 0.13244 0.74233 0.0
H1085 H 0.91453 0.12299 0.77859 0.0
H1086 H 0.96593 0.15327 0.65179 0.0
H1087 H 0.92796 0.16297 0.61591 0.0
C1088 C 0.00681 0.1107 0.73153 0.0
C1089 C 0.01051 0.12039 0.77799 0.0
C1090 C 0.98485 0.11623 0.712 0.0
C1091 C 0.96598 0.13111 0.73893 0.0
C1092 C 0.96934 0.14029 0.78579 0.0
C1093 C 0.99155 0.1352 0.80499 0.0
C1094 C 0.89594 0.1371 0.72244 0.0
C1095 C 0.89938 0.14847 0.6765 0.0
C1096 C 0.91762 0.13183 0.74317 0.0
C1097 C 0.94304 0.13735 0.71779 0.0
C1098 C 0.94648 0.14872 0.67187 0.0
C1099 C 0.92484 0.15446 0.65159 0.0
H1100 H 0.15215 0.73876 0.47848 0.0
H1101 H 0.15505 0.78806 0.35507 0.0
H1102 H 0.13443 0.70148 0.43309 0.0
H1103 H 0.1386 0.75069 0.30884 0.0
H1104 H 0.07651 0.69228 0.26299 0.0
H1105 H 0.09818 0.72685 0.30764 0.0
H1106 H 0.13892 0.66957 0.36876 0.0
H1107 H 0.1161 0.63454 0.32501 0.0
C1108 C 0.14969 0.74146 0.44117 0.0
C1109 C 0.1548 0.76644 0.4205 0.0
C1110 C 0.13952 0.72004 0.41505 0.0
C1111 C 0.13451 0.72304 0.36746 0.0
C1112 C 0.14135 0.74771 0.34588 0.0
C1113 C 0.1511 0.76914 0.37219 0.0
C1114 C 0.09005 0.68697 0.28602 0.0
C1115 C 0.09463 0.66063 0.29029 0.0
C1116 C 0.10275 0.70691 0.31136 0.0
C1117 C 0.1208 0.70124 0.3413 0.0
C1118 C 0.1251 0.67476 0.34627 0.0
C1119 C 0.11206 0.65465 0.32118 0.0
H1120 H 0.87616 0.67105 0.42692 0.0
H1121 H 0.93608 0.68279 0.51858 0.0
H1122 H 0.90655 0.65055 0.36438 0.0
H1123 H 0.96657 0.66196 0.45565 0.0
H1124 H 0.00332 0.59803 0.35234 0.0
H1125 H 0.97133 0.6166 0.41503 0.0
H1126 H 0.94819 0.66436 0.3077 0.0
H1127 H 0.98034 0.64605 0.24501 0.0
C1128 C 0.89585 0.66926 0.43378 0.0
C1129 C 0.90368 0.67858 0.47785 0.0
C1130 C 0.91328 0.65757 0.39777 0.0
C1131 C 0.93893 0.65455 0.40507 0.0
C1132 C 0.94682 0.66378 0.44917 0.0
C1133 C 0.92944 0.67587 0.48505 0.0
C1134 C 0.99112 0.61216 0.34187 0.0
C1135 C 0.99438 0.62047 0.29351 0.0
C1136 C 0.973 0.62302 0.37796 0.0
C1137 C 0.95741 0.64213 0.36644 0.0
C1138 C 0.95986 0.64961 0.31774 0.0
C1139 C 0.97824 0.63906 0.28178 0.0
H1140 H 0.11254 0.19502 0.78093 0.0
H1141 H 0.11297 0.13602 0.66611 0.0
H1142 H 0.12548 0.22899 0.72073 0.0
H1143 H 0.12619 0.17016 0.60565 0.0
H1144 H 0.11288 0.24213 0.51794 0.0
H1145 H 0.10569 0.20622 0.575 0.0
H1146 H 0.16093 0.24682 0.65856 0.0
H1147 H 0.16797 0.28293 0.60165 0.0
C1148 C 0.11578 0.18922 0.74283 0.0
C1149 C 0.11167 0.16272 0.72845 0.0
C1150 C 0.12333 0.20875 0.70823 0.0
C1151 C 0.12681 0.20239 0.65823 0.0
C1152 C 0.1234 0.1758 0.64383 0.0
C1153 C 0.11602 0.15619 0.67851 0.0
C1154 C 0.12367 0.24335 0.54825 0.0
C1155 C 0.14095 0.26552 0.55522 0.0
C1156 C 0.11966 0.22263 0.58085 0.0
C1157 C 0.13269 0.22358 0.62152 0.0
C1158 C 0.15036 0.24554 0.62796 0.0
C1159 C 0.15451 0.2662 0.59515 0.0
H1160 H 0.51034 0.40053 0.70629 0.0
H1161 H 0.47828 0.44013 0.83888 0.0
H1162 H 0.54907 0.39335 0.74151 0.0
H1163 H 0.51711 0.43262 0.87434 0.0
H1164 H 0.57309 0.37905 0.93373 0.0
H1165 H 0.53562 0.39066 0.89858 0.0
H1166 H 0.58783 0.42027 0.77214 0.0
H1167 H 0.62536 0.40866 0.80743 0.0
C1168 C 0.51166 0.40786 0.74286 0.0
C1169 C 0.49126 0.42087 0.76988 0.0
C1170 C 0.53389 0.40385 0.76289 0.0
C1171 C 0.53603 0.41238 0.81063 0.0
C1172 C 0.51583 0.42571 0.83751 0.0
C1173 C 0.49373 0.43014 0.81715 0.0
C1174 C 0.57653 0.38794 0.89836 0.0
C1175 C 0.60211 0.39282 0.87312 0.0
C1176 C 0.55514 0.39484 0.87853 0.0
C1177 C 0.55886 0.40641 0.83273 0.0
C1178 C 0.58443 0.4113 0.80746 0.0
C1179 C 0.60587 0.40477 0.82767 0.0
H1180 H 0.34441 0.79399 0.07024 0.0
H1181 H 0.34355 0.74537 0.19385 0.0
H1182 H 0.3619 0.83177 0.11469 0.0
H1183 H 0.35986 0.78321 0.23908 0.0
H1184 H 0.42108 0.84337 0.28313 0.0
H1185 H 0.39991 0.8081 0.23921 0.0
H1186 H 0.35702 0.8638 0.17894 0.0
H1187 H 0.37926 0.89954 0.22198 0.0
C1188 C 0.3473 0.79151 0.10737 0.0
C1189 C 0.34277 0.76659 0.12834 0.0
C1190 C 0.35734 0.81323 0.13296 0.0
C1191 C 0.36285 0.8106 0.18033 0.0
C1192 C 0.3567 0.78595 0.2022 0.0
C1193 C 0.34703 0.76423 0.17644 0.0
C1194 C 0.40718 0.84819 0.26044 0.0
C1195 C 0.40182 0.87432 0.25625 0.0
C1196 C 0.39477 0.82783 0.23551 0.0
C1197 C 0.37628 0.83284 0.206 0.0
C1198 C 0.3712 0.8591 0.20109 0.0
C1199 C 0.38391 0.87963 0.2258 0.0
H1200 H 0.12091 0.37564 0.61106 0.0
H1201 H 0.05897 0.35059 0.52846 0.0
H1202 H 0.09005 0.39723 0.67069 0.0
H1203 H 0.02788 0.37237 0.58881 0.0
H1204 H 0.98533 0.43519 0.68617 0.0
H1205 H 0.01816 0.41804 0.62278 0.0
H1206 H 0.05219 0.38217 0.73265 0.0
H1207 H 0.01956 0.39914 0.79564 0.0
C1208 C 0.10068 0.37472 0.60555 0.0
C1209 C 0.09239 0.36124 0.56501 0.0
C1210 C 0.08299 0.3871 0.63988 0.0
C1211 C 0.05654 0.38652 0.63451 0.0
C1212 C 0.04822 0.37337 0.59366 0.0
C1213 C 0.06595 0.36072 0.55935 0.0
C1214 C 0.0002 0.42414 0.69678 0.0
C1215 C -7e-05 0.41862 0.74594 0.0
C1216 C 0.01876 0.41404 0.66046 0.0
C1217 C 0.03763 0.3986 0.6727 0.0
C1218 C 0.03802 0.39412 0.72202 0.0
C1219 C 0.01932 0.40387 0.75815 0.0
H1220 H 0.89337 0.83771 0.26235 0.0
H1221 H 0.88943 0.89978 0.37167 0.0
H1222 H 0.87934 0.80534 0.32555 0.0
H1223 H 0.8755 0.86725 0.43503 0.0
H1224 H 0.88597 0.79657 0.53149 0.0
H1225 H 0.89552 0.83118 0.4713 0.0
H1226 H 0.84078 0.79042 0.38701 0.0
H1227 H 0.83112 0.75593 0.44711 0.0
C1228 C 0.88927 0.8445 0.29983 0.0
C1229 C 0.89249 0.87141 0.3118 0.0
C1230 C 0.88113 0.82591 0.33611 0.0
C1231 C 0.87631 0.83364 0.38547 0.0
C1232 C 0.87923 0.86058 0.39745 0.0
C1233 C 0.88703 0.87924 0.36105 0.0
C1234 C 0.87572 0.79514 0.50044 0.0
C1235 C 0.85778 0.77338 0.49425 0.0
C1236 C 0.88115 0.81504 0.46597 0.0
C1237 C 0.86903 0.81354 0.42411 0.0
C1238 C 0.85069 0.79208 0.4185 0.0
C1239 C 0.84502 0.77236 0.45321 0.0
H1240 H 0.41028 0.68666 0.1903 0.0
H1241 H 0.39114 0.60341 0.17093 0.0
H1242 H 0.4485 0.67779 0.22531 0.0
H1243 H 0.42877 0.59453 0.20769 0.0
H1244 H 0.5152 0.59111 0.22576 0.0
H1245 H 0.47665 0.59895 0.19018 0.0
H1246 H 0.45871 0.65974 0.29867 0.0
H1247 H 0.49728 0.65233 0.33352 0.0
C1248 C 0.41418 0.66648 0.19355 0.0
C1249 C 0.39758 0.64578 0.17785 0.0
C1250 C 0.43595 0.66137 0.21408 0.0
C1251 C 0.44163 0.63543 0.21939 0.0
C1252 C 0.42505 0.61472 0.20371 0.0
C1253 C 0.40327 0.61983 0.18322 0.0
C1254 C 0.50293 0.60605 0.24208 0.0
C1255 C 0.50934 0.62114 0.28234 0.0
C1256 C 0.48081 0.61048 0.22184 0.0
C1257 C 0.46471 0.63008 0.24146 0.0
C1258 C 0.47095 0.64482 0.28218 0.0
C1259 C 0.49299 0.64043 0.30234 0.0
H1260 H 0.63681 0.29183 0.87052 0.0
H1261 H 0.6629 0.24037 0.96861 0.0
H1262 H 0.62044 0.25432 0.82563 0.0
H1263 H 0.64739 0.20231 0.92186 0.0
H1264 H 0.58808 0.14144 0.85875 0.0
H1265 H 0.60882 0.17717 0.90431 0.0
H1266 H 0.6316 0.22043 0.77161 0.0
H1267 H 0.60988 0.18567 0.72736 0.0
C1268 C 0.63961 0.27246 0.88196 0.0
C1269 C 0.65133 0.26924 0.9232 0.0
C1270 C 0.63027 0.25076 0.85588 0.0
C1271 C 0.63261 0.22503 0.86967 0.0
C1272 C 0.64491 0.22175 0.91035 0.0
C1273 C 0.6541 0.2436 0.93688 0.0
C1274 C 0.5976 0.15862 0.83953 0.0
C1275 C 0.59694 0.16092 0.78966 0.0
C1276 C 0.60966 0.17907 0.86553 0.0
C1277 C 0.62164 0.20207 0.84199 0.0
C1278 C 0.62194 0.20356 0.79157 0.0
C1279 C 0.60956 0.18348 0.76598 0.0
H1280 H 0.26311 0.2353 0.14581 0.0
H1281 H 0.32401 0.25115 0.2343 0.0
H1282 H 0.23229 0.25504 0.20844 0.0
H1283 H 0.29293 0.26982 0.29821 0.0
H1284 H 0.2364 0.32344 0.38707 0.0
H1285 H 0.2682 0.30506 0.32383 0.0
H1286 H 0.20732 0.24874 0.28438 0.0
H1287 H 0.17559 0.26793 0.34574 0.0
C1288 C 0.26988 0.2428 0.1789 0.0
C1289 C 0.29606 0.24159 0.18495 0.0
C1290 C 0.2521 0.254 0.21518 0.0
C1291 C 0.25985 0.264 0.25903 0.0
C1292 C 0.28614 0.26278 0.26492 0.0
C1293 C 0.30402 0.25188 0.22829 0.0
C1294 C 0.22987 0.30712 0.36484 0.0
C1295 C 0.20339 0.29729 0.37141 0.0
C1296 C 0.24816 0.29642 0.32862 0.0
C1297 C 0.24052 0.27537 0.29834 0.0
C1298 C 0.21404 0.2653 0.30582 0.0
C1299 C 0.19577 0.2762 0.34148 0.0
H1300 H 0.51549 0.59339 0.47584 0.0
H1301 H 0.55168 0.52699 0.4038 0.0
H1302 H 0.49023 0.56485 0.53723 0.0
H1303 H 0.52725 0.49838 0.46672 0.0
H1304 H 0.46131 0.44964 0.55745 0.0
H1305 H 0.48556 0.47864 0.49587 0.0
H1306 H 0.49193 0.53997 0.6053 0.0
H1307 H 0.46643 0.51103 0.66676 0.0
C1308 C 0.51823 0.57266 0.47334 0.0
C1309 C 0.53559 0.56245 0.4348 0.0
C1310 C 0.50384 0.55627 0.50891 0.0
C1311 C 0.50661 0.5292 0.50736 0.0
C1312 C 0.52416 0.51902 0.46884 0.0
C1313 C 0.53833 0.53542 0.4328 0.0
C1314 C 0.46779 0.46937 0.56841 0.0
C1315 C 0.46196 0.47803 0.61708 0.0
C1316 C 0.48195 0.48598 0.53304 0.0
C1317 C 0.49106 0.51169 0.54535 0.0
C1318 C 0.48501 0.52045 0.59412 0.0
C1319 C 0.47046 0.50386 0.62952 0.0
H1320 H 0.21939 0.81483 0.69384 0.0
H1321 H 0.21059 0.73078 0.67087 0.0
H1322 H 0.24485 0.80915 0.75843 0.0
H1323 H 0.23568 0.72518 0.73569 0.0
H1324 H 0.2567 0.72541 0.89059 0.0
H1325 H 0.23165 0.73072 0.8251 0.0
H1326 H 0.28742 0.79447 0.76902 0.0
H1327 H 0.31256 0.78903 0.8337 0.0
C1328 C 0.22303 0.79518 0.70215 0.0
C1329 C 0.21275 0.77329 0.67714 0.0
C1330 C 0.23759 0.79191 0.7393 0.0
C1331 C 0.24215 0.76668 0.75239 0.0
C1332 C 0.23211 0.74484 0.72711 0.0
C1333 C 0.21769 0.74809 0.68989 0.0
C1334 C 0.26377 0.74038 0.86407 0.0
C1335 C 0.2866 0.75688 0.86784 0.0
C1336 C 0.24939 0.74346 0.82656 0.0
C1337 C 0.25747 0.76315 0.79204 0.0
C1338 C 0.28039 0.77945 0.79554 0.0
C1339 C 0.2948 0.77631 0.8328 0.0
H1340 H 0.03119 0.5871 0.062 0.0
H1341 H 0.02197 0.51938 0.15316 0.0
H1342 H 0.01108 0.5617 1.00095 0.0
H1343 H 0.00086 0.49373 0.09168 0.0
H1344 H 0.98961 0.44878 0.95126 0.0
H1345 H 0.00916 0.47434 1.01297 0.0
H1346 H 0.97146 0.54165 0.97989 0.0
H1347 H 0.9522 0.51583 0.91638 0.0
C1348 C 0.02469 0.56671 0.06935 0.0
C1349 C 0.02827 0.55535 0.11295 0.0
C1350 C 0.01286 0.55214 0.03412 0.0
C1351 C 0.004 0.52561 0.04105 0.0
C1352 C 0.00764 0.51407 0.0846 0.0
C1353 C 0.0197 0.52874 0.12006 0.0
C1354 C 0.98545 0.46909 0.9568 0.0
C1355 C 0.96921 0.4802 0.92858 0.0
C1356 C 0.99656 0.48374 0.99284 0.0
C1357 C 0.99179 0.51008 1.0023 0.0
C1358 C 0.97584 0.52145 0.97356 0.0
C1359 C 0.96476 0.50671 0.93701 0.0
H1360 H 0.67444 0.76898 0.84291 0.0
H1361 H 0.73666 0.82335 0.88218 0.0
H1362 H 0.70527 0.74922 0.78058 0.0
H1363 H 0.76752 0.80448 0.81797 0.0
H1364 H 0.82241 0.75044 0.7295 0.0
H1365 H 0.79154 0.76942 0.79273 0.0
H1366 H 0.73043 0.7528 0.70448 0.0
H1367 H 0.76131 0.73254 0.64214 0.0
C1368 C 0.69474 0.77691 0.83798 0.0
C1369 C 0.703 0.79779 0.86785 0.0
C1370 C 0.71251 0.76565 0.80169 0.0
C1371 C 0.73917 0.77511 0.79344 0.0
C1372 C 0.74737 0.79615 0.82334 0.0
C1373 C 0.7296 0.80718 0.86019 0.0
C1374 C 0.80236 0.75076 0.72353 0.0
C1375 C 0.79443 0.73986 0.68053 0.0
C1376 C 0.78456 0.76193 0.75987 0.0
C1377 C 0.75822 0.76297 0.75428 0.0
C1378 C 0.75032 0.7521 0.711 0.0
C1379 C 0.76811 0.74056 0.67487 0.0
H1380 H 0.73655 0.30713 0.1626 0.0
H1381 H 0.67992 0.24408 0.21938 0.0
H1382 H 0.76183 0.3009 0.22723 0.0
H1383 H 0.70537 0.23771 0.28324 0.0
H1384 H 0.78372 0.30028 0.38012 0.0
H1385 H 0.75797 0.30626 0.31657 0.0
H1386 H 0.74796 0.22237 0.29336 0.0
H1387 H 0.77417 0.2163 0.35679 0.0
C1388 C 0.72935 0.29209 0.18891 0.0
C1389 C 0.70618 0.27606 0.18538 0.0
C1390 C 0.74388 0.28848 0.22595 0.0
C1391 C 0.73566 0.26871 0.26026 0.0
C1392 C 0.71248 0.2528 0.25691 0.0
C1393 C 0.69789 0.25648 0.22012 0.0
C1394 C 0.77631 0.28305 0.36129 0.0
C1395 C 0.78133 0.25778 0.37343 0.0
C1396 C 0.76149 0.28653 0.32478 0.0
C1397 C 0.75109 0.26483 0.29961 0.0
C1398 C 0.75556 0.2395 0.31235 0.0
C1399 C 0.77054 0.236 0.34881 0.0
H1400 H 0.0175 0.09049 0.96877 0.0
H1401 H 0.052 0.02361 0.89509 0.0
H1402 H 0.99204 0.06213 0.0301 0.0
H1403 H 0.02737 0.9951 0.95811 0.0
H1404 H 0.96138 0.94723 0.0516 0.0
H1405 H 0.98581 0.97573 0.98917 0.0
H1406 H 0.99387 0.03729 0.09759 0.0
H1407 H 0.96822 1.00898 0.1597 0.0
C1408 C 0.01984 0.06967 0.96592 0.0
C1409 C 0.03682 0.05931 0.92697 0.0
C1410 C 0.00533 0.05337 1.00148 0.0
C1411 C 0.00761 0.02621 0.99961 0.0
C1412 C 0.02469 1.01583 0.96056 0.0
C1413 C 0.03897 0.03217 0.92447 0.0
C1414 C 0.96827 0.96692 0.0621 0.0
C1415 C 0.96282 0.97586 0.11067 0.0
C1416 C 0.98253 0.98323 0.02625 0.0
C1417 C 0.99211 1.00888 0.03802 0.0
C1418 C 0.98654 1.01784 0.08675 0.0
C1419 C 0.9719 1.00159 0.12255 0.0
H1420 H 0.53955 0.01928 0.63346 0.0
H1421 H 0.50806 0.08865 0.59218 0.0
H1422 H 0.51996 0.99405 0.56974 0.0
H1423 H 0.48808 0.06368 0.5303 0.0
H1424 H 0.47443 1.01748 0.39103 0.0
H1425 H 0.49541 0.04288 0.45305 0.0
H1426 H 0.48031 0.97605 0.54691 0.0
H1427 H 0.46039 0.95091 0.48536 0.0
C1428 C 0.52822 0.02907 0.61135 0.0
C1429 C 0.52553 0.05603 0.61815 0.0
C1430 C 0.51691 1.01464 0.57467 0.0
C1431 C 0.50244 0.02677 0.54413 0.0
C1432 C 0.49948 0.05362 0.55185 0.0
C1433 C 0.51084 0.06795 0.588 0.0
C1434 C 0.47554 1.00835 0.42499 0.0
C1435 C 0.4658 0.98207 0.43274 0.0
C1436 C 0.48756 0.02288 0.46077 0.0
C1437 C 0.48992 1.01153 0.50531 0.0
C1438 C 0.47963 0.98543 0.513 0.0
C1439 C 0.4679 0.97101 0.47747 0.0
loop_
_geom_bond_atom_site_label_1
_geom_bond_atom_site_label_2
_geom_bond_distance
_geom_bond_site_symmetry_2
_ccdc_geom_bond_type
Co0 N5 2.057 1_554 S
Co0 O17 2.021 . S
Co0 O20 2.062 . S
Co0 O24 2.117 1_554 S
Co0 O25 2.020 1_554 S
C1 O21 1.259 1_556 S
C1 O24 1.258 . S
Co2 N11 2.057 . S
Co2 O18 2.117 . S
Co2 O19 2.020 . S
Co2 O21 2.021 . S
Co2 O26 2.062 1_554 S
C3 N5 1.316 1_554 S
C3 N6 1.347 1_554 S
C3 H8 0.931 . S
C4 N5 1.375 . S
C4 C7 1.350 . S
C4 H9 0.930 . S
N5 Co0 2.057 1_556 S
N5 C3 1.316 1_556 S
N5 C4 1.375 . S
N6 C3 1.347 1_556 S
N6 C7 1.373 . S
C7 C4 1.350 . S
C7 N6 1.373 . S
C7 H28 0.931 . S
H8 C3 0.931 . S
H9 C4 0.930 . S
C10 O17 1.259 . S
C10 O18 1.258 . S
N11 Co2 2.057 . S
N11 C12 1.316 . S
N11 C13 1.375 . S
C12 N11 1.316 . S
C12 N14 1.347 . S
C12 H23 0.931 . S
C13 N11 1.375 . S
C13 C15 1.350 . S
C13 H22 0.930 . S
N14 C12 1.347 . S
N14 C15 1.373 . S
C15 C13 1.350 . S
C15 N14 1.373 . S
C15 H29 0.931 . S
C16 O19 1.256 . S
C16 O20 1.255 . S
O17 Co0 2.021 . S
O17 C10 1.259 . S
O18 Co2 2.117 . S
O18 C10 1.258 . S
O19 Co2 2.020 . S
O19 C16 1.256 . S
O20 Co0 2.062 . S
O20 C16 1.255 . S
O21 C1 1.259 1_554 S
O21 Co2 2.021 . S
H22 C13 0.930 . S
H23 C12 0.931 . S
O24 Co0 2.117 1_556 S
O24 C1 1.258 . S
O25 Co0 2.020 1_556 S
O25 C27 1.256 . S
O26 Co2 2.062 1_556 S
O26 C27 1.255 . S
C27 O25 1.256 . S
C27 O26 1.255 . S
H28 C7 0.931 . S
H29 C15 0.931 . S
Co30 N35 2.057 . S
Co30 O47 2.021 . S
Co30 O50 2.062 . S
Co30 O54 2.117 . S
Co30 O55 2.020 . S
C31 O51 1.259 . S
C31 O54 1.258 . S
Co32 N41 2.057 . S
Co32 O48 2.117 . S
Co32 O49 2.020 . S
Co32 O51 2.021 . S
Co32 O56 2.062 . S
C33 N35 1.316 . S
C33 N36 1.347 . S
C33 H38 0.931 . S
C34 N35 1.375 . S
C34 C37 1.350 . S
C34 H39 0.930 . S
N35 Co30 2.057 . S
N35 C33 1.316 . S
N35 C34 1.375 . S
N36 C33 1.347 . S
N36 C37 1.373 . S
C37 C34 1.350 . S
C37 N36 1.373 . S
C37 H58 0.931 . S
H38 C33 0.931 . S
H39 C34 0.930 . S
C40 O47 1.259 . S
C40 O48 1.258 . S
N41 Co32 2.057 . S
N41 C42 1.316 . S
N41 C43 1.375 . S
C42 N41 1.316 . S
C42 N44 1.347 . S
C42 H53 0.931 . S
C43 N41 1.375 . S
C43 C45 1.350 . S
C43 H52 0.930 . S
N44 C42 1.347 . S
N44 C45 1.373 . S
C45 C43 1.350 . S
C45 N44 1.373 . S
C45 H59 0.931 . S
C46 O49 1.256 . S
C46 O50 1.255 . S
O47 Co30 2.021 . S
O47 C40 1.259 . S
O48 Co32 2.117 . S
O48 C40 1.258 . S
O49 Co32 2.020 . S
O49 C46 1.256 . S
O50 Co30 2.062 . S
O50 C46 1.255 . S
O51 C31 1.259 . S
O51 Co32 2.021 . S
H52 C43 0.930 . S
H53 C42 0.931 . S
O54 Co30 2.117 . S
O54 C31 1.258 . S
O55 Co30 2.020 . S
O55 C57 1.256 . S
O56 Co32 2.062 . S
O56 C57 1.255 . S
C57 O55 1.256 . S
C57 O56 1.255 . S
H58 C37 0.931 . S
H59 C45 0.931 . S
Co60 N65 2.057 . S
Co60 O77 2.021 . S
Co60 O80 2.062 . S
Co60 O84 2.117 . S
Co60 O85 2.020 . S
C61 O81 1.259 . S
C61 O84 1.258 . S
Co62 N71 2.057 . S
Co62 O78 2.117 . S
Co62 O79 2.020 . S
Co62 O81 2.021 . S
Co62 O86 2.062 . S
C63 N65 1.316 . S
C63 N66 1.347 . S
C63 H68 0.931 . S
C64 N65 1.375 . S
C64 C67 1.350 . S
C64 H69 0.930 . S
N65 Co60 2.057 . S
N65 C63 1.316 . S
N65 C64 1.375 . S
N66 C63 1.347 . S
N66 C67 1.373 . S
C67 C64 1.350 . S
C67 N66 1.373 . S
C67 H88 0.931 . S
H68 C63 0.931 . S
H69 C64 0.930 . S
C70 O77 1.259 . S
C70 O78 1.258 . S
N71 Co62 2.057 . S
N71 C72 1.316 . S
N71 C73 1.375 . S
C72 N71 1.316 . S
C72 N74 1.347 . S
C72 H83 0.931 . S
C73 N71 1.375 . S
C73 C75 1.350 . S
C73 H82 0.930 . S
N74 C72 1.347 . S
N74 C75 1.373 . S
C75 C73 1.350 . S
C75 N74 1.373 . S
C75 H89 0.931 . S
C76 O79 1.256 . S
C76 O80 1.255 . S
O77 Co60 2.021 . S
O77 C70 1.259 . S
O78 Co62 2.117 . S
O78 C70 1.258 . S
O79 Co62 2.020 . S
O79 C76 1.256 . S
O80 Co60 2.062 . S
O80 C76 1.255 . S
O81 C61 1.259 . S
O81 Co62 2.021 . S
H82 C73 0.930 . S
H83 C72 0.931 . S
O84 Co60 2.117 . S
O84 C61 1.258 . S
O85 Co60 2.020 . S
O85 C87 1.256 . S
O86 Co62 2.062 . S
O86 C87 1.255 . S
C87 O85 1.256 . S
C87 O86 1.255 . S
H88 C67 0.931 . S
H89 C75 0.931 . S
Co90 N95 2.057 . S
Co90 O107 2.021 . S
Co90 O110 2.062 . S
Co90 O114 2.117 . S
Co90 O115 2.020 . S
C91 O111 1.259 . S
C91 O114 1.258 . S
Co92 N101 2.057 . S
Co92 O108 2.117 . S
Co92 O109 2.020 . S
Co92 O111 2.021 . S
Co92 O116 2.062 . S
C93 N95 1.316 . S
C93 N96 1.347 . S
C93 H98 0.931 . S
C94 N95 1.375 . S
C94 C97 1.350 . S
C94 H99 0.930 . S
N95 Co90 2.057 . S
N95 C93 1.316 . S
N95 C94 1.375 . S
N96 C93 1.347 . S
N96 C97 1.373 . S
C97 C94 1.350 . S
C97 N96 1.373 . S
C97 H118 0.931 . S
H98 C93 0.931 . S
H99 C94 0.930 . S
C100 O107 1.259 . S
C100 O108 1.258 . S
N101 Co92 2.057 . S
N101 C102 1.316 . S
N101 C103 1.375 . S
C102 N101 1.316 . S
C102 N104 1.347 . S
C102 H113 0.931 . S
C103 N101 1.375 . S
C103 C105 1.350 . S
C103 H112 0.930 . S
N104 C102 1.347 . S
N104 C105 1.373 . S
C105 C103 1.350 . S
C105 N104 1.373 . S
C105 H119 0.931 . S
C106 O109 1.256 . S
C106 O110 1.255 . S
O107 Co90 2.021 . S
O107 C100 1.259 . S
O108 Co92 2.117 . S
O108 C100 1.258 . S
O109 Co92 2.020 . S
O109 C106 1.256 . S
O110 Co90 2.062 . S
O110 C106 1.255 . S
O111 C91 1.259 . S
O111 Co92 2.021 . S
H112 C103 0.930 . S
H113 C102 0.931 . S
O114 Co90 2.117 . S
O114 C91 1.258 . S
O115 Co90 2.020 . S
O115 C117 1.256 . S
O116 Co92 2.062 . S
O116 C117 1.255 . S
C117 O115 1.256 . S
C117 O116 1.255 . S
H118 C97 0.931 . S
H119 C105 0.931 . S
Co120 N125 2.057 . S
Co120 O137 2.021 . S
Co120 O140 2.062 1_556 S
Co120 O144 2.117 . S
Co120 O145 2.020 . S
C121 O141 1.259 . S
C121 O144 1.258 . S
Co122 N131 2.057 1_556 S
Co122 O138 2.117 1_556 S
Co122 O139 2.020 1_556 S
Co122 O141 2.021 . S
Co122 O146 2.062 . S
C123 N125 1.316 . S
C123 N126 1.347 . S
C123 H128 0.931 . S
C124 N125 1.375 . S
C124 C127 1.350 . S
C124 H129 0.930 . S
N125 Co120 2.057 . S
N125 C123 1.316 . S
N125 C124 1.375 . S
N126 C123 1.347 . S
N126 C127 1.373 . S
C127 C124 1.350 . S
C127 N126 1.373 . S
C127 H148 0.931 . S
H128 C123 0.931 . S
H129 C124 0.930 . S
C130 O137 1.259 1_554 S
C130 O138 1.258 . S
N131 Co122 2.057 1_554 S
N131 C132 1.316 1_554 S
N131 C133 1.375 . S
C132 N131 1.316 1_556 S
C132 N134 1.347 1_556 S
C132 H143 0.931 . S
C133 N131 1.375 . S
C133 C135 1.350 . S
C133 H142 0.930 . S
N134 C132 1.347 1_554 S
N134 C135 1.373 . S
C135 C133 1.350 . S
C135 N134 1.373 . S
C135 H149 0.931 . S
C136 O139 1.256 . S
C136 O140 1.255 . S
O137 Co120 2.021 . S
O137 C130 1.259 1_556 S
O138 Co122 2.117 1_554 S
O138 C130 1.258 . S
O139 Co122 2.020 1_554 S
O139 C136 1.256 . S
O140 Co120 2.062 1_554 S
O140 C136 1.255 . S
O141 C121 1.259 . S
O141 Co122 2.021 . S
H142 C133 0.930 . S
H143 C132 0.931 . S
O144 Co120 2.117 . S
O144 C121 1.258 . S
O145 Co120 2.020 . S
O145 C147 1.256 . S
O146 Co122 2.062 . S
O146 C147 1.255 . S
C147 O145 1.256 . S
C147 O146 1.255 . S
H148 C127 0.931 . S
H149 C135 0.931 . S
Co150 N155 2.057 . S
Co150 O167 2.021 . S
Co150 O170 2.062 . S
Co150 O174 2.117 . S
Co150 O175 2.020 . S
C151 O171 1.259 . S
C151 O174 1.258 . S
Co152 N161 2.057 . S
Co152 O168 2.117 . S
Co152 O169 2.020 . S
Co152 O171 2.021 . S
Co152 O176 2.062 . S
C153 N155 1.316 . S
C153 N156 1.347 . S
C153 H158 0.931 . S
C154 N155 1.375 . S
C154 C157 1.350 . S
C154 H159 0.930 . S
N155 Co150 2.057 . S
N155 C153 1.316 . S
N155 C154 1.375 . S
N156 C153 1.347 . S
N156 C157 1.373 . S
C157 C154 1.350 . S
C157 N156 1.373 . S
C157 H178 0.931 . S
H158 C153 0.931 . S
H159 C154 0.930 . S
C160 O167 1.259 . S
C160 O168 1.258 . S
N161 Co152 2.057 . S
N161 C162 1.316 . S
N161 C163 1.375 . S
C162 N161 1.316 . S
C162 N164 1.347 . S
C162 H173 0.931 . S
C163 N161 1.375 . S
C163 C165 1.350 . S
C163 H172 0.930 . S
N164 C162 1.347 . S
N164 C165 1.373 . S
C165 C163 1.350 . S
C165 N164 1.373 . S
C165 H179 0.931 . S
C166 O169 1.256 . S
C166 O170 1.255 . S
O167 Co150 2.021 . S
O167 C160 1.259 . S
O168 Co152 2.117 . S
O168 C160 1.258 . S
O169 Co152 2.020 . S
O169 C166 1.256 . S
O170 Co150 2.062 . S
O170 C166 1.255 . S
O171 C151 1.259 . S
O171 Co152 2.021 . S
H172 C163 0.930 . S
H173 C162 0.931 . S
O174 Co150 2.117 . S
O174 C151 1.258 . S
O175 Co150 2.020 . S
O175 C177 1.256 . S
O176 Co152 2.062 . S
O176 C177 1.255 . S
C177 O175 1.256 . S
C177 O176 1.255 . S
H178 C157 0.931 . S
H179 C165 0.931 . S
Co180 N185 2.057 . S
Co180 O197 2.021 . S
Co180 O200 2.062 . S
Co180 O204 2.117 . S
Co180 O205 2.020 . S
C181 O201 1.259 . S
C181 O204 1.258 . S
Co182 N191 2.057 . S
Co182 O198 2.117 . S
Co182 O199 2.020 . S
Co182 O201 2.021 . S
Co182 O206 2.062 . S
C183 N185 1.316 . S
C183 N186 1.347 . S
C183 H188 0.931 . S
C184 N185 1.375 . S
C184 C187 1.350 . S
C184 H189 0.930 . S
N185 Co180 2.057 . S
N185 C183 1.316 . S
N185 C184 1.375 . S
N186 C183 1.347 . S
N186 C187 1.373 . S
C187 C184 1.350 . S
C187 N186 1.373 . S
C187 H208 0.931 . S
H188 C183 0.931 . S
H189 C184 0.930 . S
C190 O197 1.259 . S
C190 O198 1.258 . S
N191 Co182 2.057 . S
N191 C192 1.316 . S
N191 C193 1.375 . S
C192 N191 1.316 . S
C192 N194 1.347 . S
C192 H203 0.931 . S
C193 N191 1.375 . S
C193 C195 1.350 . S
C193 H202 0.930 . S
N194 C192 1.347 . S
N194 C195 1.373 . S
C195 C193 1.350 . S
C195 N194 1.373 . S
C195 H209 0.931 . S
C196 O199 1.256 . S
C196 O200 1.255 . S
O197 Co180 2.021 . S
O197 C190 1.259 . S
O198 Co182 2.117 . S
O198 C190 1.258 . S
O199 Co182 2.020 . S
O199 C196 1.256 . S
O200 Co180 2.062 . S
O200 C196 1.255 . S
O201 C181 1.259 . S
O201 Co182 2.021 . S
H202 C193 0.930 . S
H203 C192 0.931 . S
O204 Co180 2.117 . S
O204 C181 1.258 . S
O205 Co180 2.020 . S
O205 C207 1.256 . S
O206 Co182 2.062 . S
O206 C207 1.255 . S
C207 O205 1.256 . S
C207 O206 1.255 . S
H208 C187 0.931 . S
H209 C195 0.931 . S
Co210 N215 2.057 . S
Co210 O227 2.021 . S
Co210 O230 2.062 . S
Co210 O234 2.117 . S
Co210 O235 2.020 . S
C211 O231 1.259 . S
C211 O234 1.258 . S
Co212 N221 2.057 . S
Co212 O228 2.117 . S
Co212 O229 2.020 . S
Co212 O231 2.021 . S
Co212 O236 2.062 . S
C213 N215 1.316 . S
C213 N216 1.347 . S
C213 H218 0.931 . S
C214 N215 1.375 . S
C214 C217 1.350 . S
C214 H219 0.930 . S
N215 Co210 2.057 . S
N215 C213 1.316 . S
N215 C214 1.375 . S
N216 C213 1.347 . S
N216 C217 1.373 . S
C217 C214 1.350 . S
C217 N216 1.373 . S
C217 H238 0.931 . S
H218 C213 0.931 . S
H219 C214 0.930 . S
C220 O227 1.259 . S
C220 O228 1.258 . S
N221 Co212 2.057 . S
N221 C222 1.316 . S
N221 C223 1.375 . S
C222 N221 1.316 . S
C222 N224 1.347 . S
C222 H233 0.931 . S
C223 N221 1.375 . S
C223 C225 1.350 . S
C223 H232 0.930 . S
N224 C222 1.347 . S
N224 C225 1.373 . S
C225 C223 1.350 . S
C225 N224 1.373 . S
C225 H239 0.931 . S
C226 O229 1.256 . S
C226 O230 1.255 . S
O227 Co210 2.021 . S
O227 C220 1.259 . S
O228 Co212 2.117 . S
O228 C220 1.258 . S
O229 Co212 2.020 . S
O229 C226 1.256 . S
O230 Co210 2.062 . S
O230 C226 1.255 . S
O231 C211 1.259 . S
O231 Co212 2.021 . S
H232 C223 0.930 . S
H233 C222 0.931 . S
O234 Co210 2.117 . S
O234 C211 1.258 . S
O235 Co210 2.020 . S
O235 C237 1.256 . S
O236 Co212 2.062 . S
O236 C237 1.255 . S
C237 O235 1.256 . S
C237 O236 1.255 . S
H238 C217 0.931 . S
H239 C225 0.931 . S
Co240 N245 2.057 . S
Co240 O257 2.021 . S
Co240 O260 2.062 . S
Co240 O264 2.117 . S
Co240 O265 2.020 . S
C241 O261 1.259 . S
C241 O264 1.258 . S
Co242 N251 2.057 . S
Co242 O258 2.117 . S
Co242 O259 2.020 . S
Co242 O261 2.021 . S
Co242 O266 2.062 . S
C243 N245 1.316 . S
C243 N246 1.347 . S
C243 H248 0.931 . S
C244 N245 1.375 . S
C244 C247 1.350 . S
C244 H249 0.930 . S
N245 Co240 2.057 . S
N245 C243 1.316 . S
N245 C244 1.375 . S
N246 C243 1.347 . S
N246 C247 1.373 . S
C247 C244 1.350 . S
C247 N246 1.373 . S
C247 H268 0.931 . S
H248 C243 0.931 . S
H249 C244 0.930 . S
C250 O257 1.259 . S
C250 O258 1.258 . S
N251 Co242 2.057 . S
N251 C252 1.316 . S
N251 C253 1.375 . S
C252 N251 1.316 . S
C252 N254 1.347 . S
C252 H263 0.931 . S
C253 N251 1.375 . S
C253 C255 1.350 . S
C253 H262 0.930 . S
N254 C252 1.347 . S
N254 C255 1.373 . S
C255 C253 1.350 . S
C255 N254 1.373 . S
C255 H269 0.931 . S
C256 O259 1.256 . S
C256 O260 1.255 . S
O257 Co240 2.021 . S
O257 C250 1.259 . S
O258 Co242 2.117 . S
O258 C250 1.258 . S
O259 Co242 2.020 . S
O259 C256 1.256 . S
O260 Co240 2.062 . S
O260 C256 1.255 . S
O261 C241 1.259 . S
O261 Co242 2.021 . S
H262 C253 0.930 . S
H263 C252 0.931 . S
O264 Co240 2.117 . S
O264 C241 1.258 . S
O265 Co240 2.020 . S
O265 C267 1.256 . S
O266 Co242 2.062 . S
O266 C267 1.255 . S
C267 O265 1.256 . S
C267 O266 1.255 . S
H268 C247 0.931 . S
H269 C255 0.931 . S
Co270 N275 2.057 . S
Co270 O287 2.021 . S
Co270 O290 2.062 . S
Co270 O294 2.117 . S
Co270 O295 2.020 . S
C271 O291 1.259 . S
C271 O294 1.258 . S
Co272 N281 2.057 . S
Co272 O288 2.117 . S
Co272 O289 2.020 . S
Co272 O291 2.021 . S
Co272 O296 2.062 . S
C273 N275 1.316 . S
C273 N276 1.347 . S
C273 H278 0.931 . S
C274 N275 1.375 . S
C274 C277 1.350 . S
C274 H279 0.930 . S
N275 Co270 2.057 . S
N275 C273 1.316 . S
N275 C274 1.375 . S
N276 C273 1.347 . S
N276 C277 1.373 . S
C277 C274 1.350 . S
C277 N276 1.373 . S
C277 H298 0.931 1_545 S
H278 C273 0.931 . S
H279 C274 0.930 . S
C280 O287 1.259 . S
C280 O288 1.258 . S
N281 Co272 2.057 . S
N281 C282 1.316 . S
N281 C283 1.375 . S
C282 N281 1.316 . S
C282 N284 1.347 . S
C282 H293 0.931 . S
C283 N281 1.375 . S
C283 C285 1.350 . S
C283 H292 0.930 . S
N284 C282 1.347 . S
N284 C285 1.373 . S
C285 C283 1.350 . S
C285 N284 1.373 . S
C285 H299 0.931 . S
C286 O289 1.256 . S
C286 O290 1.255 . S
O287 Co270 2.021 . S
O287 C280 1.259 . S
O288 Co272 2.117 . S
O288 C280 1.258 . S
O289 Co272 2.020 . S
O289 C286 1.256 . S
O290 Co270 2.062 . S
O290 C286 1.255 . S
O291 C271 1.259 . S
O291 Co272 2.021 . S
H292 C283 0.930 . S
H293 C282 0.931 . S
O294 Co270 2.117 . S
O294 C271 1.258 . S
O295 Co270 2.020 . S
O295 C297 1.256 . S
O296 Co272 2.062 . S
O296 C297 1.255 . S
C297 O295 1.256 . S
C297 O296 1.255 . S
H298 C277 0.931 1_565 S
H299 C285 0.931 . S
Co300 N305 2.057 . S
Co300 O317 2.021 . S
Co300 O320 2.062 . S
Co300 O324 2.117 1_556 S
Co300 O325 2.020 . S
C301 O321 1.259 . S
C301 O324 1.258 . S
Co302 N311 2.057 . S
Co302 O318 2.117 1_554 S
Co302 O319 2.020 . S
Co302 O321 2.021 . S
Co302 O326 2.062 . S
C303 N305 1.316 . S
C303 N306 1.347 . S
C303 H308 0.931 . S
C304 N305 1.375 . S
C304 C307 1.350 . S
C304 H309 0.930 . S
N305 Co300 2.057 . S
N305 C303 1.316 . S
N305 C304 1.375 . S
N306 C303 1.347 . S
N306 C307 1.373 . S
C307 C304 1.350 . S
C307 N306 1.373 . S
C307 H328 0.931 . S
H308 C303 0.931 . S
H309 C304 0.930 . S
C310 O317 1.259 . S
C310 O318 1.258 . S
N311 Co302 2.057 . S
N311 C312 1.316 . S
N311 C313 1.375 . S
C312 N311 1.316 . S
C312 N314 1.347 . S
C312 H323 0.931 . S
C313 N311 1.375 . S
C313 C315 1.350 . S
C313 H322 0.930 . S
N314 C312 1.347 . S
N314 C315 1.373 . S
C315 C313 1.350 . S
C315 N314 1.373 . S
C315 H329 0.931 . S
C316 O319 1.256 . S
C316 O320 1.255 1_554 S
O317 Co300 2.021 . S
O317 C310 1.259 . S
O318 Co302 2.117 1_556 S
O318 C310 1.258 . S
O319 Co302 2.020 . S
O319 C316 1.256 . S
O320 Co300 2.062 . S
O320 C316 1.255 1_556 S
O321 C301 1.259 . S
O321 Co302 2.021 . S
H322 C313 0.930 . S
H323 C312 0.931 . S
O324 Co300 2.117 1_554 S
O324 C301 1.258 . S
O325 Co300 2.020 . S
O325 C327 1.256 . S
O326 Co302 2.062 . S
O326 C327 1.255 1_554 S
C327 O325 1.256 . S
C327 O326 1.255 1_556 S
H328 C307 0.931 . S
H329 C315 0.931 . S
Co330 N335 2.057 . S
Co330 O347 2.021 . S
Co330 O350 2.062 . S
Co330 O354 2.117 . S
Co330 O355 2.020 . S
C331 O351 1.259 . S
C331 O354 1.258 . S
Co332 N341 2.057 . S
Co332 O348 2.117 . S
Co332 O349 2.020 . S
Co332 O351 2.021 . S
Co332 O356 2.062 . S
C333 N335 1.316 . S
C333 N336 1.347 . S
C333 H338 0.931 . S
C334 N335 1.375 . S
C334 C337 1.350 . S
C334 H339 0.930 . S
N335 Co330 2.057 . S
N335 C333 1.316 . S
N335 C334 1.375 . S
N336 C333 1.347 . S
N336 C337 1.373 . S
C337 C334 1.350 . S
C337 N336 1.373 . S
C337 H358 0.931 . S
H338 C333 0.931 . S
H339 C334 0.930 . S
C340 O347 1.259 . S
C340 O348 1.258 . S
N341 Co332 2.057 . S
N341 C342 1.316 . S
N341 C343 1.375 . S
C342 N341 1.316 . S
C342 N344 1.347 . S
C342 H353 0.931 . S
C343 N341 1.375 . S
C343 C345 1.350 . S
C343 H352 0.930 . S
N344 C342 1.347 . S
N344 C345 1.373 . S
C345 C343 1.350 . S
C345 N344 1.373 . S
C345 H359 0.931 . S
C346 O349 1.256 . S
C346 O350 1.255 . S
O347 Co330 2.021 . S
O347 C340 1.259 . S
O348 Co332 2.117 . S
O348 C340 1.258 . S
O349 Co332 2.020 . S
O349 C346 1.256 . S
O350 Co330 2.062 . S
O350 C346 1.255 . S
O351 C331 1.259 . S
O351 Co332 2.021 . S
H352 C343 0.930 . S
H353 C342 0.931 . S
O354 Co330 2.117 . S
O354 C331 1.258 . S
O355 Co330 2.020 . S
O355 C357 1.256 . S
O356 Co332 2.062 . S
O356 C357 1.255 . S
C357 O355 1.256 . S
C357 O356 1.255 . S
H358 C337 0.931 . S
H359 C345 0.931 . S
Co360 N365 2.057 . S
Co360 O377 2.021 . S
Co360 O380 2.062 . S
Co360 O384 2.117 . S
Co360 O385 2.020 . S
C361 O381 1.259 . S
C361 O384 1.258 . S
Co362 N371 2.057 . S
Co362 O378 2.117 . S
Co362 O379 2.020 . S
Co362 O381 2.021 . S
Co362 O386 2.062 . S
C363 N365 1.316 . S
C363 N366 1.347 . S
C363 H368 0.931 . S
C364 N365 1.375 . S
C364 C367 1.350 . S
C364 H369 0.930 . S
N365 Co360 2.057 . S
N365 C363 1.316 . S
N365 C364 1.375 . S
N366 C363 1.347 . S
N366 C367 1.373 . S
C367 C364 1.350 . S
C367 N366 1.373 . S
C367 H388 0.931 . S
H368 C363 0.931 . S
H369 C364 0.930 . S
C370 O377 1.259 . S
C370 O378 1.258 . S
N371 Co362 2.057 . S
N371 C372 1.316 . S
N371 C373 1.375 . S
C372 N371 1.316 . S
C372 N374 1.347 . S
C372 H383 0.931 . S
C373 N371 1.375 . S
C373 C375 1.350 . S
C373 H382 0.930 . S
N374 C372 1.347 . S
N374 C375 1.373 . S
C375 C373 1.350 . S
C375 N374 1.373 . S
C375 H389 0.931 . S
C376 O379 1.256 . S
C376 O380 1.255 . S
O377 Co360 2.021 . S
O377 C370 1.259 . S
O378 Co362 2.117 . S
O378 C370 1.258 . S
O379 Co362 2.020 . S
O379 C376 1.256 . S
O380 Co360 2.062 . S
O380 C376 1.255 . S
O381 C361 1.259 . S
O381 Co362 2.021 . S
H382 C373 0.930 . S
H383 C372 0.931 . S
O384 Co360 2.117 . S
O384 C361 1.258 . S
O385 Co360 2.020 . S
O385 C387 1.256 . S
O386 Co362 2.062 . S
O386 C387 1.255 . S
C387 O385 1.256 . S
C387 O386 1.255 . S
H388 C367 0.931 . S
H389 C375 0.931 . S
Co390 N395 2.057 . S
Co390 O407 2.021 . S
Co390 O410 2.062 . S
Co390 O414 2.117 . S
Co390 O415 2.020 . S
C391 O411 1.259 . S
C391 O414 1.258 . S
Co392 N401 2.057 . S
Co392 O408 2.117 . S
Co392 O409 2.020 . S
Co392 O411 2.021 . S
Co392 O416 2.062 . S
C393 N395 1.316 . S
C393 N396 1.347 . S
C393 H398 0.931 . S
C394 N395 1.375 . S
C394 C397 1.350 . S
C394 H399 0.930 . S
N395 Co390 2.057 . S
N395 C393 1.316 . S
N395 C394 1.375 . S
N396 C393 1.347 . S
N396 C397 1.373 . S
C397 C394 1.350 . S
C397 N396 1.373 . S
C397 H418 0.931 . S
H398 C393 0.931 . S
H399 C394 0.930 . S
C400 O407 1.259 . S
C400 O408 1.258 . S
N401 Co392 2.057 . S
N401 C402 1.316 . S
N401 C403 1.375 . S
C402 N401 1.316 . S
C402 N404 1.347 . S
C402 H413 0.931 . S
C403 N401 1.375 . S
C403 C405 1.350 . S
C403 H412 0.930 . S
N404 C402 1.347 . S
N404 C405 1.373 . S
C405 C403 1.350 . S
C405 N404 1.373 . S
C405 H419 0.931 1_565 S
C406 O409 1.256 . S
C406 O410 1.255 . S
O407 Co390 2.021 . S
O407 C400 1.259 . S
O408 Co392 2.117 . S
O408 C400 1.258 . S
O409 Co392 2.020 . S
O409 C406 1.256 . S
O410 Co390 2.062 . S
O410 C406 1.255 . S
O411 C391 1.259 . S
O411 Co392 2.021 . S
H412 C403 0.930 . S
H413 C402 0.931 . S
O414 Co390 2.117 . S
O414 C391 1.258 . S
O415 Co390 2.020 . S
O415 C417 1.256 . S
O416 Co392 2.062 . S
O416 C417 1.255 . S
C417 O415 1.256 . S
C417 O416 1.255 . S
H418 C397 0.931 . S
H419 C405 0.931 1_545 S
Co420 N425 2.057 . S
Co420 O437 2.021 . S
Co420 O440 2.062 . S
Co420 O444 2.117 1_556 S
Co420 O445 2.020 . S
C421 O441 1.259 . S
C421 O444 1.258 . S
Co422 N431 2.057 . S
Co422 O438 2.117 1_554 S
Co422 O439 2.020 . S
Co422 O441 2.021 . S
Co422 O446 2.062 . S
C423 N425 1.316 . S
C423 N426 1.347 . S
C423 H428 0.931 . S
C424 N425 1.375 . S
C424 C427 1.350 . S
C424 H429 0.930 . S
N425 Co420 2.057 . S
N425 C423 1.316 . S
N425 C424 1.375 . S
N426 C423 1.347 . S
N426 C427 1.373 . S
C427 C424 1.350 . S
C427 N426 1.373 . S
C427 H448 0.931 . S
H428 C423 0.931 . S
H429 C424 0.930 . S
C430 O437 1.259 . S
C430 O438 1.258 . S
N431 Co422 2.057 . S
N431 C432 1.316 . S
N431 C433 1.375 . S
C432 N431 1.316 . S
C432 N434 1.347 . S
C432 H443 0.931 . S
C433 N431 1.375 . S
C433 C435 1.350 . S
C433 H442 0.930 . S
N434 C432 1.347 . S
N434 C435 1.373 . S
C435 C433 1.350 . S
C435 N434 1.373 . S
C435 H449 0.931 . S
C436 O439 1.256 . S
C436 O440 1.255 1_554 S
O437 Co420 2.021 . S
O437 C430 1.259 . S
O438 Co422 2.117 1_556 S
O438 C430 1.258 . S
O439 Co422 2.020 . S
O439 C436 1.256 . S
O440 Co420 2.062 . S
O440 C436 1.255 1_556 S
O441 C421 1.259 . S
O441 Co422 2.021 . S
H442 C433 0.930 . S
H443 C432 0.931 . S
O444 Co420 2.117 1_554 S
O444 C421 1.258 . S
O445 Co420 2.020 . S
O445 C447 1.256 . S
O446 Co422 2.062 . S
O446 C447 1.255 1_554 S
C447 O445 1.256 . S
C447 O446 1.255 1_556 S
H448 C427 0.931 . S
H449 C435 0.931 . S
Co450 N455 2.057 . S
Co450 O467 2.021 . S
Co450 O470 2.062 . S
Co450 O474 2.117 . S
Co450 O475 2.020 . S
C451 O471 1.259 . S
C451 O474 1.258 . S
Co452 N461 2.057 . S
Co452 O468 2.117 . S
Co452 O469 2.020 . S
Co452 O471 2.021 . S
Co452 O476 2.062 . S
C453 N455 1.316 . S
C453 N456 1.347 . S
C453 H458 0.931 . S
C454 N455 1.375 . S
C454 C457 1.350 . S
C454 H459 0.930 . S
N455 Co450 2.057 . S
N455 C453 1.316 . S
N455 C454 1.375 . S
N456 C453 1.347 . S
N456 C457 1.373 . S
C457 C454 1.350 . S
C457 N456 1.373 . S
C457 H478 0.931 . S
H458 C453 0.931 . S
H459 C454 0.930 . S
C460 O467 1.259 . S
C460 O468 1.258 . S
N461 Co452 2.057 . S
N461 C462 1.316 . S
N461 C463 1.375 . S
C462 N461 1.316 . S
C462 N464 1.347 . S
C462 H473 0.931 . S
C463 N461 1.375 . S
C463 C465 1.350 . S
C463 H472 0.930 . S
N464 C462 1.347 . S
N464 C465 1.373 . S
C465 C463 1.350 . S
C465 N464 1.373 . S
C465 H479 0.931 . S
C466 O469 1.256 . S
C466 O470 1.255 . S
O467 Co450 2.021 . S
O467 C460 1.259 . S
O468 Co452 2.117 . S
O468 C460 1.258 . S
O469 Co452 2.020 . S
O469 C466 1.256 . S
O470 Co450 2.062 . S
O470 C466 1.255 . S
O471 C451 1.259 . S
O471 Co452 2.021 . S
H472 C463 0.930 . S
H473 C462 0.931 . S
O474 Co450 2.117 . S
O474 C451 1.258 . S
O475 Co450 2.020 . S
O475 C477 1.256 . S
O476 Co452 2.062 . S
O476 C477 1.255 . S
C477 O475 1.256 . S
C477 O476 1.255 . S
H478 C457 0.931 . S
H479 C465 0.931 . S
H480 C488 0.950 . S
H481 C493 0.950 . S
H482 C490 0.950 . S
H483 C492 0.950 . S
H484 C494 0.950 . S
H485 C496 0.950 . S
H486 C498 0.940 1_556 S
H487 C499 0.950 1_556 S
C488 H480 0.950 . S
C488 C489 1.386 . S
C488 C490 1.391 . S
C489 C488 1.386 . S
C489 C493 1.393 . S
C490 H482 0.950 . S
C490 C488 1.391 . S
C490 C491 1.400 . S
C491 C490 1.400 . S
C491 C492 1.398 . S
C491 C497 1.491 . S
C492 H483 0.950 . S
C492 C491 1.398 . S
C492 C493 1.391 . S
C493 H481 0.950 . S
C493 C489 1.393 . S
C493 C492 1.391 . S
C494 H484 0.950 . S
C494 C495 1.386 . S
C494 C496 1.391 . S
C495 C494 1.386 . S
C495 C499 1.393 . S
C496 H485 0.950 . S
C496 C494 1.391 . S
C496 C497 1.400 . S
C497 C491 1.491 . S
C497 C496 1.400 . S
C497 C498 1.398 . S
C498 H486 0.940 1_554 S
C498 C497 1.398 . S
C498 C499 1.391 . S
C499 H487 0.950 1_554 S
C499 C495 1.393 . S
C499 C498 1.391 . S
H500 C508 0.950 . S
H501 C513 0.950 . S
H502 C510 0.950 . S
H503 C512 0.950 . S
H504 C514 0.950 . S
H505 C516 0.950 . S
H506 C518 0.950 . S
H507 C519 0.950 . S
C508 H500 0.950 . S
C508 C509 1.386 . S
C508 C510 1.391 . S
C509 C508 1.386 . S
C509 C513 1.393 . S
C510 H502 0.950 . S
C510 C508 1.391 . S
C510 C511 1.400 . S
C511 C510 1.400 . S
C511 C512 1.398 . S
C511 C517 1.491 . S
C512 H503 0.950 . S
C512 C511 1.398 . S
C512 C513 1.391 . S
C513 H501 0.950 . S
C513 C509 1.393 . S
C513 C512 1.391 . S
C514 H504 0.950 . S
C514 C515 1.386 . S
C514 C516 1.391 . S
C515 C514 1.386 . S
C515 C519 1.393 . S
C516 H505 0.950 . S
C516 C514 1.391 . S
C516 C517 1.400 . S
C517 C511 1.491 . S
C517 C516 1.400 . S
C517 C518 1.398 . S
C518 H506 0.950 . S
C518 C517 1.398 . S
C518 C519 1.391 . S
C519 H507 0.950 . S
C519 C515 1.393 . S
C519 C518 1.391 . S
H520 C528 0.950 . S
H521 C533 0.950 . S
H522 C530 0.950 . S
H523 C532 0.950 . S
H524 C534 0.950 . S
H525 C536 0.950 1_455 S
H526 C538 0.950 . S
H527 C539 0.950 . S
C528 H520 0.950 . S
C528 C529 1.386 . S
C528 C530 1.391 . S
C529 C528 1.386 . S
C529 C533 1.393 . S
C530 H522 0.950 . S
C530 C528 1.391 . S
C530 C531 1.400 . S
C531 C530 1.400 . S
C531 C532 1.398 . S
C531 C537 1.491 . S
C532 H523 0.950 . S
C532 C531 1.398 . S
C532 C533 1.391 . S
C533 H521 0.950 . S
C533 C529 1.393 . S
C533 C532 1.391 . S
C534 H524 0.950 . S
C534 C535 1.386 . S
C534 C536 1.391 . S
C535 C534 1.386 . S
C535 C539 1.393 . S
C536 H525 0.950 1_655 S
C536 C534 1.391 . S
C536 C537 1.400 1_655 S
C537 C531 1.491 . S
C537 C536 1.400 1_455 S
C537 C538 1.398 . S
C538 H526 0.950 . S
C538 C537 1.398 . S
C538 C539 1.391 1_455 S
C539 H527 0.950 . S
C539 C535 1.393 . S
C539 C538 1.391 1_655 S
H540 C548 0.950 . S
H541 C553 0.950 . S
H542 C550 0.950 . S
H543 C552 0.950 . S
H544 C554 0.950 . S
H545 C556 0.952 . S
H546 C558 0.958 . S
H547 C559 0.950 . S
C548 H540 0.950 . S
C548 C549 1.386 . S
C548 C550 1.391 . S
C549 C548 1.386 . S
C549 C553 1.393 . S
C550 H542 0.950 . S
C550 C548 1.391 . S
C550 C551 1.400 . S
C551 C550 1.400 . S
C551 C552 1.398 . S
C551 C557 1.491 . S
C552 H543 0.950 . S
C552 C551 1.398 . S
C552 C553 1.391 . S
C553 H541 0.950 . S
C553 C549 1.393 . S
C553 C552 1.391 . S
C554 H544 0.950 . S
C554 C555 1.386 . S
C554 C556 1.391 . S
C555 C554 1.386 . S
C555 C559 1.393 . S
C556 H545 0.952 . S
C556 C554 1.391 . S
C556 C557 1.400 1_455 S
C557 C551 1.491 . S
C557 C556 1.400 1_655 S
C557 C558 1.398 1_655 S
C558 H546 0.958 . S
C558 C557 1.398 1_455 S
C558 C559 1.391 . S
C559 H547 0.950 . S
C559 C555 1.393 . S
C559 C558 1.391 . S
H560 C568 0.950 . S
H561 C573 0.950 . S
H562 C570 0.950 . S
H563 C572 0.950 . S
H564 C574 0.950 . S
H565 C576 0.950 . S
H566 C578 0.950 1_554 S
H567 C579 0.950 1_554 S
C568 H560 0.950 . S
C568 C569 1.386 . S
C568 C570 1.391 . S
C569 C568 1.386 . S
C569 C573 1.393 . S
C570 H562 0.950 . S
C570 C568 1.391 . S
C570 C571 1.400 . S
C571 C570 1.400 . S
C571 C572 1.398 . S
C571 C577 1.491 . S
C572 H563 0.950 . S
C572 C571 1.398 . S
C572 C573 1.391 . S
C573 H561 0.950 . S
C573 C569 1.393 . S
C573 C572 1.391 . S
C574 H564 0.950 . S
C574 C575 1.386 . S
C574 C576 1.391 . S
C575 C574 1.386 . S
C575 C579 1.393 . S
C576 H565 0.950 . S
C576 C574 1.391 . S
C576 C577 1.400 . S
C577 C571 1.491 . S
C577 C576 1.400 . S
C577 C578 1.398 . S
C578 H566 0.950 1_556 S
C578 C577 1.398 . S
C578 C579 1.391 . S
C579 H567 0.950 1_556 S
C579 C575 1.393 . S
C579 C578 1.391 . S
H580 C588 0.950 . S
H581 C593 0.950 . S
H582 C590 0.950 . S
H583 C592 0.950 . S
H584 C594 0.950 . S
H585 C596 0.950 . S
H586 C598 0.950 . S
H587 C599 0.950 . S
C588 H580 0.950 . S
C588 C589 1.386 . S
C588 C590 1.391 . S
C589 C588 1.386 . S
C589 C593 1.393 . S
C590 H582 0.950 . S
C590 C588 1.391 . S
C590 C591 1.400 . S
C591 C590 1.400 . S
C591 C592 1.398 . S
C591 C597 1.491 . S
C592 H583 0.950 . S
C592 C591 1.398 . S
C592 C593 1.391 . S
C593 H581 0.950 . S
C593 C589 1.393 . S
C593 C592 1.391 . S
C594 H584 0.950 . S
C594 C595 1.386 . S
C594 C596 1.391 . S
C595 C594 1.386 . S
C595 C599 1.393 . S
C596 H585 0.950 . S
C596 C594 1.391 . S
C596 C597 1.400 . S
C597 C591 1.491 . S
C597 C596 1.400 . S
C597 C598 1.398 . S
C598 H586 0.950 . S
C598 C597 1.398 . S
C598 C599 1.391 . S
C599 H587 0.950 . S
C599 C595 1.393 . S
C599 C598 1.391 . S
H600 C608 0.950 . S
H601 C613 0.950 . S
H602 C610 0.950 . S
H603 C612 0.950 . S
H604 C614 0.950 . S
H605 C616 0.950 . S
H606 C618 0.949 1_655 S
H607 C619 0.950 . S
C608 H600 0.950 . S
C608 C609 1.386 . S
C608 C610 1.391 . S
C609 C608 1.386 . S
C609 C613 1.393 . S
C610 H602 0.950 . S
C610 C608 1.391 . S
C610 C611 1.400 . S
C611 C610 1.400 . S
C611 C612 1.398 . S
C611 C617 1.491 . S
C612 H603 0.950 . S
C612 C611 1.398 . S
C612 C613 1.391 . S
C613 H601 0.950 . S
C613 C609 1.393 . S
C613 C612 1.391 . S
C614 H604 0.950 . S
C614 C615 1.386 . S
C614 C616 1.391 1_455 S
C615 C614 1.386 . S
C615 C619 1.393 . S
C616 H605 0.950 . S
C616 C614 1.391 1_655 S
C616 C617 1.400 . S
C617 C611 1.491 . S
C617 C616 1.400 . S
C617 C618 1.398 1_655 S
C618 H606 0.949 1_455 S
C618 C617 1.398 1_455 S
C618 C619 1.391 . S
C619 H607 0.950 . S
C619 C615 1.393 . S
C619 C618 1.391 . S
H620 C628 0.950 . S
H621 C633 0.950 . S
H622 C630 0.950 1_655 S
H623 C632 0.950 . S
H624 C634 0.950 . S
H625 C636 0.950 . S
H626 C638 0.950 . S
H627 C639 0.950 . S
C628 H620 0.950 . S
C628 C629 1.386 . S
C628 C630 1.391 . S
C629 C628 1.386 . S
C629 C633 1.393 . S
C630 H622 0.950 1_455 S
C630 C628 1.391 . S
C630 C631 1.400 . S
C631 C630 1.400 . S
C631 C632 1.398 . S
C631 C637 1.491 . S
C632 H623 0.950 . S
C632 C631 1.398 . S
C632 C633 1.391 . S
C633 H621 0.950 . S
C633 C629 1.393 . S
C633 C632 1.391 . S
C634 H624 0.950 . S
C634 C635 1.386 1_455 S
C634 C636 1.391 . S
C635 C634 1.386 1_655 S
C635 C639 1.393 . S
C636 H625 0.950 . S
C636 C634 1.391 . S
C636 C637 1.400 . S
C637 C631 1.491 . S
C637 C636 1.400 . S
C637 C638 1.398 1_455 S
C638 H626 0.950 . S
C638 C637 1.398 1_655 S
C638 C639 1.391 . S
C639 H627 0.950 . S
C639 C635 1.393 . S
C639 C638 1.391 . S
H640 C648 0.950 . S
H641 C653 0.950 . S
H642 C650 0.950 . S
H643 C652 0.950 . S
H644 C654 0.950 . S
H645 C656 0.950 . S
H646 C658 0.957 . S
H647 C659 0.950 . S
C648 H640 0.950 . S
C648 C649 1.386 . S
C648 C650 1.391 . S
C649 C648 1.386 . S
C649 C653 1.393 . S
C650 H642 0.950 . S
C650 C648 1.391 . S
C650 C651 1.400 . S
C651 C650 1.400 . S
C651 C652 1.398 . S
C651 C657 1.491 . S
C652 H643 0.950 . S
C652 C651 1.398 . S
C652 C653 1.391 . S
C653 H641 0.950 . S
C653 C649 1.393 . S
C653 C652 1.391 . S
C654 H644 0.950 . S
C654 C655 1.386 . S
C654 C656 1.391 . S
C655 C654 1.386 . S
C655 C659 1.393 1_556 S
C656 H645 0.950 . S
C656 C654 1.391 . S
C656 C657 1.400 . S
C657 C651 1.491 . S
C657 C656 1.400 . S
C657 C658 1.398 . S
C658 H646 0.957 . S
C658 C657 1.398 . S
C658 C659 1.391 1_556 S
C659 H647 0.950 . S
C659 C655 1.393 1_554 S
C659 C658 1.391 1_554 S
H660 C668 0.950 . S
H661 C673 0.950 . S
H662 C670 0.950 . S
H663 C672 0.950 . S
H664 C674 0.950 . S
H665 C676 0.950 . S
H666 C678 0.950 . S
H667 C679 0.950 . S
C668 H660 0.950 . S
C668 C669 1.386 . S
C668 C670 1.391 . S
C669 C668 1.386 . S
C669 C673 1.393 . S
C670 H662 0.950 . S
C670 C668 1.391 . S
C670 C671 1.400 . S
C671 C670 1.400 . S
C671 C672 1.398 . S
C671 C677 1.491 . S
C672 H663 0.950 . S
C672 C671 1.398 . S
C672 C673 1.391 . S
C673 H661 0.950 . S
C673 C669 1.393 . S
C673 C672 1.391 . S
C674 H664 0.950 . S
C674 C675 1.386 . S
C674 C676 1.391 . S
C675 C674 1.386 . S
C675 C679 1.393 . S
C676 H665 0.950 . S
C676 C674 1.391 . S
C676 C677 1.400 . S
C677 C671 1.491 . S
C677 C676 1.400 . S
C677 C678 1.398 . S
C678 H666 0.950 . S
C678 C677 1.398 . S
C678 C679 1.391 . S
C679 H667 0.950 . S
C679 C675 1.393 . S
C679 C678 1.391 . S
H680 C688 0.950 . S
H681 C693 0.950 . S
H682 C690 0.950 . S
H683 C692 0.950 . S
H684 C694 0.950 . S
H685 C696 0.950 . S
H686 C698 0.950 . S
H687 C699 0.950 . S
C688 H680 0.950 . S
C688 C689 1.386 . S
C688 C690 1.391 . S
C689 C688 1.386 . S
C689 C693 1.393 . S
C690 H682 0.950 . S
C690 C688 1.391 . S
C690 C691 1.400 . S
C691 C690 1.400 . S
C691 C692 1.398 . S
C691 C697 1.491 . S
C692 H683 0.950 . S
C692 C691 1.398 . S
C692 C693 1.391 . S
C693 H681 0.950 . S
C693 C689 1.393 . S
C693 C692 1.391 . S
C694 H684 0.950 . S
C694 C695 1.386 . S
C694 C696 1.391 . S
C695 C694 1.386 . S
C695 C699 1.393 . S
C696 H685 0.950 . S
C696 C694 1.391 . S
C696 C697 1.400 . S
C697 C691 1.491 . S
C697 C696 1.400 . S
C697 C698 1.398 . S
C698 H686 0.950 . S
C698 C697 1.398 . S
C698 C699 1.391 . S
C699 H687 0.950 . S
C699 C695 1.393 . S
C699 C698 1.391 . S
H700 C708 0.950 . S
H701 C713 0.950 . S
H702 C710 0.950 . S
H703 C712 0.950 . S
H704 C714 0.950 . S
H705 C716 0.950 . S
H706 C718 0.950 . S
H707 C719 0.950 . S
C708 H700 0.950 . S
C708 C709 1.386 . S
C708 C710 1.391 . S
C709 C708 1.386 . S
C709 C713 1.393 . S
C710 H702 0.950 . S
C710 C708 1.391 . S
C710 C711 1.400 . S
C711 C710 1.400 . S
C711 C712 1.398 . S
C711 C717 1.491 . S
C712 H703 0.950 . S
C712 C711 1.398 . S
C712 C713 1.391 . S
C713 H701 0.950 . S
C713 C709 1.393 . S
C713 C712 1.391 . S
C714 H704 0.950 . S
C714 C715 1.386 . S
C714 C716 1.391 . S
C715 C714 1.386 . S
C715 C719 1.393 . S
C716 H705 0.950 . S
C716 C714 1.391 . S
C716 C717 1.400 . S
C717 C711 1.491 . S
C717 C716 1.400 . S
C717 C718 1.398 . S
C718 H706 0.950 . S
C718 C717 1.398 . S
C718 C719 1.391 . S
C719 H707 0.950 . S
C719 C715 1.393 . S
C719 C718 1.391 . S
H720 C728 0.950 1_556 S
H721 C733 0.950 . S
H722 C730 0.950 . S
H723 C732 0.950 . S
H724 C734 0.950 . S
H725 C736 0.950 . S
H726 C738 0.950 . S
H727 C739 0.950 . S
C728 H720 0.950 1_554 S
C728 C729 1.386 . S
C728 C730 1.391 . S
C729 C728 1.386 . S
C729 C733 1.393 . S
C730 H722 0.950 . S
C730 C728 1.391 . S
C730 C731 1.400 . S
C731 C730 1.400 . S
C731 C732 1.398 . S
C731 C737 1.491 . S
C732 H723 0.950 . S
C732 C731 1.398 . S
C732 C733 1.391 . S
C733 H721 0.950 . S
C733 C729 1.393 . S
C733 C732 1.391 . S
C734 H724 0.950 . S
C734 C735 1.386 . S
C734 C736 1.391 . S
C735 C734 1.386 . S
C735 C739 1.393 . S
C736 H725 0.950 . S
C736 C734 1.391 . S
C736 C737 1.400 . S
C737 C731 1.491 . S
C737 C736 1.400 . S
C737 C738 1.398 . S
C738 H726 0.950 . S
C738 C737 1.398 . S
C738 C739 1.391 . S
C739 H727 0.950 . S
C739 C735 1.393 . S
C739 C738 1.391 . S
H740 C748 0.950 . S
H741 C753 0.950 . S
H742 C750 0.950 . S
H743 C752 0.950 . S
H744 C754 0.950 . S
H745 C756 0.950 . S
H746 C758 0.950 . S
H747 C759 0.950 . S
C748 H740 0.950 . S
C748 C749 1.386 . S
C748 C750 1.391 . S
C749 C748 1.386 . S
C749 C753 1.393 . S
C750 H742 0.950 . S
C750 C748 1.391 . S
C750 C751 1.400 . S
C751 C750 1.400 . S
C751 C752 1.398 . S
C751 C757 1.491 . S
C752 H743 0.950 . S
C752 C751 1.398 . S
C752 C753 1.391 . S
C753 H741 0.950 . S
C753 C749 1.393 . S
C753 C752 1.391 . S
C754 H744 0.950 . S
C754 C755 1.386 . S
C754 C756 1.391 . S
C755 C754 1.386 . S
C755 C759 1.393 . S
C756 H745 0.950 . S
C756 C754 1.391 . S
C756 C757 1.400 . S
C757 C751 1.491 . S
C757 C756 1.400 . S
C757 C758 1.398 . S
C758 H746 0.950 . S
C758 C757 1.398 . S
C758 C759 1.391 . S
C759 H747 0.950 . S
C759 C755 1.393 . S
C759 C758 1.391 . S
H760 C768 0.950 . S
H761 C773 0.950 . S
H762 C770 0.950 . S
H763 C772 0.950 . S
H764 C774 0.950 . S
H765 C776 0.950 . S
H766 C778 0.950 . S
H767 C779 0.950 . S
C768 H760 0.950 . S
C768 C769 1.386 . S
C768 C770 1.391 . S
C769 C768 1.386 . S
C769 C773 1.393 . S
C770 H762 0.950 . S
C770 C768 1.391 . S
C770 C771 1.400 . S
C771 C770 1.400 . S
C771 C772 1.398 . S
C771 C777 1.491 . S
C772 H763 0.950 . S
C772 C771 1.398 . S
C772 C773 1.391 . S
C773 H761 0.950 . S
C773 C769 1.393 . S
C773 C772 1.391 . S
C774 H764 0.950 . S
C774 C775 1.386 . S
C774 C776 1.391 . S
C775 C774 1.386 . S
C775 C779 1.393 . S
C776 H765 0.950 . S
C776 C774 1.391 . S
C776 C777 1.400 . S
C777 C771 1.491 . S
C777 C776 1.400 . S
C777 C778 1.398 . S
C778 H766 0.950 . S
C778 C777 1.398 . S
C778 C779 1.391 . S
C779 H767 0.950 . S
C779 C775 1.393 . S
C779 C778 1.391 . S
H780 C788 0.950 . S
H781 C793 0.950 . S
H782 C790 0.950 . S
H783 C792 0.950 . S
H784 C794 0.950 . S
H785 C796 0.950 . S
H786 C798 0.950 . S
H787 C799 0.950 . S
C788 H780 0.950 . S
C788 C789 1.386 . S
C788 C790 1.391 . S
C789 C788 1.386 . S
C789 C793 1.393 . S
C790 H782 0.950 . S
C790 C788 1.391 . S
C790 C791 1.400 . S
C791 C790 1.400 . S
C791 C792 1.398 . S
C791 C797 1.491 . S
C792 H783 0.950 . S
C792 C791 1.398 . S
C792 C793 1.391 . S
C793 H781 0.950 . S
C793 C789 1.393 . S
C793 C792 1.391 . S
C794 H784 0.950 . S
C794 C795 1.386 . S
C794 C796 1.391 . S
C795 C794 1.386 . S
C795 C799 1.393 . S
C796 H785 0.950 . S
C796 C794 1.391 . S
C796 C797 1.400 . S
C797 C791 1.491 . S
C797 C796 1.400 . S
C797 C798 1.398 . S
C798 H786 0.950 . S
C798 C797 1.398 . S
C798 C799 1.391 . S
C799 H787 0.950 . S
C799 C795 1.393 . S
C799 C798 1.391 . S
H800 C808 0.950 . S
H801 C813 0.950 . S
H802 C810 0.950 . S
H803 C812 0.950 . S
H804 C814 0.950 . S
H805 C816 0.950 . S
H806 C818 0.950 . S
H807 C819 0.950 . S
C808 H800 0.950 . S
C808 C809 1.386 . S
C808 C810 1.391 . S
C809 C808 1.386 . S
C809 C813 1.393 . S
C810 H802 0.950 . S
C810 C808 1.391 . S
C810 C811 1.400 . S
C811 C810 1.400 . S
C811 C812 1.398 . S
C811 C817 1.491 . S
C812 H803 0.950 . S
C812 C811 1.398 . S
C812 C813 1.391 . S
C813 H801 0.950 . S
C813 C809 1.393 . S
C813 C812 1.391 . S
C814 H804 0.950 . S
C814 C815 1.386 . S
C814 C816 1.391 . S
C815 C814 1.386 . S
C815 C819 1.393 . S
C816 H805 0.950 . S
C816 C814 1.391 . S
C816 C817 1.400 . S
C817 C811 1.491 . S
C817 C816 1.400 . S
C817 C818 1.398 . S
C818 H806 0.950 . S
C818 C817 1.398 . S
C818 C819 1.391 . S
C819 H807 0.950 . S
C819 C815 1.393 . S
C819 C818 1.391 . S
H820 C828 0.950 . S
H821 C833 0.950 . S
H822 C830 0.950 . S
H823 C832 0.950 . S
H824 C834 0.950 . S
H825 C836 0.950 . S
H826 C838 0.950 . S
H827 C839 0.950 . S
C828 H820 0.950 . S
C828 C829 1.386 . S
C828 C830 1.391 . S
C829 C828 1.386 . S
C829 C833 1.393 . S
C830 H822 0.950 . S
C830 C828 1.391 . S
C830 C831 1.400 . S
C831 C830 1.400 . S
C831 C832 1.398 . S
C831 C837 1.491 . S
C832 H823 0.950 . S
C832 C831 1.398 . S
C832 C833 1.391 . S
C833 H821 0.950 . S
C833 C829 1.393 . S
C833 C832 1.391 . S
C834 H824 0.950 . S
C834 C835 1.386 . S
C834 C836 1.391 . S
C835 C834 1.386 . S
C835 C839 1.393 . S
C836 H825 0.950 . S
C836 C834 1.391 . S
C836 C837 1.400 . S
C837 C831 1.491 . S
C837 C836 1.400 . S
C837 C838 1.398 . S
C838 H826 0.950 . S
C838 C837 1.398 . S
C838 C839 1.391 . S
C839 H827 0.950 . S
C839 C835 1.393 . S
C839 C838 1.391 . S
H840 C848 0.950 . S
H841 C853 0.950 . S
H842 C850 0.950 . S
H843 C852 0.950 . S
H844 C854 0.950 . S
H845 C856 0.950 . S
H846 C858 0.950 . S
H847 C859 0.950 . S
C848 H840 0.950 . S
C848 C849 1.386 . S
C848 C850 1.391 . S
C849 C848 1.386 . S
C849 C853 1.393 . S
C850 H842 0.950 . S
C850 C848 1.391 . S
C850 C851 1.400 . S
C851 C850 1.400 . S
C851 C852 1.398 . S
C851 C857 1.491 . S
C852 H843 0.950 . S
C852 C851 1.398 . S
C852 C853 1.391 . S
C853 H841 0.950 . S
C853 C849 1.393 . S
C853 C852 1.391 . S
C854 H844 0.950 . S
C854 C855 1.386 . S
C854 C856 1.391 . S
C855 C854 1.386 . S
C855 C859 1.393 . S
C856 H845 0.950 . S
C856 C854 1.391 . S
C856 C857 1.400 . S
C857 C851 1.491 . S
C857 C856 1.400 . S
C857 C858 1.398 . S
C858 H846 0.950 . S
C858 C857 1.398 . S
C858 C859 1.391 . S
C859 H847 0.950 . S
C859 C855 1.393 . S
C859 C858 1.391 . S
H860 C868 0.950 . S
H861 C873 0.950 . S
H862 C870 0.950 . S
H863 C872 0.950 . S
H864 C874 0.950 . S
H865 C876 0.950 . S
H866 C878 0.950 . S
H867 C879 0.950 . S
C868 H860 0.950 . S
C868 C869 1.386 . S
C868 C870 1.391 . S
C869 C868 1.386 . S
C869 C873 1.393 . S
C870 H862 0.950 . S
C870 C868 1.391 . S
C870 C871 1.400 . S
C871 C870 1.400 . S
C871 C872 1.398 . S
C871 C877 1.491 . S
C872 H863 0.950 . S
C872 C871 1.398 . S
C872 C873 1.391 . S
C873 H861 0.950 . S
C873 C869 1.393 . S
C873 C872 1.391 . S
C874 H864 0.950 . S
C874 C875 1.386 . S
C874 C876 1.391 . S
C875 C874 1.386 . S
C875 C879 1.393 . S
C876 H865 0.950 . S
C876 C874 1.391 . S
C876 C877 1.400 . S
C877 C871 1.491 . S
C877 C876 1.400 . S
C877 C878 1.398 . S
C878 H866 0.950 . S
C878 C877 1.398 . S
C878 C879 1.391 . S
C879 H867 0.950 . S
C879 C875 1.393 . S
C879 C878 1.391 . S
H880 C888 0.950 . S
H881 C893 0.950 . S
H882 C890 0.950 . S
H883 C892 0.950 . S
H884 C894 0.950 . S
H885 C896 0.950 . S
H886 C898 0.950 . S
H887 C899 0.950 . S
C888 H880 0.950 . S
C888 C889 1.386 . S
C888 C890 1.391 . S
C889 C888 1.386 . S
C889 C893 1.393 . S
C890 H882 0.950 . S
C890 C888 1.391 . S
C890 C891 1.400 . S
C891 C890 1.400 . S
C891 C892 1.398 . S
C891 C897 1.491 . S
C892 H883 0.950 . S
C892 C891 1.398 . S
C892 C893 1.391 . S
C893 H881 0.950 . S
C893 C889 1.393 . S
C893 C892 1.391 . S
C894 H884 0.950 . S
C894 C895 1.386 . S
C894 C896 1.391 . S
C895 C894 1.386 . S
C895 C899 1.393 . S
C896 H885 0.950 . S
C896 C894 1.391 . S
C896 C897 1.400 . S
C897 C891 1.491 . S
C897 C896 1.400 . S
C897 C898 1.398 . S
C898 H886 0.950 . S
C898 C897 1.398 . S
C898 C899 1.391 . S
C899 H887 0.950 . S
C899 C895 1.393 . S
C899 C898 1.391 . S
H900 C908 0.950 . S
H901 C913 0.950 . S
H902 C910 0.950 . S
H903 C912 0.950 . S
H904 C914 0.950 1_565 S
H905 C916 0.950 . S
H906 C918 0.950 . S
H907 C919 0.950 . S
C908 H900 0.950 . S
C908 C909 1.386 . S
C908 C910 1.391 . S
C909 C908 1.386 . S
C909 C913 1.393 . S
C910 H902 0.950 . S
C910 C908 1.391 . S
C910 C911 1.400 . S
C911 C910 1.400 . S
C911 C912 1.398 . S
C911 C917 1.491 . S
C912 H903 0.950 . S
C912 C911 1.398 . S
C912 C913 1.391 . S
C913 H901 0.950 . S
C913 C909 1.393 . S
C913 C912 1.391 . S
C914 H904 0.950 1_545 S
C914 C915 1.386 . S
C914 C916 1.391 . S
C915 C914 1.386 . S
C915 C919 1.393 . S
C916 H905 0.950 . S
C916 C914 1.391 . S
C916 C917 1.400 . S
C917 C911 1.491 . S
C917 C916 1.400 . S
C917 C918 1.398 . S
C918 H906 0.950 . S
C918 C917 1.398 . S
C918 C919 1.391 . S
C919 H907 0.950 . S
C919 C915 1.393 . S
C919 C918 1.391 . S
H920 C928 0.950 . S
H921 C933 0.950 . S
H922 C930 0.950 . S
H923 C932 0.950 . S
H924 C934 0.950 . S
H925 C936 0.950 . S
H926 C938 0.950 1_556 S
H927 C939 0.950 1_556 S
C928 H920 0.950 . S
C928 C929 1.386 . S
C928 C930 1.391 . S
C929 C928 1.386 . S
C929 C933 1.393 . S
C930 H922 0.950 . S
C930 C928 1.391 . S
C930 C931 1.400 . S
C931 C930 1.400 . S
C931 C932 1.398 . S
C931 C937 1.491 . S
C932 H923 0.950 . S
C932 C931 1.398 . S
C932 C933 1.391 . S
C933 H921 0.950 . S
C933 C929 1.393 . S
C933 C932 1.391 . S
C934 H924 0.950 . S
C934 C935 1.386 . S
C934 C936 1.391 . S
C935 C934 1.386 . S
C935 C939 1.393 . S
C936 H925 0.950 . S
C936 C934 1.391 . S
C936 C937 1.400 . S
C937 C931 1.491 . S
C937 C936 1.400 . S
C937 C938 1.398 . S
C938 H926 0.950 1_554 S
C938 C937 1.398 . S
C938 C939 1.391 . S
C939 H927 0.950 1_554 S
C939 C935 1.393 . S
C939 C938 1.391 . S
H940 C948 0.950 . S
H941 C953 0.950 . S
H942 C950 0.950 . S
H943 C952 0.950 . S
H944 C954 0.950 . S
H945 C956 0.950 . S
H946 C958 0.950 . S
H947 C959 0.950 . S
C948 H940 0.950 . S
C948 C949 1.386 . S
C948 C950 1.391 . S
C949 C948 1.386 . S
C949 C953 1.393 . S
C950 H942 0.950 . S
C950 C948 1.391 . S
C950 C951 1.400 . S
C951 C950 1.400 . S
C951 C952 1.398 . S
C951 C957 1.491 . S
C952 H943 0.950 . S
C952 C951 1.398 . S
C952 C953 1.391 . S
C953 H941 0.950 . S
C953 C949 1.393 . S
C953 C952 1.391 . S
C954 H944 0.950 . S
C954 C955 1.386 . S
C954 C956 1.391 . S
C955 C954 1.386 . S
C955 C959 1.393 . S
C956 H945 0.950 . S
C956 C954 1.391 . S
C956 C957 1.400 . S
C957 C951 1.491 . S
C957 C956 1.400 . S
C957 C958 1.398 . S
C958 H946 0.950 . S
C958 C957 1.398 . S
C958 C959 1.391 . S
C959 H947 0.950 . S
C959 C955 1.393 . S
C959 C958 1.391 . S
H960 C968 0.950 . S
H961 C973 0.950 . S
H962 C970 0.950 . S
H963 C972 0.950 . S
H964 C974 0.950 . S
H965 C976 0.950 . S
H966 C978 0.950 . S
H967 C979 0.950 . S
C968 H960 0.950 . S
C968 C969 1.386 . S
C968 C970 1.391 . S
C969 C968 1.386 . S
C969 C973 1.393 . S
C970 H962 0.950 . S
C970 C968 1.391 . S
C970 C971 1.400 . S
C971 C970 1.400 . S
C971 C972 1.398 . S
C971 C977 1.491 . S
C972 H963 0.950 . S
C972 C971 1.398 . S
C972 C973 1.391 . S
C973 H961 0.950 . S
C973 C969 1.393 . S
C973 C972 1.391 . S
C974 H964 0.950 . S
C974 C975 1.386 . S
C974 C976 1.391 . S
C975 C974 1.386 . S
C975 C979 1.393 . S
C976 H965 0.950 . S
C976 C974 1.391 . S
C976 C977 1.400 . S
C977 C971 1.491 . S
C977 C976 1.400 . S
C977 C978 1.398 . S
C978 H966 0.950 . S
C978 C977 1.398 . S
C978 C979 1.391 . S
C979 H967 0.950 . S
C979 C975 1.393 . S
C979 C978 1.391 . S
H980 C988 0.950 . S
H981 C993 0.950 . S
H982 C990 0.950 . S
H983 C992 0.950 . S
H984 C994 0.950 . S
H985 C996 0.950 . S
H986 C998 0.950 . S
H987 C999 0.950 . S
C988 H980 0.950 . S
C988 C989 1.386 . S
C988 C990 1.391 . S
C989 C988 1.386 . S
C989 C993 1.393 . S
C990 H982 0.950 . S
C990 C988 1.391 . S
C990 C991 1.400 . S
C991 C990 1.400 . S
C991 C992 1.398 . S
C991 C997 1.491 . S
C992 H983 0.950 . S
C992 C991 1.398 . S
C992 C993 1.391 . S
C993 H981 0.950 . S
C993 C989 1.393 . S
C993 C992 1.391 . S
C994 H984 0.950 . S
C994 C995 1.386 . S
C994 C996 1.391 . S
C995 C994 1.386 . S
C995 C999 1.393 . S
C996 H985 0.950 . S
C996 C994 1.391 . S
C996 C997 1.400 . S
C997 C991 1.491 . S
C997 C996 1.400 . S
C997 C998 1.398 . S
C998 H986 0.950 . S
C998 C997 1.398 . S
C998 C999 1.391 . S
C999 H987 0.950 . S
C999 C995 1.393 . S
C999 C998 1.391 . S
H1000 C1008 0.950 . S
H1001 C1013 0.938 1_655 S
H1002 C1010 0.950 . S
H1003 C1012 0.950 . S
H1004 C1014 0.950 . S
H1005 C1016 0.950 . S
H1006 C1018 0.950 . S
H1007 C1019 0.950 . S
C1008 H1000 0.950 . S
C1008 C1009 1.386 . S
C1008 C1010 1.391 1_655 S
C1009 C1008 1.386 . S
C1009 C1013 1.393 1_655 S
C1010 H1002 0.950 . S
C1010 C1008 1.391 1_455 S
C1010 C1011 1.400 . S
C1011 C1010 1.400 . S
C1011 C1012 1.398 . S
C1011 C1017 1.491 . S
C1012 H1003 0.950 . S
C1012 C1011 1.398 . S
C1012 C1013 1.391 . S
C1013 H1001 0.938 1_455 S
C1013 C1009 1.393 1_455 S
C1013 C1012 1.391 . S
C1014 H1004 0.950 . S
C1014 C1015 1.386 . S
C1014 C1016 1.391 . S
C1015 C1014 1.386 . S
C1015 C1019 1.393 . S
C1016 H1005 0.950 . S
C1016 C1014 1.391 . S
C1016 C1017 1.400 . S
C1017 C1011 1.491 . S
C1017 C1016 1.400 . S
C1017 C1018 1.398 . S
C1018 H1006 0.950 . S
C1018 C1017 1.398 . S
C1018 C1019 1.391 . S
C1019 H1007 0.950 . S
C1019 C1015 1.393 . S
C1019 C1018 1.391 . S
H1020 C1028 0.950 . S
H1021 C1033 0.950 . S
H1022 C1030 0.950 . S
H1023 C1032 0.950 . S
H1024 C1034 0.950 . S
H1025 C1036 0.950 . S
H1026 C1038 0.950 . S
H1027 C1039 0.950 . S
C1028 H1020 0.950 . S
C1028 C1029 1.386 . S
C1028 C1030 1.391 . S
C1029 C1028 1.386 . S
C1029 C1033 1.393 . S
C1030 H1022 0.950 . S
C1030 C1028 1.391 . S
C1030 C1031 1.400 . S
C1031 C1030 1.400 . S
C1031 C1032 1.398 . S
C1031 C1037 1.491 . S
C1032 H1023 0.950 . S
C1032 C1031 1.398 . S
C1032 C1033 1.391 . S
C1033 H1021 0.950 . S
C1033 C1029 1.393 . S
C1033 C1032 1.391 . S
C1034 H1024 0.950 . S
C1034 C1035 1.386 . S
C1034 C1036 1.391 . S
C1035 C1034 1.386 . S
C1035 C1039 1.393 . S
C1036 H1025 0.950 . S
C1036 C1034 1.391 . S
C1036 C1037 1.400 . S
C1037 C1031 1.491 . S
C1037 C1036 1.400 . S
C1037 C1038 1.398 . S
C1038 H1026 0.950 . S
C1038 C1037 1.398 . S
C1038 C1039 1.391 . S
C1039 H1027 0.950 . S
C1039 C1035 1.393 . S
C1039 C1038 1.391 . S
H1040 C1048 0.950 . S
H1041 C1053 0.950 . S
H1042 C1050 0.950 . S
H1043 C1052 0.950 . S
H1044 C1054 0.950 . S
H1045 C1056 0.950 . S
H1046 C1058 0.950 . S
H1047 C1059 0.950 . S
C1048 H1040 0.950 . S
C1048 C1049 1.386 . S
C1048 C1050 1.391 . S
C1049 C1048 1.386 . S
C1049 C1053 1.393 . S
C1050 H1042 0.950 . S
C1050 C1048 1.391 . S
C1050 C1051 1.400 . S
C1051 C1050 1.400 . S
C1051 C1052 1.398 . S
C1051 C1057 1.491 . S
C1052 H1043 0.950 . S
C1052 C1051 1.398 . S
C1052 C1053 1.391 . S
C1053 H1041 0.950 . S
C1053 C1049 1.393 . S
C1053 C1052 1.391 . S
C1054 H1044 0.950 . S
C1054 C1055 1.386 . S
C1054 C1056 1.391 . S
C1055 C1054 1.386 . S
C1055 C1059 1.393 . S
C1056 H1045 0.950 . S
C1056 C1054 1.391 . S
C1056 C1057 1.400 . S
C1057 C1051 1.491 . S
C1057 C1056 1.400 . S
C1057 C1058 1.398 . S
C1058 H1046 0.950 . S
C1058 C1057 1.398 . S
C1058 C1059 1.391 . S
C1059 H1047 0.950 . S
C1059 C1055 1.393 . S
C1059 C1058 1.391 . S
H1060 C1068 0.950 . S
H1061 C1073 0.950 . S
H1062 C1070 0.950 . S
H1063 C1072 0.950 . S
H1064 C1074 0.950 . S
H1065 C1076 0.950 . S
H1066 C1078 0.950 . S
H1067 C1079 0.950 . S
C1068 H1060 0.950 . S
C1068 C1069 1.386 . S
C1068 C1070 1.391 . S
C1069 C1068 1.386 . S
C1069 C1073 1.393 . S
C1070 H1062 0.950 . S
C1070 C1068 1.391 . S
C1070 C1071 1.400 . S
C1071 C1070 1.400 . S
C1071 C1072 1.398 . S
C1071 C1077 1.491 . S
C1072 H1063 0.950 . S
C1072 C1071 1.398 . S
C1072 C1073 1.391 . S
C1073 H1061 0.950 . S
C1073 C1069 1.393 . S
C1073 C1072 1.391 . S
C1074 H1064 0.950 . S
C1074 C1075 1.386 . S
C1074 C1076 1.391 . S
C1075 C1074 1.386 . S
C1075 C1079 1.393 . S
C1076 H1065 0.950 . S
C1076 C1074 1.391 . S
C1076 C1077 1.400 . S
C1077 C1071 1.491 . S
C1077 C1076 1.400 . S
C1077 C1078 1.398 . S
C1078 H1066 0.950 . S
C1078 C1077 1.398 . S
C1078 C1079 1.391 . S
C1079 H1067 0.950 . S
C1079 C1075 1.393 . S
C1079 C1078 1.391 . S
H1080 C1088 0.950 . S
H1081 C1093 0.950 . S
H1082 C1090 0.950 . S
H1083 C1092 0.950 . S
H1084 C1094 0.950 . S
H1085 C1096 0.950 . S
H1086 C1098 0.950 . S
H1087 C1099 0.950 . S
C1088 H1080 0.950 . S
C1088 C1089 1.386 . S
C1088 C1090 1.391 1_455 S
C1089 C1088 1.386 . S
C1089 C1093 1.393 1_455 S
C1090 H1082 0.950 . S
C1090 C1088 1.391 1_655 S
C1090 C1091 1.400 . S
C1091 C1090 1.400 . S
C1091 C1092 1.398 . S
C1091 C1097 1.491 . S
C1092 H1083 0.950 . S
C1092 C1091 1.398 . S
C1092 C1093 1.391 . S
C1093 H1081 0.950 . S
C1093 C1089 1.393 1_655 S
C1093 C1092 1.391 . S
C1094 H1084 0.950 . S
C1094 C1095 1.386 . S
C1094 C1096 1.391 . S
C1095 C1094 1.386 . S
C1095 C1099 1.393 . S
C1096 H1085 0.950 . S
C1096 C1094 1.391 . S
C1096 C1097 1.400 . S
C1097 C1091 1.491 . S
C1097 C1096 1.400 . S
C1097 C1098 1.398 . S
C1098 H1086 0.950 . S
C1098 C1097 1.398 . S
C1098 C1099 1.391 . S
C1099 H1087 0.950 . S
C1099 C1095 1.393 . S
C1099 C1098 1.391 . S
H1100 C1108 0.950 . S
H1101 C1113 0.950 . S
H1102 C1110 0.950 . S
H1103 C1112 0.950 . S
H1104 C1114 0.950 . S
H1105 C1116 0.950 . S
H1106 C1118 0.950 . S
H1107 C1119 0.950 . S
C1108 H1100 0.950 . S
C1108 C1109 1.386 . S
C1108 C1110 1.391 . S
C1109 C1108 1.386 . S
C1109 C1113 1.393 . S
C1110 H1102 0.950 . S
C1110 C1108 1.391 . S
C1110 C1111 1.400 . S
C1111 C1110 1.400 . S
C1111 C1112 1.398 . S
C1111 C1117 1.491 . S
C1112 H1103 0.950 . S
C1112 C1111 1.398 . S
C1112 C1113 1.391 . S
C1113 H1101 0.950 . S
C1113 C1109 1.393 . S
C1113 C1112 1.391 . S
C1114 H1104 0.950 . S
C1114 C1115 1.386 . S
C1114 C1116 1.391 . S
C1115 C1114 1.386 . S
C1115 C1119 1.393 . S
C1116 H1105 0.950 . S
C1116 C1114 1.391 . S
C1116 C1117 1.400 . S
C1117 C1111 1.491 . S
C1117 C1116 1.400 . S
C1117 C1118 1.398 . S
C1118 H1106 0.950 . S
C1118 C1117 1.398 . S
C1118 C1119 1.391 . S
C1119 H1107 0.950 . S
C1119 C1115 1.393 . S
C1119 C1118 1.391 . S
H1120 C1128 0.950 . S
H1121 C1133 0.950 . S
H1122 C1130 0.950 . S
H1123 C1132 0.950 . S
H1124 C1134 0.950 . S
H1125 C1136 0.950 . S
H1126 C1138 0.950 . S
H1127 C1139 0.950 . S
C1128 H1120 0.950 . S
C1128 C1129 1.386 . S
C1128 C1130 1.391 . S
C1129 C1128 1.386 . S
C1129 C1133 1.393 . S
C1130 H1122 0.950 . S
C1130 C1128 1.391 . S
C1130 C1131 1.400 . S
C1131 C1130 1.400 . S
C1131 C1132 1.398 . S
C1131 C1137 1.491 . S
C1132 H1123 0.950 . S
C1132 C1131 1.398 . S
C1132 C1133 1.391 . S
C1133 H1121 0.950 . S
C1133 C1129 1.393 . S
C1133 C1132 1.391 . S
C1134 H1124 0.950 . S
C1134 C1135 1.386 . S
C1134 C1136 1.391 1_455 S
C1135 C1134 1.386 . S
C1135 C1139 1.393 1_455 S
C1136 H1125 0.950 . S
C1136 C1134 1.391 1_655 S
C1136 C1137 1.400 . S
C1137 C1131 1.491 . S
C1137 C1136 1.400 . S
C1137 C1138 1.398 . S
C1138 H1126 0.950 . S
C1138 C1137 1.398 . S
C1138 C1139 1.391 . S
C1139 H1127 0.950 . S
C1139 C1135 1.393 1_655 S
C1139 C1138 1.391 . S
H1140 C1148 0.950 . S
H1141 C1153 0.950 . S
H1142 C1150 0.950 . S
H1143 C1152 0.950 . S
H1144 C1154 0.950 . S
H1145 C1156 0.950 . S
H1146 C1158 0.950 . S
H1147 C1159 0.950 . S
C1148 H1140 0.950 . S
C1148 C1149 1.386 . S
C1148 C1150 1.391 . S
C1149 C1148 1.386 . S
C1149 C1153 1.393 . S
C1150 H1142 0.950 . S
C1150 C1148 1.391 . S
C1150 C1151 1.400 . S
C1151 C1150 1.400 . S
C1151 C1152 1.398 . S
C1151 C1157 1.491 . S
C1152 H1143 0.950 . S
C1152 C1151 1.398 . S
C1152 C1153 1.391 . S
C1153 H1141 0.950 . S
C1153 C1149 1.393 . S
C1153 C1152 1.391 . S
C1154 H1144 0.950 . S
C1154 C1155 1.386 . S
C1154 C1156 1.391 . S
C1155 C1154 1.386 . S
C1155 C1159 1.393 . S
C1156 H1145 0.950 . S
C1156 C1154 1.391 . S
C1156 C1157 1.400 . S
C1157 C1151 1.491 . S
C1157 C1156 1.400 . S
C1157 C1158 1.398 . S
C1158 H1146 0.950 . S
C1158 C1157 1.398 . S
C1158 C1159 1.391 . S
C1159 H1147 0.950 . S
C1159 C1155 1.393 . S
C1159 C1158 1.391 . S
H1160 C1168 0.950 . S
H1161 C1173 0.950 . S
H1162 C1170 0.950 . S
H1163 C1172 0.950 . S
H1164 C1174 0.950 . S
H1165 C1176 0.950 . S
H1166 C1178 0.950 . S
H1167 C1179 0.950 . S
C1168 H1160 0.950 . S
C1168 C1169 1.386 . S
C1168 C1170 1.391 . S
C1169 C1168 1.386 . S
C1169 C1173 1.393 . S
C1170 H1162 0.950 . S
C1170 C1168 1.391 . S
C1170 C1171 1.400 . S
C1171 C1170 1.400 . S
C1171 C1172 1.398 . S
C1171 C1177 1.491 . S
C1172 H1163 0.950 . S
C1172 C1171 1.398 . S
C1172 C1173 1.391 . S
C1173 H1161 0.950 . S
C1173 C1169 1.393 . S
C1173 C1172 1.391 . S
C1174 H1164 0.950 . S
C1174 C1175 1.386 . S
C1174 C1176 1.391 . S
C1175 C1174 1.386 . S
C1175 C1179 1.393 . S
C1176 H1165 0.950 . S
C1176 C1174 1.391 . S
C1176 C1177 1.400 . S
C1177 C1171 1.491 . S
C1177 C1176 1.400 . S
C1177 C1178 1.398 . S
C1178 H1166 0.950 . S
C1178 C1177 1.398 . S
C1178 C1179 1.391 . S
C1179 H1167 0.950 . S
C1179 C1175 1.393 . S
C1179 C1178 1.391 . S
H1180 C1188 0.950 . S
H1181 C1193 0.950 . S
H1182 C1190 0.950 . S
H1183 C1192 0.950 . S
H1184 C1194 0.950 . S
H1185 C1196 0.950 . S
H1186 C1198 0.950 . S
H1187 C1199 0.950 . S
C1188 H1180 0.950 . S
C1188 C1189 1.386 . S
C1188 C1190 1.391 . S
C1189 C1188 1.386 . S
C1189 C1193 1.393 . S
C1190 H1182 0.950 . S
C1190 C1188 1.391 . S
C1190 C1191 1.400 . S
C1191 C1190 1.400 . S
C1191 C1192 1.398 . S
C1191 C1197 1.491 . S
C1192 H1183 0.950 . S
C1192 C1191 1.398 . S
C1192 C1193 1.391 . S
C1193 H1181 0.950 . S
C1193 C1189 1.393 . S
C1193 C1192 1.391 . S
C1194 H1184 0.950 . S
C1194 C1195 1.386 . S
C1194 C1196 1.391 . S
C1195 C1194 1.386 . S
C1195 C1199 1.393 . S
C1196 H1185 0.950 . S
C1196 C1194 1.391 . S
C1196 C1197 1.400 . S
C1197 C1191 1.491 . S
C1197 C1196 1.400 . S
C1197 C1198 1.398 . S
C1198 H1186 0.950 . S
C1198 C1197 1.398 . S
C1198 C1199 1.391 . S
C1199 H1187 0.950 . S
C1199 C1195 1.393 . S
C1199 C1198 1.391 . S
H1200 C1208 0.950 . S
H1201 C1213 0.950 . S
H1202 C1210 0.950 . S
H1203 C1212 0.950 . S
H1204 C1214 0.950 . S
H1205 C1216 0.950 1_655 S
H1206 C1218 0.950 . S
H1207 C1219 0.950 . S
C1208 H1200 0.950 . S
C1208 C1209 1.386 . S
C1208 C1210 1.391 . S
C1209 C1208 1.386 . S
C1209 C1213 1.393 . S
C1210 H1202 0.950 . S
C1210 C1208 1.391 . S
C1210 C1211 1.400 . S
C1211 C1210 1.400 . S
C1211 C1212 1.398 . S
C1211 C1217 1.491 . S
C1212 H1203 0.950 . S
C1212 C1211 1.398 . S
C1212 C1213 1.391 . S
C1213 H1201 0.950 . S
C1213 C1209 1.393 . S
C1213 C1212 1.391 . S
C1214 H1204 0.950 . S
C1214 C1215 1.386 . S
C1214 C1216 1.391 1_655 S
C1215 C1214 1.386 . S
C1215 C1219 1.393 1_655 S
C1216 H1205 0.950 1_455 S
C1216 C1214 1.391 1_455 S
C1216 C1217 1.400 . S
C1217 C1211 1.491 . S
C1217 C1216 1.400 . S
C1217 C1218 1.398 . S
C1218 H1206 0.950 . S
C1218 C1217 1.398 . S
C1218 C1219 1.391 . S
C1219 H1207 0.950 . S
C1219 C1215 1.393 1_455 S
C1219 C1218 1.391 . S
H1220 C1228 0.950 . S
H1221 C1233 0.950 . S
H1222 C1230 0.950 . S
H1223 C1232 0.950 . S
H1224 C1234 0.950 . S
H1225 C1236 0.950 . S
H1226 C1238 0.950 . S
H1227 C1239 0.950 . S
C1228 H1220 0.950 . S
C1228 C1229 1.386 . S
C1228 C1230 1.391 . S
C1229 C1228 1.386 . S
C1229 C1233 1.393 . S
C1230 H1222 0.950 . S
C1230 C1228 1.391 . S
C1230 C1231 1.400 . S
C1231 C1230 1.400 . S
C1231 C1232 1.398 . S
C1231 C1237 1.491 . S
C1232 H1223 0.950 . S
C1232 C1231 1.398 . S
C1232 C1233 1.391 . S
C1233 H1221 0.950 . S
C1233 C1229 1.393 . S
C1233 C1232 1.391 . S
C1234 H1224 0.950 . S
C1234 C1235 1.386 . S
C1234 C1236 1.391 . S
C1235 C1234 1.386 . S
C1235 C1239 1.393 . S
C1236 H1225 0.950 . S
C1236 C1234 1.391 . S
C1236 C1237 1.400 . S
C1237 C1231 1.491 . S
C1237 C1236 1.400 . S
C1237 C1238 1.398 . S
C1238 H1226 0.950 . S
C1238 C1237 1.398 . S
C1238 C1239 1.391 . S
C1239 H1227 0.950 . S
C1239 C1235 1.393 . S
C1239 C1238 1.391 . S
H1240 C1248 0.950 . S
H1241 C1253 0.950 . S
H1242 C1250 0.950 . S
H1243 C1252 0.950 . S
H1244 C1254 0.950 . S
H1245 C1256 0.950 . S
H1246 C1258 0.950 . S
H1247 C1259 0.950 . S
C1248 H1240 0.950 . S
C1248 C1249 1.386 . S
C1248 C1250 1.391 . S
C1249 C1248 1.386 . S
C1249 C1253 1.393 . S
C1250 H1242 0.950 . S
C1250 C1248 1.391 . S
C1250 C1251 1.400 . S
C1251 C1250 1.400 . S
C1251 C1252 1.398 . S
C1251 C1257 1.491 . S
C1252 H1243 0.950 . S
C1252 C1251 1.398 . S
C1252 C1253 1.391 . S
C1253 H1241 0.950 . S
C1253 C1249 1.393 . S
C1253 C1252 1.391 . S
C1254 H1244 0.950 . S
C1254 C1255 1.386 . S
C1254 C1256 1.391 . S
C1255 C1254 1.386 . S
C1255 C1259 1.393 . S
C1256 H1245 0.950 . S
C1256 C1254 1.391 . S
C1256 C1257 1.400 . S
C1257 C1251 1.491 . S
C1257 C1256 1.400 . S
C1257 C1258 1.398 . S
C1258 H1246 0.950 . S
C1258 C1257 1.398 . S
C1258 C1259 1.391 . S
C1259 H1247 0.950 . S
C1259 C1255 1.393 . S
C1259 C1258 1.391 . S
H1260 C1268 0.950 . S
H1261 C1273 0.950 . S
H1262 C1270 0.950 . S
H1263 C1272 0.950 . S
H1264 C1274 0.950 . S
H1265 C1276 0.950 . S
H1266 C1278 0.950 . S
H1267 C1279 0.950 . S
C1268 H1260 0.950 . S
C1268 C1269 1.386 . S
C1268 C1270 1.391 . S
C1269 C1268 1.386 . S
C1269 C1273 1.393 . S
C1270 H1262 0.950 . S
C1270 C1268 1.391 . S
C1270 C1271 1.400 . S
C1271 C1270 1.400 . S
C1271 C1272 1.398 . S
C1271 C1277 1.491 . S
C1272 H1263 0.950 . S
C1272 C1271 1.398 . S
C1272 C1273 1.391 . S
C1273 H1261 0.950 . S
C1273 C1269 1.393 . S
C1273 C1272 1.391 . S
C1274 H1264 0.950 . S
C1274 C1275 1.386 . S
C1274 C1276 1.391 . S
C1275 C1274 1.386 . S
C1275 C1279 1.393 . S
C1276 H1265 0.950 . S
C1276 C1274 1.391 . S
C1276 C1277 1.400 . S
C1277 C1271 1.491 . S
C1277 C1276 1.400 . S
C1277 C1278 1.398 . S
C1278 H1266 0.950 . S
C1278 C1277 1.398 . S
C1278 C1279 1.391 . S
C1279 H1267 0.950 . S
C1279 C1275 1.393 . S
C1279 C1278 1.391 . S
H1280 C1288 0.950 . S
H1281 C1293 0.950 . S
H1282 C1290 0.950 . S
H1283 C1292 0.950 . S
H1284 C1294 0.950 . S
H1285 C1296 0.950 . S
H1286 C1298 0.950 . S
H1287 C1299 0.950 . S
C1288 H1280 0.950 . S
C1288 C1289 1.386 . S
C1288 C1290 1.391 . S
C1289 C1288 1.386 . S
C1289 C1293 1.393 . S
C1290 H1282 0.950 . S
C1290 C1288 1.391 . S
C1290 C1291 1.400 . S
C1291 C1290 1.400 . S
C1291 C1292 1.398 . S
C1291 C1297 1.491 . S
C1292 H1283 0.950 . S
C1292 C1291 1.398 . S
C1292 C1293 1.391 . S
C1293 H1281 0.950 . S
C1293 C1289 1.393 . S
C1293 C1292 1.391 . S
C1294 H1284 0.950 . S
C1294 C1295 1.386 . S
C1294 C1296 1.391 . S
C1295 C1294 1.386 . S
C1295 C1299 1.393 . S
C1296 H1285 0.950 . S
C1296 C1294 1.391 . S
C1296 C1297 1.400 . S
C1297 C1291 1.491 . S
C1297 C1296 1.400 . S
C1297 C1298 1.398 . S
C1298 H1286 0.950 . S
C1298 C1297 1.398 . S
C1298 C1299 1.391 . S
C1299 H1287 0.950 . S
C1299 C1295 1.393 . S
C1299 C1298 1.391 . S
H1300 C1308 0.950 . S
H1301 C1313 0.950 . S
H1302 C1310 0.950 . S
H1303 C1312 0.950 . S
H1304 C1314 0.950 . S
H1305 C1316 0.950 . S
H1306 C1318 0.950 . S
H1307 C1319 0.950 . S
C1308 H1300 0.950 . S
C1308 C1309 1.386 . S
C1308 C1310 1.391 . S
C1309 C1308 1.386 . S
C1309 C1313 1.393 . S
C1310 H1302 0.950 . S
C1310 C1308 1.391 . S
C1310 C1311 1.400 . S
C1311 C1310 1.400 . S
C1311 C1312 1.398 . S
C1311 C1317 1.491 . S
C1312 H1303 0.950 . S
C1312 C1311 1.398 . S
C1312 C1313 1.391 . S
C1313 H1301 0.950 . S
C1313 C1309 1.393 . S
C1313 C1312 1.391 . S
C1314 H1304 0.950 . S
C1314 C1315 1.386 . S
C1314 C1316 1.391 . S
C1315 C1314 1.386 . S
C1315 C1319 1.393 . S
C1316 H1305 0.950 . S
C1316 C1314 1.391 . S
C1316 C1317 1.400 . S
C1317 C1311 1.491 . S
C1317 C1316 1.400 . S
C1317 C1318 1.398 . S
C1318 H1306 0.950 . S
C1318 C1317 1.398 . S
C1318 C1319 1.391 . S
C1319 H1307 0.950 . S
C1319 C1315 1.393 . S
C1319 C1318 1.391 . S
H1320 C1328 0.950 . S
H1321 C1333 0.950 . S
H1322 C1330 0.950 . S
H1323 C1332 0.950 . S
H1324 C1334 0.950 . S
H1325 C1336 0.950 . S
H1326 C1338 0.950 . S
H1327 C1339 0.950 . S
C1328 H1320 0.950 . S
C1328 C1329 1.386 . S
C1328 C1330 1.391 . S
C1329 C1328 1.386 . S
C1329 C1333 1.393 . S
C1330 H1322 0.950 . S
C1330 C1328 1.391 . S
C1330 C1331 1.400 . S
C1331 C1330 1.400 . S
C1331 C1332 1.398 . S
C1331 C1337 1.491 . S
C1332 H1323 0.950 . S
C1332 C1331 1.398 . S
C1332 C1333 1.391 . S
C1333 H1321 0.950 . S
C1333 C1329 1.393 . S
C1333 C1332 1.391 . S
C1334 H1324 0.950 . S
C1334 C1335 1.386 . S
C1334 C1336 1.391 . S
C1335 C1334 1.386 . S
C1335 C1339 1.393 . S
C1336 H1325 0.950 . S
C1336 C1334 1.391 . S
C1336 C1337 1.400 . S
C1337 C1331 1.491 . S
C1337 C1336 1.400 . S
C1337 C1338 1.398 . S
C1338 H1326 0.950 . S
C1338 C1337 1.398 . S
C1338 C1339 1.391 . S
C1339 H1327 0.950 . S
C1339 C1335 1.393 . S
C1339 C1338 1.391 . S
H1340 C1348 0.950 . S
H1341 C1353 0.950 . S
H1342 C1350 0.950 1_556 S
H1343 C1352 0.950 . S
H1344 C1354 0.950 . S
H1345 C1356 0.950 1_554 S
H1346 C1358 0.950 . S
H1347 C1359 0.950 . S
C1348 H1340 0.950 . S
C1348 C1349 1.386 . S
C1348 C1350 1.391 . S
C1349 C1348 1.386 . S
C1349 C1353 1.393 . S
C1350 H1342 0.950 1_554 S
C1350 C1348 1.391 . S
C1350 C1351 1.400 . S
C1351 C1350 1.400 . S
C1351 C1352 1.398 . S
C1351 C1357 1.491 1_454 S
C1352 H1343 0.950 . S
C1352 C1351 1.398 . S
C1352 C1353 1.391 . S
C1353 H1341 0.950 . S
C1353 C1349 1.393 . S
C1353 C1352 1.391 . S
C1354 H1344 0.950 . S
C1354 C1355 1.386 . S
C1354 C1356 1.391 . S
C1355 C1354 1.386 . S
C1355 C1359 1.393 . S
C1356 H1345 0.950 1_556 S
C1356 C1354 1.391 . S
C1356 C1357 1.400 . S
C1357 C1351 1.491 1_656 S
C1357 C1356 1.400 . S
C1357 C1358 1.398 . S
C1358 H1346 0.950 . S
C1358 C1357 1.398 . S
C1358 C1359 1.391 . S
C1359 H1347 0.950 . S
C1359 C1355 1.393 . S
C1359 C1358 1.391 . S
H1360 C1368 0.950 . S
H1361 C1373 0.950 . S
H1362 C1370 0.950 . S
H1363 C1372 0.950 . S
H1364 C1374 0.950 . S
H1365 C1376 0.950 . S
H1366 C1378 0.950 . S
H1367 C1379 0.950 . S
C1368 H1360 0.950 . S
C1368 C1369 1.386 . S
C1368 C1370 1.391 . S
C1369 C1368 1.386 . S
C1369 C1373 1.393 . S
C1370 H1362 0.950 . S
C1370 C1368 1.391 . S
C1370 C1371 1.400 . S
C1371 C1370 1.400 . S
C1371 C1372 1.398 . S
C1371 C1377 1.491 . S
C1372 H1363 0.950 . S
C1372 C1371 1.398 . S
C1372 C1373 1.391 . S
C1373 H1361 0.950 . S
C1373 C1369 1.393 . S
C1373 C1372 1.391 . S
C1374 H1364 0.950 . S
C1374 C1375 1.386 . S
C1374 C1376 1.391 . S
C1375 C1374 1.386 . S
C1375 C1379 1.393 . S
C1376 H1365 0.950 . S
C1376 C1374 1.391 . S
C1376 C1377 1.400 . S
C1377 C1371 1.491 . S
C1377 C1376 1.400 . S
C1377 C1378 1.398 . S
C1378 H1366 0.950 . S
C1378 C1377 1.398 . S
C1378 C1379 1.391 . S
C1379 H1367 0.950 . S
C1379 C1375 1.393 . S
C1379 C1378 1.391 . S
H1380 C1388 0.950 . S
H1381 C1393 0.950 . S
H1382 C1390 0.950 . S
H1383 C1392 0.950 . S
H1384 C1394 0.950 . S
H1385 C1396 0.950 . S
H1386 C1398 0.950 . S
H1387 C1399 0.950 . S
C1388 H1380 0.950 . S
C1388 C1389 1.386 . S
C1388 C1390 1.391 . S
C1389 C1388 1.386 . S
C1389 C1393 1.393 . S
C1390 H1382 0.950 . S
C1390 C1388 1.391 . S
C1390 C1391 1.400 . S
C1391 C1390 1.400 . S
C1391 C1392 1.398 . S
C1391 C1397 1.491 . S
C1392 H1383 0.950 . S
C1392 C1391 1.398 . S
C1392 C1393 1.391 . S
C1393 H1381 0.950 . S
C1393 C1389 1.393 . S
C1393 C1392 1.391 . S
C1394 H1384 0.950 . S
C1394 C1395 1.386 . S
C1394 C1396 1.391 . S
C1395 C1394 1.386 . S
C1395 C1399 1.393 . S
C1396 H1385 0.950 . S
C1396 C1394 1.391 . S
C1396 C1397 1.400 . S
C1397 C1391 1.491 . S
C1397 C1396 1.400 . S
C1397 C1398 1.398 . S
C1398 H1386 0.950 . S
C1398 C1397 1.398 . S
C1398 C1399 1.391 . S
C1399 H1387 0.950 . S
C1399 C1395 1.393 . S
C1399 C1398 1.391 . S
H1400 C1408 0.950 . S
H1401 C1413 0.950 . S
H1402 C1410 0.950 1_554 S
H1403 C1412 0.950 1_665 S
H1404 C1414 0.950 . S
H1405 C1416 0.950 1_556 S
H1406 C1418 0.950 1_445 S
H1407 C1419 0.950 . S
C1408 H1400 0.950 . S
C1408 C1409 1.386 . S
C1408 C1410 1.391 . S
C1409 C1408 1.386 . S
C1409 C1413 1.393 . S
C1410 H1402 0.950 1_556 S
C1410 C1408 1.391 . S
C1410 C1411 1.400 . S
C1411 C1410 1.400 . S
C1411 C1412 1.398 . S
C1411 C1417 1.491 1_446 S
C1412 H1403 0.950 1_445 S
C1412 C1411 1.398 . S
C1412 C1413 1.391 . S
C1413 H1401 0.950 . S
C1413 C1409 1.393 . S
C1413 C1412 1.391 . S
C1414 H1404 0.950 . S
C1414 C1415 1.386 . S
C1414 C1416 1.391 . S
C1415 C1414 1.386 . S
C1415 C1419 1.393 . S
C1416 H1405 0.950 1_554 S
C1416 C1414 1.391 . S
C1416 C1417 1.400 . S
C1417 C1411 1.491 1_664 S
C1417 C1416 1.400 . S
C1417 C1418 1.398 . S
C1418 H1406 0.950 1_665 S
C1418 C1417 1.398 . S
C1418 C1419 1.391 . S
C1419 H1407 0.950 . S
C1419 C1415 1.393 . S
C1419 C1418 1.391 . S
H1420 C1428 0.950 . S
H1421 C1433 0.950 . S
H1422 C1430 0.950 . S
H1423 C1432 0.950 . S
H1424 C1434 0.950 . S
H1425 C1436 0.950 . S
H1426 C1438 0.950 . S
H1427 C1439 0.950 . S
C1428 H1420 0.950 . S
C1428 C1429 1.386 . S
C1428 C1430 1.391 1_545 S
C1429 C1428 1.386 . S
C1429 C1433 1.393 . S
C1430 H1422 0.950 . S
C1430 C1428 1.391 1_565 S
C1430 C1431 1.400 1_565 S
C1431 C1430 1.400 1_545 S
C1431 C1432 1.398 . S
C1431 C1437 1.491 1_545 S
C1432 H1423 0.950 . S
C1432 C1431 1.398 . S
C1432 C1433 1.391 . S
C1433 H1421 0.950 . S
C1433 C1429 1.393 . S
C1433 C1432 1.391 . S
C1434 H1424 0.950 . S
C1434 C1435 1.386 . S
C1434 C1436 1.391 1_565 S
C1435 C1434 1.386 . S
C1435 C1439 1.393 . S
C1436 H1425 0.950 . S
C1436 C1434 1.391 1_545 S
C1436 C1437 1.400 1_545 S
C1437 C1431 1.491 1_565 S
C1437 C1436 1.400 1_565 S
C1437 C1438 1.398 . S
C1438 H1426 0.950 . S
C1438 C1437 1.398 . S
C1438 C1439 1.391 . S
C1439 H1427 0.950 . S
C1439 C1435 1.393 . S
C1439 C1438 1.391 . S
C489 N14 0.829 . S
C495 C316 0.816 . S
C509 N44 0.699 . S
C515 N344 0.696 . S
C529 C76 0.835 . S
C535 N254 0.834 . S
C549 N104 0.714 . S
C555 N284 0.711 . S
C569 N126 0.823 . S
C575 C447 0.826 . S
C589 N156 0.705 . S
C595 N456 0.708 . S
C609 C207 0.833 . S
C615 N366 0.835 . S
C629 N216 0.717 . S
C635 N396 0.713 . S
C649 C280 1.165 . S
C655 N6 1.124 . S
C669 C301 1.116 . S
C675 N36 1.070 . S
C689 C340 1.122 . S
C695 C87 1.153 . S
C709 C250 1.583 . S
C715 N96 1.532 . S
C729 N134 1.111 . S
C735 C391 1.174 . S
C749 C430 1.104 . S
C755 N164 1.072 . S
C769 C451 1.129 . S
C775 C196 1.156 . S
C789 C361 1.579 . S
C795 N224 1.539 . S
C809 C40 1.166 . S
C815 N246 1.141 . S
C829 N276 1.089 1_565 S
C835 C61 1.136 . S
C849 C327 1.172 . S
C855 C100 1.138 . S
C869 N336 1.535 1_545 S
C875 C10 1.571 . S
C889 N374 1.137 . S
C895 C151 1.171 . S
C909 C190 1.123 . S
C915 N404 1.085 1_545 S
C929 C211 1.121 . S
C935 C436 1.170 . S
C949 N464 1.533 1_565 S
C955 C121 1.572 . S
C969 C27 1.622 . S
C975 C460 1.580 . S
C989 C57 1.705 . S
C995 C130 1.703 . S
C1009 C400 0.968 . S
C1015 N66 0.962 . S
C1029 C181 1.722 . S
C1035 C117 1.753 . S
C1049 C136 1.624 . S
C1055 C331 1.561 . S
C1069 C166 1.712 . S
C1075 C1 1.694 . S
C1089 C271 0.980 . S
C1095 N194 0.975 . S
C1109 C70 1.714 . S
C1115 C226 1.751 . S
C1129 C267 1.624 . S
C1135 C220 1.584 . S
C1149 C297 1.709 . S
C1155 C370 1.687 . S
C1169 C160 0.993 . S
C1175 N306 0.999 . S
C1189 C421 1.735 . S
C1195 C357 1.764 . S
C1209 C376 1.623 . S
C1215 C91 1.564 . S
C1229 C406 1.703 . S
C1235 C241 1.701 . S
C1249 N434 0.992 . S
C1255 C31 0.985 . S
C1269 C310 1.737 . S
C1275 C466 1.761 . S
C1289 C16 2.249 . S
C1295 C387 2.249 . S
C1309 C46 1.569 . S
C1315 C177 1.569 . S
C1329 N74 1.426 . S
C1335 N426 1.424 . S
C1349 C237 2.365 . S
C1355 C106 2.365 . S
C1369 C147 2.248 . S
C1375 C256 2.248 . S
C1389 N314 1.439 . S
C1395 N186 1.436 . S
C1409 C286 1.568 . S
C1415 C417 1.568 . S
C1429 C477 2.376 . S
C1435 C346 2.376 . S
