# Generated by pormake.
# Topology una, (4)-cn, num edge types: 1
# Building blocks:
#     Node 0, Type 0, BuildingBlock: ICAMEG_clean_sbu_1, # of connection points: 4
#     Node 1, Type 0, BuildingBlock: ICAMEG_clean_sbu_1, # of connection points: 4
#     Node 2, Type 0, BuildingBlock: ICAMEG_clean_sbu_1, # of connection points: 4
#     Node 3, Type 0, BuildingBlock: ICAMEG_clean_sbu_1, # of connection points: 4
#     Node 4, Type 0, BuildingBlock: ICAMEG_clean_sbu_1, # of connection points: 4
#     Node 5, Type 0, BuildingBlock: ICAMEG_clean_sbu_1, # of connection points: 4
#     Node 6, Type 0, BuildingBlock: ICAMEG_clean_sbu_1, # of connection points: 4
#     Node 7, Type 0, BuildingBlock: ICAMEG_clean_sbu_1, # of connection points: 4
#     Node 8, Type 0, BuildingBlock: ICAMEG_clean_sbu_1, # of connection points: 4
#     Node 9, Type 0, BuildingBlock: ICAMEG_clean_sbu_1, # of connection points: 4
#     Node 10, Type 0, BuildingBlock: ICAMEG_clean_sbu_1, # of connection points: 4
#     Node 11, Type 0, BuildingBlock: ICAMEG_clean_sbu_1, # of connection points: 4
#     Edge 12, Type (0, 0), BuildingBlock: KIFKEQ_clean_linker_1, # of connection points: 2
#     Edge 13, Type (0, 0), BuildingBlock: KIFKEQ_clean_linker_1, # of connection points: 2
#     Edge 14, Type (0, 0), BuildingBlock: KIFKEQ_clean_linker_1, # of connection points: 2
#     Edge 15, Type (0, 0), BuildingBlock: KIFKEQ_clean_linker_1, # of connection points: 2
#     Edge 16, Type (0, 0), BuildingBlock: KIFKEQ_clean_linker_1, # of connection points: 2
#     Edge 17, Type (0, 0), BuildingBlock: KIFKEQ_clean_linker_1, # of connection points: 2
#     Edge 18, Type (0, 0), BuildingBlock: KIFKEQ_clean_linker_1, # of connection points: 2
#     Edge 19, Type (0, 0), BuildingBlock: KIFKEQ_clean_linker_1, # of connection points: 2
#     Edge 20, Type (0, 0), BuildingBlock: KIFKEQ_clean_linker_1, # of connection points: 2
#     Edge 21, Type (0, 0), BuildingBlock: KIFKEQ_clean_linker_1, # of connection points: 2
#     Edge 22, Type (0, 0), BuildingBlock: KIFKEQ_clean_linker_1, # of connection points: 2
#     Edge 23, Type (0, 0), BuildingBlock: KIFKEQ_clean_linker_1, # of connection points: 2
#     Edge 24, Type (0, 0), BuildingBlock: KIFKEQ_clean_linker_1, # of connection points: 2
#     Edge 25, Type (0, 0), BuildingBlock: KIFKEQ_clean_linker_1, # of connection points: 2
#     Edge 26, Type (0, 0), BuildingBlock: KIFKEQ_clean_linker_1, # of connection points: 2
#     Edge 27, Type (0, 0), BuildingBlock: KIFKEQ_clean_linker_1, # of connection points: 2
#     Edge 28, Type (0, 0), BuildingBlock: KIFKEQ_clean_linker_1, # of connection points: 2
#     Edge 29, Type (0, 0), BuildingBlock: KIFKEQ_clean_linker_1, # of connection points: 2
#     Edge 30, Type (0, 0), BuildingBlock: KIFKEQ_clean_linker_1, # of connection points: 2
#     Edge 31, Type (0, 0), BuildingBlock: KIFKEQ_clean_linker_1, # of connection points: 2
#     Edge 32, Type (0, 0), BuildingBlock: KIFKEQ_clean_linker_1, # of connection points: 2
#     Edge 33, Type (0, 0), BuildingBlock: KIFKEQ_clean_linker_1, # of connection points: 2
#     Edge 34, Type (0, 0), BuildingBlock: KIFKEQ_clean_linker_1, # of connection points: 2
#     Edge 35, Type (0, 0), BuildingBlock: KIFKEQ_clean_linker_1, # of connection points: 2
# Relax obj value: 0.053
# Max RMSD: 0.083
# Mean RMSD: 0.083
data_MOF--net-una--node1-ICAMEG_clean_sbu_1--edge1-KIFKEQ_clean_linker_1
_symmetry_space_group_name_H-M    P1
_symmetry_Int_Tables_number       1
_symmetry_cell_setting            triclinic
loop_
_symmetry_equiv_pos_as_xyz
'x, y, z'
_cell_length_a     63.678184
_cell_length_b     63.71593
_cell_length_c     22.247243
_cell_angle_alpha  90.01859
_cell_angle_beta   90.015462
_cell_angle_gamma 119.99634
loop_
_atom_site_label
_atom_site_type_symbol
_atom_site_fract_x
_atom_site_fract_y
_atom_site_fract_z
_atom_type_partial_charge
Co0 Co 0.17529 0.47761 0.03607 0.0
Co1 Co 0.13512 0.41762 0.06119 0.0
O2 O 0.14185 0.45079 0.04547 0.0
C3 C 0.14783 0.49921 0.09775 0.0
O4 O 0.12796 0.47803 0.10055 0.0
C5 C 0.09906 0.41172 0.9669 0.0
O6 O 0.11602 0.43126 0.9404 0.0
O7 O 0.15259 0.41867 0.98615 0.0
O8 O 0.18537 0.4555 0.99693 0.0
H9 H 0.1569 0.35212 0.07572 0.0
H10 H 0.13437 0.48247 0.98541 0.0
O11 O 0.16716 0.50136 0.07473 0.0
H12 H 0.18865 0.49537 0.81446 0.0
H13 H 0.24033 0.5634 0.99128 0.0
H14 H 0.22357 0.48248 0.05628 0.0
H15 H 0.19858 0.48706 0.91545 0.0
H16 H 0.19825 0.52966 1.00007 0.0
O17 O 0.10383 0.4039 0.01472 0.0
H18 H 0.1648 0.39369 0.05855 0.0
H19 H 0.09085 0.37093 0.09309 0.0
H20 H 0.26592 0.51566 0.04759 0.0
H21 H 0.12403 0.4912 0.88563 0.0
H22 H 0.27452 0.55648 0.01488 0.0
H23 H 0.15121 0.49764 0.79903 0.0
O24 O 0.18342 0.47028 0.11654 0.0
H25 H 0.07491 0.42887 0.18248 0.0
H26 H 0.1367 0.40387 0.18889 0.0
H27 H 0.1155 0.40334 0.28201 0.0
H28 H 0.0843 0.41586 0.27919 0.0
H29 H 0.09675 0.42936 0.09049 0.0
H30 H 0.08211 0.32908 0.11013 0.0
H31 H 0.1153 0.31947 0.10171 0.0
O32 O 0.166 0.42993 0.10958 0.0
C33 C 0.17422 0.43459 0.97236 0.0
C34 C 0.1423 0.35609 0.07969 0.0
C35 C 0.10032 0.34315 0.09893 0.0
N36 N 0.12836 0.38477 0.07525 0.0
C37 C 0.14668 0.37961 0.07016 0.0
C38 C 0.10537 0.36688 0.0891 0.0
C39 C 0.11896 0.33778 0.09422 0.0
C40 C 0.1466 0.48574 0.94861 0.0
N41 N 0.16729 0.48464 0.95692 0.0
C42 C 0.14051 0.49047 0.89186 0.0
C43 C 0.15572 0.49401 0.84326 0.0
C44 C 0.17671 0.49272 0.85189 0.0
C45 C 0.18221 0.48795 0.90926 0.0
C46 C 0.23681 0.54569 1.00548 0.0
C47 C 0.22715 0.50015 0.04169 0.0
C48 C 0.21302 0.52652 0.01069 0.0
N49 N 0.20844 0.50406 0.02828 0.0
C50 C 0.25118 0.51889 0.037 0.0
C51 C 0.25599 0.54179 0.01871 0.0
C52 C 0.18078 0.45012 0.13452 0.0
C53 C 0.08848 0.4234 0.18431 0.0
C54 C 0.12333 0.40957 0.18732 0.0
C55 C 0.11129 0.40912 0.24019 0.0
C56 C 0.09377 0.41611 0.23856 0.0
N57 N 0.11809 0.41681 0.13429 0.0
C58 C 0.10088 0.4236 0.13234 0.0
Co59 Co 0.70966 0.17433 0.18751 0.0
Co60 Co 0.72377 0.13038 0.22219 0.0
O61 O 0.6999 0.14009 0.20053 0.0
C62 C 0.66449 0.15485 0.26214 0.0
O63 O 0.67071 0.14093 0.29147 0.0
C64 C 0.69372 0.09518 0.12553 0.0
O65 O 0.69205 0.1125 0.09807 0.0
O66 O 0.74324 0.14721 0.14938 0.0
O67 O 0.7417 0.18156 0.15315 0.0
H68 H 0.80805 0.14491 0.25518 0.0
H69 H 0.66234 0.13654 0.1389 0.0
O70 O 0.67798 0.16881 0.22061 0.0
H71 H 0.70911 0.1836 0.9627 0.0
H72 H 0.69625 0.243 0.12778 0.0
H73 H 0.75495 0.22108 0.20784 0.0
H74 H 0.7267 0.19444 0.06439 0.0
H75 H 0.68453 0.20014 0.14203 0.0
O76 O 0.70565 0.09953 0.17436 0.0
H77 H 0.77736 0.15633 0.22983 0.0
H78 H 0.72097 0.0838 0.25762 0.0
H79 H 0.76748 0.26416 0.19389 0.0
H80 H 0.64388 0.12535 0.03807 0.0
H81 H 0.73802 0.27536 0.1536 0.0
H82 H 0.66737 0.14889 0.94904 0.0
O83 O 0.7242 0.18266 0.26911 0.0
H84 H 0.64635 0.07462 0.33049 0.0
H85 H 0.73447 0.129 0.35258 0.0
H86 H 0.70988 0.10838 0.44192 0.0
H87 H 0.66547 0.08087 0.43115 0.0
H88 H 0.67161 0.09596 0.24251 0.0
H89 H 0.75105 0.07156 0.28269 0.0
H90 H 0.79494 0.10225 0.28183 0.0
O91 O 0.74273 0.1606 0.27255 0.0
C92 C 0.75068 0.16899 0.13317 0.0
C93 C 0.78897 0.13139 0.25588 0.0
C94 C 0.75699 0.09021 0.27124 0.0
N95 N 0.74741 0.1208 0.24264 0.0
C96 C 0.77152 0.13776 0.24172 0.0
C97 C 0.74004 0.09724 0.25684 0.0
C98 C 0.78161 0.10744 0.27077 0.0
C99 C 0.67256 0.14706 0.10049 0.0
N100 N 0.69555 0.16613 0.10762 0.0
C101 C 0.66206 0.14056 0.04345 0.0
C102 C 0.67527 0.15374 0.99351 0.0
C103 C 0.6987 0.1732 1.00113 0.0
C104 C 0.7086 0.17918 0.05884 0.0
C105 C 0.70926 0.23835 0.1453 0.0
C106 C 0.74206 0.22579 0.19 0.0
C107 C 0.70271 0.21411 0.1536 0.0
N108 N 0.71908 0.20809 0.17547 0.0
C109 C 0.74924 0.25022 0.18233 0.0
C110 C 0.7327 0.2565 0.15977 0.0
C111 C 0.73949 0.17764 0.29232 0.0
C112 C 0.66568 0.08655 0.33577 0.0
C113 C 0.71515 0.11732 0.34763 0.0
C114 C 0.70132 0.10556 0.39833 0.0
C115 C 0.67641 0.09009 0.39224 0.0
N116 N 0.70449 0.1138 0.2924 0.0
C117 C 0.68009 0.0986 0.28607 0.0
Co118 Co 0.60363 0.72113 0.39435 0.0
Co119 Co 0.54603 0.70631 0.35718 0.0
O120 O 0.57058 0.69691 0.37115 0.0
C121 C 0.61169 0.69379 0.29654 0.0
O122 O 0.59657 0.69695 0.26278 0.0
C123 C 0.52005 0.6611 0.43033 0.0
O124 O 0.53923 0.66899 0.46495 0.0
O125 O 0.55103 0.71951 0.44021 0.0
O126 O 0.59167 0.74026 0.44158 0.0
H127 H 0.51227 0.76264 0.36602 0.0
H128 H 0.58637 0.66927 0.41818 0.0
O129 O 0.61653 0.70249 0.3496 0.0
H130 H 0.60941 0.70919 0.61635 0.0
H131 H 0.68928 0.74927 0.46081 0.0
H132 H 0.63094 0.77478 0.39988 0.0
H133 H 0.61401 0.73295 0.52487 0.0
H134 H 0.64724 0.71889 0.43414 0.0
O135 O 0.52003 0.67385 0.38634 0.0
H136 H 0.54322 0.75067 0.38087 0.0
H137 H 0.4958 0.68116 0.30714 0.0
H138 H 0.67275 0.80577 0.4267 0.0
H139 H 0.58176 0.64487 0.50847 0.0
H140 H 0.70225 0.79306 0.45744 0.0
H141 H 0.59324 0.66483 0.60848 0.0
O142 O 0.60654 0.74009 0.32035 0.0
H143 H 0.53461 0.64418 0.20197 0.0
H144 H 0.54354 0.72476 0.23536 0.0
H145 H 0.53919 0.70914 0.13203 0.0
H146 H 0.53462 0.66853 0.1148 0.0
H147 H 0.53933 0.66065 0.30459 0.0
H148 H 0.46426 0.69232 0.29195 0.0
H149 H 0.47245 0.73337 0.32126 0.0
O150 O 0.57094 0.73908 0.32622 0.0
C151 C 0.5711 0.73567 0.46273 0.0
C152 C 0.50851 0.74473 0.35293 0.0
C153 C 0.48155 0.70525 0.31144 0.0
N154 N 0.52139 0.71529 0.3446 0.0
C155 C 0.52598 0.73786 0.36112 0.0
C156 C 0.49946 0.69901 0.3203 0.0
C157 C 0.48616 0.72828 0.32787 0.0
C158 C 0.59163 0.67812 0.46147 0.0
N159 N 0.60049 0.7025 0.46618 0.0
C160 C 0.58888 0.66419 0.51246 0.0
C161 C 0.59529 0.6754 0.56857 0.0
C162 C 0.60434 0.70028 0.57303 0.0
C163 C 0.60682 0.71363 0.52107 0.0
C164 C 0.67659 0.75503 0.44758 0.0
C165 C 0.64364 0.76911 0.41351 0.0
C166 C 0.65278 0.73791 0.43227 0.0
N167 N 0.63661 0.74506 0.41585 0.0
C168 C 0.6673 0.78674 0.42851 0.0
C169 C 0.68385 0.7796 0.4457 0.0
C170 C 0.59228 0.74776 0.3049 0.0
C171 C 0.53651 0.66186 0.20891 0.0
C172 C 0.54166 0.70712 0.22828 0.0
C173 C 0.53913 0.69834 0.16964 0.0
C174 C 0.53656 0.67555 0.16001 0.0
N175 N 0.54161 0.69358 0.27602 0.0
C176 C 0.53909 0.67123 0.26693 0.0
Co177 Co 0.85137 0.54082 0.5317 0.0
Co178 Co 0.8912 0.60076 0.55875 0.0
O179 O 0.88471 0.56773 0.54216 0.0
C180 C 0.87886 0.51928 0.59343 0.0
O181 O 0.89861 0.54053 0.59708 0.0
C182 C 0.92766 0.6072 0.46514 0.0
O183 O 0.91083 0.58774 0.43799 0.0
O184 O 0.87394 0.59995 0.48348 0.0
O185 O 0.84126 0.56297 0.49289 0.0
H186 H 0.86893 0.66589 0.57459 0.0
H187 H 0.89263 0.53643 0.48157 0.0
O188 O 0.85956 0.51705 0.56996 0.0
H189 H 0.83891 0.52398 0.30954 0.0
H190 H 0.78687 0.45508 0.4842 0.0
H191 H 0.8029 0.53557 0.55112 0.0
H192 H 0.82852 0.53178 0.41054 0.0
H193 H 0.82883 0.48896 0.49428 0.0
O194 O 0.92267 0.61481 0.51299 0.0
H195 H 0.86131 0.62447 0.55634 0.0
H196 H 0.93522 0.64743 0.59226 0.0
H197 H 0.76067 0.50225 0.54115 0.0
H198 H 0.90341 0.5282 0.38177 0.0
H199 H 0.75243 0.46165 0.50747 0.0
H200 H 0.87652 0.52198 0.29463 0.0
O201 O 0.84288 0.54773 0.61223 0.0
H202 H 0.95128 0.58944 0.68051 0.0
H203 H 0.88906 0.61388 0.68675 0.0
H204 H 0.91001 0.61413 0.78014 0.0
H205 H 0.94142 0.60191 0.7774 0.0
H206 H 0.92969 0.5892 0.58824 0.0
H207 H 0.94368 0.68913 0.61039 0.0
H208 H 0.91037 0.69856 0.60182 0.0
O209 O 0.86013 0.58809 0.60647 0.0
C210 C 0.8524 0.58401 0.46901 0.0
C211 C 0.88358 0.66199 0.57863 0.0
C212 C 0.92554 0.67504 0.59865 0.0
N213 N 0.89774 0.63349 0.57367 0.0
C214 C 0.87936 0.63856 0.5685 0.0
C215 C 0.92064 0.6514 0.5882 0.0
C216 C 0.90684 0.68032 0.59386 0.0
C217 C 0.88052 0.53325 0.44451 0.0
N218 N 0.85974 0.5342 0.45253 0.0
C219 C 0.88686 0.52881 0.38777 0.0
C220 C 0.87181 0.5254 0.33887 0.0
C221 C 0.85072 0.52654 0.3472 0.0
C222 C 0.84497 0.53102 0.40458 0.0
C223 C 0.79022 0.4727 0.49882 0.0
C224 C 0.79948 0.518 0.53611 0.0
C225 C 0.81395 0.49194 0.50476 0.0
N226 N 0.81832 0.51428 0.52287 0.0
C227 C 0.77552 0.49918 0.5307 0.0
C228 C 0.77091 0.4764 0.51186 0.0
C229 C 0.84534 0.56776 0.63074 0.0
C230 C 0.93762 0.59479 0.6823 0.0
C231 C 0.90252 0.60829 0.68521 0.0
C232 C 0.91442 0.60859 0.73824 0.0
C233 C 0.93206 0.60176 0.73666 0.0
N234 N 0.90802 0.60135 0.63208 0.0
C235 C 0.92535 0.59472 0.63017 0.0
Co236 Co 0.31644 0.84423 0.68971 0.0
Co237 Co 0.30366 0.88853 0.7286 0.0
O238 O 0.32683 0.87845 0.70419 0.0
C239 C 0.3617 0.86256 0.76269 0.0
O240 O 0.35478 0.87507 0.79578 0.0
C241 C 0.33064 0.92318 0.62878 0.0
O242 O 0.32707 0.90475 0.5951 0.0
O243 O 0.28352 0.87234 0.65595 0.0
O244 O 0.28413 0.83748 0.65834 0.0
H245 H 0.22034 0.87578 0.76694 0.0
H246 H 0.3629 0.88249 0.63858 0.0
O247 O 0.34845 0.84951 0.71959 0.0
H248 H 0.31405 0.83561 0.46433 0.0
H249 H 0.32824 0.77521 0.62357 0.0
H250 H 0.27109 0.79768 0.71137 0.0
H251 H 0.29798 0.8242 0.56723 0.0
H252 H 0.34056 0.81814 0.63975 0.0
O253 O 0.32239 0.91959 0.68224 0.0
H254 H 0.25015 0.86359 0.73829 0.0
H255 H 0.30786 0.93538 0.76742 0.0
H256 H 0.25797 0.75455 0.69555 0.0
H257 H 0.37981 0.89435 0.53641 0.0
H258 H 0.28664 0.74307 0.65135 0.0
H259 H 0.35528 0.87089 0.4484 0.0
O260 O 0.30279 0.83582 0.77225 0.0
H261 H 0.38213 0.94211 0.83574 0.0
H262 H 0.29386 0.88932 0.85982 0.0
H263 H 0.31916 0.90885 0.94902 0.0
H264 H 0.36365 0.93555 0.93726 0.0
H265 H 0.35615 0.92188 0.74789 0.0
H266 H 0.27868 0.9484 0.79581 0.0
H267 H 0.23458 0.91847 0.79595 0.0
O268 O 0.28448 0.85806 0.77781 0.0
C269 C 0.27553 0.8505 0.63919 0.0
C270 C 0.23952 0.88898 0.7672 0.0
C271 C 0.27226 0.92975 0.78333 0.0
N272 N 0.28071 0.89871 0.75154 0.0
C273 C 0.25648 0.88217 0.75116 0.0
C274 C 0.2887 0.92228 0.76703 0.0
C275 C 0.24752 0.91294 0.78342 0.0
C276 C 0.35223 0.87203 0.60054 0.0
N277 N 0.32954 0.85262 0.60892 0.0
C278 C 0.36185 0.8789 0.54278 0.0
C279 C 0.34807 0.86575 0.49341 0.0
C280 C 0.32493 0.84596 0.50231 0.0
C281 C 0.3159 0.83962 0.56071 0.0
C282 C 0.31557 0.77998 0.6428 0.0
C283 C 0.28365 0.79285 0.69185 0.0
C284 C 0.32247 0.80426 0.65221 0.0
N285 N 0.30653 0.81043 0.67622 0.0
C286 C 0.27612 0.76839 0.68312 0.0
C287 C 0.29222 0.76196 0.65837 0.0
C288 C 0.28774 0.84091 0.79666 0.0
C289 C 0.36276 0.93053 0.84145 0.0
C290 C 0.3132 0.90066 0.85442 0.0
C291 C 0.32744 0.9118 0.90505 0.0
C292 C 0.35239 0.92681 0.89841 0.0
N293 N 0.32351 0.90433 0.79872 0.0
C294 C 0.34795 0.91909 0.79184 0.0
Co295 Co 0.42432 0.29667 0.88709 0.0
Co296 Co 0.48206 0.31093 0.84856 0.0
O297 O 0.45753 0.32047 0.86298 0.0
C298 C 0.41789 0.32559 0.78999 0.0
O299 O 0.43622 0.32644 0.76093 0.0
C300 C 0.50791 0.35579 0.92341 0.0
O301 O 0.48833 0.34824 0.95626 0.0
O302 O 0.47686 0.29694 0.93066 0.0
O303 O 0.43631 0.27822 0.93687 0.0
H304 H 0.51508 0.25394 0.85334 0.0
H305 H 0.4422 0.34893 0.9057 0.0
O306 O 0.41097 0.31437 0.83988 0.0
H307 H 0.4189 0.31219 0.10717 0.0
H308 H 0.33888 0.26959 0.95354 0.0
H309 H 0.39698 0.24317 0.89723 0.0
H310 H 0.41379 0.28694 0.01834 0.0
H311 H 0.38084 0.29955 0.92525 0.0
O312 O 0.50819 0.34299 0.87979 0.0
H313 H 0.48433 0.26612 0.86921 0.0
H314 H 0.53249 0.33621 0.79982 0.0
H315 H 0.35524 0.2126 0.92578 0.0
H316 H 0.44728 0.37485 0.99319 0.0
H317 H 0.32587 0.22576 0.95419 0.0
H318 H 0.43569 0.3565 0.09488 0.0
O319 O 0.42095 0.27666 0.81477 0.0
H320 H 0.49648 0.37544 0.69759 0.0
H321 H 0.48403 0.2932 0.72543 0.0
H322 H 0.48949 0.31006 0.62322 0.0
H323 H 0.49587 0.3515 0.60879 0.0
H324 H 0.49052 0.35772 0.799 0.0
H325 H 0.56382 0.32484 0.78362 0.0
H326 H 0.55517 0.2834 0.81024 0.0
O327 O 0.45707 0.27857 0.8159 0.0
C328 C 0.45688 0.28178 0.95538 0.0
C329 C 0.51905 0.27202 0.8414 0.0
C330 C 0.54641 0.31183 0.80235 0.0
N331 N 0.50654 0.3018 0.83514 0.0
C332 C 0.50168 0.27901 0.85016 0.0
C333 C 0.52861 0.31818 0.81176 0.0
C334 C 0.54154 0.28857 0.81728 0.0
C335 C 0.4369 0.34078 0.94971 0.0
N336 N 0.42776 0.31644 0.95688 0.0
C337 C 0.43992 0.35556 0.99913 0.0
C338 C 0.43345 0.34526 0.05618 0.0
C339 C 0.42406 0.32041 0.06312 0.0
C340 C 0.42133 0.30621 0.01268 0.0
C341 C 0.35152 0.26363 0.94134 0.0
C342 C 0.38434 0.24904 0.90986 0.0
C343 C 0.37529 0.28051 0.92512 0.0
N344 N 0.39139 0.27311 0.90997 0.0
C345 C 0.36071 0.23165 0.92584 0.0
C346 C 0.34424 0.23904 0.94172 0.0
C347 C 0.43524 0.26927 0.79754 0.0
C348 C 0.49379 0.35739 0.70331 0.0
C349 C 0.48659 0.31118 0.71957 0.0
C350 C 0.48979 0.32066 0.66155 0.0
C351 C 0.49339 0.34393 0.6535 0.0
N352 N 0.48695 0.32447 0.76822 0.0
C353 C 0.49053 0.34731 0.76066 0.0
Co354 Co 0.544 0.84333 0.91296 0.0
Co355 Co 0.60212 0.88622 0.87861 0.0
O356 O 0.56873 0.87742 0.89969 0.0
C357 C 0.51841 0.86334 0.83983 0.0
O358 O 0.53845 0.87704 0.80989 0.0
C359 C 0.60791 0.92252 0.97232 0.0
O360 O 0.58924 0.90533 1.00108 0.0
O361 O 0.60431 0.87015 0.95324 0.0
O362 O 0.56873 0.83563 0.94637 0.0
H363 H 0.67102 0.86994 0.85161 0.0
H364 H 0.53552 0.88153 0.96322 0.0
O365 O 0.51797 0.84932 0.88118 0.0
H366 H 0.53475 0.83349 0.1378 0.0
H367 H 0.46182 0.77514 0.97401 0.0
H368 H 0.5418 0.79637 0.89073 0.0
H369 H 0.5409 0.8227 0.03551 0.0
H370 H 0.49325 0.81791 0.95984 0.0
O371 O 0.61524 0.91776 0.92366 0.0
H372 H 0.6291 0.8595 0.87586 0.0
H373 H 0.64629 0.93186 0.84018 0.0
H374 H 0.51095 0.75338 0.90461 0.0
H375 H 0.52887 0.89271 0.06471 0.0
H376 H 0.47062 0.74252 0.94653 0.0
H377 H 0.52859 0.86867 0.15291 0.0
O378 O 0.54978 0.83525 0.83068 0.0
H379 H 0.58226 0.94157 0.76197 0.0
H380 H 0.6134 0.88472 0.74875 0.0
H381 H 0.60991 0.90425 0.65661 0.0
H382 H 0.59432 0.93298 0.66289 0.0
H383 H 0.58571 0.92136 0.85291 0.0
H384 H 0.68844 0.94314 0.81607 0.0
H385 H 0.70102 0.91203 0.82147 0.0
O386 O 0.5904 0.85518 0.83126 0.0
C387 C 0.58996 0.84824 0.96845 0.0
C388 C 0.66574 0.88364 0.84893 0.0
C389 C 0.67553 0.92473 0.82906 0.0
N390 N 0.6352 0.89499 0.85903 0.0
C391 C 0.64202 0.87782 0.86247 0.0
C392 C 0.65164 0.91824 0.8429 0.0
C393 C 0.68257 0.90726 0.83207 0.0
C394 C 0.53512 0.87081 1.00129 0.0
N395 N 0.53858 0.85149 0.99337 0.0
C396 C 0.53148 0.8773 0.05869 0.0
C397 C 0.53136 0.86383 0.10817 0.0
C398 C 0.53485 0.84411 0.09973 0.0
C399 C 0.53843 0.83816 0.04168 0.0
C400 C 0.47934 0.77964 0.95579 0.0
C401 C 0.52434 0.79181 0.90927 0.0
C402 C 0.4972 0.80383 0.94753 0.0
N403 N 0.51941 0.80966 0.92481 0.0
C404 C 0.50692 0.76742 0.91691 0.0
C405 C 0.48429 0.76135 0.94038 0.0
C406 C 0.57001 0.83922 0.80924 0.0
C407 C 0.58913 0.92914 0.75867 0.0
C408 C 0.60642 0.89705 0.75184 0.0
C409 C 0.60458 0.90814 0.69952 0.0
C410 C 0.59586 0.92427 0.70308 0.0
N411 N 0.59976 0.90191 0.80622 0.0
C412 C 0.59123 0.91772 0.81005 0.0
Co413 Co 0.70815 0.53917 0.07625 0.0
Co414 Co 0.72397 0.59747 0.04382 0.0
O415 O 0.69911 0.56413 0.06355 0.0
C416 C 0.66176 0.514 1.00497 0.0
O417 O 0.6671 0.53435 0.97789 0.0
C418 C 0.69589 0.60499 0.14092 0.0
O419 O 0.69823 0.58926 0.1742 0.0
O420 O 0.74183 0.59907 0.1189 0.0
O421 O 0.74059 0.56348 0.11023 0.0
H422 H 0.80946 0.66614 0.02061 0.0
H423 H 0.66203 0.53221 0.12648 0.0
O424 O 0.67608 0.51337 0.04392 0.0
H425 H 0.70816 0.52901 0.30086 0.0
H426 H 0.69327 0.45651 0.13533 0.0
H427 H 0.7527 0.53653 0.05389 0.0
H428 H 0.72503 0.53474 0.19857 0.0
H429 H 0.68237 0.4883 0.1221 0.0
O430 O 0.70513 0.61016 0.08845 0.0
H431 H 0.77769 0.62416 0.04286 0.0
H432 H 0.72297 0.64203 1.00688 0.0
H433 H 0.76441 0.50532 0.06685 0.0
H434 H 0.64434 0.52614 0.22798 0.0
H435 H 0.73459 0.46496 0.10783 0.0
H436 H 0.6675 0.52459 0.31608 0.0
O437 O 0.72223 0.54525 0.99412 0.0
H438 H 0.64975 0.5795 0.92468 0.0
H439 H 0.7376 0.60942 0.91463 0.0
H440 H 0.71533 0.60698 0.82185 0.0
H441 H 0.67109 0.59201 0.82652 0.0
H442 H 0.67267 0.58187 0.01629 0.0
H443 H 0.75415 0.68425 0.98476 0.0
H444 H 0.79775 0.69652 0.99132 0.0
O445 O 0.7434 0.58584 0.99673 0.0
C446 C 0.74916 0.58447 0.13352 0.0
C447 C 0.79052 0.661 0.01743 0.0
C448 C 0.75948 0.67117 0.99739 0.0
N449 N 0.74851 0.63061 0.02579 0.0
C450 C 0.77245 0.63724 0.02984 0.0
C451 C 0.74191 0.64725 0.01012 0.0
C452 C 0.78394 0.67804 1.00106 0.0
C453 C 0.6721 0.53128 0.16451 0.0
N454 N 0.69446 0.53368 0.15651 0.0
C455 C 0.66204 0.52795 0.22191 0.0
C456 C 0.67506 0.52712 0.27133 0.0
C457 C 0.69788 0.52961 0.26283 0.0
C458 C 0.70736 0.53291 0.20478 0.0
C459 C 0.70644 0.47403 0.11751 0.0
C460 C 0.73965 0.51906 0.07203 0.0
C461 C 0.70035 0.4921 0.10978 0.0
N462 N 0.71693 0.51432 0.08755 0.0
C463 C 0.74637 0.50144 0.07915 0.0
C464 C 0.72962 0.47879 0.1021 0.0
C465 C 0.7388 0.56555 0.97374 0.0
C466 C 0.66903 0.58608 0.92207 0.0
C467 C 0.71831 0.60266 0.91702 0.0
C468 C 0.70582 0.60143 0.86433 0.0
C469 C 0.681 0.59307 0.867 0.0
N470 N 0.70643 0.59573 0.97087 0.0
C471 C 0.68212 0.58755 0.97383 0.0
Co472 Co 0.13509 0.72378 0.21257 0.0
Co473 Co 0.17616 0.70513 0.24386 0.0
O474 O 0.14266 0.69817 0.23185 0.0
C475 C 0.10009 0.69502 0.3101 0.0
O476 O 0.11746 0.69322 0.33697 0.0
C477 C 0.14994 0.65666 0.17952 0.0
O478 O 0.13062 0.65869 0.17212 0.0
O479 O 0.18543 0.72092 0.16381 0.0
O480 O 0.16539 0.74154 0.16194 0.0
H481 H 0.26681 0.75828 0.23978 0.0
H482 H 0.09699 0.67281 0.1905 0.0
O483 O 0.10431 0.70682 0.26112 0.0
H484 H 0.11266 0.7129 0.99291 0.0
H485 H 0.08025 0.75668 0.15806 0.0
H486 H 0.16396 0.77735 0.20731 0.0
H487 H 0.13471 0.73591 0.08293 0.0
H488 H 0.08994 0.72453 0.18014 0.0
O489 O 0.16875 0.67335 0.20565 0.0
H490 H 0.22449 0.7488 0.22706 0.0
H491 H 0.19899 0.6763 0.28329 0.0
H492 H 0.1551 0.81007 0.18499 0.0
H493 H 0.07419 0.64916 0.10185 0.0
H494 H 0.11299 0.7998 0.16015 0.0
H495 H 0.08207 0.66918 1.00205 0.0
O496 O 0.15302 0.74218 0.28551 0.0
H497 H 0.12343 0.63941 0.39043 0.0
H498 H 0.19752 0.7189 0.36659 0.0
H499 H 0.18625 0.70027 0.46701 0.0
H500 H 0.14903 0.66016 0.47943 0.0
H501 H 0.13508 0.65887 0.29118 0.0
H502 H 0.24105 0.68496 0.29614 0.0
H503 H 0.27531 0.72622 0.27456 0.0
O504 O 0.18542 0.73711 0.28261 0.0
C505 C 0.18167 0.73722 0.14172 0.0
C506 C 0.25204 0.74025 0.24951 0.0
C507 C 0.23758 0.69909 0.28106 0.0
N508 N 0.20928 0.71208 0.25482 0.0
C509 C 0.22803 0.73479 0.24255 0.0
C510 C 0.2138 0.69428 0.27355 0.0
C511 C 0.2568 0.72225 0.26896 0.0
C512 C 0.10046 0.68169 0.14732 0.0
N513 N 0.11742 0.70566 0.14185 0.0
C514 C 0.08752 0.66818 0.09723 0.0
C515 C 0.09196 0.67942 0.04125 0.0
C516 C 0.10916 0.70393 0.03607 0.0
C517 C 0.12175 0.71684 0.08715 0.0
C518 C 0.09868 0.76138 0.16872 0.0
C519 C 0.14561 0.77274 0.1962 0.0
C520 C 0.10427 0.74326 0.18141 0.0
N521 N 0.12754 0.74906 0.19459 0.0
C522 C 0.1407 0.79135 0.18376 0.0
C523 C 0.11706 0.78557 0.16988 0.0
C524 C 0.1743 0.74769 0.30245 0.0
C525 C 0.1398 0.6568 0.38553 0.0
C526 C 0.18124 0.70147 0.37149 0.0
C527 C 0.17499 0.69099 0.42854 0.0
C528 C 0.15412 0.66848 0.43547 0.0
N529 N 0.16718 0.68986 0.32256 0.0
C530 C 0.14663 0.66784 0.32916 0.0
Co531 Co 0.4818 0.17464 0.41156 0.0
Co532 Co 0.42495 0.13048 0.37031 0.0
O533 O 0.45803 0.14048 0.39622 0.0
C534 C 0.50905 0.15656 0.33927 0.0
O535 O 0.48984 0.14445 0.3052 0.0
C536 C 0.41675 0.0957 0.47009 0.0
O537 O 0.43145 0.11413 0.50403 0.0
O538 O 0.4205 0.14651 0.44255 0.0
O539 O 0.45606 0.18132 0.44191 0.0
H540 H 0.35466 0.1433 0.32838 0.0
H541 H 0.48966 0.13623 0.46311 0.0
O542 O 0.50868 0.16937 0.38273 0.0
H543 H 0.48667 0.18262 0.63714 0.0
H544 H 0.56226 0.2434 0.48087 0.0
H545 H 0.48323 0.22127 0.38975 0.0
H546 H 0.48263 0.19432 0.53404 0.0
H547 H 0.53171 0.20053 0.46347 0.0
O548 O 0.41231 0.09932 0.41643 0.0
H549 H 0.39646 0.15544 0.35896 0.0
H550 H 0.38257 0.08372 0.32992 0.0
H551 H 0.51318 0.26435 0.40676 0.0
H552 H 0.49408 0.12408 0.56549 0.0
H553 H 0.55303 0.27566 0.45264 0.0
H554 H 0.49251 0.1473 0.65339 0.0
O555 O 0.47711 0.1833 0.32878 0.0
H556 H 0.45053 0.07715 0.26482 0.0
H557 H 0.41538 0.13013 0.23859 0.0
H558 H 0.42179 0.11085 0.14983 0.0
H559 H 0.43941 0.08406 0.16267 0.0
H560 H 0.44415 0.09713 0.35224 0.0
H561 H 0.34057 0.07075 0.29958 0.0
H562 H 0.3264 0.10067 0.29842 0.0
O563 O 0.4366 0.16107 0.32139 0.0
C564 C 0.43426 0.16829 0.45993 0.0
C565 C 0.36064 0.13011 0.32855 0.0
C566 C 0.35272 0.08938 0.31247 0.0
N567 N 0.39199 0.12036 0.34586 0.0
C568 C 0.3843 0.13689 0.34568 0.0
C569 C 0.37651 0.09682 0.32986 0.0
C570 C 0.34478 0.10618 0.3118 0.0
C571 C 0.48922 0.14658 0.5011 0.0
N572 N 0.486 0.16601 0.49254 0.0
C573 C 0.49163 0.13955 0.55898 0.0
C574 C 0.49071 0.15256 0.60828 0.0
C575 C 0.48742 0.17237 0.5992 0.0
C576 C 0.48508 0.17887 0.54069 0.0
C577 C 0.54495 0.23871 0.46091 0.0
C578 C 0.50048 0.22603 0.41 0.0
C579 C 0.5276 0.21446 0.45082 0.0
N580 N 0.50565 0.20838 0.42591 0.0
C581 C 0.51739 0.25046 0.4194 0.0
C582 C 0.53975 0.25679 0.44509 0.0
C583 C 0.45715 0.17827 0.30339 0.0
C584 C 0.44281 0.08876 0.25864 0.0
C585 C 0.4233 0.11873 0.24449 0.0
C586 C 0.42676 0.10774 0.19409 0.0
C587 C 0.43661 0.09268 0.20133 0.0
N588 N 0.42948 0.11486 0.30054 0.0
C589 C 0.43907 0.10006 0.308 0.0
Co590 Co 0.3192 0.47817 0.57643 0.0
Co591 Co 0.30137 0.41891 0.54795 0.0
O592 O 0.32716 0.45231 0.565 0.0
C593 C 0.367 0.50184 0.50911 0.0
O594 O 0.36408 0.48076 0.49288 0.0
C595 C 0.33257 0.41341 0.64022 0.0
O596 O 0.33537 0.43295 0.66724 0.0
O597 O 0.28463 0.41881 0.62364 0.0
O598 O 0.28698 0.45486 0.61333 0.0
H599 H 0.21477 0.3519 0.53116 0.0
H600 H 0.36579 0.48533 0.62504 0.0
O601 O 0.35101 0.50315 0.54071 0.0
H602 H 0.32203 0.49208 0.79996 0.0
H603 H 0.33657 0.56228 0.62929 0.0
H604 H 0.27501 0.48161 0.55562 0.0
H605 H 0.3039 0.48457 0.69882 0.0
H606 H 0.34644 0.52968 0.61779 0.0
O607 O 0.31955 0.40554 0.59306 0.0
H608 H 0.24769 0.39371 0.55022 0.0
H609 H 0.30035 0.37311 0.51323 0.0
H610 H 0.26432 0.51364 0.56692 0.0
H611 H 0.38479 0.49332 0.72521 0.0
H612 H 0.29523 0.55432 0.60399 0.0
H613 H 0.36282 0.49663 0.81366 0.0
O614 O 0.30425 0.47131 0.49533 0.0
H615 H 0.37366 0.43305 0.4258 0.0
H616 H 0.28631 0.40579 0.4198 0.0
H617 H 0.30738 0.40649 0.32627 0.0
H618 H 0.35136 0.42011 0.32889 0.0
H619 H 0.35195 0.43241 0.51818 0.0
H620 H 0.268 0.33105 0.4943 0.0
H621 H 0.22485 0.32024 0.50298 0.0
O622 O 0.28221 0.43084 0.50065 0.0
C623 C 0.27803 0.43402 0.63773 0.0
C624 C 0.2335 0.3564 0.52708 0.0
C625 C 0.26338 0.3447 0.50646 0.0
N626 N 0.2759 0.38589 0.53245 0.0
C627 C 0.25222 0.38006 0.53768 0.0
C628 C 0.28162 0.36854 0.51738 0.0
C629 C 0.23917 0.33864 0.51132 0.0
C630 C 0.35627 0.48712 0.66304 0.0
N631 N 0.33383 0.48463 0.65584 0.0
C632 C 0.36705 0.49149 0.71979 0.0
C633 C 0.3547 0.49329 0.76941 0.0
C634 C 0.3318 0.49071 0.76177 0.0
C635 C 0.32159 0.48636 0.70436 0.0
C636 C 0.32294 0.54461 0.61319 0.0
C637 C 0.28853 0.49922 0.57207 0.0
C638 C 0.32843 0.52609 0.60645 0.0
N639 N 0.31127 0.50369 0.58638 0.0
C640 C 0.28238 0.51731 0.57825 0.0
C641 C 0.29974 0.54014 0.599 0.0
C642 C 0.28716 0.45102 0.47643 0.0
C643 C 0.35449 0.42706 0.42407 0.0
C644 C 0.30551 0.41199 0.42129 0.0
C645 C 0.31731 0.41222 0.36819 0.0
C646 C 0.34198 0.41983 0.3697 0.0
N647 N 0.31792 0.41917 0.47444 0.0
C648 C 0.34208 0.42658 0.47628 0.0
Co649 Co 0.89271 0.29522 0.70808 0.0
Co650 Co 0.85159 0.3139 0.73818 0.0
O651 O 0.8851 0.32085 0.72675 0.0
C652 C 0.92741 0.32399 0.80612 0.0
O653 O 0.90989 0.32563 0.83267 0.0
C654 C 0.87794 0.36239 0.67411 0.0
O655 O 0.8974 0.36054 0.66763 0.0
O656 O 0.84248 0.29803 0.65818 0.0
O657 O 0.86248 0.27736 0.65709 0.0
H658 H 0.76094 0.26072 0.73299 0.0
H659 H 0.9308 0.34616 0.68594 0.0
O660 O 0.92339 0.31227 0.75704 0.0
H661 H 0.91553 0.30576 0.48875 0.0
H662 H 0.94768 0.26228 0.6555 0.0
H663 H 0.86387 0.24163 0.7031 0.0
H664 H 0.89333 0.28288 0.57869 0.0
H665 H 0.93793 0.29444 0.67673 0.0
O666 O 0.85906 0.34563 0.69969 0.0
H667 H 0.80328 0.27018 0.72106 0.0
H668 H 0.82867 0.34276 0.77667 0.0
H669 H 0.87279 0.2089 0.68162 0.0
H670 H 0.95374 0.36969 0.59735 0.0
H671 H 0.91496 0.21915 0.65761 0.0
H672 H 0.94606 0.34951 0.49776 0.0
O673 O 0.87466 0.27693 0.78096 0.0
H674 H 0.90405 0.37967 0.88517 0.0
H675 H 0.82995 0.30023 0.86058 0.0
H676 H 0.841 0.3189 0.96103 0.0
H677 H 0.87823 0.35898 0.97383 0.0
H678 H 0.89261 0.36017 0.78591 0.0
H679 H 0.78658 0.33411 0.78873 0.0
H680 H 0.75237 0.29282 0.76705 0.0
O681 O 0.84225 0.28196 0.77711 0.0
C682 C 0.84624 0.28167 0.63649 0.0
C683 C 0.77569 0.27876 0.74275 0.0
C684 C 0.79009 0.31996 0.77394 0.0
N685 N 0.81844 0.30694 0.74853 0.0
C686 C 0.79971 0.28422 0.73623 0.0
C687 C 0.81388 0.32476 0.76688 0.0
C688 C 0.7709 0.29679 0.7618 0.0
C689 C 0.92742 0.33722 0.64284 0.0
N690 N 0.91049 0.31323 0.63744 0.0
C691 C 0.94043 0.35065 0.59279 0.0
C692 C 0.9361 0.33933 0.53693 0.0
C693 C 0.91894 0.3148 0.53182 0.0
C694 C 0.90627 0.30196 0.58285 0.0
C695 C 0.92923 0.25758 0.6658 0.0
C696 C 0.88224 0.24624 0.69235 0.0
C697 C 0.9236 0.27571 0.678 0.0
N698 N 0.90031 0.26992 0.69074 0.0
C699 C 0.88719 0.22762 0.68038 0.0
C700 C 0.91086 0.23339 0.66697 0.0
C701 C 0.85334 0.27142 0.79741 0.0
C702 C 0.88767 0.36229 0.8801 0.0
C703 C 0.84622 0.31764 0.86564 0.0
C704 C 0.85235 0.32815 0.9227 0.0
C705 C 0.87322 0.35064 0.92985 0.0
N706 N 0.86041 0.32923 0.81688 0.0
C707 C 0.88096 0.35123 0.82371 0.0
H708 H 0.18759 0.41294 0.17199 0.0
H709 H 0.20905 0.48741 0.21127 0.0
H710 H 0.21352 0.41328 0.25273 0.0
H711 H 0.23414 0.48746 0.29382 0.0
H712 H 0.29535 0.48837 0.40085 0.0
H713 H 0.27013 0.48799 0.31819 0.0
H714 H 0.21798 0.41312 0.35697 0.0
H715 H 0.24376 0.41325 0.43776 0.0
C716 C 0.19767 0.42935 0.1982 0.0
C717 C 0.19621 0.45016 0.18488 0.0
C718 C 0.21248 0.4295 0.24497 0.0
C719 C 0.22606 0.45039 0.28031 0.0
C720 C 0.2244 0.47115 0.26715 0.0
C721 C 0.20981 0.47107 0.21992 0.0
C722 C 0.27853 0.4718 0.39166 0.0
C723 C 0.27167 0.45084 0.42608 0.0
C724 C 0.2639 0.47161 0.34437 0.0
C725 C 0.24183 0.45054 0.33053 0.0
C726 C 0.23498 0.4296 0.36524 0.0
C727 C 0.24974 0.42971 0.41206 0.0
H728 H 0.8529 0.25078 0.56317 0.0
H729 H 0.80372 0.27771 0.59579 0.0
H730 H 0.8279 0.22676 0.47976 0.0
H731 H 0.77769 0.25234 0.5151 0.0
H732 H 0.74605 0.22134 0.33197 0.0
H733 H 0.77203 0.24659 0.41294 0.0
H734 H 0.79277 0.19286 0.45122 0.0
H735 H 0.76819 0.16859 0.36762 0.0
C736 C 0.83669 0.25153 0.55279 0.0
C737 C 0.8306 0.26651 0.58601 0.0
C738 C 0.82206 0.23742 0.50512 0.0
C739 C 0.80052 0.23736 0.49004 0.0
C740 C 0.7943 0.25215 0.52398 0.0
C741 C 0.80921 0.26665 0.57085 0.0
C742 C 0.75617 0.21491 0.35765 0.0
C743 C 0.75482 0.19277 0.34322 0.0
C744 C 0.77102 0.22937 0.40467 0.0
C745 C 0.78466 0.22194 0.43946 0.0
C746 C 0.78305 0.19963 0.42518 0.0
C747 C 0.76861 0.18543 0.37741 0.0
H748 H 0.60827 0.77886 0.50363 0.0
H749 H 0.53307 0.7265 0.53715 0.0
H750 H 0.60768 0.80386 0.58526 0.0
H751 H 0.53273 0.75089 0.62111 0.0
H752 H 0.53247 0.81053 0.73339 0.0
H753 H 0.53265 0.78601 0.64962 0.0
H754 H 0.60737 0.80786 0.68855 0.0
H755 H 0.60746 0.83327 0.77006 0.0
C756 C 0.59164 0.77252 0.52888 0.0
C757 C 0.57071 0.75062 0.51365 0.0
C758 C 0.59133 0.78684 0.57624 0.0
C759 C 0.57018 0.77952 0.61054 0.0
C760 C 0.54927 0.75748 0.59539 0.0
C761 C 0.54949 0.74333 0.54736 0.0
C762 C 0.54896 0.81013 0.72392 0.0
C763 C 0.56997 0.82398 0.75846 0.0
C764 C 0.54903 0.79588 0.67599 0.0
C765 C 0.57003 0.79478 0.66175 0.0
C766 C 0.59096 0.80851 0.69689 0.0
C767 C 0.59099 0.82303 0.74416 0.0
H768 H 0.8377 0.60441 0.66815 0.0
H769 H 0.81749 0.53026 0.70732 0.0
H770 H 0.81159 0.6036 0.74892 0.0
H771 H 0.79225 0.52977 0.79002 0.0
H772 H 0.78172 0.60355 0.93396 0.0
H773 H 0.80742 0.60388 0.85288 0.0
H774 H 0.75609 0.52859 0.81575 0.0
H775 H 0.73094 0.52802 0.89892 0.0
C776 C 0.82786 0.58797 0.69436 0.0
C777 C 0.82973 0.56739 0.68101 0.0
C778 C 0.81294 0.58755 0.74117 0.0
C779 C 0.7997 0.56663 0.77659 0.0
C780 C 0.80173 0.54609 0.76333 0.0
C781 C 0.81641 0.54642 0.71601 0.0
C782 C 0.77589 0.58703 0.90857 0.0
C783 C 0.75421 0.56574 0.9232 0.0
C784 C 0.79061 0.58726 0.86155 0.0
C785 C 0.78396 0.56629 0.82714 0.0
C786 C 0.76215 0.54502 0.84163 0.0
C787 C 0.74757 0.54472 0.88921 0.0
H788 H 0.25952 0.85006 0.87321 0.0
H789 H 0.28125 0.79713 0.83568 0.0
H790 H 0.23522 0.82583 0.95698 0.0
H791 H 0.2555 0.77188 0.91705 0.0
H792 H 0.22402 0.74084 0.10058 0.0
H793 H 0.24997 0.76605 0.01955 0.0
H794 H 0.19998 0.79197 0.98486 0.0
H795 H 0.1751 0.76813 0.06845 0.0
C796 C 0.25908 0.83318 0.88263 0.0
C797 C 0.27265 0.82577 0.8478 0.0
C798 C 0.24478 0.819 0.93052 0.0
C799 C 0.24308 0.79662 0.94432 0.0
C800 C 0.25656 0.78914 0.90904 0.0
C801 C 0.27128 0.80359 0.86183 0.0
C802 C 0.21857 0.75195 0.0757 0.0
C803 C 0.19729 0.75224 0.0911 0.0
C804 C 0.23343 0.76635 0.02866 0.0
C805 C 0.22726 0.78121 0.99487 0.0
C806 C 0.2058 0.78127 0.01015 0.0
C807 C 0.19123 0.76726 0.05792 0.0
H808 H 0.42001 0.16975 0.22663 0.0
H809 H 0.49511 0.22155 0.26379 0.0
H810 H 0.42054 0.19414 0.14248 0.0
H811 H 0.49526 0.24687 0.18164 0.0
H812 H 0.49505 0.27695 0.99574 0.0
H813 H 0.49536 0.25188 0.07792 0.0
H814 H 0.4203 0.22894 0.11561 0.0
H815 H 0.41965 0.25273 0.03139 0.0
C816 C 0.43667 0.18641 0.21705 0.0
C817 C 0.45758 0.19347 0.25196 0.0
C818 C 0.4369 0.20066 0.16893 0.0
C819 C 0.45791 0.22273 0.15483 0.0
C820 C 0.47882 0.22986 0.19004 0.0
C821 C 0.4787 0.21536 0.23764 0.0
C822 C 0.4786 0.26654 0.02157 0.0
C823 C 0.45736 0.26702 1.00681 0.0
C824 C 0.47881 0.25222 0.06919 0.0
C825 C 0.45786 0.2382 0.10401 0.0
C826 C 0.43671 0.23897 0.08947 0.0
C827 C 0.4364 0.25294 0.04131 0.0
H828 H 0.10993 0.50749 0.08703 0.0
H829 H 0.18468 0.54126 0.14293 0.0
H830 H 0.11022 0.54538 0.10325 0.0
H831 H 0.18468 0.57869 0.16417 0.0
H832 H 0.18734 0.65015 0.14501 0.0
H833 H 0.18632 0.61216 0.12457 0.0
H834 H 0.10968 0.57289 0.16679 0.0
H835 H 0.11061 0.61112 0.18215 0.0
C836 C 0.12627 0.52294 0.10425 0.0
C837 C 0.14726 0.52145 0.1138 0.0
C838 C 0.12647 0.54476 0.1139 0.0
C839 C 0.14752 0.56551 0.13494 0.0
C840 C 0.16828 0.56356 0.14632 0.0
C841 C 0.16825 0.54195 0.13496 0.0
C842 C 0.17025 0.63333 0.14913 0.0
C843 C 0.14903 0.63359 0.16469 0.0
C844 C 0.16966 0.61141 0.1382 0.0
C845 C 0.14794 0.58905 0.14445 0.0
C846 C 0.1267 0.5895 0.16014 0.0
C847 C 0.1272 0.61148 0.16931 0.0
H848 H 0.65381 0.19046 0.24057 0.0
H849 H 0.62317 0.11825 0.31385 0.0
H850 H 0.61585 0.18993 0.25989 0.0
H851 H 0.58477 0.11762 0.3321 0.0
H852 H 0.51397 0.12184 0.27795 0.0
H853 H 0.55137 0.12035 0.26172 0.0
H854 H 0.59199 0.18757 0.35881 0.0
H855 H 0.55484 0.18891 0.37604 0.0
C856 C 0.63895 0.17445 0.26076 0.0
C857 C 0.64151 0.15441 0.27588 0.0
C858 C 0.61724 0.1742 0.27191 0.0
C859 C 0.59741 0.15374 0.29736 0.0
C860 C 0.59979 0.13357 0.31212 0.0
C861 C 0.62177 0.13401 0.3021 0.0
C862 C 0.5309 0.13627 0.29579 0.0
C863 C 0.53146 0.15552 0.32811 0.0
C864 C 0.55222 0.13531 0.28688 0.0
C865 C 0.57452 0.15385 0.30905 0.0
C866 C 0.57505 0.1731 0.34108 0.0
C867 C 0.55376 0.17381 0.35098 0.0
H868 H 0.37422 0.54768 0.51094 0.0
H869 H 0.41113 0.5076 0.47547 0.0
H870 H 0.41163 0.58553 0.49184 0.0
H871 H 0.44885 0.54583 0.4567 0.0
H872 H 0.51544 0.62368 0.50137 0.0
H873 H 0.47873 0.58436 0.51825 0.0
H874 H 0.43851 0.60555 0.40115 0.0
H875 H 0.47487 0.64449 0.38398 0.0
C876 C 0.39032 0.54693 0.4989 0.0
C877 C 0.38967 0.52459 0.49453 0.0
C878 C 0.41174 0.56864 0.4878 0.0
C879 C 0.43315 0.56863 0.47281 0.0
C880 C 0.43263 0.54635 0.46856 0.0
C881 C 0.41101 0.5245 0.4788 0.0
C882 C 0.49875 0.61991 0.4793 0.0
C883 C 0.49808 0.63727 0.44152 0.0
C884 C 0.47781 0.59736 0.48861 0.0
C885 C 0.45577 0.59194 0.46108 0.0
C886 C 0.45518 0.60929 0.42333 0.0
C887 C 0.47607 0.63159 0.41339 0.0
H888 H 0.91713 0.51151 0.58373 0.0
H889 H 0.84202 0.47686 0.63679 0.0
H890 H 0.91718 0.47376 0.59946 0.0
H891 H 0.84232 0.43955 0.65754 0.0
H892 H 0.84056 0.36858 0.6377 0.0
H893 H 0.8413 0.40644 0.61735 0.0
H894 H 0.91764 0.44618 0.66291 0.0
H895 H 0.91701 0.40808 0.67821 0.0
C896 C 0.90077 0.4959 0.60021 0.0
C897 C 0.87958 0.4971 0.6091 0.0
C898 C 0.90076 0.47416 0.60957 0.0
C899 C 0.87971 0.4532 0.62968 0.0
C900 C 0.85874 0.45485 0.6404 0.0
C901 C 0.85859 0.47638 0.62932 0.0
C902 C 0.85752 0.38547 0.64255 0.0
C903 C 0.87875 0.3854 0.65907 0.0
C904 C 0.85796 0.40731 0.63169 0.0
C905 C 0.8795 0.42976 0.63895 0.0
C906 C 0.90076 0.42949 0.65549 0.0
C907 C 0.90043 0.40759 0.66462 0.0
H908 H 0.37455 0.82948 0.72898 0.0
H909 H 0.4017 0.8977 0.82223 0.0
H910 H 0.41292 0.83063 0.74669 0.0
H911 H 0.44048 0.89899 0.83897 0.0
H912 H 0.51379 0.89975 0.78658 0.0
H913 H 0.47612 0.90063 0.7688 0.0
H914 H 0.43479 0.82915 0.84562 0.0
H915 H 0.47211 0.82836 0.86439 0.0
C916 C 0.38874 0.84478 0.75311 0.0
C917 C 0.38505 0.86346 0.77444 0.0
C918 C 0.41068 0.84539 0.7633 0.0
C919 C 0.42963 0.8649 0.79408 0.0
C920 C 0.42617 0.88381 0.81478 0.0
C921 C 0.40396 0.88297 0.80561 0.0
C922 C 0.49663 0.88424 0.7995 0.0
C923 C 0.49591 0.86398 0.82679 0.0
C924 C 0.47515 0.88482 0.78973 0.0
C925 C 0.4526 0.86495 0.80586 0.0
C926 C 0.45192 0.84466 0.83253 0.0
C927 C 0.47332 0.84427 0.84337 0.0
H928 H 0.51187 0.39443 0.98794 0.0
H929 H 0.55398 0.37056 0.88652 0.0
H930 H 0.54877 0.43354 1.00613 0.0
H931 H 0.59056 0.40926 0.90544 0.0
H932 H 0.65223 0.46783 0.02237 0.0
H933 H 0.61459 0.43016 1.00289 0.0
H934 H 0.5814 0.47075 0.93938 0.0
H935 H 0.61946 0.5088 0.95799 0.0
C936 C 0.52895 0.39747 0.96978 0.0
C937 C 0.53 0.37937 0.93595 0.0
C938 C 0.54999 0.41989 0.97981 0.0
C939 C 0.57248 0.42438 0.95719 0.0
C940 C 0.57349 0.40623 0.92365 0.0
C941 C 0.5525 0.38409 0.91274 0.0
C942 C 0.63696 0.4688 1.00414 0.0
C943 C 0.63886 0.49131 0.99151 0.0
C944 C 0.61543 0.44721 0.99287 0.0
C945 C 0.5951 0.44755 0.96969 0.0
C946 C 0.5968 0.47002 0.95758 0.0
C947 C 0.61859 0.49173 0.96778 0.0
H948 H 0.24205 0.44506 0.63751 0.0
H949 H 0.27247 0.41004 0.74363 0.0
H950 H 0.21443 0.44004 0.71983 0.0
H951 H 0.24528 0.4058 0.82711 0.0
H952 H 0.22253 0.45033 0.96808 0.0
H953 H 0.24512 0.44476 0.88668 0.0
H954 H 0.17851 0.40199 0.78872 0.0
H955 H 0.15564 0.40685 0.8713 0.0
C956 C 0.24253 0.43595 0.67816 0.0
C957 C 0.2593 0.42785 0.68426 0.0
C958 C 0.2267 0.43302 0.72506 0.0
C959 C 0.22775 0.42251 0.77956 0.0
C960 C 0.24409 0.41385 0.7853 0.0
C961 C 0.25952 0.41618 0.73762 0.0
C962 C 0.21264 0.43936 0.92967 0.0
C963 C 0.18733 0.42901 0.92595 0.0
C964 C 0.22556 0.43608 0.88336 0.0
C965 C 0.2135 0.42289 0.83173 0.0
C966 C 0.18815 0.41212 0.82833 0.0
C967 C 0.17511 0.41486 0.8755 0.0
H968 H 0.75501 0.14947 0.02783 0.0
H969 H 0.78873 0.21492 0.13399 0.0
H970 H 0.78221 0.1715 0.94362 0.0
H971 H 0.81636 0.2366 0.05094 0.0
H972 H 0.87284 0.26158 0.89565 0.0
H973 H 0.85065 0.23382 0.97875 0.0
H974 H 0.78318 0.21067 0.8854 0.0
H975 H 0.80512 0.23886 0.80362 0.0
C976 C 0.76878 0.1683 0.03379 0.0
C977 C 0.7699 0.18051 0.08732 0.0
C978 C 0.78419 0.1809 0.98566 0.0
C979 C 0.8014 0.20568 0.99107 0.0
C980 C 0.80344 0.21745 0.04591 0.0
C981 C 0.78763 0.20507 0.09328 0.0
C982 C 0.85333 0.25021 0.89249 0.0
C983 C 0.84067 0.25238 0.84333 0.0
C984 C 0.84067 0.23443 0.93997 0.0
C985 C 0.81526 0.22005 0.93812 0.0
C986 C 0.80278 0.22135 0.88755 0.0
C987 C 0.81532 0.23756 0.84099 0.0
H988 H 0.61717 0.75292 0.20083 0.0
H989 H 0.58331 0.78511 0.30473 0.0
H990 H 0.6224 0.78011 0.11663 0.0
H991 H 0.58919 0.81265 0.22168 0.0
H992 H 0.61761 0.86873 0.0688 0.0
H993 H 0.62424 0.84743 0.15228 0.0
H994 H 0.58584 0.78011 0.05451 0.0
H995 H 0.5786 0.80112 0.97223 0.0
C996 C 0.61161 0.76634 0.20632 0.0
C997 C 0.5999 0.767 0.25916 0.0
C998 C 0.61448 0.78176 0.15819 0.0
C999 C 0.60626 0.7985 0.16287 0.0
C1000 C 0.59593 0.80012 0.21715 0.0
C1001 C 0.59251 0.78433 0.26453 0.0
C1002 C 0.61108 0.84949 0.06473 0.0
C1003 C 0.59757 0.83655 0.0142 0.0
C1004 C 0.6148 0.83733 0.11246 0.0
C1005 C 0.60564 0.81218 0.10959 0.0
C1006 C 0.59333 0.79954 0.05756 0.0
C1007 C 0.58909 0.81155 0.01067 0.0
H1008 H 0.8713 0.61275 0.36966 0.0
H1009 H 0.80397 0.56763 0.46302 0.0
H1010 H 0.84871 0.618 0.28702 0.0
H1011 H 0.78163 0.57355 0.38158 0.0
H1012 H 0.75327 0.60728 0.24049 0.0
H1013 H 0.78035 0.61172 0.32446 0.0
H1014 H 0.81434 0.58123 0.21488 0.0
H1015 H 0.78685 0.57601 0.13204 0.0
C1016 C 0.85178 0.60444 0.37312 0.0
C1017 C 0.83937 0.58973 0.4226 0.0
C1018 C 0.8389 0.60741 0.32591 0.0
C1019 C 0.81349 0.59629 0.3283 0.0
C1020 C 0.80123 0.58252 0.37902 0.0
C1021 C 0.814 0.57903 0.42537 0.0
C1022 C 0.76694 0.6021 0.23407 0.0
C1023 C 0.76808 0.59139 0.1799 0.0
C1024 C 0.78229 0.60451 0.28204 0.0
C1025 C 0.79944 0.5969 0.27586 0.0
C1026 C 0.80145 0.58747 0.22053 0.0
C1027 C 0.78571 0.58445 0.17328 0.0
H1028 H 0.2227 0.77942 0.31137 0.0
H1029 H 0.15438 0.75869 0.39792 0.0
H1030 H 0.24424 0.80792 0.39293 0.0
H1031 H 0.17615 0.78681 0.48079 0.0
H1032 H 0.2357 0.80576 0.64168 0.0
H1033 H 0.20849 0.78407 0.55786 0.0
H1034 H 0.24641 0.84774 0.4468 0.0
H1035 H 0.2732 0.8698 0.53169 0.0
C1036 C 0.21228 0.7812 0.34748 0.0
C1037 C 0.18686 0.76684 0.34833 0.0
C1038 C 0.22461 0.79761 0.39392 0.0
C1039 C 0.21183 0.7996 0.44293 0.0
C1040 C 0.18637 0.78567 0.44327 0.0
C1041 C 0.17396 0.76967 0.3959 0.0
C1042 C 0.23765 0.81535 0.59996 0.0
C1043 C 0.25632 0.83949 0.59318 0.0
C1044 C 0.22211 0.80296 0.5521 0.0
C1045 C 0.22537 0.81426 0.49599 0.0
C1046 C 0.24348 0.8387 0.48977 0.0
C1047 C 0.25865 0.85134 0.5383 0.0
H1048 H 0.40683 0.26187 0.6986 0.0
H1049 H 0.44626 0.23329 0.79324 0.0
H1050 H 0.40001 0.23406 0.61462 0.0
H1051 H 0.43884 0.20515 0.71053 0.0
H1052 H 0.40892 0.14759 0.56284 0.0
H1053 H 0.40286 0.16876 0.64764 0.0
H1054 H 0.43496 0.23491 0.54437 0.0
H1055 H 0.44167 0.21404 0.46076 0.0
C1056 C 0.41334 0.24913 0.70224 0.0
C1057 C 0.42706 0.24969 0.75232 0.0
C1058 C 0.40954 0.23333 0.65419 0.0
C1059 C 0.41882 0.21742 0.65628 0.0
C1060 C 0.43124 0.21701 0.70803 0.0
C1061 C 0.43556 0.23317 0.75521 0.0
C1062 C 0.41398 0.16645 0.55779 0.0
C1063 C 0.42566 0.17919 0.50531 0.0
C1064 C 0.41066 0.17857 0.60631 0.0
C1065 C 0.41838 0.20344 0.60239 0.0
C1066 C 0.42858 0.2157 0.54835 0.0
C1067 C 0.43246 0.20378 0.50061 0.0
H1068 H 0.06468 0.3642 0.98221 0.0
H1069 H 0.07668 0.4302 0.89707 0.0
H1070 H 0.0231 0.34297 0.94352 0.0
H1071 H 0.03475 0.40901 0.85995 0.0
H1072 H 0.94826 0.36408 0.87879 0.0
H1073 H 0.99008 0.38574 0.91667 0.0
H1074 H 1.00443 0.33376 0.82941 0.0
H1075 H 0.96297 0.31251 0.79 0.0
C1076 C 0.05842 0.37419 0.95538 0.0
C1077 C 0.074 0.39887 0.9425 0.0
C1078 C 0.03466 0.36201 0.9332 0.0
C1079 C 0.02573 0.37438 0.89895 0.0
C1080 C 0.04117 0.3991 0.88651 0.0
C1081 C 0.06518 0.41116 0.90743 0.0
C1082 C 0.96033 0.35725 0.86787 0.0
C1083 C 0.95231 0.33656 0.8315 0.0
C1084 C 0.98426 0.36972 0.88921 0.0
C1085 C 1.00044 0.3614 0.87588 0.0
C1086 C 0.9923 0.3405 0.84045 0.0
C1087 C 0.9686 0.32839 0.81787 0.0
H1088 H 0.58931 0.94431 0.04392 0.0
H1089 H 0.65467 0.95793 0.95203 0.0
H1090 H 0.60988 0.98654 0.07893 0.0
H1091 H 0.67531 0.99978 0.98868 0.0
H1092 H 0.706 0.06028 0.14225 0.0
H1093 H 0.6851 0.01862 0.10437 0.0
H1094 H 0.63179 0.03128 0.01813 0.0
H1095 H 0.65313 0.07336 0.05438 0.0
C1096 C 0.60808 0.95624 0.03159 0.0
C1097 C 0.62037 0.94778 0.99528 0.0
C1098 C 0.61977 0.9804 0.05131 0.0
C1099 C 0.64414 0.99636 0.03639 0.0
C1100 C 0.65652 0.98782 1.00084 0.0
C1101 C 0.64469 0.96389 0.97986 0.0
C1102 C 0.68989 0.05424 0.11495 0.0
C1103 C 0.68125 0.07014 0.10112 0.0
C1104 C 0.67799 0.03043 0.09325 0.0
C1105 C 0.65683 0.02176 0.05855 0.0
C1106 C 0.64802 0.03753 0.04503 0.0
C1107 C 0.6603 0.0616 0.06546 0.0
H1108 H 0.68671 0.63722 0.08181 0.0
H1109 H 0.67496 0.60024 0.25187 0.0
H1110 H 0.66588 0.65782 0.11926 0.0
H1111 H 0.65368 0.62065 0.28907 0.0
H1112 H 0.64253 0.68279 0.35634 0.0
H1113 H 0.66197 0.66077 0.31898 0.0
H1114 H 0.62616 0.65096 0.14785 0.0
H1115 H 0.60695 0.67339 0.18495 0.0
C1116 C 0.67959 0.63337 0.12717 0.0
C1117 C 0.68264 0.61708 0.16388 0.0
C1118 C 0.66746 0.6451 0.14852 0.0
C1119 C 0.65804 0.64094 0.20724 0.0
C1120 C 0.66095 0.62453 0.24387 0.0
C1121 C 0.67305 0.61272 0.22242 0.0
C1122 C 0.63876 0.67595 0.3107 0.0
C1123 C 0.62321 0.68 0.27359 0.0
C1124 C 0.6498 0.66314 0.2894 0.0
C1125 C 0.64568 0.65403 0.23035 0.0
C1126 C 0.63001 0.65796 0.19333 0.0
C1127 C 0.61889 0.67074 0.2147 0.0
H1128 H 0.0788 0.65475 0.38197 0.0
H1129 H 0.06476 0.70678 0.29331 0.0
H1130 H 0.0368 0.63309 0.41851 0.0
H1131 H 0.02311 0.68554 0.33141 0.0
H1132 H 0.96202 0.65464 0.482 0.0
H1133 H 1.00381 0.67593 0.44483 0.0
H1134 H 0.99246 0.61016 0.36016 0.0
H1135 H 0.95032 0.58891 0.39575 0.0
C1136 C 0.06685 0.66168 0.37082 0.0
C1137 C 0.0751 0.68249 0.33485 0.0
C1138 C 0.04281 0.64921 0.3914 0.0
C1139 C 0.02676 0.65766 0.37769 0.0
C1140 C 0.03514 0.67869 0.34272 0.0
C1141 C 0.05895 0.6908 0.32089 0.0
C1142 C 0.96839 0.64473 0.45524 0.0
C1143 C 0.95284 0.62011 0.4416 0.0
C1144 C 0.99228 0.65693 0.43394 0.0
C1145 C 1.00134 0.64465 0.39984 0.0
C1146 C 0.98592 0.61999 0.38663 0.0
C1147 C 0.96181 0.60791 0.40667 0.0
H1148 H 0.38561 0.05381 0.41103 0.0
H1149 H 0.42147 0.08022 0.58202 0.0
H1150 H 0.36579 0.0125 0.44907 0.0
H1151 H 0.40194 0.03868 0.61979 0.0
H1152 H 0.34112 0.96505 0.6875 0.0
H1153 H 0.3625 1.00633 0.64938 0.0
H1154 H 0.37296 0.98023 0.47914 0.0
H1155 H 0.35105 0.93868 0.51701 0.0
C1156 C 0.38939 0.05083 0.45673 0.0
C1157 C 0.4051 0.07046 0.49352 0.0
C1158 C 0.37812 0.02703 0.47842 0.0
C1159 C 0.38221 0.02213 0.53756 0.0
C1160 C 0.39808 0.04175 0.57426 0.0
C1161 C 0.4094 0.0656 0.55251 0.0
C1162 C 0.34797 0.96803 0.6419 0.0
C1163 C 0.34422 0.94842 0.60527 0.0
C1164 C 0.36043 0.99182 0.62015 0.0
C1165 C 0.36953 0.99674 0.56112 0.0
C1166 C 0.36595 0.97714 0.52458 0.0
C1167 C 0.35347 0.95329 0.54639 0.0
H1168 H 0.37429 0.43205 0.70694 0.0
H1169 H 0.31918 0.36587 0.62455 0.0
H1170 H 0.39547 0.41091 0.74131 0.0
H1171 H 0.33997 0.34471 0.66055 0.0
H1172 H 0.37143 0.3149 0.81164 0.0
H1173 H 0.35094 0.33625 0.77491 0.0
H1174 H 0.41583 0.38692 0.68032 0.0
H1175 H 0.43624 0.36511 0.71549 0.0
C1176 C 0.36661 0.41299 0.69661 0.0
C1177 C 0.34505 0.40062 0.66312 0.0
C1178 C 0.3788 0.40097 0.71594 0.0
C1179 C 0.36933 0.37622 0.70346 0.0
C1180 C 0.34761 0.36378 0.67082 0.0
C1181 C 0.33577 0.37591 0.6502 0.0
C1182 C 0.38131 0.33052 0.78275 0.0
C1183 C 0.40543 0.33828 0.76627 0.0
C1184 C 0.36956 0.34268 0.76172 0.0
C1185 C 0.38185 0.36324 0.72501 0.0
C1186 C 0.40602 0.37117 0.70882 0.0
C1187 C 0.41761 0.35861 0.72863 0.0
loop_
_geom_bond_atom_site_label_1
_geom_bond_atom_site_label_2
_geom_bond_distance
_geom_bond_site_symmetry_2
_ccdc_geom_bond_type
Co0 O2 2.143 . S
Co0 O8 2.074 1_554 S
Co0 O11 2.093 . S
Co0 O24 2.097 . S
Co0 N41 2.151 1_554 S
Co0 N49 2.214 . S
Co1 O2 2.160 . S
Co1 O7 2.058 1_554 S
Co1 O17 2.057 . S
Co1 O32 2.037 . S
Co1 N36 2.145 . S
Co1 N57 2.257 . S
O2 Co0 2.143 . S
O2 Co1 2.160 . S
C3 O4 1.278 . S
C3 O11 1.224 . S
O4 C3 1.278 . S
C5 O6 1.245 . S
C5 O17 1.232 1_556 S
O6 C5 1.245 . S
O7 Co1 2.058 1_556 S
O7 C33 1.269 . S
O8 Co0 2.074 1_556 S
O8 C33 1.257 . S
H9 C34 0.930 . S
H10 C40 0.930 . S
O11 Co0 2.093 . S
O11 C3 1.224 . S
H12 C44 0.929 . S
H13 C46 0.930 . S
H14 C47 0.930 . S
H15 C45 0.929 . S
H16 C48 0.928 . S
O17 Co1 2.057 . S
O17 C5 1.232 1_554 S
H18 C37 0.929 . S
H19 C38 0.929 . S
H20 C50 0.931 . S
H21 C42 0.929 . S
H22 C51 0.930 . S
H23 C43 0.931 . S
O24 Co0 2.097 . S
O24 C52 1.214 . S
H25 C53 0.929 . S
H26 C54 0.929 . S
H27 C55 0.930 . S
H28 C56 0.929 . S
H29 C58 0.930 . S
H30 C35 0.930 . S
H31 C39 0.930 . S
O32 Co1 2.037 . S
O32 C52 1.234 . S
C33 O7 1.269 . S
C33 O8 1.257 . S
C34 H9 0.930 . S
C34 C37 1.388 . S
C34 C39 1.418 . S
C35 H30 0.930 . S
C35 C38 1.404 . S
C35 C39 1.353 . S
N36 Co1 2.145 . S
N36 C37 1.397 . S
N36 C38 1.334 . S
C37 H18 0.929 . S
C37 C34 1.388 . S
C37 N36 1.397 . S
C38 H19 0.929 . S
C38 C35 1.404 . S
C38 N36 1.334 . S
C39 H31 0.930 . S
C39 C34 1.418 . S
C39 C35 1.353 . S
C40 H10 0.930 . S
C40 N41 1.330 . S
C40 C42 1.446 . S
N41 Co0 2.151 1_556 S
N41 C40 1.330 . S
N41 C45 1.418 . S
C42 H21 0.929 . S
C42 C40 1.446 . S
C42 C43 1.332 . S
C43 H23 0.931 . S
C43 C42 1.332 . S
C43 C44 1.267 . S
C44 H12 0.929 . S
C44 C43 1.267 . S
C44 C45 1.251 . S
C45 H15 0.929 . S
C45 N41 1.418 . S
C45 C44 1.251 . S
C46 H13 0.930 . S
C46 C48 1.406 . S
C46 C51 1.261 . S
C47 H14 0.930 . S
C47 N49 1.325 . S
C47 C50 1.357 . S
C48 H16 0.928 . S
C48 C46 1.406 . S
C48 N49 1.261 . S
N49 Co0 2.214 . S
N49 C47 1.325 . S
N49 C48 1.261 . S
C50 H20 0.931 . S
C50 C47 1.357 . S
C50 C51 1.312 . S
C51 H22 0.930 . S
C51 C46 1.261 . S
C51 C50 1.312 . S
C52 O24 1.214 . S
C52 O32 1.234 . S
C53 H25 0.929 . S
C53 C56 1.391 . S
C53 C58 1.391 . S
C54 H26 0.929 . S
C54 C55 1.390 . S
C54 N57 1.391 . S
C55 H27 0.930 . S
C55 C54 1.390 . S
C55 C56 1.392 . S
C56 H28 0.929 . S
C56 C53 1.391 . S
C56 C55 1.392 . S
N57 Co1 2.257 . S
N57 C54 1.391 . S
N57 C58 1.388 . S
C58 H29 0.930 . S
C58 C53 1.391 . S
C58 N57 1.388 . S
Co59 O61 2.143 . S
Co59 O67 2.074 . S
Co59 O70 2.093 . S
Co59 O83 2.097 . S
Co59 N100 2.151 . S
Co59 N108 2.214 . S
Co60 O61 2.160 . S
Co60 O66 2.058 . S
Co60 O76 2.057 . S
Co60 O91 2.037 . S
Co60 N95 2.145 . S
Co60 N116 2.257 . S
O61 Co59 2.143 . S
O61 Co60 2.160 . S
C62 O63 1.278 . S
C62 O70 1.224 . S
O63 C62 1.278 . S
C64 O65 1.245 . S
C64 O76 1.232 . S
O65 C64 1.245 . S
O66 Co60 2.058 . S
O66 C92 1.269 . S
O67 Co59 2.074 . S
O67 C92 1.257 . S
H68 C93 0.930 . S
H69 C99 0.930 . S
O70 Co59 2.093 . S
O70 C62 1.224 . S
H71 C103 0.929 . S
H72 C105 0.930 . S
H73 C106 0.930 . S
H74 C104 0.929 . S
H75 C107 0.928 . S
O76 Co60 2.057 . S
O76 C64 1.232 . S
H77 C96 0.929 . S
H78 C97 0.929 . S
H79 C109 0.931 . S
H80 C101 0.929 . S
H81 C110 0.930 . S
H82 C102 0.931 1_556 S
O83 Co59 2.097 . S
O83 C111 1.214 . S
H84 C112 0.929 . S
H85 C113 0.929 . S
H86 C114 0.930 . S
H87 C115 0.929 . S
H88 C117 0.930 . S
H89 C94 0.930 . S
H90 C98 0.930 . S
O91 Co60 2.037 . S
O91 C111 1.234 . S
C92 O66 1.269 . S
C92 O67 1.257 . S
C93 H68 0.930 . S
C93 C96 1.388 . S
C93 C98 1.418 . S
C94 H89 0.930 . S
C94 C97 1.404 . S
C94 C98 1.353 . S
N95 Co60 2.145 . S
N95 C96 1.397 . S
N95 C97 1.334 . S
C96 H77 0.929 . S
C96 C93 1.388 . S
C96 N95 1.397 . S
C97 H78 0.929 . S
C97 C94 1.404 . S
C97 N95 1.334 . S
C98 H90 0.930 . S
C98 C93 1.418 . S
C98 C94 1.353 . S
C99 H69 0.930 . S
C99 N100 1.330 . S
C99 C101 1.446 . S
N100 Co59 2.151 . S
N100 C99 1.330 . S
N100 C104 1.418 . S
C101 H80 0.929 . S
C101 C99 1.446 . S
C101 C102 1.332 . S
C102 H82 0.931 1_554 S
C102 C101 1.332 . S
C102 C103 1.267 . S
C103 H71 0.929 . S
C103 C102 1.267 . S
C103 C104 1.251 . S
C104 H74 0.929 . S
C104 N100 1.418 . S
C104 C103 1.251 . S
C105 H72 0.930 . S
C105 C107 1.406 . S
C105 C110 1.261 . S
C106 H73 0.930 . S
C106 N108 1.325 . S
C106 C109 1.357 . S
C107 H75 0.928 . S
C107 C105 1.406 . S
C107 N108 1.261 . S
N108 Co59 2.214 . S
N108 C106 1.325 . S
N108 C107 1.261 . S
C109 H79 0.931 . S
C109 C106 1.357 . S
C109 C110 1.312 . S
C110 H81 0.930 . S
C110 C105 1.261 . S
C110 C109 1.312 . S
C111 O83 1.214 . S
C111 O91 1.234 . S
C112 H84 0.929 . S
C112 C115 1.391 . S
C112 C117 1.391 . S
C113 H85 0.929 . S
C113 C114 1.390 . S
C113 N116 1.391 . S
C114 H86 0.930 . S
C114 C113 1.390 . S
C114 C115 1.392 . S
C115 H87 0.929 . S
C115 C112 1.391 . S
C115 C114 1.392 . S
N116 Co60 2.257 . S
N116 C113 1.391 . S
N116 C117 1.388 . S
C117 H88 0.930 . S
C117 C112 1.391 . S
C117 N116 1.388 . S
Co118 O120 2.143 . S
Co118 O126 2.074 . S
Co118 O129 2.093 . S
Co118 O142 2.097 . S
Co118 N159 2.151 . S
Co118 N167 2.214 . S
Co119 O120 2.160 . S
Co119 O125 2.058 . S
Co119 O135 2.057 . S
Co119 O150 2.037 . S
Co119 N154 2.145 . S
Co119 N175 2.257 . S
O120 Co118 2.143 . S
O120 Co119 2.160 . S
C121 O122 1.278 . S
C121 O129 1.224 . S
O122 C121 1.278 . S
C123 O124 1.245 . S
C123 O135 1.232 . S
O124 C123 1.245 . S
O125 Co119 2.058 . S
O125 C151 1.269 . S
O126 Co118 2.074 . S
O126 C151 1.257 . S
H127 C152 0.930 . S
H128 C158 0.930 . S
O129 Co118 2.093 . S
O129 C121 1.224 . S
H130 C162 0.929 . S
H131 C164 0.930 . S
H132 C165 0.930 . S
H133 C163 0.929 . S
H134 C166 0.928 . S
O135 Co119 2.057 . S
O135 C123 1.232 . S
H136 C155 0.929 . S
H137 C156 0.929 . S
H138 C168 0.931 . S
H139 C160 0.929 . S
H140 C169 0.930 . S
H141 C161 0.931 . S
O142 Co118 2.097 . S
O142 C170 1.214 . S
H143 C171 0.929 . S
H144 C172 0.929 . S
H145 C173 0.930 . S
H146 C174 0.929 . S
H147 C176 0.930 . S
H148 C153 0.930 . S
H149 C157 0.930 . S
O150 Co119 2.037 . S
O150 C170 1.234 . S
C151 O125 1.269 . S
C151 O126 1.257 . S
C152 H127 0.930 . S
C152 C155 1.388 . S
C152 C157 1.418 . S
C153 H148 0.930 . S
C153 C156 1.404 . S
C153 C157 1.353 . S
N154 Co119 2.145 . S
N154 C155 1.397 . S
N154 C156 1.334 . S
C155 H136 0.929 . S
C155 C152 1.388 . S
C155 N154 1.397 . S
C156 H137 0.929 . S
C156 C153 1.404 . S
C156 N154 1.334 . S
C157 H149 0.930 . S
C157 C152 1.418 . S
C157 C153 1.353 . S
C158 H128 0.930 . S
C158 N159 1.330 . S
C158 C160 1.446 . S
N159 Co118 2.151 . S
N159 C158 1.330 . S
N159 C163 1.418 . S
C160 H139 0.929 . S
C160 C158 1.446 . S
C160 C161 1.332 . S
C161 H141 0.931 . S
C161 C160 1.332 . S
C161 C162 1.267 . S
C162 H130 0.929 . S
C162 C161 1.267 . S
C162 C163 1.251 . S
C163 H133 0.929 . S
C163 N159 1.418 . S
C163 C162 1.251 . S
C164 H131 0.930 . S
C164 C166 1.406 . S
C164 C169 1.261 . S
C165 H132 0.930 . S
C165 N167 1.325 . S
C165 C168 1.357 . S
C166 H134 0.928 . S
C166 C164 1.406 . S
C166 N167 1.261 . S
N167 Co118 2.214 . S
N167 C165 1.325 . S
N167 C166 1.261 . S
C168 H138 0.931 . S
C168 C165 1.357 . S
C168 C169 1.312 . S
C169 H140 0.930 . S
C169 C164 1.261 . S
C169 C168 1.312 . S
C170 O142 1.214 . S
C170 O150 1.234 . S
C171 H143 0.929 . S
C171 C174 1.391 . S
C171 C176 1.391 . S
C172 H144 0.929 . S
C172 C173 1.390 . S
C172 N175 1.391 . S
C173 H145 0.930 . S
C173 C172 1.390 . S
C173 C174 1.392 . S
C174 H146 0.929 . S
C174 C171 1.391 . S
C174 C173 1.392 . S
N175 Co119 2.257 . S
N175 C172 1.391 . S
N175 C176 1.388 . S
C176 H147 0.930 . S
C176 C171 1.391 . S
C176 N175 1.388 . S
Co177 O179 2.143 . S
Co177 O185 2.074 . S
Co177 O188 2.093 . S
Co177 O201 2.097 . S
Co177 N218 2.151 . S
Co177 N226 2.214 . S
Co178 O179 2.160 . S
Co178 O184 2.058 . S
Co178 O194 2.057 . S
Co178 O209 2.037 . S
Co178 N213 2.145 . S
Co178 N234 2.257 . S
O179 Co177 2.143 . S
O179 Co178 2.160 . S
C180 O181 1.278 . S
C180 O188 1.224 . S
O181 C180 1.278 . S
C182 O183 1.245 . S
C182 O194 1.232 . S
O183 C182 1.245 . S
O184 Co178 2.058 . S
O184 C210 1.269 . S
O185 Co177 2.074 . S
O185 C210 1.257 . S
H186 C211 0.930 . S
H187 C217 0.930 . S
O188 Co177 2.093 . S
O188 C180 1.224 . S
H189 C221 0.929 . S
H190 C223 0.930 . S
H191 C224 0.930 . S
H192 C222 0.929 . S
H193 C225 0.928 . S
O194 Co178 2.057 . S
O194 C182 1.232 . S
H195 C214 0.929 . S
H196 C215 0.929 . S
H197 C227 0.931 . S
H198 C219 0.929 . S
H199 C228 0.930 . S
H200 C220 0.931 . S
O201 Co177 2.097 . S
O201 C229 1.214 . S
H202 C230 0.929 . S
H203 C231 0.929 . S
H204 C232 0.930 . S
H205 C233 0.929 . S
H206 C235 0.930 . S
H207 C212 0.930 . S
H208 C216 0.930 . S
O209 Co178 2.037 . S
O209 C229 1.234 . S
C210 O184 1.269 . S
C210 O185 1.257 . S
C211 H186 0.930 . S
C211 C214 1.388 . S
C211 C216 1.418 . S
C212 H207 0.930 . S
C212 C215 1.404 . S
C212 C216 1.353 . S
N213 Co178 2.145 . S
N213 C214 1.397 . S
N213 C215 1.334 . S
C214 H195 0.929 . S
C214 C211 1.388 . S
C214 N213 1.397 . S
C215 H196 0.929 . S
C215 C212 1.404 . S
C215 N213 1.334 . S
C216 H208 0.930 . S
C216 C211 1.418 . S
C216 C212 1.353 . S
C217 H187 0.930 . S
C217 N218 1.330 . S
C217 C219 1.446 . S
N218 Co177 2.151 . S
N218 C217 1.330 . S
N218 C222 1.418 . S
C219 H198 0.929 . S
C219 C217 1.446 . S
C219 C220 1.332 . S
C220 H200 0.931 . S
C220 C219 1.332 . S
C220 C221 1.267 . S
C221 H189 0.929 . S
C221 C220 1.267 . S
C221 C222 1.251 . S
C222 H192 0.929 . S
C222 N218 1.418 . S
C222 C221 1.251 . S
C223 H190 0.930 . S
C223 C225 1.406 . S
C223 C228 1.261 . S
C224 H191 0.930 . S
C224 N226 1.325 . S
C224 C227 1.357 . S
C225 H193 0.928 . S
C225 C223 1.406 . S
C225 N226 1.261 . S
N226 Co177 2.214 . S
N226 C224 1.325 . S
N226 C225 1.261 . S
C227 H197 0.931 . S
C227 C224 1.357 . S
C227 C228 1.312 . S
C228 H199 0.930 . S
C228 C223 1.261 . S
C228 C227 1.312 . S
C229 O201 1.214 . S
C229 O209 1.234 . S
C230 H202 0.929 . S
C230 C233 1.391 . S
C230 C235 1.391 . S
C231 H203 0.929 . S
C231 C232 1.390 . S
C231 N234 1.391 . S
C232 H204 0.930 . S
C232 C231 1.390 . S
C232 C233 1.392 . S
C233 H205 0.929 . S
C233 C230 1.391 . S
C233 C232 1.392 . S
N234 Co178 2.257 . S
N234 C231 1.391 . S
N234 C235 1.388 . S
C235 H206 0.930 . S
C235 C230 1.391 . S
C235 N234 1.388 . S
Co236 O238 2.143 . S
Co236 O244 2.074 . S
Co236 O247 2.093 . S
Co236 O260 2.097 . S
Co236 N277 2.151 . S
Co236 N285 2.214 . S
Co237 O238 2.160 . S
Co237 O243 2.058 . S
Co237 O253 2.057 . S
Co237 O268 2.037 . S
Co237 N272 2.145 . S
Co237 N293 2.257 . S
O238 Co236 2.143 . S
O238 Co237 2.160 . S
C239 O240 1.278 . S
C239 O247 1.224 . S
O240 C239 1.278 . S
C241 O242 1.245 . S
C241 O253 1.232 . S
O242 C241 1.245 . S
O243 Co237 2.058 . S
O243 C269 1.269 . S
O244 Co236 2.074 . S
O244 C269 1.257 . S
H245 C270 0.930 . S
H246 C276 0.930 . S
O247 Co236 2.093 . S
O247 C239 1.224 . S
H248 C280 0.929 . S
H249 C282 0.930 . S
H250 C283 0.930 . S
H251 C281 0.929 . S
H252 C284 0.928 . S
O253 Co237 2.057 . S
O253 C241 1.232 . S
H254 C273 0.929 . S
H255 C274 0.929 . S
H256 C286 0.931 . S
H257 C278 0.929 . S
H258 C287 0.930 . S
H259 C279 0.931 . S
O260 Co236 2.097 . S
O260 C288 1.214 . S
H261 C289 0.929 . S
H262 C290 0.929 . S
H263 C291 0.930 . S
H264 C292 0.929 . S
H265 C294 0.930 . S
H266 C271 0.930 . S
H267 C275 0.930 . S
O268 Co237 2.037 . S
O268 C288 1.234 . S
C269 O243 1.269 . S
C269 O244 1.257 . S
C270 H245 0.930 . S
C270 C273 1.388 . S
C270 C275 1.418 . S
C271 H266 0.930 . S
C271 C274 1.404 . S
C271 C275 1.353 . S
N272 Co237 2.145 . S
N272 C273 1.397 . S
N272 C274 1.334 . S
C273 H254 0.929 . S
C273 C270 1.388 . S
C273 N272 1.397 . S
C274 H255 0.929 . S
C274 C271 1.404 . S
C274 N272 1.334 . S
C275 H267 0.930 . S
C275 C270 1.418 . S
C275 C271 1.353 . S
C276 H246 0.930 . S
C276 N277 1.330 . S
C276 C278 1.446 . S
N277 Co236 2.151 . S
N277 C276 1.330 . S
N277 C281 1.418 . S
C278 H257 0.929 . S
C278 C276 1.446 . S
C278 C279 1.332 . S
C279 H259 0.931 . S
C279 C278 1.332 . S
C279 C280 1.267 . S
C280 H248 0.929 . S
C280 C279 1.267 . S
C280 C281 1.251 . S
C281 H251 0.929 . S
C281 N277 1.418 . S
C281 C280 1.251 . S
C282 H249 0.930 . S
C282 C284 1.406 . S
C282 C287 1.261 . S
C283 H250 0.930 . S
C283 N285 1.325 . S
C283 C286 1.357 . S
C284 H252 0.928 . S
C284 C282 1.406 . S
C284 N285 1.261 . S
N285 Co236 2.214 . S
N285 C283 1.325 . S
N285 C284 1.261 . S
C286 H256 0.931 . S
C286 C283 1.357 . S
C286 C287 1.312 . S
C287 H258 0.930 . S
C287 C282 1.261 . S
C287 C286 1.312 . S
C288 O260 1.214 . S
C288 O268 1.234 . S
C289 H261 0.929 . S
C289 C292 1.391 . S
C289 C294 1.391 . S
C290 H262 0.929 . S
C290 C291 1.390 . S
C290 N293 1.391 . S
C291 H263 0.930 . S
C291 C290 1.390 . S
C291 C292 1.392 . S
C292 H264 0.929 . S
C292 C289 1.391 . S
C292 C291 1.392 . S
N293 Co237 2.257 . S
N293 C290 1.391 . S
N293 C294 1.388 . S
C294 H265 0.930 . S
C294 C289 1.391 . S
C294 N293 1.388 . S
Co295 O297 2.143 . S
Co295 O303 2.074 . S
Co295 O306 2.093 . S
Co295 O319 2.097 . S
Co295 N336 2.151 . S
Co295 N344 2.214 . S
Co296 O297 2.160 . S
Co296 O302 2.058 . S
Co296 O312 2.057 . S
Co296 O327 2.037 . S
Co296 N331 2.145 . S
Co296 N352 2.257 . S
O297 Co295 2.143 . S
O297 Co296 2.160 . S
C298 O299 1.278 . S
C298 O306 1.224 . S
O299 C298 1.278 . S
C300 O301 1.245 . S
C300 O312 1.232 . S
O301 C300 1.245 . S
O302 Co296 2.058 . S
O302 C328 1.269 . S
O303 Co295 2.074 . S
O303 C328 1.257 . S
H304 C329 0.930 . S
H305 C335 0.930 . S
O306 Co295 2.093 . S
O306 C298 1.224 . S
H307 C339 0.929 . S
H308 C341 0.930 . S
H309 C342 0.930 . S
H310 C340 0.929 . S
H311 C343 0.928 . S
O312 Co296 2.057 . S
O312 C300 1.232 . S
H313 C332 0.929 . S
H314 C333 0.929 . S
H315 C345 0.931 . S
H316 C337 0.929 . S
H317 C346 0.930 . S
H318 C338 0.931 . S
O319 Co295 2.097 . S
O319 C347 1.214 . S
H320 C348 0.929 . S
H321 C349 0.929 . S
H322 C350 0.930 . S
H323 C351 0.929 . S
H324 C353 0.930 . S
H325 C330 0.930 . S
H326 C334 0.930 . S
O327 Co296 2.037 . S
O327 C347 1.234 . S
C328 O302 1.269 . S
C328 O303 1.257 . S
C329 H304 0.930 . S
C329 C332 1.388 . S
C329 C334 1.418 . S
C330 H325 0.930 . S
C330 C333 1.404 . S
C330 C334 1.353 . S
N331 Co296 2.145 . S
N331 C332 1.397 . S
N331 C333 1.334 . S
C332 H313 0.929 . S
C332 C329 1.388 . S
C332 N331 1.397 . S
C333 H314 0.929 . S
C333 C330 1.404 . S
C333 N331 1.334 . S
C334 H326 0.930 . S
C334 C329 1.418 . S
C334 C330 1.353 . S
C335 H305 0.930 . S
C335 N336 1.330 . S
C335 C337 1.446 1_556 S
N336 Co295 2.151 . S
N336 C335 1.330 . S
N336 C340 1.418 1_556 S
C337 H316 0.929 . S
C337 C335 1.446 1_554 S
C337 C338 1.332 . S
C338 H318 0.931 . S
C338 C337 1.332 . S
C338 C339 1.267 . S
C339 H307 0.929 . S
C339 C338 1.267 . S
C339 C340 1.251 . S
C340 H310 0.929 . S
C340 N336 1.418 1_554 S
C340 C339 1.251 . S
C341 H308 0.930 . S
C341 C343 1.406 . S
C341 C346 1.261 . S
C342 H309 0.930 . S
C342 N344 1.325 . S
C342 C345 1.357 . S
C343 H311 0.928 . S
C343 C341 1.406 . S
C343 N344 1.261 . S
N344 Co295 2.214 . S
N344 C342 1.325 . S
N344 C343 1.261 . S
C345 H315 0.931 . S
C345 C342 1.357 . S
C345 C346 1.312 . S
C346 H317 0.930 . S
C346 C341 1.261 . S
C346 C345 1.312 . S
C347 O319 1.214 . S
C347 O327 1.234 . S
C348 H320 0.929 . S
C348 C351 1.391 . S
C348 C353 1.391 . S
C349 H321 0.929 . S
C349 C350 1.390 . S
C349 N352 1.391 . S
C350 H322 0.930 . S
C350 C349 1.390 . S
C350 C351 1.392 . S
C351 H323 0.929 . S
C351 C348 1.391 . S
C351 C350 1.392 . S
N352 Co296 2.257 . S
N352 C349 1.391 . S
N352 C353 1.388 . S
C353 H324 0.930 . S
C353 C348 1.391 . S
C353 N352 1.388 . S
Co354 O356 2.143 . S
Co354 O362 2.074 . S
Co354 O365 2.093 . S
Co354 O378 2.097 . S
Co354 N395 2.151 . S
Co354 N403 2.214 . S
Co355 O356 2.160 . S
Co355 O361 2.058 . S
Co355 O371 2.057 . S
Co355 O386 2.037 . S
Co355 N390 2.145 . S
Co355 N411 2.257 . S
O356 Co354 2.143 . S
O356 Co355 2.160 . S
C357 O358 1.278 . S
C357 O365 1.224 . S
O358 C357 1.278 . S
C359 O360 1.245 . S
C359 O371 1.232 . S
O360 C359 1.245 . S
O361 Co355 2.058 . S
O361 C387 1.269 . S
O362 Co354 2.074 . S
O362 C387 1.257 . S
H363 C388 0.930 . S
H364 C394 0.930 . S
O365 Co354 2.093 . S
O365 C357 1.224 . S
H366 C398 0.929 . S
H367 C400 0.930 . S
H368 C401 0.930 . S
H369 C399 0.929 . S
H370 C402 0.928 . S
O371 Co355 2.057 . S
O371 C359 1.232 . S
H372 C391 0.929 . S
H373 C392 0.929 . S
H374 C404 0.931 . S
H375 C396 0.929 . S
H376 C405 0.930 . S
H377 C397 0.931 . S
O378 Co354 2.097 . S
O378 C406 1.214 . S
H379 C407 0.929 . S
H380 C408 0.929 . S
H381 C409 0.930 . S
H382 C410 0.929 . S
H383 C412 0.930 . S
H384 C389 0.930 . S
H385 C393 0.930 . S
O386 Co355 2.037 . S
O386 C406 1.234 . S
C387 O361 1.269 . S
C387 O362 1.257 . S
C388 H363 0.930 . S
C388 C391 1.388 . S
C388 C393 1.418 . S
C389 H384 0.930 . S
C389 C392 1.404 . S
C389 C393 1.353 . S
N390 Co355 2.145 . S
N390 C391 1.397 . S
N390 C392 1.334 . S
C391 H372 0.929 . S
C391 C388 1.388 . S
C391 N390 1.397 . S
C392 H373 0.929 . S
C392 C389 1.404 . S
C392 N390 1.334 . S
C393 H385 0.930 . S
C393 C388 1.418 . S
C393 C389 1.353 . S
C394 H364 0.930 . S
C394 N395 1.330 . S
C394 C396 1.446 1_556 S
N395 Co354 2.151 . S
N395 C394 1.330 . S
N395 C399 1.418 1_556 S
C396 H375 0.929 . S
C396 C394 1.446 1_554 S
C396 C397 1.332 . S
C397 H377 0.931 . S
C397 C396 1.332 . S
C397 C398 1.267 . S
C398 H366 0.929 . S
C398 C397 1.267 . S
C398 C399 1.251 . S
C399 H369 0.929 . S
C399 N395 1.418 1_554 S
C399 C398 1.251 . S
C400 H367 0.930 . S
C400 C402 1.406 . S
C400 C405 1.261 . S
C401 H368 0.930 . S
C401 N403 1.325 . S
C401 C404 1.357 . S
C402 H370 0.928 . S
C402 C400 1.406 . S
C402 N403 1.261 . S
N403 Co354 2.214 . S
N403 C401 1.325 . S
N403 C402 1.261 . S
C404 H374 0.931 . S
C404 C401 1.357 . S
C404 C405 1.312 . S
C405 H376 0.930 . S
C405 C400 1.261 . S
C405 C404 1.312 . S
C406 O378 1.214 . S
C406 O386 1.234 . S
C407 H379 0.929 . S
C407 C410 1.391 . S
C407 C412 1.391 . S
C408 H380 0.929 . S
C408 C409 1.390 . S
C408 N411 1.391 . S
C409 H381 0.930 . S
C409 C408 1.390 . S
C409 C410 1.392 . S
C410 H382 0.929 . S
C410 C407 1.391 . S
C410 C409 1.392 . S
N411 Co355 2.257 . S
N411 C408 1.391 . S
N411 C412 1.388 . S
C412 H383 0.930 . S
C412 C407 1.391 . S
C412 N411 1.388 . S
Co413 O415 2.143 . S
Co413 O421 2.074 . S
Co413 O424 2.093 . S
Co413 O437 2.097 1_554 S
Co413 N454 2.151 . S
Co413 N462 2.214 . S
Co414 O415 2.160 . S
Co414 O420 2.058 . S
Co414 O430 2.057 . S
Co414 O445 2.037 1_554 S
Co414 N449 2.145 . S
Co414 N470 2.257 1_554 S
O415 Co413 2.143 . S
O415 Co414 2.160 . S
C416 O417 1.278 . S
C416 O424 1.224 1_556 S
O417 C416 1.278 . S
C418 O419 1.245 . S
C418 O430 1.232 . S
O419 C418 1.245 . S
O420 Co414 2.058 . S
O420 C446 1.269 . S
O421 Co413 2.074 . S
O421 C446 1.257 . S
H422 C447 0.930 1_556 S
H423 C453 0.930 . S
O424 Co413 2.093 . S
O424 C416 1.224 1_554 S
H425 C457 0.929 . S
H426 C459 0.930 . S
H427 C460 0.930 . S
H428 C458 0.929 . S
H429 C461 0.928 . S
O430 Co414 2.057 . S
O430 C418 1.232 . S
H431 C450 0.929 . S
H432 C451 0.929 . S
H433 C463 0.931 . S
H434 C455 0.929 . S
H435 C464 0.930 . S
H436 C456 0.931 . S
O437 Co413 2.097 1_556 S
O437 C465 1.214 . S
H438 C466 0.929 . S
H439 C467 0.929 . S
H440 C468 0.930 . S
H441 C469 0.929 . S
H442 C471 0.930 . S
H443 C448 0.930 . S
H444 C452 0.930 1_556 S
O445 Co414 2.037 1_556 S
O445 C465 1.234 . S
C446 O420 1.269 . S
C446 O421 1.257 . S
C447 H422 0.930 1_554 S
C447 C450 1.388 . S
C447 C452 1.418 . S
C448 H443 0.930 . S
C448 C451 1.404 . S
C448 C452 1.353 . S
N449 Co414 2.145 . S
N449 C450 1.397 . S
N449 C451 1.334 . S
C450 H431 0.929 . S
C450 C447 1.388 . S
C450 N449 1.397 . S
C451 H432 0.929 . S
C451 C448 1.404 . S
C451 N449 1.334 . S
C452 H444 0.930 1_554 S
C452 C447 1.418 . S
C452 C448 1.353 . S
C453 H423 0.930 . S
C453 N454 1.330 . S
C453 C455 1.446 . S
N454 Co413 2.151 . S
N454 C453 1.330 . S
N454 C458 1.418 . S
C455 H434 0.929 . S
C455 C453 1.446 . S
C455 C456 1.332 . S
C456 H436 0.931 . S
C456 C455 1.332 . S
C456 C457 1.267 . S
C457 H425 0.929 . S
C457 C456 1.267 . S
C457 C458 1.251 . S
C458 H428 0.929 . S
C458 N454 1.418 . S
C458 C457 1.251 . S
C459 H426 0.930 . S
C459 C461 1.406 . S
C459 C464 1.261 . S
C460 H427 0.930 . S
C460 N462 1.325 . S
C460 C463 1.357 . S
C461 H429 0.928 . S
C461 C459 1.406 . S
C461 N462 1.261 . S
N462 Co413 2.214 . S
N462 C460 1.325 . S
N462 C461 1.261 . S
C463 H433 0.931 . S
C463 C460 1.357 . S
C463 C464 1.312 . S
C464 H435 0.930 . S
C464 C459 1.261 . S
C464 C463 1.312 . S
C465 O437 1.214 . S
C465 O445 1.234 . S
C466 H438 0.929 . S
C466 C469 1.391 . S
C466 C471 1.391 . S
C467 H439 0.929 . S
C467 C468 1.390 . S
C467 N470 1.391 . S
C468 H440 0.930 . S
C468 C467 1.390 . S
C468 C469 1.392 . S
C469 H441 0.929 . S
C469 C466 1.391 . S
C469 C468 1.392 . S
N470 Co414 2.257 1_556 S
N470 C467 1.391 . S
N470 C471 1.388 . S
C471 H442 0.930 . S
C471 C466 1.391 . S
C471 N470 1.388 . S
Co472 O474 2.143 . S
Co472 O480 2.074 . S
Co472 O483 2.093 . S
Co472 O496 2.097 . S
Co472 N513 2.151 . S
Co472 N521 2.214 . S
Co473 O474 2.160 . S
Co473 O479 2.058 . S
Co473 O489 2.057 . S
Co473 O504 2.037 . S
Co473 N508 2.145 . S
Co473 N529 2.257 . S
O474 Co472 2.143 . S
O474 Co473 2.160 . S
C475 O476 1.278 . S
C475 O483 1.224 . S
O476 C475 1.278 . S
C477 O478 1.245 . S
C477 O489 1.232 . S
O478 C477 1.245 . S
O479 Co473 2.058 . S
O479 C505 1.269 . S
O480 Co472 2.074 . S
O480 C505 1.257 . S
H481 C506 0.930 . S
H482 C512 0.930 . S
O483 Co472 2.093 . S
O483 C475 1.224 . S
H484 C516 0.929 . S
H485 C518 0.930 . S
H486 C519 0.930 . S
H487 C517 0.929 . S
H488 C520 0.928 . S
O489 Co473 2.057 . S
O489 C477 1.232 . S
H490 C509 0.929 . S
H491 C510 0.929 . S
H492 C522 0.931 . S
H493 C514 0.929 . S
H494 C523 0.930 . S
H495 C515 0.931 . S
O496 Co472 2.097 . S
O496 C524 1.214 . S
H497 C525 0.929 . S
H498 C526 0.929 . S
H499 C527 0.930 . S
H500 C528 0.929 . S
H501 C530 0.930 . S
H502 C507 0.930 . S
H503 C511 0.930 . S
O504 Co473 2.037 . S
O504 C524 1.234 . S
C505 O479 1.269 . S
C505 O480 1.257 . S
C506 H481 0.930 . S
C506 C509 1.388 . S
C506 C511 1.418 . S
C507 H502 0.930 . S
C507 C510 1.404 . S
C507 C511 1.353 . S
N508 Co473 2.145 . S
N508 C509 1.397 . S
N508 C510 1.334 . S
C509 H490 0.929 . S
C509 C506 1.388 . S
C509 N508 1.397 . S
C510 H491 0.929 . S
C510 C507 1.404 . S
C510 N508 1.334 . S
C511 H503 0.930 . S
C511 C506 1.418 . S
C511 C507 1.353 . S
C512 H482 0.930 . S
C512 N513 1.330 . S
C512 C514 1.446 . S
N513 Co472 2.151 . S
N513 C512 1.330 . S
N513 C517 1.418 . S
C514 H493 0.929 . S
C514 C512 1.446 . S
C514 C515 1.332 . S
C515 H495 0.931 . S
C515 C514 1.332 . S
C515 C516 1.267 . S
C516 H484 0.929 . S
C516 C515 1.267 . S
C516 C517 1.251 . S
C517 H487 0.929 . S
C517 N513 1.418 . S
C517 C516 1.251 . S
C518 H485 0.930 . S
C518 C520 1.406 . S
C518 C523 1.261 . S
C519 H486 0.930 . S
C519 N521 1.325 . S
C519 C522 1.357 . S
C520 H488 0.928 . S
C520 C518 1.406 . S
C520 N521 1.261 . S
N521 Co472 2.214 . S
N521 C519 1.325 . S
N521 C520 1.261 . S
C522 H492 0.931 . S
C522 C519 1.357 . S
C522 C523 1.312 . S
C523 H494 0.930 . S
C523 C518 1.261 . S
C523 C522 1.312 . S
C524 O496 1.214 . S
C524 O504 1.234 . S
C525 H497 0.929 . S
C525 C528 1.391 . S
C525 C530 1.391 . S
C526 H498 0.929 . S
C526 C527 1.390 . S
C526 N529 1.391 . S
C527 H499 0.930 . S
C527 C526 1.390 . S
C527 C528 1.392 . S
C528 H500 0.929 . S
C528 C525 1.391 . S
C528 C527 1.392 . S
N529 Co473 2.257 . S
N529 C526 1.391 . S
N529 C530 1.388 . S
C530 H501 0.930 . S
C530 C525 1.391 . S
C530 N529 1.388 . S
Co531 O533 2.143 . S
Co531 O539 2.074 . S
Co531 O542 2.093 . S
Co531 O555 2.097 . S
Co531 N572 2.151 . S
Co531 N580 2.214 . S
Co532 O533 2.160 . S
Co532 O538 2.058 . S
Co532 O548 2.057 . S
Co532 O563 2.037 . S
Co532 N567 2.145 . S
Co532 N588 2.257 . S
O533 Co531 2.143 . S
O533 Co532 2.160 . S
C534 O535 1.278 . S
C534 O542 1.224 . S
O535 C534 1.278 . S
C536 O537 1.245 . S
C536 O548 1.232 . S
O537 C536 1.245 . S
O538 Co532 2.058 . S
O538 C564 1.269 . S
O539 Co531 2.074 . S
O539 C564 1.257 . S
H540 C565 0.930 . S
H541 C571 0.930 . S
O542 Co531 2.093 . S
O542 C534 1.224 . S
H543 C575 0.929 . S
H544 C577 0.930 . S
H545 C578 0.930 . S
H546 C576 0.929 . S
H547 C579 0.928 . S
O548 Co532 2.057 . S
O548 C536 1.232 . S
H549 C568 0.929 . S
H550 C569 0.929 . S
H551 C581 0.931 . S
H552 C573 0.929 . S
H553 C582 0.930 . S
H554 C574 0.931 . S
O555 Co531 2.097 . S
O555 C583 1.214 . S
H556 C584 0.929 . S
H557 C585 0.929 . S
H558 C586 0.930 . S
H559 C587 0.929 . S
H560 C589 0.930 . S
H561 C566 0.930 . S
H562 C570 0.930 . S
O563 Co532 2.037 . S
O563 C583 1.234 . S
C564 O538 1.269 . S
C564 O539 1.257 . S
C565 H540 0.930 . S
C565 C568 1.388 . S
C565 C570 1.418 . S
C566 H561 0.930 . S
C566 C569 1.404 . S
C566 C570 1.353 . S
N567 Co532 2.145 . S
N567 C568 1.397 . S
N567 C569 1.334 . S
C568 H549 0.929 . S
C568 C565 1.388 . S
C568 N567 1.397 . S
C569 H550 0.929 . S
C569 C566 1.404 . S
C569 N567 1.334 . S
C570 H562 0.930 . S
C570 C565 1.418 . S
C570 C566 1.353 . S
C571 H541 0.930 . S
C571 N572 1.330 . S
C571 C573 1.446 . S
N572 Co531 2.151 . S
N572 C571 1.330 . S
N572 C576 1.418 . S
C573 H552 0.929 . S
C573 C571 1.446 . S
C573 C574 1.332 . S
C574 H554 0.931 . S
C574 C573 1.332 . S
C574 C575 1.267 . S
C575 H543 0.929 . S
C575 C574 1.267 . S
C575 C576 1.251 . S
C576 H546 0.929 . S
C576 N572 1.418 . S
C576 C575 1.251 . S
C577 H544 0.930 . S
C577 C579 1.406 . S
C577 C582 1.261 . S
C578 H545 0.930 . S
C578 N580 1.325 . S
C578 C581 1.357 . S
C579 H547 0.928 . S
C579 C577 1.406 . S
C579 N580 1.261 . S
N580 Co531 2.214 . S
N580 C578 1.325 . S
N580 C579 1.261 . S
C581 H551 0.931 . S
C581 C578 1.357 . S
C581 C582 1.312 . S
C582 H553 0.930 . S
C582 C577 1.261 . S
C582 C581 1.312 . S
C583 O555 1.214 . S
C583 O563 1.234 . S
C584 H556 0.929 . S
C584 C587 1.391 . S
C584 C589 1.391 . S
C585 H557 0.929 . S
C585 C586 1.390 . S
C585 N588 1.391 . S
C586 H558 0.930 . S
C586 C585 1.390 . S
C586 C587 1.392 . S
C587 H559 0.929 . S
C587 C584 1.391 . S
C587 C586 1.392 . S
N588 Co532 2.257 . S
N588 C585 1.391 . S
N588 C589 1.388 . S
C589 H560 0.930 . S
C589 C584 1.391 . S
C589 N588 1.388 . S
Co590 O592 2.143 . S
Co590 O598 2.074 . S
Co590 O601 2.093 . S
Co590 O614 2.097 . S
Co590 N631 2.151 . S
Co590 N639 2.214 . S
Co591 O592 2.160 . S
Co591 O597 2.058 . S
Co591 O607 2.057 . S
Co591 O622 2.037 . S
Co591 N626 2.145 . S
Co591 N647 2.257 . S
O592 Co590 2.143 . S
O592 Co591 2.160 . S
C593 O594 1.278 . S
C593 O601 1.224 . S
O594 C593 1.278 . S
C595 O596 1.245 . S
C595 O607 1.232 . S
O596 C595 1.245 . S
O597 Co591 2.058 . S
O597 C623 1.269 . S
O598 Co590 2.074 . S
O598 C623 1.257 . S
H599 C624 0.930 . S
H600 C630 0.930 . S
O601 Co590 2.093 . S
O601 C593 1.224 . S
H602 C634 0.929 . S
H603 C636 0.930 . S
H604 C637 0.930 . S
H605 C635 0.929 . S
H606 C638 0.928 . S
O607 Co591 2.057 . S
O607 C595 1.232 . S
H608 C627 0.929 . S
H609 C628 0.929 . S
H610 C640 0.931 . S
H611 C632 0.929 . S
H612 C641 0.930 . S
H613 C633 0.931 . S
O614 Co590 2.097 . S
O614 C642 1.214 . S
H615 C643 0.929 . S
H616 C644 0.929 . S
H617 C645 0.930 . S
H618 C646 0.929 . S
H619 C648 0.930 . S
H620 C625 0.930 . S
H621 C629 0.930 . S
O622 Co591 2.037 . S
O622 C642 1.234 . S
C623 O597 1.269 . S
C623 O598 1.257 . S
C624 H599 0.930 . S
C624 C627 1.388 . S
C624 C629 1.418 . S
C625 H620 0.930 . S
C625 C628 1.404 . S
C625 C629 1.353 . S
N626 Co591 2.145 . S
N626 C627 1.397 . S
N626 C628 1.334 . S
C627 H608 0.929 . S
C627 C624 1.388 . S
C627 N626 1.397 . S
C628 H609 0.929 . S
C628 C625 1.404 . S
C628 N626 1.334 . S
C629 H621 0.930 . S
C629 C624 1.418 . S
C629 C625 1.353 . S
C630 H600 0.930 . S
C630 N631 1.330 . S
C630 C632 1.446 . S
N631 Co590 2.151 . S
N631 C630 1.330 . S
N631 C635 1.418 . S
C632 H611 0.929 . S
C632 C630 1.446 . S
C632 C633 1.332 . S
C633 H613 0.931 . S
C633 C632 1.332 . S
C633 C634 1.267 . S
C634 H602 0.929 . S
C634 C633 1.267 . S
C634 C635 1.251 . S
C635 H605 0.929 . S
C635 N631 1.418 . S
C635 C634 1.251 . S
C636 H603 0.930 . S
C636 C638 1.406 . S
C636 C641 1.261 . S
C637 H604 0.930 . S
C637 N639 1.325 . S
C637 C640 1.357 . S
C638 H606 0.928 . S
C638 C636 1.406 . S
C638 N639 1.261 . S
N639 Co590 2.214 . S
N639 C637 1.325 . S
N639 C638 1.261 . S
C640 H610 0.931 . S
C640 C637 1.357 . S
C640 C641 1.312 . S
C641 H612 0.930 . S
C641 C636 1.261 . S
C641 C640 1.312 . S
C642 O614 1.214 . S
C642 O622 1.234 . S
C643 H615 0.929 . S
C643 C646 1.391 . S
C643 C648 1.391 . S
C644 H616 0.929 . S
C644 C645 1.390 . S
C644 N647 1.391 . S
C645 H617 0.930 . S
C645 C644 1.390 . S
C645 C646 1.392 . S
C646 H618 0.929 . S
C646 C643 1.391 . S
C646 C645 1.392 . S
N647 Co591 2.257 . S
N647 C644 1.391 . S
N647 C648 1.388 . S
C648 H619 0.930 . S
C648 C643 1.391 . S
C648 N647 1.388 . S
Co649 O651 2.143 . S
Co649 O657 2.074 . S
Co649 O660 2.093 . S
Co649 O673 2.097 . S
Co649 N690 2.151 . S
Co649 N698 2.214 . S
Co650 O651 2.160 . S
Co650 O656 2.058 . S
Co650 O666 2.057 . S
Co650 O681 2.037 . S
Co650 N685 2.145 . S
Co650 N706 2.257 . S
O651 Co649 2.143 . S
O651 Co650 2.160 . S
C652 O653 1.278 . S
C652 O660 1.224 . S
O653 C652 1.278 . S
C654 O655 1.245 . S
C654 O666 1.232 . S
O655 C654 1.245 . S
O656 Co650 2.058 . S
O656 C682 1.269 . S
O657 Co649 2.074 . S
O657 C682 1.257 . S
H658 C683 0.930 . S
H659 C689 0.930 . S
O660 Co649 2.093 . S
O660 C652 1.224 . S
H661 C693 0.929 . S
H662 C695 0.930 . S
H663 C696 0.930 . S
H664 C694 0.929 . S
H665 C697 0.928 . S
O666 Co650 2.057 . S
O666 C654 1.232 . S
H667 C686 0.929 . S
H668 C687 0.929 . S
H669 C699 0.931 . S
H670 C691 0.929 . S
H671 C700 0.930 . S
H672 C692 0.931 . S
O673 Co649 2.097 . S
O673 C701 1.214 . S
H674 C702 0.929 . S
H675 C703 0.929 . S
H676 C704 0.930 . S
H677 C705 0.929 . S
H678 C707 0.930 . S
H679 C684 0.930 . S
H680 C688 0.930 . S
O681 Co650 2.037 . S
O681 C701 1.234 . S
C682 O656 1.269 . S
C682 O657 1.257 . S
C683 H658 0.930 . S
C683 C686 1.388 . S
C683 C688 1.418 . S
C684 H679 0.930 . S
C684 C687 1.404 . S
C684 C688 1.353 . S
N685 Co650 2.145 . S
N685 C686 1.397 . S
N685 C687 1.334 . S
C686 H667 0.929 . S
C686 C683 1.388 . S
C686 N685 1.397 . S
C687 H668 0.929 . S
C687 C684 1.404 . S
C687 N685 1.334 . S
C688 H680 0.930 . S
C688 C683 1.418 . S
C688 C684 1.353 . S
C689 H659 0.930 . S
C689 N690 1.330 . S
C689 C691 1.446 . S
N690 Co649 2.151 . S
N690 C689 1.330 . S
N690 C694 1.418 . S
C691 H670 0.929 . S
C691 C689 1.446 . S
C691 C692 1.332 . S
C692 H672 0.931 . S
C692 C691 1.332 . S
C692 C693 1.267 . S
C693 H661 0.929 . S
C693 C692 1.267 . S
C693 C694 1.251 . S
C694 H664 0.929 . S
C694 N690 1.418 . S
C694 C693 1.251 . S
C695 H662 0.930 . S
C695 C697 1.406 . S
C695 C700 1.261 . S
C696 H663 0.930 . S
C696 N698 1.325 . S
C696 C699 1.357 . S
C697 H665 0.928 . S
C697 C695 1.406 . S
C697 N698 1.261 . S
N698 Co649 2.214 . S
N698 C696 1.325 . S
N698 C697 1.261 . S
C699 H669 0.931 . S
C699 C696 1.357 . S
C699 C700 1.312 . S
C700 H671 0.930 . S
C700 C695 1.261 . S
C700 C699 1.312 . S
C701 O673 1.214 . S
C701 O681 1.234 . S
C702 H674 0.929 . S
C702 C705 1.391 . S
C702 C707 1.391 . S
C703 H675 0.929 . S
C703 C704 1.390 . S
C703 N706 1.391 . S
C704 H676 0.930 . S
C704 C703 1.390 . S
C704 C705 1.392 . S
C705 H677 0.929 . S
C705 C702 1.391 . S
C705 C704 1.392 . S
N706 Co650 2.257 . S
N706 C703 1.391 . S
N706 C707 1.388 . S
C707 H678 0.930 . S
C707 C702 1.391 . S
C707 N706 1.388 . S
H708 C716 0.950 . S
H709 C721 0.950 . S
H710 C718 0.950 . S
H711 C720 0.950 . S
H712 C722 0.950 . S
H713 C724 0.950 . S
H714 C726 0.950 . S
H715 C727 0.950 . S
C716 H708 0.950 . S
C716 C717 1.386 . S
C716 C718 1.391 . S
C717 C716 1.386 . S
C717 C721 1.393 . S
C718 H710 0.950 . S
C718 C716 1.391 . S
C718 C719 1.400 . S
C719 C718 1.400 . S
C719 C720 1.398 . S
C719 C725 1.491 . S
C720 H711 0.950 . S
C720 C719 1.398 . S
C720 C721 1.391 . S
C721 H709 0.950 . S
C721 C717 1.393 . S
C721 C720 1.391 . S
C722 H712 0.950 . S
C722 C723 1.386 . S
C722 C724 1.391 . S
C723 C722 1.386 . S
C723 C727 1.393 . S
C724 H713 0.950 . S
C724 C722 1.391 . S
C724 C725 1.400 . S
C725 C719 1.491 . S
C725 C724 1.400 . S
C725 C726 1.398 . S
C726 H714 0.950 . S
C726 C725 1.398 . S
C726 C727 1.391 . S
C727 H715 0.950 . S
C727 C723 1.393 . S
C727 C726 1.391 . S
H728 C736 0.950 . S
H729 C741 0.950 . S
H730 C738 0.950 . S
H731 C740 0.950 . S
H732 C742 0.950 . S
H733 C744 0.950 . S
H734 C746 0.950 . S
H735 C747 0.950 . S
C736 H728 0.950 . S
C736 C737 1.386 . S
C736 C738 1.391 . S
C737 C736 1.386 . S
C737 C741 1.393 . S
C738 H730 0.950 . S
C738 C736 1.391 . S
C738 C739 1.400 . S
C739 C738 1.400 . S
C739 C740 1.398 . S
C739 C745 1.491 . S
C740 H731 0.950 . S
C740 C739 1.398 . S
C740 C741 1.391 . S
C741 H729 0.950 . S
C741 C737 1.393 . S
C741 C740 1.391 . S
C742 H732 0.950 . S
C742 C743 1.386 . S
C742 C744 1.391 . S
C743 C742 1.386 . S
C743 C747 1.393 . S
C744 H733 0.950 . S
C744 C742 1.391 . S
C744 C745 1.400 . S
C745 C739 1.491 . S
C745 C744 1.400 . S
C745 C746 1.398 . S
C746 H734 0.950 . S
C746 C745 1.398 . S
C746 C747 1.391 . S
C747 H735 0.950 . S
C747 C743 1.393 . S
C747 C746 1.391 . S
H748 C756 0.950 . S
H749 C761 0.950 . S
H750 C758 0.950 . S
H751 C760 0.950 . S
H752 C762 0.950 . S
H753 C764 0.950 . S
H754 C766 0.950 . S
H755 C767 0.950 . S
C756 H748 0.950 . S
C756 C757 1.386 . S
C756 C758 1.391 . S
C757 C756 1.386 . S
C757 C761 1.393 . S
C758 H750 0.950 . S
C758 C756 1.391 . S
C758 C759 1.400 . S
C759 C758 1.400 . S
C759 C760 1.398 . S
C759 C765 1.491 . S
C760 H751 0.950 . S
C760 C759 1.398 . S
C760 C761 1.391 . S
C761 H749 0.950 . S
C761 C757 1.393 . S
C761 C760 1.391 . S
C762 H752 0.950 . S
C762 C763 1.386 . S
C762 C764 1.391 . S
C763 C762 1.386 . S
C763 C767 1.393 . S
C764 H753 0.950 . S
C764 C762 1.391 . S
C764 C765 1.400 . S
C765 C759 1.491 . S
C765 C764 1.400 . S
C765 C766 1.398 . S
C766 H754 0.950 . S
C766 C765 1.398 . S
C766 C767 1.391 . S
C767 H755 0.950 . S
C767 C763 1.393 . S
C767 C766 1.391 . S
H768 C776 0.950 . S
H769 C781 0.950 . S
H770 C778 0.950 . S
H771 C780 0.950 . S
H772 C782 0.950 . S
H773 C784 0.950 . S
H774 C786 0.950 . S
H775 C787 0.950 . S
C776 H768 0.950 . S
C776 C777 1.386 . S
C776 C778 1.391 . S
C777 C776 1.386 . S
C777 C781 1.393 . S
C778 H770 0.950 . S
C778 C776 1.391 . S
C778 C779 1.400 . S
C779 C778 1.400 . S
C779 C780 1.398 . S
C779 C785 1.491 . S
C780 H771 0.950 . S
C780 C779 1.398 . S
C780 C781 1.391 . S
C781 H769 0.950 . S
C781 C777 1.393 . S
C781 C780 1.391 . S
C782 H772 0.950 . S
C782 C783 1.386 . S
C782 C784 1.391 . S
C783 C782 1.386 . S
C783 C787 1.393 . S
C784 H773 0.950 . S
C784 C782 1.391 . S
C784 C785 1.400 . S
C785 C779 1.491 . S
C785 C784 1.400 . S
C785 C786 1.398 . S
C786 H774 0.950 . S
C786 C785 1.398 . S
C786 C787 1.391 . S
C787 H775 0.950 . S
C787 C783 1.393 . S
C787 C786 1.391 . S
H788 C796 0.950 . S
H789 C801 0.950 . S
H790 C798 0.950 . S
H791 C800 0.950 . S
H792 C802 0.950 . S
H793 C804 0.950 . S
H794 C806 0.950 . S
H795 C807 0.950 . S
C796 H788 0.950 . S
C796 C797 1.386 . S
C796 C798 1.391 . S
C797 C796 1.386 . S
C797 C801 1.393 . S
C798 H790 0.950 . S
C798 C796 1.391 . S
C798 C799 1.400 . S
C799 C798 1.400 . S
C799 C800 1.398 . S
C799 C805 1.491 . S
C800 H791 0.950 . S
C800 C799 1.398 . S
C800 C801 1.391 . S
C801 H789 0.950 . S
C801 C797 1.393 . S
C801 C800 1.391 . S
C802 H792 0.950 . S
C802 C803 1.386 . S
C802 C804 1.391 . S
C803 C802 1.386 . S
C803 C807 1.393 . S
C804 H793 0.950 . S
C804 C802 1.391 . S
C804 C805 1.400 1_554 S
C805 C799 1.491 . S
C805 C804 1.400 1_556 S
C805 C806 1.398 . S
C806 H794 0.950 . S
C806 C805 1.398 . S
C806 C807 1.391 1_556 S
C807 H795 0.950 . S
C807 C803 1.393 . S
C807 C806 1.391 1_554 S
H808 C816 0.950 . S
H809 C821 0.950 . S
H810 C818 0.950 . S
H811 C820 0.950 . S
H812 C822 0.950 . S
H813 C824 0.950 . S
H814 C826 0.950 . S
H815 C827 0.935 1_556 S
C816 H808 0.950 . S
C816 C817 1.386 . S
C816 C818 1.391 . S
C817 C816 1.386 . S
C817 C821 1.393 . S
C818 H810 0.950 . S
C818 C816 1.391 . S
C818 C819 1.400 . S
C819 C818 1.400 . S
C819 C820 1.398 . S
C819 C825 1.491 . S
C820 H811 0.950 . S
C820 C819 1.398 . S
C820 C821 1.391 . S
C821 H809 0.950 . S
C821 C817 1.393 . S
C821 C820 1.391 . S
C822 H812 0.950 . S
C822 C823 1.386 . S
C822 C824 1.391 . S
C823 C822 1.386 . S
C823 C827 1.396 . S
C824 H813 0.950 . S
C824 C822 1.391 . S
C824 C825 1.400 . S
C825 C819 1.491 . S
C825 C824 1.400 . S
C825 C826 1.398 . S
C826 H814 0.950 . S
C826 C825 1.398 . S
C826 C827 1.402 . S
C827 H815 0.935 1_554 S
C827 C823 1.396 . S
C827 C826 1.402 . S
H828 C836 0.950 . S
H829 C841 0.950 . S
H830 C838 0.950 . S
H831 C840 0.950 . S
H832 C842 0.950 . S
H833 C844 0.950 . S
H834 C846 0.950 . S
H835 C847 0.950 . S
C836 H828 0.950 . S
C836 C837 1.386 . S
C836 C838 1.391 . S
C837 C836 1.386 . S
C837 C841 1.393 . S
C838 H830 0.950 . S
C838 C836 1.391 . S
C838 C839 1.400 . S
C839 C838 1.400 . S
C839 C840 1.398 . S
C839 C845 1.491 . S
C840 H831 0.950 . S
C840 C839 1.398 . S
C840 C841 1.391 . S
C841 H829 0.950 . S
C841 C837 1.393 . S
C841 C840 1.391 . S
C842 H832 0.950 . S
C842 C843 1.386 . S
C842 C844 1.391 . S
C843 C842 1.386 . S
C843 C847 1.393 . S
C844 H833 0.950 . S
C844 C842 1.391 . S
C844 C845 1.400 . S
C845 C839 1.491 . S
C845 C844 1.400 . S
C845 C846 1.398 . S
C846 H834 0.950 . S
C846 C845 1.398 . S
C846 C847 1.391 . S
C847 H835 0.950 . S
C847 C843 1.393 . S
C847 C846 1.391 . S
H848 C856 0.950 . S
H849 C861 0.950 . S
H850 C858 0.950 . S
H851 C860 0.950 . S
H852 C862 0.950 . S
H853 C864 0.950 . S
H854 C866 0.950 . S
H855 C867 0.950 . S
C856 H848 0.950 . S
C856 C857 1.386 . S
C856 C858 1.391 . S
C857 C856 1.386 . S
C857 C861 1.393 . S
C858 H850 0.950 . S
C858 C856 1.391 . S
C858 C859 1.400 . S
C859 C858 1.400 . S
C859 C860 1.398 . S
C859 C865 1.491 . S
C860 H851 0.950 . S
C860 C859 1.398 . S
C860 C861 1.391 . S
C861 H849 0.950 . S
C861 C857 1.393 . S
C861 C860 1.391 . S
C862 H852 0.950 . S
C862 C863 1.386 . S
C862 C864 1.391 . S
C863 C862 1.386 . S
C863 C867 1.393 . S
C864 H853 0.950 . S
C864 C862 1.391 . S
C864 C865 1.400 . S
C865 C859 1.491 . S
C865 C864 1.400 . S
C865 C866 1.398 . S
C866 H854 0.950 . S
C866 C865 1.398 . S
C866 C867 1.391 . S
C867 H855 0.950 . S
C867 C863 1.393 . S
C867 C866 1.391 . S
H868 C876 0.950 . S
H869 C881 0.950 . S
H870 C878 0.950 . S
H871 C880 0.950 . S
H872 C882 0.950 . S
H873 C884 0.950 . S
H874 C886 0.950 . S
H875 C887 0.950 . S
C876 H868 0.950 . S
C876 C877 1.386 . S
C876 C878 1.391 . S
C877 C876 1.386 . S
C877 C881 1.393 . S
C878 H870 0.950 . S
C878 C876 1.391 . S
C878 C879 1.400 . S
C879 C878 1.400 . S
C879 C880 1.398 . S
C879 C885 1.491 . S
C880 H871 0.950 . S
C880 C879 1.398 . S
C880 C881 1.391 . S
C881 H869 0.950 . S
C881 C877 1.393 . S
C881 C880 1.391 . S
C882 H872 0.950 . S
C882 C883 1.386 . S
C882 C884 1.391 . S
C883 C882 1.386 . S
C883 C887 1.393 . S
C884 H873 0.950 . S
C884 C882 1.391 . S
C884 C885 1.400 . S
C885 C879 1.491 . S
C885 C884 1.400 . S
C885 C886 1.398 . S
C886 H874 0.950 . S
C886 C885 1.398 . S
C886 C887 1.391 . S
C887 H875 0.950 . S
C887 C883 1.393 . S
C887 C886 1.391 . S
H888 C896 0.950 . S
H889 C901 0.950 . S
H890 C898 0.950 . S
H891 C900 0.950 . S
H892 C902 0.950 . S
H893 C904 0.950 . S
H894 C906 0.950 . S
H895 C907 0.950 . S
C896 H888 0.950 . S
C896 C897 1.386 . S
C896 C898 1.391 . S
C897 C896 1.386 . S
C897 C901 1.393 . S
C898 H890 0.950 . S
C898 C896 1.391 . S
C898 C899 1.400 . S
C899 C898 1.400 . S
C899 C900 1.398 . S
C899 C905 1.491 . S
C900 H891 0.950 . S
C900 C899 1.398 . S
C900 C901 1.391 . S
C901 H889 0.950 . S
C901 C897 1.393 . S
C901 C900 1.391 . S
C902 H892 0.950 . S
C902 C903 1.386 . S
C902 C904 1.391 . S
C903 C902 1.386 . S
C903 C907 1.393 . S
C904 H893 0.950 . S
C904 C902 1.391 . S
C904 C905 1.400 . S
C905 C899 1.491 . S
C905 C904 1.400 . S
C905 C906 1.398 . S
C906 H894 0.950 . S
C906 C905 1.398 . S
C906 C907 1.391 . S
C907 H895 0.950 . S
C907 C903 1.393 . S
C907 C906 1.391 . S
H908 C916 0.950 . S
H909 C921 0.950 . S
H910 C918 0.950 . S
H911 C920 0.950 . S
H912 C922 0.950 . S
H913 C924 0.950 . S
H914 C926 0.950 . S
H915 C927 0.950 . S
C916 H908 0.950 . S
C916 C917 1.386 . S
C916 C918 1.391 . S
C917 C916 1.386 . S
C917 C921 1.393 . S
C918 H910 0.950 . S
C918 C916 1.391 . S
C918 C919 1.400 . S
C919 C918 1.400 . S
C919 C920 1.398 . S
C919 C925 1.491 . S
C920 H911 0.950 . S
C920 C919 1.398 . S
C920 C921 1.391 . S
C921 H909 0.950 . S
C921 C917 1.393 . S
C921 C920 1.391 . S
C922 H912 0.950 . S
C922 C923 1.386 . S
C922 C924 1.391 . S
C923 C922 1.386 . S
C923 C927 1.393 . S
C924 H913 0.950 . S
C924 C922 1.391 . S
C924 C925 1.400 . S
C925 C919 1.491 . S
C925 C924 1.400 . S
C925 C926 1.398 . S
C926 H914 0.950 . S
C926 C925 1.398 . S
C926 C927 1.391 . S
C927 H915 0.950 . S
C927 C923 1.393 . S
C927 C926 1.391 . S
H928 C936 0.950 1_554 S
H929 C941 0.950 . S
H930 C938 0.950 1_554 S
H931 C940 0.950 . S
H932 C942 0.950 . S
H933 C944 0.950 . S
H934 C946 0.950 . S
H935 C947 0.950 . S
C936 H928 0.950 1_556 S
C936 C937 1.386 . S
C936 C938 1.391 . S
C937 C936 1.386 . S
C937 C941 1.393 . S
C938 H930 0.950 1_556 S
C938 C936 1.391 . S
C938 C939 1.400 . S
C939 C938 1.400 . S
C939 C940 1.398 . S
C939 C945 1.491 . S
C940 H931 0.950 . S
C940 C939 1.398 . S
C940 C941 1.391 . S
C941 H929 0.950 . S
C941 C937 1.393 . S
C941 C940 1.391 . S
C942 H932 0.950 . S
C942 C943 1.386 . S
C942 C944 1.391 . S
C943 C942 1.386 . S
C943 C947 1.393 1_556 S
C944 H933 0.950 . S
C944 C942 1.391 . S
C944 C945 1.400 . S
C945 C939 1.491 . S
C945 C944 1.400 . S
C945 C946 1.398 1_556 S
C946 H934 0.950 . S
C946 C945 1.398 1_554 S
C946 C947 1.391 . S
C947 H935 0.950 . S
C947 C943 1.393 1_554 S
C947 C946 1.391 . S
H948 C956 0.950 . S
H949 C961 0.950 . S
H950 C958 0.950 . S
H951 C960 0.950 . S
H952 C962 0.950 . S
H953 C964 0.950 . S
H954 C966 0.950 . S
H955 C967 0.950 . S
C956 H948 0.950 . S
C956 C957 1.386 . S
C956 C958 1.391 . S
C957 C956 1.386 . S
C957 C961 1.393 . S
C958 H950 0.950 . S
C958 C956 1.391 . S
C958 C959 1.400 . S
C959 C958 1.400 . S
C959 C960 1.398 . S
C959 C965 1.491 . S
C960 H951 0.950 . S
C960 C959 1.398 . S
C960 C961 1.391 . S
C961 H949 0.950 . S
C961 C957 1.393 . S
C961 C960 1.391 . S
C962 H952 0.950 . S
C962 C963 1.386 . S
C962 C964 1.391 . S
C963 C962 1.386 . S
C963 C967 1.393 . S
C964 H953 0.950 . S
C964 C962 1.391 . S
C964 C965 1.400 . S
C965 C959 1.491 . S
C965 C964 1.400 . S
C965 C966 1.398 . S
C966 H954 0.950 . S
C966 C965 1.398 . S
C966 C967 1.391 . S
C967 H955 0.950 . S
C967 C963 1.393 . S
C967 C966 1.391 . S
H968 C976 0.950 . S
H969 C981 0.950 . S
H970 C978 0.950 . S
H971 C980 0.950 . S
H972 C982 0.950 . S
H973 C984 0.950 . S
H974 C986 0.950 . S
H975 C987 0.950 . S
C976 H968 0.950 . S
C976 C977 1.386 . S
C976 C978 1.391 1_554 S
C977 C976 1.386 . S
C977 C981 1.393 . S
C978 H970 0.950 . S
C978 C976 1.391 1_556 S
C978 C979 1.400 . S
C979 C978 1.400 . S
C979 C980 1.398 1_556 S
C979 C985 1.491 . S
C980 H971 0.950 . S
C980 C979 1.398 1_554 S
C980 C981 1.391 . S
C981 H969 0.950 . S
C981 C977 1.393 . S
C981 C980 1.391 . S
C982 H972 0.950 . S
C982 C983 1.386 . S
C982 C984 1.391 . S
C983 C982 1.386 . S
C983 C987 1.393 . S
C984 H973 0.950 . S
C984 C982 1.391 . S
C984 C985 1.400 . S
C985 C979 1.491 . S
C985 C984 1.400 . S
C985 C986 1.398 . S
C986 H974 0.950 . S
C986 C985 1.398 . S
C986 C987 1.391 . S
C987 H975 0.950 . S
C987 C983 1.393 . S
C987 C986 1.391 . S
H988 C996 0.950 . S
H989 C1001 0.950 . S
H990 C998 0.950 . S
H991 C1000 0.950 . S
H992 C1002 0.950 . S
H993 C1004 0.950 . S
H994 C1006 0.950 . S
H995 C1007 0.950 1_556 S
C996 H988 0.950 . S
C996 C997 1.386 . S
C996 C998 1.391 . S
C997 C996 1.386 . S
C997 C1001 1.393 . S
C998 H990 0.950 . S
C998 C996 1.391 . S
C998 C999 1.400 . S
C999 C998 1.400 . S
C999 C1000 1.398 . S
C999 C1005 1.491 . S
C1000 H991 0.950 . S
C1000 C999 1.398 . S
C1000 C1001 1.391 . S
C1001 H989 0.950 . S
C1001 C997 1.393 . S
C1001 C1000 1.391 . S
C1002 H992 0.950 . S
C1002 C1003 1.386 . S
C1002 C1004 1.391 . S
C1003 C1002 1.386 . S
C1003 C1007 1.393 . S
C1004 H993 0.950 . S
C1004 C1002 1.391 . S
C1004 C1005 1.400 . S
C1005 C999 1.491 . S
C1005 C1004 1.400 . S
C1005 C1006 1.398 . S
C1006 H994 0.950 . S
C1006 C1005 1.398 . S
C1006 C1007 1.391 . S
C1007 H995 0.950 1_554 S
C1007 C1003 1.393 . S
C1007 C1006 1.391 . S
H1008 C1016 0.950 . S
H1009 C1021 0.950 . S
H1010 C1018 0.950 . S
H1011 C1020 0.950 . S
H1012 C1022 0.950 . S
H1013 C1024 0.950 . S
H1014 C1026 0.950 . S
H1015 C1027 0.950 . S
C1016 H1008 0.950 . S
C1016 C1017 1.386 . S
C1016 C1018 1.391 . S
C1017 C1016 1.386 . S
C1017 C1021 1.393 . S
C1018 H1010 0.950 . S
C1018 C1016 1.391 . S
C1018 C1019 1.400 . S
C1019 C1018 1.400 . S
C1019 C1020 1.398 . S
C1019 C1025 1.491 . S
C1020 H1011 0.950 . S
C1020 C1019 1.398 . S
C1020 C1021 1.391 . S
C1021 H1009 0.950 . S
C1021 C1017 1.393 . S
C1021 C1020 1.391 . S
C1022 H1012 0.950 . S
C1022 C1023 1.386 . S
C1022 C1024 1.391 . S
C1023 C1022 1.386 . S
C1023 C1027 1.393 . S
C1024 H1013 0.950 . S
C1024 C1022 1.391 . S
C1024 C1025 1.400 . S
C1025 C1019 1.491 . S
C1025 C1024 1.400 . S
C1025 C1026 1.398 . S
C1026 H1014 0.950 . S
C1026 C1025 1.398 . S
C1026 C1027 1.391 . S
C1027 H1015 0.950 . S
C1027 C1023 1.393 . S
C1027 C1026 1.391 . S
H1028 C1036 0.950 . S
H1029 C1041 0.950 . S
H1030 C1038 0.950 . S
H1031 C1040 0.950 . S
H1032 C1042 0.950 . S
H1033 C1044 0.950 . S
H1034 C1046 0.950 . S
H1035 C1047 0.950 . S
C1036 H1028 0.950 . S
C1036 C1037 1.386 . S
C1036 C1038 1.391 . S
C1037 C1036 1.386 . S
C1037 C1041 1.393 . S
C1038 H1030 0.950 . S
C1038 C1036 1.391 . S
C1038 C1039 1.400 . S
C1039 C1038 1.400 . S
C1039 C1040 1.398 . S
C1039 C1045 1.491 . S
C1040 H1031 0.950 . S
C1040 C1039 1.398 . S
C1040 C1041 1.391 . S
C1041 H1029 0.950 . S
C1041 C1037 1.393 . S
C1041 C1040 1.391 . S
C1042 H1032 0.950 . S
C1042 C1043 1.386 . S
C1042 C1044 1.391 . S
C1043 C1042 1.386 . S
C1043 C1047 1.393 . S
C1044 H1033 0.950 . S
C1044 C1042 1.391 . S
C1044 C1045 1.400 . S
C1045 C1039 1.491 . S
C1045 C1044 1.400 . S
C1045 C1046 1.398 . S
C1046 H1034 0.950 . S
C1046 C1045 1.398 . S
C1046 C1047 1.391 . S
C1047 H1035 0.950 . S
C1047 C1043 1.393 . S
C1047 C1046 1.391 . S
H1048 C1056 0.950 . S
H1049 C1061 0.950 . S
H1050 C1058 0.950 . S
H1051 C1060 0.950 . S
H1052 C1062 0.950 . S
H1053 C1064 0.950 . S
H1054 C1066 0.950 . S
H1055 C1067 0.950 . S
C1056 H1048 0.950 . S
C1056 C1057 1.386 . S
C1056 C1058 1.391 . S
C1057 C1056 1.386 . S
C1057 C1061 1.393 . S
C1058 H1050 0.950 . S
C1058 C1056 1.391 . S
C1058 C1059 1.400 . S
C1059 C1058 1.400 . S
C1059 C1060 1.398 . S
C1059 C1065 1.491 . S
C1060 H1051 0.950 . S
C1060 C1059 1.398 . S
C1060 C1061 1.391 . S
C1061 H1049 0.950 . S
C1061 C1057 1.393 . S
C1061 C1060 1.391 . S
C1062 H1052 0.950 . S
C1062 C1063 1.386 . S
C1062 C1064 1.391 . S
C1063 C1062 1.386 . S
C1063 C1067 1.393 . S
C1064 H1053 0.950 . S
C1064 C1062 1.391 . S
C1064 C1065 1.400 . S
C1065 C1059 1.491 . S
C1065 C1064 1.400 . S
C1065 C1066 1.398 . S
C1066 H1054 0.950 . S
C1066 C1065 1.398 . S
C1066 C1067 1.391 . S
C1067 H1055 0.950 . S
C1067 C1063 1.393 . S
C1067 C1066 1.391 . S
H1068 C1076 0.950 . S
H1069 C1081 0.950 . S
H1070 C1078 0.950 . S
H1071 C1080 0.950 . S
H1072 C1082 0.950 . S
H1073 C1084 0.950 . S
H1074 C1086 0.950 . S
H1075 C1087 0.950 . S
C1076 H1068 0.950 . S
C1076 C1077 1.386 . S
C1076 C1078 1.391 . S
C1077 C1076 1.386 . S
C1077 C1081 1.393 . S
C1078 H1070 0.950 . S
C1078 C1076 1.391 . S
C1078 C1079 1.400 . S
C1079 C1078 1.400 . S
C1079 C1080 1.398 . S
C1079 C1085 1.491 1_455 S
C1080 H1071 0.950 . S
C1080 C1079 1.398 . S
C1080 C1081 1.391 . S
C1081 H1069 0.950 . S
C1081 C1077 1.393 . S
C1081 C1080 1.391 . S
C1082 H1072 0.950 . S
C1082 C1083 1.386 . S
C1082 C1084 1.391 . S
C1083 C1082 1.386 . S
C1083 C1087 1.393 . S
C1084 H1073 0.950 . S
C1084 C1082 1.391 . S
C1084 C1085 1.400 . S
C1085 C1079 1.491 1_655 S
C1085 C1084 1.400 . S
C1085 C1086 1.398 . S
C1086 H1074 0.950 . S
C1086 C1085 1.398 . S
C1086 C1087 1.391 . S
C1087 H1075 0.950 . S
C1087 C1083 1.393 . S
C1087 C1086 1.391 . S
H1088 C1096 0.950 . S
H1089 C1101 0.950 . S
H1090 C1098 0.950 . S
H1091 C1100 0.950 . S
H1092 C1102 0.950 . S
H1093 C1104 0.950 . S
H1094 C1106 0.950 . S
H1095 C1107 0.950 . S
C1096 H1088 0.950 . S
C1096 C1097 1.386 . S
C1096 C1098 1.391 1_556 S
C1097 C1096 1.386 . S
C1097 C1101 1.393 . S
C1098 H1090 0.950 . S
C1098 C1096 1.391 1_554 S
C1098 C1099 1.400 . S
C1099 C1098 1.400 . S
C1099 C1100 1.398 . S
C1099 C1105 1.491 1_565 S
C1100 H1091 0.950 . S
C1100 C1099 1.398 . S
C1100 C1101 1.391 1_554 S
C1101 H1089 0.950 . S
C1101 C1097 1.393 . S
C1101 C1100 1.391 1_556 S
C1102 H1092 0.950 . S
C1102 C1103 1.386 . S
C1102 C1104 1.391 . S
C1103 C1102 1.386 . S
C1103 C1107 1.393 . S
C1104 H1093 0.950 . S
C1104 C1102 1.391 . S
C1104 C1105 1.400 . S
C1105 C1099 1.491 1_545 S
C1105 C1104 1.400 . S
C1105 C1106 1.398 . S
C1106 H1094 0.950 . S
C1106 C1105 1.398 . S
C1106 C1107 1.391 . S
C1107 H1095 0.950 . S
C1107 C1103 1.393 . S
C1107 C1106 1.391 . S
H1108 C1116 0.950 . S
H1109 C1121 0.950 . S
H1110 C1118 0.950 . S
H1111 C1120 0.950 . S
H1112 C1122 0.950 . S
H1113 C1124 0.950 . S
H1114 C1126 0.950 . S
H1115 C1127 0.950 . S
C1116 H1108 0.950 . S
C1116 C1117 1.386 . S
C1116 C1118 1.391 . S
C1117 C1116 1.386 . S
C1117 C1121 1.393 . S
C1118 H1110 0.950 . S
C1118 C1116 1.391 . S
C1118 C1119 1.400 . S
C1119 C1118 1.400 . S
C1119 C1120 1.398 . S
C1119 C1125 1.491 . S
C1120 H1111 0.950 . S
C1120 C1119 1.398 . S
C1120 C1121 1.391 . S
C1121 H1109 0.950 . S
C1121 C1117 1.393 . S
C1121 C1120 1.391 . S
C1122 H1112 0.950 . S
C1122 C1123 1.386 . S
C1122 C1124 1.391 . S
C1123 C1122 1.386 . S
C1123 C1127 1.393 . S
C1124 H1113 0.950 . S
C1124 C1122 1.391 . S
C1124 C1125 1.400 . S
C1125 C1119 1.491 . S
C1125 C1124 1.400 . S
C1125 C1126 1.398 . S
C1126 H1114 0.950 . S
C1126 C1125 1.398 . S
C1126 C1127 1.391 . S
C1127 H1115 0.950 . S
C1127 C1123 1.393 . S
C1127 C1126 1.391 . S
H1128 C1136 0.950 . S
H1129 C1141 0.950 . S
H1130 C1138 0.950 . S
H1131 C1140 0.950 . S
H1132 C1142 0.950 . S
H1133 C1144 0.950 . S
H1134 C1146 0.950 . S
H1135 C1147 0.950 . S
C1136 H1128 0.950 . S
C1136 C1137 1.386 . S
C1136 C1138 1.391 . S
C1137 C1136 1.386 . S
C1137 C1141 1.393 . S
C1138 H1130 0.950 . S
C1138 C1136 1.391 . S
C1138 C1139 1.400 . S
C1139 C1138 1.400 . S
C1139 C1140 1.398 . S
C1139 C1145 1.491 1_455 S
C1140 H1131 0.950 . S
C1140 C1139 1.398 . S
C1140 C1141 1.391 . S
C1141 H1129 0.950 . S
C1141 C1137 1.393 . S
C1141 C1140 1.391 . S
C1142 H1132 0.950 . S
C1142 C1143 1.386 . S
C1142 C1144 1.391 . S
C1143 C1142 1.386 . S
C1143 C1147 1.393 . S
C1144 H1133 0.950 . S
C1144 C1142 1.391 . S
C1144 C1145 1.400 . S
C1145 C1139 1.491 1_655 S
C1145 C1144 1.400 . S
C1145 C1146 1.398 . S
C1146 H1134 0.950 . S
C1146 C1145 1.398 . S
C1146 C1147 1.391 . S
C1147 H1135 0.950 . S
C1147 C1143 1.393 . S
C1147 C1146 1.391 . S
H1148 C1156 0.950 . S
H1149 C1161 0.950 . S
H1150 C1158 0.967 . S
H1151 C1160 0.950 . S
H1152 C1162 0.950 . S
H1153 C1164 0.968 . S
H1154 C1166 0.950 . S
H1155 C1167 0.950 . S
C1156 H1148 0.950 . S
C1156 C1157 1.386 . S
C1156 C1158 1.391 . S
C1157 C1156 1.386 . S
C1157 C1161 1.393 . S
C1158 H1150 0.967 . S
C1158 C1156 1.391 . S
C1158 C1159 1.400 . S
C1159 C1158 1.400 . S
C1159 C1160 1.398 . S
C1159 C1165 1.491 1_545 S
C1160 H1151 0.950 . S
C1160 C1159 1.398 . S
C1160 C1161 1.391 . S
C1161 H1149 0.950 . S
C1161 C1157 1.393 . S
C1161 C1160 1.391 . S
C1162 H1152 0.950 . S
C1162 C1163 1.386 . S
C1162 C1164 1.391 . S
C1163 C1162 1.386 . S
C1163 C1167 1.393 . S
C1164 H1153 0.968 . S
C1164 C1162 1.391 . S
C1164 C1165 1.400 . S
C1165 C1159 1.491 1_565 S
C1165 C1164 1.400 . S
C1165 C1166 1.398 . S
C1166 H1154 0.950 . S
C1166 C1165 1.398 . S
C1166 C1167 1.391 . S
C1167 H1155 0.950 . S
C1167 C1163 1.393 . S
C1167 C1166 1.391 . S
H1168 C1176 0.950 . S
H1169 C1181 0.950 . S
H1170 C1178 0.950 . S
H1171 C1180 0.950 . S
H1172 C1182 0.950 . S
H1173 C1184 0.950 . S
H1174 C1186 0.950 . S
H1175 C1187 0.950 . S
C1176 H1168 0.950 . S
C1176 C1177 1.386 . S
C1176 C1178 1.391 . S
C1177 C1176 1.386 . S
C1177 C1181 1.393 . S
C1178 H1170 0.950 . S
C1178 C1176 1.391 . S
C1178 C1179 1.400 . S
C1179 C1178 1.400 . S
C1179 C1180 1.398 . S
C1179 C1185 1.491 . S
C1180 H1171 0.950 . S
C1180 C1179 1.398 . S
C1180 C1181 1.391 . S
C1181 H1169 0.950 . S
C1181 C1177 1.393 . S
C1181 C1180 1.391 . S
C1182 H1172 0.950 . S
C1182 C1183 1.386 . S
C1182 C1184 1.391 . S
C1183 C1182 1.386 . S
C1183 C1187 1.393 . S
C1184 H1173 0.950 . S
C1184 C1182 1.391 . S
C1184 C1185 1.400 . S
C1185 C1179 1.491 . S
C1185 C1184 1.400 . S
C1185 C1186 1.398 . S
C1186 H1174 0.950 . S
C1186 C1185 1.398 . S
C1186 C1187 1.391 . S
C1187 H1175 0.950 . S
C1187 C1183 1.393 . S
C1187 C1186 1.391 . S
C717 C52 1.693 . S
C723 C642 1.696 . S
C737 C682 1.691 . S
C743 C111 1.695 . S
C757 C151 1.691 . S
C763 C406 1.695 . S
C777 C229 1.691 . S
C783 C465 1.695 . S
C797 C288 1.691 . S
C803 C505 1.695 . S
C817 C583 1.695 . S
C823 C328 1.690 1_554 S
C837 C3 1.723 . S
C843 C477 1.726 . S
C857 C62 1.715 . S
C863 C534 1.722 . S
C877 C593 1.716 . S
C883 C123 1.719 . S
C897 C180 1.724 . S
C903 C654 1.725 . S
C917 C239 1.716 . S
C923 C357 1.719 . S
C937 C300 1.723 . S
C943 C416 1.725 . S
C957 C623 1.662 . S
C963 C33 1.657 . S
C977 C92 1.656 . S
C983 C701 1.656 . S
C997 C170 1.654 . S
C1003 C387 1.664 1_554 S
C1017 C210 1.657 . S
C1023 C446 1.663 . S
C1037 C524 1.659 . S
C1043 C269 1.659 . S
C1057 C347 1.654 . S
C1063 C564 1.663 . S
C1077 C5 1.303 . S
C1083 C652 1.302 . S
C1097 C359 1.298 . S
C1103 C64 1.298 . S
C1117 C418 1.299 . S
C1123 C121 1.298 . S
C1137 C475 1.291 . S
C1143 C182 1.297 . S
C1157 C536 1.300 . S
C1163 C241 1.304 . S
C1177 C595 1.297 . S
C1183 C298 1.291 . S
