# Generated by pormake.
# Topology wne, (6)-cn, num edge types: 1
# Building blocks:
#     Node 0, Type 0, BuildingBlock: VOLQOD_clean_sbu_1, # of connection points: 6
#     Node 1, Type 0, BuildingBlock: VOLQOD_clean_sbu_1, # of connection points: 6
#     Node 2, Type 0, BuildingBlock: VOLQOD_clean_sbu_1, # of connection points: 6
#     Node 3, Type 0, BuildingBlock: VOLQOD_clean_sbu_1, # of connection points: 6
#     Node 4, Type 0, BuildingBlock: VOLQOD_clean_sbu_1, # of connection points: 6
#     Node 5, Type 0, BuildingBlock: VOLQOD_clean_sbu_1, # of connection points: 6
#     Node 6, Type 0, BuildingBlock: VOLQOD_clean_sbu_1, # of connection points: 6
#     Node 7, Type 0, BuildingBlock: VOLQOD_clean_sbu_1, # of connection points: 6
#     Node 8, Type 0, BuildingBlock: VOLQOD_clean_sbu_1, # of connection points: 6
#     Node 9, Type 0, BuildingBlock: VOLQOD_clean_sbu_1, # of connection points: 6
#     Node 10, Type 0, BuildingBlock: VOLQOD_clean_sbu_1, # of connection points: 6
#     Node 11, Type 0, BuildingBlock: VOLQOD_clean_sbu_1, # of connection points: 6
#     Node 12, Type 0, BuildingBlock: VOLQOD_clean_sbu_1, # of connection points: 6
#     Node 13, Type 0, BuildingBlock: VOLQOD_clean_sbu_1, # of connection points: 6
#     Node 14, Type 0, BuildingBlock: VOLQOD_clean_sbu_1, # of connection points: 6
#     Node 15, Type 0, BuildingBlock: VOLQOD_clean_sbu_1, # of connection points: 6
#     Node 16, Type 0, BuildingBlock: VOLQOD_clean_sbu_1, # of connection points: 6
#     Node 17, Type 0, BuildingBlock: VOLQOD_clean_sbu_1, # of connection points: 6
#     Node 18, Type 0, BuildingBlock: VOLQOD_clean_sbu_1, # of connection points: 6
#     Node 19, Type 0, BuildingBlock: VOLQOD_clean_sbu_1, # of connection points: 6
#     Node 20, Type 0, BuildingBlock: VOLQOD_clean_sbu_1, # of connection points: 6
#     Node 21, Type 0, BuildingBlock: VOLQOD_clean_sbu_1, # of connection points: 6
#     Node 22, Type 0, BuildingBlock: VOLQOD_clean_sbu_1, # of connection points: 6
#     Node 23, Type 0, BuildingBlock: VOLQOD_clean_sbu_1, # of connection points: 6
#     Node 24, Type 0, BuildingBlock: VOLQOD_clean_sbu_1, # of connection points: 6
#     Node 25, Type 0, BuildingBlock: VOLQOD_clean_sbu_1, # of connection points: 6
#     Node 26, Type 0, BuildingBlock: VOLQOD_clean_sbu_1, # of connection points: 6
#     Node 27, Type 0, BuildingBlock: VOLQOD_clean_sbu_1, # of connection points: 6
#     Node 28, Type 0, BuildingBlock: VOLQOD_clean_sbu_1, # of connection points: 6
#     Node 29, Type 0, BuildingBlock: VOLQOD_clean_sbu_1, # of connection points: 6
#     Node 30, Type 0, BuildingBlock: VOLQOD_clean_sbu_1, # of connection points: 6
#     Node 31, Type 0, BuildingBlock: VOLQOD_clean_sbu_1, # of connection points: 6
#     Node 32, Type 0, BuildingBlock: VOLQOD_clean_sbu_1, # of connection points: 6
#     Node 33, Type 0, BuildingBlock: VOLQOD_clean_sbu_1, # of connection points: 6
#     Node 34, Type 0, BuildingBlock: VOLQOD_clean_sbu_1, # of connection points: 6
#     Node 35, Type 0, BuildingBlock: VOLQOD_clean_sbu_1, # of connection points: 6
#     Edge 36, Type (0, 0), BuildingBlock: AJUNOK_clean_linker_0, # of connection points: 2
#     Edge 37, Type (0, 0), BuildingBlock: AJUNOK_clean_linker_0, # of connection points: 2
#     Edge 38, Type (0, 0), BuildingBlock: AJUNOK_clean_linker_0, # of connection points: 2
#     Edge 39, Type (0, 0), BuildingBlock: AJUNOK_clean_linker_0, # of connection points: 2
#     Edge 40, Type (0, 0), BuildingBlock: AJUNOK_clean_linker_0, # of connection points: 2
#     Edge 41, Type (0, 0), BuildingBlock: AJUNOK_clean_linker_0, # of connection points: 2
#     Edge 42, Type (0, 0), BuildingBlock: AJUNOK_clean_linker_0, # of connection points: 2
#     Edge 43, Type (0, 0), BuildingBlock: AJUNOK_clean_linker_0, # of connection points: 2
#     Edge 44, Type (0, 0), BuildingBlock: AJUNOK_clean_linker_0, # of connection points: 2
#     Edge 45, Type (0, 0), BuildingBlock: AJUNOK_clean_linker_0, # of connection points: 2
#     Edge 46, Type (0, 0), BuildingBlock: AJUNOK_clean_linker_0, # of connection points: 2
#     Edge 47, Type (0, 0), BuildingBlock: AJUNOK_clean_linker_0, # of connection points: 2
#     Edge 48, Type (0, 0), BuildingBlock: AJUNOK_clean_linker_0, # of connection points: 2
#     Edge 49, Type (0, 0), BuildingBlock: AJUNOK_clean_linker_0, # of connection points: 2
#     Edge 50, Type (0, 0), BuildingBlock: AJUNOK_clean_linker_0, # of connection points: 2
#     Edge 51, Type (0, 0), BuildingBlock: AJUNOK_clean_linker_0, # of connection points: 2
#     Edge 52, Type (0, 0), BuildingBlock: AJUNOK_clean_linker_0, # of connection points: 2
#     Edge 53, Type (0, 0), BuildingBlock: AJUNOK_clean_linker_0, # of connection points: 2
#     Edge 54, Type (0, 0), BuildingBlock: AJUNOK_clean_linker_0, # of connection points: 2
#     Edge 55, Type (0, 0), BuildingBlock: AJUNOK_clean_linker_0, # of connection points: 2
#     Edge 56, Type (0, 0), BuildingBlock: AJUNOK_clean_linker_0, # of connection points: 2
#     Edge 57, Type (0, 0), BuildingBlock: AJUNOK_clean_linker_0, # of connection points: 2
#     Edge 58, Type (0, 0), BuildingBlock: AJUNOK_clean_linker_0, # of connection points: 2
#     Edge 59, Type (0, 0), BuildingBlock: AJUNOK_clean_linker_0, # of connection points: 2
#     Edge 60, Type (0, 0), BuildingBlock: AJUNOK_clean_linker_0, # of connection points: 2
#     Edge 61, Type (0, 0), BuildingBlock: AJUNOK_clean_linker_0, # of connection points: 2
#     Edge 62, Type (0, 0), BuildingBlock: AJUNOK_clean_linker_0, # of connection points: 2
#     Edge 63, Type (0, 0), BuildingBlock: AJUNOK_clean_linker_0, # of connection points: 2
#     Edge 64, Type (0, 0), BuildingBlock: AJUNOK_clean_linker_0, # of connection points: 2
#     Edge 65, Type (0, 0), BuildingBlock: AJUNOK_clean_linker_0, # of connection points: 2
#     Edge 66, Type (0, 0), BuildingBlock: AJUNOK_clean_linker_0, # of connection points: 2
#     Edge 67, Type (0, 0), BuildingBlock: AJUNOK_clean_linker_0, # of connection points: 2
#     Edge 68, Type (0, 0), BuildingBlock: AJUNOK_clean_linker_0, # of connection points: 2
#     Edge 69, Type (0, 0), BuildingBlock: AJUNOK_clean_linker_0, # of connection points: 2
#     Edge 70, Type (0, 0), BuildingBlock: AJUNOK_clean_linker_0, # of connection points: 2
#     Edge 71, Type (0, 0), BuildingBlock: AJUNOK_clean_linker_0, # of connection points: 2
#     Edge 72, Type (0, 0), BuildingBlock: AJUNOK_clean_linker_0, # of connection points: 2
#     Edge 73, Type (0, 0), BuildingBlock: AJUNOK_clean_linker_0, # of connection points: 2
#     Edge 74, Type (0, 0), BuildingBlock: AJUNOK_clean_linker_0, # of connection points: 2
#     Edge 75, Type (0, 0), BuildingBlock: AJUNOK_clean_linker_0, # of connection points: 2
#     Edge 76, Type (0, 0), BuildingBlock: AJUNOK_clean_linker_0, # of connection points: 2
#     Edge 77, Type (0, 0), BuildingBlock: AJUNOK_clean_linker_0, # of connection points: 2
#     Edge 78, Type (0, 0), BuildingBlock: AJUNOK_clean_linker_0, # of connection points: 2
#     Edge 79, Type (0, 0), BuildingBlock: AJUNOK_clean_linker_0, # of connection points: 2
#     Edge 80, Type (0, 0), BuildingBlock: AJUNOK_clean_linker_0, # of connection points: 2
#     Edge 81, Type (0, 0), BuildingBlock: AJUNOK_clean_linker_0, # of connection points: 2
#     Edge 82, Type (0, 0), BuildingBlock: AJUNOK_clean_linker_0, # of connection points: 2
#     Edge 83, Type (0, 0), BuildingBlock: AJUNOK_clean_linker_0, # of connection points: 2
#     Edge 84, Type (0, 0), BuildingBlock: AJUNOK_clean_linker_0, # of connection points: 2
#     Edge 85, Type (0, 0), BuildingBlock: AJUNOK_clean_linker_0, # of connection points: 2
#     Edge 86, Type (0, 0), BuildingBlock: AJUNOK_clean_linker_0, # of connection points: 2
#     Edge 87, Type (0, 0), BuildingBlock: AJUNOK_clean_linker_0, # of connection points: 2
#     Edge 88, Type (0, 0), BuildingBlock: AJUNOK_clean_linker_0, # of connection points: 2
#     Edge 89, Type (0, 0), BuildingBlock: AJUNOK_clean_linker_0, # of connection points: 2
#     Edge 90, Type (0, 0), BuildingBlock: AJUNOK_clean_linker_0, # of connection points: 2
#     Edge 91, Type (0, 0), BuildingBlock: AJUNOK_clean_linker_0, # of connection points: 2
#     Edge 92, Type (0, 0), BuildingBlock: AJUNOK_clean_linker_0, # of connection points: 2
#     Edge 93, Type (0, 0), BuildingBlock: AJUNOK_clean_linker_0, # of connection points: 2
#     Edge 94, Type (0, 0), BuildingBlock: AJUNOK_clean_linker_0, # of connection points: 2
#     Edge 95, Type (0, 0), BuildingBlock: AJUNOK_clean_linker_0, # of connection points: 2
#     Edge 96, Type (0, 0), BuildingBlock: AJUNOK_clean_linker_0, # of connection points: 2
#     Edge 97, Type (0, 0), BuildingBlock: AJUNOK_clean_linker_0, # of connection points: 2
#     Edge 98, Type (0, 0), BuildingBlock: AJUNOK_clean_linker_0, # of connection points: 2
#     Edge 99, Type (0, 0), BuildingBlock: AJUNOK_clean_linker_0, # of connection points: 2
#     Edge 100, Type (0, 0), BuildingBlock: AJUNOK_clean_linker_0, # of connection points: 2
#     Edge 101, Type (0, 0), BuildingBlock: AJUNOK_clean_linker_0, # of connection points: 2
#     Edge 102, Type (0, 0), BuildingBlock: AJUNOK_clean_linker_0, # of connection points: 2
#     Edge 103, Type (0, 0), BuildingBlock: AJUNOK_clean_linker_0, # of connection points: 2
#     Edge 104, Type (0, 0), BuildingBlock: AJUNOK_clean_linker_0, # of connection points: 2
#     Edge 105, Type (0, 0), BuildingBlock: AJUNOK_clean_linker_0, # of connection points: 2
#     Edge 106, Type (0, 0), BuildingBlock: AJUNOK_clean_linker_0, # of connection points: 2
#     Edge 107, Type (0, 0), BuildingBlock: AJUNOK_clean_linker_0, # of connection points: 2
#     Edge 108, Type (0, 0), BuildingBlock: AJUNOK_clean_linker_0, # of connection points: 2
#     Edge 109, Type (0, 0), BuildingBlock: AJUNOK_clean_linker_0, # of connection points: 2
#     Edge 110, Type (0, 0), BuildingBlock: AJUNOK_clean_linker_0, # of connection points: 2
#     Edge 111, Type (0, 0), BuildingBlock: AJUNOK_clean_linker_0, # of connection points: 2
#     Edge 112, Type (0, 0), BuildingBlock: AJUNOK_clean_linker_0, # of connection points: 2
#     Edge 113, Type (0, 0), BuildingBlock: AJUNOK_clean_linker_0, # of connection points: 2
#     Edge 114, Type (0, 0), BuildingBlock: AJUNOK_clean_linker_0, # of connection points: 2
#     Edge 115, Type (0, 0), BuildingBlock: AJUNOK_clean_linker_0, # of connection points: 2
#     Edge 116, Type (0, 0), BuildingBlock: AJUNOK_clean_linker_0, # of connection points: 2
#     Edge 117, Type (0, 0), BuildingBlock: AJUNOK_clean_linker_0, # of connection points: 2
#     Edge 118, Type (0, 0), BuildingBlock: AJUNOK_clean_linker_0, # of connection points: 2
#     Edge 119, Type (0, 0), BuildingBlock: AJUNOK_clean_linker_0, # of connection points: 2
#     Edge 120, Type (0, 0), BuildingBlock: AJUNOK_clean_linker_0, # of connection points: 2
#     Edge 121, Type (0, 0), BuildingBlock: AJUNOK_clean_linker_0, # of connection points: 2
#     Edge 122, Type (0, 0), BuildingBlock: AJUNOK_clean_linker_0, # of connection points: 2
#     Edge 123, Type (0, 0), BuildingBlock: AJUNOK_clean_linker_0, # of connection points: 2
#     Edge 124, Type (0, 0), BuildingBlock: AJUNOK_clean_linker_0, # of connection points: 2
#     Edge 125, Type (0, 0), BuildingBlock: AJUNOK_clean_linker_0, # of connection points: 2
#     Edge 126, Type (0, 0), BuildingBlock: AJUNOK_clean_linker_0, # of connection points: 2
#     Edge 127, Type (0, 0), BuildingBlock: AJUNOK_clean_linker_0, # of connection points: 2
#     Edge 128, Type (0, 0), BuildingBlock: AJUNOK_clean_linker_0, # of connection points: 2
#     Edge 129, Type (0, 0), BuildingBlock: AJUNOK_clean_linker_0, # of connection points: 2
#     Edge 130, Type (0, 0), BuildingBlock: AJUNOK_clean_linker_0, # of connection points: 2
#     Edge 131, Type (0, 0), BuildingBlock: AJUNOK_clean_linker_0, # of connection points: 2
#     Edge 132, Type (0, 0), BuildingBlock: AJUNOK_clean_linker_0, # of connection points: 2
#     Edge 133, Type (0, 0), BuildingBlock: AJUNOK_clean_linker_0, # of connection points: 2
#     Edge 134, Type (0, 0), BuildingBlock: AJUNOK_clean_linker_0, # of connection points: 2
#     Edge 135, Type (0, 0), BuildingBlock: AJUNOK_clean_linker_0, # of connection points: 2
#     Edge 136, Type (0, 0), BuildingBlock: AJUNOK_clean_linker_0, # of connection points: 2
#     Edge 137, Type (0, 0), BuildingBlock: AJUNOK_clean_linker_0, # of connection points: 2
#     Edge 138, Type (0, 0), BuildingBlock: AJUNOK_clean_linker_0, # of connection points: 2
#     Edge 139, Type (0, 0), BuildingBlock: AJUNOK_clean_linker_0, # of connection points: 2
#     Edge 140, Type (0, 0), BuildingBlock: AJUNOK_clean_linker_0, # of connection points: 2
#     Edge 141, Type (0, 0), BuildingBlock: AJUNOK_clean_linker_0, # of connection points: 2
#     Edge 142, Type (0, 0), BuildingBlock: AJUNOK_clean_linker_0, # of connection points: 2
#     Edge 143, Type (0, 0), BuildingBlock: AJUNOK_clean_linker_0, # of connection points: 2
# Relax obj value: 0.169
# Max RMSD: 0.144
# Mean RMSD: 0.144
data_MOF--net-wne--node1-VOLQOD_clean_sbu_1--edge1-AJUNOK_clean_linker_0
_symmetry_space_group_name_H-M    P1
_symmetry_Int_Tables_number       1
_symmetry_cell_setting            triclinic
loop_
_symmetry_equiv_pos_as_xyz
'x, y, z'
_cell_length_a     53.398752
_cell_length_b     53.382517
_cell_length_c     33.456957
_cell_angle_alpha  90.046554
_cell_angle_beta   89.961513
_cell_angle_gamma 119.96027
loop_
_atom_site_label
_atom_site_type_symbol
_atom_site_fract_x
_atom_site_fract_y
_atom_site_fract_z
_atom_type_partial_charge
O0 O 0.26851 0.20154 0.02775 0.0
Zn1 Zn 0.25027 0.19701 0.08203 0.0
O2 O 0.20871 0.17141 0.0814 0.0
Zn3 Zn 0.19712 0.13873 0.11733 0.0
Zn4 Zn 0.19782 0.15879 0.02675 0.0
Zn5 Zn 0.18913 0.19127 0.09955 0.0
O6 O 0.17561 0.1402 0.1667 0.0
O7 O 0.17461 0.18066 0.15602 0.0
O8 O 0.26974 0.18237 0.11841 0.0
O9 O 0.23274 0.14061 0.13829 0.0
O10 O 0.17739 0.10077 0.08767 0.0
O11 O 0.18728 0.11753 0.02529 0.0
O12 O 0.16293 0.16151 0.01025 0.0
O13 O 0.25915 0.2367 0.09687 0.0
O14 O 0.15559 0.18143 0.06411 0.0
O15 O 0.21622 0.2339 0.09775 0.0
C16 C 0.25822 0.19488 0.99258 0.0
C17 C 0.16977 0.15945 0.17844 0.0
C18 C 0.17883 0.09693 0.05033 0.0
C19 C 0.25968 0.1586 0.13731 0.0
C20 C 0.14814 0.17028 0.02945 0.0
C21 C 0.24368 0.24866 0.09888 0.0
O22 O 0.23098 0.17991 0.98707 0.0
O23 O 0.74421 0.05659 0.02383 0.0
Zn24 Zn 0.74878 0.04295 0.07795 0.0
O25 O 0.77416 0.02676 0.07712 0.0
Zn26 Zn 0.80594 0.04679 0.11478 0.0
Zn27 Zn 0.78798 0.02945 0.02265 0.0
Zn28 Zn 0.75329 -0.01313 0.09364 0.0
O29 O 0.8026 0.02271 0.16393 0.0
O30 O 0.76281 -0.01857 0.14999 0.0
O31 O 0.76348 0.07684 0.1147 0.0
O32 O 0.80447 0.0806 0.1364 0.0
O33 O 0.84443 0.06388 0.08663 0.0
O34 O 0.83036 0.05749 0.023 0.0
O35 O 0.78345 -0.00871 1.00438 0.0
O36 O 0.70919 0.01265 0.0936 0.0
O37 O 0.7632 0.96355 0.05769 0.0
O38 O 0.71066 0.97178 0.09172 0.0
C39 C 0.75245 0.05481 0.98879 0.0
C40 C 0.78325 -0.0028 0.17383 0.0
C41 C 0.85018 0.06811 0.04941 0.0
C42 C 0.78661 0.08972 0.13512 0.0
C43 C 0.77439 0.96751 0.02304 0.0
C44 C 0.69665 -0.0148 0.09497 0.0
O45 O 0.76866 0.04386 0.9832 0.0
O46 O 0.88981 0.67838 0.02165 0.0
Zn47 Zn 0.90369 0.69579 0.07587 0.0
O48 O 0.91821 0.73695 0.07689 0.0
Zn49 Zn 0.89684 0.74649 0.11547 0.0
Zn50 Zn 0.91539 0.7488 0.02286 0.0
Zn51 Zn 0.95792 0.7567 0.09407 0.0
O52 O 0.92022 0.76661 0.1655 0.0
O53 O 0.96246 0.77039 0.15088 0.0
O54 O 0.87027 0.67482 0.11238 0.0
O55 O 0.86333 0.7099 0.13508 0.0
O56 O 0.87912 0.76774 0.08856 0.0
O57 O 0.88667 0.7623 0.02451 0.0
O58 O 0.95336 0.78333 1.00578 0.0
O59 O 0.93495 0.68751 0.08918 0.0
O60 O -0.01942 0.79082 0.05965 0.0
O61 O -0.02529 0.73063 0.0903 0.0
C62 C 0.89085 0.68853 0.98697 0.0
C63 C 0.94603 0.77371 0.17521 0.0
C64 C 0.8751 0.77009 0.0515 0.0
C65 C 0.85573 0.68327 0.13257 0.0
C66 C -0.02324 0.79836 0.02519 0.0
C67 C 0.96231 0.70318 0.09098 0.0
O68 O 0.90129 0.71567 0.98195 0.0
O69 O 0.19155 0.28022 0.49143 0.0
Zn70 Zn 0.18811 0.26148 0.43795 0.0
O71 O 0.16197 0.2201 0.43831 0.0
Zn72 Zn 0.13026 0.20901 0.40062 0.0
Zn73 Zn 0.14831 0.20962 0.49278 0.0
Zn74 Zn 0.18171 0.2 0.42192 0.0
O75 O 0.1314 0.18567 0.35324 0.0
O76 O 0.17179 0.18492 0.36567 0.0
O77 O 0.17571 0.28124 0.3989 0.0
O78 O 0.13452 0.24481 0.37615 0.0
O79 O 0.09183 0.19123 0.42911 0.0
O80 O 0.10723 0.19965 0.49224 0.0
O81 O 0.14983 0.17421 0.51069 0.0
O82 O 0.22769 0.26946 0.42569 0.0
O83 O 0.1701 0.16634 0.45759 0.0
O84 O 0.22452 0.22637 0.42495 0.0
C85 C 0.18409 0.27024 0.52662 0.0
C86 C 0.1506 0.1794 0.34283 0.0
C87 C 0.08727 0.19212 0.46634 0.0
C88 C 0.15329 0.27155 0.37708 0.0
C89 C 0.15808 0.1589 0.4917 0.0
C90 C 0.23947 0.25384 0.42415 0.0
O91 O 0.16889 0.24303 0.53239 0.0
O92 O 0.66663 0.899 0.49167 0.0
Zn93 Zn 0.68371 0.91262 0.43716 0.0
O94 O 0.72531 0.92934 0.43682 0.0
Zn95 Zn 0.73675 0.909 0.3995 0.0
Zn96 Zn 0.73746 0.92768 0.49109 0.0
Zn97 Zn 0.74354 0.96878 0.41877 0.0
O98 O 0.75665 0.93232 0.34966 0.0
O99 O 0.75698 0.97332 0.36146 0.0
O100 O 0.66429 0.87833 0.40114 0.0
O101 O 0.70141 0.87419 0.37996 0.0
O102 O 0.75908 0.89308 0.42738 0.0
O103 O 0.75139 0.89917 0.49111 0.0
O104 O 0.7717 0.96618 0.507 0.0
O105 O 0.67329 0.94253 0.42362 0.0
O106 O 0.77792 -0.00724 0.45273 0.0
O107 O 0.7156 -0.0167 0.4233 0.0
C108 C 0.67711 0.90215 0.52663 0.0
C109 C 0.76182 0.95725 0.33833 0.0
C110 C 0.76045 0.8885 0.46447 0.0
C111 C 0.67441 0.86479 0.38192 0.0
C112 C 0.78612 -0.01058 0.48702 0.0
C113 C 0.68809 0.97001 0.42268 0.0
O114 O 0.70441 0.91425 0.5318 0.0
O115 O 0.04773 0.75647 0.48913 0.0
Zn116 Zn 0.0307 0.75768 0.43662 0.0
O117 O 0.01552 0.78362 0.43686 0.0
Zn118 Zn 0.03627 0.81468 0.3986 0.0
Zn119 Zn 0.01876 0.7979 0.49132 0.0
Zn120 Zn -0.02438 0.7631 0.42029 0.0
O121 O 0.01193 0.81152 0.35007 0.0
O122 O -0.02943 0.7715 0.36294 0.0
O123 O 0.06202 0.76901 0.39681 0.0
O124 O 0.06957 0.81184 0.37692 0.0
O125 O 0.054 0.85347 0.42585 0.0
O126 O 0.04684 0.84032 0.48981 0.0
O127 O -0.01928 0.79377 0.50955 0.0
O128 O -0.00073 0.71748 0.42875 0.0
O129 O 0.95367 0.77555 0.45497 0.0
O130 O 0.9591 0.7202 0.42686 0.0
C131 C 0.04655 0.76462 0.52438 0.0
C132 C -0.01336 0.7921 0.33942 0.0
C133 C 0.05807 0.85976 0.46291 0.0
C134 C 0.07658 0.79231 0.37729 0.0
C135 C 0.95764 0.78644 0.48983 0.0
C136 C -0.02812 0.70548 0.42861 0.0
O137 O 0.03421 0.77946 0.53117 0.0
O138 O 0.66419 0.75656 0.98727 0.0
Zn139 Zn 0.68203 0.75981 0.93381 0.0
O140 O 0.7234 0.78471 0.93473 0.0
Zn141 Zn 0.73482 0.81623 0.89652 0.0
Zn142 Zn 0.73471 0.79871 0.98927 0.0
Zn143 Zn 0.74157 0.76294 0.91862 0.0
O144 O 0.75463 0.81163 0.84718 0.0
O145 O 0.757 0.77246 0.86258 0.0
O146 O 0.66305 0.775 0.89837 0.0
O147 O 0.69958 0.81656 0.87699 0.0
O148 O 0.75817 0.85468 0.92396 0.0
O149 O 0.75078 0.84139 0.98788 0.0
O150 O 0.76722 0.79255 0.00832 0.0
O151 O 0.67147 0.71973 0.91923 0.0
O152 O 0.77436 0.77203 0.95493 0.0
O153 O 0.71332 0.72035 0.92074 0.0
C154 C 0.6736 0.76551 0.02225 0.0
C155 C 0.76133 0.79249 0.83814 0.0
C156 C 0.76026 0.86095 0.96104 0.0
C157 C 0.67263 0.79867 0.87952 0.0
C158 C 0.78153 0.78294 0.98974 0.0
C159 C 0.68587 0.70666 0.91816 0.0
O160 O 0.70068 0.78124 0.0287 0.0
O161 O 0.18758 0.89626 0.98959 0.0
Zn162 Zn 0.18488 0.91072 0.93586 0.0
O163 O 0.15991 0.9273 0.93615 0.0
Zn164 Zn 0.12784 0.90662 0.8991 0.0
Zn165 Zn 0.14681 0.92656 0.99114 0.0
Zn166 Zn 0.18131 0.96629 0.91676 0.0
O167 O 0.13072 0.9296 0.84916 0.0
O168 O 0.17013 0.97148 0.86149 0.0
O169 O 0.16959 0.87661 0.90031 0.0
O170 O 0.12756 0.87108 0.87997 0.0
O171 O 0.09016 0.89241 0.92752 0.0
O172 O 0.10364 0.90132 0.99126 0.0
O173 O 0.15607 0.96681 0.00886 0.0
O174 O 0.22545 0.93984 0.9218 0.0
O175 O 0.17603 -0.00812 0.95346 0.0
O176 O 0.22337 -0.01992 0.91627 0.0
C177 C 0.17905 0.89741 0.0246 0.0
C178 C 0.14943 0.95511 0.83841 0.0
C179 C 0.08397 0.89022 0.96459 0.0
C180 C 0.14574 0.86235 0.88191 0.0
C181 C 0.16724 -0.00962 0.98911 0.0
C182 C 0.23782 0.9671 0.91727 0.0
O183 O 0.1639 0.90948 0.03089 0.0
O184 O 0.04973 0.28093 0.98755 0.0
Zn185 Zn 0.03372 0.26247 0.93466 0.0
O186 O 0.01653 0.22099 0.93641 0.0
Zn187 Zn 0.03634 0.20842 0.89959 0.0
Zn188 Zn 0.01842 0.21003 0.99145 0.0
Zn189 Zn -0.02314 0.20323 0.91918 0.0
O190 O 0.01177 0.1866 0.85166 0.0
O191 O -0.02856 0.18771 0.86304 0.0
O192 O 0.06641 0.28036 0.89637 0.0
O193 O 0.07075 0.24304 0.87673 0.0
O194 O 0.05238 0.18666 0.92879 0.0
O195 O 0.04544 0.19431 0.99214 0.0
O196 O -0.02048 0.17709 0.00942 0.0
O197 O 0.00419 0.27335 0.92181 0.0
O198 O 0.95296 0.17015 0.95487 0.0
O199 O 0.96273 0.23173 0.92128 0.0
C200 C 0.04771 0.27167 0.02303 0.0
C201 C -0.01319 0.18148 0.84058 0.0
C202 C 0.05616 0.18493 0.96606 0.0
C203 C 0.07956 0.26999 0.87681 0.0
C204 C 0.95618 0.1626 0.98967 0.0
C205 C -0.02325 0.25925 0.91997 0.0
O206 O 0.03456 0.24453 0.03017 0.0
O207 O 0.74775 0.67705 0.52143 0.0
Zn208 Zn 0.74992 0.69392 0.57554 0.0
O209 O 0.77519 0.73537 0.57664 0.0
Zn210 Zn 0.8065 0.74588 0.61481 0.0
Zn211 Zn 0.78948 0.7479 0.52258 0.0
Zn212 Zn 0.75378 0.75361 0.59419 0.0
O213 O 0.80232 0.76543 0.66462 0.0
O214 O 0.76272 0.76742 0.65108 0.0
O215 O 0.76371 0.67413 0.61205 0.0
O216 O 0.80547 0.70999 0.63414 0.0
O217 O 0.84517 0.76906 0.58783 0.0
O218 O 0.83217 0.76424 0.52383 0.0
O219 O 0.78321 0.78063 0.50522 0.0
O220 O 0.70947 0.68346 0.58778 0.0
O221 O 0.76339 0.78742 0.55962 0.0
O222 O 0.71128 0.72585 0.59027 0.0
C223 C 0.75672 0.68748 0.48683 0.0
C224 C 0.78294 0.77146 0.67499 0.0
C225 C 0.85158 0.77278 0.55077 0.0
C226 C 0.78701 0.68317 0.63168 0.0
C227 C 0.77402 0.79494 0.52473 0.0
C228 C 0.69692 0.69835 0.58983 0.0
O229 O 0.77229 0.71476 0.48187 0.0
O230 O 0.26805 0.05841 0.52657 0.0
Zn231 Zn 0.24994 0.04339 0.58018 0.0
O232 O 0.20849 0.02719 0.57975 0.0
Zn233 Zn 0.19725 0.04763 0.61788 0.0
Zn234 Zn 0.19696 0.02955 0.52528 0.0
Zn235 Zn 0.18999 -0.01277 0.59613 0.0
O236 O 0.17621 0.02305 0.66644 0.0
O237 O 0.17403 -0.01849 0.65171 0.0
O238 O 0.26886 0.07641 0.6178 0.0
O239 O 0.23271 0.082 0.63956 0.0
O240 O 0.17482 0.06368 0.59009 0.0
O241 O 0.18043 0.05576 0.52624 0.0
O242 O 0.16471 -0.00923 0.50606 0.0
O243 O 0.25997 0.01338 0.59415 0.0
O244 O 0.15745 0.96341 0.55969 0.0
O245 O 0.21787 0.97243 0.59516 0.0
C246 C 0.25815 0.05757 0.49176 0.0
C247 C 0.16933 -0.00278 0.67566 0.0
C248 C 0.17155 0.06653 0.55293 0.0
C249 C 0.25951 0.09013 0.63816 0.0
C250 C 0.15038 0.96693 0.52475 0.0
C251 C 0.24535 -0.01401 0.59679 0.0
O252 O 0.23098 0.04621 0.4861 0.0
O253 O 0.88539 0.19878 0.52985 0.0
Zn254 Zn 0.90007 0.19531 0.5832 0.0
O255 O 0.9169 0.17048 0.5813 0.0
Zn256 Zn 0.89655 0.13766 0.61733 0.0
Zn257 Zn 0.91644 0.15858 0.52586 0.0
Zn258 Zn 0.95589 0.19179 0.60026 0.0
O259 O 0.91987 0.1401 0.66715 0.0
O260 O 0.96121 0.18024 0.65492 0.0
O261 O 0.86635 0.1796 0.61979 0.0
O262 O 0.86139 0.13738 0.63775 0.0
O263 O 0.88159 0.10028 0.58694 0.0
O264 O 0.89079 0.11562 0.52392 0.0
O265 O 0.9566 0.16796 0.50756 0.0
O266 O 0.92933 0.23582 0.59754 0.0
O267 O -0.01843 0.18702 0.56327 0.0
O268 O -0.03036 0.23377 0.60131 0.0
C269 C 0.88734 0.19136 0.49444 0.0
C270 C 0.94536 0.15912 0.67767 0.0
C271 C 0.87943 0.09522 0.54946 0.0
C272 C 0.85248 0.15545 0.63767 0.0
C273 C -0.01986 0.17885 0.52731 0.0
C274 C 0.95664 0.2482 0.6012 0.0
O275 O 0.89982 0.17668 0.48753 0.0
O276 O 0.93493 0.53553 0.36269 0.0
Zn277 Zn 0.91558 0.52958 0.41607 0.0
O278 O 0.87435 0.50376 0.41287 0.0
Zn279 Zn 0.8624 0.47089 0.44852 0.0
Zn280 Zn 0.86456 0.49179 0.35741 0.0
Zn281 Zn 0.85449 0.52359 0.43035 0.0
O282 O 0.84084 0.47266 0.49773 0.0
O283 O 0.8396 0.51294 0.48662 0.0
O284 O 0.9344 0.51432 0.45252 0.0
O285 O 0.89752 0.47181 0.47035 0.0
O286 O 0.84146 0.43341 0.41794 0.0
O287 O 0.85073 0.44948 0.35527 0.0
O288 O 0.8306 0.49602 0.3394 0.0
O289 O 0.92383 0.56864 0.43316 0.0
O290 O 0.82107 0.51307 0.39457 0.0
O291 O 0.88123 0.56648 0.42932 0.0
C292 C 0.92621 0.52842 0.32693 0.0
C293 C 0.83482 0.49184 0.50922 0.0
C294 C 0.8409 0.42882 0.38044 0.0
C295 C 0.92434 0.49034 0.47084 0.0
C296 C 0.81463 0.50302 0.35924 0.0
C297 C 0.90853 0.5808 0.43395 0.0
O298 O 0.89927 0.5125 0.31944 0.0
O299 O 0.41262 0.38992 0.35995 0.0
Zn300 Zn 0.4164 0.37517 0.41373 0.0
O301 O 0.4421 0.35938 0.41297 0.0
Zn302 Zn 0.47383 0.37925 0.45077 0.0
Zn303 Zn 0.45603 0.36272 0.35869 0.0
Zn304 Zn 0.42184 0.31958 0.42892 0.0
O305 O 0.47056 0.35506 0.49976 0.0
O306 O 0.43066 0.31396 0.48548 0.0
O307 O 0.43049 0.40855 0.45124 0.0
O308 O 0.4719 0.41288 0.47213 0.0
O309 O 0.51258 0.3978 0.42296 0.0
O310 O 0.49718 0.39357 0.36005 0.0
O311 O 0.45396 0.32559 0.34055 0.0
O312 O 0.3766 0.34413 0.42695 0.0
O313 O 0.43303 0.29723 0.39316 0.0
O314 O 0.3793 0.30394 0.42512 0.0
C315 C 0.42041 0.38777 0.32478 0.0
C316 C 0.45105 0.32957 0.50949 0.0
C317 C 0.51721 0.40457 0.38609 0.0
C318 C 0.45398 0.42191 0.47082 0.0
C319 C 0.44501 0.30174 0.35901 0.0
C320 C 0.36458 0.31668 0.42712 0.0
O321 O 0.4359 0.37605 0.319 0.0
O322 O 0.55256 0.01009 0.35834 0.0
Zn323 Zn 0.56685 0.02715 0.41259 0.0
O324 O 0.58347 0.06893 0.41276 0.0
Zn325 Zn 0.56302 0.0806 0.44996 0.0
Zn326 Zn 0.58266 0.08148 0.35809 0.0
Zn327 Zn 0.62257 0.08664 0.43161 0.0
O328 O 0.58648 0.10139 0.49971 0.0
O329 O 0.62805 0.10325 0.48669 0.0
O330 O 0.53281 0.0081 0.4489 0.0
O331 O 0.52836 0.04517 0.46976 0.0
O332 O 0.54711 0.1028 0.42129 0.0
O333 O 0.55645 0.09814 0.35775 0.0
O334 O 0.62253 0.11285 0.34009 0.0
O335 O 0.59648 0.01605 0.42589 0.0
O336 O 0.64799 0.11748 0.39484 0.0
O337 O 0.63652 0.0585 0.43156 0.0
C338 C 0.55449 0.02045 0.32356 0.0
C339 C 0.61213 0.10818 0.50987 0.0
C340 C 0.54477 0.10631 0.38406 0.0
C341 C 0.51918 0.01818 0.46801 0.0
C342 C 0.64625 0.12501 0.35946 0.0
C343 C 0.62376 0.0311 0.43008 0.0
O344 O 0.56647 0.04773 0.31833 0.0
O345 O 0.85621 0.61354 0.8192 0.0
Zn346 Zn 0.85228 0.5942 0.76634 0.0
O347 O 0.82644 0.55289 0.76901 0.0
Zn348 Zn 0.79415 0.54083 0.73218 0.0
Zn349 Zn 0.8137 0.54292 0.82427 0.0
Zn350 Zn 0.84668 0.53333 0.75244 0.0
O351 O 0.79635 0.51868 0.68378 0.0
O352 O 0.83677 0.51804 0.69636 0.0
O353 O 0.83814 0.6128 0.7278 0.0
O354 O 0.79576 0.57596 0.70933 0.0
O355 O 0.7562 0.52023 0.76177 0.0
O356 O 0.77125 0.52858 0.82499 0.0
O357 O 0.81808 0.5091 0.84297 0.0
O358 O 0.89217 0.60293 0.75307 0.0
O359 O 0.83586 0.5 0.78821 0.0
O360 O 0.88941 0.56007 0.75519 0.0
C361 C 0.84881 0.6048 0.85487 0.0
C362 C 0.81566 0.51256 0.67338 0.0
C363 C 0.75102 0.51912 0.79915 0.0
C364 C 0.81447 0.60273 0.70868 0.0
C365 C 0.82543 0.49332 0.82328 0.0
C366 C 0.9042 0.5875 0.7529 0.0
O367 O 0.83352 0.57778 0.86242 0.0
O368 O 0.3314 0.23218 0.82332 0.0
Zn369 Zn 0.34967 0.24609 0.76966 0.0
O370 O 0.39095 0.26204 0.77144 0.0
Zn371 Zn 0.40266 0.24139 0.73516 0.0
Zn372 Zn 0.40173 0.26025 0.82652 0.0
Zn373 Zn 0.40988 0.3015 0.75352 0.0
O374 O 0.4232 0.26469 0.68548 0.0
O375 O 0.42338 0.30575 0.6964 0.0
O376 O 0.33048 0.21228 0.7327 0.0
O377 O 0.3674 0.20666 0.71498 0.0
O378 O 0.42471 0.22566 0.76454 0.0
O379 O 0.4161 0.23215 0.82777 0.0
O380 O 0.43579 0.29868 0.84323 0.0
O381 O 0.34033 0.27677 0.75685 0.0
O382 O 0.44423 0.32455 0.78761 0.0
O383 O 0.38296 0.31728 0.75876 0.0
C384 C 0.34059 0.2348 0.85895 0.0
C385 C 0.42842 0.28958 0.67378 0.0
C386 C 0.42592 0.22169 0.80191 0.0
C387 C 0.34051 0.19807 0.71498 0.0
C388 C 0.45137 0.32137 0.82269 0.0
C389 C 0.35546 0.30422 0.75785 0.0
O390 O 0.36768 0.24655 0.86589 0.0
O391 O 0.70986 0.08695 0.82127 0.0
Zn392 Zn 0.69597 0.09198 0.76803 0.0
O393 O 0.68163 0.11864 0.76978 0.0
Zn394 Zn 0.70291 0.15036 0.73239 0.0
Zn395 Zn 0.68511 0.13226 0.8247 0.0
Zn396 Zn 0.64177 0.09897 0.75298 0.0
O397 O 0.6792 0.14821 0.68356 0.0
O398 O 0.63697 0.10942 0.69682 0.0
O399 O 0.72928 0.10538 0.73141 0.0
O400 O 0.73648 0.14793 0.71092 0.0
O401 O 0.72054 0.18865 0.76084 0.0
O402 O 0.71375 0.17462 0.82444 0.0
O403 O 0.64722 0.12828 0.8434 0.0
O404 O 0.66501 0.05307 0.75215 0.0
O405 O 0.61956 0.10979 0.78947 0.0
O406 O 0.62493 0.05591 0.75424 0.0
C407 C 0.70974 0.0956 0.8566 0.0
C408 C 0.65348 0.12971 0.67323 0.0
C409 C 0.72493 0.19442 0.79802 0.0
C410 C 0.74385 0.12867 0.71193 0.0
C411 C 0.6237 0.12038 0.82453 0.0
C412 C 0.63766 0.04126 0.75058 0.0
O413 O 0.69974 0.11248 0.86359 0.0
O414 O 0.33189 0.09255 0.32455 0.0
Zn415 Zn 0.34943 0.09397 0.2715 0.0
O416 O 0.39071 0.11812 0.27185 0.0
Zn417 Zn 0.40227 0.14942 0.23336 0.0
Zn418 Zn 0.40253 0.13214 0.32627 0.0
Zn419 Zn 0.40797 0.09555 0.25553 0.0
O420 O 0.42223 0.14457 0.18466 0.0
O421 O 0.42201 0.10384 0.19873 0.0
O422 O 0.33085 0.10775 0.23318 0.0
O423 O 0.36724 0.1494 0.21195 0.0
O424 O 0.42562 0.18785 0.26056 0.0
O425 O 0.41879 0.17493 0.32466 0.0
O426 O 0.4357 0.12647 0.34393 0.0
O427 O 0.33816 0.05338 0.26045 0.0
O428 O 0.44196 0.10583 0.28993 0.0
O429 O 0.37949 0.05303 0.26056 0.0
C430 C 0.34146 0.10034 0.35977 0.0
C431 C 0.42742 0.12451 0.17488 0.0
C432 C 0.4282 0.19433 0.29758 0.0
C433 C 0.3404 0.13089 0.21306 0.0
C434 C 0.45003 0.11736 0.32424 0.0
C435 C 0.35196 0.03972 0.26013 0.0
O436 O 0.36867 0.11457 0.36639 0.0
O437 O 0.85409 0.2292 0.3259 0.0
Zn438 Zn 0.85197 0.24371 0.27173 0.0
O439 O 0.82825 0.26149 0.27008 0.0
Zn440 Zn 0.79637 0.24121 0.23219 0.0
Zn441 Zn 0.81477 0.26053 0.32423 0.0
Zn442 Zn 0.85093 0.30093 0.25261 0.0
O443 O 0.79964 0.26594 0.18392 0.0
O444 O 0.84125 0.30598 0.19627 0.0
O445 O 0.83743 0.21026 0.23534 0.0
O446 O 0.79758 0.20698 0.20994 0.0
O447 O 0.75788 0.2234 0.26068 0.0
O448 O 0.77322 0.23087 0.32387 0.0
O449 O 0.81837 0.29885 0.33957 0.0
O450 O 0.89243 0.27221 0.25892 0.0
O451 O 0.84195 0.32576 0.2869 0.0
O452 O 0.89332 0.31415 0.25579 0.0
C453 C 0.84745 0.23335 0.36076 0.0
C454 C 0.81979 0.29095 0.17346 0.0
C455 C 0.75316 0.21876 0.29804 0.0
C456 C 0.81504 0.19745 0.21361 0.0
C457 C 0.8291 0.3225 0.32013 0.0
C458 C 0.9063 0.29957 0.25615 0.0
O459 O 0.83386 0.24715 0.36565 0.0
O460 O 0.71704 0.61403 0.31868 0.0
Zn461 Zn 0.70163 0.59562 0.26567 0.0
O462 O 0.68413 0.55398 0.2677 0.0
Zn463 Zn 0.70342 0.54096 0.23035 0.0
Zn464 Zn 0.6862 0.5429 0.32276 0.0
Zn465 Zn 0.64448 0.53682 0.2509 0.0
O466 O 0.67867 0.52009 0.18181 0.0
O467 O 0.63772 0.51923 0.19616 0.0
O468 O 0.7348 0.61294 0.22833 0.0
O469 O 0.73836 0.57527 0.20824 0.0
O470 O 0.71877 0.51828 0.25917 0.0
O471 O 0.71156 0.5253 0.32279 0.0
O472 O 0.64673 0.51224 0.34271 0.0
O473 O 0.67293 0.60747 0.25132 0.0
O474 O 0.6195 0.50704 0.28961 0.0
O475 O 0.63155 0.56594 0.24983 0.0
C476 C 0.71593 0.60484 0.35398 0.0
C477 C 0.65302 0.51379 0.17246 0.0
C478 C 0.72188 0.51568 0.29646 0.0
C479 C 0.74774 0.60232 0.20884 0.0
C480 C 0.62239 0.50007 0.32489 0.0
C481 C 0.64556 0.59338 0.24842 0.0
O482 O 0.70373 0.57772 0.36099 0.0
O483 O 0.41491 0.01039 0.85803 0.0
Zn484 Zn 0.41659 0.02737 0.912 0.0
O485 O 0.44111 0.06898 0.91242 0.0
Zn486 Zn 0.47255 0.08066 0.95025 0.0
Zn487 Zn 0.4552 0.08154 0.85836 0.0
Zn488 Zn 0.41937 0.08665 0.93016 0.0
O489 O 0.46838 0.10011 0.9998 0.0
O490 O 0.42737 0.09961 0.98754 0.0
O491 O 0.43078 0.00837 0.94975 0.0
O492 O 0.47213 0.04557 0.97049 0.0
O493 O 0.51095 0.10374 0.92332 0.0
O494 O 0.49795 0.09736 0.8593 0.0
O495 O 0.44935 0.11477 0.84172 0.0
O496 O 0.37581 0.01646 0.92327 0.0
O497 O 0.42953 0.12097 0.89663 0.0
O498 O 0.37719 0.0587 0.92457 0.0
C499 C 0.42284 0.02084 0.82317 0.0
C500 C 0.44818 0.10468 0.01089 0.0
C501 C 0.51737 0.10635 0.88632 0.0
C502 C 0.4542 0.01861 0.9695 0.0
C503 C 0.44052 0.12906 0.86205 0.0
C504 C 0.36306 0.0312 0.92414 0.0
O505 O 0.4374 0.04818 0.81789 0.0
O506 O 0.93567 0.39548 0.86206 0.0
Zn507 Zn 0.91748 0.37949 0.91497 0.0
O508 O 0.87602 0.3621 0.91331 0.0
Zn509 Zn 0.86332 0.38156 0.9505 0.0
Zn510 Zn 0.86487 0.36406 0.85852 0.0
Zn511 Zn 0.85868 0.32243 0.93019 0.0
O512 O 0.84315 0.35718 0.99936 0.0
O513 O 0.84442 0.31701 0.987 0.0
O514 O 0.9353 0.41224 0.95319 0.0
O515 O 0.89779 0.41648 0.97216 0.0
O516 O 0.84051 0.39684 0.9221 0.0
O517 O 0.84836 0.39042 0.85852 0.0
O518 O 0.83252 0.32494 0.84047 0.0
O519 O 0.92883 0.35012 0.92663 0.0
O520 O 0.82538 0.29825 0.89487 0.0
O521 O 0.88729 0.30861 0.92587 0.0
C522 C 0.92641 0.39347 0.8266 0.0
C523 C 0.83869 0.33239 0.01021 0.0
C524 C 0.83848 0.40049 0.88484 0.0
C525 C 0.92476 0.42545 0.9722 0.0
C526 C 0.81816 0.30138 0.8598 0.0
C527 C 0.9148 0.32265 0.92654 0.0
O528 O 0.89927 0.38044 0.81953 0.0
O529 O 0.55084 0.53003 0.859 0.0
Zn530 Zn 0.56618 0.52778 0.91222 0.0
O531 O 0.58304 0.50329 0.91169 0.0
Zn532 Zn 0.5624 0.47133 0.94891 0.0
Zn533 Zn 0.58173 0.49024 0.85683 0.0
Zn534 Zn 0.62252 0.52522 0.92959 0.0
O535 O 0.58623 0.47491 0.99821 0.0
O536 O 0.62716 0.51573 0.98641 0.0
O537 O 0.53299 0.51354 0.94916 0.0
O538 O 0.52713 0.47137 0.96923 0.0
O539 O 0.54736 0.43335 0.92039 0.0
O540 O 0.55513 0.44744 0.85674 0.0
O541 O 0.62097 0.49653 0.83984 0.0
O542 O 0.59557 0.56823 0.92402 0.0
O543 O 0.64679 0.51564 0.89509 0.0
O544 O 0.63692 0.56785 0.92526 0.0
C545 C 0.55292 0.52261 0.82368 0.0
C546 C 0.61125 0.49464 0.00934 0.0
C547 C 0.54441 0.42757 0.88312 0.0
C548 C 0.51873 0.48984 0.96784 0.0
C549 C 0.64405 0.50516 0.86016 0.0
C550 C 0.62301 0.58149 0.92484 0.0
O551 O 0.56587 0.50834 0.81696 0.0
O552 O 0.60296 0.86807 0.69515 0.0
Zn553 Zn 0.58371 0.86497 0.74766 0.0
O554 O 0.54251 0.83931 0.74562 0.0
Zn555 Zn 0.53087 0.80693 0.78204 0.0
Zn556 Zn 0.53271 0.82705 0.6905 0.0
Zn557 Zn 0.5228 0.85927 0.76258 0.0
O558 O 0.50854 0.80866 0.8303 0.0
O559 O 0.5094 0.85012 0.81972 0.0
O560 O 0.60285 0.85224 0.78725 0.0
O561 O 0.56634 0.80965 0.80568 0.0
O562 O 0.51216 0.76893 0.75213 0.0
O563 O 0.522 0.78568 0.68968 0.0
O564 O 0.49761 0.82945 0.67294 0.0
O565 O 0.59209 0.9049 0.75765 0.0
O566 O 0.48848 0.84711 0.72786 0.0
O567 O 0.5491 0.90207 0.75692 0.0
C568 C 0.59405 0.86225 0.65932 0.0
C569 C 0.50379 0.82865 0.84211 0.0
C570 C 0.51362 0.76509 0.71476 0.0
C571 C 0.59298 0.82872 0.80665 0.0
C572 C 0.48163 0.83639 0.6929 0.0
C573 C 0.57659 0.91681 0.75684 0.0
O574 O 0.56698 0.84817 0.65182 0.0
O575 O 0.07965 0.72495 0.69193 0.0
Zn576 Zn 0.08194 0.70907 0.74544 0.0
O577 O 0.10771 0.69331 0.74544 0.0
Zn578 Zn 0.13896 0.71319 0.78393 0.0
Zn579 Zn 0.12223 0.69656 0.69125 0.0
Zn580 Zn 0.08694 0.65332 0.76144 0.0
O581 O 0.13558 0.68848 0.83233 0.0
O582 O 0.09573 0.64737 0.81799 0.0
O583 O 0.09482 0.74132 0.78462 0.0
O584 O 0.13627 0.74614 0.80648 0.0
O585 O 0.17788 0.73102 0.75668 0.0
O586 O 0.16468 0.72392 0.6927 0.0
O587 O 0.11732 0.65851 0.67213 0.0
O588 O 0.04164 0.67795 0.75636 0.0
O589 O 0.09769 0.63064 0.72553 0.0
O590 O 0.04431 0.63777 0.75737 0.0
C591 C 0.08848 0.72368 0.65709 0.0
C592 C 0.11618 0.66292 0.84196 0.0
C593 C 0.18415 0.73476 0.71956 0.0
C594 C 0.11765 0.75432 0.80564 0.0
C595 C 0.10865 0.63477 0.69072 0.0
C596 C 0.02955 0.65051 0.75752 0.0
O597 O 0.10419 0.71217 0.65163 0.0
O598 O 0.22415 0.34443 0.69424 0.0
Zn599 Zn 0.23728 0.36236 0.74802 0.0
O600 O 0.25234 0.4035 0.74708 0.0
Zn601 Zn 0.23076 0.4137 0.78437 0.0
Zn602 Zn 0.24987 0.41457 0.69225 0.0
Zn603 Zn 0.29204 0.42288 0.76473 0.0
O604 O 0.2539 0.43393 0.8343 0.0
O605 O 0.29613 0.4371 0.82153 0.0
O606 O 0.20301 0.34211 0.78308 0.0
O607 O 0.19617 0.37764 0.80394 0.0
O608 O 0.21427 0.43551 0.75611 0.0
O609 O 0.2214 0.42864 0.69244 0.0
O610 O 0.28827 0.44863 0.67496 0.0
O611 O 0.26755 0.3534 0.76405 0.0
O612 O 0.31518 0.45669 0.72948 0.0
O613 O 0.30813 0.3959 0.76261 0.0
C614 C 0.22497 0.3536 0.659 0.0
C615 C 0.27941 0.44063 0.84509 0.0
C616 C 0.2102 0.43728 0.71891 0.0
C617 C 0.18822 0.3509 0.80191 0.0
C618 C 0.31152 0.46387 0.69464 0.0
C619 C 0.29494 0.36846 0.76567 0.0
O620 O 0.23552 0.38061 0.65239 0.0
O621 O 0.52126 0.94688 0.15545 0.0
Zn622 Zn 0.51908 0.92844 0.10277 0.0
O623 O 0.49375 0.88722 0.10357 0.0
Zn624 Zn 0.46225 0.87624 0.06567 0.0
Zn625 Zn 0.48007 0.87647 0.15827 0.0
Zn626 Zn 0.51483 0.86837 0.08714 0.0
O627 O 0.46571 0.8553 0.01684 0.0
O628 O 0.50557 0.85375 0.03049 0.0
O629 O 0.50616 0.94773 0.0644 0.0
O630 O 0.4637 0.9119 0.04441 0.0
O631 O 0.42382 0.85471 0.09378 0.0
O632 O 0.43766 0.86181 0.15749 0.0
O633 O 0.48509 0.8432 0.17687 0.0
O634 O 0.55924 0.93811 0.09237 0.0
O635 O 0.50426 0.8349 0.1229 0.0
O636 O 0.55763 0.89572 0.09163 0.0
C637 C 0.51337 0.93767 0.19077 0.0
C638 C 0.48499 0.84902 1.00682 0.0
C639 C 0.41792 0.85301 0.13097 0.0
C640 C 0.48266 0.93861 0.04529 0.0
C641 C 0.4936 0.82809 0.15789 0.0
C642 C 0.57182 0.92325 0.09205 0.0
O643 O 0.49853 0.91055 0.19768 0.0
O644 O -0.00097 0.56758 0.15914 0.0
Zn645 Zn 0.01693 0.58147 0.10502 0.0
O646 O 0.05813 0.59626 0.10425 0.0
Zn647 Zn 0.06815 0.5744 0.06711 0.0
Zn648 Zn 0.06923 0.59391 0.15863 0.0
Zn649 Zn 0.07818 0.63582 0.08637 0.0
O650 O 0.08948 0.59749 0.01761 0.0
O651 O 0.09195 0.63954 0.02945 0.0
O652 O -0.00372 0.54812 0.06833 0.0
O653 O 0.03162 0.54133 0.04622 0.0
O654 O 0.08754 0.5553 0.09577 0.0
O655 O 0.0795 0.56303 0.15875 0.0
O656 O 0.10462 0.63106 0.17494 0.0
O657 O 0.00885 0.6128 0.09181 0.0
O658 O 0.11232 0.65857 0.12129 0.0
O659 O 0.05196 0.65257 0.08953 0.0
C660 C 0.00932 0.57036 0.19415 0.0
C661 C 0.09589 0.62284 1.00636 0.0
C662 C 0.08709 0.55045 0.13314 0.0
C663 C 0.00497 0.53371 0.04827 0.0
C664 C 0.11979 0.65448 0.1557 0.0
C665 C 0.02449 0.64015 0.0895 0.0
O666 O 0.03654 0.58195 0.19937 0.0
O667 O 0.38112 0.42309 0.15724 0.0
Zn668 Zn 0.36533 0.42595 0.10426 0.0
O669 O 0.34977 0.4517 0.1058 0.0
Zn670 Zn 0.36973 0.4833 0.06796 0.0
Zn671 Zn 0.35258 0.4651 0.1607 0.0
Zn672 Zn 0.30998 0.43129 0.08957 0.0
O673 O 0.34523 0.48023 0.01936 0.0
O674 O 0.30442 0.43982 0.03286 0.0
O675 O 0.39765 0.43912 0.06515 0.0
O676 O 0.40315 0.48128 0.04544 0.0
O677 O 0.38691 0.52165 0.09647 0.0
O678 O 0.38056 0.50751 0.16011 0.0
O679 O 0.31456 0.46126 0.17896 0.0
O680 O 0.33407 0.38583 0.09307 0.0
O681 O 0.28775 0.44321 0.12425 0.0
O682 O 0.294 0.38869 0.09463 0.0
C683 C 0.37961 0.43067 0.19276 0.0
C684 C 0.31988 0.46058 0.00929 0.0
C685 C 0.39106 0.52737 0.13373 0.0
C686 C 0.41112 0.46248 0.04531 0.0
C687 C 0.29158 0.45408 0.15907 0.0
C688 C 0.30664 0.37385 0.09337 0.0
O689 O 0.36757 0.44575 0.1999 0.0
O690 O -0.00117 0.42491 0.65934 0.0
Zn691 Zn 0.01575 0.42656 0.60544 0.0
O692 O 0.05724 0.45173 0.60431 0.0
Zn693 Zn 0.06768 0.48246 0.56508 0.0
Zn694 Zn 0.06973 0.46645 0.65829 0.0
Zn695 Zn 0.07551 0.43012 0.58808 0.0
O696 O 0.08813 0.47811 0.51626 0.0
O697 O 0.09014 0.43876 0.53168 0.0
O698 O -0.0041 0.43988 0.56821 0.0
O699 O 0.03174 0.48101 0.54452 0.0
O700 O 0.09031 0.52135 0.59165 0.0
O701 O 0.08558 0.50901 0.65591 0.0
O702 O 0.10275 0.46073 0.67654 0.0
O703 O 0.00527 0.38598 0.59439 0.0
O704 O 0.10906 0.43978 0.62309 0.0
O705 O 0.04766 0.38777 0.59258 0.0
C706 C 0.00923 0.43397 0.69393 0.0
C707 C 0.0947 0.45887 0.50728 0.0
C708 C 0.09375 0.52814 0.62858 0.0
C709 C 0.00491 0.46272 0.54749 0.0
C710 C 0.11684 0.45102 0.6576 0.0
C711 C 0.02017 0.37343 0.59311 0.0
O712 O 0.03651 0.44943 0.69895 0.0
O713 O 0.52082 0.5629 0.65625 0.0
Zn714 Zn 0.51869 0.57782 0.60233 0.0
O715 O 0.49337 0.5941 0.60175 0.0
Zn716 Zn 0.46114 0.57279 0.56492 0.0
Zn717 Zn 0.48042 0.59403 0.65647 0.0
Zn718 Zn 0.51468 0.63302 0.58199 0.0
O719 O 0.46376 0.59574 0.5147 0.0
O720 O 0.50366 0.63741 0.52638 0.0
O721 O 0.50466 0.54461 0.56514 0.0
O722 O 0.46223 0.53809 0.54498 0.0
O723 O 0.42317 0.55728 0.59399 0.0
O724 O 0.43742 0.5684 0.65722 0.0
O725 O 0.48956 0.6344 0.6736 0.0
O726 O 0.55938 0.60751 0.58983 0.0
O727 O 0.50893 0.65887 0.61764 0.0
O728 O 0.55692 0.64742 0.5824 0.0
C729 C 0.51246 0.56495 0.69104 0.0
C730 C 0.48282 0.62104 0.50353 0.0
C731 C 0.41747 0.5561 0.63121 0.0
C732 C 0.48117 0.5303 0.54592 0.0
C733 C 0.50038 0.65774 0.65334 0.0
C734 C 0.57158 0.6347 0.58483 0.0
O735 O 0.4976 0.57742 0.69636 0.0
O736 O 0.38241 0.94647 0.6555 0.0
Zn737 Zn 0.3657 0.92786 0.60313 0.0
O738 O 0.3495 0.88663 0.60453 0.0
Zn739 Zn 0.36957 0.87512 0.56644 0.0
Zn740 Zn 0.35227 0.87584 0.65934 0.0
Zn741 Zn 0.30957 0.86837 0.58854 0.0
O742 O 0.34474 0.85436 0.51787 0.0
O743 O 0.3039 0.85397 0.53182 0.0
O744 O 0.39726 0.94647 0.56362 0.0
O745 O 0.40378 0.91041 0.54425 0.0
O746 O 0.38585 0.85291 0.59447 0.0
O747 O 0.37897 0.85976 0.65835 0.0
O748 O 0.31367 0.84298 0.67833 0.0
O749 O 0.33546 0.93803 0.59316 0.0
O750 O 0.28671 0.83471 0.62385 0.0
O751 O 0.29445 0.89601 0.59367 0.0
C752 C 0.38116 0.93749 0.69095 0.0
C753 C 0.31936 0.84875 0.50804 0.0
C754 C 0.38936 0.85043 0.63168 0.0
C755 C 0.41126 0.93708 0.54408 0.0
C756 C 0.29036 0.82777 0.65883 0.0
C757 C 0.30804 0.92354 0.59353 0.0
O758 O 0.36876 0.9104 0.69824 0.0
O759 O 0.08312 0.34362 0.19067 0.0
Zn760 Zn 0.08597 0.35976 0.24521 0.0
O761 O 0.10961 0.40142 0.24646 0.0
Zn762 Zn 0.14147 0.41318 0.28419 0.0
Zn763 Zn 0.12304 0.41484 0.19204 0.0
Zn764 Zn 0.08648 0.41727 0.26561 0.0
O765 O 0.13703 0.43243 0.33427 0.0
O766 O 0.09654 0.43286 0.32141 0.0
O767 O 0.10221 0.34126 0.27945 0.0
O768 O 0.1426 0.37822 0.30313 0.0
O769 O 0.17949 0.43734 0.25626 0.0
O770 O 0.16612 0.43288 0.19241 0.0
O771 O 0.11342 0.44569 0.17523 0.0
O772 O 0.04526 0.34671 0.25973 0.0
O773 O 0.09122 0.44845 0.22979 0.0
O774 O 0.04462 0.38773 0.26456 0.0
C775 C 0.09126 0.35424 0.15599 0.0
C776 C 0.1173 0.43791 0.34482 0.0
C777 C 0.18571 0.44154 0.21917 0.0
C778 C 0.1255 0.35118 0.29931 0.0
C779 C 0.10093 0.45688 0.19476 0.0
C780 C 0.0315 0.36028 0.26349 0.0
O781 O 0.1063 0.38159 0.15112 0.0
O782 O 0.60183 0.7284 0.19012 0.0
Zn783 Zn 0.58485 0.71237 0.24367 0.0
O784 O 0.54335 0.69491 0.24472 0.0
Zn785 Zn 0.53177 0.7144 0.28377 0.0
Zn786 Zn 0.53088 0.69696 0.19071 0.0
Zn787 Zn 0.52642 0.65512 0.2609 0.0
O788 O 0.5102 0.68871 0.33127 0.0
O789 O 0.51166 0.64881 0.31736 0.0
O790 O 0.60367 0.74443 0.28257 0.0
O791 O 0.56706 0.74821 0.3069 0.0
O792 O 0.51009 0.73151 0.2566 0.0
O793 O 0.51563 0.72426 0.19246 0.0
O794 O 0.49754 0.65827 0.17325 0.0
O795 O 0.59646 0.68311 0.25341 0.0
O796 O 0.49272 0.63114 0.22633 0.0
O797 O 0.55513 0.64146 0.25555 0.0
C798 C 0.59132 0.72559 0.15526 0.0
C799 C 0.50518 0.66348 0.34084 0.0
C800 C 0.50737 0.73531 0.21959 0.0
C801 C 0.59398 0.75701 0.30469 0.0
C802 C 0.48403 0.6346 0.19253 0.0
C803 C 0.58264 0.65567 0.25434 0.0
O804 O 0.56399 0.71242 0.15001 0.0
O805 O 0.21836 0.86415 0.19236 0.0
Zn806 Zn 0.23251 0.86056 0.24646 0.0
O807 O 0.25016 0.83656 0.24599 0.0
Zn808 Zn 0.2305 0.80438 0.28297 0.0
Zn809 Zn 0.24852 0.82315 0.19148 0.0
Zn810 Zn 0.2897 0.85855 0.26382 0.0
O811 O 0.25389 0.8085 0.33286 0.0
O812 O 0.29483 0.84904 0.32053 0.0
O813 O 0.19832 0.84448 0.28255 0.0
O814 O 0.19488 0.80333 0.3027 0.0
O815 O 0.21636 0.76644 0.25488 0.0
O816 O 0.22225 0.78039 0.1913 0.0
O817 O 0.2876 0.82992 0.174 0.0
O818 O 0.26151 0.90077 0.26145 0.0
O819 O 0.31441 0.85019 0.22812 0.0
O820 O 0.30313 0.90091 0.2619 0.0
C821 C 0.22046 0.85609 0.15737 0.0
C822 C 0.27888 0.82828 0.34386 0.0
C823 C 0.2124 0.76054 0.21772 0.0
C824 C 0.18516 0.8207 0.3015 0.0
C825 C 0.31127 0.83959 0.19316 0.0
C826 C 0.28895 0.91424 0.26349 0.0
O827 O 0.2326 0.84096 0.15179 0.0
C828 C 0.15462 0.04272 0.05122 0.0
C829 C 0.17597 0.06957 0.03612 0.0
C830 C 0.15215 0.01682 0.03681 0.0
C831 C 0.17118 0.01726 1.00731 0.0
H832 H 0.13943 0.04173 0.0735 0.0
H833 H 0.13488 -0.00356 0.04801 0.0
S834 S 0.23398 0.08243 0.96386 0.0
N835 N 0.21844 0.09518 0.99381 0.0
N836 N 0.2142 0.04695 0.96738 0.0
C837 C 0.19357 0.04414 0.99382 0.0
C838 C 0.19585 0.07022 0.00806 0.0
C839 C 0.9247 0.13456 0.04722 0.0
C840 C 0.932 0.13609 1.00661 0.0
C841 C 0.89896 0.11123 0.06185 0.0
C842 C 0.87993 0.08875 0.03627 0.0
H843 H 0.93803 0.15224 0.06723 0.0
H844 H 0.89314 0.11177 0.09274 0.0
S845 S 0.89271 0.07996 0.92943 0.0
N846 N 0.92066 0.11129 0.94253 0.0
N847 N 0.87258 0.0674 0.96997 0.0
C848 C 0.88845 0.08891 0.99647 0.0
C849 C 0.91442 0.11263 0.98162 0.0
C850 C 0.82939 0.78662 0.98284 0.0
C851 C 0.80731 0.78437 0.00802 0.0
C852 C 0.85236 0.7841 0.99787 0.0
C853 C 0.85407 0.77889 0.03872 0.0
H854 H 0.82851 0.78951 0.95091 0.0
H855 H 0.86821 0.78498 0.97683 0.0
S856 S 0.80319 0.77442 0.11792 0.0
N857 N 0.78973 0.77939 0.07621 0.0
N858 N 0.83291 0.7742 0.10481 0.0
C859 C 0.83313 0.77854 0.06476 0.0
C860 C 0.80971 0.78137 0.04931 0.0
C861 C 0.00701 0.16478 0.47889 0.0
C862 C 0.00713 0.18344 0.50874 0.0
C863 C 0.03309 0.16773 0.46442 0.0
C864 C 0.05976 0.18922 0.47977 0.0
H865 H -0.01325 0.14735 0.4676 0.0
H866 H 0.03237 0.15271 0.44204 0.0
S867 S 0.07174 0.2465 0.55286 0.0
N868 N 0.03631 0.22637 0.54915 0.0
N869 N 0.08487 0.23149 0.52257 0.0
C870 C 0.06008 0.20883 0.50803 0.0
C871 C 0.03384 0.20605 0.52236 0.0
C872 C 0.77395 0.86532 0.51816 0.0
C873 C 0.76938 0.86758 0.47725 0.0
C874 C 0.77669 0.84236 0.5328 0.0
C875 C 0.77522 0.82082 0.50713 0.0
H876 H 0.7742 0.88074 0.53947 0.0
H877 H 0.77912 0.84104 0.56476 0.0
S878 S 0.76665 0.81811 0.39699 0.0
N879 N 0.76585 0.84742 0.41069 0.0
N880 N 0.77134 0.80426 0.43851 0.0
C881 C 0.7727 0.82376 0.46584 0.0
C882 C 0.76972 0.84717 0.45081 0.0
C883 C 0.08031 0.89656 0.51661 0.0
C884 C 0.07869 0.88968 0.47576 0.0
C885 C 0.10294 0.92229 0.53163 0.0
C886 C 0.12479 0.94239 0.50643 0.0
H887 H 0.06465 0.8814 0.53766 0.0
H888 H 0.10377 0.92601 0.56358 0.0
S889 S 0.12887 0.93675 0.39647 0.0
N890 N 0.09957 0.90648 0.40961 0.0
N891 N 0.14214 0.95526 0.4382 0.0
C892 C 0.12242 0.93699 0.46512 0.0
C893 C 0.09933 0.91053 0.44969 0.0
C894 C 0.77828 0.92342 0.02986 0.0
C895 C 0.77634 0.94344 1.00473 0.0
C896 C 0.77549 0.89782 0.01471 0.0
C897 C 0.77032 0.89103 0.97383 0.0
H898 H 0.78091 0.92702 0.06184 0.0
H899 H 0.7759 0.88258 0.0357 0.0
S900 S 0.76738 0.93824 0.89464 0.0
N901 N 0.77225 0.95656 0.93648 0.0
N902 N 0.76659 0.90802 0.90769 0.0
C903 C 0.77066 0.91196 0.9478 0.0
C904 C 0.77373 0.93828 0.96335 0.0
C905 C 0.04733 0.86838 0.01866 0.0
C906 C 0.05378 0.87081 0.9776 0.0
C907 C 0.02147 0.84574 0.03337 0.0
C908 C 0.00086 0.82474 1.00765 0.0
H909 H 0.06303 0.8831 0.04003 0.0
H910 H 0.01818 0.84403 0.06544 0.0
S911 S 0.00474 0.82401 0.89706 0.0
N912 N 0.03559 0.85239 0.91078 0.0
N913 N -0.01327 0.80976 0.93882 0.0
C914 C 0.00566 0.82835 0.96625 0.0
C915 C 0.03219 0.85144 0.95112 0.0
C916 C 0.10096 0.16831 0.03645 0.0
C917 C 0.12221 0.16866 0.0113 0.0
C918 C 0.07839 0.17139 0.02105 0.0
C919 C 0.07626 0.17521 0.97984 0.0
H920 H 0.1023 0.16667 0.06858 0.0
H921 H 0.06329 0.17215 0.04198 0.0
S922 S 0.12454 0.17405 0.9007 0.0
N923 N 0.13825 0.17011 0.94286 0.0
N924 N 0.0958 0.17618 0.91361 0.0
C925 C 0.09617 0.17343 0.95396 0.0
C926 C 0.11918 0.17011 0.96978 0.0
C927 C 0.92657 0.78237 0.54802 0.0
C928 C 0.93411 0.78942 0.50771 0.0
C929 C 0.90066 0.77931 0.56302 0.0
C930 C 0.88171 0.78337 0.53811 0.0
H931 H 0.93967 0.77722 0.56729 0.0
H932 H 0.89455 0.77175 0.59344 0.0
S933 S 0.89543 0.80883 0.43294 0.0
N934 N 0.92337 0.80513 0.44509 0.0
N935 N 0.87491 0.79978 0.47327 0.0
C936 C 0.89064 0.79335 0.49893 0.0
C937 C 0.9168 0.79625 0.48369 0.0
C938 C 0.16414 0.1086 0.56507 0.0
C939 C 0.16094 0.086 0.53991 0.0
C940 C 0.16104 0.13142 0.55004 0.0
C941 C 0.15479 0.13227 0.50947 0.0
H942 H 0.17109 0.1098 0.59577 0.0
H943 H 0.16559 0.14942 0.56954 0.0
S944 S 0.13779 0.07526 0.43369 0.0
N945 N 0.14615 0.06349 0.47434 0.0
N946 N 0.14077 0.10656 0.44614 0.0
C947 C 0.14879 0.1085 0.4851 0.0
C948 C 0.15171 0.08526 0.50035 0.0
C949 C 0.83778 0.0453 0.56029 0.0
C950 C 0.85957 0.06556 0.53491 0.0
C951 C 0.81474 0.01966 0.54501 0.0
C952 C 0.8127 0.01361 0.5039 0.0
H953 H 0.83747 0.05001 0.59172 0.0
H954 H 0.79758 0.00542 0.56511 0.0
S955 S 0.86713 0.05633 0.42636 0.0
N956 N 0.87992 0.07537 0.46777 0.0
N957 N 0.83644 0.02743 0.43915 0.0
C958 C 0.83554 0.03239 0.47886 0.0
C959 C 0.85906 0.0583 0.49437 0.0
C960 C 0.83199 0.37867 0.39191 0.0
C961 C 0.83208 0.39941 0.36576 0.0
C962 C 0.82941 0.35286 0.37725 0.0
C963 C 0.82704 0.34713 0.33603 0.0
H964 H 0.83554 0.38303 0.42364 0.0
H965 H 0.83092 0.33813 0.39806 0.0
S966 S 0.82036 0.39147 0.25596 0.0
N967 N 0.82514 0.41024 0.29729 0.0
N968 N 0.82072 0.36201 0.26991 0.0
C969 C 0.82482 0.36655 0.30998 0.0
C970 C 0.82719 0.39262 0.32482 0.0
C971 C 0.59716 0.45701 0.37018 0.0
C972 C 0.59627 0.47767 0.34498 0.0
C973 C 0.57147 0.43339 0.38468 0.0
C974 C 0.54448 0.42994 0.37398 0.0
H975 H 0.61763 0.45847 0.37734 0.0
H976 H 0.57266 0.4173 0.40302 0.0
S977 S 0.53104 0.48096 0.31524 0.0
N978 N 0.56647 0.49517 0.31471 0.0
N979 N 0.51853 0.45092 0.34148 0.0
C980 C 0.54356 0.45143 0.35097 0.0
C981 C 0.56942 0.47531 0.33657 0.0
C982 C 0.47881 0.11525 0.3817 0.0
C983 C 0.47677 0.12005 0.34089 0.0
C984 C 0.50224 0.11302 0.39633 0.0
C985 C 0.52438 0.11573 0.37058 0.0
H986 H 0.46142 0.11144 0.40195 0.0
H987 H 0.50198 0.10734 0.42747 0.0
S988 S 0.53181 0.13479 0.26283 0.0
N989 N 0.50071 0.13188 0.2762 0.0
N990 N 0.54488 0.12814 0.30361 0.0
C991 C 0.52378 0.12326 0.33045 0.0
C992 C 0.49989 0.12525 0.3156 0.0
C993 C 0.70153 0.51195 0.78758 0.0
C994 C 0.72136 0.5098 0.8131 0.0
C995 C 0.67554 0.50882 0.80246 0.0
C996 C 0.66872 0.50359 0.84328 0.0
H997 H 0.70681 0.51773 0.75644 0.0
H998 H 0.66155 0.51214 0.78237 0.0
S999 S 0.71042 0.49026 0.92069 0.0
N1000 N 0.7302 0.49774 0.87981 0.0
N1001 N 0.6816 0.49215 0.90768 0.0
C1002 C 0.68723 0.49911 0.86833 0.0
C1003 C 0.71349 0.50211 0.85325 0.0
C1004 C 0.43718 0.15714 0.8046 0.0
C1005 C 0.44221 0.15538 0.84543 0.0
C1006 C 0.43385 0.17991 0.78994 0.0
C1007 C 0.43561 0.20164 0.8157 0.0
H1008 H 0.43409 0.13998 0.78434 0.0
H1009 H 0.42817 0.17949 0.75878 0.0
S1010 S 0.45457 0.20978 0.92348 0.0
N1011 N 0.45309 0.1793 0.91015 0.0
N1012 N 0.44715 0.22219 0.88267 0.0
C1013 C 0.44317 0.20134 0.85587 0.0
C1014 C 0.44636 0.17816 0.87074 0.0
C1015 C 0.74837 0.23046 0.85243 0.0
C1016 C 0.7459 0.22413 0.81132 0.0
C1017 C 0.7712 0.25609 0.86738 0.0
C1018 C 0.79244 0.27664 0.84189 0.0
H1019 H 0.7332 0.21499 0.87364 0.0
H1020 H 0.77261 0.25942 0.89945 0.0
S1021 S 0.79428 0.27235 0.7314 0.0
N1022 N 0.76537 0.24183 0.74481 0.0
N1023 N 0.80833 0.29037 0.77325 0.0
C1024 C 0.78926 0.2717 0.80047 0.0
C1025 C 0.76596 0.24535 0.7851 0.0
C1026 C 0.4453 0.23176 0.35069 0.0
C1027 C 0.43916 0.22462 0.31004 0.0
C1028 C 0.4491 0.25779 0.36569 0.0
C1029 C 0.44718 0.27785 0.3406 0.0
H1030 H 0.44563 0.21647 0.37166 0.0
H1031 H 0.45224 0.26163 0.39759 0.0
S1032 S 0.43616 0.27183 0.2309 0.0
N1033 N 0.43481 0.24136 0.244 0.0
N1034 N 0.44226 0.29065 0.27253 0.0
C1035 C 0.44377 0.27235 0.29935 0.0
C1036 C 0.43971 0.24562 0.28395 0.0
C1037 C 0.67284 0.16685 0.31234 0.0
C1038 C 0.6731 0.14761 0.34089 0.0
C1039 C 0.69887 0.18996 0.29773 0.0
C1040 C 0.72561 0.19441 0.31169 0.0
H1041 H 0.65254 0.16453 0.30214 0.0
H1042 H 0.69809 0.20477 0.27633 0.0
S1043 S 0.73782 0.14722 0.38083 0.0
N1044 N 0.70239 0.13251 0.37844 0.0
N1045 N 0.75085 0.1759 0.35163 0.0
C1046 C 0.72602 0.17447 0.33862 0.0
C1047 C 0.69984 0.15105 0.35307 0.0
C1048 C 0.76461 0.50926 0.28517 0.0
C1049 C 0.74156 0.50543 0.30985 0.0
C1050 C 0.7876 0.50662 0.30064 0.0
C1051 C 0.7882 0.50022 0.34122 0.0
H1052 H 0.76597 0.5163 0.25449 0.0
H1053 H 0.8058 0.51149 0.28142 0.0
S1054 S 0.73007 0.4817 0.41576 0.0
N1055 N 0.7185 0.49005 0.37492 0.0
N1056 N 0.76176 0.48536 0.40399 0.0
C1057 C 0.76405 0.49368 0.36512 0.0
C1058 C 0.74067 0.49619 0.34941 0.0
C1059 C 0.58049 0.12579 0.81828 0.0
C1060 C 0.59996 0.1227 0.84316 0.0
C1061 C 0.55482 0.12284 0.83336 0.0
C1062 C 0.54749 0.11645 0.87389 0.0
H1063 H 0.58451 0.12934 0.78646 0.0
H1064 H 0.53994 0.12408 0.81254 0.0
S1065 S 0.59319 0.11027 0.95257 0.0
N1066 N 0.612 0.11622 0.91098 0.0
N1067 N 0.5634 0.11039 0.93967 0.0
C1068 C 0.56792 0.11572 0.89983 0.0
C1069 C 0.59427 0.11889 0.88435 0.0
C1070 C 0.82877 0.4659 0.88161 0.0
C1071 C 0.82259 0.4668 0.84102 0.0
C1072 C 0.83163 0.44294 0.8967 0.0
C1073 C 0.82827 0.42024 0.87161 0.0
H1074 H 0.83331 0.48388 0.90114 0.0
H1075 H 0.83845 0.44405 0.92746 0.0
S1076 S 0.8054 0.40962 0.76533 0.0
N1077 N 0.8085 0.44098 0.7777 0.0
N1078 N 0.81366 0.39782 0.80603 0.0
C1079 C 0.81929 0.41964 0.83198 0.0
C1080 C 0.81652 0.44296 0.81667 0.0
C1081 C 0.50224 0.37827 0.89526 0.0
C1082 C 0.52463 0.39764 0.86984 0.0
C1083 C 0.47926 0.35242 0.88044 0.0
C1084 C 0.47798 0.34528 0.83979 0.0
H1085 H 0.50139 0.38395 0.92612 0.0
H1086 H 0.46155 0.33894 0.9003 0.0
S1087 S 0.53432 0.38527 0.76319 0.0
N1088 N 0.54643 0.4054 0.80381 0.0
N1089 N 0.50314 0.35698 0.77598 0.0
C1090 C 0.5015 0.36308 0.81505 0.0
C1091 C 0.5249 0.38923 0.8301 0.0
C1092 C 0.48919 0.71082 0.71613 0.0
C1093 C 0.51031 0.73754 0.70038 0.0
C1094 C 0.48625 0.68476 0.70156 0.0
C1095 C 0.50456 0.68486 0.67117 0.0
H1096 H 0.47453 0.71005 0.73913 0.0
H1097 H 0.46921 0.66449 0.71344 0.0
S1098 S 0.56654 0.74959 0.62539 0.0
N1099 N 0.5518 0.76267 0.65624 0.0
N1100 N 0.54669 0.71415 0.62947 0.0
C1101 C 0.52669 0.71162 0.65685 0.0
C1102 C 0.52946 0.73786 0.6713 0.0
C1103 C 0.23291 0.77794 0.73178 0.0
C1104 C 0.21411 0.7549 0.70679 0.0
C1105 C 0.25881 0.80089 0.71687 0.0
C1106 C 0.26648 0.80145 0.67658 0.0
H1107 H 0.22674 0.77924 0.76223 0.0
H1108 H 0.2719 0.8191 0.73624 0.0
S1109 S 0.22797 0.74353 0.60144 0.0
N1110 N 0.20744 0.73193 0.64174 0.0
N1111 N 0.25581 0.77515 0.61378 0.0
C1112 C 0.24919 0.77739 0.6524 0.0
C1113 C 0.22307 0.75404 0.66753 0.0
C1114 C 0.16372 0.4525 0.64964 0.0
C1115 C 0.14277 0.4523 0.6753 0.0
C1116 C 0.18658 0.44968 0.66447 0.0
C1117 C 0.18938 0.44626 0.70562 0.0
H1118 H 0.162 0.45398 0.61755 0.0
H1119 H 0.20147 0.44893 0.64313 0.0
S1120 S 0.14191 0.44762 0.78589 0.0
N1121 N 0.12756 0.45118 0.74408 0.0
N1122 N 0.17057 0.44556 0.7723 0.0
C1123 C 0.16965 0.44799 0.73196 0.0
C1124 C 0.14632 0.45106 0.71671 0.0
C1125 C 0.35645 0.83771 0.20055 0.0
C1126 C 0.33597 0.83859 0.17518 0.0
C1127 C 0.38193 0.84023 0.18543 0.0
C1128 C 0.38819 0.84407 0.14429 0.0
H1129 H 0.35318 0.83583 0.23263 0.0
H1130 H 0.3974 0.84042 0.20656 0.0
S1131 S 0.33998 0.84461 0.06468 0.0
N1132 N 0.32212 0.84082 0.10663 0.0
N1133 N 0.37043 0.84597 0.0779 0.0
C1134 C 0.36699 0.84306 0.11819 0.0
C1135 C 0.34078 0.84026 0.13373 0.0
C1136 C 0.11183 0.52092 0.13185 0.0
C1137 C 0.0904 0.5262 0.14722 0.0
C1138 C 0.11497 0.49798 0.14665 0.0
C1139 C 0.09655 0.47966 0.17686 0.0
H1140 H 0.1266 0.53494 0.10908 0.0
H1141 H 0.13226 0.49501 0.13508 0.0
S1142 S 0.03388 0.4818 0.2216 0.0
N1143 N 0.04857 0.50955 0.19073 0.0
N1144 N 0.05403 0.46648 0.21797 0.0
C1145 C 0.07411 0.484 0.19074 0.0
C1146 C 0.07115 0.50728 0.17605 0.0
C1147 C 0.45576 0.60307 0.13526 0.0
C1148 C 0.45761 0.61016 0.17599 0.0
C1149 C 0.43288 0.57691 0.12093 0.0
C1150 C 0.41118 0.55725 0.14694 0.0
H1151 H 0.47294 0.61691 0.11491 0.0
H1152 H 0.4332 0.57134 0.08986 0.0
S1153 S 0.40336 0.56914 0.25451 0.0
N1154 N 0.4339 0.59787 0.24081 0.0
N1155 N 0.39075 0.549 0.21397 0.0
C1156 C 0.41157 0.56551 0.18696 0.0
C1157 C 0.43487 0.5919 0.20149 0.0
C1158 C 0.11362 0.59131 0.69675 0.0
C1159 C 0.11061 0.61087 0.672 0.0
C1160 C 0.11057 0.56564 0.68151 0.0
C1161 C 0.10402 0.55832 0.64096 0.0
H1162 H 0.11724 0.59531 0.72857 0.0
H1163 H 0.11182 0.55074 0.70227 0.0
S1164 S 0.09805 0.60433 0.5626 0.0
N1165 N 0.10415 0.62311 0.60428 0.0
N1166 N 0.09796 0.5744 0.57533 0.0
C1167 C 0.10334 0.57884 0.61516 0.0
C1168 C 0.10671 0.60524 0.63079 0.0
C1169 C 0.36789 0.51375 0.62055 0.0
C1170 C 0.38762 0.53645 0.6453 0.0
C1171 C 0.34213 0.491 0.63608 0.0
C1172 C 0.33545 0.49019 0.67683 0.0
H1173 H 0.37314 0.51252 0.5896 0.0
H1174 H 0.32836 0.4731 0.61666 0.0
S1175 S 0.37652 0.54727 0.7521 0.0
N1176 N 0.39616 0.55893 0.71101 0.0
N1177 N 0.34804 0.516 0.74013 0.0
C1178 C 0.35365 0.51394 0.70098 0.0
C1179 C 0.37966 0.53715 0.68521 0.0
C1180 C 0.45453 0.84031 0.63468 0.0
C1181 C 0.45511 0.8335 0.67509 0.0
C1182 C 0.43178 0.84357 0.61966 0.0
C1183 C 0.40898 0.83999 0.64466 0.0
H1184 H 0.47264 0.8451 0.61529 0.0
H1185 H 0.43315 0.85086 0.58912 0.0
S1186 S 0.39749 0.81547 0.75025 0.0
N1187 N 0.42889 0.81862 0.73799 0.0
N1188 N 0.38606 0.82441 0.70981 0.0
C1189 C 0.40803 0.83035 0.68402 0.0
C1190 C 0.43116 0.82721 0.69926 0.0
C1191 C 0.23507 0.44887 0.23175 0.0
C1192 C 0.21585 0.45216 0.20633 0.0
C1193 C 0.26088 0.45154 0.21699 0.0
C1194 C 0.26811 0.45746 0.17642 0.0
H1195 H 0.22925 0.44214 0.26251 0.0
H1196 H 0.27415 0.44695 0.23678 0.0
S1197 S 0.22877 0.47476 0.09994 0.0
N1198 N 0.20854 0.46677 0.14046 0.0
N1199 N 0.25684 0.47149 0.11276 0.0
C1200 C 0.25059 0.46364 0.15176 0.0
C1201 C 0.2245 0.46111 0.16674 0.0
C1202 C 0.49179 0.75697 0.16639 0.0
C1203 C 0.49778 0.75576 0.20705 0.0
C1204 C 0.48899 0.77978 0.15132 0.0
C1205 C 0.49175 0.80217 0.17632 0.0
H1206 H 0.49066 0.74093 0.14547 0.0
H1207 H 0.48567 0.78039 0.11946 0.0
S1208 S 0.50336 0.80733 0.28593 0.0
N1209 N 0.50338 0.77749 0.27293 0.0
N1210 N 0.49772 0.82038 0.2443 0.0
C1211 C 0.49531 0.80012 0.21755 0.0
C1212 C 0.49839 0.77687 0.23302 0.0
C1213 C 0.19056 0.72415 0.16345 0.0
C1214 C 0.19263 0.73053 0.20452 0.0
C1215 C 0.16771 0.6986 0.14831 0.0
C1216 C 0.14617 0.67826 0.17364 0.0
H1217 H 0.2058 0.73971 0.14238 0.0
H1218 H 0.1663 0.69535 0.11623 0.0
S1219 S 0.14393 0.68227 0.28414 0.0
N1220 N 0.17299 0.71272 0.27093 0.0
N1221 N 0.13002 0.66436 0.24218 0.0
C1222 C 0.14931 0.68299 0.21511 0.0
C1223 C 0.17259 0.70922 0.23065 0.0
C1224 C 0.30887 0.17223 0.16231 0.0
C1225 C 0.27976 0.15098 0.15679 0.0
C1226 C 0.32847 0.16542 0.17984 0.0
C1227 C 0.31968 0.13709 0.1925 0.0
H1228 H 0.31663 0.1944 0.1533 0.0
H1229 H 0.35056 0.18265 0.18404 0.0
S1230 S 0.24622 0.07301 0.18239 0.0
N1231 N 0.24334 0.10006 0.16378 0.0
N1232 N 0.28019 0.0873 0.19667 0.0
C1233 C 0.29072 0.11549 0.18656 0.0
C1234 C 0.27075 0.12242 0.16877 0.0
C1235 C 0.7797 0.13208 0.14574 0.0
C1236 C 0.79361 0.1166 0.15643 0.0
C1237 C 0.78696 0.15835 0.16414 0.0
C1238 C 0.80838 0.17009 0.1939 0.0
H1239 H 0.76336 0.12413 0.12255 0.0
H1240 H 0.77578 0.16959 0.15472 0.0
S1241 S 0.84982 0.1369 0.23467 0.0
N1242 N 0.82883 0.11412 0.19998 0.0
N1243 N 0.84254 0.16351 0.23457 0.0
C1244 C 0.82218 0.15459 0.20531 0.0
C1245 C 0.81476 0.12783 0.1866 0.0
C1246 C 0.78799 0.65204 0.19527 0.0
C1247 C 0.77505 0.62213 0.18838 0.0
C1248 C 0.81424 0.67146 0.17756 0.0
C1249 C 0.82868 0.66183 0.15215 0.0
H1250 H 0.77793 0.66067 0.21479 0.0
H1251 H 0.8232 0.69426 0.18392 0.0
S1252 S 0.80372 0.58564 0.12361 0.0
N1253 N 0.77844 0.58369 0.15398 0.0
N1254 N 0.82797 0.62033 0.1205 0.0
C1255 C 0.81605 0.63195 0.1449 0.0
C1256 C 0.78919 0.61208 0.16301 0.0
C1257 C 0.15345 0.34006 0.34871 0.0
C1258 C 0.1332 0.33082 0.31744 0.0
C1259 C 0.16059 0.32094 0.367 0.0
C1260 C 0.14772 0.29194 0.35463 0.0
H1261 H 0.16343 0.36205 0.35977 0.0
H1262 H 0.17565 0.32878 0.39179 0.0
S1263 S 0.09613 0.25793 0.27071 0.0
N1264 N 0.10225 0.29142 0.27251 0.0
N1265 N 0.1157 0.25549 0.307 0.0
C1266 C 0.12829 0.2827 0.32236 0.0
C1267 C 0.12099 0.30214 0.30376 0.0
C1268 C 0.60565 0.80281 0.33953 0.0
C1269 C 0.61457 0.78352 0.32613 0.0
C1270 C 0.62517 0.82906 0.35745 0.0
C1271 C 0.65433 0.837 0.36268 0.0
H1272 H 0.58354 0.79794 0.33543 0.0
H1273 H 0.61734 0.84336 0.36684 0.0
S1274 S 0.68806 0.79291 0.33586 0.0
N1275 N 0.65411 0.7733 0.32138 0.0
N1276 N 0.69086 0.82265 0.35513 0.0
C1277 C 0.66342 0.81758 0.35025 0.0
C1278 C 0.64352 0.79084 0.332 0.0
C1279 C 0.1437 0.82879 0.31325 0.0
C1280 C 0.15737 0.81261 0.32107 0.0
C1281 C 0.11724 0.82156 0.33079 0.0
C1282 C 0.10336 0.79786 0.35689 0.0
H1283 H 0.15343 0.84723 0.29331 0.0
H1284 H 0.10773 0.83485 0.32396 0.0
S1285 S 0.13017 0.74853 0.3876 0.0
N1286 N 0.15509 0.77175 0.35681 0.0
N1287 N 0.10525 0.75814 0.38988 0.0
C1288 C 0.11661 0.78126 0.36476 0.0
C1289 C 0.14365 0.78866 0.34689 0.0
C1290 C 0.6614 0.82803 0.8328 0.0
C1291 C 0.65199 0.8063 0.86206 0.0
C1292 C 0.64234 0.83584 0.81597 0.0
C1293 C 0.6132 0.82219 0.82782 0.0
H1294 H 0.68356 0.83884 0.82232 0.0
H1295 H 0.65038 0.85215 0.79273 0.0
S1296 S 0.57851 0.76634 0.90669 0.0
N1297 N 0.61212 0.77284 0.90453 0.0
N1298 N 0.5763 0.78756 0.87274 0.0
C1299 C 0.60369 0.80109 0.85798 0.0
C1300 C 0.62308 0.79311 0.87512 0.0
C1301 C 0.11034 0.79643 0.81543 0.0
C1302 C 0.12375 0.78073 0.8274 0.0
C1303 C 0.11756 0.82283 0.83329 0.0
C1304 C 0.13847 0.83445 0.8637 0.0
H1305 H 0.09466 0.78868 0.79138 0.0
H1306 H 0.10703 0.83443 0.82269 0.0
S1307 S 0.17745 0.80017 0.909 0.0
N1308 N 0.15723 0.77751 0.87364 0.0
N1309 N 0.17085 0.82723 0.90728 0.0
C1310 C 0.1514 0.81854 0.87685 0.0
C1311 C 0.144 0.79163 0.8587 0.0
C1312 C 0.12057 0.3197 0.86504 0.0
C1313 C 0.10668 0.29 0.85606 0.0
C1314 C 0.14701 0.33911 0.84761 0.0
C1315 C 0.16063 0.32963 0.82048 0.0
H1316 H 0.11123 0.3281 0.8862 0.0
H1317 H 0.1569 0.36173 0.85575 0.0
S1318 S 0.13238 0.25424 0.78495 0.0
N1319 N 0.10788 0.2521 0.817 0.0
N1320 N 0.15769 0.28866 0.78408 0.0
C1321 C 0.14682 0.30001 0.81076 0.0
C1322 C 0.11982 0.28019 0.82854 0.0
C1323 C 0.81599 0.6717 0.67877 0.0
C1324 C 0.79344 0.66211 0.65072 0.0
C1325 C 0.82302 0.65242 0.69672 0.0
C1326 C 0.80775 0.62279 0.68733 0.0
H1327 H 0.82823 0.69428 0.68728 0.0
H1328 H 0.84023 0.66079 0.71866 0.0
S1329 S 0.74815 0.58689 0.61363 0.0
N1330 N 0.75672 0.62117 0.6129 0.0
N1331 N 0.76997 0.58489 0.64673 0.0
C1332 C 0.78546 0.61292 0.65881 0.0
C1333 C 0.77828 0.63258 0.64051 0.0
C1334 C 0.27183 0.13678 0.67111 0.0
C1335 C 0.28036 0.11693 0.65888 0.0
C1336 C 0.29148 0.16302 0.68898 0.0
C1337 C 0.3204 0.17042 0.69534 0.0
H1338 H 0.24991 0.13229 0.66631 0.0
H1339 H 0.2839 0.17767 0.69759 0.0
S1340 S 0.35314 0.12498 0.67124 0.0
N1341 N 0.31933 0.10579 0.65604 0.0
N1342 N 0.3563 0.15511 0.68964 0.0
C1343 C 0.32912 0.15054 0.68383 0.0
C1344 C 0.30909 0.1238 0.66563 0.0
C1345 C 0.81595 0.1686 0.6594 0.0
C1346 C 0.82478 0.14784 0.65714 0.0
C1347 C 0.78953 0.16198 0.67649 0.0
C1348 C 0.77085 0.13433 0.69211 0.0
H1349 H 0.82954 0.19027 0.64793 0.0
H1350 H 0.78396 0.17889 0.67782 0.0
S1351 S 0.78327 0.07175 0.69242 0.0
N1352 N 0.8124 0.09815 0.67118 0.0
N1353 N 0.76263 0.08569 0.70339 0.0
C1354 C 0.77922 0.1132 0.68978 0.0
C1355 C 0.80621 0.11996 0.67234 0.0
C1356 C -0.02607 0.49825 0.48171 0.0
C1357 C 0.94439 0.48327 0.49157 0.0
C1358 C -0.00676 0.4912 0.49961 0.0
C1359 C -0.01624 0.46893 0.5281 0.0
H1360 H -0.01777 0.51532 0.45956 0.0
H1361 H 0.01577 0.5033 0.49085 0.0
S1362 S 0.90875 0.4244 0.56633 0.0
N1363 N 0.90668 0.446 0.53293 0.0
N1364 N 0.94294 0.4327 0.56664 0.0
C1365 C 0.95428 0.45398 0.53863 0.0
C1366 C 0.93461 0.46118 0.52038 0.0
C1367 C 0.44649 0.48296 0.51518 0.0
C1368 C 0.47506 0.50323 0.52595 0.0
C1369 C 0.43981 0.45657 0.49775 0.0
C1370 C 0.46145 0.44947 0.49048 0.0
H1371 H 0.429 0.48727 0.52071 0.0
H1372 H 0.41749 0.44158 0.49014 0.0
S1373 S 0.54002 0.49597 0.51052 0.0
N1374 N 0.52539 0.51504 0.5264 0.0
N1375 N 0.51288 0.46541 0.49359 0.0
C1376 C 0.49021 0.46971 0.5006 0.0
C1377 C 0.497 0.49661 0.51831 0.0
C1378 C 0.48408 0.96907 0.49339 0.0
C1379 C 0.49144 -0.00201 0.48715 0.0
C1380 C 0.45779 0.94937 0.51099 0.0
C1381 C 0.43787 0.95784 0.523 0.0
H1382 H 0.49884 0.96158 0.48502 0.0
H1383 H 0.45337 0.92747 0.51586 0.0
S1384 S 0.44578 0.03059 0.51034 0.0
N1385 N 0.47602 0.03383 0.49233 0.0
N1386 N 0.42656 -0.00325 0.52545 0.0
C1387 C 0.44466 -0.01344 0.51614 0.0
C1388 C 0.47147 0.00665 0.49825 0.0
C1389 C 0.45389 0.94995 0.99775 0.0
C1390 C 0.47638 0.9596 0.02586 0.0
C1391 C 0.4466 0.96914 0.98013 0.0
C1392 C 0.46151 -0.00131 0.99 0.0
H1393 H 0.44182 0.92739 0.98911 0.0
H1394 H 0.42934 0.96072 0.95824 0.0
S1395 S 0.52103 0.03467 0.06387 0.0
N1396 N 0.51284 0.0005 0.06405 0.0
N1397 N 0.49908 0.03659 0.03093 0.0
C1398 C 0.48386 0.00863 0.01845 0.0
C1399 C 0.49134 -0.01091 0.03634 0.0
C1400 C -0.02593 0.46726 0.98287 0.0
C1401 C 0.94452 0.45275 0.99264 0.0
C1402 C -0.00672 0.49368 1.00049 0.0
C1403 C -0.01628 0.50662 0.02864 0.0
H1404 H -0.01749 0.45836 0.96106 0.0
H1405 H 0.01584 0.50399 0.9919 0.0
S1406 S 0.90854 0.47685 0.06576 0.0
N1407 N 0.90657 0.45283 0.03297 0.0
N1408 N 0.94278 0.50263 0.06627 0.0
C1409 C 0.95419 0.49234 0.03882 0.0
C1410 C 0.93458 0.46536 0.02082 0.0
C1411 C 0.45276 0.45451 0.03444 0.0
C1412 C 0.43765 0.46878 0.02364 0.0
C1413 C 0.47903 0.46151 0.0163 0.0
C1414 C 0.49112 0.48303 0.98674 0.0
H1415 H 0.4446 0.43822 0.0577 0.0
H1416 H 0.4901 0.4502 0.02593 0.0
S1417 S 0.45862 0.52479 0.94496 0.0
N1418 N 0.43564 0.50406 0.97966 0.0
N1419 N 0.48504 0.51723 0.94549 0.0
C1420 C 0.47586 0.49698 0.97492 0.0
C1421 C 0.4491 0.48983 0.99337 0.0
C1422 C 0.30845 0.21587 0.96418 0.0
C1423 C 0.2786 0.20474 0.95787 0.0
C1424 C 0.32824 0.2254 0.93226 0.0
C1425 C 0.31915 0.22435 0.8925 0.0
H1426 H 0.31672 0.21714 0.99411 0.0
H1427 H 0.35087 0.23364 0.93894 0.0
S1428 S 0.24339 0.19813 0.8597 0.0
N1429 N 0.24106 0.19387 0.90865 0.0
N1430 N 0.27793 0.21176 0.84887 0.0
C1431 C 0.28931 0.21343 0.88578 0.0
C1432 C 0.26917 0.20364 0.91831 0.0
C1433 C 0.72726 0.08038 0.96143 0.0
C1434 C 0.74252 0.06551 0.95435 0.0
C1435 C 0.71706 0.09026 0.92989 0.0
C1436 C 0.72144 0.08559 0.88974 0.0
H1437 H 0.72303 0.08447 0.9917 0.0
H1438 H 0.70535 0.10139 0.93718 0.0
S1439 S 0.76067 0.04838 0.85457 0.0
N1440 N 0.76188 0.04709 0.90376 0.0
N1441 N 0.74281 0.06548 0.84467 0.0
C1442 C 0.7369 0.07095 0.88216 0.0
C1443 C 0.7474 0.06101 0.91432 0.0
C1444 C 0.85554 0.6177 0.92806 0.0
C1445 C 0.85886 0.62663 0.88792 0.0
C1446 C 0.86578 0.63783 0.95952 0.0
C1447 C 0.87972 0.66793 0.95246 0.0
H1448 H 0.84526 0.59493 0.93539 0.0
H1449 H 0.86274 0.62957 0.98975 0.0
S1450 S 0.89299 0.70288 0.85281 0.0
N1451 N 0.87655 0.66794 0.8429 0.0
N1452 N 0.89564 0.70553 0.90195 0.0
C1453 C 0.88279 0.6772 0.91249 0.0
C1454 C 0.87245 0.65667 0.88034 0.0
C1455 C 0.21085 0.32099 0.55411 0.0
C1456 C 0.1936 0.29095 0.56099 0.0
C1457 C 0.22051 0.34109 0.58566 0.0
C1458 C 0.21353 0.33211 0.62562 0.0
H1459 H 0.21717 0.3292 0.52401 0.0
H1460 H 0.23393 0.36382 0.57864 0.0
S1461 S 0.16761 0.25614 0.6601 0.0
N1462 N 0.16908 0.25348 0.61112 0.0
N1463 N 0.1871 0.29097 0.67018 0.0
C1464 C 0.19589 0.30217 0.63295 0.0
C1465 C 0.18599 0.28172 0.60079 0.0
C1466 C 0.6068 0.86451 0.58636 0.0
C1467 C 0.61578 0.8724 0.62616 0.0
C1468 C 0.62678 0.87401 0.55473 0.0
C1469 C 0.65675 0.8918 0.56134 0.0
H1470 H 0.58409 0.85088 0.57939 0.0
H1471 H 0.61852 0.86725 0.52473 0.0
S1472 S 0.69181 0.91926 0.65989 0.0
N1473 N 0.65705 0.89959 0.67031 0.0
N1474 N 0.69434 0.91717 0.61098 0.0
C1475 C 0.66611 0.8998 0.601 0.0
C1476 C 0.64575 0.89022 0.63327 0.0
C1477 C 0.05264 0.75847 0.59778 0.0
C1478 C 0.0589 0.75557 0.55777 0.0
C1479 C 0.0626 0.74847 0.62944 0.0
C1480 C 0.07943 0.7352 0.62264 0.0
H1481 H 0.03943 0.76805 0.60481 0.0
H1482 H 0.05672 0.75094 0.65956 0.0
S1483 S 0.10351 0.72392 0.52341 0.0
N1484 N 0.08427 0.73952 0.51321 0.0
N1485 N 0.10285 0.72084 0.57252 0.0
C1486 C 0.08648 0.73281 0.5828 0.0
C1487 C 0.07627 0.74293 0.55051 0.0
C1488 C 0.6417 0.74889 0.12723 0.0
C1489 C 0.61173 0.73694 0.1207 0.0
C1490 C 0.66156 0.75862 0.0955 0.0
C1491 C 0.65239 0.75674 0.0557 0.0
H1492 H 0.65005 0.75042 0.15718 0.0
H1493 H 0.68422 0.76709 0.10226 0.0
S1494 S 0.57667 0.72948 0.02217 0.0
N1495 N 0.57418 0.72538 0.07117 0.0
N1496 N 0.61132 0.7436 0.01162 0.0
C1497 C 0.62257 0.74557 0.0487 0.0
C1498 C 0.60234 0.73571 0.08109 0.0
C1499 C 0.18734 0.89353 0.09791 0.0
C1500 C 0.18798 0.88519 0.05822 0.0
C1501 C 0.19761 0.8838 0.12954 0.0
C1502 C 0.2089 0.86517 0.123 0.0
H1503 H 0.17945 0.90823 0.1046 0.0
H1504 H 0.19699 0.89134 0.15938 0.0
S1505 S 0.21307 0.83484 0.02489 0.0
N1506 N 0.19924 0.85564 0.01441 0.0
N1507 N 0.21847 0.83752 0.07364 0.0
C1508 C 0.20889 0.856 0.08354 0.0
C1509 C 0.19847 0.86594 0.05131 0.0
C1510 C 0.06401 0.30389 0.12792 0.0
C1511 C 0.08185 0.33388 0.12129 0.0
C1512 C 0.05357 0.284 0.09623 0.0
C1513 C 0.06035 0.2931 0.05632 0.0
H1514 H 0.05765 0.29551 0.15794 0.0
H1515 H 0.03963 0.26133 0.10319 0.0
S1516 S 0.1078 0.36898 0.02243 0.0
N1517 N 0.10688 0.37147 0.07152 0.0
N1518 N 0.08739 0.33428 0.01199 0.0
C1519 C 0.07873 0.32298 0.04919 0.0
C1520 C 0.08942 0.34326 0.08157 0.0
C1521 C 0.73144 0.63699 0.45893 0.0
C1522 C 0.74804 0.66709 0.45224 0.0
C1523 C 0.72177 0.61707 0.42725 0.0
C1524 C 0.72812 0.62628 0.38731 0.0
H1525 H 0.72549 0.62855 0.489 0.0
H1526 H 0.70871 0.59429 0.43422 0.0
S1527 S 0.77237 0.70258 0.35327 0.0
N1528 N 0.77145 0.70496 0.40236 0.0
N1529 N 0.75342 0.66774 0.3429 0.0
C1530 C 0.74532 0.6563 0.38013 0.0
C1531 C 0.75522 0.6766 0.41249 0.0
C1532 C 0.30882 0.08092 0.46437 0.0
C1533 C 0.27896 0.06967 0.45766 0.0
C1534 C 0.32896 0.09154 0.43293 0.0
C1535 C 0.32018 0.09128 0.39326 0.0
H1536 H 0.31683 0.08124 0.49421 0.0
H1537 H 0.35149 0.09935 0.43975 0.0
S1538 S 0.2449 0.06633 0.35956 0.0
N1539 N 0.24198 0.06051 0.40821 0.0
N1540 N 0.27958 0.08036 0.34929 0.0
C1541 C 0.29049 0.08086 0.38619 0.0
C1542 C 0.26999 0.07009 0.41825 0.0
C1543 C 0.88257 0.19844 0.4211 0.0
C1544 C 0.8757 0.20102 0.46091 0.0
C1545 C 0.87316 0.20876 0.38924 0.0
C1546 C 0.85636 0.22211 0.3956 0.0
H1547 H 0.89575 0.18879 0.41438 0.0
H1548 H 0.87945 0.20644 0.35929 0.0
S1549 S 0.83075 0.23258 0.49404 0.0
N1550 N 0.84978 0.21684 0.5048 0.0
N1551 N 0.83224 0.23615 0.44497 0.0
C1552 C 0.84879 0.22429 0.4352 0.0
C1553 C 0.85839 0.21378 0.46775 0.0
C1554 C 0.95876 0.54442 0.22197 0.0
C1555 C -0.01112 0.55977 0.22881 0.0
C1556 C 0.9388 0.53428 0.25363 0.0
C1557 C 0.94793 0.53909 0.29375 0.0
H1558 H 0.95034 0.54009 0.19177 0.0
H1559 H 0.91597 0.52272 0.24645 0.0
S1560 S 0.02444 0.57782 0.32832 0.0
N1561 N 0.0268 0.579 0.27911 0.0
N1562 N -0.01046 0.56013 0.3385 0.0
C1563 C -0.02196 0.55432 0.30111 0.0
C1564 C -0.00162 0.56456 0.26878 0.0
C1565 C 0.39379 0.41196 0.29747 0.0
C1566 C 0.41103 0.39916 0.29049 0.0
C1567 C 0.38422 0.42255 0.26602 0.0
C1568 C 0.39131 0.42075 0.22601 0.0
H1569 H 0.38737 0.41371 0.32759 0.0
H1570 H 0.37075 0.4318 0.27319 0.0
S1571 S 0.43718 0.39063 0.19128 0.0
N1572 N 0.43563 0.38635 0.24022 0.0
N1573 N 0.41778 0.40611 0.18133 0.0
C1574 C 0.40897 0.40845 0.21859 0.0
C1575 C 0.41876 0.39773 0.25066 0.0
C1576 C 0.52989 0.96991 0.29572 0.0
C1577 C 0.54308 -1e-05 0.28899 0.0
C1578 C 0.51986 0.94996 0.26406 0.0
C1579 C 0.52262 0.95911 0.2241 0.0
H1580 H 0.52749 0.96152 0.3258 0.0
H1581 H 0.51033 0.92719 0.27105 0.0
S1582 S 0.55397 0.03532 0.18991 0.0
N1583 N 0.55721 0.03776 0.23901 0.0
N1584 N 0.53844 0.00049 0.17962 0.0
C1585 C 0.5352 -0.01089 0.21688 0.0
C1586 C 0.54537 0.00943 0.2492 0.0
C1587 C 0.38945 0.95018 0.76412 0.0
C1588 C 0.39346 0.95922 0.724 0.0
C1589 C 0.39941 0.97024 0.79564 0.0
C1590 C 0.41394 0.00036 0.78864 0.0
H1591 H 0.3781 0.92736 0.77139 0.0
H1592 H 0.39534 0.9619 0.82588 0.0
S1593 S 0.43123 0.03567 0.689 0.0
N1594 N 0.41402 0.00074 0.67901 0.0
N1595 N 0.43257 0.03816 0.73819 0.0
C1596 C 0.41868 0.00977 0.74866 0.0
C1597 C 0.4085 -0.01067 0.71647 0.0
C1598 C 0.9587 0.40861 0.7217 0.0
C1599 C -0.01122 0.42539 0.72844 0.0
C1600 C 0.93874 0.39898 0.75333 0.0
C1601 C 0.94788 0.40558 0.79327 0.0
H1602 H 0.95031 0.40246 0.69164 0.0
H1603 H 0.91598 0.38578 0.74632 0.0
S1604 S 0.0241 0.45034 0.82741 0.0
N1605 N 0.02654 0.44921 0.77835 0.0
N1606 N -0.01073 0.43128 0.83771 0.0
C1607 C -0.02212 0.42297 0.80048 0.0
C1608 C -0.00179 0.43281 0.76818 0.0
C1609 C 0.53892 0.54085 0.71883 0.0
C1610 C 0.52115 0.55311 0.72548 0.0
C1611 C 0.54852 0.53046 0.75043 0.0
C1612 C 0.54089 0.5319 0.79023 0.0
H1613 H 0.54591 0.53954 0.68889 0.0
H1614 H 0.56253 0.52178 0.74356 0.0
S1615 S 0.49308 0.56003 0.82399 0.0
N1616 N 0.49517 0.56468 0.77509 0.0
N1617 N 0.51303 0.54521 0.83436 0.0
C1618 C 0.5225 0.54342 0.7973 0.0
C1619 C 0.5127 0.55398 0.76506 0.0
C1620 C 0.14057 0.17887 0.26969 0.0
C1621 C 0.15059 0.16908 0.30159 0.0
C1622 C 0.14553 0.17431 0.22983 0.0
C1623 C 0.16017 0.15926 0.22025 0.0
H1624 H 0.1304 0.19171 0.27547 0.0
H1625 H 0.13875 0.18358 0.20634 0.0
S1626 S 0.18738 0.12591 0.29296 0.0
N1627 N 0.1735 0.14141 0.32103 0.0
N1628 N 0.18228 0.13229 0.24624 0.0
C1629 C 0.16841 0.14753 0.2519 0.0
C1630 C 0.1638 0.15262 0.2925 0.0
C1631 C 0.79122 0.00642 0.24745 0.0
C1632 C 0.78221 -0.01322 0.21533 0.0
C1633 C 0.78558 -0.00329 0.28722 0.0
C1634 C 0.77125 0.967 0.29653 0.0
H1635 H 0.80126 0.02943 0.24184 0.0
H1636 H 0.79179 0.01263 0.31083 0.0
S1637 S 0.74613 0.90686 0.22334 0.0
N1638 N 0.7602 0.93634 0.19554 0.0
N1639 N 0.75019 0.91811 0.27012 0.0
C1640 C 0.76378 0.94722 0.26474 0.0
C1641 C 0.76907 0.9571 0.22422 0.0
C1642 C 0.93689 0.77149 0.249 0.0
C1643 C 0.95635 0.78294 0.21678 0.0
C1644 C 0.9468 0.77559 0.28868 0.0
C1645 C -0.02349 0.79174 0.29781 0.0
H1646 H 0.91395 0.75792 0.24349 0.0
H1647 H 0.93105 0.76527 0.31233 0.0
S1648 S 0.03606 0.82916 0.2243 0.0
N1649 N 0.00651 0.81307 0.19673 0.0
N1650 N 0.02509 0.82123 0.2711 0.0
C1651 C -0.00397 0.80486 0.26593 0.0
C1652 C -0.01404 0.80031 0.22552 0.0
C1653 C 0.76675 0.79547 0.72497 0.0
C1654 C 0.78203 0.78086 0.71658 0.0
C1655 C 0.76178 0.80088 0.76442 0.0
C1656 C 0.77143 0.79141 0.79712 0.0
H1657 H 0.75774 0.80203 0.70085 0.0
H1658 H 0.74892 0.81114 0.76927 0.0
S1659 S 0.81483 0.75468 0.79165 0.0
N1660 N 0.8088 0.75914 0.74451 0.0
N1661 N 0.79903 0.76884 0.81853 0.0
C1662 C 0.78797 0.77808 0.7892 0.0
C1663 C 0.79341 0.77297 0.749 0.0
C1664 C 0.16426 -0.00487 0.78868 0.0
C1665 C 0.14925 0.96528 0.79711 0.0
C1666 C 0.16881 0.0054 0.74922 0.0
C1667 C 0.159 -0.0138 0.71661 0.0
H1668 H 0.17352 0.01074 0.81272 0.0
H1669 H 0.18165 0.0285 0.74429 0.0
S1670 S 0.11569 0.90614 0.7223 0.0
N1671 N 0.12218 0.91673 0.7694 0.0
N1672 N 0.13119 0.93603 0.69534 0.0
C1673 C 0.14248 0.95638 0.72461 0.0
C1674 C 0.13746 0.94592 0.76481 0.0
C1675 C 0.93648 0.15093 0.75121 0.0
C1676 C 0.95578 0.15924 0.7188 0.0
C1677 C 0.94664 0.15689 0.79075 0.0
C1678 C -0.02356 0.17087 0.79941 0.0
H1679 H 0.91349 0.14147 0.74597 0.0
H1680 H 0.93105 0.15147 0.81464 0.0
S1681 S 0.03562 0.19362 0.7252 0.0
N1682 N 0.00587 0.17977 0.69801 0.0
N1683 N 0.02492 0.19042 0.77216 0.0
C1684 C -0.0042 0.17731 0.76735 0.0
C1685 C -0.01452 0.17168 0.7271 0.0
C1686 C 0.80547 0.51151 0.60013 0.0
C1687 C 0.81574 0.50211 0.63221 0.0
C1688 C 0.81038 0.50671 0.56033 0.0
C1689 C 0.82523 0.49182 0.551 0.0
H1690 H 0.79511 0.5242 0.60571 0.0
H1691 H 0.80341 0.51569 0.53669 0.0
S1692 S 0.85319 0.45951 0.62422 0.0
N1693 N 0.83913 0.47497 0.65204 0.0
N1694 N 0.84785 0.46546 0.57741 0.0
C1695 C 0.83374 0.48049 0.58283 0.0
C1696 C 0.82917 0.4858 0.62336 0.0
C1697 C 0.45911 0.33864 0.58311 0.0
C1698 C 0.44973 0.319 0.55096 0.0
C1699 C 0.45319 0.32892 0.62285 0.0
C1700 C 0.4382 0.2992 0.63209 0.0
H1701 H 0.46966 0.36168 0.57754 0.0
H1702 H 0.45969 0.34486 0.64648 0.0
S1703 S 0.41185 0.23898 0.55889 0.0
N1704 N 0.42663 0.26849 0.53112 0.0
N1705 N 0.41608 0.25025 0.60568 0.0
C1706 C 0.43036 0.27938 0.6003 0.0
C1707 C 0.43594 0.28927 0.55981 0.0
C1708 C 0.60345 0.10913 0.58333 0.0
C1709 C 0.62278 0.11888 0.55088 0.0
C1710 C 0.61355 0.11411 0.62293 0.0
C1711 C 0.64336 0.12947 0.63168 0.0
H1712 H 0.5804 0.09603 0.57819 0.0
H1713 H 0.59785 0.10487 0.64686 0.0
S1714 S 0.70275 0.16298 0.5572 0.0
N1715 N 0.673 0.14699 0.53002 0.0
N1716 N 0.69197 0.15678 0.60422 0.0
C1717 C 0.66282 0.14118 0.59945 0.0
C1718 C 0.65254 0.13573 0.55914 0.0
C1719 C 0.42743 0.13331 0.10145 0.0
C1720 C 0.43704 0.12337 0.13365 0.0
C1721 C 0.43215 0.12819 0.06175 0.0
C1722 C 0.44722 0.1135 0.05271 0.0
H1723 H 0.41483 0.14378 0.10688 0.0
H1724 H 0.42324 0.13513 0.03796 0.0
S1725 S 0.47951 0.08576 0.1263 0.0
N1726 N 0.46408 0.09995 0.15392 0.0
N1727 N 0.47351 0.09089 0.07942 0.0
C1728 C 0.45846 0.105 0.08465 0.0
C1729 C 0.45319 0.10975 0.12507 0.0
C1730 C 0.81023 0.28239 0.1001 0.0
C1731 C 0.82012 0.30176 0.13253 0.0
C1732 C 0.81515 0.29248 0.06051 0.0
C1733 C 0.82955 0.32228 0.05185 0.0
H1734 H 0.80012 0.25932 0.10524 0.0
H1735 H 0.80841 0.2768 0.0365 0.0
S1736 S 0.85674 0.38178 0.12631 0.0
N1737 N 0.84297 0.35202 0.15351 0.0
N1738 N 0.85161 0.37096 0.07927 0.0
C1739 C 0.83782 0.3418 0.08408 0.0
C1740 C 0.83331 0.33154 0.12436 0.0
C1741 C 0.66131 0.51364 0.09885 0.0
C1742 C 0.64203 0.50373 0.1314 0.0
C1743 C 0.65114 0.50947 0.05934 0.0
C1744 C 0.62133 0.49471 0.05076 0.0
H1745 H 0.6844 0.52625 0.10392 0.0
H1746 H 0.6668 0.51871 0.03536 0.0
S1747 S 0.56197 0.46145 0.12525 0.0
N1748 N 0.59179 0.47644 0.15238 0.0
N1749 N 0.5727 0.46805 0.07822 0.0
C1750 C 0.60187 0.48296 0.08296 0.0
C1751 C 0.61222 0.48764 0.12322 0.0
C1752 C 0.47996 0.8439 0.89363 0.0
C1753 C 0.49467 0.82893 0.88403 0.0
C1754 C 0.47519 0.84861 0.93352 0.0
C1755 C 0.48551 0.83912 0.96543 0.0
H1756 H 0.47286 0.85287 0.87011 0.0
H1757 H 0.46476 0.86122 0.9393 0.0
S1758 S 0.52323 0.79681 0.9566 0.0
N1759 N 0.51761 0.80275 0.90991 0.0
N1760 N 0.50921 0.81214 0.98474 0.0
C1761 C 0.49904 0.82295 0.95629 0.0
C1762 C 0.50343 0.81768 0.91566 0.0
C1763 C 0.12054 0.66206 0.95521 0.0
C1764 C 0.10525 0.63234 0.96447 0.0
C1765 C 0.12571 0.67178 0.91543 0.0
C1766 C 0.11528 0.65217 0.88326 0.0
H1767 H 0.12781 0.67802 0.97889 0.0
H1768 H 0.13655 0.69485 0.90996 0.0
S1769 S 0.07628 0.5721 0.89105 0.0
N1770 N 0.08173 0.58337 0.93789 0.0
N1771 N 0.09094 0.60162 0.86331 0.0
C1772 C 0.10121 0.62241 0.89205 0.0
C1773 C 0.09637 0.6125 0.93256 0.0
C1774 C 0.3287 0.47006 0.93581 0.0
C1775 C 0.30918 0.45987 0.96805 0.0
C1776 C 0.31886 0.46494 0.89608 0.0
C1777 C 0.28911 0.44992 0.88696 0.0
H1778 H 0.35177 0.48065 0.94121 0.0
H1779 H 0.33475 0.47202 0.87232 0.0
S1780 S 0.22914 0.42185 0.96074 0.0
N1781 N 0.25874 0.43619 0.9883 0.0
N1782 N 0.24025 0.42705 0.91384 0.0
C1783 C 0.26939 0.44132 0.91899 0.0
C1784 C 0.27942 0.44613 0.95943 0.0
C1785 C 0.09574 0.46744 0.43357 0.0
C1786 C 0.10514 0.45792 0.46646 0.0
C1787 C 0.10105 0.46214 0.39424 0.0
C1788 C 0.11647 0.44762 0.38621 0.0
H1789 H 0.08278 0.47762 0.43814 0.0
H1790 H 0.09215 0.46864 0.36992 0.0
S1791 S 0.14884 0.42147 0.46194 0.0
N1792 N 0.13274 0.43549 0.48848 0.0
N1793 N 0.14317 0.42601 0.41467 0.0
C1794 C 0.12768 0.43976 0.41885 0.0
C1795 C 0.12187 0.44474 0.45891 0.0
C1796 C 0.50244 0.67113 0.41417 0.0
C1797 C 0.49443 0.65203 0.38153 0.0
C1798 C 0.49711 0.66079 0.4536 0.0
C1799 C 0.48303 0.63095 0.46197 0.0
H1800 H 0.51443 0.69429 0.40937 0.0
H1801 H 0.50505 0.67639 0.47778 0.0
S1802 S 0.45429 0.57186 0.38686 0.0
N1803 N 0.46937 0.60181 0.35999 0.0
N1804 N 0.45887 0.58238 0.43403 0.0
C1805 C 0.47304 0.61158 0.42952 0.0
C1806 C 0.47891 0.62213 0.38935 0.0
C1807 C 0.32824 0.84884 0.4345 0.0
C1808 C 0.3087 0.83901 0.46674 0.0
C1809 C 0.31842 0.84419 0.39478 0.0
C1810 C 0.28869 0.82899 0.38568 0.0
H1811 H 0.35128 0.8616 0.43993 0.0
H1812 H 0.33428 0.85332 0.37102 0.0
S1813 S 0.22872 0.796 0.45935 0.0
N1814 N 0.25829 0.81154 0.48695 0.0
N1815 N 0.23985 0.80224 0.41246 0.0
C1816 C 0.26898 0.81748 0.41766 0.0
C1817 C 0.27897 0.82267 0.45811 0.0
C1818 C 0.28844 0.29631 0.10565 0.0
C1819 C 0.25839 0.28053 0.09964 0.0
C1820 C 0.30367 0.32636 0.1033 0.0
C1821 C 0.28952 0.342 0.09494 0.0
H1822 H 0.30052 0.28541 0.11191 0.0
H1823 H 0.3268 0.33734 0.10825 0.0
S1824 S 0.21089 0.31113 0.07721 0.0
N1825 N 0.2148 0.28278 0.08533 0.0
N1826 N 0.24359 0.33958 0.08105 0.0
C1827 C 0.25937 0.32663 0.08944 0.0
C1828 C 0.24376 0.29584 0.09181 0.0
C1829 C 0.61921 0.9257 0.08051 0.0
C1830 C 0.60356 0.9386 0.09477 0.0
C1831 C 0.64945 0.94056 0.08189 0.0
C1832 C 0.66492 0.96873 0.09766 0.0
H1833 H 0.60809 0.90431 0.06733 0.0
H1834 H 0.66075 0.93024 0.06939 0.0
S1835 S 0.63384 0.01028 0.14427 0.0
N1836 N 0.6056 -0.02007 0.12895 0.0
N1837 N 0.66234 0.00776 0.13145 0.0
C1838 C 0.64945 -0.0187 0.11368 0.0
C1839 C 0.61877 0.96625 0.11224 0.0
C1840 C 0.96555 0.65891 0.1006 0.0
C1841 C -0.02042 0.68863 0.09208 0.0
C1842 C -0.01964 0.64366 0.09939 0.0
C1843 C 0.00991 0.65743 0.08969 0.0
H1844 H 0.94278 0.64711 0.10815 0.0
H1845 H -0.03164 0.6208 0.10637 0.0
S1846 S 0.05691 0.73511 0.06503 0.0
N1847 N 0.02485 0.73154 0.07373 0.0
N1848 N 0.05292 0.70266 0.07163 0.0
C1849 C 0.02446 0.68728 0.08155 0.0
C1850 C 0.00926 0.70293 0.08276 0.0
C1851 C 0.31707 0.31369 0.41852 0.0
C1852 C 0.33275 0.29959 0.42676 0.0
C1853 C 0.28703 0.29848 0.41686 0.0
C1854 C 0.2713 0.26848 0.42349 0.0
H1855 H 0.328 0.33676 0.41298 0.0
H1856 H 0.27612 0.31053 0.41045 0.0
S1857 S 0.302 0.22118 0.44645 0.0
N1858 N 0.33044 0.25382 0.44161 0.0
N1859 N 0.27359 0.22503 0.43865 0.0
C1860 C 0.28662 0.25391 0.43147 0.0
C1861 C 0.31743 0.26952 0.43312 0.0
C1862 C 0.64229 0.97145 0.42732 0.0
C1863 C 0.67261 -0.0135 0.42385 0.0
C1864 C 0.62686 -0.01389 0.43029 0.0
C1865 C 0.64105 0.01647 0.42987 0.0
H1866 H 0.63017 0.94804 0.42798 0.0
H1867 H 0.60354 0.97339 0.43268 0.0
S1868 S 0.7203 0.0663 0.42105 0.0
N1869 N 0.71639 0.03363 0.42006 0.0
N1870 N 0.68734 0.06128 0.42557 0.0
C1871 C 0.67143 0.03192 0.42656 0.0
C1872 C 0.6872 0.01693 0.42348 0.0
C1873 C 0.92677 0.65818 0.41735 0.0
C1874 C 0.95493 0.67385 0.43288 0.0
C1875 C 0.91122 0.62793 0.41933 0.0
C1876 C 0.92337 0.61252 0.43699 0.0
H1877 H 0.91706 0.66926 0.40248 0.0
H1878 H 0.89005 0.61655 0.40557 0.0
S1879 S -0.0056 0.64383 0.48805 0.0
N1880 N -0.00707 0.672 0.47074 0.0
N1881 N 0.96373 0.61526 0.47437 0.0
C1882 C 0.95083 0.62807 0.45462 0.0
C1883 C 0.96662 0.65873 0.45257 0.0
C1884 C 0.66831 0.62919 0.93228 0.0
C1885 C 0.63882 0.61334 0.92235 0.0
C1886 C 0.68366 0.65939 0.92971 0.0
C1887 C 0.67005 0.67478 0.91705 0.0
H1888 H 0.67957 0.61825 0.94263 0.0
H1889 H 0.70616 0.67073 0.93863 0.0
S1890 S 0.59388 0.64327 0.88354 0.0
N1891 N 0.59706 0.6152 0.89656 0.0
N1892 N 0.62591 0.67183 0.89173 0.0
C1893 C 0.64078 0.65913 0.90584 0.0
C1894 C 0.62515 0.62845 0.90853 0.0
C1895 C 0.28566 0.96995 0.92257 0.0
C1896 C 0.26972 -0.01589 0.91674 0.0
C1897 C 0.31572 -0.01455 0.92536 0.0
C1898 C 0.33117 0.01578 0.9224 0.0
H1899 H 0.2749 0.94665 0.92559 0.0
H1900 H 0.32686 0.9734 0.93003 0.0
S1901 S 0.29981 0.06332 0.90553 0.0
N1902 N 0.27167 0.03031 0.90702 0.0
N1903 N 0.32833 0.0595 0.91221 0.0
C1904 C 0.31559 0.0303 0.91609 0.0
C1905 C 0.28486 0.01446 0.91318 0.0
C1906 C 0.91683 0.27704 0.93238 0.0
C1907 C 0.93095 0.30688 0.92448 0.0
C1908 C 0.9316 0.26159 0.92983 0.0
C1909 C 0.96101 0.27544 0.91923 0.0
H1910 H 0.89426 0.2655 0.94101 0.0
H1911 H 0.91997 0.23876 0.93703 0.0
S1912 S 0.00729 0.35283 0.89204 0.0
N1913 N -0.02435 0.34941 0.90322 0.0
N1914 N 0.00331 0.3204 0.89838 0.0
C1915 C -0.02479 0.30515 0.91025 0.0
C1916 C 0.96022 0.32088 0.91294 0.0
C1917 C 0.64957 0.65282 0.58452 0.0
C1918 C 0.66498 0.68307 0.58914 0.0
C1919 C 0.61948 0.63757 0.58233 0.0
C1920 C 0.60346 0.65187 0.58464 0.0
H1921 H 0.66075 0.64062 0.5824 0.0
H1922 H 0.60875 0.61429 0.57892 0.0
S1923 S 0.63322 0.73094 0.59723 0.0
N1924 N 0.6619 0.72689 0.59615 0.0
N1925 N 0.60515 0.69812 0.5921 0.0
C1926 C 0.6185 0.68217 0.58912 0.0
C1927 C 0.64927 0.69777 0.59143 0.0
C1928 C 0.26271 0.92578 0.58492 0.0
C1929 C 0.29198 0.93932 0.59605 0.0
C1930 C 0.24742 0.94075 0.58641 0.0
C1931 C 0.2609 0.96973 0.59915 0.0
H1932 H 0.25168 0.90367 0.57421 0.0
H1933 H 0.22514 0.92976 0.57646 0.0
S1934 S 0.33612 0.0138 0.63643 0.0
N1935 N 0.33313 -0.01743 0.62368 0.0
N1936 N 0.3044 0.01059 0.62642 0.0
C1937 C 0.28982 -0.01687 0.61186 0.0
C1938 C 0.30537 0.96796 0.61031 0.0
C1939 C -0.02547 0.32606 0.596 0.0
C1940 C 0.00494 0.34153 0.59494 0.0
C1941 C 0.95925 0.29602 0.59922 0.0
C1942 C -0.02633 0.28011 0.60146 0.0
H1943 H 0.96223 0.33715 0.59431 0.0
H1944 H 0.93585 0.28525 0.59944 0.0
S1945 S 0.05327 0.3102 0.60081 0.0
N1946 N 0.04908 0.33871 0.59709 0.0
N1947 N 0.02029 0.28207 0.6031 0.0
C1948 C 0.00414 0.29525 0.60091 0.0
C1949 C 0.01977 0.32597 0.59756 0.0
C1950 C 0.9519 0.63228 0.74606 0.0
C1951 C 0.93611 0.60226 0.75249 0.0
C1952 C -0.01803 0.64751 0.74809 0.0
C1953 C -0.00235 0.63341 0.75653 0.0
H1954 H 0.94102 0.64435 0.73963 0.0
H1955 H -0.00706 0.6706 0.74277 0.0
S1956 S 0.96675 0.55489 0.77562 0.0
N1957 N 0.93839 0.55878 0.76752 0.0
N1958 N -0.0048 0.58755 0.77122 0.0
C1959 C -0.01775 0.6033 0.76265 0.0
C1960 C 0.95144 0.5877 0.7606 0.0
C1961 C 0.35356 0.34962 0.74789 0.0
C1962 C 0.34048 0.32093 0.76159 0.0
C1963 C 0.3392 0.36547 0.75081 0.0
C1964 C 0.31141 0.35313 0.7677 0.0
H1965 H 0.3747 0.35963 0.73395 0.0
H1966 H 0.34953 0.38713 0.73851 0.0
S1967 S 0.2699 0.28039 0.81384 0.0
N1968 N 0.29961 0.28195 0.79666 0.0
N1969 N 0.27273 0.31174 0.80222 0.0
C1970 C 0.29879 0.32499 0.78335 0.0
C1971 C 0.31329 0.30886 0.78024 0.0
C1972 C 0.59325 -0.00569 0.76561 0.0
C1973 C 0.62069 0.0096 0.74764 0.0
C1974 C 0.57867 0.96407 0.76796 0.0
C1975 C 0.5912 0.94838 0.75256 0.0
H1976 H 0.58351 0.00577 0.77934 0.0
H1977 H 0.55795 0.95303 0.78301 0.0
S1978 S 0.6603 0.97808 0.69653 0.0
N1979 N 0.65816 0.00671 0.70996 0.0
N1980 N 0.63085 0.95001 0.71437 0.0
C1981 C 0.61786 0.96337 0.73252 0.0
C1982 C 0.63258 -0.00601 0.73004 0.0
C1983 C 0.34994 -0.00806 0.25777 0.0
C1984 C 0.33548 0.00778 0.26139 0.0
C1985 C 0.33482 0.96173 0.25945 0.0
C1986 C 0.30465 0.94618 0.26483 0.0
H1987 H 0.37312 0.0029 0.25333 0.0
H1988 H 0.34691 0.95054 0.25586 0.0
S1989 S 0.25666 0.97744 0.27825 0.0
N1990 N 0.28924 0.00562 0.27219 0.0
N1991 N 0.26095 0.94897 0.27546 0.0
C1992 C 0.28995 0.96177 0.26928 0.0
C1993 C 0.30532 -0.00749 0.26748 0.0
C1994 C 0.95408 0.34452 0.26387 0.0
C1995 C 0.93818 0.31461 0.25659 0.0
C1996 C -0.01582 0.35895 0.26702 0.0
C1997 C -0.00042 0.34404 0.26294 0.0
H1998 H 0.94324 0.35694 0.26768 0.0
H1999 H -0.00459 0.38203 0.2725 0.0
S2000 S -0.03189 0.26553 0.24246 0.0
N2001 N 0.94008 0.27055 0.2445 0.0
N2002 N -0.0034 0.2976 0.25064 0.0
C2003 C -0.01607 0.31407 0.25554 0.0
C2004 C 0.95328 0.2994 0.25223 0.0
C2005 C 0.58519 0.6104 0.26019 0.0
C2006 C 0.59898 0.64015 0.25178 0.0
C2007 C 0.60022 0.59525 0.25782 0.0
C2008 C 0.6296 0.60929 0.24697 0.0
H2009 H 0.5627 0.59874 0.2692 0.0
H2010 H 0.58884 0.5725 0.26553 0.0
S2011 S 0.67504 0.68639 0.21822 0.0
N2012 N 0.64332 0.68274 0.22951 0.0
N2013 N 0.67148 0.65418 0.22518 0.0
C2014 C 0.64347 0.63884 0.23736 0.0
C2015 C 0.62819 0.6543 0.23977 0.0
loop_
_geom_bond_atom_site_label_1
_geom_bond_atom_site_label_2
_geom_bond_distance
_geom_bond_site_symmetry_2
_ccdc_geom_bond_type
O0 Zn1 1.953 . S
O0 C16 1.225 1_554 S
Zn1 O0 1.953 . S
Zn1 O2 1.949 . S
Zn1 O8 1.919 . S
Zn1 O13 1.924 . S
O2 Zn1 1.949 . S
O2 Zn3 1.923 . S
O2 Zn4 1.950 . S
O2 Zn5 1.945 . S
Zn3 O2 1.923 . S
Zn3 O6 1.933 . S
Zn3 O9 1.941 . S
Zn3 O10 1.965 . S
Zn4 O2 1.950 . S
Zn4 O11 1.938 . S
Zn4 O12 1.906 . S
Zn4 O22 1.953 1_554 S
Zn5 O2 1.945 . S
Zn5 O7 1.932 . S
Zn5 O14 1.977 . S
Zn5 O15 1.910 . S
O6 Zn3 1.933 . S
O6 C17 1.226 . S
O7 Zn5 1.932 . S
O7 C17 1.307 . S
O8 Zn1 1.919 . S
O8 C19 1.253 . S
O9 Zn3 1.941 . S
O9 C19 1.283 . S
O10 Zn3 1.965 . S
O10 C18 1.303 . S
O11 Zn4 1.938 . S
O11 C18 1.247 . S
O12 Zn4 1.906 . S
O12 C20 1.304 . S
O13 Zn1 1.924 . S
O13 C21 1.311 . S
O14 Zn5 1.977 . S
O14 C20 1.272 . S
O15 Zn5 1.910 . S
O15 C21 1.231 . S
C16 O0 1.225 1_556 S
C16 O22 1.298 . S
C17 O6 1.226 . S
C17 O7 1.307 . S
C18 O10 1.303 . S
C18 O11 1.247 . S
C19 O8 1.253 . S
C19 O9 1.283 . S
C20 O12 1.304 . S
C20 O14 1.272 . S
C21 O13 1.311 . S
C21 O15 1.231 . S
O22 Zn4 1.953 1_556 S
O22 C16 1.298 . S
O23 Zn24 1.953 . S
O23 C39 1.225 1_554 S
Zn24 O23 1.953 . S
Zn24 O25 1.949 . S
Zn24 O31 1.919 . S
Zn24 O36 1.924 . S
O25 Zn24 1.949 . S
O25 Zn26 1.923 . S
O25 Zn27 1.950 . S
O25 Zn28 1.945 . S
Zn26 O25 1.923 . S
Zn26 O29 1.933 . S
Zn26 O32 1.941 . S
Zn26 O33 1.965 . S
Zn27 O25 1.950 . S
Zn27 O34 1.938 . S
Zn27 O35 1.906 . S
Zn27 O45 1.953 1_554 S
Zn28 O25 1.945 . S
Zn28 O30 1.932 . S
Zn28 O37 1.977 1_545 S
Zn28 O38 1.899 . S
O29 Zn26 1.933 . S
O29 C40 1.226 . S
O30 Zn28 1.932 . S
O30 C40 1.307 . S
O31 Zn24 1.919 . S
O31 C42 1.253 . S
O32 Zn26 1.941 . S
O32 C42 1.283 . S
O33 Zn26 1.965 . S
O33 C41 1.303 . S
O34 Zn27 1.938 . S
O34 C41 1.247 . S
O35 Zn27 1.906 . S
O35 C43 1.304 1_545 S
O36 Zn24 1.924 . S
O36 C44 1.311 . S
O37 Zn28 1.977 1_565 S
O37 C43 1.272 . S
O38 Zn28 1.899 . S
O38 C44 1.270 . S
C39 O23 1.225 1_556 S
C39 O45 1.298 . S
C40 O29 1.226 . S
C40 O30 1.307 . S
C41 O33 1.303 . S
C41 O34 1.247 . S
C42 O31 1.253 . S
C42 O32 1.283 . S
C43 O35 1.304 1_565 S
C43 O37 1.272 . S
C44 O36 1.311 . S
C44 O38 1.270 . S
O45 Zn27 1.953 1_556 S
O45 C39 1.298 . S
O46 Zn47 1.953 . S
O46 C62 1.225 1_554 S
Zn47 O46 1.953 . S
Zn47 O48 1.949 . S
Zn47 O54 1.919 . S
Zn47 O59 1.924 . S
O48 Zn47 1.949 . S
O48 Zn49 1.923 . S
O48 Zn50 1.950 . S
O48 Zn51 1.945 . S
Zn49 O48 1.923 . S
Zn49 O52 1.933 . S
Zn49 O55 1.941 . S
Zn49 O56 1.965 . S
Zn50 O48 1.950 . S
Zn50 O57 1.938 . S
Zn50 O58 1.906 . S
Zn50 O68 1.953 1_554 S
Zn51 O48 1.945 . S
Zn51 O53 1.932 . S
Zn51 O60 1.977 1_655 S
Zn51 O61 1.943 . S
O52 Zn49 1.933 . S
O52 C63 1.226 . S
O53 Zn51 1.932 . S
O53 C63 1.307 . S
O54 Zn47 1.919 . S
O54 C65 1.253 . S
O55 Zn49 1.941 . S
O55 C65 1.283 . S
O56 Zn49 1.965 . S
O56 C64 1.303 . S
O57 Zn50 1.938 . S
O57 C64 1.247 . S
O58 Zn50 1.906 . S
O58 C66 1.304 1_655 S
O59 Zn47 1.924 . S
O59 C67 1.311 . S
O60 Zn51 1.977 1_455 S
O60 C66 1.272 . S
O61 Zn51 1.943 . S
O61 C67 1.237 . S
C62 O46 1.225 1_556 S
C62 O68 1.298 . S
C63 O52 1.226 . S
C63 O53 1.307 . S
C64 O56 1.303 . S
C64 O57 1.247 . S
C65 O54 1.253 . S
C65 O55 1.283 . S
C66 O58 1.304 1_455 S
C66 O60 1.272 . S
C67 O59 1.311 . S
C67 O61 1.237 . S
O68 Zn50 1.953 1_556 S
O68 C62 1.298 . S
O69 Zn70 1.953 . S
O69 C85 1.225 . S
Zn70 O69 1.953 . S
Zn70 O71 1.949 . S
Zn70 O77 1.919 . S
Zn70 O82 1.924 . S
O71 Zn70 1.949 . S
O71 Zn72 1.923 . S
O71 Zn73 1.950 . S
O71 Zn74 1.945 . S
Zn72 O71 1.923 . S
Zn72 O75 1.933 . S
Zn72 O78 1.941 . S
Zn72 O79 1.965 . S
Zn73 O71 1.950 . S
Zn73 O80 1.938 . S
Zn73 O81 1.906 . S
Zn73 O91 1.953 . S
Zn74 O71 1.945 . S
Zn74 O76 1.932 . S
Zn74 O83 1.977 . S
Zn74 O84 1.910 . S
O75 Zn72 1.933 . S
O75 C86 1.226 . S
O76 Zn74 1.932 . S
O76 C86 1.307 . S
O77 Zn70 1.919 . S
O77 C88 1.253 . S
O78 Zn72 1.941 . S
O78 C88 1.283 . S
O79 Zn72 1.965 . S
O79 C87 1.303 . S
O80 Zn73 1.938 . S
O80 C87 1.247 . S
O81 Zn73 1.906 . S
O81 C89 1.304 . S
O82 Zn70 1.924 . S
O82 C90 1.311 . S
O83 Zn74 1.977 . S
O83 C89 1.272 . S
O84 Zn74 1.910 . S
O84 C90 1.231 . S
C85 O69 1.225 . S
C85 O91 1.298 . S
C86 O75 1.226 . S
C86 O76 1.307 . S
C87 O79 1.303 . S
C87 O80 1.247 . S
C88 O77 1.253 . S
C88 O78 1.283 . S
C89 O81 1.304 . S
C89 O83 1.272 . S
C90 O82 1.311 . S
C90 O84 1.231 . S
O91 Zn73 1.953 . S
O91 C85 1.298 . S
O92 Zn93 1.953 . S
O92 C108 1.225 . S
Zn93 O92 1.953 . S
Zn93 O94 1.949 . S
Zn93 O100 1.919 . S
Zn93 O105 1.924 . S
O94 Zn93 1.949 . S
O94 Zn95 1.923 . S
O94 Zn96 1.950 . S
O94 Zn97 1.945 . S
Zn95 O94 1.923 . S
Zn95 O98 1.933 . S
Zn95 O101 1.941 . S
Zn95 O102 1.965 . S
Zn96 O94 1.950 . S
Zn96 O103 1.938 . S
Zn96 O104 1.906 . S
Zn96 O114 1.953 . S
Zn97 O94 1.945 . S
Zn97 O99 1.932 . S
Zn97 O106 1.977 1_565 S
Zn97 O107 1.943 . S
O98 Zn95 1.933 . S
O98 C109 1.226 . S
O99 Zn97 1.932 . S
O99 C109 1.307 . S
O100 Zn93 1.919 . S
O100 C111 1.253 . S
O101 Zn95 1.941 . S
O101 C111 1.283 . S
O102 Zn95 1.965 . S
O102 C110 1.303 . S
O103 Zn96 1.938 . S
O103 C110 1.247 . S
O104 Zn96 1.906 . S
O104 C112 1.304 1_565 S
O105 Zn93 1.924 . S
O105 C113 1.311 . S
O106 Zn97 1.977 1_545 S
O106 C112 1.272 . S
O107 Zn97 1.943 . S
O107 C113 1.237 . S
C108 O92 1.225 . S
C108 O114 1.298 . S
C109 O98 1.226 . S
C109 O99 1.307 . S
C110 O102 1.303 . S
C110 O103 1.247 . S
C111 O100 1.253 . S
C111 O101 1.283 . S
C112 O104 1.304 1_545 S
C112 O106 1.272 . S
C113 O105 1.311 . S
C113 O107 1.237 . S
O114 Zn96 1.953 . S
O114 C108 1.298 . S
O115 Zn116 1.953 . S
O115 C131 1.225 . S
Zn116 O115 1.953 . S
Zn116 O117 1.949 . S
Zn116 O123 1.919 . S
Zn116 O128 1.924 . S
O117 Zn116 1.949 . S
O117 Zn118 1.923 . S
O117 Zn119 1.950 . S
O117 Zn120 1.945 . S
Zn118 O117 1.923 . S
Zn118 O121 1.933 . S
Zn118 O124 1.941 . S
Zn118 O125 1.965 . S
Zn119 O117 1.950 . S
Zn119 O126 1.938 . S
Zn119 O127 1.906 . S
Zn119 O137 1.953 . S
Zn120 O117 1.945 . S
Zn120 O122 1.932 . S
Zn120 O129 1.977 1_455 S
Zn120 O130 1.899 . S
O121 Zn118 1.933 . S
O121 C132 1.226 . S
O122 Zn120 1.932 . S
O122 C132 1.307 . S
O123 Zn116 1.919 . S
O123 C134 1.253 . S
O124 Zn118 1.941 . S
O124 C134 1.283 . S
O125 Zn118 1.965 . S
O125 C133 1.303 . S
O126 Zn119 1.938 . S
O126 C133 1.247 . S
O127 Zn119 1.906 . S
O127 C135 1.304 1_455 S
O128 Zn116 1.924 . S
O128 C136 1.311 . S
O129 Zn120 1.977 1_655 S
O129 C135 1.272 . S
O130 Zn120 1.899 . S
O130 C136 1.270 . S
C131 O115 1.225 . S
C131 O137 1.298 . S
C132 O121 1.226 . S
C132 O122 1.307 . S
C133 O125 1.303 . S
C133 O126 1.247 . S
C134 O123 1.253 . S
C134 O124 1.283 . S
C135 O127 1.304 1_655 S
C135 O129 1.272 . S
C136 O128 1.311 . S
C136 O130 1.270 . S
O137 Zn119 1.953 . S
O137 C131 1.298 . S
O138 Zn139 1.953 . S
O138 C154 1.225 1_556 S
Zn139 O138 1.953 . S
Zn139 O140 1.949 . S
Zn139 O146 1.919 . S
Zn139 O151 1.924 . S
O140 Zn139 1.949 . S
O140 Zn141 1.923 . S
O140 Zn142 1.950 . S
O140 Zn143 1.945 . S
Zn141 O140 1.923 . S
Zn141 O144 1.933 . S
Zn141 O147 1.941 . S
Zn141 O148 1.965 . S
Zn142 O140 1.950 . S
Zn142 O149 1.938 . S
Zn142 O150 1.906 . S
Zn142 O160 1.953 1_556 S
Zn143 O140 1.945 . S
Zn143 O145 1.932 . S
Zn143 O152 1.977 . S
Zn143 O153 1.910 . S
O144 Zn141 1.933 . S
O144 C155 1.226 . S
O145 Zn143 1.932 . S
O145 C155 1.307 . S
O146 Zn139 1.919 . S
O146 C157 1.253 . S
O147 Zn141 1.941 . S
O147 C157 1.283 . S
O148 Zn141 1.965 . S
O148 C156 1.303 . S
O149 Zn142 1.938 . S
O149 C156 1.247 . S
O150 Zn142 1.906 . S
O150 C158 1.304 . S
O151 Zn139 1.924 . S
O151 C159 1.311 . S
O152 Zn143 1.977 . S
O152 C158 1.272 . S
O153 Zn143 1.910 . S
O153 C159 1.231 . S
C154 O138 1.225 1_554 S
C154 O160 1.298 . S
C155 O144 1.226 . S
C155 O145 1.307 . S
C156 O148 1.303 . S
C156 O149 1.247 . S
C157 O146 1.253 . S
C157 O147 1.283 . S
C158 O150 1.304 . S
C158 O152 1.272 . S
C159 O151 1.311 . S
C159 O153 1.231 . S
O160 Zn142 1.953 1_554 S
O160 C154 1.298 . S
O161 Zn162 1.953 . S
O161 C177 1.225 1_556 S
Zn162 O161 1.953 . S
Zn162 O163 1.949 . S
Zn162 O169 1.919 . S
Zn162 O174 1.924 . S
O163 Zn162 1.949 . S
O163 Zn164 1.923 . S
O163 Zn165 1.950 . S
O163 Zn166 1.945 . S
Zn164 O163 1.923 . S
Zn164 O167 1.933 . S
Zn164 O170 1.941 . S
Zn164 O171 1.965 . S
Zn165 O163 1.950 . S
Zn165 O172 1.938 . S
Zn165 O173 1.906 . S
Zn165 O183 1.953 1_556 S
Zn166 O163 1.945 . S
Zn166 O168 1.932 . S
Zn166 O175 1.977 1_565 S
Zn166 O176 1.899 . S
O167 Zn164 1.933 . S
O167 C178 1.226 . S
O168 Zn166 1.932 . S
O168 C178 1.307 . S
O169 Zn162 1.919 . S
O169 C180 1.253 . S
O170 Zn164 1.941 . S
O170 C180 1.283 . S
O171 Zn164 1.965 . S
O171 C179 1.303 . S
O172 Zn165 1.938 . S
O172 C179 1.247 . S
O173 Zn165 1.906 . S
O173 C181 1.304 1_565 S
O174 Zn162 1.924 . S
O174 C182 1.311 . S
O175 Zn166 1.977 1_545 S
O175 C181 1.272 . S
O176 Zn166 1.899 . S
O176 C182 1.270 . S
C177 O161 1.225 1_554 S
C177 O183 1.298 . S
C178 O167 1.226 . S
C178 O168 1.307 . S
C179 O171 1.303 . S
C179 O172 1.247 . S
C180 O169 1.253 . S
C180 O170 1.283 . S
C181 O173 1.304 1_545 S
C181 O175 1.272 . S
C182 O174 1.311 . S
C182 O176 1.270 . S
O183 Zn165 1.953 1_554 S
O183 C177 1.298 . S
O184 Zn185 1.953 . S
O184 C200 1.225 1_556 S
Zn185 O184 1.953 . S
Zn185 O186 1.949 . S
Zn185 O192 1.919 . S
Zn185 O197 1.924 . S
O186 Zn185 1.949 . S
O186 Zn187 1.923 . S
O186 Zn188 1.950 . S
O186 Zn189 1.945 . S
Zn187 O186 1.923 . S
Zn187 O190 1.933 . S
Zn187 O193 1.941 . S
Zn187 O194 1.965 . S
Zn188 O186 1.950 . S
Zn188 O195 1.938 . S
Zn188 O196 1.906 . S
Zn188 O206 1.953 1_556 S
Zn189 O186 1.945 . S
Zn189 O191 1.932 . S
Zn189 O198 1.977 1_455 S
Zn189 O199 1.943 . S
O190 Zn187 1.933 . S
O190 C201 1.226 . S
O191 Zn189 1.932 . S
O191 C201 1.307 . S
O192 Zn185 1.919 . S
O192 C203 1.253 . S
O193 Zn187 1.941 . S
O193 C203 1.283 . S
O194 Zn187 1.965 . S
O194 C202 1.303 . S
O195 Zn188 1.938 . S
O195 C202 1.247 . S
O196 Zn188 1.906 . S
O196 C204 1.304 1_455 S
O197 Zn185 1.924 . S
O197 C205 1.311 . S
O198 Zn189 1.977 1_655 S
O198 C204 1.272 . S
O199 Zn189 1.943 . S
O199 C205 1.237 . S
C200 O184 1.225 1_554 S
C200 O206 1.298 . S
C201 O190 1.226 . S
C201 O191 1.307 . S
C202 O194 1.303 . S
C202 O195 1.247 . S
C203 O192 1.253 . S
C203 O193 1.283 . S
C204 O196 1.304 1_655 S
C204 O198 1.272 . S
C205 O197 1.311 . S
C205 O199 1.237 . S
O206 Zn188 1.953 1_554 S
O206 C200 1.298 . S
O207 Zn208 1.953 . S
O207 C223 1.225 . S
Zn208 O207 1.953 . S
Zn208 O209 1.949 . S
Zn208 O215 1.919 . S
Zn208 O220 1.924 . S
O209 Zn208 1.949 . S
O209 Zn210 1.923 . S
O209 Zn211 1.950 . S
O209 Zn212 1.945 . S
Zn210 O209 1.923 . S
Zn210 O213 1.933 . S
Zn210 O216 1.941 . S
Zn210 O217 1.965 . S
Zn211 O209 1.950 . S
Zn211 O218 1.938 . S
Zn211 O219 1.906 . S
Zn211 O229 1.953 . S
Zn212 O209 1.945 . S
Zn212 O214 1.932 . S
Zn212 O221 1.977 . S
Zn212 O222 1.910 . S
O213 Zn210 1.933 . S
O213 C224 1.226 . S
O214 Zn212 1.932 . S
O214 C224 1.307 . S
O215 Zn208 1.919 . S
O215 C226 1.253 . S
O216 Zn210 1.941 . S
O216 C226 1.283 . S
O217 Zn210 1.965 . S
O217 C225 1.303 . S
O218 Zn211 1.938 . S
O218 C225 1.247 . S
O219 Zn211 1.906 . S
O219 C227 1.304 . S
O220 Zn208 1.924 . S
O220 C228 1.311 . S
O221 Zn212 1.977 . S
O221 C227 1.272 . S
O222 Zn212 1.910 . S
O222 C228 1.231 . S
C223 O207 1.225 . S
C223 O229 1.298 . S
C224 O213 1.226 . S
C224 O214 1.307 . S
C225 O217 1.303 . S
C225 O218 1.247 . S
C226 O215 1.253 . S
C226 O216 1.283 . S
C227 O219 1.304 . S
C227 O221 1.272 . S
C228 O220 1.311 . S
C228 O222 1.231 . S
O229 Zn211 1.953 . S
O229 C223 1.298 . S
O230 Zn231 1.953 . S
O230 C246 1.225 . S
Zn231 O230 1.953 . S
Zn231 O232 1.949 . S
Zn231 O238 1.919 . S
Zn231 O243 1.924 . S
O232 Zn231 1.949 . S
O232 Zn233 1.923 . S
O232 Zn234 1.950 . S
O232 Zn235 1.945 . S
Zn233 O232 1.923 . S
Zn233 O236 1.933 . S
Zn233 O239 1.941 . S
Zn233 O240 1.965 . S
Zn234 O232 1.950 . S
Zn234 O241 1.938 . S
Zn234 O242 1.906 . S
Zn234 O252 1.953 . S
Zn235 O232 1.945 . S
Zn235 O237 1.932 . S
Zn235 O244 1.977 1_545 S
Zn235 O245 1.943 . S
O236 Zn233 1.933 . S
O236 C247 1.226 . S
O237 Zn235 1.932 . S
O237 C247 1.307 . S
O238 Zn231 1.919 . S
O238 C249 1.253 . S
O239 Zn233 1.941 . S
O239 C249 1.283 . S
O240 Zn233 1.965 . S
O240 C248 1.303 . S
O241 Zn234 1.938 . S
O241 C248 1.247 . S
O242 Zn234 1.906 . S
O242 C250 1.304 1_545 S
O243 Zn231 1.924 . S
O243 C251 1.311 . S
O244 Zn235 1.977 1_565 S
O244 C250 1.272 . S
O245 Zn235 1.943 . S
O245 C251 1.237 . S
C246 O230 1.225 . S
C246 O252 1.298 . S
C247 O236 1.226 . S
C247 O237 1.307 . S
C248 O240 1.303 . S
C248 O241 1.247 . S
C249 O238 1.253 . S
C249 O239 1.283 . S
C250 O242 1.304 1_565 S
C250 O244 1.272 . S
C251 O243 1.311 . S
C251 O245 1.237 . S
O252 Zn234 1.953 . S
O252 C246 1.298 . S
O253 Zn254 1.953 . S
O253 C269 1.225 . S
Zn254 O253 1.953 . S
Zn254 O255 1.949 . S
Zn254 O261 1.919 . S
Zn254 O266 1.924 . S
O255 Zn254 1.949 . S
O255 Zn256 1.923 . S
O255 Zn257 1.950 . S
O255 Zn258 1.945 . S
Zn256 O255 1.923 . S
Zn256 O259 1.933 . S
Zn256 O262 1.941 . S
Zn256 O263 1.965 . S
Zn257 O255 1.950 . S
Zn257 O264 1.938 . S
Zn257 O265 1.906 . S
Zn257 O275 1.953 . S
Zn258 O255 1.945 . S
Zn258 O260 1.932 . S
Zn258 O267 1.977 1_655 S
Zn258 O268 1.899 . S
O259 Zn256 1.933 . S
O259 C270 1.226 . S
O260 Zn258 1.932 . S
O260 C270 1.307 . S
O261 Zn254 1.919 . S
O261 C272 1.253 . S
O262 Zn256 1.941 . S
O262 C272 1.283 . S
O263 Zn256 1.965 . S
O263 C271 1.303 . S
O264 Zn257 1.938 . S
O264 C271 1.247 . S
O265 Zn257 1.906 . S
O265 C273 1.304 1_655 S
O266 Zn254 1.924 . S
O266 C274 1.311 . S
O267 Zn258 1.977 1_455 S
O267 C273 1.272 . S
O268 Zn258 1.899 . S
O268 C274 1.270 . S
C269 O253 1.225 . S
C269 O275 1.298 . S
C270 O259 1.226 . S
C270 O260 1.307 . S
C271 O263 1.303 . S
C271 O264 1.247 . S
C272 O261 1.253 . S
C272 O262 1.283 . S
C273 O265 1.304 1_455 S
C273 O267 1.272 . S
C274 O266 1.311 . S
C274 O268 1.270 . S
O275 Zn257 1.953 . S
O275 C269 1.298 . S
O276 Zn277 1.953 . S
O276 C292 1.225 . S
Zn277 O276 1.953 . S
Zn277 O278 1.949 . S
Zn277 O284 1.919 . S
Zn277 O289 1.924 . S
O278 Zn277 1.949 . S
O278 Zn279 1.923 . S
O278 Zn280 1.950 . S
O278 Zn281 1.945 . S
Zn279 O278 1.923 . S
Zn279 O282 1.933 . S
Zn279 O285 1.941 . S
Zn279 O286 1.965 . S
Zn280 O278 1.950 . S
Zn280 O287 1.938 . S
Zn280 O288 1.906 . S
Zn280 O298 1.953 . S
Zn281 O278 1.945 . S
Zn281 O283 1.932 . S
Zn281 O290 1.977 . S
Zn281 O291 1.910 . S
O282 Zn279 1.933 . S
O282 C293 1.226 . S
O283 Zn281 1.932 . S
O283 C293 1.307 . S
O284 Zn277 1.919 . S
O284 C295 1.253 . S
O285 Zn279 1.941 . S
O285 C295 1.283 . S
O286 Zn279 1.965 . S
O286 C294 1.303 . S
O287 Zn280 1.938 . S
O287 C294 1.247 . S
O288 Zn280 1.906 . S
O288 C296 1.304 . S
O289 Zn277 1.924 . S
O289 C297 1.311 . S
O290 Zn281 1.977 . S
O290 C296 1.272 . S
O291 Zn281 1.910 . S
O291 C297 1.231 . S
C292 O276 1.225 . S
C292 O298 1.298 . S
C293 O282 1.226 . S
C293 O283 1.307 . S
C294 O286 1.303 . S
C294 O287 1.247 . S
C295 O284 1.253 . S
C295 O285 1.283 . S
C296 O288 1.304 . S
C296 O290 1.272 . S
C297 O289 1.311 . S
C297 O291 1.231 . S
O298 Zn280 1.953 . S
O298 C292 1.298 . S
O299 Zn300 1.953 . S
O299 C315 1.225 . S
Zn300 O299 1.953 . S
Zn300 O301 1.949 . S
Zn300 O307 1.919 . S
Zn300 O312 1.924 . S
O301 Zn300 1.949 . S
O301 Zn302 1.923 . S
O301 Zn303 1.950 . S
O301 Zn304 1.945 . S
Zn302 O301 1.923 . S
Zn302 O305 1.933 . S
Zn302 O308 1.941 . S
Zn302 O309 1.965 . S
Zn303 O301 1.950 . S
Zn303 O310 1.938 . S
Zn303 O311 1.906 . S
Zn303 O321 1.953 . S
Zn304 O301 1.945 . S
Zn304 O306 1.932 . S
Zn304 O313 1.977 . S
Zn304 O314 1.910 . S
O305 Zn302 1.933 . S
O305 C316 1.226 . S
O306 Zn304 1.932 . S
O306 C316 1.307 . S
O307 Zn300 1.919 . S
O307 C318 1.253 . S
O308 Zn302 1.941 . S
O308 C318 1.283 . S
O309 Zn302 1.965 . S
O309 C317 1.303 . S
O310 Zn303 1.938 . S
O310 C317 1.247 . S
O311 Zn303 1.906 . S
O311 C319 1.304 . S
O312 Zn300 1.924 . S
O312 C320 1.311 . S
O313 Zn304 1.977 . S
O313 C319 1.272 . S
O314 Zn304 1.910 . S
O314 C320 1.231 . S
C315 O299 1.225 . S
C315 O321 1.298 . S
C316 O305 1.226 . S
C316 O306 1.307 . S
C317 O309 1.303 . S
C317 O310 1.247 . S
C318 O307 1.253 . S
C318 O308 1.283 . S
C319 O311 1.304 . S
C319 O313 1.272 . S
C320 O312 1.311 . S
C320 O314 1.231 . S
O321 Zn303 1.953 . S
O321 C315 1.298 . S
O322 Zn323 1.953 . S
O322 C338 1.225 . S
Zn323 O322 1.953 . S
Zn323 O324 1.949 . S
Zn323 O330 1.919 . S
Zn323 O335 1.924 . S
O324 Zn323 1.949 . S
O324 Zn325 1.923 . S
O324 Zn326 1.950 . S
O324 Zn327 1.945 . S
Zn325 O324 1.923 . S
Zn325 O328 1.933 . S
Zn325 O331 1.941 . S
Zn325 O332 1.965 . S
Zn326 O324 1.950 . S
Zn326 O333 1.938 . S
Zn326 O334 1.906 . S
Zn326 O344 1.953 . S
Zn327 O324 1.945 . S
Zn327 O329 1.932 . S
Zn327 O336 1.977 . S
Zn327 O337 1.910 . S
O328 Zn325 1.933 . S
O328 C339 1.226 . S
O329 Zn327 1.932 . S
O329 C339 1.307 . S
O330 Zn323 1.919 . S
O330 C341 1.253 . S
O331 Zn325 1.941 . S
O331 C341 1.283 . S
O332 Zn325 1.965 . S
O332 C340 1.303 . S
O333 Zn326 1.938 . S
O333 C340 1.247 . S
O334 Zn326 1.906 . S
O334 C342 1.304 . S
O335 Zn323 1.924 . S
O335 C343 1.311 . S
O336 Zn327 1.977 . S
O336 C342 1.272 . S
O337 Zn327 1.910 . S
O337 C343 1.231 . S
C338 O322 1.225 . S
C338 O344 1.298 . S
C339 O328 1.226 . S
C339 O329 1.307 . S
C340 O332 1.303 . S
C340 O333 1.247 . S
C341 O330 1.253 . S
C341 O331 1.283 . S
C342 O334 1.304 . S
C342 O336 1.272 . S
C343 O335 1.311 . S
C343 O337 1.231 . S
O344 Zn326 1.953 . S
O344 C338 1.298 . S
O345 Zn346 1.953 . S
O345 C361 1.225 . S
Zn346 O345 1.953 . S
Zn346 O347 1.949 . S
Zn346 O353 1.919 . S
Zn346 O358 1.924 . S
O347 Zn346 1.949 . S
O347 Zn348 1.923 . S
O347 Zn349 1.950 . S
O347 Zn350 1.945 . S
Zn348 O347 1.923 . S
Zn348 O351 1.933 . S
Zn348 O354 1.941 . S
Zn348 O355 1.965 . S
Zn349 O347 1.950 . S
Zn349 O356 1.938 . S
Zn349 O357 1.906 . S
Zn349 O367 1.953 . S
Zn350 O347 1.945 . S
Zn350 O352 1.932 . S
Zn350 O359 1.977 . S
Zn350 O360 1.910 . S
O351 Zn348 1.933 . S
O351 C362 1.226 . S
O352 Zn350 1.932 . S
O352 C362 1.307 . S
O353 Zn346 1.919 . S
O353 C364 1.253 . S
O354 Zn348 1.941 . S
O354 C364 1.283 . S
O355 Zn348 1.965 . S
O355 C363 1.303 . S
O356 Zn349 1.938 . S
O356 C363 1.247 . S
O357 Zn349 1.906 . S
O357 C365 1.304 . S
O358 Zn346 1.924 . S
O358 C366 1.311 . S
O359 Zn350 1.977 . S
O359 C365 1.272 . S
O360 Zn350 1.910 . S
O360 C366 1.231 . S
C361 O345 1.225 . S
C361 O367 1.298 . S
C362 O351 1.226 . S
C362 O352 1.307 . S
C363 O355 1.303 . S
C363 O356 1.247 . S
C364 O353 1.253 . S
C364 O354 1.283 . S
C365 O357 1.304 . S
C365 O359 1.272 . S
C366 O358 1.311 . S
C366 O360 1.231 . S
O367 Zn349 1.953 . S
O367 C361 1.298 . S
O368 Zn369 1.953 . S
O368 C384 1.225 . S
Zn369 O368 1.953 . S
Zn369 O370 1.949 . S
Zn369 O376 1.919 . S
Zn369 O381 1.924 . S
O370 Zn369 1.949 . S
O370 Zn371 1.923 . S
O370 Zn372 1.950 . S
O370 Zn373 1.945 . S
Zn371 O370 1.923 . S
Zn371 O374 1.933 . S
Zn371 O377 1.941 . S
Zn371 O378 1.965 . S
Zn372 O370 1.950 . S
Zn372 O379 1.938 . S
Zn372 O380 1.906 . S
Zn372 O390 1.953 . S
Zn373 O370 1.945 . S
Zn373 O375 1.932 . S
Zn373 O382 1.977 . S
Zn373 O383 1.910 . S
O374 Zn371 1.933 . S
O374 C385 1.226 . S
O375 Zn373 1.932 . S
O375 C385 1.307 . S
O376 Zn369 1.919 . S
O376 C387 1.253 . S
O377 Zn371 1.941 . S
O377 C387 1.283 . S
O378 Zn371 1.965 . S
O378 C386 1.303 . S
O379 Zn372 1.938 . S
O379 C386 1.247 . S
O380 Zn372 1.906 . S
O380 C388 1.304 . S
O381 Zn369 1.924 . S
O381 C389 1.311 . S
O382 Zn373 1.977 . S
O382 C388 1.272 . S
O383 Zn373 1.910 . S
O383 C389 1.231 . S
C384 O368 1.225 . S
C384 O390 1.298 . S
C385 O374 1.226 . S
C385 O375 1.307 . S
C386 O378 1.303 . S
C386 O379 1.247 . S
C387 O376 1.253 . S
C387 O377 1.283 . S
C388 O380 1.304 . S
C388 O382 1.272 . S
C389 O381 1.311 . S
C389 O383 1.231 . S
O390 Zn372 1.953 . S
O390 C384 1.298 . S
O391 Zn392 1.953 . S
O391 C407 1.225 . S
Zn392 O391 1.953 . S
Zn392 O393 1.949 . S
Zn392 O399 1.919 . S
Zn392 O404 1.924 . S
O393 Zn392 1.949 . S
O393 Zn394 1.923 . S
O393 Zn395 1.950 . S
O393 Zn396 1.945 . S
Zn394 O393 1.923 . S
Zn394 O397 1.933 . S
Zn394 O400 1.941 . S
Zn394 O401 1.965 . S
Zn395 O393 1.950 . S
Zn395 O402 1.938 . S
Zn395 O403 1.906 . S
Zn395 O413 1.953 . S
Zn396 O393 1.945 . S
Zn396 O398 1.932 . S
Zn396 O405 1.977 . S
Zn396 O406 1.910 . S
O397 Zn394 1.933 . S
O397 C408 1.226 . S
O398 Zn396 1.932 . S
O398 C408 1.307 . S
O399 Zn392 1.919 . S
O399 C410 1.253 . S
O400 Zn394 1.941 . S
O400 C410 1.283 . S
O401 Zn394 1.965 . S
O401 C409 1.303 . S
O402 Zn395 1.938 . S
O402 C409 1.247 . S
O403 Zn395 1.906 . S
O403 C411 1.304 . S
O404 Zn392 1.924 . S
O404 C412 1.311 . S
O405 Zn396 1.977 . S
O405 C411 1.272 . S
O406 Zn396 1.910 . S
O406 C412 1.231 . S
C407 O391 1.225 . S
C407 O413 1.298 . S
C408 O397 1.226 . S
C408 O398 1.307 . S
C409 O401 1.303 . S
C409 O402 1.247 . S
C410 O399 1.253 . S
C410 O400 1.283 . S
C411 O403 1.304 . S
C411 O405 1.272 . S
C412 O404 1.311 . S
C412 O406 1.231 . S
O413 Zn395 1.953 . S
O413 C407 1.298 . S
O414 Zn415 1.953 . S
O414 C430 1.225 . S
Zn415 O414 1.953 . S
Zn415 O416 1.949 . S
Zn415 O422 1.919 . S
Zn415 O427 1.924 . S
O416 Zn415 1.949 . S
O416 Zn417 1.923 . S
O416 Zn418 1.950 . S
O416 Zn419 1.945 . S
Zn417 O416 1.923 . S
Zn417 O420 1.933 . S
Zn417 O423 1.941 . S
Zn417 O424 1.965 . S
Zn418 O416 1.950 . S
Zn418 O425 1.938 . S
Zn418 O426 1.906 . S
Zn418 O436 1.953 . S
Zn419 O416 1.945 . S
Zn419 O421 1.932 . S
Zn419 O428 1.977 . S
Zn419 O429 1.910 . S
O420 Zn417 1.933 . S
O420 C431 1.226 . S
O421 Zn419 1.932 . S
O421 C431 1.307 . S
O422 Zn415 1.919 . S
O422 C433 1.253 . S
O423 Zn417 1.941 . S
O423 C433 1.283 . S
O424 Zn417 1.965 . S
O424 C432 1.303 . S
O425 Zn418 1.938 . S
O425 C432 1.247 . S
O426 Zn418 1.906 . S
O426 C434 1.304 . S
O427 Zn415 1.924 . S
O427 C435 1.311 . S
O428 Zn419 1.977 . S
O428 C434 1.272 . S
O429 Zn419 1.910 . S
O429 C435 1.231 . S
C430 O414 1.225 . S
C430 O436 1.298 . S
C431 O420 1.226 . S
C431 O421 1.307 . S
C432 O424 1.303 . S
C432 O425 1.247 . S
C433 O422 1.253 . S
C433 O423 1.283 . S
C434 O426 1.304 . S
C434 O428 1.272 . S
C435 O427 1.311 . S
C435 O429 1.231 . S
O436 Zn418 1.953 . S
O436 C430 1.298 . S
O437 Zn438 1.953 . S
O437 C453 1.225 . S
Zn438 O437 1.953 . S
Zn438 O439 1.949 . S
Zn438 O445 1.919 . S
Zn438 O450 1.924 . S
O439 Zn438 1.949 . S
O439 Zn440 1.923 . S
O439 Zn441 1.950 . S
O439 Zn442 1.945 . S
Zn440 O439 1.923 . S
Zn440 O443 1.933 . S
Zn440 O446 1.941 . S
Zn440 O447 1.965 . S
Zn441 O439 1.950 . S
Zn441 O448 1.938 . S
Zn441 O449 1.906 . S
Zn441 O459 1.953 . S
Zn442 O439 1.945 . S
Zn442 O444 1.932 . S
Zn442 O451 1.977 . S
Zn442 O452 1.910 . S
O443 Zn440 1.933 . S
O443 C454 1.226 . S
O444 Zn442 1.932 . S
O444 C454 1.307 . S
O445 Zn438 1.919 . S
O445 C456 1.253 . S
O446 Zn440 1.941 . S
O446 C456 1.283 . S
O447 Zn440 1.965 . S
O447 C455 1.303 . S
O448 Zn441 1.938 . S
O448 C455 1.247 . S
O449 Zn441 1.906 . S
O449 C457 1.304 . S
O450 Zn438 1.924 . S
O450 C458 1.311 . S
O451 Zn442 1.977 . S
O451 C457 1.272 . S
O452 Zn442 1.910 . S
O452 C458 1.231 . S
C453 O437 1.225 . S
C453 O459 1.298 . S
C454 O443 1.226 . S
C454 O444 1.307 . S
C455 O447 1.303 . S
C455 O448 1.247 . S
C456 O445 1.253 . S
C456 O446 1.283 . S
C457 O449 1.304 . S
C457 O451 1.272 . S
C458 O450 1.311 . S
C458 O452 1.231 . S
O459 Zn441 1.953 . S
O459 C453 1.298 . S
O460 Zn461 1.953 . S
O460 C476 1.225 . S
Zn461 O460 1.953 . S
Zn461 O462 1.949 . S
Zn461 O468 1.919 . S
Zn461 O473 1.924 . S
O462 Zn461 1.949 . S
O462 Zn463 1.923 . S
O462 Zn464 1.950 . S
O462 Zn465 1.945 . S
Zn463 O462 1.923 . S
Zn463 O466 1.933 . S
Zn463 O469 1.941 . S
Zn463 O470 1.965 . S
Zn464 O462 1.950 . S
Zn464 O471 1.938 . S
Zn464 O472 1.906 . S
Zn464 O482 1.953 . S
Zn465 O462 1.945 . S
Zn465 O467 1.932 . S
Zn465 O474 1.977 . S
Zn465 O475 1.910 . S
O466 Zn463 1.933 . S
O466 C477 1.226 . S
O467 Zn465 1.932 . S
O467 C477 1.307 . S
O468 Zn461 1.919 . S
O468 C479 1.253 . S
O469 Zn463 1.941 . S
O469 C479 1.283 . S
O470 Zn463 1.965 . S
O470 C478 1.303 . S
O471 Zn464 1.938 . S
O471 C478 1.247 . S
O472 Zn464 1.906 . S
O472 C480 1.304 . S
O473 Zn461 1.924 . S
O473 C481 1.311 . S
O474 Zn465 1.977 . S
O474 C480 1.272 . S
O475 Zn465 1.910 . S
O475 C481 1.231 . S
C476 O460 1.225 . S
C476 O482 1.298 . S
C477 O466 1.226 . S
C477 O467 1.307 . S
C478 O470 1.303 . S
C478 O471 1.247 . S
C479 O468 1.253 . S
C479 O469 1.283 . S
C480 O472 1.304 . S
C480 O474 1.272 . S
C481 O473 1.311 . S
C481 O475 1.231 . S
O482 Zn464 1.953 . S
O482 C476 1.298 . S
O483 Zn484 1.953 . S
O483 C499 1.225 . S
Zn484 O483 1.953 . S
Zn484 O485 1.949 . S
Zn484 O491 1.919 . S
Zn484 O496 1.924 . S
O485 Zn484 1.949 . S
O485 Zn486 1.923 . S
O485 Zn487 1.950 . S
O485 Zn488 1.945 . S
Zn486 O485 1.923 . S
Zn486 O489 1.933 . S
Zn486 O492 1.941 . S
Zn486 O493 1.965 . S
Zn487 O485 1.950 . S
Zn487 O494 1.938 . S
Zn487 O495 1.906 . S
Zn487 O505 1.953 . S
Zn488 O485 1.945 . S
Zn488 O490 1.932 . S
Zn488 O497 1.977 . S
Zn488 O498 1.910 . S
O489 Zn486 1.933 . S
O489 C500 1.226 . S
O490 Zn488 1.932 . S
O490 C500 1.307 . S
O491 Zn484 1.919 . S
O491 C502 1.253 . S
O492 Zn486 1.941 . S
O492 C502 1.283 . S
O493 Zn486 1.965 . S
O493 C501 1.303 . S
O494 Zn487 1.938 . S
O494 C501 1.247 . S
O495 Zn487 1.906 . S
O495 C503 1.304 . S
O496 Zn484 1.924 . S
O496 C504 1.311 . S
O497 Zn488 1.977 . S
O497 C503 1.272 . S
O498 Zn488 1.910 . S
O498 C504 1.231 . S
C499 O483 1.225 . S
C499 O505 1.298 . S
C500 O489 1.226 . S
C500 O490 1.307 . S
C501 O493 1.303 . S
C501 O494 1.247 . S
C502 O491 1.253 . S
C502 O492 1.283 . S
C503 O495 1.304 . S
C503 O497 1.272 . S
C504 O496 1.311 . S
C504 O498 1.231 . S
O505 Zn487 1.953 . S
O505 C499 1.298 . S
O506 Zn507 1.953 . S
O506 C522 1.225 . S
Zn507 O506 1.953 . S
Zn507 O508 1.949 . S
Zn507 O514 1.919 . S
Zn507 O519 1.924 . S
O508 Zn507 1.949 . S
O508 Zn509 1.923 . S
O508 Zn510 1.950 . S
O508 Zn511 1.945 . S
Zn509 O508 1.923 . S
Zn509 O512 1.933 . S
Zn509 O515 1.941 . S
Zn509 O516 1.965 . S
Zn510 O508 1.950 . S
Zn510 O517 1.938 . S
Zn510 O518 1.906 . S
Zn510 O528 1.953 . S
Zn511 O508 1.945 . S
Zn511 O513 1.932 . S
Zn511 O520 1.977 . S
Zn511 O521 1.910 . S
O512 Zn509 1.933 . S
O512 C523 1.226 . S
O513 Zn511 1.932 . S
O513 C523 1.307 . S
O514 Zn507 1.919 . S
O514 C525 1.253 . S
O515 Zn509 1.941 . S
O515 C525 1.283 . S
O516 Zn509 1.965 . S
O516 C524 1.303 . S
O517 Zn510 1.938 . S
O517 C524 1.247 . S
O518 Zn510 1.906 . S
O518 C526 1.304 . S
O519 Zn507 1.924 . S
O519 C527 1.311 . S
O520 Zn511 1.977 . S
O520 C526 1.272 . S
O521 Zn511 1.910 . S
O521 C527 1.231 . S
C522 O506 1.225 . S
C522 O528 1.298 . S
C523 O512 1.226 . S
C523 O513 1.307 . S
C524 O516 1.303 . S
C524 O517 1.247 . S
C525 O514 1.253 . S
C525 O515 1.283 . S
C526 O518 1.304 . S
C526 O520 1.272 . S
C527 O519 1.311 . S
C527 O521 1.231 . S
O528 Zn510 1.953 . S
O528 C522 1.298 . S
O529 Zn530 1.953 . S
O529 C545 1.225 . S
Zn530 O529 1.953 . S
Zn530 O531 1.949 . S
Zn530 O537 1.919 . S
Zn530 O542 1.924 . S
O531 Zn530 1.949 . S
O531 Zn532 1.923 . S
O531 Zn533 1.950 . S
O531 Zn534 1.945 . S
Zn532 O531 1.923 . S
Zn532 O535 1.933 . S
Zn532 O538 1.941 . S
Zn532 O539 1.965 . S
Zn533 O531 1.950 . S
Zn533 O540 1.938 . S
Zn533 O541 1.906 . S
Zn533 O551 1.953 . S
Zn534 O531 1.945 . S
Zn534 O536 1.932 . S
Zn534 O543 1.977 . S
Zn534 O544 1.910 . S
O535 Zn532 1.933 . S
O535 C546 1.226 . S
O536 Zn534 1.932 . S
O536 C546 1.307 . S
O537 Zn530 1.919 . S
O537 C548 1.253 . S
O538 Zn532 1.941 . S
O538 C548 1.283 . S
O539 Zn532 1.965 . S
O539 C547 1.303 . S
O540 Zn533 1.938 . S
O540 C547 1.247 . S
O541 Zn533 1.906 . S
O541 C549 1.304 . S
O542 Zn530 1.924 . S
O542 C550 1.311 . S
O543 Zn534 1.977 . S
O543 C549 1.272 . S
O544 Zn534 1.910 . S
O544 C550 1.231 . S
C545 O529 1.225 . S
C545 O551 1.298 . S
C546 O535 1.226 . S
C546 O536 1.307 . S
C547 O539 1.303 . S
C547 O540 1.247 . S
C548 O537 1.253 . S
C548 O538 1.283 . S
C549 O541 1.304 . S
C549 O543 1.272 . S
C550 O542 1.311 . S
C550 O544 1.231 . S
O551 Zn533 1.953 . S
O551 C545 1.298 . S
O552 Zn553 1.953 . S
O552 C568 1.225 . S
Zn553 O552 1.953 . S
Zn553 O554 1.949 . S
Zn553 O560 1.919 . S
Zn553 O565 1.924 . S
O554 Zn553 1.949 . S
O554 Zn555 1.923 . S
O554 Zn556 1.950 . S
O554 Zn557 1.945 . S
Zn555 O554 1.923 . S
Zn555 O558 1.933 . S
Zn555 O561 1.941 . S
Zn555 O562 1.965 . S
Zn556 O554 1.950 . S
Zn556 O563 1.938 . S
Zn556 O564 1.906 . S
Zn556 O574 1.953 . S
Zn557 O554 1.945 . S
Zn557 O559 1.932 . S
Zn557 O566 1.977 . S
Zn557 O567 1.910 . S
O558 Zn555 1.933 . S
O558 C569 1.226 . S
O559 Zn557 1.932 . S
O559 C569 1.307 . S
O560 Zn553 1.919 . S
O560 C571 1.253 . S
O561 Zn555 1.941 . S
O561 C571 1.283 . S
O562 Zn555 1.965 . S
O562 C570 1.303 . S
O563 Zn556 1.938 . S
O563 C570 1.247 . S
O564 Zn556 1.906 . S
O564 C572 1.304 . S
O565 Zn553 1.924 . S
O565 C573 1.311 . S
O566 Zn557 1.977 . S
O566 C572 1.272 . S
O567 Zn557 1.910 . S
O567 C573 1.231 . S
C568 O552 1.225 . S
C568 O574 1.298 . S
C569 O558 1.226 . S
C569 O559 1.307 . S
C570 O562 1.303 . S
C570 O563 1.247 . S
C571 O560 1.253 . S
C571 O561 1.283 . S
C572 O564 1.304 . S
C572 O566 1.272 . S
C573 O565 1.311 . S
C573 O567 1.231 . S
O574 Zn556 1.953 . S
O574 C568 1.298 . S
O575 Zn576 1.953 . S
O575 C591 1.225 . S
Zn576 O575 1.953 . S
Zn576 O577 1.949 . S
Zn576 O583 1.919 . S
Zn576 O588 1.924 . S
O577 Zn576 1.949 . S
O577 Zn578 1.923 . S
O577 Zn579 1.950 . S
O577 Zn580 1.945 . S
Zn578 O577 1.923 . S
Zn578 O581 1.933 . S
Zn578 O584 1.941 . S
Zn578 O585 1.965 . S
Zn579 O577 1.950 . S
Zn579 O586 1.938 . S
Zn579 O587 1.906 . S
Zn579 O597 1.953 . S
Zn580 O577 1.945 . S
Zn580 O582 1.932 . S
Zn580 O589 1.977 . S
Zn580 O590 1.910 . S
O581 Zn578 1.933 . S
O581 C592 1.226 . S
O582 Zn580 1.932 . S
O582 C592 1.307 . S
O583 Zn576 1.919 . S
O583 C594 1.253 . S
O584 Zn578 1.941 . S
O584 C594 1.283 . S
O585 Zn578 1.965 . S
O585 C593 1.303 . S
O586 Zn579 1.938 . S
O586 C593 1.247 . S
O587 Zn579 1.906 . S
O587 C595 1.304 . S
O588 Zn576 1.924 . S
O588 C596 1.311 . S
O589 Zn580 1.977 . S
O589 C595 1.272 . S
O590 Zn580 1.910 . S
O590 C596 1.231 . S
C591 O575 1.225 . S
C591 O597 1.298 . S
C592 O581 1.226 . S
C592 O582 1.307 . S
C593 O585 1.303 . S
C593 O586 1.247 . S
C594 O583 1.253 . S
C594 O584 1.283 . S
C595 O587 1.304 . S
C595 O589 1.272 . S
C596 O588 1.311 . S
C596 O590 1.231 . S
O597 Zn579 1.953 . S
O597 C591 1.298 . S
O598 Zn599 1.953 . S
O598 C614 1.225 . S
Zn599 O598 1.953 . S
Zn599 O600 1.949 . S
Zn599 O606 1.919 . S
Zn599 O611 1.924 . S
O600 Zn599 1.949 . S
O600 Zn601 1.923 . S
O600 Zn602 1.950 . S
O600 Zn603 1.945 . S
Zn601 O600 1.923 . S
Zn601 O604 1.933 . S
Zn601 O607 1.941 . S
Zn601 O608 1.965 . S
Zn602 O600 1.950 . S
Zn602 O609 1.938 . S
Zn602 O610 1.906 . S
Zn602 O620 1.953 . S
Zn603 O600 1.945 . S
Zn603 O605 1.932 . S
Zn603 O612 1.977 . S
Zn603 O613 1.910 . S
O604 Zn601 1.933 . S
O604 C615 1.226 . S
O605 Zn603 1.932 . S
O605 C615 1.307 . S
O606 Zn599 1.919 . S
O606 C617 1.253 . S
O607 Zn601 1.941 . S
O607 C617 1.283 . S
O608 Zn601 1.965 . S
O608 C616 1.303 . S
O609 Zn602 1.938 . S
O609 C616 1.247 . S
O610 Zn602 1.906 . S
O610 C618 1.304 . S
O611 Zn599 1.924 . S
O611 C619 1.311 . S
O612 Zn603 1.977 . S
O612 C618 1.272 . S
O613 Zn603 1.910 . S
O613 C619 1.231 . S
C614 O598 1.225 . S
C614 O620 1.298 . S
C615 O604 1.226 . S
C615 O605 1.307 . S
C616 O608 1.303 . S
C616 O609 1.247 . S
C617 O606 1.253 . S
C617 O607 1.283 . S
C618 O610 1.304 . S
C618 O612 1.272 . S
C619 O611 1.311 . S
C619 O613 1.231 . S
O620 Zn602 1.953 . S
O620 C614 1.298 . S
O621 Zn622 1.953 . S
O621 C637 1.225 . S
Zn622 O621 1.953 . S
Zn622 O623 1.949 . S
Zn622 O629 1.919 . S
Zn622 O634 1.924 . S
O623 Zn622 1.949 . S
O623 Zn624 1.923 . S
O623 Zn625 1.950 . S
O623 Zn626 1.945 . S
Zn624 O623 1.923 . S
Zn624 O627 1.933 . S
Zn624 O630 1.941 . S
Zn624 O631 1.965 . S
Zn625 O623 1.950 . S
Zn625 O632 1.938 . S
Zn625 O633 1.906 . S
Zn625 O643 1.953 . S
Zn626 O623 1.945 . S
Zn626 O628 1.932 . S
Zn626 O635 1.977 . S
Zn626 O636 1.910 . S
O627 Zn624 1.933 . S
O627 C638 1.226 . S
O628 Zn626 1.932 . S
O628 C638 1.307 . S
O629 Zn622 1.919 . S
O629 C640 1.253 . S
O630 Zn624 1.941 . S
O630 C640 1.283 . S
O631 Zn624 1.965 . S
O631 C639 1.303 . S
O632 Zn625 1.938 . S
O632 C639 1.247 . S
O633 Zn625 1.906 . S
O633 C641 1.304 . S
O634 Zn622 1.924 . S
O634 C642 1.311 . S
O635 Zn626 1.977 . S
O635 C641 1.272 . S
O636 Zn626 1.910 . S
O636 C642 1.231 . S
C637 O621 1.225 . S
C637 O643 1.298 . S
C638 O627 1.226 . S
C638 O628 1.307 . S
C639 O631 1.303 . S
C639 O632 1.247 . S
C640 O629 1.253 . S
C640 O630 1.283 . S
C641 O633 1.304 . S
C641 O635 1.272 . S
C642 O634 1.311 . S
C642 O636 1.231 . S
O643 Zn625 1.953 . S
O643 C637 1.298 . S
O644 Zn645 1.953 . S
O644 C660 1.225 . S
Zn645 O644 1.953 . S
Zn645 O646 1.949 . S
Zn645 O652 1.919 . S
Zn645 O657 1.924 . S
O646 Zn645 1.949 . S
O646 Zn647 1.923 . S
O646 Zn648 1.950 . S
O646 Zn649 1.945 . S
Zn647 O646 1.923 . S
Zn647 O650 1.933 . S
Zn647 O653 1.941 . S
Zn647 O654 1.965 . S
Zn648 O646 1.950 . S
Zn648 O655 1.938 . S
Zn648 O656 1.906 . S
Zn648 O666 1.953 . S
Zn649 O646 1.945 . S
Zn649 O651 1.932 . S
Zn649 O658 1.977 . S
Zn649 O659 1.910 . S
O650 Zn647 1.933 . S
O650 C661 1.226 . S
O651 Zn649 1.932 . S
O651 C661 1.307 . S
O652 Zn645 1.919 . S
O652 C663 1.253 . S
O653 Zn647 1.941 . S
O653 C663 1.283 . S
O654 Zn647 1.965 . S
O654 C662 1.303 . S
O655 Zn648 1.938 . S
O655 C662 1.247 . S
O656 Zn648 1.906 . S
O656 C664 1.304 . S
O657 Zn645 1.924 . S
O657 C665 1.311 . S
O658 Zn649 1.977 . S
O658 C664 1.272 . S
O659 Zn649 1.910 . S
O659 C665 1.231 . S
C660 O644 1.225 . S
C660 O666 1.298 . S
C661 O650 1.226 . S
C661 O651 1.307 . S
C662 O654 1.303 . S
C662 O655 1.247 . S
C663 O652 1.253 . S
C663 O653 1.283 . S
C664 O656 1.304 . S
C664 O658 1.272 . S
C665 O657 1.311 . S
C665 O659 1.231 . S
O666 Zn648 1.953 . S
O666 C660 1.298 . S
O667 Zn668 1.953 . S
O667 C683 1.225 . S
Zn668 O667 1.953 . S
Zn668 O669 1.949 . S
Zn668 O675 1.919 . S
Zn668 O680 1.924 . S
O669 Zn668 1.949 . S
O669 Zn670 1.923 . S
O669 Zn671 1.950 . S
O669 Zn672 1.945 . S
Zn670 O669 1.923 . S
Zn670 O673 1.933 . S
Zn670 O676 1.941 . S
Zn670 O677 1.965 . S
Zn671 O669 1.950 . S
Zn671 O678 1.938 . S
Zn671 O679 1.906 . S
Zn671 O689 1.953 . S
Zn672 O669 1.945 . S
Zn672 O674 1.932 . S
Zn672 O681 1.977 . S
Zn672 O682 1.910 . S
O673 Zn670 1.933 . S
O673 C684 1.226 . S
O674 Zn672 1.932 . S
O674 C684 1.307 . S
O675 Zn668 1.919 . S
O675 C686 1.253 . S
O676 Zn670 1.941 . S
O676 C686 1.283 . S
O677 Zn670 1.965 . S
O677 C685 1.303 . S
O678 Zn671 1.938 . S
O678 C685 1.247 . S
O679 Zn671 1.906 . S
O679 C687 1.304 . S
O680 Zn668 1.924 . S
O680 C688 1.311 . S
O681 Zn672 1.977 . S
O681 C687 1.272 . S
O682 Zn672 1.910 . S
O682 C688 1.231 . S
C683 O667 1.225 . S
C683 O689 1.298 . S
C684 O673 1.226 . S
C684 O674 1.307 . S
C685 O677 1.303 . S
C685 O678 1.247 . S
C686 O675 1.253 . S
C686 O676 1.283 . S
C687 O679 1.304 . S
C687 O681 1.272 . S
C688 O680 1.311 . S
C688 O682 1.231 . S
O689 Zn671 1.953 . S
O689 C683 1.298 . S
O690 Zn691 1.953 . S
O690 C706 1.225 . S
Zn691 O690 1.953 . S
Zn691 O692 1.949 . S
Zn691 O698 1.919 . S
Zn691 O703 1.924 . S
O692 Zn691 1.949 . S
O692 Zn693 1.923 . S
O692 Zn694 1.950 . S
O692 Zn695 1.945 . S
Zn693 O692 1.923 . S
Zn693 O696 1.933 . S
Zn693 O699 1.941 . S
Zn693 O700 1.965 . S
Zn694 O692 1.950 . S
Zn694 O701 1.938 . S
Zn694 O702 1.906 . S
Zn694 O712 1.953 . S
Zn695 O692 1.945 . S
Zn695 O697 1.932 . S
Zn695 O704 1.977 . S
Zn695 O705 1.910 . S
O696 Zn693 1.933 . S
O696 C707 1.226 . S
O697 Zn695 1.932 . S
O697 C707 1.307 . S
O698 Zn691 1.919 . S
O698 C709 1.253 . S
O699 Zn693 1.941 . S
O699 C709 1.283 . S
O700 Zn693 1.965 . S
O700 C708 1.303 . S
O701 Zn694 1.938 . S
O701 C708 1.247 . S
O702 Zn694 1.906 . S
O702 C710 1.304 . S
O703 Zn691 1.924 . S
O703 C711 1.311 . S
O704 Zn695 1.977 . S
O704 C710 1.272 . S
O705 Zn695 1.910 . S
O705 C711 1.231 . S
C706 O690 1.225 . S
C706 O712 1.298 . S
C707 O696 1.226 . S
C707 O697 1.307 . S
C708 O700 1.303 . S
C708 O701 1.247 . S
C709 O698 1.253 . S
C709 O699 1.283 . S
C710 O702 1.304 . S
C710 O704 1.272 . S
C711 O703 1.311 . S
C711 O705 1.231 . S
O712 Zn694 1.953 . S
O712 C706 1.298 . S
O713 Zn714 1.953 . S
O713 C729 1.225 . S
Zn714 O713 1.953 . S
Zn714 O715 1.949 . S
Zn714 O721 1.919 . S
Zn714 O726 1.924 . S
O715 Zn714 1.949 . S
O715 Zn716 1.923 . S
O715 Zn717 1.950 . S
O715 Zn718 1.945 . S
Zn716 O715 1.923 . S
Zn716 O719 1.933 . S
Zn716 O722 1.941 . S
Zn716 O723 1.965 . S
Zn717 O715 1.950 . S
Zn717 O724 1.938 . S
Zn717 O725 1.906 . S
Zn717 O735 1.953 . S
Zn718 O715 1.945 . S
Zn718 O720 1.932 . S
Zn718 O727 1.977 . S
Zn718 O728 1.910 . S
O719 Zn716 1.933 . S
O719 C730 1.226 . S
O720 Zn718 1.932 . S
O720 C730 1.307 . S
O721 Zn714 1.919 . S
O721 C732 1.253 . S
O722 Zn716 1.941 . S
O722 C732 1.283 . S
O723 Zn716 1.965 . S
O723 C731 1.303 . S
O724 Zn717 1.938 . S
O724 C731 1.247 . S
O725 Zn717 1.906 . S
O725 C733 1.304 . S
O726 Zn714 1.924 . S
O726 C734 1.311 . S
O727 Zn718 1.977 . S
O727 C733 1.272 . S
O728 Zn718 1.910 . S
O728 C734 1.231 . S
C729 O713 1.225 . S
C729 O735 1.298 . S
C730 O719 1.226 . S
C730 O720 1.307 . S
C731 O723 1.303 . S
C731 O724 1.247 . S
C732 O721 1.253 . S
C732 O722 1.283 . S
C733 O725 1.304 . S
C733 O727 1.272 . S
C734 O726 1.311 . S
C734 O728 1.231 . S
O735 Zn717 1.953 . S
O735 C729 1.298 . S
O736 Zn737 1.953 . S
O736 C752 1.225 . S
Zn737 O736 1.953 . S
Zn737 O738 1.949 . S
Zn737 O744 1.919 . S
Zn737 O749 1.924 . S
O738 Zn737 1.949 . S
O738 Zn739 1.923 . S
O738 Zn740 1.950 . S
O738 Zn741 1.945 . S
Zn739 O738 1.923 . S
Zn739 O742 1.933 . S
Zn739 O745 1.941 . S
Zn739 O746 1.965 . S
Zn740 O738 1.950 . S
Zn740 O747 1.938 . S
Zn740 O748 1.906 . S
Zn740 O758 1.953 . S
Zn741 O738 1.945 . S
Zn741 O743 1.932 . S
Zn741 O750 1.977 . S
Zn741 O751 1.910 . S
O742 Zn739 1.933 . S
O742 C753 1.226 . S
O743 Zn741 1.932 . S
O743 C753 1.307 . S
O744 Zn737 1.919 . S
O744 C755 1.253 . S
O745 Zn739 1.941 . S
O745 C755 1.283 . S
O746 Zn739 1.965 . S
O746 C754 1.303 . S
O747 Zn740 1.938 . S
O747 C754 1.247 . S
O748 Zn740 1.906 . S
O748 C756 1.304 . S
O749 Zn737 1.924 . S
O749 C757 1.311 . S
O750 Zn741 1.977 . S
O750 C756 1.272 . S
O751 Zn741 1.910 . S
O751 C757 1.231 . S
C752 O736 1.225 . S
C752 O758 1.298 . S
C753 O742 1.226 . S
C753 O743 1.307 . S
C754 O746 1.303 . S
C754 O747 1.247 . S
C755 O744 1.253 . S
C755 O745 1.283 . S
C756 O748 1.304 . S
C756 O750 1.272 . S
C757 O749 1.311 . S
C757 O751 1.231 . S
O758 Zn740 1.953 . S
O758 C752 1.298 . S
O759 Zn760 1.953 . S
O759 C775 1.225 . S
Zn760 O759 1.953 . S
Zn760 O761 1.949 . S
Zn760 O767 1.919 . S
Zn760 O772 1.924 . S
O761 Zn760 1.949 . S
O761 Zn762 1.923 . S
O761 Zn763 1.950 . S
O761 Zn764 1.945 . S
Zn762 O761 1.923 . S
Zn762 O765 1.933 . S
Zn762 O768 1.941 . S
Zn762 O769 1.965 . S
Zn763 O761 1.950 . S
Zn763 O770 1.938 . S
Zn763 O771 1.906 . S
Zn763 O781 1.953 . S
Zn764 O761 1.945 . S
Zn764 O766 1.932 . S
Zn764 O773 1.977 . S
Zn764 O774 1.910 . S
O765 Zn762 1.933 . S
O765 C776 1.226 . S
O766 Zn764 1.932 . S
O766 C776 1.307 . S
O767 Zn760 1.919 . S
O767 C778 1.253 . S
O768 Zn762 1.941 . S
O768 C778 1.283 . S
O769 Zn762 1.965 . S
O769 C777 1.303 . S
O770 Zn763 1.938 . S
O770 C777 1.247 . S
O771 Zn763 1.906 . S
O771 C779 1.304 . S
O772 Zn760 1.924 . S
O772 C780 1.311 . S
O773 Zn764 1.977 . S
O773 C779 1.272 . S
O774 Zn764 1.910 . S
O774 C780 1.231 . S
C775 O759 1.225 . S
C775 O781 1.298 . S
C776 O765 1.226 . S
C776 O766 1.307 . S
C777 O769 1.303 . S
C777 O770 1.247 . S
C778 O767 1.253 . S
C778 O768 1.283 . S
C779 O771 1.304 . S
C779 O773 1.272 . S
C780 O772 1.311 . S
C780 O774 1.231 . S
O781 Zn763 1.953 . S
O781 C775 1.298 . S
O782 Zn783 1.953 . S
O782 C798 1.225 . S
Zn783 O782 1.953 . S
Zn783 O784 1.949 . S
Zn783 O790 1.919 . S
Zn783 O795 1.924 . S
O784 Zn783 1.949 . S
O784 Zn785 1.923 . S
O784 Zn786 1.950 . S
O784 Zn787 1.945 . S
Zn785 O784 1.923 . S
Zn785 O788 1.933 . S
Zn785 O791 1.941 . S
Zn785 O792 1.965 . S
Zn786 O784 1.950 . S
Zn786 O793 1.938 . S
Zn786 O794 1.906 . S
Zn786 O804 1.953 . S
Zn787 O784 1.945 . S
Zn787 O789 1.932 . S
Zn787 O796 1.977 . S
Zn787 O797 1.910 . S
O788 Zn785 1.933 . S
O788 C799 1.226 . S
O789 Zn787 1.932 . S
O789 C799 1.307 . S
O790 Zn783 1.919 . S
O790 C801 1.253 . S
O791 Zn785 1.941 . S
O791 C801 1.283 . S
O792 Zn785 1.965 . S
O792 C800 1.303 . S
O793 Zn786 1.938 . S
O793 C800 1.247 . S
O794 Zn786 1.906 . S
O794 C802 1.304 . S
O795 Zn783 1.924 . S
O795 C803 1.311 . S
O796 Zn787 1.977 . S
O796 C802 1.272 . S
O797 Zn787 1.910 . S
O797 C803 1.231 . S
C798 O782 1.225 . S
C798 O804 1.298 . S
C799 O788 1.226 . S
C799 O789 1.307 . S
C800 O792 1.303 . S
C800 O793 1.247 . S
C801 O790 1.253 . S
C801 O791 1.283 . S
C802 O794 1.304 . S
C802 O796 1.272 . S
C803 O795 1.311 . S
C803 O797 1.231 . S
O804 Zn786 1.953 . S
O804 C798 1.298 . S
O805 Zn806 1.953 . S
O805 C821 1.225 . S
Zn806 O805 1.953 . S
Zn806 O807 1.949 . S
Zn806 O813 1.919 . S
Zn806 O818 1.924 . S
O807 Zn806 1.949 . S
O807 Zn808 1.923 . S
O807 Zn809 1.950 . S
O807 Zn810 1.945 . S
Zn808 O807 1.923 . S
Zn808 O811 1.933 . S
Zn808 O814 1.941 . S
Zn808 O815 1.965 . S
Zn809 O807 1.950 . S
Zn809 O816 1.938 . S
Zn809 O817 1.906 . S
Zn809 O827 1.953 . S
Zn810 O807 1.945 . S
Zn810 O812 1.932 . S
Zn810 O819 1.977 . S
Zn810 O820 1.910 . S
O811 Zn808 1.933 . S
O811 C822 1.226 . S
O812 Zn810 1.932 . S
O812 C822 1.307 . S
O813 Zn806 1.919 . S
O813 C824 1.253 . S
O814 Zn808 1.941 . S
O814 C824 1.283 . S
O815 Zn808 1.965 . S
O815 C823 1.303 . S
O816 Zn809 1.938 . S
O816 C823 1.247 . S
O817 Zn809 1.906 . S
O817 C825 1.304 . S
O818 Zn806 1.924 . S
O818 C826 1.311 . S
O819 Zn810 1.977 . S
O819 C825 1.272 . S
O820 Zn810 1.910 . S
O820 C826 1.231 . S
C821 O805 1.225 . S
C821 O827 1.298 . S
C822 O811 1.226 . S
C822 O812 1.307 . S
C823 O815 1.303 . S
C823 O816 1.247 . S
C824 O813 1.253 . S
C824 O814 1.283 . S
C825 O817 1.304 . S
C825 O819 1.272 . S
C826 O818 1.311 . S
C826 O820 1.231 . S
O827 Zn809 1.953 . S
O827 C821 1.298 . S
C828 C829 1.369 . S
C828 C830 1.419 1_554 S
C828 H832 0.930 . S
C829 C828 1.369 . S
C829 C838 1.429 . S
C830 C828 1.419 1_556 S
C830 C831 1.363 . S
C830 H833 0.929 . S
C831 C830 1.363 . S
C831 C837 1.428 . S
H832 C828 0.930 . S
H833 C830 0.929 . S
S834 N835 1.613 1_556 S
S834 N836 1.610 . S
N835 S834 1.613 1_554 S
N835 C838 1.350 . S
N836 S834 1.610 . S
N836 C837 1.351 . S
C837 C831 1.428 . S
C837 N836 1.351 . S
C837 C838 1.434 1_556 S
C838 C829 1.429 . S
C838 N835 1.350 . S
C838 C837 1.434 1_554 S
C839 C840 1.369 1_554 S
C839 C841 1.419 . S
C839 H843 0.930 . S
C840 C839 1.369 1_556 S
C840 C849 1.429 . S
C841 C839 1.419 . S
C841 C842 1.363 . S
C841 H844 0.929 . S
C842 C841 1.363 . S
C842 C848 1.428 1_554 S
H843 C839 0.930 . S
H844 C841 0.929 . S
S845 N846 1.613 . S
S845 N847 1.610 . S
N846 S845 1.613 . S
N846 C849 1.350 . S
N847 S845 1.610 . S
N847 C848 1.351 . S
C848 C842 1.428 1_556 S
C848 N847 1.351 . S
C848 C849 1.434 . S
C849 C840 1.429 . S
C849 N846 1.350 . S
C849 C848 1.434 . S
C850 C851 1.369 . S
C850 C852 1.419 . S
C850 H854 0.930 . S
C851 C850 1.369 . S
C851 C860 1.429 1_556 S
C852 C850 1.419 . S
C852 C853 1.363 1_556 S
C852 H855 0.929 . S
C853 C852 1.363 1_554 S
C853 C859 1.428 . S
H854 C850 0.930 . S
H855 C852 0.929 . S
S856 N857 1.613 . S
S856 N858 1.610 . S
N857 S856 1.613 . S
N857 C860 1.350 . S
N858 S856 1.610 . S
N858 C859 1.351 . S
C859 C853 1.428 . S
C859 N858 1.351 . S
C859 C860 1.434 . S
C860 C851 1.429 1_554 S
C860 N857 1.350 . S
C860 C859 1.434 . S
C861 C862 1.369 . S
C861 C863 1.419 . S
C861 H865 0.930 . S
C862 C861 1.369 . S
C862 C871 1.429 . S
C863 C861 1.419 . S
C863 C864 1.363 . S
C863 H866 0.929 . S
C864 C863 1.363 . S
C864 C870 1.428 . S
H865 C861 0.930 . S
H866 C863 0.929 . S
S867 N868 1.613 . S
S867 N869 1.610 . S
N868 S867 1.613 . S
N868 C871 1.350 . S
N869 S867 1.610 . S
N869 C870 1.351 . S
C870 C864 1.428 . S
C870 N869 1.351 . S
C870 C871 1.434 . S
C871 C862 1.429 . S
C871 N868 1.350 . S
C871 C870 1.434 . S
C872 C873 1.369 . S
C872 C874 1.419 . S
C872 H876 0.930 . S
C873 C872 1.369 . S
C873 C882 1.429 . S
C874 C872 1.419 . S
C874 C875 1.363 . S
C874 H877 0.929 . S
C875 C874 1.363 . S
C875 C881 1.428 . S
H876 C872 0.930 . S
H877 C874 0.929 . S
S878 N879 1.613 . S
S878 N880 1.610 . S
N879 S878 1.613 . S
N879 C882 1.350 . S
N880 S878 1.610 . S
N880 C881 1.351 . S
C881 C875 1.428 . S
C881 N880 1.351 . S
C881 C882 1.434 . S
C882 C873 1.429 . S
C882 N879 1.350 . S
C882 C881 1.434 . S
C883 C884 1.369 . S
C883 C885 1.419 . S
C883 H887 0.930 . S
C884 C883 1.369 . S
C884 C893 1.429 . S
C885 C883 1.419 . S
C885 C886 1.363 . S
C885 H888 0.929 . S
C886 C885 1.363 . S
C886 C892 1.428 . S
H887 C883 0.930 . S
H888 C885 0.929 . S
S889 N890 1.613 . S
S889 N891 1.610 . S
N890 S889 1.613 . S
N890 C893 1.350 . S
N891 S889 1.610 . S
N891 C892 1.351 . S
C892 C886 1.428 . S
C892 N891 1.351 . S
C892 C893 1.434 . S
C893 C884 1.429 . S
C893 N890 1.350 . S
C893 C892 1.434 . S
C894 C895 1.369 . S
C894 C896 1.419 1_554 S
C894 H898 0.930 . S
C895 C894 1.369 . S
C895 C904 1.429 . S
C896 C894 1.419 1_556 S
C896 C897 1.363 . S
C896 H899 0.929 . S
C897 C896 1.363 . S
C897 C903 1.428 . S
H898 C894 0.930 . S
H899 C896 0.929 . S
S900 N901 1.613 1_556 S
S900 N902 1.610 . S
N901 S900 1.613 1_554 S
N901 C904 1.350 . S
N902 S900 1.610 . S
N902 C903 1.351 . S
C903 C897 1.428 . S
C903 N902 1.351 . S
C903 C904 1.434 1_556 S
C904 C895 1.429 . S
C904 N901 1.350 . S
C904 C903 1.434 1_554 S
C905 C906 1.369 1_554 S
C905 C907 1.419 . S
C905 H909 0.930 . S
C906 C905 1.369 1_556 S
C906 C915 1.429 . S
C907 C905 1.419 . S
C907 C908 1.363 . S
C907 H910 0.929 . S
C908 C907 1.363 . S
C908 C914 1.428 1_554 S
H909 C905 0.930 . S
H910 C907 0.929 . S
S911 N912 1.613 . S
S911 N913 1.610 . S
N912 S911 1.613 . S
N912 C915 1.350 . S
N913 S911 1.610 . S
N913 C914 1.351 . S
C914 C908 1.428 1_556 S
C914 N913 1.351 . S
C914 C915 1.434 . S
C915 C906 1.429 . S
C915 N912 1.350 . S
C915 C914 1.434 . S
C916 C917 1.369 . S
C916 C918 1.419 . S
C916 H920 0.930 . S
C917 C916 1.369 . S
C917 C926 1.429 1_554 S
C918 C916 1.419 . S
C918 C919 1.363 1_554 S
C918 H921 0.929 . S
C919 C918 1.363 1_556 S
C919 C925 1.428 . S
H920 C916 0.930 . S
H921 C918 0.929 . S
S922 N923 1.613 . S
S922 N924 1.610 . S
N923 S922 1.613 . S
N923 C926 1.350 . S
N924 S922 1.610 . S
N924 C925 1.351 . S
C925 C919 1.428 . S
C925 N924 1.351 . S
C925 C926 1.434 . S
C926 C917 1.429 1_556 S
C926 N923 1.350 . S
C926 C925 1.434 . S
C927 C928 1.369 . S
C927 C929 1.419 . S
C927 H931 0.930 . S
C928 C927 1.369 . S
C928 C937 1.429 . S
C929 C927 1.419 . S
C929 C930 1.363 . S
C929 H932 0.929 . S
C930 C929 1.363 . S
C930 C936 1.428 . S
H931 C927 0.930 . S
H932 C929 0.929 . S
S933 N934 1.613 . S
S933 N935 1.610 . S
N934 S933 1.613 . S
N934 C937 1.350 . S
N935 S933 1.610 . S
N935 C936 1.351 . S
C936 C930 1.428 . S
C936 N935 1.351 . S
C936 C937 1.434 . S
C937 C928 1.429 . S
C937 N934 1.350 . S
C937 C936 1.434 . S
C938 C939 1.369 . S
C938 C940 1.419 . S
C938 H942 0.930 . S
C939 C938 1.369 . S
C939 C948 1.429 . S
C940 C938 1.419 . S
C940 C941 1.363 . S
C940 H943 0.929 . S
C941 C940 1.363 . S
C941 C947 1.428 . S
H942 C938 0.930 . S
H943 C940 0.929 . S
S944 N945 1.613 . S
S944 N946 1.610 . S
N945 S944 1.613 . S
N945 C948 1.350 . S
N946 S944 1.610 . S
N946 C947 1.351 . S
C947 C941 1.428 . S
C947 N946 1.351 . S
C947 C948 1.434 . S
C948 C939 1.429 . S
C948 N945 1.350 . S
C948 C947 1.434 . S
C949 C950 1.369 . S
C949 C951 1.419 . S
C949 H953 0.930 . S
C950 C949 1.369 . S
C950 C959 1.429 . S
C951 C949 1.419 . S
C951 C952 1.363 . S
C951 H954 0.929 . S
C952 C951 1.363 . S
C952 C958 1.428 . S
H953 C949 0.930 . S
H954 C951 0.929 . S
S955 N956 1.613 . S
S955 N957 1.610 . S
N956 S955 1.613 . S
N956 C959 1.350 . S
N957 S955 1.610 . S
N957 C958 1.351 . S
C958 C952 1.428 . S
C958 N957 1.351 . S
C958 C959 1.434 . S
C959 C950 1.429 . S
C959 N956 1.350 . S
C959 C958 1.434 . S
C960 C961 1.369 . S
C960 C962 1.419 . S
C960 H964 0.930 . S
C961 C960 1.369 . S
C961 C970 1.429 . S
C962 C960 1.419 . S
C962 C963 1.363 . S
C962 H965 0.929 . S
C963 C962 1.363 . S
C963 C969 1.428 . S
H964 C960 0.930 . S
H965 C962 0.929 . S
S966 N967 1.613 . S
S966 N968 1.610 . S
N967 S966 1.613 . S
N967 C970 1.350 . S
N968 S966 1.610 . S
N968 C969 1.351 . S
C969 C963 1.428 . S
C969 N968 1.351 . S
C969 C970 1.434 . S
C970 C961 1.429 . S
C970 N967 1.350 . S
C970 C969 1.434 . S
C971 C972 1.369 . S
C971 C973 1.419 . S
C971 H975 0.930 . S
C972 C971 1.369 . S
C972 C981 1.429 . S
C973 C971 1.419 . S
C973 C974 1.363 . S
C973 H976 0.929 . S
C974 C973 1.363 . S
C974 C980 1.428 . S
H975 C971 0.930 . S
H976 C973 0.929 . S
S977 N978 1.613 . S
S977 N979 1.610 . S
N978 S977 1.613 . S
N978 C981 1.350 . S
N979 S977 1.610 . S
N979 C980 1.351 . S
C980 C974 1.428 . S
C980 N979 1.351 . S
C980 C981 1.434 . S
C981 C972 1.429 . S
C981 N978 1.350 . S
C981 C980 1.434 . S
C982 C983 1.369 . S
C982 C984 1.419 . S
C982 H986 0.930 . S
C983 C982 1.369 . S
C983 C992 1.429 . S
C984 C982 1.419 . S
C984 C985 1.363 . S
C984 H987 0.929 . S
C985 C984 1.363 . S
C985 C991 1.428 . S
H986 C982 0.930 . S
H987 C984 0.929 . S
S988 N989 1.613 . S
S988 N990 1.610 . S
N989 S988 1.613 . S
N989 C992 1.350 . S
N990 S988 1.610 . S
N990 C991 1.351 . S
C991 C985 1.428 . S
C991 N990 1.351 . S
C991 C992 1.434 . S
C992 C983 1.429 . S
C992 N989 1.350 . S
C992 C991 1.434 . S
C993 C994 1.369 . S
C993 C995 1.419 . S
C993 H997 0.930 . S
C994 C993 1.369 . S
C994 C1003 1.429 . S
C995 C993 1.419 . S
C995 C996 1.363 . S
C995 H998 0.929 . S
C996 C995 1.363 . S
C996 C1002 1.428 . S
H997 C993 0.930 . S
H998 C995 0.929 . S
S999 N1000 1.613 . S
S999 N1001 1.610 . S
N1000 S999 1.613 . S
N1000 C1003 1.350 . S
N1001 S999 1.610 . S
N1001 C1002 1.351 . S
C1002 C996 1.428 . S
C1002 N1001 1.351 . S
C1002 C1003 1.434 . S
C1003 C994 1.429 . S
C1003 N1000 1.350 . S
C1003 C1002 1.434 . S
C1004 C1005 1.369 . S
C1004 C1006 1.419 . S
C1004 H1008 0.930 . S
C1005 C1004 1.369 . S
C1005 C1014 1.429 . S
C1006 C1004 1.419 . S
C1006 C1007 1.363 . S
C1006 H1009 0.929 . S
C1007 C1006 1.363 . S
C1007 C1013 1.428 . S
H1008 C1004 0.930 . S
H1009 C1006 0.929 . S
S1010 N1011 1.613 . S
S1010 N1012 1.610 . S
N1011 S1010 1.613 . S
N1011 C1014 1.350 . S
N1012 S1010 1.610 . S
N1012 C1013 1.351 . S
C1013 C1007 1.428 . S
C1013 N1012 1.351 . S
C1013 C1014 1.434 . S
C1014 C1005 1.429 . S
C1014 N1011 1.350 . S
C1014 C1013 1.434 . S
C1015 C1016 1.369 . S
C1015 C1017 1.419 . S
C1015 H1019 0.930 . S
C1016 C1015 1.369 . S
C1016 C1025 1.429 . S
C1017 C1015 1.419 . S
C1017 C1018 1.363 . S
C1017 H1020 0.929 . S
C1018 C1017 1.363 . S
C1018 C1024 1.428 . S
H1019 C1015 0.930 . S
H1020 C1017 0.929 . S
S1021 N1022 1.613 . S
S1021 N1023 1.610 . S
N1022 S1021 1.613 . S
N1022 C1025 1.350 . S
N1023 S1021 1.610 . S
N1023 C1024 1.351 . S
C1024 C1018 1.428 . S
C1024 N1023 1.351 . S
C1024 C1025 1.434 . S
C1025 C1016 1.429 . S
C1025 N1022 1.350 . S
C1025 C1024 1.434 . S
C1026 C1027 1.369 . S
C1026 C1028 1.419 . S
C1026 H1030 0.930 . S
C1027 C1026 1.369 . S
C1027 C1036 1.429 . S
C1028 C1026 1.419 . S
C1028 C1029 1.363 . S
C1028 H1031 0.929 . S
C1029 C1028 1.363 . S
C1029 C1035 1.428 . S
H1030 C1026 0.930 . S
H1031 C1028 0.929 . S
S1032 N1033 1.613 . S
S1032 N1034 1.610 . S
N1033 S1032 1.613 . S
N1033 C1036 1.350 . S
N1034 S1032 1.610 . S
N1034 C1035 1.351 . S
C1035 C1029 1.428 . S
C1035 N1034 1.351 . S
C1035 C1036 1.434 . S
C1036 C1027 1.429 . S
C1036 N1033 1.350 . S
C1036 C1035 1.434 . S
C1037 C1038 1.369 . S
C1037 C1039 1.419 . S
C1037 H1041 0.930 . S
C1038 C1037 1.369 . S
C1038 C1047 1.429 . S
C1039 C1037 1.419 . S
C1039 C1040 1.363 . S
C1039 H1042 0.929 . S
C1040 C1039 1.363 . S
C1040 C1046 1.428 . S
H1041 C1037 0.930 . S
H1042 C1039 0.929 . S
S1043 N1044 1.613 . S
S1043 N1045 1.610 . S
N1044 S1043 1.613 . S
N1044 C1047 1.350 . S
N1045 S1043 1.610 . S
N1045 C1046 1.351 . S
C1046 C1040 1.428 . S
C1046 N1045 1.351 . S
C1046 C1047 1.434 . S
C1047 C1038 1.429 . S
C1047 N1044 1.350 . S
C1047 C1046 1.434 . S
C1048 C1049 1.369 . S
C1048 C1050 1.419 . S
C1048 H1052 0.930 . S
C1049 C1048 1.369 . S
C1049 C1058 1.429 . S
C1050 C1048 1.419 . S
C1050 C1051 1.363 . S
C1050 H1053 0.929 . S
C1051 C1050 1.363 . S
C1051 C1057 1.428 . S
H1052 C1048 0.930 . S
H1053 C1050 0.929 . S
S1054 N1055 1.613 . S
S1054 N1056 1.610 . S
N1055 S1054 1.613 . S
N1055 C1058 1.350 . S
N1056 S1054 1.610 . S
N1056 C1057 1.351 . S
C1057 C1051 1.428 . S
C1057 N1056 1.351 . S
C1057 C1058 1.434 . S
C1058 C1049 1.429 . S
C1058 N1055 1.350 . S
C1058 C1057 1.434 . S
C1059 C1060 1.369 . S
C1059 C1061 1.419 . S
C1059 H1063 0.930 . S
C1060 C1059 1.369 . S
C1060 C1069 1.429 . S
C1061 C1059 1.419 . S
C1061 C1062 1.363 . S
C1061 H1064 0.929 . S
C1062 C1061 1.363 . S
C1062 C1068 1.428 . S
H1063 C1059 0.930 . S
H1064 C1061 0.929 . S
S1065 N1066 1.613 . S
S1065 N1067 1.610 . S
N1066 S1065 1.613 . S
N1066 C1069 1.350 . S
N1067 S1065 1.610 . S
N1067 C1068 1.351 . S
C1068 C1062 1.428 . S
C1068 N1067 1.351 . S
C1068 C1069 1.434 . S
C1069 C1060 1.429 . S
C1069 N1066 1.350 . S
C1069 C1068 1.434 . S
C1070 C1071 1.369 . S
C1070 C1072 1.419 . S
C1070 H1074 0.930 . S
C1071 C1070 1.369 . S
C1071 C1080 1.429 . S
C1072 C1070 1.419 . S
C1072 C1073 1.363 . S
C1072 H1075 0.929 . S
C1073 C1072 1.363 . S
C1073 C1079 1.428 . S
H1074 C1070 0.930 . S
H1075 C1072 0.929 . S
S1076 N1077 1.613 . S
S1076 N1078 1.610 . S
N1077 S1076 1.613 . S
N1077 C1080 1.350 . S
N1078 S1076 1.610 . S
N1078 C1079 1.351 . S
C1079 C1073 1.428 . S
C1079 N1078 1.351 . S
C1079 C1080 1.434 . S
C1080 C1071 1.429 . S
C1080 N1077 1.350 . S
C1080 C1079 1.434 . S
C1081 C1082 1.369 . S
C1081 C1083 1.419 . S
C1081 H1085 0.930 . S
C1082 C1081 1.369 . S
C1082 C1091 1.429 . S
C1083 C1081 1.419 . S
C1083 C1084 1.363 . S
C1083 H1086 0.929 . S
C1084 C1083 1.363 . S
C1084 C1090 1.428 . S
H1085 C1081 0.930 . S
H1086 C1083 0.929 . S
S1087 N1088 1.613 . S
S1087 N1089 1.610 . S
N1088 S1087 1.613 . S
N1088 C1091 1.350 . S
N1089 S1087 1.610 . S
N1089 C1090 1.351 . S
C1090 C1084 1.428 . S
C1090 N1089 1.351 . S
C1090 C1091 1.434 . S
C1091 C1082 1.429 . S
C1091 N1088 1.350 . S
C1091 C1090 1.434 . S
C1092 C1093 1.369 . S
C1092 C1094 1.419 . S
C1092 H1096 0.930 . S
C1093 C1092 1.369 . S
C1093 C1102 1.429 . S
C1094 C1092 1.419 . S
C1094 C1095 1.363 . S
C1094 H1097 0.929 . S
C1095 C1094 1.363 . S
C1095 C1101 1.428 . S
H1096 C1092 0.930 . S
H1097 C1094 0.929 . S
S1098 N1099 1.613 . S
S1098 N1100 1.610 . S
N1099 S1098 1.613 . S
N1099 C1102 1.350 . S
N1100 S1098 1.610 . S
N1100 C1101 1.351 . S
C1101 C1095 1.428 . S
C1101 N1100 1.351 . S
C1101 C1102 1.434 . S
C1102 C1093 1.429 . S
C1102 N1099 1.350 . S
C1102 C1101 1.434 . S
C1103 C1104 1.369 . S
C1103 C1105 1.419 . S
C1103 H1107 0.930 . S
C1104 C1103 1.369 . S
C1104 C1113 1.429 . S
C1105 C1103 1.419 . S
C1105 C1106 1.363 . S
C1105 H1108 0.929 . S
C1106 C1105 1.363 . S
C1106 C1112 1.428 . S
H1107 C1103 0.930 . S
H1108 C1105 0.929 . S
S1109 N1110 1.613 . S
S1109 N1111 1.610 . S
N1110 S1109 1.613 . S
N1110 C1113 1.350 . S
N1111 S1109 1.610 . S
N1111 C1112 1.351 . S
C1112 C1106 1.428 . S
C1112 N1111 1.351 . S
C1112 C1113 1.434 . S
C1113 C1104 1.429 . S
C1113 N1110 1.350 . S
C1113 C1112 1.434 . S
C1114 C1115 1.369 . S
C1114 C1116 1.419 . S
C1114 H1118 0.930 . S
C1115 C1114 1.369 . S
C1115 C1124 1.429 . S
C1116 C1114 1.419 . S
C1116 C1117 1.363 . S
C1116 H1119 0.929 . S
C1117 C1116 1.363 . S
C1117 C1123 1.428 . S
H1118 C1114 0.930 . S
H1119 C1116 0.929 . S
S1120 N1121 1.613 . S
S1120 N1122 1.610 . S
N1121 S1120 1.613 . S
N1121 C1124 1.350 . S
N1122 S1120 1.610 . S
N1122 C1123 1.351 . S
C1123 C1117 1.428 . S
C1123 N1122 1.351 . S
C1123 C1124 1.434 . S
C1124 C1115 1.429 . S
C1124 N1121 1.350 . S
C1124 C1123 1.434 . S
C1125 C1126 1.369 . S
C1125 C1127 1.419 . S
C1125 H1129 0.930 . S
C1126 C1125 1.369 . S
C1126 C1135 1.429 . S
C1127 C1125 1.419 . S
C1127 C1128 1.363 . S
C1127 H1130 0.929 . S
C1128 C1127 1.363 . S
C1128 C1134 1.428 . S
H1129 C1125 0.930 . S
H1130 C1127 0.929 . S
S1131 N1132 1.613 . S
S1131 N1133 1.610 . S
N1132 S1131 1.613 . S
N1132 C1135 1.350 . S
N1133 S1131 1.610 . S
N1133 C1134 1.351 . S
C1134 C1128 1.428 . S
C1134 N1133 1.351 . S
C1134 C1135 1.434 . S
C1135 C1126 1.429 . S
C1135 N1132 1.350 . S
C1135 C1134 1.434 . S
C1136 C1137 1.369 . S
C1136 C1138 1.419 . S
C1136 H1140 0.930 . S
C1137 C1136 1.369 . S
C1137 C1146 1.429 . S
C1138 C1136 1.419 . S
C1138 C1139 1.363 . S
C1138 H1141 0.929 . S
C1139 C1138 1.363 . S
C1139 C1145 1.428 . S
H1140 C1136 0.930 . S
H1141 C1138 0.929 . S
S1142 N1143 1.613 . S
S1142 N1144 1.610 . S
N1143 S1142 1.613 . S
N1143 C1146 1.350 . S
N1144 S1142 1.610 . S
N1144 C1145 1.351 . S
C1145 C1139 1.428 . S
C1145 N1144 1.351 . S
C1145 C1146 1.434 . S
C1146 C1137 1.429 . S
C1146 N1143 1.350 . S
C1146 C1145 1.434 . S
C1147 C1148 1.369 . S
C1147 C1149 1.419 . S
C1147 H1151 0.930 . S
C1148 C1147 1.369 . S
C1148 C1157 1.429 . S
C1149 C1147 1.419 . S
C1149 C1150 1.363 . S
C1149 H1152 0.929 . S
C1150 C1149 1.363 . S
C1150 C1156 1.428 . S
H1151 C1147 0.930 . S
H1152 C1149 0.929 . S
S1153 N1154 1.613 . S
S1153 N1155 1.610 . S
N1154 S1153 1.613 . S
N1154 C1157 1.350 . S
N1155 S1153 1.610 . S
N1155 C1156 1.351 . S
C1156 C1150 1.428 . S
C1156 N1155 1.351 . S
C1156 C1157 1.434 . S
C1157 C1148 1.429 . S
C1157 N1154 1.350 . S
C1157 C1156 1.434 . S
C1158 C1159 1.369 . S
C1158 C1160 1.419 . S
C1158 H1162 0.930 . S
C1159 C1158 1.369 . S
C1159 C1168 1.429 . S
C1160 C1158 1.419 . S
C1160 C1161 1.363 . S
C1160 H1163 0.929 . S
C1161 C1160 1.363 . S
C1161 C1167 1.428 . S
H1162 C1158 0.930 . S
H1163 C1160 0.929 . S
S1164 N1165 1.613 . S
S1164 N1166 1.610 . S
N1165 S1164 1.613 . S
N1165 C1168 1.350 . S
N1166 S1164 1.610 . S
N1166 C1167 1.351 . S
C1167 C1161 1.428 . S
C1167 N1166 1.351 . S
C1167 C1168 1.434 . S
C1168 C1159 1.429 . S
C1168 N1165 1.350 . S
C1168 C1167 1.434 . S
C1169 C1170 1.369 . S
C1169 C1171 1.419 . S
C1169 H1173 0.930 . S
C1170 C1169 1.369 . S
C1170 C1179 1.429 . S
C1171 C1169 1.419 . S
C1171 C1172 1.363 . S
C1171 H1174 0.929 . S
C1172 C1171 1.363 . S
C1172 C1178 1.428 . S
H1173 C1169 0.930 . S
H1174 C1171 0.929 . S
S1175 N1176 1.613 . S
S1175 N1177 1.610 . S
N1176 S1175 1.613 . S
N1176 C1179 1.350 . S
N1177 S1175 1.610 . S
N1177 C1178 1.351 . S
C1178 C1172 1.428 . S
C1178 N1177 1.351 . S
C1178 C1179 1.434 . S
C1179 C1170 1.429 . S
C1179 N1176 1.350 . S
C1179 C1178 1.434 . S
C1180 C1181 1.369 . S
C1180 C1182 1.419 . S
C1180 H1184 0.930 . S
C1181 C1180 1.369 . S
C1181 C1190 1.429 . S
C1182 C1180 1.419 . S
C1182 C1183 1.363 . S
C1182 H1185 0.929 . S
C1183 C1182 1.363 . S
C1183 C1189 1.428 . S
H1184 C1180 0.930 . S
H1185 C1182 0.929 . S
S1186 N1187 1.613 . S
S1186 N1188 1.610 . S
N1187 S1186 1.613 . S
N1187 C1190 1.350 . S
N1188 S1186 1.610 . S
N1188 C1189 1.351 . S
C1189 C1183 1.428 . S
C1189 N1188 1.351 . S
C1189 C1190 1.434 . S
C1190 C1181 1.429 . S
C1190 N1187 1.350 . S
C1190 C1189 1.434 . S
C1191 C1192 1.369 . S
C1191 C1193 1.419 . S
C1191 H1195 0.930 . S
C1192 C1191 1.369 . S
C1192 C1201 1.429 . S
C1193 C1191 1.419 . S
C1193 C1194 1.363 . S
C1193 H1196 0.929 . S
C1194 C1193 1.363 . S
C1194 C1200 1.428 . S
H1195 C1191 0.930 . S
H1196 C1193 0.929 . S
S1197 N1198 1.613 . S
S1197 N1199 1.610 . S
N1198 S1197 1.613 . S
N1198 C1201 1.350 . S
N1199 S1197 1.610 . S
N1199 C1200 1.351 . S
C1200 C1194 1.428 . S
C1200 N1199 1.351 . S
C1200 C1201 1.434 . S
C1201 C1192 1.429 . S
C1201 N1198 1.350 . S
C1201 C1200 1.434 . S
C1202 C1203 1.369 . S
C1202 C1204 1.419 . S
C1202 H1206 0.930 . S
C1203 C1202 1.369 . S
C1203 C1212 1.429 . S
C1204 C1202 1.419 . S
C1204 C1205 1.363 . S
C1204 H1207 0.929 . S
C1205 C1204 1.363 . S
C1205 C1211 1.428 . S
H1206 C1202 0.930 . S
H1207 C1204 0.929 . S
S1208 N1209 1.613 . S
S1208 N1210 1.610 . S
N1209 S1208 1.613 . S
N1209 C1212 1.350 . S
N1210 S1208 1.610 . S
N1210 C1211 1.351 . S
C1211 C1205 1.428 . S
C1211 N1210 1.351 . S
C1211 C1212 1.434 . S
C1212 C1203 1.429 . S
C1212 N1209 1.350 . S
C1212 C1211 1.434 . S
C1213 C1214 1.369 . S
C1213 C1215 1.419 . S
C1213 H1217 0.930 . S
C1214 C1213 1.369 . S
C1214 C1223 1.429 . S
C1215 C1213 1.419 . S
C1215 C1216 1.363 . S
C1215 H1218 0.929 . S
C1216 C1215 1.363 . S
C1216 C1222 1.428 . S
H1217 C1213 0.930 . S
H1218 C1215 0.929 . S
S1219 N1220 1.613 . S
S1219 N1221 1.610 . S
N1220 S1219 1.613 . S
N1220 C1223 1.350 . S
N1221 S1219 1.610 . S
N1221 C1222 1.351 . S
C1222 C1216 1.428 . S
C1222 N1221 1.351 . S
C1222 C1223 1.434 . S
C1223 C1214 1.429 . S
C1223 N1220 1.350 . S
C1223 C1222 1.434 . S
C1224 C1225 1.369 . S
C1224 C1226 1.419 . S
C1224 H1228 0.930 . S
C1225 C1224 1.369 . S
C1225 C1234 1.429 . S
C1226 C1224 1.419 . S
C1226 C1227 1.363 . S
C1226 H1229 0.929 . S
C1227 C1226 1.363 . S
C1227 C1233 1.428 . S
H1228 C1224 0.930 . S
H1229 C1226 0.929 . S
S1230 N1231 1.613 . S
S1230 N1232 1.610 . S
N1231 S1230 1.613 . S
N1231 C1234 1.350 . S
N1232 S1230 1.610 . S
N1232 C1233 1.351 . S
C1233 C1227 1.428 . S
C1233 N1232 1.351 . S
C1233 C1234 1.434 . S
C1234 C1225 1.429 . S
C1234 N1231 1.350 . S
C1234 C1233 1.434 . S
C1235 C1236 1.369 . S
C1235 C1237 1.419 . S
C1235 H1239 0.930 . S
C1236 C1235 1.369 . S
C1236 C1245 1.429 . S
C1237 C1235 1.419 . S
C1237 C1238 1.363 . S
C1237 H1240 0.929 . S
C1238 C1237 1.363 . S
C1238 C1244 1.428 . S
H1239 C1235 0.930 . S
H1240 C1237 0.929 . S
S1241 N1242 1.613 . S
S1241 N1243 1.610 . S
N1242 S1241 1.613 . S
N1242 C1245 1.350 . S
N1243 S1241 1.610 . S
N1243 C1244 1.351 . S
C1244 C1238 1.428 . S
C1244 N1243 1.351 . S
C1244 C1245 1.434 . S
C1245 C1236 1.429 . S
C1245 N1242 1.350 . S
C1245 C1244 1.434 . S
C1246 C1247 1.369 . S
C1246 C1248 1.419 . S
C1246 H1250 0.930 . S
C1247 C1246 1.369 . S
C1247 C1256 1.429 . S
C1248 C1246 1.419 . S
C1248 C1249 1.363 . S
C1248 H1251 0.929 . S
C1249 C1248 1.363 . S
C1249 C1255 1.428 . S
H1250 C1246 0.930 . S
H1251 C1248 0.929 . S
S1252 N1253 1.613 . S
S1252 N1254 1.610 . S
N1253 S1252 1.613 . S
N1253 C1256 1.350 . S
N1254 S1252 1.610 . S
N1254 C1255 1.351 . S
C1255 C1249 1.428 . S
C1255 N1254 1.351 . S
C1255 C1256 1.434 . S
C1256 C1247 1.429 . S
C1256 N1253 1.350 . S
C1256 C1255 1.434 . S
C1257 C1258 1.369 . S
C1257 C1259 1.419 . S
C1257 H1261 0.930 . S
C1258 C1257 1.369 . S
C1258 C1267 1.429 . S
C1259 C1257 1.419 . S
C1259 C1260 1.363 . S
C1259 H1262 0.929 . S
C1260 C1259 1.363 . S
C1260 C1266 1.428 . S
H1261 C1257 0.930 . S
H1262 C1259 0.929 . S
S1263 N1264 1.613 . S
S1263 N1265 1.610 . S
N1264 S1263 1.613 . S
N1264 C1267 1.350 . S
N1265 S1263 1.610 . S
N1265 C1266 1.351 . S
C1266 C1260 1.428 . S
C1266 N1265 1.351 . S
C1266 C1267 1.434 . S
C1267 C1258 1.429 . S
C1267 N1264 1.350 . S
C1267 C1266 1.434 . S
C1268 C1269 1.369 . S
C1268 C1270 1.419 . S
C1268 H1272 0.930 . S
C1269 C1268 1.369 . S
C1269 C1278 1.429 . S
C1270 C1268 1.419 . S
C1270 C1271 1.363 . S
C1270 H1273 0.929 . S
C1271 C1270 1.363 . S
C1271 C1277 1.428 . S
H1272 C1268 0.930 . S
H1273 C1270 0.929 . S
S1274 N1275 1.613 . S
S1274 N1276 1.610 . S
N1275 S1274 1.613 . S
N1275 C1278 1.350 . S
N1276 S1274 1.610 . S
N1276 C1277 1.351 . S
C1277 C1271 1.428 . S
C1277 N1276 1.351 . S
C1277 C1278 1.434 . S
C1278 C1269 1.429 . S
C1278 N1275 1.350 . S
C1278 C1277 1.434 . S
C1279 C1280 1.369 . S
C1279 C1281 1.419 . S
C1279 H1283 0.930 . S
C1280 C1279 1.369 . S
C1280 C1289 1.429 . S
C1281 C1279 1.419 . S
C1281 C1282 1.363 . S
C1281 H1284 0.929 . S
C1282 C1281 1.363 . S
C1282 C1288 1.428 . S
H1283 C1279 0.930 . S
H1284 C1281 0.929 . S
S1285 N1286 1.613 . S
S1285 N1287 1.610 . S
N1286 S1285 1.613 . S
N1286 C1289 1.350 . S
N1287 S1285 1.610 . S
N1287 C1288 1.351 . S
C1288 C1282 1.428 . S
C1288 N1287 1.351 . S
C1288 C1289 1.434 . S
C1289 C1280 1.429 . S
C1289 N1286 1.350 . S
C1289 C1288 1.434 . S
C1290 C1291 1.369 . S
C1290 C1292 1.419 . S
C1290 H1294 0.930 . S
C1291 C1290 1.369 . S
C1291 C1300 1.429 . S
C1292 C1290 1.419 . S
C1292 C1293 1.363 . S
C1292 H1295 0.929 . S
C1293 C1292 1.363 . S
C1293 C1299 1.428 . S
H1294 C1290 0.930 . S
H1295 C1292 0.929 . S
S1296 N1297 1.613 . S
S1296 N1298 1.610 . S
N1297 S1296 1.613 . S
N1297 C1300 1.350 . S
N1298 S1296 1.610 . S
N1298 C1299 1.351 . S
C1299 C1293 1.428 . S
C1299 N1298 1.351 . S
C1299 C1300 1.434 . S
C1300 C1291 1.429 . S
C1300 N1297 1.350 . S
C1300 C1299 1.434 . S
C1301 C1302 1.369 . S
C1301 C1303 1.419 . S
C1301 H1305 0.930 . S
C1302 C1301 1.369 . S
C1302 C1311 1.429 . S
C1303 C1301 1.419 . S
C1303 C1304 1.363 . S
C1303 H1306 0.929 . S
C1304 C1303 1.363 . S
C1304 C1310 1.428 . S
H1305 C1301 0.930 . S
H1306 C1303 0.929 . S
S1307 N1308 1.613 . S
S1307 N1309 1.610 . S
N1308 S1307 1.613 . S
N1308 C1311 1.350 . S
N1309 S1307 1.610 . S
N1309 C1310 1.351 . S
C1310 C1304 1.428 . S
C1310 N1309 1.351 . S
C1310 C1311 1.434 . S
C1311 C1302 1.429 . S
C1311 N1308 1.350 . S
C1311 C1310 1.434 . S
C1312 C1313 1.369 . S
C1312 C1314 1.419 . S
C1312 H1316 0.930 . S
C1313 C1312 1.369 . S
C1313 C1322 1.429 . S
C1314 C1312 1.419 . S
C1314 C1315 1.363 . S
C1314 H1317 0.929 . S
C1315 C1314 1.363 . S
C1315 C1321 1.428 . S
H1316 C1312 0.930 . S
H1317 C1314 0.929 . S
S1318 N1319 1.613 . S
S1318 N1320 1.610 . S
N1319 S1318 1.613 . S
N1319 C1322 1.350 . S
N1320 S1318 1.610 . S
N1320 C1321 1.351 . S
C1321 C1315 1.428 . S
C1321 N1320 1.351 . S
C1321 C1322 1.434 . S
C1322 C1313 1.429 . S
C1322 N1319 1.350 . S
C1322 C1321 1.434 . S
C1323 C1324 1.369 . S
C1323 C1325 1.419 . S
C1323 H1327 0.930 . S
C1324 C1323 1.369 . S
C1324 C1333 1.429 . S
C1325 C1323 1.419 . S
C1325 C1326 1.363 . S
C1325 H1328 0.929 . S
C1326 C1325 1.363 . S
C1326 C1332 1.428 . S
H1327 C1323 0.930 . S
H1328 C1325 0.929 . S
S1329 N1330 1.613 . S
S1329 N1331 1.610 . S
N1330 S1329 1.613 . S
N1330 C1333 1.350 . S
N1331 S1329 1.610 . S
N1331 C1332 1.351 . S
C1332 C1326 1.428 . S
C1332 N1331 1.351 . S
C1332 C1333 1.434 . S
C1333 C1324 1.429 . S
C1333 N1330 1.350 . S
C1333 C1332 1.434 . S
C1334 C1335 1.369 . S
C1334 C1336 1.419 . S
C1334 H1338 0.930 . S
C1335 C1334 1.369 . S
C1335 C1344 1.429 . S
C1336 C1334 1.419 . S
C1336 C1337 1.363 . S
C1336 H1339 0.929 . S
C1337 C1336 1.363 . S
C1337 C1343 1.428 . S
H1338 C1334 0.930 . S
H1339 C1336 0.929 . S
S1340 N1341 1.613 . S
S1340 N1342 1.610 . S
N1341 S1340 1.613 . S
N1341 C1344 1.350 . S
N1342 S1340 1.610 . S
N1342 C1343 1.351 . S
C1343 C1337 1.428 . S
C1343 N1342 1.351 . S
C1343 C1344 1.434 . S
C1344 C1335 1.429 . S
C1344 N1341 1.350 . S
C1344 C1343 1.434 . S
C1345 C1346 1.369 . S
C1345 C1347 1.419 . S
C1345 H1349 0.930 . S
C1346 C1345 1.369 . S
C1346 C1355 1.429 . S
C1347 C1345 1.419 . S
C1347 C1348 1.363 . S
C1347 H1350 0.929 . S
C1348 C1347 1.363 . S
C1348 C1354 1.428 . S
H1349 C1345 0.930 . S
H1350 C1347 0.929 . S
S1351 N1352 1.613 . S
S1351 N1353 1.610 . S
N1352 S1351 1.613 . S
N1352 C1355 1.350 . S
N1353 S1351 1.610 . S
N1353 C1354 1.351 . S
C1354 C1348 1.428 . S
C1354 N1353 1.351 . S
C1354 C1355 1.434 . S
C1355 C1346 1.429 . S
C1355 N1352 1.350 . S
C1355 C1354 1.434 . S
C1356 C1357 1.369 1_455 S
C1356 C1358 1.419 . S
C1356 H1360 0.930 . S
C1357 C1356 1.369 1_655 S
C1357 C1366 1.429 . S
C1358 C1356 1.419 . S
C1358 C1359 1.363 . S
C1358 H1361 0.929 . S
C1359 C1358 1.363 . S
C1359 C1365 1.428 1_455 S
H1360 C1356 0.930 . S
H1361 C1358 0.929 . S
S1362 N1363 1.613 . S
S1362 N1364 1.610 . S
N1363 S1362 1.613 . S
N1363 C1366 1.350 . S
N1364 S1362 1.610 . S
N1364 C1365 1.351 . S
C1365 C1359 1.428 1_655 S
C1365 N1364 1.351 . S
C1365 C1366 1.434 . S
C1366 C1357 1.429 . S
C1366 N1363 1.350 . S
C1366 C1365 1.434 . S
C1367 C1368 1.369 . S
C1367 C1369 1.419 . S
C1367 H1371 0.930 . S
C1368 C1367 1.369 . S
C1368 C1377 1.429 . S
C1369 C1367 1.419 . S
C1369 C1370 1.363 . S
C1369 H1372 0.929 . S
C1370 C1369 1.363 . S
C1370 C1376 1.428 . S
H1371 C1367 0.930 . S
H1372 C1369 0.929 . S
S1373 N1374 1.613 . S
S1373 N1375 1.610 . S
N1374 S1373 1.613 . S
N1374 C1377 1.350 . S
N1375 S1373 1.610 . S
N1375 C1376 1.351 . S
C1376 C1370 1.428 . S
C1376 N1375 1.351 . S
C1376 C1377 1.434 . S
C1377 C1368 1.429 . S
C1377 N1374 1.350 . S
C1377 C1376 1.434 . S
C1378 C1379 1.369 1_565 S
C1378 C1380 1.419 . S
C1378 H1382 0.930 . S
C1379 C1378 1.369 1_545 S
C1379 C1388 1.429 . S
C1380 C1378 1.419 . S
C1380 C1381 1.363 . S
C1380 H1383 0.929 . S
C1381 C1380 1.363 . S
C1381 C1387 1.428 1_565 S
H1382 C1378 0.930 . S
H1383 C1380 0.929 . S
S1384 N1385 1.613 . S
S1384 N1386 1.610 . S
N1385 S1384 1.613 . S
N1385 C1388 1.350 . S
N1386 S1384 1.610 . S
N1386 C1387 1.351 . S
C1387 C1381 1.428 1_545 S
C1387 N1386 1.351 . S
C1387 C1388 1.434 . S
C1388 C1379 1.429 . S
C1388 N1385 1.350 . S
C1388 C1387 1.434 . S
C1389 C1390 1.369 1_556 S
C1389 C1391 1.419 1_565 S
C1389 H1393 0.930 . S
C1390 C1389 1.369 1_554 S
C1390 C1399 1.429 . S
C1391 C1389 1.419 1_545 S
C1391 C1392 1.363 . S
C1391 H1394 0.929 . S
C1392 C1391 1.363 . S
C1392 C1398 1.428 1_556 S
H1393 C1389 0.930 . S
H1394 C1391 0.929 . S
S1395 N1396 1.613 1_545 S
S1395 N1397 1.610 . S
N1396 S1395 1.613 1_565 S
N1396 C1399 1.350 . S
N1397 S1395 1.610 . S
N1397 C1398 1.351 . S
C1398 C1392 1.428 1_554 S
C1398 N1397 1.351 . S
C1398 C1399 1.434 1_545 S
C1399 C1390 1.429 . S
C1399 N1396 1.350 . S
C1399 C1398 1.434 1_565 S
C1400 C1401 1.369 1_455 S
C1400 C1402 1.419 . S
C1400 H1404 0.930 . S
C1401 C1400 1.369 1_655 S
C1401 C1410 1.429 1_556 S
C1402 C1400 1.419 . S
C1402 C1403 1.363 1_556 S
C1402 H1405 0.929 . S
C1403 C1402 1.363 1_554 S
C1403 C1409 1.428 1_455 S
H1404 C1400 0.930 . S
H1405 C1402 0.929 . S
S1406 N1407 1.613 . S
S1406 N1408 1.610 . S
N1407 S1406 1.613 . S
N1407 C1410 1.350 . S
N1408 S1406 1.610 . S
N1408 C1409 1.351 . S
C1409 C1403 1.428 1_655 S
C1409 N1408 1.351 . S
C1409 C1410 1.434 . S
C1410 C1401 1.429 1_554 S
C1410 N1407 1.350 . S
C1410 C1409 1.434 . S
C1411 C1412 1.369 . S
C1411 C1413 1.419 . S
C1411 H1415 0.930 . S
C1412 C1411 1.369 . S
C1412 C1421 1.429 1_554 S
C1413 C1411 1.419 . S
C1413 C1414 1.363 1_554 S
C1413 H1416 0.929 . S
C1414 C1413 1.363 1_556 S
C1414 C1420 1.428 . S
H1415 C1411 0.930 . S
H1416 C1413 0.929 . S
S1417 N1418 1.613 . S
S1417 N1419 1.610 . S
N1418 S1417 1.613 . S
N1418 C1421 1.350 . S
N1419 S1417 1.610 . S
N1419 C1420 1.351 . S
C1420 C1414 1.428 . S
C1420 N1419 1.351 . S
C1420 C1421 1.434 . S
C1421 C1412 1.429 1_556 S
C1421 N1418 1.350 . S
C1421 C1420 1.434 . S
C1422 C1423 1.369 . S
C1422 C1424 1.419 . S
C1422 H1426 0.930 . S
C1423 C1422 1.369 . S
C1423 C1432 1.429 . S
C1424 C1422 1.419 . S
C1424 C1425 1.363 . S
C1424 H1427 0.929 . S
C1425 C1424 1.363 . S
C1425 C1431 1.428 . S
H1426 C1422 0.930 . S
H1427 C1424 0.929 . S
S1428 N1429 1.613 . S
S1428 N1430 1.610 . S
N1429 S1428 1.613 . S
N1429 C1432 1.350 . S
N1430 S1428 1.610 . S
N1430 C1431 1.351 . S
C1431 C1425 1.428 . S
C1431 N1430 1.351 . S
C1431 C1432 1.434 . S
C1432 C1423 1.429 . S
C1432 N1429 1.350 . S
C1432 C1431 1.434 . S
C1433 C1434 1.369 . S
C1433 C1435 1.419 . S
C1433 H1437 0.930 . S
C1434 C1433 1.369 . S
C1434 C1443 1.429 . S
C1435 C1433 1.419 . S
C1435 C1436 1.363 . S
C1435 H1438 0.929 . S
C1436 C1435 1.363 . S
C1436 C1442 1.428 . S
H1437 C1433 0.930 . S
H1438 C1435 0.929 . S
S1439 N1440 1.613 . S
S1439 N1441 1.610 . S
N1440 S1439 1.613 . S
N1440 C1443 1.350 . S
N1441 S1439 1.610 . S
N1441 C1442 1.351 . S
C1442 C1436 1.428 . S
C1442 N1441 1.351 . S
C1442 C1443 1.434 . S
C1443 C1434 1.429 . S
C1443 N1440 1.350 . S
C1443 C1442 1.434 . S
C1444 C1445 1.369 . S
C1444 C1446 1.419 . S
C1444 H1448 0.930 . S
C1445 C1444 1.369 . S
C1445 C1454 1.429 . S
C1446 C1444 1.419 . S
C1446 C1447 1.363 . S
C1446 H1449 0.929 . S
C1447 C1446 1.363 . S
C1447 C1453 1.428 . S
H1448 C1444 0.930 . S
H1449 C1446 0.929 . S
S1450 N1451 1.613 . S
S1450 N1452 1.610 . S
N1451 S1450 1.613 . S
N1451 C1454 1.350 . S
N1452 S1450 1.610 . S
N1452 C1453 1.351 . S
C1453 C1447 1.428 . S
C1453 N1452 1.351 . S
C1453 C1454 1.434 . S
C1454 C1445 1.429 . S
C1454 N1451 1.350 . S
C1454 C1453 1.434 . S
C1455 C1456 1.369 . S
C1455 C1457 1.419 . S
C1455 H1459 0.930 . S
C1456 C1455 1.369 . S
C1456 C1465 1.429 . S
C1457 C1455 1.419 . S
C1457 C1458 1.363 . S
C1457 H1460 0.929 . S
C1458 C1457 1.363 . S
C1458 C1464 1.428 . S
H1459 C1455 0.930 . S
H1460 C1457 0.929 . S
S1461 N1462 1.613 . S
S1461 N1463 1.610 . S
N1462 S1461 1.613 . S
N1462 C1465 1.350 . S
N1463 S1461 1.610 . S
N1463 C1464 1.351 . S
C1464 C1458 1.428 . S
C1464 N1463 1.351 . S
C1464 C1465 1.434 . S
C1465 C1456 1.429 . S
C1465 N1462 1.350 . S
C1465 C1464 1.434 . S
C1466 C1467 1.369 . S
C1466 C1468 1.419 . S
C1466 H1470 0.930 . S
C1467 C1466 1.369 . S
C1467 C1476 1.429 . S
C1468 C1466 1.419 . S
C1468 C1469 1.363 . S
C1468 H1471 0.929 . S
C1469 C1468 1.363 . S
C1469 C1475 1.428 . S
H1470 C1466 0.930 . S
H1471 C1468 0.929 . S
S1472 N1473 1.613 . S
S1472 N1474 1.610 . S
N1473 S1472 1.613 . S
N1473 C1476 1.350 . S
N1474 S1472 1.610 . S
N1474 C1475 1.351 . S
C1475 C1469 1.428 . S
C1475 N1474 1.351 . S
C1475 C1476 1.434 . S
C1476 C1467 1.429 . S
C1476 N1473 1.350 . S
C1476 C1475 1.434 . S
C1477 C1478 1.369 . S
C1477 C1479 1.419 . S
C1477 H1481 0.930 . S
C1478 C1477 1.369 . S
C1478 C1487 1.429 . S
C1479 C1477 1.419 . S
C1479 C1480 1.363 . S
C1479 H1482 0.929 . S
C1480 C1479 1.363 . S
C1480 C1486 1.428 . S
H1481 C1477 0.930 . S
H1482 C1479 0.929 . S
S1483 N1484 1.613 . S
S1483 N1485 1.610 . S
N1484 S1483 1.613 . S
N1484 C1487 1.350 . S
N1485 S1483 1.610 . S
N1485 C1486 1.351 . S
C1486 C1480 1.428 . S
C1486 N1485 1.351 . S
C1486 C1487 1.434 . S
C1487 C1478 1.429 . S
C1487 N1484 1.350 . S
C1487 C1486 1.434 . S
C1488 C1489 1.369 . S
C1488 C1490 1.419 . S
C1488 H1492 0.930 . S
C1489 C1488 1.369 . S
C1489 C1498 1.429 . S
C1490 C1488 1.419 . S
C1490 C1491 1.363 . S
C1490 H1493 0.929 . S
C1491 C1490 1.363 . S
C1491 C1497 1.428 . S
H1492 C1488 0.930 . S
H1493 C1490 0.929 . S
S1494 N1495 1.613 . S
S1494 N1496 1.610 . S
N1495 S1494 1.613 . S
N1495 C1498 1.350 . S
N1496 S1494 1.610 . S
N1496 C1497 1.351 . S
C1497 C1491 1.428 . S
C1497 N1496 1.351 . S
C1497 C1498 1.434 . S
C1498 C1489 1.429 . S
C1498 N1495 1.350 . S
C1498 C1497 1.434 . S
C1499 C1500 1.369 . S
C1499 C1501 1.419 . S
C1499 H1503 0.930 . S
C1500 C1499 1.369 . S
C1500 C1509 1.429 . S
C1501 C1499 1.419 . S
C1501 C1502 1.363 . S
C1501 H1504 0.929 . S
C1502 C1501 1.363 . S
C1502 C1508 1.428 . S
H1503 C1499 0.930 . S
H1504 C1501 0.929 . S
S1505 N1506 1.613 . S
S1505 N1507 1.610 . S
N1506 S1505 1.613 . S
N1506 C1509 1.350 . S
N1507 S1505 1.610 . S
N1507 C1508 1.351 . S
C1508 C1502 1.428 . S
C1508 N1507 1.351 . S
C1508 C1509 1.434 . S
C1509 C1500 1.429 . S
C1509 N1506 1.350 . S
C1509 C1508 1.434 . S
C1510 C1511 1.369 . S
C1510 C1512 1.419 . S
C1510 H1514 0.930 . S
C1511 C1510 1.369 . S
C1511 C1520 1.429 . S
C1512 C1510 1.419 . S
C1512 C1513 1.363 . S
C1512 H1515 0.929 . S
C1513 C1512 1.363 . S
C1513 C1519 1.428 . S
H1514 C1510 0.930 . S
H1515 C1512 0.929 . S
S1516 N1517 1.613 . S
S1516 N1518 1.610 . S
N1517 S1516 1.613 . S
N1517 C1520 1.350 . S
N1518 S1516 1.610 . S
N1518 C1519 1.351 . S
C1519 C1513 1.428 . S
C1519 N1518 1.351 . S
C1519 C1520 1.434 . S
C1520 C1511 1.429 . S
C1520 N1517 1.350 . S
C1520 C1519 1.434 . S
C1521 C1522 1.369 . S
C1521 C1523 1.419 . S
C1521 H1525 0.930 . S
C1522 C1521 1.369 . S
C1522 C1531 1.429 . S
C1523 C1521 1.419 . S
C1523 C1524 1.363 . S
C1523 H1526 0.929 . S
C1524 C1523 1.363 . S
C1524 C1530 1.428 . S
H1525 C1521 0.930 . S
H1526 C1523 0.929 . S
S1527 N1528 1.613 . S
S1527 N1529 1.610 . S
N1528 S1527 1.613 . S
N1528 C1531 1.350 . S
N1529 S1527 1.610 . S
N1529 C1530 1.351 . S
C1530 C1524 1.428 . S
C1530 N1529 1.351 . S
C1530 C1531 1.434 . S
C1531 C1522 1.429 . S
C1531 N1528 1.350 . S
C1531 C1530 1.434 . S
C1532 C1533 1.369 . S
C1532 C1534 1.419 . S
C1532 H1536 0.930 . S
C1533 C1532 1.369 . S
C1533 C1542 1.429 . S
C1534 C1532 1.419 . S
C1534 C1535 1.363 . S
C1534 H1537 0.929 . S
C1535 C1534 1.363 . S
C1535 C1541 1.428 . S
H1536 C1532 0.930 . S
H1537 C1534 0.929 . S
S1538 N1539 1.613 . S
S1538 N1540 1.610 . S
N1539 S1538 1.613 . S
N1539 C1542 1.350 . S
N1540 S1538 1.610 . S
N1540 C1541 1.351 . S
C1541 C1535 1.428 . S
C1541 N1540 1.351 . S
C1541 C1542 1.434 . S
C1542 C1533 1.429 . S
C1542 N1539 1.350 . S
C1542 C1541 1.434 . S
C1543 C1544 1.369 . S
C1543 C1545 1.419 . S
C1543 H1547 0.930 . S
C1544 C1543 1.369 . S
C1544 C1553 1.429 . S
C1545 C1543 1.419 . S
C1545 C1546 1.363 . S
C1545 H1548 0.929 . S
C1546 C1545 1.363 . S
C1546 C1552 1.428 . S
H1547 C1543 0.930 . S
H1548 C1545 0.929 . S
S1549 N1550 1.613 . S
S1549 N1551 1.610 . S
N1550 S1549 1.613 . S
N1550 C1553 1.350 . S
N1551 S1549 1.610 . S
N1551 C1552 1.351 . S
C1552 C1546 1.428 . S
C1552 N1551 1.351 . S
C1552 C1553 1.434 . S
C1553 C1544 1.429 . S
C1553 N1550 1.350 . S
C1553 C1552 1.434 . S
C1554 C1555 1.369 . S
C1554 C1556 1.419 1_455 S
C1554 H1558 0.930 . S
C1555 C1554 1.369 . S
C1555 C1564 1.429 . S
C1556 C1554 1.419 1_655 S
C1556 C1557 1.363 . S
C1556 H1559 0.929 . S
C1557 C1556 1.363 . S
C1557 C1563 1.428 . S
H1558 C1554 0.930 . S
H1559 C1556 0.929 . S
S1560 N1561 1.613 . S
S1560 N1562 1.643 . S
N1561 S1560 1.613 . S
N1561 C1564 1.350 . S
N1562 S1560 1.643 . S
N1562 C1563 1.338 1_455 S
C1563 C1557 1.428 . S
C1563 N1562 1.338 1_655 S
C1563 C1564 1.434 1_655 S
C1564 C1555 1.429 . S
C1564 N1561 1.350 . S
C1564 C1563 1.434 1_455 S
C1565 C1566 1.369 . S
C1565 C1567 1.419 . S
C1565 H1569 0.930 . S
C1566 C1565 1.369 . S
C1566 C1575 1.429 . S
C1567 C1565 1.419 . S
C1567 C1568 1.363 . S
C1567 H1570 0.929 . S
C1568 C1567 1.363 . S
C1568 C1574 1.428 . S
H1569 C1565 0.930 . S
H1570 C1567 0.929 . S
S1571 N1572 1.613 . S
S1571 N1573 1.610 . S
N1572 S1571 1.613 . S
N1572 C1575 1.350 . S
N1573 S1571 1.610 . S
N1573 C1574 1.351 . S
C1574 C1568 1.428 . S
C1574 N1573 1.351 . S
C1574 C1575 1.434 . S
C1575 C1566 1.429 . S
C1575 N1572 1.350 . S
C1575 C1574 1.434 . S
C1576 C1577 1.369 . S
C1576 C1578 1.419 1_545 S
C1576 H1580 0.924 . S
C1577 C1576 1.369 . S
C1577 C1586 1.429 . S
C1578 C1576 1.419 1_565 S
C1578 C1579 1.363 . S
C1578 H1581 0.929 . S
C1579 C1578 1.363 . S
C1579 C1585 1.429 1_565 S
H1580 C1576 0.924 . S
H1581 C1578 0.929 . S
S1582 N1583 1.613 . S
S1582 N1584 1.610 . S
N1583 S1582 1.613 . S
N1583 C1586 1.350 . S
N1584 S1582 1.610 . S
N1584 C1585 1.352 . S
C1585 C1579 1.429 1_545 S
C1585 N1584 1.352 . S
C1585 C1586 1.432 . S
C1586 C1577 1.429 . S
C1586 N1583 1.350 . S
C1586 C1585 1.432 . S
C1587 C1588 1.369 . S
C1587 C1589 1.419 . S
C1587 H1591 0.930 . S
C1588 C1587 1.369 . S
C1588 C1597 1.429 1_565 S
C1589 C1587 1.419 . S
C1589 C1590 1.363 1_565 S
C1589 H1592 0.929 . S
C1590 C1589 1.363 1_545 S
C1590 C1596 1.428 . S
H1591 C1587 0.930 . S
H1592 C1589 0.929 . S
S1593 N1594 1.613 . S
S1593 N1595 1.610 . S
N1594 S1593 1.613 . S
N1594 C1597 1.350 . S
N1595 S1593 1.610 . S
N1595 C1596 1.351 . S
C1596 C1590 1.428 . S
C1596 N1595 1.351 . S
C1596 C1597 1.434 . S
C1597 C1588 1.429 1_545 S
C1597 N1594 1.350 . S
C1597 C1596 1.434 . S
C1598 C1599 1.369 . S
C1598 C1600 1.419 1_455 S
C1598 H1602 0.930 . S
C1599 C1598 1.369 . S
C1599 C1608 1.429 . S
C1600 C1598 1.419 1_655 S
C1600 C1601 1.363 . S
C1600 H1603 0.929 . S
C1601 C1600 1.363 . S
C1601 C1607 1.469 . S
H1602 C1598 0.930 . S
H1603 C1600 0.929 . S
S1604 N1605 1.613 . S
S1604 N1606 1.610 . S
N1605 S1604 1.613 . S
N1605 C1608 1.350 . S
N1606 S1604 1.610 . S
N1606 C1607 1.335 1_455 S
C1607 C1601 1.469 . S
C1607 N1606 1.335 1_655 S
C1607 C1608 1.407 1_655 S
C1608 C1599 1.429 . S
C1608 N1605 1.350 . S
C1608 C1607 1.407 1_455 S
C1609 C1610 1.369 . S
C1609 C1611 1.419 . S
C1609 H1613 0.930 . S
C1610 C1609 1.369 . S
C1610 C1619 1.429 . S
C1611 C1609 1.419 . S
C1611 C1612 1.363 . S
C1611 H1614 0.929 . S
C1612 C1611 1.363 . S
C1612 C1618 1.428 . S
H1613 C1609 0.930 . S
H1614 C1611 0.929 . S
S1615 N1616 1.613 . S
S1615 N1617 1.610 . S
N1616 S1615 1.613 . S
N1616 C1619 1.350 . S
N1617 S1615 1.610 . S
N1617 C1618 1.351 . S
C1618 C1612 1.428 . S
C1618 N1617 1.351 . S
C1618 C1619 1.434 . S
C1619 C1610 1.429 . S
C1619 N1616 1.350 . S
C1619 C1618 1.434 . S
C1620 C1621 1.369 . S
C1620 C1622 1.419 . S
C1620 H1624 0.930 . S
C1621 C1620 1.369 . S
C1621 C1630 1.429 . S
C1622 C1620 1.419 . S
C1622 C1623 1.363 . S
C1622 H1625 0.929 . S
C1623 C1622 1.363 . S
C1623 C1629 1.428 . S
H1624 C1620 0.930 . S
H1625 C1622 0.929 . S
S1626 N1627 1.613 . S
S1626 N1628 1.610 . S
N1627 S1626 1.613 . S
N1627 C1630 1.350 . S
N1628 S1626 1.610 . S
N1628 C1629 1.351 . S
C1629 C1623 1.428 . S
C1629 N1628 1.351 . S
C1629 C1630 1.434 . S
C1630 C1621 1.429 . S
C1630 N1627 1.350 . S
C1630 C1629 1.434 . S
C1631 C1632 1.369 . S
C1631 C1633 1.419 . S
C1631 H1635 0.930 . S
C1632 C1631 1.369 . S
C1632 C1641 1.429 1_545 S
C1633 C1631 1.419 . S
C1633 C1634 1.363 1_545 S
C1633 H1636 0.929 . S
C1634 C1633 1.363 1_565 S
C1634 C1640 1.428 . S
H1635 C1631 0.930 . S
H1636 C1633 0.929 . S
S1637 N1638 1.613 . S
S1637 N1639 1.610 . S
N1638 S1637 1.613 . S
N1638 C1641 1.350 . S
N1639 S1637 1.610 . S
N1639 C1640 1.351 . S
C1640 C1634 1.428 . S
C1640 N1639 1.351 . S
C1640 C1641 1.434 . S
C1641 C1632 1.429 1_565 S
C1641 N1638 1.350 . S
C1641 C1640 1.434 . S
C1642 C1643 1.369 . S
C1642 C1644 1.419 . S
C1642 H1646 0.930 . S
C1643 C1642 1.369 . S
C1643 C1652 1.429 1_655 S
C1644 C1642 1.419 . S
C1644 C1645 1.363 1_655 S
C1644 H1647 0.929 . S
C1645 C1644 1.363 1_455 S
C1645 C1651 1.428 . S
H1646 C1642 0.930 . S
H1647 C1644 0.929 . S
S1648 N1649 1.613 . S
S1648 N1650 1.610 . S
N1649 S1648 1.613 . S
N1649 C1652 1.350 . S
N1650 S1648 1.610 . S
N1650 C1651 1.351 . S
C1651 C1645 1.428 . S
C1651 N1650 1.351 . S
C1651 C1652 1.434 . S
C1652 C1643 1.429 1_455 S
C1652 N1649 1.350 . S
C1652 C1651 1.434 . S
C1653 C1654 1.369 . S
C1653 C1655 1.419 . S
C1653 H1657 0.930 . S
C1654 C1653 1.369 . S
C1654 C1663 1.429 . S
C1655 C1653 1.419 . S
C1655 C1656 1.363 . S
C1655 H1658 0.929 . S
C1656 C1655 1.363 . S
C1656 C1662 1.428 . S
H1657 C1653 0.930 . S
H1658 C1655 0.929 . S
S1659 N1660 1.613 . S
S1659 N1661 1.610 . S
N1660 S1659 1.613 . S
N1660 C1663 1.350 . S
N1661 S1659 1.610 . S
N1661 C1662 1.351 . S
C1662 C1656 1.428 . S
C1662 N1661 1.351 . S
C1662 C1663 1.434 . S
C1663 C1654 1.429 . S
C1663 N1660 1.350 . S
C1663 C1662 1.434 . S
C1664 C1665 1.369 1_545 S
C1664 C1666 1.419 . S
C1664 H1668 0.930 . S
C1665 C1664 1.369 1_565 S
C1665 C1674 1.429 . S
C1666 C1664 1.419 . S
C1666 C1667 1.363 . S
C1666 H1669 0.929 . S
C1667 C1666 1.363 . S
C1667 C1673 1.428 1_545 S
H1668 C1664 0.930 . S
H1669 C1666 0.929 . S
S1670 N1671 1.613 . S
S1670 N1672 1.610 . S
N1671 S1670 1.613 . S
N1671 C1674 1.350 . S
N1672 S1670 1.610 . S
N1672 C1673 1.351 . S
C1673 C1667 1.428 1_565 S
C1673 N1672 1.351 . S
C1673 C1674 1.434 . S
C1674 C1665 1.429 . S
C1674 N1671 1.350 . S
C1674 C1673 1.434 . S
C1675 C1676 1.369 . S
C1675 C1677 1.419 . S
C1675 H1679 0.930 . S
C1676 C1675 1.369 . S
C1676 C1685 1.429 1_655 S
C1677 C1675 1.419 . S
C1677 C1678 1.363 1_655 S
C1677 H1680 0.929 . S
C1678 C1677 1.363 1_455 S
C1678 C1684 1.428 . S
H1679 C1675 0.930 . S
H1680 C1677 0.929 . S
S1681 N1682 1.613 . S
S1681 N1683 1.610 . S
N1682 S1681 1.613 . S
N1682 C1685 1.350 . S
N1683 S1681 1.610 . S
N1683 C1684 1.351 . S
C1684 C1678 1.428 . S
C1684 N1683 1.351 . S
C1684 C1685 1.434 . S
C1685 C1676 1.429 1_455 S
C1685 N1682 1.350 . S
C1685 C1684 1.434 . S
C1686 C1687 1.369 . S
C1686 C1688 1.419 . S
C1686 H1690 0.930 . S
C1687 C1686 1.369 . S
C1687 C1696 1.429 . S
C1688 C1686 1.419 . S
C1688 C1689 1.363 . S
C1688 H1691 0.929 . S
C1689 C1688 1.363 . S
C1689 C1695 1.428 . S
H1690 C1686 0.930 . S
H1691 C1688 0.929 . S
S1692 N1693 1.613 . S
S1692 N1694 1.610 . S
N1693 S1692 1.613 . S
N1693 C1696 1.350 . S
N1694 S1692 1.610 . S
N1694 C1695 1.351 . S
C1695 C1689 1.428 . S
C1695 N1694 1.351 . S
C1695 C1696 1.434 . S
C1696 C1687 1.429 . S
C1696 N1693 1.350 . S
C1696 C1695 1.434 . S
C1697 C1698 1.369 . S
C1697 C1699 1.419 . S
C1697 H1701 0.930 . S
C1698 C1697 1.369 . S
C1698 C1707 1.429 . S
C1699 C1697 1.419 . S
C1699 C1700 1.363 . S
C1699 H1702 0.929 . S
C1700 C1699 1.363 . S
C1700 C1706 1.428 . S
H1701 C1697 0.930 . S
H1702 C1699 0.929 . S
S1703 N1704 1.613 . S
S1703 N1705 1.610 . S
N1704 S1703 1.613 . S
N1704 C1707 1.350 . S
N1705 S1703 1.610 . S
N1705 C1706 1.351 . S
C1706 C1700 1.428 . S
C1706 N1705 1.351 . S
C1706 C1707 1.434 . S
C1707 C1698 1.429 . S
C1707 N1704 1.350 . S
C1707 C1706 1.434 . S
C1708 C1709 1.369 . S
C1708 C1710 1.419 . S
C1708 H1712 0.930 . S
C1709 C1708 1.369 . S
C1709 C1718 1.429 . S
C1710 C1708 1.419 . S
C1710 C1711 1.363 . S
C1710 H1713 0.929 . S
C1711 C1710 1.363 . S
C1711 C1717 1.428 . S
H1712 C1708 0.930 . S
H1713 C1710 0.929 . S
S1714 N1715 1.613 . S
S1714 N1716 1.610 . S
N1715 S1714 1.613 . S
N1715 C1718 1.350 . S
N1716 S1714 1.610 . S
N1716 C1717 1.351 . S
C1717 C1711 1.428 . S
C1717 N1716 1.351 . S
C1717 C1718 1.434 . S
C1718 C1709 1.429 . S
C1718 N1715 1.350 . S
C1718 C1717 1.434 . S
C1719 C1720 1.369 . S
C1719 C1721 1.419 . S
C1719 H1723 0.930 . S
C1720 C1719 1.369 . S
C1720 C1729 1.429 . S
C1721 C1719 1.419 . S
C1721 C1722 1.363 . S
C1721 H1724 0.929 . S
C1722 C1721 1.363 . S
C1722 C1728 1.428 . S
H1723 C1719 0.930 . S
H1724 C1721 0.929 . S
S1725 N1726 1.613 . S
S1725 N1727 1.610 . S
N1726 S1725 1.613 . S
N1726 C1729 1.350 . S
N1727 S1725 1.610 . S
N1727 C1728 1.351 . S
C1728 C1722 1.428 . S
C1728 N1727 1.351 . S
C1728 C1729 1.434 . S
C1729 C1720 1.429 . S
C1729 N1726 1.350 . S
C1729 C1728 1.434 . S
C1730 C1731 1.369 . S
C1730 C1732 1.419 . S
C1730 H1734 0.930 . S
C1731 C1730 1.369 . S
C1731 C1740 1.429 . S
C1732 C1730 1.419 . S
C1732 C1733 1.363 . S
C1732 H1735 0.929 . S
C1733 C1732 1.363 . S
C1733 C1739 1.428 . S
H1734 C1730 0.930 . S
H1735 C1732 0.929 . S
S1736 N1737 1.613 . S
S1736 N1738 1.610 . S
N1737 S1736 1.613 . S
N1737 C1740 1.350 . S
N1738 S1736 1.610 . S
N1738 C1739 1.351 . S
C1739 C1733 1.428 . S
C1739 N1738 1.351 . S
C1739 C1740 1.434 . S
C1740 C1731 1.429 . S
C1740 N1737 1.350 . S
C1740 C1739 1.434 . S
C1741 C1742 1.369 . S
C1741 C1743 1.419 . S
C1741 H1745 0.930 . S
C1742 C1741 1.369 . S
C1742 C1751 1.429 . S
C1743 C1741 1.419 . S
C1743 C1744 1.363 . S
C1743 H1746 0.929 . S
C1744 C1743 1.363 . S
C1744 C1750 1.428 . S
H1745 C1741 0.930 . S
H1746 C1743 0.929 . S
S1747 N1748 1.613 . S
S1747 N1749 1.610 . S
N1748 S1747 1.613 . S
N1748 C1751 1.350 . S
N1749 S1747 1.610 . S
N1749 C1750 1.351 . S
C1750 C1744 1.428 . S
C1750 N1749 1.351 . S
C1750 C1751 1.434 . S
C1751 C1742 1.429 . S
C1751 N1748 1.350 . S
C1751 C1750 1.434 . S
C1752 C1753 1.369 . S
C1752 C1754 1.419 . S
C1752 H1756 0.930 . S
C1753 C1752 1.369 . S
C1753 C1762 1.429 . S
C1754 C1752 1.419 . S
C1754 C1755 1.363 . S
C1754 H1757 0.929 . S
C1755 C1754 1.363 . S
C1755 C1761 1.428 . S
H1756 C1752 0.930 . S
H1757 C1754 0.929 . S
S1758 N1759 1.613 . S
S1758 N1760 1.610 . S
N1759 S1758 1.613 . S
N1759 C1762 1.350 . S
N1760 S1758 1.610 . S
N1760 C1761 1.351 . S
C1761 C1755 1.428 . S
C1761 N1760 1.351 . S
C1761 C1762 1.434 . S
C1762 C1753 1.429 . S
C1762 N1759 1.350 . S
C1762 C1761 1.434 . S
C1763 C1764 1.369 . S
C1763 C1765 1.419 . S
C1763 H1767 0.930 . S
C1764 C1763 1.369 . S
C1764 C1773 1.429 . S
C1765 C1763 1.419 . S
C1765 C1766 1.363 . S
C1765 H1768 0.929 . S
C1766 C1765 1.363 . S
C1766 C1772 1.428 . S
H1767 C1763 0.930 . S
H1768 C1765 0.929 . S
S1769 N1770 1.613 . S
S1769 N1771 1.610 . S
N1770 S1769 1.613 . S
N1770 C1773 1.350 . S
N1771 S1769 1.610 . S
N1771 C1772 1.351 . S
C1772 C1766 1.428 . S
C1772 N1771 1.351 . S
C1772 C1773 1.434 . S
C1773 C1764 1.429 . S
C1773 N1770 1.350 . S
C1773 C1772 1.434 . S
C1774 C1775 1.369 . S
C1774 C1776 1.419 . S
C1774 H1778 0.930 . S
C1775 C1774 1.369 . S
C1775 C1784 1.429 . S
C1776 C1774 1.419 . S
C1776 C1777 1.363 . S
C1776 H1779 0.929 . S
C1777 C1776 1.363 . S
C1777 C1783 1.428 . S
H1778 C1774 0.930 . S
H1779 C1776 0.929 . S
S1780 N1781 1.613 . S
S1780 N1782 1.610 . S
N1781 S1780 1.613 . S
N1781 C1784 1.350 . S
N1782 S1780 1.610 . S
N1782 C1783 1.351 . S
C1783 C1777 1.428 . S
C1783 N1782 1.351 . S
C1783 C1784 1.434 . S
C1784 C1775 1.429 . S
C1784 N1781 1.350 . S
C1784 C1783 1.434 . S
C1785 C1786 1.369 . S
C1785 C1787 1.419 . S
C1785 H1789 0.930 . S
C1786 C1785 1.369 . S
C1786 C1795 1.429 . S
C1787 C1785 1.419 . S
C1787 C1788 1.363 . S
C1787 H1790 0.929 . S
C1788 C1787 1.363 . S
C1788 C1794 1.428 . S
H1789 C1785 0.930 . S
H1790 C1787 0.929 . S
S1791 N1792 1.613 . S
S1791 N1793 1.610 . S
N1792 S1791 1.613 . S
N1792 C1795 1.350 . S
N1793 S1791 1.610 . S
N1793 C1794 1.351 . S
C1794 C1788 1.428 . S
C1794 N1793 1.351 . S
C1794 C1795 1.434 . S
C1795 C1786 1.429 . S
C1795 N1792 1.350 . S
C1795 C1794 1.434 . S
C1796 C1797 1.369 . S
C1796 C1798 1.419 . S
C1796 H1800 0.930 . S
C1797 C1796 1.369 . S
C1797 C1806 1.429 . S
C1798 C1796 1.419 . S
C1798 C1799 1.363 . S
C1798 H1801 0.929 . S
C1799 C1798 1.363 . S
C1799 C1805 1.428 . S
H1800 C1796 0.930 . S
H1801 C1798 0.929 . S
S1802 N1803 1.613 . S
S1802 N1804 1.610 . S
N1803 S1802 1.613 . S
N1803 C1806 1.350 . S
N1804 S1802 1.610 . S
N1804 C1805 1.351 . S
C1805 C1799 1.428 . S
C1805 N1804 1.351 . S
C1805 C1806 1.434 . S
C1806 C1797 1.429 . S
C1806 N1803 1.350 . S
C1806 C1805 1.434 . S
C1807 C1808 1.369 . S
C1807 C1809 1.419 . S
C1807 H1811 0.930 . S
C1808 C1807 1.369 . S
C1808 C1817 1.429 . S
C1809 C1807 1.419 . S
C1809 C1810 1.363 . S
C1809 H1812 0.929 . S
C1810 C1809 1.363 . S
C1810 C1816 1.428 . S
H1811 C1807 0.930 . S
H1812 C1809 0.929 . S
S1813 N1814 1.613 . S
S1813 N1815 1.610 . S
N1814 S1813 1.613 . S
N1814 C1817 1.350 . S
N1815 S1813 1.610 . S
N1815 C1816 1.351 . S
C1816 C1810 1.428 . S
C1816 N1815 1.351 . S
C1816 C1817 1.434 . S
C1817 C1808 1.429 . S
C1817 N1814 1.350 . S
C1817 C1816 1.434 . S
C1818 C1819 1.369 . S
C1818 C1820 1.419 . S
C1818 H1822 0.930 . S
C1819 C1818 1.369 . S
C1819 C1828 1.429 . S
C1820 C1818 1.419 . S
C1820 C1821 1.363 . S
C1820 H1823 0.929 . S
C1821 C1820 1.363 . S
C1821 C1827 1.428 . S
H1822 C1818 0.930 . S
H1823 C1820 0.929 . S
S1824 N1825 1.613 . S
S1824 N1826 1.610 . S
N1825 S1824 1.613 . S
N1825 C1828 1.350 . S
N1826 S1824 1.610 . S
N1826 C1827 1.351 . S
C1827 C1821 1.428 . S
C1827 N1826 1.351 . S
C1827 C1828 1.434 . S
C1828 C1819 1.429 . S
C1828 N1825 1.350 . S
C1828 C1827 1.434 . S
C1829 C1830 1.369 . S
C1829 C1831 1.419 . S
C1829 H1833 0.930 . S
C1830 C1829 1.369 . S
C1830 C1839 1.429 . S
C1831 C1829 1.419 . S
C1831 C1832 1.363 1_565 S
C1831 H1834 0.929 . S
C1832 C1831 1.363 1_545 S
C1832 C1838 1.428 . S
H1833 C1829 0.930 . S
H1834 C1831 0.929 . S
S1835 N1836 1.613 . S
S1835 N1837 1.610 . S
N1836 S1835 1.613 . S
N1836 C1839 1.350 1_545 S
N1837 S1835 1.610 . S
N1837 C1838 1.351 . S
C1838 C1832 1.428 . S
C1838 N1837 1.351 . S
C1838 C1839 1.434 1_545 S
C1839 C1830 1.429 . S
C1839 N1836 1.350 1_565 S
C1839 C1838 1.434 1_565 S
C1840 C1841 1.369 . S
C1840 C1842 1.419 1_655 S
C1840 H1844 0.930 . S
C1841 C1840 1.369 . S
C1841 C1850 1.429 1_655 S
C1842 C1840 1.419 1_455 S
C1842 C1843 1.363 . S
C1842 H1845 0.929 . S
C1843 C1842 1.363 . S
C1843 C1849 1.428 . S
H1844 C1840 0.930 . S
H1845 C1842 0.929 . S
S1846 N1847 1.613 1_556 S
S1846 N1848 1.610 1_556 S
N1847 S1846 1.613 1_554 S
N1847 C1850 1.350 . S
N1848 S1846 1.610 1_554 S
N1848 C1849 1.351 . S
C1849 C1843 1.428 . S
C1849 N1848 1.351 . S
C1849 C1850 1.434 . S
C1850 C1841 1.429 1_455 S
C1850 N1847 1.350 . S
C1850 C1849 1.434 . S
C1851 C1852 1.369 . S
C1851 C1853 1.419 . S
C1851 H1855 0.930 . S
C1852 C1851 1.369 . S
C1852 C1861 1.429 . S
C1853 C1851 1.419 . S
C1853 C1854 1.363 . S
C1853 H1856 0.929 . S
C1854 C1853 1.363 . S
C1854 C1860 1.428 . S
H1855 C1851 0.930 . S
H1856 C1853 0.929 . S
S1857 N1858 1.613 . S
S1857 N1859 1.610 . S
N1858 S1857 1.613 . S
N1858 C1861 1.350 . S
N1859 S1857 1.610 . S
N1859 C1860 1.351 . S
C1860 C1854 1.428 . S
C1860 N1859 1.351 . S
C1860 C1861 1.434 . S
C1861 C1852 1.429 . S
C1861 N1858 1.350 . S
C1861 C1860 1.434 . S
C1862 C1863 1.369 1_545 S
C1862 C1864 1.419 . S
C1862 H1866 0.930 1_545 S
C1863 C1862 1.369 1_565 S
C1863 C1872 1.429 1_565 S
C1864 C1862 1.419 . S
C1864 C1865 1.363 . S
C1864 H1867 0.929 . S
C1865 C1864 1.363 . S
C1865 C1871 1.428 . S
H1866 C1862 0.930 1_565 S
H1867 C1864 0.929 . S
S1868 N1869 1.613 . S
S1868 N1870 1.610 . S
N1869 S1868 1.613 . S
N1869 C1872 1.350 . S
N1870 S1868 1.610 . S
N1870 C1871 1.351 . S
C1871 C1865 1.428 . S
C1871 N1870 1.351 . S
C1871 C1872 1.434 . S
C1872 C1863 1.429 1_545 S
C1872 N1869 1.350 . S
C1872 C1871 1.434 . S
C1873 C1874 1.369 1_655 S
C1873 C1875 1.419 . S
C1873 H1877 0.930 . S
C1874 C1873 1.369 1_455 S
C1874 C1883 1.429 . S
C1875 C1873 1.419 . S
C1875 C1876 1.363 . S
C1875 H1878 0.929 . S
C1876 C1875 1.363 . S
C1876 C1882 1.393 1_655 S
H1877 C1873 0.930 . S
H1878 C1875 0.929 . S
S1879 N1880 1.613 . S
S1879 N1881 1.610 . S
N1880 S1879 1.613 . S
N1880 C1883 1.350 . S
N1881 S1879 1.610 . S
N1881 C1882 1.389 . S
C1882 C1876 1.393 1_455 S
C1882 N1881 1.389 . S
C1882 C1883 1.435 . S
C1883 C1874 1.429 . S
C1883 N1880 1.350 . S
C1883 C1882 1.435 . S
C1884 C1885 1.369 . S
C1884 C1886 1.419 . S
C1884 H1888 0.930 . S
C1885 C1884 1.369 . S
C1885 C1894 1.429 . S
C1886 C1884 1.419 . S
C1886 C1887 1.363 . S
C1886 H1889 0.929 . S
C1887 C1886 1.363 . S
C1887 C1893 1.428 . S
H1888 C1884 0.930 . S
H1889 C1886 0.929 . S
S1890 N1891 1.613 . S
S1890 N1892 1.610 . S
N1891 S1890 1.613 . S
N1891 C1894 1.350 . S
N1892 S1890 1.610 . S
N1892 C1893 1.351 . S
C1893 C1887 1.428 . S
C1893 N1892 1.351 . S
C1893 C1894 1.434 . S
C1894 C1885 1.429 . S
C1894 N1891 1.350 . S
C1894 C1893 1.434 . S
C1895 C1896 1.369 . S
C1895 C1897 1.419 1_565 S
C1895 H1899 0.930 . S
C1896 C1895 1.369 . S
C1896 C1905 1.429 1_565 S
C1897 C1895 1.419 1_545 S
C1897 C1898 1.363 . S
C1897 H1900 0.929 . S
C1898 C1897 1.363 . S
C1898 C1904 1.428 . S
H1899 C1895 0.930 . S
H1900 C1897 0.929 . S
S1901 N1902 1.613 . S
S1901 N1903 1.610 . S
N1902 S1901 1.613 . S
N1902 C1905 1.350 . S
N1903 S1901 1.610 . S
N1903 C1904 1.351 . S
C1904 C1898 1.428 . S
C1904 N1903 1.351 . S
C1904 C1905 1.434 . S
C1905 C1896 1.429 1_545 S
C1905 N1902 1.350 . S
C1905 C1904 1.434 . S
C1906 C1907 1.369 . S
C1906 C1908 1.419 . S
C1906 H1910 0.930 . S
C1907 C1906 1.369 . S
C1907 C1916 1.429 . S
C1908 C1906 1.419 . S
C1908 C1909 1.363 1_655 S
C1908 H1911 0.929 . S
C1909 C1908 1.363 1_455 S
C1909 C1915 1.434 . S
H1910 C1906 0.930 . S
H1911 C1908 0.929 . S
S1912 N1913 1.613 1_455 S
S1912 N1914 1.610 . S
N1913 S1912 1.613 1_655 S
N1913 C1916 1.350 . S
N1914 S1912 1.610 . S
N1914 C1915 1.363 . S
C1915 C1909 1.434 . S
C1915 N1914 1.363 . S
C1915 C1916 1.415 1_455 S
C1916 C1907 1.429 . S
C1916 N1913 1.350 . S
C1916 C1915 1.415 1_655 S
C1917 C1918 1.369 . S
C1917 C1919 1.419 . S
C1917 H1921 0.930 . S
C1918 C1917 1.369 . S
C1918 C1927 1.429 . S
C1919 C1917 1.419 . S
C1919 C1920 1.363 . S
C1919 H1922 0.929 . S
C1920 C1919 1.363 . S
C1920 C1926 1.428 . S
H1921 C1917 0.930 . S
H1922 C1919 0.929 . S
S1923 N1924 1.613 . S
S1923 N1925 1.610 . S
N1924 S1923 1.613 . S
N1924 C1927 1.350 . S
N1925 S1923 1.610 . S
N1925 C1926 1.351 . S
C1926 C1920 1.428 . S
C1926 N1925 1.351 . S
C1926 C1927 1.434 . S
C1927 C1918 1.429 . S
C1927 N1924 1.350 . S
C1927 C1926 1.434 . S
C1928 C1929 1.369 . S
C1928 C1930 1.419 . S
C1928 H1932 0.930 . S
C1929 C1928 1.369 . S
C1929 C1938 1.429 . S
C1930 C1928 1.419 . S
C1930 C1931 1.363 1_565 S
C1930 H1933 0.929 . S
C1931 C1930 1.363 1_545 S
C1931 C1937 1.428 1_545 S
H1932 C1928 0.930 . S
H1933 C1930 0.929 . S
S1934 N1935 1.613 . S
S1934 N1936 1.610 1_565 S
N1935 S1934 1.613 . S
N1935 C1938 1.350 . S
N1936 S1934 1.610 1_545 S
N1936 C1937 1.351 1_545 S
C1937 C1931 1.428 1_565 S
C1937 N1936 1.351 1_565 S
C1937 C1938 1.434 . S
C1938 C1929 1.429 . S
C1938 N1935 1.350 . S
C1938 C1937 1.434 . S
C1939 C1940 1.369 . S
C1939 C1941 1.419 1_455 S
C1939 H1943 0.930 1_455 S
C1940 C1939 1.369 . S
C1940 C1949 1.429 . S
C1941 C1939 1.419 1_655 S
C1941 C1942 1.363 . S
C1941 H1944 0.929 . S
C1942 C1941 1.363 . S
C1942 C1948 1.428 1_655 S
H1943 C1939 0.930 1_655 S
H1944 C1941 0.929 . S
S1945 N1946 1.613 . S
S1945 N1947 1.610 . S
N1946 S1945 1.613 . S
N1946 C1949 1.350 . S
N1947 S1945 1.610 . S
N1947 C1948 1.351 . S
C1948 C1942 1.428 1_455 S
C1948 N1947 1.351 . S
C1948 C1949 1.434 . S
C1949 C1940 1.429 . S
C1949 N1946 1.350 . S
C1949 C1948 1.434 . S
C1950 C1951 1.369 . S
C1950 C1952 1.419 1_655 S
C1950 H1954 0.930 . S
C1951 C1950 1.369 . S
C1951 C1960 1.429 . S
C1952 C1950 1.419 1_455 S
C1952 C1953 1.363 . S
C1952 H1955 0.929 . S
C1953 C1952 1.363 . S
C1953 C1959 1.428 . S
H1954 C1950 0.930 . S
H1955 C1952 0.929 . S
S1956 N1957 1.613 1_455 S
S1956 N1958 1.610 . S
N1957 S1956 1.613 1_655 S
N1957 C1960 1.350 . S
N1958 S1956 1.610 . S
N1958 C1959 1.351 . S
C1959 C1953 1.428 . S
C1959 N1958 1.351 . S
C1959 C1960 1.434 1_455 S
C1960 C1951 1.429 . S
C1960 N1957 1.350 . S
C1960 C1959 1.434 1_655 S
C1961 C1962 1.369 . S
C1961 C1963 1.419 . S
C1961 H1965 0.930 . S
C1962 C1961 1.369 . S
C1962 C1971 1.429 . S
C1963 C1961 1.419 . S
C1963 C1964 1.363 . S
C1963 H1966 0.929 . S
C1964 C1963 1.363 . S
C1964 C1970 1.428 . S
H1965 C1961 0.930 . S
H1966 C1963 0.929 . S
S1967 N1968 1.613 . S
S1967 N1969 1.610 . S
N1968 S1967 1.613 . S
N1968 C1971 1.350 . S
N1969 S1967 1.610 . S
N1969 C1970 1.351 . S
C1970 C1964 1.428 . S
C1970 N1969 1.351 . S
C1970 C1971 1.434 . S
C1971 C1962 1.429 . S
C1971 N1968 1.350 . S
C1971 C1970 1.434 . S
C1972 C1973 1.369 . S
C1972 C1974 1.419 1_545 S
C1972 H1976 0.930 . S
C1973 C1972 1.369 . S
C1973 C1982 1.429 . S
C1974 C1972 1.419 1_565 S
C1974 C1975 1.363 . S
C1974 H1977 0.929 . S
C1975 C1974 1.363 . S
C1975 C1981 1.428 . S
H1976 C1972 0.930 . S
H1977 C1974 0.929 . S
S1978 N1979 1.613 . S
S1978 N1980 1.610 1_545 S
N1979 S1978 1.613 . S
N1979 C1982 1.350 . S
N1980 S1978 1.610 1_565 S
N1980 C1981 1.351 . S
C1981 C1975 1.428 . S
C1981 N1980 1.351 . S
C1981 C1982 1.434 1_565 S
C1982 C1973 1.429 . S
C1982 N1979 1.350 . S
C1982 C1981 1.434 1_545 S
C1983 C1984 1.369 . S
C1983 C1985 1.419 1_545 S
C1983 H1987 0.930 . S
C1984 C1983 1.369 . S
C1984 C1993 1.429 . S
C1985 C1983 1.419 1_565 S
C1985 C1986 1.363 . S
C1985 H1988 0.929 . S
C1986 C1985 1.363 . S
C1986 C1992 1.428 . S
H1987 C1983 0.930 . S
H1988 C1985 0.929 . S
S1989 N1990 1.613 . S
S1989 N1991 1.610 1_545 S
N1990 S1989 1.613 . S
N1990 C1993 1.350 . S
N1991 S1989 1.610 1_565 S
N1991 C1992 1.351 . S
C1992 C1986 1.428 . S
C1992 N1991 1.351 . S
C1992 C1993 1.434 1_565 S
C1993 C1984 1.429 . S
C1993 N1990 1.350 . S
C1993 C1992 1.434 1_545 S
C1994 C1995 1.369 . S
C1994 C1996 1.419 1_655 S
C1994 H1998 0.930 . S
C1995 C1994 1.369 . S
C1995 C2004 1.429 . S
C1996 C1994 1.419 1_455 S
C1996 C1997 1.363 . S
C1996 H1999 0.929 . S
C1997 C1996 1.363 . S
C1997 C2003 1.428 . S
H1998 C1994 0.930 . S
H1999 C1996 0.929 . S
S2000 N2001 1.594 1_455 S
S2000 N2002 1.617 . S
N2001 S2000 1.594 1_655 S
N2001 C2004 1.350 . S
N2002 S2000 1.617 . S
N2002 C2003 1.351 . S
C2003 C1997 1.428 . S
C2003 N2002 1.351 . S
C2003 C2004 1.434 1_455 S
C2004 C1995 1.429 . S
C2004 N2001 1.350 . S
C2004 C2003 1.434 1_655 S
C2005 C2006 1.369 . S
C2005 C2007 1.419 . S
C2005 H2009 0.930 . S
C2006 C2005 1.369 . S
C2006 C2015 1.429 . S
C2007 C2005 1.419 . S
C2007 C2008 1.363 . S
C2007 H2010 0.929 . S
C2008 C2007 1.363 . S
C2008 C2014 1.428 . S
H2009 C2005 0.930 . S
H2010 C2007 0.929 . S
S2011 N2012 1.613 . S
S2011 N2013 1.610 . S
N2012 S2011 1.613 . S
N2012 C2015 1.350 . S
N2013 S2011 1.610 . S
N2013 C2014 1.351 . S
C2014 C2008 1.428 . S
C2014 N2013 1.351 . S
C2014 C2015 1.434 . S
C2015 C2006 1.429 . S
C2015 N2012 1.350 . S
C2015 C2014 1.434 . S
C829 C18 1.294 . S
C831 C181 1.261 . S
C840 C204 1.262 . S
C842 C41 1.293 . S
C851 C158 1.260 . S
C853 C64 1.295 . S
C862 C273 1.257 . S
C864 C87 1.295 . S
C873 C110 1.294 . S
C875 C227 1.262 . S
C884 C133 1.293 . S
C886 C250 1.263 . S
C895 C43 1.263 . S
C897 C156 1.293 . S
C906 C179 1.294 . S
C908 C66 1.262 . S
C917 C20 1.259 . S
C919 C202 1.295 . S
C928 C135 1.267 . S
C930 C225 1.292 . S
C939 C248 1.293 . S
C941 C89 1.264 . S
C950 C271 1.291 . S
C952 C112 1.265 . S
C961 C294 1.291 . S
C963 C457 1.265 . S
C972 C480 1.259 . S
C974 C317 1.294 . S
C983 C434 1.263 . S
C985 C340 1.293 . S
C994 C363 1.291 . S
C996 C549 1.265 . S
C1005 C503 1.263 . S
C1007 C386 1.293 . S
C1016 C409 1.296 . S
C1018 C526 1.259 . S
C1027 C432 1.295 . S
C1029 C319 1.258 . S
C1038 C342 1.264 . S
C1040 C455 1.293 . S
C1049 C478 1.292 . S
C1051 C296 1.265 . S
C1060 C411 1.257 . S
C1062 C501 1.295 . S
C1071 C365 1.267 . S
C1073 C524 1.292 . S
C1082 C547 1.291 . S
C1084 C388 1.266 . S
C1093 C570 1.293 . S
C1095 C733 1.261 . S
C1104 C593 1.292 . S
C1106 C756 1.264 . S
C1115 C710 1.265 . S
C1117 C616 1.293 . S
C1126 C825 1.259 . S
C1128 C639 1.295 . S
C1137 C662 1.293 . S
C1139 C779 1.262 . S
C1148 C802 1.262 . S
C1150 C685 1.293 . S
C1159 C595 1.258 . S
C1161 C708 1.295 . S
C1170 C731 1.291 . S
C1172 C618 1.266 . S
C1181 C572 1.264 . S
C1183 C754 1.293 . S
C1192 C777 1.292 . S
C1194 C687 1.264 . S
C1203 C800 1.296 . S
C1205 C641 1.258 . S
C1214 C823 1.295 . S
C1216 C664 1.260 . S
C1225 C19 1.371 . S
C1227 C433 1.367 . S
C1236 C42 1.374 . S
C1238 C456 1.365 . S
C1247 C479 1.367 . S
C1249 C65 1.369 . S
C1258 C778 1.367 . S
C1260 C88 1.370 . S
C1269 C801 1.373 . S
C1271 C111 1.365 . S
C1280 C824 1.372 . S
C1282 C134 1.365 . S
C1291 C157 1.363 . S
C1293 C571 1.373 . S
C1302 C594 1.371 . S
C1304 C180 1.367 . S
C1313 C203 1.373 . S
C1315 C617 1.365 . S
C1324 C226 1.365 . S
C1326 C364 1.372 . S
C1335 C249 1.374 . S
C1337 C387 1.364 . S
C1346 C272 1.363 . S
C1348 C410 1.373 . S
C1357 C295 1.374 . S
C1359 C709 1.365 . S
C1368 C732 1.374 . S
C1370 C318 1.364 . S
C1379 C341 1.370 . S
C1381 C755 1.368 . S
C1390 C640 1.364 . S
C1392 C502 1.372 . S
C1401 C525 1.368 . S
C1403 C663 1.369 . S
C1412 C686 1.373 . S
C1414 C548 1.365 . S
C1423 C16 1.653 . S
C1425 C384 1.648 . S
C1434 C39 1.653 . S
C1436 C407 1.648 . S
C1445 C361 1.647 . S
C1447 C62 1.653 . S
C1456 C85 1.653 . S
C1458 C614 1.648 . S
C1467 C568 1.647 . S
C1469 C108 1.651 . S
C1478 C131 1.647 . S
C1480 C591 1.653 . S
C1489 C798 1.653 . S
C1491 C154 1.648 . S
C1500 C177 1.647 . S
C1502 C821 1.652 . S
C1511 C775 1.652 . S
C1513 C200 1.648 . S
C1522 C223 1.649 . S
C1524 C476 1.649 . S
C1533 C246 1.649 . S
C1535 C430 1.650 . S
C1544 C269 1.650 . S
C1546 C453 1.651 . S
C1555 C660 1.652 . S
C1557 C292 1.649 . S
C1566 C315 1.652 . S
C1568 C683 1.648 . S
C1577 C338 1.653 . S
C1579 C637 1.648 . S
C1588 C752 1.647 . S
C1590 C499 1.652 . S
C1599 C706 1.650 . S
C1601 C522 1.649 . S
C1610 C729 1.650 . S
C1612 C545 1.649 . S
C1621 C86 1.740 . S
C1623 C17 1.741 . S
C1632 C40 1.741 . S
C1634 C109 1.742 . S
C1643 C63 1.743 . S
C1645 C132 1.743 . S
C1654 C224 1.741 . S
C1656 C155 1.741 . S
C1665 C178 1.742 . S
C1667 C247 1.742 . S
C1676 C270 1.741 . S
C1678 C201 1.741 . S
C1687 C362 1.743 . S
C1689 C293 1.744 . S
C1698 C316 1.741 . S
C1700 C385 1.742 . S
C1709 C339 1.740 . S
C1711 C408 1.740 . S
C1720 C431 1.744 . S
C1722 C500 1.744 1_554 S
C1731 C454 1.744 . S
C1733 C523 1.744 1_554 S
C1742 C477 1.744 . S
C1744 C546 1.744 1_554 S
C1753 C569 1.743 . S
C1755 C638 1.742 1_556 S
C1764 C661 1.744 1_556 S
C1766 C592 1.744 . S
C1775 C684 1.740 1_556 S
C1777 C615 1.741 . S
C1786 C707 1.744 . S
C1788 C776 1.744 . S
C1797 C799 1.741 . S
C1799 C730 1.742 . S
C1808 C753 1.743 . S
C1810 C822 1.743 . S
C1819 C21 1.346 . S
C1821 C688 1.341 . S
C1830 C642 1.346 . S
C1832 C44 1.342 . S
C1841 C67 1.347 . S
C1843 C665 1.341 . S
C1852 C320 1.341 . S
C1854 C90 1.345 . S
C1863 C113 1.347 . S
C1865 C343 1.341 . S
C1874 C136 1.343 . S
C1876 C297 1.344 . S
C1885 C550 1.346 . S
C1887 C159 1.342 . S
C1896 C182 1.340 . S
C1898 C504 1.346 . S
C1907 C527 1.347 . S
C1909 C205 1.341 . S
C1918 C228 1.341 . S
C1920 C734 1.345 . S
C1929 C757 1.347 . S
C1931 C251 1.341 . S
C1940 C711 1.340 . S
C1942 C274 1.346 . S
C1951 C366 1.346 . S
C1953 C596 1.341 . S
C1962 C389 1.344 . S
C1964 C619 1.343 . S
C1973 C412 1.341 . S
C1975 C573 1.346 . S
C1984 C435 1.341 . S
C1986 C826 1.346 . S
C1995 C458 1.345 . S
C1997 C780 1.343 . S
C2006 C803 1.347 . S
C2008 C481 1.342 . S
