# Generated by pormake.
# Topology crb, (4)-cn, num edge types: 1
# Building blocks:
#     Node 0, Type 0, BuildingBlock: AZAVOO_clean_sbu_0, # of connection points: 4
#     Node 1, Type 0, BuildingBlock: AZAVOO_clean_sbu_0, # of connection points: 4
#     Node 2, Type 0, BuildingBlock: AZAVOO_clean_sbu_0, # of connection points: 4
#     Node 3, Type 0, BuildingBlock: AZAVOO_clean_sbu_0, # of connection points: 4
#     Node 4, Type 0, BuildingBlock: AZAVOO_clean_sbu_0, # of connection points: 4
#     Node 5, Type 0, BuildingBlock: AZAVOO_clean_sbu_0, # of connection points: 4
#     Node 6, Type 0, BuildingBlock: AZAVOO_clean_sbu_0, # of connection points: 4
#     Node 7, Type 0, BuildingBlock: AZAVOO_clean_sbu_0, # of connection points: 4
#     Edge 8, Type (0, 0), BuildingBlock: XIVTED_clean_linker_0, # of connection points: 2
#     Edge 9, Type (0, 0), BuildingBlock: XIVTED_clean_linker_0, # of connection points: 2
#     Edge 10, Type (0, 0), BuildingBlock: XIVTED_clean_linker_0, # of connection points: 2
#     Edge 11, Type (0, 0), BuildingBlock: XIVTED_clean_linker_0, # of connection points: 2
#     Edge 12, Type (0, 0), BuildingBlock: XIVTED_clean_linker_0, # of connection points: 2
#     Edge 13, Type (0, 0), BuildingBlock: XIVTED_clean_linker_0, # of connection points: 2
#     Edge 14, Type (0, 0), BuildingBlock: XIVTED_clean_linker_0, # of connection points: 2
#     Edge 15, Type (0, 0), BuildingBlock: XIVTED_clean_linker_0, # of connection points: 2
#     Edge 16, Type (0, 0), BuildingBlock: XIVTED_clean_linker_0, # of connection points: 2
#     Edge 17, Type (0, 0), BuildingBlock: XIVTED_clean_linker_0, # of connection points: 2
#     Edge 18, Type (0, 0), BuildingBlock: XIVTED_clean_linker_0, # of connection points: 2
#     Edge 19, Type (0, 0), BuildingBlock: XIVTED_clean_linker_0, # of connection points: 2
#     Edge 20, Type (0, 0), BuildingBlock: XIVTED_clean_linker_0, # of connection points: 2
#     Edge 21, Type (0, 0), BuildingBlock: XIVTED_clean_linker_0, # of connection points: 2
#     Edge 22, Type (0, 0), BuildingBlock: XIVTED_clean_linker_0, # of connection points: 2
#     Edge 23, Type (0, 0), BuildingBlock: XIVTED_clean_linker_0, # of connection points: 2
# Relax obj value: 0.038
# Max RMSD: 0.066
# Mean RMSD: 0.066
data_MOF--net-crb--node1-AZAVOO_clean_sbu_0--edge1-XIVTED_clean_linker_0
_symmetry_space_group_name_H-M    P1
_symmetry_Int_Tables_number       1
_symmetry_cell_setting            triclinic
loop_
_symmetry_equiv_pos_as_xyz
'x, y, z'
_cell_length_a     44.293007
_cell_length_b     36.809582
_cell_length_c     26.754511
_cell_angle_alpha  90.187677
_cell_angle_beta   89.817263
_cell_angle_gamma 90.10487
loop_
_atom_site_label
_atom_site_type_symbol
_atom_site_fract_x
_atom_site_fract_y
_atom_site_fract_z
_atom_type_partial_charge
Mg0 Mg 0.34214 0.31487 0.90264 0.0
O1 O 0.33068 0.37528 0.91579 0.0
O2 O 0.28131 0.38126 0.90095 0.0
Mg3 Mg 0.26152 0.32724 0.87456 0.0
C4 C 0.30673 0.39457 0.9141 0.0
C5 C 0.4069 0.296 0.92816 0.0
O6 O 0.39693 0.26874 0.90095 0.0
O7 O 0.31817 0.2994 -0.02411 0.0
O8 O 0.26993 0.30339 0.95166 0.0
O9 O 0.35078 0.32353 0.82051 0.0
O10 O 0.30658 0.30938 0.8529 0.0
C11 C 0.28986 0.29521 -0.01591 0.0
C12 C 0.32239 0.31664 0.81397 0.0
O13 O 0.38873 0.32163 0.93882 0.0
Mg14 Mg 0.68748 0.31427 0.06893 0.0
O15 O 0.69966 0.37488 0.06014 0.0
O16 O 0.74885 0.38014 0.07707 0.0
Mg17 Mg 0.76789 0.3252 0.10032 0.0
C18 C 0.7237 0.39397 0.06392 0.0
C19 C 0.62713 0.29421 0.01939 0.0
O20 O 0.64039 0.26261 0.02529 0.0
O21 O 0.71217 0.30091 -0.0046 0.0
O22 O 0.76012 0.30411 0.02143 0.0
O23 O 0.67819 0.32056 0.15147 0.0
O24 O 0.72247 0.30686 0.11906 0.0
C25 C 0.74056 0.29702 -0.01218 0.0
C26 C 0.70646 0.31316 0.15809 0.0
O27 O 0.64147 0.32284 0.03167 0.0
Mg28 Mg 0.69299 0.72927 0.91979 0.0
O29 O 0.70567 0.67122 0.9428 0.0
O30 O 0.75548 0.66547 0.93179 0.0
Mg31 Mg 0.7744 0.718 0.89828 0.0
C32 C 0.72994 0.65262 0.94541 0.0
C33 C 0.62366 0.72504 0.92824 0.0
O34 O 0.62787 0.72998 0.88011 0.0
O35 O 0.71463 0.75178 -0.00892 0.0
O36 O 0.76366 0.74792 0.97099 0.0
O37 O 0.68641 0.71164 0.84006 0.0
O38 O 0.72943 0.73155 0.87096 0.0
C39 C 0.74249 0.75783 0.00053 0.0
C40 C 0.71476 0.71885 0.8335 0.0
O41 O 0.64659 0.7232 0.95663 0.0
Mg42 Mg 0.3419 0.72795 0.06837 0.0
O43 O 0.32864 0.67002 0.04452 0.0
O44 O 0.27871 0.66506 0.05487 0.0
Mg45 Mg 0.26028 0.71782 0.08858 0.0
C46 C 0.30412 0.65182 0.04143 0.0
C47 C 0.41124 0.72454 0.06043 0.0
O48 O 0.4069 0.73072 0.1083 0.0
O49 O 0.32091 0.75078 -0.00297 0.0
O50 O 0.27173 0.7475 0.01615 0.0
O51 O 0.34803 0.71032 0.14797 0.0
O52 O 0.30528 0.73059 0.11685 0.0
C53 C 0.29319 0.75713 -0.01295 0.0
C54 C 0.31973 0.71781 0.15437 0.0
O55 O 0.38838 0.72153 0.03202 0.0
Mg56 Mg 0.8453 0.80429 0.41907 0.0
O57 O 0.83272 0.86256 0.44264 0.0
O58 O 0.78274 0.86735 0.43323 0.0
Mg59 Mg 0.76373 0.81469 0.4003 0.0
C60 C 0.80822 0.88072 0.44604 0.0
C61 C 0.90867 0.7817 0.44947 0.0
O62 O 0.89692 0.75211 0.42991 0.0
O63 O 0.8245 0.782 0.49118 0.0
O64 O 0.77532 0.78521 0.4726 0.0
O65 O 0.85149 0.82128 0.33928 0.0
O66 O 0.80856 0.80182 0.37145 0.0
C67 C 0.79676 0.77568 0.50151 0.0
C68 C 0.82306 0.81421 0.33353 0.0
O69 O 0.89226 0.80989 0.45308 0.0
Mg70 Mg 0.1915 0.80553 0.5696 0.0
O71 O 0.2043 0.86351 0.5456 0.0
O72 O 0.25418 0.86886 0.55598 0.0
Mg73 Mg 0.27286 0.81662 0.59019 0.0
C74 C 0.22877 0.88184 0.54242 0.0
C75 C 0.13023 0.78127 0.52853 0.0
O76 O 0.14345 0.75043 0.53971 0.0
O77 O 0.21298 0.78265 0.49827 0.0
O78 O 0.26202 0.78624 0.51786 0.0
O79 O 0.1846 0.82334 0.64904 0.0
O80 O 0.22779 0.8037 0.6181 0.0
C81 C 0.24079 0.77635 0.4886 0.0
C82 C 0.21296 0.81635 0.65557 0.0
O83 O 0.1449 0.81069 0.53429 0.0
Mg84 Mg 0.19005 0.21743 0.40303 0.0
O85 O 0.20189 0.15719 0.41553 0.0
O86 O 0.25127 0.15139 0.40014 0.0
Mg87 Mg 0.2707 0.20559 0.37384 0.0
C88 C 0.22589 0.138 0.41348 0.0
C89 C 0.13012 0.23838 0.45483 0.0
O90 O 0.14415 0.26976 0.45136 0.0
O91 O 0.21402 0.23312 0.47606 0.0
O92 O 0.26227 0.22942 0.45125 0.0
O93 O 0.18138 0.20861 0.32093 0.0
O94 O 0.22552 0.22321 0.35286 0.0
C95 C 0.24231 0.23749 0.48397 0.0
C96 C 0.20973 0.21576 0.31409 0.0
O97 O 0.14375 0.20987 0.4402 0.0
Mg98 Mg 0.84403 0.22131 0.56809 0.0
O99 O 0.83325 0.16033 0.55877 0.0
O100 O 0.78397 0.15383 0.57463 0.0
Mg101 Mg 0.7635 0.20825 0.59755 0.0
C102 C 0.80954 0.14061 0.56204 0.0
C103 C 0.90942 0.2388 0.54507 0.0
O104 O 0.89978 0.26529 0.57401 0.0
O105 O 0.82005 0.23389 0.4941 0.0
O106 O 0.77183 0.22958 0.51896 0.0
O107 O 0.85252 0.21539 0.65063 0.0
O108 O 0.80831 0.22781 0.61756 0.0
C109 C 0.7917 0.23713 0.48588 0.0
C110 C 0.82405 0.22198 0.65681 0.0
O111 O 0.89079 0.21413 0.5323 0.0
H112 H 0.35613 0.43512 0.94322 0.0
H113 H 0.25626 0.60803 0.01774 0.0
H114 H 0.25977 0.44248 0.9211 0.0
H115 H 0.35376 0.6098 0.01875 0.0
H116 H 0.25763 0.54639 -0.01529 0.0
H117 H 0.35629 0.49825 -0.02732 0.0
C118 C 0.33505 0.44996 0.94431 0.0
C119 C 0.30788 0.43328 0.92974 0.0
C120 C 0.27877 0.56022 -0.00798 0.0
C121 C 0.30793 0.50544 0.96372 0.0
C122 C 0.27801 0.59548 0.01109 0.0
C123 C 0.30494 0.61425 0.02121 0.0
C124 C 0.30665 0.54325 -0.01683 0.0
C125 C 0.33241 0.59644 0.01152 0.0
C126 C 0.33517 0.48601 0.96114 0.0
C127 C 0.28129 0.454 0.93197 0.0
N128 N 0.33257 0.56188 -0.00679 0.0
N129 N 0.28199 0.4888 0.94881 0.0
H130 H 0.43856 0.35208 -0.02735 0.0
H131 H 0.59286 0.23877 -0.01767 0.0
H132 H 0.44883 0.2424 0.9177 0.0
H133 H 0.58836 0.35278 0.01971 0.0
H134 H 0.53951 0.2399 0.96079 0.0
H135 H 0.49257 0.35301 -0.00654 0.0
C136 C 0.45209 0.32817 0.96519 0.0
C137 C 0.43909 0.29711 0.94337 0.0
C138 C 0.55012 0.26478 -0.02651 0.0
C139 C 0.50081 0.29805 0.96689 0.0
C140 C 0.58069 0.26416 -0.01421 0.0
C141 C 0.59519 0.29572 0.00291 0.0
C142 C 0.53365 0.29717 -0.02141 0.0
C143 C 0.57814 0.32782 0.00653 0.0
C144 C 0.48292 0.32879 -0.02314 0.0
C145 C 0.45776 0.26699 0.93436 0.0
N146 N 0.54822 0.32768 -0.00528 0.0
N147 N 0.48754 0.26823 0.94616 0.0
H148 H 0.675 0.43547 0.03517 0.0
H149 H 0.77719 0.60827 0.9694 0.0
H150 H 0.77106 0.44173 0.06138 0.0
H151 H 0.67974 0.6111 0.96641 0.0
H152 H 0.77491 0.54637 0.00099 0.0
H153 H 0.67573 0.49909 0.00844 0.0
C154 C 0.69619 0.45018 0.03559 0.0
C155 C 0.72302 0.43304 0.05041 0.0
C156 C 0.75399 0.56051 -0.00643 0.0
C157 C 0.724 0.50575 0.01954 0.0
C158 C 0.75527 0.5959 -0.02467 0.0
C159 C 0.72861 0.61501 0.96504 0.0
C160 C 0.72585 0.54377 0.00136 0.0
C161 C 0.70088 0.59746 -0.02619 0.0
C162 C 0.69658 0.48651 0.02032 0.0
C163 C 0.74979 0.4536 0.0502 0.0
N164 N 0.70022 0.56277 -0.00875 0.0
N165 N 0.7496 0.48868 0.03478 0.0
H166 H 0.42912 0.71759 0.96245 0.0
H167 H 0.60591 0.72053 0.02654 0.0
H168 H 0.4643 0.72623 0.11234 0.0
H169 H 0.57057 0.7241 0.87643 0.0
H170 H 0.55418 0.71842 0.05884 0.0
H171 H 0.48088 0.71573 0.93031 0.0
C172 C 0.4477 0.71897 -0.01138 0.0
C173 C 0.44233 0.7222 0.04016 0.0
C174 C 0.55777 0.7196 0.01883 0.0
C175 C 0.50164 0.72008 0.00364 0.0
C176 C 0.58731 0.72075 0.00036 0.0
C177 C 0.59262 0.72263 0.9487 0.0
C178 C 0.53335 0.7202 -0.0146 0.0
C179 C 0.5676 0.72282 0.91656 0.0
C180 C 0.47726 0.71797 0.97024 0.0
C181 C 0.46732 0.72387 0.0723 0.0
N182 N 0.5391 0.72166 0.93542 0.0
N183 N 0.49585 0.72283 0.05352 0.0
H184 H 0.76041 0.92378 0.47177 0.0
H185 H 0.85915 0.10042 0.53292 0.0
H186 H 0.85785 0.92387 0.46511 0.0
H187 H 0.76331 0.0913 0.56068 0.0
H188 H 0.85982 0.03646 0.50699 0.0
H189 H 0.76165 0.98592 0.50275 0.0
C190 C 0.78213 0.93684 0.47678 0.0
C191 C 0.80907 0.91847 0.46559 0.0
C192 C 0.83872 0.04851 0.51903 0.0
C193 C 0.81063 0.9901 0.50126 0.0
C194 C 0.8383 0.08502 0.53384 0.0
C195 C 0.8111 0.10145 0.54885 0.0
C196 C 0.81173 0.02838 0.51895 0.0
C197 C 0.78482 0.08002 0.54931 0.0
C198 C 0.78281 0.9724 0.49468 0.0
C199 C 0.8365 0.93693 0.47322 0.0
N200 N 0.78579 0.04479 0.53436 0.0
N201 N 0.83658 0.97181 0.49036 0.0
H202 H 0.09409 0.72309 0.50733 0.0
H203 H 0.94298 0.84039 0.4787 0.0
H204 H 0.09273 0.84015 0.51741 0.0
H205 H 0.94823 0.72495 0.45112 0.0
H206 H 0.99721 0.841 0.49661 0.0
H207 H 0.04022 0.72348 0.48901 0.0
C208 C 0.0825 0.74893 0.50544 0.0
C209 C 0.09799 0.78164 0.51397 0.0
C210 C 0.98645 0.81556 0.48669 0.0
C211 C 0.03604 0.78227 0.49337 0.0
C212 C 0.95547 0.81516 0.47669 0.0
C213 C 0.94101 0.78257 0.46332 0.0
C214 C 1.00305 0.78312 0.48353 0.0
C215 C 0.95837 0.75073 0.46115 0.0
C216 C 0.05167 0.74913 0.49503 0.0
C217 C 0.08172 0.81428 0.51098 0.0
N218 N 0.9884 0.75182 0.47112 0.0
N219 N 0.05159 0.81376 0.50115 0.0
H220 H 0.17655 0.09745 0.44283 0.0
H221 H 0.2766 0.92556 0.51823 0.0
H222 H 0.27296 0.09026 0.42023 0.0
H223 H 0.1791 0.92346 0.51943 0.0
H224 H 0.27519 0.98687 0.48462 0.0
H225 H 0.17646 0.03455 0.47256 0.0
C226 C 0.19766 0.08268 0.44386 0.0
C227 C 0.22482 0.09935 0.4291 0.0
C228 C 0.25406 0.97303 0.4921 0.0
C229 C 0.22486 0.02745 0.4634 0.0
C230 C 0.25484 0.93797 0.51152 0.0
C231 C 0.22792 0.91921 0.52186 0.0
C232 C 0.22616 0.98982 0.48314 0.0
C233 C 0.20043 0.93683 0.51204 0.0
C234 C 0.19758 0.04676 0.46084 0.0
C235 C 0.25145 0.07874 0.43124 0.0
N236 N 0.20026 0.9712 0.49341 0.0
N237 N 0.2508 0.04406 0.44827 0.0
H238 H 0.94018 0.18386 0.49634 0.0
H239 H 0.09695 0.29313 0.49646 0.0
H240 H 0.95246 0.2906 0.56048 0.0
H241 H 0.0901 0.18106 0.44986 0.0
H242 H 0.04348 0.29253 0.51794 0.0
H243 H 0.99429 0.18235 0.47582 0.0
C244 C 0.95417 0.20701 0.5059 0.0
C245 C 0.94171 0.23741 0.53018 0.0
C246 C 0.05361 0.26796 0.50322 0.0
C247 C 1.00354 0.2358 0.507 0.0
C248 C 0.08423 0.26828 0.49096 0.0
C249 C 0.09811 0.23711 0.47127 0.0
C250 C 0.03645 0.23631 0.49548 0.0
C251 C 0.08037 0.2057 0.46507 0.0
C252 C 0.98507 0.20606 0.49439 0.0
C253 C 0.96098 0.26654 0.54185 0.0
N254 N 0.05042 0.20614 0.47688 0.0
N255 N 0.99079 0.26501 0.53013 0.0
H256 H 0.26886 0.22868 0.29035 0.0
H257 H 0.23254 0.27381 0.00713 0.0
H258 H 0.18163 0.21062 0.22305 0.0
H259 H 0.32242 0.27934 0.06902 0.0
H260 H 0.21433 0.24775 0.08474 0.0
H261 H 0.28966 0.24278 0.20873 0.0
C262 C 0.25412 0.22691 0.25835 0.0
C263 C 0.22334 0.21845 0.26376 0.0
C264 C 0.23806 0.25446 0.0814 0.0
C265 C 0.24707 0.23561 0.16986 0.0
C266 C 0.24854 0.26962 0.03708 0.0
C267 C 0.27911 0.27919 0.03158 0.0
C268 C 0.25816 0.24898 0.12096 0.0
C269 C 0.29868 0.27261 0.07165 0.0
C270 C 0.26608 0.23523 0.2116 0.0
C271 C 0.20545 0.21704 0.22068 0.0
N272 N 0.2878 0.25813 0.11484 0.0
N273 N 0.21751 0.226 0.17557 0.0
H274 H 0.67877 0.32003 0.24965 0.0
H275 H 0.82424 0.25173 0.40015 0.0
H276 H 0.76487 0.29662 0.18072 0.0
H277 H 0.73409 0.25623 0.46212 0.0
H278 H 0.80456 0.27618 0.32164 0.0
H279 H 0.7007 0.30554 0.33114 0.0
C280 C 0.70236 0.31249 0.25168 0.0
C281 C 0.71997 0.30961 0.20823 0.0
C282 C 0.78917 0.27184 0.35259 0.0
C283 C 0.74509 0.29268 0.30093 0.0
C284 C 0.80039 0.25782 0.39732 0.0
C285 C 0.7808 0.25157 0.43768 0.0
C286 C 0.75824 0.27985 0.34844 0.0
C287 C 0.75008 0.26021 0.43195 0.0
C288 C 0.71483 0.30404 0.2981 0.0
C289 C 0.75041 0.29953 0.21305 0.0
N290 N 0.73978 0.27384 0.38823 0.0
N291 N 0.76194 0.29124 0.25845 0.0
H292 H 0.76377 0.80109 0.31157 0.0
H293 H 0.79583 0.79156 0.02073 0.0
H294 H 0.84797 0.83422 0.24381 0.0
H295 H 0.70936 0.76608 0.08698 0.0
H296 H 0.81279 0.81559 0.10062 0.0
H297 H 0.74111 0.79715 0.22925 0.0
C298 C 0.7774 0.80828 0.27951 0.0
C299 C 0.80797 0.81772 0.28469 0.0
C300 C 0.78999 0.80513 0.0977 0.0
C301 C 0.78217 0.81242 0.18985 0.0
C302 C 0.7803 0.79122 0.05209 0.0
C303 C 0.7513 0.77612 0.04746 0.0
C304 C 0.77072 0.80358 0.13931 0.0
C305 C 0.73199 0.77713 0.08906 0.0
C306 C 0.76439 0.80586 0.23233 0.0
C307 C 0.82441 0.82655 0.24155 0.0
N308 N 0.74223 0.79012 0.13354 0.0
N309 N 0.81141 0.82316 0.19584 0.0
H310 H 0.29414 0.74293 0.46742 0.0
H311 H 0.26057 0.73106 0.17754 0.0
H312 H 0.20725 0.76725 0.40306 0.0
H313 H 0.34495 0.69817 0.2437 0.0
H314 H 0.23834 0.73564 0.26037 0.0
H315 H 0.31069 0.71839 0.38745 0.0
C316 C 0.27843 0.74292 0.43647 0.0
C317 C 0.24942 0.75783 0.44166 0.0
C318 C 0.26157 0.72683 0.25684 0.0
C319 C 0.26838 0.72977 0.34969 0.0
C320 C 0.27432 0.72404 0.20937 0.0
C321 C 0.30482 0.71451 0.20357 0.0
C322 C 0.27952 0.72054 0.29898 0.0
C323 C 0.32143 0.7059 0.24642 0.0
C324 C 0.28789 0.72871 0.39081 0.0
C325 C 0.22989 0.75637 0.40056 0.0
N326 N 0.30868 0.70966 0.29242 0.0
N327 N 0.2399 0.74309 0.35601 0.0
H328 H 0.1874 0.83797 0.74424 0.0
H329 H 0.32809 0.76776 0.90303 0.0
H330 H 0.27165 0.80198 0.67953 0.0
H331 H 0.23945 0.78876 0.96421 0.0
H332 H 0.31135 0.79277 0.82303 0.0
H333 H 0.20994 0.83309 0.82728 0.0
C334 C 0.21078 0.82972 0.74737 0.0
C335 C 0.22753 0.81997 0.70488 0.0
C336 C 0.29571 0.79222 0.85421 0.0
C337 C 0.25334 0.81397 0.79957 0.0
C338 C 0.30527 0.77797 0.89983 0.0
C339 C 0.28497 0.77548 0.94002 0.0
C340 C 0.26573 0.80414 0.84899 0.0
C341 C 0.25571 0.78942 0.93393 0.0
C342 C 0.22361 0.82682 0.79477 0.0
C343 C 0.25779 0.80961 0.71114 0.0
N344 N 0.2469 0.80283 0.88917 0.0
N345 N 0.2696 0.80645 0.75762 0.0
H346 H 0.26325 0.3037 0.79081 0.0
H347 H 0.29954 0.25926 0.50654 0.0
H348 H 0.35042 0.32195 0.72267 0.0
H349 H 0.20971 0.25309 0.56945 0.0
H350 H 0.31769 0.28527 0.58426 0.0
H351 H 0.24241 0.28972 0.70924 0.0
C352 C 0.27797 0.30553 0.75864 0.0
C353 C 0.30874 0.31401 0.76378 0.0
C354 C 0.29398 0.27843 0.58112 0.0
C355 C 0.28497 0.297 0.66995 0.0
C356 C 0.28354 0.26331 0.53674 0.0
C357 C 0.253 0.25356 0.5315 0.0
C358 C 0.27389 0.28371 0.62101 0.0
C359 C 0.23343 0.25995 0.57188 0.0
C360 C 0.26599 0.29728 0.71193 0.0
C361 C 0.32661 0.31551 0.72051 0.0
N362 N 0.24428 0.27441 0.61514 0.0
N363 N 0.31453 0.30663 0.67543 0.0
H364 H 0.79832 0.27758 0.96489 0.0
H365 H 0.76498 0.23624 0.67903 0.0
H366 H 0.7089 0.28276 0.90119 0.0
H367 H 0.8513 0.21698 0.74851 0.0
H368 H 0.74343 0.25002 0.76035 0.0
H369 H 0.81744 0.25356 0.88651 0.0
C370 C 0.7826 0.27375 0.93437 0.0
C371 C 0.75188 0.28255 0.93965 0.0
C372 C 0.76698 0.24231 0.758 0.0
C373 C 0.77391 0.2547 0.84935 0.0
C374 C 0.77935 0.23415 0.71144 0.0
C375 C 0.81008 0.22531 0.70679 0.0
C376 C 0.78551 0.24212 0.80031 0.0
C377 C 0.82753 0.22365 0.75031 0.0
C378 C 0.79362 0.25977 0.8896 0.0
C379 C 0.73274 0.27656 0.89877 0.0
N380 N 0.81505 0.23238 0.79525 0.0
N381 N 0.74413 0.26319 0.85516 0.0
H382 H 0.68984 0.69613 0.74504 0.0
H383 H 0.83126 0.76627 0.58588 0.0
H384 H 0.77342 0.73406 0.80957 0.0
H385 H 0.7432 0.74329 0.5244 0.0
H386 H 0.81411 0.7419 0.66628 0.0
H387 H 0.71293 0.70031 0.66206 0.0
C388 C 0.71318 0.70467 0.74189 0.0
C389 C 0.72959 0.71512 0.78429 0.0
C390 C 0.7987 0.74187 0.63495 0.0
C391 C 0.75603 0.72029 0.68969 0.0
C392 C 0.80849 0.75573 0.5891 0.0
C393 C 0.78845 0.75752 0.54873 0.0
C394 C 0.76875 0.72962 0.64018 0.0
C395 C 0.75925 0.7432 0.55484 0.0
C396 C 0.72634 0.70715 0.69454 0.0
C397 C 0.75982 0.72584 0.77804 0.0
N398 N 0.75021 0.73018 0.5998 0.0
N399 N 0.77195 0.72857 0.7316 0.0
loop_
_geom_bond_atom_site_label_1
_geom_bond_atom_site_label_2
_geom_bond_distance
_geom_bond_site_symmetry_2
_ccdc_geom_bond_type
Mg0 O1 2.028 . S
Mg0 O7 1.986 . S
Mg0 O9 2.114 1_554 S
Mg0 O10 2.251 1_554 S
Mg0 O13 2.010 . S
O1 Mg0 2.028 . S
O1 C4 1.250 . S
O2 Mg3 2.028 . S
O2 C4 1.248 . S
Mg3 O2 2.028 . S
Mg3 O8 2.032 . S
Mg3 O10 2.079 1_554 S
C4 O1 1.250 . S
C4 O2 1.248 . S
C5 O6 1.264 . S
C5 O13 1.249 . S
O6 C5 1.264 . S
O7 Mg0 1.986 . S
O7 C11 1.246 . S
O8 Mg3 2.032 . S
O8 C11 1.259 . S
O9 Mg0 2.114 1_556 S
O9 C12 1.252 . S
O10 Mg0 2.251 1_556 S
O10 Mg3 2.079 1_556 S
O10 C12 1.273 . S
C11 O7 1.246 . S
C11 O8 1.259 . S
C12 O9 1.252 . S
C12 O10 1.273 . S
O13 Mg0 2.010 . S
O13 C5 1.249 . S
Mg14 O15 2.028 . S
Mg14 O21 1.986 1_554 S
Mg14 O23 2.114 . S
Mg14 O24 2.251 . S
Mg14 O27 2.010 . S
O15 Mg14 2.028 . S
O15 C18 1.250 . S
O16 Mg17 2.028 . S
O16 C18 1.248 . S
Mg17 O16 2.028 . S
Mg17 O22 2.032 1_554 S
Mg17 O24 2.079 . S
C18 O15 1.250 . S
C18 O16 1.248 . S
C19 O20 1.264 . S
C19 O27 1.249 . S
O20 C19 1.264 . S
O21 Mg14 1.986 1_556 S
O21 C25 1.246 . S
O22 Mg17 2.032 1_556 S
O22 C25 1.259 . S
O23 Mg14 2.114 . S
O23 C26 1.252 . S
O24 Mg14 2.251 . S
O24 Mg17 2.079 . S
O24 C26 1.273 . S
C25 O21 1.246 . S
C25 O22 1.259 . S
C26 O23 1.252 . S
C26 O24 1.273 . S
O27 Mg14 2.010 . S
O27 C19 1.249 . S
Mg28 O29 2.028 . S
Mg28 O35 1.986 . S
Mg28 O37 2.114 1_554 S
Mg28 O38 2.251 1_554 S
Mg28 O41 2.010 . S
O29 Mg28 2.028 . S
O29 C32 1.250 . S
O30 Mg31 2.028 . S
O30 C32 1.248 . S
Mg31 O30 2.028 . S
Mg31 O36 2.032 . S
Mg31 O38 2.079 1_554 S
C32 O29 1.250 . S
C32 O30 1.248 . S
C33 O34 1.264 . S
C33 O41 1.249 . S
O34 C33 1.264 . S
O35 Mg28 1.986 . S
O35 C39 1.246 . S
O36 Mg31 2.032 . S
O36 C39 1.259 . S
O37 Mg28 2.114 1_556 S
O37 C40 1.252 . S
O38 Mg28 2.251 1_556 S
O38 Mg31 2.079 1_556 S
O38 C40 1.273 . S
C39 O35 1.246 . S
C39 O36 1.259 . S
C40 O37 1.252 . S
C40 O38 1.273 . S
O41 Mg28 2.010 . S
O41 C33 1.249 . S
Mg42 O43 2.028 . S
Mg42 O49 1.986 1_554 S
Mg42 O51 2.114 . S
Mg42 O52 2.251 . S
Mg42 O55 2.010 . S
O43 Mg42 2.028 . S
O43 C46 1.250 . S
O44 Mg45 2.028 . S
O44 C46 1.248 . S
Mg45 O44 2.028 . S
Mg45 O50 2.032 1_554 S
Mg45 O52 2.079 . S
C46 O43 1.250 . S
C46 O44 1.248 . S
C47 O48 1.264 . S
C47 O55 1.249 . S
O48 C47 1.264 . S
O49 Mg42 1.986 1_556 S
O49 C53 1.246 . S
O50 Mg45 2.032 1_556 S
O50 C53 1.259 . S
O51 Mg42 2.114 . S
O51 C54 1.252 . S
O52 Mg42 2.251 . S
O52 Mg45 2.079 . S
O52 C54 1.273 . S
C53 O49 1.246 . S
C53 O50 1.259 . S
C54 O51 1.252 . S
C54 O52 1.273 . S
O55 Mg42 2.010 . S
O55 C47 1.249 . S
Mg56 O57 2.028 . S
Mg56 O63 1.986 . S
Mg56 O65 2.114 . S
Mg56 O66 2.251 . S
Mg56 O69 2.010 . S
O57 Mg56 2.028 . S
O57 C60 1.250 . S
O58 Mg59 2.028 . S
O58 C60 1.248 . S
Mg59 O58 2.028 . S
Mg59 O64 2.032 . S
Mg59 O66 2.079 . S
C60 O57 1.250 . S
C60 O58 1.248 . S
C61 O62 1.264 . S
C61 O69 1.249 . S
O62 C61 1.264 . S
O63 Mg56 1.986 . S
O63 C67 1.246 . S
O64 Mg59 2.032 . S
O64 C67 1.259 . S
O65 Mg56 2.114 . S
O65 C68 1.252 . S
O66 Mg56 2.251 . S
O66 Mg59 2.079 . S
O66 C68 1.273 . S
C67 O63 1.246 . S
C67 O64 1.259 . S
C68 O65 1.252 . S
C68 O66 1.273 . S
O69 Mg56 2.010 . S
O69 C61 1.249 . S
Mg70 O71 2.028 . S
Mg70 O77 1.986 . S
Mg70 O79 2.114 . S
Mg70 O80 2.251 . S
Mg70 O83 2.010 . S
O71 Mg70 2.028 . S
O71 C74 1.250 . S
O72 Mg73 2.028 . S
O72 C74 1.248 . S
Mg73 O72 2.028 . S
Mg73 O78 2.032 . S
Mg73 O80 2.079 . S
C74 O71 1.250 . S
C74 O72 1.248 . S
C75 O76 1.264 . S
C75 O83 1.249 . S
O76 C75 1.264 . S
O77 Mg70 1.986 . S
O77 C81 1.246 . S
O78 Mg73 2.032 . S
O78 C81 1.259 . S
O79 Mg70 2.114 . S
O79 C82 1.252 . S
O80 Mg70 2.251 . S
O80 Mg73 2.079 . S
O80 C82 1.273 . S
C81 O77 1.246 . S
C81 O78 1.259 . S
C82 O79 1.252 . S
C82 O80 1.273 . S
O83 Mg70 2.010 . S
O83 C75 1.249 . S
Mg84 O85 2.028 . S
Mg84 O91 1.986 . S
Mg84 O93 2.114 . S
Mg84 O94 2.251 . S
Mg84 O97 2.010 . S
O85 Mg84 2.028 . S
O85 C88 1.250 . S
O86 Mg87 2.028 . S
O86 C88 1.248 . S
Mg87 O86 2.028 . S
Mg87 O92 2.032 . S
Mg87 O94 2.079 . S
C88 O85 1.250 . S
C88 O86 1.248 . S
C89 O90 1.264 . S
C89 O97 1.249 . S
O90 C89 1.264 . S
O91 Mg84 1.986 . S
O91 C95 1.246 . S
O92 Mg87 2.032 . S
O92 C95 1.259 . S
O93 Mg84 2.114 . S
O93 C96 1.252 . S
O94 Mg84 2.251 . S
O94 Mg87 2.079 . S
O94 C96 1.273 . S
C95 O91 1.246 . S
C95 O92 1.259 . S
C96 O93 1.252 . S
C96 O94 1.273 . S
O97 Mg84 2.010 . S
O97 C89 1.249 . S
Mg98 O99 2.028 . S
Mg98 O105 1.986 . S
Mg98 O107 2.114 . S
Mg98 O108 2.251 . S
Mg98 O111 2.010 . S
O99 Mg98 2.028 . S
O99 C102 1.250 . S
O100 Mg101 2.028 . S
O100 C102 1.248 . S
Mg101 O100 2.028 . S
Mg101 O106 2.032 . S
Mg101 O108 2.079 . S
C102 O99 1.250 . S
C102 O100 1.248 . S
C103 O104 1.264 . S
C103 O111 1.249 . S
O104 C103 1.264 . S
O105 Mg98 1.986 . S
O105 C109 1.246 . S
O106 Mg101 2.032 . S
O106 C109 1.259 . S
O107 Mg98 2.114 . S
O107 C110 1.252 . S
O108 Mg98 2.251 . S
O108 Mg101 2.079 . S
O108 C110 1.273 . S
C109 O105 1.246 . S
C109 O106 1.259 . S
C110 O107 1.252 . S
C110 O108 1.273 . S
O111 Mg98 2.010 . S
O111 C103 1.249 . S
H112 C118 0.930 . S
H113 C122 0.930 . S
H114 C127 0.929 . S
H115 C125 0.929 . S
H116 C120 0.929 . S
H117 C126 0.929 . S
C118 H112 0.930 . S
C118 C119 1.367 . S
C118 C126 1.378 . S
C119 C118 1.367 . S
C119 C127 1.433 1_554 S
C120 H116 0.929 . S
C120 C122 1.378 . S
C120 C124 1.350 1_556 S
C121 C124 1.463 . S
C121 C126 1.350 . S
C121 N129 1.427 1_554 S
C122 H113 0.930 . S
C122 C120 1.378 . S
C122 C123 1.367 1_556 S
C123 C122 1.367 1_554 S
C123 C125 1.433 . S
C124 C120 1.350 1_554 S
C124 C121 1.463 . S
C124 N128 1.427 . S
C125 H115 0.929 . S
C125 C123 1.433 . S
C125 N128 1.384 . S
C126 H117 0.929 . S
C126 C118 1.378 . S
C126 C121 1.350 . S
C127 H114 0.929 . S
C127 C119 1.433 1_556 S
C127 N129 1.384 . S
N128 C124 1.427 . S
N128 C125 1.384 . S
N129 C121 1.427 1_556 S
N129 C127 1.384 . S
H130 C136 0.930 . S
H131 C140 0.930 . S
H132 C145 0.929 . S
H133 C143 0.929 . S
H134 C138 0.929 . S
H135 C144 0.929 . S
C136 H130 0.930 . S
C136 C137 1.367 1_556 S
C136 C144 1.378 . S
C137 C136 1.367 1_554 S
C137 C145 1.433 . S
C138 H134 0.929 . S
C138 C140 1.378 . S
C138 C142 1.350 . S
C139 C142 1.463 . S
C139 C144 1.350 1_554 S
C139 N147 1.427 . S
C140 H131 0.930 . S
C140 C138 1.378 . S
C140 C141 1.367 . S
C141 C140 1.367 . S
C141 C143 1.433 1_554 S
C142 C138 1.350 . S
C142 C139 1.463 . S
C142 N146 1.427 1_554 S
C143 H133 0.929 . S
C143 C141 1.433 1_556 S
C143 N146 1.384 . S
C144 H135 0.929 . S
C144 C136 1.378 . S
C144 C139 1.350 1_556 S
C145 H132 0.929 . S
C145 C137 1.433 . S
C145 N147 1.384 . S
N146 C142 1.427 1_556 S
N146 C143 1.384 . S
N147 C139 1.427 . S
N147 C145 1.384 . S
H148 C154 0.930 . S
H149 C158 0.930 . S
H150 C163 0.929 . S
H151 C161 0.929 . S
H152 C156 0.929 . S
H153 C162 0.929 . S
C154 H148 0.930 . S
C154 C155 1.367 1_556 S
C154 C162 1.378 . S
C155 C154 1.367 1_554 S
C155 C163 1.433 . S
C156 H152 0.929 . S
C156 C158 1.378 . S
C156 C160 1.350 . S
C157 C160 1.463 . S
C157 C162 1.350 1_554 S
C157 N165 1.427 . S
C158 H149 0.930 . S
C158 C156 1.378 . S
C158 C159 1.367 . S
C159 C158 1.367 . S
C159 C161 1.433 1_554 S
C160 C156 1.350 . S
C160 C157 1.463 . S
C160 N164 1.427 1_554 S
C161 H151 0.929 . S
C161 C159 1.433 1_556 S
C161 N164 1.384 . S
C162 H153 0.929 . S
C162 C154 1.378 . S
C162 C157 1.350 1_556 S
C163 H150 0.929 . S
C163 C155 1.433 . S
C163 N165 1.384 . S
N164 C160 1.427 1_556 S
N164 C161 1.384 . S
N165 C157 1.427 . S
N165 C163 1.384 . S
H166 C172 0.930 . S
H167 C176 0.930 . S
H168 C181 0.929 . S
H169 C179 0.929 . S
H170 C174 0.929 . S
H171 C180 0.929 . S
C172 H166 0.930 . S
C172 C173 1.367 1_556 S
C172 C180 1.378 . S
C173 C172 1.367 1_554 S
C173 C181 1.433 . S
C174 H170 0.929 . S
C174 C176 1.378 . S
C174 C178 1.350 . S
C175 C178 1.463 . S
C175 C180 1.350 1_554 S
C175 N183 1.427 . S
C176 H167 0.930 . S
C176 C174 1.378 . S
C176 C177 1.367 . S
C177 C176 1.367 . S
C177 C179 1.433 1_554 S
C178 C174 1.350 . S
C178 C175 1.463 . S
C178 N182 1.427 1_554 S
C179 H169 0.929 . S
C179 C177 1.433 1_556 S
C179 N182 1.384 . S
C180 H171 0.929 . S
C180 C172 1.378 . S
C180 C175 1.350 1_556 S
C181 H168 0.929 . S
C181 C173 1.433 . S
C181 N183 1.384 . S
N182 C178 1.427 1_556 S
N182 C179 1.384 . S
N183 C175 1.427 . S
N183 C181 1.384 . S
H184 C190 0.930 . S
H185 C194 0.930 . S
H186 C199 0.929 . S
H187 C197 0.929 . S
H188 C192 0.929 . S
H189 C198 0.929 . S
C190 H184 0.930 . S
C190 C191 1.367 . S
C190 C198 1.378 . S
C191 C190 1.367 . S
C191 C199 1.433 . S
C192 H188 0.929 . S
C192 C194 1.378 . S
C192 C196 1.350 . S
C193 C196 1.463 1_565 S
C193 C198 1.350 . S
C193 N201 1.427 . S
C194 H185 0.930 . S
C194 C192 1.378 . S
C194 C195 1.367 . S
C195 C194 1.367 . S
C195 C197 1.433 . S
C196 C192 1.350 . S
C196 C193 1.463 1_545 S
C196 N200 1.427 . S
C197 H187 0.929 . S
C197 C195 1.433 . S
C197 N200 1.384 . S
C198 H189 0.929 . S
C198 C190 1.378 . S
C198 C193 1.350 . S
C199 H186 0.929 . S
C199 C191 1.433 . S
C199 N201 1.384 . S
N200 C196 1.427 . S
N200 C197 1.384 . S
N201 C193 1.427 . S
N201 C199 1.384 . S
H202 C208 0.930 . S
H203 C212 0.930 . S
H204 C217 0.929 . S
H205 C215 0.929 . S
H206 C210 0.929 . S
H207 C216 0.929 . S
C208 H202 0.930 . S
C208 C209 1.367 . S
C208 C216 1.378 . S
C209 C208 1.367 . S
C209 C217 1.433 . S
C210 H206 0.929 . S
C210 C212 1.378 . S
C210 C214 1.350 . S
C211 C214 1.463 1_455 S
C211 C216 1.350 . S
C211 N219 1.427 . S
C212 H203 0.930 . S
C212 C210 1.378 . S
C212 C213 1.367 . S
C213 C212 1.367 . S
C213 C215 1.433 . S
C214 C210 1.350 . S
C214 C211 1.463 1_655 S
C214 N218 1.427 . S
C215 H205 0.929 . S
C215 C213 1.433 . S
C215 N218 1.384 . S
C216 H207 0.929 . S
C216 C208 1.378 . S
C216 C211 1.350 . S
C217 H204 0.929 . S
C217 C209 1.433 . S
C217 N219 1.384 . S
N218 C214 1.427 . S
N218 C215 1.384 . S
N219 C211 1.427 . S
N219 C217 1.384 . S
H220 C226 0.930 . S
H221 C230 0.930 . S
H222 C235 0.929 . S
H223 C233 0.929 . S
H224 C228 0.929 . S
H225 C234 0.929 . S
C226 H220 0.930 . S
C226 C227 1.367 . S
C226 C234 1.378 . S
C227 C226 1.367 . S
C227 C235 1.433 . S
C228 H224 0.929 . S
C228 C230 1.378 . S
C228 C232 1.350 . S
C229 C232 1.463 1_545 S
C229 C234 1.350 . S
C229 N237 1.427 . S
C230 H221 0.930 . S
C230 C228 1.378 . S
C230 C231 1.367 . S
C231 C230 1.367 . S
C231 C233 1.433 . S
C232 C228 1.350 . S
C232 C229 1.463 1_565 S
C232 N236 1.427 . S
C233 H223 0.929 . S
C233 C231 1.433 . S
C233 N236 1.384 . S
C234 H225 0.929 . S
C234 C226 1.378 . S
C234 C229 1.350 . S
C235 H222 0.929 . S
C235 C227 1.433 . S
C235 N237 1.384 . S
N236 C232 1.427 . S
N236 C233 1.384 . S
N237 C229 1.427 . S
N237 C235 1.384 . S
H238 C244 0.930 . S
H239 C248 0.930 . S
H240 C253 0.929 . S
H241 C251 0.929 . S
H242 C246 0.929 . S
H243 C252 0.929 . S
C244 H238 0.930 . S
C244 C245 1.367 . S
C244 C252 1.378 . S
C245 C244 1.367 . S
C245 C253 1.433 . S
C246 H242 0.929 . S
C246 C248 1.378 . S
C246 C250 1.350 . S
C247 C250 1.463 1_655 S
C247 C252 1.350 . S
C247 N255 1.427 . S
C248 H239 0.930 . S
C248 C246 1.378 . S
C248 C249 1.367 . S
C249 C248 1.367 . S
C249 C251 1.433 . S
C250 C246 1.350 . S
C250 C247 1.463 1_455 S
C250 N254 1.427 . S
C251 H241 0.929 . S
C251 C249 1.433 . S
C251 N254 1.384 . S
C252 H243 0.929 . S
C252 C244 1.378 . S
C252 C247 1.350 . S
C253 H240 0.929 . S
C253 C245 1.433 . S
C253 N255 1.384 . S
N254 C250 1.427 . S
N254 C251 1.384 . S
N255 C247 1.427 . S
N255 C253 1.384 . S
H256 C262 0.930 . S
H257 C266 0.930 . S
H258 C271 0.929 . S
H259 C269 0.929 . S
H260 C264 0.929 . S
H261 C270 0.929 . S
C262 H256 0.930 . S
C262 C263 1.367 . S
C262 C270 1.378 . S
C263 C262 1.367 . S
C263 C271 1.433 . S
C264 H260 0.929 . S
C264 C266 1.378 . S
C264 C268 1.350 . S
C265 C268 1.463 . S
C265 C270 1.350 . S
C265 N273 1.427 . S
C266 H257 0.930 . S
C266 C264 1.378 . S
C266 C267 1.367 . S
C267 C266 1.367 . S
C267 C269 1.433 . S
C268 C264 1.350 . S
C268 C265 1.463 . S
C268 N272 1.427 . S
C269 H259 0.929 . S
C269 C267 1.433 . S
C269 N272 1.384 . S
C270 H261 0.929 . S
C270 C262 1.378 . S
C270 C265 1.350 . S
C271 H258 0.929 . S
C271 C263 1.433 . S
C271 N273 1.384 . S
N272 C268 1.427 . S
N272 C269 1.384 . S
N273 C265 1.427 . S
N273 C271 1.384 . S
H274 C280 0.930 . S
H275 C284 0.930 . S
H276 C289 0.929 . S
H277 C287 0.929 . S
H278 C282 0.929 . S
H279 C288 0.929 . S
C280 H274 0.930 . S
C280 C281 1.367 . S
C280 C288 1.378 . S
C281 C280 1.367 . S
C281 C289 1.433 . S
C282 H278 0.929 . S
C282 C284 1.378 . S
C282 C286 1.350 . S
C283 C286 1.463 . S
C283 C288 1.350 . S
C283 N291 1.427 . S
C284 H275 0.930 . S
C284 C282 1.378 . S
C284 C285 1.367 . S
C285 C284 1.367 . S
C285 C287 1.433 . S
C286 C282 1.350 . S
C286 C283 1.463 . S
C286 N290 1.427 . S
C287 H277 0.929 . S
C287 C285 1.433 . S
C287 N290 1.384 . S
C288 H279 0.929 . S
C288 C280 1.378 . S
C288 C283 1.350 . S
C289 H276 0.929 . S
C289 C281 1.433 . S
C289 N291 1.384 . S
N290 C286 1.427 . S
N290 C287 1.384 . S
N291 C283 1.427 . S
N291 C289 1.384 . S
H292 C298 0.930 . S
H293 C302 0.930 . S
H294 C307 0.929 . S
H295 C305 0.929 . S
H296 C300 0.929 . S
H297 C306 0.929 . S
C298 H292 0.930 . S
C298 C299 1.367 . S
C298 C306 1.378 . S
C299 C298 1.367 . S
C299 C307 1.433 . S
C300 H296 0.929 . S
C300 C302 1.378 . S
C300 C304 1.350 . S
C301 C304 1.463 . S
C301 C306 1.350 . S
C301 N309 1.427 . S
C302 H293 0.930 . S
C302 C300 1.378 . S
C302 C303 1.367 . S
C303 C302 1.367 . S
C303 C305 1.433 . S
C304 C300 1.350 . S
C304 C301 1.463 . S
C304 N308 1.427 . S
C305 H295 0.929 . S
C305 C303 1.433 . S
C305 N308 1.384 . S
C306 H297 0.929 . S
C306 C298 1.378 . S
C306 C301 1.350 . S
C307 H294 0.929 . S
C307 C299 1.433 . S
C307 N309 1.384 . S
N308 C304 1.427 . S
N308 C305 1.384 . S
N309 C301 1.427 . S
N309 C307 1.384 . S
H310 C316 0.930 . S
H311 C320 0.930 . S
H312 C325 0.929 . S
H313 C323 0.929 . S
H314 C318 0.929 . S
H315 C324 0.929 . S
C316 H310 0.930 . S
C316 C317 1.367 . S
C316 C324 1.378 . S
C317 C316 1.367 . S
C317 C325 1.433 . S
C318 H314 0.929 . S
C318 C320 1.378 . S
C318 C322 1.350 . S
C319 C322 1.463 . S
C319 C324 1.350 . S
C319 N327 1.427 . S
C320 H311 0.930 . S
C320 C318 1.378 . S
C320 C321 1.367 . S
C321 C320 1.367 . S
C321 C323 1.433 . S
C322 C318 1.350 . S
C322 C319 1.463 . S
C322 N326 1.427 . S
C323 H313 0.929 . S
C323 C321 1.433 . S
C323 N326 1.384 . S
C324 H315 0.929 . S
C324 C316 1.378 . S
C324 C319 1.350 . S
C325 H312 0.929 . S
C325 C317 1.433 . S
C325 N327 1.384 . S
N326 C322 1.427 . S
N326 C323 1.384 . S
N327 C319 1.427 . S
N327 C325 1.384 . S
H328 C334 0.930 . S
H329 C338 0.930 . S
H330 C343 0.929 . S
H331 C341 0.929 . S
H332 C336 0.929 . S
H333 C342 0.929 . S
C334 H328 0.930 . S
C334 C335 1.367 . S
C334 C342 1.378 . S
C335 C334 1.367 . S
C335 C343 1.433 . S
C336 H332 0.929 . S
C336 C338 1.378 . S
C336 C340 1.350 . S
C337 C340 1.463 . S
C337 C342 1.350 . S
C337 N345 1.427 . S
C338 H329 0.930 . S
C338 C336 1.378 . S
C338 C339 1.367 . S
C339 C338 1.367 . S
C339 C341 1.433 . S
C340 C336 1.350 . S
C340 C337 1.463 . S
C340 N344 1.427 . S
C341 H331 0.929 . S
C341 C339 1.433 . S
C341 N344 1.384 . S
C342 H333 0.929 . S
C342 C334 1.378 . S
C342 C337 1.350 . S
C343 H330 0.929 . S
C343 C335 1.433 . S
C343 N345 1.384 . S
N344 C340 1.427 . S
N344 C341 1.384 . S
N345 C337 1.427 . S
N345 C343 1.384 . S
H346 C352 0.930 . S
H347 C356 0.930 . S
H348 C361 0.929 . S
H349 C359 0.929 . S
H350 C354 0.929 . S
H351 C360 0.929 . S
C352 H346 0.930 . S
C352 C353 1.367 . S
C352 C360 1.378 . S
C353 C352 1.367 . S
C353 C361 1.433 . S
C354 H350 0.929 . S
C354 C356 1.378 . S
C354 C358 1.350 . S
C355 C358 1.463 . S
C355 C360 1.350 . S
C355 N363 1.427 . S
C356 H347 0.930 . S
C356 C354 1.378 . S
C356 C357 1.367 . S
C357 C356 1.367 . S
C357 C359 1.433 . S
C358 C354 1.350 . S
C358 C355 1.463 . S
C358 N362 1.427 . S
C359 H349 0.929 . S
C359 C357 1.433 . S
C359 N362 1.384 . S
C360 H351 0.929 . S
C360 C352 1.378 . S
C360 C355 1.350 . S
C361 H348 0.929 . S
C361 C353 1.433 . S
C361 N363 1.384 . S
N362 C358 1.427 . S
N362 C359 1.384 . S
N363 C355 1.427 . S
N363 C361 1.384 . S
H364 C370 0.930 . S
H365 C374 0.930 . S
H366 C379 0.929 . S
H367 C377 0.929 . S
H368 C372 0.929 . S
H369 C378 0.929 . S
C370 H364 0.930 . S
C370 C371 1.367 . S
C370 C378 1.378 . S
C371 C370 1.367 . S
C371 C379 1.433 . S
C372 H368 0.929 . S
C372 C374 1.378 . S
C372 C376 1.350 . S
C373 C376 1.463 . S
C373 C378 1.350 . S
C373 N381 1.427 . S
C374 H365 0.930 . S
C374 C372 1.378 . S
C374 C375 1.367 . S
C375 C374 1.367 . S
C375 C377 1.433 . S
C376 C372 1.350 . S
C376 C373 1.463 . S
C376 N380 1.427 . S
C377 H367 0.929 . S
C377 C375 1.433 . S
C377 N380 1.384 . S
C378 H369 0.929 . S
C378 C370 1.378 . S
C378 C373 1.350 . S
C379 H366 0.929 . S
C379 C371 1.433 . S
C379 N381 1.384 . S
N380 C376 1.427 . S
N380 C377 1.384 . S
N381 C373 1.427 . S
N381 C379 1.384 . S
H382 C388 0.930 . S
H383 C392 0.930 . S
H384 C397 0.929 . S
H385 C395 0.929 . S
H386 C390 0.929 . S
H387 C396 0.929 . S
C388 H382 0.930 . S
C388 C389 1.367 . S
C388 C396 1.378 . S
C389 C388 1.367 . S
C389 C397 1.433 . S
C390 H386 0.929 . S
C390 C392 1.378 . S
C390 C394 1.350 . S
C391 C394 1.463 . S
C391 C396 1.350 . S
C391 N399 1.427 . S
C392 H383 0.930 . S
C392 C390 1.378 . S
C392 C393 1.367 . S
C393 C392 1.367 . S
C393 C395 1.433 . S
C394 C390 1.350 . S
C394 C391 1.463 . S
C394 N398 1.427 . S
C395 H385 0.929 . S
C395 C393 1.433 . S
C395 N398 1.384 . S
C396 H387 0.929 . S
C396 C388 1.378 . S
C396 C391 1.350 . S
C397 H384 0.929 . S
C397 C389 1.433 . S
C397 N399 1.384 . S
N398 C394 1.427 . S
N398 C395 1.384 . S
N399 C391 1.427 . S
N399 C397 1.384 . S
C119 C4 1.467 . S
C123 C46 1.462 . S
C137 C5 1.305 . S
C141 C19 1.282 . S
C155 C18 1.467 . S
C159 C32 1.462 . S
C173 C47 1.285 . S
C177 C33 1.304 . S
C191 C60 1.464 . S
C195 C102 1.464 . S
C209 C75 1.282 . S
C213 C61 1.305 . S
C227 C88 1.469 . S
C231 C74 1.460 . S
C245 C103 1.307 . S
C249 C89 1.281 . S
C263 C96 1.421 . S
C267 C11 1.393 . S
C281 C26 1.422 . S
C285 C109 1.399 . S
C299 C68 1.422 . S
C303 C39 1.397 . S
C317 C81 1.392 . S
C321 C54 1.421 . S
C335 C82 1.421 . S
C339 C53 1.395 . S
C353 C12 1.422 . S
C357 C95 1.397 . S
C371 C25 1.392 . S
C375 C110 1.421 . S
C389 C40 1.421 . S
C393 C67 1.396 . S
