# Generated by pormake.
# Topology xfc, (7)-cn, num edge types: 1
# Building blocks:
#     Node 0, Type 0, BuildingBlock: HICVOG_clean_sbu_0, # of connection points: 7
#     Node 1, Type 0, BuildingBlock: HICVOG_clean_sbu_0, # of connection points: 7
#     Node 2, Type 0, BuildingBlock: HICVOG_clean_sbu_0, # of connection points: 7
#     Node 3, Type 0, BuildingBlock: HICVOG_clean_sbu_0, # of connection points: 7
#     Node 4, Type 0, BuildingBlock: HICVOG_clean_sbu_0, # of connection points: 7
#     Node 5, Type 0, BuildingBlock: HICVOG_clean_sbu_0, # of connection points: 7
#     Node 6, Type 0, BuildingBlock: HICVOG_clean_sbu_0, # of connection points: 7
#     Node 7, Type 0, BuildingBlock: HICVOG_clean_sbu_0, # of connection points: 7
#     Node 8, Type 0, BuildingBlock: HICVOG_clean_sbu_0, # of connection points: 7
#     Node 9, Type 0, BuildingBlock: HICVOG_clean_sbu_0, # of connection points: 7
#     Node 10, Type 0, BuildingBlock: HICVOG_clean_sbu_0, # of connection points: 7
#     Node 11, Type 0, BuildingBlock: HICVOG_clean_sbu_0, # of connection points: 7
#     Node 12, Type 0, BuildingBlock: HICVOG_clean_sbu_0, # of connection points: 7
#     Node 13, Type 0, BuildingBlock: HICVOG_clean_sbu_0, # of connection points: 7
#     Node 14, Type 0, BuildingBlock: HICVOG_clean_sbu_0, # of connection points: 7
#     Node 15, Type 0, BuildingBlock: HICVOG_clean_sbu_0, # of connection points: 7
#     Edge 16, Type (0, 0), BuildingBlock: KIFKEQ_clean_linker_1, # of connection points: 2
#     Edge 17, Type (0, 0), BuildingBlock: KIFKEQ_clean_linker_1, # of connection points: 2
#     Edge 18, Type (0, 0), BuildingBlock: KIFKEQ_clean_linker_1, # of connection points: 2
#     Edge 19, Type (0, 0), BuildingBlock: KIFKEQ_clean_linker_1, # of connection points: 2
#     Edge 20, Type (0, 0), BuildingBlock: KIFKEQ_clean_linker_1, # of connection points: 2
#     Edge 21, Type (0, 0), BuildingBlock: KIFKEQ_clean_linker_1, # of connection points: 2
#     Edge 22, Type (0, 0), BuildingBlock: KIFKEQ_clean_linker_1, # of connection points: 2
#     Edge 23, Type (0, 0), BuildingBlock: KIFKEQ_clean_linker_1, # of connection points: 2
#     Edge 24, Type (0, 0), BuildingBlock: KIFKEQ_clean_linker_1, # of connection points: 2
#     Edge 25, Type (0, 0), BuildingBlock: KIFKEQ_clean_linker_1, # of connection points: 2
#     Edge 26, Type (0, 0), BuildingBlock: KIFKEQ_clean_linker_1, # of connection points: 2
#     Edge 27, Type (0, 0), BuildingBlock: KIFKEQ_clean_linker_1, # of connection points: 2
#     Edge 28, Type (0, 0), BuildingBlock: KIFKEQ_clean_linker_1, # of connection points: 2
#     Edge 29, Type (0, 0), BuildingBlock: KIFKEQ_clean_linker_1, # of connection points: 2
#     Edge 30, Type (0, 0), BuildingBlock: KIFKEQ_clean_linker_1, # of connection points: 2
#     Edge 31, Type (0, 0), BuildingBlock: KIFKEQ_clean_linker_1, # of connection points: 2
#     Edge 32, Type (0, 0), BuildingBlock: KIFKEQ_clean_linker_1, # of connection points: 2
#     Edge 33, Type (0, 0), BuildingBlock: KIFKEQ_clean_linker_1, # of connection points: 2
#     Edge 34, Type (0, 0), BuildingBlock: KIFKEQ_clean_linker_1, # of connection points: 2
#     Edge 35, Type (0, 0), BuildingBlock: KIFKEQ_clean_linker_1, # of connection points: 2
#     Edge 36, Type (0, 0), BuildingBlock: KIFKEQ_clean_linker_1, # of connection points: 2
#     Edge 37, Type (0, 0), BuildingBlock: KIFKEQ_clean_linker_1, # of connection points: 2
#     Edge 38, Type (0, 0), BuildingBlock: KIFKEQ_clean_linker_1, # of connection points: 2
#     Edge 39, Type (0, 0), BuildingBlock: KIFKEQ_clean_linker_1, # of connection points: 2
#     Edge 40, Type (0, 0), BuildingBlock: KIFKEQ_clean_linker_1, # of connection points: 2
#     Edge 41, Type (0, 0), BuildingBlock: KIFKEQ_clean_linker_1, # of connection points: 2
#     Edge 42, Type (0, 0), BuildingBlock: KIFKEQ_clean_linker_1, # of connection points: 2
#     Edge 43, Type (0, 0), BuildingBlock: KIFKEQ_clean_linker_1, # of connection points: 2
#     Edge 44, Type (0, 0), BuildingBlock: KIFKEQ_clean_linker_1, # of connection points: 2
#     Edge 45, Type (0, 0), BuildingBlock: KIFKEQ_clean_linker_1, # of connection points: 2
#     Edge 46, Type (0, 0), BuildingBlock: KIFKEQ_clean_linker_1, # of connection points: 2
#     Edge 47, Type (0, 0), BuildingBlock: KIFKEQ_clean_linker_1, # of connection points: 2
#     Edge 48, Type (0, 0), BuildingBlock: KIFKEQ_clean_linker_1, # of connection points: 2
#     Edge 49, Type (0, 0), BuildingBlock: KIFKEQ_clean_linker_1, # of connection points: 2
#     Edge 50, Type (0, 0), BuildingBlock: KIFKEQ_clean_linker_1, # of connection points: 2
#     Edge 51, Type (0, 0), BuildingBlock: KIFKEQ_clean_linker_1, # of connection points: 2
#     Edge 52, Type (0, 0), BuildingBlock: KIFKEQ_clean_linker_1, # of connection points: 2
#     Edge 53, Type (0, 0), BuildingBlock: KIFKEQ_clean_linker_1, # of connection points: 2
#     Edge 54, Type (0, 0), BuildingBlock: KIFKEQ_clean_linker_1, # of connection points: 2
#     Edge 55, Type (0, 0), BuildingBlock: KIFKEQ_clean_linker_1, # of connection points: 2
#     Edge 56, Type (0, 0), BuildingBlock: KIFKEQ_clean_linker_1, # of connection points: 2
#     Edge 57, Type (0, 0), BuildingBlock: KIFKEQ_clean_linker_1, # of connection points: 2
#     Edge 58, Type (0, 0), BuildingBlock: KIFKEQ_clean_linker_1, # of connection points: 2
#     Edge 59, Type (0, 0), BuildingBlock: KIFKEQ_clean_linker_1, # of connection points: 2
#     Edge 60, Type (0, 0), BuildingBlock: KIFKEQ_clean_linker_1, # of connection points: 2
#     Edge 61, Type (0, 0), BuildingBlock: KIFKEQ_clean_linker_1, # of connection points: 2
#     Edge 62, Type (0, 0), BuildingBlock: KIFKEQ_clean_linker_1, # of connection points: 2
#     Edge 63, Type (0, 0), BuildingBlock: KIFKEQ_clean_linker_1, # of connection points: 2
#     Edge 64, Type (0, 0), BuildingBlock: KIFKEQ_clean_linker_1, # of connection points: 2
#     Edge 65, Type (0, 0), BuildingBlock: KIFKEQ_clean_linker_1, # of connection points: 2
#     Edge 66, Type (0, 0), BuildingBlock: KIFKEQ_clean_linker_1, # of connection points: 2
#     Edge 67, Type (0, 0), BuildingBlock: KIFKEQ_clean_linker_1, # of connection points: 2
#     Edge 68, Type (0, 0), BuildingBlock: KIFKEQ_clean_linker_1, # of connection points: 2
#     Edge 69, Type (0, 0), BuildingBlock: KIFKEQ_clean_linker_1, # of connection points: 2
#     Edge 70, Type (0, 0), BuildingBlock: KIFKEQ_clean_linker_1, # of connection points: 2
#     Edge 71, Type (0, 0), BuildingBlock: KIFKEQ_clean_linker_1, # of connection points: 2
# Relax obj value: 0.456
# Max RMSD: 0.250
# Mean RMSD: 0.249
data_MOF--net-xfc--node1-HICVOG_clean_sbu_0--edge1-KIFKEQ_clean_linker_1
_symmetry_space_group_name_H-M    P1
_symmetry_Int_Tables_number       1
_symmetry_cell_setting            triclinic
loop_
_symmetry_equiv_pos_as_xyz
'x, y, z'
_cell_length_a     43.050425
_cell_length_b     43.07551
_cell_length_c     26.922072
_cell_angle_alpha  89.845521
_cell_angle_beta   90.209521
_cell_angle_gamma 89.993481
loop_
_atom_site_label
_atom_site_type_symbol
_atom_site_fract_x
_atom_site_fract_y
_atom_site_fract_z
_atom_type_partial_charge
Zn0 Zn 0.03458 1.00394 0.27187 0.0
C1 C 0.97098 0.97752 0.376 0.0
N2 N 0.99734 0.97119 0.40105 0.0
C3 C 0.01975 0.97927 0.36922 0.0
N4 N 1.00787 0.98992 0.32598 0.0
N5 N 0.97705 0.98933 0.32996 0.0
C6 C 0.92556 0.05698 0.23662 0.0
O7 O 0.94901 0.05316 0.20627 0.0
O8 O 0.06781 0.97178 0.25573 0.0
Zn9 Zn 0.94735 0.99633 0.27461 0.0
N10 N 0.05563 0.04209 0.2914 0.0
C11 C 0.06253 0.08171 0.3518 0.0
C12 C 0.04715 0.05531 0.33508 0.0
C13 C 0.07881 0.05459 0.26321 0.0
N14 N 0.08563 0.09409 0.32396 0.0
C15 C 0.09438 0.08153 0.27978 0.0
O16 O 0.96556 0.99183 0.20513 0.0
C17 C 0.98981 1.00097 0.18232 0.0
O18 O 0.01404 0.00992 0.20535 0.0
H19 H 0.02872 0.04531 0.35705 0.0
H20 H 0.08529 0.04326 0.22897 0.0
C21 C 0.88586 0.97425 0.27424 0.0
C22 C 0.8614 0.95295 0.28017 0.0
C23 C 0.89874 0.91366 0.29843 0.0
C24 C 0.92276 0.9348 0.2907 0.0
N25 N 0.91573 0.9648 0.27996 0.0
N26 N 0.86885 0.92312 0.29253 0.0
H27 H 0.88177 0.99801 0.26386 0.0
C28 C 0.06043 0.95056 0.22501 0.0
O29 O 0.0314 0.94814 0.21051 0.0
O30 O 0.92275 0.03827 0.27334 0.0
H31 H 0.94673 0.92771 0.29496 0.0
H32 H 0.05617 0.09234 0.38668 0.0
H33 H 0.90379 0.88984 0.30833 0.0
Zn34 Zn 0.27333 0.70553 0.54987 0.0
C35 C 0.27739 0.78122 0.64001 0.0
N36 N 0.28587 0.76015 0.67408 0.0
C37 C 0.28316 0.73286 0.6503 0.0
N38 N 0.27249 0.73702 0.603 0.0
N39 N 0.26928 0.76754 0.59673 0.0
C40 C 0.30769 0.81449 0.48733 0.0
O41 O 0.30967 0.78476 0.47735 0.0
O42 O 0.23968 0.67133 0.55195 0.0
Zn43 Zn 0.25511 0.79165 0.53899 0.0
N44 N 0.31363 0.68676 0.55509 0.0
C45 C 0.36696 0.69315 0.57562 0.0
C46 C 0.33805 0.70588 0.56453 0.0
C47 C 0.31709 0.65543 0.55422 0.0
N48 N 0.37045 0.66187 0.57519 0.0
C49 C 0.34636 0.64246 0.56448 0.0
O50 O 0.24785 0.76811 0.4755 0.0
C51 C 0.25656 0.74317 0.45461 0.0
O52 O 0.26881 0.72101 0.47911 0.0
H53 H 0.33468 0.73076 0.56544 0.0
H54 H 0.29708 0.64094 0.54691 0.0
C55 C 0.20332 0.83356 0.52284 0.0
C56 C 0.17404 0.84637 0.53376 0.0
C57 C 0.1733 0.81805 0.6095 0.0
C58 C 0.20202 0.80501 0.59821 0.0
N59 N 0.21646 0.81282 0.55512 0.0
N60 N 0.15987 0.83806 0.57689 0.0
H61 H 0.21495 0.83903 0.48832 0.0
C62 C 0.21198 0.67827 0.53917 0.0
O63 O 0.20476 0.70773 0.53366 0.0
O64 O 0.28701 0.82385 0.5175 0.0
H65 H 0.21239 0.78832 0.62328 0.0
H66 H 0.38649 0.70796 0.58443 0.0
H67 H 0.16149 0.81189 0.64352 0.0
Zn68 Zn 0.47647 0.01065 0.79845 0.0
C69 C 0.54477 0.02768 0.90111 0.0
N70 N 0.52007 0.03796 0.92698 0.0
C71 C 0.49616 0.03326 0.89588 0.0
N72 N 0.50541 0.02078 0.85261 0.0
N73 N 0.53602 0.01678 0.8556 0.0
C74 C 0.59746 0.94767 0.81471 0.0
O75 O 0.56983 0.9354 0.82113 0.0
O76 O 0.44773 0.04641 0.78191 0.0
Zn77 Zn 0.5606 1.00194 0.7991 0.0
N78 N 0.45144 0.97433 0.81554 0.0
C79 C 0.43922 0.93439 0.87363 0.0
C80 C 0.45575 0.96106 0.86093 0.0
C81 C 0.43089 0.96194 0.78223 0.0
N82 N 0.41922 0.92176 0.84025 0.0
C83 C 0.41441 0.93481 0.7948 0.0
O84 O 0.53868 0.97532 0.74749 0.0
C85 C 0.51881 0.98627 0.7172 0.0
O86 O 0.4964 1.00265 0.73266 0.0
H87 H 0.47218 0.97087 0.88693 0.0
H88 H 0.42802 0.97262 0.74606 0.0
C89 C 0.59318 0.02877 0.72381 0.0
C90 C 0.60623 0.05193 0.69444 0.0
C91 C 0.57946 0.09006 0.74128 0.0
C92 C 0.56634 0.06672 0.7705 0.0
N93 N 0.57404 0.03668 0.76146 0.0
N94 N 0.59923 0.08216 0.70411 0.0
H95 H 0.59859 1.00454 0.71767 0.0
C96 C 0.4596 0.06853 0.75696 0.0
O97 O 0.48974 0.06855 0.74951 0.0
O98 O 0.59984 0.9771 0.81339 0.0
H99 H 0.55083 0.07246 0.80064 0.0
H100 H 0.44253 0.92356 0.90958 0.0
H101 H 0.57411 0.1142 0.74815 0.0
Zn102 Zn 0.25537 0.22591 0.03199 0.0
C103 C 0.22466 0.28928 0.13353 0.0
N104 N 0.21712 0.26306 0.1578 0.0
C105 C 0.22693 0.24065 0.12717 0.0
N106 N 0.23949 0.25239 0.08526 0.0
N107 N 0.23846 0.28315 0.08922 0.0
C108 C 0.31339 0.33152 0.02385 0.0
O109 O 0.31608 0.30261 0.00908 0.0
O110 O 0.2231 0.19412 0.01211 0.0
Zn111 Zn 0.2486 0.3138 0.03724 0.0
N112 N 0.29276 0.2045 0.05464 0.0
C113 C 0.32996 0.19697 0.11909 0.0
C114 C 0.30398 0.21221 0.10022 0.0
C115 C 0.30691 0.18225 0.02661 0.0
N116 N 0.34396 0.17479 0.09144 0.0
C117 C 0.33345 0.16684 0.0454 0.0
O118 O 0.25302 0.29725 0.96759 0.0
C119 C 0.26023 0.27269 0.94431 0.0
O120 O 0.26336 0.24671 0.96619 0.0
H121 H 0.29277 0.22998 0.12197 0.0
H122 H 0.29722 0.17642 0.99071 0.0
C123 C 0.22164 0.37343 0.04248 0.0
C124 C 0.19836 0.39581 0.03522 0.0
C125 C 0.16224 0.3551 0.01926 0.0
C126 C 0.18613 0.33339 0.02216 0.0
N127 N 0.21513 0.34299 0.03458 0.0
N128 N 0.16903 0.38567 0.02474 0.0
H129 H 0.24509 0.37992 0.05199 0.0
C130 C 0.2002 0.20478 0.98736 0.0
O131 O 0.19754 0.235 0.98207 0.0
O132 O 0.28824 0.33997 0.04466 0.0
H133 H 0.1816 0.30902 0.01566 0.0
H134 H 0.339 0.20274 0.15546 0.0
H135 H 0.13876 0.34789 0.0107 0.0
Zn136 Zn 0.04775 1.00854 0.72606 0.0
C137 C 0.989 0.0386 0.61598 0.0
N138 N 0.01599 0.04326 0.59209 0.0
C139 C 0.03754 0.03367 0.62482 0.0
N140 N 0.02451 0.02344 0.66749 0.0
N141 N 0.99391 0.02648 0.66211 0.0
C142 C 0.90762 0.98065 0.71182 0.0
O143 O 0.89326 0.99546 0.67577 0.0
O144 O 0.07517 0.04234 0.75525 0.0
Zn145 Zn 0.964 0.02768 0.71676 0.0
N146 N 0.07586 0.97454 0.70814 0.0
C147 C 0.09895 0.94323 0.64548 0.0
C148 C 0.07701 0.96517 0.65998 0.0
C149 C 0.0952 0.96172 0.74299 0.0
N150 N 0.11862 0.93102 0.67985 0.0
C151 C 0.11731 0.93938 0.7285 0.0
O152 O 0.98353 0.02937 0.78506 0.0
C153 C 1.0008 0.00976 0.80735 0.0
O154 O 0.02131 0.99425 0.7841 0.0
H155 H 0.06127 0.97484 0.63279 0.0
H156 H 0.09389 0.96938 0.78119 0.0
C157 C 0.91284 0.07117 0.69919 0.0
C158 C 0.90167 0.10109 0.68819 0.0
C159 C 0.95262 0.12124 0.69865 0.0
C160 C 0.96349 0.09162 0.70964 0.0
N161 N 0.94356 0.06716 0.70904 0.0
N162 N 0.92207 0.12526 0.68824 0.0
H163 H 0.89753 0.05139 0.69918 0.0
C164 C 0.06388 0.06607 0.77664 0.0
O165 O 0.03375 0.0705 0.77538 0.0
O166 O 0.93415 0.99019 0.72674 0.0
H167 H 0.98793 0.08784 0.71654 0.0
H168 H 0.10038 0.93596 0.60712 0.0
H169 H 0.9683 0.14084 0.69808 0.0
Zn170 Zn 0.2472 0.7013 0.98702 0.0
C171 C 0.23797 0.77578 0.89449 0.0
N172 N 0.22832 0.75453 0.8617 0.0
C173 C 0.23119 0.72752 0.88635 0.0
N174 N 0.24282 0.73204 0.93294 0.0
N175 N 0.24668 0.76256 0.93808 0.0
C176 C 0.21005 0.80793 0.05199 0.0
O177 O 0.20611 0.77824 0.06073 0.0
O178 O 0.28938 0.67707 0.99196 0.0
Zn179 Zn 0.26309 0.78529 0.99604 0.0
N180 N 0.21494 0.67058 0.97858 0.0
C181 C 0.16252 0.65658 0.96277 0.0
C182 C 0.18506 0.67929 0.97026 0.0
C183 C 0.22299 0.64018 0.98195 0.0
N184 N 0.17042 0.62621 0.96768 0.0
C185 C 0.20008 0.61703 0.97805 0.0
O186 O 0.27452 0.75897 0.05629 0.0
C187 C 0.2584 0.73858 0.07888 0.0
O188 O 0.24077 0.71998 0.05523 0.0
H189 H 0.17907 0.70365 0.96811 0.0
H190 H 0.24683 0.63462 0.98963 0.0
C191 C 0.31302 0.83024 0.00764 0.0
C192 C 0.33953 0.84701 0.99215 0.0
C193 C 0.33828 0.81959 0.91552 0.0
C194 C 0.31242 0.80295 0.93126 0.0
N195 N 0.30007 0.80867 0.9767 0.0
N196 N 0.35112 0.84104 0.94612 0.0
H197 H 0.30246 0.8344 0.04339 0.0
C198 C 0.29548 0.66466 0.03427 0.0
O199 O 0.27573 0.66863 0.07073 0.0
O200 O 0.23174 0.8166 0.02304 0.0
H201 H 0.30227 0.7856 0.90729 0.0
H202 H 0.13875 0.66301 0.95463 0.0
H203 H 0.34821 0.81542 0.87929 0.0
Zn204 Zn 0.4917 0.99519 0.25653 0.0
C205 C 0.55017 0.96424 0.14841 0.0
N206 N 0.52294 0.95942 0.12514 0.0
C207 C 0.50188 0.96888 0.15818 0.0
N208 N 0.5154 0.97877 0.20059 0.0
N209 N 0.54606 0.97599 0.19504 0.0
C210 C 0.61266 0.04492 0.22749 0.0
O211 O 0.62519 0.02873 0.19143 0.0
O212 O 0.45359 0.96882 0.27075 0.0
Zn213 Zn 0.57721 0.98719 0.24809 0.0
N214 N 0.47926 0.03805 0.2449 0.0
C215 C 0.48938 0.08577 0.2034 0.0
C216 C 0.49588 0.05445 0.211 0.0
C217 C 0.45596 0.05173 0.27136 0.0
N218 N 0.46668 0.09957 0.23033 0.0
C219 C 0.44954 0.08354 0.26421 0.0
O220 O 0.56324 0.97867 0.31918 0.0
C221 C 0.53862 0.98433 0.34356 0.0
O222 O 0.51362 0.99241 0.32199 0.0
H223 H 0.51438 0.04334 0.19059 0.0
H224 H 0.4434 0.03829 0.29873 0.0
C225 C 0.6406 0.9795 0.26682 0.0
C226 C 0.67042 0.96613 0.26748 0.0
C227 C 0.65014 0.92327 0.2223 0.0
C228 C 0.62045 0.93616 0.22451 0.0
N229 N 0.61664 0.965 0.24354 0.0
N230 N 0.67429 0.93835 0.24413 0.0
H231 H 0.63547 1.00021 0.28752 0.0
C232 C 0.45939 0.94443 0.296 0.0
O233 O 0.48845 0.93626 0.30327 0.0
O234 O 0.58929 0.03361 0.25035 0.0
H235 H 0.60059 0.92283 0.21335 0.0
H236 H 0.50256 0.09917 0.17674 0.0
H237 H 0.65368 0.90068 0.20577 0.0
Zn238 Zn 0.27459 0.23132 0.48964 0.0
C239 C 0.30575 0.28768 0.37837 0.0
N240 N 0.31237 0.26015 0.35741 0.0
C241 C 0.30351 0.23938 0.39169 0.0
N242 N 0.29198 0.25346 0.43247 0.0
N243 N 0.29327 0.28392 0.42441 0.0
C244 C 0.24317 0.35582 0.51876 0.0
O245 O 0.2679 0.36026 0.54654 0.0
O246 O 0.30532 0.20067 0.51944 0.0
Zn247 Zn 0.28798 0.31565 0.47619 0.0
N248 N 0.23755 0.20826 0.46869 0.0
C249 C 0.19952 0.20043 0.40567 0.0
C250 C 0.22535 0.21618 0.4238 0.0
C251 C 0.22451 0.18518 0.49677 0.0
N252 N 0.18662 0.17751 0.43333 0.0
C253 C 0.19805 0.16918 0.47871 0.0
O254 O 0.2954 0.29905 0.54618 0.0
C255 C 0.27924 0.27924 0.5701 0.0
O256 O 0.26346 0.25832 0.54817 0.0
H257 H 0.23565 0.23459 0.40208 0.0
H258 H 0.23494 0.17921 0.53212 0.0
C259 C 0.30885 0.37782 0.45843 0.0
C260 C 0.33074 0.40187 0.45357 0.0
C261 C 0.37062 0.36367 0.44913 0.0
C262 C 0.34898 0.34037 0.45879 0.0
N263 N 0.31849 0.34792 0.4631 0.0
N264 N 0.36116 0.39375 0.44815 0.0
H265 H 0.28446 0.38259 0.46072 0.0
C266 C 0.32883 0.21103 0.5429 0.0
O267 O 0.33454 0.24097 0.54177 0.0
O268 O 0.24481 0.33658 0.48263 0.0
H269 H 0.35623 0.31639 0.46183 0.0
H270 H 0.1897 0.2064 0.36984 0.0
H271 H 0.39492 0.35804 0.44458 0.0
Zn272 Zn 0.74977 0.19923 0.47674 0.0
C273 C 0.73999 0.27162 0.38072 0.0
N274 N 0.73103 0.24917 0.34944 0.0
C275 C 0.7358 0.22298 0.3756 0.0
N276 N 0.74736 0.22919 0.42166 0.0
N277 N 0.74957 0.25993 0.42484 0.0
C278 C 0.70759 0.30816 0.5234 0.0
O279 O 0.70526 0.27828 0.53235 0.0
O280 O 0.78665 0.16844 0.4772 0.0
Zn281 Zn 0.76297 0.28601 0.48043 0.0
N282 N 0.71254 0.17545 0.47019 0.0
C283 C 0.65779 0.17394 0.46072 0.0
C284 C 0.68486 0.19052 0.47039 0.0
C285 C 0.71445 0.14449 0.46167 0.0
N286 N 0.65956 0.14285 0.45328 0.0
C287 C 0.68716 0.12727 0.45384 0.0
O288 O 0.7681 0.26508 0.5475 0.0
C289 C 0.75909 0.24071 0.57015 0.0
O290 O 0.74947 0.21692 0.54671 0.0
H291 H 0.68407 0.21534 0.47626 0.0
H292 H 0.73712 0.13387 0.46102 0.0
C293 C 0.81375 0.33023 0.4928 0.0
C294 C 0.84067 0.34633 0.47733 0.0
C295 C 0.8405 0.31693 0.40264 0.0
C296 C 0.81419 0.30099 0.41831 0.0
N297 N 0.8011 0.30801 0.46275 0.0
N298 N 0.85301 0.33905 0.4323 0.0
H299 H 0.80258 0.33556 0.52767 0.0
C300 C 0.81488 0.17603 0.48477 0.0
O301 O 0.82224 0.20561 0.48602 0.0
O302 O 0.72982 0.31794 0.49651 0.0
H303 H 0.80419 0.28326 0.39492 0.0
H304 H 0.63552 0.18555 0.45974 0.0
H305 H 0.85097 0.31176 0.36713 0.0
Zn306 Zn 0.77107 0.73128 0.9776 0.0
C307 C 0.80752 0.79452 0.87921 0.0
N308 N 0.81839 0.7682 0.85893 0.0
C309 C 0.80709 0.74588 0.88849 0.0
N310 N 0.79026 0.75773 0.9262 0.0
N311 N 0.79031 0.78854 0.92056 0.0
C312 C 0.7073 0.83069 0.97225 0.0
O313 O 0.70637 0.8027 0.99169 0.0
O314 O 0.80077 0.69769 1.00037 0.0
Zn315 Zn 0.77382 0.81879 0.96886 0.0
N316 N 0.73348 0.71124 0.95272 0.0
C317 C 0.69646 0.70571 0.88765 0.0
C318 C 0.72284 0.71988 0.90721 0.0
C319 C 0.7186 0.6889 0.97984 0.0
N320 N 0.68164 0.68354 0.9145 0.0
C321 C 0.69166 0.67448 0.96039 0.0
O322 O 0.76789 0.80304 0.0392 0.0
C323 C 0.76228 0.77837 0.06353 0.0
O324 O 0.76176 0.75205 0.04246 0.0
H325 H 0.73486 0.73756 0.88616 0.0
H326 H 0.72809 0.6823 0.01556 0.0
C327 C 0.78713 0.87737 0.99986 0.0
C328 C 0.80391 0.90368 0.01441 0.0
C329 C 0.84946 0.88067 0.9805 0.0
C330 C 0.83278 0.8538 0.96933 0.0
N331 N 0.80174 0.85319 0.97791 0.0
N332 N 0.83481 0.90465 1.00337 0.0
H333 H 0.76287 0.87491 0.0078 0.0
C334 C 0.82643 0.70582 0.01997 0.0
O335 O 0.83431 0.73528 0.0193 0.0
O336 O 0.73234 0.83974 0.95175 0.0
H337 H 0.8445 0.83363 0.95475 0.0
H338 H 0.68778 0.71226 0.85134 0.0
H339 H 0.8741 0.88197 0.97304 0.0
Zn340 Zn 0.75701 0.21303 0.01986 0.0
C341 C 0.78606 0.27417 0.12622 0.0
N342 N 0.79107 0.24881 0.15406 0.0
C343 C 0.78144 0.22533 0.12478 0.0
N344 N 0.77036 0.23606 0.08038 0.0
N345 N 0.77368 0.26687 0.08157 0.0
C346 C 0.81698 0.31537 0.97963 0.0
O347 O 0.81357 0.28647 0.96542 0.0
O348 O 0.73639 0.16995 0.02746 0.0
Zn349 Zn 0.76279 0.29784 0.03045 0.0
N350 N 0.79258 0.20835 0.97861 0.0
C351 C 0.84444 0.21931 0.9548 0.0
C352 C 0.82143 0.21853 0.99106 0.0
C353 C 0.78577 0.19857 0.93206 0.0
N354 N 0.83732 0.21052 0.90768 0.0
C355 C 0.80838 0.20025 0.8951 0.0
O356 O 0.75228 0.2799 0.96424 0.0
C357 C 0.73741 0.25759 0.94504 0.0
O358 O 0.72743 0.23564 0.97235 0.0
H359 H 0.82616 0.22703 0.02809 0.0
H360 H 0.76229 0.19137 0.92374 0.0
C361 C 0.71365 0.34283 0.01742 0.0
C362 C 0.68751 0.36043 0.03192 0.0
C363 C 0.69084 0.33749 0.11231 0.0
C364 C 0.71644 0.3201 0.09761 0.0
N365 N 0.72745 0.32311 0.05064 0.0
N366 N 0.6771 0.35709 0.07938 0.0
H367 H 0.72316 0.34473 0.98042 0.0
C368 C 0.7069 0.16872 0.03165 0.0
O369 O 0.69173 0.19456 0.04059 0.0
O370 O 0.79896 0.32608 0.01286 0.0
H371 H 0.72727 0.30415 0.12339 0.0
H372 H 0.86752 0.22761 0.96363 0.0
H373 H 0.68168 0.33517 0.14947 0.0
Zn374 Zn 0.75692 0.73606 0.51906 0.0
C375 C 0.72121 0.78845 0.62987 0.0
N376 N 0.71671 0.7606 0.65136 0.0
C377 C 0.727 0.74051 0.61725 0.0
N378 N 0.73729 0.75533 0.57616 0.0
N379 N 0.73362 0.78558 0.58376 0.0
C380 C 0.78125 0.85508 0.48162 0.0
O381 O 0.75717 0.85544 0.45148 0.0
O382 O 0.7304 0.70246 0.48907 0.0
Zn383 Zn 0.73678 0.81705 0.53095 0.0
N384 N 0.79595 0.71705 0.53934 0.0
C385 C 0.83762 0.71454 0.59747 0.0
C386 C 0.80898 0.72654 0.58276 0.0
C387 C 0.81035 0.69561 0.51005 0.0
N388 N 0.85227 0.69372 0.56793 0.0
C389 C 0.83951 0.68369 0.52448 0.0
O390 O 0.72731 0.79905 0.46247 0.0
C391 C 0.7465 0.78222 0.43863 0.0
O392 O 0.76591 0.76504 0.46156 0.0
H393 H 0.7974 0.74362 0.60548 0.0
H394 H 0.79968 0.68878 0.47529 0.0
C395 C 0.71655 0.87925 0.5433 0.0
C396 C 0.69521 0.90383 0.54654 0.0
C397 C 0.6552 0.86682 0.56105 0.0
C398 C 0.67615 0.84266 0.55289 0.0
N399 N 0.7065 0.8494 0.54449 0.0
N400 N 0.66497 0.89668 0.55624 0.0
H401 H 0.74068 0.88352 0.53656 0.0
C402 C 0.70549 0.70837 0.46532 0.0
O403 O 0.69445 0.73679 0.46538 0.0
O404 O 0.77949 0.83882 0.52147 0.0
H405 H 0.66846 0.81876 0.55378 0.0
H406 H 0.84835 0.722 0.63182 0.0
H407 H 0.63105 0.8619 0.56875 0.0
Zn408 Zn 0.53665 0.5002 0.75643 0.0
C409 C 0.47267 0.46625 0.85481 0.0
N410 N 0.49885 0.45887 0.87951 0.0
C411 C 0.52131 0.47029 0.85043 0.0
N412 N 0.50972 0.48363 0.80891 0.0
N413 N 0.47887 0.48138 0.81138 0.0
C414 C 0.43412 0.56145 0.74054 0.0
O415 O 0.45601 0.55903 0.70694 0.0
O416 O 0.57007 0.46857 0.74029 0.0
Zn417 Zn 0.44938 0.49606 0.75934 0.0
N418 N 0.55696 0.53883 0.77632 0.0
C419 C 0.56292 0.57822 0.83729 0.0
C420 C 0.54838 0.55137 0.82041 0.0
C421 C 0.57954 0.55236 0.74791 0.0
N422 N 0.58539 0.59161 0.80928 0.0
C423 C 0.59436 0.57973 0.7647 0.0
O424 O 0.46615 0.49545 0.68868 0.0
C425 C 0.49141 0.50089 0.66591 0.0
O426 O 0.51671 0.50531 0.68929 0.0
H427 H 0.53053 0.54044 0.84251 0.0
H428 H 0.58614 0.5415 0.71335 0.0
C429 C 0.38779 0.48396 0.73635 0.0
C430 C 0.36226 0.46645 0.72006 0.0
C431 C 0.3883 0.42072 0.74761 0.0
C432 C 0.41475 0.43813 0.75837 0.0
N433 N 0.41357 0.46948 0.75414 0.0
N434 N 0.36309 0.43512 0.72759 0.0
H435 H 0.38844 0.50872 0.73148 0.0
C436 C 0.56147 0.44676 0.71152 0.0
O437 O 0.53187 0.44403 0.70041 0.0
O438 O 0.43021 0.53927 0.77134 0.0
H439 H 0.43628 0.42677 0.76805 0.0
H440 H 0.55645 0.58835 0.87249 0.0
H441 H 0.38852 0.39574 0.75183 0.0
Zn442 Zn 0.98 0.51227 0.28418 0.0
C443 C 0.04378 0.54572 0.38531 0.0
N444 N 0.01743 0.55527 0.40706 0.0
C445 C 0.99497 0.54462 0.37704 0.0
N446 N 1.0068 0.52941 0.33756 0.0
N447 N 0.03768 0.52985 0.3426 0.0
C448 C 0.08127 0.44908 0.28136 0.0
O449 O 0.05424 0.44911 0.25858 0.0
O450 O 0.94691 0.5432 0.26377 0.0
Zn451 Zn 0.06798 0.51491 0.29287 0.0
N452 N 0.95936 0.4737 0.30484 0.0
C453 C 0.95237 0.43578 0.36816 0.0
C454 C 0.96682 0.4625 0.35054 0.0
C455 C 0.93785 0.45896 0.27562 0.0
N456 N 0.93105 0.42116 0.33932 0.0
C457 C 0.92308 0.43164 0.29318 0.0
O458 O 0.05185 0.51186 0.22268 0.0
C459 C 0.02713 0.50772 0.19776 0.0
O460 O 1.00075 0.50621 0.21849 0.0
H461 H 0.98376 0.47438 0.37332 0.0
H462 H 0.93207 0.46881 0.2398 0.0
C463 C 0.12759 0.53018 0.26541 0.0
C464 C 0.152 0.54879 0.24836 0.0
C465 C 0.12514 0.59323 0.27823 0.0
C466 C 0.0997 0.57471 0.29039 0.0
N467 N 0.10194 0.54346 0.28534 0.0
N468 N 0.1503 0.57998 0.25651 0.0
H469 H 0.12768 0.50548 0.25971 0.0
C470 C 0.95626 0.56827 0.24367 0.0
O471 O 0.98617 0.57435 0.24316 0.0
O472 O 0.08922 0.47299 0.30613 0.0
H473 H 0.07814 0.58515 0.30203 0.0
H474 H 0.958 0.42671 0.40461 0.0
H475 H 0.12412 0.61813 0.28303 0.0
Zn476 Zn 0.47133 0.50433 0.21826 0.0
C477 C 0.53258 0.53535 0.11465 0.0
N478 N 0.50737 0.54265 0.08775 0.0
C479 C 0.48356 0.53262 0.11598 0.0
N480 N 0.49402 0.51902 0.15872 0.0
N481 N 0.52493 0.52136 0.15778 0.0
C482 C 0.60012 0.54079 0.26629 0.0
O483 O 0.59585 0.51517 0.29173 0.0
O484 O 0.42869 0.48321 0.21178 0.0
Zn485 Zn 0.55562 0.50898 0.20864 0.0
N486 N 0.46709 0.53884 0.26138 0.0
C487 C 0.482 0.58827 0.2918 0.0
C488 C 0.48127 0.56657 0.25351 0.0
C489 C 0.45349 0.53183 0.30521 0.0
N490 N 0.46906 0.58094 0.33627 0.0
C491 C 0.45484 0.55308 0.34419 0.0
O492 O 0.53655 0.50142 0.27495 0.0
C493 C 0.51451 0.48531 0.29218 0.0
O494 O 0.49453 0.47386 0.2627 0.0
H495 H 0.49276 0.57131 0.21866 0.0
H496 H 0.44363 0.50894 0.31015 0.0
C497 C 0.59789 0.4562 0.22041 0.0
C498 C 0.61579 0.43084 0.20364 0.0
C499 C 0.59363 0.43753 0.1232 0.0
C500 C 0.57654 0.46287 0.13992 0.0
N501 N 0.57906 0.47198 0.18803 0.0
N502 N 0.61288 0.42239 0.15511 0.0
H503 H 0.59923 0.46361 0.25843 0.0
C504 C 0.4287 0.45391 0.20536 0.0
O505 O 0.45463 0.44057 0.19117 0.0
O506 O 0.58577 0.54419 0.22512 0.0
H507 H 0.56143 0.47523 0.11459 0.0
H508 H 0.49335 0.61044 0.28666 0.0
H509 H 0.59174 0.43001 0.08503 0.0
Zn510 Zn 0.0738 0.49805 0.72828 0.0
C511 C 1.00093 0.47353 0.63878 0.0
N512 N 0.02281 0.46435 0.60702 0.0
C513 C 0.04958 0.47141 0.63034 0.0
N514 N 0.04417 0.48481 0.67551 0.0
N515 N 0.01332 0.48574 0.6804 0.0
C516 C 0.9626 0.44846 0.77929 0.0
O517 O 0.99248 0.44562 0.78821 0.0
O518 O 0.09422 0.54107 0.72007 0.0
Zn519 Zn 0.98652 0.50164 0.73346 0.0
N520 N 0.10821 0.47005 0.73606 0.0
C521 C 0.13465 0.42176 0.73839 0.0
C522 C 0.10844 0.4392 0.72584 0.0
C523 C 0.1323 0.48386 0.75986 0.0
N524 N 0.15817 0.43542 0.7642 0.0
C525 C 0.15755 0.46615 0.77638 0.0
O526 O 1.00623 0.5071 0.80017 0.0
C527 C 0.03203 0.50334 0.82218 0.0
O528 O 0.05689 0.49826 0.79836 0.0
H529 H 0.08861 0.42838 0.70819 0.0
H530 H 0.13066 0.50824 0.76796 0.0
C531 C 0.94732 0.55577 0.74565 0.0
C532 C 0.93508 0.58489 0.7318 0.0
C533 C 0.96179 0.5814 0.65492 0.0
C534 C 0.97414 0.55281 0.66902 0.0
N535 N 0.96689 0.54059 0.7141 0.0
N536 N 0.94289 0.59683 0.68665 0.0
H537 H 0.94224 0.54575 0.78163 0.0
C538 C 0.08604 0.56267 0.74957 0.0
O539 O 0.05922 0.56016 0.77227 0.0
O540 O 0.95327 0.47024 0.75084 0.0
H541 H 0.98973 0.54065 0.64444 0.0
H542 H 0.13571 0.39728 0.72972 0.0
H543 H 0.9675 0.59149 0.61926 0.0
H544 H 0.95641 0.03447 0.86808 0.0
H545 H 0.03879 0.97709 0.87068 0.0
H546 H 0.95297 0.03072 0.95822 0.0
H547 H 0.03504 0.97306 0.96088 0.0
H548 H 0.04037 1.00746 0.1223 0.0
H549 H 0.042 1.00783 0.03206 0.0
H550 H 0.94273 0.9937 0.0265 0.0
H551 H 0.94093 0.99374 0.11733 0.0
C552 C 0.9737 0.0209 0.8878 0.0
C553 C 0.99799 1.00622 0.86204 0.0
C554 C 0.97157 0.01857 0.9395 0.0
C555 C 0.99376 1.00166 0.96679 0.0
C556 C 0.01777 0.98658 0.94101 0.0
C557 C 0.01982 0.98875 0.88925 0.0
C558 C 0.01881 1.00449 0.10198 0.0
C559 C 0.99046 1.00073 0.12718 0.0
C560 C 0.01982 1.00441 0.05014 0.0
C561 C 0.99252 1.00072 0.02203 0.0
C562 C 0.96415 0.99686 0.04711 0.0
C563 C 0.96314 0.99673 0.09913 0.0
H564 H 0.24401 0.79008 0.38895 0.0
H565 H 0.26581 0.69217 0.3954 0.0
H566 H 0.24427 0.78804 0.29863 0.0
H567 H 0.26625 0.6903 0.30462 0.0
H568 H 0.23186 0.69546 0.14078 0.0
H569 H 0.23058 0.69575 0.23146 0.0
H570 H 0.28352 0.78087 0.23263 0.0
H571 H 0.28476 0.78075 0.14216 0.0
C572 C 0.24864 0.76804 0.37118 0.0
C573 C 0.25489 0.74126 0.39958 0.0
C574 C 0.24906 0.76697 0.31932 0.0
C575 C 0.25549 0.73907 0.29444 0.0
C576 C 0.26105 0.71211 0.32271 0.0
C577 C 0.26091 0.71322 0.37471 0.0
C578 C 0.24334 0.71419 0.16034 0.0
C579 C 0.25844 0.73807 0.13406 0.0
C580 C 0.2427 0.71426 0.21233 0.0
C581 C 0.25684 0.73838 0.23923 0.0
C582 C 0.27208 0.76215 0.21298 0.0
C583 C 0.27297 0.76195 0.16108 0.0
H584 H 0.58734 0.98372 0.41087 0.0
H585 H 0.48758 0.97463 0.40021 0.0
H586 H 0.58366 0.98086 0.50179 0.0
H587 H 0.48409 0.97081 0.48968 0.0
H588 H 0.56393 0.95342 0.66663 0.0
H589 H 0.57037 0.94954 0.57626 0.0
H590 H 0.4893 1.00728 0.55519 0.0
H591 H 0.48241 0.01039 0.644 0.0
C592 C 0.56475 0.98073 0.42781 0.0
C593 C 0.53772 0.97998 0.39829 0.0
C594 C 0.56265 0.97896 0.47987 0.0
C595 C 0.53351 0.97623 0.5032 0.0
C596 C 0.50683 0.97383 0.47324 0.0
C597 C 0.50886 0.97592 0.42172 0.0
C598 C 0.54727 0.96487 0.64254 0.0
C599 C 0.52244 0.98192 0.66274 0.0
C600 C 0.55112 0.96287 0.59079 0.0
C601 C 0.53019 0.97784 0.55831 0.0
C602 C 0.5055 0.99484 0.57882 0.0
C603 C 0.50161 0.99673 0.63007 0.0
H604 H 0.27577 0.32905 0.63279 0.0
H605 H 0.28326 0.22927 0.63083 0.0
H606 H 0.27135 0.328 0.72304 0.0
H607 H 0.28158 0.22798 0.72092 0.0
H608 H 0.24427 0.22892 0.87651 0.0
H609 H 0.24944 0.23143 0.78684 0.0
H610 H 0.293 0.32168 0.79996 0.0
H611 H 0.28537 0.31983 0.88965 0.0
C612 C 0.27706 0.30695 0.6519 0.0
C613 C 0.27948 0.27925 0.62494 0.0
C614 C 0.27475 0.30625 0.70381 0.0
C615 C 0.27572 0.27783 0.73004 0.0
C616 C 0.27959 0.25028 0.70259 0.0
C617 C 0.28092 0.25096 0.65078 0.0
C618 C 0.25495 0.24926 0.86005 0.0
C619 C 0.26443 0.27415 0.88991 0.0
C620 C 0.25823 0.25067 0.80847 0.0
C621 C 0.27198 0.27667 0.78537 0.0
C622 C 0.28178 0.30148 0.81574 0.0
C623 C 0.27765 0.30039 0.86731 0.0
H624 H 0.70583 0.21617 0.88417 0.0
H625 H 0.77183 0.29168 0.88057 0.0
H626 H 0.71052 0.21089 0.79372 0.0
H627 H 0.77774 0.2854 0.79238 0.0
H628 H 0.74955 0.19234 0.63591 0.0
H629 H 0.74247 0.1955 0.72591 0.0
H630 H 0.75296 0.29516 0.71801 0.0
H631 H 0.76082 0.29191 0.62932 0.0
C632 C 0.72111 0.23174 0.8642 0.0
C633 C 0.7379 0.25475 0.88982 0.0
C634 C 0.72413 0.2285 0.81239 0.0
C635 C 0.74422 0.24801 0.78515 0.0
C636 C 0.76125 0.27056 0.81127 0.0
C637 C 0.7579 0.27409 0.8624 0.0
C638 C 0.75064 0.21487 0.65361 0.0
C639 C 0.75627 0.2418 0.62528 0.0
C640 C 0.74637 0.21671 0.70527 0.0
C641 C 0.7476 0.24553 0.72986 0.0
C642 C 0.75278 0.27239 0.7011 0.0
C643 C 0.75725 0.27054 0.64984 0.0
H644 H 0.76051 0.83019 0.12318 0.0
H645 H 0.75228 0.73019 0.12779 0.0
H646 H 0.75496 0.83198 0.21354 0.0
H647 H 0.74632 0.73212 0.21745 0.0
H648 H 0.77822 0.74323 0.37761 0.0
H649 H 0.78025 0.74351 0.28756 0.0
H650 H 0.71809 0.82218 0.28338 0.0
H651 H 0.71628 0.82218 0.37441 0.0
C652 C 0.7573 0.80862 0.1433 0.0
C653 C 0.75713 0.78001 0.11808 0.0
C654 C 0.75393 0.80969 0.19509 0.0
C655 C 0.75047 0.78217 0.22281 0.0
C656 C 0.74949 0.75372 0.19738 0.0
C657 C 0.75276 0.75264 0.1458 0.0
C658 C 0.76495 0.76068 0.35772 0.0
C659 C 0.74708 0.7827 0.38343 0.0
C660 C 0.76595 0.76067 0.30591 0.0
C661 C 0.74918 0.78273 0.27814 0.0
C662 C 0.73142 0.80497 0.30369 0.0
C663 C 0.73024 0.80486 0.35581 0.0
H664 H 0.54488 0.52096 0.35952 0.0
H665 H 0.47143 0.45288 0.34874 0.0
H666 H 0.53632 0.52535 0.44752 0.0
H667 H 0.46346 0.45663 0.43899 0.0
H668 H 0.54296 0.50065 0.60785 0.0
H669 H 0.54641 0.49494 0.51886 0.0
H670 H 0.44638 0.49034 0.50819 0.0
H671 H 0.4428 0.49557 0.59877 0.0
C672 C 0.52719 0.50638 0.37601 0.0
C673 C 0.50932 0.48599 0.34684 0.0
C674 C 0.52229 0.50894 0.42689 0.0
C675 C 0.49967 0.49087 0.45081 0.0
C676 C 0.48118 0.47083 0.42178 0.0
C677 C 0.48595 0.46842 0.37021 0.0
C678 C 0.52154 0.49877 0.58683 0.0
C679 C 0.49257 0.499 0.61073 0.0
C680 C 0.52354 0.49552 0.53546 0.0
C681 C 0.49666 0.4927 0.50599 0.0
C682 C 0.46755 0.49249 0.52971 0.0
C683 C 0.46551 0.4957 0.58158 0.0
H684 H 0.98102 0.52074 0.13169 0.0
H685 H 0.07706 0.49217 0.13985 0.0
H686 H 0.98346 0.52041 0.04178 0.0
H687 H 0.07919 0.49008 0.04927 0.0
H688 H 0.08064 0.51756 0.88432 0.0
H689 H 0.08029 0.51873 0.9751 0.0
H690 H 0.98458 0.48801 0.97401 0.0
H691 H 0.9846 0.48868 0.88401 0.0
C692 C 1.00256 0.51385 0.11417 0.0
C693 C 0.02876 0.50625 0.1429 0.0
C694 C 1.00396 0.51348 0.06241 0.0
C695 C 0.03143 0.50486 0.03777 0.0
C696 C 0.05772 0.49722 0.06667 0.0
C697 C 0.05647 0.49816 0.11865 0.0
C698 C 0.05956 0.51121 0.90373 0.0
C699 C 0.03254 0.50345 0.87711 0.0
C700 C 0.05937 0.51164 0.9558 0.0
C701 C 0.03229 0.50376 0.98232 0.0
C702 C 1.00561 0.49516 0.95526 0.0
C703 C 1.00564 0.49536 0.90346 0.0
H704 H 0.25121 0.19697 0.18907 0.0
H705 H 0.17645 0.21417 0.08602 0.0
H706 H 0.22392 0.15109 0.22043 0.0
H707 H 0.14884 0.16881 0.11714 0.0
H708 H 0.10397 0.08312 0.17779 0.0
H709 H 0.14221 0.11406 0.13274 0.0
H710 H 0.17906 0.14764 0.27207 0.0
H711 H 0.14183 0.11612 0.31685 0.0
C712 C 0.22956 0.19006 0.17167 0.0
C713 C 0.21634 0.20843 0.1341 0.0
C714 C 0.21366 0.16408 0.19004 0.0
C715 C 0.18391 0.15633 0.17179 0.0
C716 C 0.17181 0.17363 0.13172 0.0
C717 C 0.18775 0.19954 0.11344 0.0
C718 C 0.12076 0.09639 0.19889 0.0
C719 C 0.11967 0.09705 0.25116 0.0
C720 C 0.14255 0.11443 0.17295 0.0
C721 C 0.16381 0.13348 0.1986 0.0
C722 C 0.16351 0.13298 0.25083 0.0
C723 C 0.14179 0.1151 0.27664 0.0
H724 H 0.06426 0.99957 0.43359 0.0
H725 H 0.04393 0.92881 0.3255 0.0
H726 H 0.10795 0.9684 0.46505 0.0
H727 H 0.08738 0.89774 0.35655 0.0
H728 H 0.11581 0.83845 0.49902 0.0
H729 H 0.08502 0.87392 0.44791 0.0
H730 H 0.16236 0.93748 0.44104 0.0
H731 H 0.19378 0.90112 0.49136 0.0
C732 C 0.0702 0.97813 0.41491 0.0
C733 C 0.05143 0.96701 0.37607 0.0
C734 C 0.09507 0.96024 0.433 0.0
C735 C 0.10098 0.93063 0.41325 0.0
C736 C 0.08341 0.92051 0.37229 0.0
C737 C 0.05884 0.93849 0.35401 0.0
C738 C 0.12643 0.85973 0.48583 0.0
C739 C 0.15718 0.86697 0.49874 0.0
C740 C 0.10887 0.87997 0.45646 0.0
C741 C 0.12137 0.90836 0.44025 0.0
C742 C 0.15226 0.91566 0.45285 0.0
C743 C 0.17021 0.89488 0.48133 0.0
H744 H 0.32561 0.80623 0.59086 0.0
H745 H 0.25916 0.82545 0.70588 0.0
H746 H 0.35748 0.84969 0.61865 0.0
H747 H 0.29134 0.86883 0.73472 0.0
H748 H 0.35615 0.95258 0.76494 0.0
H749 H 0.31862 0.92157 0.71671 0.0
H750 H 0.38775 0.84983 0.69936 0.0
H751 H 0.42462 0.88046 0.74803 0.0
C752 C 0.31682 0.82101 0.62009 0.0
C753 C 0.28923 0.81325 0.64482 0.0
C754 C 0.33547 0.84548 0.63685 0.0
C755 C 0.32711 0.8626 0.67916 0.0
C756 C 0.29829 0.85636 0.70169 0.0
C757 C 0.27972 0.83167 0.685 0.0
C758 C 0.36334 0.93047 0.74976 0.0
C759 C 0.39331 0.91897 0.75951 0.0
C760 C 0.34188 0.91267 0.7225 0.0
C761 C 0.35025 0.88333 0.70385 0.0
C762 C 0.38068 0.87252 0.71236 0.0
C763 C 0.40181 0.88999 0.74029 0.0
H764 H 0.36731 0.11928 0.0839 0.0
H765 H 0.33967 0.15955 0.94335 0.0
H766 H 0.40112 0.08335 0.04107 0.0
H767 H 0.37294 0.12257 0.90008 0.0
H768 H 0.47305 0.08688 0.85917 0.0
H769 H 0.42811 0.1156 0.88954 0.0
H770 H 0.40625 0.03943 0.98832 0.0
H771 H 0.45173 0.01117 0.95807 0.0
C772 C 0.368 0.12015 0.0437 0.0
C773 C 0.35068 0.1425 0.01732 0.0
C774 C 0.38723 0.09919 0.01898 0.0
C775 C 0.38986 0.09988 0.96694 0.0
C776 C 0.37169 0.12148 0.94022 0.0
C777 C 0.35229 0.14252 0.96508 0.0
C778 C 0.45781 0.07587 0.88587 0.0
C779 C 0.46526 0.04659 0.90544 0.0
C780 C 0.4321 0.09234 0.90353 0.0
C781 C 0.41353 0.08002 0.94175 0.0
C782 C 0.42022 0.04988 0.95939 0.0
C783 C 0.44602 0.03349 0.94174 0.0
H784 H 0.25686 0.8103 0.81668 0.0
H785 H 0.19902 0.81327 0.94641 0.0
H786 H 0.23047 0.85539 0.78324 0.0
H787 H 0.17467 0.86069 0.91645 0.0
H788 H 0.10289 0.90724 0.81296 0.0
H789 H 0.13714 0.87383 0.86142 0.0
H790 H 0.21532 0.90493 0.77359 0.0
H791 H 0.18019 0.93615 0.72295 0.0
C792 C 0.23983 0.82193 0.83962 0.0
C793 C 0.23103 0.80894 0.8853 0.0
C794 C 0.22444 0.84799 0.82038 0.0
C795 C 0.19981 0.86206 0.84652 0.0
C796 C 0.19292 0.85045 0.89434 0.0
C797 C 0.20787 0.82386 0.91291 0.0
C798 C 0.12751 0.90724 0.80479 0.0
C799 C 0.13888 0.92418 0.76418 0.0
C800 C 0.14741 0.88813 0.83279 0.0
C801 C 0.17941 0.88599 0.82159 0.0
C802 C 0.19089 0.90487 0.78285 0.0
C803 C 0.17082 0.92319 0.75403 0.0
H804 H 0.45923 0.99665 0.09834 0.0
H805 H 0.47267 0.9193 0.19764 0.0
H806 H 0.41272 0.97185 0.06438 0.0
H807 H 0.42679 0.89395 0.16352 0.0
H808 H 0.34137 0.85226 0.09535 0.0
H809 H 0.3729 0.88791 0.14454 0.0
H810 H 0.40781 0.92947 0.00959 0.0
H811 H 0.37559 0.89503 0.96082 0.0
C812 C 0.45134 0.97498 0.11448 0.0
C813 C 0.46895 0.96034 0.15167 0.0
C814 C 0.42501 0.96042 0.09446 0.0
C815 C 0.41612 0.9305 0.11044 0.0
C816 C 0.4325 0.91704 0.15046 0.0
C817 C 0.45872 0.93172 0.17054 0.0
C818 C 0.35506 0.86954 0.07609 0.0
C819 C 0.35575 0.87057 0.02377 0.0
C820 C 0.37349 0.88985 0.10445 0.0
C821 C 0.39308 0.91173 0.08132 0.0
C822 C 0.39276 0.91346 0.02912 0.0
C823 C 0.37443 0.89328 1.00092 0.0
H824 H 0.3508 0.21673 0.44627 0.0
H825 H 0.28801 0.19304 0.32754 0.0
H826 H 0.38402 0.17298 0.42466 0.0
H827 H 0.32165 0.14935 0.30479 0.0
H828 H 0.38987 0.06553 0.28896 0.0
H829 H 0.34992 0.09724 0.33007 0.0
H830 H 0.41604 0.17192 0.34557 0.0
H831 H 0.45535 0.14077 0.30418 0.0
C832 C 0.34306 0.20093 0.41762 0.0
C833 C 0.31615 0.20753 0.38999 0.0
C834 C 0.36248 0.17627 0.40439 0.0
C835 C 0.35561 0.1578 0.36276 0.0
C836 C 0.32742 0.1629 0.33737 0.0
C837 C 0.30806 0.18779 0.35053 0.0
C838 C 0.3959 0.08853 0.30196 0.0
C839 C 0.4258 0.10064 0.29348 0.0
C840 C 0.37302 0.10671 0.32521 0.0
C841 C 0.37988 0.137 0.34148 0.0
C842 C 0.41008 0.14855 0.33425 0.0
C843 C 0.43258 0.13075 0.31021 0.0
H844 H 0.07976 0.01225 0.55853 0.0
H845 H 0.06639 0.08079 0.67248 0.0
H846 H 0.12546 0.04025 0.52905 0.0
H847 H 0.11132 0.10958 0.64256 0.0
H848 H 0.16204 0.12334 0.43996 0.0
H849 H 0.12996 0.08592 0.48261 0.0
H850 H 0.16464 0.11867 0.62387 0.0
H851 H 0.19605 0.15749 0.58083 0.0
C852 C 0.08745 0.03264 0.57862 0.0
C853 C 0.07013 0.04379 0.61883 0.0
C854 C 0.11332 0.04911 0.5612 0.0
C855 C 0.12196 0.07771 0.58265 0.0
C856 C 0.10584 0.08759 0.62526 0.0
C857 C 0.08018 0.07086 0.64297 0.0
C858 C 0.16317 0.12258 0.48015 0.0
C859 C 0.1818 0.14378 0.5066 0.0
C860 C 0.14491 0.10063 0.5048 0.0
C861 C 0.14458 0.09889 0.557 0.0
C862 C 0.16402 0.11935 0.58367 0.0
C863 C 0.1824 0.1415 0.55884 0.0
H864 H 0.92989 0.94599 0.78981 0.0
H865 H 0.84865 0.95716 0.69691 0.0
H866 H 0.90382 0.90483 0.83572 0.0
H867 H 0.8226 0.91547 0.74282 0.0
H868 H 0.77749 0.85143 0.86448 0.0
H869 H 0.80029 0.89857 0.82654 0.0
H870 H 0.88881 0.85192 0.81651 0.0
H871 H 0.86646 0.80592 0.85369 0.0
C872 C 0.90651 0.93963 0.77891 0.0
C873 C 0.89166 0.95481 0.73901 0.0
C874 C 0.89147 0.91596 0.80541 0.0
C875 C 0.86103 0.90663 0.79304 0.0
C876 C 0.84587 0.92219 0.7538 0.0
C877 C 0.861 0.94589 0.72706 0.0
C878 C 0.80188 0.85164 0.85476 0.0
C879 C 0.82017 0.82497 0.8623 0.0
C880 C 0.81491 0.87846 0.83267 0.0
C881 C 0.84652 0.87916 0.81847 0.0
C882 C 0.86462 0.85261 0.82739 0.0
C883 C 0.85166 0.82604 0.84853 0.0
H884 H 0.80676 0.12025 0.53335 0.0
H885 H 0.87706 0.17827 0.46746 0.0
H886 H 0.84703 0.08539 0.56544 0.0
H887 H 0.91706 0.14272 0.49587 0.0
H888 H 0.98642 0.09952 0.59667 0.0
H889 H 0.94394 0.13011 0.56442 0.0
H890 H 0.88608 0.04803 0.55998 0.0
H891 H 0.92907 0.01763 0.59614 0.0
C892 C 0.83082 0.12513 0.52466 0.0
C893 C 0.83871 0.15223 0.49815 0.0
C894 C 0.85404 0.10501 0.54295 0.0
C895 C 0.88581 0.11123 0.53464 0.0
C896 C 0.89324 0.13747 0.50535 0.0
C897 C 0.87017 0.15784 0.48823 0.0
C898 C 0.96452 0.08799 0.5892 0.0
C899 C 0.961 0.05626 0.59969 0.0
C900 C 0.94006 0.10553 0.56973 0.0
C901 C 0.91128 0.09179 0.55788 0.0
C902 C 0.90762 0.05978 0.56865 0.0
C903 C 0.93222 0.04222 0.58948 0.0
H904 H 0.67045 0.06634 0.20169 0.0
H905 H 0.59586 0.08254 0.30532 0.0
H906 H 0.70141 0.10652 0.24232 0.0
H907 H 0.62694 0.12269 0.3459 0.0
H908 H 0.6749 0.21863 0.35673 0.0
H909 H 0.64578 0.17507 0.32314 0.0
H910 H 0.72923 0.11947 0.32337 0.0
H911 H 0.75865 0.16377 0.35779 0.0
C912 C 0.66047 0.07863 0.23284 0.0
C913 C 0.63033 0.0714 0.24963 0.0
C914 C 0.67849 0.10139 0.25659 0.0
C915 C 0.66678 0.11782 0.2975 0.0
C916 C 0.63663 0.11067 0.31424 0.0
C917 C 0.61872 0.08772 0.2908 0.0
C918 C 0.687 0.19695 0.35029 0.0
C919 C 0.71891 0.1944 0.3608 0.0
C920 C 0.67025 0.17192 0.33115 0.0
C921 C 0.68502 0.14364 0.3207 0.0
C922 C 0.71714 0.14098 0.33093 0.0
C923 C 0.73395 0.16615 0.35101 0.0
H924 H 0.64604 0.82012 0.99053 0.0
H925 H 0.71424 0.89333 0.9892 0.0
H926 H 0.60927 0.85455 0.03028 0.0
H927 H 0.6791 0.92684 0.03473 0.0
H928 H 0.60072 0.98809 0.09833 0.0
H929 H 0.63748 0.95815 0.04818 0.0
H930 H 0.59662 0.87308 0.10393 0.0
H931 H 0.55869 0.90308 0.14876 0.0
C932 C 0.65321 0.84365 0.99893 0.0
C933 C 0.68331 0.85366 0.98741 0.0
C934 C 0.6323 0.86342 0.02295 0.0
C935 C 0.64127 0.89347 0.03842 0.0
C936 C 0.67094 0.90405 0.02413 0.0
C937 C 0.69141 0.8846 0.99815 0.0
C938 C 0.60036 0.96297 0.10047 0.0
C939 C 0.57776 0.94786 0.12918 0.0
C940 C 0.62131 0.94562 0.07145 0.0
C941 C 0.62015 0.91275 0.0707 0.0
C942 C 0.598 0.89809 0.10118 0.0
C943 C 0.57656 0.91532 0.12827 0.0
H944 H 0.78307 0.20037 0.21694 0.0
H945 H 0.80187 0.1774 0.06433 0.0
H946 H 0.81441 0.1566 0.24457 0.0
H947 H 0.83357 0.1334 0.09184 0.0
H948 H 0.92601 0.09816 0.15959 0.0
H949 H 0.88488 0.13232 0.1309 0.0
H950 H 0.82634 0.10122 0.25099 0.0
H951 H 0.86799 0.06662 0.28011 0.0
C952 C 0.79307 0.1853 0.18907 0.0
C953 C 0.79034 0.19287 0.13824 0.0
C954 C 0.8112 0.16013 0.20505 0.0
C955 C 0.82738 0.14181 0.17064 0.0
C956 C 0.82216 0.1475 0.11956 0.0
C957 C 0.80364 0.1726 0.10356 0.0
C958 C 0.90446 0.09852 0.18023 0.0
C959 C 0.90061 0.07964 0.2226 0.0
C960 C 0.88059 0.11794 0.16321 0.0
C961 C 0.85193 0.11938 0.188 0.0
C962 C 0.84806 0.1008 0.23085 0.0
C963 C 0.87203 0.08107 0.24779 0.0
H964 H 0.59838 0.04441 0.84925 0.0
H965 H 0.56364 0.02782 0.99675 0.0
H966 H 0.64203 0.07369 0.88416 0.0
H967 H 0.6075 0.05582 0.03176 0.0
H968 H 0.64881 0.15317 0.06207 0.0
H969 H 0.61556 0.11174 0.03153 0.0
H970 H 0.68983 0.07878 0.93815 0.0
H971 H 0.72346 0.12065 0.96932 0.0
C972 C 0.60043 0.04613 0.88898 0.0
C973 C 0.5768 0.03457 0.91984 0.0
C974 C 0.62561 0.06292 0.90923 0.0
C975 C 0.62781 0.06813 0.96088 0.0
C976 C 0.60612 0.05327 0.99179 0.0
C977 C 0.58106 0.03685 0.9716 0.0
C978 C 0.65835 0.13675 0.0358 0.0
C979 C 0.68891 0.14021 0.01851 0.0
C980 C 0.63925 0.11282 0.01827 0.0
C981 C 0.64989 0.09167 0.98228 0.0
C982 C 0.68078 0.09462 0.96569 0.0
C983 C 0.70017 0.11844 0.98397 0.0
H984 H 0.74539 0.847 0.64979 0.0
H985 H 0.66213 0.79168 0.65901 0.0
H986 H 0.71976 0.8882 0.69855 0.0
H987 H 0.63664 0.8322 0.7058 0.0
H988 H 0.60759 0.88664 0.83447 0.0
H989 H 0.64097 0.85102 0.78926 0.0
H990 H 0.67631 0.92728 0.70166 0.0
H991 H 0.6435 0.96327 0.74857 0.0
C992 C 0.72151 0.84397 0.66136 0.0
C993 C 0.70573 0.81618 0.6508 0.0
C994 C 0.70686 0.86741 0.68937 0.0
C995 C 0.67637 0.86316 0.70744 0.0
C996 C 0.66042 0.83594 0.69424 0.0
C997 C 0.67495 0.81277 0.66689 0.0
C998 C 0.62304 0.89594 0.80646 0.0
C999 C 0.62275 0.92773 0.79507 0.0
C1000 C 0.64198 0.87549 0.78006 0.0
C1001 C 0.66076 0.88612 0.74074 0.0
C1002 C 0.66215 0.91827 0.73158 0.0
C1003 C 0.64339 0.9389 0.75861 0.0
H1004 H 0.91053 1.00102 0.37592 0.0
H1005 H 0.9652 0.9206 0.41516 0.0
H1006 H 0.86349 0.9741 0.4058 0.0
H1007 H 0.91924 0.89415 0.44443 0.0
H1008 H 0.78609 0.89711 0.40595 0.0
H1009 H 0.83004 0.92971 0.38392 0.0
H1010 H 0.88128 0.8936 0.50961 0.0
H1011 H 0.83718 0.86044 0.5314 0.0
C1012 C 0.91248 0.97773 0.39085 0.0
C1013 C 0.9415 0.96287 0.39271 0.0
C1014 C 0.88565 0.96228 0.40805 0.0
C1015 C 0.88754 0.93194 0.42809 0.0
C1016 C 0.91678 0.91761 0.43041 0.0
C1017 C 0.94322 0.93283 0.41323 0.0
C1018 C 0.80669 0.89605 0.42911 0.0
C1019 C 0.80819 0.87567 0.47019 0.0
C1020 C 0.83186 0.91511 0.41661 0.0
C1021 C 0.85941 0.91427 0.44465 0.0
C1022 C 0.86061 0.89455 0.48663 0.0
C1023 C 0.83531 0.87553 0.49928 0.0
H1024 H 0.75026 0.69818 0.68198 0.0
H1025 H 0.68167 0.71031 0.56688 0.0
H1026 H 0.72269 0.65237 0.71214 0.0
H1027 H 0.65332 0.66519 0.59748 0.0
H1028 H 0.60605 0.58055 0.6627 0.0
H1029 H 0.64458 0.61175 0.61858 0.0
H1030 H 0.67657 0.64916 0.75842 0.0
H1031 H 0.6393 0.61743 0.80223 0.0
C1032 C 0.73004 0.69012 0.66168 0.0
C1033 C 0.71858 0.70735 0.6213 0.0
C1034 C 0.71379 0.66421 0.67954 0.0
C1035 C 0.68518 0.65533 0.65817 0.0
C1036 C 0.67526 0.67099 0.61489 0.0
C1037 C 0.69176 0.69675 0.59677 0.0
C1038 C 0.6218 0.59481 0.6842 0.0
C1039 C 0.61938 0.59623 0.73636 0.0
C1040 C 0.64378 0.61303 0.65872 0.0
C1041 C 0.66399 0.63308 0.68466 0.0
C1042 C 0.66205 0.63369 0.73683 0.0
C1043 C 0.6402 0.61564 0.76213 0.0
H1044 H 0.55135 0.41914 0.819 0.0
H1045 H 0.56317 0.50145 0.90739 0.0
H1046 H 0.59751 0.39634 0.85683 0.0
H1047 H 0.61026 0.47944 0.94443 0.0
H1048 H 0.68347 0.35943 0.92856 0.0
H1049 H 0.65081 0.39174 0.87551 0.0
H1050 H 0.61811 0.44109 0.00465 0.0
H1051 H 0.65158 0.40989 0.05723 0.0
C1052 C 0.56486 0.43297 0.84479 0.0
C1053 C 0.55411 0.46223 0.85964 0.0
C1054 C 0.59135 0.41988 0.86678 0.0
C1055 C 0.6076 0.43571 0.90455 0.0
C1056 C 0.59808 0.46616 0.91635 0.0
C1057 C 0.57142 0.47912 0.89452 0.0
C1058 C 0.67001 0.37768 0.94568 0.0
C1059 C 0.67033 0.38185 0.99758 0.0
C1060 C 0.65087 0.39607 0.9151 0.0
C1061 C 0.63145 0.41906 0.93552 0.0
C1062 C 0.63284 0.424 0.98713 0.0
C1063 C 0.65191 0.40572 0.01757 0.0
H1064 H 0.91135 0.4307 0.19073 0.0
H1065 H 0.88044 0.39071 0.32949 0.0
H1066 H 0.87409 0.3984 0.14606 0.0
H1067 H 0.84454 0.35778 0.28493 0.0
H1068 H 0.83574 0.30352 0.0856 0.0
H1069 H 0.86594 0.34573 0.12215 0.0
H1070 H 0.79821 0.35365 0.23961 0.0
H1071 H 0.76863 0.31097 0.20308 0.0
C1072 C 0.89649 0.41545 0.21201 0.0
C1073 C 0.89914 0.41372 0.26419 0.0
C1074 C 0.87524 0.39653 0.18613 0.0
C1075 C 0.85599 0.37531 0.21156 0.0
C1076 C 0.85832 0.37409 0.2637 0.0
C1077 C 0.8794 0.39291 0.28943 0.0
C1078 C 0.82665 0.31531 0.11791 0.0
C1079 C 0.79932 0.30464 0.14057 0.0
C1080 C 0.84413 0.33939 0.13932 0.0
C1081 C 0.8349 0.35317 0.18439 0.0
C1082 C 0.80655 0.34339 0.2055 0.0
C1083 C 0.78924 0.31921 0.18419 0.0
H1084 H 0.8191 0.6319 0.47328 0.0
H1085 H 0.90107 0.68593 0.50591 0.0
H1086 H 0.85122 0.5946 0.42677 0.0
H1087 H 0.93264 0.64945 0.45898 0.0
H1088 H 0.97788 0.59899 0.3373 0.0
H1089 H 0.93495 0.63164 0.36456 0.0
H1090 H 0.90096 0.55681 0.45621 0.0
H1091 H 0.94422 0.52387 0.42827 0.0
C1092 C 0.84381 0.63607 0.46984 0.0
C1093 C 0.85759 0.66193 0.49305 0.0
C1094 C 0.86214 0.61467 0.44353 0.0
C1095 C 0.89435 0.6193 0.43895 0.0
C1096 C 0.90783 0.64547 0.46137 0.0
C1097 C 0.88977 0.6663 0.48844 0.0
C1098 C 0.96024 0.58891 0.36099 0.0
C1099 C 0.96377 0.55861 0.37944 0.0
C1100 C 0.93592 0.60775 0.37718 0.0
C1101 C 0.91473 0.59683 0.41268 0.0
C1102 C 0.91677 0.56569 0.42837 0.0
C1103 C 0.94136 0.54678 0.41221 0.0
H1104 H 0.66469 0.39506 0.17474 0.0
H1105 H 0.61754 0.42591 0.30732 0.0
H1106 H 0.69896 0.36332 0.22504 0.0
H1107 H 0.65304 0.39535 0.3578 0.0
H1108 H 0.76618 0.31339 0.31768 0.0
H1109 H 0.73986 0.35807 0.2805 0.0
H1110 H 0.66223 0.34372 0.37953 0.0
H1111 H 0.68933 0.30009 0.41732 0.0
C1112 C 0.66176 0.39546 0.21467 0.0
C1113 C 0.638 0.41328 0.23639 0.0
C1114 C 0.68186 0.37744 0.2438 0.0
C1115 C 0.67904 0.37655 0.29587 0.0
C1116 C 0.65587 0.39503 0.31786 0.0
C1117 C 0.63558 0.41302 0.28863 0.0
C1118 C 0.74418 0.32091 0.33298 0.0
C1119 C 0.73019 0.30393 0.37137 0.0
C1120 C 0.7287 0.34613 0.31103 0.0
C1121 C 0.69842 0.35439 0.32607 0.0
C1122 C 0.68553 0.33859 0.36702 0.0
C1123 C 0.70121 0.31363 0.38923 0.0
H1124 H 0.97323 0.42321 0.67868 0.0
H1125 H 0.95765 0.4995 0.57804 0.0
H1126 H 0.92775 0.39658 0.64552 0.0
H1127 H 0.91159 0.47334 0.54495 0.0
H1128 H 0.8761 0.39417 0.44386 0.0
H1129 H 0.90789 0.42982 0.49124 0.0
H1130 H 0.87332 0.39013 0.62784 0.0
H1131 H 0.84211 0.35337 0.58007 0.0
C1132 C 0.95895 0.43504 0.65133 0.0
C1133 C 0.9684 0.46375 0.63184 0.0
C1134 C 0.93295 0.41967 0.6319 0.0
C1135 C 0.91609 0.43251 0.59191 0.0
C1136 C 0.92428 0.46244 0.57512 0.0
C1137 C 0.95035 0.47774 0.59455 0.0
C1138 C 0.8749 0.39314 0.48403 0.0
C1139 C 0.85645 0.37065 0.50786 0.0
C1140 C 0.89297 0.41398 0.51138 0.0
C1141 C 0.89326 0.41308 0.56362 0.0
C1142 C 0.87388 0.39142 0.58768 0.0
C1143 C 0.85566 0.37048 0.56017 0.0
H1144 H 0.86212 0.72728 0.92449 0.0
H1145 H 0.78286 0.6952 0.8411 0.0
H1146 H 0.89245 0.68311 0.89529 0.0
H1147 H 0.81335 0.65062 0.81153 0.0
H1148 H 0.88501 0.56646 0.78881 0.0
H1149 H 0.85065 0.60006 0.8384 0.0
H1150 H 0.90671 0.6794 0.79934 0.0
H1151 H 0.94021 0.64637 0.74932 0.0
C1152 C 0.85072 0.70982 0.90197 0.0
C1153 C 0.81996 0.71421 0.88598 0.0
C1154 C 0.86819 0.68474 0.88477 0.0
C1155 C 0.85534 0.66356 0.85086 0.0
C1156 C 0.82373 0.66643 0.83804 0.0
C1157 C 0.80622 0.69179 0.85515 0.0
C1158 C 0.8901 0.59103 0.79143 0.0
C1159 C 0.91539 0.60381 0.76538 0.0
C1160 C 0.87038 0.61021 0.8195 0.0
C1161 C 0.87618 0.64227 0.82302 0.0
C1162 C 0.90186 0.65473 0.79783 0.0
C1163 C 0.92098 0.63584 0.76901 0.0
H1164 H 0.57097 0.51819 0.03975 0.0
H1165 H 0.56101 0.58436 0.1582 0.0
H1166 H 0.61447 0.54804 0.00627 0.0
H1167 H 0.60387 0.61488 0.12456 0.0
H1168 H 0.68944 0.66118 0.06205 0.0
H1169 H 0.65704 0.6229 0.10384 0.0
H1170 H 0.61872 0.59507 0.96229 0.0
H1171 H 0.65191 0.63203 0.92045 0.0
C1172 C 0.57882 0.53865 0.05948 0.0
C1173 C 0.56331 0.5485 0.10234 0.0
C1174 C 0.60344 0.55609 0.03995 0.0
C1175 C 0.61265 0.58427 0.0622 0.0
C1176 C 0.59793 0.59321 0.10661 0.0
C1177 C 0.57344 0.57561 0.12622 0.0
C1178 C 0.67474 0.64646 0.03954 0.0
C1179 C 0.67367 0.64989 0.98745 0.0
C1180 C 0.65575 0.62463 0.06376 0.0
C1181 C 0.63511 0.60564 0.0367 0.0
C1182 C 0.6346 0.60868 0.98465 0.0
C1183 C 0.65353 0.63034 0.96053 0.0
H1184 H 0.27986 0.34617 0.36054 0.0
H1185 H 0.36458 0.29333 0.34839 0.0
H1186 H 0.30497 0.38982 0.31604 0.0
H1187 H 0.38918 0.33594 0.3048 0.0
H1188 H 0.415 0.39487 0.17793 0.0
H1189 H 0.38148 0.35794 0.22036 0.0
H1190 H 0.35184 0.42963 0.32129 0.0
H1191 H 0.38532 0.46713 0.27782 0.0
C1192 C 0.30385 0.34406 0.34903 0.0
C1193 C 0.32026 0.31633 0.35796 0.0
C1194 C 0.3182 0.36893 0.3235 0.0
C1195 C 0.34893 0.36613 0.30583 0.0
C1196 C 0.36531 0.33872 0.31658 0.0
C1197 C 0.35121 0.31428 0.34189 0.0
C1198 C 0.40083 0.40305 0.20839 0.0
C1199 C 0.40304 0.43395 0.22449 0.0
C1200 C 0.38172 0.38179 0.23302 0.0
C1201 C 0.3644 0.39062 0.27494 0.0
C1202 C 0.36481 0.42206 0.28912 0.0
C1203 C 0.38395 0.44355 0.26409 0.0
H1204 H 0.43295 0.54323 0.17831 0.0
H1205 H 0.46142 0.54748 0.02512 0.0
H1206 H 0.38577 0.57201 0.15721 0.0
H1207 H 0.41606 0.57772 0.00444 0.0
H1208 H 0.32446 0.62435 0.96971 0.0
H1209 H 0.36507 0.58658 0.98945 0.0
H1210 H 0.36893 0.62132 0.14 0.0
H1211 H 0.32724 0.65734 0.12061 0.0
C1212 C 0.42896 0.54972 0.14006 0.0
C1213 C 0.45127 0.54308 0.10369 0.0
C1214 C 0.40207 0.5669 0.12784 0.0
C1215 C 0.39695 0.57823 0.079 0.0
C1216 C 0.41847 0.56963 0.04233 0.0
C1217 C 0.44489 0.55222 0.0544 0.0
C1218 C 0.3343 0.62402 0.00679 0.0
C1219 C 0.32281 0.6441 0.04337 0.0
C1220 C 0.35768 0.60226 0.01841 0.0
C1221 C 0.37072 0.60037 0.06673 0.0
C1222 C 0.35933 0.62105 0.10281 0.0
C1223 C 0.3356 0.64224 0.09145 0.0
H1224 H 0.14845 0.56905 0.72651 0.0
H1225 H 0.07543 0.60945 0.81495 0.0
H1226 H 0.18563 0.60633 0.76192 0.0
H1227 H 0.11228 0.64543 0.85105 0.0
H1228 H 0.17207 0.73026 0.85719 0.0
H1229 H 0.13945 0.69017 0.82257 0.0
H1230 H 0.2136 0.62349 0.84081 0.0
H1231 H 0.24733 0.66497 0.87473 0.0
C1232 C 0.14023 0.58598 0.75306 0.0
C1233 C 0.10869 0.58657 0.767 0.0
C1234 C 0.16166 0.60702 0.77395 0.0
C1235 C 0.15201 0.62911 0.80918 0.0
C1236 C 0.12057 0.62925 0.82336 0.0
C1237 C 0.09931 0.60851 0.80249 0.0
C1238 C 0.18159 0.70706 0.85404 0.0
C1239 C 0.21217 0.70073 0.86946 0.0
C1240 C 0.1627 0.6839 0.83439 0.0
C1241 C 0.17359 0.65336 0.82932 0.0
C1242 C 0.20447 0.64681 0.84407 0.0
C1243 C 0.22368 0.67038 0.86396 0.0
H1244 H 0.1823 0.33758 0.51624 0.0
H1245 H 0.24094 0.41615 0.54708 0.0
H1246 H 0.13737 0.36675 0.54343 0.0
H1247 H 0.1959 0.44707 0.56915 0.0
H1248 H 0.1113 0.49042 0.64609 0.0
H1249 H 0.15817 0.46291 0.61963 0.0
H1250 H 0.10092 0.40108 0.53176 0.0
H1251 H 0.05544 0.42491 0.56433 0.0
C1252 C 0.18534 0.36157 0.52726 0.0
C1253 C 0.21504 0.37466 0.52891 0.0
C1254 C 0.15941 0.37873 0.54268 0.0
C1255 C 0.16217 0.41006 0.55828 0.0
C1256 C 0.19217 0.42318 0.55852 0.0
C1257 C 0.21818 0.40555 0.54497 0.0
C1258 C 0.109 0.47011 0.62282 0.0
C1259 C 0.07943 0.45876 0.61044 0.0
C1260 C 0.13598 0.4546 0.60632 0.0
C1261 C 0.13399 0.42842 0.57451 0.0
C1262 C 0.10421 0.41949 0.55844 0.0
C1263 C 0.07765 0.43391 0.57664 0.0
H1264 H 0.27132 0.66902 0.64482 0.0
H1265 H 0.33785 0.7362 0.69823 0.0
H1266 H 0.30645 0.62683 0.67217 0.0
H1267 H 0.37171 0.69508 0.72607 0.0
H1268 H 0.44336 0.61916 0.70244 0.0
H1269 H 0.40473 0.65879 0.68385 0.0
H1270 H 0.33293 0.60055 0.74578 0.0
H1271 H 0.37204 0.56075 0.76507 0.0
C1272 C 0.29314 0.67477 0.66265 0.0
C1273 C 0.30192 0.70599 0.66846 0.0
C1274 C 0.31316 0.6507 0.67872 0.0
C1275 C 0.34224 0.65756 0.70063 0.0
C1276 C 0.34998 0.68879 0.70834 0.0
C1277 C 0.33024 0.71249 0.69264 0.0
C1278 C 0.41945 0.61499 0.71298 0.0
C1279 C 0.41093 0.58693 0.73576 0.0
C1280 C 0.39721 0.63776 0.70239 0.0
C1281 C 0.36557 0.63295 0.71327 0.0
C1282 C 0.35698 0.60493 0.73645 0.0
C1283 C 0.37947 0.5823 0.74808 0.0
H1284 H 0.14905 0.68215 0.5404 0.0
H1285 H 0.22331 0.62021 0.49951 0.0
H1286 H 0.11147 0.64736 0.50279 0.0
H1287 H 0.18554 0.5856 0.45917 0.0
H1288 H 0.09917 0.52045 0.42126 0.0
H1289 H 0.1415 0.5496 0.46218 0.0
H1290 H 0.09597 0.63561 0.42246 0.0
H1291 H 0.05384 0.60679 0.38497 0.0
C1292 C 0.15736 0.66092 0.52352 0.0
C1293 C 0.18924 0.65415 0.52286 0.0
C1294 C 0.13578 0.641 0.50122 0.0
C1295 C 0.14532 0.61389 0.47622 0.0
C1296 C 0.17716 0.6062 0.47777 0.0
C1297 C 0.19886 0.62605 0.50101 0.0
C1298 C 0.0988 0.54558 0.42052 0.0
C1299 C 0.07337 0.56134 0.3993 0.0
C1300 C 0.12293 0.56236 0.44419 0.0
C1301 C 0.12195 0.59516 0.44709 0.0
C1302 C 0.09727 0.61052 0.42302 0.0
C1303 C 0.07322 0.59394 0.40061 0.0
H1304 H 0.14499 0.45473 0.27805 0.0
H1305 H 0.07064 0.38978 0.25108 0.0
H1306 H 0.18158 0.41968 0.23809 0.0
H1307 H 0.10731 0.35357 0.21501 0.0
H1308 H 0.16642 0.30439 0.10885 0.0
H1309 H 0.13394 0.34442 0.14434 0.0
H1310 H 0.21116 0.37457 0.23554 0.0
H1311 H 0.24443 0.33601 0.19516 0.0
C1312 C 0.13655 0.43262 0.26469 0.0
C1313 C 0.10472 0.42526 0.26727 0.0
C1314 C 0.15765 0.41234 0.24172 0.0
C1315 C 0.14762 0.38381 0.22173 0.0
C1316 C 0.11605 0.37574 0.22769 0.0
C1317 C 0.09492 0.39631 0.24935 0.0
C1318 C 0.17688 0.32082 0.13431 0.0
C1319 C 0.2084 0.31831 0.14689 0.0
C1320 C 0.15794 0.34321 0.15623 0.0
C1321 C 0.16939 0.36265 0.19411 0.0
C1322 C 0.2013 0.36048 0.20625 0.0
C1323 C 0.22056 0.33849 0.18292 0.0
H1324 H 0.42175 0.49025 0.90343 0.0
H1325 H 0.46034 0.40586 0.84469 0.0
H1326 H 0.38255 0.45979 0.94849 0.0
H1327 H 0.42048 0.37568 0.88576 0.0
H1328 H 0.37502 0.32311 0.0065 0.0
H1329 H 0.41067 0.35798 0.96442 0.0
H1330 H 0.3381 0.42704 0.95261 0.0
H1331 H 0.30294 0.39237 0.99759 0.0
C1332 C 0.42087 0.46534 0.89822 0.0
C1333 C 0.44338 0.45053 0.86897 0.0
C1334 C 0.39857 0.44775 0.92438 0.0
C1335 C 0.39849 0.41495 0.92195 0.0
C1336 C 0.42012 0.40063 0.89031 0.0
C1337 C 0.44261 0.41804 0.86548 0.0
C1338 C 0.36686 0.34596 0.99577 0.0
C1339 C 0.33616 0.35491 0.00558 0.0
C1340 C 0.38717 0.36594 0.97076 0.0
C1341 C 0.37724 0.39528 0.95336 0.0
C1342 C 0.34682 0.40479 0.9652 0.0
C1343 C 0.3266 0.38491 0.99122 0.0
H1344 H 0.18359 0.80137 0.14269 0.0
H1345 H 0.1925 0.86597 0.02063 0.0
H1346 H 0.15005 0.8381 0.18619 0.0
H1347 H 0.15805 0.90246 0.06384 0.0
H1348 H 0.0587 0.92721 0.13183 0.0
H1349 H 0.09755 0.89519 0.09047 0.0
H1350 H 0.15479 0.89733 0.22229 0.0
H1351 H 0.11609 0.9304 0.26363 0.0
C1352 C 0.17833 0.82344 0.12517 0.0
C1353 C 0.19046 0.83079 0.07815 0.0
C1354 C 0.15938 0.8445 0.15027 0.0
C1355 C 0.15158 0.87305 0.12838 0.0
C1356 C 0.16381 0.88055 0.08146 0.0
C1357 C 0.18346 0.85976 0.05682 0.0
C1358 C 0.07959 0.92091 0.15205 0.0
C1359 C 0.08433 0.9311 0.20107 0.0
C1360 C 0.1019 0.90284 0.12817 0.0
C1361 C 0.12914 0.89396 0.15315 0.0
C1362 C 0.13394 0.90398 0.20229 0.0
C1363 C 0.11189 0.92282 0.22585 0.0
H1364 H 0.39882 0.93443 0.26771 0.0
H1365 H 0.46443 0.9177 0.38651 0.0
H1366 H 0.35895 0.9056 0.31442 0.0
H1367 H 0.42459 0.89013 0.4334 0.0
H1368 H 0.33179 0.87011 0.51861 0.0
H1369 H 0.36638 0.90483 0.4715 0.0
H1370 H 0.3606 0.84359 0.34527 0.0
H1371 H 0.3271 0.80857 0.39246 0.0
C1372 C 0.40455 0.9249 0.30388 0.0
C1373 C 0.43469 0.92801 0.32336 0.0
C1374 C 0.38185 0.90853 0.33052 0.0
C1375 C 0.38877 0.89598 0.37759 0.0
C1376 C 0.41864 0.89988 0.39746 0.0
C1377 C 0.44146 0.91539 0.37038 0.0
C1378 C 0.33783 0.86428 0.48073 0.0
C1379 C 0.32712 0.83659 0.45928 0.0
C1380 C 0.35749 0.88406 0.45387 0.0
C1381 C 0.36586 0.87686 0.40475 0.0
C1382 C 0.35422 0.84975 0.38287 0.0
C1383 C 0.33533 0.82963 0.41005 0.0
H1384 H 0.37855 0.22706 0.6004 0.0
H1385 H 0.32273 0.14819 0.55723 0.0
H1386 H 0.40887 0.19401 0.65562 0.0
H1387 H 0.35358 0.11489 0.61207 0.0
H1388 H 0.39589 0.07039 0.75151 0.0
H1389 H 0.36395 0.10518 0.70072 0.0
H1390 H 0.44667 0.15262 0.65116 0.0
H1391 H 0.4784 0.11838 0.70227 0.0
C1392 C 0.3729 0.20259 0.60231 0.0
C1393 C 0.34827 0.19027 0.57417 0.0
C1394 C 0.39036 0.18361 0.63399 0.0
C1395 C 0.38367 0.15178 0.63839 0.0
C1396 C 0.35908 0.13939 0.6101 0.0
C1397 C 0.34159 0.15842 0.5783 0.0
C1398 C 0.40719 0.08851 0.73027 0.0
C1399 C 0.43972 0.09154 0.7309 0.0
C1400 C 0.38891 0.10825 0.70078 0.0
C1401 C 0.40275 0.13155 0.67154 0.0
C1402 C 0.43519 0.13513 0.67349 0.0
C1403 C 0.45342 0.11539 0.70275 0.0
H1404 H 0.15062 0.22121 0.92988 0.0
H1405 H 0.20142 0.14107 0.98268 0.0
H1406 H 0.11816 0.18787 0.87883 0.0
H1407 H 0.16833 0.10745 0.93202 0.0
H1408 H 0.12691 0.06252 0.79125 0.0
H1409 H 0.15911 0.09547 0.84427 0.0
H1410 H 0.0781 0.149 0.884 0.0
H1411 H 0.04613 0.11661 0.83045 0.0
C1412 C 0.15463 0.1964 0.93112 0.0
C1413 C 0.17869 0.18384 0.96035 0.0
C1414 C 0.1359 0.17723 0.90188 0.0
C1415 C 0.14068 0.14496 0.9011 0.0
C1416 C 0.16433 0.13227 0.93117 0.0
C1417 C 0.18311 0.1515 0.96055 0.0
C1418 C 0.11603 0.08146 0.81105 0.0
C1419 C 0.08395 0.08697 0.80644 0.0
C1420 C 0.13443 0.10016 0.84183 0.0
C1421 C 0.12119 0.12482 0.8686 0.0
C1422 C 0.08915 0.13045 0.86354 0.0
C1423 C 0.07079 0.11179 0.83285 0.0
H1424 H 0.87431 0.14639 0.63203 0.0
H1425 H 0.85289 0.07211 0.7344 0.0
H1426 H 0.82685 0.173 0.65597 0.0
H1427 H 0.80695 0.09897 0.75977 0.0
H1428 H 0.76664 0.15618 0.86127 0.0
H1429 H 0.76659 0.13228 0.77988 0.0
H1430 H 0.83558 0.19865 0.73108 0.0
H1431 H 0.83441 0.22323 0.81125 0.0
C1432 C 0.85883 0.13509 0.65808 0.0
C1433 C 0.8682 0.10811 0.6835 0.0
C1434 C 0.83158 0.15034 0.67181 0.0
C1435 C 0.81466 0.13956 0.71298 0.0
C1436 C 0.82008 0.10893 0.72946 0.0
C1437 C 0.84689 0.09333 0.71498 0.0
C1438 C 0.78089 0.16648 0.83261 0.0
C1439 C 0.80178 0.19072 0.84338 0.0
C1440 C 0.78086 0.15265 0.78575 0.0
C1441 C 0.80229 0.16226 0.74953 0.0
C1442 C 0.81918 0.18982 0.758 0.0
C1443 C 0.81906 0.20373 0.8046 0.0
H1444 H 0.73448 0.08545 0.48139 0.0
H1445 H 0.63899 0.08832 0.43067 0.0
H1446 H 0.72245 0.04151 0.53315 0.0
H1447 H 0.62727 0.04444 0.48338 0.0
H1448 H 0.598 1.0075 0.62345 0.0
H1449 H 0.62838 1.00115 0.54738 0.0
H1450 H 0.69178 0.0721 0.59865 0.0
H1451 H 0.66134 0.0785 0.67342 0.0
C1452 C 0.71118 0.07627 0.47925 0.0
C1453 C 0.68667 0.09274 0.45629 0.0
C1454 C 0.70448 0.05049 0.50874 0.0
C1455 C 0.67341 0.04181 0.51577 0.0
C1456 C 0.65123 0.05197 0.48094 0.0
C1457 C 0.65791 0.07757 0.45104 0.0
C1458 C 0.61903 0.02091 0.61884 0.0
C1459 C 0.62713 0.04398 0.65339 0.0
C1460 C 0.63648 0.01707 0.57563 0.0
C1461 C 0.6624 0.03604 0.56689 0.0
C1462 C 0.67218 0.05673 0.60429 0.0
C1463 C 0.65446 0.06094 0.6468 0.0
H1464 H 0.65536 0.94895 0.51465 0.0
H1465 H 0.75374 0.93203 0.5345 0.0
H1466 H 0.66675 0.98464 0.44823 0.0
H1467 H 0.76479 0.96673 0.46552 0.0
H1468 H 0.72257 0.93544 0.29935 0.0
H1469 H 0.74435 0.94142 0.38148 0.0
H1470 H 0.6967 0.02882 0.39785 0.0
H1471 H 0.67661 0.02428 0.31389 0.0
C1472 C 0.67953 0.95359 0.50644 0.0
C1473 C 0.70334 0.9353 0.52708 0.0
C1474 C 0.68612 0.97443 0.46824 0.0
C1475 C 0.71664 0.97756 0.45047 0.0
C1476 C 0.74099 0.96418 0.47782 0.0
C1477 C 0.73441 0.94365 0.5167 0.0
C1478 C 0.71782 0.95679 0.31911 0.0
C1479 C 0.695 0.97767 0.30211 0.0
C1480 C 0.73071 0.96039 0.36637 0.0
C1481 C 0.72055 0.98467 0.39709 0.0
C1482 C 0.70384 1.00923 0.37555 0.0
C1483 C 0.6916 1.00604 0.32771 0.0
H1484 H 0.83417 0.01043 0.25302 0.0
H1485 H 0.81191 0.91327 0.2732 0.0
H1486 H 0.79611 0.01379 0.18703 0.0
H1487 H 0.77316 0.91722 0.20908 0.0
H1488 H 0.74798 0.90251 0.06839 0.0
H1489 H 0.7381 0.93137 0.14265 0.0
H1490 H 0.81855 0.98838 0.11371 0.0
H1491 H 0.82822 0.96022 0.03811 0.0
C1492 C 0.82099 0.98979 0.24442 0.0
C1493 C 0.82901 0.96038 0.26393 0.0
C1494 C 0.79841 0.9921 0.20718 0.0
C1495 C 0.78366 0.96515 0.18984 0.0
C1496 C 0.78533 0.93822 0.21951 0.0
C1497 C 0.80808 0.9358 0.25628 0.0
C1498 C 0.76311 0.92189 0.07587 0.0
C1499 C 0.79034 0.92762 0.04804 0.0
C1500 C 0.75707 0.93872 0.11901 0.0
C1501 C 0.77839 0.96101 0.13568 0.0
C1502 C 0.80189 0.9708 0.10288 0.0
C1503 C 0.80785 0.95417 0.05956 0.0
H1504 H 0.6187 0.42695 0.74386 0.0
H1505 H 0.55596 0.4239 0.61841 0.0
H1506 H 0.65596 0.39469 0.69785 0.0
H1507 H 0.59338 0.39265 0.57236 0.0
H1508 H 0.68722 0.36565 0.49356 0.0
H1509 H 0.65316 0.40107 0.53995 0.0
H1510 H 0.6498 0.33552 0.66127 0.0
H1511 H 0.68286 0.29992 0.61475 0.0
C1512 C 0.61302 0.41955 0.70648 0.0
C1513 C 0.5844 0.42761 0.68484 0.0
C1514 C 0.63424 0.40119 0.68025 0.0
C1515 C 0.6275 0.39144 0.63154 0.0
C1516 C 0.59919 0.4001 0.60967 0.0
C1517 C 0.57771 0.4177 0.63624 0.0
C1518 C 0.67914 0.35892 0.53011 0.0
C1519 C 0.68734 0.32998 0.55039 0.0
C1520 C 0.65976 0.37909 0.55656 0.0
C1521 C 0.6491 0.37098 0.60421 0.0
C1522 C 0.65792 0.34237 0.62481 0.0
C1523 C 0.67656 0.32193 0.59795 0.0
H1524 H 0.83705 0.3072 0.88535 0.0
H1525 H 0.84421 0.36985 0.00996 0.0
H1526 H 0.87061 0.34107 0.83658 0.0
H1527 H 0.8787 0.40354 0.96098 0.0
H1528 H 0.97164 0.42364 0.87071 0.0
H1529 H 0.93516 0.39338 0.9204 0.0
H1530 H 0.86703 0.40001 0.80287 0.0
H1531 H 0.90343 0.43117 0.75321 0.0
C1532 C 0.84599 0.32813 0.90247 0.0
C1533 C 0.83818 0.33585 0.95161 0.0
C1534 C 0.86495 0.34761 0.87431 0.0
C1535 C 0.87703 0.3749 0.89498 0.0
C1536 C 0.86956 0.38257 0.94429 0.0
C1537 C 0.84992 0.36338 0.97222 0.0
C1538 C 0.94889 0.41861 0.85536 0.0
C1539 C 0.94038 0.42952 0.80795 0.0
C1540 C 0.92797 0.40158 0.88405 0.0
C1541 C 0.89835 0.39454 0.86549 0.0
C1542 C 0.88981 0.40522 0.81792 0.0
C1543 C 0.91054 0.42296 0.7896 0.0
H1544 H 0.9033 0.5513 0.19477 0.0
H1545 H 0.96117 0.6304 0.22751 0.0
H1546 H 0.87223 0.58289 0.1382 0.0
H1547 H 0.92907 0.66274 0.17373 0.0
H1548 H 0.88867 0.70763 0.03775 0.0
H1549 H 0.91893 0.67381 0.09193 0.0
H1550 H 0.83592 0.62128 0.12575 0.0
H1551 H 0.80636 0.65401 0.06882 0.0
C1552 C 0.90884 0.57571 0.19079 0.0
C1553 C 0.93467 0.5884 0.2154 0.0
C1554 C 0.89099 0.59395 0.15832 0.0
C1555 C 0.89816 0.62553 0.1505 0.0
C1556 C 0.92326 0.63839 0.17721 0.0
C1557 C 0.9415 0.61997 0.20869 0.0
C1558 C 0.87707 0.68855 0.05633 0.0
C1559 C 0.84522 0.68341 0.049 0.0
C1560 C 0.89431 0.66932 0.08803 0.0
C1561 C 0.87997 0.64489 0.11432 0.0
C1562 C 0.84808 0.63947 0.10597 0.0
C1563 C 0.83101 0.6583 0.07331 0.0
H1564 H 0.63686 0.53601 0.34763 0.0
H1565 H 0.60545 0.60213 0.23733 0.0
H1566 H 0.66273 0.57697 0.39267 0.0
H1567 H 0.63257 0.64364 0.28234 0.0
H1568 H 0.65056 0.7117 0.41389 0.0
H1569 H 0.62744 0.67207 0.36059 0.0
H1570 H 0.7055 0.61164 0.39035 0.0
H1571 H 0.72799 0.65067 0.44465 0.0
C1572 C 0.63586 0.55932 0.33248 0.0
C1573 C 0.61891 0.56582 0.28896 0.0
C1574 C 0.65097 0.58286 0.35829 0.0
C1575 C 0.64979 0.61366 0.34123 0.0
C1576 C 0.63362 0.62018 0.29678 0.0
C1577 C 0.61835 0.59642 0.27075 0.0
C1578 C 0.66268 0.68987 0.4092 0.0
C1579 C 0.69091 0.68419 0.43403 0.0
C1580 C 0.64961 0.66731 0.37818 0.0
C1581 C 0.66457 0.63864 0.37119 0.0
C1582 C 0.69306 0.63325 0.39549 0.0
C1583 C 0.70598 0.65565 0.4267 0.0
H1584 H 0.38866 0.60696 0.61443 0.0
H1585 H 0.31932 0.60218 0.4985 0.0
H1586 H 0.41444 0.5617 0.58017 0.0
H1587 H 0.3454 0.55826 0.4633 0.0
H1588 H 0.40466 0.51543 0.36566 0.0
H1589 H 0.37546 0.51488 0.44224 0.0
H1590 H 0.44418 0.57493 0.50962 0.0
H1591 H 0.47387 0.57441 0.43386 0.0
C1592 C 0.37814 0.5955 0.58298 0.0
C1593 C 0.35286 0.60904 0.55789 0.0
C1594 C 0.39294 0.56954 0.56324 0.0
C1595 C 0.38327 0.55776 0.51709 0.0
C1596 C 0.35423 0.56723 0.49811 0.0
C1597 C 0.33914 0.59282 0.51835 0.0
C1598 C 0.41429 0.52747 0.39739 0.0
C1599 C 0.441 0.54611 0.39311 0.0
C1600 C 0.39743 0.52706 0.44154 0.0
C1601 C 0.40668 0.54573 0.48167 0.0
C1602 C 0.43586 0.56051 0.47951 0.0
C1603 C 0.45273 0.56081 0.43555 0.0
H1604 H 0.14945 0.49605 0.18849 0.0
H1605 H 0.20842 0.57395 0.22654 0.0
H1606 H 0.1763 0.49047 0.11086 0.0
H1607 H 0.2347 0.56857 0.14783 0.0
H1608 H 0.15737 0.57064 0.98929 0.0
H1609 H 0.16022 0.53166 0.05304 0.0
H1610 H 0.25856 0.5482 0.0699 0.0
H1611 H 0.2562 0.58688 0.00479 0.0
C1612 C 0.16903 0.51118 0.18198 0.0
C1613 C 0.17571 0.53664 0.21325 0.0
C1614 C 0.18457 0.50775 0.1369 0.0
C1615 C 0.20655 0.52991 0.12208 0.0
C1616 C 0.2174 0.55135 0.15752 0.0
C1617 C 0.20197 0.55477 0.20267 0.0
C1618 C 0.17998 0.56542 0.00497 0.0
C1619 C 0.20577 0.58452 0.99544 0.0
C1620 C 0.18171 0.54254 0.04151 0.0
C1621 C 0.20932 0.53831 0.0688 0.0
C1622 C 0.23664 0.55206 0.05098 0.0
C1623 C 0.23497 0.5749 0.01409 0.0
H1624 H 0.15816 0.44484 0.03371 0.0
H1625 H 0.25594 0.42425 0.0174 0.0
H1626 H 0.16327 0.48659 0.9748 0.0
H1627 H 0.26102 0.46665 0.95963 0.0
H1628 H 0.21383 0.44185 0.80205 0.0
H1629 H 0.23901 0.44804 0.88153 0.0
H1630 H 0.17895 0.52544 0.91515 0.0
H1631 H 0.1531 0.51897 0.8368 0.0
C1632 C 0.18112 0.45005 0.01959 0.0
C1633 C 0.20581 0.4292 0.02682 0.0
C1634 C 0.18422 0.47445 0.98589 0.0
C1635 C 0.21216 0.47827 0.95951 0.0
C1636 C 0.23877 0.46307 0.97746 0.0
C1637 C 0.23563 0.43836 0.01074 0.0
C1638 C 0.20661 0.46092 0.82547 0.0
C1639 C 0.18014 0.47849 0.81356 0.0
C1640 C 0.22146 0.46489 0.87115 0.0
C1641 C 0.20987 0.48634 0.90592 0.0
C1642 C 0.1877 0.50803 0.88984 0.0
C1643 C 0.17269 0.504 0.84428 0.0
H1644 H 0.27215 0.43073 0.4651 0.0
H1645 H 0.37074 0.45015 0.47019 0.0
H1646 H 0.26356 0.46923 0.52906 0.0
H1647 H 0.36171 0.48925 0.53196 0.0
H1648 H 0.30714 0.44039 0.69188 0.0
H1649 H 0.28384 0.44729 0.61088 0.0
H1650 H 0.33855 0.52981 0.58755 0.0
H1651 H 0.36244 0.52308 0.66758 0.0
C1652 C 0.29205 0.44345 0.47867 0.0
C1653 C 0.32274 0.43463 0.46669 0.0
C1654 C 0.28683 0.46617 0.51469 0.0
C1655 C 0.31212 0.48073 0.5379 0.0
C1656 C 0.34164 0.47769 0.51617 0.0
C1657 C 0.34692 0.45476 0.48073 0.0
C1658 C 0.31342 0.4608 0.67057 0.0
C1659 C 0.33846 0.47962 0.68536 0.0
C1660 C 0.29964 0.46506 0.62404 0.0
C1661 C 0.31086 0.48815 0.59165 0.0
C1662 C 0.33048 0.5111 0.61105 0.0
C1663 C 0.34441 0.50685 0.65749 0.0
loop_
_geom_bond_atom_site_label_1
_geom_bond_atom_site_label_2
_geom_bond_distance
_geom_bond_site_symmetry_2
_ccdc_geom_bond_type
Zn0 N4 2.020 . S
Zn0 O8 2.019 . S
Zn0 N10 2.119 . S
Zn0 O18 1.975 . S
C1 N2 1.333 1_655 S
C1 N5 1.336 . S
N2 C1 1.333 1_455 S
N2 C3 1.334 . S
C3 N2 1.334 . S
C3 N4 1.336 . S
N4 Zn0 2.020 . S
N4 C3 1.336 . S
N4 N5 1.354 1_455 S
N5 C1 1.336 . S
N5 N4 1.354 1_655 S
N5 Zn9 2.020 . S
C6 O7 1.244 . S
C6 O30 1.257 . S
O7 C6 1.244 . S
O8 Zn0 2.019 . S
O8 C28 1.257 1_545 S
Zn9 N5 2.020 . S
Zn9 O16 1.975 . S
Zn9 N25 2.119 1_545 S
Zn9 O30 2.019 . S
N10 Zn0 2.119 . S
N10 C12 1.334 . S
N10 C13 1.328 . S
C11 C12 1.391 . S
C11 N14 1.329 . S
C11 H32 0.930 . S
C12 N10 1.334 . S
C12 C11 1.391 . S
C12 H19 0.930 . S
C13 N10 1.328 . S
C13 C15 1.392 . S
C13 H20 0.930 . S
N14 C11 1.329 . S
N14 C15 1.331 . S
C15 C13 1.392 . S
C15 N14 1.331 . S
O16 Zn9 1.975 . S
O16 C17 1.252 1_655 S
C17 O16 1.252 1_455 S
C17 O18 1.252 . S
O18 Zn0 1.975 . S
O18 C17 1.252 . S
H19 C12 0.930 . S
H20 C13 0.930 . S
C21 C22 1.392 . S
C21 N25 1.328 . S
C21 H27 0.930 . S
C22 C21 1.392 . S
C22 N26 1.331 . S
C23 C24 1.391 . S
C23 N26 1.329 . S
C23 H33 0.930 . S
C24 C23 1.391 . S
C24 N25 1.334 . S
C24 H31 0.930 . S
N25 Zn9 2.119 1_565 S
N25 C21 1.328 . S
N25 C24 1.334 . S
N26 C22 1.331 . S
N26 C23 1.329 . S
H27 C21 0.930 . S
C28 O8 1.257 1_565 S
C28 O29 1.244 . S
O29 C28 1.244 . S
O30 C6 1.257 . S
O30 Zn9 2.019 . S
H31 C24 0.930 . S
H32 C11 0.930 . S
H33 C23 0.930 . S
Zn34 N38 2.020 . S
Zn34 O42 2.019 . S
Zn34 N44 2.119 . S
Zn34 O52 1.975 . S
C35 N36 1.334 . S
C35 N39 1.336 . S
N36 C35 1.334 . S
N36 C37 1.334 . S
C37 N36 1.334 . S
C37 N38 1.336 . S
N38 Zn34 2.020 . S
N38 C37 1.336 . S
N38 N39 1.354 . S
N39 C35 1.336 . S
N39 N38 1.354 . S
N39 Zn43 2.020 . S
C40 O41 1.244 . S
C40 O64 1.257 . S
O41 C40 1.244 . S
O42 Zn34 2.019 . S
O42 C62 1.257 . S
Zn43 N39 2.020 . S
Zn43 O50 1.975 . S
Zn43 N59 2.119 . S
Zn43 O64 2.019 . S
N44 Zn34 2.119 . S
N44 C46 1.334 . S
N44 C47 1.328 . S
C45 C46 1.391 . S
C45 N48 1.329 . S
C45 H66 0.930 . S
C46 N44 1.334 . S
C46 C45 1.391 . S
C46 H53 0.930 . S
C47 N44 1.328 . S
C47 C49 1.392 . S
C47 H54 0.930 . S
N48 C45 1.329 . S
N48 C49 1.331 . S
C49 C47 1.392 . S
C49 N48 1.331 . S
O50 Zn43 1.975 . S
O50 C51 1.252 . S
C51 O50 1.252 . S
C51 O52 1.252 . S
O52 Zn34 1.975 . S
O52 C51 1.252 . S
H53 C46 0.930 . S
H54 C47 0.930 . S
C55 C56 1.392 . S
C55 N59 1.328 . S
C55 H61 0.930 . S
C56 C55 1.392 . S
C56 N60 1.331 . S
C57 C58 1.391 . S
C57 N60 1.329 . S
C57 H67 0.930 . S
C58 C57 1.391 . S
C58 N59 1.334 . S
C58 H65 0.930 . S
N59 Zn43 2.119 . S
N59 C55 1.328 . S
N59 C58 1.334 . S
N60 C56 1.331 . S
N60 C57 1.329 . S
H61 C55 0.930 . S
C62 O42 1.257 . S
C62 O63 1.244 . S
O63 C62 1.244 . S
O64 C40 1.257 . S
O64 Zn43 2.019 . S
H65 C58 0.930 . S
H66 C45 0.930 . S
H67 C57 0.930 . S
Zn68 N72 2.020 . S
Zn68 O76 2.019 . S
Zn68 N78 2.119 . S
Zn68 O86 1.975 . S
C69 N70 1.334 1_565 S
C69 N73 1.336 . S
N70 C69 1.334 1_545 S
N70 C71 1.334 1_545 S
C71 N70 1.334 1_565 S
C71 N72 1.336 . S
N72 Zn68 2.020 . S
N72 C71 1.336 . S
N72 N73 1.354 . S
N73 C69 1.336 . S
N73 N72 1.354 . S
N73 Zn77 2.020 . S
C74 O75 1.244 . S
C74 O98 1.257 . S
O75 C74 1.244 . S
O76 Zn68 2.019 . S
O76 C96 1.257 1_565 S
Zn77 N73 2.020 . S
Zn77 O84 1.975 . S
Zn77 N93 2.119 1_565 S
Zn77 O98 2.019 . S
N78 Zn68 2.119 . S
N78 C80 1.334 . S
N78 C81 1.328 . S
C79 C80 1.391 . S
C79 N82 1.329 . S
C79 H100 0.930 . S
C80 N78 1.334 . S
C80 C79 1.391 . S
C80 H87 0.930 . S
C81 N78 1.328 . S
C81 C83 1.392 . S
C81 H88 0.930 . S
N82 C79 1.329 . S
N82 C83 1.331 . S
C83 C81 1.392 . S
C83 N82 1.331 . S
O84 Zn77 1.975 . S
O84 C85 1.252 . S
C85 O84 1.252 . S
C85 O86 1.252 . S
O86 Zn68 1.975 . S
O86 C85 1.252 . S
H87 C80 0.930 . S
H88 C81 0.930 . S
C89 C90 1.392 . S
C89 N93 1.328 . S
C89 H95 0.930 . S
C90 C89 1.392 . S
C90 N94 1.331 . S
C91 C92 1.391 . S
C91 N94 1.329 . S
C91 H101 0.930 . S
C92 C91 1.391 . S
C92 N93 1.334 . S
C92 H99 0.930 . S
N93 Zn77 2.119 1_545 S
N93 C89 1.328 . S
N93 C92 1.334 . S
N94 C90 1.331 . S
N94 C91 1.329 . S
H95 C89 0.930 . S
C96 O76 1.257 1_545 S
C96 O97 1.244 . S
O97 C96 1.244 . S
O98 C74 1.257 . S
O98 Zn77 2.019 . S
H99 C92 0.930 . S
H100 C79 0.930 . S
H101 C91 0.930 . S
Zn102 N106 2.020 1_556 S
Zn102 O110 2.019 . S
Zn102 N112 2.119 1_556 S
Zn102 O120 1.975 . S
C103 N104 1.334 . S
C103 N107 1.336 . S
N104 C103 1.334 . S
N104 C105 1.334 . S
C105 N104 1.334 . S
C105 N106 1.336 . S
N106 Zn102 2.020 1_554 S
N106 C105 1.336 . S
N106 N107 1.354 . S
N107 C103 1.336 . S
N107 N106 1.354 . S
N107 Zn111 2.020 1_554 S
C108 O109 1.244 . S
C108 O132 1.257 1_554 S
O109 C108 1.244 . S
O110 Zn102 2.019 . S
O110 C130 1.257 . S
Zn111 N107 2.020 1_556 S
Zn111 O118 1.975 . S
Zn111 N127 2.119 . S
Zn111 O132 2.019 . S
N112 Zn102 2.119 1_554 S
N112 C114 1.334 . S
N112 C115 1.328 . S
C113 C114 1.391 . S
C113 N116 1.329 . S
C113 H134 0.930 . S
C114 N112 1.334 . S
C114 C113 1.391 . S
C114 H121 0.930 . S
C115 N112 1.328 . S
C115 C117 1.392 . S
C115 H122 0.932 . S
N116 C113 1.329 . S
N116 C117 1.331 . S
C117 C115 1.392 . S
C117 N116 1.331 . S
O118 Zn111 1.975 . S
O118 C119 1.252 . S
C119 O118 1.252 . S
C119 O120 1.252 . S
O120 Zn102 1.975 . S
O120 C119 1.252 . S
H121 C114 0.930 . S
H122 C115 0.932 . S
C123 C124 1.392 . S
C123 N127 1.328 . S
C123 H129 0.930 . S
C124 C123 1.392 . S
C124 N128 1.331 . S
C125 C126 1.391 . S
C125 N128 1.329 . S
C125 H135 0.930 . S
C126 C125 1.391 . S
C126 N127 1.334 . S
C126 H133 0.930 . S
N127 Zn111 2.119 . S
N127 C123 1.328 . S
N127 C126 1.334 . S
N128 C124 1.331 . S
N128 C125 1.329 . S
H129 C123 0.930 . S
C130 O110 1.257 . S
C130 O131 1.244 . S
O131 C130 1.244 . S
O132 C108 1.257 1_556 S
O132 Zn111 2.019 . S
H133 C126 0.930 . S
H134 C113 0.930 . S
H135 C125 0.930 . S
Zn136 N140 2.020 . S
Zn136 O144 2.019 . S
Zn136 N146 2.119 . S
Zn136 O154 1.975 . S
C137 N138 1.333 1_655 S
C137 N141 1.336 . S
N138 C137 1.333 1_455 S
N138 C139 1.334 . S
C139 N138 1.334 . S
C139 N140 1.336 . S
N140 Zn136 2.020 . S
N140 C139 1.336 . S
N140 N141 1.354 1_455 S
N141 C137 1.336 . S
N141 N140 1.354 1_655 S
N141 Zn145 2.020 . S
C142 O143 1.244 . S
C142 O166 1.257 . S
O143 C142 1.244 . S
O144 Zn136 2.019 . S
O144 C164 1.257 1_565 S
Zn145 N141 2.020 . S
Zn145 O152 1.975 . S
Zn145 N161 2.119 1_565 S
Zn145 O166 2.019 . S
N146 Zn136 2.119 . S
N146 C148 1.334 . S
N146 C149 1.328 . S
C147 C148 1.391 . S
C147 N150 1.329 . S
C147 H168 0.930 . S
C148 N146 1.334 . S
C148 C147 1.391 . S
C148 H155 0.930 . S
C149 N146 1.328 . S
C149 C151 1.392 . S
C149 H156 0.930 . S
N150 C147 1.329 . S
N150 C151 1.331 . S
C151 C149 1.392 . S
C151 N150 1.331 . S
O152 Zn145 1.975 . S
O152 C153 1.252 1_655 S
C153 O152 1.252 1_455 S
C153 O154 1.252 . S
O154 Zn136 1.975 . S
O154 C153 1.252 . S
H155 C148 0.930 . S
H156 C149 0.930 . S
C157 C158 1.392 . S
C157 N161 1.328 . S
C157 H163 0.930 . S
C158 C157 1.392 . S
C158 N162 1.331 . S
C159 C160 1.391 . S
C159 N162 1.329 . S
C159 H169 0.930 . S
C160 C159 1.391 . S
C160 N161 1.334 . S
C160 H167 0.930 . S
N161 Zn145 2.119 1_545 S
N161 C157 1.328 . S
N161 C160 1.334 . S
N162 C158 1.331 . S
N162 C159 1.329 . S
H163 C157 0.930 . S
C164 O144 1.257 1_545 S
C164 O165 1.244 . S
O165 C164 1.244 . S
O166 C142 1.257 . S
O166 Zn145 2.019 . S
H167 C160 0.930 . S
H168 C147 0.930 . S
H169 C159 0.930 . S
Zn170 N174 2.020 1_554 S
Zn170 O178 2.019 . S
Zn170 N180 2.119 . S
Zn170 O188 1.975 . S
C171 N172 1.334 . S
C171 N175 1.336 . S
N172 C171 1.334 . S
N172 C173 1.334 . S
C173 N172 1.334 . S
C173 N174 1.336 . S
N174 Zn170 2.020 1_556 S
N174 C173 1.336 . S
N174 N175 1.354 . S
N175 C171 1.336 . S
N175 N174 1.354 . S
N175 Zn179 2.020 1_556 S
C176 O177 1.244 . S
C176 O200 1.257 . S
O177 C176 1.244 . S
O178 Zn170 2.019 . S
O178 C198 1.257 1_554 S
Zn179 N175 2.020 1_554 S
Zn179 O186 1.975 . S
Zn179 N195 2.119 1_554 S
Zn179 O200 2.019 . S
N180 Zn170 2.119 . S
N180 C182 1.334 . S
N180 C183 1.328 . S
C181 C182 1.391 . S
C181 N184 1.329 . S
C181 H202 0.930 . S
C182 N180 1.334 . S
C182 C181 1.391 . S
C182 H189 0.930 . S
C183 N180 1.328 . S
C183 C185 1.392 . S
C183 H190 0.930 . S
N184 C181 1.329 . S
N184 C185 1.331 . S
C185 C183 1.392 . S
C185 N184 1.331 . S
O186 Zn179 1.975 . S
O186 C187 1.252 . S
C187 O186 1.252 . S
C187 O188 1.252 . S
O188 Zn170 1.975 . S
O188 C187 1.252 . S
H189 C182 0.930 . S
H190 C183 0.930 . S
C191 C192 1.392 . S
C191 N195 1.328 . S
C191 H197 0.932 . S
C192 C191 1.392 . S
C192 N196 1.331 . S
C193 C194 1.391 . S
C193 N196 1.329 . S
C193 H203 0.930 . S
C194 C193 1.391 . S
C194 N195 1.334 . S
C194 H201 0.930 . S
N195 Zn179 2.119 1_556 S
N195 C191 1.328 . S
N195 C194 1.334 . S
N196 C192 1.331 . S
N196 C193 1.329 . S
H197 C191 0.932 . S
C198 O178 1.257 1_556 S
C198 O199 1.244 . S
O199 C198 1.244 . S
O200 C176 1.257 . S
O200 Zn179 2.019 . S
H201 C194 0.930 . S
H202 C181 0.930 . S
H203 C193 0.930 . S
Zn204 N208 2.020 . S
Zn204 O212 2.019 . S
Zn204 N214 2.119 . S
Zn204 O222 1.975 . S
C205 N206 1.334 1_545 S
C205 N209 1.336 . S
N206 C205 1.334 1_565 S
N206 C207 1.334 1_565 S
C207 N206 1.334 1_545 S
C207 N208 1.336 . S
N208 Zn204 2.020 . S
N208 C207 1.336 . S
N208 N209 1.354 . S
N209 C205 1.336 . S
N209 N208 1.354 . S
N209 Zn213 2.020 . S
C210 O211 1.244 . S
C210 O234 1.257 . S
O211 C210 1.244 . S
O212 Zn204 2.019 . S
O212 C232 1.257 1_545 S
Zn213 N209 2.020 . S
Zn213 O220 1.975 . S
Zn213 N229 2.119 1_545 S
Zn213 O234 2.019 . S
N214 Zn204 2.119 . S
N214 C216 1.334 . S
N214 C217 1.328 . S
C215 C216 1.391 . S
C215 N218 1.329 . S
C215 H236 0.930 . S
C216 N214 1.334 . S
C216 C215 1.391 . S
C216 H223 0.930 . S
C217 N214 1.328 . S
C217 C219 1.392 . S
C217 H224 0.930 . S
N218 C215 1.329 . S
N218 C219 1.331 . S
C219 C217 1.392 . S
C219 N218 1.331 . S
O220 Zn213 1.975 . S
O220 C221 1.252 . S
C221 O220 1.252 . S
C221 O222 1.252 . S
O222 Zn204 1.975 . S
O222 C221 1.252 . S
H223 C216 0.930 . S
H224 C217 0.930 . S
C225 C226 1.392 . S
C225 N229 1.328 . S
C225 H231 0.930 . S
C226 C225 1.392 . S
C226 N230 1.331 . S
C227 C228 1.391 . S
C227 N230 1.329 . S
C227 H237 0.930 . S
C228 C227 1.391 . S
C228 N229 1.334 . S
C228 H235 0.930 . S
N229 Zn213 2.119 1_565 S
N229 C225 1.328 . S
N229 C228 1.334 . S
N230 C226 1.331 . S
N230 C227 1.329 . S
H231 C225 0.930 . S
C232 O212 1.257 1_565 S
C232 O233 1.244 . S
O233 C232 1.244 . S
O234 C210 1.257 . S
O234 Zn213 2.019 . S
H235 C228 0.930 . S
H236 C215 0.930 . S
H237 C227 0.930 . S
Zn238 N242 2.020 . S
Zn238 O246 2.019 . S
Zn238 N248 2.119 . S
Zn238 O256 1.975 . S
C239 N240 1.334 . S
C239 N243 1.336 . S
N240 C239 1.334 . S
N240 C241 1.334 . S
C241 N240 1.334 . S
C241 N242 1.336 . S
N242 Zn238 2.020 . S
N242 C241 1.336 . S
N242 N243 1.354 . S
N243 C239 1.336 . S
N243 N242 1.354 . S
N243 Zn247 2.020 . S
C244 O245 1.244 . S
C244 O268 1.257 . S
O245 C244 1.244 . S
O246 Zn238 2.019 . S
O246 C266 1.257 . S
Zn247 N243 2.020 . S
Zn247 O254 1.975 . S
Zn247 N263 2.119 . S
Zn247 O268 2.019 . S
N248 Zn238 2.119 . S
N248 C250 1.334 . S
N248 C251 1.328 . S
C249 C250 1.391 . S
C249 N252 1.329 . S
C249 H270 0.930 . S
C250 N248 1.334 . S
C250 C249 1.391 . S
C250 H257 0.930 . S
C251 N248 1.328 . S
C251 C253 1.392 . S
C251 H258 0.930 . S
N252 C249 1.329 . S
N252 C253 1.331 . S
C253 C251 1.392 . S
C253 N252 1.331 . S
O254 Zn247 1.975 . S
O254 C255 1.252 . S
C255 O254 1.252 . S
C255 O256 1.252 . S
O256 Zn238 1.975 . S
O256 C255 1.252 . S
H257 C250 0.930 . S
H258 C251 0.930 . S
C259 C260 1.392 . S
C259 N263 1.328 . S
C259 H265 0.930 . S
C260 C259 1.392 . S
C260 N264 1.331 . S
C261 C262 1.391 . S
C261 N264 1.329 . S
C261 H271 0.930 . S
C262 C261 1.391 . S
C262 N263 1.334 . S
C262 H269 0.930 . S
N263 Zn247 2.119 . S
N263 C259 1.328 . S
N263 C262 1.334 . S
N264 C260 1.331 . S
N264 C261 1.329 . S
H265 C259 0.930 . S
C266 O246 1.257 . S
C266 O267 1.244 . S
O267 C266 1.244 . S
O268 C244 1.257 . S
O268 Zn247 2.019 . S
H269 C262 0.930 . S
H270 C249 0.930 . S
H271 C261 0.930 . S
Zn272 N276 2.020 . S
Zn272 O280 2.019 . S
Zn272 N282 2.119 . S
Zn272 O290 1.975 . S
C273 N274 1.334 . S
C273 N277 1.336 . S
N274 C273 1.334 . S
N274 C275 1.334 . S
C275 N274 1.334 . S
C275 N276 1.336 . S
N276 Zn272 2.020 . S
N276 C275 1.336 . S
N276 N277 1.354 . S
N277 C273 1.336 . S
N277 N276 1.354 . S
N277 Zn281 2.020 . S
C278 O279 1.244 . S
C278 O302 1.257 . S
O279 C278 1.244 . S
O280 Zn272 2.019 . S
O280 C300 1.257 . S
Zn281 N277 2.020 . S
Zn281 O288 1.975 . S
Zn281 N297 2.119 . S
Zn281 O302 2.019 . S
N282 Zn272 2.119 . S
N282 C284 1.334 . S
N282 C285 1.328 . S
C283 C284 1.391 . S
C283 N286 1.329 . S
C283 H304 0.930 . S
C284 N282 1.334 . S
C284 C283 1.391 . S
C284 H291 0.930 . S
C285 N282 1.328 . S
C285 C287 1.392 . S
C285 H292 0.930 . S
N286 C283 1.329 . S
N286 C287 1.331 . S
C287 C285 1.392 . S
C287 N286 1.331 . S
O288 Zn281 1.975 . S
O288 C289 1.252 . S
C289 O288 1.252 . S
C289 O290 1.252 . S
O290 Zn272 1.975 . S
O290 C289 1.252 . S
H291 C284 0.930 . S
H292 C285 0.930 . S
C293 C294 1.392 . S
C293 N297 1.328 . S
C293 H299 0.930 . S
C294 C293 1.392 . S
C294 N298 1.331 . S
C295 C296 1.391 . S
C295 N298 1.329 . S
C295 H305 0.930 . S
C296 C295 1.391 . S
C296 N297 1.334 . S
C296 H303 0.930 . S
N297 Zn281 2.119 . S
N297 C293 1.328 . S
N297 C296 1.334 . S
N298 C294 1.331 . S
N298 C295 1.329 . S
H299 C293 0.930 . S
C300 O280 1.257 . S
C300 O301 1.244 . S
O301 C300 1.244 . S
O302 C278 1.257 . S
O302 Zn281 2.019 . S
H303 C296 0.930 . S
H304 C283 0.930 . S
H305 C295 0.930 . S
Zn306 N310 2.020 1_554 S
Zn306 O314 2.019 . S
Zn306 N316 2.119 1_554 S
Zn306 O324 1.975 . S
C307 N308 1.334 . S
C307 N311 1.336 . S
N308 C307 1.334 . S
N308 C309 1.334 . S
C309 N308 1.334 . S
C309 N310 1.336 . S
N310 Zn306 2.020 1_556 S
N310 C309 1.336 . S
N310 N311 1.354 . S
N311 C307 1.336 . S
N311 N310 1.354 . S
N311 Zn315 2.020 1_556 S
C312 O313 1.244 . S
C312 O336 1.257 1_556 S
O313 C312 1.244 . S
O314 Zn306 2.019 . S
O314 C334 1.257 . S
Zn315 N311 2.020 1_554 S
Zn315 O322 1.975 . S
Zn315 N331 2.119 . S
Zn315 O336 2.019 . S
N316 Zn306 2.119 1_556 S
N316 C318 1.334 . S
N316 C319 1.328 . S
C317 C318 1.391 . S
C317 N320 1.329 . S
C317 H338 0.930 . S
C318 N316 1.334 . S
C318 C317 1.391 . S
C318 H325 0.930 . S
C319 N316 1.328 . S
C319 C321 1.392 . S
C319 H326 0.932 . S
N320 C317 1.329 . S
N320 C321 1.331 . S
C321 C319 1.392 . S
C321 N320 1.331 . S
O322 Zn315 1.975 . S
O322 C323 1.252 . S
C323 O322 1.252 . S
C323 O324 1.252 . S
O324 Zn306 1.975 . S
O324 C323 1.252 . S
H325 C318 0.930 . S
H326 C319 0.932 . S
C327 C328 1.392 . S
C327 N331 1.328 . S
C327 H333 0.930 . S
C328 C327 1.392 . S
C328 N332 1.331 . S
C329 C330 1.391 . S
C329 N332 1.329 . S
C329 H339 0.930 . S
C330 C329 1.391 . S
C330 N331 1.334 . S
C330 H337 0.930 . S
N331 Zn315 2.119 . S
N331 C327 1.328 . S
N331 C330 1.334 . S
N332 C328 1.331 . S
N332 C329 1.329 . S
H333 C327 0.930 . S
C334 O314 1.257 . S
C334 O335 1.244 . S
O335 C334 1.244 . S
O336 C312 1.257 1_554 S
O336 Zn315 2.019 . S
H337 C330 0.930 . S
H338 C317 0.930 . S
H339 C329 0.930 . S
Zn340 N344 2.020 1_556 S
Zn340 O348 2.019 . S
Zn340 N350 2.119 . S
Zn340 O358 1.975 . S
C341 N342 1.334 . S
C341 N345 1.336 . S
N342 C341 1.334 . S
N342 C343 1.334 . S
C343 N342 1.334 . S
C343 N344 1.336 . S
N344 Zn340 2.020 1_554 S
N344 C343 1.336 . S
N344 N345 1.354 . S
N345 C341 1.336 . S
N345 N344 1.354 . S
N345 Zn349 2.020 1_554 S
C346 O347 1.244 . S
C346 O370 1.257 . S
O347 C346 1.244 . S
O348 Zn340 2.019 . S
O348 C368 1.257 1_556 S
Zn349 N345 2.020 1_556 S
Zn349 O356 1.975 . S
Zn349 N365 2.119 1_556 S
Zn349 O370 2.019 . S
N350 Zn340 2.119 . S
N350 C352 1.334 . S
N350 C353 1.328 . S
C351 C352 1.391 . S
C351 N354 1.329 . S
C351 H372 0.930 . S
C352 N350 1.334 . S
C352 C351 1.391 . S
C352 H359 0.930 . S
C353 N350 1.328 . S
C353 C355 1.392 . S
C353 H360 0.930 . S
N354 C351 1.329 . S
N354 C355 1.331 . S
C355 C353 1.392 . S
C355 N354 1.331 . S
O356 Zn349 1.975 . S
O356 C357 1.252 . S
C357 O356 1.252 . S
C357 O358 1.252 . S
O358 Zn340 1.975 . S
O358 C357 1.252 . S
H359 C352 0.930 . S
H360 C353 0.930 . S
C361 C362 1.392 . S
C361 N365 1.328 . S
C361 H367 0.932 . S
C362 C361 1.392 . S
C362 N366 1.331 . S
C363 C364 1.391 . S
C363 N366 1.329 . S
C363 H373 0.930 . S
C364 C363 1.391 . S
C364 N365 1.334 . S
C364 H371 0.930 . S
N365 Zn349 2.119 1_554 S
N365 C361 1.328 . S
N365 C364 1.334 . S
N366 C362 1.331 . S
N366 C363 1.329 . S
H367 C361 0.932 . S
C368 O348 1.257 1_554 S
C368 O369 1.244 . S
O369 C368 1.244 . S
O370 C346 1.257 . S
O370 Zn349 2.019 . S
H371 C364 0.930 . S
H372 C351 0.930 . S
H373 C363 0.930 . S
Zn374 N378 2.020 . S
Zn374 O382 2.019 . S
Zn374 N384 2.119 . S
Zn374 O392 1.975 . S
C375 N376 1.334 . S
C375 N379 1.336 . S
N376 C375 1.334 . S
N376 C377 1.334 . S
C377 N376 1.334 . S
C377 N378 1.336 . S
N378 Zn374 2.020 . S
N378 C377 1.336 . S
N378 N379 1.354 . S
N379 C375 1.336 . S
N379 N378 1.354 . S
N379 Zn383 2.020 . S
C380 O381 1.244 . S
C380 O404 1.257 . S
O381 C380 1.244 . S
O382 Zn374 2.019 . S
O382 C402 1.257 . S
Zn383 N379 2.020 . S
Zn383 O390 1.975 . S
Zn383 N399 2.119 . S
Zn383 O404 2.019 . S
N384 Zn374 2.119 . S
N384 C386 1.334 . S
N384 C387 1.328 . S
C385 C386 1.391 . S
C385 N388 1.329 . S
C385 H406 0.930 . S
C386 N384 1.334 . S
C386 C385 1.391 . S
C386 H393 0.930 . S
C387 N384 1.328 . S
C387 C389 1.392 . S
C387 H394 0.930 . S
N388 C385 1.329 . S
N388 C389 1.331 . S
C389 C387 1.392 . S
C389 N388 1.331 . S
O390 Zn383 1.975 . S
O390 C391 1.252 . S
C391 O390 1.252 . S
C391 O392 1.252 . S
O392 Zn374 1.975 . S
O392 C391 1.252 . S
H393 C386 0.930 . S
H394 C387 0.930 . S
C395 C396 1.392 . S
C395 N399 1.328 . S
C395 H401 0.930 . S
C396 C395 1.392 . S
C396 N400 1.331 . S
C397 C398 1.391 . S
C397 N400 1.329 . S
C397 H407 0.930 . S
C398 C397 1.391 . S
C398 N399 1.334 . S
C398 H405 0.930 . S
N399 Zn383 2.119 . S
N399 C395 1.328 . S
N399 C398 1.334 . S
N400 C396 1.331 . S
N400 C397 1.329 . S
H401 C395 0.930 . S
C402 O382 1.257 . S
C402 O403 1.244 . S
O403 C402 1.244 . S
O404 C380 1.257 . S
O404 Zn383 2.019 . S
H405 C398 0.930 . S
H406 C385 0.930 . S
H407 C397 0.930 . S
Zn408 N412 2.020 . S
Zn408 O416 2.019 . S
Zn408 N418 2.119 . S
Zn408 O426 1.975 . S
C409 N410 1.334 . S
C409 N413 1.336 . S
N410 C409 1.334 . S
N410 C411 1.334 . S
C411 N410 1.334 . S
C411 N412 1.336 . S
N412 Zn408 2.020 . S
N412 C411 1.336 . S
N412 N413 1.354 . S
N413 C409 1.336 . S
N413 N412 1.354 . S
N413 Zn417 2.020 . S
C414 O415 1.244 . S
C414 O438 1.257 . S
O415 C414 1.244 . S
O416 Zn408 2.019 . S
O416 C436 1.257 . S
Zn417 N413 2.020 . S
Zn417 O424 1.975 . S
Zn417 N433 2.119 . S
Zn417 O438 2.019 . S
N418 Zn408 2.119 . S
N418 C420 1.334 . S
N418 C421 1.328 . S
C419 C420 1.391 . S
C419 N422 1.329 . S
C419 H440 0.930 . S
C420 N418 1.334 . S
C420 C419 1.391 . S
C420 H427 0.930 . S
C421 N418 1.328 . S
C421 C423 1.392 . S
C421 H428 0.930 . S
N422 C419 1.329 . S
N422 C423 1.331 . S
C423 C421 1.392 . S
C423 N422 1.331 . S
O424 Zn417 1.975 . S
O424 C425 1.252 . S
C425 O424 1.252 . S
C425 O426 1.252 . S
O426 Zn408 1.975 . S
O426 C425 1.252 . S
H427 C420 0.930 . S
H428 C421 0.930 . S
C429 C430 1.392 . S
C429 N433 1.328 . S
C429 H435 0.930 . S
C430 C429 1.392 . S
C430 N434 1.331 . S
C431 C432 1.391 . S
C431 N434 1.329 . S
C431 H441 0.930 . S
C432 C431 1.391 . S
C432 N433 1.334 . S
C432 H439 0.930 . S
N433 Zn417 2.119 . S
N433 C429 1.328 . S
N433 C432 1.334 . S
N434 C430 1.331 . S
N434 C431 1.329 . S
H435 C429 0.930 . S
C436 O416 1.257 . S
C436 O437 1.244 . S
O437 C436 1.244 . S
O438 C414 1.257 . S
O438 Zn417 2.019 . S
H439 C432 0.930 . S
H440 C419 0.930 . S
H441 C431 0.930 . S
Zn442 N446 2.020 . S
Zn442 O450 2.019 . S
Zn442 N452 2.119 . S
Zn442 O460 1.975 . S
C443 N444 1.334 . S
C443 N447 1.336 . S
N444 C443 1.334 . S
N444 C445 1.334 1_455 S
C445 N444 1.334 1_655 S
C445 N446 1.336 . S
N446 Zn442 2.020 . S
N446 C445 1.336 . S
N446 N447 1.354 1_655 S
N447 C443 1.336 . S
N447 N446 1.354 1_455 S
N447 Zn451 2.020 . S
C448 O449 1.244 . S
C448 O472 1.257 . S
O449 C448 1.244 . S
O450 Zn442 2.019 . S
O450 C470 1.257 . S
Zn451 N447 2.020 . S
Zn451 O458 1.975 . S
Zn451 N467 2.119 . S
Zn451 O472 2.019 . S
N452 Zn442 2.119 . S
N452 C454 1.334 . S
N452 C455 1.328 . S
C453 C454 1.391 . S
C453 N456 1.329 . S
C453 H474 0.930 . S
C454 N452 1.334 . S
C454 C453 1.391 . S
C454 H461 0.930 . S
C455 N452 1.328 . S
C455 C457 1.392 . S
C455 H462 0.930 . S
N456 C453 1.329 . S
N456 C457 1.331 . S
C457 C455 1.392 . S
C457 N456 1.331 . S
O458 Zn451 1.975 . S
O458 C459 1.252 . S
C459 O458 1.252 . S
C459 O460 1.252 1_455 S
O460 Zn442 1.975 . S
O460 C459 1.252 1_655 S
H461 C454 0.930 . S
H462 C455 0.930 . S
C463 C464 1.392 . S
C463 N467 1.328 . S
C463 H469 0.930 . S
C464 C463 1.392 . S
C464 N468 1.331 . S
C465 C466 1.391 . S
C465 N468 1.329 . S
C465 H475 0.930 . S
C466 C465 1.391 . S
C466 N467 1.334 . S
C466 H473 0.930 . S
N467 Zn451 2.119 . S
N467 C463 1.328 . S
N467 C466 1.334 . S
N468 C464 1.331 . S
N468 C465 1.329 . S
H469 C463 0.930 . S
C470 O450 1.257 . S
C470 O471 1.244 . S
O471 C470 1.244 . S
O472 C448 1.257 . S
O472 Zn451 2.019 . S
H473 C466 0.930 . S
H474 C453 0.930 . S
H475 C465 0.930 . S
Zn476 N480 2.020 . S
Zn476 O484 2.019 . S
Zn476 N486 2.119 . S
Zn476 O494 1.975 . S
C477 N478 1.334 . S
C477 N481 1.336 . S
N478 C477 1.334 . S
N478 C479 1.334 . S
C479 N478 1.334 . S
C479 N480 1.336 . S
N480 Zn476 2.020 . S
N480 C479 1.336 . S
N480 N481 1.354 . S
N481 C477 1.336 . S
N481 N480 1.354 . S
N481 Zn485 2.020 . S
C482 O483 1.244 . S
C482 O506 1.257 . S
O483 C482 1.244 . S
O484 Zn476 2.019 . S
O484 C504 1.257 . S
Zn485 N481 2.020 . S
Zn485 O492 1.975 . S
Zn485 N501 2.119 . S
Zn485 O506 2.019 . S
N486 Zn476 2.119 . S
N486 C488 1.334 . S
N486 C489 1.328 . S
C487 C488 1.391 . S
C487 N490 1.329 . S
C487 H508 0.930 . S
C488 N486 1.334 . S
C488 C487 1.391 . S
C488 H495 0.930 . S
C489 N486 1.328 . S
C489 C491 1.392 . S
C489 H496 0.930 . S
N490 C487 1.329 . S
N490 C491 1.331 . S
C491 C489 1.392 . S
C491 N490 1.331 . S
O492 Zn485 1.975 . S
O492 C493 1.252 . S
C493 O492 1.252 . S
C493 O494 1.252 . S
O494 Zn476 1.975 . S
O494 C493 1.252 . S
H495 C488 0.930 . S
H496 C489 0.930 . S
C497 C498 1.392 . S
C497 N501 1.328 . S
C497 H503 0.930 . S
C498 C497 1.392 . S
C498 N502 1.331 . S
C499 C500 1.391 . S
C499 N502 1.329 . S
C499 H509 0.930 . S
C500 C499 1.391 . S
C500 N501 1.334 . S
C500 H507 0.930 . S
N501 Zn485 2.119 . S
N501 C497 1.328 . S
N501 C500 1.334 . S
N502 C498 1.331 . S
N502 C499 1.329 . S
H503 C497 0.930 . S
C504 O484 1.257 . S
C504 O505 1.244 . S
O505 C504 1.244 . S
O506 C482 1.257 . S
O506 Zn485 2.019 . S
H507 C500 0.930 . S
H508 C487 0.930 . S
H509 C499 0.930 . S
Zn510 N514 2.020 . S
Zn510 O518 2.019 . S
Zn510 N520 2.119 . S
Zn510 O528 1.975 . S
C511 N512 1.334 1_655 S
C511 N515 1.336 . S
N512 C511 1.334 1_455 S
N512 C513 1.334 . S
C513 N512 1.334 . S
C513 N514 1.336 . S
N514 Zn510 2.020 . S
N514 C513 1.336 . S
N514 N515 1.354 1_455 S
N515 C511 1.336 . S
N515 N514 1.354 1_655 S
N515 Zn519 2.020 . S
C516 O517 1.244 . S
C516 O540 1.257 . S
O517 C516 1.244 . S
O518 Zn510 2.019 . S
O518 C538 1.257 . S
Zn519 N515 2.020 . S
Zn519 O526 1.975 . S
Zn519 N535 2.119 . S
Zn519 O540 2.019 . S
N520 Zn510 2.119 . S
N520 C522 1.334 . S
N520 C523 1.328 . S
C521 C522 1.391 . S
C521 N524 1.329 . S
C521 H542 0.930 . S
C522 N520 1.334 . S
C522 C521 1.391 . S
C522 H529 0.930 . S
C523 N520 1.328 . S
C523 C525 1.392 . S
C523 H530 0.930 . S
N524 C521 1.329 . S
N524 C525 1.331 . S
C525 C523 1.392 . S
C525 N524 1.331 . S
O526 Zn519 1.975 . S
O526 C527 1.252 1_655 S
C527 O526 1.252 1_455 S
C527 O528 1.252 . S
O528 Zn510 1.975 . S
O528 C527 1.252 . S
H529 C522 0.930 . S
H530 C523 0.930 . S
C531 C532 1.392 . S
C531 N535 1.328 . S
C531 H537 0.930 . S
C532 C531 1.392 . S
C532 N536 1.331 . S
C533 C534 1.391 . S
C533 N536 1.329 . S
C533 H543 0.930 . S
C534 C533 1.391 . S
C534 N535 1.334 . S
C534 H541 0.930 . S
N535 Zn519 2.119 . S
N535 C531 1.328 . S
N535 C534 1.334 . S
N536 C532 1.331 . S
N536 C533 1.329 . S
H537 C531 0.930 . S
C538 O518 1.257 . S
C538 O539 1.244 . S
O539 C538 1.244 . S
O540 C516 1.257 . S
O540 Zn519 2.019 . S
H541 C534 0.930 . S
H542 C521 0.930 . S
H543 C533 0.930 . S
H544 C552 0.950 . S
H545 C557 0.950 . S
H546 C554 0.950 . S
H547 C556 0.950 . S
H548 C558 0.950 . S
H549 C560 0.950 . S
H550 C562 0.950 . S
H551 C563 0.950 . S
C552 H544 0.950 . S
C552 C553 1.386 1_655 S
C552 C554 1.391 . S
C553 C552 1.386 1_455 S
C553 C557 1.393 . S
C554 H546 0.950 . S
C554 C552 1.391 . S
C554 C555 1.400 1_655 S
C555 C554 1.400 1_455 S
C555 C556 1.398 . S
C555 C561 1.491 1_566 S
C556 H547 0.950 . S
C556 C555 1.398 . S
C556 C557 1.391 . S
C557 H545 0.950 . S
C557 C553 1.393 . S
C557 C556 1.391 . S
C558 H548 0.950 . S
C558 C559 1.386 . S
C558 C560 1.391 . S
C559 C558 1.386 . S
C559 C563 1.393 1_455 S
C560 H549 0.950 . S
C560 C558 1.391 . S
C560 C561 1.400 . S
C561 C555 1.491 1_544 S
C561 C560 1.400 . S
C561 C562 1.398 1_455 S
C562 H550 0.950 . S
C562 C561 1.398 1_655 S
C562 C563 1.391 . S
C563 H551 0.950 . S
C563 C559 1.393 1_655 S
C563 C562 1.391 . S
H564 C572 0.950 . S
H565 C577 0.950 . S
H566 C574 0.950 . S
H567 C576 0.950 . S
H568 C578 0.950 . S
H569 C580 0.950 . S
H570 C582 0.950 . S
H571 C583 0.950 . S
C572 H564 0.950 . S
C572 C573 1.386 . S
C572 C574 1.391 . S
C573 C572 1.386 . S
C573 C577 1.393 . S
C574 H566 0.950 . S
C574 C572 1.391 . S
C574 C575 1.400 . S
C575 C574 1.400 . S
C575 C576 1.398 . S
C575 C581 1.491 . S
C576 H567 0.950 . S
C576 C575 1.398 . S
C576 C577 1.391 . S
C577 H565 0.950 . S
C577 C573 1.393 . S
C577 C576 1.391 . S
C578 H568 0.950 . S
C578 C579 1.386 . S
C578 C580 1.391 . S
C579 C578 1.386 . S
C579 C583 1.393 . S
C580 H569 0.950 . S
C580 C578 1.391 . S
C580 C581 1.400 . S
C581 C575 1.491 . S
C581 C580 1.400 . S
C581 C582 1.398 . S
C582 H570 0.950 . S
C582 C581 1.398 . S
C582 C583 1.391 . S
C583 H571 0.950 . S
C583 C579 1.393 . S
C583 C582 1.391 . S
H584 C592 0.950 . S
H585 C597 0.950 1_565 S
H586 C594 0.950 . S
H587 C596 0.950 . S
H588 C598 0.950 . S
H589 C600 0.950 . S
H590 C602 0.950 . S
H591 C603 0.950 1_545 S
C592 H584 0.950 . S
C592 C593 1.386 . S
C592 C594 1.391 . S
C593 C592 1.386 . S
C593 C597 1.393 . S
C594 H586 0.950 . S
C594 C592 1.391 . S
C594 C595 1.400 . S
C595 C594 1.400 . S
C595 C596 1.398 1_545 S
C595 C601 1.491 1_545 S
C596 H587 0.950 . S
C596 C595 1.398 1_565 S
C596 C597 1.391 1_565 S
C597 H585 0.950 1_545 S
C597 C593 1.393 . S
C597 C596 1.391 1_545 S
C598 H588 0.950 . S
C598 C599 1.386 . S
C598 C600 1.391 . S
C599 C598 1.386 . S
C599 C603 1.393 . S
C600 H589 0.950 . S
C600 C598 1.391 . S
C600 C601 1.400 . S
C601 C595 1.491 1_565 S
C601 C600 1.400 . S
C601 C602 1.398 1_565 S
C602 H590 0.950 . S
C602 C601 1.398 1_545 S
C602 C603 1.391 1_545 S
C603 H591 0.950 1_565 S
C603 C599 1.393 . S
C603 C602 1.391 1_565 S
H604 C612 0.950 . S
H605 C617 0.950 . S
H606 C614 0.950 . S
H607 C616 0.950 . S
H608 C618 0.950 . S
H609 C620 0.950 . S
H610 C622 0.950 . S
H611 C623 0.950 . S
C612 H604 0.950 . S
C612 C613 1.386 . S
C612 C614 1.391 . S
C613 C612 1.386 . S
C613 C617 1.393 . S
C614 H606 0.950 . S
C614 C612 1.391 . S
C614 C615 1.400 . S
C615 C614 1.400 . S
C615 C616 1.398 . S
C615 C621 1.491 . S
C616 H607 0.950 . S
C616 C615 1.398 . S
C616 C617 1.391 . S
C617 H605 0.950 . S
C617 C613 1.393 . S
C617 C616 1.391 . S
C618 H608 0.950 . S
C618 C619 1.386 . S
C618 C620 1.391 . S
C619 C618 1.386 . S
C619 C623 1.393 . S
C620 H609 0.950 . S
C620 C618 1.391 . S
C620 C621 1.400 . S
C621 C615 1.491 . S
C621 C620 1.400 . S
C621 C622 1.398 . S
C622 H610 0.950 . S
C622 C621 1.398 . S
C622 C623 1.391 . S
C623 H611 0.950 . S
C623 C619 1.393 . S
C623 C622 1.391 . S
H624 C632 0.950 . S
H625 C637 0.950 . S
H626 C634 0.950 . S
H627 C636 0.950 . S
H628 C638 0.950 . S
H629 C640 0.950 . S
H630 C642 0.950 . S
H631 C643 0.950 . S
C632 H624 0.950 . S
C632 C633 1.386 . S
C632 C634 1.391 . S
C633 C632 1.386 . S
C633 C637 1.393 . S
C634 H626 0.950 . S
C634 C632 1.391 . S
C634 C635 1.400 . S
C635 C634 1.400 . S
C635 C636 1.398 . S
C635 C641 1.491 . S
C636 H627 0.950 . S
C636 C635 1.398 . S
C636 C637 1.391 . S
C637 H625 0.950 . S
C637 C633 1.393 . S
C637 C636 1.391 . S
C638 H628 0.950 . S
C638 C639 1.386 . S
C638 C640 1.391 . S
C639 C638 1.386 . S
C639 C643 1.393 . S
C640 H629 0.950 . S
C640 C638 1.391 . S
C640 C641 1.400 . S
C641 C635 1.491 . S
C641 C640 1.400 . S
C641 C642 1.398 . S
C642 H630 0.950 . S
C642 C641 1.398 . S
C642 C643 1.391 . S
C643 H631 0.950 . S
C643 C639 1.393 . S
C643 C642 1.391 . S
H644 C652 0.950 . S
H645 C657 0.950 . S
H646 C654 0.950 . S
H647 C656 0.950 . S
H648 C658 0.950 . S
H649 C660 0.950 . S
H650 C662 0.950 . S
H651 C663 0.950 . S
C652 H644 0.950 . S
C652 C653 1.386 . S
C652 C654 1.391 . S
C653 C652 1.386 . S
C653 C657 1.393 . S
C654 H646 0.950 . S
C654 C652 1.391 . S
C654 C655 1.400 . S
C655 C654 1.400 . S
C655 C656 1.398 . S
C655 C661 1.491 . S
C656 H647 0.950 . S
C656 C655 1.398 . S
C656 C657 1.391 . S
C657 H645 0.950 . S
C657 C653 1.393 . S
C657 C656 1.391 . S
C658 H648 0.950 . S
C658 C659 1.386 . S
C658 C660 1.391 . S
C659 C658 1.386 . S
C659 C663 1.393 . S
C660 H649 0.950 . S
C660 C658 1.391 . S
C660 C661 1.400 . S
C661 C655 1.491 . S
C661 C660 1.400 . S
C661 C662 1.398 . S
C662 H650 0.950 . S
C662 C661 1.398 . S
C662 C663 1.391 . S
C663 H651 0.950 . S
C663 C659 1.393 . S
C663 C662 1.391 . S
H664 C672 0.950 . S
H665 C677 0.950 . S
H666 C674 0.950 . S
H667 C676 0.950 . S
H668 C678 0.950 . S
H669 C680 0.950 . S
H670 C682 0.950 . S
H671 C683 0.950 . S
C672 H664 0.950 . S
C672 C673 1.386 . S
C672 C674 1.391 . S
C673 C672 1.386 . S
C673 C677 1.393 . S
C674 H666 0.950 . S
C674 C672 1.391 . S
C674 C675 1.400 . S
C675 C674 1.400 . S
C675 C676 1.398 . S
C675 C681 1.491 . S
C676 H667 0.950 . S
C676 C675 1.398 . S
C676 C677 1.391 . S
C677 H665 0.950 . S
C677 C673 1.393 . S
C677 C676 1.391 . S
C678 H668 0.950 . S
C678 C679 1.386 . S
C678 C680 1.391 . S
C679 C678 1.386 . S
C679 C683 1.393 . S
C680 H669 0.950 . S
C680 C678 1.391 . S
C680 C681 1.400 . S
C681 C675 1.491 . S
C681 C680 1.400 . S
C681 C682 1.398 . S
C682 H670 0.950 . S
C682 C681 1.398 . S
C682 C683 1.391 . S
C683 H671 0.950 . S
C683 C679 1.393 . S
C683 C682 1.391 . S
H684 C692 0.950 . S
H685 C697 0.950 . S
H686 C694 0.950 . S
H687 C696 0.950 . S
H688 C698 0.950 . S
H689 C700 0.950 . S
H690 C702 0.950 . S
H691 C703 0.950 . S
C692 H684 0.950 . S
C692 C693 1.386 1_655 S
C692 C694 1.391 . S
C693 C692 1.386 1_455 S
C693 C697 1.393 . S
C694 H686 0.950 . S
C694 C692 1.391 . S
C694 C695 1.400 1_655 S
C695 C694 1.400 1_455 S
C695 C696 1.398 . S
C695 C701 1.491 1_554 S
C696 H687 0.950 . S
C696 C695 1.398 . S
C696 C697 1.391 . S
C697 H685 0.950 . S
C697 C693 1.393 . S
C697 C696 1.391 . S
C698 H688 0.950 . S
C698 C699 1.386 . S
C698 C700 1.391 . S
C699 C698 1.386 . S
C699 C703 1.393 1_455 S
C700 H689 0.950 . S
C700 C698 1.391 . S
C700 C701 1.400 . S
C701 C695 1.491 1_556 S
C701 C700 1.400 . S
C701 C702 1.398 1_455 S
C702 H690 0.950 . S
C702 C701 1.398 1_655 S
C702 C703 1.391 . S
C703 H691 0.950 . S
C703 C699 1.393 1_655 S
C703 C702 1.391 . S
H704 C712 0.950 . S
H705 C717 0.950 . S
H706 C714 0.950 . S
H707 C716 0.950 . S
H708 C718 0.950 . S
H709 C720 0.950 . S
H710 C722 0.950 . S
H711 C723 0.950 . S
C712 H704 0.950 . S
C712 C713 1.386 . S
C712 C714 1.391 . S
C713 C712 1.386 . S
C713 C717 1.393 . S
C714 H706 0.950 . S
C714 C712 1.391 . S
C714 C715 1.400 . S
C715 C714 1.400 . S
C715 C716 1.398 . S
C715 C721 1.491 . S
C716 H707 0.950 . S
C716 C715 1.398 . S
C716 C717 1.391 . S
C717 H705 0.950 . S
C717 C713 1.393 . S
C717 C716 1.391 . S
C718 H708 0.950 . S
C718 C719 1.386 . S
C718 C720 1.391 . S
C719 C718 1.386 . S
C719 C723 1.393 . S
C720 H709 0.950 . S
C720 C718 1.391 . S
C720 C721 1.400 . S
C721 C715 1.491 . S
C721 C720 1.400 . S
C721 C722 1.398 . S
C722 H710 0.950 . S
C722 C721 1.398 . S
C722 C723 1.391 . S
C723 H711 0.950 . S
C723 C719 1.393 . S
C723 C722 1.391 . S
H724 C732 0.950 1_545 S
H725 C737 0.950 . S
H726 C734 0.950 . S
H727 C736 0.950 . S
H728 C738 0.950 . S
H729 C740 0.950 . S
H730 C742 0.950 . S
H731 C743 0.950 . S
C732 H724 0.950 1_565 S
C732 C733 1.386 . S
C732 C734 1.391 . S
C733 C732 1.386 . S
C733 C737 1.393 . S
C734 H726 0.950 . S
C734 C732 1.391 . S
C734 C735 1.400 . S
C735 C734 1.400 . S
C735 C736 1.398 . S
C735 C741 1.491 . S
C736 H727 0.950 . S
C736 C735 1.398 . S
C736 C737 1.391 . S
C737 H725 0.950 . S
C737 C733 1.393 . S
C737 C736 1.391 . S
C738 H728 0.950 . S
C738 C739 1.386 . S
C738 C740 1.391 . S
C739 C738 1.386 . S
C739 C743 1.393 . S
C740 H729 0.950 . S
C740 C738 1.391 . S
C740 C741 1.400 . S
C741 C735 1.491 . S
C741 C740 1.400 . S
C741 C742 1.398 . S
C742 H730 0.950 . S
C742 C741 1.398 . S
C742 C743 1.391 . S
C743 H731 0.950 . S
C743 C739 1.393 . S
C743 C742 1.391 . S
H744 C752 0.950 . S
H745 C757 0.950 . S
H746 C754 0.950 . S
H747 C756 0.950 . S
H748 C758 0.950 . S
H749 C760 0.950 . S
H750 C762 0.950 . S
H751 C763 0.950 . S
C752 H744 0.950 . S
C752 C753 1.386 . S
C752 C754 1.391 . S
C753 C752 1.386 . S
C753 C757 1.393 . S
C754 H746 0.950 . S
C754 C752 1.391 . S
C754 C755 1.400 . S
C755 C754 1.400 . S
C755 C756 1.398 . S
C755 C761 1.491 . S
C756 H747 0.950 . S
C756 C755 1.398 . S
C756 C757 1.391 . S
C757 H745 0.950 . S
C757 C753 1.393 . S
C757 C756 1.391 . S
C758 H748 0.950 . S
C758 C759 1.386 . S
C758 C760 1.391 . S
C759 C758 1.386 . S
C759 C763 1.393 . S
C760 H749 0.950 . S
C760 C758 1.391 . S
C760 C761 1.400 . S
C761 C755 1.491 . S
C761 C760 1.400 . S
C761 C762 1.398 . S
C762 H750 0.950 . S
C762 C761 1.398 . S
C762 C763 1.391 . S
C763 H751 0.950 . S
C763 C759 1.393 . S
C763 C762 1.391 . S
H764 C772 0.950 . S
H765 C777 0.950 . S
H766 C774 0.950 1_554 S
H767 C776 0.950 . S
H768 C778 0.950 . S
H769 C780 0.950 . S
H770 C782 0.950 . S
H771 C783 0.950 . S
C772 H764 0.950 . S
C772 C773 1.386 1_554 S
C772 C774 1.391 1_554 S
C773 C772 1.386 1_556 S
C773 C777 1.393 . S
C774 H766 0.950 1_556 S
C774 C772 1.391 1_556 S
C774 C775 1.400 . S
C775 C774 1.400 . S
C775 C776 1.398 . S
C775 C781 1.491 . S
C776 H767 0.950 . S
C776 C775 1.398 . S
C776 C777 1.391 . S
C777 H765 0.950 . S
C777 C773 1.393 . S
C777 C776 1.391 . S
C778 H768 0.950 . S
C778 C779 1.386 . S
C778 C780 1.391 . S
C779 C778 1.386 . S
C779 C783 1.393 . S
C780 H769 0.950 . S
C780 C778 1.391 . S
C780 C781 1.400 . S
C781 C775 1.491 . S
C781 C780 1.400 . S
C781 C782 1.398 . S
C782 H770 0.950 . S
C782 C781 1.398 . S
C782 C783 1.391 . S
C783 H771 0.950 . S
C783 C779 1.393 . S
C783 C782 1.391 . S
H784 C792 0.950 . S
H785 C797 0.950 . S
H786 C794 0.950 . S
H787 C796 0.950 . S
H788 C798 0.950 . S
H789 C800 0.950 . S
H790 C802 0.950 . S
H791 C803 0.950 . S
C792 H784 0.950 . S
C792 C793 1.386 . S
C792 C794 1.391 . S
C793 C792 1.386 . S
C793 C797 1.393 . S
C794 H786 0.950 . S
C794 C792 1.391 . S
C794 C795 1.400 . S
C795 C794 1.400 . S
C795 C796 1.398 . S
C795 C801 1.491 . S
C796 H787 0.950 . S
C796 C795 1.398 . S
C796 C797 1.391 . S
C797 H785 0.950 . S
C797 C793 1.393 . S
C797 C796 1.391 . S
C798 H788 0.950 . S
C798 C799 1.386 . S
C798 C800 1.391 . S
C799 C798 1.386 . S
C799 C803 1.393 . S
C800 H789 0.950 . S
C800 C798 1.391 . S
C800 C801 1.400 . S
C801 C795 1.491 . S
C801 C800 1.400 . S
C801 C802 1.398 . S
C802 H790 0.950 . S
C802 C801 1.398 . S
C802 C803 1.391 . S
C803 H791 0.950 . S
C803 C799 1.393 . S
C803 C802 1.391 . S
H804 C812 0.950 1_545 S
H805 C817 0.950 . S
H806 C814 0.950 . S
H807 C816 0.950 . S
H808 C818 0.950 . S
H809 C820 0.950 . S
H810 C822 0.950 1_556 S
H811 C823 0.950 . S
C812 H804 0.950 1_565 S
C812 C813 1.386 . S
C812 C814 1.391 . S
C813 C812 1.386 . S
C813 C817 1.393 . S
C814 H806 0.950 . S
C814 C812 1.391 . S
C814 C815 1.400 . S
C815 C814 1.400 . S
C815 C816 1.398 . S
C815 C821 1.491 . S
C816 H807 0.950 . S
C816 C815 1.398 . S
C816 C817 1.391 . S
C817 H805 0.950 . S
C817 C813 1.393 . S
C817 C816 1.391 . S
C818 H808 0.950 . S
C818 C819 1.386 . S
C818 C820 1.391 . S
C819 C818 1.386 . S
C819 C823 1.393 1_554 S
C820 H809 0.950 . S
C820 C818 1.391 . S
C820 C821 1.400 . S
C821 C815 1.491 . S
C821 C820 1.400 . S
C821 C822 1.398 . S
C822 H810 0.950 1_554 S
C822 C821 1.398 . S
C822 C823 1.391 1_554 S
C823 H811 0.950 . S
C823 C819 1.393 1_556 S
C823 C822 1.391 1_556 S
H824 C832 0.950 . S
H825 C837 0.950 . S
H826 C834 0.950 . S
H827 C836 0.950 . S
H828 C838 0.950 . S
H829 C840 0.950 . S
H830 C842 0.950 . S
H831 C843 0.950 . S
C832 H824 0.950 . S
C832 C833 1.386 . S
C832 C834 1.391 . S
C833 C832 1.386 . S
C833 C837 1.393 . S
C834 H826 0.950 . S
C834 C832 1.391 . S
C834 C835 1.400 . S
C835 C834 1.400 . S
C835 C836 1.398 . S
C835 C841 1.491 . S
C836 H827 0.950 . S
C836 C835 1.398 . S
C836 C837 1.391 . S
C837 H825 0.950 . S
C837 C833 1.393 . S
C837 C836 1.391 . S
C838 H828 0.950 . S
C838 C839 1.386 . S
C838 C840 1.391 . S
C839 C838 1.386 . S
C839 C843 1.393 . S
C840 H829 0.950 . S
C840 C838 1.391 . S
C840 C841 1.400 . S
C841 C835 1.491 . S
C841 C840 1.400 . S
C841 C842 1.398 . S
C842 H830 0.950 . S
C842 C841 1.398 . S
C842 C843 1.391 . S
C843 H831 0.950 . S
C843 C839 1.393 . S
C843 C842 1.391 . S
H844 C852 0.950 . S
H845 C857 0.950 . S
H846 C854 0.950 . S
H847 C856 0.950 . S
H848 C858 0.950 . S
H849 C860 0.950 . S
H850 C862 0.950 . S
H851 C863 0.950 . S
C852 H844 0.950 . S
C852 C853 1.386 . S
C852 C854 1.391 . S
C853 C852 1.386 . S
C853 C857 1.393 . S
C854 H846 0.950 . S
C854 C852 1.391 . S
C854 C855 1.400 . S
C855 C854 1.400 . S
C855 C856 1.398 . S
C855 C861 1.491 . S
C856 H847 0.950 . S
C856 C855 1.398 . S
C856 C857 1.391 . S
C857 H845 0.950 . S
C857 C853 1.393 . S
C857 C856 1.391 . S
C858 H848 0.950 . S
C858 C859 1.386 . S
C858 C860 1.391 . S
C859 C858 1.386 . S
C859 C863 1.393 . S
C860 H849 0.950 . S
C860 C858 1.391 . S
C860 C861 1.400 . S
C861 C855 1.491 . S
C861 C860 1.400 . S
C861 C862 1.398 . S
C862 H850 0.950 . S
C862 C861 1.398 . S
C862 C863 1.391 . S
C863 H851 0.950 . S
C863 C859 1.393 . S
C863 C862 1.391 . S
H864 C872 0.950 . S
H865 C877 0.950 . S
H866 C874 0.950 . S
H867 C876 0.950 . S
H868 C878 0.950 . S
H869 C880 0.950 . S
H870 C882 0.950 . S
H871 C883 0.950 . S
C872 H864 0.950 . S
C872 C873 1.386 . S
C872 C874 1.391 . S
C873 C872 1.386 . S
C873 C877 1.393 . S
C874 H866 0.950 . S
C874 C872 1.391 . S
C874 C875 1.400 . S
C875 C874 1.400 . S
C875 C876 1.398 . S
C875 C881 1.491 . S
C876 H867 0.950 . S
C876 C875 1.398 . S
C876 C877 1.391 . S
C877 H865 0.950 . S
C877 C873 1.393 . S
C877 C876 1.391 . S
C878 H868 0.950 . S
C878 C879 1.386 . S
C878 C880 1.391 . S
C879 C878 1.386 . S
C879 C883 1.393 . S
C880 H869 0.950 . S
C880 C878 1.391 . S
C880 C881 1.400 . S
C881 C875 1.491 . S
C881 C880 1.400 . S
C881 C882 1.398 . S
C882 H870 0.950 . S
C882 C881 1.398 . S
C882 C883 1.391 . S
C883 H871 0.950 . S
C883 C879 1.393 . S
C883 C882 1.391 . S
H884 C892 0.950 . S
H885 C897 0.950 . S
H886 C894 0.950 . S
H887 C896 0.950 . S
H888 C898 0.950 . S
H889 C900 0.950 . S
H890 C902 0.950 . S
H891 C903 0.950 1_565 S
C892 H884 0.950 . S
C892 C893 1.386 . S
C892 C894 1.391 . S
C893 C892 1.386 . S
C893 C897 1.393 . S
C894 H886 0.950 . S
C894 C892 1.391 . S
C894 C895 1.400 . S
C895 C894 1.400 . S
C895 C896 1.398 . S
C895 C901 1.491 . S
C896 H887 0.950 . S
C896 C895 1.398 . S
C896 C897 1.391 . S
C897 H885 0.950 . S
C897 C893 1.393 . S
C897 C896 1.391 . S
C898 H888 0.950 . S
C898 C899 1.386 . S
C898 C900 1.391 . S
C899 C898 1.386 . S
C899 C903 1.393 . S
C900 H889 0.950 . S
C900 C898 1.391 . S
C900 C901 1.400 . S
C901 C895 1.491 . S
C901 C900 1.400 . S
C901 C902 1.398 . S
C902 H890 0.950 . S
C902 C901 1.398 . S
C902 C903 1.391 . S
C903 H891 0.950 1_545 S
C903 C899 1.393 . S
C903 C902 1.391 . S
H904 C912 0.950 . S
H905 C917 0.950 . S
H906 C914 0.950 . S
H907 C916 0.950 . S
H908 C918 0.950 . S
H909 C920 0.950 . S
H910 C922 0.950 . S
H911 C923 0.950 . S
C912 H904 0.950 . S
C912 C913 1.386 . S
C912 C914 1.391 . S
C913 C912 1.386 . S
C913 C917 1.393 . S
C914 H906 0.950 . S
C914 C912 1.391 . S
C914 C915 1.400 . S
C915 C914 1.400 . S
C915 C916 1.398 . S
C915 C921 1.491 . S
C916 H907 0.950 . S
C916 C915 1.398 . S
C916 C917 1.391 . S
C917 H905 0.950 . S
C917 C913 1.393 . S
C917 C916 1.391 . S
C918 H908 0.950 . S
C918 C919 1.386 . S
C918 C920 1.391 . S
C919 C918 1.386 . S
C919 C923 1.393 . S
C920 H909 0.950 . S
C920 C918 1.391 . S
C920 C921 1.400 . S
C921 C915 1.491 . S
C921 C920 1.400 . S
C921 C922 1.398 . S
C922 H910 0.950 . S
C922 C921 1.398 . S
C922 C923 1.391 . S
C923 H911 0.950 . S
C923 C919 1.393 . S
C923 C922 1.391 . S
H924 C932 0.950 . S
H925 C937 0.950 1_556 S
H926 C934 0.950 . S
H927 C936 0.950 . S
H928 C938 0.950 1_545 S
H929 C940 0.950 . S
H930 C942 0.950 . S
H931 C943 0.950 . S
C932 H924 0.950 . S
C932 C933 1.386 . S
C932 C934 1.391 . S
C933 C932 1.386 . S
C933 C937 1.393 . S
C934 H926 0.950 . S
C934 C932 1.391 . S
C934 C935 1.400 . S
C935 C934 1.400 . S
C935 C936 1.398 . S
C935 C941 1.491 . S
C936 H927 0.950 . S
C936 C935 1.398 . S
C936 C937 1.391 . S
C937 H925 0.950 1_554 S
C937 C933 1.393 . S
C937 C936 1.391 . S
C938 H928 0.950 1_565 S
C938 C939 1.386 . S
C938 C940 1.391 . S
C939 C938 1.386 . S
C939 C943 1.393 . S
C940 H929 0.950 . S
C940 C938 1.391 . S
C940 C941 1.400 . S
C941 C935 1.491 . S
C941 C940 1.400 . S
C941 C942 1.398 . S
C942 H930 0.950 . S
C942 C941 1.398 . S
C942 C943 1.391 . S
C943 H931 0.950 . S
C943 C939 1.393 . S
C943 C942 1.391 . S
H944 C952 0.950 . S
H945 C957 0.950 . S
H946 C954 0.950 . S
H947 C956 0.950 . S
H948 C958 0.950 . S
H949 C960 0.950 . S
H950 C962 0.950 . S
H951 C963 0.950 . S
C952 H944 0.950 . S
C952 C953 1.386 . S
C952 C954 1.391 . S
C953 C952 1.386 . S
C953 C957 1.393 . S
C954 H946 0.950 . S
C954 C952 1.391 . S
C954 C955 1.400 . S
C955 C954 1.400 . S
C955 C956 1.398 . S
C955 C961 1.491 . S
C956 H947 0.950 . S
C956 C955 1.398 . S
C956 C957 1.391 . S
C957 H945 0.950 . S
C957 C953 1.393 . S
C957 C956 1.391 . S
C958 H948 0.950 . S
C958 C959 1.386 . S
C958 C960 1.391 . S
C959 C958 1.386 . S
C959 C963 1.393 . S
C960 H949 0.950 . S
C960 C958 1.391 . S
C960 C961 1.400 . S
C961 C955 1.491 . S
C961 C960 1.400 . S
C961 C962 1.398 . S
C962 H950 0.950 . S
C962 C961 1.398 . S
C962 C963 1.391 . S
C963 H951 0.950 . S
C963 C959 1.393 . S
C963 C962 1.391 . S
H964 C972 0.950 . S
H965 C977 0.950 . S
H966 C974 0.950 . S
H967 C976 0.950 . S
H968 C978 0.950 . S
H969 C980 0.950 1_554 S
H970 C982 0.950 . S
H971 C983 0.950 . S
C972 H964 0.950 . S
C972 C973 1.386 . S
C972 C974 1.391 . S
C973 C972 1.386 . S
C973 C977 1.393 . S
C974 H966 0.950 . S
C974 C972 1.391 . S
C974 C975 1.400 . S
C975 C974 1.400 . S
C975 C976 1.398 . S
C975 C981 1.491 . S
C976 H967 0.950 . S
C976 C975 1.398 . S
C976 C977 1.391 . S
C977 H965 0.950 . S
C977 C973 1.393 . S
C977 C976 1.391 . S
C978 H968 0.950 . S
C978 C979 1.386 1_554 S
C978 C980 1.391 1_554 S
C979 C978 1.386 1_556 S
C979 C983 1.393 . S
C980 H969 0.950 1_556 S
C980 C978 1.391 1_556 S
C980 C981 1.400 . S
C981 C975 1.491 . S
C981 C980 1.400 . S
C981 C982 1.398 . S
C982 H970 0.950 . S
C982 C981 1.398 . S
C982 C983 1.391 . S
C983 H971 0.950 . S
C983 C979 1.393 . S
C983 C982 1.391 . S
H984 C992 0.950 . S
H985 C997 0.950 . S
H986 C994 0.950 . S
H987 C996 0.950 . S
H988 C998 0.950 . S
H989 C1000 0.950 . S
H990 C1002 0.950 . S
H991 C1003 0.950 . S
C992 H984 0.950 . S
C992 C993 1.386 . S
C992 C994 1.391 . S
C993 C992 1.386 . S
C993 C997 1.393 . S
C994 H986 0.950 . S
C994 C992 1.391 . S
C994 C995 1.400 . S
C995 C994 1.400 . S
C995 C996 1.398 . S
C995 C1001 1.491 . S
C996 H987 0.950 . S
C996 C995 1.398 . S
C996 C997 1.391 . S
C997 H985 0.950 . S
C997 C993 1.393 . S
C997 C996 1.391 . S
C998 H988 0.950 . S
C998 C999 1.386 . S
C998 C1000 1.391 . S
C999 C998 1.386 . S
C999 C1003 1.393 . S
C1000 H989 0.950 . S
C1000 C998 1.391 . S
C1000 C1001 1.400 . S
C1001 C995 1.491 . S
C1001 C1000 1.400 . S
C1001 C1002 1.398 . S
C1002 H990 0.950 . S
C1002 C1001 1.398 . S
C1002 C1003 1.391 . S
C1003 H991 0.950 . S
C1003 C999 1.393 . S
C1003 C1002 1.391 . S
H1004 C1012 0.950 . S
H1005 C1017 0.950 . S
H1006 C1014 0.950 . S
H1007 C1016 0.950 . S
H1008 C1018 0.950 . S
H1009 C1020 0.950 . S
H1010 C1022 0.950 . S
H1011 C1023 0.950 . S
C1012 H1004 0.950 . S
C1012 C1013 1.386 . S
C1012 C1014 1.391 . S
C1013 C1012 1.386 . S
C1013 C1017 1.393 . S
C1014 H1006 0.950 . S
C1014 C1012 1.391 . S
C1014 C1015 1.400 . S
C1015 C1014 1.400 . S
C1015 C1016 1.398 . S
C1015 C1021 1.491 . S
C1016 H1007 0.950 . S
C1016 C1015 1.398 . S
C1016 C1017 1.391 . S
C1017 H1005 0.950 . S
C1017 C1013 1.393 . S
C1017 C1016 1.391 . S
C1018 H1008 0.950 . S
C1018 C1019 1.386 . S
C1018 C1020 1.391 . S
C1019 C1018 1.386 . S
C1019 C1023 1.393 . S
C1020 H1009 0.950 . S
C1020 C1018 1.391 . S
C1020 C1021 1.400 . S
C1021 C1015 1.491 . S
C1021 C1020 1.400 . S
C1021 C1022 1.398 . S
C1022 H1010 0.950 . S
C1022 C1021 1.398 . S
C1022 C1023 1.391 . S
C1023 H1011 0.950 . S
C1023 C1019 1.393 . S
C1023 C1022 1.391 . S
H1024 C1032 0.950 . S
H1025 C1037 0.950 . S
H1026 C1034 0.950 . S
H1027 C1036 0.950 . S
H1028 C1038 0.950 . S
H1029 C1040 0.950 . S
H1030 C1042 0.950 . S
H1031 C1043 0.950 . S
C1032 H1024 0.950 . S
C1032 C1033 1.386 . S
C1032 C1034 1.391 . S
C1033 C1032 1.386 . S
C1033 C1037 1.393 . S
C1034 H1026 0.950 . S
C1034 C1032 1.391 . S
C1034 C1035 1.400 . S
C1035 C1034 1.400 . S
C1035 C1036 1.398 . S
C1035 C1041 1.491 . S
C1036 H1027 0.950 . S
C1036 C1035 1.398 . S
C1036 C1037 1.391 . S
C1037 H1025 0.950 . S
C1037 C1033 1.393 . S
C1037 C1036 1.391 . S
C1038 H1028 0.950 . S
C1038 C1039 1.386 . S
C1038 C1040 1.391 . S
C1039 C1038 1.386 . S
C1039 C1043 1.393 . S
C1040 H1029 0.950 . S
C1040 C1038 1.391 . S
C1040 C1041 1.400 . S
C1041 C1035 1.491 . S
C1041 C1040 1.400 . S
C1041 C1042 1.398 . S
C1042 H1030 0.950 . S
C1042 C1041 1.398 . S
C1042 C1043 1.391 . S
C1043 H1031 0.950 . S
C1043 C1039 1.393 . S
C1043 C1042 1.391 . S
H1044 C1052 0.950 . S
H1045 C1057 0.950 . S
H1046 C1054 0.950 . S
H1047 C1056 0.950 . S
H1048 C1058 0.950 . S
H1049 C1060 0.950 1_554 S
H1050 C1062 0.950 . S
H1051 C1063 0.950 . S
C1052 H1044 0.950 . S
C1052 C1053 1.386 . S
C1052 C1054 1.391 . S
C1053 C1052 1.386 . S
C1053 C1057 1.393 . S
C1054 H1046 0.950 . S
C1054 C1052 1.391 . S
C1054 C1055 1.400 . S
C1055 C1054 1.400 . S
C1055 C1056 1.398 . S
C1055 C1061 1.491 . S
C1056 H1047 0.950 . S
C1056 C1055 1.398 . S
C1056 C1057 1.391 . S
C1057 H1045 0.950 . S
C1057 C1053 1.393 . S
C1057 C1056 1.391 . S
C1058 H1048 0.950 . S
C1058 C1059 1.383 1_554 S
C1058 C1060 1.391 1_554 S
C1059 C1058 1.383 1_556 S
C1059 C1063 1.401 . S
C1060 H1049 0.950 1_556 S
C1060 C1058 1.391 1_556 S
C1060 C1061 1.400 . S
C1061 C1055 1.491 . S
C1061 C1060 1.400 . S
C1061 C1062 1.398 . S
C1062 H1050 0.950 . S
C1062 C1061 1.398 . S
C1062 C1063 1.391 . S
C1063 H1051 0.950 . S
C1063 C1059 1.401 . S
C1063 C1062 1.391 . S
H1064 C1072 0.950 . S
H1065 C1077 0.950 . S
H1066 C1074 0.950 . S
H1067 C1076 0.950 . S
H1068 C1078 0.950 . S
H1069 C1080 0.950 . S
H1070 C1082 0.950 . S
H1071 C1083 0.950 . S
C1072 H1064 0.950 . S
C1072 C1073 1.386 . S
C1072 C1074 1.391 . S
C1073 C1072 1.386 . S
C1073 C1077 1.393 . S
C1074 H1066 0.950 . S
C1074 C1072 1.391 . S
C1074 C1075 1.400 . S
C1075 C1074 1.400 . S
C1075 C1076 1.398 . S
C1075 C1081 1.491 . S
C1076 H1067 0.950 . S
C1076 C1075 1.398 . S
C1076 C1077 1.391 . S
C1077 H1065 0.950 . S
C1077 C1073 1.393 . S
C1077 C1076 1.391 . S
C1078 H1068 0.950 . S
C1078 C1079 1.386 . S
C1078 C1080 1.391 . S
C1079 C1078 1.386 . S
C1079 C1083 1.393 . S
C1080 H1069 0.950 . S
C1080 C1078 1.391 . S
C1080 C1081 1.400 . S
C1081 C1075 1.491 . S
C1081 C1080 1.400 . S
C1081 C1082 1.398 . S
C1082 H1070 0.950 . S
C1082 C1081 1.398 . S
C1082 C1083 1.391 . S
C1083 H1071 0.950 . S
C1083 C1079 1.393 . S
C1083 C1082 1.391 . S
H1084 C1092 0.950 . S
H1085 C1097 0.950 . S
H1086 C1094 0.950 . S
H1087 C1096 0.950 . S
H1088 C1098 0.950 . S
H1089 C1100 0.950 . S
H1090 C1102 0.950 . S
H1091 C1103 0.950 . S
C1092 H1084 0.950 . S
C1092 C1093 1.386 . S
C1092 C1094 1.391 . S
C1093 C1092 1.386 . S
C1093 C1097 1.393 . S
C1094 H1086 0.950 . S
C1094 C1092 1.391 . S
C1094 C1095 1.400 . S
C1095 C1094 1.400 . S
C1095 C1096 1.398 . S
C1095 C1101 1.491 . S
C1096 H1087 0.950 . S
C1096 C1095 1.398 . S
C1096 C1097 1.391 . S
C1097 H1085 0.950 . S
C1097 C1093 1.393 . S
C1097 C1096 1.391 . S
C1098 H1088 0.950 . S
C1098 C1099 1.386 . S
C1098 C1100 1.391 . S
C1099 C1098 1.386 . S
C1099 C1103 1.393 . S
C1100 H1089 0.950 . S
C1100 C1098 1.391 . S
C1100 C1101 1.400 . S
C1101 C1095 1.491 . S
C1101 C1100 1.400 . S
C1101 C1102 1.398 . S
C1102 H1090 0.950 . S
C1102 C1101 1.398 . S
C1102 C1103 1.391 . S
C1103 H1091 0.950 . S
C1103 C1099 1.393 . S
C1103 C1102 1.391 . S
H1104 C1112 0.950 . S
H1105 C1117 0.950 . S
H1106 C1114 0.950 . S
H1107 C1116 0.950 . S
H1108 C1118 0.950 . S
H1109 C1120 0.950 . S
H1110 C1122 0.950 . S
H1111 C1123 0.950 . S
C1112 H1104 0.950 . S
C1112 C1113 1.386 . S
C1112 C1114 1.391 . S
C1113 C1112 1.386 . S
C1113 C1117 1.393 . S
C1114 H1106 0.950 . S
C1114 C1112 1.391 . S
C1114 C1115 1.400 . S
C1115 C1114 1.400 . S
C1115 C1116 1.398 . S
C1115 C1121 1.491 . S
C1116 H1107 0.950 . S
C1116 C1115 1.398 . S
C1116 C1117 1.391 . S
C1117 H1105 0.950 . S
C1117 C1113 1.393 . S
C1117 C1116 1.391 . S
C1118 H1108 0.950 . S
C1118 C1119 1.386 . S
C1118 C1120 1.391 . S
C1119 C1118 1.386 . S
C1119 C1123 1.393 . S
C1120 H1109 0.950 . S
C1120 C1118 1.391 . S
C1120 C1121 1.400 . S
C1121 C1115 1.491 . S
C1121 C1120 1.400 . S
C1121 C1122 1.398 . S
C1122 H1110 0.950 . S
C1122 C1121 1.398 . S
C1122 C1123 1.391 . S
C1123 H1111 0.950 . S
C1123 C1119 1.393 . S
C1123 C1122 1.391 . S
H1124 C1132 0.950 . S
H1125 C1137 0.950 . S
H1126 C1134 0.950 . S
H1127 C1136 0.950 . S
H1128 C1138 0.950 . S
H1129 C1140 0.950 . S
H1130 C1142 0.950 . S
H1131 C1143 0.950 . S
C1132 H1124 0.950 . S
C1132 C1133 1.386 . S
C1132 C1134 1.391 . S
C1133 C1132 1.386 . S
C1133 C1137 1.393 . S
C1134 H1126 0.950 . S
C1134 C1132 1.391 . S
C1134 C1135 1.400 . S
C1135 C1134 1.400 . S
C1135 C1136 1.398 . S
C1135 C1141 1.491 . S
C1136 H1127 0.950 . S
C1136 C1135 1.398 . S
C1136 C1137 1.391 . S
C1137 H1125 0.950 . S
C1137 C1133 1.393 . S
C1137 C1136 1.391 . S
C1138 H1128 0.950 . S
C1138 C1139 1.386 . S
C1138 C1140 1.391 . S
C1139 C1138 1.386 . S
C1139 C1143 1.393 . S
C1140 H1129 0.950 . S
C1140 C1138 1.391 . S
C1140 C1141 1.400 . S
C1141 C1135 1.491 . S
C1141 C1140 1.400 . S
C1141 C1142 1.398 . S
C1142 H1130 0.950 . S
C1142 C1141 1.398 . S
C1142 C1143 1.391 . S
C1143 H1131 0.950 . S
C1143 C1139 1.393 . S
C1143 C1142 1.391 . S
H1144 C1152 0.950 . S
H1145 C1157 0.950 . S
H1146 C1154 0.950 . S
H1147 C1156 0.950 . S
H1148 C1158 0.950 . S
H1149 C1160 0.950 . S
H1150 C1162 0.950 . S
H1151 C1163 0.950 . S
C1152 H1144 0.950 . S
C1152 C1153 1.386 . S
C1152 C1154 1.391 . S
C1153 C1152 1.386 . S
C1153 C1157 1.393 . S
C1154 H1146 0.950 . S
C1154 C1152 1.391 . S
C1154 C1155 1.400 . S
C1155 C1154 1.400 . S
C1155 C1156 1.398 . S
C1155 C1161 1.491 . S
C1156 H1147 0.950 . S
C1156 C1155 1.398 . S
C1156 C1157 1.391 . S
C1157 H1145 0.950 . S
C1157 C1153 1.393 . S
C1157 C1156 1.391 . S
C1158 H1148 0.950 . S
C1158 C1159 1.386 . S
C1158 C1160 1.391 . S
C1159 C1158 1.386 . S
C1159 C1163 1.393 . S
C1160 H1149 0.950 . S
C1160 C1158 1.391 . S
C1160 C1161 1.400 . S
C1161 C1155 1.491 . S
C1161 C1160 1.400 . S
C1161 C1162 1.398 . S
C1162 H1150 0.950 . S
C1162 C1161 1.398 . S
C1162 C1163 1.391 . S
C1163 H1151 0.950 . S
C1163 C1159 1.393 . S
C1163 C1162 1.391 . S
H1164 C1172 0.950 . S
H1165 C1177 0.950 . S
H1166 C1174 0.950 . S
H1167 C1176 0.950 . S
H1168 C1178 0.950 . S
H1169 C1180 0.950 . S
H1170 C1182 0.950 . S
H1171 C1183 0.950 . S
C1172 H1164 0.950 . S
C1172 C1173 1.386 . S
C1172 C1174 1.391 . S
C1173 C1172 1.386 . S
C1173 C1177 1.393 . S
C1174 H1166 0.950 . S
C1174 C1172 1.391 . S
C1174 C1175 1.400 . S
C1175 C1174 1.400 . S
C1175 C1176 1.398 . S
C1175 C1181 1.491 . S
C1176 H1167 0.950 . S
C1176 C1175 1.398 . S
C1176 C1177 1.391 . S
C1177 H1165 0.950 . S
C1177 C1173 1.393 . S
C1177 C1176 1.391 . S
C1178 H1168 0.950 . S
C1178 C1179 1.386 . S
C1178 C1180 1.391 . S
C1179 C1178 1.386 . S
C1179 C1183 1.393 1_554 S
C1180 H1169 0.950 . S
C1180 C1178 1.391 . S
C1180 C1181 1.400 . S
C1181 C1175 1.491 . S
C1181 C1180 1.400 . S
C1181 C1182 1.398 . S
C1182 H1170 0.950 . S
C1182 C1181 1.398 . S
C1182 C1183 1.391 1_554 S
C1183 H1171 0.950 . S
C1183 C1179 1.393 1_556 S
C1183 C1182 1.391 1_556 S
H1184 C1192 0.950 . S
H1185 C1197 0.950 . S
H1186 C1194 0.950 . S
H1187 C1196 0.950 . S
H1188 C1198 0.950 . S
H1189 C1200 0.950 . S
H1190 C1202 0.950 . S
H1191 C1203 0.950 . S
C1192 H1184 0.950 . S
C1192 C1193 1.386 . S
C1192 C1194 1.391 . S
C1193 C1192 1.386 . S
C1193 C1197 1.393 . S
C1194 H1186 0.950 . S
C1194 C1192 1.391 . S
C1194 C1195 1.400 . S
C1195 C1194 1.400 . S
C1195 C1196 1.398 . S
C1195 C1201 1.491 . S
C1196 H1187 0.950 . S
C1196 C1195 1.398 . S
C1196 C1197 1.391 . S
C1197 H1185 0.950 . S
C1197 C1193 1.393 . S
C1197 C1196 1.391 . S
C1198 H1188 0.950 . S
C1198 C1199 1.386 . S
C1198 C1200 1.391 . S
C1199 C1198 1.386 . S
C1199 C1203 1.393 . S
C1200 H1189 0.950 . S
C1200 C1198 1.391 . S
C1200 C1201 1.400 . S
C1201 C1195 1.491 . S
C1201 C1200 1.400 . S
C1201 C1202 1.398 . S
C1202 H1190 0.950 . S
C1202 C1201 1.398 . S
C1202 C1203 1.391 . S
C1203 H1191 0.950 . S
C1203 C1199 1.393 . S
C1203 C1202 1.391 . S
H1204 C1212 0.950 . S
H1205 C1217 0.950 . S
H1206 C1214 0.950 . S
H1207 C1216 0.950 . S
H1208 C1218 0.950 . S
H1209 C1220 0.950 . S
H1210 C1222 0.950 . S
H1211 C1223 0.950 1_556 S
C1212 H1204 0.950 . S
C1212 C1213 1.386 . S
C1212 C1214 1.391 . S
C1213 C1212 1.386 . S
C1213 C1217 1.393 . S
C1214 H1206 0.950 . S
C1214 C1212 1.391 . S
C1214 C1215 1.400 . S
C1215 C1214 1.400 . S
C1215 C1216 1.398 . S
C1215 C1221 1.491 . S
C1216 H1207 0.950 . S
C1216 C1215 1.398 . S
C1216 C1217 1.391 . S
C1217 H1205 0.950 . S
C1217 C1213 1.393 . S
C1217 C1216 1.391 . S
C1218 H1208 0.950 . S
C1218 C1219 1.386 . S
C1218 C1220 1.391 . S
C1219 C1218 1.386 . S
C1219 C1223 1.393 . S
C1220 H1209 0.950 . S
C1220 C1218 1.391 . S
C1220 C1221 1.400 . S
C1221 C1215 1.491 . S
C1221 C1220 1.400 . S
C1221 C1222 1.398 . S
C1222 H1210 0.950 . S
C1222 C1221 1.398 . S
C1222 C1223 1.391 . S
C1223 H1211 0.950 1_554 S
C1223 C1219 1.393 . S
C1223 C1222 1.391 . S
H1224 C1232 0.950 . S
H1225 C1237 0.950 . S
H1226 C1234 0.950 . S
H1227 C1236 0.950 . S
H1228 C1238 0.950 . S
H1229 C1240 0.950 . S
H1230 C1242 0.950 . S
H1231 C1243 0.950 . S
C1232 H1224 0.950 . S
C1232 C1233 1.386 . S
C1232 C1234 1.391 . S
C1233 C1232 1.386 . S
C1233 C1237 1.393 . S
C1234 H1226 0.950 . S
C1234 C1232 1.391 . S
C1234 C1235 1.400 . S
C1235 C1234 1.400 . S
C1235 C1236 1.398 . S
C1235 C1241 1.491 . S
C1236 H1227 0.950 . S
C1236 C1235 1.398 . S
C1236 C1237 1.391 . S
C1237 H1225 0.950 . S
C1237 C1233 1.393 . S
C1237 C1236 1.391 . S
C1238 H1228 0.950 . S
C1238 C1239 1.386 . S
C1238 C1240 1.391 . S
C1239 C1238 1.386 . S
C1239 C1243 1.393 . S
C1240 H1229 0.950 . S
C1240 C1238 1.391 . S
C1240 C1241 1.400 . S
C1241 C1235 1.491 . S
C1241 C1240 1.400 . S
C1241 C1242 1.398 . S
C1242 H1230 0.950 . S
C1242 C1241 1.398 . S
C1242 C1243 1.391 . S
C1243 H1231 0.950 . S
C1243 C1239 1.393 . S
C1243 C1242 1.391 . S
H1244 C1252 0.950 . S
H1245 C1257 0.950 . S
H1246 C1254 0.950 . S
H1247 C1256 0.950 . S
H1248 C1258 0.950 . S
H1249 C1260 0.950 . S
H1250 C1262 0.950 . S
H1251 C1263 0.950 . S
C1252 H1244 0.950 . S
C1252 C1253 1.386 . S
C1252 C1254 1.391 . S
C1253 C1252 1.386 . S
C1253 C1257 1.393 . S
C1254 H1246 0.950 . S
C1254 C1252 1.391 . S
C1254 C1255 1.400 . S
C1255 C1254 1.400 . S
C1255 C1256 1.398 . S
C1255 C1261 1.491 . S
C1256 H1247 0.950 . S
C1256 C1255 1.398 . S
C1256 C1257 1.391 . S
C1257 H1245 0.950 . S
C1257 C1253 1.393 . S
C1257 C1256 1.391 . S
C1258 H1248 0.950 . S
C1258 C1259 1.386 . S
C1258 C1260 1.391 . S
C1259 C1258 1.386 . S
C1259 C1263 1.393 . S
C1260 H1249 0.950 . S
C1260 C1258 1.391 . S
C1260 C1261 1.400 . S
C1261 C1255 1.491 . S
C1261 C1260 1.400 . S
C1261 C1262 1.398 . S
C1262 H1250 0.950 . S
C1262 C1261 1.398 . S
C1262 C1263 1.391 . S
C1263 H1251 0.950 . S
C1263 C1259 1.393 . S
C1263 C1262 1.391 . S
H1264 C1272 0.950 . S
H1265 C1277 0.950 . S
H1266 C1274 0.950 . S
H1267 C1276 0.950 . S
H1268 C1278 0.950 . S
H1269 C1280 0.950 . S
H1270 C1282 0.950 . S
H1271 C1283 0.950 . S
C1272 H1264 0.950 . S
C1272 C1273 1.386 . S
C1272 C1274 1.391 . S
C1273 C1272 1.386 . S
C1273 C1277 1.393 . S
C1274 H1266 0.950 . S
C1274 C1272 1.391 . S
C1274 C1275 1.400 . S
C1275 C1274 1.400 . S
C1275 C1276 1.398 . S
C1275 C1281 1.491 . S
C1276 H1267 0.950 . S
C1276 C1275 1.398 . S
C1276 C1277 1.391 . S
C1277 H1265 0.950 . S
C1277 C1273 1.393 . S
C1277 C1276 1.391 . S
C1278 H1268 0.950 . S
C1278 C1279 1.386 . S
C1278 C1280 1.391 . S
C1279 C1278 1.386 . S
C1279 C1283 1.393 . S
C1280 H1269 0.950 . S
C1280 C1278 1.391 . S
C1280 C1281 1.400 . S
C1281 C1275 1.491 . S
C1281 C1280 1.400 . S
C1281 C1282 1.398 . S
C1282 H1270 0.950 . S
C1282 C1281 1.398 . S
C1282 C1283 1.391 . S
C1283 H1271 0.950 . S
C1283 C1279 1.393 . S
C1283 C1282 1.391 . S
H1284 C1292 0.950 . S
H1285 C1297 0.950 . S
H1286 C1294 0.950 . S
H1287 C1296 0.950 . S
H1288 C1298 0.950 . S
H1289 C1300 0.950 . S
H1290 C1302 0.950 . S
H1291 C1303 0.950 . S
C1292 H1284 0.950 . S
C1292 C1293 1.386 . S
C1292 C1294 1.391 . S
C1293 C1292 1.386 . S
C1293 C1297 1.393 . S
C1294 H1286 0.950 . S
C1294 C1292 1.391 . S
C1294 C1295 1.400 . S
C1295 C1294 1.400 . S
C1295 C1296 1.398 . S
C1295 C1301 1.491 . S
C1296 H1287 0.950 . S
C1296 C1295 1.398 . S
C1296 C1297 1.391 . S
C1297 H1285 0.950 . S
C1297 C1293 1.393 . S
C1297 C1296 1.391 . S
C1298 H1288 0.950 . S
C1298 C1299 1.386 . S
C1298 C1300 1.391 . S
C1299 C1298 1.386 . S
C1299 C1303 1.393 . S
C1300 H1289 0.950 . S
C1300 C1298 1.391 . S
C1300 C1301 1.400 . S
C1301 C1295 1.491 . S
C1301 C1300 1.400 . S
C1301 C1302 1.398 . S
C1302 H1290 0.950 . S
C1302 C1301 1.398 . S
C1302 C1303 1.391 . S
C1303 H1291 0.950 . S
C1303 C1299 1.393 . S
C1303 C1302 1.391 . S
H1304 C1312 0.950 . S
H1305 C1317 0.950 . S
H1306 C1314 0.950 . S
H1307 C1316 0.950 . S
H1308 C1318 0.950 . S
H1309 C1320 0.950 . S
H1310 C1322 0.950 . S
H1311 C1323 0.950 . S
C1312 H1304 0.950 . S
C1312 C1313 1.386 . S
C1312 C1314 1.391 . S
C1313 C1312 1.386 . S
C1313 C1317 1.393 . S
C1314 H1306 0.950 . S
C1314 C1312 1.391 . S
C1314 C1315 1.400 . S
C1315 C1314 1.400 . S
C1315 C1316 1.398 . S
C1315 C1321 1.491 . S
C1316 H1307 0.950 . S
C1316 C1315 1.398 . S
C1316 C1317 1.391 . S
C1317 H1305 0.950 . S
C1317 C1313 1.393 . S
C1317 C1316 1.391 . S
C1318 H1308 0.950 . S
C1318 C1319 1.386 . S
C1318 C1320 1.391 . S
C1319 C1318 1.386 . S
C1319 C1323 1.393 . S
C1320 H1309 0.950 . S
C1320 C1318 1.391 . S
C1320 C1321 1.400 . S
C1321 C1315 1.491 . S
C1321 C1320 1.400 . S
C1321 C1322 1.398 . S
C1322 H1310 0.950 . S
C1322 C1321 1.398 . S
C1322 C1323 1.391 . S
C1323 H1311 0.950 . S
C1323 C1319 1.393 . S
C1323 C1322 1.391 . S
H1324 C1332 0.950 . S
H1325 C1337 0.950 . S
H1326 C1334 0.950 . S
H1327 C1336 0.950 . S
H1328 C1338 0.950 . S
H1329 C1340 0.950 . S
H1330 C1342 0.950 . S
H1331 C1343 0.950 . S
C1332 H1324 0.950 . S
C1332 C1333 1.386 . S
C1332 C1334 1.391 . S
C1333 C1332 1.386 . S
C1333 C1337 1.393 . S
C1334 H1326 0.950 . S
C1334 C1332 1.391 . S
C1334 C1335 1.400 . S
C1335 C1334 1.400 . S
C1335 C1336 1.398 . S
C1335 C1341 1.491 . S
C1336 H1327 0.950 . S
C1336 C1335 1.398 . S
C1336 C1337 1.391 . S
C1337 H1325 0.950 . S
C1337 C1333 1.393 . S
C1337 C1336 1.391 . S
C1338 H1328 0.950 . S
C1338 C1339 1.386 . S
C1338 C1340 1.391 . S
C1339 C1338 1.386 . S
C1339 C1343 1.393 . S
C1340 H1329 0.950 . S
C1340 C1338 1.391 . S
C1340 C1341 1.400 . S
C1341 C1335 1.491 . S
C1341 C1340 1.400 . S
C1341 C1342 1.398 . S
C1342 H1330 0.950 . S
C1342 C1341 1.398 . S
C1342 C1343 1.391 . S
C1343 H1331 0.950 . S
C1343 C1339 1.393 . S
C1343 C1342 1.391 . S
H1344 C1352 0.950 . S
H1345 C1357 0.950 . S
H1346 C1354 0.950 . S
H1347 C1356 0.950 . S
H1348 C1358 0.950 . S
H1349 C1360 0.950 . S
H1350 C1362 0.950 . S
H1351 C1363 0.950 . S
C1352 H1344 0.950 . S
C1352 C1353 1.386 . S
C1352 C1354 1.391 . S
C1353 C1352 1.386 . S
C1353 C1357 1.393 . S
C1354 H1346 0.950 . S
C1354 C1352 1.391 . S
C1354 C1355 1.400 . S
C1355 C1354 1.400 . S
C1355 C1356 1.398 . S
C1355 C1361 1.491 . S
C1356 H1347 0.950 . S
C1356 C1355 1.398 . S
C1356 C1357 1.391 . S
C1357 H1345 0.950 . S
C1357 C1353 1.393 . S
C1357 C1356 1.391 . S
C1358 H1348 0.950 . S
C1358 C1359 1.386 . S
C1358 C1360 1.391 . S
C1359 C1358 1.386 . S
C1359 C1363 1.393 . S
C1360 H1349 0.950 . S
C1360 C1358 1.391 . S
C1360 C1361 1.400 . S
C1361 C1355 1.491 . S
C1361 C1360 1.400 . S
C1361 C1362 1.398 . S
C1362 H1350 0.950 . S
C1362 C1361 1.398 . S
C1362 C1363 1.391 . S
C1363 H1351 0.950 . S
C1363 C1359 1.393 . S
C1363 C1362 1.391 . S
H1364 C1372 0.950 . S
H1365 C1377 0.950 . S
H1366 C1374 0.950 . S
H1367 C1376 0.950 . S
H1368 C1378 0.950 . S
H1369 C1380 0.950 . S
H1370 C1382 0.950 . S
H1371 C1383 0.950 . S
C1372 H1364 0.950 . S
C1372 C1373 1.386 . S
C1372 C1374 1.391 . S
C1373 C1372 1.386 . S
C1373 C1377 1.393 . S
C1374 H1366 0.950 . S
C1374 C1372 1.391 . S
C1374 C1375 1.400 . S
C1375 C1374 1.400 . S
C1375 C1376 1.398 . S
C1375 C1381 1.491 . S
C1376 H1367 0.950 . S
C1376 C1375 1.398 . S
C1376 C1377 1.391 . S
C1377 H1365 0.950 . S
C1377 C1373 1.393 . S
C1377 C1376 1.391 . S
C1378 H1368 0.950 . S
C1378 C1379 1.386 . S
C1378 C1380 1.391 . S
C1379 C1378 1.386 . S
C1379 C1383 1.393 . S
C1380 H1369 0.950 . S
C1380 C1378 1.391 . S
C1380 C1381 1.400 . S
C1381 C1375 1.491 . S
C1381 C1380 1.400 . S
C1381 C1382 1.398 . S
C1382 H1370 0.950 . S
C1382 C1381 1.398 . S
C1382 C1383 1.391 . S
C1383 H1371 0.950 . S
C1383 C1379 1.393 . S
C1383 C1382 1.391 . S
H1384 C1392 0.950 . S
H1385 C1397 0.950 . S
H1386 C1394 0.950 . S
H1387 C1396 0.950 . S
H1388 C1398 0.950 . S
H1389 C1400 0.950 . S
H1390 C1402 0.950 . S
H1391 C1403 0.950 . S
C1392 H1384 0.950 . S
C1392 C1393 1.386 . S
C1392 C1394 1.391 . S
C1393 C1392 1.386 . S
C1393 C1397 1.393 . S
C1394 H1386 0.950 . S
C1394 C1392 1.391 . S
C1394 C1395 1.400 . S
C1395 C1394 1.400 . S
C1395 C1396 1.398 . S
C1395 C1401 1.491 . S
C1396 H1387 0.950 . S
C1396 C1395 1.398 . S
C1396 C1397 1.391 . S
C1397 H1385 0.950 . S
C1397 C1393 1.393 . S
C1397 C1396 1.391 . S
C1398 H1388 0.950 . S
C1398 C1399 1.386 . S
C1398 C1400 1.391 . S
C1399 C1398 1.386 . S
C1399 C1403 1.393 . S
C1400 H1389 0.950 . S
C1400 C1398 1.391 . S
C1400 C1401 1.400 . S
C1401 C1395 1.491 . S
C1401 C1400 1.400 . S
C1401 C1402 1.398 . S
C1402 H1390 0.950 . S
C1402 C1401 1.398 . S
C1402 C1403 1.391 . S
C1403 H1391 0.950 . S
C1403 C1399 1.393 . S
C1403 C1402 1.391 . S
H1404 C1412 0.950 . S
H1405 C1417 0.950 . S
H1406 C1414 0.950 . S
H1407 C1416 0.950 . S
H1408 C1418 0.950 . S
H1409 C1420 0.950 . S
H1410 C1422 0.950 . S
H1411 C1423 0.950 . S
C1412 H1404 0.950 . S
C1412 C1413 1.386 . S
C1412 C1414 1.391 . S
C1413 C1412 1.386 . S
C1413 C1417 1.393 . S
C1414 H1406 0.950 . S
C1414 C1412 1.391 . S
C1414 C1415 1.400 . S
C1415 C1414 1.400 . S
C1415 C1416 1.398 . S
C1415 C1421 1.491 . S
C1416 H1407 0.950 . S
C1416 C1415 1.398 . S
C1416 C1417 1.391 . S
C1417 H1405 0.950 . S
C1417 C1413 1.393 . S
C1417 C1416 1.391 . S
C1418 H1408 0.950 . S
C1418 C1419 1.386 . S
C1418 C1420 1.391 . S
C1419 C1418 1.386 . S
C1419 C1423 1.393 . S
C1420 H1409 0.950 . S
C1420 C1418 1.391 . S
C1420 C1421 1.400 . S
C1421 C1415 1.491 . S
C1421 C1420 1.400 . S
C1421 C1422 1.398 . S
C1422 H1410 0.950 . S
C1422 C1421 1.398 . S
C1422 C1423 1.391 . S
C1423 H1411 0.950 . S
C1423 C1419 1.393 . S
C1423 C1422 1.391 . S
H1424 C1432 0.950 . S
H1425 C1437 0.950 . S
H1426 C1434 0.950 . S
H1427 C1436 0.950 . S
H1428 C1438 0.950 . S
H1429 C1440 0.950 . S
H1430 C1442 0.950 . S
H1431 C1443 0.950 . S
C1432 H1424 0.950 . S
C1432 C1433 1.386 . S
C1432 C1434 1.391 . S
C1433 C1432 1.386 . S
C1433 C1437 1.393 . S
C1434 H1426 0.950 . S
C1434 C1432 1.391 . S
C1434 C1435 1.400 . S
C1435 C1434 1.400 . S
C1435 C1436 1.398 . S
C1435 C1441 1.491 . S
C1436 H1427 0.950 . S
C1436 C1435 1.398 . S
C1436 C1437 1.391 . S
C1437 H1425 0.950 . S
C1437 C1433 1.393 . S
C1437 C1436 1.391 . S
C1438 H1428 0.950 . S
C1438 C1439 1.386 . S
C1438 C1440 1.391 . S
C1439 C1438 1.386 . S
C1439 C1443 1.393 . S
C1440 H1429 0.950 . S
C1440 C1438 1.391 . S
C1440 C1441 1.400 . S
C1441 C1435 1.491 . S
C1441 C1440 1.400 . S
C1441 C1442 1.398 . S
C1442 H1430 0.950 . S
C1442 C1441 1.398 . S
C1442 C1443 1.391 . S
C1443 H1431 0.950 . S
C1443 C1439 1.393 . S
C1443 C1442 1.391 . S
H1444 C1452 0.950 . S
H1445 C1457 0.950 . S
H1446 C1454 0.950 . S
H1447 C1456 0.950 . S
H1448 C1458 0.950 . S
H1449 C1460 0.950 . S
H1450 C1462 0.950 . S
H1451 C1463 0.950 . S
C1452 H1444 0.950 . S
C1452 C1453 1.386 . S
C1452 C1454 1.391 . S
C1453 C1452 1.386 . S
C1453 C1457 1.393 . S
C1454 H1446 0.950 . S
C1454 C1452 1.391 . S
C1454 C1455 1.400 . S
C1455 C1454 1.400 . S
C1455 C1456 1.398 . S
C1455 C1461 1.491 . S
C1456 H1447 0.950 . S
C1456 C1455 1.398 . S
C1456 C1457 1.391 . S
C1457 H1445 0.950 . S
C1457 C1453 1.393 . S
C1457 C1456 1.391 . S
C1458 H1448 0.950 . S
C1458 C1459 1.386 . S
C1458 C1460 1.391 . S
C1459 C1458 1.386 . S
C1459 C1463 1.393 . S
C1460 H1449 0.950 . S
C1460 C1458 1.391 . S
C1460 C1461 1.400 . S
C1461 C1455 1.491 . S
C1461 C1460 1.400 . S
C1461 C1462 1.398 . S
C1462 H1450 0.950 . S
C1462 C1461 1.398 . S
C1462 C1463 1.391 . S
C1463 H1451 0.950 . S
C1463 C1459 1.393 . S
C1463 C1462 1.391 . S
H1464 C1472 0.950 . S
H1465 C1477 0.950 . S
H1466 C1474 0.950 . S
H1467 C1476 0.950 . S
H1468 C1478 0.950 . S
H1469 C1480 0.950 . S
H1470 C1482 0.950 . S
H1471 C1483 0.950 . S
C1472 H1464 0.950 . S
C1472 C1473 1.386 . S
C1472 C1474 1.391 . S
C1473 C1472 1.386 . S
C1473 C1477 1.393 . S
C1474 H1466 0.950 . S
C1474 C1472 1.391 . S
C1474 C1475 1.400 . S
C1475 C1474 1.400 . S
C1475 C1476 1.398 . S
C1475 C1481 1.491 . S
C1476 H1467 0.950 . S
C1476 C1475 1.398 . S
C1476 C1477 1.391 . S
C1477 H1465 0.950 . S
C1477 C1473 1.393 . S
C1477 C1476 1.391 . S
C1478 H1468 0.950 . S
C1478 C1479 1.386 . S
C1478 C1480 1.391 . S
C1479 C1478 1.386 . S
C1479 C1483 1.393 . S
C1480 H1469 0.950 . S
C1480 C1478 1.391 . S
C1480 C1481 1.400 . S
C1481 C1475 1.491 . S
C1481 C1480 1.400 . S
C1481 C1482 1.398 . S
C1482 H1470 0.950 . S
C1482 C1481 1.398 . S
C1482 C1483 1.391 . S
C1483 H1471 0.950 . S
C1483 C1479 1.393 . S
C1483 C1482 1.391 . S
H1484 C1492 0.950 . S
H1485 C1497 0.950 . S
H1486 C1494 0.950 . S
H1487 C1496 0.950 . S
H1488 C1498 0.950 . S
H1489 C1500 0.950 . S
H1490 C1502 0.950 . S
H1491 C1503 0.950 . S
C1492 H1484 0.950 . S
C1492 C1493 1.386 . S
C1492 C1494 1.391 . S
C1493 C1492 1.386 . S
C1493 C1497 1.393 . S
C1494 H1486 0.950 . S
C1494 C1492 1.391 . S
C1494 C1495 1.400 . S
C1495 C1494 1.400 . S
C1495 C1496 1.398 . S
C1495 C1501 1.491 . S
C1496 H1487 0.950 . S
C1496 C1495 1.398 . S
C1496 C1497 1.391 . S
C1497 H1485 0.950 . S
C1497 C1493 1.393 . S
C1497 C1496 1.391 . S
C1498 H1488 0.950 . S
C1498 C1499 1.386 . S
C1498 C1500 1.391 . S
C1499 C1498 1.386 . S
C1499 C1503 1.393 . S
C1500 H1489 0.950 . S
C1500 C1498 1.391 . S
C1500 C1501 1.400 . S
C1501 C1495 1.491 . S
C1501 C1500 1.400 . S
C1501 C1502 1.398 . S
C1502 H1490 0.950 . S
C1502 C1501 1.398 . S
C1502 C1503 1.391 . S
C1503 H1491 0.950 . S
C1503 C1499 1.393 . S
C1503 C1502 1.391 . S
H1504 C1512 0.950 . S
H1505 C1517 0.950 . S
H1506 C1514 0.950 . S
H1507 C1516 0.950 . S
H1508 C1518 0.950 . S
H1509 C1520 0.950 . S
H1510 C1522 0.950 . S
H1511 C1523 0.950 . S
C1512 H1504 0.950 . S
C1512 C1513 1.386 . S
C1512 C1514 1.391 . S
C1513 C1512 1.386 . S
C1513 C1517 1.393 . S
C1514 H1506 0.950 . S
C1514 C1512 1.391 . S
C1514 C1515 1.400 . S
C1515 C1514 1.400 . S
C1515 C1516 1.398 . S
C1515 C1521 1.491 . S
C1516 H1507 0.950 . S
C1516 C1515 1.398 . S
C1516 C1517 1.391 . S
C1517 H1505 0.950 . S
C1517 C1513 1.393 . S
C1517 C1516 1.391 . S
C1518 H1508 0.950 . S
C1518 C1519 1.386 . S
C1518 C1520 1.391 . S
C1519 C1518 1.386 . S
C1519 C1523 1.393 . S
C1520 H1509 0.950 . S
C1520 C1518 1.391 . S
C1520 C1521 1.400 . S
C1521 C1515 1.491 . S
C1521 C1520 1.400 . S
C1521 C1522 1.398 . S
C1522 H1510 0.950 . S
C1522 C1521 1.398 . S
C1522 C1523 1.391 . S
C1523 H1511 0.950 . S
C1523 C1519 1.393 . S
C1523 C1522 1.391 . S
H1524 C1532 0.950 . S
H1525 C1537 0.950 . S
H1526 C1534 0.950 . S
H1527 C1536 0.950 . S
H1528 C1538 0.950 . S
H1529 C1540 0.950 . S
H1530 C1542 0.950 . S
H1531 C1543 0.950 . S
C1532 H1524 0.950 . S
C1532 C1533 1.386 . S
C1532 C1534 1.391 . S
C1533 C1532 1.386 . S
C1533 C1537 1.393 . S
C1534 H1526 0.950 . S
C1534 C1532 1.391 . S
C1534 C1535 1.400 . S
C1535 C1534 1.400 . S
C1535 C1536 1.398 . S
C1535 C1541 1.491 . S
C1536 H1527 0.950 . S
C1536 C1535 1.398 . S
C1536 C1537 1.391 . S
C1537 H1525 0.950 . S
C1537 C1533 1.393 . S
C1537 C1536 1.391 . S
C1538 H1528 0.950 . S
C1538 C1539 1.386 . S
C1538 C1540 1.391 . S
C1539 C1538 1.386 . S
C1539 C1543 1.393 . S
C1540 H1529 0.950 . S
C1540 C1538 1.391 . S
C1540 C1541 1.400 . S
C1541 C1535 1.491 . S
C1541 C1540 1.400 . S
C1541 C1542 1.398 . S
C1542 H1530 0.950 . S
C1542 C1541 1.398 . S
C1542 C1543 1.391 . S
C1543 H1531 0.950 . S
C1543 C1539 1.393 . S
C1543 C1542 1.391 . S
H1544 C1552 0.950 . S
H1545 C1557 0.950 . S
H1546 C1554 0.950 . S
H1547 C1556 0.950 . S
H1548 C1558 0.950 . S
H1549 C1560 0.950 . S
H1550 C1562 0.950 . S
H1551 C1563 0.950 . S
C1552 H1544 0.950 . S
C1552 C1553 1.386 . S
C1552 C1554 1.391 . S
C1553 C1552 1.386 . S
C1553 C1557 1.393 . S
C1554 H1546 0.950 . S
C1554 C1552 1.391 . S
C1554 C1555 1.400 . S
C1555 C1554 1.400 . S
C1555 C1556 1.398 . S
C1555 C1561 1.491 . S
C1556 H1547 0.950 . S
C1556 C1555 1.398 . S
C1556 C1557 1.391 . S
C1557 H1545 0.950 . S
C1557 C1553 1.393 . S
C1557 C1556 1.391 . S
C1558 H1548 0.950 . S
C1558 C1559 1.386 . S
C1558 C1560 1.391 . S
C1559 C1558 1.386 . S
C1559 C1563 1.393 . S
C1560 H1549 0.950 . S
C1560 C1558 1.391 . S
C1560 C1561 1.400 . S
C1561 C1555 1.491 . S
C1561 C1560 1.400 . S
C1561 C1562 1.398 . S
C1562 H1550 0.950 . S
C1562 C1561 1.398 . S
C1562 C1563 1.391 . S
C1563 H1551 0.950 . S
C1563 C1559 1.393 . S
C1563 C1562 1.391 . S
H1564 C1572 0.950 . S
H1565 C1577 0.950 . S
H1566 C1574 0.950 . S
H1567 C1576 0.950 . S
H1568 C1578 0.950 . S
H1569 C1580 0.950 . S
H1570 C1582 0.950 . S
H1571 C1583 0.950 . S
C1572 H1564 0.950 . S
C1572 C1573 1.386 . S
C1572 C1574 1.391 . S
C1573 C1572 1.386 . S
C1573 C1577 1.393 . S
C1574 H1566 0.950 . S
C1574 C1572 1.391 . S
C1574 C1575 1.400 . S
C1575 C1574 1.400 . S
C1575 C1576 1.398 . S
C1575 C1581 1.491 . S
C1576 H1567 0.950 . S
C1576 C1575 1.398 . S
C1576 C1577 1.391 . S
C1577 H1565 0.950 . S
C1577 C1573 1.393 . S
C1577 C1576 1.391 . S
C1578 H1568 0.950 . S
C1578 C1579 1.386 . S
C1578 C1580 1.391 . S
C1579 C1578 1.386 . S
C1579 C1583 1.393 . S
C1580 H1569 0.950 . S
C1580 C1578 1.391 . S
C1580 C1581 1.400 . S
C1581 C1575 1.491 . S
C1581 C1580 1.400 . S
C1581 C1582 1.398 . S
C1582 H1570 0.950 . S
C1582 C1581 1.398 . S
C1582 C1583 1.391 . S
C1583 H1571 0.950 . S
C1583 C1579 1.393 . S
C1583 C1582 1.391 . S
H1584 C1592 0.950 . S
H1585 C1597 0.950 . S
H1586 C1594 0.950 . S
H1587 C1596 0.950 . S
H1588 C1598 0.950 . S
H1589 C1600 0.950 . S
H1590 C1602 0.950 . S
H1591 C1603 0.950 . S
C1592 H1584 0.950 . S
C1592 C1593 1.386 . S
C1592 C1594 1.391 . S
C1593 C1592 1.386 . S
C1593 C1597 1.393 . S
C1594 H1586 0.950 . S
C1594 C1592 1.391 . S
C1594 C1595 1.400 . S
C1595 C1594 1.400 . S
C1595 C1596 1.398 . S
C1595 C1601 1.491 . S
C1596 H1587 0.950 . S
C1596 C1595 1.398 . S
C1596 C1597 1.391 . S
C1597 H1585 0.950 . S
C1597 C1593 1.393 . S
C1597 C1596 1.391 . S
C1598 H1588 0.950 . S
C1598 C1599 1.386 . S
C1598 C1600 1.391 . S
C1599 C1598 1.386 . S
C1599 C1603 1.393 . S
C1600 H1589 0.950 . S
C1600 C1598 1.391 . S
C1600 C1601 1.400 . S
C1601 C1595 1.491 . S
C1601 C1600 1.400 . S
C1601 C1602 1.398 . S
C1602 H1590 0.950 . S
C1602 C1601 1.398 . S
C1602 C1603 1.391 . S
C1603 H1591 0.950 . S
C1603 C1599 1.393 . S
C1603 C1602 1.391 . S
H1604 C1612 0.950 . S
H1605 C1617 0.950 . S
H1606 C1614 0.950 . S
H1607 C1616 0.950 . S
H1608 C1618 0.950 . S
H1609 C1620 0.950 . S
H1610 C1622 0.950 . S
H1611 C1623 0.950 . S
C1612 H1604 0.950 . S
C1612 C1613 1.386 . S
C1612 C1614 1.391 . S
C1613 C1612 1.386 . S
C1613 C1617 1.393 . S
C1614 H1606 0.950 . S
C1614 C1612 1.391 . S
C1614 C1615 1.400 . S
C1615 C1614 1.400 . S
C1615 C1616 1.398 . S
C1615 C1621 1.491 . S
C1616 H1607 0.950 . S
C1616 C1615 1.398 . S
C1616 C1617 1.391 . S
C1617 H1605 0.950 . S
C1617 C1613 1.393 . S
C1617 C1616 1.391 . S
C1618 H1608 0.950 . S
C1618 C1619 1.386 . S
C1618 C1620 1.391 . S
C1619 C1618 1.386 . S
C1619 C1623 1.393 . S
C1620 H1609 0.950 . S
C1620 C1618 1.391 . S
C1620 C1621 1.400 . S
C1621 C1615 1.491 . S
C1621 C1620 1.400 . S
C1621 C1622 1.398 . S
C1622 H1610 0.950 . S
C1622 C1621 1.398 . S
C1622 C1623 1.391 . S
C1623 H1611 0.950 . S
C1623 C1619 1.393 . S
C1623 C1622 1.391 . S
H1624 C1632 0.950 . S
H1625 C1637 0.950 . S
H1626 C1634 0.950 . S
H1627 C1636 0.950 . S
H1628 C1638 0.950 . S
H1629 C1640 0.950 . S
H1630 C1642 0.950 . S
H1631 C1643 0.950 . S
C1632 H1624 0.950 . S
C1632 C1633 1.386 . S
C1632 C1634 1.391 . S
C1633 C1632 1.386 . S
C1633 C1637 1.393 . S
C1634 H1626 0.950 . S
C1634 C1632 1.391 . S
C1634 C1635 1.400 . S
C1635 C1634 1.400 . S
C1635 C1636 1.398 . S
C1635 C1641 1.491 . S
C1636 H1627 0.950 . S
C1636 C1635 1.398 . S
C1636 C1637 1.391 . S
C1637 H1625 0.950 . S
C1637 C1633 1.393 . S
C1637 C1636 1.391 . S
C1638 H1628 0.950 . S
C1638 C1639 1.386 . S
C1638 C1640 1.391 . S
C1639 C1638 1.386 . S
C1639 C1643 1.393 . S
C1640 H1629 0.950 . S
C1640 C1638 1.391 . S
C1640 C1641 1.400 . S
C1641 C1635 1.491 . S
C1641 C1640 1.400 . S
C1641 C1642 1.398 . S
C1642 H1630 0.950 . S
C1642 C1641 1.398 . S
C1642 C1643 1.391 . S
C1643 H1631 0.950 . S
C1643 C1639 1.393 . S
C1643 C1642 1.391 . S
H1644 C1652 0.950 . S
H1645 C1657 0.950 . S
H1646 C1654 0.950 . S
H1647 C1656 0.950 . S
H1648 C1658 0.950 . S
H1649 C1660 0.950 . S
H1650 C1662 0.950 . S
H1651 C1663 0.950 . S
C1652 H1644 0.950 . S
C1652 C1653 1.386 . S
C1652 C1654 1.391 . S
C1653 C1652 1.386 . S
C1653 C1657 1.393 . S
C1654 H1646 0.950 . S
C1654 C1652 1.391 . S
C1654 C1655 1.400 . S
C1655 C1654 1.400 . S
C1655 C1656 1.398 . S
C1655 C1661 1.491 . S
C1656 H1647 0.950 . S
C1656 C1655 1.398 . S
C1656 C1657 1.391 . S
C1657 H1645 0.950 . S
C1657 C1653 1.393 . S
C1657 C1656 1.391 . S
C1658 H1648 0.950 . S
C1658 C1659 1.386 . S
C1658 C1660 1.391 . S
C1659 C1658 1.386 . S
C1659 C1663 1.393 . S
C1660 H1649 0.950 . S
C1660 C1658 1.391 . S
C1660 C1661 1.400 . S
C1661 C1655 1.491 . S
C1661 C1660 1.400 . S
C1661 C1662 1.398 . S
C1662 H1650 0.950 . S
C1662 C1661 1.398 . S
C1662 C1663 1.391 . S
C1663 H1651 0.950 . S
C1663 C1659 1.393 . S
C1663 C1662 1.391 . S
C553 C153 1.526 . S
C559 C17 1.526 . S
C573 C51 1.420 . S
C579 C187 1.418 . S
C593 C221 1.467 . S
C599 C85 1.467 . S
C613 C255 1.442 . S
C619 C119 1.439 . S
C633 C357 1.431 . S
C639 C289 1.427 . S
C653 C323 1.452 . S
C659 C391 1.448 . S
C673 C493 1.473 . S
C679 C425 1.473 . S
C693 C459 1.498 . S
C699 C527 1.498 . S
C713 C105 1.492 . S
C719 C15 1.500 . S
C733 C3 1.486 1_565 S
C739 C56 1.465 . S
C753 C35 1.484 . S
C759 C83 1.458 . S
C773 C117 1.447 1_556 S
C779 C71 1.433 1_545 S
C793 C171 1.493 . S
C799 C151 1.492 . S
C813 C207 1.432 1_565 S
C819 C192 1.439 1_554 S
C833 C241 1.479 . S
C839 C219 1.464 . S
C853 C139 1.494 1_545 S
C859 C253 1.460 . S
C873 C142 2.112 . S
C879 C307 1.975 . S
C893 C300 2.110 . S
C899 C137 1.979 1_545 S
C913 C210 2.079 . S
C919 C275 1.971 . S
C933 C312 2.055 1_554 S
C939 C205 1.926 1_565 S
C953 C343 1.987 . S
C959 C6 2.120 . S
C973 C69 1.922 1_545 S
C979 C368 2.061 1_556 S
C993 C375 1.945 . S
C999 C74 2.086 . S
C1013 C1 1.965 1_565 S
C1019 C380 2.108 . S
C1033 C377 1.461 . S
C1039 C423 1.471 . S
C1053 C411 1.463 . S
C1059 C362 1.425 1_556 S
C1073 C457 1.473 . S
C1079 C341 1.517 . S
C1093 C389 1.463 . S
C1099 C445 1.488 . S
C1113 C498 1.472 . S
C1119 C273 1.463 . S
C1133 C511 1.507 . S
C1139 C294 1.466 . S
C1153 C309 1.520 . S
C1159 C532 1.493 . S
C1173 C477 1.433 . S
C1179 C321 1.435 1_554 S
C1193 C239 1.954 . S
C1199 C504 2.089 . S
C1213 C479 1.944 . S
C1219 C198 2.053 1_554 S
C1233 C538 2.112 . S
C1239 C173 2.003 . S
C1253 C244 2.096 . S
C1259 C513 1.987 . S
C1273 C37 1.971 . S
C1279 C414 2.078 . S
C1293 C62 2.095 . S
C1299 C443 1.969 . S
C1313 C448 2.112 . S
C1319 C103 2.003 . S
C1333 C409 1.933 . S
C1339 C108 2.069 1_556 S
C1353 C176 1.615 . S
C1359 C28 1.607 . S
C1373 C232 1.630 . S
C1379 C40 1.638 . S
C1393 C266 1.633 . S
C1399 C96 1.626 . S
C1413 C130 1.603 . S
C1419 C164 1.603 . S
C1433 C158 0.595 . S
C1439 C355 0.553 . S
C1453 C287 0.523 . S
C1459 C90 0.598 . S
C1473 C396 0.589 . S
C1479 C226 0.519 . S
C1493 C22 0.549 . S
C1499 C328 0.596 . S
C1513 C436 1.630 . S
C1519 C278 1.638 . S
C1533 C346 1.614 . S
C1539 C516 1.604 . S
C1553 C470 1.611 . S
C1559 C334 1.614 . S
C1573 C482 1.639 . S
C1579 C402 1.634 . S
C1593 C49 0.606 . S
C1599 C491 0.563 . S
C1613 C464 0.531 . S
C1619 C185 0.529 . S
C1633 C124 0.597 . S
C1639 C525 0.527 . S
C1653 C260 0.531 . S
C1659 C430 0.552 . S
