# Generated by pormake.
# Topology smm, (6)-cn, num edge types: 1
# Building blocks:
#     Node 0, Type 0, BuildingBlock: GEDQOX_clean_sbu_0, # of connection points: 6
#     Node 1, Type 0, BuildingBlock: GEDQOX_clean_sbu_0, # of connection points: 6
#     Node 2, Type 0, BuildingBlock: GEDQOX_clean_sbu_0, # of connection points: 6
#     Node 3, Type 0, BuildingBlock: GEDQOX_clean_sbu_0, # of connection points: 6
#     Node 4, Type 0, BuildingBlock: GEDQOX_clean_sbu_0, # of connection points: 6
#     Node 5, Type 0, BuildingBlock: GEDQOX_clean_sbu_0, # of connection points: 6
#     Node 6, Type 0, BuildingBlock: GEDQOX_clean_sbu_0, # of connection points: 6
#     Node 7, Type 0, BuildingBlock: GEDQOX_clean_sbu_0, # of connection points: 6
#     Node 8, Type 0, BuildingBlock: GEDQOX_clean_sbu_0, # of connection points: 6
#     Edge 9, Type (0, 0), BuildingBlock: MIFKUJ_clean_linker_0, # of connection points: 2
#     Edge 10, Type (0, 0), BuildingBlock: MIFKUJ_clean_linker_0, # of connection points: 2
#     Edge 11, Type (0, 0), BuildingBlock: MIFKUJ_clean_linker_0, # of connection points: 2
#     Edge 12, Type (0, 0), BuildingBlock: MIFKUJ_clean_linker_0, # of connection points: 2
#     Edge 13, Type (0, 0), BuildingBlock: MIFKUJ_clean_linker_0, # of connection points: 2
#     Edge 14, Type (0, 0), BuildingBlock: MIFKUJ_clean_linker_0, # of connection points: 2
#     Edge 15, Type (0, 0), BuildingBlock: MIFKUJ_clean_linker_0, # of connection points: 2
#     Edge 16, Type (0, 0), BuildingBlock: MIFKUJ_clean_linker_0, # of connection points: 2
#     Edge 17, Type (0, 0), BuildingBlock: MIFKUJ_clean_linker_0, # of connection points: 2
#     Edge 18, Type (0, 0), BuildingBlock: MIFKUJ_clean_linker_0, # of connection points: 2
#     Edge 19, Type (0, 0), BuildingBlock: MIFKUJ_clean_linker_0, # of connection points: 2
#     Edge 20, Type (0, 0), BuildingBlock: MIFKUJ_clean_linker_0, # of connection points: 2
#     Edge 21, Type (0, 0), BuildingBlock: MIFKUJ_clean_linker_0, # of connection points: 2
#     Edge 22, Type (0, 0), BuildingBlock: MIFKUJ_clean_linker_0, # of connection points: 2
#     Edge 23, Type (0, 0), BuildingBlock: MIFKUJ_clean_linker_0, # of connection points: 2
#     Edge 24, Type (0, 0), BuildingBlock: MIFKUJ_clean_linker_0, # of connection points: 2
#     Edge 25, Type (0, 0), BuildingBlock: MIFKUJ_clean_linker_0, # of connection points: 2
#     Edge 26, Type (0, 0), BuildingBlock: MIFKUJ_clean_linker_0, # of connection points: 2
#     Edge 27, Type (0, 0), BuildingBlock: MIFKUJ_clean_linker_0, # of connection points: 2
#     Edge 28, Type (0, 0), BuildingBlock: MIFKUJ_clean_linker_0, # of connection points: 2
#     Edge 29, Type (0, 0), BuildingBlock: MIFKUJ_clean_linker_0, # of connection points: 2
#     Edge 30, Type (0, 0), BuildingBlock: MIFKUJ_clean_linker_0, # of connection points: 2
#     Edge 31, Type (0, 0), BuildingBlock: MIFKUJ_clean_linker_0, # of connection points: 2
#     Edge 32, Type (0, 0), BuildingBlock: MIFKUJ_clean_linker_0, # of connection points: 2
#     Edge 33, Type (0, 0), BuildingBlock: MIFKUJ_clean_linker_0, # of connection points: 2
#     Edge 34, Type (0, 0), BuildingBlock: MIFKUJ_clean_linker_0, # of connection points: 2
#     Edge 35, Type (0, 0), BuildingBlock: MIFKUJ_clean_linker_0, # of connection points: 2
# Relax obj value: 0.060
# Max RMSD: 0.138
# Mean RMSD: 0.138
data_MOF--net-smm--node1-GEDQOX_clean_sbu_0--edge1-MIFKUJ_clean_linker_0
_symmetry_space_group_name_H-M    P1
_symmetry_Int_Tables_number       1
_symmetry_cell_setting            triclinic
loop_
_symmetry_equiv_pos_as_xyz
'x, y, z'
_cell_length_a     86.411248
_cell_length_b     86.20111
_cell_length_c     18.584232
_cell_angle_alpha  89.931811
_cell_angle_beta   89.973695
_cell_angle_gamma 120.00666
loop_
_atom_site_label
_atom_site_type_symbol
_atom_site_fract_x
_atom_site_fract_y
_atom_site_fract_z
_atom_type_partial_charge
Nd0 Nd 0.06147 0.22374 0.01471 0.0
Nd1 Nd 1.02729 0.18766 -0.0108 0.0
C2 C 0.0869 0.25697 0.046 0.0
C3 C 0.09442 0.27532 0.01496 0.0
C4 C 0.09575 0.28936 0.05775 0.0
C5 C 0.10348 0.30688 0.03049 0.0
C6 C 0.11024 0.31088 0.95972 0.0
C7 C 0.10873 0.29674 0.91667 0.0
C8 C 0.10089 0.2792 0.9438 0.0
C9 C 0.05351 0.21421 0.87315 0.0
C10 C 1.02225 0.22188 0.00944 0.0
C11 C 1.00182 0.15578 0.94315 0.0
C12 C 0.99438 0.13612 0.95063 0.0
C13 C 1.00503 0.12805 0.94625 0.0
C14 C 0.99725 0.10932 0.95181 0.0
C15 C 0.97866 0.09826 0.96213 0.0
C16 C 0.96815 0.1065 0.96666 0.0
C17 C 0.9759 0.12513 0.96095 0.0
C18 C 0.0337 0.19803 0.12923 0.0
C19 C 0.066 0.18888 0.01559 0.0
O20 O 0.07081 0.24951 0.07351 0.0
O21 O 0.08976 0.24554 0.01073 0.0
O22 O 0.06949 0.22204 0.89914 0.0
O23 O 0.04233 0.21225 0.92059 0.0
O24 O 0.03872 0.22997 0.03526 0.0
O25 O 1.01557 0.20632 0.97566 0.0
O26 O 1.0171 0.16536 0.90971 0.0
O27 O 0.99996 0.16411 -0.00178 0.0
O28 O 1.0178 0.18888 0.10239 0.0
O29 O 0.04553 0.1998 0.0851 0.0
O30 O 0.04986 0.18044 -0.01386 0.0
O31 O 0.07253 0.20514 0.04299 0.0
H32 H 0.09096 0.28681 0.1128 0.0
H33 H 0.10454 0.31739 0.06555 0.0
H34 H 0.11351 0.2992 0.86164 0.0
H35 H 0.1 0.26872 0.90902 0.0
H36 H 1.01934 0.13617 0.93849 0.0
H37 H 1.00583 0.10354 0.94877 0.0
H38 H 0.9538 0.09853 0.9733 0.0
H39 H 0.96735 0.13097 0.96403 0.0
Nd40 Nd 0.85609 0.86282 0.01122 0.0
Nd41 Nd 0.89468 0.86883 0.00751 0.0
C42 C 0.82464 0.86131 0.02181 0.0
C43 C 0.80573 0.8496 -4e-05 0.0
C44 C 0.79232 0.85203 0.03128 0.0
C45 C 0.7745 0.84188 0.00846 0.0
C46 C 0.76959 0.829 0.95352 0.0
C47 C 0.7831 0.8264 0.92306 0.0
C48 C 0.80094 0.83659 0.94596 0.0
C49 C 0.86619 0.85415 0.88463 0.0
C50 C 0.86016 0.82821 0.04311 0.0
C51 C 0.92602 0.87075 0.98482 0.0
C52 C 0.94573 0.88345 -0.01388 0.0
C53 C 0.95461 0.89532 0.92875 0.0
C54 C 0.97332 0.90619 0.92859 0.0
C55 C 0.98372 0.90545 -0.01445 0.0
C56 C 0.97475 0.89372 0.04321 0.0
C57 C 0.95608 0.88286 0.04334 0.0
C58 C 0.88485 0.87737 0.13487 0.0
C59 C 0.89073 0.90383 -0.00836 0.0
O60 O 0.83102 0.85537 0.07194 0.0
O61 O 0.83614 0.86962 0.97004 0.0
O62 O 0.85028 0.84507 0.91164 0.0
O63 O 0.87579 0.86764 0.92263 0.0
O64 O 0.85004 0.8355 0.0535 0.0
O65 O 0.87675 0.8377 0.01775 0.0
O66 O 0.91649 0.87232 0.93348 0.0
O67 O 0.9176 0.86626 0.04658 0.0
O68 O 0.90088 0.88626 0.1083 0.0
O69 O 0.87505 0.86403 0.09629 0.0
O70 O 0.90048 0.89665 0.97227 0.0
O71 O 0.87437 0.89387 0.01838 0.0
H72 H 0.79567 0.86197 0.07304 0.0
H73 H 0.76454 0.84412 0.03423 0.0
H74 H 0.77997 0.81678 0.8802 0.0
H75 H 0.81106 0.83449 0.9207 0.0
H76 H 0.94715 0.89601 0.88324 0.0
H77 H 0.97967 0.91484 0.88273 0.0
H78 H 0.98215 0.89289 0.08861 0.0
H79 H 0.94975 0.87378 0.0881 0.0
Nd80 Nd 0.21876 1.02044 -0.00666 0.0
Nd81 Nd 0.21263 0.05254 0.00066 0.0
C82 C 0.22041 0.99045 -0.00974 0.0
C83 C 0.23165 0.98338 0.95945 0.0
C84 C 0.24596 0.98412 -0.0015 0.0
C85 C 0.25586 0.97659 0.97069 0.0
C86 C 0.25166 0.96798 0.90322 0.0
C87 C 0.23739 0.96734 0.86415 0.0
C88 C 0.22752 0.97486 0.89189 0.0
C89 C 0.22808 0.04129 0.87142 0.0
C90 C 0.2529 0.05819 0.03781 0.0
C91 C 0.21073 0.08226 -0.01337 0.0
C92 C 0.19789 0.08902 -0.00905 0.0
C93 C 0.18341 0.08328 0.94314 0.0
C94 C 0.17216 0.09069 0.94612 0.0
C95 C 0.1751 0.10405 -0.00315 0.0
C96 C 0.18945 0.10953 0.04519 0.0
C97 C 0.20069 0.10216 0.04208 0.0
C98 C 0.2035 0.03227 0.1237 0.0
C99 C 0.17768 1.01385 0.97954 0.0
O100 O 0.22698 1.0021 0.04283 0.0
O101 O 0.21098 0.99402 0.94515 0.0
O102 O 0.23719 0.03439 0.89726 0.0
O103 O 0.21432 0.03667 0.90883 0.0
O104 O 0.24555 0.04061 0.04272 0.0
O105 O 0.24363 0.06572 0.01454 0.0
O106 O 0.20949 0.072 0.93236 0.0
O107 O 0.2149 0.07738 0.04688 0.0
O108 O 0.19471 0.03972 0.09898 0.0
O109 O 0.21703 0.03636 0.08533 0.0
O110 O 0.18473 0.03105 0.96435 0.0
O111 O 0.18779 1.00723 0.00196 0.0
H112 H 0.2494 0.99033 0.05111 0.0
H113 H 0.26656 0.97716 0.00299 0.0
H114 H 0.23385 0.96108 0.81167 0.0
H115 H 0.2165 0.97385 0.86041 0.0
H116 H 0.18088 0.07323 0.90279 0.0
H117 H 0.16141 0.08622 0.90744 0.0
H118 H 0.19202 0.11951 0.0859 0.0
H119 H 0.21174 0.1069 0.07952 0.0
Nd120 Nd 0.72652 0.55676 0.34905 0.0
Nd121 Nd 0.69397 0.51817 0.34805 0.0
C122 C 0.75652 0.5883 0.35677 0.0
C123 C 0.76377 0.60714 0.33312 0.0
C124 C 0.7794 0.62076 0.36492 0.0
C125 C 0.78713 0.63852 0.34063 0.0
C126 C 0.77942 0.64315 0.28369 0.0
C127 C 0.76354 0.62944 0.25271 0.0
C128 C 0.75582 0.61165 0.27708 0.0
C129 C 0.7072 0.54651 0.22378 0.0
C130 C 0.6882 0.5527 0.38496 0.0
C131 C 0.66417 0.48701 0.32705 0.0
C132 C 0.65697 0.4674 0.33116 0.0
C133 C 0.66808 0.46004 0.34207 0.0
C134 C 0.66073 0.44136 0.34702 0.0
C135 C 0.6421 0.42966 0.34149 0.0
C136 C 0.63114 0.43723 0.33018 0.0
C137 C 0.63848 0.45583 0.32515 0.0
C138 C 0.7127 0.5282 0.47459 0.0
C139 C 0.73278 0.52199 0.33178 0.0
O140 O 0.74431 0.58221 0.40731 0.0
O141 O 0.75318 0.5765 0.30619 0.0
O142 O 0.71414 0.56245 0.25068 0.0
O143 O 0.71121 0.5369 0.26135 0.0
O144 O 0.70559 0.56261 0.39584 0.0
O145 O 0.68105 0.53631 0.35739 0.0
O146 O 0.67571 0.49588 0.27597 0.0
O147 O 0.6682 0.49574 0.38798 0.0
O148 O 0.70526 0.51205 0.44892 0.0
O149 O 0.70917 0.53799 0.43575 0.0
O150 O 0.71574 0.51199 0.3145 0.0
O151 O 0.73934 0.53861 0.35586 0.0
H152 H 0.78578 0.61762 0.40824 0.0
H153 H 0.79914 0.64865 0.36684 0.0
H154 H 0.75726 0.63236 0.20839 0.0
H155 H 0.74378 0.60137 0.25144 0.0
H156 H 0.68239 0.46872 0.34719 0.0
H157 H 0.66961 0.43611 0.35641 0.0
H158 H 0.61682 0.42876 0.32436 0.0
H159 H 0.62966 0.4612 0.31659 0.0
Nd160 Nd 0.52162 0.19627 0.35918 0.0
Nd161 Nd 0.55801 0.19779 0.33052 0.0
C162 C 0.48877 0.1891 0.39417 0.0
C163 C 0.47022 0.178 0.36689 0.0
C164 C 0.45625 0.17928 0.39939 0.0
C165 C 0.43877 0.16966 0.37225 0.0
C166 C 0.43477 0.15846 0.31164 0.0
C167 C 0.44885 0.15706 0.27969 0.0
C168 C 0.46637 0.16674 0.3069 0.0
C169 C 0.53188 0.19947 0.21887 0.0
C170 C 0.52321 0.15847 0.34931 0.0
C171 C 0.58959 0.20392 0.28164 0.0
C172 C 0.60913 0.21674 0.28045 0.0
C173 C 0.62018 0.21243 0.24008 0.0
C174 C 0.63883 0.22327 0.24247 0.0
C175 C 0.647 0.2388 0.28542 0.0
C176 C 0.63583 0.24336 0.32459 0.0
C177 C 0.61709 0.23239 0.3224 0.0
C178 C 0.54724 0.19319 0.46985 0.0
C179 C 0.55704 0.23543 0.36187 0.0
O180 O 0.49647 0.18075 0.42235 0.0
O181 O 0.49967 0.20257 0.35363 0.0
O182 O 0.52358 0.2071 0.24569 0.0
O183 O 0.53347 0.18951 0.26402 0.0
O184 O 0.51482 0.16682 0.37272 0.0
O185 O 0.53926 0.16731 0.31913 0.0
O186 O 0.579 0.20777 0.24482 0.0
O187 O 0.58267 0.19618 0.34312 0.0
O188 O 0.55644 0.18644 0.44302 0.0
O189 O 0.54573 0.20351 0.42628 0.0
O190 O 0.56527 0.2277 0.33043 0.0
O191 O 0.54083 0.22571 0.38996 0.0
H192 H 0.45888 0.18789 0.44563 0.0
H193 H 0.42836 0.17093 0.39923 0.0
H194 H 0.44644 0.14878 0.23256 0.0
H195 H 0.47695 0.16562 0.28052 0.0
H196 H 0.61437 0.20041 0.20746 0.0
H197 H 0.64686 0.21944 0.21055 0.0
H198 H 0.64158 0.25512 0.3586 0.0
H199 H 0.60885 0.23594 0.35446 0.0
Nd200 Nd 0.88219 0.35108 0.3279 0.0
Nd201 Nd 0.87669 0.38355 0.33243 0.0
C202 C 0.88343 0.32085 0.32959 0.0
C203 C 0.89533 0.31413 0.30494 0.0
C204 C 0.89154 0.29688 0.32479 0.0
C205 C 0.902 0.28983 0.29893 0.0
C206 C 0.91655 0.29986 0.25235 0.0
C207 C 0.92048 0.31732 0.23352 0.0
C208 C 0.90997 0.32436 0.25943 0.0
C209 C 0.89248 0.37184 0.2057 0.0
C210 C 0.91653 0.38875 0.37236 0.0
C211 C 0.8758 0.41373 0.3163 0.0
C212 C 0.86339 0.421 0.31894 0.0
C213 C 0.84921 0.41562 0.26986 0.0
C214 C 0.8384 0.42352 0.2711 0.0
C215 C 0.84149 0.43702 0.32134 0.0
C216 C 0.85553 0.44214 0.37098 0.0
C217 C 0.86633 0.43429 0.36959 0.0
C218 C 0.86705 0.36354 0.4565 0.0
C219 C 0.84133 0.34525 0.30934 0.0
O220 O 0.88903 0.33229 0.38291 0.0
O221 O 0.87555 0.325 0.27928 0.0
O222 O 0.90124 0.36472 0.23315 0.0
O223 O 0.87855 0.36747 0.24169 0.0
O224 O 0.90892 0.37117 0.37868 0.0
O225 O 0.90754 0.39633 0.34665 0.0
O226 O 0.87439 0.40326 0.26264 0.0
O227 O 0.87954 0.40874 0.37726 0.0
O228 O 0.85851 0.37114 0.43065 0.0
O229 O 0.88057 0.36736 0.41859 0.0
O230 O 0.8487 0.36255 0.29569 0.0
O231 O 0.85113 0.33822 0.33148 0.0
H232 H 0.88033 0.28875 0.35987 0.0
H233 H 0.8987 0.27649 0.31577 0.0
H234 H 0.93143 0.32542 0.19734 0.0
H235 H 0.91312 0.3377 0.24312 0.0
H236 H 0.8466 0.40548 0.22983 0.0
H237 H 0.82788 0.41932 0.23146 0.0
H238 H 0.85818 0.45222 0.41131 0.0
H239 H 0.87718 0.43876 0.40794 0.0
Nd240 Nd 0.39445 0.88961 0.66987 0.0
Nd241 Nd 0.36052 0.85361 0.6358 0.0
C242 C 0.41937 0.9226 0.70748 0.0
C243 C 0.42648 0.94093 0.67774 0.0
C244 C 0.4425 0.95511 0.70446 0.0
C245 C 0.44991 0.97234 0.67454 0.0
C246 C 0.44148 0.97585 0.61691 0.0
C247 C 0.42525 0.96156 0.59084 0.0
C248 C 0.41788 0.94431 0.62077 0.0
C249 C 0.38852 0.88092 0.52773 0.0
C250 C 0.35514 0.88746 0.66155 0.0
C251 C 0.33626 0.822 0.58284 0.0
C252 C 0.32945 0.8024 0.59033 0.0
C253 C 0.32837 0.79225 0.52949 0.0
C254 C 0.32041 0.77353 0.53372 0.0
C255 C 0.3132 0.76442 0.59905 0.0
C256 C 0.31467 0.77468 0.66035 0.0
C257 C 0.32269 0.79339 0.65611 0.0
C258 C 0.36626 0.86126 0.77914 0.0
C259 C 0.39933 0.855 0.66533 0.0
O260 O 0.40305 0.91459 0.73286 0.0
O261 O 0.42267 0.91179 0.66989 0.0
O262 O 0.40421 0.8893 0.55621 0.0
O263 O 0.37662 0.87866 0.57217 0.0
O264 O 0.37129 0.8951 0.69023 0.0
O265 O 0.34878 0.87235 0.62464 0.0
O266 O 0.35197 0.832 0.55322 0.0
O267 O 0.33322 0.83005 0.63597 0.0
O268 O 0.35053 0.85269 0.75034 0.0
O269 O 0.37827 0.86429 0.73389 0.0
O270 O 0.38347 0.84683 0.63337 0.0
O271 O 0.40547 0.87088 0.69612 0.0
H272 H 0.4494 0.95284 0.74829 0.0
H273 H 0.46223 0.98296 0.69701 0.0
H274 H 0.41843 0.9636 0.54614 0.0
H275 H 0.40556 0.93354 0.59882 0.0
H276 H 0.33333 0.7988 0.47809 0.0
H277 H 0.31942 0.76616 0.48516 0.0
H278 H 0.30956 0.76823 0.71184 0.0
H279 H 0.3233 0.80075 0.70424 0.0
Nd280 Nd 0.18792 0.5294 0.66806 0.0
Nd281 Nd 0.22613 0.53542 0.66979 0.0
C282 C 0.15641 0.52793 0.67391 0.0
C283 C 0.13748 0.51603 0.65284 0.0
C284 C 0.12436 0.51982 0.67732 0.0
C285 C 0.10651 0.50936 0.65538 0.0
C286 C 0.10127 0.49478 0.6082 0.0
C287 C 0.11447 0.49086 0.58459 0.0
C288 C 0.13237 0.50138 0.60656 0.0
C289 C 0.19818 0.51949 0.54411 0.0
C290 C 0.19192 0.49536 0.7115 0.0
C291 C 0.25761 0.53724 0.65364 0.0
C292 C 0.27728 0.55004 0.6566 0.0
C293 C 0.2864 0.5622 0.60034 0.0
C294 C 0.3051 0.57313 0.60178 0.0
C295 C 0.31523 0.57217 0.6593 0.0
C296 C 0.30601 0.56019 0.71598 0.0
C297 C 0.28735 0.54926 0.71448 0.0
C298 C 0.21629 0.54567 0.79368 0.0
C299 C 0.22232 0.57014 0.64206 0.0
O300 O 0.16273 0.52258 0.72638 0.0
O301 O 0.16792 0.53553 0.62163 0.0
O302 O 0.18237 0.51055 0.57215 0.0
O303 O 0.20773 0.53332 0.58062 0.0
O304 O 0.182 0.50293 0.71968 0.0
O305 O 0.20825 0.50439 0.68343 0.0
O306 O 0.24844 0.53846 0.6 0.0
O307 O 0.24876 0.53311 0.71437 0.0
O308 O 0.23224 0.55421 0.76621 0.0
O309 O 0.20648 0.53181 0.75749 0.0
O310 O 0.23208 0.5627 0.62675 0.0
O311 O 0.20598 0.56052 0.66922 0.0
H312 H 0.12797 0.53104 0.7131 0.0
H313 H 0.09679 0.51267 0.67583 0.0
H314 H 0.11107 0.47989 0.54777 0.0
H315 H 0.14226 0.49822 0.58668 0.0
H316 H 0.27915 0.56307 0.55446 0.0
H317 H 0.31165 0.58199 0.55667 0.0
H318 H 0.31319 0.5592 0.76183 0.0
H319 H 0.28081 0.53998 0.75846 0.0
Nd320 Nd 0.55019 0.68554 0.68595 0.0
Nd321 Nd 0.54454 0.71831 0.68103 0.0
C322 C 0.55169 0.65558 0.69626 0.0
C323 C 0.56311 0.64826 0.67059 0.0
C324 C 0.57027 0.64123 0.72019 0.0
C325 C 0.5803 0.63346 0.69676 0.0
C326 C 0.58339 0.6324 0.62287 0.0
C327 C 0.57632 0.63963 0.57335 0.0
C328 C 0.56637 0.64748 0.59683 0.0
C329 C 0.55895 0.70409 0.55867 0.0
C330 C 0.58491 0.72412 0.71763 0.0
C331 C 0.54334 0.74803 0.65512 0.0
C332 C 0.53064 0.75484 0.65343 0.0
C333 C 0.53593 0.77149 0.6214 0.0
C334 C 0.52464 0.7788 0.62248 0.0
C335 C 0.50773 0.76962 0.65578 0.0
C336 C 0.50231 0.7527 0.68666 0.0
C337 C 0.51367 0.7454 0.68559 0.0
C338 C 0.53606 0.70032 0.80938 0.0
C339 C 0.5093 0.67946 0.66812 0.0
O340 O 0.55834 0.66821 0.74513 0.0
O341 O 0.54222 0.65822 0.64798 0.0
O342 O 0.56788 0.69712 0.58588 0.0
O343 O 0.54551 0.70036 0.59663 0.0
O344 O 0.5775 0.70668 0.7283 0.0
O345 O 0.57554 0.73132 0.69192 0.0
O346 O 0.54189 0.73679 0.60465 0.0
O347 O 0.54686 0.7438 0.71823 0.0
O348 O 0.52729 0.70759 0.78259 0.0
O349 O 0.54927 0.70357 0.7705 0.0
O350 O 0.51652 0.69642 0.64847 0.0
O351 O 0.51925 0.67296 0.69413 0.0
H352 H 0.56798 0.64163 0.77731 0.0
H353 H 0.58573 0.62837 0.73681 0.0
H354 H 0.57813 0.63891 0.51605 0.0
H355 H 0.56105 0.65272 0.55695 0.0
H356 H 0.54893 0.77898 0.5961 0.0
H357 H 0.52918 0.79166 0.59695 0.0
H358 H 0.48948 0.74528 0.71325 0.0
H359 H 0.50931 0.73252 0.71077 0.0
H360 H 0.09988 0.33604 0.97873 0.0
H361 H 0.11442 0.36685 0.93369 0.0
H362 H 0.15488 0.35932 0.83065 0.0
H363 H 0.14056 0.32855 0.87654 0.0
H364 H 0.16969 0.39151 0.89946 0.0
H365 H 0.12211 0.3596 0.73194 0.0
H366 H 0.09098 0.33944 0.69417 0.0
H367 H 0.07501 0.37446 0.79113 0.0
H368 H 0.10602 0.39471 0.83043 0.0
H369 H 0.20632 0.47322 0.69619 0.0
H370 H 0.1934 0.44198 0.73507 0.0
H371 H 0.14786 0.44335 0.82252 0.0
H372 H 0.16037 0.47422 0.78211 0.0
H373 H 0.13623 0.41354 0.75572 0.0
H374 H 0.18213 0.44265 0.93836 0.0
H375 H 0.21292 0.46269 0.98132 0.0
H376 H 0.23149 0.43295 0.85899 0.0
H377 H 0.20082 0.41284 0.81517 0.0
C378 C 0.11193 0.34093 0.94682 0.0
C379 C 0.11898 0.3297 0.93129 0.0
C380 C 0.12017 0.35856 0.92053 0.0
C381 C 0.13571 0.36547 0.87804 0.0
C382 C 0.1429 0.35436 0.86305 0.0
C383 C 0.13459 0.33668 0.88891 0.0
C384 C 0.14447 0.38428 0.84977 0.0
C385 C 0.16243 0.39624 0.86714 0.0
C386 C 0.13501 0.39068 0.80863 0.0
C387 C 0.11637 0.37859 0.78471 0.0
C388 C 0.11194 0.36294 0.7457 0.0
C389 C 0.09431 0.3515 0.72393 0.0
C390 C 0.08101 0.35564 0.7404 0.0
C391 C 0.08532 0.37126 0.7785 0.0
C392 C 0.10292 0.38273 0.80047 0.0
C393 C 0.19356 0.46688 0.72373 0.0
C394 C 0.18442 0.47635 0.73557 0.0
C395 C 0.18621 0.44899 0.74659 0.0
C396 C 0.16965 0.44016 0.78275 0.0
C397 C 0.16058 0.44966 0.79466 0.0
C398 C 0.16782 0.46744 0.77142 0.0
C399 C 0.16141 0.42095 0.80646 0.0
C400 C 0.14354 0.40885 0.78795 0.0
C401 C 0.1709 0.41443 0.84686 0.0
C402 C 0.18931 0.42648 0.87273 0.0
C403 C 0.19285 0.44055 0.92013 0.0
C404 C 0.21024 0.45187 0.94477 0.0
C405 C 0.22416 0.44917 0.92252 0.0
C406 C 0.2207 0.43507 0.87596 0.0
C407 C 0.20332 0.42369 0.85134 0.0
H408 H 0.23762 0.45795 0.94159 0.0
H409 H 0.06738 0.34677 0.72351 0.0
H410 H 0.75038 0.79349 0.91301 0.0
H411 H 0.71953 0.77668 0.87033 0.0
H412 H 0.71458 0.82378 0.89271 0.0
H413 H 0.74544 0.8407 0.93517 0.0
H414 H 0.68521 0.79563 0.94182 0.0
H415 H 0.71959 0.80858 0.72578 0.0
H416 H 0.74273 0.80958 0.64508 0.0
H417 H 0.71711 0.75217 0.65038 0.0
H418 H 0.69394 0.75085 0.73197 0.0
H419 H 0.6038 0.76072 0.73838 0.0
H420 H 0.63511 0.7792 0.77592 0.0
H421 H 0.64095 0.73238 0.77769 0.0
H422 H 0.60979 0.71389 0.74091 0.0
H423 H 0.66984 0.76129 0.71369 0.0
H424 H 0.63585 0.74868 0.93221 0.0
H425 H 0.61262 0.74791 0.01169 0.0
H426 H 0.63753 0.8052 -0.00046 0.0
H427 H 0.66078 0.80629 0.91902 0.0
C428 C 0.74283 0.80037 0.90826 0.0
C429 C 0.75058 0.81856 0.9276 0.0
C430 C 0.7251 0.79069 0.88381 0.0
C431 C 0.71463 0.79894 0.87727 0.0
C432 C 0.72225 0.81702 0.89724 0.0
C433 C 0.73997 0.8267 0.92184 0.0
C434 C 0.69576 0.78872 0.84999 0.0
C435 C 0.68194 0.78837 0.89135 0.0
C436 C 0.69124 0.7789 0.7847 0.0
C437 C 0.70513 0.77963 0.73557 0.0
C438 C 0.71897 0.79618 0.71019 0.0
C439 C 0.73207 0.7968 0.66422 0.0
C440 C 0.73141 0.78095 0.64277 0.0
C441 C 0.71762 0.76444 0.66713 0.0
C442 C 0.70448 0.76374 0.71319 0.0
C443 C 0.61177 0.75437 0.74635 0.0
C444 C 0.60417 0.73576 0.73675 0.0
C445 C 0.62968 0.76495 0.76817 0.0
C446 C 0.64044 0.7572 0.78023 0.0
C447 C 0.63299 0.73872 0.76887 0.0
C448 C 0.61509 0.72813 0.74802 0.0
C449 C 0.65937 0.76819 0.80562 0.0
C450 C 0.67317 0.76865 0.76395 0.0
C451 C 0.66387 0.77816 0.8704 0.0
C452 C 0.64994 0.77755 0.91891 0.0
C453 C 0.63629 0.7611 0.94595 0.0
C454 C 0.62313 0.76061 -0.00871 0.0
C455 C 0.62357 0.77649 0.01048 0.0
C456 C 0.63719 0.7929 0.98451 0.0
C457 C 0.65037 0.79347 0.93905 0.0
H458 H 0.61338 0.77608 0.04563 0.0
H459 H 0.74157 0.78146 0.60716 0.0
H460 H 0.23885 0.93643 0.82769 0.0
H461 H 0.25554 0.9228 0.7794 0.0
H462 H 0.30434 0.96617 0.86584 0.0
H463 H 0.28782 0.98025 0.91212 0.0
H464 H 0.31018 0.95841 0.73394 0.0
H465 H 0.28208 0.92409 0.94647 0.0
H466 H 0.25696 0.90552 0.02791 0.0
H467 H 0.23238 0.86557 0.86335 0.0
H468 H 0.25725 0.88402 0.78054 0.0
H469 H 0.36537 0.91963 0.72589 0.0
H470 H 0.34703 0.93262 0.75856 0.0
H471 H 0.30099 0.88768 0.66309 0.0
H472 H 0.31937 0.87428 0.63104 0.0
H473 H 0.29262 0.89554 0.79226 0.0
H474 H 0.32208 0.92956 0.58183 0.0
H475 H 0.34781 0.94813 0.50307 0.0
H476 H 0.37036 0.98879 0.66588 0.0
H477 H 0.34488 0.97036 0.74606 0.0
C478 C 0.25316 0.94322 0.83592 0.0
C479 C 0.26191 0.95952 0.87409 0.0
C480 C 0.2627 0.93526 0.80883 0.0
C481 C 0.28124 0.94328 0.81953 0.0
C482 C 0.29005 0.95963 0.85691 0.0
C483 C 0.28052 0.96761 0.88402 0.0
C484 C 0.29146 0.93469 0.79169 0.0
C485 C 0.30642 0.94472 0.74742 0.0
C486 C 0.28639 0.91664 0.80739 0.0
C487 C 0.27143 0.90553 0.85705 0.0
C488 C 0.27124 0.91141 0.92744 0.0
C489 C 0.25706 0.9009 0.97389 0.0
C490 C 0.24305 0.8844 0.95075 0.0
C491 C 0.24322 0.87837 0.88115 0.0
C492 C 0.25736 0.88884 0.83446 0.0
C493 C 0.35138 0.91248 0.7111 0.0
C494 C 0.34391 0.89585 0.67548 0.0
C495 C 0.34088 0.92003 0.72967 0.0
C496 C 0.3226 0.91131 0.71271 0.0
C497 C 0.31507 0.89474 0.67668 0.0
C498 C 0.32562 0.88713 0.65796 0.0
C499 C 0.31141 0.91931 0.73495 0.0
C500 C 0.29628 0.90918 0.77827 0.0
C501 C 0.31636 0.93729 0.71858 0.0
C502 C 0.33162 0.9485 0.67017 0.0
C503 C 0.33258 0.94241 0.60103 0.0
C504 C 0.34712 0.95292 0.5561 0.0
C505 C 0.36074 0.96961 0.57952 0.0
C506 C 0.35981 0.97585 0.64784 0.0
C507 C 0.34531 0.96539 0.69301 0.0
H508 H 0.37199 0.97771 0.54469 0.0
H509 H 0.23209 0.87628 -0.0132 0.0
H510 H 0.41661 0.12428 0.25538 0.0
H511 H 0.38624 0.10821 0.20719 0.0
H512 H 0.3799 0.15379 0.25183 0.0
H513 H 0.41026 0.16995 0.30002 0.0
H514 H 0.35031 0.12421 0.28907 0.0
H515 H 0.38712 0.14323 0.07793 0.0
H516 H 0.41129 0.14654 -0.00262 0.0
H517 H 0.3863 0.08935 0.97912 0.0
H518 H 0.3621 0.08569 0.0604 0.0
H519 H 0.27112 0.09407 0.07386 0.0
H520 H 0.30193 0.11175 0.11854 0.0
H521 H 0.30857 0.06561 0.09874 0.0
H522 H 0.27792 0.0479 0.05498 0.0
H523 H 0.33791 0.09627 0.04721 0.0
H524 H 0.3013 0.07731 0.25909 0.0
H525 H 0.2769 0.07395 0.33826 0.0
H526 H 0.30146 0.13113 0.35448 0.0
H527 H 0.32584 0.13485 0.27413 0.0
C528 C 0.40887 0.131 0.2544 0.0
C529 C 0.41608 0.14851 0.28174 0.0
C530 C 0.3914 0.12174 0.22676 0.0
C531 C 0.38066 0.12977 0.22484 0.0
C532 C 0.38777 0.14719 0.25266 0.0
C533 C 0.40521 0.15643 0.2805 0.0
C534 C 0.36208 0.12005 0.19408 0.0
C535 C 0.34769 0.11836 0.23571 0.0
C536 C 0.35839 0.11203 0.12491 0.0
C537 C 0.37289 0.11418 0.07583 0.0
C538 C 0.38685 0.13135 0.05717 0.0
C539 C 0.40054 0.1333 0.01132 0.0
C540 C 0.40035 0.11817 0.98331 0.0
C541 C 0.38644 0.10106 0.00094 0.0
C542 C 0.37272 0.09904 0.04686 0.0
C543 C 0.27918 0.08772 0.07857 0.0
C544 C 0.27194 0.06951 0.06089 0.0
C545 C 0.29679 0.09783 0.1045 0.0
C546 C 0.30763 0.09002 0.11261 0.0
C547 C 0.30056 0.07199 0.09314 0.0
C548 C 0.28294 0.06184 0.06825 0.0
C549 C 0.32623 0.10044 0.1422 0.0
C550 C 0.34059 0.10223 0.10039 0.0
C551 C 0.32987 0.10856 0.21109 0.0
C552 C 0.31529 0.10637 0.25979 0.0
C553 C 0.30141 0.08918 0.27893 0.0
C554 C 0.28759 0.0872 0.32408 0.0
C555 C 0.28759 0.10232 0.35112 0.0
C556 C 0.30145 0.11944 0.33329 0.0
C557 C 0.31527 0.12149 0.28792 0.0
H558 H 0.27688 0.10076 0.3861 0.0
H559 H 0.41097 0.1197 0.94782 0.0
H560 H 0.90464 0.26533 0.20713 0.0
H561 H 0.92212 0.25233 0.16136 0.0
H562 H 0.97042 0.30336 0.1839 0.0
H563 H 0.95298 0.3165 0.23 0.0
H564 H 0.97134 0.28847 0.06064 0.0
H565 H 0.9591 0.26856 0.30456 0.0
H566 H 0.94065 0.25454 0.41233 0.0
H567 H 0.91214 0.20438 0.30075 0.0
H568 H 0.93027 0.21817 0.19189 0.0
H569 H 0.03323 0.25635 0.05011 0.0
H570 H 1.01481 0.26935 0.08394 0.0
H571 H 0.96719 0.21925 0.03713 0.0
H572 H 0.9856 0.2061 0.00263 0.0
H573 H 0.9656 0.23331 0.1701 0.0
H574 H 0.97957 0.25404 0.9263 0.0
H575 H 0.99937 0.26871 0.82245 0.0
H576 H 1.02624 0.31823 0.93918 0.0
H577 H 1.00675 0.30379 0.04419 0.0
C578 C 0.919 0.2738 0.20315 0.0
C579 C 0.92734 0.292 0.22306 0.0
C580 C 0.92902 0.26632 0.17671 0.0
C581 C 0.9477 0.27674 0.16992 0.0
C582 C 0.95605 0.29498 0.18849 0.0
C583 C 0.94602 0.3025 0.21479 0.0
C584 C 0.95847 0.26859 0.14365 0.0
C585 C 0.97022 0.27653 0.08526 0.0
C586 C 0.95688 0.25279 0.17456 0.0
C587 C 0.94591 0.24445 0.23981 0.0
C588 C 0.94879 0.25458 0.30279 0.0
C589 C 0.93841 0.24666 0.36411 0.0
C590 C 0.92519 0.22859 0.36332 0.0
C591 C 0.92236 0.21838 0.30124 0.0
C592 C 0.93269 0.22624 0.23972 0.0
C593 C 1.01884 0.2481 0.04614 0.0
C594 C 1.01093 0.23015 0.02327 0.0
C595 C 1.0083 0.2556 0.06545 0.0
C596 C 0.98957 0.24535 0.06291 0.0
C597 C 0.98161 0.22747 0.0395 0.0
C598 C 0.99216 0.21999 0.01929 0.0
C599 C 0.97839 0.25316 0.08713 0.0
C600 C 0.96662 0.24518 0.1453 0.0
C601 C 0.98012 0.26903 0.05655 0.0
C602 C 0.9918 0.27778 -0.00663 0.0
C603 C 0.98979 0.26802 0.93006 0.0
C604 C 1.00094 0.2763 0.87094 0.0
C605 C 1.01408 0.29438 0.87428 0.0
C606 C 1.01607 0.30423 0.93671 0.0
C607 C 1.00496 0.296 -0.00398 0.0
H608 H 1.0227 0.30077 0.82845 0.0
H609 H 0.91717 0.22249 0.41087 0.0
H610 H 0.87789 0.80952 0.06818 0.0
H611 H 0.86503 0.77829 0.10729 0.0
H612 H 0.81222 0.77182 0.09864 0.0
H613 H 0.82502 0.80305 0.0624 0.0
H614 H 0.81414 0.75701 0.2139 0.0
H615 H 0.82997 0.75354 0.96871 0.0
H616 H 0.85009 0.76155 0.86393 0.0
H617 H 0.88337 0.74624 0.9798 0.0
H618 H 0.86356 0.73835 0.08561 0.0
H619 H 0.76321 0.66203 0.23791 0.0
H620 H 0.77736 0.69291 0.19423 0.0
H621 H 0.82934 0.69849 0.22549 0.0
H622 H 0.81529 0.66743 0.26693 0.0
H623 H 0.82857 0.7137 0.10079 0.0
H624 H 0.81189 0.71659 0.34511 0.0
H625 H 0.79124 0.70826 0.44821 0.0
H626 H 0.75883 0.7244 0.33075 0.0
H627 H 0.77917 0.73261 0.22656 0.0
C628 C 0.86353 0.8014 0.07408 0.0
C629 C 0.85253 0.80888 0.06208 0.0
C630 C 0.85613 0.78345 0.09626 0.0
C631 C 0.83753 0.77243 0.10548 0.0
C632 C 0.82658 0.7799 0.09246 0.0
C633 C 0.83396 0.79784 0.07139 0.0
C634 C 0.82936 0.75333 0.13058 0.0
C635 C 0.81716 0.74753 0.18824 0.0
C636 C 0.8335 0.74086 0.09891 0.0
C637 C 0.84538 0.74553 0.0353 0.0
C638 C 0.84165 0.752 0.972 0.0
C639 C 0.85298 0.7565 0.91241 0.0
C640 C 0.86802 0.75445 0.91528 0.0
C641 C 0.87173 0.74785 0.97769 0.0
C642 C 0.86044 0.74335 0.03746 0.0
C643 C 0.77765 0.66972 0.23492 0.0
C644 C 0.78804 0.66211 0.25656 0.0
C645 C 0.78576 0.68751 0.2105 0.0
C646 C 0.80449 0.69825 0.20732 0.0
C647 C 0.81489 0.6906 0.22762 0.0
C648 C 0.80679 0.67282 0.25209 0.0
C649 C 0.81324 0.71743 0.18328 0.0
C650 C 0.82557 0.72322 0.12615 0.0
C651 C 0.80914 0.72989 0.21506 0.0
C652 C 0.79696 0.72506 0.27781 0.0
C653 C 0.80029 0.71825 0.34109 0.0
C654 C 0.78865 0.71357 0.39975 0.0
C655 C 0.77371 0.71576 0.39597 0.0
C656 C 0.7704 0.72269 0.33358 0.0
C657 C 0.78199 0.72737 0.27473 0.0
H658 H 0.76471 0.71213 0.44144 0.0
H659 H 0.87679 0.75795 0.86909 0.0
H660 H 0.07796 0.5066 0.57259 0.0
H661 H 0.04691 0.48901 0.53355 0.0
H662 H 0.05003 0.44072 0.54723 0.0
H663 H 0.08117 0.45826 0.58649 0.0
H664 H 0.03296 0.43998 0.42864 0.0
H665 H 1.02775 0.45199 0.67597 0.0
H666 H 0.03324 0.47056 0.78418 0.0
H667 H 1.01011 0.49864 0.67999 0.0
H668 H 1.0047 0.4804 0.57071 0.0
H669 H 0.93977 0.37767 0.41593 0.0
H670 H 0.97071 0.39593 0.45524 0.0
H671 H 0.96762 0.44382 0.42283 0.0
H672 H 0.93647 0.42557 0.3835 0.0
H673 H 0.98449 0.44496 0.55012 0.0
H674 H 0.98947 0.43223 0.30268 0.0
H675 H 0.98353 0.41289 0.19663 0.0
H676 H 1.0068 0.38534 0.30411 0.0
H677 H 1.01266 0.40437 0.41126 0.0
C678 C 0.07205 0.49221 0.56815 0.0
C679 C 0.0822 0.48392 0.58339 0.0
C680 C 0.0542 0.48213 0.54563 0.0
C681 C 0.04587 0.46341 0.53823 0.0
C682 C 0.05603 0.45511 0.5524 0.0
C683 C 0.07392 0.4652 0.57474 0.0
C684 C 1.0267 0.45256 0.51504 0.0
C685 C 1.02238 0.44093 0.45597 0.0
C686 C 1.01275 0.45396 0.54929 0.0
C687 C 1.01599 0.46496 0.61488 0.0
C688 C 1.02397 0.46223 0.67591 0.0
C689 C 1.02704 0.47267 0.73748 0.0
C690 C 1.02207 0.4858 0.73889 0.0
C691 C 1.01398 0.48848 0.67878 0.0
C692 C 1.01089 0.47809 0.61702 0.0
C693 C 0.9456 0.39209 0.41687 0.0
C694 C 0.93554 0.4001 0.3958 0.0
C695 C 0.9634 0.40255 0.4393 0.0
C696 C 0.97169 0.42133 0.44131 0.0
C697 C 0.96161 0.42938 0.42153 0.0
C698 C 0.94379 0.41891 0.39867 0.0
C699 C 0.99084 0.43245 0.46387 0.0
C700 C 0.99513 0.44408 0.52281 0.0
C701 C 1.00474 0.43099 0.42978 0.0
C702 C 1.00135 0.41962 0.36524 0.0
C703 C 0.9932 0.42196 0.30391 0.0
C704 C 0.98987 0.41107 0.24357 0.0
C705 C 0.99474 0.39786 0.2437 0.0
C706 C 1.00301 0.39556 0.30412 0.0
C707 C 1.00636 0.40641 0.36465 0.0
H708 H 0.99214 0.38944 0.19694 0.0
H709 H 1.02446 0.49388 0.78662 0.0
H710 H 0.58351 0.60283 0.67914 0.0
H711 H 0.60049 0.5888 0.63809 0.0
H712 H 0.62339 0.6276 0.46692 0.0
H713 H 0.60679 0.64199 0.50843 0.0
H714 H 0.61336 0.59433 0.41767 0.0
H715 H 0.64719 0.63109 0.6168 0.0
H716 H 0.65239 0.6422 0.74165 0.0
H717 H 0.63807 0.58975 0.81927 0.0
H718 H 0.63248 0.57825 0.69489 0.0
H719 H 0.69858 0.58534 0.44569 0.0
H720 H 0.68003 0.59778 0.48332 0.0
H721 H 0.63291 0.54986 0.41212 0.0
H722 H 0.65152 0.53726 0.37337 0.0
H723 H 0.65474 0.58744 0.582 0.0
H724 H 0.60171 0.56156 0.35729 0.0
H725 H 0.59868 0.55263 0.22965 0.0
H726 H 0.65507 0.58728 0.19846 0.0
H727 H 0.6584 0.59658 0.3256 0.0
C728 C 0.59231 0.60857 0.63328 0.0
C729 C 0.59374 0.62368 0.59753 0.0
C730 C 0.60196 0.60043 0.60956 0.0
C731 C 0.61335 0.60715 0.5495 0.0
C732 C 0.61465 0.62207 0.51314 0.0
C733 C 0.60506 0.63027 0.53696 0.0
C734 C 0.62407 0.59884 0.52513 0.0
C735 C 0.62234 0.59276 0.45378 0.0
C736 C 0.63598 0.5969 0.57169 0.0
C737 C 0.6392 0.60376 0.64657 0.0
C738 C 0.64497 0.62188 0.66053 0.0
C739 C 0.64801 0.62825 0.73121 0.0
C740 C 0.64549 0.61667 0.78838 0.0
C741 C 0.63996 0.59869 0.77496 0.0
C742 C 0.63685 0.59224 0.70438 0.0
C743 C 0.68428 0.57738 0.43759 0.0
C744 C 0.6766 0.56024 0.40616 0.0
C745 C 0.67365 0.58454 0.45957 0.0
C746 C 0.65503 0.57486 0.45051 0.0
C747 C 0.64726 0.55773 0.41908 0.0
C748 C 0.65792 0.5505 0.39706 0.0
C749 C 0.64395 0.5828 0.47469 0.0
C750 C 0.64561 0.58882 0.54607 0.0
C751 C 0.63217 0.5849 0.4279 0.0
C752 C 0.63031 0.5796 0.35114 0.0
C753 C 0.61345 0.56731 0.3231 0.0
C754 C 0.61168 0.56218 0.25086 0.0
C755 C 0.62669 0.56933 0.20604 0.0
C756 C 0.64348 0.58169 0.2333 0.0
C757 C 0.64531 0.58688 0.30546 0.0
H758 H 0.62529 0.56533 0.15016 0.0
H759 H 0.64788 0.62164 0.84306 0.0
H760 H 0.53928 0.13801 0.36426 0.0
H761 H 0.52543 0.10673 0.40342 0.0
H762 H 0.47376 0.10306 0.40433 0.0
H763 H 0.48769 0.13449 0.3685 0.0
H764 H 0.47572 0.0884 0.51829 0.0
H765 H 0.48851 0.08171 0.27323 0.0
H766 H 0.50713 0.08785 0.16464 0.0
H767 H 0.54065 0.07227 0.27689 0.0
H768 H 0.52236 0.06625 0.38646 0.0
H769 H 0.4246 0.99377 0.56725 0.0
H770 H 0.43809 0.02378 0.51458 0.0
H771 H 0.49046 0.02997 0.54024 0.0
H772 H 0.47705 0.99978 0.59088 0.0
H773 H 0.48787 0.04288 0.41141 0.0
H774 H 0.47429 0.04989 0.65708 0.0
H775 H 0.45468 0.04321 0.76284 0.0
H776 H 0.42119 0.05764 0.64355 0.0
H777 H 0.44048 0.0642 0.53677 0.0
C778 C 0.52493 0.13044 0.37159 0.0
C779 C 0.51462 0.13879 0.36288 0.0
C780 C 0.51695 0.11246 0.39396 0.0
C781 C 0.49839 0.10223 0.40649 0.0
C782 C 0.48807 0.1105 0.39563 0.0
C783 C 0.49607 0.12852 0.37461 0.0
C784 C 0.48979 0.08329 0.43423 0.0
C785 C 0.47821 0.07844 0.49385 0.0
C786 C 0.49318 0.07014 0.4041 0.0
C787 C 0.50416 0.07369 0.33825 0.0
C788 C 0.49993 0.07971 0.2749 0.0
C789 C 0.51041 0.08315 0.21315 0.0
C790 C 0.52509 0.0805 0.21392 0.0
C791 C 0.52929 0.07434 0.27639 0.0
C792 C 0.51886 0.0709 0.33831 0.0
C793 C 0.43898 1.00141 0.56114 0.0
C794 C 0.44967 0.99424 0.584 0.0
C795 C 0.44672 1.0187 0.53149 0.0
C796 C 0.46538 0.02938 0.52406 0.0
C797 C 0.47606 0.02213 0.5455 0.0
C798 C 0.46834 1.00486 0.57525 0.0
C799 C 0.4738 0.04811 0.49482 0.0
C800 C 0.48536 0.0529 0.43529 0.0
C801 C 0.47025 0.06116 0.52443 0.0
C802 C 0.45874 0.05737 0.58877 0.0
C803 C 0.46268 0.05152 0.65328 0.0
C804 C 0.45163 0.04778 0.71342 0.0
C805 C 0.43668 0.04996 0.70986 0.0
C806 C 0.43277 0.05594 0.64621 0.0
C807 C 0.44376 0.05969 0.58589 0.0
H808 H 0.42813 0.04704 0.75647 0.0
H809 H 0.53319 0.08317 0.16607 0.0
H810 H 0.18507 0.13926 0.02334 0.0
H811 H 0.16623 0.15288 0.02889 0.0
H812 H 0.11995 0.10195 0.97908 0.0
H813 H 0.1387 0.08809 0.9744 0.0
H814 H 0.11978 0.12854 0.90254 0.0
H815 H 0.12761 0.11879 0.15069 0.0
H816 H 0.1447 0.12078 0.25991 0.0
H817 H 0.17119 0.17821 0.25104 0.0
H818 H 0.15443 0.17657 0.14113 0.0
H819 H 0.05519 0.15381 0.98419 0.0
H820 H 0.07309 0.1391 0.98348 0.0
H821 H 0.11943 0.18851 0.04872 0.0
H822 H 0.10142 0.20319 0.05166 0.0
H823 H 0.11923 0.16213 0.11818 0.0
H824 H 0.11219 0.17221 0.86931 0.0
H825 H 0.09546 0.17057 0.75937 0.0
H826 H 0.06804 0.1131 0.76822 0.0
H827 H 0.08444 0.1144 0.8788 0.0
C828 C 0.17086 0.13083 0.01443 0.0
C829 C 0.16348 0.11246 -0.00102 0.0
C830 C 0.16007 0.1387 0.01743 0.0
C831 C 0.14156 0.12845 0.00534 0.0
C832 C 0.13417 0.11019 -0.01133 0.0
C833 C 0.14496 0.10228 -0.01424 0.0
C834 C 0.13 0.13682 0.00973 0.0
C835 C 0.11947 0.13566 0.95012 0.0
C836 C 0.12985 0.14653 0.07102 0.0
C837 C 0.13988 0.14755 0.13728 0.0
C838 C 0.13718 0.13185 0.17171 0.0
C839 C 0.14679 0.13291 0.2338 0.0
C840 C 0.15905 0.14961 0.26229 0.0
C841 C 0.1617 0.16528 0.22886 0.0
C842 C 0.15213 0.16429 0.1667 0.0
C843 C 0.06918 0.16158 -0.0014 0.0
C844 C 0.07684 0.17976 0.01767 0.0
C845 C 0.07948 0.15314 -0.00226 0.0
C846 C 0.09779 0.16271 0.01465 0.0
C847 C 0.10538 0.18078 0.03517 0.0
C848 C 0.09504 0.18919 0.03674 0.0
C849 C 0.10903 0.15394 0.01082 0.0
C850 C 0.1195 0.15501 0.07055 0.0
C851 C 0.1092 0.14422 0.94948 0.0
C852 C 0.09942 0.1434 0.8827 0.0
C853 C 0.10251 0.15922 0.84806 0.0
C854 C 0.0931 0.15835 0.78561 0.0
C855 C 0.08066 0.14174 0.75693 0.0
C856 C 0.07766 0.12596 0.79054 0.0
C857 C 0.08702 0.12675 0.85307 0.0
H858 H 0.07339 0.1411 0.70859 0.0
H859 H 0.16648 0.1504 0.31037 0.0
H860 H 0.88049 0.92551 0.06074 0.0
H861 H 0.89522 0.95825 0.05742 0.0
H862 H 0.93401 0.95989 0.90669 0.0
H863 H 0.91979 0.9273 0.91221 0.0
H864 H 0.95084 0.98475 -0.00229 0.0
H865 H 0.89762 0.96745 0.85993 0.0
H866 H 0.86518 0.9517 0.83651 0.0
H867 H 0.85748 0.97856 0.0156 0.0
H868 H 0.88985 0.99431 0.04063 0.0
H869 H 0.98653 0.07573 0.88515 0.0
H870 H 0.97169 0.04302 0.89097 0.0
H871 H 0.93639 0.04253 0.05606 0.0
H872 H 0.95119 0.07519 0.05083 0.0
H873 H 0.91776 1.01731 0.95893 0.0
H874 H 0.97153 0.035 0.09396 0.0
H875 H 1.00409 0.0509 0.11437 0.0
H876 H 1.01083 0.02332 0.93555 0.0
H877 H 0.97833 1.00742 0.91348 0.0
C878 C 0.89207 0.93284 0.02645 0.0
C879 C 0.89888 0.9237 -0.0134 0.0
C880 C 0.90049 0.95163 0.02432 0.0
C881 C 0.91569 0.96175 0.98096 0.0
C882 C 0.92238 0.95256 0.94076 0.0
C883 C 0.91415 0.93384 0.94375 0.0
C884 C 0.92492 0.98186 0.97848 0.0
C885 C 0.94357 0.9918 -0.01184 0.0
C886 C 0.91558 0.99132 0.96772 0.0
C887 C 0.89613 0.98192 0.95256 0.0
C888 C 0.88899 0.96991 0.8946 0.0
C889 C 0.87062 0.96099 0.88099 0.0
C890 C 0.85927 0.96409 0.92465 0.0
C891 C 0.86628 0.97615 0.98188 0.0
C892 C 0.88464 0.98509 -0.00423 0.0
C893 C 0.97577 0.06872 0.92344 0.0
C894 C 0.97012 0.07825 0.96745 0.0
C895 C 0.96724 0.04994 0.92661 0.0
C896 C 0.95292 0.04017 0.97435 0.0
C897 C 0.9473 0.04965 0.01849 0.0
C898 C 0.9558 0.0684 0.01528 0.0
C899 C 0.94362 1.02011 0.9777 0.0
C900 C 0.92499 1.01021 0.96833 0.0
C901 C 0.95298 1.01068 -0.0118 0.0
C902 C 0.97251 1.02015 0.00166 0.0
C903 C 0.97997 0.03242 0.05868 0.0
C904 C 0.99841 0.04142 0.07059 0.0
C905 C 1.00953 0.03815 0.02617 0.0
C906 C 1.00221 0.02585 0.96986 0.0
C907 C 0.98378 1.01683 0.95766 0.0
H908 H 1.0238 0.04513 0.03548 0.0
H909 H 0.84506 0.95717 0.91404 0.0
H910 H 1.00492 0.94015 0.93731 0.0
H911 H 0.03755 0.95799 0.93479 0.0
H912 H 0.04085 0.91402 0.029 0.0
H913 H 1.00826 0.89605 0.03125 0.0
H914 H 0.06454 0.94458 0.09152 0.0
H915 H 0.04907 0.92454 0.84784 0.0
H916 H 0.03347 0.92008 0.73206 0.0
H917 H 0.05737 0.97701 0.7062 0.0
H918 H 0.07293 0.98181 0.82238 0.0
H919 H 0.15721 0.97856 0.02117 0.0
H920 H 0.12458 0.95995 0.02065 0.0
H921 H 0.12038 1.00384 0.93088 0.0
H922 H 0.15293 0.02245 0.93061 0.0
H923 H 0.09723 0.97302 0.86593 0.0
H924 H 0.11259 0.99309 0.10961 0.0
H925 H 0.12854 0.99765 0.22457 0.0
H926 H 0.10499 0.94075 0.25024 0.0
H927 H 0.08911 0.93586 0.13477 0.0
C928 C 1.01254 0.93416 0.95691 0.0
C929 C 1.00378 0.91655 0.98437 0.0
C930 C 0.03128 0.94444 0.95555 0.0
C931 C 0.04182 0.93736 0.98102 0.0
C932 C 0.03313 0.91987 0.00917 0.0
C933 C 1.0144 0.9096 0.01063 0.0
C934 C 0.06186 0.94814 0.97836 0.0
C935 C 0.07166 0.95058 0.0419 0.0
C936 C 0.07131 0.95636 0.91413 0.0
C937 C 0.06202 0.95352 0.84416 0.0
C938 C 0.05089 0.9361 0.81773 0.0
C939 C 0.04208 0.93351 0.75199 0.0
C940 C 0.04439 0.94825 0.7119 0.0
C941 C 0.05557 0.96561 0.73738 0.0
C942 C 0.0644 0.96827 0.80314 0.0
C943 C 0.14938 0.98425 0.00093 0.0
C944 C 0.15782 1.00208 0.97616 0.0
C945 C 0.13066 0.97359 0.00102 0.0
C946 C 0.11988 0.9805 0.97653 0.0
C947 C 0.1283 0.99815 0.95018 0.0
C948 C 0.14699 1.00882 0.95027 0.0
C949 C 0.09989 0.96947 0.97904 0.0
C950 C 0.0901 0.967 0.9155 0.0
C951 C 0.09045 0.96123 0.04326 0.0
C952 C 0.0998 0.96411 0.11316 0.0
C953 C 0.11091 0.98155 0.13951 0.0
C954 C 0.11993 0.9842 0.20478 0.0
C955 C 0.11782 0.9695 0.24457 0.0
C956 C 0.10663 0.95212 0.21928 0.0
C957 C 0.09761 0.9494 0.15394 0.0
H958 H 0.12482 0.97158 0.29504 0.0
H959 H 0.03756 0.94622 0.66101 0.0
H960 H 0.72332 0.48761 0.29431 0.0
H961 H 0.74204 0.47385 0.29192 0.0
H962 H 0.78748 0.52378 0.3585 0.0
H963 H 0.7688 0.53779 0.36051 0.0
H964 H 0.79648 0.5079 0.25221 0.0
H965 H 0.76566 0.48986 0.4783 0.0
H966 H 0.73925 0.47697 0.55776 0.0
H967 H 0.71802 0.42644 0.44923 0.0
H968 H 0.7442 0.43911 0.3684 0.0
H969 H 0.85233 0.47247 0.34659 0.0
H970 H 0.83422 0.48692 0.34852 0.0
H971 H 0.7874 0.43666 0.29548 0.0
H972 H 0.80531 0.42189 0.29656 0.0
H973 H 0.77926 0.45305 0.3958 0.0
H974 H 0.80964 0.47085 0.16899 0.0
H975 H 0.83561 0.48366 0.08718 0.0
H976 H 0.85729 0.53439 0.19449 0.0
H977 H 0.83155 0.5218 0.27762 0.0
C978 C 0.7373 0.49576 0.30826 0.0
C979 C 0.74449 0.51386 0.32787 0.0
C980 C 0.748 0.4878 0.30717 0.0
C981 C 0.76616 0.49767 0.32594 0.0
C982 C 0.7735 0.51585 0.34399 0.0
C983 C 0.76278 0.52384 0.34527 0.0
C984 C 0.77738 0.48894 0.32717 0.0
C985 C 0.79286 0.49606 0.28443 0.0
C986 C 0.77248 0.47321 0.36779 0.0
C987 C 0.75682 0.46549 0.41688 0.0
C988 C 0.75531 0.47604 0.47106 0.0
C989 C 0.74038 0.46876 0.51639 0.0
C990 C 0.72695 0.45091 0.50843 0.0
C991 C 0.72843 0.44027 0.45527 0.0
C992 C 0.74332 0.44749 0.40974 0.0
C993 C 0.83814 0.46438 0.33608 0.0
C994 C 0.83036 0.44593 0.32144 0.0
C995 C 0.82781 0.47275 0.33633 0.0
C996 C 0.80942 0.46299 0.32113 0.0
C997 C 0.80156 0.44455 0.30708 0.0
C998 C 0.81188 0.43614 0.30704 0.0
C999 C 0.79839 0.47197 0.3206 0.0
C1000 C 0.78293 0.4649 0.36356 0.0
C1001 C 0.80329 0.48771 0.27997 0.0
C1002 C 0.81876 0.49533 0.22998 0.0
C1003 C 0.82002 0.4847 0.1755 0.0
C1004 C 0.83468 0.49193 0.12883 0.0
C1005 C 0.84811 0.50982 0.13575 0.0
C1006 C 0.84688 0.52053 0.18926 0.0
C1007 C 0.83226 0.51336 0.23613 0.0
H1008 H 0.85946 0.51539 0.09956 0.0
H1009 H 0.7154 0.4453 0.54355 0.0
H1010 H 0.65501 0.40844 0.28813 0.0
H1011 H 0.6413 0.37583 0.29553 0.0
H1012 H 0.59695 0.37283 0.41387 0.0
H1013 H 0.61084 0.40542 0.40881 0.0
H1014 H 0.60623 0.35063 0.47169 0.0
H1015 H 0.5938 0.36204 0.23251 0.0
H1016 H 0.6009 0.3758 0.11182 0.0
H1017 H 0.63365 0.35236 0.06919 0.0
H1018 H 0.62694 0.33865 0.1901 0.0
H1019 H 0.54533 0.25676 0.42399 0.0
H1020 H 0.56026 0.28953 0.42466 0.0
H1021 H 0.6048 0.29232 0.30859 0.0
H1022 H 0.58994 0.25965 0.30709 0.0
H1023 H 0.59557 0.31464 0.25021 0.0
H1024 H 0.60755 0.30303 0.4909 0.0
H1025 H 0.60057 0.28988 0.6127 0.0
H1026 H 0.56797 0.31363 0.65211 0.0
H1027 H 0.57467 0.32684 0.53034 0.0
C1028 C 0.64244 0.4009 0.31645 0.0
C1029 C 0.63403 0.4097 0.3474 0.0
C1030 C 0.63449 0.38216 0.32001 0.0
C1031 C 0.61789 0.3717 0.35435 0.0
C1032 C 0.60969 0.38049 0.38669 0.0
C1033 C 0.61761 0.39919 0.38314 0.0
C1034 C 0.60901 0.35164 0.35639 0.0
C1035 C 0.60371 0.34277 0.42308 0.0
C1036 C 0.60596 0.34125 0.29335 0.0
C1037 C 0.61002 0.34948 0.22065 0.0
C1038 C 0.60264 0.35994 0.19763 0.0
C1039 C 0.60657 0.36771 0.12914 0.0
C1040 C 0.61776 0.365 0.08294 0.0
C1041 C 0.62501 0.35447 0.10509 0.0
C1042 C 0.62113 0.34669 0.17357 0.0
C1043 C 0.55835 0.26432 0.39895 0.0
C1044 C 0.56637 0.25544 0.3655 0.0
C1045 C 0.56694 0.28313 0.39964 0.0
C1046 C 0.58379 0.29355 0.36713 0.0
C1047 C 0.59183 0.28469 0.33403 0.0
C1048 C 0.58329 0.26592 0.33344 0.0
C1049 C 0.59283 0.31362 0.36556 0.0
C1050 C 0.59813 0.3225 0.29887 0.0
C1051 C 0.5958 0.324 0.42857 0.0
C1052 C 0.59147 0.31577 0.50124 0.0
C1053 C 0.59875 0.30529 0.52527 0.0
C1054 C 0.59487 0.29786 0.59437 0.0
C1055 C 0.58378 0.30086 0.64001 0.0
C1056 C 0.57654 0.3113 0.61666 0.0
C1057 C 0.58039 0.31878 0.54766 0.0
H1058 H 0.58086 0.29518 0.69362 0.0
H1059 H 0.62078 0.37102 0.02993 0.0
H1060 H 0.66836 0.27564 0.2886 0.0
H1061 H 0.70107 0.29338 0.29318 0.0
H1062 H 0.70388 0.24485 0.29624 0.0
H1063 H 0.67126 0.22707 0.29315 0.0
H1064 H 0.72725 0.2688 0.39128 0.0
H1065 H 0.7126 0.26994 0.14213 0.0
H1066 H 0.69749 0.27534 0.04071 0.0
H1067 H 0.72227 0.33095 0.09782 0.0
H1068 H 0.73734 0.32583 0.20021 0.0
H1069 H 0.82052 0.30842 0.3182 0.0
H1070 H 0.78787 0.29018 0.31295 0.0
H1071 H 0.78432 0.33801 0.2861 0.0
H1072 H 0.81681 0.35617 0.28882 0.0
H1073 H 0.7611 0.31409 0.20289 0.0
H1074 H 0.77536 0.31366 0.45188 0.0
H1075 H 0.79034 0.30895 0.5556 0.0
H1076 H 0.76621 0.25311 0.50313 0.0
H1077 H 0.75127 0.25754 0.39846 0.0
C1078 C 0.67591 0.26871 0.29084 0.0
C1079 C 0.66703 0.24985 0.28991 0.0
C1080 C 0.69467 0.27891 0.29285 0.0
C1081 C 0.7051 0.27053 0.29416 0.0
C1082 C 0.69626 0.25171 0.29492 0.0
C1083 C 0.67753 0.24153 0.29251 0.0
C1084 C 0.72515 0.28127 0.29424 0.0
C1085 C 0.73465 0.27855 0.34955 0.0
C1086 C 0.73495 0.29435 0.24094 0.0
C1087 C 0.72596 0.29746 0.17924 0.0
C1088 C 0.71472 0.2833 0.13338 0.0
C1089 C 0.70618 0.28631 0.07567 0.0
C1090 C 0.70888 0.30347 0.06294 0.0
C1091 C 0.72017 0.31766 0.1078 0.0
C1092 C 0.72873 0.31472 0.16564 0.0
C1093 C 0.8128 0.31506 0.31096 0.0
C1094 C 0.82143 0.33383 0.3042 0.0
C1095 C 0.79404 0.3046 0.30843 0.0
C1096 C 0.78339 0.31263 0.30038 0.0
C1097 C 0.79205 0.33135 0.29242 0.0
C1098 C 0.81075 0.34178 0.29416 0.0
C1099 C 0.76329 0.3017 0.30019 0.0
C1100 C 0.75376 0.30437 0.24477 0.0
C1101 C 0.75346 0.2887 0.35383 0.0
C1102 C 0.76235 0.28597 0.41692 0.0
C1103 C 0.77335 0.3004 0.46218 0.0
C1104 C 0.78182 0.29778 0.52117 0.0
C1105 C 0.77927 0.28075 0.53583 0.0
C1106 C 0.7682 0.2663 0.49164 0.0
C1107 C 0.75971 0.26885 0.4325 0.0
H1108 H 0.78584 0.27875 0.58153 0.0
H1109 H 0.70226 0.30578 0.01824 0.0
H1110 H 0.51776 0.80488 0.67934 0.0
H1111 H 0.49894 0.81857 0.6825 0.0
H1112 H 0.45229 0.76699 0.6452 0.0
H1113 H 0.47115 0.75322 0.63979 0.0
H1114 H 0.45144 0.79246 0.56309 0.0
H1115 H 0.46162 0.78642 0.81288 0.0
H1116 H 0.4798 0.79009 0.92057 0.0
H1117 H 0.50616 0.84728 0.89739 0.0
H1118 H 0.4883 0.84394 0.78895 0.0
H1119 H 0.38811 0.81966 0.63881 0.0
H1120 H 0.40575 0.80469 0.64097 0.0
H1121 H 0.45268 0.85455 0.69784 0.0
H1122 H 0.43487 0.86945 0.69862 0.0
H1123 H 0.45293 0.82923 0.77095 0.0
H1124 H 0.44383 0.83577 0.52037 0.0
H1125 H 0.42601 0.83264 0.41206 0.0
H1126 H 0.39841 0.77539 0.43452 0.0
H1127 H 0.41591 0.77819 0.54357 0.0
C1128 C 0.50351 0.79641 0.67115 0.0
C1129 C 0.49604 0.77789 0.65913 0.0
C1130 C 0.49272 0.80427 0.67375 0.0
C1131 C 0.47411 0.79383 0.6649 0.0
C1132 C 0.46658 0.77536 0.65244 0.0
C1133 C 0.47739 0.76746 0.64996 0.0
C1134 C 0.46259 0.80226 0.66796 0.0
C1135 C 0.45158 0.80028 0.60902 0.0
C1136 C 0.46304 0.81288 0.72698 0.0
C1137 C 0.47373 0.81492 0.79242 0.0
C1138 C 0.47138 0.79977 0.83044 0.0
C1139 C 0.48162 0.80179 0.89167 0.0
C1140 C 0.49416 0.8189 0.91571 0.0
C1141 C 0.49645 0.83403 0.87867 0.0
C1142 C 0.48627 0.83208 0.81737 0.0
C1143 C 0.40219 0.82747 0.65189 0.0
C1144 C 0.41007 0.84582 0.66817 0.0
C1145 C 0.41233 0.81888 0.65269 0.0
C1146 C 0.43073 0.82849 0.66804 0.0
C1147 C 0.43855 0.84677 0.68556 0.0
C1148 C 0.42834 0.85531 0.68586 0.0
C1149 C 0.44181 0.81954 0.66584 0.0
C1150 C 0.45276 0.82141 0.72496 0.0
C1151 C 0.44139 0.80892 0.60672 0.0
C1152 C 0.43107 0.8072 0.5405 0.0
C1153 C 0.4339 0.82251 0.50241 0.0
C1154 C 0.42386 0.8208 0.44088 0.0
C1155 C 0.41106 0.80383 0.41653 0.0
C1156 C 0.40832 0.78853 0.4535 0.0
C1157 C 0.4183 0.79017 0.51513 0.0
H1158 H 0.40329 0.80253 0.36893 0.0
H1159 H 0.50207 0.82044 0.96311 0.0
H1160 H 0.2525 0.5928 0.56629 0.0
H1161 H 0.26716 0.62535 0.55652 0.0
H1162 H 0.22585 0.62518 0.68743 0.0
H1163 H 0.21081 0.59242 0.6959 0.0
H1164 H 0.23457 0.64894 0.58293 0.0
H1165 H 0.26808 0.63656 0.75621 0.0
H1166 H 0.28494 0.62243 0.80133 0.0
H1167 H 0.32388 0.648 0.63374 0.0
H1168 H 0.30712 0.6621 0.58701 0.0
H1169 H 0.28249 0.74166 0.67304 0.0
H1170 H 0.26694 0.70895 0.67855 0.0
H1171 H 0.30654 0.70867 0.53819 0.0
H1172 H 0.32241 0.74148 0.53369 0.0
H1173 H 0.29868 0.68523 0.64795 0.0
H1174 H 0.26509 0.69775 0.47554 0.0
H1175 H 0.24803 0.71167 0.43059 0.0
H1176 H 0.20916 0.68583 0.59823 0.0
H1177 H 0.22614 0.67195 0.64483 0.0
C1178 C 0.24645 0.59964 0.59292 0.0
C1179 C 0.23051 0.58992 0.63252 0.0
C1180 C 0.25494 0.61834 0.58753 0.0
C1181 C 0.24791 0.62792 0.62258 0.0
C1182 C 0.23167 0.6182 0.66018 0.0
C1183 C 0.22306 0.59943 0.66504 0.0
C1184 C 0.25765 0.64802 0.62077 0.0
C1185 C 0.24852 0.65685 0.59818 0.0
C1186 C 0.276 0.6585 0.63912 0.0
C1187 C 0.28625 0.65026 0.66773 0.0
C1188 C 0.28019 0.63909 0.72873 0.0
C1189 C 0.28973 0.63109 0.75462 0.0
C1190 C 0.30545 0.63428 0.72031 0.0
C1191 C 0.31169 0.64553 0.6602 0.0
C1192 C 0.30219 0.65354 0.63404 0.0
C1193 C 0.28803 0.7347 0.64381 0.0
C1194 C 0.30377 0.74434 0.60286 0.0
C1195 C 0.27899 0.71591 0.64646 0.0
C1196 C 0.28539 0.7062 0.60814 0.0
C1197 C 0.30124 0.71577 0.56806 0.0
C1198 C 0.31025 0.73458 0.5651 0.0
C1199 C 0.27561 0.68612 0.61009 0.0
C1200 C 0.28473 0.67731 0.63278 0.0
C1201 C 0.25725 0.67567 0.59209 0.0
C1202 C 0.24699 0.68396 0.5641 0.0
C1203 C 0.25299 0.69515 0.50318 0.0
C1204 C 0.24331 0.70301 0.47733 0.0
C1205 C 0.22755 0.69967 0.51165 0.0
C1206 C 0.22139 0.68843 0.57177 0.0
C1207 C 0.23103 0.68055 0.59789 0.0
H1208 H 0.22008 0.70577 0.49155 0.0
H1209 H 0.31281 0.62806 0.74037 0.0
H1210 H 0.48504 0.68796 0.61302 0.0
H1211 H 0.45255 0.6696 0.61035 0.0
H1212 H 0.45561 0.62632 0.71281 0.0
H1213 H 0.48832 0.64457 0.7145 0.0
H1214 H 0.43099 0.61358 0.60823 0.0
H1215 H 0.44382 0.65368 0.80734 0.0
H1216 H 0.45764 0.68322 0.86647 0.0
H1217 H 0.42939 0.69974 0.72434 0.0
H1218 H 0.41557 0.67037 0.66369 0.0
H1219 H 0.33948 0.56257 0.70678 0.0
H1220 H 0.37202 0.58052 0.70819 0.0
H1221 H 0.36943 0.62465 0.61144 0.0
H1222 H 0.33675 0.607 0.61266 0.0
H1223 H 0.3939 0.63694 0.71351 0.0
H1224 H 0.3812 0.59733 0.51382 0.0
H1225 H 0.36784 0.56826 0.45128 0.0
H1226 H 0.396 0.55115 0.59114 0.0
H1227 H 0.40936 0.58006 0.65518 0.0
C1228 C 0.47888 0.67452 0.63492 0.0
C1229 C 0.48943 0.66784 0.66435 0.0
C1230 C 0.4602 0.66403 0.63366 0.0
C1231 C 0.45146 0.64661 0.66251 0.0
C1232 C 0.46195 0.63972 0.69044 0.0
C1233 C 0.4807 0.65021 0.69149 0.0
C1234 C 0.43144 0.63569 0.66379 0.0
C1235 C 0.4229 0.6186 0.63225 0.0
C1236 C 0.42074 0.64233 0.69336 0.0
C1237 C 0.42878 0.65988 0.73059 0.0
C1238 C 0.44062 0.66365 0.78844 0.0
C1239 C 0.44845 0.68036 0.82225 0.0
C1240 C 0.44443 0.69336 0.79906 0.0
C1241 C 0.43251 0.68966 0.7422 0.0
C1242 C 0.42466 0.67297 0.70814 0.0
C1243 C 0.34575 0.57616 0.68648 0.0
C1244 C 0.3353 0.58324 0.65959 0.0
C1245 C 0.36447 0.58638 0.6865 0.0
C1246 C 0.37336 0.60394 0.65892 0.0
C1247 C 0.363 0.61113 0.63274 0.0
C1248 C 0.34424 0.60093 0.63287 0.0
C1249 C 0.3934 0.61478 0.65794 0.0
C1250 C 0.40196 0.63188 0.68957 0.0
C1251 C 0.40412 0.60818 0.62821 0.0
C1252 C 0.39614 0.5908 0.58975 0.0
C1253 C 0.38444 0.58732 0.5316 0.0
C1254 C 0.37688 0.57088 0.49582 0.0
C1255 C 0.38103 0.55785 0.51735 0.0
C1256 C 0.39278 0.56125 0.57459 0.0
C1257 C 0.40036 0.57767 0.61061 0.0
H1258 H 0.37517 0.54513 0.48957 0.0
H1259 H 0.45052 0.7063 0.82523 0.0
H1260 H 0.07596 0.2177 0.76526 0.0
H1261 H 0.07178 0.22038 0.63695 0.0
H1262 H 1.01972 0.21387 0.67978 0.0
H1263 H 1.02365 0.21064 0.80839 0.0
H1264 H 1.01869 0.19443 0.56946 0.0
H1265 H 0.05504 0.25514 0.63786 0.0
H1266 H 0.08033 0.28099 0.69679 0.0
H1267 H 0.11722 0.27499 0.56112 0.0
H1268 H 0.09218 0.24892 0.50212 0.0
H1269 H 1.01206 0.20623 0.20411 0.0
H1270 H 1.01564 0.21622 0.32901 0.0
H1271 H 0.06654 0.21822 0.33845 0.0
H1272 H 0.06328 0.20884 0.21216 0.0
H1273 H 0.06548 0.24415 0.42388 0.0
H1274 H 1.02895 0.17973 0.37792 0.0
H1275 H 1.00366 0.15346 0.32076 0.0
H1276 H 0.96691 0.16711 0.41751 0.0
H1277 H 0.99203 0.19359 0.47451 0.0
C1278 C 0.0636 0.21673 0.74711 0.0
C1279 C 0.05015 0.21406 0.79613 0.0
C1280 C 0.06131 0.21847 0.67414 0.0
C1281 C 0.04567 0.21785 0.64949 0.0
C1282 C 0.03197 0.21462 0.6982 0.0
C1283 C 0.03418 0.21268 0.77127 0.0
C1284 C 0.04338 0.21967 0.57214 0.0
C1285 C 1.02868 0.20554 0.53787 0.0
C1286 C 0.05656 0.23411 0.53121 0.0
C1287 C 0.0717 0.25 0.56573 0.0
C1288 C 0.06854 0.25927 0.62081 0.0
C1289 C 0.08284 0.27397 0.65424 0.0
C1290 C 0.10037 0.27962 0.63276 0.0
C1291 C 0.10363 0.2706 0.57768 0.0
C1292 C 0.08939 0.25588 0.54413 0.0
C1293 C 1.02415 0.20912 0.23262 0.0
C1294 C 0.0372 0.20633 0.20008 0.0
C1295 C 1.02623 0.21494 0.30348 0.0
C1296 C 0.04114 0.21753 0.34291 0.0
C1297 C 0.05491 0.2162 0.30858 0.0
C1298 C 0.05299 0.21071 0.23702 0.0
C1299 C 0.04108 0.21871 0.42172 0.0
C1300 C 0.0553 0.23335 0.45604 0.0
C1301 C 1.02744 0.20478 0.46305 0.0
C1302 C 1.01235 0.1887 0.42979 0.0
C1303 C 1.01548 0.17716 0.38668 0.0
C1304 C 1.00118 0.16224 0.35434 0.0
C1305 C 0.98369 0.15865 0.36535 0.0
C1306 C 0.98046 0.16993 0.40894 0.0
C1307 C 0.99472 0.18488 0.44128 0.0
H1308 H 0.97264 0.1471 0.34023 0.0
H1309 H 0.11142 0.29099 0.65876 0.0
H1310 H 0.84417 0.8298 0.78618 0.0
H1311 H 0.84771 0.83256 0.65537 0.0
H1312 H 0.89966 0.87966 0.68117 0.0
H1313 H 0.89635 0.87678 0.81153 0.0
H1314 H 0.85007 0.8611 0.58694 0.0
H1315 H 0.92504 0.8858 0.53429 0.0
H1316 H 0.94875 0.88045 0.58012 0.0
H1317 H 0.90924 0.82759 0.64799 0.0
H1318 H 0.88531 0.83252 0.60172 0.0
H1319 H 0.90685 0.90151 0.23392 0.0
H1320 H 0.90318 0.89858 0.36466 0.0
H1321 H 0.85112 0.8517 0.33764 0.0
H1322 H 0.85454 0.85478 0.20734 0.0
H1323 H 0.90068 0.86999 0.43243 0.0
H1324 H 0.8257 0.84533 0.48516 0.0
H1325 H 0.802 0.85077 0.43991 0.0
H1326 H 0.84155 0.90363 0.37217 0.0
H1327 H 0.86548 0.89861 0.4179 0.0
C1328 C 0.85655 0.84042 0.76379 0.0
C1329 C 0.86989 0.85325 0.80842 0.0
C1330 C 0.85852 0.84201 0.68932 0.0
C1331 C 0.87388 0.85636 0.65896 0.0
C1332 C 0.88778 0.86839 0.70367 0.0
C1333 C 0.88585 0.86677 0.77805 0.0
C1334 C 0.87449 0.8601 0.58145 0.0
C1335 C 0.86096 0.86272 0.55266 0.0
C1336 C 0.88905 0.86284 0.53798 0.0
C1337 C 0.90337 0.85961 0.56507 0.0
C1338 C 0.92141 0.87301 0.55869 0.0
C1339 C 0.93489 0.87005 0.58481 0.0
C1340 C 0.9305 0.85371 0.61714 0.0
C1341 C 0.91262 0.84026 0.62319 0.0
C1342 C 0.89909 0.84315 0.59713 0.0
C1343 C 0.89443 0.89091 0.25604 0.0
C1344 C 0.88109 0.87819 0.21108 0.0
C1345 C 0.89238 0.88922 0.33047 0.0
C1346 C 0.87695 0.87487 0.36047 0.0
C1347 C 0.86306 0.86296 0.31544 0.0
C1348 C 0.86505 0.8647 0.24109 0.0
C1349 C 0.87626 0.87101 0.4379 0.0
C1350 C 0.88979 0.86836 0.46668 0.0
C1351 C 0.86169 0.86825 0.48136 0.0
C1352 C 0.84739 0.87151 0.45439 0.0
C1353 C 0.82934 0.85814 0.46089 0.0
C1354 C 0.81587 0.86115 0.4351 0.0
C1355 C 0.82027 0.87752 0.40298 0.0
C1356 C 0.83816 0.89094 0.3968 0.0
C1357 C 0.85169 0.888 0.42254 0.0
H1358 H 0.80982 0.87981 0.38301 0.0
H1359 H 0.94096 0.85146 0.63738 0.0
H1360 H 0.25156 0.0424 0.77134 0.0
H1361 H 0.24796 0.04216 0.64118 0.0
H1362 H 0.20297 0.05038 0.6689 0.0
H1363 H 0.20626 0.05022 0.79951 0.0
H1364 H 0.19405 1.02072 0.5943 0.0
H1365 H 0.24146 0.08194 0.58451 0.0
H1366 H 0.27143 0.10773 0.60774 0.0
H1367 H 0.29545 0.08123 0.49803 0.0
H1368 H 0.26564 0.05521 0.47468 0.0
H1369 H 0.18033 0.03125 0.22498 0.0
H1370 H 0.18427 0.03139 0.3549 0.0
H1371 H 0.22892 0.02275 0.32401 0.0
H1372 H 0.22526 0.02297 0.19365 0.0
H1373 H 0.23817 0.05237 0.39998 0.0
H1374 H 0.1908 0.99145 0.40715 0.0
H1375 H 0.16084 0.96595 0.38114 0.0
H1376 H 0.13674 0.99182 0.49491 0.0
H1377 H 0.16655 1.01761 0.52071 0.0
C1378 C 0.24123 0.04468 0.74962 0.0
C1379 C 0.22896 0.04599 0.79511 0.0
C1380 C 0.23923 0.04461 0.67525 0.0
C1381 C 0.22511 0.04612 0.64564 0.0
C1382 C 0.21386 0.04907 0.69099 0.0
C1383 C 0.21579 0.04904 0.7654 0.0
C1384 C 0.22062 0.04212 0.56889 0.0
C1385 C 0.20358 0.02785 0.55159 0.0
C1386 C 0.23333 0.05097 0.51383 0.0
C1387 C 0.2513 0.06654 0.52849 0.0
C1388 C 0.25314 0.08153 0.56593 0.0
C1389 C 0.2701 0.09622 0.57895 0.0
C1390 C 0.28534 0.0961 0.5546 0.0
C1391 C 0.28365 0.08129 0.51711 0.0
C1392 C 0.26671 0.06658 0.5038 0.0
C1393 C 0.19065 0.02887 0.24597 0.0
C1394 C 0.20273 0.02747 0.19972 0.0
C1395 C 0.19286 0.02889 0.32017 0.0
C1396 C 0.20698 0.02723 0.34877 0.0
C1397 C 0.21804 0.02419 0.30265 0.0
C1398 C 0.21589 0.02425 0.22842 0.0
C1399 C 0.21159 0.03103 0.42544 0.0
C1400 C 0.22865 0.04523 0.44272 0.0
C1401 C 0.19891 0.02211 0.48047 0.0
C1402 C 0.18094 1.00654 0.46541 0.0
C1403 C 0.17912 0.99177 0.42617 0.0
C1404 C 0.16216 0.97725 0.41154 0.0
C1405 C 0.1469 0.97728 0.4363 0.0
C1406 C 0.14858 0.99182 0.47578 0.0
C1407 C 0.1655 1.00639 0.4905 0.0
H1408 H 0.13379 0.96601 0.425 0.0
H1409 H 0.29846 0.10749 0.56458 0.0
H1410 H 0.7229 0.55956 0.54372 0.0
H1411 H 0.72352 0.5638 0.67392 0.0
H1412 H 0.71275 0.5097 0.70682 0.0
H1413 H 0.71239 0.50548 0.57686 0.0
H1414 H 0.69389 0.54427 0.75328 0.0
H1415 H 0.72786 0.50632 0.87123 0.0
H1416 H 0.75294 0.50136 0.84293 0.0
H1417 H 0.77899 0.55084 0.72501 0.0
H1418 H 0.7542 0.55624 0.75343 0.0
H1419 H 0.69721 0.51548 0.15242 0.0
H1420 H 0.69651 0.51173 0.02196 0.0
H1421 H 0.70686 0.5658 -0.00683 0.0
H1422 H 0.70721 0.5695 0.12347 0.0
H1423 H 0.72617 0.53173 0.94441 0.0
H1424 H 0.69233 0.56975 0.82591 0.0
H1425 H 0.66724 0.57478 0.85315 0.0
H1426 H 0.64104 0.52543 0.97192 0.0
H1427 H 0.6658 0.51994 0.94441 0.0
C1428 C 0.72118 0.54876 0.57886 0.0
C1429 C 0.7173 0.5321 0.55073 0.0
C1430 C 0.72147 0.55118 0.65298 0.0
C1431 C 0.71802 0.53702 0.6996 0.0
C1432 C 0.71556 0.52083 0.67157 0.0
C1433 C 0.71531 0.51842 0.59743 0.0
C1434 C 0.71485 0.53835 0.77655 0.0
C1435 C 0.70115 0.54185 0.79531 0.0
C1436 C 0.72397 0.5346 0.83066 0.0
C1437 C 0.73907 0.53159 0.81392 0.0
C1438 C 0.73897 0.51618 0.83951 0.0
C1439 C 0.75314 0.51328 0.8234 0.0
C1440 C 0.76752 0.52575 0.782 0.0
C1441 C 0.7678 0.54116 0.75682 0.0
C1442 C 0.75368 0.54413 0.77281 0.0
C1443 C 0.69878 0.52635 0.11817 0.0
C1444 C 0.70254 0.54286 0.14755 0.0
C1445 C 0.69845 0.52422 0.04387 0.0
C1446 C 0.70179 0.53854 -0.00172 0.0
C1447 C 0.70412 0.55456 0.02758 0.0
C1448 C 0.70437 0.55667 0.10193 0.0
C1449 C 0.70515 0.53757 0.92123 0.0
C1450 C 0.71891 0.53415 0.90244 0.0
C1451 C 0.6961 0.54144 0.86713 0.0
C1452 C 0.68105 0.54454 0.88373 0.0
C1453 C 0.68119 0.55994 0.85765 0.0
C1454 C 0.66702 0.56287 0.87314 0.0
C1455 C 0.65259 0.55047 0.91448 0.0
C1456 C 0.65226 0.53507 0.94019 0.0
C1457 C 0.66638 0.53205 0.92475 0.0
H1458 H 0.64164 0.55277 0.92644 0.0
H1459 H 0.77846 0.52347 0.76955 0.0
H1460 H 0.53195 0.20974 0.5398 0.0
H1461 H 0.52509 0.20751 0.66844 0.0
H1462 H 0.53969 0.16664 0.69159 0.0
H1463 H 0.54661 0.16881 0.56318 0.0
H1464 H 0.51061 0.16314 0.78584 0.0
H1465 H 0.57173 0.20475 0.71089 0.0
H1466 H 0.59367 0.22904 0.63321 0.0
H1467 H 0.5747 0.26372 0.70737 0.0
H1468 H 0.55245 0.23952 0.78467 0.0
H1469 H 0.54023 0.17715 0.14705 0.0
H1470 H 0.54138 0.17453 0.01606 0.0
H1471 H 0.53181 0.21877 -0.01153 0.0
H1472 H 0.53065 0.22146 0.11882 0.0
H1473 H 0.55756 0.21979 0.896 0.0
H1474 H 0.4978 0.17886 0.9783 0.0
H1475 H 0.47535 0.15438 0.05377 0.0
H1476 H 0.49116 0.11832 0.96612 0.0
H1477 H 0.51392 0.14269 0.89089 0.0
C1478 C 0.53329 0.20001 0.57215 0.0
C1479 C 0.54028 0.18982 0.54293 0.0
C1480 C 0.52923 0.19864 0.64506 0.0
C1481 C 0.53214 0.18707 0.68867 0.0
C1482 C 0.5374 0.17561 0.65815 0.0
C1483 C 0.54155 0.17704 0.58535 0.0
C1484 C 0.53313 0.18942 0.76661 0.0
C1485 C 0.52089 0.17542 0.8103 0.0
C1486 C 0.54658 0.20554 0.79741 0.0
C1487 C 0.56034 0.2203 0.75298 0.0
C1488 C 0.57219 0.21754 0.71032 0.0
C1489 C 0.58468 0.23128 0.66638 0.0
C1490 C 0.58555 0.24791 0.66519 0.0
C1491 C 0.574 0.25085 0.70825 0.0
C1492 C 0.56145 0.23712 0.75219 0.0
C1493 C 0.53865 0.18645 0.11282 0.0
C1494 C 0.5351 0.19933 0.14213 0.0
C1495 C 0.53925 0.18491 0.0385 0.0
C1496 C 0.53638 0.19629 -0.00647 0.0
C1497 C 0.53394 0.20985 0.02289 0.0
C1498 C 0.53323 0.21132 0.09698 0.0
C1499 C 0.53495 0.19354 0.91572 0.0
C1500 C 0.54721 0.20749 0.87187 0.0
C1501 C 0.52151 0.17737 0.88505 0.0
C1502 C 0.50769 0.16264 0.92955 0.0
C1503 C 0.49659 0.16575 0.97554 0.0
C1504 C 0.48379 0.15189 0.01821 0.0
C1505 C 0.48186 0.13482 0.01489 0.0
C1506 C 0.49269 0.13156 0.96871 0.0
C1507 C 0.50553 0.14539 0.92601 0.0
H1508 H 0.47195 0.1241 0.04797 0.0
H1509 H 0.59521 0.25852 0.63102 0.0
H1510 H 0.84533 0.36507 0.55891 0.0
H1511 H 0.84985 0.36574 0.68884 0.0
H1512 H 0.89145 0.35262 0.65688 0.0
H1513 H 0.88728 0.35232 0.52665 0.0
H1514 H 0.8505 0.34448 0.7962 0.0
H1515 H 0.92688 0.38078 0.76242 0.0
H1516 H 0.94953 0.39759 0.66905 0.0
H1517 H 0.91527 0.41494 0.57579 0.0
H1518 H 0.89257 0.39852 0.66932 0.0
H1519 H 0.91528 0.37104 0.10666 0.0
H1520 H 0.91202 0.37101 0.97611 0.0
H1521 H 0.87002 0.38381 0.00181 0.0
H1522 H 0.87286 0.38335 0.13257 0.0
H1523 H 0.91164 0.39189 0.86542 0.0
H1524 H 0.83509 0.355 0.90041 0.0
H1525 H 0.81266 0.33772 -0.00612 0.0
H1526 H 0.84765 0.32089 0.08407 0.0
H1527 H 0.87012 0.3378 -0.00954 0.0
C1528 C 0.85512 0.36187 0.5797 0.0
C1529 C 0.86628 0.35909 0.53307 0.0
C1530 C 0.85767 0.36224 0.65385 0.0
C1531 C 0.87133 0.35974 0.68191 0.0
C1532 C 0.88112 0.35498 0.63581 0.0
C1533 C 0.87868 0.35474 0.56164 0.0
C1534 C 0.87659 0.36414 0.75784 0.0
C1535 C 0.8638 0.35493 0.81136 0.0
C1536 C 0.89407 0.37765 0.77723 0.0
C1537 C 0.90795 0.38825 0.72251 0.0
C1538 C 0.92424 0.38829 0.7223 0.0
C1539 C 0.93708 0.39774 0.66931 0.0
C1540 C 0.93382 0.40727 0.61639 0.0
C1541 C 0.91776 0.40751 0.6167 0.0
C1542 C 0.90491 0.39814 0.66972 0.0
C1543 C 0.90568 0.37432 0.08441 0.0
C1544 C 0.89398 0.37674 0.12934 0.0
C1545 C 0.90389 0.37436 0.00987 0.0
C1546 C 0.89046 0.37691 0.97978 0.0
C1547 C 0.88021 0.38144 0.02442 0.0
C1548 C 0.88187 0.38121 0.09893 0.0
C1549 C 0.88549 0.37233 0.90365 0.0
C1550 C 0.89834 0.38146 0.85017 0.0
C1551 C 0.8681 0.35868 0.88419 0.0
C1552 C 0.85434 0.34781 0.93884 0.0
C1553 C 0.83793 0.3475 0.93988 0.0
C1554 C 0.82522 0.33779 -0.00706 0.0
C1555 C 0.82875 0.32827 0.04504 0.0
C1556 C 0.84494 0.32831 0.04383 0.0
C1557 C 0.85767 0.33795 -0.00923 0.0
H1558 H 0.81894 0.32083 0.08627 0.0
H1559 H 0.94374 0.41451 0.57528 0.0
H1560 H 0.35755 0.86707 0.45122 0.0
H1561 H 0.35361 0.85813 0.32438 0.0
H1562 H 0.40804 0.86885 0.31623 0.0
H1563 H 0.41215 0.87819 0.4418 0.0
H1564 H 0.40196 0.88747 0.21843 0.0
H1565 H 0.37375 0.82655 0.29455 0.0
H1566 H 0.35267 0.79958 0.36256 0.0
H1567 H 0.30838 0.8006 0.26281 0.0
H1568 H 0.32919 0.82771 0.19471 0.0
H1569 H 0.39618 0.86668 0.84879 0.0
H1570 H 0.3999 0.8653 0.97855 0.0
H1571 H 0.34626 0.85533 0.01313 0.0
H1572 H 0.34227 0.85612 0.88315 0.0
H1573 H 0.3535 0.83399 0.09692 0.0
H1574 H 0.38201 0.89697 0.03333 0.0
H1575 H 0.40314 0.92387 0.96487 0.0
H1576 H 0.4471 0.91882 0.04396 0.0
H1577 H 0.42619 0.89173 0.1121 0.0
C1578 C 0.36853 0.86725 0.42233 0.0
C1579 C 0.38524 0.87365 0.45503 0.0
C1580 C 0.36624 0.86199 0.35043 0.0
C1581 C 0.38057 0.86285 0.31141 0.0
C1582 C 0.39689 0.86817 0.34567 0.0
C1583 C 0.39923 0.87359 0.41702 0.0
C1584 C 0.37943 0.86085 0.23288 0.0
C1585 C 0.3916 0.8756 0.19179 0.0
C1586 C 0.36564 0.84554 0.19878 0.0
C1587 C 0.35305 0.82925 0.23984 0.0
C1588 C 0.35951 0.82112 0.2875 0.0
C1589 C 0.34761 0.80577 0.32595 0.0
C1590 C 0.32919 0.79839 0.31705 0.0
C1591 C 0.32265 0.80633 0.26962 0.0
C1592 C 0.33449 0.82167 0.23096 0.0
C1593 C 0.38523 0.86426 0.88421 0.0
C1594 C 0.36898 0.86161 0.85666 0.0
C1595 C 0.38734 0.86341 0.95801 0.0
C1596 C 0.37337 0.8603 0.00494 0.0
C1597 C 0.35712 0.85763 0.97741 0.0
C1598 C 0.35492 0.85824 0.90355 0.0
C1599 C 0.37592 0.86066 0.08309 0.0
C1600 C 0.364 0.84569 0.12388 0.0
C1601 C 0.38994 0.87578 0.11727 0.0
C1602 C 0.40253 0.89223 0.0772 0.0
C1603 C 0.39617 0.90154 0.03576 0.0
C1604 C 0.40811 0.91682 -0.00295 0.0
C1605 C 0.42645 0.92302 -0.0001 0.0
C1606 C 0.43289 0.91399 0.04171 0.0
C1607 C 0.42101 0.89868 0.08041 0.0
H1608 H 0.43566 0.93484 0.96985 0.0
H1609 H 0.32 0.78651 0.34688 0.0
H1610 H 0.24015 0.5676 0.89416 0.0
H1611 H 0.23636 0.56419 0.02464 0.0
H1612 H 0.18099 0.52394 -0.00395 0.0
H1613 H 0.18482 0.52692 0.86544 0.0
H1614 H 0.21474 0.56443 0.13493 0.0
H1615 H 0.17308 0.4885 0.0919 0.0
H1616 H 0.16729 0.46725 -0.00752 0.0
H1617 H 0.22054 0.50093 0.91266 0.0
H1618 H 0.22673 0.5222 0.01205 0.0
H1619 H 0.1742 0.49806 0.44274 0.0
H1620 H 0.17768 0.50232 0.31241 0.0
H1621 H 0.23288 0.54303 0.34108 0.0
H1622 H 0.22937 0.53918 0.47153 0.0
H1623 H 0.19915 0.50243 0.20203 0.0
H1624 H 0.24082 0.57873 0.23983 0.0
H1625 H 0.24699 0.60108 0.33485 0.0
H1626 H 0.19476 0.56743 0.42426 0.0
H1627 H 0.18817 0.54503 0.32913 0.0
C1628 C 0.22705 0.55837 0.91575 0.0
C1629 C 0.21287 0.54718 0.87006 0.0
C1630 C 0.22489 0.55651 -0.00974 0.0
C1631 C 0.20853 0.54351 0.01961 0.0
C1632 C 0.19381 0.53381 0.97411 0.0
C1633 C 0.19601 0.53553 0.89966 0.0
C1634 C 0.20763 0.5382 0.09576 0.0
C1635 C 0.21147 0.55094 0.14971 0.0
C1636 C 0.20333 0.52056 0.11466 0.0
C1637 C 0.20029 0.50699 0.05903 0.0
C1638 C 0.18361 0.49123 0.05366 0.0
C1639 C 0.18024 0.47924 -0.00284 0.0
C1640 C 0.1935 0.48285 0.94604 0.0
C1641 C 0.21026 0.49823 0.95208 0.0
C1642 C 0.21372 0.51023 0.00852 0.0
C1643 C 0.1872 0.50758 0.42113 0.0
C1644 C 0.20143 0.51858 0.467 0.0
C1645 C 0.18917 0.50997 0.34671 0.0
C1646 C 0.20539 0.52331 0.31753 0.0
C1647 C 0.22015 0.53293 0.3629 0.0
C1648 C 0.21815 0.53067 0.43727 0.0
C1649 C 0.20622 0.52866 0.24146 0.0
C1650 C 0.2024 0.51592 0.18741 0.0
C1651 C 0.21064 0.54635 0.22251 0.0
C1652 C 0.21408 0.56015 0.27771 0.0
C1653 C 0.2306 0.57618 0.27941 0.0
C1654 C 0.23418 0.58884 0.33337 0.0
C1655 C 0.2213 0.58565 0.38572 0.0
C1656 C 0.20474 0.56986 0.38381 0.0
C1657 C 0.20108 0.55719 0.32987 0.0
H1658 H 0.22414 0.59541 0.42769 0.0
H1659 H 0.19081 0.47372 0.90179 0.0
H1660 H 0.58337 0.70637 0.46075 0.0
H1661 H 0.58111 0.70777 0.32995 0.0
H1662 H 0.53451 0.71345 0.35515 0.0
H1663 H 0.53687 0.71234 0.48554 0.0
H1664 H 0.55244 0.6819 0.2611 0.0
H1665 H 0.52932 0.73359 0.20857 0.0
H1666 H 0.53532 0.76295 0.25417 0.0
H1667 H 0.58765 0.77498 0.32219 0.0
H1668 H 0.58206 0.74581 0.27615 0.0
H1669 H 0.51247 0.69907 0.90932 0.0
H1670 H 0.51569 0.69863 0.04001 0.0
H1671 H 0.56182 0.69228 0.01157 0.0
H1672 H 0.55842 0.6923 0.88142 0.0
H1673 H 0.54463 0.72447 0.10685 0.0
H1674 H 0.56784 0.67289 0.15853 0.0
H1675 H 0.56181 0.64351 0.11315 0.0
H1676 H 0.50927 0.63124 0.04728 0.0
H1677 H 0.51488 0.66043 0.09314 0.0
C1678 C 0.57298 0.70844 0.43827 0.0
C1679 C 0.56012 0.70897 0.48267 0.0
C1680 C 0.57168 0.70919 0.3638 0.0
C1681 C 0.5576 0.7106 0.33327 0.0
C1682 C 0.54557 0.71253 0.37784 0.0
C1683 C 0.54689 0.71183 0.45222 0.0
C1684 C 0.554 0.70765 0.2557 0.0
C1685 C 0.55106 0.69135 0.22688 0.0
C1686 C 0.55159 0.71973 0.21232 0.0
C1687 C 0.55519 0.73742 0.23945 0.0
C1688 C 0.54213 0.74253 0.23297 0.0
C1689 C 0.54546 0.75913 0.25896 0.0
C1690 C 0.56183 0.77079 0.29126 0.0
C1691 C 0.57494 0.7659 0.29742 0.0
C1692 C 0.57169 0.74931 0.2715 0.0
C1693 C 0.52296 0.69707 0.93116 0.0
C1694 C 0.53537 0.69599 0.88583 0.0
C1695 C 0.52483 0.69689 0.00554 0.0
C1696 C 0.53904 0.69555 0.03506 0.0
C1697 C 0.55066 0.69316 -0.01027 0.0
C1698 C 0.54874 0.69324 0.91547 0.0
C1699 C 0.54302 0.69871 0.11233 0.0
C1700 C 0.54604 0.71504 0.14107 0.0
C1701 C 0.54549 0.68666 0.15567 0.0
C1702 C 0.54186 0.66894 0.12871 0.0
C1703 C 0.55497 0.6639 0.13465 0.0
C1704 C 0.55163 0.64728 0.10878 0.0
C1705 C 0.53519 0.63554 0.07715 0.0
C1706 C 0.52203 0.64037 0.07153 0.0
C1707 C 0.52529 0.65697 0.09735 0.0
H1708 H 0.53264 0.62269 0.05711 0.0
H1709 H 0.56437 0.78364 0.31138 0.0
loop_
_geom_bond_atom_site_label_1
_geom_bond_atom_site_label_2
_geom_bond_distance
_geom_bond_site_symmetry_2
_ccdc_geom_bond_type
Nd0 C2 2.836 . S
Nd0 O20 2.500 1_556 S
Nd0 O21 2.492 . S
Nd0 O22 2.487 . S
Nd0 O23 2.682 . S
Nd0 O24 2.410 . S
Nd0 O29 2.414 1_556 S
Nd0 O31 2.424 . S
Nd1 C11 2.836 . S
Nd1 O23 2.414 1_654 S
Nd1 O25 2.424 . S
Nd1 O26 2.500 1_554 S
Nd1 O27 2.492 . S
Nd1 O28 2.503 . S
Nd1 O29 2.682 1_655 S
Nd1 O30 2.410 1_655 S
C2 Nd0 2.836 . S
C2 C3 1.498 1_556 S
C2 O20 1.258 1_556 S
C2 O21 1.239 . S
C3 C2 1.498 1_554 S
C3 C4 1.371 . S
C3 C8 1.403 1_554 S
C4 C3 1.371 . S
C4 C5 1.392 . S
C4 H32 0.930 . S
C5 C4 1.392 . S
C5 C6 1.398 . S
C5 H33 0.929 . S
C6 C5 1.398 . S
C6 C7 1.352 1_554 S
C7 C6 1.352 1_556 S
C7 C8 1.384 . S
C7 H34 0.930 . S
C8 C3 1.403 1_556 S
C8 C7 1.384 . S
C8 H35 0.929 . S
C9 O22 1.241 . S
C9 O23 1.273 . S
C10 O24 1.251 1_654 S
C10 O25 1.268 . S
C11 Nd1 2.836 . S
C11 C12 1.498 . S
C11 O26 1.258 1_554 S
C11 O27 1.239 . S
C12 C11 1.498 . S
C12 C13 1.366 1_554 S
C12 C17 1.407 . S
C13 C12 1.366 1_556 S
C13 C14 1.392 . S
C13 H36 0.930 . S
C14 C13 1.392 . S
C14 C15 1.398 1_556 S
C14 H37 0.929 . S
C15 C14 1.398 1_554 S
C15 C16 1.352 . S
C16 C15 1.352 . S
C16 C17 1.384 . S
C16 H38 0.930 . S
C17 C12 1.407 . S
C17 C16 1.384 . S
C17 H39 0.929 . S
C18 O28 1.218 1_455 S
C18 O29 1.273 . S
C19 O30 1.252 1_556 S
C19 O31 1.268 . S
O20 Nd0 2.500 1_554 S
O20 C2 1.258 1_554 S
O21 Nd0 2.492 . S
O21 C2 1.239 . S
O22 Nd0 2.487 . S
O22 C9 1.241 . S
O23 Nd0 2.682 . S
O23 Nd1 2.414 1_456 S
O23 C9 1.273 . S
O24 Nd0 2.410 . S
O24 C10 1.251 1_456 S
O25 Nd1 2.424 . S
O25 C10 1.268 . S
O26 Nd1 2.500 1_556 S
O26 C11 1.258 1_556 S
O27 Nd1 2.492 . S
O27 C11 1.239 . S
O28 Nd1 2.503 . S
O28 C18 1.218 1_655 S
O29 Nd0 2.414 1_554 S
O29 Nd1 2.682 1_455 S
O29 C18 1.273 . S
O30 Nd1 2.410 1_455 S
O30 C19 1.252 1_554 S
O31 Nd0 2.424 . S
O31 C19 1.268 . S
H32 C4 0.930 . S
H33 C5 0.929 . S
H34 C7 0.930 . S
H35 C8 0.929 . S
H36 C13 0.930 . S
H37 C14 0.929 . S
H38 C16 0.930 . S
H39 C17 0.929 . S
Nd40 C42 2.836 . S
Nd40 O60 2.500 1_556 S
Nd40 O61 2.492 . S
Nd40 O62 2.487 . S
Nd40 O63 2.682 . S
Nd40 O64 2.410 . S
Nd40 O69 2.414 1_556 S
Nd40 O71 2.424 . S
Nd41 C51 2.836 . S
Nd41 O63 2.414 1_554 S
Nd41 O65 2.424 . S
Nd41 O66 2.500 1_554 S
Nd41 O67 2.492 . S
Nd41 O68 2.487 . S
Nd41 O69 2.682 . S
Nd41 O70 2.410 . S
C42 Nd40 2.836 . S
C42 C43 1.498 1_556 S
C42 O60 1.258 1_556 S
C42 O61 1.239 . S
C43 C42 1.498 1_554 S
C43 C44 1.370 . S
C43 C48 1.404 1_554 S
C44 C43 1.370 . S
C44 C45 1.392 . S
C44 H72 0.930 . S
C45 C44 1.392 . S
C45 C46 1.398 . S
C45 H73 0.929 . S
C46 C45 1.398 . S
C46 C47 1.352 1_554 S
C47 C46 1.352 1_556 S
C47 C48 1.384 . S
C47 H74 0.930 . S
C48 C43 1.404 1_556 S
C48 C47 1.384 . S
C48 H75 0.929 . S
C49 O62 1.241 . S
C49 O63 1.273 . S
C50 O64 1.251 1_554 S
C50 O65 1.268 . S
C51 Nd41 2.836 . S
C51 C52 1.498 . S
C51 O66 1.258 1_554 S
C51 O67 1.239 . S
C52 C51 1.498 . S
C52 C53 1.366 1_554 S
C52 C57 1.407 . S
C53 C52 1.366 1_556 S
C53 C54 1.392 . S
C53 H76 0.930 . S
C54 C53 1.392 . S
C54 C55 1.398 1_556 S
C54 H77 0.929 . S
C55 C54 1.398 1_554 S
C55 C56 1.352 . S
C56 C55 1.352 . S
C56 C57 1.384 . S
C56 H78 0.930 . S
C57 C52 1.407 . S
C57 C56 1.384 . S
C57 H79 0.929 . S
C58 O68 1.241 . S
C58 O69 1.273 . S
C59 O70 1.251 1_556 S
C59 O71 1.268 . S
O60 Nd40 2.500 1_554 S
O60 C42 1.258 1_554 S
O61 Nd40 2.492 . S
O61 C42 1.239 . S
O62 Nd40 2.487 . S
O62 C49 1.241 . S
O63 Nd40 2.682 . S
O63 Nd41 2.414 1_556 S
O63 C49 1.273 . S
O64 Nd40 2.410 . S
O64 C50 1.251 1_556 S
O65 Nd41 2.424 . S
O65 C50 1.268 . S
O66 Nd41 2.500 1_556 S
O66 C51 1.258 1_556 S
O67 Nd41 2.492 . S
O67 C51 1.239 . S
O68 Nd41 2.487 . S
O68 C58 1.241 . S
O69 Nd40 2.414 1_554 S
O69 Nd41 2.682 . S
O69 C58 1.273 . S
O70 Nd41 2.410 . S
O70 C59 1.251 1_554 S
O71 Nd40 2.424 . S
O71 C59 1.268 . S
H72 C44 0.930 . S
H73 C45 0.929 . S
H74 C47 0.930 . S
H75 C48 0.929 . S
H76 C53 0.930 . S
H77 C54 0.929 . S
H78 C56 0.930 . S
H79 C57 0.929 . S
Nd80 C82 2.836 . S
Nd80 O100 2.500 1_556 S
Nd80 O101 2.492 . S
Nd80 O102 2.493 . S
Nd80 O103 2.682 1_565 S
Nd80 O104 2.410 1_565 S
Nd80 O109 2.414 1_566 S
Nd80 O111 2.424 . S
Nd81 C91 2.836 . S
Nd81 O103 2.414 1_554 S
Nd81 O105 2.424 . S
Nd81 O106 2.500 1_554 S
Nd81 O107 2.492 . S
Nd81 O108 2.487 . S
Nd81 O109 2.682 . S
Nd81 O110 2.410 . S
C82 Nd80 2.836 . S
C82 C83 1.498 1_556 S
C82 O100 1.258 1_556 S
C82 O101 1.239 . S
C83 C82 1.498 1_554 S
C83 C84 1.369 . S
C83 C88 1.404 1_554 S
C84 C83 1.369 . S
C84 C85 1.392 . S
C84 H112 0.930 . S
C85 C84 1.392 . S
C85 C86 1.398 . S
C85 H113 0.929 . S
C86 C85 1.398 . S
C86 C87 1.352 1_554 S
C87 C86 1.352 1_556 S
C87 C88 1.384 . S
C87 H114 0.930 . S
C88 C83 1.404 1_556 S
C88 C87 1.384 . S
C88 H115 0.929 . S
C89 O102 1.219 1_545 S
C89 O103 1.273 . S
C90 O104 1.251 1_554 S
C90 O105 1.268 . S
C91 Nd81 2.836 . S
C91 C92 1.498 . S
C91 O106 1.258 1_554 S
C91 O107 1.239 . S
C92 C91 1.498 . S
C92 C93 1.366 1_554 S
C92 C97 1.407 . S
C93 C92 1.366 1_556 S
C93 C94 1.392 . S
C93 H116 0.930 . S
C94 C93 1.392 . S
C94 C95 1.398 1_556 S
C94 H117 0.929 . S
C95 C94 1.398 1_554 S
C95 C96 1.352 . S
C96 C95 1.352 . S
C96 C97 1.384 . S
C96 H118 0.930 . S
C97 C92 1.407 . S
C97 C96 1.384 . S
C97 H119 0.929 . S
C98 O108 1.241 . S
C98 O109 1.273 . S
C99 O110 1.251 1_566 S
C99 O111 1.268 . S
O100 Nd80 2.500 1_554 S
O100 C82 1.258 1_554 S
O101 Nd80 2.492 . S
O101 C82 1.239 . S
O102 Nd80 2.493 . S
O102 C89 1.219 1_565 S
O103 Nd80 2.682 1_545 S
O103 Nd81 2.414 1_556 S
O103 C89 1.273 . S
O104 Nd80 2.410 1_545 S
O104 C90 1.251 1_556 S
O105 Nd81 2.424 . S
O105 C90 1.268 . S
O106 Nd81 2.500 1_556 S
O106 C91 1.258 1_556 S
O107 Nd81 2.492 . S
O107 C91 1.239 . S
O108 Nd81 2.487 . S
O108 C98 1.241 . S
O109 Nd80 2.414 1_544 S
O109 Nd81 2.682 . S
O109 C98 1.273 . S
O110 Nd81 2.410 . S
O110 C99 1.251 1_544 S
O111 Nd80 2.424 . S
O111 C99 1.268 . S
H112 C84 0.930 . S
H113 C85 0.929 . S
H114 C87 0.930 . S
H115 C88 0.929 . S
H116 C93 0.930 . S
H117 C94 0.929 . S
H118 C96 0.930 . S
H119 C97 0.929 . S
Nd120 C122 2.836 . S
Nd120 O140 2.500 . S
Nd120 O141 2.492 . S
Nd120 O142 2.487 . S
Nd120 O143 2.682 . S
Nd120 O144 2.410 . S
Nd120 O149 2.414 . S
Nd120 O151 2.424 . S
Nd121 C131 2.836 . S
Nd121 O143 2.414 . S
Nd121 O145 2.424 . S
Nd121 O146 2.500 . S
Nd121 O147 2.492 . S
Nd121 O148 2.487 . S
Nd121 O149 2.682 . S
Nd121 O150 2.410 . S
C122 Nd120 2.836 . S
C122 C123 1.498 . S
C122 O140 1.258 . S
C122 O141 1.239 . S
C123 C122 1.498 . S
C123 C124 1.366 . S
C123 C128 1.407 . S
C124 C123 1.366 . S
C124 C125 1.392 . S
C124 H152 0.930 . S
C125 C124 1.392 . S
C125 C126 1.398 . S
C125 H153 0.929 . S
C126 C125 1.398 . S
C126 C127 1.352 . S
C127 C126 1.352 . S
C127 C128 1.384 . S
C127 H154 0.930 . S
C128 C123 1.407 . S
C128 C127 1.384 . S
C128 H155 0.929 . S
C129 O142 1.241 . S
C129 O143 1.273 . S
C130 O144 1.251 . S
C130 O145 1.268 . S
C131 Nd121 2.836 . S
C131 C132 1.498 . S
C131 O146 1.258 . S
C131 O147 1.239 . S
C132 C131 1.498 . S
C132 C133 1.366 . S
C132 C137 1.407 . S
C133 C132 1.366 . S
C133 C134 1.392 . S
C133 H156 0.930 . S
C134 C133 1.392 . S
C134 C135 1.398 . S
C134 H157 0.929 . S
C135 C134 1.398 . S
C135 C136 1.352 . S
C136 C135 1.352 . S
C136 C137 1.384 . S
C136 H158 0.930 . S
C137 C132 1.407 . S
C137 C136 1.384 . S
C137 H159 0.929 . S
C138 O148 1.241 . S
C138 O149 1.273 . S
C139 O150 1.251 . S
C139 O151 1.268 . S
O140 Nd120 2.500 . S
O140 C122 1.258 . S
O141 Nd120 2.492 . S
O141 C122 1.239 . S
O142 Nd120 2.487 . S
O142 C129 1.241 . S
O143 Nd120 2.682 . S
O143 Nd121 2.414 . S
O143 C129 1.273 . S
O144 Nd120 2.410 . S
O144 C130 1.251 . S
O145 Nd121 2.424 . S
O145 C130 1.268 . S
O146 Nd121 2.500 . S
O146 C131 1.258 . S
O147 Nd121 2.492 . S
O147 C131 1.239 . S
O148 Nd121 2.487 . S
O148 C138 1.241 . S
O149 Nd120 2.414 . S
O149 Nd121 2.682 . S
O149 C138 1.273 . S
O150 Nd121 2.410 . S
O150 C139 1.251 . S
O151 Nd120 2.424 . S
O151 C139 1.268 . S
H152 C124 0.930 . S
H153 C125 0.929 . S
H154 C127 0.930 . S
H155 C128 0.929 . S
H156 C133 0.930 . S
H157 C134 0.929 . S
H158 C136 0.930 . S
H159 C137 0.929 . S
Nd160 C162 2.836 . S
Nd160 O180 2.500 . S
Nd160 O181 2.492 . S
Nd160 O182 2.487 . S
Nd160 O183 2.682 . S
Nd160 O184 2.410 . S
Nd160 O189 2.414 . S
Nd160 O191 2.424 . S
Nd161 C171 2.836 . S
Nd161 O183 2.414 . S
Nd161 O185 2.424 . S
Nd161 O186 2.500 . S
Nd161 O187 2.492 . S
Nd161 O188 2.487 . S
Nd161 O189 2.682 . S
Nd161 O190 2.410 . S
C162 Nd160 2.836 . S
C162 C163 1.498 . S
C162 O180 1.258 . S
C162 O181 1.239 . S
C163 C162 1.498 . S
C163 C164 1.366 . S
C163 C168 1.407 . S
C164 C163 1.366 . S
C164 C165 1.392 . S
C164 H192 0.930 . S
C165 C164 1.392 . S
C165 C166 1.398 . S
C165 H193 0.929 . S
C166 C165 1.398 . S
C166 C167 1.352 . S
C167 C166 1.352 . S
C167 C168 1.384 . S
C167 H194 0.930 . S
C168 C163 1.407 . S
C168 C167 1.384 . S
C168 H195 0.929 . S
C169 O182 1.241 . S
C169 O183 1.273 . S
C170 O184 1.251 . S
C170 O185 1.268 . S
C171 Nd161 2.836 . S
C171 C172 1.498 . S
C171 O186 1.258 . S
C171 O187 1.239 . S
C172 C171 1.498 . S
C172 C173 1.366 . S
C172 C177 1.407 . S
C173 C172 1.366 . S
C173 C174 1.392 . S
C173 H196 0.930 . S
C174 C173 1.392 . S
C174 C175 1.398 . S
C174 H197 0.929 . S
C175 C174 1.398 . S
C175 C176 1.352 . S
C176 C175 1.352 . S
C176 C177 1.384 . S
C176 H198 0.930 . S
C177 C172 1.407 . S
C177 C176 1.384 . S
C177 H199 0.929 . S
C178 O188 1.241 . S
C178 O189 1.273 . S
C179 O190 1.251 . S
C179 O191 1.268 . S
O180 Nd160 2.500 . S
O180 C162 1.258 . S
O181 Nd160 2.492 . S
O181 C162 1.239 . S
O182 Nd160 2.487 . S
O182 C169 1.241 . S
O183 Nd160 2.682 . S
O183 Nd161 2.414 . S
O183 C169 1.273 . S
O184 Nd160 2.410 . S
O184 C170 1.251 . S
O185 Nd161 2.424 . S
O185 C170 1.268 . S
O186 Nd161 2.500 . S
O186 C171 1.258 . S
O187 Nd161 2.492 . S
O187 C171 1.239 . S
O188 Nd161 2.487 . S
O188 C178 1.241 . S
O189 Nd160 2.414 . S
O189 Nd161 2.682 . S
O189 C178 1.273 . S
O190 Nd161 2.410 . S
O190 C179 1.251 . S
O191 Nd160 2.424 . S
O191 C179 1.268 . S
H192 C164 0.930 . S
H193 C165 0.929 . S
H194 C167 0.930 . S
H195 C168 0.929 . S
H196 C173 0.930 . S
H197 C174 0.929 . S
H198 C176 0.930 . S
H199 C177 0.929 . S
Nd200 C202 2.836 . S
Nd200 O220 2.500 . S
Nd200 O221 2.492 . S
Nd200 O222 2.487 . S
Nd200 O223 2.682 . S
Nd200 O224 2.410 . S
Nd200 O229 2.414 . S
Nd200 O231 2.424 . S
Nd201 C211 2.836 . S
Nd201 O223 2.414 . S
Nd201 O225 2.424 . S
Nd201 O226 2.500 . S
Nd201 O227 2.492 . S
Nd201 O228 2.487 . S
Nd201 O229 2.682 . S
Nd201 O230 2.410 . S
C202 Nd200 2.836 . S
C202 C203 1.498 . S
C202 O220 1.258 . S
C202 O221 1.239 . S
C203 C202 1.498 . S
C203 C204 1.366 . S
C203 C208 1.407 . S
C204 C203 1.366 . S
C204 C205 1.392 . S
C204 H232 0.930 . S
C205 C204 1.392 . S
C205 C206 1.398 . S
C205 H233 0.929 . S
C206 C205 1.398 . S
C206 C207 1.352 . S
C207 C206 1.352 . S
C207 C208 1.384 . S
C207 H234 0.930 . S
C208 C203 1.407 . S
C208 C207 1.384 . S
C208 H235 0.929 . S
C209 O222 1.241 . S
C209 O223 1.273 . S
C210 O224 1.251 . S
C210 O225 1.268 . S
C211 Nd201 2.836 . S
C211 C212 1.498 . S
C211 O226 1.258 . S
C211 O227 1.239 . S
C212 C211 1.498 . S
C212 C213 1.366 . S
C212 C217 1.407 . S
C213 C212 1.366 . S
C213 C214 1.392 . S
C213 H236 0.930 . S
C214 C213 1.392 . S
C214 C215 1.398 . S
C214 H237 0.929 . S
C215 C214 1.398 . S
C215 C216 1.352 . S
C216 C215 1.352 . S
C216 C217 1.384 . S
C216 H238 0.930 . S
C217 C212 1.407 . S
C217 C216 1.384 . S
C217 H239 0.929 . S
C218 O228 1.241 . S
C218 O229 1.273 . S
C219 O230 1.251 . S
C219 O231 1.268 . S
O220 Nd200 2.500 . S
O220 C202 1.258 . S
O221 Nd200 2.492 . S
O221 C202 1.239 . S
O222 Nd200 2.487 . S
O222 C209 1.241 . S
O223 Nd200 2.682 . S
O223 Nd201 2.414 . S
O223 C209 1.273 . S
O224 Nd200 2.410 . S
O224 C210 1.251 . S
O225 Nd201 2.424 . S
O225 C210 1.268 . S
O226 Nd201 2.500 . S
O226 C211 1.258 . S
O227 Nd201 2.492 . S
O227 C211 1.239 . S
O228 Nd201 2.487 . S
O228 C218 1.241 . S
O229 Nd200 2.414 . S
O229 Nd201 2.682 . S
O229 C218 1.273 . S
O230 Nd201 2.410 . S
O230 C219 1.251 . S
O231 Nd200 2.424 . S
O231 C219 1.268 . S
H232 C204 0.930 . S
H233 C205 0.929 . S
H234 C207 0.930 . S
H235 C208 0.929 . S
H236 C213 0.930 . S
H237 C214 0.929 . S
H238 C216 0.930 . S
H239 C217 0.929 . S
Nd240 C242 2.836 . S
Nd240 O260 2.500 . S
Nd240 O261 2.492 . S
Nd240 O262 2.487 . S
Nd240 O263 2.682 . S
Nd240 O264 2.410 . S
Nd240 O269 2.414 . S
Nd240 O271 2.424 . S
Nd241 C251 2.836 . S
Nd241 O263 2.414 . S
Nd241 O265 2.424 . S
Nd241 O266 2.500 . S
Nd241 O267 2.492 . S
Nd241 O268 2.487 . S
Nd241 O269 2.682 . S
Nd241 O270 2.410 . S
C242 Nd240 2.836 . S
C242 C243 1.498 . S
C242 O260 1.258 . S
C242 O261 1.239 . S
C243 C242 1.498 . S
C243 C244 1.366 . S
C243 C248 1.407 . S
C244 C243 1.366 . S
C244 C245 1.392 . S
C244 H272 0.930 . S
C245 C244 1.392 . S
C245 C246 1.398 . S
C245 H273 0.929 . S
C246 C245 1.398 . S
C246 C247 1.352 . S
C247 C246 1.352 . S
C247 C248 1.384 . S
C247 H274 0.930 . S
C248 C243 1.407 . S
C248 C247 1.384 . S
C248 H275 0.929 . S
C249 O262 1.241 . S
C249 O263 1.273 . S
C250 O264 1.251 . S
C250 O265 1.268 . S
C251 Nd241 2.836 . S
C251 C252 1.498 . S
C251 O266 1.258 . S
C251 O267 1.239 . S
C252 C251 1.498 . S
C252 C253 1.366 . S
C252 C257 1.407 . S
C253 C252 1.366 . S
C253 C254 1.392 . S
C253 H276 0.930 . S
C254 C253 1.392 . S
C254 C255 1.398 . S
C254 H277 0.929 . S
C255 C254 1.398 . S
C255 C256 1.352 . S
C256 C255 1.352 . S
C256 C257 1.384 . S
C256 H278 0.930 . S
C257 C252 1.407 . S
C257 C256 1.384 . S
C257 H279 0.929 . S
C258 O268 1.241 . S
C258 O269 1.273 . S
C259 O270 1.251 . S
C259 O271 1.268 . S
O260 Nd240 2.500 . S
O260 C242 1.258 . S
O261 Nd240 2.492 . S
O261 C242 1.239 . S
O262 Nd240 2.487 . S
O262 C249 1.241 . S
O263 Nd240 2.682 . S
O263 Nd241 2.414 . S
O263 C249 1.273 . S
O264 Nd240 2.410 . S
O264 C250 1.251 . S
O265 Nd241 2.424 . S
O265 C250 1.268 . S
O266 Nd241 2.500 . S
O266 C251 1.258 . S
O267 Nd241 2.492 . S
O267 C251 1.239 . S
O268 Nd241 2.487 . S
O268 C258 1.241 . S
O269 Nd240 2.414 . S
O269 Nd241 2.682 . S
O269 C258 1.273 . S
O270 Nd241 2.410 . S
O270 C259 1.251 . S
O271 Nd240 2.424 . S
O271 C259 1.268 . S
H272 C244 0.930 . S
H273 C245 0.929 . S
H274 C247 0.930 . S
H275 C248 0.929 . S
H276 C253 0.930 . S
H277 C254 0.929 . S
H278 C256 0.930 . S
H279 C257 0.929 . S
Nd280 C282 2.836 . S
Nd280 O300 2.500 . S
Nd280 O301 2.492 . S
Nd280 O302 2.487 . S
Nd280 O303 2.682 . S
Nd280 O304 2.410 . S
Nd280 O309 2.414 . S
Nd280 O311 2.424 . S
Nd281 C291 2.836 . S
Nd281 O303 2.414 . S
Nd281 O305 2.424 . S
Nd281 O306 2.500 . S
Nd281 O307 2.492 . S
Nd281 O308 2.487 . S
Nd281 O309 2.682 . S
Nd281 O310 2.410 . S
C282 Nd280 2.836 . S
C282 C283 1.498 . S
C282 O300 1.258 . S
C282 O301 1.239 . S
C283 C282 1.498 . S
C283 C284 1.366 . S
C283 C288 1.407 . S
C284 C283 1.366 . S
C284 C285 1.392 . S
C284 H312 0.930 . S
C285 C284 1.392 . S
C285 C286 1.398 . S
C285 H313 0.929 . S
C286 C285 1.398 . S
C286 C287 1.352 . S
C287 C286 1.352 . S
C287 C288 1.384 . S
C287 H314 0.930 . S
C288 C283 1.407 . S
C288 C287 1.384 . S
C288 H315 0.929 . S
C289 O302 1.241 . S
C289 O303 1.273 . S
C290 O304 1.251 . S
C290 O305 1.268 . S
C291 Nd281 2.836 . S
C291 C292 1.498 . S
C291 O306 1.258 . S
C291 O307 1.239 . S
C292 C291 1.498 . S
C292 C293 1.366 . S
C292 C297 1.407 . S
C293 C292 1.366 . S
C293 C294 1.392 . S
C293 H316 0.930 . S
C294 C293 1.392 . S
C294 C295 1.398 . S
C294 H317 0.929 . S
C295 C294 1.398 . S
C295 C296 1.352 . S
C296 C295 1.352 . S
C296 C297 1.384 . S
C296 H318 0.930 . S
C297 C292 1.407 . S
C297 C296 1.384 . S
C297 H319 0.929 . S
C298 O308 1.241 . S
C298 O309 1.273 . S
C299 O310 1.251 . S
C299 O311 1.268 . S
O300 Nd280 2.500 . S
O300 C282 1.258 . S
O301 Nd280 2.492 . S
O301 C282 1.239 . S
O302 Nd280 2.487 . S
O302 C289 1.241 . S
O303 Nd280 2.682 . S
O303 Nd281 2.414 . S
O303 C289 1.273 . S
O304 Nd280 2.410 . S
O304 C290 1.251 . S
O305 Nd281 2.424 . S
O305 C290 1.268 . S
O306 Nd281 2.500 . S
O306 C291 1.258 . S
O307 Nd281 2.492 . S
O307 C291 1.239 . S
O308 Nd281 2.487 . S
O308 C298 1.241 . S
O309 Nd280 2.414 . S
O309 Nd281 2.682 . S
O309 C298 1.273 . S
O310 Nd281 2.410 . S
O310 C299 1.251 . S
O311 Nd280 2.424 . S
O311 C299 1.268 . S
H312 C284 0.930 . S
H313 C285 0.929 . S
H314 C287 0.930 . S
H315 C288 0.929 . S
H316 C293 0.930 . S
H317 C294 0.929 . S
H318 C296 0.930 . S
H319 C297 0.929 . S
Nd320 C322 2.836 . S
Nd320 O340 2.500 . S
Nd320 O341 2.492 . S
Nd320 O342 2.487 . S
Nd320 O343 2.682 . S
Nd320 O344 2.410 . S
Nd320 O349 2.414 . S
Nd320 O351 2.424 . S
Nd321 C331 2.836 . S
Nd321 O343 2.414 . S
Nd321 O345 2.424 . S
Nd321 O346 2.500 . S
Nd321 O347 2.492 . S
Nd321 O348 2.487 . S
Nd321 O349 2.682 . S
Nd321 O350 2.410 . S
C322 Nd320 2.836 . S
C322 C323 1.498 . S
C322 O340 1.258 . S
C322 O341 1.239 . S
C323 C322 1.498 . S
C323 C324 1.366 . S
C323 C328 1.407 . S
C324 C323 1.366 . S
C324 C325 1.392 . S
C324 H352 0.930 . S
C325 C324 1.392 . S
C325 C326 1.398 . S
C325 H353 0.929 . S
C326 C325 1.398 . S
C326 C327 1.352 . S
C327 C326 1.352 . S
C327 C328 1.384 . S
C327 H354 0.930 . S
C328 C323 1.407 . S
C328 C327 1.384 . S
C328 H355 0.929 . S
C329 O342 1.241 . S
C329 O343 1.273 . S
C330 O344 1.251 . S
C330 O345 1.268 . S
C331 Nd321 2.836 . S
C331 C332 1.498 . S
C331 O346 1.258 . S
C331 O347 1.239 . S
C332 C331 1.498 . S
C332 C333 1.366 . S
C332 C337 1.407 . S
C333 C332 1.366 . S
C333 C334 1.392 . S
C333 H356 0.930 . S
C334 C333 1.392 . S
C334 C335 1.398 . S
C334 H357 0.929 . S
C335 C334 1.398 . S
C335 C336 1.352 . S
C336 C335 1.352 . S
C336 C337 1.384 . S
C336 H358 0.930 . S
C337 C332 1.407 . S
C337 C336 1.384 . S
C337 H359 0.929 . S
C338 O348 1.241 . S
C338 O349 1.273 . S
C339 O350 1.251 . S
C339 O351 1.268 . S
O340 Nd320 2.500 . S
O340 C322 1.258 . S
O341 Nd320 2.492 . S
O341 C322 1.239 . S
O342 Nd320 2.487 . S
O342 C329 1.241 . S
O343 Nd320 2.682 . S
O343 Nd321 2.414 . S
O343 C329 1.273 . S
O344 Nd320 2.410 . S
O344 C330 1.251 . S
O345 Nd321 2.424 . S
O345 C330 1.268 . S
O346 Nd321 2.500 . S
O346 C331 1.258 . S
O347 Nd321 2.492 . S
O347 C331 1.239 . S
O348 Nd321 2.487 . S
O348 C338 1.241 . S
O349 Nd320 2.414 . S
O349 Nd321 2.682 . S
O349 C338 1.273 . S
O350 Nd321 2.410 . S
O350 C339 1.251 . S
O351 Nd320 2.424 . S
O351 C339 1.268 . S
H352 C324 0.930 . S
H353 C325 0.929 . S
H354 C327 0.930 . S
H355 C328 0.929 . S
H356 C333 0.930 . S
H357 C334 0.929 . S
H358 C336 0.930 . S
H359 C337 0.929 . S
H360 C378 0.951 . S
H361 C380 0.951 . S
H362 C382 0.950 . S
H363 C383 0.950 . S
H364 C385 0.950 . S
H365 C388 0.950 . S
H366 C389 0.950 . S
H367 C391 0.950 . S
H368 C392 0.950 . S
H369 C393 0.951 . S
H370 C395 0.951 . S
H371 C397 0.950 . S
H372 C398 0.950 . S
H373 C400 0.950 . S
H374 C403 0.950 . S
H375 C404 0.950 . S
H376 C406 0.950 . S
H377 C407 0.950 . S
C378 H360 0.951 . S
C378 C379 1.366 . S
C378 C380 1.388 . S
C379 C378 1.366 . S
C379 C383 1.385 . S
C380 H361 0.951 . S
C380 C378 1.388 . S
C380 C381 1.366 . S
C381 C380 1.366 . S
C381 C382 1.414 . S
C381 C384 1.499 . S
C382 H362 0.950 . S
C382 C381 1.414 . S
C382 C383 1.374 . S
C383 H363 0.950 . S
C383 C379 1.385 . S
C383 C382 1.374 . S
C384 C381 1.499 . S
C384 C385 1.373 . S
C384 C386 1.389 . S
C385 H364 0.950 . S
C385 C384 1.373 . S
C385 C401 1.377 . S
C386 C384 1.389 . S
C386 C387 1.524 . S
C386 C400 1.377 . S
C387 C386 1.524 . S
C387 C388 1.397 . S
C387 C392 1.363 . S
C388 H365 0.950 . S
C388 C387 1.397 . S
C388 C389 1.334 . S
C389 H366 0.950 . S
C389 C388 1.334 . S
C389 C390 1.287 . S
C390 C389 1.287 . S
C390 C391 1.524 . S
C390 H409 0.913 . S
C391 H367 0.950 . S
C391 C390 1.524 . S
C391 C392 1.415 . S
C392 H368 0.950 . S
C392 C387 1.363 . S
C392 C391 1.415 . S
C393 H369 0.951 . S
C393 C394 1.366 . S
C393 C395 1.388 . S
C394 C393 1.366 . S
C394 C398 1.385 . S
C395 H370 0.951 . S
C395 C393 1.388 . S
C395 C396 1.366 . S
C396 C395 1.366 . S
C396 C397 1.414 . S
C396 C399 1.499 . S
C397 H371 0.950 . S
C397 C396 1.414 . S
C397 C398 1.374 . S
C398 H372 0.950 . S
C398 C394 1.385 . S
C398 C397 1.374 . S
C399 C396 1.499 . S
C399 C400 1.373 . S
C399 C401 1.389 . S
C400 H373 0.950 . S
C400 C386 1.377 . S
C400 C399 1.373 . S
C401 C385 1.377 . S
C401 C399 1.389 . S
C401 C402 1.524 . S
C402 C401 1.524 . S
C402 C403 1.397 . S
C402 C407 1.363 . S
C403 H374 0.950 . S
C403 C402 1.397 . S
C403 C404 1.334 . S
C404 H375 0.950 . S
C404 C403 1.334 . S
C404 C405 1.287 . S
C405 C404 1.287 . S
C405 C406 1.524 . S
C405 H408 0.999 1_556 S
C406 H376 0.950 . S
C406 C405 1.524 . S
C406 C407 1.415 . S
C407 H377 0.950 . S
C407 C402 1.363 . S
C407 C406 1.415 . S
H408 C405 0.999 1_554 S
H409 C390 0.913 . S
H410 C428 0.951 . S
H411 C430 0.951 . S
H412 C432 0.950 . S
H413 C433 0.950 1_554 S
H414 C435 0.950 . S
H415 C438 0.950 . S
H416 C439 0.950 . S
H417 C441 0.950 . S
H418 C442 0.950 . S
H419 C443 0.951 . S
H420 C445 0.951 . S
H421 C447 0.950 . S
H422 C448 0.950 . S
H423 C450 0.950 . S
H424 C453 0.950 . S
H425 C454 0.950 . S
H426 C456 0.950 . S
H427 C457 0.950 1_556 S
C428 H410 0.951 . S
C428 C429 1.366 . S
C428 C430 1.388 . S
C429 C428 1.366 . S
C429 C433 1.385 . S
C430 H411 0.951 . S
C430 C428 1.388 . S
C430 C431 1.366 . S
C431 C430 1.366 . S
C431 C432 1.414 . S
C431 C434 1.499 . S
C432 H412 0.950 . S
C432 C431 1.414 . S
C432 C433 1.374 . S
C433 H413 0.950 1_556 S
C433 C429 1.385 . S
C433 C432 1.374 . S
C434 C431 1.499 . S
C434 C435 1.373 . S
C434 C436 1.389 . S
C435 H414 0.950 . S
C435 C434 1.373 . S
C435 C451 1.377 . S
C436 C434 1.389 . S
C436 C437 1.524 . S
C436 C450 1.377 . S
C437 C436 1.524 . S
C437 C438 1.397 . S
C437 C442 1.363 . S
C438 H415 0.950 . S
C438 C437 1.397 . S
C438 C439 1.334 . S
C439 H416 0.950 . S
C439 C438 1.334 . S
C439 C440 1.287 . S
C440 C439 1.287 . S
C440 C441 1.524 . S
C440 H459 0.913 . S
C441 H417 0.950 . S
C441 C440 1.524 . S
C441 C442 1.415 . S
C442 H418 0.950 . S
C442 C437 1.363 . S
C442 C441 1.415 . S
C443 H419 0.951 . S
C443 C444 1.366 . S
C443 C445 1.388 . S
C444 C443 1.366 . S
C444 C448 1.385 . S
C445 H420 0.951 . S
C445 C443 1.388 . S
C445 C446 1.366 . S
C446 C445 1.366 . S
C446 C447 1.414 . S
C446 C449 1.499 . S
C447 H421 0.950 . S
C447 C446 1.414 . S
C447 C448 1.374 . S
C448 H422 0.950 . S
C448 C444 1.385 . S
C448 C447 1.374 . S
C449 C446 1.499 . S
C449 C450 1.373 . S
C449 C451 1.389 . S
C450 H423 0.950 . S
C450 C436 1.377 . S
C450 C449 1.373 . S
C451 C435 1.377 . S
C451 C449 1.389 . S
C451 C452 1.524 . S
C452 C451 1.524 . S
C452 C453 1.397 . S
C452 C457 1.356 1_556 S
C453 H424 0.950 . S
C453 C452 1.397 . S
C453 C454 1.338 . S
C454 H425 0.950 . S
C454 C453 1.338 . S
C454 C455 1.283 1_556 S
C455 C454 1.283 1_554 S
C455 C456 1.524 . S
C455 H458 0.999 . S
C456 H426 0.950 . S
C456 C455 1.524 . S
C456 C457 1.422 . S
C457 H427 0.950 1_554 S
C457 C452 1.356 1_554 S
C457 C456 1.422 . S
H458 C455 0.999 . S
H459 C440 0.913 . S
H460 C478 0.951 . S
H461 C480 0.951 . S
H462 C482 0.950 . S
H463 C483 0.950 . S
H464 C485 0.950 . S
H465 C488 0.957 . S
H466 C489 0.950 1_554 S
H467 C491 0.950 . S
H468 C492 0.950 . S
H469 C493 0.951 . S
H470 C495 0.951 . S
H471 C497 0.950 . S
H472 C498 0.950 . S
H473 C500 0.950 . S
H474 C503 0.950 . S
H475 C504 0.950 . S
H476 C506 0.950 . S
H477 C507 0.950 . S
C478 H460 0.951 . S
C478 C479 1.366 . S
C478 C480 1.388 . S
C479 C478 1.366 . S
C479 C483 1.385 1_556 S
C480 H461 0.951 . S
C480 C478 1.388 . S
C480 C481 1.366 . S
C481 C480 1.366 . S
C481 C482 1.414 . S
C481 C484 1.499 . S
C482 H462 0.950 . S
C482 C481 1.414 . S
C482 C483 1.374 1_556 S
C483 H463 0.950 . S
C483 C479 1.385 1_554 S
C483 C482 1.374 1_554 S
C484 C481 1.499 . S
C484 C485 1.373 . S
C484 C486 1.389 . S
C485 H464 0.950 . S
C485 C484 1.373 . S
C485 C501 1.377 . S
C486 C484 1.389 . S
C486 C487 1.524 . S
C486 C500 1.377 . S
C487 C486 1.524 . S
C487 C488 1.397 . S
C487 C492 1.363 . S
C488 H465 0.957 . S
C488 C487 1.397 . S
C488 C489 1.334 . S
C489 H466 0.950 1_556 S
C489 C488 1.334 . S
C489 C490 1.287 . S
C490 C489 1.287 . S
C490 C491 1.524 . S
C490 H509 0.913 . S
C491 H467 0.950 . S
C491 C490 1.524 . S
C491 C492 1.415 . S
C492 H468 0.950 . S
C492 C487 1.363 . S
C492 C491 1.415 . S
C493 H469 0.951 . S
C493 C494 1.366 . S
C493 C495 1.388 . S
C494 C493 1.366 . S
C494 C498 1.385 . S
C495 H470 0.951 . S
C495 C493 1.388 . S
C495 C496 1.366 . S
C496 C495 1.366 . S
C496 C497 1.414 . S
C496 C499 1.499 . S
C497 H471 0.950 . S
C497 C496 1.414 . S
C497 C498 1.374 . S
C498 H472 0.950 . S
C498 C494 1.385 . S
C498 C497 1.374 . S
C499 C496 1.499 . S
C499 C500 1.373 . S
C499 C501 1.389 . S
C500 H473 0.950 . S
C500 C486 1.377 . S
C500 C499 1.373 . S
C501 C485 1.377 . S
C501 C499 1.389 . S
C501 C502 1.524 . S
C502 C501 1.524 . S
C502 C503 1.397 . S
C502 C507 1.363 . S
C503 H474 0.950 . S
C503 C502 1.397 . S
C503 C504 1.334 . S
C504 H475 0.950 . S
C504 C503 1.334 . S
C504 C505 1.287 . S
C505 C504 1.287 . S
C505 C506 1.524 . S
C505 H508 0.999 . S
C506 H476 0.950 . S
C506 C505 1.524 . S
C506 C507 1.415 . S
C507 H477 0.950 . S
C507 C502 1.363 . S
C507 C506 1.415 . S
H508 C505 0.999 . S
H509 C490 0.913 . S
H510 C528 0.951 . S
H511 C530 0.951 . S
H512 C532 0.950 . S
H513 C533 0.950 . S
H514 C535 0.950 . S
H515 C538 0.950 . S
H516 C539 0.950 . S
H517 C541 0.950 . S
H518 C542 0.950 . S
H519 C543 0.951 . S
H520 C545 0.951 . S
H521 C547 0.950 . S
H522 C548 0.950 1_556 S
H523 C550 0.950 . S
H524 C553 0.950 . S
H525 C554 0.950 . S
H526 C556 0.950 . S
H527 C557 0.950 . S
C528 H510 0.951 . S
C528 C529 1.366 . S
C528 C530 1.388 . S
C529 C528 1.366 . S
C529 C533 1.385 . S
C530 H511 0.951 . S
C530 C528 1.388 . S
C530 C531 1.366 . S
C531 C530 1.366 . S
C531 C532 1.414 . S
C531 C534 1.499 . S
C532 H512 0.950 . S
C532 C531 1.414 . S
C532 C533 1.374 . S
C533 H513 0.950 . S
C533 C529 1.385 . S
C533 C532 1.374 . S
C534 C531 1.499 . S
C534 C535 1.373 . S
C534 C536 1.389 . S
C535 H514 0.950 . S
C535 C534 1.373 . S
C535 C551 1.377 . S
C536 C534 1.389 . S
C536 C537 1.524 . S
C536 C550 1.377 . S
C537 C536 1.524 . S
C537 C538 1.397 . S
C537 C542 1.363 . S
C538 H515 0.950 . S
C538 C537 1.397 . S
C538 C539 1.334 . S
C539 H516 0.950 . S
C539 C538 1.334 . S
C539 C540 1.276 1_554 S
C540 C539 1.276 1_556 S
C540 C541 1.529 . S
C540 H559 0.920 . S
C541 H517 0.950 . S
C541 C540 1.529 . S
C541 C542 1.415 1_556 S
C542 H518 0.950 . S
C542 C537 1.363 . S
C542 C541 1.415 1_554 S
C543 H519 0.951 . S
C543 C544 1.366 . S
C543 C545 1.388 . S
C544 C543 1.366 . S
C544 C548 1.385 . S
C545 H520 0.951 . S
C545 C543 1.388 . S
C545 C546 1.366 . S
C546 C545 1.366 . S
C546 C547 1.414 . S
C546 C549 1.499 . S
C547 H521 0.950 . S
C547 C546 1.414 . S
C547 C548 1.374 . S
C548 H522 0.950 1_554 S
C548 C544 1.385 . S
C548 C547 1.374 . S
C549 C546 1.499 . S
C549 C550 1.373 . S
C549 C551 1.389 . S
C550 H523 0.950 . S
C550 C536 1.377 . S
C550 C549 1.373 . S
C551 C535 1.377 . S
C551 C549 1.389 . S
C551 C552 1.524 . S
C552 C551 1.524 . S
C552 C553 1.397 . S
C552 C557 1.363 . S
C553 H524 0.950 . S
C553 C552 1.397 . S
C553 C554 1.334 . S
C554 H525 0.950 . S
C554 C553 1.334 . S
C554 C555 1.287 . S
C555 C554 1.287 . S
C555 C556 1.524 . S
C555 H558 0.999 . S
C556 H526 0.950 . S
C556 C555 1.524 . S
C556 C557 1.415 . S
C557 H527 0.950 . S
C557 C552 1.363 . S
C557 C556 1.415 . S
H558 C555 0.999 . S
H559 C540 0.920 . S
H560 C578 0.951 . S
H561 C580 0.951 . S
H562 C582 0.950 . S
H563 C583 0.950 . S
H564 C585 0.950 . S
H565 C588 0.950 . S
H566 C589 0.950 . S
H567 C591 0.950 . S
H568 C592 0.950 . S
H569 C593 0.951 1_455 S
H570 C595 0.951 . S
H571 C597 0.950 . S
H572 C598 0.950 . S
H573 C600 0.950 . S
H574 C603 0.950 . S
H575 C604 0.950 . S
H576 C606 0.950 . S
H577 C607 0.950 . S
C578 H560 0.951 . S
C578 C579 1.366 . S
C578 C580 1.388 . S
C579 C578 1.366 . S
C579 C583 1.385 . S
C580 H561 0.951 . S
C580 C578 1.388 . S
C580 C581 1.366 . S
C581 C580 1.366 . S
C581 C582 1.414 . S
C581 C584 1.499 . S
C582 H562 0.950 . S
C582 C581 1.414 . S
C582 C583 1.374 . S
C583 H563 0.950 . S
C583 C579 1.385 . S
C583 C582 1.374 . S
C584 C581 1.499 . S
C584 C585 1.373 . S
C584 C586 1.389 . S
C585 H564 0.950 . S
C585 C584 1.373 . S
C585 C601 1.377 . S
C586 C584 1.389 . S
C586 C587 1.524 . S
C586 C600 1.377 . S
C587 C586 1.524 . S
C587 C588 1.397 . S
C587 C592 1.363 . S
C588 H565 0.950 . S
C588 C587 1.397 . S
C588 C589 1.334 . S
C589 H566 0.950 . S
C589 C588 1.334 . S
C589 C590 1.287 . S
C590 C589 1.287 . S
C590 C591 1.524 . S
C590 H609 0.913 . S
C591 H567 0.950 . S
C591 C590 1.524 . S
C591 C592 1.415 . S
C592 H568 0.950 . S
C592 C587 1.363 . S
C592 C591 1.415 . S
C593 H569 0.951 1_655 S
C593 C594 1.366 . S
C593 C595 1.388 . S
C594 C593 1.366 . S
C594 C598 1.385 . S
C595 H570 0.951 . S
C595 C593 1.388 . S
C595 C596 1.366 . S
C596 C595 1.366 . S
C596 C597 1.414 . S
C596 C599 1.499 . S
C597 H571 0.950 . S
C597 C596 1.414 . S
C597 C598 1.374 . S
C598 H572 0.950 . S
C598 C594 1.385 . S
C598 C597 1.374 . S
C599 C596 1.499 . S
C599 C600 1.373 . S
C599 C601 1.389 . S
C600 H573 0.950 . S
C600 C586 1.377 . S
C600 C599 1.373 . S
C601 C585 1.377 . S
C601 C599 1.389 . S
C601 C602 1.524 . S
C602 C601 1.524 . S
C602 C603 1.397 1_554 S
C602 C607 1.363 . S
C603 H574 0.950 . S
C603 C602 1.397 1_556 S
C603 C604 1.334 . S
C604 H575 0.950 . S
C604 C603 1.334 . S
C604 C605 1.287 . S
C605 C604 1.287 . S
C605 C606 1.524 . S
C605 H608 0.999 . S
C606 H576 0.950 . S
C606 C605 1.524 . S
C606 C607 1.415 1_556 S
C607 H577 0.950 . S
C607 C602 1.363 . S
C607 C606 1.415 1_554 S
H608 C605 0.999 . S
H609 C590 0.913 . S
H610 C628 0.951 . S
H611 C630 0.951 . S
H612 C632 0.950 . S
H613 C633 0.950 1_556 S
H614 C635 0.950 . S
H615 C638 0.950 . S
H616 C639 0.950 . S
H617 C641 0.950 . S
H618 C642 0.950 . S
H619 C643 0.951 . S
H620 C645 0.951 . S
H621 C647 0.950 . S
H622 C648 0.950 . S
H623 C650 0.950 . S
H624 C653 0.950 . S
H625 C654 0.950 . S
H626 C656 0.950 1_556 S
H627 C657 0.950 . S
C628 H610 0.951 . S
C628 C629 1.366 . S
C628 C630 1.388 . S
C629 C628 1.366 . S
C629 C633 1.385 . S
C630 H611 0.951 . S
C630 C628 1.388 . S
C630 C631 1.366 . S
C631 C630 1.366 . S
C631 C632 1.414 . S
C631 C634 1.499 . S
C632 H612 0.950 . S
C632 C631 1.414 . S
C632 C633 1.374 . S
C633 H613 0.950 1_554 S
C633 C629 1.385 . S
C633 C632 1.374 . S
C634 C631 1.499 . S
C634 C635 1.373 . S
C634 C636 1.389 . S
C635 H614 0.950 . S
C635 C634 1.373 . S
C635 C651 1.377 . S
C636 C634 1.389 . S
C636 C637 1.524 . S
C636 C650 1.377 . S
C637 C636 1.524 . S
C637 C638 1.397 . S
C637 C642 1.363 . S
C638 H615 0.950 . S
C638 C637 1.397 . S
C638 C639 1.334 . S
C639 H616 0.950 . S
C639 C638 1.334 . S
C639 C640 1.287 . S
C640 C639 1.287 . S
C640 C641 1.524 . S
C640 H659 0.913 . S
C641 H617 0.950 . S
C641 C640 1.524 . S
C641 C642 1.415 . S
C642 H618 0.950 . S
C642 C637 1.363 . S
C642 C641 1.415 . S
C643 H619 0.951 . S
C643 C644 1.366 . S
C643 C645 1.388 . S
C644 C643 1.366 . S
C644 C648 1.385 . S
C645 H620 0.951 . S
C645 C643 1.388 . S
C645 C646 1.366 . S
C646 C645 1.366 . S
C646 C647 1.414 . S
C646 C649 1.499 . S
C647 H621 0.950 . S
C647 C646 1.414 . S
C647 C648 1.374 . S
C648 H622 0.950 . S
C648 C644 1.385 . S
C648 C647 1.374 . S
C649 C646 1.499 . S
C649 C650 1.373 . S
C649 C651 1.389 . S
C650 H623 0.950 . S
C650 C636 1.377 . S
C650 C649 1.373 . S
C651 C635 1.377 . S
C651 C649 1.389 . S
C651 C652 1.524 . S
C652 C651 1.524 . S
C652 C653 1.397 . S
C652 C657 1.363 . S
C653 H624 0.950 . S
C653 C652 1.397 . S
C653 C654 1.334 . S
C654 H625 0.950 . S
C654 C653 1.334 . S
C654 C655 1.287 . S
C655 C654 1.287 . S
C655 C656 1.524 . S
C655 H658 0.999 . S
C656 H626 0.950 1_554 S
C656 C655 1.524 . S
C656 C657 1.415 . S
C657 H627 0.950 . S
C657 C652 1.363 . S
C657 C656 1.415 . S
H658 C655 0.999 . S
H659 C640 0.913 . S
H660 C678 0.951 . S
H661 C680 0.951 . S
H662 C682 0.950 . S
H663 C683 0.950 . S
H664 C685 0.950 . S
H665 C688 0.950 . S
H666 C689 0.950 . S
H667 C691 0.950 . S
H668 C692 0.950 . S
H669 C693 0.951 . S
H670 C695 0.951 . S
H671 C697 0.950 . S
H672 C698 0.950 . S
H673 C700 0.950 . S
H674 C703 0.950 . S
H675 C704 0.950 . S
H676 C706 0.950 . S
H677 C707 0.950 . S
C678 H660 0.951 . S
C678 C679 1.366 . S
C678 C680 1.388 . S
C679 C678 1.366 . S
C679 C683 1.385 . S
C680 H661 0.951 . S
C680 C678 1.388 . S
C680 C681 1.366 . S
C681 C680 1.366 . S
C681 C682 1.414 . S
C681 C684 1.499 1_455 S
C682 H662 0.950 . S
C682 C681 1.414 . S
C682 C683 1.374 . S
C683 H663 0.950 . S
C683 C679 1.385 . S
C683 C682 1.374 . S
C684 C681 1.499 1_655 S
C684 C685 1.373 . S
C684 C686 1.389 . S
C685 H664 0.950 . S
C685 C684 1.373 . S
C685 C701 1.377 . S
C686 C684 1.389 . S
C686 C687 1.524 . S
C686 C700 1.377 . S
C687 C686 1.524 . S
C687 C688 1.397 . S
C687 C692 1.363 . S
C688 H665 0.950 . S
C688 C687 1.397 . S
C688 C689 1.334 . S
C689 H666 0.950 . S
C689 C688 1.334 . S
C689 C690 1.287 . S
C690 C689 1.287 . S
C690 C691 1.524 . S
C690 H709 0.913 . S
C691 H667 0.950 . S
C691 C690 1.524 . S
C691 C692 1.415 . S
C692 H668 0.950 . S
C692 C687 1.363 . S
C692 C691 1.415 . S
C693 H669 0.951 . S
C693 C694 1.366 . S
C693 C695 1.388 . S
C694 C693 1.366 . S
C694 C698 1.385 . S
C695 H670 0.951 . S
C695 C693 1.388 . S
C695 C696 1.366 . S
C696 C695 1.366 . S
C696 C697 1.414 . S
C696 C699 1.499 . S
C697 H671 0.950 . S
C697 C696 1.414 . S
C697 C698 1.374 . S
C698 H672 0.950 . S
C698 C694 1.385 . S
C698 C697 1.374 . S
C699 C696 1.499 . S
C699 C700 1.373 . S
C699 C701 1.389 . S
C700 H673 0.950 . S
C700 C686 1.377 . S
C700 C699 1.373 . S
C701 C685 1.377 . S
C701 C699 1.389 . S
C701 C702 1.524 . S
C702 C701 1.524 . S
C702 C703 1.397 . S
C702 C707 1.363 . S
C703 H674 0.950 . S
C703 C702 1.397 . S
C703 C704 1.334 . S
C704 H675 0.950 . S
C704 C703 1.334 . S
C704 C705 1.287 . S
C705 C704 1.287 . S
C705 C706 1.524 . S
C705 H708 0.999 . S
C706 H676 0.950 . S
C706 C705 1.524 . S
C706 C707 1.415 . S
C707 H677 0.950 . S
C707 C702 1.363 . S
C707 C706 1.415 . S
H708 C705 0.999 . S
H709 C690 0.913 . S
H710 C728 0.951 . S
H711 C730 0.951 . S
H712 C732 0.950 . S
H713 C733 0.950 . S
H714 C735 0.950 . S
H715 C738 0.950 . S
H716 C739 0.950 . S
H717 C741 0.950 . S
H718 C742 0.950 . S
H719 C743 0.951 . S
H720 C745 0.951 . S
H721 C747 0.950 . S
H722 C748 0.950 . S
H723 C750 0.950 . S
H724 C753 0.950 . S
H725 C754 0.950 . S
H726 C756 0.950 . S
H727 C757 0.950 . S
C728 H710 0.951 . S
C728 C729 1.366 . S
C728 C730 1.388 . S
C729 C728 1.366 . S
C729 C733 1.385 . S
C730 H711 0.951 . S
C730 C728 1.388 . S
C730 C731 1.366 . S
C731 C730 1.366 . S
C731 C732 1.414 . S
C731 C734 1.499 . S
C732 H712 0.950 . S
C732 C731 1.414 . S
C732 C733 1.374 . S
C733 H713 0.950 . S
C733 C729 1.385 . S
C733 C732 1.374 . S
C734 C731 1.499 . S
C734 C735 1.373 . S
C734 C736 1.389 . S
C735 H714 0.950 . S
C735 C734 1.373 . S
C735 C751 1.377 . S
C736 C734 1.389 . S
C736 C737 1.524 . S
C736 C750 1.377 . S
C737 C736 1.524 . S
C737 C738 1.397 . S
C737 C742 1.363 . S
C738 H715 0.950 . S
C738 C737 1.397 . S
C738 C739 1.334 . S
C739 H716 0.950 . S
C739 C738 1.334 . S
C739 C740 1.287 . S
C740 C739 1.287 . S
C740 C741 1.524 . S
C740 H759 0.913 . S
C741 H717 0.950 . S
C741 C740 1.524 . S
C741 C742 1.415 . S
C742 H718 0.950 . S
C742 C737 1.363 . S
C742 C741 1.415 . S
C743 H719 0.951 . S
C743 C744 1.366 . S
C743 C745 1.388 . S
C744 C743 1.366 . S
C744 C748 1.385 . S
C745 H720 0.951 . S
C745 C743 1.388 . S
C745 C746 1.366 . S
C746 C745 1.366 . S
C746 C747 1.414 . S
C746 C749 1.499 . S
C747 H721 0.950 . S
C747 C746 1.414 . S
C747 C748 1.374 . S
C748 H722 0.950 . S
C748 C744 1.385 . S
C748 C747 1.374 . S
C749 C746 1.499 . S
C749 C750 1.373 . S
C749 C751 1.389 . S
C750 H723 0.950 . S
C750 C736 1.377 . S
C750 C749 1.373 . S
C751 C735 1.377 . S
C751 C749 1.389 . S
C751 C752 1.524 . S
C752 C751 1.524 . S
C752 C753 1.397 . S
C752 C757 1.363 . S
C753 H724 0.950 . S
C753 C752 1.397 . S
C753 C754 1.334 . S
C754 H725 0.950 . S
C754 C753 1.334 . S
C754 C755 1.287 . S
C755 C754 1.287 . S
C755 C756 1.524 . S
C755 H758 0.999 . S
C756 H726 0.950 . S
C756 C755 1.524 . S
C756 C757 1.415 . S
C757 H727 0.950 . S
C757 C752 1.363 . S
C757 C756 1.415 . S
H758 C755 0.999 . S
H759 C740 0.913 . S
H760 C778 0.951 . S
H761 C780 0.951 . S
H762 C782 0.950 . S
H763 C783 0.950 . S
H764 C785 0.950 . S
H765 C788 0.950 . S
H766 C789 0.950 . S
H767 C791 0.950 . S
H768 C792 0.950 . S
H769 C793 0.951 . S
H770 C795 0.951 . S
H771 C797 0.950 . S
H772 C798 0.950 . S
H773 C800 0.950 . S
H774 C803 0.950 . S
H775 C804 0.950 . S
H776 C806 0.950 . S
H777 C807 0.950 . S
C778 H760 0.951 . S
C778 C779 1.366 . S
C778 C780 1.388 . S
C779 C778 1.366 . S
C779 C783 1.385 . S
C780 H761 0.951 . S
C780 C778 1.388 . S
C780 C781 1.366 . S
C781 C780 1.366 . S
C781 C782 1.414 . S
C781 C784 1.499 . S
C782 H762 0.950 . S
C782 C781 1.414 . S
C782 C783 1.374 . S
C783 H763 0.950 . S
C783 C779 1.385 . S
C783 C782 1.374 . S
C784 C781 1.499 . S
C784 C785 1.373 . S
C784 C786 1.389 . S
C785 H764 0.950 . S
C785 C784 1.373 . S
C785 C801 1.377 . S
C786 C784 1.389 . S
C786 C787 1.524 . S
C786 C800 1.377 . S
C787 C786 1.524 . S
C787 C788 1.397 . S
C787 C792 1.363 . S
C788 H765 0.950 . S
C788 C787 1.397 . S
C788 C789 1.334 . S
C789 H766 0.950 . S
C789 C788 1.334 . S
C789 C790 1.287 . S
C790 C789 1.287 . S
C790 C791 1.524 . S
C790 H809 0.913 . S
C791 H767 0.950 . S
C791 C790 1.524 . S
C791 C792 1.415 . S
C792 H768 0.950 . S
C792 C787 1.363 . S
C792 C791 1.415 . S
C793 H769 0.951 . S
C793 C794 1.366 . S
C793 C795 1.388 1_565 S
C794 C793 1.366 . S
C794 C798 1.385 . S
C795 H770 0.951 . S
C795 C793 1.388 1_545 S
C795 C796 1.366 . S
C796 C795 1.366 . S
C796 C797 1.414 . S
C796 C799 1.499 . S
C797 H771 0.950 . S
C797 C796 1.414 . S
C797 C798 1.374 1_545 S
C798 H772 0.950 . S
C798 C794 1.385 . S
C798 C797 1.374 1_565 S
C799 C796 1.499 . S
C799 C800 1.373 . S
C799 C801 1.389 . S
C800 H773 0.950 . S
C800 C786 1.377 . S
C800 C799 1.373 . S
C801 C785 1.377 . S
C801 C799 1.389 . S
C801 C802 1.524 . S
C802 C801 1.524 . S
C802 C803 1.397 . S
C802 C807 1.363 . S
C803 H774 0.950 . S
C803 C802 1.397 . S
C803 C804 1.334 . S
C804 H775 0.950 . S
C804 C803 1.334 . S
C804 C805 1.287 . S
C805 C804 1.287 . S
C805 C806 1.524 . S
C805 H808 0.999 . S
C806 H776 0.950 . S
C806 C805 1.524 . S
C806 C807 1.415 . S
C807 H777 0.950 . S
C807 C802 1.363 . S
C807 C806 1.415 . S
H808 C805 0.999 . S
H809 C790 0.913 . S
H810 C828 0.951 . S
H811 C830 0.951 . S
H812 C832 0.950 . S
H813 C833 0.950 . S
H814 C835 0.950 . S
H815 C838 0.950 . S
H816 C839 0.950 . S
H817 C841 0.950 . S
H818 C842 0.950 . S
H819 C843 0.951 . S
H820 C845 0.951 . S
H821 C847 0.950 . S
H822 C848 0.950 . S
H823 C850 0.950 . S
H824 C853 0.950 . S
H825 C854 0.950 . S
H826 C856 0.950 . S
H827 C857 0.950 . S
C828 H810 0.951 . S
C828 C829 1.366 1_556 S
C828 C830 1.388 . S
C829 C828 1.366 1_554 S
C829 C833 1.385 . S
C830 H811 0.951 . S
C830 C828 1.388 . S
C830 C831 1.366 1_556 S
C831 C830 1.366 1_554 S
C831 C832 1.414 . S
C831 C834 1.499 . S
C832 H812 0.950 . S
C832 C831 1.414 . S
C832 C833 1.374 . S
C833 H813 0.950 . S
C833 C829 1.385 . S
C833 C832 1.374 . S
C834 C831 1.499 . S
C834 C835 1.373 1_554 S
C834 C836 1.389 . S
C835 H814 0.950 . S
C835 C834 1.373 1_556 S
C835 C851 1.377 . S
C836 C834 1.389 . S
C836 C837 1.524 . S
C836 C850 1.377 . S
C837 C836 1.524 . S
C837 C838 1.397 . S
C837 C842 1.363 . S
C838 H815 0.950 . S
C838 C837 1.397 . S
C838 C839 1.334 . S
C839 H816 0.950 . S
C839 C838 1.334 . S
C839 C840 1.287 . S
C840 C839 1.287 . S
C840 C841 1.524 . S
C840 H859 0.913 . S
C841 H817 0.950 . S
C841 C840 1.524 . S
C841 C842 1.415 . S
C842 H818 0.950 . S
C842 C837 1.363 . S
C842 C841 1.415 . S
C843 H819 0.951 . S
C843 C844 1.366 . S
C843 C845 1.388 . S
C844 C843 1.366 . S
C844 C848 1.385 . S
C845 H820 0.951 . S
C845 C843 1.388 . S
C845 C846 1.366 . S
C846 C845 1.366 . S
C846 C847 1.414 . S
C846 C849 1.499 . S
C847 H821 0.950 . S
C847 C846 1.414 . S
C847 C848 1.374 . S
C848 H822 0.950 . S
C848 C844 1.385 . S
C848 C847 1.374 . S
C849 C846 1.499 . S
C849 C850 1.373 1_556 S
C849 C851 1.389 . S
C850 H823 0.950 . S
C850 C836 1.377 . S
C850 C849 1.373 1_554 S
C851 C835 1.377 . S
C851 C849 1.389 . S
C851 C852 1.524 . S
C852 C851 1.524 . S
C852 C853 1.397 . S
C852 C857 1.363 . S
C853 H824 0.950 . S
C853 C852 1.397 . S
C853 C854 1.334 . S
C854 H825 0.950 . S
C854 C853 1.334 . S
C854 C855 1.287 . S
C855 C854 1.287 . S
C855 C856 1.524 . S
C855 H858 0.999 . S
C856 H826 0.950 . S
C856 C855 1.524 . S
C856 C857 1.415 . S
C857 H827 0.950 . S
C857 C852 1.363 . S
C857 C856 1.415 . S
H858 C855 0.999 . S
H859 C840 0.913 . S
H860 C878 0.951 . S
H861 C880 0.951 . S
H862 C882 0.950 . S
H863 C883 0.950 . S
H864 C885 0.950 . S
H865 C888 0.950 . S
H866 C889 0.950 . S
H867 C891 0.950 . S
H868 C892 0.950 . S
H869 C893 0.951 . S
H870 C895 0.951 . S
H871 C897 0.950 . S
H872 C898 0.950 . S
H873 C900 0.950 . S
H874 C903 0.950 . S
H875 C904 0.950 . S
H876 C906 0.950 . S
H877 C907 0.950 . S
C878 H860 0.951 . S
C878 C879 1.366 1_554 S
C878 C880 1.388 . S
C879 C878 1.366 1_556 S
C879 C883 1.385 . S
C880 H861 0.951 . S
C880 C878 1.388 . S
C880 C881 1.366 1_554 S
C881 C880 1.366 1_556 S
C881 C882 1.414 . S
C881 C884 1.499 . S
C882 H862 0.950 . S
C882 C881 1.414 . S
C882 C883 1.374 . S
C883 H863 0.950 . S
C883 C879 1.385 . S
C883 C882 1.374 . S
C884 C881 1.499 . S
C884 C885 1.373 . S
C884 C886 1.389 1_556 S
C885 H864 0.950 . S
C885 C884 1.373 . S
C885 C901 1.377 . S
C886 C884 1.389 1_554 S
C886 C887 1.524 . S
C886 C900 1.377 . S
C887 C886 1.524 . S
C887 C888 1.397 . S
C887 C892 1.363 . S
C888 H865 0.950 . S
C888 C887 1.397 . S
C888 C889 1.334 . S
C889 H866 0.950 . S
C889 C888 1.334 . S
C889 C890 1.287 . S
C890 C889 1.287 . S
C890 C891 1.524 . S
C890 H909 0.913 . S
C891 H867 0.950 . S
C891 C890 1.524 . S
C891 C892 1.415 . S
C892 H868 0.950 . S
C892 C887 1.363 . S
C892 C891 1.415 . S
C893 H869 0.951 . S
C893 C894 1.366 1_556 S
C893 C895 1.388 . S
C894 C893 1.366 1_554 S
C894 C898 1.385 . S
C895 H870 0.951 . S
C895 C893 1.388 . S
C895 C896 1.379 . S
C896 C895 1.379 . S
C896 C897 1.400 1_556 S
C896 C899 1.499 1_545 S
C897 H871 0.950 . S
C897 C896 1.400 1_554 S
C897 C898 1.374 . S
C898 H872 0.950 . S
C898 C894 1.385 . S
C898 C897 1.374 . S
C899 C896 1.499 1_565 S
C899 C900 1.370 1_556 S
C899 C901 1.393 . S
C900 H873 0.950 . S
C900 C886 1.377 . S
C900 C899 1.370 1_554 S
C901 C885 1.377 . S
C901 C899 1.393 . S
C901 C902 1.524 . S
C902 C901 1.524 . S
C902 C903 1.397 1_565 S
C902 C907 1.363 . S
C903 H874 0.950 . S
C903 C902 1.397 1_545 S
C903 C904 1.334 . S
C904 H875 0.950 . S
C904 C903 1.334 . S
C904 C905 1.287 . S
C905 C904 1.287 . S
C905 C906 1.524 1_545 S
C905 H908 0.999 . S
C906 H876 0.950 . S
C906 C905 1.524 1_565 S
C906 C907 1.415 . S
C907 H877 0.950 . S
C907 C902 1.363 . S
C907 C906 1.415 . S
H908 C905 0.999 . S
H909 C890 0.913 . S
H910 C928 0.951 . S
H911 C930 0.951 . S
H912 C932 0.950 . S
H913 C933 0.950 . S
H914 C935 0.950 . S
H915 C938 0.950 . S
H916 C939 0.950 . S
H917 C941 0.950 . S
H918 C942 0.950 . S
H919 C943 0.951 . S
H920 C945 0.951 . S
H921 C947 0.950 . S
H922 C948 0.950 . S
H923 C950 0.950 . S
H924 C953 0.950 . S
H925 C954 0.950 . S
H926 C956 0.950 . S
H927 C957 0.950 . S
C928 H910 0.951 . S
C928 C929 1.366 1_556 S
C928 C930 1.388 1_655 S
C929 C928 1.366 1_554 S
C929 C933 1.385 . S
C930 H911 0.951 . S
C930 C928 1.388 1_455 S
C930 C931 1.366 . S
C931 C930 1.366 . S
C931 C932 1.414 1_556 S
C931 C934 1.499 . S
C932 H912 0.950 . S
C932 C931 1.414 1_554 S
C932 C933 1.374 1_455 S
C933 H913 0.950 . S
C933 C929 1.385 . S
C933 C932 1.374 1_655 S
C934 C931 1.499 . S
C934 C935 1.373 1_556 S
C934 C936 1.389 . S
C935 H914 0.950 . S
C935 C934 1.373 1_554 S
C935 C951 1.377 . S
C936 C934 1.389 . S
C936 C937 1.524 . S
C936 C950 1.377 . S
C937 C936 1.524 . S
C937 C938 1.397 . S
C937 C942 1.363 . S
C938 H915 0.950 . S
C938 C937 1.397 . S
C938 C939 1.334 . S
C939 H916 0.950 . S
C939 C938 1.334 . S
C939 C940 1.287 . S
C940 C939 1.287 . S
C940 C941 1.524 . S
C940 H959 0.913 . S
C941 H917 0.950 . S
C941 C940 1.524 . S
C941 C942 1.415 . S
C942 H918 0.950 . S
C942 C937 1.363 . S
C942 C941 1.415 . S
C943 H919 0.951 . S
C943 C944 1.366 1_554 S
C943 C945 1.388 . S
C944 C943 1.366 1_556 S
C944 C948 1.385 . S
C945 H920 0.951 . S
C945 C943 1.388 . S
C945 C946 1.366 1_554 S
C946 C945 1.366 1_556 S
C946 C947 1.414 . S
C946 C949 1.499 . S
C947 H921 0.950 . S
C947 C946 1.414 . S
C947 C948 1.374 . S
C948 H922 0.950 . S
C948 C944 1.385 . S
C948 C947 1.374 . S
C949 C946 1.499 . S
C949 C950 1.373 . S
C949 C951 1.389 1_556 S
C950 H923 0.950 . S
C950 C936 1.377 . S
C950 C949 1.373 . S
C951 C935 1.377 . S
C951 C949 1.389 1_554 S
C951 C952 1.524 . S
C952 C951 1.524 . S
C952 C953 1.397 . S
C952 C957 1.363 . S
C953 H924 0.950 . S
C953 C952 1.397 . S
C953 C954 1.334 1_565 S
C954 H925 0.950 . S
C954 C953 1.334 1_545 S
C954 C955 1.287 . S
C955 C954 1.287 . S
C955 C956 1.524 1_545 S
C955 H958 0.999 . S
C956 H926 0.950 . S
C956 C955 1.524 1_565 S
C956 C957 1.415 . S
C957 H927 0.950 . S
C957 C952 1.363 . S
C957 C956 1.415 . S
H958 C955 0.999 . S
H959 C940 0.913 . S
H960 C978 0.951 . S
H961 C980 0.951 . S
H962 C982 0.950 . S
H963 C983 0.950 . S
H964 C985 0.950 . S
H965 C988 0.950 . S
H966 C989 0.950 . S
H967 C991 0.950 . S
H968 C992 0.950 . S
H969 C993 0.951 . S
H970 C995 0.951 . S
H971 C997 0.950 . S
H972 C998 0.950 . S
H973 C1000 0.950 . S
H974 C1003 0.950 . S
H975 C1004 0.950 . S
H976 C1006 0.950 . S
H977 C1007 0.950 . S
C978 H960 0.951 . S
C978 C979 1.366 . S
C978 C980 1.388 . S
C979 C978 1.366 . S
C979 C983 1.385 . S
C980 H961 0.951 . S
C980 C978 1.388 . S
C980 C981 1.366 . S
C981 C980 1.366 . S
C981 C982 1.414 . S
C981 C984 1.499 . S
C982 H962 0.950 . S
C982 C981 1.414 . S
C982 C983 1.374 . S
C983 H963 0.950 . S
C983 C979 1.385 . S
C983 C982 1.374 . S
C984 C981 1.499 . S
C984 C985 1.373 . S
C984 C986 1.389 . S
C985 H964 0.950 . S
C985 C984 1.373 . S
C985 C1001 1.377 . S
C986 C984 1.389 . S
C986 C987 1.524 . S
C986 C1000 1.377 . S
C987 C986 1.524 . S
C987 C988 1.397 . S
C987 C992 1.363 . S
C988 H965 0.950 . S
C988 C987 1.397 . S
C988 C989 1.334 . S
C989 H966 0.950 . S
C989 C988 1.334 . S
C989 C990 1.287 . S
C990 C989 1.287 . S
C990 C991 1.524 . S
C990 H1009 0.913 . S
C991 H967 0.950 . S
C991 C990 1.524 . S
C991 C992 1.415 . S
C992 H968 0.950 . S
C992 C987 1.363 . S
C992 C991 1.415 . S
C993 H969 0.951 . S
C993 C994 1.366 . S
C993 C995 1.388 . S
C994 C993 1.366 . S
C994 C998 1.385 . S
C995 H970 0.951 . S
C995 C993 1.388 . S
C995 C996 1.366 . S
C996 C995 1.366 . S
C996 C997 1.414 . S
C996 C999 1.499 . S
C997 H971 0.950 . S
C997 C996 1.414 . S
C997 C998 1.374 . S
C998 H972 0.950 . S
C998 C994 1.385 . S
C998 C997 1.374 . S
C999 C996 1.499 . S
C999 C1000 1.373 . S
C999 C1001 1.389 . S
C1000 H973 0.950 . S
C1000 C986 1.377 . S
C1000 C999 1.373 . S
C1001 C985 1.377 . S
C1001 C999 1.389 . S
C1001 C1002 1.524 . S
C1002 C1001 1.524 . S
C1002 C1003 1.397 . S
C1002 C1007 1.363 . S
C1003 H974 0.950 . S
C1003 C1002 1.397 . S
C1003 C1004 1.334 . S
C1004 H975 0.950 . S
C1004 C1003 1.334 . S
C1004 C1005 1.287 . S
C1005 C1004 1.287 . S
C1005 C1006 1.524 . S
C1005 H1008 0.999 . S
C1006 H976 0.950 . S
C1006 C1005 1.524 . S
C1006 C1007 1.415 . S
C1007 H977 0.950 . S
C1007 C1002 1.363 . S
C1007 C1006 1.415 . S
H1008 C1005 0.999 . S
H1009 C990 0.913 . S
H1010 C1028 0.951 . S
H1011 C1030 0.951 . S
H1012 C1032 0.950 . S
H1013 C1033 0.950 . S
H1014 C1035 0.950 . S
H1015 C1038 0.950 . S
H1016 C1039 0.950 . S
H1017 C1041 0.950 . S
H1018 C1042 0.950 . S
H1019 C1043 0.951 . S
H1020 C1045 0.951 . S
H1021 C1047 0.950 . S
H1022 C1048 0.950 . S
H1023 C1050 0.950 . S
H1024 C1053 0.950 . S
H1025 C1054 0.950 . S
H1026 C1056 0.950 . S
H1027 C1057 0.950 . S
C1028 H1010 0.951 . S
C1028 C1029 1.366 . S
C1028 C1030 1.388 . S
C1029 C1028 1.366 . S
C1029 C1033 1.385 . S
C1030 H1011 0.951 . S
C1030 C1028 1.388 . S
C1030 C1031 1.366 . S
C1031 C1030 1.366 . S
C1031 C1032 1.414 . S
C1031 C1034 1.499 . S
C1032 H1012 0.950 . S
C1032 C1031 1.414 . S
C1032 C1033 1.374 . S
C1033 H1013 0.950 . S
C1033 C1029 1.385 . S
C1033 C1032 1.374 . S
C1034 C1031 1.499 . S
C1034 C1035 1.373 . S
C1034 C1036 1.389 . S
C1035 H1014 0.950 . S
C1035 C1034 1.373 . S
C1035 C1051 1.377 . S
C1036 C1034 1.389 . S
C1036 C1037 1.524 . S
C1036 C1050 1.377 . S
C1037 C1036 1.524 . S
C1037 C1038 1.397 . S
C1037 C1042 1.363 . S
C1038 H1015 0.950 . S
C1038 C1037 1.397 . S
C1038 C1039 1.334 . S
C1039 H1016 0.950 . S
C1039 C1038 1.334 . S
C1039 C1040 1.287 . S
C1040 C1039 1.287 . S
C1040 C1041 1.524 . S
C1040 H1059 0.913 . S
C1041 H1017 0.950 . S
C1041 C1040 1.524 . S
C1041 C1042 1.415 . S
C1042 H1018 0.950 . S
C1042 C1037 1.363 . S
C1042 C1041 1.415 . S
C1043 H1019 0.951 . S
C1043 C1044 1.366 . S
C1043 C1045 1.388 . S
C1044 C1043 1.366 . S
C1044 C1048 1.385 . S
C1045 H1020 0.951 . S
C1045 C1043 1.388 . S
C1045 C1046 1.366 . S
C1046 C1045 1.366 . S
C1046 C1047 1.414 . S
C1046 C1049 1.499 . S
C1047 H1021 0.950 . S
C1047 C1046 1.414 . S
C1047 C1048 1.374 . S
C1048 H1022 0.950 . S
C1048 C1044 1.385 . S
C1048 C1047 1.374 . S
C1049 C1046 1.499 . S
C1049 C1050 1.373 . S
C1049 C1051 1.389 . S
C1050 H1023 0.950 . S
C1050 C1036 1.377 . S
C1050 C1049 1.373 . S
C1051 C1035 1.377 . S
C1051 C1049 1.389 . S
C1051 C1052 1.524 . S
C1052 C1051 1.524 . S
C1052 C1053 1.397 . S
C1052 C1057 1.363 . S
C1053 H1024 0.950 . S
C1053 C1052 1.397 . S
C1053 C1054 1.334 . S
C1054 H1025 0.950 . S
C1054 C1053 1.334 . S
C1054 C1055 1.287 . S
C1055 C1054 1.287 . S
C1055 C1056 1.524 . S
C1055 H1058 0.999 . S
C1056 H1026 0.950 . S
C1056 C1055 1.524 . S
C1056 C1057 1.415 . S
C1057 H1027 0.950 . S
C1057 C1052 1.363 . S
C1057 C1056 1.415 . S
H1058 C1055 0.999 . S
H1059 C1040 0.913 . S
H1060 C1078 0.951 . S
H1061 C1080 0.951 . S
H1062 C1082 0.950 . S
H1063 C1083 0.950 . S
H1064 C1085 0.950 . S
H1065 C1088 0.950 . S
H1066 C1089 0.950 . S
H1067 C1091 0.950 . S
H1068 C1092 0.950 . S
H1069 C1093 0.951 . S
H1070 C1095 0.951 . S
H1071 C1097 0.950 . S
H1072 C1098 0.950 . S
H1073 C1100 0.950 . S
H1074 C1103 0.950 . S
H1075 C1104 0.950 . S
H1076 C1106 0.950 . S
H1077 C1107 0.950 . S
C1078 H1060 0.951 . S
C1078 C1079 1.366 . S
C1078 C1080 1.388 . S
C1079 C1078 1.366 . S
C1079 C1083 1.385 . S
C1080 H1061 0.951 . S
C1080 C1078 1.388 . S
C1080 C1081 1.366 . S
C1081 C1080 1.366 . S
C1081 C1082 1.414 . S
C1081 C1084 1.499 . S
C1082 H1062 0.950 . S
C1082 C1081 1.414 . S
C1082 C1083 1.374 . S
C1083 H1063 0.950 . S
C1083 C1079 1.385 . S
C1083 C1082 1.374 . S
C1084 C1081 1.499 . S
C1084 C1085 1.373 . S
C1084 C1086 1.389 . S
C1085 H1064 0.950 . S
C1085 C1084 1.373 . S
C1085 C1101 1.377 . S
C1086 C1084 1.389 . S
C1086 C1087 1.524 . S
C1086 C1100 1.377 . S
C1087 C1086 1.524 . S
C1087 C1088 1.397 . S
C1087 C1092 1.363 . S
C1088 H1065 0.950 . S
C1088 C1087 1.397 . S
C1088 C1089 1.334 . S
C1089 H1066 0.950 . S
C1089 C1088 1.334 . S
C1089 C1090 1.287 . S
C1090 C1089 1.287 . S
C1090 C1091 1.524 . S
C1090 H1109 0.913 . S
C1091 H1067 0.950 . S
C1091 C1090 1.524 . S
C1091 C1092 1.415 . S
C1092 H1068 0.950 . S
C1092 C1087 1.363 . S
C1092 C1091 1.415 . S
C1093 H1069 0.951 . S
C1093 C1094 1.366 . S
C1093 C1095 1.388 . S
C1094 C1093 1.366 . S
C1094 C1098 1.385 . S
C1095 H1070 0.951 . S
C1095 C1093 1.388 . S
C1095 C1096 1.366 . S
C1096 C1095 1.366 . S
C1096 C1097 1.414 . S
C1096 C1099 1.499 . S
C1097 H1071 0.950 . S
C1097 C1096 1.414 . S
C1097 C1098 1.374 . S
C1098 H1072 0.950 . S
C1098 C1094 1.385 . S
C1098 C1097 1.374 . S
C1099 C1096 1.499 . S
C1099 C1100 1.373 . S
C1099 C1101 1.389 . S
C1100 H1073 0.950 . S
C1100 C1086 1.377 . S
C1100 C1099 1.373 . S
C1101 C1085 1.377 . S
C1101 C1099 1.389 . S
C1101 C1102 1.524 . S
C1102 C1101 1.524 . S
C1102 C1103 1.397 . S
C1102 C1107 1.363 . S
C1103 H1074 0.950 . S
C1103 C1102 1.397 . S
C1103 C1104 1.334 . S
C1104 H1075 0.950 . S
C1104 C1103 1.334 . S
C1104 C1105 1.287 . S
C1105 C1104 1.287 . S
C1105 C1106 1.524 . S
C1105 H1108 0.999 . S
C1106 H1076 0.950 . S
C1106 C1105 1.524 . S
C1106 C1107 1.415 . S
C1107 H1077 0.950 . S
C1107 C1102 1.363 . S
C1107 C1106 1.415 . S
H1108 C1105 0.999 . S
H1109 C1090 0.913 . S
H1110 C1128 0.951 . S
H1111 C1130 0.951 . S
H1112 C1132 0.950 . S
H1113 C1133 0.950 . S
H1114 C1135 0.950 . S
H1115 C1138 0.950 . S
H1116 C1139 0.950 . S
H1117 C1141 0.950 . S
H1118 C1142 0.950 . S
H1119 C1143 0.951 . S
H1120 C1145 0.951 . S
H1121 C1147 0.950 . S
H1122 C1148 0.950 . S
H1123 C1150 0.950 . S
H1124 C1153 0.950 . S
H1125 C1154 0.950 . S
H1126 C1156 0.950 . S
H1127 C1157 0.950 . S
C1128 H1110 0.951 . S
C1128 C1129 1.366 . S
C1128 C1130 1.388 . S
C1129 C1128 1.366 . S
C1129 C1133 1.385 . S
C1130 H1111 0.951 . S
C1130 C1128 1.388 . S
C1130 C1131 1.366 . S
C1131 C1130 1.366 . S
C1131 C1132 1.414 . S
C1131 C1134 1.499 . S
C1132 H1112 0.950 . S
C1132 C1131 1.414 . S
C1132 C1133 1.374 . S
C1133 H1113 0.950 . S
C1133 C1129 1.385 . S
C1133 C1132 1.374 . S
C1134 C1131 1.499 . S
C1134 C1135 1.373 . S
C1134 C1136 1.389 . S
C1135 H1114 0.950 . S
C1135 C1134 1.373 . S
C1135 C1151 1.377 . S
C1136 C1134 1.389 . S
C1136 C1137 1.524 . S
C1136 C1150 1.377 . S
C1137 C1136 1.524 . S
C1137 C1138 1.397 . S
C1137 C1142 1.363 . S
C1138 H1115 0.950 . S
C1138 C1137 1.397 . S
C1138 C1139 1.334 . S
C1139 H1116 0.950 . S
C1139 C1138 1.334 . S
C1139 C1140 1.287 . S
C1140 C1139 1.287 . S
C1140 C1141 1.524 . S
C1140 H1159 0.913 . S
C1141 H1117 0.950 . S
C1141 C1140 1.524 . S
C1141 C1142 1.415 . S
C1142 H1118 0.950 . S
C1142 C1137 1.363 . S
C1142 C1141 1.415 . S
C1143 H1119 0.951 . S
C1143 C1144 1.366 . S
C1143 C1145 1.388 . S
C1144 C1143 1.366 . S
C1144 C1148 1.385 . S
C1145 H1120 0.951 . S
C1145 C1143 1.388 . S
C1145 C1146 1.366 . S
C1146 C1145 1.366 . S
C1146 C1147 1.414 . S
C1146 C1149 1.499 . S
C1147 H1121 0.950 . S
C1147 C1146 1.414 . S
C1147 C1148 1.374 . S
C1148 H1122 0.950 . S
C1148 C1144 1.385 . S
C1148 C1147 1.374 . S
C1149 C1146 1.499 . S
C1149 C1150 1.373 . S
C1149 C1151 1.389 . S
C1150 H1123 0.950 . S
C1150 C1136 1.377 . S
C1150 C1149 1.373 . S
C1151 C1135 1.377 . S
C1151 C1149 1.389 . S
C1151 C1152 1.524 . S
C1152 C1151 1.524 . S
C1152 C1153 1.397 . S
C1152 C1157 1.363 . S
C1153 H1124 0.950 . S
C1153 C1152 1.397 . S
C1153 C1154 1.334 . S
C1154 H1125 0.950 . S
C1154 C1153 1.334 . S
C1154 C1155 1.287 . S
C1155 C1154 1.287 . S
C1155 C1156 1.524 . S
C1155 H1158 0.999 . S
C1156 H1126 0.950 . S
C1156 C1155 1.524 . S
C1156 C1157 1.415 . S
C1157 H1127 0.950 . S
C1157 C1152 1.363 . S
C1157 C1156 1.415 . S
H1158 C1155 0.999 . S
H1159 C1140 0.913 . S
H1160 C1178 0.951 . S
H1161 C1180 0.951 . S
H1162 C1182 0.950 . S
H1163 C1183 0.950 . S
H1164 C1185 0.950 . S
H1165 C1188 0.950 . S
H1166 C1189 0.950 . S
H1167 C1191 0.950 . S
H1168 C1192 0.950 . S
H1169 C1193 0.951 . S
H1170 C1195 0.951 . S
H1171 C1197 0.950 . S
H1172 C1198 0.950 . S
H1173 C1200 0.950 . S
H1174 C1203 0.950 . S
H1175 C1204 0.950 . S
H1176 C1206 0.950 . S
H1177 C1207 0.950 . S
C1178 H1160 0.951 . S
C1178 C1179 1.366 . S
C1178 C1180 1.388 . S
C1179 C1178 1.366 . S
C1179 C1183 1.385 . S
C1180 H1161 0.951 . S
C1180 C1178 1.388 . S
C1180 C1181 1.366 . S
C1181 C1180 1.366 . S
C1181 C1182 1.414 . S
C1181 C1184 1.499 . S
C1182 H1162 0.950 . S
C1182 C1181 1.414 . S
C1182 C1183 1.374 . S
C1183 H1163 0.950 . S
C1183 C1179 1.385 . S
C1183 C1182 1.374 . S
C1184 C1181 1.499 . S
C1184 C1185 1.373 . S
C1184 C1186 1.389 . S
C1185 H1164 0.950 . S
C1185 C1184 1.373 . S
C1185 C1201 1.377 . S
C1186 C1184 1.389 . S
C1186 C1187 1.524 . S
C1186 C1200 1.377 . S
C1187 C1186 1.524 . S
C1187 C1188 1.397 . S
C1187 C1192 1.363 . S
C1188 H1165 0.950 . S
C1188 C1187 1.397 . S
C1188 C1189 1.334 . S
C1189 H1166 0.950 . S
C1189 C1188 1.334 . S
C1189 C1190 1.287 . S
C1190 C1189 1.287 . S
C1190 C1191 1.524 . S
C1190 H1209 0.913 . S
C1191 H1167 0.950 . S
C1191 C1190 1.524 . S
C1191 C1192 1.415 . S
C1192 H1168 0.950 . S
C1192 C1187 1.363 . S
C1192 C1191 1.415 . S
C1193 H1169 0.951 . S
C1193 C1194 1.366 . S
C1193 C1195 1.388 . S
C1194 C1193 1.366 . S
C1194 C1198 1.385 . S
C1195 H1170 0.951 . S
C1195 C1193 1.388 . S
C1195 C1196 1.366 . S
C1196 C1195 1.366 . S
C1196 C1197 1.414 . S
C1196 C1199 1.499 . S
C1197 H1171 0.950 . S
C1197 C1196 1.414 . S
C1197 C1198 1.374 . S
C1198 H1172 0.950 . S
C1198 C1194 1.385 . S
C1198 C1197 1.374 . S
C1199 C1196 1.499 . S
C1199 C1200 1.373 . S
C1199 C1201 1.389 . S
C1200 H1173 0.950 . S
C1200 C1186 1.377 . S
C1200 C1199 1.373 . S
C1201 C1185 1.377 . S
C1201 C1199 1.389 . S
C1201 C1202 1.524 . S
C1202 C1201 1.524 . S
C1202 C1203 1.397 . S
C1202 C1207 1.363 . S
C1203 H1174 0.950 . S
C1203 C1202 1.397 . S
C1203 C1204 1.334 . S
C1204 H1175 0.950 . S
C1204 C1203 1.334 . S
C1204 C1205 1.287 . S
C1205 C1204 1.287 . S
C1205 C1206 1.524 . S
C1205 H1208 0.999 . S
C1206 H1176 0.950 . S
C1206 C1205 1.524 . S
C1206 C1207 1.415 . S
C1207 H1177 0.950 . S
C1207 C1202 1.363 . S
C1207 C1206 1.415 . S
H1208 C1205 0.999 . S
H1209 C1190 0.913 . S
H1210 C1228 0.951 . S
H1211 C1230 0.951 . S
H1212 C1232 0.950 . S
H1213 C1233 0.950 . S
H1214 C1235 0.950 . S
H1215 C1238 0.950 . S
H1216 C1239 0.950 . S
H1217 C1241 0.950 . S
H1218 C1242 0.950 . S
H1219 C1243 0.951 . S
H1220 C1245 0.951 . S
H1221 C1247 0.950 . S
H1222 C1248 0.950 . S
H1223 C1250 0.950 . S
H1224 C1253 0.950 . S
H1225 C1254 0.950 . S
H1226 C1256 0.950 . S
H1227 C1257 0.950 . S
C1228 H1210 0.951 . S
C1228 C1229 1.366 . S
C1228 C1230 1.388 . S
C1229 C1228 1.366 . S
C1229 C1233 1.385 . S
C1230 H1211 0.951 . S
C1230 C1228 1.388 . S
C1230 C1231 1.366 . S
C1231 C1230 1.366 . S
C1231 C1232 1.414 . S
C1231 C1234 1.499 . S
C1232 H1212 0.950 . S
C1232 C1231 1.414 . S
C1232 C1233 1.374 . S
C1233 H1213 0.950 . S
C1233 C1229 1.385 . S
C1233 C1232 1.374 . S
C1234 C1231 1.499 . S
C1234 C1235 1.373 . S
C1234 C1236 1.389 . S
C1235 H1214 0.950 . S
C1235 C1234 1.373 . S
C1235 C1251 1.377 . S
C1236 C1234 1.389 . S
C1236 C1237 1.524 . S
C1236 C1250 1.377 . S
C1237 C1236 1.524 . S
C1237 C1238 1.397 . S
C1237 C1242 1.363 . S
C1238 H1215 0.950 . S
C1238 C1237 1.397 . S
C1238 C1239 1.334 . S
C1239 H1216 0.950 . S
C1239 C1238 1.334 . S
C1239 C1240 1.287 . S
C1240 C1239 1.287 . S
C1240 C1241 1.524 . S
C1240 H1259 0.913 . S
C1241 H1217 0.950 . S
C1241 C1240 1.524 . S
C1241 C1242 1.415 . S
C1242 H1218 0.950 . S
C1242 C1237 1.363 . S
C1242 C1241 1.415 . S
C1243 H1219 0.951 . S
C1243 C1244 1.366 . S
C1243 C1245 1.388 . S
C1244 C1243 1.366 . S
C1244 C1248 1.385 . S
C1245 H1220 0.951 . S
C1245 C1243 1.388 . S
C1245 C1246 1.366 . S
C1246 C1245 1.366 . S
C1246 C1247 1.414 . S
C1246 C1249 1.499 . S
C1247 H1221 0.950 . S
C1247 C1246 1.414 . S
C1247 C1248 1.374 . S
C1248 H1222 0.950 . S
C1248 C1244 1.385 . S
C1248 C1247 1.374 . S
C1249 C1246 1.499 . S
C1249 C1250 1.373 . S
C1249 C1251 1.389 . S
C1250 H1223 0.950 . S
C1250 C1236 1.377 . S
C1250 C1249 1.373 . S
C1251 C1235 1.377 . S
C1251 C1249 1.389 . S
C1251 C1252 1.524 . S
C1252 C1251 1.524 . S
C1252 C1253 1.397 . S
C1252 C1257 1.363 . S
C1253 H1224 0.950 . S
C1253 C1252 1.397 . S
C1253 C1254 1.334 . S
C1254 H1225 0.950 . S
C1254 C1253 1.334 . S
C1254 C1255 1.287 . S
C1255 C1254 1.287 . S
C1255 C1256 1.524 . S
C1255 H1258 0.999 . S
C1256 H1226 0.950 . S
C1256 C1255 1.524 . S
C1256 C1257 1.415 . S
C1257 H1227 0.950 . S
C1257 C1252 1.363 . S
C1257 C1256 1.415 . S
H1258 C1255 0.999 . S
H1259 C1240 0.913 . S
H1260 C1278 0.951 1_655 S
H1261 C1280 0.951 1_655 S
H1262 C1282 0.950 . S
H1263 C1283 0.950 . S
H1264 C1285 0.950 . S
H1265 C1288 0.950 . S
H1266 C1289 0.950 . S
H1267 C1291 0.950 . S
H1268 C1292 0.950 . S
H1269 C1293 0.951 . S
H1270 C1295 0.951 . S
H1271 C1297 0.953 . S
H1272 C1298 0.950 . S
H1273 C1300 0.950 . S
H1274 C1303 0.950 . S
H1275 C1304 0.950 . S
H1276 C1306 0.953 1_455 S
H1277 C1307 0.950 . S
C1278 H1260 0.951 1_455 S
C1278 C1279 1.366 . S
C1278 C1280 1.388 . S
C1279 C1278 1.366 . S
C1279 C1283 1.385 . S
C1280 H1261 0.951 1_455 S
C1280 C1278 1.388 . S
C1280 C1281 1.366 . S
C1281 C1280 1.366 . S
C1281 C1282 1.414 . S
C1281 C1284 1.499 . S
C1282 H1262 0.950 . S
C1282 C1281 1.414 . S
C1282 C1283 1.374 . S
C1283 H1263 0.950 . S
C1283 C1279 1.385 . S
C1283 C1282 1.374 . S
C1284 C1281 1.499 . S
C1284 C1285 1.373 . S
C1284 C1286 1.389 . S
C1285 H1264 0.950 . S
C1285 C1284 1.373 . S
C1285 C1301 1.377 . S
C1286 C1284 1.389 . S
C1286 C1287 1.524 . S
C1286 C1300 1.377 . S
C1287 C1286 1.524 . S
C1287 C1288 1.397 . S
C1287 C1292 1.363 . S
C1288 H1265 0.950 . S
C1288 C1287 1.397 . S
C1288 C1289 1.334 . S
C1289 H1266 0.950 . S
C1289 C1288 1.334 . S
C1289 C1290 1.287 . S
C1290 C1289 1.287 . S
C1290 C1291 1.524 . S
C1290 H1309 0.913 . S
C1291 H1267 0.950 . S
C1291 C1290 1.524 . S
C1291 C1292 1.415 . S
C1292 H1268 0.950 . S
C1292 C1287 1.363 . S
C1292 C1291 1.415 . S
C1293 H1269 0.951 . S
C1293 C1294 1.366 . S
C1293 C1295 1.388 . S
C1294 C1293 1.366 . S
C1294 C1298 1.385 . S
C1295 H1270 0.951 . S
C1295 C1293 1.388 . S
C1295 C1296 1.366 . S
C1296 C1295 1.366 . S
C1296 C1297 1.414 . S
C1296 C1299 1.499 . S
C1297 H1271 0.953 . S
C1297 C1296 1.414 . S
C1297 C1298 1.374 . S
C1298 H1272 0.950 . S
C1298 C1294 1.385 . S
C1298 C1297 1.374 . S
C1299 C1296 1.499 . S
C1299 C1300 1.373 . S
C1299 C1301 1.389 . S
C1300 H1273 0.950 . S
C1300 C1286 1.377 . S
C1300 C1299 1.373 . S
C1301 C1285 1.377 . S
C1301 C1299 1.389 . S
C1301 C1302 1.568 . S
C1302 C1301 1.568 . S
C1302 C1303 1.360 1_455 S
C1302 C1307 1.356 . S
C1303 H1274 0.950 . S
C1303 C1302 1.360 1_655 S
C1303 C1304 1.334 . S
C1304 H1275 0.950 . S
C1304 C1303 1.334 . S
C1304 C1305 1.287 . S
C1305 C1304 1.287 . S
C1305 C1306 1.534 . S
C1305 H1308 0.999 . S
C1306 H1276 0.953 1_655 S
C1306 C1305 1.534 . S
C1306 C1307 1.402 1_655 S
C1307 H1277 0.950 . S
C1307 C1302 1.356 . S
C1307 C1306 1.402 1_455 S
H1308 C1305 0.999 . S
H1309 C1290 0.913 . S
H1310 C1328 0.951 . S
H1311 C1330 0.951 . S
H1312 C1332 0.950 . S
H1313 C1333 0.950 . S
H1314 C1335 0.950 . S
H1315 C1338 0.950 . S
H1316 C1339 0.950 . S
H1317 C1341 0.950 . S
H1318 C1342 0.950 . S
H1319 C1343 0.951 . S
H1320 C1345 0.951 . S
H1321 C1347 0.950 . S
H1322 C1348 0.950 . S
H1323 C1350 0.950 . S
H1324 C1353 0.950 . S
H1325 C1354 0.950 . S
H1326 C1356 0.950 . S
H1327 C1357 0.950 . S
C1328 H1310 0.951 . S
C1328 C1329 1.366 . S
C1328 C1330 1.388 . S
C1329 C1328 1.366 . S
C1329 C1333 1.385 . S
C1330 H1311 0.951 . S
C1330 C1328 1.388 . S
C1330 C1331 1.366 . S
C1331 C1330 1.366 . S
C1331 C1332 1.414 . S
C1331 C1334 1.499 . S
C1332 H1312 0.950 . S
C1332 C1331 1.414 . S
C1332 C1333 1.374 . S
C1333 H1313 0.950 . S
C1333 C1329 1.385 . S
C1333 C1332 1.374 . S
C1334 C1331 1.499 . S
C1334 C1335 1.373 . S
C1334 C1336 1.389 . S
C1335 H1314 0.950 . S
C1335 C1334 1.373 . S
C1335 C1351 1.377 . S
C1336 C1334 1.389 . S
C1336 C1337 1.524 . S
C1336 C1350 1.377 . S
C1337 C1336 1.524 . S
C1337 C1338 1.397 . S
C1337 C1342 1.363 . S
C1338 H1315 0.950 . S
C1338 C1337 1.397 . S
C1338 C1339 1.334 . S
C1339 H1316 0.950 . S
C1339 C1338 1.334 . S
C1339 C1340 1.287 . S
C1340 C1339 1.287 . S
C1340 C1341 1.524 . S
C1340 H1359 0.913 . S
C1341 H1317 0.950 . S
C1341 C1340 1.524 . S
C1341 C1342 1.415 . S
C1342 H1318 0.950 . S
C1342 C1337 1.363 . S
C1342 C1341 1.415 . S
C1343 H1319 0.951 . S
C1343 C1344 1.366 . S
C1343 C1345 1.388 . S
C1344 C1343 1.366 . S
C1344 C1348 1.385 . S
C1345 H1320 0.951 . S
C1345 C1343 1.388 . S
C1345 C1346 1.366 . S
C1346 C1345 1.366 . S
C1346 C1347 1.414 . S
C1346 C1349 1.499 . S
C1347 H1321 0.950 . S
C1347 C1346 1.414 . S
C1347 C1348 1.374 . S
C1348 H1322 0.950 . S
C1348 C1344 1.385 . S
C1348 C1347 1.374 . S
C1349 C1346 1.499 . S
C1349 C1350 1.373 . S
C1349 C1351 1.389 . S
C1350 H1323 0.950 . S
C1350 C1336 1.377 . S
C1350 C1349 1.373 . S
C1351 C1335 1.377 . S
C1351 C1349 1.389 . S
C1351 C1352 1.524 . S
C1352 C1351 1.524 . S
C1352 C1353 1.397 . S
C1352 C1357 1.363 . S
C1353 H1324 0.950 . S
C1353 C1352 1.397 . S
C1353 C1354 1.334 . S
C1354 H1325 0.950 . S
C1354 C1353 1.334 . S
C1354 C1355 1.287 . S
C1355 C1354 1.287 . S
C1355 C1356 1.524 . S
C1355 H1358 0.999 . S
C1356 H1326 0.950 . S
C1356 C1355 1.524 . S
C1356 C1357 1.415 . S
C1357 H1327 0.950 . S
C1357 C1352 1.363 . S
C1357 C1356 1.415 . S
H1358 C1355 0.999 . S
H1359 C1340 0.913 . S
H1360 C1378 0.951 1_565 S
H1361 C1380 0.951 1_565 S
H1362 C1382 0.950 . S
H1363 C1383 0.950 . S
H1364 C1385 0.950 . S
H1365 C1388 0.950 . S
H1366 C1389 0.950 . S
H1367 C1391 0.950 . S
H1368 C1392 0.950 . S
H1369 C1393 0.951 . S
H1370 C1395 0.951 . S
H1371 C1397 0.950 . S
H1372 C1398 0.950 . S
H1373 C1400 0.950 . S
H1374 C1403 0.950 1_565 S
H1375 C1404 0.950 1_565 S
H1376 C1406 0.950 . S
H1377 C1407 0.950 . S
C1378 H1360 0.951 1_545 S
C1378 C1379 1.366 . S
C1378 C1380 1.388 . S
C1379 C1378 1.366 . S
C1379 C1383 1.385 . S
C1380 H1361 0.951 1_545 S
C1380 C1378 1.388 . S
C1380 C1381 1.366 . S
C1381 C1380 1.366 . S
C1381 C1382 1.414 . S
C1381 C1384 1.499 . S
C1382 H1362 0.950 . S
C1382 C1381 1.414 . S
C1382 C1383 1.374 . S
C1383 H1363 0.950 . S
C1383 C1379 1.385 . S
C1383 C1382 1.374 . S
C1384 C1381 1.499 . S
C1384 C1385 1.373 . S
C1384 C1386 1.389 . S
C1385 H1364 0.950 . S
C1385 C1384 1.373 . S
C1385 C1401 1.377 . S
C1386 C1384 1.389 . S
C1386 C1387 1.524 . S
C1386 C1400 1.377 . S
C1387 C1386 1.524 . S
C1387 C1388 1.397 . S
C1387 C1392 1.363 1_545 S
C1388 H1365 0.950 . S
C1388 C1387 1.397 . S
C1388 C1389 1.334 . S
C1389 H1366 0.950 . S
C1389 C1388 1.334 . S
C1389 C1390 1.287 . S
C1390 C1389 1.287 . S
C1390 C1391 1.524 1_545 S
C1390 H1409 0.913 . S
C1391 H1367 0.950 . S
C1391 C1390 1.524 1_565 S
C1391 C1392 1.415 . S
C1392 H1368 0.950 . S
C1392 C1387 1.363 1_565 S
C1392 C1391 1.415 . S
C1393 H1369 0.951 . S
C1393 C1394 1.366 . S
C1393 C1395 1.388 . S
C1394 C1393 1.366 . S
C1394 C1398 1.385 1_545 S
C1395 H1370 0.951 . S
C1395 C1393 1.388 . S
C1395 C1396 1.366 . S
C1396 C1395 1.366 . S
C1396 C1397 1.414 1_545 S
C1396 C1399 1.499 . S
C1397 H1371 0.950 . S
C1397 C1396 1.414 1_565 S
C1397 C1398 1.374 . S
C1398 H1372 0.950 . S
C1398 C1394 1.385 1_565 S
C1398 C1397 1.374 . S
C1399 C1396 1.499 . S
C1399 C1400 1.373 . S
C1399 C1401 1.389 . S
C1400 H1373 0.950 . S
C1400 C1386 1.377 . S
C1400 C1399 1.373 . S
C1401 C1385 1.377 . S
C1401 C1399 1.389 . S
C1401 C1402 1.524 . S
C1402 C1401 1.524 . S
C1402 C1403 1.397 . S
C1402 C1407 1.363 . S
C1403 H1374 0.950 1_545 S
C1403 C1402 1.397 . S
C1403 C1404 1.334 . S
C1404 H1375 0.950 1_545 S
C1404 C1403 1.334 . S
C1404 C1405 1.287 . S
C1405 C1404 1.287 . S
C1405 C1406 1.524 . S
C1405 H1408 0.999 . S
C1406 H1376 0.950 . S
C1406 C1405 1.524 . S
C1406 C1407 1.415 . S
C1407 H1377 0.950 . S
C1407 C1402 1.363 . S
C1407 C1406 1.415 . S
H1408 C1405 0.999 . S
H1409 C1390 0.913 . S
H1410 C1428 0.951 . S
H1411 C1430 0.951 . S
H1412 C1432 0.950 . S
H1413 C1433 0.950 . S
H1414 C1435 0.950 . S
H1415 C1438 0.950 . S
H1416 C1439 0.950 . S
H1417 C1441 0.950 . S
H1418 C1442 0.950 . S
H1419 C1443 0.951 . S
H1420 C1445 0.951 . S
H1421 C1447 0.950 . S
H1422 C1448 0.950 . S
H1423 C1450 0.950 . S
H1424 C1453 0.950 . S
H1425 C1454 0.950 1_554 S
H1426 C1456 0.950 . S
H1427 C1457 0.950 . S
C1428 H1410 0.951 . S
C1428 C1429 1.366 . S
C1428 C1430 1.388 . S
C1429 C1428 1.366 . S
C1429 C1433 1.385 . S
C1430 H1411 0.951 . S
C1430 C1428 1.388 . S
C1430 C1431 1.366 . S
C1431 C1430 1.366 . S
C1431 C1432 1.414 . S
C1431 C1434 1.499 . S
C1432 H1412 0.950 . S
C1432 C1431 1.414 . S
C1432 C1433 1.374 . S
C1433 H1413 0.950 . S
C1433 C1429 1.385 . S
C1433 C1432 1.374 . S
C1434 C1431 1.499 . S
C1434 C1435 1.373 . S
C1434 C1436 1.389 . S
C1435 H1414 0.950 . S
C1435 C1434 1.373 . S
C1435 C1451 1.377 . S
C1436 C1434 1.389 . S
C1436 C1437 1.524 . S
C1436 C1450 1.377 . S
C1437 C1436 1.524 . S
C1437 C1438 1.397 . S
C1437 C1442 1.363 . S
C1438 H1415 0.950 . S
C1438 C1437 1.397 . S
C1438 C1439 1.334 . S
C1439 H1416 0.950 . S
C1439 C1438 1.334 . S
C1439 C1440 1.287 . S
C1440 C1439 1.287 . S
C1440 C1441 1.524 . S
C1440 H1459 0.913 . S
C1441 H1417 0.950 . S
C1441 C1440 1.524 . S
C1441 C1442 1.415 . S
C1442 H1418 0.950 . S
C1442 C1437 1.363 . S
C1442 C1441 1.415 . S
C1443 H1419 0.951 . S
C1443 C1444 1.366 . S
C1443 C1445 1.388 . S
C1444 C1443 1.366 . S
C1444 C1448 1.385 . S
C1445 H1420 0.951 . S
C1445 C1443 1.388 . S
C1445 C1446 1.361 1_554 S
C1446 C1445 1.361 1_556 S
C1446 C1447 1.408 1_556 S
C1446 C1449 1.509 . S
C1447 H1421 0.950 . S
C1447 C1446 1.408 1_554 S
C1447 C1448 1.374 . S
C1448 H1422 0.950 . S
C1448 C1444 1.385 . S
C1448 C1447 1.374 . S
C1449 C1446 1.509 . S
C1449 C1450 1.373 . S
C1449 C1451 1.389 . S
C1450 H1423 0.950 . S
C1450 C1436 1.377 . S
C1450 C1449 1.373 . S
C1451 C1435 1.377 . S
C1451 C1449 1.389 . S
C1451 C1452 1.524 . S
C1452 C1451 1.524 . S
C1452 C1453 1.397 . S
C1452 C1457 1.363 . S
C1453 H1424 0.950 . S
C1453 C1452 1.397 . S
C1453 C1454 1.334 . S
C1454 H1425 0.950 1_556 S
C1454 C1453 1.334 . S
C1454 C1455 1.287 . S
C1455 C1454 1.287 . S
C1455 C1456 1.524 . S
C1455 H1458 0.999 . S
C1456 H1426 0.950 . S
C1456 C1455 1.524 . S
C1456 C1457 1.415 . S
C1457 H1427 0.950 . S
C1457 C1452 1.363 . S
C1457 C1456 1.415 . S
H1458 C1455 0.999 . S
H1459 C1440 0.913 . S
H1460 C1478 0.951 . S
H1461 C1480 0.951 . S
H1462 C1482 0.950 . S
H1463 C1483 0.950 . S
H1464 C1485 0.950 . S
H1465 C1488 0.950 . S
H1466 C1489 0.950 . S
H1467 C1491 0.950 . S
H1468 C1492 0.950 . S
H1469 C1493 0.951 . S
H1470 C1495 0.951 . S
H1471 C1497 0.950 . S
H1472 C1498 0.950 . S
H1473 C1500 0.950 . S
H1474 C1503 0.950 . S
H1475 C1504 0.950 1_554 S
H1476 C1506 0.950 . S
H1477 C1507 0.950 . S
C1478 H1460 0.951 . S
C1478 C1479 1.366 . S
C1478 C1480 1.388 . S
C1479 C1478 1.366 . S
C1479 C1483 1.385 . S
C1480 H1461 0.951 . S
C1480 C1478 1.388 . S
C1480 C1481 1.366 . S
C1481 C1480 1.366 . S
C1481 C1482 1.414 . S
C1481 C1484 1.499 . S
C1482 H1462 0.950 . S
C1482 C1481 1.414 . S
C1482 C1483 1.374 . S
C1483 H1463 0.950 . S
C1483 C1479 1.385 . S
C1483 C1482 1.374 . S
C1484 C1481 1.499 . S
C1484 C1485 1.373 . S
C1484 C1486 1.389 . S
C1485 H1464 0.950 . S
C1485 C1484 1.373 . S
C1485 C1501 1.377 . S
C1486 C1484 1.389 . S
C1486 C1487 1.524 . S
C1486 C1500 1.377 . S
C1487 C1486 1.524 . S
C1487 C1488 1.397 . S
C1487 C1492 1.363 . S
C1488 H1465 0.950 . S
C1488 C1487 1.397 . S
C1488 C1489 1.334 . S
C1489 H1466 0.950 . S
C1489 C1488 1.334 . S
C1489 C1490 1.287 . S
C1490 C1489 1.287 . S
C1490 C1491 1.524 . S
C1490 H1509 0.913 . S
C1491 H1467 0.950 . S
C1491 C1490 1.524 . S
C1491 C1492 1.415 . S
C1492 H1468 0.950 . S
C1492 C1487 1.363 . S
C1492 C1491 1.415 . S
C1493 H1469 0.951 . S
C1493 C1494 1.366 . S
C1493 C1495 1.388 . S
C1494 C1493 1.366 . S
C1494 C1498 1.385 . S
C1495 H1470 0.951 . S
C1495 C1493 1.388 . S
C1495 C1496 1.360 1_554 S
C1496 C1495 1.360 1_556 S
C1496 C1497 1.408 1_556 S
C1496 C1499 1.510 . S
C1497 H1471 0.950 . S
C1497 C1496 1.408 1_554 S
C1497 C1498 1.374 . S
C1498 H1472 0.950 . S
C1498 C1494 1.385 . S
C1498 C1497 1.374 . S
C1499 C1496 1.510 . S
C1499 C1500 1.373 . S
C1499 C1501 1.389 . S
C1500 H1473 0.950 . S
C1500 C1486 1.377 . S
C1500 C1499 1.373 . S
C1501 C1485 1.377 . S
C1501 C1499 1.389 . S
C1501 C1502 1.524 . S
C1502 C1501 1.524 . S
C1502 C1503 1.397 . S
C1502 C1507 1.363 . S
C1503 H1474 0.950 . S
C1503 C1502 1.397 . S
C1503 C1504 1.334 . S
C1504 H1475 0.950 1_556 S
C1504 C1503 1.334 . S
C1504 C1505 1.287 . S
C1505 C1504 1.287 . S
C1505 C1506 1.524 . S
C1505 H1508 0.999 1_556 S
C1506 H1476 0.950 . S
C1506 C1505 1.524 . S
C1506 C1507 1.415 . S
C1507 H1477 0.950 . S
C1507 C1502 1.363 . S
C1507 C1506 1.415 . S
H1508 C1505 0.999 1_554 S
H1509 C1490 0.913 . S
H1510 C1528 0.951 . S
H1511 C1530 0.951 . S
H1512 C1532 0.950 . S
H1513 C1533 0.950 . S
H1514 C1535 0.950 . S
H1515 C1538 0.950 . S
H1516 C1539 0.950 . S
H1517 C1541 0.950 . S
H1518 C1542 0.950 . S
H1519 C1543 0.951 . S
H1520 C1545 0.951 . S
H1521 C1547 0.950 . S
H1522 C1548 0.950 . S
H1523 C1550 0.950 . S
H1524 C1553 0.950 . S
H1525 C1554 0.950 1_554 S
H1526 C1556 0.950 . S
H1527 C1557 0.950 . S
C1528 H1510 0.951 . S
C1528 C1529 1.366 . S
C1528 C1530 1.388 . S
C1529 C1528 1.366 . S
C1529 C1533 1.385 . S
C1530 H1511 0.951 . S
C1530 C1528 1.388 . S
C1530 C1531 1.366 . S
C1531 C1530 1.366 . S
C1531 C1532 1.414 . S
C1531 C1534 1.499 . S
C1532 H1512 0.950 . S
C1532 C1531 1.414 . S
C1532 C1533 1.374 . S
C1533 H1513 0.950 . S
C1533 C1529 1.385 . S
C1533 C1532 1.374 . S
C1534 C1531 1.499 . S
C1534 C1535 1.373 . S
C1534 C1536 1.389 . S
C1535 H1514 0.950 . S
C1535 C1534 1.373 . S
C1535 C1551 1.377 . S
C1536 C1534 1.389 . S
C1536 C1537 1.524 . S
C1536 C1550 1.377 . S
C1537 C1536 1.524 . S
C1537 C1538 1.397 . S
C1537 C1542 1.363 . S
C1538 H1515 0.950 . S
C1538 C1537 1.397 . S
C1538 C1539 1.334 . S
C1539 H1516 0.950 . S
C1539 C1538 1.334 . S
C1539 C1540 1.287 . S
C1540 C1539 1.287 . S
C1540 C1541 1.524 . S
C1540 H1559 0.913 . S
C1541 H1517 0.950 . S
C1541 C1540 1.524 . S
C1541 C1542 1.415 . S
C1542 H1518 0.950 . S
C1542 C1537 1.363 . S
C1542 C1541 1.415 . S
C1543 H1519 0.951 . S
C1543 C1544 1.366 . S
C1543 C1545 1.388 . S
C1544 C1543 1.366 . S
C1544 C1548 1.385 . S
C1545 H1520 0.951 . S
C1545 C1543 1.388 . S
C1545 C1546 1.358 1_554 S
C1546 C1545 1.358 1_556 S
C1546 C1547 1.408 1_556 S
C1546 C1549 1.511 . S
C1547 H1521 0.950 . S
C1547 C1546 1.408 1_554 S
C1547 C1548 1.374 . S
C1548 H1522 0.950 . S
C1548 C1544 1.385 . S
C1548 C1547 1.374 . S
C1549 C1546 1.511 . S
C1549 C1550 1.373 . S
C1549 C1551 1.389 . S
C1550 H1523 0.950 . S
C1550 C1536 1.377 . S
C1550 C1549 1.373 . S
C1551 C1535 1.377 . S
C1551 C1549 1.389 . S
C1551 C1552 1.524 . S
C1552 C1551 1.524 . S
C1552 C1553 1.397 . S
C1552 C1557 1.363 . S
C1553 H1524 0.950 . S
C1553 C1552 1.397 . S
C1553 C1554 1.334 . S
C1554 H1525 0.950 1_556 S
C1554 C1553 1.334 . S
C1554 C1555 1.287 . S
C1555 C1554 1.287 . S
C1555 C1556 1.524 . S
C1555 H1558 0.999 . S
C1556 H1526 0.950 . S
C1556 C1555 1.524 . S
C1556 C1557 1.415 . S
C1557 H1527 0.950 . S
C1557 C1552 1.363 . S
C1557 C1556 1.415 . S
H1558 C1555 0.999 . S
H1559 C1540 0.913 . S
H1560 C1578 0.951 . S
H1561 C1580 0.951 . S
H1562 C1582 0.950 . S
H1563 C1583 0.950 . S
H1564 C1585 0.950 . S
H1565 C1588 0.950 . S
H1566 C1589 0.950 . S
H1567 C1591 0.950 . S
H1568 C1592 0.950 . S
H1569 C1593 0.951 . S
H1570 C1595 0.951 . S
H1571 C1597 0.956 . S
H1572 C1598 0.950 . S
H1573 C1600 0.950 . S
H1574 C1603 0.950 . S
H1575 C1604 0.950 . S
H1576 C1606 0.950 . S
H1577 C1607 0.950 . S
C1578 H1560 0.951 . S
C1578 C1579 1.366 . S
C1578 C1580 1.388 . S
C1579 C1578 1.366 . S
C1579 C1583 1.385 . S
C1580 H1561 0.951 . S
C1580 C1578 1.388 . S
C1580 C1581 1.366 . S
C1581 C1580 1.366 . S
C1581 C1582 1.414 . S
C1581 C1584 1.499 . S
C1582 H1562 0.950 . S
C1582 C1581 1.414 . S
C1582 C1583 1.374 . S
C1583 H1563 0.950 . S
C1583 C1579 1.385 . S
C1583 C1582 1.374 . S
C1584 C1581 1.499 . S
C1584 C1585 1.373 . S
C1584 C1586 1.389 . S
C1585 H1564 0.950 . S
C1585 C1584 1.373 . S
C1585 C1601 1.377 . S
C1586 C1584 1.389 . S
C1586 C1587 1.524 . S
C1586 C1600 1.377 . S
C1587 C1586 1.524 . S
C1587 C1588 1.397 . S
C1587 C1592 1.363 . S
C1588 H1565 0.950 . S
C1588 C1587 1.397 . S
C1588 C1589 1.334 . S
C1589 H1566 0.950 . S
C1589 C1588 1.334 . S
C1589 C1590 1.287 . S
C1590 C1589 1.287 . S
C1590 C1591 1.524 . S
C1590 H1609 0.913 . S
C1591 H1567 0.950 . S
C1591 C1590 1.524 . S
C1591 C1592 1.415 . S
C1592 H1568 0.950 . S
C1592 C1587 1.363 . S
C1592 C1591 1.415 . S
C1593 H1569 0.951 . S
C1593 C1594 1.366 . S
C1593 C1595 1.388 . S
C1594 C1593 1.366 . S
C1594 C1598 1.385 . S
C1595 H1570 0.951 . S
C1595 C1593 1.388 . S
C1595 C1596 1.366 1_556 S
C1596 C1595 1.366 1_554 S
C1596 C1597 1.414 1_554 S
C1596 C1599 1.499 . S
C1597 H1571 0.956 . S
C1597 C1596 1.414 1_556 S
C1597 C1598 1.374 . S
C1598 H1572 0.950 . S
C1598 C1594 1.385 . S
C1598 C1597 1.374 . S
C1599 C1596 1.499 . S
C1599 C1600 1.373 . S
C1599 C1601 1.389 . S
C1600 H1573 0.950 . S
C1600 C1586 1.377 . S
C1600 C1599 1.373 . S
C1601 C1585 1.377 . S
C1601 C1599 1.389 . S
C1601 C1602 1.524 . S
C1602 C1601 1.524 . S
C1602 C1603 1.397 . S
C1602 C1607 1.363 . S
C1603 H1574 0.950 . S
C1603 C1602 1.397 . S
C1603 C1604 1.334 . S
C1604 H1575 0.950 . S
C1604 C1603 1.334 . S
C1604 C1605 1.287 . S
C1605 C1604 1.287 . S
C1605 C1606 1.524 . S
C1605 H1608 0.999 . S
C1606 H1576 0.950 . S
C1606 C1605 1.524 . S
C1606 C1607 1.415 . S
C1607 H1577 0.950 . S
C1607 C1602 1.363 . S
C1607 C1606 1.415 . S
H1608 C1605 0.999 . S
H1609 C1590 0.913 . S
H1610 C1628 0.951 . S
H1611 C1630 0.951 . S
H1612 C1632 0.950 1_554 S
H1613 C1633 0.950 . S
H1614 C1635 0.950 . S
H1615 C1638 0.950 . S
H1616 C1639 0.952 . S
H1617 C1641 0.950 . S
H1618 C1642 0.950 . S
H1619 C1643 0.951 . S
H1620 C1645 0.951 . S
H1621 C1647 0.950 . S
H1622 C1648 0.950 . S
H1623 C1650 0.950 . S
H1624 C1653 0.950 . S
H1625 C1654 0.950 . S
H1626 C1656 0.950 . S
H1627 C1657 0.950 . S
C1628 H1610 0.951 . S
C1628 C1629 1.366 . S
C1628 C1630 1.388 . S
C1629 C1628 1.366 . S
C1629 C1633 1.385 . S
C1630 H1611 0.951 . S
C1630 C1628 1.388 . S
C1630 C1631 1.366 1_556 S
C1631 C1630 1.366 1_554 S
C1631 C1632 1.414 1_554 S
C1631 C1634 1.499 . S
C1632 H1612 0.950 1_556 S
C1632 C1631 1.414 1_556 S
C1632 C1633 1.374 . S
C1633 H1613 0.950 . S
C1633 C1629 1.385 . S
C1633 C1632 1.374 . S
C1634 C1631 1.499 . S
C1634 C1635 1.373 . S
C1634 C1636 1.389 . S
C1635 H1614 0.950 . S
C1635 C1634 1.373 . S
C1635 C1651 1.377 . S
C1636 C1634 1.389 . S
C1636 C1637 1.524 . S
C1636 C1650 1.377 . S
C1637 C1636 1.524 . S
C1637 C1638 1.397 . S
C1637 C1642 1.363 . S
C1638 H1615 0.950 . S
C1638 C1637 1.397 . S
C1638 C1639 1.334 . S
C1639 H1616 0.952 . S
C1639 C1638 1.334 . S
C1639 C1640 1.287 . S
C1640 C1639 1.287 . S
C1640 C1641 1.524 . S
C1640 H1659 0.913 . S
C1641 H1617 0.950 . S
C1641 C1640 1.524 . S
C1641 C1642 1.415 . S
C1642 H1618 0.950 . S
C1642 C1637 1.363 . S
C1642 C1641 1.415 . S
C1643 H1619 0.951 . S
C1643 C1644 1.366 . S
C1643 C1645 1.388 . S
C1644 C1643 1.366 . S
C1644 C1648 1.385 . S
C1645 H1620 0.951 . S
C1645 C1643 1.388 . S
C1645 C1646 1.366 . S
C1646 C1645 1.366 . S
C1646 C1647 1.414 . S
C1646 C1649 1.499 . S
C1647 H1621 0.950 . S
C1647 C1646 1.414 . S
C1647 C1648 1.374 . S
C1648 H1622 0.950 . S
C1648 C1644 1.385 . S
C1648 C1647 1.374 . S
C1649 C1646 1.499 . S
C1649 C1650 1.373 . S
C1649 C1651 1.389 . S
C1650 H1623 0.950 . S
C1650 C1636 1.377 . S
C1650 C1649 1.373 . S
C1651 C1635 1.377 . S
C1651 C1649 1.389 . S
C1651 C1652 1.524 . S
C1652 C1651 1.524 . S
C1652 C1653 1.397 . S
C1652 C1657 1.363 . S
C1653 H1624 0.950 . S
C1653 C1652 1.397 . S
C1653 C1654 1.334 . S
C1654 H1625 0.950 . S
C1654 C1653 1.334 . S
C1654 C1655 1.287 . S
C1655 C1654 1.287 . S
C1655 C1656 1.524 . S
C1655 H1658 0.999 . S
C1656 H1626 0.950 . S
C1656 C1655 1.524 . S
C1656 C1657 1.415 . S
C1657 H1627 0.950 . S
C1657 C1652 1.363 . S
C1657 C1656 1.415 . S
H1658 C1655 0.999 . S
H1659 C1640 0.913 . S
H1660 C1678 0.951 . S
H1661 C1680 0.951 . S
H1662 C1682 0.950 . S
H1663 C1683 0.950 . S
H1664 C1685 0.950 . S
H1665 C1688 0.950 . S
H1666 C1689 0.950 . S
H1667 C1691 0.950 . S
H1668 C1692 0.950 . S
H1669 C1693 0.951 . S
H1670 C1695 0.951 1_554 S
H1671 C1697 0.950 . S
H1672 C1698 0.950 . S
H1673 C1700 0.950 . S
H1674 C1703 0.950 . S
H1675 C1704 0.950 . S
H1676 C1706 0.950 . S
H1677 C1707 0.950 . S
C1678 H1660 0.951 . S
C1678 C1679 1.366 . S
C1678 C1680 1.388 . S
C1679 C1678 1.366 . S
C1679 C1683 1.385 . S
C1680 H1661 0.951 . S
C1680 C1678 1.388 . S
C1680 C1681 1.366 . S
C1681 C1680 1.366 . S
C1681 C1682 1.414 . S
C1681 C1684 1.499 . S
C1682 H1662 0.950 . S
C1682 C1681 1.414 . S
C1682 C1683 1.374 . S
C1683 H1663 0.950 . S
C1683 C1679 1.385 . S
C1683 C1682 1.374 . S
C1684 C1681 1.499 . S
C1684 C1685 1.373 . S
C1684 C1686 1.389 . S
C1685 H1664 0.950 . S
C1685 C1684 1.373 . S
C1685 C1701 1.377 . S
C1686 C1684 1.389 . S
C1686 C1687 1.524 . S
C1686 C1700 1.377 . S
C1687 C1686 1.524 . S
C1687 C1688 1.397 . S
C1687 C1692 1.363 . S
C1688 H1665 0.950 . S
C1688 C1687 1.397 . S
C1688 C1689 1.334 . S
C1689 H1666 0.950 . S
C1689 C1688 1.334 . S
C1689 C1690 1.287 . S
C1690 C1689 1.287 . S
C1690 C1691 1.524 . S
C1690 H1709 0.913 . S
C1691 H1667 0.950 . S
C1691 C1690 1.524 . S
C1691 C1692 1.415 . S
C1692 H1668 0.950 . S
C1692 C1687 1.363 . S
C1692 C1691 1.415 . S
C1693 H1669 0.951 . S
C1693 C1694 1.366 . S
C1693 C1695 1.388 . S
C1694 C1693 1.366 . S
C1694 C1698 1.385 . S
C1695 H1670 0.951 1_556 S
C1695 C1693 1.388 . S
C1695 C1696 1.366 1_556 S
C1696 C1695 1.366 1_554 S
C1696 C1697 1.414 1_554 S
C1696 C1699 1.499 . S
C1697 H1671 0.950 . S
C1697 C1696 1.414 1_556 S
C1697 C1698 1.374 . S
C1698 H1672 0.950 . S
C1698 C1694 1.385 . S
C1698 C1697 1.374 . S
C1699 C1696 1.499 . S
C1699 C1700 1.373 . S
C1699 C1701 1.389 . S
C1700 H1673 0.950 . S
C1700 C1686 1.377 . S
C1700 C1699 1.373 . S
C1701 C1685 1.377 . S
C1701 C1699 1.389 . S
C1701 C1702 1.524 . S
C1702 C1701 1.524 . S
C1702 C1703 1.397 . S
C1702 C1707 1.363 . S
C1703 H1674 0.950 . S
C1703 C1702 1.397 . S
C1703 C1704 1.334 . S
C1704 H1675 0.950 . S
C1704 C1703 1.334 . S
C1704 C1705 1.287 . S
C1705 C1704 1.287 . S
C1705 C1706 1.524 . S
C1705 H1708 0.999 . S
C1706 H1676 0.950 . S
C1706 C1705 1.524 . S
C1706 C1707 1.415 . S
C1707 H1677 0.950 . S
C1707 C1702 1.363 . S
C1707 C1706 1.415 . S
H1708 C1705 0.999 . S
H1709 C1690 0.913 . S
C379 C6 2.063 1_556 S
C394 C290 2.110 . S
C429 C46 2.063 1_556 S
C444 C330 2.110 . S
C479 C86 2.063 1_556 S
C494 C250 2.111 . S
C529 C166 2.063 . S
C544 C90 2.110 . S
C579 C206 2.063 . S
C594 C10 2.111 . S
C629 C50 2.110 . S
C644 C126 2.062 . S
C679 C286 2.062 . S
C694 C210 2.110 . S
C729 C326 2.063 . S
C744 C130 2.111 . S
C779 C170 2.110 . S
C794 C246 2.062 . S
C829 C95 1.732 . S
C844 C19 1.717 . S
C879 C59 1.717 . S
C894 C15 1.731 . S
C929 C55 1.731 . S
C944 C99 1.717 . S
C979 C139 1.718 . S
C994 C215 1.732 . S
C1029 C135 1.731 . S
C1044 C179 1.717 . S
C1079 C175 1.731 . S
C1094 C219 1.717 . S
C1129 C335 1.732 . S
C1144 C259 1.718 . S
C1179 C299 1.717 . S
C1194 C255 1.731 . S
C1229 C339 1.717 . S
C1244 C295 1.731 . S
C1279 C9 0.816 . S
C1294 C18 0.816 . S
C1329 C49 0.815 . S
C1344 C58 0.815 . S
C1379 C89 0.817 . S
C1394 C98 0.817 . S
C1429 C138 0.816 . S
C1444 C129 0.816 . S
C1479 C178 0.817 . S
C1494 C169 0.817 . S
C1529 C218 0.816 . S
C1544 C209 0.816 . S
C1579 C249 0.815 . S
C1594 C258 0.815 . S
C1629 C298 0.816 . S
C1644 C289 0.816 . S
C1679 C329 0.815 . S
C1694 C338 0.815 . S
