# Generated by pormake.
# Topology une, (4)-cn, num edge types: 1
# Building blocks:
#     Node 0, Type 0, BuildingBlock: GALJAG_clean_sbu_0, # of connection points: 4
#     Node 1, Type 0, BuildingBlock: GALJAG_clean_sbu_0, # of connection points: 4
#     Node 2, Type 0, BuildingBlock: GALJAG_clean_sbu_0, # of connection points: 4
#     Node 3, Type 0, BuildingBlock: GALJAG_clean_sbu_0, # of connection points: 4
#     Node 4, Type 0, BuildingBlock: GALJAG_clean_sbu_0, # of connection points: 4
#     Node 5, Type 0, BuildingBlock: GALJAG_clean_sbu_0, # of connection points: 4
#     Node 6, Type 0, BuildingBlock: GALJAG_clean_sbu_0, # of connection points: 4
#     Node 7, Type 0, BuildingBlock: GALJAG_clean_sbu_0, # of connection points: 4
#     Node 8, Type 0, BuildingBlock: GALJAG_clean_sbu_0, # of connection points: 4
#     Node 9, Type 0, BuildingBlock: GALJAG_clean_sbu_0, # of connection points: 4
#     Node 10, Type 0, BuildingBlock: GALJAG_clean_sbu_0, # of connection points: 4
#     Node 11, Type 0, BuildingBlock: GALJAG_clean_sbu_0, # of connection points: 4
#     Node 12, Type 0, BuildingBlock: GALJAG_clean_sbu_0, # of connection points: 4
#     Node 13, Type 0, BuildingBlock: GALJAG_clean_sbu_0, # of connection points: 4
#     Node 14, Type 0, BuildingBlock: GALJAG_clean_sbu_0, # of connection points: 4
#     Node 15, Type 0, BuildingBlock: GALJAG_clean_sbu_0, # of connection points: 4
#     Node 16, Type 0, BuildingBlock: GALJAG_clean_sbu_0, # of connection points: 4
#     Node 17, Type 0, BuildingBlock: GALJAG_clean_sbu_0, # of connection points: 4
#     Edge 18, Type (0, 0), BuildingBlock: OJICUG_clean_linker_0, # of connection points: 2
#     Edge 19, Type (0, 0), BuildingBlock: OJICUG_clean_linker_0, # of connection points: 2
#     Edge 20, Type (0, 0), BuildingBlock: OJICUG_clean_linker_0, # of connection points: 2
#     Edge 21, Type (0, 0), BuildingBlock: OJICUG_clean_linker_0, # of connection points: 2
#     Edge 22, Type (0, 0), BuildingBlock: OJICUG_clean_linker_0, # of connection points: 2
#     Edge 23, Type (0, 0), BuildingBlock: OJICUG_clean_linker_0, # of connection points: 2
#     Edge 24, Type (0, 0), BuildingBlock: OJICUG_clean_linker_0, # of connection points: 2
#     Edge 25, Type (0, 0), BuildingBlock: OJICUG_clean_linker_0, # of connection points: 2
#     Edge 26, Type (0, 0), BuildingBlock: OJICUG_clean_linker_0, # of connection points: 2
#     Edge 27, Type (0, 0), BuildingBlock: OJICUG_clean_linker_0, # of connection points: 2
#     Edge 28, Type (0, 0), BuildingBlock: OJICUG_clean_linker_0, # of connection points: 2
#     Edge 29, Type (0, 0), BuildingBlock: OJICUG_clean_linker_0, # of connection points: 2
#     Edge 30, Type (0, 0), BuildingBlock: OJICUG_clean_linker_0, # of connection points: 2
#     Edge 31, Type (0, 0), BuildingBlock: OJICUG_clean_linker_0, # of connection points: 2
#     Edge 32, Type (0, 0), BuildingBlock: OJICUG_clean_linker_0, # of connection points: 2
#     Edge 33, Type (0, 0), BuildingBlock: OJICUG_clean_linker_0, # of connection points: 2
#     Edge 34, Type (0, 0), BuildingBlock: OJICUG_clean_linker_0, # of connection points: 2
#     Edge 35, Type (0, 0), BuildingBlock: OJICUG_clean_linker_0, # of connection points: 2
#     Edge 36, Type (0, 0), BuildingBlock: OJICUG_clean_linker_0, # of connection points: 2
#     Edge 37, Type (0, 0), BuildingBlock: OJICUG_clean_linker_0, # of connection points: 2
#     Edge 38, Type (0, 0), BuildingBlock: OJICUG_clean_linker_0, # of connection points: 2
#     Edge 39, Type (0, 0), BuildingBlock: OJICUG_clean_linker_0, # of connection points: 2
#     Edge 40, Type (0, 0), BuildingBlock: OJICUG_clean_linker_0, # of connection points: 2
#     Edge 41, Type (0, 0), BuildingBlock: OJICUG_clean_linker_0, # of connection points: 2
#     Edge 42, Type (0, 0), BuildingBlock: OJICUG_clean_linker_0, # of connection points: 2
#     Edge 43, Type (0, 0), BuildingBlock: OJICUG_clean_linker_0, # of connection points: 2
#     Edge 44, Type (0, 0), BuildingBlock: OJICUG_clean_linker_0, # of connection points: 2
#     Edge 45, Type (0, 0), BuildingBlock: OJICUG_clean_linker_0, # of connection points: 2
#     Edge 46, Type (0, 0), BuildingBlock: OJICUG_clean_linker_0, # of connection points: 2
#     Edge 47, Type (0, 0), BuildingBlock: OJICUG_clean_linker_0, # of connection points: 2
#     Edge 48, Type (0, 0), BuildingBlock: OJICUG_clean_linker_0, # of connection points: 2
#     Edge 49, Type (0, 0), BuildingBlock: OJICUG_clean_linker_0, # of connection points: 2
#     Edge 50, Type (0, 0), BuildingBlock: OJICUG_clean_linker_0, # of connection points: 2
#     Edge 51, Type (0, 0), BuildingBlock: OJICUG_clean_linker_0, # of connection points: 2
#     Edge 52, Type (0, 0), BuildingBlock: OJICUG_clean_linker_0, # of connection points: 2
#     Edge 53, Type (0, 0), BuildingBlock: OJICUG_clean_linker_0, # of connection points: 2
# Relax obj value: 0.162
# Max RMSD: 0.140
# Mean RMSD: 0.139
data_MOF--net-une--node1-GALJAG_clean_sbu_0--edge1-OJICUG_clean_linker_0
_symmetry_space_group_name_H-M    P1
_symmetry_Int_Tables_number       1
_symmetry_cell_setting            triclinic
loop_
_symmetry_equiv_pos_as_xyz
'x, y, z'
_cell_length_a     29.491239
_cell_length_b     29.464302
_cell_length_c     37.257408
_cell_angle_alpha  89.979061
_cell_angle_beta   90.230861
_cell_angle_gamma 119.92533
loop_
_atom_site_label
_atom_site_type_symbol
_atom_site_fract_x
_atom_site_fract_y
_atom_site_fract_z
_atom_type_partial_charge
In0 In 0.34372 0.04756 0.057 0.0
O1 O 0.29415 0.06361 0.09583 0.0
O2 O 0.37303 0.09091 0.11117 0.0
C3 C 0.25914 0.95211 0.05432 0.0
C4 C 0.36121 0.12812 0.01476 0.0
C5 C 0.41402 0.02142 0.03288 0.0
O6 O 0.29921 0.96131 0.07236 0.0
O7 O 0.26153 0.99117 0.03854 0.0
O8 O 0.38411 0.0289 0.01254 0.0
O9 O 0.41011 0.02906 0.06595 0.0
C10 C 0.33012 0.08904 0.11825 0.0
O11 O 0.39117 0.13241 0.04043 0.0
O12 O 0.32363 0.08237 0.00929 0.0
In13 In 0.92028 0.28433 0.04919 0.0
O14 O 0.90332 0.21986 0.08937 0.0
O15 O 0.8634 0.26208 0.09745 0.0
C16 C 0.01779 0.30067 0.05532 0.0
C17 C 0.85557 0.22178 0.99769 0.0
C18 C 0.94522 0.38105 0.02573 0.0
O19 O 0.00408 0.3302 0.07057 0.0
O20 O 0.98225 0.26296 0.03784 0.0
O21 O 0.94118 0.34499 1.00545 0.0
O22 O 0.93461 0.368 0.0584 0.0
C23 C 0.86999 0.22463 0.10739 0.0
O24 O 0.84168 0.24465 0.0201 0.0
O25 O 0.90232 0.23191 1.00081 0.0
In26 In 0.69777 0.6458 0.06701 0.0
O27 O 0.73706 0.60679 0.03785 0.0
O28 O 0.7525 0.68196 0.02015 0.0
C29 C 0.60169 0.57394 0.04261 0.0
C30 C 0.75464 0.65457 0.12709 0.0
C31 C 0.67907 0.72572 0.06878 0.0
O32 O 0.63964 0.60177 0.02232 0.0
O33 O 0.61263 0.58006 0.07585 0.0
O34 O 0.64863 0.68236 0.0834 0.0
O35 O 0.71928 0.72895 0.05449 0.0
C36 C 0.76117 0.64443 0.01629 0.0
O37 O 0.75832 0.69293 0.10985 0.0
O38 O 0.7195 0.61048 0.11541 0.0
In39 In 0.62374 0.92806 0.95264 0.0
O40 O 0.67017 0.91327 0.91055 0.0
O41 O 0.58776 0.86649 0.90671 0.0
C42 C 0.70022 0.02745 0.94471 0.0
C43 C 0.63163 0.87102 1.00575 0.0
C44 C 0.54884 0.94741 0.97712 0.0
O45 O 0.65456 0.01206 0.93301 0.0
O46 O 0.70694 -0.00725 0.95946 0.0
O47 O 0.58214 0.94495 0.99709 0.0
O48 O 0.55162 0.93794 0.94423 0.0
C49 C 0.63187 0.87613 0.89485 0.0
O50 O 0.59244 0.85281 0.98498 0.0
O51 O 0.66575 0.9181 1.00016 0.0
In52 In 0.04205 0.68677 0.94771 0.0
O53 O 0.11697 0.72931 0.98108 0.0
O54 O 0.05756 0.74909 0.98906 0.0
C55 C 0.02168 0.59145 0.97154 0.0
C56 C 0.08946 0.73776 0.88592 0.0
C57 C 0.94447 0.67083 0.94921 0.0
O58 O 0.02823 0.6283 0.99201 0.0
O59 O 0.02782 0.60317 0.93849 0.0
O60 O 0.95402 0.63575 0.93858 0.0
O61 O 0.98407 0.71382 0.95774 0.0
C62 C 0.10269 0.75774 0.9972 0.0
O63 O 0.04353 0.72579 0.8942 0.0
O64 O 0.10995 0.71939 0.90692 0.0
In65 In 0.29762 0.36467 0.96704 0.0
O66 O 0.23851 0.31532 0.92401 0.0
O67 O 0.27233 0.39777 0.91959 0.0
C68 C 0.32965 0.29457 0.97256 0.0
C69 C 0.22086 0.34835 0.01262 0.0
C70 C 0.39173 0.44674 0.98583 0.0
O71 O 0.32391 0.31042 0.94231 0.0
O72 O 0.31808 0.31292 0.99927 0.0
O73 O 0.35299 0.42593 1.00654 0.0
O74 O 0.38194 0.42947 0.95394 0.0
C75 C 0.2392 0.35299 0.90754 0.0
O76 O 0.24994 0.39244 0.9984 0.0
O77 O 0.23169 0.31324 1.0046 0.0
In78 In 0.02031 0.38104 0.39475 0.0
O79 O 0.96574 0.38962 0.43381 0.0
O80 O 0.04605 0.42509 0.44854 0.0
C81 C 0.9458 0.28302 0.3805 0.0
C82 C 0.02386 0.45851 0.35555 0.0
C83 C 0.10007 0.3658 0.37556 0.0
O84 O 0.96315 0.29692 0.41203 0.0
O85 O 0.96425 0.31868 0.3572 0.0
O86 O 0.08126 0.38676 0.3556 0.0
O87 O 0.0818 0.35627 0.40711 0.0
C88 C 0.00112 0.41825 0.45587 0.0
O89 O 0.0597 0.46562 0.3774 0.0
O90 O 0.98691 0.41182 0.35265 0.0
In91 In 0.58988 0.62409 0.39196 0.0
O92 O 0.51521 0.57937 0.359 0.0
O93 O 0.57732 0.56369 0.34986 0.0
C94 C 0.61012 0.7182 0.36567 0.0
C95 C 0.54061 0.5701 0.4524 0.0
C96 C 0.68824 0.64319 0.39582 0.0
O97 O 0.60511 0.68091 0.34633 0.0
O98 O 0.6025 0.70758 0.39885 0.0
O99 O 0.67546 0.67518 0.40819 0.0
O100 O 0.65137 0.60185 0.38234 0.0
C101 C 0.53136 0.55299 0.34218 0.0
O102 O 0.58574 0.58029 0.44343 0.0
O103 O 0.52163 0.59156 0.43278 0.0
In104 In 0.35732 0.96087 0.40129 0.0
O105 O 0.40054 0.93059 0.36745 0.0
O106 O 0.42003 0.01023 0.36121 0.0
C107 C 0.26124 0.87985 0.38593 0.0
C108 C 0.41769 0.97552 0.46038 0.0
C109 C 0.32568 0.03025 0.39083 0.0
O110 O 0.30149 0.88964 0.36834 0.0
O111 O 0.27039 0.90654 0.41438 0.0
O112 O 0.33384 0.01928 0.42211 0.0
O113 O 0.33526 0.00791 0.36557 0.0
C114 C 0.4284 0.9739 0.35191 0.0
O115 O 0.41974 0.01221 0.44186 0.0
O116 O 0.38249 0.93027 0.45051 0.0
In117 In 0.29608 0.25912 0.28988 0.0
O118 O 0.34319 0.24057 0.2507 0.0
O119 O 0.26283 0.20981 0.23806 0.0
C120 C 0.37886 0.35572 0.28806 0.0
C121 C 0.28567 0.18549 0.33615 0.0
C122 C 0.22608 0.28434 0.31574 0.0
O123 O 0.33677 0.34419 0.27184 0.0
O124 O 0.37932 0.31834 0.30427 0.0
O125 O 0.25487 0.27445 0.33544 0.0
O126 O 0.23061 0.27924 0.28234 0.0
C127 C 0.30575 0.21232 0.23 0.0
O128 O 0.2533 0.17642 0.31103 0.0
O129 O 0.32239 0.23238 0.33863 0.0
In130 In 0.71149 0.02172 0.28115 0.0
O131 O 0.72107 0.08203 0.23927 0.0
O132 O 0.75788 0.03743 0.2283 0.0
C133 C 0.61646 0.01129 0.28554 0.0
C134 C 0.78927 0.08768 0.32437 0.0
C135 C 0.68735 0.92581 0.30605 0.0
O136 O 0.62426 0.97868 0.26859 0.0
O137 O 0.6567 0.04947 0.29908 0.0
O138 O 0.69811 0.96442 0.32602 0.0
O139 O 0.69119 0.93586 0.27273 0.0
C140 C 0.75058 0.07461 0.21877 0.0
O141 O 0.79669 0.06525 0.29802 0.0
O142 O 0.74224 0.07515 0.32973 0.0
In143 In 0.95987 0.69464 0.30041 0.0
O144 O 0.91529 0.72714 0.33045 0.0
O145 O 0.89547 0.64804 0.34001 0.0
C146 C 0.05676 0.77221 0.31842 0.0
C147 C 0.90385 0.68401 0.23972 0.0
C148 C 0.98483 0.62014 0.31043 0.0
O149 O 0.01635 0.76238 0.33581 0.0
O150 O 0.04776 0.74726 0.28919 0.0
O151 O 0.97939 0.63363 0.27925 0.0
O152 O 0.97613 0.64286 0.33589 0.0
C153 C 0.88641 0.68473 0.34672 0.0
O154 O 0.89846 0.64609 0.25845 0.0
O155 O 0.94022 0.72828 0.25028 0.0
In156 In 0.68127 0.71576 0.72464 0.0
O157 O 0.72687 0.80094 0.70858 0.0
O158 O 0.66052 0.74981 0.67679 0.0
C159 C 0.75273 0.69117 0.70056 0.0
C160 C 0.66497 0.75479 0.78612 0.0
C161 C 0.59776 0.61992 0.72157 0.0
O162 O 0.72284 0.69865 0.6802 0.0
O163 O 0.74826 0.69809 0.73368 0.0
O164 O 0.63816 0.62932 0.7393 0.0
O165 O 0.59945 0.65887 0.70609 0.0
C166 C 0.69715 0.79596 0.68257 0.0
O167 O 0.62918 0.72697 0.76419 0.0
O168 O 0.70935 0.76049 0.77843 0.0
In169 In 0.25657 0.95376 0.71994 0.0
O170 O 0.25178 0.90536 0.76916 0.0
O171 O 0.19079 0.92265 0.76259 0.0
C172 C 0.35461 0.97137 0.7221 0.0
C173 C 0.1945 0.88628 0.66934 0.0
C174 C 0.27854 0.04971 0.69649 0.0
O175 O 0.34231 0.0027 0.73627 0.0
O176 O 0.31737 0.93116 0.70772 0.0
O177 O 0.27313 0.0133 0.67605 0.0
O178 O 0.27058 0.03734 0.7294 0.0
C179 C 0.20844 0.89807 0.78017 0.0
O180 O 0.17994 0.91187 0.68862 0.0
O181 O 0.24057 0.89577 0.67516 0.0
In182 In 0.02798 0.30971 0.73773 0.0
O183 O 0.08495 0.35656 0.78237 0.0
O184 O 0.05156 0.27425 0.78514 0.0
C185 C 0.00798 0.38862 0.73946 0.0
C186 C 0.0936 0.31151 0.68761 0.0
C187 C 0.93315 0.23779 0.71156 0.0
O188 O 0.97725 0.34476 0.75339 0.0
O189 O 0.04895 0.39272 0.72584 0.0
O190 O 0.97183 0.26626 0.69202 0.0
O191 O 0.94273 0.2432 0.74501 0.0
C192 C 0.08401 0.31847 0.79824 0.0
O193 O 0.06892 0.27276 0.70822 0.0
O194 O 0.0845 0.34865 0.69215 0.0
In195 In 0.95974 0.59335 0.62118 0.0
O196 O 0.92583 0.51743 0.65306 0.0
O197 O -0.00101 0.58175 0.66958 0.0
C198 C 0.88636 0.61561 0.64482 0.0
C199 C 0.96748 0.54077 0.56353 0.0
C200 C 0.03939 0.69158 0.61492 0.0
O201 O 0.91791 0.61076 0.66515 0.0
O202 O 0.89005 0.60712 0.61186 0.0
O203 O -0.00531 0.67814 0.60211 0.0
O204 O 0.04363 0.65544 0.62978 0.0
C205 C 0.96403 0.53484 0.67467 0.0
O206 O 0.00587 0.57745 0.5795 0.0
O207 O 0.92345 0.53196 0.57501 0.0
In208 In 0.37504 0.35521 0.61815 0.0
O209 O 0.37604 0.39638 0.56577 0.0
O210 O 0.44136 0.38707 0.57623 0.0
C211 C 0.27804 0.34032 0.62074 0.0
C212 C 0.4382 0.42548 0.66698 0.0
C213 C 0.354 0.25962 0.64179 0.0
O214 O 0.28711 0.30569 0.60841 0.0
O215 O 0.31784 0.38237 0.63051 0.0
O216 O 0.36162 0.29675 0.66233 0.0
O217 O 0.35938 0.27114 0.6087 0.0
C218 C 0.42124 0.40717 0.55643 0.0
O219 O 0.45157 0.39719 0.64971 0.0
O220 O 0.39268 0.41695 0.66034 0.0
In221 In 0.6323 0.0305 0.63029 0.0
O222 O 0.58447 0.05985 0.65964 0.0
O223 O 0.56653 0.9811 0.6684 0.0
C224 C 0.72572 0.11245 0.65037 0.0
C225 C 0.57394 0.01602 0.57028 0.0
C226 C 0.66405 0.96041 0.63741 0.0
O227 O 0.68612 0.09176 0.6703 0.0
O228 O 0.71721 0.09528 0.61844 0.0
O229 O 0.66061 0.9771 0.60688 0.0
O230 O 0.65032 0.97788 0.66351 0.0
C231 C 0.55563 0.01658 0.67499 0.0
O232 O 0.57229 0.97919 0.58846 0.0
O233 O 0.60801 0.06137 0.5809 0.0
C234 C 0.48081 -0.00676 0.04183 0.0
C235 C 0.44863 0.00254 0.01874 0.0
H236 H 0.53725 0.9681 0.04678 0.0
C237 C 0.44846 0.99205 0.98184 0.0
H238 H 0.48161 0.00061 0.07037 0.0
C239 C 0.48006 0.97305 0.96828 0.0
C240 C 0.51259 0.96419 0.99133 0.0
H241 H 0.42384 -0.00147 0.96333 0.0
H242 H 0.47947 0.96591 0.93972 0.0
C243 C 0.51248 0.97435 0.02827 0.0
C244 C 0.97374 0.47609 0.03543 0.0
C245 C 0.96406 0.43485 0.01205 0.0
H246 H 0.00012 0.55792 0.04101 0.0
C247 C 0.97466 0.44578 0.97523 0.0
H248 H 0.96634 0.46907 0.06391 0.0
C249 C -0.0058 0.49669 0.96207 0.0
C250 C 0.00379 0.53792 0.98543 0.0
H251 H 0.96787 0.41491 0.95648 0.0
H252 H 0.00146 0.50365 0.93357 0.0
C253 C -0.00657 0.52705 0.02227 0.0
C254 C 0.48881 0.50321 0.97685 0.0
C255 C 0.44532 0.4822 0.99972 0.0
H256 H 0.57231 0.54833 0.97253 0.0
C257 C 0.45379 0.49118 0.03692 0.0
H258 H 0.48367 0.49657 0.94815 0.0
C259 C 0.50452 0.51991 0.05098 0.0
C260 C 0.548 0.54076 0.02815 0.0
H261 H 0.42117 0.47514 0.05538 0.0
H262 H 0.50963 0.52615 0.07971 0.0
C263 C 0.53958 0.53243 0.9909 0.0
C264 C 0.14355 0.34939 0.32372 0.0
C265 C 0.13481 0.34741 0.36099 0.0
H266 H 0.17816 0.33007 0.28013 0.0
C267 C 0.15576 0.32386 0.38314 0.0
H268 H 0.1275 0.36683 0.30581 0.0
C269 C 0.18494 0.30286 0.36832 0.0
C270 C 0.19309 0.30433 0.331 0.0
H271 H 0.14931 0.32131 0.41185 0.0
H272 H 0.20093 0.28523 0.38611 0.0
C273 C 0.17209 0.32783 0.30888 0.0
C274 C 0.64079 0.81406 0.37288 0.0
C275 C 0.6279 0.771 0.35046 0.0
H276 H 0.67024 0.89664 0.37644 0.0
C277 C 0.63515 0.77931 0.31316 0.0
H278 H 0.63605 0.80908 0.40168 0.0
C279 C 0.65493 0.82953 0.29863 0.0
C280 C 0.66817 0.87264 0.32108 0.0
H281 H 0.62582 0.74696 0.29512 0.0
H282 H 0.65982 0.83455 0.26984 0.0
C283 C 0.66076 0.86429 0.35836 0.0
C284 C 0.11625 0.825 0.36889 0.0
C285 C 0.1097 0.80214 0.3347 0.0
H286 H 0.1688 0.86631 0.41231 0.0
C287 C 0.15288 0.80269 0.31848 0.0
H288 H 0.08359 0.82463 0.38238 0.0
C289 C 0.20149 0.82577 0.33596 0.0
C290 C 0.20811 0.84885 0.37008 0.0
H291 H 0.14897 0.78465 0.29247 0.0
H292 H 0.23417 0.82626 0.32242 0.0
C293 C 0.16488 0.84813 0.38636 0.0
C294 C 0.8196 0.64396 0.63573 0.0
C295 C 0.85089 0.63349 0.65889 0.0
H296 H 0.7645 0.67087 0.63074 0.0
C297 C 0.85008 0.6427 0.69593 0.0
H298 H 0.8196 0.63762 0.6071 0.0
C299 C 0.81876 0.66198 0.70951 0.0
C300 C 0.78757 0.67259 0.68636 0.0
H301 H 0.87393 0.63525 0.71453 0.0
H302 H 0.81887 0.66842 0.73814 0.0
C303 C 0.7883 0.66332 0.64932 0.0
C304 C 0.32768 0.19585 0.69278 0.0
C305 C 0.33601 0.20612 0.65573 0.0
H306 H 0.30252 0.13847 0.73475 0.0
C307 C 0.32441 0.16439 0.63231 0.0
H308 H 0.33595 0.22712 0.71157 0.0
C309 C 0.305 0.11359 0.64564 0.0
C310 C 0.29661 0.10329 0.68268 0.0
H311 H 0.33005 0.17089 0.60366 0.0
H312 H 0.29674 0.08233 0.62683 0.0
C313 C 0.30818 0.14501 0.70611 0.0
C314 C 0.78552 0.15594 0.70268 0.0
C315 C 0.77875 0.14744 0.66534 0.0
H316 H 0.83939 0.19001 0.74664 0.0
C317 C 0.82328 0.16834 0.64346 0.0
H318 H 0.75205 0.13994 0.7204 0.0
C319 C 0.87341 0.19703 0.65861 0.0
C320 C 0.88012 0.2049 0.696 0.0
H321 H 0.81946 0.16205 0.6147 0.0
H322 H 0.90699 0.21292 0.64099 0.0
C323 C 0.8356 0.1841 0.71784 0.0
C324 C 0.36599 0.15295 0.16951 0.0
C325 C 0.32339 0.11873 0.14797 0.0
H326 H 0.39392 0.20975 0.21183 0.0
C327 C 0.27478 0.11598 0.15327 0.0
H328 H 0.40401 0.15637 0.16593 0.0
C329 C 0.26897 0.14686 0.17945 0.0
C330 C 0.31169 0.18131 0.20085 0.0
H331 H 0.24118 0.09024 0.13693 0.0
H332 H 0.23103 0.14361 0.183 0.0
C333 C 0.36022 0.18388 0.19561 0.0
C334 C 0.84736 0.1443 0.14357 0.0
C335 C 0.83913 0.18653 0.13599 0.0
H336 H 0.82554 0.07552 0.17512 0.0
C337 C 0.79997 0.19021 0.15483 0.0
H338 H 0.87698 0.14 0.12936 0.0
C339 C 0.77023 0.15291 0.18094 0.0
C340 C 0.77884 0.11097 0.18874 0.0
H341 H 0.79235 0.22193 0.14946 0.0
H342 H 0.74086 0.15735 0.19538 0.0
C343 C 0.81758 0.10698 0.16959 0.0
C344 C 0.86926 0.71972 0.19223 0.0
C345 C 0.867 0.67662 0.20996 0.0
H346 H 0.83523 0.7465 0.15261 0.0
C347 C 0.8268 0.62594 0.20058 0.0
H348 H 0.89937 0.75921 0.19897 0.0
C349 C 0.78975 0.61855 0.17412 0.0
C350 C 0.7919 0.66168 0.15649 0.0
H351 H 0.8237 0.59181 0.21387 0.0
H352 H 0.75958 0.57907 0.16739 0.0
C353 C 0.83216 0.71234 0.16584 0.0
C354 C 0.69031 0.85392 0.85954 0.0
C355 C 0.63951 0.84447 0.86702 0.0
H356 H 0.73815 0.83252 0.82881 0.0
C357 C 0.59697 0.80353 0.84887 0.0
H358 H 0.72401 0.88489 0.87327 0.0
C359 C 0.60522 0.77342 0.82335 0.0
C360 C 0.65612 0.78325 0.81568 0.0
H361 H 0.55741 0.79498 0.85422 0.0
H362 H 0.57169 0.74275 0.8093 0.0
C363 C 0.6985 0.82358 0.8343 0.0
C364 C 0.09634 0.80215 0.83901 0.0
C365 C 0.11913 0.77674 0.8575 0.0
H366 H 0.10678 0.86103 0.8007 0.0
C367 C 0.17189 0.79272 0.85101 0.0
H368 H 0.05592 0.79122 0.84367 0.0
C369 C 0.20109 0.83301 0.82659 0.0
C370 C 0.17838 0.85858 0.80822 0.0
H371 H 0.19082 0.77446 0.86508 0.0
H372 H 0.24154 0.84399 0.82199 0.0
C373 C 0.12564 0.84265 0.81472 0.0
C374 C 0.19763 0.38651 0.8638 0.0
C375 C 0.20051 0.34433 0.87881 0.0
H376 H 0.1582 0.41128 0.82716 0.0
C377 C 0.16364 0.2931 0.86779 0.0
H378 H 0.22502 0.42634 0.8719 0.0
C379 C 0.12497 0.28431 0.84227 0.0
C380 C 0.12217 0.32655 0.82724 0.0
H381 H 0.16449 0.25962 0.87903 0.0
H382 H 0.09761 0.24452 0.83409 0.0
C383 C 0.15896 0.37773 0.83836 0.0
C384 C 0.03382 0.48667 0.50418 0.0
C385 C -0.00837 0.4468 0.48511 0.0
H386 H 0.05923 0.54784 0.54319 0.0
C387 C 0.94082 0.43776 0.49204 0.0
H388 H 0.07343 0.49503 0.4993 0.0
C389 C 0.93252 0.46821 0.51732 0.0
C390 C 0.97495 0.50868 0.53592 0.0
H391 H 0.90745 0.40752 0.47759 0.0
H392 H 0.89304 0.4603 0.52213 0.0
C393 C 0.02561 0.5173 0.52913 0.0
C394 C 0.45728 0.51332 0.48617 0.0
C395 C 0.51032 0.5301 0.48012 0.0
H396 H 0.38731 0.46069 0.51448 0.0
C397 C 0.53322 0.50466 0.49843 0.0
H398 H 0.43829 0.5316 0.4722 0.0
C399 C 0.5039 0.46358 0.52226 0.0
C400 C 0.4509 0.44683 0.52839 0.0
H401 H 0.57387 0.51618 0.49413 0.0
H402 H 0.52298 0.44538 0.53623 0.0
C403 C 0.42793 0.47221 0.51006 0.0
C404 C 0.49642 0.95421 0.53283 0.0
C405 C 0.53525 0.00594 0.54123 0.0
H406 H 0.42859 0.90392 0.50117 0.0
C407 C 0.53434 0.04735 0.52325 0.0
H408 H 0.49571 0.92131 0.54635 0.0
C409 C 0.49558 0.03728 0.49753 0.0
C410 C 0.45669 0.98556 0.48919 0.0
H411 H 0.56332 0.08758 0.52925 0.0
H412 H 0.49625 0.07018 0.48404 0.0
C413 C 0.45762 0.94414 0.50713 0.0
C414 C 0.16629 0.89168 0.03855 0.0
C415 C 0.21561 0.89902 0.04779 0.0
H416 H 0.09096 0.84003 0.01621 0.0
C417 C 0.22487 0.85678 0.04546 0.0
H418 H 0.15834 0.92376 0.04031 0.0
C419 C 0.18674 0.80912 0.03085 0.0
C420 C 0.13863 0.80298 0.01926 0.0
H421 H 0.26283 0.86176 0.05233 0.0
H422 H 0.19583 0.77809 0.02699 0.0
C423 C 0.12781 0.84377 0.02482 0.0
C424 C 0.1132 0.36481 0.05318 0.0
C425 C 0.07232 0.31262 0.05346 0.0
H426 H 0.1933 0.41737 0.0396 0.0
C427 C 0.08306 0.27226 0.04614 0.0
H428 H 0.10566 0.39656 0.05866 0.0
C429 C 0.13313 0.28403 0.03589 0.0
C430 C 0.17285 0.33638 0.03203 0.0
H431 H 0.05207 0.23169 0.04642 0.0
H432 H 0.13957 0.25216 0.02841 0.0
C433 C 0.16316 0.37669 0.04216 0.0
C434 C 0.70433 0.81806 0.05724 0.0
C435 C 0.66482 0.76611 0.06261 0.0
H436 H 0.72419 0.89291 0.03586 0.0
C437 C 0.6126 0.75145 0.0551 0.0
H438 H 0.74485 0.83007 0.06295 0.0
C439 C 0.60084 0.787 0.0387 0.0
C440 C 0.64108 0.83775 0.03048 0.0
H441 H 0.58156 0.71138 0.05886 0.0
H442 H 0.56088 0.77383 0.0305 0.0
C443 C 0.69244 0.85389 0.04172 0.0
C444 C 0.72735 0.12012 0.95782 0.0
C445 C 0.74069 0.08268 0.94702 0.0
H446 H 0.75421 0.19474 0.98291 0.0
C447 C 0.79338 0.09596 0.94621 0.0
H448 H 0.68676 0.11037 0.95883 0.0
C449 C 0.83189 0.14426 0.95933 0.0
C450 C 0.81795 0.1793 0.97432 0.0
H451 H 0.80434 0.06752 0.93787 0.0
H452 H 0.87184 0.15202 0.96066 0.0
C453 C 0.76583 0.16814 0.97177 0.0
C454 C 0.80872 0.60443 0.98662 0.0
C455 C 0.80149 0.64763 0.99167 0.0
H456 H 0.86003 0.57779 0.96779 0.0
C457 C 0.83717 0.69607 0.97646 0.0
H458 H 0.78146 0.56656 0.99785 0.0
C459 C 0.88218 0.70258 0.95975 0.0
C460 C 0.89159 0.66051 0.95737 0.0
H461 H 0.83232 0.72994 0.9797 0.0
H462 H 0.91112 0.74126 0.95063 0.0
C463 C 0.85339 0.61075 0.96923 0.0
C464 C 0.32441 0.20989 0.9572 0.0
C465 C 0.34706 0.25637 0.97724 0.0
H466 H 0.3111 0.1315 0.9537 0.0
C467 C 0.38139 0.26327 1.00551 0.0
H468 H 0.29767 0.204 0.93533 0.0
C469 C 0.39019 0.22275 0.01536 0.0
C470 C 0.36344 0.1742 0.99776 0.0
H471 H 0.39942 0.29914 0.02111 0.0
H472 H 0.41459 0.22817 0.03861 0.0
C473 C 0.33206 0.16861 0.96771 0.0
C474 C 0.86265 0.19891 0.38949 0.0
C475 C 0.90908 0.22888 0.37041 0.0
H476 H 0.78702 0.12954 0.38937 0.0
C477 C 0.91863 0.2087 0.33911 0.0
H478 H 0.85483 0.21412 0.41372 0.0
C479 C 0.881 0.16016 0.32585 0.0
C480 C 0.83263 0.13189 0.34315 0.0
H481 H 0.9546 0.23132 0.32425 0.0
H482 H 0.88846 0.14658 0.30073 0.0
C483 C 0.82414 0.1508 0.37561 0.0
C484 C 0.80226 0.62474 0.37641 0.0
C485 C 0.84062 0.67606 0.36759 0.0
H486 H 0.72314 0.57416 0.39257 0.0
C487 C 0.83136 0.71758 0.37458 0.0
H488 H 0.80852 0.59203 0.37157 0.0
C489 C 0.78264 0.70733 0.38726 0.0
C490 C 0.74265 0.65544 0.39245 0.0
H491 H 0.86054 0.75755 0.36824 0.0
H492 H 0.77503 0.7395 0.39017 0.0
C493 C 0.75343 0.61447 0.38842 0.0
C494 C 0.25898 0.09193 0.34283 0.0
C495 C 0.28621 0.14312 0.35648 0.0
H496 H 0.25115 0.01579 0.34322 0.0
C497 C 0.32019 0.15442 0.38592 0.0
H498 H 0.23252 0.08214 0.32019 0.0
C499 C 0.32995 0.11593 0.3996 0.0
C500 C 0.30667 0.06648 0.38333 0.0
H501 H 0.34145 0.19366 0.39694 0.0
H502 H 0.35863 0.126 0.42084 0.0
C503 C 0.26974 0.05407 0.35585 0.0
C504 C 0.44727 0.49907 0.30931 0.0
C505 C 0.49657 0.50746 0.32 0.0
H506 H 0.37104 0.44372 0.28947 0.0
C507 C 0.50952 0.46829 0.31385 0.0
H508 H 0.43655 0.52887 0.31361 0.0
C509 C 0.47191 0.41951 0.30077 0.0
C510 C 0.42135 0.40977 0.2928 0.0
H511 H 0.54736 0.47383 0.32174 0.0
H512 H 0.48147 0.38854 0.29879 0.0
C513 C 0.40997 0.45056 0.29537 0.0
C514 C 0.55751 0.04393 0.30465 0.0
C515 C 0.56404 0.00185 0.29419 0.0
H516 H 0.50836 0.06783 0.33056 0.0
C517 C 0.5224 0.9504 0.29793 0.0
H518 H 0.58915 0.08394 0.30185 0.0
C519 C 0.47655 0.94108 0.31508 0.0
C520 C 0.47161 0.98317 0.32798 0.0
H521 H 0.52676 0.91735 0.29017 0.0
H522 H 0.44614 0.90102 0.31981 0.0
C523 C 0.51136 0.03467 0.32109 0.0
C524 C 0.03614 0.59052 0.34558 0.0
C525 C 0.00102 0.58153 0.31741 0.0
H526 H 0.07237 0.55866 0.3789 0.0
C527 C 0.9784 0.53397 0.29862 0.0
H528 H 0.05419 0.62728 0.36018 0.0
C529 C 0.98779 0.49413 0.30987 0.0
C530 C 0.02107 0.50233 0.33925 0.0
H531 H 0.95111 0.52653 0.27682 0.0
H532 H 0.96763 0.45643 0.29652 0.0
C533 C 0.04673 0.55146 0.35609 0.0
C534 C 0.52435 0.47699 0.69812 0.0
C535 C 0.47544 0.47067 0.68852 0.0
H536 H 0.60181 0.52992 0.71737 0.0
C537 C 0.46486 0.51134 0.69535 0.0
H538 H 0.53328 0.44606 0.69322 0.0
C539 C 0.50416 0.55933 0.70834 0.0
C540 C 0.55409 0.56683 0.71559 0.0
H541 H 0.42741 0.50745 0.68828 0.0
H542 H 0.49624 0.59133 0.71112 0.0
C543 C 0.56337 0.52474 0.71202 0.0
C544 C 0.46887 0.95379 0.70041 0.0
C545 C 0.5082 0.00584 0.69465 0.0
H546 H 0.38869 0.90209 0.71374 0.0
C547 C 0.49884 0.04673 0.70364 0.0
H548 H 0.47511 0.92151 0.69383 0.0
C549 C 0.44954 0.03553 0.71572 0.0
C550 C 0.40894 0.98337 0.71821 0.0
H551 H 0.5287 0.08721 0.69961 0.0
H552 H 0.44221 0.06757 0.72051 0.0
C553 C 0.41943 0.94263 0.71175 0.0
C554 C 0.94189 0.41391 0.72361 0.0
C555 C -0.00647 0.4288 0.7332 0.0
H556 H 0.89181 0.43653 0.6968 0.0
C557 C 0.03302 0.48112 0.72951 0.0
H558 H 0.91093 0.37354 0.72607 0.0
C559 C 0.02201 0.5172 0.71342 0.0
C560 C 0.97163 0.50097 0.69999 0.0
H561 H 0.07309 0.49328 0.73685 0.0
H562 H 0.05395 0.55659 0.70885 0.0
C563 C 0.93106 0.44977 0.70668 0.0
C564 C 0.17148 0.80546 0.63492 0.0
C565 C 0.15804 0.84264 0.64626 0.0
H566 H 0.14344 0.72751 0.61569 0.0
C567 C 0.10712 0.83341 0.63993 0.0
H568 H 0.21055 0.81171 0.63922 0.0
C569 C 0.06894 0.7855 0.62566 0.0
C570 C 0.08125 0.74621 0.61826 0.0
H571 H 0.09595 0.86171 0.6482 0.0
H572 H 0.02898 0.77755 0.62359 0.0
C573 C 0.13318 0.75733 0.6214 0.0
C574 C 0.17129 0.3654 0.64972 0.0
C575 C 0.13469 0.31606 0.66323 0.0
H576 H 0.24612 0.41167 0.62525 0.0
C577 C 0.14142 0.27287 0.65664 0.0
H578 H 0.16686 0.39931 0.65422 0.0
C579 C 0.18635 0.27983 0.63929 0.0
C580 C 0.2253 0.33019 0.62906 0.0
H581 H 0.11344 0.23434 0.66655 0.0
H582 H 0.19249 0.24668 0.63658 0.0
C583 C 0.21656 0.37251 0.63309 0.0
C584 C 0.7244 0.89018 0.68268 0.0
C585 C 0.69877 0.8415 0.66517 0.0
H586 H 0.73246 0.9662 0.68747 0.0
C587 C 0.66816 0.83525 0.63455 0.0
H588 H 0.74819 0.89609 0.70635 0.0
C589 C 0.66023 0.87605 0.62325 0.0
C590 C 0.68182 0.92269 0.64307 0.0
H591 H 0.64809 0.79802 0.6206 0.0
H592 H 0.63411 0.86969 0.60088 0.0
C593 C 0.7153 0.93021 0.67202 0.0
loop_
_geom_bond_atom_site_label_1
_geom_bond_atom_site_label_2
_geom_bond_distance
_geom_bond_site_symmetry_2
_ccdc_geom_bond_type
In0 O1 2.294 . S
In0 O2 2.326 . S
In0 O6 2.266 1_545 S
In0 O7 2.327 1_554 S
In0 O8 2.266 . S
In0 O9 2.326 . S
In0 O11 2.294 . S
In0 O12 2.326 . S
O1 In0 2.294 . S
O1 C10 1.240 . S
O2 In0 2.326 . S
O2 C10 1.252 . S
C3 O6 1.252 . S
C3 O7 1.261 1_564 S
C4 O11 1.240 . S
C4 O12 1.252 . S
C5 O8 1.252 . S
C5 O9 1.260 . S
O6 In0 2.266 1_565 S
O6 C3 1.252 . S
O7 In0 2.327 1_556 S
O7 C3 1.261 1_546 S
O8 In0 2.266 . S
O8 C5 1.252 . S
O9 In0 2.326 . S
O9 C5 1.260 . S
C10 O1 1.240 . S
C10 O2 1.252 . S
O11 In0 2.294 . S
O11 C4 1.240 . S
O12 In0 2.326 . S
O12 C4 1.252 . S
In13 O14 2.294 . S
In13 O15 2.326 . S
In13 O19 2.266 1_655 S
In13 O20 2.327 1_554 S
In13 O21 2.266 . S
In13 O22 2.326 . S
In13 O24 2.294 . S
In13 O25 2.326 . S
O14 In13 2.294 . S
O14 C23 1.240 . S
O15 In13 2.326 . S
O15 C23 1.252 . S
C16 O19 1.252 . S
C16 O20 1.261 1_454 S
C17 O24 1.240 . S
C17 O25 1.252 . S
C18 O21 1.252 . S
C18 O22 1.260 . S
O19 In13 2.266 1_455 S
O19 C16 1.252 . S
O20 In13 2.327 1_556 S
O20 C16 1.261 1_656 S
O21 In13 2.266 . S
O21 C18 1.252 . S
O22 In13 2.326 . S
O22 C18 1.260 . S
C23 O14 1.240 . S
C23 O15 1.252 . S
O24 In13 2.294 . S
O24 C17 1.240 . S
O25 In13 2.326 . S
O25 C17 1.252 . S
In26 O27 2.294 . S
In26 O28 2.326 . S
In26 O32 2.266 . S
In26 O33 2.326 . S
In26 O34 2.266 . S
In26 O35 2.327 1_554 S
In26 O37 2.294 . S
In26 O38 2.326 . S
O27 In26 2.294 . S
O27 C36 1.240 . S
O28 In26 2.326 . S
O28 C36 1.252 . S
C29 O32 1.252 . S
C29 O33 1.260 . S
C30 O37 1.240 . S
C30 O38 1.252 . S
C31 O34 1.252 . S
C31 O35 1.261 1_554 S
O32 In26 2.266 . S
O32 C29 1.252 . S
O33 In26 2.326 . S
O33 C29 1.260 . S
O34 In26 2.266 . S
O34 C31 1.252 . S
O35 In26 2.327 1_556 S
O35 C31 1.261 1_556 S
C36 O27 1.240 . S
C36 O28 1.252 . S
O37 In26 2.294 . S
O37 C30 1.240 . S
O38 In26 2.326 . S
O38 C30 1.252 . S
In39 O40 2.294 . S
In39 O41 2.326 . S
In39 O45 2.266 1_565 S
In39 O46 2.327 1_556 S
In39 O47 2.266 . S
In39 O48 2.326 . S
In39 O50 2.294 . S
In39 O51 2.326 . S
O40 In39 2.294 . S
O40 C49 1.240 . S
O41 In39 2.326 . S
O41 C49 1.252 . S
C42 O45 1.252 . S
C42 O46 1.261 1_546 S
C43 O50 1.240 . S
C43 O51 1.252 . S
C44 O47 1.252 . S
C44 O48 1.260 . S
O45 In39 2.266 1_545 S
O45 C42 1.252 . S
O46 In39 2.327 1_554 S
O46 C42 1.261 1_564 S
O47 In39 2.266 . S
O47 C44 1.252 . S
O48 In39 2.326 . S
O48 C44 1.260 . S
C49 O40 1.240 . S
C49 O41 1.252 . S
O50 In39 2.294 . S
O50 C43 1.240 . S
O51 In39 2.326 . S
O51 C43 1.252 . S
In52 O53 2.294 . S
In52 O54 2.326 . S
In52 O58 2.266 . S
In52 O59 2.326 . S
In52 O60 2.266 1_455 S
In52 O61 2.327 1_556 S
In52 O63 2.294 . S
In52 O64 2.326 . S
O53 In52 2.294 . S
O53 C62 1.240 . S
O54 In52 2.326 . S
O54 C62 1.252 . S
C55 O58 1.252 . S
C55 O59 1.260 . S
C56 O63 1.240 . S
C56 O64 1.252 . S
C57 O60 1.252 . S
C57 O61 1.261 1_656 S
O58 In52 2.266 . S
O58 C55 1.252 . S
O59 In52 2.326 . S
O59 C55 1.260 . S
O60 In52 2.266 1_655 S
O60 C57 1.252 . S
O61 In52 2.327 1_554 S
O61 C57 1.261 1_454 S
C62 O53 1.240 . S
C62 O54 1.252 . S
O63 In52 2.294 . S
O63 C56 1.240 . S
O64 In52 2.326 . S
O64 C56 1.252 . S
In65 O66 2.294 . S
In65 O67 2.326 . S
In65 O71 2.266 . S
In65 O72 2.327 1_556 S
In65 O73 2.266 . S
In65 O74 2.326 . S
In65 O76 2.294 . S
In65 O77 2.326 . S
O66 In65 2.294 . S
O66 C75 1.240 . S
O67 In65 2.326 . S
O67 C75 1.252 . S
C68 O71 1.252 . S
C68 O72 1.261 1_556 S
C69 O76 1.240 . S
C69 O77 1.252 . S
C70 O73 1.252 . S
C70 O74 1.260 . S
O71 In65 2.266 . S
O71 C68 1.252 . S
O72 In65 2.327 1_554 S
O72 C68 1.261 1_554 S
O73 In65 2.266 . S
O73 C70 1.252 . S
O74 In65 2.326 . S
O74 C70 1.260 . S
C75 O66 1.240 . S
C75 O67 1.252 . S
O76 In65 2.294 . S
O76 C69 1.240 . S
O77 In65 2.326 . S
O77 C69 1.252 . S
In78 O79 2.294 1_455 S
In78 O80 2.326 . S
In78 O84 2.266 1_455 S
In78 O85 2.326 1_455 S
In78 O86 2.266 . S
In78 O87 2.326 . S
In78 O89 2.294 . S
In78 O90 2.326 1_455 S
O79 In78 2.294 1_655 S
O79 C88 1.240 1_655 S
O80 In78 2.326 . S
O80 C88 1.252 . S
C81 O84 1.252 . S
C81 O85 1.260 . S
C82 O89 1.240 . S
C82 O90 1.252 1_455 S
C83 O86 1.252 . S
C83 O87 1.260 . S
O84 In78 2.266 1_655 S
O84 C81 1.252 . S
O85 In78 2.326 1_655 S
O85 C81 1.260 . S
O86 In78 2.266 . S
O86 C83 1.252 . S
O87 In78 2.326 . S
O87 C83 1.260 . S
C88 O79 1.240 1_455 S
C88 O80 1.252 . S
O89 In78 2.294 . S
O89 C82 1.240 . S
O90 In78 2.326 1_655 S
O90 C82 1.252 1_655 S
In91 O92 2.294 . S
In91 O93 2.326 . S
In91 O97 2.266 . S
In91 O98 2.326 . S
In91 O99 2.266 . S
In91 O100 2.326 . S
In91 O102 2.294 . S
In91 O103 2.326 . S
O92 In91 2.294 . S
O92 C101 1.240 . S
O93 In91 2.326 . S
O93 C101 1.252 . S
C94 O97 1.252 . S
C94 O98 1.260 . S
C95 O102 1.240 . S
C95 O103 1.252 . S
C96 O99 1.252 . S
C96 O100 1.260 . S
O97 In91 2.266 . S
O97 C94 1.252 . S
O98 In91 2.326 . S
O98 C94 1.260 . S
O99 In91 2.266 . S
O99 C96 1.252 . S
O100 In91 2.326 . S
O100 C96 1.260 . S
C101 O92 1.240 . S
C101 O93 1.252 . S
O102 In91 2.294 . S
O102 C95 1.240 . S
O103 In91 2.326 . S
O103 C95 1.252 . S
In104 O105 2.294 . S
In104 O106 2.326 1_565 S
In104 O110 2.266 . S
In104 O111 2.326 . S
In104 O112 2.266 1_565 S
In104 O113 2.326 1_565 S
In104 O115 2.294 1_565 S
In104 O116 2.326 . S
O105 In104 2.294 . S
O105 C114 1.240 . S
O106 In104 2.326 1_545 S
O106 C114 1.252 1_545 S
C107 O110 1.252 . S
C107 O111 1.260 . S
C108 O115 1.240 1_565 S
C108 O116 1.252 . S
C109 O112 1.252 . S
C109 O113 1.260 . S
O110 In104 2.266 . S
O110 C107 1.252 . S
O111 In104 2.326 . S
O111 C107 1.260 . S
O112 In104 2.266 1_545 S
O112 C109 1.252 . S
O113 In104 2.326 1_545 S
O113 C109 1.260 . S
C114 O105 1.240 . S
C114 O106 1.252 1_565 S
O115 In104 2.294 1_545 S
O115 C108 1.240 1_545 S
O116 In104 2.326 . S
O116 C108 1.252 . S
In117 O118 2.294 . S
In117 O119 2.326 . S
In117 O123 2.266 . S
In117 O124 2.326 . S
In117 O125 2.266 . S
In117 O126 2.326 . S
In117 O128 2.294 . S
In117 O129 2.326 . S
O118 In117 2.294 . S
O118 C127 1.240 . S
O119 In117 2.326 . S
O119 C127 1.252 . S
C120 O123 1.252 . S
C120 O124 1.260 . S
C121 O128 1.240 . S
C121 O129 1.252 . S
C122 O125 1.252 . S
C122 O126 1.260 . S
O123 In117 2.266 . S
O123 C120 1.252 . S
O124 In117 2.326 . S
O124 C120 1.260 . S
O125 In117 2.266 . S
O125 C122 1.252 . S
O126 In117 2.326 . S
O126 C122 1.260 . S
C127 O118 1.240 . S
C127 O119 1.252 . S
O128 In117 2.294 . S
O128 C121 1.240 . S
O129 In117 2.326 . S
O129 C121 1.252 . S
In130 O131 2.294 . S
In130 O132 2.326 . S
In130 O136 2.266 . S
In130 O137 2.326 . S
In130 O138 2.266 1_545 S
In130 O139 2.326 1_545 S
In130 O141 2.294 . S
In130 O142 2.326 . S
O131 In130 2.294 . S
O131 C140 1.240 . S
O132 In130 2.326 . S
O132 C140 1.252 . S
C133 O136 1.252 . S
C133 O137 1.260 . S
C134 O141 1.240 . S
C134 O142 1.252 . S
C135 O138 1.252 . S
C135 O139 1.260 . S
O136 In130 2.266 . S
O136 C133 1.252 . S
O137 In130 2.326 . S
O137 C133 1.260 . S
O138 In130 2.266 1_565 S
O138 C135 1.252 . S
O139 In130 2.326 1_565 S
O139 C135 1.260 . S
C140 O131 1.240 . S
C140 O132 1.252 . S
O141 In130 2.294 . S
O141 C134 1.240 . S
O142 In130 2.326 . S
O142 C134 1.252 . S
In143 O144 2.294 . S
In143 O145 2.326 . S
In143 O149 2.266 1_655 S
In143 O150 2.326 1_655 S
In143 O151 2.266 . S
In143 O152 2.326 . S
In143 O154 2.294 . S
In143 O155 2.326 . S
O144 In143 2.294 . S
O144 C153 1.240 . S
O145 In143 2.326 . S
O145 C153 1.252 . S
C146 O149 1.252 . S
C146 O150 1.260 . S
C147 O154 1.240 . S
C147 O155 1.252 . S
C148 O151 1.252 . S
C148 O152 1.260 . S
O149 In143 2.266 1_455 S
O149 C146 1.252 . S
O150 In143 2.326 1_455 S
O150 C146 1.260 . S
O151 In143 2.266 . S
O151 C148 1.252 . S
O152 In143 2.326 . S
O152 C148 1.260 . S
C153 O144 1.240 . S
C153 O145 1.252 . S
O154 In143 2.294 . S
O154 C147 1.240 . S
O155 In143 2.326 . S
O155 C147 1.252 . S
In156 O157 2.294 . S
In156 O158 2.326 . S
In156 O162 2.266 . S
In156 O163 2.326 . S
In156 O164 2.266 . S
In156 O165 2.326 . S
In156 O167 2.294 . S
In156 O168 2.326 . S
O157 In156 2.294 . S
O157 C166 1.240 . S
O158 In156 2.326 . S
O158 C166 1.252 . S
C159 O162 1.252 . S
C159 O163 1.260 . S
C160 O167 1.240 . S
C160 O168 1.252 . S
C161 O164 1.252 . S
C161 O165 1.260 . S
O162 In156 2.266 . S
O162 C159 1.252 . S
O163 In156 2.326 . S
O163 C159 1.260 . S
O164 In156 2.266 . S
O164 C161 1.252 . S
O165 In156 2.326 . S
O165 C161 1.260 . S
C166 O157 1.240 . S
C166 O158 1.252 . S
O167 In156 2.294 . S
O167 C160 1.240 . S
O168 In156 2.326 . S
O168 C160 1.252 . S
In169 O170 2.294 . S
In169 O171 2.326 . S
In169 O175 2.266 . S
In169 O176 2.326 . S
In169 O177 2.266 1_565 S
In169 O178 2.326 1_565 S
In169 O180 2.294 . S
In169 O181 2.326 . S
O170 In169 2.294 . S
O170 C179 1.240 . S
O171 In169 2.326 . S
O171 C179 1.252 . S
C172 O175 1.252 . S
C172 O176 1.260 . S
C173 O180 1.240 . S
C173 O181 1.252 . S
C174 O177 1.252 . S
C174 O178 1.260 . S
O175 In169 2.266 . S
O175 C172 1.252 . S
O176 In169 2.326 . S
O176 C172 1.260 . S
O177 In169 2.266 1_545 S
O177 C174 1.252 . S
O178 In169 2.326 1_545 S
O178 C174 1.260 . S
C179 O170 1.240 . S
C179 O171 1.252 . S
O180 In169 2.294 . S
O180 C173 1.240 . S
O181 In169 2.326 . S
O181 C173 1.252 . S
In182 O183 2.294 . S
In182 O184 2.326 . S
In182 O188 2.266 . S
In182 O189 2.326 . S
In182 O190 2.266 1_455 S
In182 O191 2.326 1_455 S
In182 O193 2.294 . S
In182 O194 2.326 . S
O183 In182 2.294 . S
O183 C192 1.240 . S
O184 In182 2.326 . S
O184 C192 1.252 . S
C185 O188 1.252 . S
C185 O189 1.260 . S
C186 O193 1.240 . S
C186 O194 1.252 . S
C187 O190 1.252 . S
C187 O191 1.260 . S
O188 In182 2.266 . S
O188 C185 1.252 . S
O189 In182 2.326 . S
O189 C185 1.260 . S
O190 In182 2.266 1_655 S
O190 C187 1.252 . S
O191 In182 2.326 1_655 S
O191 C187 1.260 . S
C192 O183 1.240 . S
C192 O184 1.252 . S
O193 In182 2.294 . S
O193 C186 1.240 . S
O194 In182 2.326 . S
O194 C186 1.252 . S
In195 O196 2.294 . S
In195 O197 2.326 1_655 S
In195 O201 2.266 . S
In195 O202 2.326 . S
In195 O203 2.266 1_655 S
In195 O204 2.326 1_655 S
In195 O206 2.294 1_655 S
In195 O207 2.326 . S
O196 In195 2.294 . S
O196 C205 1.240 . S
O197 In195 2.326 1_455 S
O197 C205 1.252 1_455 S
C198 O201 1.252 . S
C198 O202 1.260 . S
C199 O206 1.240 1_655 S
C199 O207 1.252 . S
C200 O203 1.252 . S
C200 O204 1.260 . S
O201 In195 2.266 . S
O201 C198 1.252 . S
O202 In195 2.326 . S
O202 C198 1.260 . S
O203 In195 2.266 1_455 S
O203 C200 1.252 . S
O204 In195 2.326 1_455 S
O204 C200 1.260 . S
C205 O196 1.240 . S
C205 O197 1.252 1_655 S
O206 In195 2.294 1_455 S
O206 C199 1.240 1_455 S
O207 In195 2.326 . S
O207 C199 1.252 . S
In208 O209 2.294 . S
In208 O210 2.326 . S
In208 O214 2.266 . S
In208 O215 2.326 . S
In208 O216 2.266 . S
In208 O217 2.326 . S
In208 O219 2.294 . S
In208 O220 2.326 . S
O209 In208 2.294 . S
O209 C218 1.240 . S
O210 In208 2.326 . S
O210 C218 1.252 . S
C211 O214 1.252 . S
C211 O215 1.260 . S
C212 O219 1.240 . S
C212 O220 1.252 . S
C213 O216 1.252 . S
C213 O217 1.260 . S
O214 In208 2.266 . S
O214 C211 1.252 . S
O215 In208 2.326 . S
O215 C211 1.260 . S
O216 In208 2.266 . S
O216 C213 1.252 . S
O217 In208 2.326 . S
O217 C213 1.260 . S
C218 O209 1.240 . S
C218 O210 1.252 . S
O219 In208 2.294 . S
O219 C212 1.240 . S
O220 In208 2.326 . S
O220 C212 1.252 . S
In221 O222 2.294 . S
In221 O223 2.326 1_545 S
In221 O227 2.266 . S
In221 O228 2.326 . S
In221 O229 2.266 1_545 S
In221 O230 2.326 1_545 S
In221 O232 2.294 1_545 S
In221 O233 2.326 . S
O222 In221 2.294 . S
O222 C231 1.240 . S
O223 In221 2.326 1_565 S
O223 C231 1.252 1_565 S
C224 O227 1.252 . S
C224 O228 1.260 . S
C225 O232 1.240 1_545 S
C225 O233 1.252 . S
C226 O229 1.252 . S
C226 O230 1.260 . S
O227 In221 2.266 . S
O227 C224 1.252 . S
O228 In221 2.326 . S
O228 C224 1.260 . S
O229 In221 2.266 1_565 S
O229 C226 1.252 . S
O230 In221 2.326 1_565 S
O230 C226 1.260 . S
C231 O222 1.240 . S
C231 O223 1.252 1_545 S
O232 In221 2.294 1_565 S
O232 C225 1.240 1_565 S
O233 In221 2.326 . S
O233 C225 1.252 . S
C234 C235 1.387 1_565 S
C234 H238 0.950 . S
C234 C243 1.390 . S
C235 C234 1.387 1_545 S
C235 C237 1.387 1_554 S
H236 C243 0.950 . S
C237 C235 1.387 1_556 S
C237 C239 1.390 . S
C237 H241 0.950 . S
H238 C234 0.950 . S
C239 C237 1.390 . S
C239 C240 1.387 1_545 S
C239 H242 0.950 . S
C240 C239 1.387 1_565 S
C240 C243 1.387 1_556 S
H241 C237 0.950 . S
H242 C239 0.950 . S
C243 C234 1.390 . S
C243 H236 0.950 . S
C243 C240 1.387 1_554 S
C244 C245 1.387 . S
C244 H248 0.950 . S
C244 C253 1.390 1_655 S
C245 C244 1.387 . S
C245 C247 1.387 1_554 S
H246 C253 0.950 . S
C247 C245 1.387 1_556 S
C247 C249 1.390 1_655 S
C247 H251 0.950 . S
H248 C244 0.950 . S
C249 C247 1.390 1_455 S
C249 C250 1.387 . S
C249 H252 0.950 . S
C250 C249 1.387 . S
C250 C253 1.387 1_556 S
H251 C247 0.950 . S
H252 C249 0.950 . S
C253 C244 1.390 1_455 S
C253 H246 0.950 . S
C253 C250 1.387 1_554 S
C254 C255 1.387 . S
C254 H258 0.950 . S
C254 C263 1.390 . S
C255 C254 1.387 . S
C255 C257 1.387 1_556 S
H256 C263 0.950 . S
C257 C255 1.387 1_554 S
C257 C259 1.390 . S
C257 H261 0.950 . S
H258 C254 0.950 . S
C259 C257 1.390 . S
C259 C260 1.387 . S
C259 H262 0.950 . S
C260 C259 1.387 . S
C260 C263 1.387 1_554 S
H261 C257 0.950 . S
H262 C259 0.950 . S
C263 C254 1.390 . S
C263 H256 0.950 . S
C263 C260 1.387 1_556 S
C264 C265 1.387 . S
C264 H268 0.950 . S
C264 C273 1.390 . S
C265 C264 1.387 . S
C265 C267 1.387 . S
H266 C273 0.950 . S
C267 C265 1.387 . S
C267 C269 1.390 . S
C267 H271 0.950 . S
H268 C264 0.950 . S
C269 C267 1.390 . S
C269 C270 1.387 . S
C269 H272 0.950 . S
C270 C269 1.387 . S
C270 C273 1.387 . S
H271 C267 0.950 . S
H272 C269 0.950 . S
C273 C264 1.390 . S
C273 H266 0.950 . S
C273 C270 1.387 . S
C274 C275 1.387 . S
C274 H278 0.950 . S
C274 C283 1.390 . S
C275 C274 1.387 . S
C275 C277 1.387 . S
H276 C283 0.950 . S
C277 C275 1.387 . S
C277 C279 1.390 . S
C277 H281 0.950 . S
H278 C274 0.950 . S
C279 C277 1.390 . S
C279 C280 1.387 . S
C279 H282 0.950 . S
C280 C279 1.387 . S
C280 C283 1.387 . S
H281 C277 0.950 . S
H282 C279 0.950 . S
C283 C274 1.390 . S
C283 H276 0.950 . S
C283 C280 1.387 . S
C284 C285 1.387 . S
C284 H288 0.950 . S
C284 C293 1.390 . S
C285 C284 1.387 . S
C285 C287 1.387 . S
H286 C293 0.950 . S
C287 C285 1.387 . S
C287 C289 1.390 . S
C287 H291 0.950 . S
H288 C284 0.950 . S
C289 C287 1.390 . S
C289 C290 1.387 . S
C289 H292 0.950 . S
C290 C289 1.387 . S
C290 C293 1.387 . S
H291 C287 0.950 . S
H292 C289 0.950 . S
C293 C284 1.390 . S
C293 H286 0.950 . S
C293 C290 1.387 . S
C294 C295 1.387 . S
C294 H298 0.950 . S
C294 C303 1.390 . S
C295 C294 1.387 . S
C295 C297 1.387 . S
H296 C303 0.950 . S
C297 C295 1.387 . S
C297 C299 1.390 . S
C297 H301 0.950 . S
H298 C294 0.950 . S
C299 C297 1.390 . S
C299 C300 1.387 . S
C299 H302 0.950 . S
C300 C299 1.387 . S
C300 C303 1.387 . S
H301 C297 0.950 . S
H302 C299 0.950 . S
C303 C294 1.390 . S
C303 H296 0.950 . S
C303 C300 1.387 . S
C304 C305 1.387 . S
C304 H308 0.950 . S
C304 C313 1.390 . S
C305 C304 1.387 . S
C305 C307 1.387 . S
H306 C313 0.950 . S
C307 C305 1.387 . S
C307 C309 1.390 . S
C307 H311 0.950 . S
H308 C304 0.950 . S
C309 C307 1.390 . S
C309 C310 1.387 . S
C309 H312 0.950 . S
C310 C309 1.387 . S
C310 C313 1.387 . S
H311 C307 0.950 . S
H312 C309 0.950 . S
C313 C304 1.390 . S
C313 H306 0.950 . S
C313 C310 1.387 . S
C314 C315 1.387 . S
C314 H318 0.950 . S
C314 C323 1.390 . S
C315 C314 1.387 . S
C315 C317 1.387 . S
H316 C323 0.950 . S
C317 C315 1.387 . S
C317 C319 1.390 . S
C317 H321 0.950 . S
H318 C314 0.950 . S
C319 C317 1.390 . S
C319 C320 1.387 . S
C319 H322 0.950 . S
C320 C319 1.387 . S
C320 C323 1.387 . S
H321 C317 0.950 . S
H322 C319 0.950 . S
C323 C314 1.390 . S
C323 H316 0.950 . S
C323 C320 1.387 . S
C324 C325 1.387 . S
C324 H328 0.950 . S
C324 C333 1.390 . S
C325 C324 1.387 . S
C325 C327 1.387 . S
H326 C333 0.950 . S
C327 C325 1.387 . S
C327 C329 1.390 . S
C327 H331 0.950 . S
H328 C324 0.950 . S
C329 C327 1.390 . S
C329 C330 1.387 . S
C329 H332 0.950 . S
C330 C329 1.387 . S
C330 C333 1.387 . S
H331 C327 0.950 . S
H332 C329 0.950 . S
C333 C324 1.390 . S
C333 H326 0.950 . S
C333 C330 1.387 . S
C334 C335 1.387 . S
C334 H338 0.950 . S
C334 C343 1.390 . S
C335 C334 1.387 . S
C335 C337 1.387 . S
H336 C343 0.950 . S
C337 C335 1.387 . S
C337 C339 1.390 . S
C337 H341 0.950 . S
H338 C334 0.950 . S
C339 C337 1.390 . S
C339 C340 1.387 . S
C339 H342 0.950 . S
C340 C339 1.387 . S
C340 C343 1.387 . S
H341 C337 0.950 . S
H342 C339 0.950 . S
C343 C334 1.390 . S
C343 H336 0.950 . S
C343 C340 1.387 . S
C344 C345 1.387 . S
C344 H348 0.950 . S
C344 C353 1.390 . S
C345 C344 1.387 . S
C345 C347 1.387 . S
H346 C353 0.950 . S
C347 C345 1.387 . S
C347 C349 1.390 . S
C347 H351 0.950 . S
H348 C344 0.950 . S
C349 C347 1.390 . S
C349 C350 1.387 . S
C349 H352 0.950 . S
C350 C349 1.387 . S
C350 C353 1.387 . S
H351 C347 0.950 . S
H352 C349 0.950 . S
C353 C344 1.390 . S
C353 H346 0.950 . S
C353 C350 1.387 . S
C354 C355 1.387 . S
C354 H358 0.950 . S
C354 C363 1.390 . S
C355 C354 1.387 . S
C355 C357 1.387 . S
H356 C363 0.950 . S
C357 C355 1.387 . S
C357 C359 1.390 . S
C357 H361 0.950 . S
H358 C354 0.950 . S
C359 C357 1.390 . S
C359 C360 1.387 . S
C359 H362 0.950 . S
C360 C359 1.387 . S
C360 C363 1.387 . S
H361 C357 0.950 . S
H362 C359 0.950 . S
C363 C354 1.390 . S
C363 H356 0.950 . S
C363 C360 1.387 . S
C364 C365 1.387 . S
C364 H368 0.950 . S
C364 C373 1.390 . S
C365 C364 1.387 . S
C365 C367 1.387 . S
H366 C373 0.950 . S
C367 C365 1.387 . S
C367 C369 1.390 . S
C367 H371 0.950 . S
H368 C364 0.950 . S
C369 C367 1.390 . S
C369 C370 1.387 . S
C369 H372 0.950 . S
C370 C369 1.387 . S
C370 C373 1.387 . S
H371 C367 0.950 . S
H372 C369 0.950 . S
C373 C364 1.390 . S
C373 H366 0.950 . S
C373 C370 1.387 . S
C374 C375 1.387 . S
C374 H378 0.950 . S
C374 C383 1.390 . S
C375 C374 1.387 . S
C375 C377 1.387 . S
H376 C383 0.950 . S
C377 C375 1.387 . S
C377 C379 1.390 . S
C377 H381 0.950 . S
H378 C374 0.950 . S
C379 C377 1.390 . S
C379 C380 1.387 . S
C379 H382 0.950 . S
C380 C379 1.387 . S
C380 C383 1.387 . S
H381 C377 0.950 . S
H382 C379 0.950 . S
C383 C374 1.390 . S
C383 H376 0.950 . S
C383 C380 1.387 . S
C384 C385 1.387 . S
C384 H388 0.950 . S
C384 C393 1.390 1_455 S
C385 C384 1.387 . S
C385 C387 1.387 . S
H386 C393 0.950 . S
C387 C385 1.387 . S
C387 C389 1.390 1_455 S
C387 H391 0.950 . S
H388 C384 0.950 . S
C389 C387 1.390 1_655 S
C389 C390 1.387 . S
C389 H392 0.950 . S
C390 C389 1.387 . S
C390 C393 1.387 . S
H391 C387 0.950 . S
H392 C389 0.950 . S
C393 C384 1.390 1_655 S
C393 H386 0.950 . S
C393 C390 1.387 . S
C394 C395 1.387 . S
C394 H398 0.950 . S
C394 C403 1.390 . S
C395 C394 1.387 . S
C395 C397 1.387 . S
H396 C403 0.950 . S
C397 C395 1.387 . S
C397 C399 1.390 . S
C397 H401 0.950 . S
H398 C394 0.950 . S
C399 C397 1.390 . S
C399 C400 1.387 . S
C399 H402 0.950 . S
C400 C399 1.387 . S
C400 C403 1.387 . S
H401 C397 0.950 . S
H402 C399 0.950 . S
C403 C394 1.390 . S
C403 H396 0.950 . S
C403 C400 1.387 . S
C404 C405 1.387 1_565 S
C404 H408 0.950 . S
C404 C413 1.390 . S
C405 C404 1.387 1_545 S
C405 C407 1.387 . S
H406 C413 0.950 . S
C407 C405 1.387 . S
C407 C409 1.390 . S
C407 H411 0.950 . S
H408 C404 0.950 . S
C409 C407 1.390 . S
C409 C410 1.387 1_545 S
C409 H412 0.950 . S
C410 C409 1.387 1_565 S
C410 C413 1.387 . S
H411 C407 0.950 . S
H412 C409 0.950 . S
C413 C404 1.390 . S
C413 H406 0.950 . S
C413 C410 1.387 . S
C414 C415 1.387 1_556 S
C414 H418 0.950 . S
C414 C423 1.390 . S
C415 C414 1.387 1_554 S
C415 C417 1.387 . S
H416 C423 0.950 . S
C417 C415 1.387 . S
C417 C419 1.390 . S
C417 H421 0.950 . S
H418 C414 0.950 . S
C419 C417 1.390 . S
C419 C420 1.387 1_554 S
C419 H422 0.950 . S
C420 C419 1.387 1_556 S
C420 C423 1.387 . S
H421 C417 0.950 . S
H422 C419 0.950 . S
C423 C414 1.390 . S
C423 H416 0.950 . S
C423 C420 1.387 . S
C424 C425 1.387 . S
C424 H428 0.950 . S
C424 C433 1.390 . S
C425 C424 1.387 . S
C425 C427 1.387 1_554 S
H426 C433 0.950 . S
C427 C425 1.387 1_556 S
C427 C429 1.390 . S
C427 H431 0.950 . S
H428 C424 0.950 . S
C429 C427 1.390 . S
C429 C430 1.387 . S
C429 H432 0.950 . S
C430 C429 1.387 . S
C430 C433 1.387 1_556 S
H431 C427 0.950 . S
H432 C429 0.950 . S
C433 C424 1.390 . S
C433 H426 0.950 . S
C433 C430 1.387 1_554 S
C434 C435 1.387 1_556 S
C434 H438 0.950 . S
C434 C443 1.390 . S
C435 C434 1.387 1_554 S
C435 C437 1.387 . S
H436 C443 0.950 . S
C437 C435 1.387 . S
C437 C439 1.390 . S
C437 H441 0.950 . S
H438 C434 0.950 . S
C439 C437 1.390 . S
C439 C440 1.387 1_554 S
C439 H442 0.950 . S
C440 C439 1.387 1_556 S
C440 C443 1.387 . S
H441 C437 0.950 . S
H442 C439 0.950 . S
C443 C434 1.390 . S
C443 H436 0.950 . S
C443 C440 1.387 . S
C444 C445 1.387 . S
C444 H448 0.950 . S
C444 C453 1.390 . S
C445 C444 1.387 . S
C445 C447 1.387 1_556 S
H446 C453 0.950 . S
C447 C445 1.387 1_554 S
C447 C449 1.390 . S
C447 H451 0.950 . S
H448 C444 0.950 . S
C449 C447 1.390 . S
C449 C450 1.387 . S
C449 H452 0.950 . S
C450 C449 1.387 . S
C450 C453 1.387 1_554 S
H451 C447 0.950 . S
H452 C449 0.950 . S
C453 C444 1.390 . S
C453 H446 0.950 . S
C453 C450 1.387 1_556 S
C454 C455 1.387 . S
C454 H458 0.950 . S
C454 C463 1.390 . S
C455 C454 1.387 . S
C455 C457 1.387 1_554 S
H456 C463 0.950 . S
C457 C455 1.387 1_556 S
C457 C459 1.390 . S
C457 H461 0.950 . S
H458 C454 0.950 . S
C459 C457 1.390 . S
C459 C460 1.387 . S
C459 H462 0.950 . S
C460 C459 1.387 . S
C460 C463 1.387 1_556 S
H461 C457 0.950 . S
H462 C459 0.950 . S
C463 C454 1.390 . S
C463 H456 0.950 . S
C463 C460 1.387 1_554 S
C464 C465 1.387 . S
C464 H468 0.950 . S
C464 C473 1.390 . S
C465 C464 1.387 . S
C465 C467 1.387 1_556 S
H466 C473 0.950 . S
C467 C465 1.387 1_554 S
C467 C469 1.390 . S
C467 H471 0.950 . S
H468 C464 0.950 . S
C469 C467 1.390 . S
C469 C470 1.387 . S
C469 H472 0.950 . S
C470 C469 1.387 . S
C470 C473 1.387 1_554 S
H471 C467 0.950 . S
H472 C469 0.950 . S
C473 C464 1.390 . S
C473 H466 0.950 . S
C473 C470 1.387 1_556 S
C474 C475 1.387 . S
C474 H478 0.950 . S
C474 C483 1.390 . S
C475 C474 1.387 . S
C475 C477 1.387 . S
H476 C483 0.950 . S
C477 C475 1.387 . S
C477 C479 1.390 . S
C477 H481 0.950 . S
H478 C474 0.950 . S
C479 C477 1.390 . S
C479 C480 1.387 . S
C479 H482 0.950 . S
C480 C479 1.387 . S
C480 C483 1.387 . S
H481 C477 0.950 . S
H482 C479 0.950 . S
C483 C474 1.390 . S
C483 H476 0.950 . S
C483 C480 1.387 . S
C484 C485 1.387 . S
C484 H488 0.950 . S
C484 C493 1.390 . S
C485 C484 1.387 . S
C485 C487 1.387 . S
H486 C493 0.950 . S
C487 C485 1.387 . S
C487 C489 1.390 . S
C487 H491 0.950 . S
H488 C484 0.950 . S
C489 C487 1.390 . S
C489 C490 1.387 . S
C489 H492 0.950 . S
C490 C489 1.387 . S
C490 C493 1.387 . S
H491 C487 0.950 . S
H492 C489 0.950 . S
C493 C484 1.390 . S
C493 H486 0.950 . S
C493 C490 1.387 . S
C494 C495 1.387 . S
C494 H498 0.950 . S
C494 C503 1.390 . S
C495 C494 1.387 . S
C495 C497 1.387 . S
H496 C503 0.950 . S
C497 C495 1.387 . S
C497 C499 1.390 . S
C497 H501 0.950 . S
H498 C494 0.950 . S
C499 C497 1.390 . S
C499 C500 1.387 . S
C499 H502 0.950 . S
C500 C499 1.387 . S
C500 C503 1.387 . S
H501 C497 0.950 . S
H502 C499 0.950 . S
C503 C494 1.390 . S
C503 H496 0.950 . S
C503 C500 1.387 . S
C504 C505 1.387 . S
C504 H508 0.950 . S
C504 C513 1.390 . S
C505 C504 1.387 . S
C505 C507 1.387 . S
H506 C513 0.950 . S
C507 C505 1.387 . S
C507 C509 1.390 . S
C507 H511 0.950 . S
H508 C504 0.950 . S
C509 C507 1.390 . S
C509 C510 1.387 . S
C509 H512 0.950 . S
C510 C509 1.387 . S
C510 C513 1.387 . S
H511 C507 0.950 . S
H512 C509 0.950 . S
C513 C504 1.390 . S
C513 H506 0.950 . S
C513 C510 1.387 . S
C514 C515 1.387 . S
C514 H518 0.950 . S
C514 C523 1.390 . S
C515 C514 1.387 . S
C515 C517 1.387 1_545 S
H516 C523 0.950 . S
C517 C515 1.387 1_565 S
C517 C519 1.390 . S
C517 H521 0.950 . S
H518 C514 0.950 . S
C519 C517 1.390 . S
C519 C520 1.387 1_565 S
C519 H522 0.950 . S
C520 C519 1.387 1_545 S
C520 C523 1.387 . S
H521 C517 0.950 . S
H522 C519 0.950 . S
C523 C514 1.390 . S
C523 H516 0.950 . S
C523 C520 1.387 . S
C524 C525 1.387 1_455 S
C524 H528 0.950 . S
C524 C533 1.390 . S
C525 C524 1.387 1_655 S
C525 C527 1.387 . S
H526 C533 0.950 . S
C527 C525 1.387 . S
C527 C529 1.390 . S
C527 H531 0.950 . S
H528 C524 0.950 . S
C529 C527 1.390 . S
C529 C530 1.387 . S
C529 H532 0.950 . S
C530 C529 1.387 . S
C530 C533 1.387 1_655 S
H531 C527 0.950 . S
H532 C529 0.950 . S
C533 C524 1.390 . S
C533 H526 0.950 . S
C533 C530 1.387 1_455 S
C534 C535 1.387 . S
C534 H538 0.950 . S
C534 C543 1.390 . S
C535 C534 1.387 . S
C535 C537 1.387 . S
H536 C543 0.950 . S
C537 C535 1.387 . S
C537 C539 1.390 . S
C537 H541 0.950 . S
H538 C534 0.950 . S
C539 C537 1.390 . S
C539 C540 1.387 . S
C539 H542 0.950 . S
C540 C539 1.387 . S
C540 C543 1.387 . S
H541 C537 0.950 . S
H542 C539 0.950 . S
C543 C534 1.390 . S
C543 H536 0.950 . S
C543 C540 1.387 . S
C544 C545 1.387 . S
C544 H548 0.950 . S
C544 C553 1.390 . S
C545 C544 1.387 . S
C545 C547 1.387 1_565 S
H546 C553 0.950 . S
C547 C545 1.387 1_545 S
C547 C549 1.390 . S
C547 H551 0.950 . S
H548 C544 0.950 . S
C549 C547 1.390 . S
C549 C550 1.387 1_545 S
C549 H552 0.950 . S
C550 C549 1.387 1_565 S
C550 C553 1.387 . S
H551 C547 0.950 . S
H552 C549 0.950 . S
C553 C544 1.390 . S
C553 H546 0.950 . S
C553 C550 1.387 . S
C554 C555 1.387 1_655 S
C554 H558 0.950 . S
C554 C563 1.390 . S
C555 C554 1.387 1_455 S
C555 C557 1.387 . S
H556 C563 0.950 . S
C557 C555 1.387 . S
C557 C559 1.390 . S
C557 H561 0.950 . S
H558 C554 0.950 . S
C559 C557 1.390 . S
C559 C560 1.387 . S
C559 H562 0.950 . S
C560 C559 1.387 . S
C560 C563 1.387 1_455 S
H561 C557 0.950 . S
H562 C559 0.950 . S
C563 C554 1.390 . S
C563 H556 0.950 . S
C563 C560 1.387 1_655 S
C564 C565 1.387 . S
C564 H568 0.950 . S
C564 C573 1.390 . S
C565 C564 1.387 . S
C565 C567 1.387 . S
H566 C573 0.950 . S
C567 C565 1.387 . S
C567 C569 1.390 . S
C567 H571 0.950 . S
H568 C564 0.950 . S
C569 C567 1.390 . S
C569 C570 1.387 . S
C569 H572 0.950 . S
C570 C569 1.387 . S
C570 C573 1.387 . S
H571 C567 0.950 . S
H572 C569 0.950 . S
C573 C564 1.390 . S
C573 H566 0.950 . S
C573 C570 1.387 . S
C574 C575 1.387 . S
C574 H578 0.950 . S
C574 C583 1.390 . S
C575 C574 1.387 . S
C575 C577 1.387 . S
H576 C583 0.950 . S
C577 C575 1.387 . S
C577 C579 1.390 . S
C577 H581 0.950 . S
H578 C574 0.950 . S
C579 C577 1.390 . S
C579 C580 1.387 . S
C579 H582 0.950 . S
C580 C579 1.387 . S
C580 C583 1.387 . S
H581 C577 0.950 . S
H582 C579 0.950 . S
C583 C574 1.390 . S
C583 H576 0.950 . S
C583 C580 1.387 . S
C584 C585 1.387 . S
C584 H588 0.950 . S
C584 C593 1.390 . S
C585 C584 1.387 . S
C585 C587 1.387 . S
H586 C593 0.950 . S
C587 C585 1.387 . S
C587 C589 1.390 . S
C587 H591 0.950 . S
H588 C584 0.950 . S
C589 C587 1.390 . S
C589 C590 1.387 . S
C589 H592 0.950 . S
C590 C589 1.387 . S
C590 C593 1.387 . S
H591 C587 0.950 . S
H592 C589 0.950 . S
C593 C584 1.390 . S
C593 H586 0.950 . S
C593 C590 1.387 . S
C235 C5 1.865 . S
C240 C44 1.865 . S
C245 C18 1.864 . S
C250 C55 1.864 . S
C255 C70 1.864 . S
C260 C29 1.864 . S
C265 C83 1.864 . S
C270 C122 1.864 . S
C275 C94 1.865 . S
C280 C135 1.865 . S
C285 C146 1.865 . S
C290 C107 1.865 . S
C295 C198 1.863 . S
C300 C159 1.863 . S
C305 C213 1.865 . S
C310 C174 1.865 . S
C315 C224 1.864 . S
C320 C187 1.864 . S
C325 C10 1.692 . S
C330 C127 1.692 . S
C335 C23 1.689 . S
C340 C140 1.689 . S
C345 C147 1.690 . S
C350 C30 1.690 . S
C355 C49 1.692 . S
C360 C160 1.692 . S
C365 C56 1.692 . S
C370 C179 1.692 . S
C375 C75 1.690 . S
C380 C192 1.690 . S
C385 C88 1.691 . S
C390 C199 1.691 . S
C395 C95 1.692 . S
C400 C218 1.692 . S
C405 C225 1.691 . S
C410 C108 1.691 . S
C415 C3 1.027 . S
C420 C62 1.025 . S
C425 C16 1.028 . S
C430 C69 1.026 . S
C435 C31 1.026 . S
C440 C43 1.025 . S
C445 C42 1.027 . S
C450 C17 1.025 . S
C455 C36 1.025 . S
C460 C57 1.027 . S
C465 C68 1.027 . S
C470 C4 1.025 . S
C475 C81 1.027 . S
C480 C134 1.026 . S
C485 C153 1.025 . S
C490 C96 1.027 . S
C495 C121 1.025 . S
C500 C109 1.027 . S
C505 C101 1.025 . S
C510 C120 1.027 . S
C515 C133 1.027 . S
C520 C114 1.026 1_545 S
C525 C148 1.027 . S
C530 C82 1.025 1_655 S
C535 C212 1.025 . S
C540 C161 1.027 . S
C545 C231 1.025 1_565 S
C550 C172 1.027 . S
C555 C185 1.028 . S
C560 C205 1.026 1_455 S
C565 C173 1.026 . S
C570 C200 1.027 . S
C575 C186 1.026 . S
C580 C211 1.027 . S
C585 C166 1.026 . S
C590 C226 1.027 . S
