# Generated by pormake.
# Topology unm, (4)-cn, num edge types: 1
# Building blocks:
#     Node 0, Type 0, BuildingBlock: AZAVOO_clean_sbu_0, # of connection points: 4
#     Node 1, Type 0, BuildingBlock: AZAVOO_clean_sbu_0, # of connection points: 4
#     Node 2, Type 0, BuildingBlock: AZAVOO_clean_sbu_0, # of connection points: 4
#     Node 3, Type 0, BuildingBlock: AZAVOO_clean_sbu_0, # of connection points: 4
#     Node 4, Type 0, BuildingBlock: AZAVOO_clean_sbu_0, # of connection points: 4
#     Node 5, Type 0, BuildingBlock: AZAVOO_clean_sbu_0, # of connection points: 4
#     Node 6, Type 0, BuildingBlock: AZAVOO_clean_sbu_0, # of connection points: 4
#     Node 7, Type 0, BuildingBlock: AZAVOO_clean_sbu_0, # of connection points: 4
#     Edge 8, Type (0, 0), BuildingBlock: KIFKEQ_clean_linker_1, # of connection points: 2
#     Edge 9, Type (0, 0), BuildingBlock: KIFKEQ_clean_linker_1, # of connection points: 2
#     Edge 10, Type (0, 0), BuildingBlock: KIFKEQ_clean_linker_1, # of connection points: 2
#     Edge 11, Type (0, 0), BuildingBlock: KIFKEQ_clean_linker_1, # of connection points: 2
#     Edge 12, Type (0, 0), BuildingBlock: KIFKEQ_clean_linker_1, # of connection points: 2
#     Edge 13, Type (0, 0), BuildingBlock: KIFKEQ_clean_linker_1, # of connection points: 2
#     Edge 14, Type (0, 0), BuildingBlock: KIFKEQ_clean_linker_1, # of connection points: 2
#     Edge 15, Type (0, 0), BuildingBlock: KIFKEQ_clean_linker_1, # of connection points: 2
#     Edge 16, Type (0, 0), BuildingBlock: KIFKEQ_clean_linker_1, # of connection points: 2
#     Edge 17, Type (0, 0), BuildingBlock: KIFKEQ_clean_linker_1, # of connection points: 2
#     Edge 18, Type (0, 0), BuildingBlock: KIFKEQ_clean_linker_1, # of connection points: 2
#     Edge 19, Type (0, 0), BuildingBlock: KIFKEQ_clean_linker_1, # of connection points: 2
#     Edge 20, Type (0, 0), BuildingBlock: KIFKEQ_clean_linker_1, # of connection points: 2
#     Edge 21, Type (0, 0), BuildingBlock: KIFKEQ_clean_linker_1, # of connection points: 2
#     Edge 22, Type (0, 0), BuildingBlock: KIFKEQ_clean_linker_1, # of connection points: 2
#     Edge 23, Type (0, 0), BuildingBlock: KIFKEQ_clean_linker_1, # of connection points: 2
# Relax obj value: 0.171
# Max RMSD: 0.156
# Mean RMSD: 0.156
data_MOF--net-unm--node1-AZAVOO_clean_sbu_0--edge1-KIFKEQ_clean_linker_1
_symmetry_space_group_name_H-M    P1
_symmetry_Int_Tables_number       1
_symmetry_cell_setting            triclinic
loop_
_symmetry_equiv_pos_as_xyz
'x, y, z'
_cell_length_a     25.502754
_cell_length_b     25.689123
_cell_length_c     45.877832
_cell_angle_alpha  89.887787
_cell_angle_beta   90.244387
_cell_angle_gamma 89.824045
loop_
_atom_site_label
_atom_site_type_symbol
_atom_site_fract_x
_atom_site_fract_y
_atom_site_fract_z
_atom_type_partial_charge
Mg0 Mg 0.07063 0.19688 0.12227 0.0
O1 O 0.06364 0.27809 0.10194 0.0
O2 O 0.13098 0.29096 0.0719 0.0
Mg3 Mg 0.18009 0.21584 0.07205 0.0
C4 C 0.08901 0.30673 0.08418 0.0
C5 C 0.97382 0.18204 0.15972 0.0
O6 O 0.98117 0.13603 0.14793 0.0
O7 O 0.13723 0.22503 0.15214 0.0
O8 O 0.20238 0.23048 0.11977 0.0
O9 O 0.02648 0.16282 0.08468 0.0
O10 O 0.11277 0.16997 0.08684 0.0
C11 C 0.18533 0.23351 0.14587 0.0
C12 C 0.07168 0.15668 0.0724 0.0
O13 O 1.00645 0.21806 0.15435 0.0
Mg14 Mg 0.32652 0.57097 0.61714 0.0
O15 O 0.24493 0.56343 0.59656 0.0
O16 O 0.23026 0.63047 0.56661 0.0
Mg17 Mg 0.30482 0.68029 0.56706 0.0
C18 C 0.21532 0.5885 0.57894 0.0
C19 C 0.30274 0.46033 0.64099 0.0
O20 O 0.31257 0.44959 0.61357 0.0
O21 O 0.296 0.63598 0.64672 0.0
O22 O 0.28681 0.7011 0.61454 0.0
O23 O 0.36318 0.52906 0.57953 0.0
O24 O 0.35304 0.61435 0.58212 0.0
C25 C 0.28429 0.6832 0.64052 0.0
C26 C 0.36851 0.57446 0.56765 0.0
O27 O 0.30484 0.50738 0.64952 0.0
Mg28 Mg 0.97535 0.79031 0.10933 0.0
O29 O 0.98571 0.70877 0.08989 0.0
O30 O 0.91431 0.68794 0.06426 0.0
Mg31 Mg 0.85824 0.75764 0.06662 0.0
C32 C 0.95973 0.67675 0.0743 0.0
C33 C 0.05182 0.79308 0.16299 0.0
O34 O 1.01125 0.81653 0.17475 0.0
O35 O 0.91888 0.75735 0.14357 0.0
O36 O 0.84894 0.74059 0.11532 0.0
O37 O 1.00607 0.8278 0.06874 0.0
O38 O 0.92245 0.81134 0.07703 0.0
C39 C 0.8718 0.74128 0.14017 0.0
C40 C 0.95777 0.82948 0.05996 0.0
O41 O 0.04834 0.77655 0.137 0.0
Mg42 Mg 0.7264 0.4986 0.62171 0.0
O43 O 0.80821 0.50367 0.60083 0.0
O44 O 0.82571 0.42848 0.57856 0.0
Mg45 Mg 0.75498 0.37524 0.5847 0.0
C46 C 0.83879 0.47446 0.58608 0.0
C47 C 0.70725 0.60956 0.64388 0.0
O48 O 0.66456 0.59991 0.62872 0.0
O49 O 0.75969 0.44678 0.65836 0.0
O50 O 0.77405 0.37308 0.63343 0.0
O51 O 0.68704 0.5237 0.57997 0.0
O52 O 0.70328 0.44218 0.5923 0.0
C53 C 0.77487 0.3993 0.65706 0.0
C54 C 0.68471 0.47468 0.57361 0.0
O55 O 0.74216 0.57428 0.64603 0.0
Mg56 Mg 0.5751 0.30266 0.32654 0.0
O57 O 0.5614 0.21898 0.34331 0.0
O58 O 0.62873 0.1971 0.37223 0.0
Mg59 Mg 0.68418 0.2665 0.37506 0.0
C60 C 0.58546 0.18615 0.35958 0.0
C61 C 0.46529 0.27656 0.30007 0.0
O62 O 0.45726 0.26288 0.3273 0.0
O63 O 0.63825 0.27181 0.29554 0.0
O64 O 0.70303 0.25326 0.32702 0.0
O65 O 0.53469 0.33811 0.36505 0.0
O66 O 0.61912 0.31889 0.36345 0.0
C67 C 0.68468 0.2556 0.30111 0.0
C68 C 0.57978 0.33609 0.37806 0.0
O69 O 0.5102 0.29332 0.29267 0.0
Mg70 Mg 0.19187 0.07031 0.81548 0.0
O71 O 0.27383 0.0631 0.836 0.0
O72 O 0.28792 0.13241 0.86438 0.0
Mg73 Mg 0.21218 0.18068 0.86473 0.0
C74 C 0.30315 0.08982 0.85286 0.0
C75 C 0.21334 0.95948 0.79113 0.0
O76 O 0.20146 0.94823 0.81824 0.0
O77 O 0.22102 0.13551 0.78542 0.0
O78 O 0.22878 0.20122 0.81714 0.0
O79 O 0.1567 0.02809 0.85335 0.0
O80 O 0.16546 0.11349 0.85057 0.0
C81 C 0.23161 0.18301 0.79129 0.0
C82 C 0.15136 0.07337 0.86531 0.0
O83 O 0.21352 1.00686 0.78303 0.0
Mg84 Mg 0.48039 0.70259 0.31452 0.0
O85 O 0.48765 0.78446 0.33426 0.0
O86 O 0.41888 0.7996 0.36302 0.0
Mg87 Mg 0.36737 0.7269 0.36183 0.0
C88 C 0.46174 0.8141 0.35131 0.0
C89 C 0.58206 0.68372 0.28171 0.0
O90 O 0.57351 0.63945 0.29524 0.0
O91 O 0.4174 0.73273 0.28263 0.0
O92 O 0.35109 0.7453 0.31385 0.0
O93 O 0.51948 0.66732 0.35368 0.0
O94 O 0.43388 0.67802 0.34877 0.0
C95 C 0.37023 0.74657 0.28818 0.0
C96 C 0.47289 0.66288 0.36447 0.0
O97 O 0.5486 0.72024 0.2842 0.0
Mg98 Mg 0.79552 0.99879 0.81985 0.0
O99 O 0.71182 1.00241 0.83838 0.0
O100 O 0.69346 0.92503 0.85826 0.0
Mg101 Mg 0.76679 0.87392 0.85518 0.0
C102 C 0.68039 0.97137 0.85121 0.0
C103 C 0.81826 0.10755 0.79592 0.0
O104 O 0.86168 0.09532 0.80988 0.0
O105 O 0.76692 0.94729 0.78203 0.0
O106 O 0.75275 0.87242 0.80599 0.0
O107 O 0.82947 0.02417 0.86262 0.0
O108 O 0.81722 0.94226 0.84977 0.0
C109 C 0.75321 0.89941 0.78259 0.0
C110 C 0.83265 0.97514 0.869 0.0
O111 O 0.7811 0.07465 0.7952 0.0
H112 H 0.99855 0.16007 0.02856 0.0
H113 H 0.15642 0.10974 0.04871 0.0
H114 H 1.01098 0.13323 -0.02232 0.0
H115 H 0.16819 0.08206 -0.00167 0.0
H116 H 0.15248 1.00127 0.90931 0.0
H117 H 0.12599 0.015 0.96012 0.0
H118 H 0.07957 0.17244 0.93917 0.0
H119 H 0.10689 0.15932 0.8888 0.0
C120 C 0.03548 0.14262 0.0222 0.0
C121 C 0.07672 0.13741 0.04237 0.0
C122 C 0.04253 0.12731 -0.00677 0.0
C123 C 0.09042 0.10545 -0.01567 0.0
C124 C 0.13075 0.09831 0.0048 0.0
C125 C 0.12414 0.11459 0.0335 0.0
C126 C 0.13614 0.03856 0.91557 0.0
C127 C 0.13221 0.07943 0.89532 0.0
C128 C 0.12102 0.04635 0.94451 0.0
C129 C 0.10062 0.09466 0.95332 0.0
C130 C 0.09467 0.1347 0.93276 0.0
C131 C 0.11077 0.12731 0.90408 0.0
H132 H 0.37156 0.50352 0.52315 0.0
H133 H 0.41515 0.66063 0.54608 0.0
H134 H 0.40382 0.5183 0.47341 0.0
H135 H 0.44831 0.67469 0.49691 0.0
H136 H 0.54093 0.66235 0.41085 0.0
H137 H 0.52198 0.63395 0.46089 0.0
H138 H 0.36622 0.58865 0.43421 0.0
H139 H 0.38441 0.618 0.38467 0.0
C140 C 0.38862 0.54081 0.51766 0.0
C141 C 0.39038 0.58114 0.53825 0.0
C142 C 0.40706 0.54919 0.48936 0.0
C143 C 0.42871 0.59749 0.4816 0.0
C144 C 0.43231 0.63697 0.50253 0.0
C145 C 0.41286 0.62905 0.53052 0.0
C146 C 0.5029 0.64589 0.41571 0.0
C147 C 0.46391 0.64286 0.3941 0.0
C148 C 0.49215 0.62965 0.44419 0.0
C149 C 0.44279 0.60897 0.45114 0.0
C150 C 0.40471 0.60396 0.42923 0.0
C151 C 0.41499 0.62121 0.40103 0.0
H152 H 0.86275 0.86882 0.04525 0.0
H153 H 0.01845 0.84285 0.0113 0.0
H154 H 0.8363 0.90871 -0.00086 0.0
H155 H 0.99104 0.88168 0.96459 0.0
H156 H 0.87528 0.88063 0.88048 0.0
H157 H 0.91059 0.84866 0.92676 0.0
H158 H 0.87209 0.99505 0.96745 0.0
H159 H 0.83791 0.02802 0.92074 0.0
C160 C 0.89124 0.87141 0.02786 0.0
C161 C 0.94258 0.85247 0.03171 0.0
C162 C 0.87617 0.89463 0.00165 0.0
C163 C 0.9118 0.89835 -0.02139 0.0
C164 C 0.96309 0.87924 -0.01775 0.0
C165 C 0.97864 0.85706 0.00882 0.0
C166 C 0.87449 0.90612 0.89927 0.0
C167 C 0.85356 0.95668 0.89716 0.0
C168 C 0.8951 0.88794 0.92558 0.0
C169 C 0.89414 0.9196 0.95039 0.0
C170 C 0.87327 0.97016 0.94842 0.0
C171 C 0.85373 0.98888 0.92184 0.0
H172 H 0.52704 0.41381 0.40614 0.0
H173 H 0.64822 0.29809 0.41838 0.0
H174 H 0.54642 0.44915 0.45473 0.0
H175 H 0.66827 0.33353 0.46597 0.0
H176 H 0.66185 0.37482 0.55984 0.0
H177 H 0.62833 0.34109 0.51414 0.0
H178 H 0.62264 0.49691 0.47869 0.0
H179 H 0.65595 0.53125 0.52508 0.0
C180 C 0.55735 0.39563 0.41931 0.0
C181 C 0.58663 0.35359 0.40838 0.0
C182 C 0.56877 0.41613 0.44689 0.0
C183 C 0.60901 0.39423 0.46404 0.0
C184 C 0.63682 0.35108 0.45337 0.0
C185 C 0.62574 0.33105 0.42589 0.0
C186 C 0.65368 0.40207 0.54235 0.0
C187 C 0.66266 0.45563 0.54583 0.0
C188 C 0.63427 0.38267 0.51618 0.0
C189 C 0.62347 0.41626 0.49276 0.0
C190 C 0.63045 0.47015 0.49648 0.0
C191 C 0.6499 0.48973 0.52287 0.0
H192 H 0.16758 0.24911 0.20452 0.0
H193 H 0.29115 0.24217 0.14039 0.0
H194 H 0.23325 0.26358 0.24269 0.0
H195 H 0.35599 0.25455 0.17819 0.0
H196 H 0.46125 0.32154 0.24623 0.0
H197 H 0.39092 0.31666 0.21042 0.0
H198 H 0.30197 0.21885 0.26879 0.0
H199 H 0.37171 0.2256 0.30516 0.0
C200 C 0.20857 0.25074 0.19854 0.0
C201 C 0.22392 0.24461 0.16934 0.0
C202 C 0.24626 0.25868 0.22042 0.0
C203 C 0.30001 0.26042 0.21355 0.0
C204 C 0.31503 0.25459 0.18432 0.0
C205 C 0.2776 0.24709 0.16255 0.0
C206 C 0.42666 0.29906 0.25145 0.0
C207 C 0.42225 0.2736 0.27843 0.0
C208 C 0.38632 0.29609 0.23087 0.0
C209 C 0.34084 0.26693 0.23655 0.0
C210 C 0.33608 0.24215 0.26378 0.0
C211 C 0.37627 0.24565 0.28454 0.0
H212 H 0.2326 0.77528 0.63444 0.0
H213 H 0.30209 0.67416 0.69943 0.0
H214 H 0.2146 0.83987 0.6716 0.0
H215 H 0.28534 0.73992 0.73676 0.0
H216 H 0.20371 0.85448 0.79948 0.0
H217 H 0.21816 0.78537 0.764 0.0
H218 H 0.26407 0.90018 0.7001 0.0
H219 H 0.24814 0.96919 0.7352 0.0
C220 C 0.24408 0.76682 0.65672 0.0
C221 C 0.26924 0.71975 0.66394 0.0
C222 C 0.23407 0.80408 0.67801 0.0
C223 C 0.24938 0.79554 0.70708 0.0
C224 C 0.27286 0.74766 0.71458 0.0
C225 C 0.28253 0.71 0.69321 0.0
C226 C 0.21698 0.86493 0.77786 0.0
C227 C 0.22443 0.91737 0.77008 0.0
C228 C 0.22549 0.82526 0.75757 0.0
C229 C 0.24183 0.83721 0.72912 0.0
C230 C 0.25036 0.88964 0.72162 0.0
C231 C 0.24157 0.92924 0.74181 0.0
H232 H 0.62281 0.77441 0.26004 0.0
H233 H 0.65052 0.60849 0.26419 0.0
H234 H 0.70141 0.7846 0.23016 0.0
H235 H 0.72862 0.61884 0.23419 0.0
H236 H 0.80167 0.66277 0.14273 0.0
H237 H 0.73701 0.64687 0.18068 0.0
H238 H 0.80343 0.77095 0.23218 0.0
H239 H 0.86922 0.78633 0.19413 0.0
C240 C 0.64573 0.7402 0.25468 0.0
C241 C 0.63019 0.69059 0.26423 0.0
C242 C 0.69098 0.74613 0.23786 0.0
C243 C 0.72107 0.70249 0.22998 0.0
C244 C 0.70603 0.65307 0.23994 0.0
C245 C 0.66128 0.64722 0.25706 0.0
C246 C 0.80326 0.68579 0.16248 0.0
C247 C 0.84029 0.72575 0.16557 0.0
C248 C 0.76635 0.67664 0.1842 0.0
C249 C 0.76506 0.70794 0.20923 0.0
C250 C 0.80351 0.74652 0.21297 0.0
C251 C 0.84133 0.75497 0.1914 0.0
H252 H 0.72491 0.39864 0.70956 0.0
H253 H 0.85694 0.33362 0.66359 0.0
H254 H 0.73732 0.334 0.74856 0.0
H255 H 0.86998 0.27007 0.70251 0.0
H256 H 0.89626 0.17716 0.78476 0.0
H257 H 0.89025 0.25792 0.75678 0.0
H258 H 0.72413 0.23372 0.74489 0.0
H259 H 0.72999 0.15263 0.77271 0.0
C260 C 0.7577 0.37183 0.70838 0.0
C261 C 0.79005 0.37093 0.6837 0.0
C262 C 0.76447 0.33462 0.73047 0.0
C263 C 0.80437 0.29689 0.7284 0.0
C264 C 0.83914 0.29886 0.70478 0.0
C265 C 0.83171 0.33519 0.68252 0.0
C266 C 0.85831 0.18927 0.77645 0.0
C267 C 0.81368 0.15818 0.78066 0.0
C268 C 0.85494 0.23554 0.76048 0.0
C269 C 0.80675 0.25208 0.74876 0.0
C270 C 0.76168 0.22219 0.75399 0.0
C271 C 0.76515 0.17551 0.76965 0.0
H272 H 0.76074 0.18199 0.30317 0.0
H273 H 0.68886 0.29494 0.24557 0.0
H274 H 0.8266 0.16282 0.26639 0.0
H275 H 0.75579 0.27606 0.20864 0.0
H276 H 0.93415 0.27585 0.17751 0.0
H277 H 0.85784 0.291 0.20859 0.0
H278 H 0.83268 0.12526 0.21462 0.0
H279 H 0.90847 0.10994 0.18346 0.0
C280 C 0.75873 0.2023 0.28246 0.0
C281 C 0.71985 0.24005 0.27721 0.0
C282 C 0.79629 0.19116 0.2614 0.0
C283 C 0.79631 0.21812 0.23478 0.0
C284 C 0.75666 0.25498 0.22911 0.0
C285 C 0.71827 0.26545 0.25007 0.0
C286 C 0.91222 0.24268 0.1854 0.0
C287 C 0.92755 0.19168 0.17825 0.0
C288 C 0.8683 0.2514 0.20291 0.0
C289 C 0.83944 0.20927 0.21388 0.0
C290 C 0.85441 0.15837 0.20647 0.0
C291 C 0.8978 0.14968 0.18867 0.0
H292 H 0.26951 0.46959 0.6972 0.0
H293 H 0.30975 0.35529 0.63196 0.0
H294 H 0.25305 0.40021 0.73207 0.0
H295 H 0.29485 0.28571 0.66722 0.0
H296 H 0.21177 0.17491 0.73252 0.0
H297 H 0.22821 0.2409 0.69511 0.0
H298 H 0.30242 0.33852 0.75977 0.0
H299 H 0.28468 0.27384 0.79696 0.0
C300 C 0.27506 0.42963 0.69033 0.0
C301 C 0.29123 0.41799 0.66187 0.0
C302 C 0.26595 0.3898 0.71038 0.0
C303 C 0.27326 0.33734 0.70256 0.0
C304 C 0.2885 0.32563 0.6739 0.0
C305 C 0.29728 0.36555 0.65375 0.0
C306 C 0.232 0.2103 0.73858 0.0
C307 C 0.24633 0.21945 0.76773 0.0
C308 C 0.24148 0.24808 0.71718 0.0
C309 C 0.26583 0.29543 0.72455 0.0
C310 C 0.28222 0.30324 0.75347 0.0
C311 C 0.27235 0.26592 0.77479 0.0
H312 H 0.35345 0.69765 0.23619 0.0
H313 H 0.30454 0.82901 0.28787 0.0
H314 H 0.27835 0.71117 0.20363 0.0
H315 H 0.23136 0.84458 0.25475 0.0
H316 H 0.06853 0.80965 0.22093 0.0
H317 H 0.15056 0.80291 0.24774 0.0
H318 H 0.23118 0.76108 0.16839 0.0
H319 H 0.14827 0.76579 0.14177 0.0
C320 C 0.32767 0.73057 0.23988 0.0
C321 C 0.33431 0.76211 0.26453 0.0
C322 C 0.28456 0.73834 0.22131 0.0
C323 C 0.24793 0.77825 0.22695 0.0
C324 C 0.25762 0.81239 0.25028 0.0
C325 C 0.29992 0.80398 0.26905 0.0
C326 C 0.10372 0.79898 0.2092 0.0
C327 C 0.10184 0.78824 0.17925 0.0
C328 C 0.15102 0.79561 0.22451 0.0
C329 C 0.19788 0.78212 0.2102 0.0
C330 C 0.19592 0.77119 0.18019 0.0
C331 C 0.14838 0.77403 0.16491 0.0
H332 H 0.79553 0.64879 0.66985 0.0
H333 H 0.63302 0.68494 0.65162 0.0
H334 H 0.80357 0.72981 0.69735 0.0
H335 H 0.64119 0.76564 0.67925 0.0
H336 H 0.6682 0.83966 0.77323 0.0
H337 H 0.65569 0.77682 0.73406 0.0
H338 H 0.7976 0.83074 0.69297 0.0
H339 H 0.80946 0.89476 0.7322 0.0
C340 C 0.76171 0.67421 0.67147 0.0
C341 C 0.71348 0.66015 0.65886 0.0
C342 C 0.76648 0.72084 0.68694 0.0
C343 C 0.72299 0.75397 0.69035 0.0
C344 C 0.67527 0.74072 0.67697 0.0
C345 C 0.67065 0.69447 0.66121 0.0
C346 C 0.69566 0.83926 0.75527 0.0
C347 C 0.73959 0.87199 0.75553 0.0
C348 C 0.68855 0.80335 0.73287 0.0
C349 C 0.72589 0.79871 0.71062 0.0
C350 C 0.7684 0.83347 0.70998 0.0
C351 C 0.77491 0.87033 0.73217 0.0
H352 H 0.05887 0.64112 0.08641 0.0
H353 H 0.90845 0.5912 0.05304 0.0
H354 H 0.09029 0.55137 0.08505 0.0
H355 H 0.94013 0.50153 0.05168 0.0
H356 H 0.99321 0.34803 0.09763 0.0
H357 H 0.96331 0.43743 0.09097 0.0
H358 H 0.11122 0.47693 0.05135 0.0
H359 H 0.14143 0.38725 0.05799 0.0
C360 C 0.03271 0.61118 0.07841 0.0
C361 C 0.98097 0.62343 0.07003 0.0
C362 C 0.05085 0.55977 0.07751 0.0
C363 C 0.01754 0.51936 0.06846 0.0
C364 C 0.96649 0.53179 0.05907 0.0
C365 C 0.94849 0.58326 0.05969 0.0
C366 C 0.01932 0.37559 0.08731 0.0
C367 C 0.06984 0.36042 0.07846 0.0
C368 C 1.002 0.42678 0.08331 0.0
C369 C 0.03492 0.46421 0.07063 0.0
C370 C 0.08513 0.44899 0.06136 0.0
C371 C 0.1023 0.39756 0.06506 0.0
H372 H 0.88011 0.57177 0.59474 0.0
H373 H 0.91998 0.4185 0.56278 0.0
H374 H 0.97108 0.59876 0.58873 0.0
H375 H 1.01074 0.44576 0.55673 0.0
H376 H 0.17363 0.49442 0.59427 0.0
H377 H 0.08214 0.46778 0.59177 0.0
H378 H 0.0412 0.61459 0.5516 0.0
H379 H 0.13291 0.64156 0.55413 0.0
C380 C 0.90802 0.54401 0.58609 0.0
C381 C 0.89265 0.49281 0.57946 0.0
C382 C 0.96014 0.5596 0.5825 0.0
C383 C 0.99815 0.52427 0.57242 0.0
C384 C 0.98246 0.47367 0.56486 0.0
C385 C 0.93032 0.45819 0.56821 0.0
C386 C 0.14531 0.52088 0.58459 0.0
C387 C 0.16068 0.57026 0.57452 0.0
C388 C 0.09287 0.50545 0.58302 0.0
C389 C 0.05441 0.53917 0.57158 0.0
C390 C 0.06989 0.58798 0.56078 0.0
C391 C 0.1225 0.60324 0.56207 0.0
H392 H 0.48969 0.149 0.34175 0.0
H393 H 0.6348 0.1011 0.38303 0.0
H394 H 0.45944 0.0588 0.34252 0.0
H395 H 0.60446 1.01129 0.38363 0.0
H396 H 0.5586 0.85444 0.33951 0.0
H397 H 0.5869 0.94471 0.34425 0.0
H398 H 0.43496 0.98671 0.37816 0.0
H399 H 0.40647 0.89638 0.37358 0.0
C400 C 0.51493 0.11944 0.35122 0.0
C401 C 0.56478 0.13239 0.36223 0.0
C402 C 0.49749 0.06782 0.35176 0.0
C403 C 0.52975 0.02801 0.36298 0.0
C404 C 0.579 0.04109 0.37457 0.0
C405 C 0.59619 0.09267 0.37436 0.0
C406 C 0.53132 0.88278 0.34821 0.0
C407 C 0.48026 0.8681 0.35615 0.0
C408 C 0.54763 0.93444 0.35103 0.0
C409 C 0.51307 0.97274 0.36151 0.0
C410 C 0.46226 0.95806 0.3698 0.0
C411 C 0.44614 0.90624 0.36735 0.0
H412 H 0.33882 0.99173 0.86403 0.0
H413 H 0.39049 0.1496 0.85105 0.0
H414 H 0.42951 0.96299 0.86863 0.0
H415 H 0.48126 0.121 0.85265 0.0
H416 H 0.6447 0.06558 0.87035 0.0
H417 H 0.55386 0.09345 0.87576 0.0
H418 H 0.50231 0.94321 0.844 0.0
H419 H 0.59282 0.91465 0.84151 0.0
C420 C 0.36989 0.02017 0.86201 0.0
C421 C 0.35788 0.07279 0.85731 0.0
C422 C 0.42212 1.00375 0.86425 0.0
C423 C 0.46376 0.03927 0.86065 0.0
C424 C 0.4511 0.09222 0.85623 0.0
C425 C 0.39885 0.10882 0.85505 0.0
C426 C 0.6136 0.03855 0.865 0.0
C427 C 0.62557 0.98797 0.85569 0.0
C428 C 0.56132 0.05457 0.86775 0.0
C429 C 0.51971 0.02099 0.86014 0.0
C430 C 0.53238 0.97018 0.85087 0.0
C431 C 0.58453 0.95369 0.84915 0.0
loop_
_geom_bond_atom_site_label_1
_geom_bond_atom_site_label_2
_geom_bond_distance
_geom_bond_site_symmetry_2
_ccdc_geom_bond_type
Mg0 O1 2.028 . S
Mg0 O7 1.986 . S
Mg0 O9 2.114 . S
Mg0 O10 2.251 . S
Mg0 O13 2.010 . S
O1 Mg0 2.028 . S
O1 C4 1.250 . S
O2 Mg3 2.028 . S
O2 C4 1.248 . S
Mg3 O2 2.028 . S
Mg3 O8 2.032 . S
Mg3 O10 2.079 . S
C4 O1 1.250 . S
C4 O2 1.248 . S
C5 O6 1.264 . S
C5 O13 1.249 1_655 S
O6 C5 1.264 . S
O7 Mg0 1.986 . S
O7 C11 1.246 . S
O8 Mg3 2.032 . S
O8 C11 1.259 . S
O9 Mg0 2.114 . S
O9 C12 1.252 . S
O10 Mg0 2.251 . S
O10 Mg3 2.079 . S
O10 C12 1.273 . S
C11 O7 1.246 . S
C11 O8 1.259 . S
C12 O9 1.252 . S
C12 O10 1.273 . S
O13 Mg0 2.010 . S
O13 C5 1.249 1_455 S
Mg14 O15 2.028 . S
Mg14 O21 1.986 . S
Mg14 O23 2.114 . S
Mg14 O24 2.251 . S
Mg14 O27 2.010 . S
O15 Mg14 2.028 . S
O15 C18 1.250 . S
O16 Mg17 2.028 . S
O16 C18 1.248 . S
Mg17 O16 2.028 . S
Mg17 O22 2.032 . S
Mg17 O24 2.079 . S
C18 O15 1.250 . S
C18 O16 1.248 . S
C19 O20 1.264 . S
C19 O27 1.249 . S
O20 C19 1.264 . S
O21 Mg14 1.986 . S
O21 C25 1.246 . S
O22 Mg17 2.032 . S
O22 C25 1.259 . S
O23 Mg14 2.114 . S
O23 C26 1.252 . S
O24 Mg14 2.251 . S
O24 Mg17 2.079 . S
O24 C26 1.273 . S
C25 O21 1.246 . S
C25 O22 1.259 . S
C26 O23 1.252 . S
C26 O24 1.273 . S
O27 Mg14 2.010 . S
O27 C19 1.249 . S
Mg28 O29 2.028 . S
Mg28 O35 1.986 . S
Mg28 O37 2.114 . S
Mg28 O38 2.251 . S
Mg28 O41 2.010 . S
O29 Mg28 2.028 . S
O29 C32 1.250 . S
O30 Mg31 2.028 . S
O30 C32 1.248 . S
Mg31 O30 2.028 . S
Mg31 O36 2.032 . S
Mg31 O38 2.079 . S
C32 O29 1.250 . S
C32 O30 1.248 . S
C33 O34 1.264 . S
C33 O41 1.249 1_455 S
O34 C33 1.264 . S
O35 Mg28 1.986 . S
O35 C39 1.246 . S
O36 Mg31 2.032 . S
O36 C39 1.259 . S
O37 Mg28 2.114 . S
O37 C40 1.252 . S
O38 Mg28 2.251 . S
O38 Mg31 2.079 . S
O38 C40 1.273 . S
C39 O35 1.246 . S
C39 O36 1.259 . S
C40 O37 1.252 . S
C40 O38 1.273 . S
O41 Mg28 2.010 . S
O41 C33 1.249 1_655 S
Mg42 O43 2.028 . S
Mg42 O49 1.986 . S
Mg42 O51 2.114 . S
Mg42 O52 2.251 . S
Mg42 O55 2.010 . S
O43 Mg42 2.028 . S
O43 C46 1.250 . S
O44 Mg45 2.028 . S
O44 C46 1.248 . S
Mg45 O44 2.028 . S
Mg45 O50 2.032 . S
Mg45 O52 2.079 . S
C46 O43 1.250 . S
C46 O44 1.248 . S
C47 O48 1.264 . S
C47 O55 1.249 . S
O48 C47 1.264 . S
O49 Mg42 1.986 . S
O49 C53 1.246 . S
O50 Mg45 2.032 . S
O50 C53 1.259 . S
O51 Mg42 2.114 . S
O51 C54 1.252 . S
O52 Mg42 2.251 . S
O52 Mg45 2.079 . S
O52 C54 1.273 . S
C53 O49 1.246 . S
C53 O50 1.259 . S
C54 O51 1.252 . S
C54 O52 1.273 . S
O55 Mg42 2.010 . S
O55 C47 1.249 . S
Mg56 O57 2.028 . S
Mg56 O63 1.986 . S
Mg56 O65 2.114 . S
Mg56 O66 2.251 . S
Mg56 O69 2.010 . S
O57 Mg56 2.028 . S
O57 C60 1.250 . S
O58 Mg59 2.028 . S
O58 C60 1.248 . S
Mg59 O58 2.028 . S
Mg59 O64 2.032 . S
Mg59 O66 2.079 . S
C60 O57 1.250 . S
C60 O58 1.248 . S
C61 O62 1.264 . S
C61 O69 1.249 . S
O62 C61 1.264 . S
O63 Mg56 1.986 . S
O63 C67 1.246 . S
O64 Mg59 2.032 . S
O64 C67 1.259 . S
O65 Mg56 2.114 . S
O65 C68 1.252 . S
O66 Mg56 2.251 . S
O66 Mg59 2.079 . S
O66 C68 1.273 . S
C67 O63 1.246 . S
C67 O64 1.259 . S
C68 O65 1.252 . S
C68 O66 1.273 . S
O69 Mg56 2.010 . S
O69 C61 1.249 . S
Mg70 O71 2.028 . S
Mg70 O77 1.986 . S
Mg70 O79 2.114 . S
Mg70 O80 2.251 . S
Mg70 O83 2.010 . S
O71 Mg70 2.028 . S
O71 C74 1.250 . S
O72 Mg73 2.028 . S
O72 C74 1.248 . S
Mg73 O72 2.028 . S
Mg73 O78 2.032 . S
Mg73 O80 2.079 . S
C74 O71 1.250 . S
C74 O72 1.248 . S
C75 O76 1.264 . S
C75 O83 1.249 1_565 S
O76 C75 1.264 . S
O77 Mg70 1.986 . S
O77 C81 1.246 . S
O78 Mg73 2.032 . S
O78 C81 1.259 . S
O79 Mg70 2.114 . S
O79 C82 1.252 . S
O80 Mg70 2.251 . S
O80 Mg73 2.079 . S
O80 C82 1.273 . S
C81 O77 1.246 . S
C81 O78 1.259 . S
C82 O79 1.252 . S
C82 O80 1.273 . S
O83 Mg70 2.010 . S
O83 C75 1.249 1_545 S
Mg84 O85 2.028 . S
Mg84 O91 1.986 . S
Mg84 O93 2.114 . S
Mg84 O94 2.251 . S
Mg84 O97 2.010 . S
O85 Mg84 2.028 . S
O85 C88 1.250 . S
O86 Mg87 2.028 . S
O86 C88 1.248 . S
Mg87 O86 2.028 . S
Mg87 O92 2.032 . S
Mg87 O94 2.079 . S
C88 O85 1.250 . S
C88 O86 1.248 . S
C89 O90 1.264 . S
C89 O97 1.249 . S
O90 C89 1.264 . S
O91 Mg84 1.986 . S
O91 C95 1.246 . S
O92 Mg87 2.032 . S
O92 C95 1.259 . S
O93 Mg84 2.114 . S
O93 C96 1.252 . S
O94 Mg84 2.251 . S
O94 Mg87 2.079 . S
O94 C96 1.273 . S
C95 O91 1.246 . S
C95 O92 1.259 . S
C96 O93 1.252 . S
C96 O94 1.273 . S
O97 Mg84 2.010 . S
O97 C89 1.249 . S
Mg98 O99 2.028 . S
Mg98 O105 1.986 . S
Mg98 O107 2.114 . S
Mg98 O108 2.251 . S
Mg98 O111 2.010 . S
O99 Mg98 2.028 . S
O99 C102 1.250 . S
O100 Mg101 2.028 . S
O100 C102 1.248 . S
Mg101 O100 2.028 . S
Mg101 O106 2.032 . S
Mg101 O108 2.079 . S
C102 O99 1.250 . S
C102 O100 1.248 . S
C103 O104 1.264 . S
C103 O111 1.249 1_545 S
O104 C103 1.264 . S
O105 Mg98 1.986 . S
O105 C109 1.246 . S
O106 Mg101 2.032 . S
O106 C109 1.259 . S
O107 Mg98 2.114 . S
O107 C110 1.252 . S
O108 Mg98 2.251 . S
O108 Mg101 2.079 . S
O108 C110 1.273 . S
C109 O105 1.246 . S
C109 O106 1.259 . S
C110 O107 1.252 . S
C110 O108 1.273 . S
O111 Mg98 2.010 . S
O111 C103 1.249 1_565 S
H112 C120 0.950 . S
H113 C125 0.950 . S
H114 C122 0.950 1_556 S
H115 C124 0.950 . S
H116 C126 0.950 . S
H117 C128 0.950 1_554 S
H118 C130 0.950 . S
H119 C131 0.950 . S
C120 H112 0.950 . S
C120 C121 1.386 . S
C120 C122 1.391 . S
C121 C120 1.386 . S
C121 C125 1.393 . S
C122 H114 0.950 1_554 S
C122 C120 1.391 . S
C122 C123 1.400 . S
C123 C122 1.400 . S
C123 C124 1.398 . S
C123 C129 1.491 1_554 S
C124 H115 0.950 . S
C124 C123 1.398 . S
C124 C125 1.391 . S
C125 H113 0.950 . S
C125 C121 1.393 . S
C125 C124 1.391 . S
C126 H116 0.950 . S
C126 C127 1.386 . S
C126 C128 1.391 . S
C127 C126 1.386 . S
C127 C131 1.393 . S
C128 H117 0.950 1_556 S
C128 C126 1.391 . S
C128 C129 1.400 . S
C129 C123 1.491 1_556 S
C129 C128 1.400 . S
C129 C130 1.398 . S
C130 H118 0.950 . S
C130 C129 1.398 . S
C130 C131 1.391 . S
C131 H119 0.950 . S
C131 C127 1.393 . S
C131 C130 1.391 . S
H132 C140 0.950 . S
H133 C145 0.950 . S
H134 C142 0.950 . S
H135 C144 0.950 . S
H136 C146 0.950 . S
H137 C148 0.950 . S
H138 C150 0.950 . S
H139 C151 0.950 . S
C140 H132 0.950 . S
C140 C141 1.386 . S
C140 C142 1.391 . S
C141 C140 1.386 . S
C141 C145 1.393 . S
C142 H134 0.950 . S
C142 C140 1.391 . S
C142 C143 1.400 . S
C143 C142 1.400 . S
C143 C144 1.398 . S
C143 C149 1.491 . S
C144 H135 0.950 . S
C144 C143 1.398 . S
C144 C145 1.391 . S
C145 H133 0.950 . S
C145 C141 1.393 . S
C145 C144 1.391 . S
C146 H136 0.950 . S
C146 C147 1.386 . S
C146 C148 1.391 . S
C147 C146 1.386 . S
C147 C151 1.393 . S
C148 H137 0.950 . S
C148 C146 1.391 . S
C148 C149 1.400 . S
C149 C143 1.491 . S
C149 C148 1.400 . S
C149 C150 1.398 . S
C150 H138 0.950 . S
C150 C149 1.398 . S
C150 C151 1.391 . S
C151 H139 0.950 . S
C151 C147 1.393 . S
C151 C150 1.391 . S
H152 C160 0.950 . S
H153 C165 0.950 . S
H154 C162 0.950 . S
H155 C164 0.950 1_556 S
H156 C166 0.950 . S
H157 C168 0.950 . S
H158 C170 0.950 1_554 S
H159 C171 0.950 . S
C160 H152 0.950 . S
C160 C161 1.386 . S
C160 C162 1.391 . S
C161 C160 1.386 . S
C161 C165 1.393 . S
C162 H154 0.950 . S
C162 C160 1.391 . S
C162 C163 1.400 . S
C163 C162 1.400 . S
C163 C164 1.398 . S
C163 C169 1.491 1_554 S
C164 H155 0.950 1_554 S
C164 C163 1.398 . S
C164 C165 1.391 . S
C165 H153 0.950 . S
C165 C161 1.393 . S
C165 C164 1.391 . S
C166 H156 0.950 . S
C166 C167 1.386 . S
C166 C168 1.391 . S
C167 C166 1.386 . S
C167 C171 1.393 . S
C168 H157 0.950 . S
C168 C166 1.391 . S
C168 C169 1.400 . S
C169 C163 1.491 1_556 S
C169 C168 1.400 . S
C169 C170 1.398 . S
C170 H158 0.950 1_556 S
C170 C169 1.398 . S
C170 C171 1.391 . S
C171 H159 0.950 . S
C171 C167 1.393 . S
C171 C170 1.391 . S
H172 C180 0.950 . S
H173 C185 0.950 . S
H174 C182 0.950 . S
H175 C184 0.950 . S
H176 C186 0.950 . S
H177 C188 0.950 . S
H178 C190 0.950 . S
H179 C191 0.950 . S
C180 H172 0.950 . S
C180 C181 1.386 . S
C180 C182 1.391 . S
C181 C180 1.386 . S
C181 C185 1.393 . S
C182 H174 0.950 . S
C182 C180 1.391 . S
C182 C183 1.400 . S
C183 C182 1.400 . S
C183 C184 1.398 . S
C183 C189 1.491 . S
C184 H175 0.950 . S
C184 C183 1.398 . S
C184 C185 1.391 . S
C185 H173 0.950 . S
C185 C181 1.393 . S
C185 C184 1.391 . S
C186 H176 0.950 . S
C186 C187 1.386 . S
C186 C188 1.391 . S
C187 C186 1.386 . S
C187 C191 1.393 . S
C188 H177 0.950 . S
C188 C186 1.391 . S
C188 C189 1.400 . S
C189 C183 1.491 . S
C189 C188 1.400 . S
C189 C190 1.398 . S
C190 H178 0.950 . S
C190 C189 1.398 . S
C190 C191 1.391 . S
C191 H179 0.950 . S
C191 C187 1.393 . S
C191 C190 1.391 . S
H192 C200 0.950 . S
H193 C205 0.950 . S
H194 C202 0.950 . S
H195 C204 0.950 . S
H196 C206 0.950 . S
H197 C208 0.950 . S
H198 C210 0.950 . S
H199 C211 0.950 . S
C200 H192 0.950 . S
C200 C201 1.386 . S
C200 C202 1.391 . S
C201 C200 1.386 . S
C201 C205 1.393 . S
C202 H194 0.950 . S
C202 C200 1.391 . S
C202 C203 1.400 . S
C203 C202 1.400 . S
C203 C204 1.398 . S
C203 C209 1.491 . S
C204 H195 0.950 . S
C204 C203 1.398 . S
C204 C205 1.391 . S
C205 H193 0.950 . S
C205 C201 1.393 . S
C205 C204 1.391 . S
C206 H196 0.950 . S
C206 C207 1.386 . S
C206 C208 1.391 . S
C207 C206 1.386 . S
C207 C211 1.393 . S
C208 H197 0.950 . S
C208 C206 1.391 . S
C208 C209 1.400 . S
C209 C203 1.491 . S
C209 C208 1.400 . S
C209 C210 1.398 . S
C210 H198 0.950 . S
C210 C209 1.398 . S
C210 C211 1.391 . S
C211 H199 0.950 . S
C211 C207 1.393 . S
C211 C210 1.391 . S
H212 C220 0.950 . S
H213 C225 0.950 . S
H214 C222 0.950 . S
H215 C224 0.950 . S
H216 C226 0.950 . S
H217 C228 0.950 . S
H218 C230 0.950 . S
H219 C231 0.950 . S
C220 H212 0.950 . S
C220 C221 1.386 . S
C220 C222 1.391 . S
C221 C220 1.386 . S
C221 C225 1.393 . S
C222 H214 0.950 . S
C222 C220 1.391 . S
C222 C223 1.400 . S
C223 C222 1.400 . S
C223 C224 1.398 . S
C223 C229 1.491 . S
C224 H215 0.950 . S
C224 C223 1.398 . S
C224 C225 1.391 . S
C225 H213 0.950 . S
C225 C221 1.393 . S
C225 C224 1.391 . S
C226 H216 0.950 . S
C226 C227 1.386 . S
C226 C228 1.391 . S
C227 C226 1.386 . S
C227 C231 1.393 . S
C228 H217 0.950 . S
C228 C226 1.391 . S
C228 C229 1.400 . S
C229 C223 1.491 . S
C229 C228 1.400 . S
C229 C230 1.398 . S
C230 H218 0.950 . S
C230 C229 1.398 . S
C230 C231 1.391 . S
C231 H219 0.950 . S
C231 C227 1.393 . S
C231 C230 1.391 . S
H232 C240 0.950 . S
H233 C245 0.950 . S
H234 C242 0.950 . S
H235 C244 0.950 . S
H236 C246 0.950 . S
H237 C248 0.950 . S
H238 C250 0.950 . S
H239 C251 0.950 . S
C240 H232 0.950 . S
C240 C241 1.386 . S
C240 C242 1.391 . S
C241 C240 1.386 . S
C241 C245 1.393 . S
C242 H234 0.950 . S
C242 C240 1.391 . S
C242 C243 1.400 . S
C243 C242 1.400 . S
C243 C244 1.398 . S
C243 C249 1.491 . S
C244 H235 0.950 . S
C244 C243 1.398 . S
C244 C245 1.391 . S
C245 H233 0.950 . S
C245 C241 1.393 . S
C245 C244 1.391 . S
C246 H236 0.950 . S
C246 C247 1.386 . S
C246 C248 1.391 . S
C247 C246 1.386 . S
C247 C251 1.393 . S
C248 H237 0.950 . S
C248 C246 1.391 . S
C248 C249 1.400 . S
C249 C243 1.491 . S
C249 C248 1.400 . S
C249 C250 1.398 . S
C250 H238 0.950 . S
C250 C249 1.398 . S
C250 C251 1.391 . S
C251 H239 0.950 . S
C251 C247 1.393 . S
C251 C250 1.391 . S
H252 C260 0.950 . S
H253 C265 0.950 . S
H254 C262 0.950 . S
H255 C264 0.950 . S
H256 C266 0.950 . S
H257 C268 0.950 . S
H258 C270 0.950 . S
H259 C271 0.950 . S
C260 H252 0.950 . S
C260 C261 1.386 . S
C260 C262 1.391 . S
C261 C260 1.386 . S
C261 C265 1.393 . S
C262 H254 0.950 . S
C262 C260 1.391 . S
C262 C263 1.400 . S
C263 C262 1.400 . S
C263 C264 1.398 . S
C263 C269 1.491 . S
C264 H255 0.950 . S
C264 C263 1.398 . S
C264 C265 1.391 . S
C265 H253 0.950 . S
C265 C261 1.393 . S
C265 C264 1.391 . S
C266 H256 0.950 . S
C266 C267 1.386 . S
C266 C268 1.391 . S
C267 C266 1.386 . S
C267 C271 1.393 . S
C268 H257 0.950 . S
C268 C266 1.391 . S
C268 C269 1.400 . S
C269 C263 1.491 . S
C269 C268 1.400 . S
C269 C270 1.398 . S
C270 H258 0.950 . S
C270 C269 1.398 . S
C270 C271 1.391 . S
C271 H259 0.950 . S
C271 C267 1.393 . S
C271 C270 1.391 . S
H272 C280 0.950 . S
H273 C285 0.950 . S
H274 C282 0.950 . S
H275 C284 0.950 . S
H276 C286 0.950 . S
H277 C288 0.950 . S
H278 C290 0.950 . S
H279 C291 0.950 . S
C280 H272 0.950 . S
C280 C281 1.386 . S
C280 C282 1.391 . S
C281 C280 1.386 . S
C281 C285 1.393 . S
C282 H274 0.950 . S
C282 C280 1.391 . S
C282 C283 1.400 . S
C283 C282 1.400 . S
C283 C284 1.398 . S
C283 C289 1.491 . S
C284 H275 0.950 . S
C284 C283 1.398 . S
C284 C285 1.391 . S
C285 H273 0.950 . S
C285 C281 1.393 . S
C285 C284 1.391 . S
C286 H276 0.950 . S
C286 C287 1.386 . S
C286 C288 1.391 . S
C287 C286 1.386 . S
C287 C291 1.393 . S
C288 H277 0.950 . S
C288 C286 1.391 . S
C288 C289 1.400 . S
C289 C283 1.491 . S
C289 C288 1.400 . S
C289 C290 1.398 . S
C290 H278 0.950 . S
C290 C289 1.398 . S
C290 C291 1.391 . S
C291 H279 0.950 . S
C291 C287 1.393 . S
C291 C290 1.391 . S
H292 C300 0.950 . S
H293 C305 0.950 . S
H294 C302 0.950 . S
H295 C304 0.950 . S
H296 C306 0.950 . S
H297 C308 0.950 . S
H298 C310 0.950 . S
H299 C311 0.950 . S
C300 H292 0.950 . S
C300 C301 1.386 . S
C300 C302 1.391 . S
C301 C300 1.386 . S
C301 C305 1.393 . S
C302 H294 0.950 . S
C302 C300 1.391 . S
C302 C303 1.400 . S
C303 C302 1.400 . S
C303 C304 1.398 . S
C303 C309 1.491 . S
C304 H295 0.950 . S
C304 C303 1.398 . S
C304 C305 1.391 . S
C305 H293 0.950 . S
C305 C301 1.393 . S
C305 C304 1.391 . S
C306 H296 0.950 . S
C306 C307 1.386 . S
C306 C308 1.391 . S
C307 C306 1.386 . S
C307 C311 1.393 . S
C308 H297 0.950 . S
C308 C306 1.391 . S
C308 C309 1.400 . S
C309 C303 1.491 . S
C309 C308 1.400 . S
C309 C310 1.398 . S
C310 H298 0.950 . S
C310 C309 1.398 . S
C310 C311 1.391 . S
C311 H299 0.950 . S
C311 C307 1.393 . S
C311 C310 1.391 . S
H312 C320 0.950 . S
H313 C325 0.950 . S
H314 C322 0.950 . S
H315 C324 0.950 . S
H316 C326 0.950 . S
H317 C328 0.950 . S
H318 C330 0.950 . S
H319 C331 0.950 . S
C320 H312 0.950 . S
C320 C321 1.386 . S
C320 C322 1.391 . S
C321 C320 1.386 . S
C321 C325 1.393 . S
C322 H314 0.950 . S
C322 C320 1.391 . S
C322 C323 1.400 . S
C323 C322 1.400 . S
C323 C324 1.398 . S
C323 C329 1.491 . S
C324 H315 0.950 . S
C324 C323 1.398 . S
C324 C325 1.391 . S
C325 H313 0.950 . S
C325 C321 1.393 . S
C325 C324 1.391 . S
C326 H316 0.950 . S
C326 C327 1.386 . S
C326 C328 1.391 . S
C327 C326 1.386 . S
C327 C331 1.393 . S
C328 H317 0.950 . S
C328 C326 1.391 . S
C328 C329 1.400 . S
C329 C323 1.491 . S
C329 C328 1.400 . S
C329 C330 1.398 . S
C330 H318 0.950 . S
C330 C329 1.398 . S
C330 C331 1.391 . S
C331 H319 0.950 . S
C331 C327 1.393 . S
C331 C330 1.391 . S
H332 C340 0.950 . S
H333 C345 0.950 . S
H334 C342 0.950 . S
H335 C344 0.950 . S
H336 C346 0.950 . S
H337 C348 0.950 . S
H338 C350 0.950 . S
H339 C351 0.950 . S
C340 H332 0.950 . S
C340 C341 1.386 . S
C340 C342 1.391 . S
C341 C340 1.386 . S
C341 C345 1.393 . S
C342 H334 0.950 . S
C342 C340 1.391 . S
C342 C343 1.400 . S
C343 C342 1.400 . S
C343 C344 1.398 . S
C343 C349 1.491 . S
C344 H335 0.950 . S
C344 C343 1.398 . S
C344 C345 1.391 . S
C345 H333 0.950 . S
C345 C341 1.393 . S
C345 C344 1.391 . S
C346 H336 0.950 . S
C346 C347 1.386 . S
C346 C348 1.391 . S
C347 C346 1.386 . S
C347 C351 1.393 . S
C348 H337 0.950 . S
C348 C346 1.391 . S
C348 C349 1.400 . S
C349 C343 1.491 . S
C349 C348 1.400 . S
C349 C350 1.398 . S
C350 H338 0.950 . S
C350 C349 1.398 . S
C350 C351 1.391 . S
C351 H339 0.950 . S
C351 C347 1.393 . S
C351 C350 1.391 . S
H352 C360 0.950 . S
H353 C365 0.950 . S
H354 C362 0.950 . S
H355 C364 0.950 . S
H356 C366 0.950 . S
H357 C368 0.950 . S
H358 C370 0.950 . S
H359 C371 0.950 . S
C360 H352 0.950 . S
C360 C361 1.386 1_455 S
C360 C362 1.391 . S
C361 C360 1.386 1_655 S
C361 C365 1.393 . S
C362 H354 0.950 . S
C362 C360 1.391 . S
C362 C363 1.400 1_455 S
C363 C362 1.400 1_655 S
C363 C364 1.398 . S
C363 C369 1.491 1_655 S
C364 H355 0.950 . S
C364 C363 1.398 . S
C364 C365 1.391 . S
C365 H353 0.950 . S
C365 C361 1.393 . S
C365 C364 1.391 . S
C366 H356 0.950 . S
C366 C367 1.386 1_655 S
C366 C368 1.391 . S
C367 C366 1.386 1_455 S
C367 C371 1.393 . S
C368 H357 0.950 . S
C368 C366 1.391 . S
C368 C369 1.400 1_655 S
C369 C363 1.491 1_455 S
C369 C368 1.400 1_455 S
C369 C370 1.398 . S
C370 H358 0.950 . S
C370 C369 1.398 . S
C370 C371 1.391 . S
C371 H359 0.950 . S
C371 C367 1.393 . S
C371 C370 1.391 . S
H372 C380 0.950 . S
H373 C385 0.950 . S
H374 C382 0.950 . S
H375 C384 0.950 . S
H376 C386 0.950 . S
H377 C388 0.950 . S
H378 C390 0.950 . S
H379 C391 0.950 . S
C380 H372 0.950 . S
C380 C381 1.386 . S
C380 C382 1.391 . S
C381 C380 1.386 . S
C381 C385 1.393 . S
C382 H374 0.950 . S
C382 C380 1.391 . S
C382 C383 1.400 . S
C383 C382 1.400 . S
C383 C384 1.398 . S
C383 C389 1.491 1_655 S
C384 H375 0.950 . S
C384 C383 1.398 . S
C384 C385 1.391 . S
C385 H373 0.950 . S
C385 C381 1.393 . S
C385 C384 1.391 . S
C386 H376 0.950 . S
C386 C387 1.386 . S
C386 C388 1.391 . S
C387 C386 1.386 . S
C387 C391 1.393 . S
C388 H377 0.950 . S
C388 C386 1.391 . S
C388 C389 1.400 . S
C389 C383 1.491 1_455 S
C389 C388 1.400 . S
C389 C390 1.398 . S
C390 H378 0.950 . S
C390 C389 1.398 . S
C390 C391 1.391 . S
C391 H379 0.950 . S
C391 C387 1.393 . S
C391 C390 1.391 . S
H392 C400 0.950 . S
H393 C405 0.950 . S
H394 C402 0.950 . S
H395 C404 0.950 . S
H396 C406 0.950 . S
H397 C408 0.950 . S
H398 C410 0.950 . S
H399 C411 0.950 . S
C400 H392 0.950 . S
C400 C401 1.386 . S
C400 C402 1.391 . S
C401 C400 1.386 . S
C401 C405 1.393 . S
C402 H394 0.950 . S
C402 C400 1.391 . S
C402 C403 1.400 . S
C403 C402 1.400 . S
C403 C404 1.398 . S
C403 C409 1.491 1_545 S
C404 H395 0.950 . S
C404 C403 1.398 . S
C404 C405 1.391 . S
C405 H393 0.950 . S
C405 C401 1.393 . S
C405 C404 1.391 . S
C406 H396 0.950 . S
C406 C407 1.386 . S
C406 C408 1.391 . S
C407 C406 1.386 . S
C407 C411 1.393 . S
C408 H397 0.950 . S
C408 C406 1.391 . S
C408 C409 1.400 . S
C409 C403 1.491 1_565 S
C409 C408 1.400 . S
C409 C410 1.398 . S
C410 H398 0.950 . S
C410 C409 1.398 . S
C410 C411 1.391 . S
C411 H399 0.950 . S
C411 C407 1.393 . S
C411 C410 1.391 . S
H412 C420 0.950 . S
H413 C425 0.950 . S
H414 C422 0.950 . S
H415 C424 0.950 . S
H416 C426 0.950 . S
H417 C428 0.950 . S
H418 C430 0.950 . S
H419 C431 0.950 . S
C420 H412 0.950 . S
C420 C421 1.386 1_565 S
C420 C422 1.391 . S
C421 C420 1.386 1_545 S
C421 C425 1.393 . S
C422 H414 0.950 . S
C422 C420 1.391 . S
C422 C423 1.400 1_565 S
C423 C422 1.400 1_545 S
C423 C424 1.398 . S
C423 C429 1.491 1_545 S
C424 H415 0.950 . S
C424 C423 1.398 . S
C424 C425 1.391 . S
C425 H413 0.950 . S
C425 C421 1.393 . S
C425 C424 1.391 . S
C426 H416 0.950 . S
C426 C427 1.386 1_545 S
C426 C428 1.391 . S
C427 C426 1.386 1_565 S
C427 C431 1.393 . S
C428 H417 0.950 . S
C428 C426 1.391 . S
C428 C429 1.400 1_545 S
C429 C423 1.491 1_565 S
C429 C428 1.400 1_565 S
C429 C430 1.398 . S
C430 H418 0.950 . S
C430 C429 1.398 . S
C430 C431 1.391 . S
C431 H419 0.950 . S
C431 C427 1.393 . S
C431 C430 1.391 . S
C121 C12 1.400 . S
C127 C82 1.407 . S
C141 C26 1.399 . S
C147 C96 1.406 . S
C161 C40 1.407 . S
C167 C110 1.401 . S
C181 C68 1.409 . S
C187 C54 1.404 . S
C201 C11 1.385 . S
C207 C61 1.318 . S
C221 C25 1.374 . S
C227 C75 1.344 . S
C241 C89 1.349 . S
C247 C39 1.365 . S
C261 C53 1.370 . S
C267 C103 1.337 . S
C281 C67 1.391 . S
C287 C5 1.315 . S
C301 C19 1.350 . S
C307 C81 1.367 . S
C321 C95 1.373 . S
C327 C33 1.333 . S
C341 C47 1.341 . S
C347 C109 1.368 . S
C361 C32 0.875 . S
C367 C4 0.871 . S
C381 C46 0.862 . S
C387 C18 0.861 . S
C401 C60 0.882 . S
C407 C88 0.881 . S
C421 C74 0.871 . S
C427 C102 0.868 . S
