# Generated by pormake.
# Topology acs-a, (4)-cn, num edge types: 1
# Building blocks:
#     Node 0, Type 0, BuildingBlock: GALJAG_clean_sbu_0, # of connection points: 4
#     Node 1, Type 0, BuildingBlock: GALJAG_clean_sbu_0, # of connection points: 4
#     Node 2, Type 0, BuildingBlock: GALJAG_clean_sbu_0, # of connection points: 4
#     Node 3, Type 0, BuildingBlock: GALJAG_clean_sbu_0, # of connection points: 4
#     Node 4, Type 0, BuildingBlock: GALJAG_clean_sbu_0, # of connection points: 4
#     Node 5, Type 0, BuildingBlock: GALJAG_clean_sbu_0, # of connection points: 4
#     Node 6, Type 0, BuildingBlock: GALJAG_clean_sbu_0, # of connection points: 4
#     Node 7, Type 0, BuildingBlock: GALJAG_clean_sbu_0, # of connection points: 4
#     Node 8, Type 0, BuildingBlock: GALJAG_clean_sbu_0, # of connection points: 4
#     Node 9, Type 0, BuildingBlock: GALJAG_clean_sbu_0, # of connection points: 4
#     Node 10, Type 0, BuildingBlock: GALJAG_clean_sbu_0, # of connection points: 4
#     Node 11, Type 0, BuildingBlock: GALJAG_clean_sbu_0, # of connection points: 4
#     Edge 12, Type (0, 0), BuildingBlock: CIFDUS_clean_linker_0, # of connection points: 2
#     Edge 13, Type (0, 0), BuildingBlock: CIFDUS_clean_linker_0, # of connection points: 2
#     Edge 14, Type (0, 0), BuildingBlock: CIFDUS_clean_linker_0, # of connection points: 2
#     Edge 15, Type (0, 0), BuildingBlock: CIFDUS_clean_linker_0, # of connection points: 2
#     Edge 16, Type (0, 0), BuildingBlock: CIFDUS_clean_linker_0, # of connection points: 2
#     Edge 17, Type (0, 0), BuildingBlock: CIFDUS_clean_linker_0, # of connection points: 2
#     Edge 18, Type (0, 0), BuildingBlock: CIFDUS_clean_linker_0, # of connection points: 2
#     Edge 19, Type (0, 0), BuildingBlock: CIFDUS_clean_linker_0, # of connection points: 2
#     Edge 20, Type (0, 0), BuildingBlock: CIFDUS_clean_linker_0, # of connection points: 2
#     Edge 21, Type (0, 0), BuildingBlock: CIFDUS_clean_linker_0, # of connection points: 2
#     Edge 22, Type (0, 0), BuildingBlock: CIFDUS_clean_linker_0, # of connection points: 2
#     Edge 23, Type (0, 0), BuildingBlock: CIFDUS_clean_linker_0, # of connection points: 2
#     Edge 24, Type (0, 0), BuildingBlock: CIFDUS_clean_linker_0, # of connection points: 2
#     Edge 25, Type (0, 0), BuildingBlock: CIFDUS_clean_linker_0, # of connection points: 2
#     Edge 26, Type (0, 0), BuildingBlock: CIFDUS_clean_linker_0, # of connection points: 2
#     Edge 27, Type (0, 0), BuildingBlock: CIFDUS_clean_linker_0, # of connection points: 2
#     Edge 28, Type (0, 0), BuildingBlock: CIFDUS_clean_linker_0, # of connection points: 2
#     Edge 29, Type (0, 0), BuildingBlock: CIFDUS_clean_linker_0, # of connection points: 2
#     Edge 30, Type (0, 0), BuildingBlock: CIFDUS_clean_linker_0, # of connection points: 2
#     Edge 31, Type (0, 0), BuildingBlock: CIFDUS_clean_linker_0, # of connection points: 2
#     Edge 32, Type (0, 0), BuildingBlock: CIFDUS_clean_linker_0, # of connection points: 2
#     Edge 33, Type (0, 0), BuildingBlock: CIFDUS_clean_linker_0, # of connection points: 2
#     Edge 34, Type (0, 0), BuildingBlock: CIFDUS_clean_linker_0, # of connection points: 2
#     Edge 35, Type (0, 0), BuildingBlock: CIFDUS_clean_linker_0, # of connection points: 2
# Relax obj value: 0.468
# Max RMSD: 0.202
# Mean RMSD: 0.201
data_MOF--net-acs-a--node1-GALJAG_clean_sbu_0--edge1-CIFDUS_clean_linker_0
_symmetry_space_group_name_H-M    P1
_symmetry_Int_Tables_number       1
_symmetry_cell_setting            triclinic
loop_
_symmetry_equiv_pos_as_xyz
'x, y, z'
_cell_length_a     46.130011
_cell_length_b     45.974663
_cell_length_c     25.977643
_cell_angle_alpha  90.142206
_cell_angle_beta   89.857186
_cell_angle_gamma 119.95423
loop_
_atom_site_label
_atom_site_type_symbol
_atom_site_fract_x
_atom_site_fract_y
_atom_site_fract_z
_atom_type_partial_charge
In0 In 0.55757 0.12427 0.07407 0.0
O1 O 0.58358 0.16707 0.13247 0.0
O2 O 0.55984 0.11687 0.15994 0.0
C3 C 0.61224 0.15069 0.0133 0.0
C4 C 0.52786 0.05674 0.07765 0.0
C5 C 0.52057 0.15095 0.03938 0.0
O6 O 0.61395 0.14871 0.06155 0.0
O7 O 0.583 0.13852 0.99582 0.0
O8 O 0.52518 0.14836 0.08654 0.0
O9 O 0.53247 0.13775 0.00982 0.0
C10 C 0.57594 0.14772 0.17076 0.0
O11 O 0.5117 0.07194 0.08422 0.0
O12 O 0.55832 0.07545 0.0669 0.0
In13 In 0.4273 0.62324 0.46331 0.0
O14 O 0.40935 0.61892 0.54641 0.0
O15 O 0.44749 0.60702 0.53024 0.0
C16 C 0.45362 0.69054 0.45563 0.0
C17 C 0.45768 0.5937 0.41531 0.0
C18 C 0.36256 0.59429 0.43539 0.0
O19 O 0.45494 0.67615 0.49593 0.0
O20 O 0.44046 0.67114 0.41777 0.0
O21 O 0.37205 0.5867 0.47613 0.0
O22 O 0.3859 0.61609 0.40794 0.0
C23 C 0.42892 0.60949 0.56361 0.0
O24 O 0.42636 0.5807 0.41743 0.0
O25 O 0.4738 0.62284 0.43416 0.0
In26 In 0.81643 0.3693 0.95029 0.0
O27 O 0.86619 0.38057 0.91171 0.0
O28 O 0.86766 0.4069 0.97942 0.0
C29 C 0.78061 0.30262 0.93442 0.0
C30 C 0.79755 0.36672 0.04958 0.0
C31 C 0.78995 0.39796 0.89026 0.0
O32 O 0.80936 0.3166 0.95458 0.0
O33 O 0.77087 0.32255 0.92016 0.0
O34 O 0.79881 0.40649 0.93622 0.0
O35 O 0.79647 0.37615 0.87294 0.0
C36 C 0.88393 0.40148 0.9458 0.0
O37 O 0.80215 0.39023 0.01974 0.0
O38 O 0.80189 0.34433 0.02919 0.0
In39 In 0.40182 0.86852 0.58686 0.0
O40 O 0.4462 0.92125 0.59251 0.0
O41 O 0.40207 0.91535 0.55749 0.0
C42 C 0.4401 0.84353 0.55111 0.0
C43 C 0.39254 0.85688 0.68854 0.0
C44 C 0.33915 0.833 0.54929 0.0
O45 O 0.42445 0.85256 0.52144 0.0
O46 O 0.43732 0.84825 0.59821 0.0
O47 O 0.34551 0.84613 0.59342 0.0
O48 O 0.36455 0.83856 0.52337 0.0
C49 C 0.43123 0.93522 0.57334 0.0
O50 O 0.40274 0.88547 0.66905 0.0
O51 O 0.38669 0.83384 0.65657 0.0
In52 In 0.56783 0.38465 0.92972 0.0
O53 O 0.58624 0.38812 0.01253 0.0
O54 O 0.5551 0.40874 0.99547 0.0
C55 C 0.5377 0.31688 0.93207 0.0
C56 C 0.53251 0.41057 0.88697 0.0
C57 C 0.631 0.41097 0.89316 0.0
O58 O 0.53898 0.33441 0.97024 0.0
O59 O 0.55089 0.33344 0.89156 0.0
O60 O 0.62366 0.42113 0.9335 0.0
O61 O 0.60621 0.38778 0.86991 0.0
C62 C 0.57155 0.40331 0.02892 0.0
O63 O 0.56389 0.42681 0.89136 0.0
O64 O 0.51929 0.37997 0.89879 0.0
In65 In 0.148 0.59467 0.50548 0.0
O66 O 0.10284 0.59705 0.47663 0.0
O67 O 0.10115 0.5501 0.47295 0.0
C68 C 0.18503 0.66057 0.48345 0.0
C69 C 0.14261 0.58905 0.60874 0.0
C70 C 0.1836 0.5656 0.47554 0.0
O71 O 0.16795 0.64973 0.52405 0.0
O72 O 0.18257 0.63806 0.453 0.0
O73 O 0.17069 0.56138 0.51967 0.0
O74 O 0.17722 0.58327 0.44567 0.0
C75 C 0.08603 0.56625 0.466 0.0
O76 O 0.11755 0.57628 0.57926 0.0
O77 O 0.17053 0.60465 0.58611 0.0
In78 In 0.82294 0.41761 0.44733 0.0
O79 O 0.8738 0.45973 0.47329 0.0
O80 O 0.87208 0.41862 0.43316 0.0
C81 C 0.78754 0.44707 0.47522 0.0
C82 C 0.80662 0.40867 0.34638 0.0
C83 C 0.8 0.3653 0.51211 0.0
O84 O 0.81702 0.4637 0.45809 0.0
O85 O 0.77624 0.41589 0.4787 0.0
O86 O 0.803 0.36266 0.46426 0.0
O87 O 0.80988 0.39483 0.52783 0.0
C88 C 0.88981 0.44675 0.45411 0.0
O89 O 0.79878 0.38444 0.37655 0.0
O90 O 0.82243 0.43715 0.36711 0.0
In91 In 0.39072 0.79853 0.08311 0.0
O92 O 0.39282 0.84222 0.12908 0.0
O93 O 0.43848 0.84614 0.10539 0.0
C94 C 0.32762 0.75843 0.11659 0.0
C95 C 0.38171 0.80356 0.98172 0.0
C96 C 0.42671 0.76697 0.08552 0.0
O97 O 0.33519 0.78018 0.08193 0.0
O98 O 0.35231 0.75799 0.13675 0.0
O99 O 0.42899 0.78666 0.05006 0.0
O100 O 0.40703 0.76406 0.1217 0.0
C101 C 0.42411 0.86045 0.12568 0.0
O102 O 0.37476 0.77611 0.00263 0.0
O103 O 0.39282 0.82827 0.01202 0.0
In104 In 0.56847 0.44118 0.43115 0.0
O105 O 0.52795 0.4554 0.42692 0.0
O106 O 0.57667 0.49344 0.44869 0.0
C107 C 0.52562 0.37943 0.468 0.0
C108 C 0.57921 0.43294 0.33152 0.0
C109 C 0.62701 0.4607 0.479 0.0
O110 O 0.54013 0.40487 0.49682 0.0
O111 O 0.531 0.38572 0.42063 0.0
O112 O 0.62535 0.47108 0.43477 0.0
O113 O 0.59909 0.442 0.50004 0.0
C114 C 0.54705 0.48582 0.43823 0.0
O115 O 0.58895 0.4218 0.36786 0.0
O116 O 0.56439 0.44843 0.34551 0.0
In117 In 0.14356 0.53206 0.00081 0.0
O118 O 0.09409 0.48434 0.98678 0.0
O119 O 0.09414 0.51952 0.03968 0.0
C120 C 0.17481 0.49576 0.99641 0.0
C121 C 0.15325 0.56215 0.90843 0.0
C122 C 0.17575 0.58285 0.06866 0.0
O123 O 0.16722 0.50392 0.03863 0.0
O124 O 0.16547 0.5048 0.95708 0.0
O125 O 0.16221 0.5856 0.02825 0.0
O126 O 0.17198 0.55404 0.07588 0.0
C127 C 0.0772 0.49241 0.01539 0.0
O128 O 0.17713 0.56424 0.93492 0.0
O129 O 0.12487 0.5459 0.92935 0.0
In130 In 0.56708 0.19128 0.57022 0.0
O131 O 0.58285 0.20598 0.4861 0.0
O132 O 0.56289 0.15493 0.50778 0.0
C133 C 0.53677 0.22846 0.57067 0.0
C134 C 0.52767 0.13155 0.61501 0.0
C135 C 0.63063 0.22802 0.60471 0.0
O136 O 0.53921 0.21398 0.53098 0.0
O137 O 0.54922 0.22379 0.61088 0.0
O138 O 0.6217 0.20524 0.57137 0.0
O139 O 0.60713 0.23164 0.62234 0.0
C140 C 0.5746 0.17645 0.47231 0.0
O141 O 0.55828 0.14928 0.6259 0.0
O142 O 0.51668 0.14548 0.5855 0.0
In143 In 0.41224 0.55071 0.96155 0.0
O144 O 0.46005 0.54837 0.97349 0.0
O145 O 0.41672 0.50413 0.94838 0.0
C146 C 0.43504 0.60611 0.02154 0.0
C147 C 0.41273 0.57153 0.86454 0.0
C148 C 0.34801 0.50984 0.98947 0.0
O149 O 0.4402 0.60739 0.97373 0.0
O150 O 0.41982 0.5768 0.03974 0.0
O151 O 0.35725 0.51664 0.94321 0.0
O152 O 0.37149 0.52246 0.02185 0.0
C153 C 0.4475 0.51838 0.95843 0.0
O154 O 0.39277 0.57104 0.89834 0.0
O155 O 0.43255 0.56202 0.88001 0.0
H156 H 0.59595 0.21701 0.38774 0.0
H157 H 0.55853 0.11469 0.4368 0.0
H158 H 0.55817 0.09742 0.34801 0.0
H159 H 0.56484 0.1104 0.25626 0.0
H160 H 0.60145 0.21217 0.20558 0.0
H161 H 0.60616 0.23073 0.29516 0.0
C162 C 0.58799 0.19102 0.37893 0.0
C163 C 0.57701 0.16712 0.41871 0.0
C164 C 0.58763 0.18114 0.32756 0.0
C165 C 0.5669 0.13355 0.40685 0.0
C166 C 0.56667 0.12361 0.35607 0.0
C167 C 0.57416 0.13671 0.2648 0.0
C168 C 0.58255 0.15984 0.22446 0.0
C169 C 0.57644 0.14706 0.31611 0.0
C170 C 0.5948 0.19388 0.23607 0.0
C171 C 0.59736 0.20446 0.28724 0.0
H172 H 0.39196 0.61326 0.64236 0.0
H173 H 0.46878 0.58864 0.6076 0.0
H174 H 0.47101 0.57556 0.69791 0.0
H175 H 0.45079 0.57039 0.78629 0.0
H176 H 0.37361 0.59426 0.82194 0.0
H177 H 0.37197 0.60854 0.73168 0.0
C178 C 0.40919 0.60506 0.65464 0.0
C179 C 0.43015 0.60189 0.61842 0.0
C180 C 0.41032 0.59751 0.70668 0.0
C181 C 0.45238 0.59127 0.63477 0.0
C182 C 0.45369 0.58379 0.68639 0.0
C183 C 0.43369 0.57885 0.77438 0.0
C184 C 0.41236 0.5813 0.81062 0.0
C185 C 0.43274 0.58675 0.7226 0.0
C186 C 0.39028 0.5922 0.79465 0.0
C187 C 0.38931 0.60031 0.74309 0.0
H188 H 0.80258 0.4187 0.10573 0.0
H189 H 0.77915 0.31563 0.11788 0.0
H190 H 0.77636 0.31849 0.21157 0.0
H191 H 0.78616 0.352 0.29009 0.0
H192 H 0.81308 0.45609 0.27772 0.0
H193 H 0.80867 0.45108 0.18409 0.0
C194 C 0.79632 0.39673 0.12888 0.0
C195 C 0.79127 0.36709 0.10513 0.0
C196 C 0.79569 0.39884 0.18269 0.0
C197 C 0.78332 0.33881 0.13546 0.0
C198 C 0.7818 0.34044 0.18898 0.0
C199 C 0.79059 0.37342 0.26688 0.0
C200 C 0.80017 0.4044 0.29059 0.0
C201 C 0.78881 0.37059 0.21305 0.0
C202 C 0.80592 0.43202 0.26019 0.0
C203 C 0.80342 0.4292 0.2067 0.0
H204 H 0.39421 0.8597 0.93045 0.0
H205 H 0.36277 0.75503 0.90802 0.0
H206 H 0.36181 0.76188 0.81482 0.0
H207 H 0.37271 0.79844 0.73967 0.0
H208 H 0.40474 0.90322 0.76295 0.0
H209 H 0.40253 0.89545 0.85598 0.0
C210 C 0.38694 0.83833 0.90518 0.0
C211 C 0.37876 0.80698 0.92592 0.0
C212 C 0.38667 0.84251 0.85184 0.0
C213 C 0.36924 0.77946 0.89283 0.0
C214 C 0.36875 0.78337 0.8396 0.0
C215 C 0.37899 0.81948 0.76517 0.0
C216 C 0.38906 0.85136 0.74457 0.0
C217 C 0.37785 0.81489 0.81866 0.0
C218 C 0.39703 0.87843 0.77793 0.0
C219 C 0.3958 0.87404 0.83111 0.0
H220 H 0.55763 0.4523 0.24895 0.0
H221 H 0.60951 0.39973 0.29188 0.0
H222 H 0.61302 0.38693 0.20137 0.0
H223 H 0.59918 0.38881 0.11028 0.0
H224 H 0.54614 0.44052 0.06872 0.0
H225 H 0.54535 0.45561 0.15849 0.0
C226 C 0.56989 0.43821 0.23849 0.0
C227 C 0.5832 0.42689 0.27691 0.0
C228 C 0.5715 0.43069 0.18666 0.0
C229 C 0.59903 0.40868 0.26287 0.0
C230 C 0.601 0.40131 0.21118 0.0
C231 C 0.58763 0.40353 0.12095 0.0
C232 C 0.57263 0.41341 0.08306 0.0
C233 C 0.58699 0.41189 0.17279 0.0
C234 C 0.55773 0.43247 0.09727 0.0
C235 C 0.55726 0.44113 0.14857 0.0
H236 H 0.19269 0.60901 0.67876 0.0
H237 H 0.08521 0.5599 0.66506 0.0
H238 H 0.07931 0.55002 0.75772 0.0
H239 H 0.10437 0.55209 0.84146 0.0
H240 H 0.21165 0.59906 0.85535 0.0
H241 H 0.218 0.61345 0.76383 0.0
C242 C 0.16801 0.59638 0.69617 0.0
C243 C 0.13943 0.58502 0.66514 0.0
C244 C 0.16477 0.59041 0.74942 0.0
C245 C 0.1076 0.56872 0.68813 0.0
C246 C 0.10419 0.56307 0.7411 0.0
C247 C 0.12917 0.56585 0.82462 0.0
C248 C 0.15749 0.57442 0.85499 0.0
C249 C 0.13256 0.57336 0.77195 0.0
C250 C 0.18946 0.59216 0.83266 0.0
C251 C 0.19309 0.60027 0.78034 0.0
H252 H 0.46765 0.01343 0.12073 0.0
H253 H 0.55614 0.0188 0.05467 0.0
H254 H 0.5336 0.95909 0.07083 0.0
H255 H 0.48777 0.905 0.09928 0.0
H256 H 0.39824 0.89848 0.16295 0.0
H257 H 0.42265 0.95925 0.15383 0.0
C258 C 0.48188 0.00144 0.10971 0.0
C259 C 0.5133 0.02035 0.08595 0.0
C260 C 0.46886 0.96708 0.11946 0.0
C261 C 0.53175 0.00469 0.0726 0.0
C262 C 0.51898 0.9706 0.08207 0.0
C263 C 0.47383 0.91692 0.1122 0.0
C264 C 0.44125 0.89728 0.13172 0.0
C265 C 0.4875 0.95154 0.10516 0.0
C266 C 0.42345 0.9131 0.148 0.0
C267 C 0.43725 0.94778 0.14226 0.0
H268 H 0.51948 0.60678 0.44328 0.0
H269 H 0.43004 0.53402 0.36456 0.0
H270 H 0.45034 0.49407 0.3642 0.0
H271 H 0.49086 0.47808 0.39356 0.0
H272 H 0.57975 0.55019 0.4741 0.0
H273 H 0.56204 0.59211 0.46722 0.0
C274 C 0.50485 0.5825 0.42487 0.0
C275 C 0.47334 0.57328 0.40397 0.0
C276 C 0.51614 0.5593 0.4264 0.0
C277 C 0.45443 0.54163 0.38079 0.0
C278 C 0.46585 0.51869 0.38102 0.0
C279 C 0.5063 0.50296 0.40973 0.0
C280 C 0.53625 0.51096 0.43502 0.0
C281 C 0.49614 0.52689 0.40519 0.0
C282 C 0.55638 0.54341 0.45494 0.0
C283 C 0.54636 0.5674 0.45078 0.0
H284 H 0.03745 0.44716 0.94409 0.0
H285 H 0.03487 0.49977 0.08032 0.0
H286 H 0.97466 0.47666 0.06953 0.0
H287 H 0.92363 0.44343 0.01986 0.0
H288 H 0.92587 0.39164 0.88242 0.0
H289 H -0.01413 0.41318 0.89463 0.0
C290 C 0.02359 0.45312 0.97188 0.0
C291 C 0.04042 0.4749 0.0132 0.0
C292 C -0.01075 0.44049 0.96462 0.0
C293 C 0.02234 0.48288 0.04844 0.0
C294 C -0.01197 0.46988 0.04207 0.0
C295 C 0.93723 0.43695 0.99234 0.0
C296 C 0.92046 0.41613 0.95011 0.0
C297 C 0.9714 0.4491 0.99991 0.0
C298 C 0.93836 0.40783 0.91499 0.0
C299 C 0.97255 0.41995 0.92218 0.0
H300 H 0.4693 0.08682 0.57083 0.0
H301 H 0.54564 0.09439 0.67478 0.0
H302 H 0.52241 0.03361 0.6702 0.0
H303 H 0.48356 0.97941 0.63066 0.0
H304 H 0.40821 0.97221 0.52495 0.0
H305 H 0.42859 0.03227 0.5351 0.0
C306 C 0.48042 0.07511 0.59345 0.0
C307 C 0.50916 0.095 0.62307 0.0
C308 C 0.46778 0.0405 0.58902 0.0
C309 C 0.52342 0.07953 0.65188 0.0
C310 C 0.5104 0.04488 0.64876 0.0
C311 C 0.47178 -0.00893 0.60953 0.0
C312 C 0.44483 0.97168 0.57643 0.0
C313 C 0.48328 0.02535 0.61616 0.0
C314 C 0.42929 0.98683 0.55012 0.0
C315 C 0.44075 0.02103 0.55623 0.0
H316 H 0.42634 0.45624 0.91887 0.0
H317 H 0.5148 0.54602 0.97008 0.0
H318 H 0.54949 0.52214 0.94437 0.0
H319 H 0.55445 0.47523 0.91071 0.0
H320 H 0.46606 0.38376 0.86489 0.0
H321 H 0.43155 0.40933 0.88335 0.0
C322 C 0.45319 0.47048 0.92468 0.0
C323 C 0.46797 0.50273 0.94677 0.0
C324 C 0.47299 0.4566 0.90975 0.0
C325 C 0.5028 0.52101 0.95366 0.0
C326 C 0.52267 0.5075 0.93857 0.0
C327 C 0.52774 0.46114 0.90347 0.0
C328 C 0.51281 0.42779 0.88586 0.0
C329 C 0.50803 0.47535 0.91664 0.0
C330 C 0.4781 0.40961 0.87783 0.0
C331 C 0.45837 0.42408 0.889 0.0
H332 H 0.93192 0.51337 0.46074 0.0
H333 H 0.92934 0.41881 0.44302 0.0
H334 H -0.00946 0.44799 0.44019 0.0
H335 H 0.0445 0.50019 0.44695 0.0
H336 H 0.04674 0.59481 0.46251 0.0
H337 H -0.01426 0.56581 0.46059 0.0
C338 C 0.94484 0.49922 0.45647 0.0
C339 C 0.92646 0.46411 0.45299 0.0
C340 C 0.97979 0.51614 0.45382 0.0
C341 C 0.94321 0.44593 0.44625 0.0
C342 C 0.97809 0.46257 0.44445 0.0
C343 C 0.03162 0.51448 0.44909 0.0
C344 C 0.04997 0.54949 0.45524 0.0
C345 C -0.00339 0.49765 0.44858 0.0
C346 C 0.03308 0.56778 0.45777 0.0
C347 C -0.00177 0.55123 0.4571 0.0
H348 H 0.52736 0.17618 0.94286 0.0
H349 H 0.49096 0.17939 0.09475 0.0
H350 H 0.48797 0.22918 0.07119 0.0
H351 H 0.50518 0.27692 0.01311 0.0
H352 H 0.54481 0.27585 0.86298 0.0
H353 H 0.53664 0.21991 0.87983 0.0
C354 C 0.5178 0.18718 0.97028 0.0
C355 C 0.50978 0.17439 0.02069 0.0
C356 C 0.51731 0.21655 0.95704 0.0
C357 C 0.49749 0.18892 0.05582 0.0
C358 C 0.496 0.21753 0.04248 0.0
C359 C 0.51138 0.26415 0.98364 0.0
C360 C 0.5261 0.28069 0.93723 0.0
C361 C 0.50737 0.23243 0.99409 0.0
C362 C 0.53364 0.26372 0.89916 0.0
C363 C 0.52913 0.2318 0.9089 0.0
H364 H 0.3093 0.54997 0.49157 0.0
H365 H 0.33612 0.6124 0.35618 0.0
H366 H 0.27917 0.60289 0.35059 0.0
H367 H 0.22561 0.58567 0.39362 0.0
H368 H 0.20044 0.52663 0.53256 0.0
H369 H 0.25256 0.52528 0.52665 0.0
C370 C 0.30247 0.56088 0.46017 0.0
C371 C 0.32697 0.58241 0.42499 0.0
C372 C 0.27004 0.55613 0.45812 0.0
C373 C 0.31774 0.59604 0.38411 0.0
C374 C 0.28523 0.59072 0.38101 0.0
C375 C 0.23109 0.57169 0.42176 0.0
C376 C 0.20958 0.55681 0.46398 0.0
C377 C 0.26167 0.57212 0.41922 0.0
C378 C 0.21685 0.53862 0.50002 0.0
C379 C 0.24673 0.53801 0.49684 0.0
H380 H 0.72253 0.26576 0.88303 0.0
H381 H 0.78494 0.25901 1.00025 0.0
H382 H 0.73786 0.20646 0.03101 0.0
H383 H 0.67673 0.16983 0.03593 0.0
H384 H 0.61438 0.17691 0.91887 0.0
H385 H 0.66366 0.22158 0.87625 0.0
C386 C 0.72605 0.25214 0.91414 0.0
C387 C 0.7568 0.26648 0.9401 0.0
C388 C 0.69871 0.22236 0.93233 0.0
C389 C 0.76136 0.24851 0.97986 0.0
C390 C 0.73434 0.21863 0.99788 0.0
C391 C 0.67409 0.18058 1.00035 0.0
C392 C 0.64206 0.17078 0.98122 0.0
C393 C 0.70252 0.20645 0.97626 0.0
C394 C 0.63884 0.18435 0.93461 0.0
C395 C 0.66699 0.21001 0.91033 0.0
H396 H 0.43528 0.81582 0.45657 0.0
H397 H 0.47905 0.82648 0.60697 0.0
H398 H 0.49326 0.78338 0.58593 0.0
H399 H 0.48399 0.73615 0.53132 0.0
H400 H 0.43725 0.7228 0.38289 0.0
H401 H 0.43423 0.77392 0.396 0.0
C402 C 0.44874 0.80933 0.48417 0.0
C403 C 0.45561 0.82386 0.53355 0.0
C404 C 0.45597 0.78377 0.47234 0.0
C405 C 0.47314 0.81533 0.56891 0.0
C406 C 0.48117 0.79061 0.55698 0.0
C407 C 0.47393 0.74491 0.50126 0.0
C408 C 0.46033 0.72547 0.45665 0.0
C409 C 0.4713 0.77361 0.50979 0.0
C410 C 0.44772 0.73726 0.41774 0.0
C411 C 0.44573 0.76634 0.42541 0.0
H412 H 0.6539 0.38128 0.8261 0.0
H413 H 0.68683 0.46433 0.93193 0.0
H414 H 0.74341 0.47302 0.92997 0.0
H415 H 0.77942 0.44908 0.91378 0.0
H416 H 0.74608 0.36393 0.81241 0.0
H417 H 0.69435 0.3647 0.79553 0.0
C418 C 0.67372 0.40191 0.84742 0.0
C419 C 0.66608 0.42161 0.8801 0.0
C420 C 0.70611 0.40615 0.84733 0.0
C421 C 0.69199 0.44844 0.90721 0.0
C422 C 0.72437 0.45339 0.90623 0.0
C423 C 0.76133 0.43143 0.88661 0.0
C424 C 0.76613 0.40605 0.86531 0.0
C425 C 0.73116 0.4312 0.87879 0.0
C426 C 0.74282 0.38361 0.82958 0.0
C427 C 0.71302 0.38378 0.82041 0.0
H428 H 0.19383 0.71248 0.54331 0.0
H429 H 0.23345 0.68834 0.40958 0.0
H430 H 0.28357 0.74379 0.41277 0.0
H431 H 0.32007 0.79422 0.46337 0.0
H432 H 0.2813 0.81661 0.59991 0.0
H433 H 0.2267 0.76708 0.58529 0.0
C434 C 0.21307 0.71968 0.51411 0.0
C435 C 0.21037 0.69622 0.47698 0.0
C436 C 0.24216 0.75114 0.5171 0.0
C437 C 0.23517 0.70593 0.4389 0.0
C438 C 0.26393 0.73755 0.44089 0.0
C439 C 0.29942 0.78871 0.48915 0.0
C440 C 0.30481 0.80855 0.53322 0.0
C441 C 0.26836 0.75966 0.48134 0.0
C442 C 0.27782 0.80139 0.56607 0.0
C443 C 0.24663 0.77301 0.55786 0.0
H444 H 0.73494 0.42466 0.53987 0.0
H445 H 0.79202 0.50215 0.42892 0.0
H446 H 0.74864 0.5179 0.42713 0.0
H447 H 0.69023 0.50227 0.44519 0.0
H448 H 0.63348 0.42479 0.55661 0.0
H449 H 0.68133 0.41703 0.57132 0.0
C450 C 0.73817 0.44552 0.51635 0.0
C451 C 0.76608 0.46182 0.48382 0.0
C452 C 0.71312 0.45427 0.51534 0.0
C453 C 0.77052 0.48917 0.45406 0.0
C454 C 0.74565 0.49804 0.45277 0.0
C455 C 0.68872 0.48442 0.47376 0.0
C456 C 0.65824 0.46362 0.49888 0.0
C457 C 0.71619 0.47971 0.48149 0.0
C458 C 0.65663 0.44091 0.53642 0.0
C459 C 0.68391 0.43623 0.54458 0.0
H460 H 0.30587 0.69844 0.16419 0.0
H461 H 0.27125 0.75704 0.08283 0.0
H462 H 0.217 0.70693 0.06901 0.0
H463 H 0.18454 0.64556 0.06393 0.0
H464 H 0.22002 0.58643 0.14138 0.0
H465 H 0.26839 0.63753 0.17366 0.0
C466 C 0.28606 0.7004 0.145 0.0
C467 C 0.29274 0.73119 0.12356 0.0
C468 C 0.25526 0.67124 0.1356 0.0
C469 C 0.26682 0.73347 0.09904 0.0
C470 C 0.23585 0.70478 0.09081 0.0
C471 C 0.20241 0.64386 0.08901 0.0
C472 C 0.19919 0.6124 0.09928 0.0
C473 C 0.23054 0.67332 0.10632 0.0
C474 C 0.22217 0.61044 0.13246 0.0
C475 C 0.24996 0.63967 0.1507 0.0
H476 H 0.50209 0.23583 0.4931 0.0
H477 H 0.54525 0.27597 0.64169 0.0
H478 H 0.5381 0.32453 0.6271 0.0
H479 H 0.53039 0.36032 0.56489 0.0
H480 H 0.49041 0.3212 0.41435 0.0
H481 H 0.48448 0.2671 0.43748 0.0
C482 C 0.50918 0.25483 0.52279 0.0
C483 C 0.52487 0.25281 0.56784 0.0
C484 C 0.50574 0.28297 0.5136 0.0
C485 C 0.53342 0.2772 0.60643 0.0
C486 C 0.52949 0.30505 0.59799 0.0
C487 C 0.51928 0.33959 0.53781 0.0
C488 C 0.51148 0.34489 0.48765 0.0
C489 C 0.51723 0.30897 0.55066 0.0
C490 C 0.49696 0.3178 0.45301 0.0
C491 C 0.49383 0.28694 0.46606 0.0
H492 H 0.21455 0.49381 0.07171 0.0
H493 H 0.18867 0.47026 0.91157 0.0
H494 H 0.23833 0.46532 0.89774 0.0
H495 H 0.29429 0.4796 0.92675 0.0
H496 H 0.32228 0.50702 0.08535 0.0
H497 H 0.26641 0.49775 0.10454 0.0
C498 C 0.21924 0.48652 0.03423 0.0
C499 C 0.19843 0.48307 0.99246 0.0
C500 C 0.24854 0.48495 0.02611 0.0
C501 C 0.20464 0.4735 0.94414 0.0
C502 C 0.23312 0.47083 0.93613 0.0
C503 C 0.28784 0.48262 0.96584 0.0
C504 C 0.3125 0.49469 0.0043 0.0
C505 C 0.25613 0.47836 0.97614 0.0
C506 C 0.30376 0.49803 0.05494 0.0
C507 C 0.27189 0.49299 0.06585 0.0
H508 H 0.68402 0.22559 0.56735 0.0
H509 H 0.657 0.28638 0.66014 0.0
H510 H 0.7133 0.33447 0.6499 0.0
H511 H 0.76421 0.36182 0.59683 0.0
H512 H 0.78799 0.30181 0.49636 0.0
H513 H 0.73951 0.25074 0.52823 0.0
C514 C 0.69076 0.24909 0.58663 0.0
C515 C 0.66623 0.25278 0.61319 0.0
C516 C 0.72257 0.27694 0.5785 0.0
C517 C 0.67538 0.28311 0.6388 0.0
C518 C 0.70751 0.31069 0.63263 0.0
C519 C 0.75949 0.33746 0.58348 0.0
C520 C 0.77913 0.33546 0.5437 0.0
C521 C 0.73053 0.30839 0.59988 0.0
C522 C 0.77286 0.30385 0.52657 0.0
C523 C 0.74502 0.27469 0.5445 0.0
H524 H 0.47196 0.67118 0.99312 0.0
H525 H 0.40922 0.6076 0.11559 0.0
H526 H 0.4058 0.65473 0.15265 0.0
H527 H 0.41215 0.71086 0.14056 0.0
H528 H 0.47337 0.77328 0.01579 0.0
H529 H 0.48639 0.73009 0.98999 0.0
C530 C 0.45826 0.66787 0.02866 0.0
C531 C 0.44039 0.63588 0.05106 0.0
C532 C 0.45579 0.69483 0.04902 0.0
C533 C 0.42305 0.63198 0.09743 0.0
C534 C 0.42088 0.65888 0.11844 0.0
C535 C 0.42912 0.71536 0.1087 0.0
C536 C 0.44127 0.74492 0.07954 0.0
C537 C 0.43586 0.68999 0.09318 0.0
C538 C 0.46333 0.75051 0.03845 0.0
C539 C 0.4707 0.72577 0.02349 0.0
loop_
_geom_bond_atom_site_label_1
_geom_bond_atom_site_label_2
_geom_bond_distance
_geom_bond_site_symmetry_2
_ccdc_geom_bond_type
In0 O1 2.296 . S
In0 O2 2.328 . S
In0 O6 2.266 1_554 S
In0 O7 2.324 1_554 S
In0 O8 2.265 1_554 S
In0 O9 2.326 . S
In0 O11 2.293 1_554 S
In0 O12 2.326 . S
O1 In0 2.296 . S
O1 C10 1.240 . S
O2 In0 2.328 . S
O2 C10 1.252 . S
C3 O6 1.252 . S
C3 O7 1.260 . S
C4 O11 1.240 . S
C4 O12 1.252 1_556 S
C5 O8 1.252 . S
C5 O9 1.260 1_556 S
O6 In0 2.266 1_556 S
O6 C3 1.252 . S
O7 In0 2.324 1_556 S
O7 C3 1.260 . S
O8 In0 2.265 1_556 S
O8 C5 1.252 . S
O9 In0 2.326 . S
O9 C5 1.260 1_554 S
C10 O1 1.240 . S
C10 O2 1.252 . S
O11 In0 2.293 1_556 S
O11 C4 1.240 . S
O12 In0 2.326 . S
O12 C4 1.252 1_554 S
In13 O14 2.294 . S
In13 O15 2.326 . S
In13 O19 2.266 . S
In13 O20 2.326 . S
In13 O21 2.266 . S
In13 O22 2.326 . S
In13 O24 2.294 . S
In13 O25 2.326 . S
O14 In13 2.294 . S
O14 C23 1.240 . S
O15 In13 2.326 . S
O15 C23 1.252 . S
C16 O19 1.252 . S
C16 O20 1.260 . S
C17 O24 1.240 . S
C17 O25 1.252 . S
C18 O21 1.252 . S
C18 O22 1.260 . S
O19 In13 2.266 . S
O19 C16 1.252 . S
O20 In13 2.326 . S
O20 C16 1.260 . S
O21 In13 2.266 . S
O21 C18 1.252 . S
O22 In13 2.326 . S
O22 C18 1.260 . S
C23 O14 1.240 . S
C23 O15 1.252 . S
O24 In13 2.294 . S
O24 C17 1.240 . S
O25 In13 2.326 . S
O25 C17 1.252 . S
In26 O27 2.293 1_554 S
In26 O28 2.326 . S
In26 O32 2.265 1_554 S
In26 O33 2.326 . S
In26 O34 2.266 1_554 S
In26 O35 2.324 1_554 S
In26 O37 2.296 . S
In26 O38 2.328 . S
O27 In26 2.293 1_556 S
O27 C36 1.240 . S
O28 In26 2.326 . S
O28 C36 1.252 1_554 S
C29 O32 1.252 . S
C29 O33 1.260 1_556 S
C30 O37 1.240 . S
C30 O38 1.252 . S
C31 O34 1.252 . S
C31 O35 1.260 . S
O32 In26 2.265 1_556 S
O32 C29 1.252 . S
O33 In26 2.326 . S
O33 C29 1.260 1_554 S
O34 In26 2.266 1_556 S
O34 C31 1.252 . S
O35 In26 2.324 1_556 S
O35 C31 1.260 . S
C36 O27 1.240 . S
C36 O28 1.252 1_556 S
O37 In26 2.296 . S
O37 C30 1.240 . S
O38 In26 2.328 . S
O38 C30 1.252 . S
In39 O40 2.294 . S
In39 O41 2.326 . S
In39 O45 2.266 . S
In39 O46 2.326 . S
In39 O47 2.266 . S
In39 O48 2.326 . S
In39 O50 2.294 . S
In39 O51 2.326 . S
O40 In39 2.294 . S
O40 C49 1.240 . S
O41 In39 2.326 . S
O41 C49 1.252 . S
C42 O45 1.252 . S
C42 O46 1.260 . S
C43 O50 1.240 . S
C43 O51 1.252 . S
C44 O47 1.252 . S
C44 O48 1.260 . S
O45 In39 2.266 . S
O45 C42 1.252 . S
O46 In39 2.326 . S
O46 C42 1.260 . S
O47 In39 2.266 . S
O47 C44 1.252 . S
O48 In39 2.326 . S
O48 C44 1.260 . S
C49 O40 1.240 . S
C49 O41 1.252 . S
O50 In39 2.294 . S
O50 C43 1.240 . S
O51 In39 2.326 . S
O51 C43 1.252 . S
In52 O53 2.296 . S
In52 O54 2.328 . S
In52 O58 2.266 1_554 S
In52 O59 2.324 1_554 S
In52 O60 2.265 1_554 S
In52 O61 2.326 . S
In52 O63 2.293 1_554 S
In52 O64 2.326 . S
O53 In52 2.296 . S
O53 C62 1.240 . S
O54 In52 2.328 . S
O54 C62 1.252 . S
C55 O58 1.252 . S
C55 O59 1.260 . S
C56 O63 1.240 . S
C56 O64 1.252 1_556 S
C57 O60 1.252 . S
C57 O61 1.260 1_556 S
O58 In52 2.266 1_556 S
O58 C55 1.252 . S
O59 In52 2.324 1_556 S
O59 C55 1.260 . S
O60 In52 2.265 1_556 S
O60 C57 1.252 . S
O61 In52 2.326 . S
O61 C57 1.260 1_554 S
C62 O53 1.240 . S
C62 O54 1.252 . S
O63 In52 2.293 1_556 S
O63 C56 1.240 . S
O64 In52 2.326 . S
O64 C56 1.252 1_554 S
In65 O66 2.294 . S
In65 O67 2.326 . S
In65 O71 2.266 . S
In65 O72 2.326 . S
In65 O73 2.266 . S
In65 O74 2.326 . S
In65 O76 2.294 . S
In65 O77 2.326 . S
O66 In65 2.294 . S
O66 C75 1.240 . S
O67 In65 2.326 . S
O67 C75 1.252 . S
C68 O71 1.252 . S
C68 O72 1.260 . S
C69 O76 1.240 . S
C69 O77 1.252 . S
C70 O73 1.252 . S
C70 O74 1.260 . S
O71 In65 2.266 . S
O71 C68 1.252 . S
O72 In65 2.326 . S
O72 C68 1.260 . S
O73 In65 2.266 . S
O73 C70 1.252 . S
O74 In65 2.326 . S
O74 C70 1.260 . S
C75 O66 1.240 . S
C75 O67 1.252 . S
O76 In65 2.294 . S
O76 C69 1.240 . S
O77 In65 2.326 . S
O77 C69 1.252 . S
In78 O79 2.294 . S
In78 O80 2.326 . S
In78 O84 2.266 . S
In78 O85 2.326 . S
In78 O86 2.266 . S
In78 O87 2.326 . S
In78 O89 2.294 . S
In78 O90 2.326 . S
O79 In78 2.294 . S
O79 C88 1.240 . S
O80 In78 2.326 . S
O80 C88 1.252 . S
C81 O84 1.252 . S
C81 O85 1.260 . S
C82 O89 1.240 . S
C82 O90 1.252 . S
C83 O86 1.252 . S
C83 O87 1.260 . S
O84 In78 2.266 . S
O84 C81 1.252 . S
O85 In78 2.326 . S
O85 C81 1.260 . S
O86 In78 2.266 . S
O86 C83 1.252 . S
O87 In78 2.326 . S
O87 C83 1.260 . S
C88 O79 1.240 . S
C88 O80 1.252 . S
O89 In78 2.294 . S
O89 C82 1.240 . S
O90 In78 2.326 . S
O90 C82 1.252 . S
In91 O92 2.293 1_556 S
In91 O93 2.326 . S
In91 O97 2.265 1_556 S
In91 O98 2.326 . S
In91 O99 2.266 1_556 S
In91 O100 2.324 1_556 S
In91 O102 2.296 . S
In91 O103 2.328 . S
O92 In91 2.293 1_554 S
O92 C101 1.240 . S
O93 In91 2.326 . S
O93 C101 1.252 1_556 S
C94 O97 1.252 . S
C94 O98 1.260 1_554 S
C95 O102 1.240 . S
C95 O103 1.252 . S
C96 O99 1.252 . S
C96 O100 1.260 . S
O97 In91 2.265 1_554 S
O97 C94 1.252 . S
O98 In91 2.326 . S
O98 C94 1.260 1_556 S
O99 In91 2.266 1_554 S
O99 C96 1.252 . S
O100 In91 2.324 1_554 S
O100 C96 1.260 . S
C101 O92 1.240 . S
C101 O93 1.252 1_554 S
O102 In91 2.296 . S
O102 C95 1.240 . S
O103 In91 2.328 . S
O103 C95 1.252 . S
In104 O105 2.294 . S
In104 O106 2.326 . S
In104 O110 2.266 . S
In104 O111 2.326 . S
In104 O112 2.266 . S
In104 O113 2.326 . S
In104 O115 2.294 . S
In104 O116 2.326 . S
O105 In104 2.294 . S
O105 C114 1.240 . S
O106 In104 2.326 . S
O106 C114 1.252 . S
C107 O110 1.252 . S
C107 O111 1.260 . S
C108 O115 1.240 . S
C108 O116 1.252 . S
C109 O112 1.252 . S
C109 O113 1.260 . S
O110 In104 2.266 . S
O110 C107 1.252 . S
O111 In104 2.326 . S
O111 C107 1.260 . S
O112 In104 2.266 . S
O112 C109 1.252 . S
O113 In104 2.326 . S
O113 C109 1.260 . S
C114 O105 1.240 . S
C114 O106 1.252 . S
O115 In104 2.294 . S
O115 C108 1.240 . S
O116 In104 2.326 . S
O116 C108 1.252 . S
In117 O118 2.293 1_556 S
In117 O119 2.326 . S
In117 O123 2.265 1_556 S
In117 O124 2.326 . S
In117 O125 2.266 1_556 S
In117 O126 2.324 1_556 S
In117 O128 2.296 . S
In117 O129 2.328 . S
O118 In117 2.293 1_554 S
O118 C127 1.240 . S
O119 In117 2.326 . S
O119 C127 1.252 1_556 S
C120 O123 1.252 . S
C120 O124 1.260 1_554 S
C121 O128 1.240 . S
C121 O129 1.252 . S
C122 O125 1.252 . S
C122 O126 1.260 . S
O123 In117 2.265 1_554 S
O123 C120 1.252 . S
O124 In117 2.326 . S
O124 C120 1.260 1_556 S
O125 In117 2.266 1_554 S
O125 C122 1.252 . S
O126 In117 2.324 1_554 S
O126 C122 1.260 . S
C127 O118 1.240 . S
C127 O119 1.252 1_554 S
O128 In117 2.296 . S
O128 C121 1.240 . S
O129 In117 2.328 . S
O129 C121 1.252 . S
In130 O131 2.294 . S
In130 O132 2.326 . S
In130 O136 2.266 . S
In130 O137 2.326 . S
In130 O138 2.266 . S
In130 O139 2.326 . S
In130 O141 2.294 . S
In130 O142 2.326 . S
O131 In130 2.294 . S
O131 C140 1.240 . S
O132 In130 2.326 . S
O132 C140 1.252 . S
C133 O136 1.252 . S
C133 O137 1.260 . S
C134 O141 1.240 . S
C134 O142 1.252 . S
C135 O138 1.252 . S
C135 O139 1.260 . S
O136 In130 2.266 . S
O136 C133 1.252 . S
O137 In130 2.326 . S
O137 C133 1.260 . S
O138 In130 2.266 . S
O138 C135 1.252 . S
O139 In130 2.326 . S
O139 C135 1.260 . S
C140 O131 1.240 . S
C140 O132 1.252 . S
O141 In130 2.294 . S
O141 C134 1.240 . S
O142 In130 2.326 . S
O142 C134 1.252 . S
In143 O144 2.293 1_556 S
In143 O145 2.326 . S
In143 O149 2.265 1_556 S
In143 O150 2.326 . S
In143 O151 2.266 1_556 S
In143 O152 2.324 1_556 S
In143 O154 2.296 . S
In143 O155 2.328 . S
O144 In143 2.293 1_554 S
O144 C153 1.240 . S
O145 In143 2.326 . S
O145 C153 1.252 1_556 S
C146 O149 1.252 . S
C146 O150 1.260 1_554 S
C147 O154 1.240 . S
C147 O155 1.252 . S
C148 O151 1.252 . S
C148 O152 1.260 . S
O149 In143 2.265 1_554 S
O149 C146 1.252 . S
O150 In143 2.326 . S
O150 C146 1.260 1_556 S
O151 In143 2.266 1_554 S
O151 C148 1.252 . S
O152 In143 2.324 1_554 S
O152 C148 1.260 . S
C153 O144 1.240 . S
C153 O145 1.252 1_554 S
O154 In143 2.296 . S
O154 C147 1.240 . S
O155 In143 2.328 . S
O155 C147 1.252 . S
H156 C162 0.930 . S
H157 C165 0.930 . S
H158 C166 0.930 . S
H159 C167 0.930 . S
H160 C170 0.930 . S
H161 C171 0.930 . S
C162 H156 0.930 . S
C162 C163 1.355 . S
C162 C164 1.415 . S
C163 C162 1.355 . S
C163 C165 1.419 . S
C164 C162 1.415 . S
C164 C169 1.425 . S
C164 C171 1.409 . S
C165 H157 0.930 . S
C165 C163 1.419 . S
C165 C166 1.362 . S
C166 H158 0.930 . S
C166 C165 1.362 . S
C166 C169 1.409 . S
C167 H159 0.930 . S
C167 C168 1.355 . S
C167 C169 1.415 . S
C168 C167 1.355 . S
C168 C170 1.419 . S
C169 C164 1.425 . S
C169 C166 1.409 . S
C169 C167 1.415 . S
C170 H160 0.930 . S
C170 C168 1.419 . S
C170 C171 1.362 . S
C171 H161 0.930 . S
C171 C164 1.409 . S
C171 C170 1.362 . S
H172 C178 0.930 . S
H173 C181 0.930 . S
H174 C182 0.930 . S
H175 C183 0.930 . S
H176 C186 0.930 . S
H177 C187 0.930 . S
C178 H172 0.930 . S
C178 C179 1.355 . S
C178 C180 1.415 . S
C179 C178 1.355 . S
C179 C181 1.419 . S
C180 C178 1.415 . S
C180 C185 1.425 . S
C180 C187 1.409 . S
C181 H173 0.930 . S
C181 C179 1.419 . S
C181 C182 1.362 . S
C182 H174 0.930 . S
C182 C181 1.362 . S
C182 C185 1.409 . S
C183 H175 0.930 . S
C183 C184 1.355 . S
C183 C185 1.415 . S
C184 C183 1.355 . S
C184 C186 1.419 . S
C185 C180 1.425 . S
C185 C182 1.409 . S
C185 C183 1.415 . S
C186 H176 0.930 . S
C186 C184 1.419 . S
C186 C187 1.362 . S
C187 H177 0.930 . S
C187 C180 1.409 . S
C187 C186 1.362 . S
H188 C194 0.930 . S
H189 C197 0.930 . S
H190 C198 0.930 . S
H191 C199 0.930 . S
H192 C202 0.930 . S
H193 C203 0.930 . S
C194 H188 0.930 . S
C194 C195 1.355 . S
C194 C196 1.415 . S
C195 C194 1.355 . S
C195 C197 1.419 . S
C196 C194 1.415 . S
C196 C201 1.425 . S
C196 C203 1.409 . S
C197 H189 0.930 . S
C197 C195 1.419 . S
C197 C198 1.362 . S
C198 H190 0.930 . S
C198 C197 1.362 . S
C198 C201 1.409 . S
C199 H191 0.930 . S
C199 C200 1.355 . S
C199 C201 1.415 . S
C200 C199 1.355 . S
C200 C202 1.419 . S
C201 C196 1.425 . S
C201 C198 1.409 . S
C201 C199 1.415 . S
C202 H192 0.930 . S
C202 C200 1.419 . S
C202 C203 1.362 . S
C203 H193 0.930 . S
C203 C196 1.409 . S
C203 C202 1.362 . S
H204 C210 0.930 . S
H205 C213 0.930 . S
H206 C214 0.930 . S
H207 C215 0.930 . S
H208 C218 0.930 . S
H209 C219 0.930 . S
C210 H204 0.930 . S
C210 C211 1.355 . S
C210 C212 1.415 . S
C211 C210 1.355 . S
C211 C213 1.419 . S
C212 C210 1.415 . S
C212 C217 1.425 . S
C212 C219 1.409 . S
C213 H205 0.930 . S
C213 C211 1.419 . S
C213 C214 1.362 . S
C214 H206 0.930 . S
C214 C213 1.362 . S
C214 C217 1.409 . S
C215 H207 0.930 . S
C215 C216 1.355 . S
C215 C217 1.415 . S
C216 C215 1.355 . S
C216 C218 1.419 . S
C217 C212 1.425 . S
C217 C214 1.409 . S
C217 C215 1.415 . S
C218 H208 0.930 . S
C218 C216 1.419 . S
C218 C219 1.362 . S
C219 H209 0.930 . S
C219 C212 1.409 . S
C219 C218 1.362 . S
H220 C226 0.930 . S
H221 C229 0.930 . S
H222 C230 0.930 . S
H223 C231 0.930 . S
H224 C234 0.930 . S
H225 C235 0.930 . S
C226 H220 0.930 . S
C226 C227 1.355 . S
C226 C228 1.415 . S
C227 C226 1.355 . S
C227 C229 1.419 . S
C228 C226 1.415 . S
C228 C233 1.425 . S
C228 C235 1.409 . S
C229 H221 0.930 . S
C229 C227 1.419 . S
C229 C230 1.362 . S
C230 H222 0.930 . S
C230 C229 1.362 . S
C230 C233 1.409 . S
C231 H223 0.930 . S
C231 C232 1.355 . S
C231 C233 1.415 . S
C232 C231 1.355 . S
C232 C234 1.419 . S
C233 C228 1.425 . S
C233 C230 1.409 . S
C233 C231 1.415 . S
C234 H224 0.930 . S
C234 C232 1.419 . S
C234 C235 1.362 . S
C235 H225 0.930 . S
C235 C228 1.409 . S
C235 C234 1.362 . S
H236 C242 0.930 . S
H237 C245 0.930 . S
H238 C246 0.930 . S
H239 C247 0.930 . S
H240 C250 0.930 . S
H241 C251 0.930 . S
C242 H236 0.930 . S
C242 C243 1.355 . S
C242 C244 1.415 . S
C243 C242 1.355 . S
C243 C245 1.419 . S
C244 C242 1.415 . S
C244 C249 1.425 . S
C244 C251 1.409 . S
C245 H237 0.930 . S
C245 C243 1.419 . S
C245 C246 1.362 . S
C246 H238 0.930 . S
C246 C245 1.362 . S
C246 C249 1.409 . S
C247 H239 0.930 . S
C247 C248 1.355 . S
C247 C249 1.415 . S
C248 C247 1.355 . S
C248 C250 1.419 . S
C249 C244 1.425 . S
C249 C246 1.409 . S
C249 C247 1.415 . S
C250 H240 0.930 . S
C250 C248 1.419 . S
C250 C251 1.362 . S
C251 H241 0.930 . S
C251 C244 1.409 . S
C251 C250 1.362 . S
H252 C258 0.930 . S
H253 C261 0.930 . S
H254 C262 0.930 . S
H255 C263 0.931 . S
H256 C266 0.930 . S
H257 C267 0.930 . S
C258 H252 0.930 . S
C258 C259 1.355 . S
C258 C260 1.415 1_556 S
C259 C258 1.355 . S
C259 C261 1.419 . S
C260 C258 1.415 1_554 S
C260 C265 1.425 1_544 S
C260 C267 1.409 1_545 S
C261 H253 0.930 . S
C261 C259 1.419 . S
C261 C262 1.362 . S
C262 H254 0.930 . S
C262 C261 1.362 . S
C262 C265 1.409 1_545 S
C263 H255 0.931 . S
C263 C264 1.355 . S
C263 C265 1.415 1_554 S
C264 C263 1.355 . S
C264 C266 1.419 . S
C265 C260 1.425 1_566 S
C265 C262 1.409 1_565 S
C265 C263 1.415 1_556 S
C266 H256 0.930 . S
C266 C264 1.419 . S
C266 C267 1.362 . S
C267 H257 0.930 . S
C267 C260 1.409 1_565 S
C267 C266 1.362 . S
H268 C274 0.930 . S
H269 C277 0.930 . S
H270 C278 0.930 . S
H271 C279 0.930 . S
H272 C282 0.930 . S
H273 C283 0.930 . S
C274 H268 0.930 . S
C274 C275 1.355 . S
C274 C276 1.415 . S
C275 C274 1.355 . S
C275 C277 1.419 . S
C276 C274 1.415 . S
C276 C281 1.425 . S
C276 C283 1.409 . S
C277 H269 0.930 . S
C277 C275 1.419 . S
C277 C278 1.362 . S
C278 H270 0.930 . S
C278 C277 1.362 . S
C278 C281 1.409 . S
C279 H271 0.930 . S
C279 C280 1.355 . S
C279 C281 1.415 . S
C280 C279 1.355 . S
C280 C282 1.419 . S
C281 C276 1.425 . S
C281 C278 1.409 . S
C281 C279 1.415 . S
C282 H272 0.930 . S
C282 C280 1.419 . S
C282 C283 1.362 . S
C283 H273 0.930 . S
C283 C276 1.409 . S
C283 C282 1.362 . S
H284 C290 0.930 . S
H285 C293 0.930 . S
H286 C294 0.930 1_655 S
H287 C295 0.930 . S
H288 C298 0.930 . S
H289 C299 0.930 1_455 S
C290 H284 0.930 . S
C290 C291 1.355 1_556 S
C290 C292 1.415 . S
C291 C290 1.355 1_554 S
C291 C293 1.419 . S
C292 C290 1.415 . S
C292 C297 1.425 1_456 S
C292 C299 1.409 1_455 S
C293 H285 0.930 . S
C293 C291 1.419 . S
C293 C294 1.362 . S
C294 H286 0.930 1_455 S
C294 C293 1.362 . S
C294 C297 1.409 1_455 S
C295 H287 0.930 . S
C295 C296 1.355 1_554 S
C295 C297 1.415 . S
C296 C295 1.355 1_556 S
C296 C298 1.419 . S
C297 C292 1.425 1_654 S
C297 C294 1.409 1_655 S
C297 C295 1.415 . S
C298 H288 0.930 . S
C298 C296 1.419 . S
C298 C299 1.362 . S
C299 H289 0.930 1_655 S
C299 C292 1.409 1_655 S
C299 C298 1.362 . S
H300 C306 0.930 . S
H301 C309 0.930 . S
H302 C310 0.930 . S
H303 C311 0.930 . S
H304 C314 0.930 . S
H305 C315 0.930 . S
C306 H300 0.930 . S
C306 C307 1.355 . S
C306 C308 1.443 . S
C307 C306 1.355 . S
C307 C309 1.419 . S
C308 C306 1.443 . S
C308 C313 1.401 1_545 S
C308 C315 1.394 1_545 S
C309 H301 0.930 . S
C309 C307 1.419 . S
C309 C310 1.362 . S
C310 H302 0.930 . S
C310 C309 1.362 . S
C310 C313 1.394 1_545 S
C311 H303 0.930 . S
C311 C312 1.355 . S
C311 C313 1.442 . S
C312 C311 1.355 . S
C312 C314 1.419 . S
C313 C308 1.401 1_565 S
C313 C310 1.394 1_565 S
C313 C311 1.442 . S
C314 H304 0.930 . S
C314 C312 1.419 . S
C314 C315 1.362 . S
C315 H305 0.930 . S
C315 C308 1.394 1_565 S
C315 C314 1.362 . S
H316 C322 0.930 . S
H317 C325 0.930 . S
H318 C326 0.930 . S
H319 C327 0.930 . S
H320 C330 0.930 . S
H321 C331 0.935 . S
C322 H316 0.930 . S
C322 C323 1.355 . S
C322 C324 1.415 . S
C323 C322 1.355 . S
C323 C325 1.419 . S
C324 C322 1.415 . S
C324 C329 1.425 1_554 S
C324 C331 1.411 . S
C325 H317 0.930 . S
C325 C323 1.419 . S
C325 C326 1.362 1_554 S
C326 H318 0.930 . S
C326 C325 1.362 1_556 S
C326 C329 1.409 . S
C327 H319 0.930 . S
C327 C328 1.355 . S
C327 C329 1.415 . S
C328 C327 1.355 . S
C328 C330 1.419 . S
C329 C324 1.425 1_556 S
C329 C326 1.409 . S
C329 C327 1.415 . S
C330 H320 0.930 . S
C330 C328 1.419 . S
C330 C331 1.356 1_556 S
C331 H321 0.935 . S
C331 C324 1.411 . S
C331 C330 1.356 1_554 S
H332 C338 0.930 . S
H333 C341 0.930 . S
H334 C342 0.930 . S
H335 C343 0.930 . S
H336 C346 0.930 . S
H337 C347 0.930 . S
C338 H332 0.930 . S
C338 C339 1.355 . S
C338 C340 1.415 1_655 S
C339 C338 1.355 . S
C339 C341 1.419 . S
C340 C338 1.415 1_455 S
C340 C345 1.426 1_455 S
C340 C347 1.409 . S
C341 H333 0.930 . S
C341 C339 1.419 . S
C341 C342 1.362 . S
C342 H334 0.930 . S
C342 C341 1.362 . S
C342 C345 1.440 . S
C343 H335 0.930 . S
C343 C344 1.355 . S
C343 C345 1.384 1_455 S
C344 C343 1.355 . S
C344 C346 1.419 . S
C345 C340 1.426 1_655 S
C345 C342 1.440 . S
C345 C343 1.384 1_655 S
C346 H336 0.930 . S
C346 C344 1.419 . S
C346 C347 1.362 . S
C347 H337 0.930 . S
C347 C340 1.409 . S
C347 C346 1.362 . S
H348 C354 0.930 . S
H349 C357 0.930 . S
H350 C358 0.930 . S
H351 C359 0.930 . S
H352 C362 0.930 . S
H353 C363 0.930 . S
C354 H348 0.930 . S
C354 C355 1.355 . S
C354 C356 1.415 . S
C355 C354 1.355 . S
C355 C357 1.419 . S
C356 C354 1.415 . S
C356 C361 1.425 . S
C356 C363 1.409 . S
C357 H349 0.930 . S
C357 C355 1.419 . S
C357 C358 1.362 . S
C358 H350 0.930 . S
C358 C357 1.362 . S
C358 C361 1.409 . S
C359 H351 0.930 . S
C359 C360 1.355 . S
C359 C361 1.415 . S
C360 C359 1.355 . S
C360 C362 1.419 . S
C361 C356 1.425 . S
C361 C358 1.409 . S
C361 C359 1.415 . S
C362 H352 0.930 . S
C362 C360 1.419 . S
C362 C363 1.362 . S
C363 H353 0.930 . S
C363 C356 1.409 . S
C363 C362 1.362 . S
H364 C370 0.930 . S
H365 C373 0.930 . S
H366 C374 0.930 . S
H367 C375 0.930 . S
H368 C378 0.930 . S
H369 C379 0.930 . S
C370 H364 0.930 . S
C370 C371 1.355 . S
C370 C372 1.415 . S
C371 C370 1.355 . S
C371 C373 1.419 . S
C372 C370 1.415 . S
C372 C377 1.425 . S
C372 C379 1.409 . S
C373 H365 0.930 . S
C373 C371 1.419 . S
C373 C374 1.362 . S
C374 H366 0.930 . S
C374 C373 1.362 . S
C374 C377 1.409 . S
C375 H367 0.930 . S
C375 C376 1.355 . S
C375 C377 1.415 . S
C376 C375 1.355 . S
C376 C378 1.419 . S
C377 C372 1.425 . S
C377 C374 1.409 . S
C377 C375 1.415 . S
C378 H368 0.930 . S
C378 C376 1.419 . S
C378 C379 1.362 . S
C379 H369 0.930 . S
C379 C372 1.409 . S
C379 C378 1.362 . S
H380 C386 0.930 . S
H381 C389 0.930 . S
H382 C390 0.930 . S
H383 C391 0.930 . S
H384 C394 0.930 . S
H385 C395 0.930 . S
C386 H380 0.930 . S
C386 C387 1.355 . S
C386 C388 1.415 . S
C387 C386 1.355 . S
C387 C389 1.419 1_556 S
C388 C386 1.415 . S
C388 C393 1.425 . S
C388 C395 1.409 . S
C389 H381 0.930 . S
C389 C387 1.419 1_554 S
C389 C390 1.362 . S
C390 H382 0.930 . S
C390 C389 1.362 . S
C390 C393 1.409 1_554 S
C391 H383 0.930 . S
C391 C392 1.355 . S
C391 C393 1.415 . S
C392 C391 1.355 . S
C392 C394 1.419 . S
C393 C388 1.425 . S
C393 C390 1.409 1_556 S
C393 C391 1.415 . S
C394 H384 0.930 . S
C394 C392 1.419 . S
C394 C395 1.362 . S
C395 H385 0.930 . S
C395 C388 1.409 . S
C395 C394 1.362 . S
H396 C402 0.930 . S
H397 C405 0.930 . S
H398 C406 0.930 . S
H399 C407 0.930 . S
H400 C410 0.930 . S
H401 C411 0.930 . S
C402 H396 0.930 . S
C402 C403 1.355 . S
C402 C404 1.415 . S
C403 C402 1.355 . S
C403 C405 1.419 . S
C404 C402 1.415 . S
C404 C409 1.425 . S
C404 C411 1.409 . S
C405 H397 0.930 . S
C405 C403 1.419 . S
C405 C406 1.362 . S
C406 H398 0.930 . S
C406 C405 1.362 . S
C406 C409 1.409 . S
C407 H399 0.930 . S
C407 C408 1.355 . S
C407 C409 1.415 . S
C408 C407 1.355 . S
C408 C410 1.419 . S
C409 C404 1.425 . S
C409 C406 1.409 . S
C409 C407 1.415 . S
C410 H400 0.930 . S
C410 C408 1.419 . S
C410 C411 1.362 . S
C411 H401 0.930 . S
C411 C404 1.409 . S
C411 C410 1.362 . S
H412 C418 0.930 . S
H413 C421 0.930 . S
H414 C422 0.930 . S
H415 C423 0.930 . S
H416 C426 0.930 . S
H417 C427 0.930 . S
C418 H412 0.930 . S
C418 C419 1.355 . S
C418 C420 1.415 . S
C419 C418 1.355 . S
C419 C421 1.419 . S
C420 C418 1.415 . S
C420 C425 1.425 . S
C420 C427 1.409 . S
C421 H413 0.930 . S
C421 C419 1.419 . S
C421 C422 1.362 . S
C422 H414 0.930 . S
C422 C421 1.362 . S
C422 C425 1.409 . S
C423 H415 0.930 . S
C423 C424 1.355 . S
C423 C425 1.415 . S
C424 C423 1.355 . S
C424 C426 1.419 . S
C425 C420 1.425 . S
C425 C422 1.409 . S
C425 C423 1.415 . S
C426 H416 0.930 . S
C426 C424 1.419 . S
C426 C427 1.362 . S
C427 H417 0.930 . S
C427 C420 1.409 . S
C427 C426 1.362 . S
H428 C434 0.930 . S
H429 C437 0.930 . S
H430 C438 0.930 . S
H431 C439 0.930 . S
H432 C442 0.930 . S
H433 C443 0.930 . S
C434 H428 0.930 . S
C434 C435 1.355 . S
C434 C436 1.415 . S
C435 C434 1.355 . S
C435 C437 1.419 . S
C436 C434 1.415 . S
C436 C441 1.425 . S
C436 C443 1.409 . S
C437 H429 0.930 . S
C437 C435 1.419 . S
C437 C438 1.362 . S
C438 H430 0.930 . S
C438 C437 1.362 . S
C438 C441 1.409 . S
C439 H431 0.930 . S
C439 C440 1.355 . S
C439 C441 1.415 . S
C440 C439 1.355 . S
C440 C442 1.419 . S
C441 C436 1.425 . S
C441 C438 1.409 . S
C441 C439 1.415 . S
C442 H432 0.930 . S
C442 C440 1.419 . S
C442 C443 1.362 . S
C443 H433 0.930 . S
C443 C436 1.409 . S
C443 C442 1.362 . S
H444 C450 0.930 . S
H445 C453 0.930 . S
H446 C454 0.930 . S
H447 C455 0.930 . S
H448 C458 0.930 . S
H449 C459 0.930 . S
C450 H444 0.930 . S
C450 C451 1.355 . S
C450 C452 1.415 . S
C451 C450 1.355 . S
C451 C453 1.419 . S
C452 C450 1.415 . S
C452 C457 1.425 . S
C452 C459 1.409 . S
C453 H445 0.930 . S
C453 C451 1.419 . S
C453 C454 1.362 . S
C454 H446 0.930 . S
C454 C453 1.362 . S
C454 C457 1.409 . S
C455 H447 0.930 . S
C455 C456 1.355 . S
C455 C457 1.415 . S
C456 C455 1.355 . S
C456 C458 1.419 . S
C457 C452 1.425 . S
C457 C454 1.409 . S
C457 C455 1.415 . S
C458 H448 0.930 . S
C458 C456 1.419 . S
C458 C459 1.362 . S
C459 H449 0.930 . S
C459 C452 1.409 . S
C459 C458 1.362 . S
H460 C466 0.930 . S
H461 C469 0.930 1_556 S
H462 C470 0.930 1_556 S
H463 C471 0.930 . S
H464 C474 0.930 . S
H465 C475 0.930 . S
C466 H460 0.930 . S
C466 C467 1.355 . S
C466 C468 1.415 . S
C467 C466 1.355 . S
C467 C469 1.419 . S
C468 C466 1.415 . S
C468 C473 1.425 . S
C468 C475 1.409 . S
C469 H461 0.930 1_554 S
C469 C467 1.419 . S
C469 C470 1.362 . S
C470 H462 0.930 1_554 S
C470 C469 1.362 . S
C470 C473 1.409 . S
C471 H463 0.930 . S
C471 C472 1.355 . S
C471 C473 1.415 . S
C472 C471 1.355 . S
C472 C474 1.419 . S
C473 C468 1.425 . S
C473 C470 1.409 . S
C473 C471 1.415 . S
C474 H464 0.930 . S
C474 C472 1.419 . S
C474 C475 1.362 . S
C475 H465 0.930 . S
C475 C468 1.409 . S
C475 C474 1.362 . S
H476 C482 0.930 . S
H477 C485 0.930 . S
H478 C486 0.930 . S
H479 C487 0.930 . S
H480 C490 0.930 . S
H481 C491 0.930 . S
C482 H476 0.930 . S
C482 C483 1.355 . S
C482 C484 1.415 . S
C483 C482 1.355 . S
C483 C485 1.419 . S
C484 C482 1.415 . S
C484 C489 1.425 . S
C484 C491 1.409 . S
C485 H477 0.930 . S
C485 C483 1.419 . S
C485 C486 1.362 . S
C486 H478 0.930 . S
C486 C485 1.362 . S
C486 C489 1.409 . S
C487 H479 0.930 . S
C487 C488 1.355 . S
C487 C489 1.415 . S
C488 C487 1.355 . S
C488 C490 1.419 . S
C489 C484 1.425 . S
C489 C486 1.409 . S
C489 C487 1.415 . S
C490 H480 0.930 . S
C490 C488 1.419 . S
C490 C491 1.362 . S
C491 H481 0.930 . S
C491 C484 1.409 . S
C491 C490 1.362 . S
H492 C498 0.930 . S
H493 C501 0.930 . S
H494 C502 0.930 . S
H495 C503 0.930 1_556 S
H496 C506 0.930 . S
H497 C507 0.930 . S
C498 H492 0.930 . S
C498 C499 1.355 . S
C498 C500 1.415 . S
C499 C498 1.355 . S
C499 C501 1.419 1_554 S
C500 C498 1.415 . S
C500 C505 1.425 . S
C500 C507 1.409 . S
C501 H493 0.930 . S
C501 C499 1.419 1_556 S
C501 C502 1.362 . S
C502 H494 0.930 . S
C502 C501 1.362 . S
C502 C505 1.409 1_556 S
C503 H495 0.930 1_554 S
C503 C504 1.355 . S
C503 C505 1.415 . S
C504 C503 1.355 . S
C504 C506 1.419 . S
C505 C500 1.425 . S
C505 C502 1.409 1_554 S
C505 C503 1.415 . S
C506 H496 0.930 . S
C506 C504 1.419 . S
C506 C507 1.362 . S
C507 H497 0.930 . S
C507 C500 1.409 . S
C507 C506 1.362 . S
H508 C514 0.930 . S
H509 C517 0.930 . S
H510 C518 0.930 . S
H511 C519 0.930 . S
H512 C522 0.930 . S
H513 C523 0.930 . S
C514 H508 0.930 . S
C514 C515 1.355 . S
C514 C516 1.415 . S
C515 C514 1.355 . S
C515 C517 1.419 . S
C516 C514 1.415 . S
C516 C521 1.425 . S
C516 C523 1.409 . S
C517 H509 0.930 . S
C517 C515 1.419 . S
C517 C518 1.362 . S
C518 H510 0.930 . S
C518 C517 1.362 . S
C518 C521 1.409 . S
C519 H511 0.930 . S
C519 C520 1.355 . S
C519 C521 1.415 . S
C520 C519 1.355 . S
C520 C522 1.419 . S
C521 C516 1.425 . S
C521 C518 1.409 . S
C521 C519 1.415 . S
C522 H512 0.930 . S
C522 C520 1.419 . S
C522 C523 1.362 . S
C523 H513 0.930 . S
C523 C516 1.409 . S
C523 C522 1.362 . S
H524 C530 0.930 . S
H525 C533 0.930 . S
H526 C534 0.930 . S
H527 C535 0.930 . S
H528 C538 0.930 . S
H529 C539 0.931 . S
C530 H524 0.930 . S
C530 C531 1.355 . S
C530 C532 1.415 . S
C531 C530 1.355 . S
C531 C533 1.419 . S
C532 C530 1.415 . S
C532 C537 1.425 . S
C532 C539 1.409 . S
C533 H525 0.930 . S
C533 C531 1.419 . S
C533 C534 1.362 . S
C534 H526 0.930 . S
C534 C533 1.362 . S
C534 C537 1.409 . S
C535 H527 0.930 . S
C535 C536 1.355 . S
C535 C537 1.415 . S
C536 C535 1.355 . S
C536 C538 1.419 . S
C537 C532 1.425 . S
C537 C534 1.409 . S
C537 C535 1.415 . S
C538 H528 0.930 . S
C538 C536 1.419 . S
C538 C539 1.362 . S
C539 H529 0.931 . S
C539 C532 1.409 . S
C539 C538 1.362 . S
C163 C140 1.691 . S
C168 C10 1.657 . S
C179 C23 1.690 . S
C184 C147 1.656 . S
C195 C30 1.696 . S
C200 C82 1.688 . S
C211 C95 1.657 . S
C216 C43 1.683 . S
C227 C108 1.668 . S
C232 C62 1.693 . S
C243 C69 1.658 . S
C248 C121 1.667 . S
C259 C4 1.154 . S
C264 C101 1.128 . S
C275 C17 1.232 . S
C280 C114 1.229 . S
C291 C127 1.172 . S
C296 C36 1.148 . S
C307 C134 1.142 . S
C312 C49 1.165 . S
C323 C153 1.138 . S
C328 C56 1.165 . S
C339 C88 1.119 . S
C344 C75 1.126 . S
C355 C5 1.303 . S
C360 C55 1.172 . S
C371 C18 1.311 . S
C376 C70 1.252 . S
C387 C29 1.271 . S
C392 C3 1.256 . S
C403 C42 1.316 . S
C408 C16 1.290 . S
C419 C57 1.302 . S
C424 C31 1.175 . S
C435 C68 1.308 . S
C440 C44 1.285 . S
C451 C81 1.336 . S
C456 C109 1.230 . S
C467 C94 1.295 . S
C472 C122 1.214 . S
C483 C133 1.264 . S
C488 C107 1.326 . S
C499 C120 1.274 . S
C504 C148 1.260 . S
C515 C135 1.311 . S
C520 C83 1.251 . S
C531 C146 1.279 . S
C536 C96 1.191 . S
