# Generated by pormake.
# Topology ure, (4)-cn, num edge types: 1
# Building blocks:
#     Node 0, Type 0, BuildingBlock: KUFVIS_clean_sbu_0, # of connection points: 4
#     Node 1, Type 0, BuildingBlock: KUFVIS_clean_sbu_0, # of connection points: 4
#     Node 2, Type 0, BuildingBlock: KUFVIS_clean_sbu_0, # of connection points: 4
#     Node 3, Type 0, BuildingBlock: KUFVIS_clean_sbu_0, # of connection points: 4
#     Node 4, Type 0, BuildingBlock: KUFVIS_clean_sbu_0, # of connection points: 4
#     Node 5, Type 0, BuildingBlock: KUFVIS_clean_sbu_0, # of connection points: 4
#     Node 6, Type 0, BuildingBlock: KUFVIS_clean_sbu_0, # of connection points: 4
#     Node 7, Type 0, BuildingBlock: KUFVIS_clean_sbu_0, # of connection points: 4
#     Node 8, Type 0, BuildingBlock: KUFVIS_clean_sbu_0, # of connection points: 4
#     Node 9, Type 0, BuildingBlock: KUFVIS_clean_sbu_0, # of connection points: 4
#     Node 10, Type 0, BuildingBlock: KUFVIS_clean_sbu_0, # of connection points: 4
#     Node 11, Type 0, BuildingBlock: KUFVIS_clean_sbu_0, # of connection points: 4
#     Node 12, Type 0, BuildingBlock: KUFVIS_clean_sbu_0, # of connection points: 4
#     Node 13, Type 0, BuildingBlock: KUFVIS_clean_sbu_0, # of connection points: 4
#     Node 14, Type 0, BuildingBlock: KUFVIS_clean_sbu_0, # of connection points: 4
#     Node 15, Type 0, BuildingBlock: KUFVIS_clean_sbu_0, # of connection points: 4
#     Edge 16, Type (0, 0), BuildingBlock: OJICUG_clean_linker_0, # of connection points: 2
#     Edge 17, Type (0, 0), BuildingBlock: OJICUG_clean_linker_0, # of connection points: 2
#     Edge 18, Type (0, 0), BuildingBlock: OJICUG_clean_linker_0, # of connection points: 2
#     Edge 19, Type (0, 0), BuildingBlock: OJICUG_clean_linker_0, # of connection points: 2
#     Edge 20, Type (0, 0), BuildingBlock: OJICUG_clean_linker_0, # of connection points: 2
#     Edge 21, Type (0, 0), BuildingBlock: OJICUG_clean_linker_0, # of connection points: 2
#     Edge 22, Type (0, 0), BuildingBlock: OJICUG_clean_linker_0, # of connection points: 2
#     Edge 23, Type (0, 0), BuildingBlock: OJICUG_clean_linker_0, # of connection points: 2
#     Edge 24, Type (0, 0), BuildingBlock: OJICUG_clean_linker_0, # of connection points: 2
#     Edge 25, Type (0, 0), BuildingBlock: OJICUG_clean_linker_0, # of connection points: 2
#     Edge 26, Type (0, 0), BuildingBlock: OJICUG_clean_linker_0, # of connection points: 2
#     Edge 27, Type (0, 0), BuildingBlock: OJICUG_clean_linker_0, # of connection points: 2
#     Edge 28, Type (0, 0), BuildingBlock: OJICUG_clean_linker_0, # of connection points: 2
#     Edge 29, Type (0, 0), BuildingBlock: OJICUG_clean_linker_0, # of connection points: 2
#     Edge 30, Type (0, 0), BuildingBlock: OJICUG_clean_linker_0, # of connection points: 2
#     Edge 31, Type (0, 0), BuildingBlock: OJICUG_clean_linker_0, # of connection points: 2
#     Edge 32, Type (0, 0), BuildingBlock: OJICUG_clean_linker_0, # of connection points: 2
#     Edge 33, Type (0, 0), BuildingBlock: OJICUG_clean_linker_0, # of connection points: 2
#     Edge 34, Type (0, 0), BuildingBlock: OJICUG_clean_linker_0, # of connection points: 2
#     Edge 35, Type (0, 0), BuildingBlock: OJICUG_clean_linker_0, # of connection points: 2
#     Edge 36, Type (0, 0), BuildingBlock: OJICUG_clean_linker_0, # of connection points: 2
#     Edge 37, Type (0, 0), BuildingBlock: OJICUG_clean_linker_0, # of connection points: 2
#     Edge 38, Type (0, 0), BuildingBlock: OJICUG_clean_linker_0, # of connection points: 2
#     Edge 39, Type (0, 0), BuildingBlock: OJICUG_clean_linker_0, # of connection points: 2
#     Edge 40, Type (0, 0), BuildingBlock: OJICUG_clean_linker_0, # of connection points: 2
#     Edge 41, Type (0, 0), BuildingBlock: OJICUG_clean_linker_0, # of connection points: 2
#     Edge 42, Type (0, 0), BuildingBlock: OJICUG_clean_linker_0, # of connection points: 2
#     Edge 43, Type (0, 0), BuildingBlock: OJICUG_clean_linker_0, # of connection points: 2
#     Edge 44, Type (0, 0), BuildingBlock: OJICUG_clean_linker_0, # of connection points: 2
#     Edge 45, Type (0, 0), BuildingBlock: OJICUG_clean_linker_0, # of connection points: 2
#     Edge 46, Type (0, 0), BuildingBlock: OJICUG_clean_linker_0, # of connection points: 2
#     Edge 47, Type (0, 0), BuildingBlock: OJICUG_clean_linker_0, # of connection points: 2
# Relax obj value: 0.163
# Max RMSD: 0.109
# Mean RMSD: 0.107
data_MOF--net-ure--node1-KUFVIS_clean_sbu_0--edge1-OJICUG_clean_linker_0
_symmetry_space_group_name_H-M    P1
_symmetry_Int_Tables_number       1
_symmetry_cell_setting            triclinic
loop_
_symmetry_equiv_pos_as_xyz
'x, y, z'
_cell_length_a     19.949565
_cell_length_b     24.392443
_cell_length_c     24.561436
_cell_angle_alpha  89.881019
_cell_angle_beta   90.156978
_cell_angle_gamma 89.908884
loop_
_atom_site_label
_atom_site_type_symbol
_atom_site_fract_x
_atom_site_fract_y
_atom_site_fract_z
_atom_type_partial_charge
Mn0 Mn 0.23155 0.2935 0.28649 0.0
Mn1 Mn 0.32256 0.32751 0.17213 0.0
C2 C 0.35553 0.26289 0.28223 0.0
C3 C 0.22885 0.31165 0.3852 0.0
C4 C 0.21543 0.21249 0.18288 0.0
O5 O 0.15625 0.3631 0.25933 0.0
O6 O 0.19426 0.406 0.17555 0.0
C7 C 0.4323 0.44345 0.16877 0.0
N8 N 0.41706 0.3852 0.17073 0.0
C9 C 0.51473 0.38193 0.07638 0.0
C10 C 0.50985 0.4433 0.07371 0.0
C11 C 0.46424 0.47442 0.12236 0.0
C12 C 0.45237 0.35557 0.13784 0.0
H13 H 0.42107 0.46865 0.20371 0.0
C14 C 0.14944 0.40055 0.2184 0.0
O15 O 0.18957 0.2769 0.36197 0.0
O16 O 0.26236 0.34037 0.35139 0.0
N17 N 0.38247 0.26939 0.17711 0.0
C18 C 0.38517 0.21435 0.16944 0.0
C19 C 0.44509 0.19335 0.12636 0.0
C20 C 0.52492 0.19881 0.07143 0.0
C21 C 0.47417 0.21019 0.10883 0.0
C22 C 0.43201 0.28253 0.15373 0.0
H23 H 0.35189 0.18897 0.19524 0.0
O24 O 0.31057 0.23814 0.30955 0.0
O25 O 0.32964 0.30139 0.25545 0.0
O26 O 0.19283 0.22984 0.22985 0.0
O27 O 0.26615 0.23966 0.16065 0.0
C28 C 0.55358 0.23767 0.03622 0.0
C29 C 0.56504 0.32485 0.02534 0.0
H30 H 0.54821 0.45893 0.0506 0.0
H31 H 0.46757 0.518 0.12895 0.0
H32 H 0.40835 0.15486 0.14305 0.0
H33 H 0.56388 0.15891 0.0603 0.0
H34 H 0.56936 0.27601 0.01958 0.0
H35 H 0.60283 0.34491 -0.00184 0.0
Mn36 Mn 0.01854 0.03592 0.53684 0.0
Mn37 Mn 0.92389 0.92195 0.56421 0.0
C38 C 0.89724 0.032 0.50021 0.0
C39 C 0.02294 0.13225 0.55952 0.0
C40 C 0.03745 0.93651 0.45409 0.0
O41 O 0.09186 0.00595 0.60534 0.0
O42 O 0.05055 0.92156 0.64478 0.0
C43 C 0.81275 0.92272 0.67742 0.0
N44 N 0.8302 0.91929 0.62019 0.0
C45 C 0.7351 0.82178 0.62191 0.0
C46 C 0.73425 0.82733 0.683 0.0
C47 C 0.77839 0.8788 0.71048 0.0
C48 C 0.80127 0.87955 0.59322 0.0
H49 H 0.82273 0.96026 0.69936 0.0
C50 C 0.09726 0.96337 0.64078 0.0
O51 O 0.06398 0.11039 0.52537 0.0
O52 O 0.98598 0.09826 0.58478 0.0
N53 N 0.86329 0.92451 0.50656 0.0
C54 C 0.86225 0.91165 0.45285 0.0
C55 C 0.80592 0.86404 0.43293 0.0
C56 C 0.72587 0.80874 0.43981 0.0
C57 C 0.77737 0.84656 0.45007 0.0
C58 C 0.82289 0.89147 0.5208 0.0
H59 H 0.89481 0.93641 0.42678 0.0
O60 O 0.94346 0.06124 0.4795 0.0
O61 O 0.91954 0.00544 0.54 0.0
O62 O 0.06006 0.98241 0.47386 0.0
O63 O 0.98434 0.91379 0.47792 0.0
C64 C 0.69492 0.77626 0.47984 0.0
C65 C 0.68281 0.76883 0.56713 0.0
H66 H 0.69196 0.80849 0.698 0.0
H67 H 0.77209 0.88974 0.75258 0.0
H68 H 0.84625 0.8767 0.39522 0.0
H69 H 0.68928 0.79344 0.39952 0.0
H70 H 0.67802 0.76118 0.51825 0.0
H71 H 0.64268 0.74465 0.58738 0.0
Mn72 Mn 0.26246 0.70776 0.78321 0.0
Mn73 Mn 0.17328 0.67408 0.66611 0.0
C74 C 0.14109 0.74068 0.77428 0.0
C75 C 0.27205 0.68823 0.87902 0.0
C76 C 0.28322 0.78967 0.68048 0.0
O77 O 0.33469 0.63326 0.75868 0.0
O78 O 0.29995 0.59226 0.67269 0.0
C79 C 0.0615 0.55944 0.66724 0.0
N80 N 0.07824 0.61717 0.66445 0.0
C81 C 0.98124 0.6137 0.56717 0.0
C82 C 0.98688 0.55056 0.56978 0.0
C83 C 0.03187 0.52507 0.62206 0.0
C84 C 0.0463 0.64384 0.62651 0.0
H85 H 0.0714 0.53712 0.70451 0.0
C86 C 0.34219 0.59584 0.71794 0.0
O87 O 0.31136 0.72243 0.85491 0.0
O88 O 0.23221 0.66192 0.84753 0.0
N89 N 0.113 0.73197 0.6657 0.0
C90 C 0.11268 0.78573 0.65163 0.0
C91 C 0.05456 0.80446 0.60521 0.0
C92 C 0.97363 0.7972 0.55107 0.0
C93 C 0.02492 0.78711 0.58913 0.0
C94 C 0.06789 0.71704 0.63714 0.0
H95 H 0.14545 0.81271 0.67569 0.0
O96 O 0.18471 0.76322 0.80514 0.0
O97 O 0.16693 0.70161 0.74813 0.0
O98 O 0.30071 0.77605 0.73013 0.0
O99 O 0.23545 0.76019 0.65579 0.0
C100 C 0.94267 0.75677 0.51957 0.0
C101 C 0.92966 0.66921 0.51354 0.0
H102 H 0.97886 0.59334 0.56428 0.0
H103 H 0.03027 0.48182 0.63105 0.0
H104 H 0.09696 0.84174 0.61512 0.0
H105 H 0.93765 0.83798 0.53479 0.0
H106 H 0.92542 0.71803 0.50525 0.0
H107 H 0.88824 0.64889 0.49084 0.0
Mn108 Mn 0.48757 0.96294 0.05526 0.0
Mn109 Mn 0.57979 0.07983 0.09 0.0
C110 C 0.60827 0.97341 0.02066 0.0
C111 C 0.47855 0.86589 0.07003 0.0
C112 C 0.46647 0.06376 0.97585 0.0
O113 O 0.41437 0.98851 0.12439 0.0
O114 O 0.45146 0.07224 0.16785 0.0
C115 C 0.68858 0.07902 0.20727 0.0
N116 N 0.67482 0.08018 0.1491 0.0
C117 C 0.77762 0.17502 0.15484 0.0
C118 C 0.76503 0.17509 0.21539 0.0
C119 C 0.71917 0.12424 0.24108 0.0
C120 C 0.71667 0.11171 0.12294 0.0
H121 H 0.67659 0.0427 0.23034 0.0
C122 C 0.40674 0.02923 0.16133 0.0
O123 O 0.43795 0.89201 0.03823 0.0
O124 O 0.5181 0.89639 0.09805 0.0
N125 N 0.64209 0.08652 0.03372 0.0
C126 C 0.63981 0.11221 0.9837 0.0
C127 C 0.71539 0.14056 0.96838 0.0
C128 C 0.77716 0.20876 0.9756 0.0
C129 C 0.73867 0.15893 0.98219 0.0
C130 C 0.69892 0.10143 0.04999 0.0
H131 H 0.59752 0.14108 0.97698 0.0
O132 O 0.56394 0.94296 -0.00158 0.0
O133 O 0.58537 0.99715 0.06145 0.0
O134 O 0.44393 0.01785 0.99485 0.0
O135 O 0.51923 0.0856 0.00156 0.0
C136 C 0.80765 0.23346 0.01678 0.0
C137 C 0.82415 0.23314 0.10247 0.0
H138 H 0.7769 0.17862 0.17367 0.0
H139 H 0.71865 0.11679 0.28431 0.0
H140 H 0.67498 0.10628 0.94422 0.0
H141 H 0.79585 0.23887 0.93487 0.0
H142 H 0.82661 0.24523 0.05578 0.0
H143 H 0.86905 0.25112 0.12345 0.0
Mn144 Mn 0.23228 0.70185 0.20882 0.0
Mn145 Mn 0.32768 0.67265 0.32277 0.0
C146 C 0.35429 0.73657 0.21281 0.0
C147 C 0.22229 0.68259 0.11271 0.0
C148 C 0.21532 0.78488 0.30824 0.0
O149 O 0.15975 0.63255 0.23872 0.0
O150 O 0.20055 0.59245 0.32283 0.0
C151 C 0.43832 0.55754 0.32264 0.0
N152 N 0.42186 0.6153 0.32464 0.0
C153 C 0.51984 0.6132 0.42134 0.0
C154 C 0.51438 0.54993 0.41958 0.0
C155 C 0.4688 0.52384 0.36804 0.0
C156 C 0.45422 0.64255 0.3619 0.0
H157 H 0.42764 0.53481 0.28589 0.0
C158 C 0.15451 0.59628 0.28055 0.0
O159 O 0.18267 0.71635 0.13711 0.0
O160 O 0.26088 0.65526 0.14452 0.0
N161 N 0.38867 0.73017 0.31981 0.0
C162 C 0.38963 0.78432 0.33249 0.0
C163 C 0.44666 0.80362 0.37943 0.0
C164 C 0.52724 0.79698 0.43407 0.0
C165 C 0.47593 0.78641 0.3962 0.0
C166 C 0.4325 0.71558 0.34996 0.0
H167 H 0.35813 0.81132 0.30691 0.0
O168 O 0.30828 0.75841 0.18381 0.0
O169 O 0.3312 0.69718 0.23958 0.0
O170 O 0.19239 0.7651 0.26275 0.0
O171 O 0.26803 0.76018 0.33107 0.0
C172 C 0.55832 0.75693 0.46626 0.0
C173 C 0.57157 0.66939 0.4738 0.0
H174 H 0.52234 0.59277 0.4245 0.0
H175 H 0.47033 0.48054 0.35966 0.0
H176 H 0.40467 0.84096 0.36814 0.0
H177 H 0.56365 0.83783 0.44916 0.0
H178 H 0.57575 0.7184 0.48125 0.0
H179 H 0.61282 0.64934 0.49718 0.0
Mn180 Mn 0.48401 0.0355 0.4485 0.0
Mn181 Mn 0.57765 0.92115 0.41662 0.0
C182 C 0.60713 0.03085 0.48014 0.0
C183 C 0.4745 0.13149 0.4296 0.0
C184 C 0.46712 0.93469 0.53009 0.0
O185 O 0.40868 0.00656 0.38153 0.0
O186 O 0.44724 0.92238 0.33969 0.0
C187 C 0.68455 0.92189 0.29969 0.0
N188 N 0.67016 0.91987 0.35748 0.0
C189 C 0.76926 0.82302 0.35391 0.0
C190 C 0.76217 0.82524 0.29125 0.0
C191 C 0.71539 0.87674 0.2659 0.0
C192 C 0.70417 0.88268 0.38399 0.0
H193 H 0.67213 0.95848 0.27703 0.0
C194 C 0.40118 0.96471 0.34571 0.0
O195 O 0.43523 0.10741 0.4637 0.0
O196 O 0.51252 0.09971 0.40211 0.0
N197 N 0.64047 0.924 0.47197 0.0
C198 C 0.64235 0.9107 0.52555 0.0
C199 C 0.69914 0.86269 0.54315 0.0
C200 C 0.77894 0.80697 0.53617 0.0
C201 C 0.72815 0.84626 0.52624 0.0
C202 C 0.68411 0.89405 0.45652 0.0
H203 H 0.61261 0.93674 0.55328 0.0
O204 O 0.56217 0.05968 0.50342 0.0
O205 O 0.58222 0.0044 0.44142 0.0
O206 O 0.44479 0.98102 0.51121 0.0
O207 O 0.51958 0.91192 0.50496 0.0
C208 C 0.80954 0.77578 0.49596 0.0
C209 C 0.82178 0.76954 0.40893 0.0
H210 H 0.77118 0.82 0.33365 0.0
H211 H 0.71575 0.88495 0.22267 0.0
H212 H 0.6536 0.87054 0.57865 0.0
H213 H 0.81352 0.78902 0.57706 0.0
H214 H 0.82671 0.76129 0.45749 0.0
H215 H 0.86377 0.74755 0.38868 0.0
Mn216 Mn 0.27663 0.2917 0.71569 0.0
Mn217 Mn 0.17136 0.32359 0.82482 0.0
C218 C 0.15478 0.25879 0.71266 0.0
C219 C 0.29347 0.31144 0.61904 0.0
C220 C 0.28556 0.20999 0.81857 0.0
O221 O 0.34614 0.3608 0.74906 0.0
O222 O 0.30009 0.40185 0.83065 0.0
C223 C 0.06336 0.44201 0.82273 0.0
N224 N 0.07775 0.38367 0.82174 0.0
C225 C 0.97741 0.38334 0.91603 0.0
C226 C 0.98301 0.44659 0.91744 0.0
C227 C 0.03104 0.47425 0.86815 0.0
C228 C 0.03544 0.35547 0.85042 0.0
H229 H 0.0774 0.46675 0.78804 0.0
C230 C 0.34837 0.39785 0.79018 0.0
O231 O 0.33038 0.27697 0.64544 0.0
O232 O 0.25296 0.33837 0.64922 0.0
N233 N 0.10769 0.26902 0.8156 0.0
C234 C 0.10576 0.21433 0.82297 0.0
C235 C 0.04313 0.19285 0.86255 0.0
C236 C 0.96942 0.19965 0.92175 0.0
C237 C 0.01524 0.2107 0.88193 0.0
C238 C 0.0534 0.28216 0.83379 0.0
H239 H 0.14099 0.18892 0.79944 0.0
O240 O 0.20238 0.23571 0.68678 0.0
O241 O 0.17626 0.2977 0.7411 0.0
O242 O 0.31146 0.2292 0.77372 0.0
O243 O 0.22979 0.23444 0.83758 0.0
C244 C 0.94239 0.23913 0.9591 0.0
C245 C 0.93199 0.3257 0.97021 0.0
H246 H 0.9756 0.40348 0.92024 0.0
H247 H 0.03043 0.51801 0.86144 0.0
H248 H 0.06867 0.15319 0.83747 0.0
H249 H 0.93464 0.16091 0.93527 0.0
H250 H 0.92796 0.27703 0.97621 0.0
H251 H 0.89443 0.34512 -0.00255 0.0
Mn252 Mn 0.00443 0.96371 0.949 0.0
Mn253 Mn 0.91882 0.08365 0.92776 0.0
C254 C 0.8942 0.97934 -0.00051 0.0
C255 C 0.00432 0.86678 0.93098 0.0
C256 C 0.04306 0.06754 0.02334 0.0
O257 O 0.06123 0.98293 0.86847 0.0
O258 O 0.01923 0.06588 0.82652 0.0
C259 C 0.77011 0.0718 0.87138 0.0
N260 N 0.82363 0.09861 0.89413 0.0
C261 C 0.72793 0.19075 0.89119 0.0
C262 C 0.69133 0.15524 0.8574 0.0
C263 C 0.70904 0.09855 0.85391 0.0
C264 C 0.81306 0.14891 0.91025 0.0
H265 H 0.77356 0.02831 0.86486 0.0
C266 C 0.06148 0.02093 0.82828 0.0
O267 O 0.05192 0.89014 0.95815 0.0
O268 O 0.96086 0.89964 0.9105 0.0
N269 N 0.87781 0.09506 0.9938 0.0
C270 C 0.87209 0.0936 0.04852 0.0
C271 C 0.81346 0.13642 0.07377 0.0
C272 C 0.72996 0.18927 0.0711 0.0
C273 C 0.78618 0.15769 0.05849 0.0
C274 C 0.84491 0.13521 0.98367 0.0
H275 H 0.90782 0.06741 0.07083 0.0
O276 O 0.93978 0.94617 0.01554 0.0
O277 O 0.91196 0.00286 0.9568 0.0
O278 O 0.06043 0.01987 0.00342 0.0
O279 O 0.99088 0.09258 0.00131 0.0
C280 C 0.69131 0.21852 0.03518 0.0
C281 C 0.67089 0.23035 0.95055 0.0
H282 H 0.64064 0.16684 0.84647 0.0
H283 H 0.66869 0.0722 0.84098 0.0
H284 H 0.84475 0.11177 0.11097 0.0
H285 H 0.69164 0.19828 0.11335 0.0
H286 H 0.66944 0.23339 -0.00175 0.0
H287 H 0.62471 0.25014 0.93297 0.0
Mn288 Mn 0.75216 0.23985 0.69161 0.0
Mn289 Mn 0.8121 0.17916 0.80151 0.0
C290 C 0.86625 0.25291 0.71495 0.0
C291 C 0.73721 0.23479 0.60169 0.0
C292 C 0.69692 0.28157 0.79471 0.0
O293 O 0.68887 0.1736 0.70409 0.0
O294 O 0.75955 0.12694 0.7594 0.0
C295 C 0.89831 0.05917 0.82476 0.0
N296 N 0.89505 0.11751 0.81747 0.0
C297 C 0.01236 0.11336 0.90666 0.0
C298 C 0.00092 0.05103 0.91174 0.0
C299 C 0.93746 0.02735 0.86973 0.0
C300 C 0.9397 0.14433 0.8493 0.0
H301 H 0.86446 0.03472 0.80038 0.0
C302 C 0.71015 0.12877 0.72585 0.0
O303 O 0.70026 0.26784 0.62959 0.0
O304 O 0.78094 0.20396 0.62579 0.0
N305 N 0.86054 0.23444 0.83049 0.0
C306 C 0.86405 0.28836 0.84104 0.0
C307 C 0.93446 0.3062 0.87506 0.0
C308 C 0.02208 0.29636 0.92187 0.0
C309 C 0.96602 0.28769 0.88787 0.0
C310 C 0.91706 0.21937 0.84186 0.0
H311 H 0.82279 0.31416 0.8253 0.0
O312 O 0.83232 0.2893 0.68758 0.0
O313 O 0.83272 0.21017 0.73053 0.0
O314 O 0.7025 0.29398 0.74542 0.0
O315 O 0.73551 0.24112 0.80836 0.0
C316 C 0.05591 0.25573 0.95009 0.0
C317 C 0.06913 0.16885 0.95526 0.0
H318 H 0.01391 0.0934 0.91218 0.0
H319 H 0.92986 0.98364 0.86669 0.0
H320 H 0.89789 0.34617 0.86185 0.0
H321 H 0.06179 0.33663 0.93526 0.0
H322 H 0.07421 0.21672 0.96279 0.0
H323 H 0.11005 0.14744 0.97841 0.0
Mn324 Mn 0.9774 0.53573 0.95032 0.0
Mn325 Mn 0.07213 0.42011 0.91953 0.0
C326 C 0.09815 0.52924 0.98732 0.0
C327 C 0.96224 0.63119 0.93136 0.0
C328 C 0.95698 0.43304 0.02979 0.0
O329 O 0.90716 0.50888 0.87905 0.0
O330 O 0.94835 0.42685 0.83587 0.0
C331 C 0.18902 0.42048 0.80982 0.0
N332 N 0.16856 0.41712 0.86638 0.0
C333 C 0.26453 0.31966 0.86736 0.0
C334 C 0.26328 0.32232 0.80439 0.0
C335 C 0.22051 0.37518 0.77662 0.0
C336 C 0.19784 0.37865 0.89449 0.0
H337 H 0.18095 0.45819 0.78755 0.0
C338 C 0.90291 0.46927 0.84069 0.0
O339 O 0.92283 0.60499 0.96385 0.0
O340 O 0.00603 0.60179 0.90674 0.0
N341 N 0.12946 0.42067 0.97957 0.0
C342 C 0.1297 0.40951 0.03387 0.0
C343 C 0.18847 0.36441 0.05526 0.0
C344 C 0.26973 0.30993 0.05028 0.0
C345 C 0.21779 0.34697 0.03852 0.0
C346 C 0.17433 0.3913 0.9666 0.0
H347 H 0.09564 0.43434 0.05934 0.0
O348 O 0.05248 0.55945 0.00812 0.0
O349 O 0.07528 0.50289 0.94772 0.0
O350 O 0.93552 0.47966 0.01079 0.0
O351 O 0.00885 0.40939 0.00439 0.0
C352 C 0.30158 0.27659 0.01155 0.0
C353 C 0.31608 0.26776 0.92482 0.0
H354 H 0.26837 0.31689 0.84716 0.0
H355 H 0.22525 0.38407 0.73364 0.0
H356 H 0.15028 0.37974 0.09317 0.0
H357 H 0.30743 0.29698 0.09104 0.0
H358 H 0.31991 0.26098 0.97394 0.0
H359 H 0.35949 0.24623 0.90622 0.0
Mn360 Mn 0.76667 0.79546 0.20321 0.0
Mn361 Mn 0.67276 0.82424 0.31859 0.0
C362 C 0.6448 0.75845 0.21068 0.0
C363 C 0.77814 0.81587 0.10621 0.0
C364 C 0.78656 0.71256 0.3042 0.0
O365 O 0.83838 0.86711 0.23229 0.0
O366 O 0.7973 0.90589 0.31659 0.0
C367 C 0.55956 0.938 0.31954 0.0
N368 N 0.57737 0.88052 0.32204 0.0
C369 C 0.48252 0.88329 0.42015 0.0
C370 C 0.48785 0.94654 0.41814 0.0
C371 C 0.53139 0.97237 0.36532 0.0
C372 C 0.54736 0.85369 0.36075 0.0
H373 H 0.56796 0.96018 0.2821 0.0
C374 C 0.84309 0.90297 0.27459 0.0
O375 O 0.81747 0.78219 0.13129 0.0
O376 O 0.73676 0.8408 0.13745 0.0
N377 N 0.61225 0.76594 0.31866 0.0
C378 C 0.61177 0.71188 0.3323 0.0
C379 C 0.55539 0.69265 0.37979 0.0
C380 C 0.47528 0.69959 0.43453 0.0
C381 C 0.52636 0.70994 0.39651 0.0
C382 C 0.56947 0.7806 0.34966 0.0
H383 H 0.6432 0.68463 0.30723 0.0
O384 O 0.69006 0.7377 0.18018 0.0
O385 O 0.6681 0.79848 0.23587 0.0
O386 O 0.80898 0.73263 0.25845 0.0
O387 O 0.73349 0.73704 0.32654 0.0
C388 C 0.44429 0.73979 0.46632 0.0
C389 C 0.43123 0.82735 0.47315 0.0
H390 H 0.48004 0.90369 0.42325 0.0
H391 H 0.52939 0.0157 0.35659 0.0
H392 H 0.59715 0.6551 0.36875 0.0
H393 H 0.43919 0.65877 0.45031 0.0
H394 H 0.42696 0.77837 0.48098 0.0
H395 H 0.39009 0.84751 0.49622 0.0
Mn396 Mn 0.98153 0.46196 0.54069 0.0
Mn397 Mn 0.07674 0.5763 0.56991 0.0
C398 C 0.10448 0.46535 0.50695 0.0
C399 C 0.96896 0.36617 0.56273 0.0
C400 C 0.96448 0.56253 0.45737 0.0
O401 O 0.90838 0.49213 0.60906 0.0
O402 O 0.94931 0.57634 0.64887 0.0
C403 C 0.18616 0.57728 0.68577 0.0
N404 N 0.17061 0.57796 0.62796 0.0
C405 C 0.26856 0.67331 0.62931 0.0
C406 C 0.26351 0.67341 0.69067 0.0
C407 C 0.21605 0.62353 0.71893 0.0
C408 C 0.20388 0.61442 0.60046 0.0
H409 H 0.17558 0.54064 0.70906 0.0
C410 C 0.90322 0.53408 0.64504 0.0
O411 O 0.9303 0.39037 0.528 0.0
O412 O 0.00962 0.39776 0.58791 0.0
N413 N 0.13788 0.57316 0.51282 0.0
C414 C 0.1393 0.58615 0.45901 0.0
C415 C 0.19683 0.63311 0.44003 0.0
C416 C 0.27699 0.68817 0.44699 0.0
C417 C 0.22585 0.6498 0.45712 0.0
C418 C 0.18228 0.60261 0.5274 0.0
H419 H 0.10779 0.56069 0.43207 0.0
O420 O 0.0585 0.4362 0.48526 0.0
O421 O 0.08083 0.49256 0.54568 0.0
O422 O 0.94163 0.51663 0.47709 0.0
O423 O 0.01728 0.58501 0.48231 0.0
C424 C 0.30819 0.71989 0.48735 0.0
C425 C 0.32064 0.72619 0.57461 0.0
H426 H 0.3025 0.69496 0.70757 0.0
H427 H 0.21801 0.61542 0.76218 0.0
H428 H 0.15521 0.62174 0.40261 0.0
H429 H 0.31268 0.70454 0.40657 0.0
H430 H 0.32546 0.73443 0.52586 0.0
H431 H 0.36061 0.7502 0.59529 0.0
Mn432 Mn 0.51102 0.5338 0.03627 0.0
Mn433 Mn 0.41905 0.41912 0.07578 0.0
C434 C 0.3884 0.52705 0.00569 0.0
C435 C 0.52381 0.63057 0.0543 0.0
C436 C 0.52486 0.42627 0.95771 0.0
O437 O 0.58466 0.50945 0.11094 0.0
O438 O 0.54581 0.42587 0.15539 0.0
C439 C 0.30766 0.42292 0.18992 0.0
N440 N 0.3235 0.42042 0.1323 0.0
C441 C 0.22484 0.32463 0.13546 0.0
C442 C 0.2329 0.32546 0.19835 0.0
C443 C 0.27801 0.37765 0.22431 0.0
C444 C 0.28847 0.38484 0.1053 0.0
H445 H 0.31843 0.45998 0.21228 0.0
C446 C 0.59056 0.46921 0.14947 0.0
O447 O 0.56143 0.60523 0.01983 0.0
O448 O 0.48361 0.5999 0.08094 0.0
N449 N 0.35856 0.42031 0.01825 0.0
C450 C 0.35739 0.40773 0.96453 0.0
C451 C 0.29875 0.36179 0.94628 0.0
C452 C 0.21886 0.30659 0.95296 0.0
C453 C 0.26904 0.34577 0.96315 0.0
C454 C 0.31005 0.39548 0.03257 0.0
H455 H 0.38981 0.43279 0.93777 0.0
O456 O 0.43213 0.55677 0.98182 0.0
O457 O 0.41477 0.50079 0.04422 0.0
O458 O 0.54448 0.47649 0.96878 0.0
O459 O 0.47831 0.40355 0.9898 0.0
C460 C 0.18752 0.27533 0.99352 0.0
C461 C 0.17392 0.27019 0.0806 0.0
H462 H 0.22352 0.3212 0.15593 0.0
H463 H 0.27708 0.3861 0.26741 0.0
H464 H 0.34267 0.37116 0.91023 0.0
H465 H 0.18418 0.28927 0.91224 0.0
H466 H 0.1696 0.26126 0.03196 0.0
H467 H 0.13199 0.24806 0.10094 0.0
Mn468 Mn 0.72746 0.8019 0.77486 0.0
Mn469 Mn 0.82676 0.82523 0.66231 0.0
C470 C 0.85016 0.76511 0.77371 0.0
C471 C 0.71984 0.82442 0.87182 0.0
C472 C 0.71456 0.71142 0.68027 0.0
O473 O 0.65564 0.87599 0.7384 0.0
O474 O 0.70311 0.90695 0.65245 0.0
C475 C 0.93817 0.93967 0.66244 0.0
N476 N 0.92152 0.8821 0.66062 0.0
C477 C 0.01833 0.88364 0.56339 0.0
C478 C 0.01376 0.94708 0.56539 0.0
C479 C 0.9684 0.97305 0.61695 0.0
C480 C 0.95324 0.85485 0.62323 0.0
H481 H 0.92751 0.96256 0.69912 0.0
C482 C 0.6558 0.90998 0.69328 0.0
O483 O 0.6801 0.79025 0.84844 0.0
O484 O 0.75632 0.8514 0.83844 0.0
N485 N 0.88799 0.7677 0.66683 0.0
C486 C 0.88833 0.71362 0.65379 0.0
C487 C 0.94519 0.69372 0.60706 0.0
C488 C 0.02575 0.69974 0.55262 0.0
C489 C 0.97447 0.71075 0.59023 0.0
C490 C 0.93152 0.782 0.63595 0.0
H491 H 0.85678 0.68678 0.67928 0.0
O492 O 0.80377 0.74589 0.80371 0.0
O493 O 0.82739 0.80366 0.74583 0.0
O494 O 0.69221 0.72953 0.72684 0.0
O495 O 0.76546 0.73799 0.65669 0.0
C496 C 0.05655 0.73936 0.51985 0.0
C497 C 0.06944 0.82681 0.51123 0.0
H498 H 0.02116 0.90412 0.56026 0.0
H499 H 0.97037 0.01598 0.62599 0.0
H500 H 0.90335 0.65647 0.61848 0.0
H501 H 0.06234 0.65874 0.53813 0.0
H502 H 0.07371 0.77766 0.50436 0.0
H503 H 0.11039 0.84644 0.48752 0.0
Mn504 Mn 0.77293 0.21208 0.29441 0.0
Mn505 Mn 0.6764 0.17369 0.18533 0.0
C506 C 0.64776 0.24519 0.28997 0.0
C507 C 0.79247 0.19966 0.38454 0.0
C508 C 0.78336 0.29083 0.19291 0.0
O509 O 0.84828 0.14026 0.27074 0.0
O510 O 0.80224 0.09318 0.19327 0.0
C511 C 0.56482 0.05972 0.18551 0.0
N512 N 0.58049 0.11767 0.18344 0.0
C513 C 0.48186 0.11287 0.08723 0.0
C514 C 0.49129 0.05038 0.08841 0.0
C515 C 0.53712 0.02509 0.13989 0.0
C516 C 0.54629 0.14444 0.14671 0.0
H517 H 0.57384 0.0374 0.22281 0.0
C518 C 0.85063 0.10052 0.23226 0.0
O519 O 0.82958 0.23279 0.35684 0.0
O520 O 0.75093 0.16908 0.35861 0.0
N521 N 0.61486 0.23302 0.18199 0.0
C522 C 0.61247 0.28684 0.16676 0.0
C523 C 0.5532 0.30453 0.12047 0.0
C524 C 0.47073 0.29527 0.06762 0.0
C525 C 0.52381 0.28679 0.10519 0.0
C526 C 0.56781 0.21809 0.15525 0.0
H527 H 0.64432 0.31528 0.1902 0.0
O528 O 0.69419 0.2689 0.3171 0.0
O529 O 0.67117 0.20416 0.2665 0.0
O530 O 0.80952 0.27351 0.23786 0.0
O531 O 0.73287 0.26132 0.17267 0.0
C532 C 0.43991 0.25414 0.03764 0.0
C533 C 0.42858 0.16669 0.03351 0.0
H534 H 0.48093 0.0929 0.08401 0.0
H535 H 0.53733 0.9814 0.14754 0.0
H536 H 0.59338 0.34363 0.13055 0.0
H537 H 0.4327 0.33536 0.05149 0.0
H538 H 0.42299 0.21496 0.02439 0.0
H539 H 0.387 0.14512 0.012 0.0
Mn540 Mn 0.51915 0.46138 0.44952 0.0
Mn541 Mn 0.42445 0.5758 0.41978 0.0
C542 C 0.39631 0.46654 0.48431 0.0
C543 C 0.52977 0.36501 0.42913 0.0
C544 C 0.53684 0.56203 0.5313 0.0
O545 O 0.59206 0.49074 0.38014 0.0
O546 O 0.55069 0.57495 0.33982 0.0
C547 C 0.31296 0.57478 0.30605 0.0
N548 N 0.32999 0.57743 0.36328 0.0
C549 C 0.23264 0.67463 0.36095 0.0
C550 C 0.23745 0.6724 0.29792 0.0
C551 C 0.28267 0.62023 0.27214 0.0
C552 C 0.29811 0.61515 0.39026 0.0
H553 H 0.32318 0.53747 0.28385 0.0
C554 C 0.5969 0.53266 0.34378 0.0
O555 O 0.56927 0.38904 0.46318 0.0
O556 O 0.49018 0.39716 0.40326 0.0
N557 N 0.36423 0.57366 0.47742 0.0
C558 C 0.36257 0.58535 0.53147 0.0
C559 C 0.3045 0.6318 0.55055 0.0
C560 C 0.22459 0.68756 0.54346 0.0
C561 C 0.27596 0.64927 0.53319 0.0
C562 C 0.3198 0.60316 0.46289 0.0
H563 H 0.39464 0.55954 0.5581 0.0
O564 O 0.44214 0.43704 0.506 0.0
O565 O 0.42011 0.49266 0.44503 0.0
O566 O 0.55962 0.51599 0.51208 0.0
O567 O 0.4841 0.58477 0.50658 0.0
C568 C 0.19383 0.7201 0.50355 0.0
C569 C 0.18096 0.72763 0.4165 0.0
H570 H 0.22993 0.67764 0.3405 0.0
H571 H 0.28075 0.61151 0.22911 0.0
H572 H 0.34236 0.6167 0.58914 0.0
H573 H 0.18801 0.703 0.58383 0.0
H574 H 0.17663 0.73523 0.46521 0.0
H575 H 0.14035 0.75172 0.39641 0.0
C576 C 0.10261 0.15964 0.15257 0.0
C577 C 0.17398 0.16686 0.14812 0.0
H578 H 0.00807 0.12878 0.11946 0.0
C579 C 0.20087 0.13632 0.10332 0.0
H580 H 0.07661 0.18175 0.18432 0.0
C581 C 0.16057 0.10236 0.06682 0.0
C582 C 0.08868 0.09843 0.06897 0.0
H583 H 0.25412 0.13934 0.09544 0.0
H584 H 0.18624 0.08141 0.03411 0.0
C585 C 0.06189 0.12867 0.1139 0.0
C586 C 0.05659 0.86528 0.37142 0.0
C587 C 0.08209 0.90418 0.40956 0.0
H588 H 0.07445 0.80311 0.30961 0.0
C589 C 0.15424 0.90626 0.40929 0.0
H590 H 0.00281 0.86 0.3686 0.0
C591 C 0.1967 0.8698 0.37745 0.0
C592 C 0.17113 0.83062 0.33958 0.0
H593 H 0.1788 0.93389 0.43739 0.0
H594 H 0.25045 0.87222 0.38314 0.0
C595 C 0.09906 0.83176 0.33664 0.0
C596 C 0.44567 0.8641 0.61438 0.0
C597 C 0.42172 0.9028 0.57504 0.0
H598 H 0.42536 0.80417 0.67834 0.0
C599 C 0.34955 0.90651 0.57537 0.0
H600 H 0.49923 0.85763 0.61761 0.0
C601 C 0.30571 0.87183 0.60811 0.0
C602 C 0.32959 0.83311 0.6474 0.0
H603 H 0.32586 0.9342 0.54667 0.0
H604 H 0.25209 0.87557 0.60222 0.0
C605 C 0.40181 0.8326 0.65028 0.0
C606 C 0.44606 0.13415 0.88995 0.0
C607 C 0.42148 0.09613 0.92967 0.0
H608 H 0.42765 0.193 0.8245 0.0
C609 C 0.34906 0.09313 0.92767 0.0
H610 H 0.4997 0.14032 0.8875 0.0
C611 C 0.30589 0.12764 0.89333 0.0
C612 C 0.33048 0.16567 0.85359 0.0
H613 H 0.32448 0.06603 0.95625 0.0
H614 H 0.25217 0.12436 0.89847 0.0
C615 C 0.40303 0.16528 0.85247 0.0
C616 C 0.67402 0.36856 0.86021 0.0
C617 C 0.65173 0.31817 0.83631 0.0
H618 H 0.65623 0.43947 0.91232 0.0
C619 C 0.58323 0.30671 0.85061 0.0
H620 H 0.72449 0.38209 0.85136 0.0
C621 C 0.54282 0.34039 0.88763 0.0
C622 C 0.56562 0.39055 0.91214 0.0
H623 H 0.56052 0.27003 0.83412 0.0
H624 H 0.49275 0.32642 0.89728 0.0
C625 C 0.63318 0.4029 0.89592 0.0
C626 C 0.84011 0.39938 0.07461 0.0
C627 C 0.91237 0.40257 0.07684 0.0
H628 H 0.74564 0.36349 0.10274 0.0
C629 C 0.93823 0.37339 0.12296 0.0
H630 H 0.81491 0.4199 0.04121 0.0
C631 C 0.89633 0.34403 0.16222 0.0
C632 C 0.82465 0.33665 0.15718 0.0
H633 H 0.99198 0.37301 0.12918 0.0
H634 H 0.92183 0.32273 0.19498 0.0
C635 C 0.79878 0.36637 0.11131 0.0
C636 C 0.94581 0.6326 0.37172 0.0
C637 C 0.92022 0.59479 0.4112 0.0
H638 H 0.92856 0.69278 0.30721 0.0
C639 C 0.84792 0.59297 0.40971 0.0
H640 H -0.0004 0.63774 0.36915 0.0
C641 C 0.8057 0.62867 0.3761 0.0
C642 C 0.83121 0.66677 0.33688 0.0
H643 H 0.82286 0.56617 0.4383 0.0
H644 H 0.75192 0.6265 0.38154 0.0
C645 C 0.90353 0.66507 0.33496 0.0
C646 C 0.65319 0.59095 0.57818 0.0
C647 C 0.58111 0.59429 0.57635 0.0
H648 H 0.74953 0.62329 0.60626 0.0
C649 C 0.55561 0.63395 0.6137 0.0
H650 H 0.67781 0.5627 0.55079 0.0
C651 C 0.59801 0.66687 0.64924 0.0
C652 C 0.67016 0.66649 0.64801 0.0
H653 H 0.50192 0.64027 0.61535 0.0
H654 H 0.57344 0.69616 0.67558 0.0
C655 C 0.69571 0.62675 0.61078 0.0
C656 C 0.30452 0.33605 0.46506 0.0
C657 C 0.24509 0.31163 0.44542 0.0
H658 H 0.36952 0.35214 0.53386 0.0
C659 C 0.20514 0.28405 0.48348 0.0
H660 H 0.33591 0.35885 0.43751 0.0
C661 C 0.22244 0.28339 0.53942 0.0
C662 C 0.28143 0.30814 0.55875 0.0
H663 H 0.16001 0.2639 0.46974 0.0
H664 H 0.18986 0.26371 0.56847 0.0
C665 C 0.32353 0.33295 0.5205 0.0
C666 C 0.1292 0.04703 0.74735 0.0
C667 C 0.10783 0.00797 0.78481 0.0
H668 H 0.16357 0.05924 0.66664 0.0
C669 C 0.12605 0.95247 0.77747 0.0
H670 H 0.12129 0.09034 0.7543 0.0
C671 C 0.14623 0.93485 0.72666 0.0
C672 C 0.14565 0.97286 0.68456 0.0
H673 H 0.11567 0.92139 0.80782 0.0
H674 H 0.14655 0.89149 0.71849 0.0
C675 C 0.1547 0.02874 0.69794 0.0
C676 C 0.20423 0.71367 0.96065 0.0
C677 C 0.26125 0.6882 0.93882 0.0
H678 H 0.14716 0.73237 0.03291 0.0
C679 C 0.30493 0.66115 0.97422 0.0
H680 H 0.17055 0.73552 0.93373 0.0
C681 C 0.29119 0.65842 0.03037 0.0
C682 C 0.23327 0.68275 0.05244 0.0
H683 H 0.34936 0.64155 0.9582 0.0
H684 H 0.32673 0.63772 0.05673 0.0
C685 C 0.19069 0.71151 0.01693 0.0
C686 C 0.33382 0.03185 0.29595 0.0
C687 C 0.34939 0.97578 0.30478 0.0
H688 H 0.34974 0.09697 0.23881 0.0
C689 C 0.34089 0.93941 0.2619 0.0
H690 H 0.33223 0.06086 0.32927 0.0
C691 C 0.33984 0.96061 0.2095 0.0
C692 C 0.35562 0.01677 0.20195 0.0
H693 H 0.34727 0.89579 0.26763 0.0
H694 H 0.34262 0.93134 0.17646 0.0
C695 C 0.34276 0.05326 0.24405 0.0
C696 C 0.47059 0.30571 0.28756 0.0
C697 C 0.43021 0.25799 0.28911 0.0
H698 H 0.57031 0.33999 0.28928 0.0
C699 C 0.46235 0.20712 0.29411 0.0
H700 H 0.44743 0.34568 0.28327 0.0
C701 C 0.53275 0.20408 0.29683 0.0
C702 C 0.57323 0.25173 0.29566 0.0
H703 H 0.43325 0.16967 0.29458 0.0
H704 H 0.55585 0.1639 0.29897 0.0
C705 C 0.54107 0.30272 0.29162 0.0
C706 C 0.04456 0.28635 0.54827 0.0
C707 C 0.98082 0.30611 0.56262 0.0
H708 H 0.10633 0.21483 0.53458 0.0
C709 C 0.93122 0.26831 0.577 0.0
H710 H 0.08349 0.31495 0.53687 0.0
C711 C 0.9454 0.2118 0.57744 0.0
C712 C 0.00931 0.19209 0.56255 0.0
H713 H 0.88243 0.28255 0.58939 0.0
H714 H 0.90612 0.18346 0.58876 0.0
C715 C 0.05805 0.22987 0.54726 0.0
C716 C 0.96631 0.80393 0.77906 0.0
C717 C 0.92429 0.7573 0.78019 0.0
H718 H 0.06693 0.83549 0.7784 0.0
C719 C 0.95455 0.70536 0.78179 0.0
H720 H 0.94466 0.84466 0.77736 0.0
C721 C 0.02495 0.70037 0.78063 0.0
C722 C 0.06674 0.74713 0.77946 0.0
H723 H 0.92396 0.66877 0.78199 0.0
H724 H 0.04686 0.65971 0.78024 0.0
C725 C 0.03647 0.79893 0.77986 0.0
C726 C 0.45501 0.71439 0.037 0.0
C727 C 0.51527 0.6911 0.05543 0.0
H728 H 0.39457 0.78694 0.02734 0.0
C729 C 0.56312 0.72556 0.0785 0.0
H730 H 0.41871 0.6886 0.01787 0.0
C731 C 0.55034 0.78215 0.08379 0.0
C732 C 0.48906 0.80534 0.06672 0.0
H733 H 0.60951 0.70835 0.09386 0.0
H734 H 0.58857 0.80792 0.10174 0.0
C735 C 0.4417 0.77068 0.04235 0.0
C736 C 0.529 0.79848 0.2088 0.0
C737 C 0.57048 0.75137 0.20615 0.0
H738 H 0.42875 0.83134 0.20986 0.0
C739 C 0.53972 0.69988 0.20302 0.0
H740 H 0.55109 0.83891 0.21167 0.0
C741 C 0.46934 0.69578 0.20321 0.0
C742 C 0.4281 0.743 0.20527 0.0
H743 H 0.56984 0.66297 0.20179 0.0
H744 H 0.44695 0.65535 0.20252 0.0
C745 C 0.45883 0.79445 0.20716 0.0
C746 C 0.43777 0.22924 0.41957 0.0
C747 C 0.48801 0.1911 0.43105 0.0
H748 H 0.41541 0.31274 0.40194 0.0
C749 C 0.55348 0.21006 0.44185 0.0
H750 H 0.38734 0.21577 0.41014 0.0
C751 C 0.56815 0.26647 0.44207 0.0
C752 C 0.51821 0.30467 0.42835 0.0
H753 H 0.59304 0.18101 0.45074 0.0
H754 H 0.61849 0.27999 0.4517 0.0
C755 C 0.4536 0.28499 0.416 0.0
C756 C 0.04427 0.30311 0.70056 0.0
C757 C 0.08178 0.25412 0.70155 0.0
H758 H 0.94774 0.34112 0.70583 0.0
C759 C 0.04752 0.20404 0.7047 0.0
H760 H 0.0693 0.34245 0.69821 0.0
C761 C 0.97743 0.20346 0.71116 0.0
C762 C 0.94055 0.2529 0.71278 0.0
H763 H 0.07505 0.16584 0.70569 0.0
H764 H 0.95208 0.16438 0.71449 0.0
C765 C 0.97472 0.30252 0.70604 0.0
C766 C 0.93526 0.78345 0.90691 0.0
C767 C 0.99395 0.80618 0.92967 0.0
H768 H 0.87694 0.71058 0.89187 0.0
C769 C 0.03963 0.77064 0.95487 0.0
H770 H 0.89967 0.8092 0.88583 0.0
C771 C 0.02827 0.71385 0.95548 0.0
C772 C 0.96979 0.6915 0.93281 0.0
H773 H 0.08406 0.78706 0.97403 0.0
H774 H 0.06478 0.68692 0.97419 0.0
C775 C 0.9224 0.72687 0.9097 0.0
C776 C 0.09355 0.48767 0.19453 0.0
C777 C 0.10363 0.44543 0.23181 0.0
H778 H 0.09325 0.57354 0.18337 0.0
C779 C 0.09337 0.456 0.28783 0.0
H780 H 0.09721 0.48034 0.15116 0.0
C781 C 0.0993 0.50939 0.30675 0.0
C782 C 0.10788 0.55139 0.26905 0.0
H783 H 0.09551 0.42354 0.31796 0.0
H784 H 0.10711 0.51636 0.34971 0.0
C785 C 0.09234 0.54121 0.21365 0.0
C786 C 0.63247 0.06146 0.67444 0.0
C787 C 0.67789 0.07482 0.71642 0.0
H788 H 0.59047 0.9931 0.62929 0.0
C789 C 0.69918 0.0324 0.75058 0.0
H790 H 0.61677 0.09223 0.64522 0.0
C791 C 0.66656 0.98379 0.75278 0.0
C792 C 0.63439 0.96595 0.7059 0.0
H793 H 0.74292 0.03528 0.77579 0.0
H794 H 0.68354 0.95594 0.78449 0.0
C795 C 0.61526 0.00551 0.66647 0.0
C796 C 0.28233 0.53611 0.94967 0.0
C797 C 0.31406 0.53189 0.00039 0.0
H798 H 0.18901 0.53925 0.90642 0.0
C799 C 0.27384 0.53016 0.04774 0.0
H800 H 0.3116 0.53716 0.91266 0.0
C801 C 0.20359 0.53324 0.04451 0.0
C802 C 0.17193 0.53611 0.99367 0.0
H803 H 0.29698 0.52686 0.08755 0.0
H804 H 0.17418 0.53084 0.08142 0.0
C805 C 0.21213 0.53771 0.94637 0.0
C806 C 0.90853 0.04052 0.29553 0.0
C807 C 0.89913 0.05671 0.24119 0.0
H808 H 0.89265 0.97453 0.35002 0.0
C809 C 0.90889 0.01834 0.19982 0.0
H810 H 0.9054 0.0699 0.32847 0.0
C811 C 0.90616 0.96297 0.21288 0.0
C812 C 0.89084 0.94771 0.26677 0.0
H813 H 0.90562 0.03033 0.15753 0.0
H814 H 0.9025 0.93404 0.1796 0.0
C815 C 0.90135 0.98548 0.30844 0.0
C816 C 0.79191 0.96995 0.0588 0.0
C817 C 0.82177 0.97097 0.00753 0.0
H818 H 0.69943 0.96909 0.10271 0.0
C819 C 0.78098 0.96719 0.96074 0.0
H820 H 0.82209 0.97266 0.09539 0.0
C821 C 0.71137 0.96494 0.96437 0.0
C822 C 0.68124 0.96687 0.01529 0.0
H823 H 0.80372 0.9643 0.92099 0.0
H824 H 0.68138 0.96351 0.92756 0.0
C825 C 0.72193 0.96801 0.06262 0.0
C826 C 0.39723 0.50656 0.69898 0.0
C827 C 0.38504 0.54975 0.73439 0.0
H828 H 0.40676 0.42073 0.69166 0.0
C829 C 0.39569 0.54164 0.79103 0.0
H830 H 0.39294 0.51197 0.65531 0.0
C831 C 0.3954 0.48888 0.81233 0.0
C832 C 0.39094 0.44498 0.77663 0.0
H833 H 0.39164 0.57491 0.81998 0.0
H834 H 0.38902 0.4831 0.85566 0.0
C835 C 0.40443 0.45414 0.72057 0.0
C836 C 0.22059 0.45751 0.547 0.0
C837 C 0.17881 0.4585 0.5003 0.0
H838 H 0.32139 0.45783 0.57929 0.0
C839 C 0.20946 0.46022 0.44909 0.0
H840 H 0.19852 0.457 0.58725 0.0
C841 C 0.27972 0.46302 0.4448 0.0
C842 C 0.32169 0.46135 0.49141 0.0
H843 H 0.17918 0.46198 0.41251 0.0
H844 H 0.30155 0.4659 0.40456 0.0
C845 C 0.29106 0.45821 0.54266 0.0
C846 C 0.79515 0.84442 0.95308 0.0
C847 C 0.73429 0.82349 0.93214 0.0
H848 H 0.8589 0.85683 0.02341 0.0
C849 C 0.69174 0.79649 0.96883 0.0
H850 H 0.82945 0.86544 0.92635 0.0
C851 C 0.70849 0.79284 0.02444 0.0
C852 C 0.76757 0.81558 0.04565 0.0
H853 H 0.64564 0.77788 0.95465 0.0
H854 H 0.67612 0.77105 0.05136 0.0
C855 C 0.8121 0.8399 0.00887 0.0
C856 C 0.65673 0.46544 0.28803 0.0
C857 C 0.64265 0.52127 0.29869 0.0
H858 H 0.64489 0.40236 0.22853 0.0
C859 C 0.64809 0.55901 0.25639 0.0
H860 H 0.65842 0.43523 0.32041 0.0
C861 C 0.64774 0.53979 0.20327 0.0
C862 C 0.63647 0.48338 0.19372 0.0
H863 H 0.64124 0.60232 0.26351 0.0
H864 H 0.6426 0.57007 0.1712 0.0
C865 C 0.64961 0.44597 0.23524 0.0
C866 C 0.79941 0.25863 0.46531 0.0
C867 C 0.78006 0.20902 0.4414 0.0
H868 H 0.79225 0.30932 0.53586 0.0
C869 C 0.735 0.17427 0.46806 0.0
H870 H 0.83143 0.28751 0.44426 0.0
C871 C 0.71334 0.18646 0.51969 0.0
C872 C 0.7353 0.23435 0.54417 0.0
H873 H 0.71506 0.1385 0.44837 0.0
H874 H 0.68186 0.15765 0.54142 0.0
C875 C 0.77562 0.27184 0.5165 0.0
C876 C 0.85073 0.55986 0.73219 0.0
C877 C 0.85742 0.52227 0.69007 0.0
H878 H 0.85236 0.57051 0.81746 0.0
C879 C 0.843 0.46634 0.70043 0.0
H880 H 0.85785 0.60321 0.72515 0.0
C881 C 0.84762 0.44657 0.75339 0.0
C882 C 0.85891 0.48381 0.79522 0.0
H883 H 0.84241 0.43622 0.66808 0.0
H884 H 0.85186 0.4028 0.76036 0.0
C885 C 0.84848 0.54038 0.78527 0.0
C886 C 0.78296 0.04503 0.5399 0.0
C887 C 0.82365 0.04022 0.49317 0.0
H888 H 0.68311 0.04736 0.57243 0.0
C889 C 0.79238 0.03514 0.44234 0.0
H890 H 0.80567 0.04823 0.5799 0.0
C891 C 0.72215 0.03223 0.43872 0.0
C892 C 0.68137 0.03711 0.48553 0.0
H893 H 0.82204 0.0307 0.40586 0.0
H894 H 0.69956 0.02663 0.39897 0.0
C895 C 0.71273 0.04429 0.53598 0.0
loop_
_geom_bond_atom_site_label_1
_geom_bond_atom_site_label_2
_geom_bond_distance
_geom_bond_site_symmetry_2
_ccdc_geom_bond_type
Mn0 O5 2.095 . S
Mn0 O15 2.162 . S
Mn0 O16 2.297 . S
Mn0 O24 2.385 . S
Mn0 O25 2.209 . S
Mn0 O26 2.094 . S
Mn1 O6 2.121 . S
Mn1 N8 2.257 . S
Mn1 N17 2.282 . S
Mn1 O25 2.215 . S
Mn1 O27 2.117 . S
C2 O24 1.234 . S
C2 O25 1.283 . S
C3 O15 1.281 . S
C3 O16 1.236 . S
C4 O26 1.240 . S
C4 O27 1.264 . S
O5 Mn0 2.095 . S
O5 C14 1.250 . S
O6 Mn1 2.121 . S
O6 C14 1.258 . S
C7 N8 1.326 . S
C7 C11 1.460 . S
C7 H13 0.929 . S
N8 Mn1 2.257 . S
N8 C7 1.326 . S
N8 C12 1.362 . S
C9 C10 1.258 . S
C9 C12 1.431 . S
C9 C29 1.449 . S
C10 C9 1.258 . S
C10 C11 1.477 . S
C10 H30 0.931 . S
C11 C7 1.460 . S
C11 C10 1.477 . S
C11 H31 0.930 . S
C12 N8 1.362 . S
C12 C9 1.431 . S
C12 C22 1.476 . S
H13 C7 0.929 . S
C14 O5 1.250 . S
C14 O6 1.258 . S
O15 Mn0 2.162 . S
O15 C3 1.281 . S
O16 Mn0 2.297 . S
O16 C3 1.236 . S
N17 Mn1 2.282 . S
N17 C18 1.328 . S
N17 C22 1.318 . S
C18 N17 1.328 . S
C18 C19 1.457 . S
C18 H23 0.929 . S
C19 C18 1.457 . S
C19 C20 1.291 . S
C19 H32 0.931 . S
C20 C19 1.291 . S
C20 C21 1.373 . S
C20 H33 0.929 . S
C21 C20 1.373 . S
C21 C22 1.396 . S
C21 C28 1.403 . S
C22 C12 1.476 . S
C22 N17 1.318 . S
C22 C21 1.396 . S
H23 C18 0.929 . S
O24 Mn0 2.385 . S
O24 C2 1.234 . S
O25 Mn0 2.209 . S
O25 Mn1 2.215 . S
O25 C2 1.283 . S
O26 Mn0 2.094 . S
O26 C4 1.240 . S
O27 Mn1 2.117 . S
O27 C4 1.264 . S
C28 C21 1.403 . S
C28 C29 1.399 . S
C28 H34 0.929 . S
C29 C9 1.449 . S
C29 C28 1.399 . S
C29 H35 0.930 . S
H30 C10 0.931 . S
H31 C11 0.930 . S
H32 C19 0.931 . S
H33 C20 0.929 . S
H34 C28 0.929 . S
H35 C29 0.930 . S
Mn36 O41 2.095 . S
Mn36 O51 2.162 . S
Mn36 O52 2.297 1_455 S
Mn36 O60 2.385 1_455 S
Mn36 O61 2.209 1_445 S
Mn36 O62 2.094 1_545 S
Mn37 O42 2.121 . S
Mn37 N44 2.257 . S
Mn37 N53 2.282 . S
Mn37 O61 2.215 . S
Mn37 O63 2.117 1_655 S
C38 O60 1.234 . S
C38 O61 1.283 1_545 S
C39 O51 1.281 . S
C39 O52 1.236 1_455 S
C40 O62 1.240 . S
C40 O63 1.264 . S
O41 Mn36 2.095 . S
O41 C50 1.250 1_545 S
O42 Mn37 2.121 . S
O42 C50 1.258 1_655 S
C43 N44 1.326 . S
C43 C47 1.460 . S
C43 H49 0.929 . S
N44 Mn37 2.257 . S
N44 C43 1.326 . S
N44 C48 1.362 . S
C45 C46 1.258 . S
C45 C48 1.431 . S
C45 C65 1.449 . S
C46 C45 1.258 . S
C46 C47 1.477 . S
C46 H66 0.931 . S
C47 C43 1.460 . S
C47 C46 1.477 . S
C47 H67 0.930 . S
C48 N44 1.362 . S
C48 C45 1.431 . S
C48 C58 1.476 . S
H49 C43 0.929 . S
C50 O41 1.250 1_565 S
C50 O42 1.258 1_455 S
O51 Mn36 2.162 . S
O51 C39 1.281 . S
O52 Mn36 2.297 1_655 S
O52 C39 1.236 1_655 S
N53 Mn37 2.282 . S
N53 C54 1.328 . S
N53 C58 1.318 . S
C54 N53 1.328 . S
C54 C55 1.457 . S
C54 H59 0.929 . S
C55 C54 1.457 . S
C55 C56 1.291 . S
C55 H68 0.931 . S
C56 C55 1.291 . S
C56 C57 1.373 . S
C56 H69 0.929 . S
C57 C56 1.373 . S
C57 C58 1.396 . S
C57 C64 1.403 . S
C58 C48 1.476 . S
C58 N53 1.318 . S
C58 C57 1.396 . S
H59 C54 0.929 . S
O60 Mn36 2.385 1_655 S
O60 C38 1.234 . S
O61 Mn36 2.209 1_665 S
O61 Mn37 2.215 . S
O61 C38 1.283 1_565 S
O62 Mn36 2.094 1_565 S
O62 C40 1.240 . S
O63 Mn37 2.117 1_455 S
O63 C40 1.264 . S
C64 C57 1.403 . S
C64 C65 1.399 . S
C64 H70 0.929 . S
C65 C45 1.449 . S
C65 C64 1.399 . S
C65 H71 0.930 . S
H66 C46 0.931 . S
H67 C47 0.930 . S
H68 C55 0.931 . S
H69 C56 0.929 . S
H70 C64 0.929 . S
H71 C65 0.930 . S
Mn72 O77 2.095 . S
Mn72 O87 2.162 . S
Mn72 O88 2.297 . S
Mn72 O96 2.385 . S
Mn72 O97 2.209 . S
Mn72 O98 2.094 . S
Mn73 O78 2.121 . S
Mn73 N80 2.257 . S
Mn73 N89 2.282 . S
Mn73 O97 2.215 . S
Mn73 O99 2.117 . S
C74 O96 1.234 . S
C74 O97 1.283 . S
C75 O87 1.281 . S
C75 O88 1.236 . S
C76 O98 1.240 . S
C76 O99 1.264 . S
O77 Mn72 2.095 . S
O77 C86 1.250 . S
O78 Mn73 2.121 . S
O78 C86 1.258 . S
C79 N80 1.326 . S
C79 C83 1.460 . S
C79 H85 0.929 . S
N80 Mn73 2.257 . S
N80 C79 1.326 . S
N80 C84 1.362 . S
C81 C82 1.258 . S
C81 C84 1.431 1_655 S
C81 C101 1.449 . S
C82 C81 1.258 . S
C82 C83 1.477 1_655 S
C82 H102 0.931 . S
C83 C79 1.460 . S
C83 C82 1.477 1_455 S
C83 H103 0.930 . S
C84 N80 1.362 . S
C84 C81 1.431 1_455 S
C84 C94 1.476 . S
H85 C79 0.929 . S
C86 O77 1.250 . S
C86 O78 1.258 . S
O87 Mn72 2.162 . S
O87 C75 1.281 . S
O88 Mn72 2.297 . S
O88 C75 1.236 . S
N89 Mn73 2.282 . S
N89 C90 1.328 . S
N89 C94 1.318 . S
C90 N89 1.328 . S
C90 C91 1.457 . S
C90 H95 0.929 . S
C91 C90 1.457 . S
C91 C92 1.291 . S
C91 H104 0.931 . S
C92 C91 1.291 . S
C92 C93 1.373 . S
C92 H105 0.929 1_455 S
C93 C92 1.373 . S
C93 C94 1.396 . S
C93 C100 1.403 1_455 S
C94 C84 1.476 . S
C94 N89 1.318 . S
C94 C93 1.396 . S
H95 C90 0.929 . S
O96 Mn72 2.385 . S
O96 C74 1.234 . S
O97 Mn72 2.209 . S
O97 Mn73 2.215 . S
O97 C74 1.283 . S
O98 Mn72 2.094 . S
O98 C76 1.240 . S
O99 Mn73 2.117 . S
O99 C76 1.264 . S
C100 C93 1.403 1_655 S
C100 C101 1.399 . S
C100 H106 0.929 . S
C101 C81 1.449 . S
C101 C100 1.399 . S
C101 H107 0.930 . S
H102 C82 0.931 . S
H103 C83 0.930 . S
H104 C91 0.931 . S
H105 C92 0.929 1_655 S
H106 C100 0.929 . S
H107 C101 0.930 . S
Mn108 O113 2.095 . S
Mn108 O123 2.162 . S
Mn108 O124 2.297 . S
Mn108 O132 2.385 1_554 S
Mn108 O133 2.209 1_565 S
Mn108 O134 2.094 1_564 S
Mn109 O114 2.121 . S
Mn109 N116 2.257 . S
Mn109 N125 2.282 . S
Mn109 O133 2.215 . S
Mn109 O135 2.117 . S
C110 O132 1.234 1_554 S
C110 O133 1.283 1_565 S
C111 O123 1.281 . S
C111 O124 1.236 . S
C112 O134 1.240 . S
C112 O135 1.264 1_556 S
O113 Mn108 2.095 . S
O113 C122 1.250 1_565 S
O114 Mn109 2.121 . S
O114 C122 1.258 . S
C115 N116 1.326 . S
C115 C119 1.460 . S
C115 H121 0.929 . S
N116 Mn109 2.257 . S
N116 C115 1.326 . S
N116 C120 1.362 . S
C117 C118 1.258 . S
C117 C120 1.431 . S
C117 C137 1.449 . S
C118 C117 1.258 . S
C118 C119 1.477 . S
C118 H138 0.931 . S
C119 C115 1.460 . S
C119 C118 1.477 . S
C119 H139 0.930 . S
C120 N116 1.362 . S
C120 C117 1.431 . S
C120 C130 1.476 . S
H121 C115 0.929 . S
C122 O113 1.250 1_545 S
C122 O114 1.258 . S
O123 Mn108 2.162 . S
O123 C111 1.281 . S
O124 Mn108 2.297 . S
O124 C111 1.236 . S
N125 Mn109 2.282 . S
N125 C126 1.328 1_554 S
N125 C130 1.318 . S
C126 N125 1.328 1_556 S
C126 C127 1.457 . S
C126 H131 0.929 . S
C127 C126 1.457 . S
C127 C128 1.291 . S
C127 H140 0.931 . S
C128 C127 1.291 . S
C128 C129 1.373 . S
C128 H141 0.929 . S
C129 C128 1.373 . S
C129 C130 1.396 1_556 S
C129 C136 1.403 1_556 S
C130 C120 1.476 . S
C130 N125 1.318 . S
C130 C129 1.396 1_554 S
H131 C126 0.929 . S
O132 Mn108 2.385 1_556 S
O132 C110 1.234 1_556 S
O133 Mn108 2.209 1_545 S
O133 Mn109 2.215 . S
O133 C110 1.283 1_545 S
O134 Mn108 2.094 1_546 S
O134 C112 1.240 . S
O135 Mn109 2.117 . S
O135 C112 1.264 1_554 S
C136 C129 1.403 1_554 S
C136 C137 1.399 . S
C136 H142 0.929 1_554 S
C137 C117 1.449 . S
C137 C136 1.399 . S
C137 H143 0.930 . S
H138 C118 0.931 . S
H139 C119 0.930 . S
H140 C127 0.931 . S
H141 C128 0.929 . S
H142 C136 0.929 1_556 S
H143 C137 0.930 . S
Mn144 O149 2.095 . S
Mn144 O159 2.162 . S
Mn144 O160 2.297 . S
Mn144 O168 2.385 . S
Mn144 O169 2.209 . S
Mn144 O170 2.094 . S
Mn145 O150 2.121 . S
Mn145 N152 2.257 . S
Mn145 N161 2.282 . S
Mn145 O169 2.215 . S
Mn145 O171 2.117 . S
C146 O168 1.234 . S
C146 O169 1.283 . S
C147 O159 1.281 . S
C147 O160 1.236 . S
C148 O170 1.240 . S
C148 O171 1.264 . S
O149 Mn144 2.095 . S
O149 C158 1.250 . S
O150 Mn145 2.121 . S
O150 C158 1.258 . S
C151 N152 1.326 . S
C151 C155 1.460 . S
C151 H157 0.929 . S
N152 Mn145 2.257 . S
N152 C151 1.326 . S
N152 C156 1.362 . S
C153 C154 1.258 . S
C153 C156 1.431 . S
C153 C173 1.449 . S
C154 C153 1.258 . S
C154 C155 1.477 . S
C154 H174 0.931 . S
C155 C151 1.460 . S
C155 C154 1.477 . S
C155 H175 0.930 . S
C156 N152 1.362 . S
C156 C153 1.431 . S
C156 C166 1.476 . S
H157 C151 0.929 . S
C158 O149 1.250 . S
C158 O150 1.258 . S
O159 Mn144 2.162 . S
O159 C147 1.281 . S
O160 Mn144 2.297 . S
O160 C147 1.236 . S
N161 Mn145 2.282 . S
N161 C162 1.328 . S
N161 C166 1.318 . S
C162 N161 1.328 . S
C162 C163 1.457 . S
C162 H167 0.929 . S
C163 C162 1.457 . S
C163 C164 1.291 . S
C163 H176 0.931 . S
C164 C163 1.291 . S
C164 C165 1.373 . S
C164 H177 0.929 . S
C165 C164 1.373 . S
C165 C166 1.396 . S
C165 C172 1.403 . S
C166 C156 1.476 . S
C166 N161 1.318 . S
C166 C165 1.396 . S
H167 C162 0.929 . S
O168 Mn144 2.385 . S
O168 C146 1.234 . S
O169 Mn144 2.209 . S
O169 Mn145 2.215 . S
O169 C146 1.283 . S
O170 Mn144 2.094 . S
O170 C148 1.240 . S
O171 Mn145 2.117 . S
O171 C148 1.264 . S
C172 C165 1.403 . S
C172 C173 1.399 . S
C172 H178 0.929 . S
C173 C153 1.449 . S
C173 C172 1.399 . S
C173 H179 0.930 . S
H174 C154 0.931 . S
H175 C155 0.930 . S
H176 C163 0.931 . S
H177 C164 0.929 . S
H178 C172 0.929 . S
H179 C173 0.930 . S
Mn180 O185 2.095 . S
Mn180 O195 2.162 . S
Mn180 O196 2.297 . S
Mn180 O204 2.385 . S
Mn180 O205 2.209 1_545 S
Mn180 O206 2.094 1_545 S
Mn181 O186 2.121 . S
Mn181 N188 2.257 . S
Mn181 N197 2.282 . S
Mn181 O205 2.215 . S
Mn181 O207 2.117 . S
C182 O204 1.234 . S
C182 O205 1.283 1_545 S
C183 O195 1.281 . S
C183 O196 1.236 . S
C184 O206 1.240 . S
C184 O207 1.264 . S
O185 Mn180 2.095 . S
O185 C194 1.250 1_545 S
O186 Mn181 2.121 . S
O186 C194 1.258 . S
C187 N188 1.326 . S
C187 C191 1.460 . S
C187 H193 0.929 . S
N188 Mn181 2.257 . S
N188 C187 1.326 . S
N188 C192 1.362 . S
C189 C190 1.258 . S
C189 C192 1.431 . S
C189 C209 1.449 . S
C190 C189 1.258 . S
C190 C191 1.477 . S
C190 H210 0.931 . S
C191 C187 1.460 . S
C191 C190 1.477 . S
C191 H211 0.930 . S
C192 N188 1.362 . S
C192 C189 1.431 . S
C192 C202 1.476 . S
H193 C187 0.929 . S
C194 O185 1.250 1_565 S
C194 O186 1.258 . S
O195 Mn180 2.162 . S
O195 C183 1.281 . S
O196 Mn180 2.297 . S
O196 C183 1.236 . S
N197 Mn181 2.282 . S
N197 C198 1.328 . S
N197 C202 1.318 . S
C198 N197 1.328 . S
C198 C199 1.457 . S
C198 H203 0.929 . S
C199 C198 1.457 . S
C199 C200 1.291 . S
C199 H212 0.931 . S
C200 C199 1.291 . S
C200 C201 1.373 . S
C200 H213 0.929 . S
C201 C200 1.373 . S
C201 C202 1.396 . S
C201 C208 1.403 . S
C202 C192 1.476 . S
C202 N197 1.318 . S
C202 C201 1.396 . S
H203 C198 0.929 . S
O204 Mn180 2.385 . S
O204 C182 1.234 . S
O205 Mn180 2.209 1_565 S
O205 Mn181 2.215 . S
O205 C182 1.283 1_565 S
O206 Mn180 2.094 1_565 S
O206 C184 1.240 . S
O207 Mn181 2.117 . S
O207 C184 1.264 . S
C208 C201 1.403 . S
C208 C209 1.399 . S
C208 H214 0.929 . S
C209 C189 1.449 . S
C209 C208 1.399 . S
C209 H215 0.930 . S
H210 C190 0.931 . S
H211 C191 0.930 . S
H212 C199 0.931 . S
H213 C200 0.929 . S
H214 C208 0.929 . S
H215 C209 0.930 . S
Mn216 O221 2.095 . S
Mn216 O231 2.162 . S
Mn216 O232 2.297 . S
Mn216 O240 2.385 . S
Mn216 O241 2.209 . S
Mn216 O242 2.094 . S
Mn217 O222 2.121 . S
Mn217 N224 2.257 . S
Mn217 N233 2.282 . S
Mn217 O241 2.215 . S
Mn217 O243 2.117 . S
C218 O240 1.234 . S
C218 O241 1.283 . S
C219 O231 1.281 . S
C219 O232 1.236 . S
C220 O242 1.240 . S
C220 O243 1.264 . S
O221 Mn216 2.095 . S
O221 C230 1.250 . S
O222 Mn217 2.121 . S
O222 C230 1.258 . S
C223 N224 1.326 . S
C223 C227 1.460 . S
C223 H229 0.929 . S
N224 Mn217 2.257 . S
N224 C223 1.326 . S
N224 C228 1.362 . S
C225 C226 1.258 . S
C225 C228 1.431 1_655 S
C225 C245 1.449 . S
C226 C225 1.258 . S
C226 C227 1.477 1_655 S
C226 H246 0.931 . S
C227 C223 1.460 . S
C227 C226 1.477 1_455 S
C227 H247 0.930 . S
C228 N224 1.362 . S
C228 C225 1.431 1_455 S
C228 C238 1.476 . S
H229 C223 0.929 . S
C230 O221 1.250 . S
C230 O222 1.258 . S
O231 Mn216 2.162 . S
O231 C219 1.281 . S
O232 Mn216 2.297 . S
O232 C219 1.236 . S
N233 Mn217 2.282 . S
N233 C234 1.328 . S
N233 C238 1.318 . S
C234 N233 1.328 . S
C234 C235 1.457 . S
C234 H239 0.929 . S
C235 C234 1.457 . S
C235 C236 1.291 . S
C235 H248 0.931 . S
C236 C235 1.291 . S
C236 C237 1.373 . S
C236 H249 0.929 1_455 S
C237 C236 1.373 . S
C237 C238 1.396 . S
C237 C244 1.403 1_455 S
C238 C228 1.476 . S
C238 N233 1.318 . S
C238 C237 1.396 . S
H239 C234 0.929 . S
O240 Mn216 2.385 . S
O240 C218 1.234 . S
O241 Mn216 2.209 . S
O241 Mn217 2.215 . S
O241 C218 1.283 . S
O242 Mn216 2.094 . S
O242 C220 1.240 . S
O243 Mn217 2.117 . S
O243 C220 1.264 . S
C244 C237 1.403 1_655 S
C244 C245 1.399 . S
C244 H250 0.929 . S
C245 C225 1.449 . S
C245 C244 1.399 . S
C245 H251 0.930 . S
H246 C226 0.931 . S
H247 C227 0.930 . S
H248 C235 0.931 . S
H249 C236 0.929 1_655 S
H250 C244 0.929 . S
H251 C245 0.930 . S
Mn252 O257 2.095 . S
Mn252 O267 2.162 . S
Mn252 O268 2.297 1_455 S
Mn252 O276 2.385 1_456 S
Mn252 O277 2.209 1_465 S
Mn252 O278 2.094 1_566 S
Mn253 O258 2.121 . S
Mn253 N260 2.257 . S
Mn253 N269 2.282 . S
Mn253 O277 2.215 . S
Mn253 O279 2.117 1_655 S
C254 O276 1.234 1_556 S
C254 O277 1.283 1_565 S
C255 O267 1.281 . S
C255 O268 1.236 1_455 S
C256 O278 1.240 . S
C256 O279 1.264 1_554 S
O257 Mn252 2.095 . S
O257 C266 1.250 1_565 S
O258 Mn253 2.121 . S
O258 C266 1.258 1_655 S
C259 N260 1.326 . S
C259 C263 1.460 . S
C259 H265 0.929 . S
N260 Mn253 2.257 . S
N260 C259 1.326 . S
N260 C264 1.362 . S
C261 C262 1.258 . S
C261 C264 1.431 . S
C261 C281 1.449 . S
C262 C261 1.258 . S
C262 C263 1.477 . S
C262 H282 0.931 . S
C263 C259 1.460 . S
C263 C262 1.477 . S
C263 H283 0.930 . S
C264 N260 1.362 . S
C264 C261 1.431 . S
C264 C274 1.476 . S
H265 C259 0.929 . S
C266 O257 1.250 1_545 S
C266 O258 1.258 1_455 S
O267 Mn252 2.162 . S
O267 C255 1.281 . S
O268 Mn252 2.297 1_655 S
O268 C255 1.236 1_655 S
N269 Mn253 2.282 . S
N269 C270 1.328 1_556 S
N269 C274 1.318 . S
C270 N269 1.328 1_554 S
C270 C271 1.457 . S
C270 H275 0.929 . S
C271 C270 1.457 . S
C271 C272 1.291 . S
C271 H284 0.931 . S
C272 C271 1.291 . S
C272 C273 1.373 . S
C272 H285 0.929 . S
C273 C272 1.373 . S
C273 C274 1.396 1_554 S
C273 C280 1.403 1_554 S
C274 C264 1.476 . S
C274 N269 1.318 . S
C274 C273 1.396 1_556 S
H275 C270 0.929 . S
O276 Mn252 2.385 1_654 S
O276 C254 1.234 1_554 S
O277 Mn252 2.209 1_645 S
O277 Mn253 2.215 . S
O277 C254 1.283 1_545 S
O278 Mn252 2.094 1_544 S
O278 C256 1.240 . S
O279 Mn253 2.117 1_455 S
O279 C256 1.264 1_556 S
C280 C273 1.403 1_556 S
C280 C281 1.399 . S
C280 H286 0.929 1_556 S
C281 C261 1.449 . S
C281 C280 1.399 . S
C281 H287 0.930 . S
H282 C262 0.931 . S
H283 C263 0.930 . S
H284 C271 0.931 . S
H285 C272 0.929 . S
H286 C280 0.929 1_554 S
H287 C281 0.930 . S
Mn288 O293 2.095 . S
Mn288 O303 2.162 . S
Mn288 O304 2.297 . S
Mn288 O312 2.385 . S
Mn288 O313 2.209 . S
Mn288 O314 2.094 . S
Mn289 O294 2.121 . S
Mn289 N296 2.257 . S
Mn289 N305 2.282 . S
Mn289 O313 2.215 . S
Mn289 O315 2.117 . S
C290 O312 1.234 . S
C290 O313 1.283 . S
C291 O303 1.281 . S
C291 O304 1.236 . S
C292 O314 1.240 . S
C292 O315 1.264 . S
O293 Mn288 2.095 . S
O293 C302 1.250 . S
O294 Mn289 2.121 . S
O294 C302 1.258 . S
C295 N296 1.326 . S
C295 C299 1.460 . S
C295 H301 0.929 . S
N296 Mn289 2.257 . S
N296 C295 1.326 . S
N296 C300 1.362 . S
C297 C298 1.258 . S
C297 C300 1.431 1_455 S
C297 C317 1.449 . S
C298 C297 1.258 . S
C298 C299 1.477 1_455 S
C298 H318 0.931 . S
C299 C295 1.460 . S
C299 C298 1.477 1_655 S
C299 H319 0.930 . S
C300 N296 1.362 . S
C300 C297 1.431 1_655 S
C300 C310 1.476 . S
H301 C295 0.929 . S
C302 O293 1.250 . S
C302 O294 1.258 . S
O303 Mn288 2.162 . S
O303 C291 1.281 . S
O304 Mn288 2.297 . S
O304 C291 1.236 . S
N305 Mn289 2.282 . S
N305 C306 1.328 . S
N305 C310 1.318 . S
C306 N305 1.328 . S
C306 C307 1.457 . S
C306 H311 0.929 . S
C307 C306 1.457 . S
C307 C308 1.291 . S
C307 H320 0.931 . S
C308 C307 1.291 . S
C308 C309 1.373 . S
C308 H321 0.929 1_655 S
C309 C308 1.373 . S
C309 C310 1.396 . S
C309 C316 1.403 1_655 S
C310 C300 1.476 . S
C310 N305 1.318 . S
C310 C309 1.396 . S
H311 C306 0.929 . S
O312 Mn288 2.385 . S
O312 C290 1.234 . S
O313 Mn288 2.209 . S
O313 Mn289 2.215 . S
O313 C290 1.283 . S
O314 Mn288 2.094 . S
O314 C292 1.240 . S
O315 Mn289 2.117 . S
O315 C292 1.264 . S
C316 C309 1.403 1_455 S
C316 C317 1.399 . S
C316 H322 0.929 . S
C317 C297 1.449 . S
C317 C316 1.399 . S
C317 H323 0.930 . S
H318 C298 0.931 . S
H319 C299 0.930 . S
H320 C307 0.931 . S
H321 C308 0.929 1_455 S
H322 C316 0.929 . S
H323 C317 0.930 . S
Mn324 O329 2.095 . S
Mn324 O339 2.162 . S
Mn324 O340 2.297 1_655 S
Mn324 O348 2.385 1_656 S
Mn324 O349 2.209 1_655 S
Mn324 O350 2.094 1_556 S
Mn325 O330 2.121 . S
Mn325 N332 2.257 . S
Mn325 N341 2.282 . S
Mn325 O349 2.215 . S
Mn325 O351 2.117 1_455 S
C326 O348 1.234 1_556 S
C326 O349 1.283 . S
C327 O339 1.281 . S
C327 O340 1.236 1_655 S
C328 O350 1.240 . S
C328 O351 1.264 1_554 S
O329 Mn324 2.095 . S
O329 C338 1.250 . S
O330 Mn325 2.121 . S
O330 C338 1.258 1_455 S
C331 N332 1.326 . S
C331 C335 1.460 . S
C331 H337 0.929 . S
N332 Mn325 2.257 . S
N332 C331 1.326 . S
N332 C336 1.362 . S
C333 C334 1.258 . S
C333 C336 1.431 . S
C333 C353 1.449 . S
C334 C333 1.258 . S
C334 C335 1.477 . S
C334 H354 0.931 . S
C335 C331 1.460 . S
C335 C334 1.477 . S
C335 H355 0.930 . S
C336 N332 1.362 . S
C336 C333 1.431 . S
C336 C346 1.476 . S
H337 C331 0.929 . S
C338 O329 1.250 . S
C338 O330 1.258 1_655 S
O339 Mn324 2.162 . S
O339 C327 1.281 . S
O340 Mn324 2.297 1_455 S
O340 C327 1.236 1_455 S
N341 Mn325 2.282 . S
N341 C342 1.328 1_556 S
N341 C346 1.318 . S
C342 N341 1.328 1_554 S
C342 C343 1.457 . S
C342 H347 0.929 . S
C343 C342 1.457 . S
C343 C344 1.291 . S
C343 H356 0.931 . S
C344 C343 1.291 . S
C344 C345 1.373 . S
C344 H357 0.929 . S
C345 C344 1.373 . S
C345 C346 1.396 1_554 S
C345 C352 1.403 1_554 S
C346 C336 1.476 . S
C346 N341 1.318 . S
C346 C345 1.396 1_556 S
H347 C342 0.929 . S
O348 Mn324 2.385 1_454 S
O348 C326 1.234 1_554 S
O349 Mn324 2.209 1_455 S
O349 Mn325 2.215 . S
O349 C326 1.283 . S
O350 Mn324 2.094 1_554 S
O350 C328 1.240 . S
O351 Mn325 2.117 1_655 S
O351 C328 1.264 1_556 S
C352 C345 1.403 1_556 S
C352 C353 1.399 . S
C352 H358 0.929 1_556 S
C353 C333 1.449 . S
C353 C352 1.399 . S
C353 H359 0.930 . S
H354 C334 0.931 . S
H355 C335 0.930 . S
H356 C343 0.931 . S
H357 C344 0.929 . S
H358 C352 0.929 1_554 S
H359 C353 0.930 . S
Mn360 O365 2.095 . S
Mn360 O375 2.162 . S
Mn360 O376 2.297 . S
Mn360 O384 2.385 . S
Mn360 O385 2.209 . S
Mn360 O386 2.094 . S
Mn361 O366 2.121 . S
Mn361 N368 2.257 . S
Mn361 N377 2.282 . S
Mn361 O385 2.215 . S
Mn361 O387 2.117 . S
C362 O384 1.234 . S
C362 O385 1.283 . S
C363 O375 1.281 . S
C363 O376 1.236 . S
C364 O386 1.240 . S
C364 O387 1.264 . S
O365 Mn360 2.095 . S
O365 C374 1.250 . S
O366 Mn361 2.121 . S
O366 C374 1.258 . S
C367 N368 1.326 . S
C367 C371 1.460 . S
C367 H373 0.929 . S
N368 Mn361 2.257 . S
N368 C367 1.326 . S
N368 C372 1.362 . S
C369 C370 1.258 . S
C369 C372 1.431 . S
C369 C389 1.449 . S
C370 C369 1.258 . S
C370 C371 1.477 . S
C370 H390 0.931 . S
C371 C367 1.460 . S
C371 C370 1.477 . S
C371 H391 0.930 . S
C372 N368 1.362 . S
C372 C369 1.431 . S
C372 C382 1.476 . S
H373 C367 0.929 . S
C374 O365 1.250 . S
C374 O366 1.258 . S
O375 Mn360 2.162 . S
O375 C363 1.281 . S
O376 Mn360 2.297 . S
O376 C363 1.236 . S
N377 Mn361 2.282 . S
N377 C378 1.328 . S
N377 C382 1.318 . S
C378 N377 1.328 . S
C378 C379 1.457 . S
C378 H383 0.929 . S
C379 C378 1.457 . S
C379 C380 1.291 . S
C379 H392 0.931 . S
C380 C379 1.291 . S
C380 C381 1.373 . S
C380 H393 0.929 . S
C381 C380 1.373 . S
C381 C382 1.396 . S
C381 C388 1.403 . S
C382 C372 1.476 . S
C382 N377 1.318 . S
C382 C381 1.396 . S
H383 C378 0.929 . S
O384 Mn360 2.385 . S
O384 C362 1.234 . S
O385 Mn360 2.209 . S
O385 Mn361 2.215 . S
O385 C362 1.283 . S
O386 Mn360 2.094 . S
O386 C364 1.240 . S
O387 Mn361 2.117 . S
O387 C364 1.264 . S
C388 C381 1.403 . S
C388 C389 1.399 . S
C388 H394 0.929 . S
C389 C369 1.449 . S
C389 C388 1.399 . S
C389 H395 0.930 . S
H390 C370 0.931 . S
H391 C371 0.930 . S
H392 C379 0.931 . S
H393 C380 0.929 . S
H394 C388 0.929 . S
H395 C389 0.930 . S
Mn396 O401 2.095 . S
Mn396 O411 2.162 . S
Mn396 O412 2.297 1_655 S
Mn396 O420 2.385 1_655 S
Mn396 O421 2.209 1_655 S
Mn396 O422 2.094 . S
Mn397 O402 2.121 . S
Mn397 N404 2.257 . S
Mn397 N413 2.282 . S
Mn397 O421 2.215 . S
Mn397 O423 2.117 1_455 S
C398 O420 1.234 . S
C398 O421 1.283 . S
C399 O411 1.281 . S
C399 O412 1.236 1_655 S
C400 O422 1.240 . S
C400 O423 1.264 . S
O401 Mn396 2.095 . S
O401 C410 1.250 . S
O402 Mn397 2.121 . S
O402 C410 1.258 1_455 S
C403 N404 1.326 . S
C403 C407 1.460 . S
C403 H409 0.929 . S
N404 Mn397 2.257 . S
N404 C403 1.326 . S
N404 C408 1.362 . S
C405 C406 1.258 . S
C405 C408 1.431 . S
C405 C425 1.449 . S
C406 C405 1.258 . S
C406 C407 1.477 . S
C406 H426 0.931 . S
C407 C403 1.460 . S
C407 C406 1.477 . S
C407 H427 0.930 . S
C408 N404 1.362 . S
C408 C405 1.431 . S
C408 C418 1.476 . S
H409 C403 0.929 . S
C410 O401 1.250 . S
C410 O402 1.258 1_655 S
O411 Mn396 2.162 . S
O411 C399 1.281 . S
O412 Mn396 2.297 1_455 S
O412 C399 1.236 1_455 S
N413 Mn397 2.282 . S
N413 C414 1.328 . S
N413 C418 1.318 . S
C414 N413 1.328 . S
C414 C415 1.457 . S
C414 H419 0.929 . S
C415 C414 1.457 . S
C415 C416 1.291 . S
C415 H428 0.931 . S
C416 C415 1.291 . S
C416 C417 1.373 . S
C416 H429 0.929 . S
C417 C416 1.373 . S
C417 C418 1.396 . S
C417 C424 1.403 . S
C418 C408 1.476 . S
C418 N413 1.318 . S
C418 C417 1.396 . S
H419 C414 0.929 . S
O420 Mn396 2.385 1_455 S
O420 C398 1.234 . S
O421 Mn396 2.209 1_455 S
O421 Mn397 2.215 . S
O421 C398 1.283 . S
O422 Mn396 2.094 . S
O422 C400 1.240 . S
O423 Mn397 2.117 1_655 S
O423 C400 1.264 . S
C424 C417 1.403 . S
C424 C425 1.399 . S
C424 H430 0.929 . S
C425 C405 1.449 . S
C425 C424 1.399 . S
C425 H431 0.930 . S
H426 C406 0.931 . S
H427 C407 0.930 . S
H428 C415 0.931 . S
H429 C416 0.929 . S
H430 C424 0.929 . S
H431 C425 0.930 . S
Mn432 O437 2.095 . S
Mn432 O447 2.162 . S
Mn432 O448 2.297 . S
Mn432 O456 2.385 1_554 S
Mn432 O457 2.209 . S
Mn432 O458 2.094 1_554 S
Mn433 O438 2.121 . S
Mn433 N440 2.257 . S
Mn433 N449 2.282 . S
Mn433 O457 2.215 . S
Mn433 O459 2.117 . S
C434 O456 1.234 1_554 S
C434 O457 1.283 . S
C435 O447 1.281 . S
C435 O448 1.236 . S
C436 O458 1.240 . S
C436 O459 1.264 1_556 S
O437 Mn432 2.095 . S
O437 C446 1.250 . S
O438 Mn433 2.121 . S
O438 C446 1.258 . S
C439 N440 1.326 . S
C439 C443 1.460 . S
C439 H445 0.929 . S
N440 Mn433 2.257 . S
N440 C439 1.326 . S
N440 C444 1.362 . S
C441 C442 1.258 . S
C441 C444 1.431 . S
C441 C461 1.449 . S
C442 C441 1.258 . S
C442 C443 1.477 . S
C442 H462 0.931 . S
C443 C439 1.460 . S
C443 C442 1.477 . S
C443 H463 0.930 . S
C444 N440 1.362 . S
C444 C441 1.431 . S
C444 C454 1.476 . S
H445 C439 0.929 . S
C446 O437 1.250 . S
C446 O438 1.258 . S
O447 Mn432 2.162 . S
O447 C435 1.281 . S
O448 Mn432 2.297 . S
O448 C435 1.236 . S
N449 Mn433 2.282 . S
N449 C450 1.328 1_554 S
N449 C454 1.318 . S
C450 N449 1.328 1_556 S
C450 C451 1.457 . S
C450 H455 0.929 . S
C451 C450 1.457 . S
C451 C452 1.291 . S
C451 H464 0.931 . S
C452 C451 1.291 . S
C452 C453 1.373 . S
C452 H465 0.929 . S
C453 C452 1.373 . S
C453 C454 1.396 1_556 S
C453 C460 1.403 1_556 S
C454 C444 1.476 . S
C454 N449 1.318 . S
C454 C453 1.396 1_554 S
H455 C450 0.929 . S
O456 Mn432 2.385 1_556 S
O456 C434 1.234 1_556 S
O457 Mn432 2.209 . S
O457 Mn433 2.215 . S
O457 C434 1.283 . S
O458 Mn432 2.094 1_556 S
O458 C436 1.240 . S
O459 Mn433 2.117 . S
O459 C436 1.264 1_554 S
C460 C453 1.403 1_554 S
C460 C461 1.399 . S
C460 H466 0.929 1_554 S
C461 C441 1.449 . S
C461 C460 1.399 . S
C461 H467 0.930 . S
H462 C442 0.931 . S
H463 C443 0.930 . S
H464 C451 0.931 . S
H465 C452 0.929 . S
H466 C460 0.929 1_556 S
H467 C461 0.930 . S
Mn468 O473 2.095 . S
Mn468 O483 2.162 . S
Mn468 O484 2.297 . S
Mn468 O492 2.385 . S
Mn468 O493 2.209 . S
Mn468 O494 2.094 . S
Mn469 O474 2.121 . S
Mn469 N476 2.257 . S
Mn469 N485 2.282 . S
Mn469 O493 2.215 . S
Mn469 O495 2.117 . S
C470 O492 1.234 . S
C470 O493 1.283 . S
C471 O483 1.281 . S
C471 O484 1.236 . S
C472 O494 1.240 . S
C472 O495 1.264 . S
O473 Mn468 2.095 . S
O473 C482 1.250 . S
O474 Mn469 2.121 . S
O474 C482 1.258 . S
C475 N476 1.326 . S
C475 C479 1.460 . S
C475 H481 0.929 . S
N476 Mn469 2.257 . S
N476 C475 1.326 . S
N476 C480 1.362 . S
C477 C478 1.258 . S
C477 C480 1.431 1_455 S
C477 C497 1.449 . S
C478 C477 1.258 . S
C478 C479 1.477 1_455 S
C478 H498 0.931 . S
C479 C475 1.460 . S
C479 C478 1.477 1_655 S
C479 H499 0.930 . S
C480 N476 1.362 . S
C480 C477 1.431 1_655 S
C480 C490 1.476 . S
H481 C475 0.929 . S
C482 O473 1.250 . S
C482 O474 1.258 . S
O483 Mn468 2.162 . S
O483 C471 1.281 . S
O484 Mn468 2.297 . S
O484 C471 1.236 . S
N485 Mn469 2.282 . S
N485 C486 1.328 . S
N485 C490 1.318 . S
C486 N485 1.328 . S
C486 C487 1.457 . S
C486 H491 0.929 . S
C487 C486 1.457 . S
C487 C488 1.291 . S
C487 H500 0.931 . S
C488 C487 1.291 . S
C488 C489 1.373 . S
C488 H501 0.929 1_655 S
C489 C488 1.373 . S
C489 C490 1.396 . S
C489 C496 1.403 1_655 S
C490 C480 1.476 . S
C490 N485 1.318 . S
C490 C489 1.396 . S
H491 C486 0.929 . S
O492 Mn468 2.385 . S
O492 C470 1.234 . S
O493 Mn468 2.209 . S
O493 Mn469 2.215 . S
O493 C470 1.283 . S
O494 Mn468 2.094 . S
O494 C472 1.240 . S
O495 Mn469 2.117 . S
O495 C472 1.264 . S
C496 C489 1.403 1_455 S
C496 C497 1.399 . S
C496 H502 0.929 . S
C497 C477 1.449 . S
C497 C496 1.399 . S
C497 H503 0.930 . S
H498 C478 0.931 . S
H499 C479 0.930 . S
H500 C487 0.931 . S
H501 C488 0.929 1_455 S
H502 C496 0.929 . S
H503 C497 0.930 . S
Mn504 O509 2.095 . S
Mn504 O519 2.162 . S
Mn504 O520 2.297 . S
Mn504 O528 2.385 . S
Mn504 O529 2.209 . S
Mn504 O530 2.094 . S
Mn505 O510 2.121 . S
Mn505 N512 2.257 . S
Mn505 N521 2.282 . S
Mn505 O529 2.215 . S
Mn505 O531 2.117 . S
C506 O528 1.234 . S
C506 O529 1.283 . S
C507 O519 1.281 . S
C507 O520 1.236 . S
C508 O530 1.240 . S
C508 O531 1.264 . S
O509 Mn504 2.095 . S
O509 C518 1.250 . S
O510 Mn505 2.121 . S
O510 C518 1.258 . S
C511 N512 1.326 . S
C511 C515 1.460 . S
C511 H517 0.929 . S
N512 Mn505 2.257 . S
N512 C511 1.326 . S
N512 C516 1.362 . S
C513 C514 1.258 . S
C513 C516 1.431 . S
C513 C533 1.449 . S
C514 C513 1.258 . S
C514 C515 1.477 . S
C514 H534 0.931 . S
C515 C511 1.460 . S
C515 C514 1.477 . S
C515 H535 0.930 . S
C516 N512 1.362 . S
C516 C513 1.431 . S
C516 C526 1.476 . S
H517 C511 0.929 . S
C518 O509 1.250 . S
C518 O510 1.258 . S
O519 Mn504 2.162 . S
O519 C507 1.281 . S
O520 Mn504 2.297 . S
O520 C507 1.236 . S
N521 Mn505 2.282 . S
N521 C522 1.328 . S
N521 C526 1.318 . S
C522 N521 1.328 . S
C522 C523 1.457 . S
C522 H527 0.929 . S
C523 C522 1.457 . S
C523 C524 1.291 . S
C523 H536 0.931 . S
C524 C523 1.291 . S
C524 C525 1.373 . S
C524 H537 0.929 . S
C525 C524 1.373 . S
C525 C526 1.396 . S
C525 C532 1.403 . S
C526 C516 1.476 . S
C526 N521 1.318 . S
C526 C525 1.396 . S
H527 C522 0.929 . S
O528 Mn504 2.385 . S
O528 C506 1.234 . S
O529 Mn504 2.209 . S
O529 Mn505 2.215 . S
O529 C506 1.283 . S
O530 Mn504 2.094 . S
O530 C508 1.240 . S
O531 Mn505 2.117 . S
O531 C508 1.264 . S
C532 C525 1.403 . S
C532 C533 1.399 . S
C532 H538 0.929 . S
C533 C513 1.449 . S
C533 C532 1.399 . S
C533 H539 0.930 . S
H534 C514 0.931 . S
H535 C515 0.930 . S
H536 C523 0.931 . S
H537 C524 0.929 . S
H538 C532 0.929 . S
H539 C533 0.930 . S
Mn540 O545 2.095 . S
Mn540 O555 2.162 . S
Mn540 O556 2.297 . S
Mn540 O564 2.385 . S
Mn540 O565 2.209 . S
Mn540 O566 2.094 . S
Mn541 O546 2.121 . S
Mn541 N548 2.257 . S
Mn541 N557 2.282 . S
Mn541 O565 2.215 . S
Mn541 O567 2.117 . S
C542 O564 1.234 . S
C542 O565 1.283 . S
C543 O555 1.281 . S
C543 O556 1.236 . S
C544 O566 1.240 . S
C544 O567 1.264 . S
O545 Mn540 2.095 . S
O545 C554 1.250 . S
O546 Mn541 2.121 . S
O546 C554 1.258 . S
C547 N548 1.326 . S
C547 C551 1.460 . S
C547 H553 0.929 . S
N548 Mn541 2.257 . S
N548 C547 1.326 . S
N548 C552 1.362 . S
C549 C550 1.258 . S
C549 C552 1.431 . S
C549 C569 1.449 . S
C550 C549 1.258 . S
C550 C551 1.477 . S
C550 H570 0.931 . S
C551 C547 1.460 . S
C551 C550 1.477 . S
C551 H571 0.930 . S
C552 N548 1.362 . S
C552 C549 1.431 . S
C552 C562 1.476 . S
H553 C547 0.929 . S
C554 O545 1.250 . S
C554 O546 1.258 . S
O555 Mn540 2.162 . S
O555 C543 1.281 . S
O556 Mn540 2.297 . S
O556 C543 1.236 . S
N557 Mn541 2.282 . S
N557 C558 1.328 . S
N557 C562 1.318 . S
C558 N557 1.328 . S
C558 C559 1.457 . S
C558 H563 0.929 . S
C559 C558 1.457 . S
C559 C560 1.291 . S
C559 H572 0.931 . S
C560 C559 1.291 . S
C560 C561 1.373 . S
C560 H573 0.929 . S
C561 C560 1.373 . S
C561 C562 1.396 . S
C561 C568 1.403 . S
C562 C552 1.476 . S
C562 N557 1.318 . S
C562 C561 1.396 . S
H563 C558 0.929 . S
O564 Mn540 2.385 . S
O564 C542 1.234 . S
O565 Mn540 2.209 . S
O565 Mn541 2.215 . S
O565 C542 1.283 . S
O566 Mn540 2.094 . S
O566 C544 1.240 . S
O567 Mn541 2.117 . S
O567 C544 1.264 . S
C568 C561 1.403 . S
C568 C569 1.399 . S
C568 H574 0.929 . S
C569 C549 1.449 . S
C569 C568 1.399 . S
C569 H575 0.930 . S
H570 C550 0.931 . S
H571 C551 0.930 . S
H572 C559 0.931 . S
H573 C560 0.929 . S
H574 C568 0.929 . S
H575 C569 0.930 . S
C576 C577 1.387 . S
C576 H580 0.950 . S
C576 C585 1.390 . S
C577 C576 1.387 . S
C577 C579 1.387 . S
H578 C585 0.950 . S
C579 C577 1.387 . S
C579 C581 1.390 . S
C579 H583 0.950 . S
H580 C576 0.950 . S
C581 C579 1.390 . S
C581 C582 1.387 . S
C581 H584 0.950 . S
C582 C581 1.387 . S
C582 C585 1.387 . S
H583 C579 0.950 . S
H584 C581 0.950 . S
C585 C576 1.390 . S
C585 H578 0.950 . S
C585 C582 1.387 . S
C586 C587 1.387 . S
C586 H590 0.950 . S
C586 C595 1.390 . S
C587 C586 1.387 . S
C587 C589 1.387 . S
H588 C595 0.950 . S
C589 C587 1.387 . S
C589 C591 1.390 . S
C589 H593 0.950 . S
H590 C586 0.950 . S
C591 C589 1.390 . S
C591 C592 1.387 . S
C591 H594 0.950 . S
C592 C591 1.387 . S
C592 C595 1.387 . S
H593 C589 0.950 . S
H594 C591 0.950 . S
C595 C586 1.390 . S
C595 H588 0.950 . S
C595 C592 1.387 . S
C596 C597 1.387 . S
C596 H600 0.950 . S
C596 C605 1.390 . S
C597 C596 1.387 . S
C597 C599 1.387 . S
H598 C605 0.950 . S
C599 C597 1.387 . S
C599 C601 1.390 . S
C599 H603 0.950 . S
H600 C596 0.950 . S
C601 C599 1.390 . S
C601 C602 1.387 . S
C601 H604 0.950 . S
C602 C601 1.387 . S
C602 C605 1.387 . S
H603 C599 0.950 . S
H604 C601 0.950 . S
C605 C596 1.390 . S
C605 H598 0.950 . S
C605 C602 1.387 . S
C606 C607 1.387 . S
C606 H610 0.950 . S
C606 C615 1.390 . S
C607 C606 1.387 . S
C607 C609 1.387 . S
H608 C615 0.950 . S
C609 C607 1.387 . S
C609 C611 1.390 . S
C609 H613 0.950 . S
H610 C606 0.950 . S
C611 C609 1.390 . S
C611 C612 1.387 . S
C611 H614 0.950 . S
C612 C611 1.387 . S
C612 C615 1.387 . S
H613 C609 0.950 . S
H614 C611 0.950 . S
C615 C606 1.390 . S
C615 H608 0.950 . S
C615 C612 1.387 . S
C616 C617 1.387 . S
C616 H620 0.950 . S
C616 C625 1.390 . S
C617 C616 1.387 . S
C617 C619 1.387 . S
H618 C625 0.950 . S
C619 C617 1.387 . S
C619 C621 1.390 . S
C619 H623 0.950 . S
H620 C616 0.950 . S
C621 C619 1.390 . S
C621 C622 1.387 . S
C621 H624 0.950 . S
C622 C621 1.387 . S
C622 C625 1.387 . S
H623 C619 0.950 . S
H624 C621 0.950 . S
C625 C616 1.390 . S
C625 H618 0.950 . S
C625 C622 1.387 . S
C626 C627 1.387 . S
C626 H630 0.950 . S
C626 C635 1.390 . S
C627 C626 1.387 . S
C627 C629 1.387 . S
H628 C635 0.950 . S
C629 C627 1.387 . S
C629 C631 1.390 . S
C629 H633 0.950 . S
H630 C626 0.950 . S
C631 C629 1.390 . S
C631 C632 1.387 . S
C631 H634 0.950 . S
C632 C631 1.387 . S
C632 C635 1.387 . S
H633 C629 0.950 . S
H634 C631 0.950 . S
C635 C626 1.390 . S
C635 H628 0.950 . S
C635 C632 1.387 . S
C636 C637 1.387 . S
C636 H640 0.950 . S
C636 C645 1.390 . S
C637 C636 1.387 . S
C637 C639 1.387 . S
H638 C645 0.950 . S
C639 C637 1.387 . S
C639 C641 1.390 . S
C639 H643 0.950 . S
H640 C636 0.950 . S
C641 C639 1.390 . S
C641 C642 1.387 . S
C641 H644 0.950 . S
C642 C641 1.387 . S
C642 C645 1.387 . S
H643 C639 0.950 . S
H644 C641 0.950 . S
C645 C636 1.390 . S
C645 H638 0.950 . S
C645 C642 1.387 . S
C646 C647 1.387 . S
C646 H650 0.950 . S
C646 C655 1.390 . S
C647 C646 1.387 . S
C647 C649 1.387 . S
H648 C655 0.950 . S
C649 C647 1.387 . S
C649 C651 1.390 . S
C649 H653 0.950 . S
H650 C646 0.950 . S
C651 C649 1.390 . S
C651 C652 1.387 . S
C651 H654 0.950 . S
C652 C651 1.387 . S
C652 C655 1.387 . S
H653 C649 0.950 . S
H654 C651 0.950 . S
C655 C646 1.390 . S
C655 H648 0.950 . S
C655 C652 1.387 . S
C656 C657 1.387 . S
C656 H660 0.950 . S
C656 C665 1.390 . S
C657 C656 1.387 . S
C657 C659 1.387 . S
H658 C665 0.950 . S
C659 C657 1.387 . S
C659 C661 1.390 . S
C659 H663 0.950 . S
H660 C656 0.950 . S
C661 C659 1.390 . S
C661 C662 1.387 . S
C661 H664 0.950 . S
C662 C661 1.387 . S
C662 C665 1.387 . S
H663 C659 0.950 . S
H664 C661 0.950 . S
C665 C656 1.390 . S
C665 H658 0.950 . S
C665 C662 1.387 . S
C666 C667 1.387 1_655 S
C666 H670 0.950 . S
C666 C675 1.390 1_545 S
C667 C666 1.387 1_455 S
C667 C669 1.387 . S
H668 C675 0.950 . S
C669 C667 1.387 . S
C669 C671 1.390 1_545 S
C669 H673 0.950 . S
H670 C666 0.950 . S
C671 C669 1.390 1_565 S
C671 C672 1.387 . S
C671 H674 0.950 . S
C672 C671 1.387 . S
C672 C675 1.387 1_455 S
H673 C669 0.950 . S
H674 C671 0.950 . S
C675 C666 1.390 1_565 S
C675 H668 0.950 . S
C675 C672 1.387 1_655 S
C676 C677 1.387 . S
C676 H680 0.950 . S
C676 C685 1.390 1_556 S
C677 C676 1.387 . S
C677 C679 1.387 . S
H678 C685 0.950 . S
C679 C677 1.387 . S
C679 C681 1.390 1_556 S
C679 H683 0.950 . S
H680 C676 0.950 . S
C681 C679 1.390 1_554 S
C681 C682 1.387 . S
C681 H684 0.950 . S
C682 C681 1.387 . S
C682 C685 1.387 . S
H683 C679 0.950 . S
H684 C681 0.950 . S
C685 C676 1.390 1_554 S
C685 H678 0.950 . S
C685 C682 1.387 . S
C686 C687 1.387 . S
C686 H690 0.950 . S
C686 C695 1.390 1_565 S
C687 C686 1.387 . S
C687 C689 1.387 . S
H688 C695 0.950 . S
C689 C687 1.387 . S
C689 C691 1.390 1_565 S
C689 H693 0.950 . S
H690 C686 0.950 . S
C691 C689 1.390 1_545 S
C691 C692 1.387 . S
C691 H694 0.950 . S
C692 C691 1.387 . S
C692 C695 1.387 . S
H693 C689 0.950 . S
H694 C691 0.950 . S
C695 C686 1.390 1_545 S
C695 H688 0.950 . S
C695 C692 1.387 . S
C696 C697 1.387 . S
C696 H700 0.950 . S
C696 C705 1.390 . S
C697 C696 1.387 . S
C697 C699 1.387 . S
H698 C705 0.950 . S
C699 C697 1.387 . S
C699 C701 1.390 . S
C699 H703 0.950 . S
H700 C696 0.950 . S
C701 C699 1.390 . S
C701 C702 1.387 . S
C701 H704 0.950 . S
C702 C701 1.387 . S
C702 C705 1.387 . S
H703 C699 0.950 . S
H704 C701 0.950 . S
C705 C696 1.390 . S
C705 H698 0.950 . S
C705 C702 1.387 . S
C706 C707 1.387 . S
C706 H710 0.950 . S
C706 C715 1.390 1_655 S
C707 C706 1.387 . S
C707 C709 1.387 . S
H708 C715 0.950 . S
C709 C707 1.387 . S
C709 C711 1.390 1_655 S
C709 H713 0.950 . S
H710 C706 0.950 . S
C711 C709 1.390 1_455 S
C711 C712 1.387 . S
C711 H714 0.950 . S
C712 C711 1.387 . S
C712 C715 1.387 . S
H713 C709 0.950 . S
H714 C711 0.950 . S
C715 C706 1.390 1_455 S
C715 H708 0.950 . S
C715 C712 1.387 . S
C716 C717 1.387 . S
C716 H720 0.950 . S
C716 C725 1.390 1_655 S
C717 C716 1.387 . S
C717 C719 1.387 . S
H718 C725 0.950 . S
C719 C717 1.387 . S
C719 C721 1.390 1_655 S
C719 H723 0.950 . S
H720 C716 0.950 . S
C721 C719 1.390 1_455 S
C721 C722 1.387 . S
C721 H724 0.950 . S
C722 C721 1.387 . S
C722 C725 1.387 . S
H723 C719 0.950 . S
H724 C721 0.950 . S
C725 C716 1.390 1_455 S
C725 H718 0.950 . S
C725 C722 1.387 . S
C726 C727 1.387 1_556 S
C726 H730 0.950 . S
C726 C735 1.390 . S
C727 C726 1.387 1_554 S
C727 C729 1.387 . S
H728 C735 0.950 . S
C729 C727 1.387 . S
C729 C731 1.390 . S
C729 H733 0.950 . S
H730 C726 0.950 . S
C731 C729 1.390 . S
C731 C732 1.387 . S
C731 H734 0.950 . S
C732 C731 1.387 . S
C732 C735 1.387 1_554 S
H733 C729 0.950 . S
H734 C731 0.950 . S
C735 C726 1.390 . S
C735 H728 0.950 . S
C735 C732 1.387 1_556 S
C736 C737 1.387 . S
C736 H740 0.950 . S
C736 C745 1.390 . S
C737 C736 1.387 . S
C737 C739 1.387 . S
H738 C745 0.950 . S
C739 C737 1.387 . S
C739 C741 1.390 . S
C739 H743 0.950 . S
H740 C736 0.950 . S
C741 C739 1.390 . S
C741 C742 1.387 . S
C741 H744 0.950 . S
C742 C741 1.387 . S
C742 C745 1.387 . S
H743 C739 0.950 . S
H744 C741 0.950 . S
C745 C736 1.390 . S
C745 H738 0.950 . S
C745 C742 1.387 . S
C746 C747 1.387 . S
C746 H750 0.950 . S
C746 C755 1.390 . S
C747 C746 1.387 . S
C747 C749 1.387 . S
H748 C755 0.950 . S
C749 C747 1.387 . S
C749 C751 1.390 . S
C749 H753 0.950 . S
H750 C746 0.950 . S
C751 C749 1.390 . S
C751 C752 1.387 . S
C751 H754 0.950 . S
C752 C751 1.387 . S
C752 C755 1.387 . S
H753 C749 0.950 . S
H754 C751 0.950 . S
C755 C746 1.390 . S
C755 H748 0.950 . S
C755 C752 1.387 . S
C756 C757 1.387 . S
C756 H760 0.950 . S
C756 C765 1.390 1_455 S
C757 C756 1.387 . S
C757 C759 1.387 . S
H758 C765 0.950 . S
C759 C757 1.387 . S
C759 C761 1.390 1_455 S
C759 H763 0.950 . S
H760 C756 0.950 . S
C761 C759 1.390 1_655 S
C761 C762 1.387 . S
C761 H764 0.950 . S
C762 C761 1.387 . S
C762 C765 1.387 . S
H763 C759 0.950 . S
H764 C761 0.950 . S
C765 C756 1.390 1_655 S
C765 H758 0.950 . S
C765 C762 1.387 . S
C766 C767 1.387 . S
C766 H770 0.950 . S
C766 C775 1.390 1_455 S
C767 C766 1.387 . S
C767 C769 1.387 1_556 S
H768 C775 0.950 . S
C769 C767 1.387 1_554 S
C769 C771 1.390 1_455 S
C769 H773 0.950 . S
H770 C766 0.950 . S
C771 C769 1.390 1_655 S
C771 C772 1.387 1_554 S
C771 H774 0.950 . S
C772 C771 1.387 1_556 S
C772 C775 1.387 . S
H773 C769 0.950 . S
H774 C771 0.950 . S
C775 C766 1.390 1_655 S
C775 H768 0.950 . S
C775 C772 1.387 . S
C776 C777 1.387 . S
C776 H780 0.950 . S
C776 C785 1.390 . S
C777 C776 1.387 . S
C777 C779 1.387 . S
H778 C785 0.950 . S
C779 C777 1.387 . S
C779 C781 1.390 . S
C779 H783 0.950 . S
H780 C776 0.950 . S
C781 C779 1.390 . S
C781 C782 1.387 . S
C781 H784 0.950 . S
C782 C781 1.387 . S
C782 C785 1.387 . S
H783 C779 0.950 . S
H784 C781 0.950 . S
C785 C776 1.390 . S
C785 H778 0.950 . S
C785 C782 1.387 . S
C786 C787 1.387 . S
C786 H790 0.950 . S
C786 C795 1.390 1_545 S
C787 C786 1.387 . S
C787 C789 1.387 . S
H788 C795 0.950 . S
C789 C787 1.387 . S
C789 C791 1.390 1_545 S
C789 H793 0.950 . S
H790 C786 0.950 . S
C791 C789 1.390 1_565 S
C791 C792 1.387 . S
C791 H794 0.950 . S
C792 C791 1.387 . S
C792 C795 1.387 . S
H793 C789 0.950 . S
H794 C791 0.950 . S
C795 C786 1.390 1_565 S
C795 H788 0.950 . S
C795 C792 1.387 . S
C796 C797 1.387 . S
C796 H800 0.950 . S
C796 C805 1.390 . S
C797 C796 1.387 . S
C797 C799 1.387 . S
H798 C805 0.950 . S
C799 C797 1.387 . S
C799 C801 1.390 . S
C799 H803 0.950 . S
H800 C796 0.950 . S
C801 C799 1.390 . S
C801 C802 1.387 1_554 S
C801 H804 0.950 . S
C802 C801 1.387 1_556 S
C802 C805 1.387 1_556 S
H803 C799 0.950 . S
H804 C801 0.950 . S
C805 C796 1.390 . S
C805 H798 0.950 . S
C805 C802 1.387 1_554 S
C806 C807 1.387 . S
C806 H810 0.950 . S
C806 C815 1.390 1_545 S
C807 C806 1.387 . S
C807 C809 1.387 . S
H808 C815 0.950 . S
C809 C807 1.387 . S
C809 C811 1.390 1_545 S
C809 H813 0.950 . S
H810 C806 0.950 . S
C811 C809 1.390 1_565 S
C811 C812 1.387 . S
C811 H814 0.950 . S
C812 C811 1.387 . S
C812 C815 1.387 . S
H813 C809 0.950 . S
H814 C811 0.950 . S
C815 C806 1.390 1_565 S
C815 H808 0.950 . S
C815 C812 1.387 . S
C816 C817 1.387 1_554 S
C816 H820 0.950 . S
C816 C825 1.390 . S
C817 C816 1.387 1_556 S
C817 C819 1.388 1_565 S
H818 C825 0.950 . S
C819 C817 1.388 1_545 S
C819 C821 1.390 . S
C819 H823 0.950 . S
H820 C816 0.950 . S
C821 C819 1.390 . S
C821 C822 1.387 1_546 S
C821 H824 0.950 . S
C822 C821 1.387 1_564 S
C822 C825 1.387 . S
H823 C819 0.950 . S
H824 C821 0.950 . S
C825 C816 1.390 . S
C825 H818 0.950 . S
C825 C822 1.387 . S
C826 C827 1.387 . S
C826 H830 0.950 . S
C826 C835 1.390 . S
C827 C826 1.387 . S
C827 C829 1.387 . S
H828 C835 0.950 . S
C829 C827 1.387 . S
C829 C831 1.390 . S
C829 H833 0.950 . S
H830 C826 0.950 . S
C831 C829 1.390 . S
C831 C832 1.387 . S
C831 H834 0.950 . S
C832 C831 1.387 . S
C832 C835 1.387 . S
H833 C829 0.950 . S
H834 C831 0.950 . S
C835 C826 1.390 . S
C835 H828 0.950 . S
C835 C832 1.387 . S
C836 C837 1.387 . S
C836 H840 0.950 . S
C836 C845 1.390 . S
C837 C836 1.387 . S
C837 C839 1.387 . S
H838 C845 0.950 . S
C839 C837 1.387 . S
C839 C841 1.390 . S
C839 H843 0.950 . S
H840 C836 0.950 . S
C841 C839 1.390 . S
C841 C842 1.387 . S
C841 H844 0.950 . S
C842 C841 1.387 . S
C842 C845 1.387 . S
H843 C839 0.950 . S
H844 C841 0.950 . S
C845 C836 1.390 . S
C845 H838 0.950 . S
C845 C842 1.387 . S
C846 C847 1.387 . S
C846 H850 0.950 . S
C846 C855 1.390 1_556 S
C847 C846 1.387 . S
C847 C849 1.387 . S
H848 C855 0.950 . S
C849 C847 1.387 . S
C849 C851 1.390 1_556 S
C849 H853 0.950 . S
H850 C846 0.950 . S
C851 C849 1.390 1_554 S
C851 C852 1.387 . S
C851 H854 0.950 . S
C852 C851 1.387 . S
C852 C855 1.387 . S
H853 C849 0.950 . S
H854 C851 0.950 . S
C855 C846 1.390 1_554 S
C855 H848 0.950 . S
C855 C852 1.387 . S
C856 C857 1.387 . S
C856 H860 0.950 . S
C856 C865 1.390 . S
C857 C856 1.387 . S
C857 C859 1.387 . S
H858 C865 0.950 . S
C859 C857 1.387 . S
C859 C861 1.390 . S
C859 H863 0.950 . S
H860 C856 0.950 . S
C861 C859 1.390 . S
C861 C862 1.387 . S
C861 H864 0.950 . S
C862 C861 1.387 . S
C862 C865 1.387 . S
H863 C859 0.950 . S
H864 C861 0.950 . S
C865 C856 1.390 . S
C865 H858 0.950 . S
C865 C862 1.387 . S
C866 C867 1.387 . S
C866 H870 0.950 . S
C866 C875 1.390 . S
C867 C866 1.387 . S
C867 C869 1.387 . S
H868 C875 0.950 . S
C869 C867 1.387 . S
C869 C871 1.390 . S
C869 H873 0.950 . S
H870 C866 0.950 . S
C871 C869 1.390 . S
C871 C872 1.387 . S
C871 H874 0.950 . S
C872 C871 1.387 . S
C872 C875 1.387 . S
H873 C869 0.950 . S
H874 C871 0.950 . S
C875 C866 1.390 . S
C875 H868 0.950 . S
C875 C872 1.387 . S
C876 C877 1.387 1_455 S
C876 H880 0.950 . S
C876 C885 1.390 . S
C877 C876 1.387 1_655 S
C877 C879 1.387 . S
H878 C885 0.950 . S
C879 C877 1.387 . S
C879 C881 1.390 . S
C879 H883 0.950 . S
H880 C876 0.950 . S
C881 C879 1.390 . S
C881 C882 1.387 . S
C881 H884 0.950 . S
C882 C881 1.387 . S
C882 C885 1.387 1_655 S
H883 C879 0.950 . S
H884 C881 0.950 . S
C885 C876 1.390 . S
C885 H878 0.950 . S
C885 C882 1.387 1_455 S
C886 C887 1.387 1_565 S
C886 H890 0.950 . S
C886 C895 1.390 . S
C887 C886 1.387 1_545 S
C887 C889 1.387 . S
H888 C895 0.950 . S
C889 C887 1.387 . S
C889 C891 1.390 . S
C889 H893 0.950 . S
H890 C886 0.950 . S
C891 C889 1.390 . S
C891 C892 1.387 . S
C891 H894 0.950 . S
C892 C891 1.387 . S
C892 C895 1.387 1_545 S
H893 C889 0.950 . S
H894 C891 0.950 . S
C895 C886 1.390 . S
C895 H888 0.950 . S
C895 C892 1.387 1_565 S
C577 C4 1.747 . S
C582 C256 1.749 . S
C587 C40 1.747 . S
C592 C148 1.748 . S
C597 C184 1.739 . S
C602 C76 1.740 . S
C607 C112 1.740 . S
C612 C220 1.741 . S
C617 C292 1.740 . S
C622 C436 1.739 . S
C627 C328 1.748 . S
C632 C508 1.748 . S
C637 C400 1.748 . S
C642 C364 1.748 . S
C647 C544 1.739 . S
C652 C472 1.740 . S
C657 C3 1.339 . S
C662 C219 1.339 . S
C667 C266 1.250 . S
C672 C50 1.250 . S
C677 C75 1.341 . S
C682 C147 1.341 . S
C687 C194 1.242 . S
C692 C122 1.242 . S
C697 C2 1.466 . S
C702 C506 1.466 . S
C707 C399 1.339 . S
C712 C39 1.338 . S
C717 C470 1.447 . S
C722 C74 1.447 . S
C727 C435 1.340 . S
C732 C111 1.340 . S
C737 C362 1.465 . S
C742 C146 1.465 . S
C747 C183 1.338 . S
C752 C543 1.338 . S
C757 C218 1.446 . S
C762 C290 1.446 . S
C767 C255 1.339 . S
C772 C327 1.338 . S
C777 C14 1.246 . S
C782 C158 1.246 . S
C787 C302 1.250 . S
C792 C482 1.250 . S
C797 C434 1.439 . S
C802 C326 1.435 . S
C807 C518 1.245 . S
C812 C374 1.245 . S
C817 C254 1.437 . S
C822 C110 1.434 . S
C827 C86 1.250 . S
C832 C230 1.250 . S
C837 C398 1.437 . S
C842 C542 1.435 . S
C847 C471 1.339 . S
C852 C363 1.339 . S
C857 C554 1.243 . S
C862 C446 1.243 . S
C867 C507 1.341 . S
C872 C291 1.341 . S
C877 C410 1.250 . S
C882 C338 1.250 . S
C887 C38 1.437 . S
C892 C182 1.435 . S
