# Generated by pormake.
# Topology crb, (4)-cn, num edge types: 1
# Building blocks:
#     Node 0, Type 0, BuildingBlock: ICAMEG_clean_sbu_1, # of connection points: 4
#     Node 1, Type 0, BuildingBlock: ICAMEG_clean_sbu_1, # of connection points: 4
#     Node 2, Type 0, BuildingBlock: ICAMEG_clean_sbu_1, # of connection points: 4
#     Node 3, Type 0, BuildingBlock: ICAMEG_clean_sbu_1, # of connection points: 4
#     Node 4, Type 0, BuildingBlock: ICAMEG_clean_sbu_1, # of connection points: 4
#     Node 5, Type 0, BuildingBlock: ICAMEG_clean_sbu_1, # of connection points: 4
#     Node 6, Type 0, BuildingBlock: ICAMEG_clean_sbu_1, # of connection points: 4
#     Node 7, Type 0, BuildingBlock: ICAMEG_clean_sbu_1, # of connection points: 4
#     Edge 8, Type (0, 0), BuildingBlock: XIVTED_clean_linker_0, # of connection points: 2
#     Edge 9, Type (0, 0), BuildingBlock: XIVTED_clean_linker_0, # of connection points: 2
#     Edge 10, Type (0, 0), BuildingBlock: XIVTED_clean_linker_0, # of connection points: 2
#     Edge 11, Type (0, 0), BuildingBlock: XIVTED_clean_linker_0, # of connection points: 2
#     Edge 12, Type (0, 0), BuildingBlock: XIVTED_clean_linker_0, # of connection points: 2
#     Edge 13, Type (0, 0), BuildingBlock: XIVTED_clean_linker_0, # of connection points: 2
#     Edge 14, Type (0, 0), BuildingBlock: XIVTED_clean_linker_0, # of connection points: 2
#     Edge 15, Type (0, 0), BuildingBlock: XIVTED_clean_linker_0, # of connection points: 2
#     Edge 16, Type (0, 0), BuildingBlock: XIVTED_clean_linker_0, # of connection points: 2
#     Edge 17, Type (0, 0), BuildingBlock: XIVTED_clean_linker_0, # of connection points: 2
#     Edge 18, Type (0, 0), BuildingBlock: XIVTED_clean_linker_0, # of connection points: 2
#     Edge 19, Type (0, 0), BuildingBlock: XIVTED_clean_linker_0, # of connection points: 2
#     Edge 20, Type (0, 0), BuildingBlock: XIVTED_clean_linker_0, # of connection points: 2
#     Edge 21, Type (0, 0), BuildingBlock: XIVTED_clean_linker_0, # of connection points: 2
#     Edge 22, Type (0, 0), BuildingBlock: XIVTED_clean_linker_0, # of connection points: 2
#     Edge 23, Type (0, 0), BuildingBlock: XIVTED_clean_linker_0, # of connection points: 2
# Relax obj value: 0.184
# Max RMSD: 0.234
# Mean RMSD: 0.234
data_MOF--net-crb--node1-ICAMEG_clean_sbu_1--edge1-XIVTED_clean_linker_0
_symmetry_space_group_name_H-M    P1
_symmetry_Int_Tables_number       1
_symmetry_cell_setting            triclinic
loop_
_symmetry_equiv_pos_as_xyz
'x, y, z'
_cell_length_a     45.293006
_cell_length_b     45.310869
_cell_length_c     25.33521
_cell_angle_alpha  90.187827
_cell_angle_beta   89.881364
_cell_angle_gamma 90.0
loop_
_atom_site_label
_atom_site_type_symbol
_atom_site_fract_x
_atom_site_fract_y
_atom_site_fract_z
_atom_type_partial_charge
Co0 Co 0.33963 0.34249 0.95293 0.0
Co1 Co 0.33547 0.34552 0.08849 0.0
O2 O 0.32258 0.32841 0.02032 0.0
C3 C 0.2753 0.32894 0.92503 0.0
O4 O 0.26777 0.32359 0.97412 0.0
C5 C 0.32498 0.28042 0.11425 0.0
O6 O 0.32039 0.273 0.06484 0.0
O7 O 0.37726 0.33538 0.07158 0.0
O8 O 0.37898 0.34881 0.98675 0.0
H9 H 0.40135 0.40788 0.20278 0.0
H10 H 0.31007 0.28382 0.95826 0.0
O11 O 0.30153 0.33676 0.91358 0.0
H12 H 0.41036 0.26347 0.89192 0.0
H13 H 0.35716 0.34189 0.7563 0.0
H14 H 0.37853 0.39261 0.92444 0.0
H15 H 0.39479 0.31436 0.91189 0.0
H16 H 0.33644 0.32333 0.83987 0.0
O17 O 0.33122 0.30694 0.12665 0.0
H18 H 0.38365 0.38636 0.11913 0.0
H19 H 0.31579 0.34058 0.201 0.0
H20 H 0.39991 0.41175 0.84178 0.0
H21 H 0.3245 0.23269 0.93797 0.0
H22 H 0.38926 0.38634 0.75692 0.0
H23 H 0.37504 0.22216 0.90467 0.0
O24 O 0.3276 0.3837 0.97054 0.0
H25 H 0.22638 0.32532 0.10075 0.0
H26 H 0.30463 0.39906 0.1302 0.0
H27 H 0.25296 0.41213 0.14952 0.0
H28 H 0.21337 0.37506 0.13507 0.0
H29 H 0.27827 0.31339 0.08118 0.0
H30 H 0.33295 0.36142 0.28554 0.0
H31 H 0.37594 0.39543 0.28678 0.0
O32 O 0.34025 0.38535 0.05581 0.0
C33 C 0.3916 0.34148 0.02963 0.0
C34 C 0.38254 0.39315 0.20274 0.0
C35 C 0.34418 0.36704 0.24919 0.0
N36 N 0.34861 0.36236 0.15504 0.0
C37 C 0.37237 0.38093 0.15547 0.0
C38 C 0.33462 0.35524 0.20118 0.0
C39 C 0.3683 0.38613 0.24986 0.0
C40 C 0.33194 0.2796 0.94322 0.0
N41 N 0.35143 0.30225 0.93601 0.0
C42 C 0.34006 0.2505 0.93205 0.0
C43 C 0.36843 0.2446 0.91346 0.0
C44 C 0.38826 0.26776 0.90636 0.0
C45 C 0.37934 0.29656 0.91797 0.0
C46 C 0.362 0.35314 0.79304 0.0
C47 C 0.37389 0.38134 0.88772 0.0
C48 C 0.35025 0.34278 0.84051 0.0
N49 N 0.35637 0.35678 0.88713 0.0
C50 C 0.38602 0.39232 0.84102 0.0
C51 C 0.38001 0.37807 0.79341 0.0
C52 C 0.33284 0.39797 1.01299 0.0
C53 C 0.24344 0.34164 0.1074 0.0
C54 C 0.28759 0.38287 0.12337 0.0
C55 C 0.25833 0.39037 0.13462 0.0
C56 C 0.23614 0.36956 0.12656 0.0
N57 N 0.29464 0.35538 0.10477 0.0
C58 C 0.27295 0.33494 0.09662 0.0
Co59 Co 0.66575 0.33704 0.09375 0.0
Co60 Co 0.66951 0.33942 0.95806 0.0
O61 O 0.68261 0.32268 0.02621 0.0
C62 C 0.73021 0.32384 0.12147 0.0
O63 O 0.7377 0.31763 0.07262 0.0
C64 C 0.68095 0.27437 0.93167 0.0
O65 O 0.68697 0.26717 0.98061 0.0
O66 O 0.62768 0.32953 0.97532 0.0
O67 O 0.62629 0.34294 0.06034 0.0
H68 H 0.60347 0.40135 0.84398 0.0
H69 H 0.69557 0.27849 0.08791 0.0
O70 O 0.70399 0.33184 0.1327 0.0
H71 H 0.5958 0.25792 0.15622 0.0
H72 H 0.64904 0.3374 0.29061 0.0
H73 H 0.62657 0.38703 0.12248 0.0
H74 H 0.61098 0.30879 0.1358 0.0
H75 H 0.66953 0.31852 0.20687 0.0
O76 O 0.67358 0.30065 0.91999 0.0
H77 H 0.62133 0.38024 0.92759 0.0
H78 H 0.68884 0.33381 0.84539 0.0
H79 H 0.6054 0.40646 0.20531 0.0
H80 H 0.68153 0.22737 0.10857 0.0
H81 H 0.61661 0.38161 0.29017 0.0
H82 H 0.63126 0.21674 0.1429 0.0
O83 O 0.67743 0.37828 0.07587 0.0
H84 H 0.77876 0.31963 0.94582 0.0
H85 H 0.70009 0.39268 0.91543 0.0
H86 H 0.75166 0.40585 0.89569 0.0
H87 H 0.79147 0.36913 0.91059 0.0
H88 H 0.72701 0.30761 0.9658 0.0
H89 H 0.67151 0.35422 0.7609 0.0
H90 H 0.62861 0.38837 0.75984 0.0
O91 O 0.66483 0.37934 0.99057 0.0
C92 C 0.61351 0.33588 1.01741 0.0
C93 C 0.62223 0.38656 0.84395 0.0
C94 C 0.66039 0.36008 0.79731 0.0
N95 N 0.65621 0.35593 0.89152 0.0
C96 C 0.63249 0.37457 0.89119 0.0
C97 C 0.67004 0.34852 0.8453 0.0
C98 C 0.63633 0.37924 0.79674 0.0
C99 C 0.67382 0.27423 0.10338 0.0
N100 N 0.65427 0.29681 0.11097 0.0
C101 C 0.66591 0.24514 0.11477 0.0
C102 C 0.63769 0.23917 0.13393 0.0
C103 C 0.61779 0.26226 0.14136 0.0
C104 C 0.62649 0.29106 0.12951 0.0
C105 C 0.64396 0.3484 0.25387 0.0
C106 C 0.63145 0.37599 0.15919 0.0
C107 C 0.65557 0.33787 0.20631 0.0
N108 N 0.64915 0.35157 0.15969 0.0
C109 C 0.61944 0.38714 0.206 0.0
C110 C 0.62576 0.3732 0.2536 0.0
C111 C 0.67209 0.39225 0.03331 0.0
C112 C 0.76161 0.33579 0.9389 0.0
C113 C 0.71722 0.37661 0.92238 0.0
C114 C 0.74642 0.38418 0.91092 0.0
C115 C 0.76873 0.36357 0.91925 0.0
N116 N 0.71032 0.34924 0.9414 0.0
C117 C 0.73215 0.32901 0.94988 0.0
Co118 Co 0.66983 0.66721 0.0979 0.0
Co119 Co 0.66682 0.6686 0.96238 0.0
O120 O 0.6832 0.6837 0.02963 0.0
C121 C 0.68114 0.73237 0.12325 0.0
O122 O 0.68734 0.73927 0.07419 0.0
C123 C 0.73106 0.68299 0.93467 0.0
O124 O 0.73829 0.68901 0.98367 0.0
O125 O 0.6794 0.6278 0.98119 0.0
O126 O 0.6654 0.62709 0.0659 0.0
H127 H 0.60847 0.59704 0.8522 0.0
H128 H 0.72732 0.69907 0.09 0.0
O129 O 0.67366 0.70617 0.13538 0.0
H130 H 0.75179 0.60131 0.16222 0.0
H131 H 0.67084 0.65339 0.2953 0.0
H132 H 0.62162 0.62639 0.12856 0.0
H133 H 0.7003 0.61427 0.14182 0.0
H134 H 0.68853 0.67346 0.21065 0.0
O135 O 0.70503 0.67458 0.92325 0.0
H136 H 0.62901 0.61745 0.93462 0.0
H137 H 0.67026 0.68662 0.84894 0.0
H138 H 0.60342 0.6056 0.21233 0.0
H139 H 0.77899 0.68725 0.11062 0.0
H140 H 0.62807 0.61909 0.2965 0.0
H141 H 0.79161 0.638 0.14691 0.0
O142 O 0.62807 0.67699 0.08004 0.0
H143 H 0.68001 0.7785 0.94548 0.0
H144 H 0.61143 0.69528 0.92002 0.0
H145 H 0.59506 0.74566 0.89881 0.0
H146 H 0.62951 0.78775 0.91124 0.0
H147 H 0.69526 0.72784 0.96693 0.0
H148 H 0.65036 0.66678 0.7656 0.0
H149 H 0.61911 0.62174 0.76689 0.0
O150 O 0.62744 0.66191 0.99594 0.0
C151 C 0.67351 0.614 0.02374 0.0
C152 C 0.622 0.61671 0.85114 0.0
C153 C 0.64554 0.65584 0.80253 0.0
N154 N 0.65071 0.65329 0.89674 0.0
C155 C 0.63366 0.62842 0.89771 0.0
C156 C 0.65682 0.66691 0.84987 0.0
C157 C 0.628 0.63057 0.80328 0.0
C158 C 0.73241 0.67777 0.10637 0.0
N159 N 0.71057 0.65756 0.11507 0.0
C160 C 0.76183 0.67111 0.11771 0.0
C161 C 0.76891 0.64347 0.13797 0.0
C162 C 0.74659 0.62288 0.14652 0.0
C163 C 0.71743 0.63032 0.13468 0.0
C164 C 0.65994 0.64732 0.25888 0.0
C165 C 0.63257 0.63227 0.16497 0.0
C166 C 0.66979 0.65869 0.2108 0.0
N167 N 0.65622 0.651 0.16457 0.0
C168 C 0.62212 0.62047 0.21231 0.0
C169 C 0.63595 0.62807 0.25952 0.0
C170 C 0.61425 0.66978 0.03812 0.0
C171 C 0.66482 0.76034 0.93967 0.0
C172 C 0.62651 0.71342 0.92592 0.0
C173 C 0.61714 0.74194 0.91363 0.0
C174 C 0.63648 0.76553 0.92056 0.0
N175 N 0.65441 0.70844 0.94444 0.0
C176 C 0.67341 0.73151 0.95153 0.0
Co177 Co 0.34006 0.67163 0.94067 0.0
Co178 Co 0.33674 0.67584 0.07584 0.0
O179 O 0.32432 0.68943 1.00565 0.0
C180 C 0.33497 0.737 0.91604 0.0
O181 O 0.33171 0.744 0.96596 0.0
C182 C 0.27938 0.6692 0.13257 0.0
O183 O 0.28559 0.6412 0.13996 0.0
O184 O 0.32468 0.6346 0.05745 0.0
O185 O 0.34147 0.63192 0.97438 0.0
H186 H 0.3858 0.60634 0.20251 0.0
H187 H 0.28411 0.70586 0.93992 0.0
O188 O 0.33902 0.71029 0.90217 0.0
H189 H 0.2585 0.60848 0.86588 0.0
H190 H 0.34786 0.65537 0.74417 0.0
H191 H 0.38793 0.62874 0.91846 0.0
H192 H 0.30948 0.61943 0.89329 0.0
H193 H 0.327 0.67715 0.82537 0.0
O194 O 0.2961 0.68502 0.10355 0.0
H195 H 0.37052 0.62445 0.11506 0.0
H196 H 0.32847 0.69836 0.18629 0.0
H197 H 0.40926 0.60624 0.83825 0.0
H198 H 0.23294 0.69603 0.9123 0.0
H199 H 0.3892 0.61953 0.75031 0.0
H200 H 0.2198 0.64701 0.87504 0.0
O201 O 0.38097 0.68012 0.96487 0.0
H202 H 0.32253 0.78572 0.08804 0.0
H203 H 0.39085 0.70339 0.12243 0.0
H204 H 0.40628 0.75421 0.14332 0.0
H205 H 0.37194 0.79584 0.12639 0.0
H206 H 0.30824 0.73458 0.0667 0.0
H207 H 0.34321 0.68099 0.27448 0.0
H208 H 0.37211 0.63466 0.28302 0.0
O209 O 0.37786 0.66742 0.05025 0.0
C210 C 0.33176 0.61984 1.0163 0.0
C211 C 0.37319 0.62654 0.19931 0.0
C212 C 0.34929 0.66843 0.2397 0.0
N213 N 0.34855 0.66239 0.14548 0.0
C214 C 0.36447 0.63691 0.14988 0.0
C215 C 0.34097 0.67814 0.18964 0.0
C216 C 0.36551 0.64245 0.24446 0.0
C217 C 0.27872 0.68459 0.92328 0.0
N218 N 0.29994 0.66336 0.91784 0.0
C219 C 0.24963 0.6791 0.90791 0.0
C220 C 0.24225 0.65158 0.88708 0.0
C221 C 0.26395 0.62995 0.88196 0.0
C222 C 0.2928 0.63625 0.89774 0.0
C223 C 0.35676 0.64937 0.78227 0.0
C224 C 0.37898 0.63453 0.88037 0.0
C225 C 0.3451 0.6617 0.82841 0.0
N226 N 0.35612 0.6541 0.87671 0.0
C227 C 0.39119 0.62177 0.83507 0.0
C228 C 0.37995 0.62926 0.78574 0.0
C229 C 0.39285 0.67375 1.00906 0.0
C230 C 0.3377 0.76778 0.09558 0.0
C231 C 0.37596 0.72136 0.11411 0.0
C232 C 0.38473 0.75011 0.12643 0.0
C233 C 0.36544 0.77344 0.11702 0.0
N234 N 0.34873 0.71595 0.09295 0.0
C235 C 0.3297 0.73874 0.08375 0.0
Co236 Co 0.84323 0.83502 0.45814 0.0
Co237 Co 0.84014 0.83889 0.59376 0.0
O238 O 0.82596 0.82213 0.52612 0.0
C239 C 0.77807 0.82484 0.43158 0.0
O240 O 0.77052 0.81941 0.48064 0.0
C241 C 0.82575 0.7747 0.62131 0.0
O242 O 0.82003 0.76729 0.57227 0.0
O243 O 0.88131 0.82661 0.57623 0.0
O244 O 0.8831 0.83928 0.491 0.0
H245 H 0.90989 0.89824 0.70583 0.0
H246 H 0.81061 0.77805 0.46518 0.0
O247 O 0.8046 0.83136 0.4198 0.0
H248 H 0.90899 0.75209 0.396 0.0
H249 H 0.85903 0.83295 0.26108 0.0
H250 H 0.88465 0.88279 0.42813 0.0
H251 H 0.8964 0.8038 0.41591 0.0
H252 H 0.83803 0.81577 0.34538 0.0
O253 O 0.83407 0.80078 0.63276 0.0
H254 H 0.89061 0.87727 0.62288 0.0
H255 H 0.82084 0.83563 0.70669 0.0
H256 H 0.90636 0.9005 0.34472 0.0
H257 H 0.82205 0.72616 0.44504 0.0
H258 H 0.89357 0.87553 0.2604 0.0
H259 H 0.8716 0.7128 0.41028 0.0
O260 O 0.83353 0.87689 0.47545 0.0
H261 H 0.73011 0.82483 0.60756 0.0
H262 H 0.81247 0.89414 0.63537 0.0
H263 H 0.76169 0.91015 0.65514 0.0
H264 H 0.72003 0.87532 0.64152 0.0
H265 H 0.78115 0.80995 0.58752 0.0
H266 H 0.83954 0.85596 0.79055 0.0
H267 H 0.88431 0.88762 0.79047 0.0
O268 O 0.84683 0.87823 0.56038 0.0
C269 C 0.89565 0.83184 0.53388 0.0
C270 C 0.89032 0.88453 0.70637 0.0
C271 C 0.85086 0.86078 0.75392 0.0
N272 N 0.85453 0.85536 0.65979 0.0
C273 C 0.87926 0.87264 0.65949 0.0
C274 C 0.84043 0.84925 0.70629 0.0
C275 C 0.87598 0.87855 0.75384 0.0
C276 C 0.83207 0.77261 0.44954 0.0
N277 N 0.85268 0.79414 0.44144 0.0
C278 C 0.8385 0.74308 0.43844 0.0
C279 C 0.86631 0.73559 0.41903 0.0
C280 C 0.88729 0.75762 0.41107 0.0
C281 C 0.88007 0.7869 0.42265 0.0
C282 C 0.86481 0.84399 0.29757 0.0
C283 C 0.87908 0.8717 0.39165 0.0
C284 C 0.85292 0.83442 0.34545 0.0
N285 N 0.86022 0.84816 0.39177 0.0
C286 C 0.8914 0.88188 0.34452 0.0
C287 C 0.88419 0.86787 0.29722 0.0
C288 C 0.83972 0.89103 0.51759 0.0
C289 C 0.74808 0.84018 0.61389 0.0
C290 C 0.79453 0.8789 0.62894 0.0
C291 C 0.76578 0.88806 0.64044 0.0
C292 C 0.74243 0.86852 0.63284 0.0
N293 N 0.79997 0.851 0.61057 0.0
C294 C 0.77713 0.83179 0.60285 0.0
Co295 Co 0.17351 0.84024 0.46378 0.0
Co296 Co 0.16909 0.84268 0.59887 0.0
O297 O 0.18708 0.8274 0.53373 0.0
C298 C 0.16742 0.78323 0.40559 0.0
O299 O 0.13942 0.78935 0.3978 0.0
C300 C 0.23444 0.83745 0.62406 0.0
O301 O 0.24157 0.8344 0.57417 0.0
O302 O 0.17769 0.88368 0.57567 0.0
O303 O 0.16476 0.88115 0.49032 0.0
H304 H 0.10354 0.91128 0.70222 0.0
H305 H 0.23249 0.81217 0.47263 0.0
O306 O 0.18303 0.79988 0.43519 0.0
H307 H 0.25142 0.91083 0.39838 0.0
H308 H 0.17881 0.84812 0.26535 0.0
H309 H 0.12189 0.87388 0.42511 0.0
H310 H 0.20068 0.89485 0.4186 0.0
H311 H 0.1962 0.83288 0.35327 0.0
O312 O 0.20767 0.8414 0.63773 0.0
H313 H 0.12619 0.89044 0.62175 0.0
H314 H 0.17431 0.82887 0.71391 0.0
H315 H 0.10374 0.88962 0.33794 0.0
H316 H 0.28356 0.82701 0.45194 0.0
H317 H 0.13226 0.87673 0.25726 0.0
H318 H 0.29332 0.87673 0.41478 0.0
O319 O 0.13237 0.8277 0.48166 0.0
H320 H 0.19339 0.73541 0.62495 0.0
H321 H 0.11674 0.81183 0.64503 0.0
H322 H 0.1057 0.76068 0.6711 0.0
H323 H 0.14424 0.72204 0.6614 0.0
H324 H 0.20332 0.78675 0.59867 0.0
H325 H 0.15237 0.84923 0.79537 0.0
H326 H 0.1166 0.89065 0.78983 0.0
O327 O 0.12941 0.84432 0.56481 0.0
C328 C 0.1713 0.89586 0.53177 0.0
C329 C 0.11903 0.89318 0.70514 0.0
C330 C 0.14646 0.85838 0.75742 0.0
N331 N 0.15141 0.85833 0.66302 0.0
C332 C 0.13188 0.88124 0.65969 0.0
C333 C 0.15888 0.847 0.71114 0.0
C334 C 0.12639 0.88161 0.75428 0.0
C335 C 0.23649 0.83377 0.45611 0.0
N336 N 0.21355 0.85267 0.44719 0.0
C337 C 0.26549 0.84208 0.44464 0.0
C338 C 0.27096 0.86999 0.42386 0.0
C339 C 0.24747 0.88915 0.41475 0.0
C340 C 0.21877 0.88006 0.42669 0.0
C341 C 0.16617 0.85387 0.3002 0.0
C342 C 0.13443 0.86817 0.39021 0.0
C343 C 0.17589 0.84527 0.35012 0.0
N344 N 0.16004 0.85243 0.39436 0.0
C345 C 0.12404 0.87716 0.34094 0.0
C346 C 0.14006 0.86992 0.2957 0.0
C347 C 0.11748 0.83453 0.52276 0.0
C348 C 0.17644 0.75207 0.62958 0.0
C349 C 0.13357 0.79517 0.64036 0.0
C350 C 0.12722 0.76623 0.65537 0.0
C351 C 0.14886 0.74457 0.64995 0.0
N352 N 0.16075 0.80243 0.62071 0.0
C353 C 0.18199 0.78125 0.61497 0.0
Co354 Co 0.1699 0.16977 0.5845 0.0
Co355 Co 0.16745 0.17329 0.44886 0.0
O356 O 0.18425 0.18648 0.51707 0.0
C357 C 0.18304 0.23426 0.61224 0.0
O358 O 0.18851 0.24164 0.56314 0.0
C359 C 0.23256 0.18424 0.42324 0.0
O360 O 0.23968 0.1894 0.4726 0.0
O361 O 0.17733 0.13145 0.46585 0.0
O362 O 0.16376 0.13038 0.55075 0.0
H363 H 0.10529 0.10729 0.33436 0.0
H364 H 0.2285 0.19951 0.5795 0.0
O365 O 0.17536 0.20803 0.62374 0.0
H366 H 0.2489 0.09949 0.64575 0.0
H367 H 0.16987 0.15301 0.78117 0.0
H368 H 0.11974 0.13086 0.61306 0.0
H369 H 0.19803 0.11481 0.62547 0.0
H370 H 0.18866 0.17346 0.69757 0.0
O371 O 0.20621 0.17739 0.41086 0.0
H372 H 0.12656 0.12513 0.41807 0.0
H373 H 0.17294 0.19255 0.33636 0.0
H374 H 0.10038 0.10977 0.69575 0.0
H375 H 0.27961 0.18532 0.60008 0.0
H376 H 0.12549 0.12081 0.78061 0.0
H377 H 0.29016 0.13492 0.63335 0.0
O378 O 0.12867 0.18153 0.56672 0.0
H379 H 0.18757 0.28238 0.43688 0.0
H380 H 0.11411 0.20395 0.40679 0.0
H381 H 0.10104 0.25552 0.38742 0.0
H382 H 0.13797 0.29521 0.40219 0.0
H383 H 0.19949 0.23062 0.45651 0.0
H384 H 0.15237 0.17524 0.25176 0.0
H385 H 0.11817 0.13239 0.2504 0.0
O386 O 0.12753 0.16864 0.48142 0.0
C387 C 0.17083 0.11743 0.50788 0.0
C388 C 0.12011 0.12602 0.33445 0.0
C389 C 0.14656 0.16414 0.28809 0.0
N390 N 0.15087 0.15996 0.38225 0.0
C391 C 0.13219 0.13627 0.38176 0.0
C392 C 0.15822 0.17378 0.33613 0.0
C393 C 0.12737 0.1401 0.28735 0.0
C394 C 0.23273 0.1777 0.59452 0.0
N395 N 0.21011 0.15816 0.60157 0.0
C396 C 0.26181 0.16971 0.60586 0.0
C397 C 0.26773 0.14142 0.62443 0.0
C398 C 0.2446 0.12153 0.63134 0.0
C399 C 0.21581 0.13031 0.61956 0.0
C400 C 0.15875 0.14801 0.74444 0.0
C401 C 0.13088 0.13569 0.64977 0.0
C402 C 0.16923 0.1596 0.69695 0.0
N403 N 0.15539 0.15327 0.65034 0.0
C404 C 0.11977 0.12372 0.6965 0.0
C405 C 0.13386 0.12994 0.7441 0.0
C406 C 0.11465 0.17593 0.52423 0.0
C407 C 0.17132 0.26528 0.43005 0.0
C408 C 0.13025 0.22103 0.41372 0.0
C409 C 0.12275 0.25023 0.40246 0.0
C410 C 0.14348 0.27247 0.41069 0.0
N411 N 0.15766 0.21407 0.43249 0.0
C412 C 0.17802 0.23583 0.44084 0.0
Co413 Co 0.84029 0.16842 0.59411 0.0
Co414 Co 0.83731 0.16544 0.45847 0.0
O415 O 0.82327 0.18198 0.52646 0.0
C416 C 0.77539 0.17999 0.62138 0.0
O417 O 0.76802 0.18601 0.57251 0.0
C418 C 0.82391 0.22999 0.43188 0.0
O419 O 0.81763 0.23725 0.48081 0.0
O420 O 0.87861 0.17704 0.47613 0.0
O421 O 0.88006 0.16364 0.56097 0.0
H422 H 0.9063 0.10566 0.34511 0.0
H423 H 0.8088 0.22611 0.58794 0.0
O424 O 0.80172 0.17258 0.63278 0.0
H425 H 0.90759 0.24976 0.65714 0.0
H426 H 0.85607 0.16922 0.79109 0.0
H427 H 0.88091 0.1198 0.62308 0.0
H428 H 0.89399 0.1984 0.63658 0.0
H429 H 0.83539 0.18717 0.70722 0.0
O430 O 0.832 0.20386 0.42027 0.0
H431 H 0.88719 0.1264 0.42852 0.0
H432 H 0.81835 0.16981 0.34562 0.0
H433 H 0.90229 0.10131 0.70604 0.0
H434 H 0.82127 0.27767 0.60873 0.0
H435 H 0.8899 0.12607 0.79085 0.0
H436 H 0.87104 0.28986 0.64352 0.0
O437 O 0.83 0.12679 0.57614 0.0
H438 H 0.72753 0.18126 0.44515 0.0
H439 H 0.80889 0.11091 0.41566 0.0
H440 H 0.75792 0.09584 0.39551 0.0
H441 H 0.71676 0.1312 0.40996 0.0
H442 H 0.77874 0.1952 0.46552 0.0
H443 H 0.83691 0.14974 0.26132 0.0
H444 H 0.88112 0.1173 0.26071 0.0
O445 O 0.84334 0.12581 0.4911 0.0
C446 C 0.89278 0.17134 0.51833 0.0
C447 C 0.88698 0.1197 0.34488 0.0
C448 C 0.84806 0.14447 0.29784 0.0
N449 N 0.85157 0.14917 0.39209 0.0
C450 C 0.876 0.13147 0.39201 0.0
C451 C 0.8377 0.15584 0.34573 0.0
C452 C 0.87285 0.12627 0.29753 0.0
C453 C 0.83033 0.23103 0.60364 0.0
N454 N 0.85048 0.20904 0.61142 0.0
C455 C 0.83735 0.26038 0.61509 0.0
C456 C 0.86529 0.26722 0.6345 0.0
C457 C 0.8858 0.24474 0.6421 0.0
C458 C 0.87799 0.21566 0.63019 0.0
C459 C 0.86167 0.15827 0.75438 0.0
C460 C 0.8755 0.13079 0.65977 0.0
C461 C 0.84995 0.16828 0.70674 0.0
N462 N 0.85704 0.15464 0.66015 0.0
C463 C 0.88764 0.12018 0.70665 0.0
C464 C 0.88065 0.13406 0.75422 0.0
C465 C 0.83622 0.11282 0.53376 0.0
C466 C 0.74528 0.16569 0.43845 0.0
C467 C 0.79117 0.12638 0.42245 0.0
C468 C 0.76231 0.11774 0.41074 0.0
C469 C 0.73924 0.13759 0.41881 0.0
N470 N 0.79699 0.15405 0.44147 0.0
C471 C 0.77443 0.17355 0.44968 0.0
H472 H 0.33857 0.43497 0.0981 0.0
H473 H 0.33905 0.58258 0.93221 0.0
H474 H 0.3234 0.43602 0.9298 0.0
H475 H 0.32047 0.58205 0.09955 0.0
H476 H 0.33691 0.5291 0.93114 0.0
H477 H 0.33561 0.48855 0.09967 0.0
C478 C 0.33437 0.44635 0.06139 0.0
C479 C 0.33095 0.43071 1.01368 0.0
C480 C 0.33303 0.54064 0.96802 0.0
C481 C 0.32813 0.49252 1.01545 0.0
C482 C 0.3342 0.57133 0.96882 0.0
C483 C 0.32963 0.58712 1.01608 0.0
C484 C 0.32783 0.52527 1.01496 0.0
C485 C 0.32396 0.57092 0.06217 0.0
C486 C 0.33268 0.47706 0.06249 0.0
C487 C 0.32603 0.44701 0.9675 0.0
N488 N 0.32346 0.54085 0.06054 0.0
N489 N 0.32498 0.47704 0.9695 0.0
H490 H 0.42942 0.33064 0.11266 0.0
H491 H 0.57525 0.32849 0.9336 0.0
H492 H 0.42884 0.34996 0.94576 0.0
H493 H 0.57667 0.34358 0.10207 0.0
H494 H 0.52106 0.32909 0.93683 0.0
H495 H 0.48351 0.32822 0.10926 0.0
C496 C 0.44054 0.33425 0.07535 0.0
C497 C 0.42438 0.34027 0.02942 0.0
C498 C 0.53339 0.33214 0.97302 0.0
C499 C 0.48617 0.33724 0.02518 0.0
C500 C 0.56429 0.33172 0.97122 0.0
C501 C 0.5807 0.33575 1.01762 0.0
C502 C 0.51884 0.33624 0.02161 0.0
C503 C 0.56516 0.34004 0.06525 0.0
C504 C 0.4714 0.3329 0.07344 0.0
C505 C 0.44015 0.34491 0.98218 0.0
N506 N 0.5352 0.34003 0.06601 0.0
N507 N 0.47006 0.34314 0.98125 0.0
H508 H 0.66582 0.42837 0.94775 0.0
H509 H 0.66673 0.57815 0.10963 0.0
H510 H 0.68146 0.43116 0.11589 0.0
H511 H 0.68306 0.57485 0.94162 0.0
H512 H 0.66851 0.52461 0.1126 0.0
H513 H 0.66842 0.48185 0.94504 0.0
C514 C 0.67005 0.44012 0.98421 0.0
C515 C 0.67373 0.42498 0.03219 0.0
C516 C 0.67195 0.53558 0.07516 0.0
C517 C 0.67615 0.48675 0.02911 0.0
C518 C 0.67097 0.56627 0.07327 0.0
C519 C 0.67505 0.58128 0.02523 0.0
C520 C 0.67648 0.51948 0.0286 0.0
C521 C 0.67996 0.56435 0.97955 0.0
C522 C 0.67151 0.47078 0.98246 0.0
C523 C 0.67864 0.44177 0.078 0.0
N524 N 0.68033 0.53434 0.9823 0.0
N525 N 0.67952 0.47178 0.07538 0.0
H526 H 0.43394 0.67932 0.92973 0.0
H527 H 0.57479 0.68161 0.11915 0.0
H528 H 0.42656 0.66672 0.09821 0.0
H529 H 0.57857 0.65828 0.95375 0.0
H530 H 0.52059 0.68282 0.11299 0.0
H531 H 0.4877 0.67863 0.93831 0.0
C532 C 0.44353 0.67655 0.96853 0.0
C533 C 0.42555 0.67329 1.0133 0.0
C534 C 0.53347 0.6775 0.07819 0.0
C535 C 0.48715 0.67269 0.0234 0.0
C536 C 0.56436 0.67685 0.08164 0.0
C537 C 0.58144 0.67016 0.03685 0.0
C538 C 0.51969 0.67181 0.02949 0.0
C539 C 0.56659 0.66396 0.98932 0.0
C540 C 0.47424 0.67609 0.97338 0.0
C541 C 0.43941 0.66961 0.06257 0.0
N542 N 0.53672 0.66515 0.98687 0.0
N543 N 0.46935 0.66957 0.06634 0.0
H544 H 0.82937 0.92931 0.43504 0.0
H545 H 0.8284 0.07418 0.61672 0.0
H546 H 0.84855 0.92781 0.60202 0.0
H547 H 0.84382 0.07642 0.44841 0.0
H548 H 0.82851 0.02005 0.61241 0.0
H549 H 0.82752 0.9834 0.4393 0.0
C550 C 0.83307 0.94023 0.47254 0.0
C551 C 0.83887 0.92381 0.51824 0.0
C552 C 0.83174 0.03253 0.57649 0.0
C553 C 0.83649 0.98558 0.52347 0.0
C554 C 0.83161 0.06341 0.57891 0.0
C555 C 0.83586 0.08004 0.53287 0.0
C556 C 0.83579 0.01822 0.52764 0.0
C557 C 0.84011 0.06473 0.48496 0.0
C558 C 0.83204 0.97109 0.47494 0.0
C559 C 0.84364 0.93932 0.56575 0.0
N560 N 0.83982 0.03479 0.48359 0.0
N561 N 0.84218 0.96923 0.56715 0.0
H562 H 0.08013 0.82174 0.43954 0.0
H563 H 0.9336 0.82341 0.61762 0.0
H564 H 0.0799 0.84188 0.60637 0.0
H565 H 0.93272 0.8368 0.44885 0.0
H566 H 0.98772 0.82186 0.61444 0.0
H567 H 0.02596 0.81897 0.44236 0.0
C568 C 0.06883 0.82533 0.47674 0.0
C569 C 0.08477 0.83188 0.52277 0.0
C570 C 0.97554 0.82496 0.57815 0.0
C571 C 0.02297 0.82851 0.52632 0.0
C572 C 0.94466 0.82578 0.57993 0.0
C573 C 0.92841 0.83007 0.53347 0.0
C574 C 0.99026 0.82811 0.52953 0.0
C575 C 0.94411 0.83317 0.48574 0.0
C576 C 0.03794 0.82381 0.4783 0.0
C577 C 0.0688 0.83649 0.56985 0.0
N578 N 0.97406 0.83204 0.485 0.0
N579 N 0.0389 0.83462 0.5704 0.0
H580 H 0.17999 0.07833 0.42512 0.0
H581 H 0.17854 0.93632 0.6117 0.0
H582 H 0.16143 0.08139 0.59243 0.0
H583 H 0.1635 0.93024 0.44367 0.0
H584 H 0.17887 0.99007 0.60434 0.0
H585 H 0.18028 0.02409 0.42991 0.0
C586 C 0.17613 0.06774 0.46276 0.0
C587 C 0.171 0.08463 0.50846 0.0
C588 C 0.17555 0.97692 0.56908 0.0
C589 C 0.17153 0.02282 0.51422 0.0
C590 C 0.17541 0.9462 0.57324 0.0
C591 C 0.17118 0.92858 0.52824 0.0
C592 C 0.17175 0.99022 0.5195 0.0
C593 C 0.1671 0.94281 0.47945 0.0
C594 C 0.17622 0.03682 0.46543 0.0
C595 C 0.16588 0.06956 0.55613 0.0
N596 N 0.16764 0.97277 0.47633 0.0
N597 N 0.16646 0.03967 0.55775 0.0
H598 H 0.92945 0.16393 0.60299 0.0
H599 H 0.07831 0.17003 0.43871 0.0
H600 H 0.93115 0.18229 0.43575 0.0
H601 H 0.07589 0.18334 0.60763 0.0
H602 H 0.02473 0.17081 0.43686 0.0
H603 H 0.98296 0.16716 0.60504 0.0
C604 C 0.94096 0.16886 0.5666 0.0
C605 C 0.92551 0.17314 0.51908 0.0
C606 C 0.03589 0.1738 0.47427 0.0
C607 C 0.98729 0.17632 0.52137 0.0
C608 C 0.06662 0.1734 0.47552 0.0
C609 C 0.08188 0.17694 0.52347 0.0
C610 C 0.02003 0.17721 0.52137 0.0
C611 C 0.06518 0.18071 0.56974 0.0
C612 C 0.97164 0.17069 0.56798 0.0
C613 C 0.942 0.17898 0.4733 0.0
N614 N 0.03513 0.18054 0.56758 0.0
N615 N 0.97202 0.18023 0.47554 0.0
H616 H 0.28326 0.21786 0.42642 0.0
H617 H 0.29324 0.22852 0.11089 0.0
H618 H 0.22836 0.16779 0.31972 0.0
H619 H 0.3409 0.28543 0.2178 0.0
H620 H 0.27599 0.19969 0.1867 0.0
H621 H 0.31128 0.23632 0.35048 0.0
C622 C 0.27745 0.21029 0.3872 0.0
C623 C 0.25318 0.19152 0.3795 0.0
C624 C 0.29053 0.21828 0.19347 0.0
C625 C 0.28495 0.21278 0.29228 0.0
C626 C 0.30052 0.23465 0.15012 0.0
C627 C 0.31826 0.25966 0.15794 0.0
C628 C 0.29842 0.22694 0.24498 0.0
C629 C 0.32692 0.26656 0.20984 0.0
C630 C 0.29333 0.22098 0.34377 0.0
C631 C 0.24665 0.18254 0.3276 0.0
N632 N 0.31672 0.25051 0.25127 0.0
N633 N 0.26221 0.19345 0.28607 0.0
H634 H 0.72515 0.34214 0.22391 0.0
H635 H 0.8427 0.22561 0.32969 0.0
H636 H 0.78032 0.28922 0.12179 0.0
H637 H 0.78874 0.27972 0.43189 0.0
H638 H 0.82488 0.25324 0.25377 0.0
H639 H 0.75269 0.32435 0.3 0.0
C640 C 0.74334 0.32703 0.21734 0.0
C641 C 0.75019 0.31691 0.16622 0.0
C642 C 0.81717 0.25938 0.29278 0.0
C643 C 0.7818 0.29619 0.25381 0.0
C644 C 0.82736 0.2436 0.33632 0.0
C645 C 0.81697 0.25011 0.38739 0.0
C646 C 0.79619 0.28182 0.29999 0.0
C647 C 0.79733 0.27386 0.39336 0.0
C648 C 0.75907 0.31687 0.26098 0.0
C649 C 0.77419 0.29758 0.16035 0.0
N650 N 0.78729 0.28859 0.35013 0.0
N651 N 0.78888 0.28757 0.20366 0.0
H652 H 0.78315 0.84272 0.32917 0.0
H653 H 0.66219 0.72903 0.22541 0.0
H654 H 0.72661 0.79225 0.43227 0.0
H655 H 0.71654 0.78188 0.12241 0.0
H656 H 0.68065 0.75682 0.30103 0.0
H657 H 0.75449 0.82577 0.25359 0.0
C658 C 0.76442 0.82836 0.33606 0.0
C659 C 0.75751 0.81864 0.38728 0.0
C660 C 0.68827 0.76268 0.2619 0.0
C661 C 0.72462 0.79885 0.30029 0.0
C662 C 0.6777 0.74682 0.21855 0.0
C663 C 0.68807 0.75289 0.16736 0.0
C664 C 0.70962 0.78472 0.25436 0.0
C665 C 0.70796 0.77637 0.16105 0.0
C666 C 0.74805 0.81867 0.29272 0.0
C667 C 0.73281 0.80027 0.3936 0.0
N668 N 0.7184 0.79114 0.20409 0.0
N669 N 0.71752 0.79066 0.35056 0.0
H670 H 0.22633 0.78078 0.38357 0.0
H671 H 0.23405 0.64513 0.19157 0.0
H672 H 0.14377 0.7383 0.34488 0.0
H673 H 0.2772 0.72782 0.15689 0.0
H674 H 0.20453 0.67057 0.26 0.0
H675 H 0.25072 0.7517 0.31525 0.0
C676 C 0.21335 0.76493 0.36151 0.0
C677 C 0.18282 0.76212 0.37001 0.0
C678 C 0.22027 0.68299 0.23673 0.0
C679 C 0.21095 0.72862 0.29163 0.0
C680 C 0.23705 0.6686 0.19775 0.0
C681 C 0.25815 0.68433 0.1683 0.0
C682 C 0.2254 0.71299 0.2472 0.0
C683 C 0.26119 0.71472 0.17822 0.0
C684 C 0.22732 0.74854 0.32218 0.0
C685 C 0.1673 0.74125 0.33954 0.0
N686 N 0.24543 0.72787 0.21735 0.0
N687 N 0.18156 0.72516 0.30161 0.0
H688 H 0.23085 0.85237 0.72831 0.0
H689 H 0.35017 0.7337 0.81191 0.0
H690 H 0.28685 0.80707 0.61638 0.0
H691 H 0.30433 0.78924 0.92387 0.0
H692 H 0.33162 0.76428 0.74019 0.0
H693 H 0.26145 0.83389 0.80009 0.0
C694 C 0.2499 0.8389 0.71874 0.0
C695 C 0.2561 0.83098 0.66622 0.0
C696 C 0.32598 0.77013 0.78044 0.0
C697 C 0.29107 0.80934 0.74857 0.0
C698 C 0.33657 0.75266 0.8215 0.0
C699 C 0.32851 0.75872 0.87401 0.0
C700 C 0.3068 0.79367 0.79173 0.0
C701 C 0.31104 0.7837 0.88402 0.0
C702 C 0.26739 0.82834 0.75985 0.0
C703 C 0.2812 0.81367 0.65624 0.0
N704 N 0.30036 0.79996 0.84319 0.0
N705 N 0.29748 0.80303 0.69711 0.0
H706 H 0.22482 0.29493 0.92661 0.0
H707 H 0.2165 0.28511 0.6106 0.0
H708 H 0.28067 0.3449 0.82153 0.0
H709 H 0.16677 0.2291 0.71573 0.0
H710 H 0.23424 0.31308 0.68726 0.0
H711 H 0.1974 0.27651 0.84991 0.0
C712 C 0.23101 0.30244 0.88759 0.0
C713 C 0.25531 0.32124 0.8806 0.0
C714 C 0.21917 0.29487 0.69347 0.0
C715 C 0.2242 0.30005 0.79249 0.0
C716 C 0.2089 0.27899 0.64963 0.0
C717 C 0.19037 0.25449 0.65664 0.0
C718 C 0.21079 0.28624 0.74471 0.0
C719 C 0.18134 0.24758 0.70833 0.0
C720 C 0.21545 0.29179 0.84372 0.0
C721 C 0.26233 0.33014 0.8289 0.0
N722 N 0.19181 0.26316 0.75025 0.0
N723 N 0.24707 0.3193 0.78696 0.0
H724 H 0.66234 0.27854 0.82954 0.0
H725 H 0.78011 0.16177 0.72366 0.0
H726 H 0.71551 0.22423 0.93168 0.0
H727 H 0.72495 0.21412 0.62159 0.0
H728 H 0.75215 0.17951 0.79973 0.0
H729 H 0.68017 0.25056 0.75356 0.0
C730 C 0.67748 0.26042 0.83614 0.0
C731 C 0.68767 0.25396 0.88721 0.0
C732 C 0.74585 0.18686 0.76071 0.0
C733 C 0.70849 0.22188 0.79976 0.0
C734 C 0.76182 0.17671 0.71709 0.0
C735 C 0.7551 0.18671 0.666 0.0
C736 C 0.72303 0.2074 0.75356 0.0
C737 C 0.73098 0.20585 0.66013 0.0
C738 C 0.68768 0.24445 0.79257 0.0
C739 C 0.70707 0.23005 0.89315 0.0
N740 N 0.71608 0.21587 0.70342 0.0
N741 N 0.71715 0.21515 0.84989 0.0
H742 H 0.78158 0.71699 0.93601 0.0
H743 H 0.79107 0.72466 0.61997 0.0
H744 H 0.726 0.66638 0.83124 0.0
H745 H 0.84203 0.77993 0.72473 0.0
H746 H 0.77252 0.69753 0.69678 0.0
H747 H 0.8094 0.73469 0.85925 0.0
C748 C 0.77551 0.70921 0.89705 0.0
C749 C 0.75118 0.69042 0.89018 0.0
C750 C 0.78804 0.71539 0.70288 0.0
C751 C 0.78276 0.71079 0.80196 0.0
C752 C 0.79877 0.73078 0.65894 0.0
C753 C 0.8179 0.75484 0.6658 0.0
C754 C 0.79654 0.72406 0.75407 0.0
C755 C 0.82702 0.76178 0.71745 0.0
C756 C 0.79131 0.71944 0.85314 0.0
C757 C 0.74434 0.68115 0.83854 0.0
N758 N 0.81609 0.74669 0.75946 0.0
N759 N 0.75983 0.6916 0.79655 0.0
loop_
_geom_bond_atom_site_label_1
_geom_bond_atom_site_label_2
_geom_bond_distance
_geom_bond_site_symmetry_2
_ccdc_geom_bond_type
Co0 O2 2.143 1_556 S
Co0 O8 2.074 . S
Co0 O11 2.093 . S
Co0 O24 2.097 . S
Co0 N41 2.151 . S
Co0 N49 2.214 . S
Co1 O2 2.160 . S
Co1 O7 2.058 . S
Co1 O17 2.057 . S
Co1 O32 2.037 . S
Co1 N36 2.145 . S
Co1 N57 2.257 . S
O2 Co0 2.143 1_554 S
O2 Co1 2.160 . S
C3 O4 1.278 . S
C3 O11 1.224 . S
O4 C3 1.278 . S
C5 O6 1.245 . S
C5 O17 1.232 . S
O6 C5 1.245 . S
O7 Co1 2.058 . S
O7 C33 1.269 . S
O8 Co0 2.074 . S
O8 C33 1.257 1_556 S
H9 C34 0.930 . S
H10 C40 0.930 . S
O11 Co0 2.093 . S
O11 C3 1.224 . S
H12 C44 0.929 . S
H13 C46 0.930 . S
H14 C47 0.930 . S
H15 C45 0.929 . S
H16 C48 0.928 . S
O17 Co1 2.057 . S
O17 C5 1.232 . S
H18 C37 0.929 . S
H19 C38 0.929 . S
H20 C50 0.931 . S
H21 C42 0.929 . S
H22 C51 0.930 . S
H23 C43 0.931 . S
O24 Co0 2.097 . S
O24 C52 1.214 . S
H25 C53 0.929 . S
H26 C54 0.929 . S
H27 C55 0.930 . S
H28 C56 0.929 . S
H29 C58 0.930 . S
H30 C35 0.930 . S
H31 C39 0.930 . S
O32 Co1 2.037 . S
O32 C52 1.234 1_554 S
C33 O7 1.269 . S
C33 O8 1.257 1_554 S
C34 H9 0.930 . S
C34 C37 1.388 . S
C34 C39 1.418 . S
C35 H30 0.930 . S
C35 C38 1.404 . S
C35 C39 1.353 . S
N36 Co1 2.145 . S
N36 C37 1.397 . S
N36 C38 1.334 . S
C37 H18 0.929 . S
C37 C34 1.388 . S
C37 N36 1.397 . S
C38 H19 0.929 . S
C38 C35 1.404 . S
C38 N36 1.334 . S
C39 H31 0.930 . S
C39 C34 1.418 . S
C39 C35 1.353 . S
C40 H10 0.930 . S
C40 N41 1.330 . S
C40 C42 1.446 . S
N41 Co0 2.151 . S
N41 C40 1.330 . S
N41 C45 1.418 . S
C42 H21 0.929 . S
C42 C40 1.446 . S
C42 C43 1.332 . S
C43 H23 0.931 . S
C43 C42 1.332 . S
C43 C44 1.267 . S
C44 H12 0.929 . S
C44 C43 1.267 . S
C44 C45 1.251 . S
C45 H15 0.929 . S
C45 N41 1.418 . S
C45 C44 1.251 . S
C46 H13 0.930 . S
C46 C48 1.406 . S
C46 C51 1.261 . S
C47 H14 0.930 . S
C47 N49 1.325 . S
C47 C50 1.357 . S
C48 H16 0.928 . S
C48 C46 1.406 . S
C48 N49 1.261 . S
N49 Co0 2.214 . S
N49 C47 1.325 . S
N49 C48 1.261 . S
C50 H20 0.931 . S
C50 C47 1.357 . S
C50 C51 1.312 . S
C51 H22 0.930 . S
C51 C46 1.261 . S
C51 C50 1.312 . S
C52 O24 1.214 . S
C52 O32 1.234 1_556 S
C53 H25 0.929 . S
C53 C56 1.391 . S
C53 C58 1.391 . S
C54 H26 0.929 . S
C54 C55 1.390 . S
C54 N57 1.391 . S
C55 H27 0.930 . S
C55 C54 1.390 . S
C55 C56 1.392 . S
C56 H28 0.929 . S
C56 C53 1.391 . S
C56 C55 1.392 . S
N57 Co1 2.257 . S
N57 C54 1.391 . S
N57 C58 1.388 . S
C58 H29 0.930 . S
C58 C53 1.391 . S
C58 N57 1.388 . S
Co59 O61 2.143 . S
Co59 O67 2.074 . S
Co59 O70 2.093 . S
Co59 O83 2.097 . S
Co59 N100 2.151 . S
Co59 N108 2.214 . S
Co60 O61 2.160 1_556 S
Co60 O66 2.058 . S
Co60 O76 2.057 . S
Co60 O91 2.037 . S
Co60 N95 2.145 . S
Co60 N116 2.257 . S
O61 Co59 2.143 . S
O61 Co60 2.160 1_554 S
C62 O63 1.278 . S
C62 O70 1.224 . S
O63 C62 1.278 . S
C64 O65 1.245 . S
C64 O76 1.232 . S
O65 C64 1.245 . S
O66 Co60 2.058 . S
O66 C92 1.269 . S
O67 Co59 2.074 . S
O67 C92 1.257 1_554 S
H68 C93 0.930 . S
H69 C99 0.930 . S
O70 Co59 2.093 . S
O70 C62 1.224 . S
H71 C103 0.929 . S
H72 C105 0.930 . S
H73 C106 0.930 . S
H74 C104 0.929 . S
H75 C107 0.928 . S
O76 Co60 2.057 . S
O76 C64 1.232 . S
H77 C96 0.929 . S
H78 C97 0.929 . S
H79 C109 0.931 . S
H80 C101 0.929 . S
H81 C110 0.930 . S
H82 C102 0.931 . S
O83 Co59 2.097 . S
O83 C111 1.214 . S
H84 C112 0.929 . S
H85 C113 0.929 . S
H86 C114 0.930 . S
H87 C115 0.929 . S
H88 C117 0.930 . S
H89 C94 0.930 . S
H90 C98 0.930 . S
O91 Co60 2.037 . S
O91 C111 1.234 1_556 S
C92 O66 1.269 . S
C92 O67 1.257 1_556 S
C93 H68 0.930 . S
C93 C96 1.388 . S
C93 C98 1.418 . S
C94 H89 0.930 . S
C94 C97 1.404 . S
C94 C98 1.353 . S
N95 Co60 2.145 . S
N95 C96 1.397 . S
N95 C97 1.334 . S
C96 H77 0.929 . S
C96 C93 1.388 . S
C96 N95 1.397 . S
C97 H78 0.929 . S
C97 C94 1.404 . S
C97 N95 1.334 . S
C98 H90 0.930 . S
C98 C93 1.418 . S
C98 C94 1.353 . S
C99 H69 0.930 . S
C99 N100 1.330 . S
C99 C101 1.446 . S
N100 Co59 2.151 . S
N100 C99 1.330 . S
N100 C104 1.418 . S
C101 H80 0.929 . S
C101 C99 1.446 . S
C101 C102 1.332 . S
C102 H82 0.931 . S
C102 C101 1.332 . S
C102 C103 1.267 . S
C103 H71 0.929 . S
C103 C102 1.267 . S
C103 C104 1.251 . S
C104 H74 0.929 . S
C104 N100 1.418 . S
C104 C103 1.251 . S
C105 H72 0.930 . S
C105 C107 1.406 . S
C105 C110 1.261 . S
C106 H73 0.930 . S
C106 N108 1.325 . S
C106 C109 1.357 . S
C107 H75 0.928 . S
C107 C105 1.406 . S
C107 N108 1.261 . S
N108 Co59 2.214 . S
N108 C106 1.325 . S
N108 C107 1.261 . S
C109 H79 0.931 . S
C109 C106 1.357 . S
C109 C110 1.312 . S
C110 H81 0.930 . S
C110 C105 1.261 . S
C110 C109 1.312 . S
C111 O83 1.214 . S
C111 O91 1.234 1_554 S
C112 H84 0.929 . S
C112 C115 1.391 . S
C112 C117 1.391 . S
C113 H85 0.929 . S
C113 C114 1.390 . S
C113 N116 1.391 . S
C114 H86 0.930 . S
C114 C113 1.390 . S
C114 C115 1.392 . S
C115 H87 0.929 . S
C115 C112 1.391 . S
C115 C114 1.392 . S
N116 Co60 2.257 . S
N116 C113 1.391 . S
N116 C117 1.388 . S
C117 H88 0.930 . S
C117 C112 1.391 . S
C117 N116 1.388 . S
Co118 O120 2.143 . S
Co118 O126 2.074 . S
Co118 O129 2.093 . S
Co118 O142 2.097 . S
Co118 N159 2.151 . S
Co118 N167 2.214 . S
Co119 O120 2.160 1_556 S
Co119 O125 2.058 . S
Co119 O135 2.057 . S
Co119 O150 2.037 . S
Co119 N154 2.145 . S
Co119 N175 2.257 . S
O120 Co118 2.143 . S
O120 Co119 2.160 1_554 S
C121 O122 1.278 . S
C121 O129 1.224 . S
O122 C121 1.278 . S
C123 O124 1.245 . S
C123 O135 1.232 . S
O124 C123 1.245 . S
O125 Co119 2.058 . S
O125 C151 1.269 . S
O126 Co118 2.074 . S
O126 C151 1.257 1_554 S
H127 C152 0.930 . S
H128 C158 0.930 . S
O129 Co118 2.093 . S
O129 C121 1.224 . S
H130 C162 0.929 . S
H131 C164 0.930 . S
H132 C165 0.930 . S
H133 C163 0.929 . S
H134 C166 0.928 . S
O135 Co119 2.057 . S
O135 C123 1.232 . S
H136 C155 0.929 . S
H137 C156 0.929 . S
H138 C168 0.931 . S
H139 C160 0.929 . S
H140 C169 0.930 . S
H141 C161 0.931 . S
O142 Co118 2.097 . S
O142 C170 1.214 . S
H143 C171 0.929 . S
H144 C172 0.929 . S
H145 C173 0.930 . S
H146 C174 0.929 . S
H147 C176 0.930 . S
H148 C153 0.930 . S
H149 C157 0.930 . S
O150 Co119 2.037 . S
O150 C170 1.234 1_556 S
C151 O125 1.269 . S
C151 O126 1.257 1_556 S
C152 H127 0.930 . S
C152 C155 1.388 . S
C152 C157 1.418 . S
C153 H148 0.930 . S
C153 C156 1.404 . S
C153 C157 1.353 . S
N154 Co119 2.145 . S
N154 C155 1.397 . S
N154 C156 1.334 . S
C155 H136 0.929 . S
C155 C152 1.388 . S
C155 N154 1.397 . S
C156 H137 0.929 . S
C156 C153 1.404 . S
C156 N154 1.334 . S
C157 H149 0.930 . S
C157 C152 1.418 . S
C157 C153 1.353 . S
C158 H128 0.930 . S
C158 N159 1.330 . S
C158 C160 1.446 . S
N159 Co118 2.151 . S
N159 C158 1.330 . S
N159 C163 1.418 . S
C160 H139 0.929 . S
C160 C158 1.446 . S
C160 C161 1.332 . S
C161 H141 0.931 . S
C161 C160 1.332 . S
C161 C162 1.267 . S
C162 H130 0.929 . S
C162 C161 1.267 . S
C162 C163 1.251 . S
C163 H133 0.929 . S
C163 N159 1.418 . S
C163 C162 1.251 . S
C164 H131 0.930 . S
C164 C166 1.406 . S
C164 C169 1.261 . S
C165 H132 0.930 . S
C165 N167 1.325 . S
C165 C168 1.357 . S
C166 H134 0.928 . S
C166 C164 1.406 . S
C166 N167 1.261 . S
N167 Co118 2.214 . S
N167 C165 1.325 . S
N167 C166 1.261 . S
C168 H138 0.931 . S
C168 C165 1.357 . S
C168 C169 1.312 . S
C169 H140 0.930 . S
C169 C164 1.261 . S
C169 C168 1.312 . S
C170 O142 1.214 . S
C170 O150 1.234 1_554 S
C171 H143 0.929 . S
C171 C174 1.391 . S
C171 C176 1.391 . S
C172 H144 0.929 . S
C172 C173 1.390 . S
C172 N175 1.391 . S
C173 H145 0.930 . S
C173 C172 1.390 . S
C173 C174 1.392 . S
C174 H146 0.929 . S
C174 C171 1.391 . S
C174 C173 1.392 . S
N175 Co119 2.257 . S
N175 C172 1.391 . S
N175 C176 1.388 . S
C176 H147 0.930 . S
C176 C171 1.391 . S
C176 N175 1.388 . S
Co177 O179 2.143 1_556 S
Co177 O185 2.074 . S
Co177 O188 2.093 . S
Co177 O201 2.097 . S
Co177 N218 2.151 . S
Co177 N226 2.214 . S
Co178 O179 2.160 . S
Co178 O184 2.058 . S
Co178 O194 2.057 . S
Co178 O209 2.037 . S
Co178 N213 2.145 . S
Co178 N234 2.257 . S
O179 Co177 2.143 1_554 S
O179 Co178 2.160 . S
C180 O181 1.278 . S
C180 O188 1.224 . S
O181 C180 1.278 . S
C182 O183 1.245 . S
C182 O194 1.232 . S
O183 C182 1.245 . S
O184 Co178 2.058 . S
O184 C210 1.269 . S
O185 Co177 2.074 . S
O185 C210 1.257 1_556 S
H186 C211 0.930 . S
H187 C217 0.930 . S
O188 Co177 2.093 . S
O188 C180 1.224 . S
H189 C221 0.929 . S
H190 C223 0.930 . S
H191 C224 0.930 . S
H192 C222 0.929 . S
H193 C225 0.928 . S
O194 Co178 2.057 . S
O194 C182 1.232 . S
H195 C214 0.929 . S
H196 C215 0.929 . S
H197 C227 0.931 . S
H198 C219 0.929 . S
H199 C228 0.930 . S
H200 C220 0.931 . S
O201 Co177 2.097 . S
O201 C229 1.214 . S
H202 C230 0.929 . S
H203 C231 0.929 . S
H204 C232 0.930 . S
H205 C233 0.929 . S
H206 C235 0.930 . S
H207 C212 0.930 . S
H208 C216 0.930 . S
O209 Co178 2.037 . S
O209 C229 1.234 1_554 S
C210 O184 1.269 . S
C210 O185 1.257 1_554 S
C211 H186 0.930 . S
C211 C214 1.388 . S
C211 C216 1.418 . S
C212 H207 0.930 . S
C212 C215 1.404 . S
C212 C216 1.353 . S
N213 Co178 2.145 . S
N213 C214 1.397 . S
N213 C215 1.334 . S
C214 H195 0.929 . S
C214 C211 1.388 . S
C214 N213 1.397 . S
C215 H196 0.929 . S
C215 C212 1.404 . S
C215 N213 1.334 . S
C216 H208 0.930 . S
C216 C211 1.418 . S
C216 C212 1.353 . S
C217 H187 0.930 . S
C217 N218 1.330 . S
C217 C219 1.446 . S
N218 Co177 2.151 . S
N218 C217 1.330 . S
N218 C222 1.418 . S
C219 H198 0.929 . S
C219 C217 1.446 . S
C219 C220 1.332 . S
C220 H200 0.931 . S
C220 C219 1.332 . S
C220 C221 1.267 . S
C221 H189 0.929 . S
C221 C220 1.267 . S
C221 C222 1.251 . S
C222 H192 0.929 . S
C222 N218 1.418 . S
C222 C221 1.251 . S
C223 H190 0.930 . S
C223 C225 1.406 . S
C223 C228 1.261 . S
C224 H191 0.930 . S
C224 N226 1.325 . S
C224 C227 1.357 . S
C225 H193 0.928 . S
C225 C223 1.406 . S
C225 N226 1.261 . S
N226 Co177 2.214 . S
N226 C224 1.325 . S
N226 C225 1.261 . S
C227 H197 0.931 . S
C227 C224 1.357 . S
C227 C228 1.312 . S
C228 H199 0.930 . S
C228 C223 1.261 . S
C228 C227 1.312 . S
C229 O201 1.214 . S
C229 O209 1.234 1_556 S
C230 H202 0.929 . S
C230 C233 1.391 . S
C230 C235 1.391 . S
C231 H203 0.929 . S
C231 C232 1.390 . S
C231 N234 1.391 . S
C232 H204 0.930 . S
C232 C231 1.390 . S
C232 C233 1.392 . S
C233 H205 0.929 . S
C233 C230 1.391 . S
C233 C232 1.392 . S
N234 Co178 2.257 . S
N234 C231 1.391 . S
N234 C235 1.388 . S
C235 H206 0.930 . S
C235 C230 1.391 . S
C235 N234 1.388 . S
Co236 O238 2.143 . S
Co236 O244 2.074 . S
Co236 O247 2.093 . S
Co236 O260 2.097 . S
Co236 N277 2.151 . S
Co236 N285 2.214 . S
Co237 O238 2.160 . S
Co237 O243 2.058 . S
Co237 O253 2.057 . S
Co237 O268 2.037 . S
Co237 N272 2.145 . S
Co237 N293 2.257 . S
O238 Co236 2.143 . S
O238 Co237 2.160 . S
C239 O240 1.278 . S
C239 O247 1.224 . S
O240 C239 1.278 . S
C241 O242 1.245 . S
C241 O253 1.232 . S
O242 C241 1.245 . S
O243 Co237 2.058 . S
O243 C269 1.269 . S
O244 Co236 2.074 . S
O244 C269 1.257 . S
H245 C270 0.930 . S
H246 C276 0.930 . S
O247 Co236 2.093 . S
O247 C239 1.224 . S
H248 C280 0.929 . S
H249 C282 0.930 . S
H250 C283 0.930 . S
H251 C281 0.929 . S
H252 C284 0.928 . S
O253 Co237 2.057 . S
O253 C241 1.232 . S
H254 C273 0.929 . S
H255 C274 0.929 . S
H256 C286 0.931 . S
H257 C278 0.929 . S
H258 C287 0.930 . S
H259 C279 0.931 . S
O260 Co236 2.097 . S
O260 C288 1.214 . S
H261 C289 0.929 . S
H262 C290 0.929 . S
H263 C291 0.930 . S
H264 C292 0.929 . S
H265 C294 0.930 . S
H266 C271 0.930 . S
H267 C275 0.930 . S
O268 Co237 2.037 . S
O268 C288 1.234 . S
C269 O243 1.269 . S
C269 O244 1.257 . S
C270 H245 0.930 . S
C270 C273 1.388 . S
C270 C275 1.418 . S
C271 H266 0.930 . S
C271 C274 1.404 . S
C271 C275 1.353 . S
N272 Co237 2.145 . S
N272 C273 1.397 . S
N272 C274 1.334 . S
C273 H254 0.929 . S
C273 C270 1.388 . S
C273 N272 1.397 . S
C274 H255 0.929 . S
C274 C271 1.404 . S
C274 N272 1.334 . S
C275 H267 0.930 . S
C275 C270 1.418 . S
C275 C271 1.353 . S
C276 H246 0.930 . S
C276 N277 1.330 . S
C276 C278 1.446 . S
N277 Co236 2.151 . S
N277 C276 1.330 . S
N277 C281 1.418 . S
C278 H257 0.929 . S
C278 C276 1.446 . S
C278 C279 1.332 . S
C279 H259 0.931 . S
C279 C278 1.332 . S
C279 C280 1.267 . S
C280 H248 0.929 . S
C280 C279 1.267 . S
C280 C281 1.251 . S
C281 H251 0.929 . S
C281 N277 1.418 . S
C281 C280 1.251 . S
C282 H249 0.930 . S
C282 C284 1.406 . S
C282 C287 1.261 . S
C283 H250 0.930 . S
C283 N285 1.325 . S
C283 C286 1.357 . S
C284 H252 0.928 . S
C284 C282 1.406 . S
C284 N285 1.261 . S
N285 Co236 2.214 . S
N285 C283 1.325 . S
N285 C284 1.261 . S
C286 H256 0.931 . S
C286 C283 1.357 . S
C286 C287 1.312 . S
C287 H258 0.930 . S
C287 C282 1.261 . S
C287 C286 1.312 . S
C288 O260 1.214 . S
C288 O268 1.234 . S
C289 H261 0.929 . S
C289 C292 1.391 . S
C289 C294 1.391 . S
C290 H262 0.929 . S
C290 C291 1.390 . S
C290 N293 1.391 . S
C291 H263 0.930 . S
C291 C290 1.390 . S
C291 C292 1.392 . S
C292 H264 0.929 . S
C292 C289 1.391 . S
C292 C291 1.392 . S
N293 Co237 2.257 . S
N293 C290 1.391 . S
N293 C294 1.388 . S
C294 H265 0.930 . S
C294 C289 1.391 . S
C294 N293 1.388 . S
Co295 O297 2.143 . S
Co295 O303 2.074 . S
Co295 O306 2.093 . S
Co295 O319 2.097 . S
Co295 N336 2.151 . S
Co295 N344 2.214 . S
Co296 O297 2.160 . S
Co296 O302 2.058 . S
Co296 O312 2.057 . S
Co296 O327 2.037 . S
Co296 N331 2.145 . S
Co296 N352 2.257 . S
O297 Co295 2.143 . S
O297 Co296 2.160 . S
C298 O299 1.278 . S
C298 O306 1.224 . S
O299 C298 1.278 . S
C300 O301 1.245 . S
C300 O312 1.232 . S
O301 C300 1.245 . S
O302 Co296 2.058 . S
O302 C328 1.269 . S
O303 Co295 2.074 . S
O303 C328 1.257 . S
H304 C329 0.930 . S
H305 C335 0.930 . S
O306 Co295 2.093 . S
O306 C298 1.224 . S
H307 C339 0.929 . S
H308 C341 0.930 . S
H309 C342 0.930 . S
H310 C340 0.929 . S
H311 C343 0.928 . S
O312 Co296 2.057 . S
O312 C300 1.232 . S
H313 C332 0.929 . S
H314 C333 0.929 . S
H315 C345 0.931 . S
H316 C337 0.929 . S
H317 C346 0.930 . S
H318 C338 0.931 . S
O319 Co295 2.097 . S
O319 C347 1.214 . S
H320 C348 0.929 . S
H321 C349 0.929 . S
H322 C350 0.930 . S
H323 C351 0.929 . S
H324 C353 0.930 . S
H325 C330 0.930 . S
H326 C334 0.930 . S
O327 Co296 2.037 . S
O327 C347 1.234 . S
C328 O302 1.269 . S
C328 O303 1.257 . S
C329 H304 0.930 . S
C329 C332 1.388 . S
C329 C334 1.418 . S
C330 H325 0.930 . S
C330 C333 1.404 . S
C330 C334 1.353 . S
N331 Co296 2.145 . S
N331 C332 1.397 . S
N331 C333 1.334 . S
C332 H313 0.929 . S
C332 C329 1.388 . S
C332 N331 1.397 . S
C333 H314 0.929 . S
C333 C330 1.404 . S
C333 N331 1.334 . S
C334 H326 0.930 . S
C334 C329 1.418 . S
C334 C330 1.353 . S
C335 H305 0.930 . S
C335 N336 1.330 . S
C335 C337 1.446 . S
N336 Co295 2.151 . S
N336 C335 1.330 . S
N336 C340 1.418 . S
C337 H316 0.929 . S
C337 C335 1.446 . S
C337 C338 1.332 . S
C338 H318 0.931 . S
C338 C337 1.332 . S
C338 C339 1.267 . S
C339 H307 0.929 . S
C339 C338 1.267 . S
C339 C340 1.251 . S
C340 H310 0.929 . S
C340 N336 1.418 . S
C340 C339 1.251 . S
C341 H308 0.930 . S
C341 C343 1.406 . S
C341 C346 1.261 . S
C342 H309 0.930 . S
C342 N344 1.325 . S
C342 C345 1.357 . S
C343 H311 0.928 . S
C343 C341 1.406 . S
C343 N344 1.261 . S
N344 Co295 2.214 . S
N344 C342 1.325 . S
N344 C343 1.261 . S
C345 H315 0.931 . S
C345 C342 1.357 . S
C345 C346 1.312 . S
C346 H317 0.930 . S
C346 C341 1.261 . S
C346 C345 1.312 . S
C347 O319 1.214 . S
C347 O327 1.234 . S
C348 H320 0.929 . S
C348 C351 1.391 . S
C348 C353 1.391 . S
C349 H321 0.929 . S
C349 C350 1.390 . S
C349 N352 1.391 . S
C350 H322 0.930 . S
C350 C349 1.390 . S
C350 C351 1.392 . S
C351 H323 0.929 . S
C351 C348 1.391 . S
C351 C350 1.392 . S
N352 Co296 2.257 . S
N352 C349 1.391 . S
N352 C353 1.388 . S
C353 H324 0.930 . S
C353 C348 1.391 . S
C353 N352 1.388 . S
Co354 O356 2.143 . S
Co354 O362 2.074 . S
Co354 O365 2.093 . S
Co354 O378 2.097 . S
Co354 N395 2.151 . S
Co354 N403 2.214 . S
Co355 O356 2.160 . S
Co355 O361 2.058 . S
Co355 O371 2.057 . S
Co355 O386 2.037 . S
Co355 N390 2.145 . S
Co355 N411 2.257 . S
O356 Co354 2.143 . S
O356 Co355 2.160 . S
C357 O358 1.278 . S
C357 O365 1.224 . S
O358 C357 1.278 . S
C359 O360 1.245 . S
C359 O371 1.232 . S
O360 C359 1.245 . S
O361 Co355 2.058 . S
O361 C387 1.269 . S
O362 Co354 2.074 . S
O362 C387 1.257 . S
H363 C388 0.930 . S
H364 C394 0.930 . S
O365 Co354 2.093 . S
O365 C357 1.224 . S
H366 C398 0.929 . S
H367 C400 0.930 . S
H368 C401 0.930 . S
H369 C399 0.929 . S
H370 C402 0.928 . S
O371 Co355 2.057 . S
O371 C359 1.232 . S
H372 C391 0.929 . S
H373 C392 0.929 . S
H374 C404 0.931 . S
H375 C396 0.929 . S
H376 C405 0.930 . S
H377 C397 0.931 . S
O378 Co354 2.097 . S
O378 C406 1.214 . S
H379 C407 0.929 . S
H380 C408 0.929 . S
H381 C409 0.930 . S
H382 C410 0.929 . S
H383 C412 0.930 . S
H384 C389 0.930 . S
H385 C393 0.930 . S
O386 Co355 2.037 . S
O386 C406 1.234 . S
C387 O361 1.269 . S
C387 O362 1.257 . S
C388 H363 0.930 . S
C388 C391 1.388 . S
C388 C393 1.418 . S
C389 H384 0.930 . S
C389 C392 1.404 . S
C389 C393 1.353 . S
N390 Co355 2.145 . S
N390 C391 1.397 . S
N390 C392 1.334 . S
C391 H372 0.929 . S
C391 C388 1.388 . S
C391 N390 1.397 . S
C392 H373 0.929 . S
C392 C389 1.404 . S
C392 N390 1.334 . S
C393 H385 0.930 . S
C393 C388 1.418 . S
C393 C389 1.353 . S
C394 H364 0.930 . S
C394 N395 1.330 . S
C394 C396 1.446 . S
N395 Co354 2.151 . S
N395 C394 1.330 . S
N395 C399 1.418 . S
C396 H375 0.929 . S
C396 C394 1.446 . S
C396 C397 1.332 . S
C397 H377 0.931 . S
C397 C396 1.332 . S
C397 C398 1.267 . S
C398 H366 0.929 . S
C398 C397 1.267 . S
C398 C399 1.251 . S
C399 H369 0.929 . S
C399 N395 1.418 . S
C399 C398 1.251 . S
C400 H367 0.930 . S
C400 C402 1.406 . S
C400 C405 1.261 . S
C401 H368 0.930 . S
C401 N403 1.325 . S
C401 C404 1.357 . S
C402 H370 0.928 . S
C402 C400 1.406 . S
C402 N403 1.261 . S
N403 Co354 2.214 . S
N403 C401 1.325 . S
N403 C402 1.261 . S
C404 H374 0.931 . S
C404 C401 1.357 . S
C404 C405 1.312 . S
C405 H376 0.930 . S
C405 C400 1.261 . S
C405 C404 1.312 . S
C406 O378 1.214 . S
C406 O386 1.234 . S
C407 H379 0.929 . S
C407 C410 1.391 . S
C407 C412 1.391 . S
C408 H380 0.929 . S
C408 C409 1.390 . S
C408 N411 1.391 . S
C409 H381 0.930 . S
C409 C408 1.390 . S
C409 C410 1.392 . S
C410 H382 0.929 . S
C410 C407 1.391 . S
C410 C409 1.392 . S
N411 Co355 2.257 . S
N411 C408 1.391 . S
N411 C412 1.388 . S
C412 H383 0.930 . S
C412 C407 1.391 . S
C412 N411 1.388 . S
Co413 O415 2.143 . S
Co413 O421 2.074 . S
Co413 O424 2.093 . S
Co413 O437 2.097 . S
Co413 N454 2.151 . S
Co413 N462 2.214 . S
Co414 O415 2.160 . S
Co414 O420 2.058 . S
Co414 O430 2.057 . S
Co414 O445 2.037 . S
Co414 N449 2.145 . S
Co414 N470 2.257 . S
O415 Co413 2.143 . S
O415 Co414 2.160 . S
C416 O417 1.278 . S
C416 O424 1.224 . S
O417 C416 1.278 . S
C418 O419 1.245 . S
C418 O430 1.232 . S
O419 C418 1.245 . S
O420 Co414 2.058 . S
O420 C446 1.269 . S
O421 Co413 2.074 . S
O421 C446 1.257 . S
H422 C447 0.930 . S
H423 C453 0.930 . S
O424 Co413 2.093 . S
O424 C416 1.224 . S
H425 C457 0.929 . S
H426 C459 0.930 . S
H427 C460 0.930 . S
H428 C458 0.929 . S
H429 C461 0.928 . S
O430 Co414 2.057 . S
O430 C418 1.232 . S
H431 C450 0.929 . S
H432 C451 0.929 . S
H433 C463 0.931 . S
H434 C455 0.929 . S
H435 C464 0.930 . S
H436 C456 0.931 . S
O437 Co413 2.097 . S
O437 C465 1.214 . S
H438 C466 0.929 . S
H439 C467 0.929 . S
H440 C468 0.930 . S
H441 C469 0.929 . S
H442 C471 0.930 . S
H443 C448 0.930 . S
H444 C452 0.930 . S
O445 Co414 2.037 . S
O445 C465 1.234 . S
C446 O420 1.269 . S
C446 O421 1.257 . S
C447 H422 0.930 . S
C447 C450 1.388 . S
C447 C452 1.418 . S
C448 H443 0.930 . S
C448 C451 1.404 . S
C448 C452 1.353 . S
N449 Co414 2.145 . S
N449 C450 1.397 . S
N449 C451 1.334 . S
C450 H431 0.929 . S
C450 C447 1.388 . S
C450 N449 1.397 . S
C451 H432 0.929 . S
C451 C448 1.404 . S
C451 N449 1.334 . S
C452 H444 0.930 . S
C452 C447 1.418 . S
C452 C448 1.353 . S
C453 H423 0.930 . S
C453 N454 1.330 . S
C453 C455 1.446 . S
N454 Co413 2.151 . S
N454 C453 1.330 . S
N454 C458 1.418 . S
C455 H434 0.929 . S
C455 C453 1.446 . S
C455 C456 1.332 . S
C456 H436 0.931 . S
C456 C455 1.332 . S
C456 C457 1.267 . S
C457 H425 0.929 . S
C457 C456 1.267 . S
C457 C458 1.251 . S
C458 H428 0.929 . S
C458 N454 1.418 . S
C458 C457 1.251 . S
C459 H426 0.930 . S
C459 C461 1.406 . S
C459 C464 1.261 . S
C460 H427 0.930 . S
C460 N462 1.325 . S
C460 C463 1.357 . S
C461 H429 0.928 . S
C461 C459 1.406 . S
C461 N462 1.261 . S
N462 Co413 2.214 . S
N462 C460 1.325 . S
N462 C461 1.261 . S
C463 H433 0.931 . S
C463 C460 1.357 . S
C463 C464 1.312 . S
C464 H435 0.930 . S
C464 C459 1.261 . S
C464 C463 1.312 . S
C465 O437 1.214 . S
C465 O445 1.234 . S
C466 H438 0.929 . S
C466 C469 1.391 . S
C466 C471 1.391 . S
C467 H439 0.929 . S
C467 C468 1.390 . S
C467 N470 1.391 . S
C468 H440 0.930 . S
C468 C467 1.390 . S
C468 C469 1.392 . S
C469 H441 0.929 . S
C469 C466 1.391 . S
C469 C468 1.392 . S
N470 Co414 2.257 . S
N470 C467 1.391 . S
N470 C471 1.388 . S
C471 H442 0.930 . S
C471 C466 1.391 . S
C471 N470 1.388 . S
H472 C478 0.930 . S
H473 C482 0.930 . S
H474 C487 0.929 . S
H475 C485 0.929 . S
H476 C480 0.929 . S
H477 C486 0.929 . S
C478 H472 0.930 . S
C478 C479 1.367 1_554 S
C478 C486 1.378 . S
C479 C478 1.367 1_556 S
C479 C487 1.433 . S
C480 H476 0.929 . S
C480 C482 1.378 . S
C480 C484 1.350 1_556 S
C481 C484 1.463 . S
C481 C486 1.350 . S
C481 N489 1.427 1_554 S
C482 H473 0.930 . S
C482 C480 1.378 . S
C482 C483 1.367 1_556 S
C483 C482 1.367 1_554 S
C483 C485 1.433 . S
C484 C480 1.350 1_554 S
C484 C481 1.463 . S
C484 N488 1.427 . S
C485 H475 0.929 . S
C485 C483 1.433 . S
C485 N488 1.384 . S
C486 H477 0.929 . S
C486 C478 1.378 . S
C486 C481 1.350 . S
C487 H474 0.929 . S
C487 C479 1.433 . S
C487 N489 1.384 . S
N488 C484 1.427 . S
N488 C485 1.384 . S
N489 C481 1.427 1_556 S
N489 C487 1.384 . S
H490 C496 0.930 . S
H491 C500 0.930 . S
H492 C505 0.929 . S
H493 C503 0.929 1_554 S
H494 C498 0.929 . S
H495 C504 0.929 . S
C496 H490 0.930 . S
C496 C497 1.367 . S
C496 C504 1.378 . S
C497 C496 1.367 . S
C497 C505 1.433 . S
C498 H494 0.929 . S
C498 C500 1.378 . S
C498 C502 1.358 . S
C499 C502 1.458 1_554 S
C499 C504 1.350 . S
C499 N507 1.427 . S
C500 H491 0.930 . S
C500 C498 1.378 . S
C500 C501 1.367 . S
C501 C500 1.367 . S
C501 C503 1.433 . S
C502 C498 1.358 . S
C502 C499 1.458 1_556 S
C502 N506 1.424 1_556 S
C503 H493 0.929 1_556 S
C503 C501 1.433 . S
C503 N506 1.384 1_556 S
C504 H495 0.929 . S
C504 C496 1.378 . S
C504 C499 1.350 . S
C505 H492 0.929 . S
C505 C497 1.433 . S
C505 N507 1.384 . S
N506 C502 1.424 1_554 S
N506 C503 1.384 1_554 S
N507 C499 1.427 . S
N507 C505 1.384 . S
H508 C514 0.930 . S
H509 C518 0.930 . S
H510 C523 0.929 . S
H511 C521 0.929 . S
H512 C516 0.929 . S
H513 C522 0.929 . S
C514 H508 0.930 . S
C514 C515 1.367 1_556 S
C514 C522 1.378 . S
C515 C514 1.367 1_554 S
C515 C523 1.433 . S
C516 H512 0.929 . S
C516 C518 1.378 . S
C516 C520 1.350 . S
C517 C520 1.463 . S
C517 C522 1.350 1_554 S
C517 N525 1.427 . S
C518 H509 0.930 . S
C518 C516 1.378 . S
C518 C519 1.367 1_554 S
C519 C518 1.367 1_556 S
C519 C521 1.433 . S
C520 C516 1.350 . S
C520 C517 1.463 . S
C520 N524 1.427 1_554 S
C521 H511 0.929 . S
C521 C519 1.433 . S
C521 N524 1.384 . S
C522 H513 0.929 . S
C522 C514 1.378 . S
C522 C517 1.350 1_556 S
C523 H510 0.929 . S
C523 C515 1.433 . S
C523 N525 1.384 . S
N524 C520 1.427 1_556 S
N524 C521 1.384 . S
N525 C517 1.427 . S
N525 C523 1.384 . S
H526 C532 0.930 . S
H527 C536 0.930 . S
H528 C541 0.927 1_554 S
H529 C539 0.929 . S
H530 C534 0.929 . S
H531 C540 0.929 . S
C532 H526 0.930 . S
C532 C533 1.367 . S
C532 C540 1.378 . S
C533 C532 1.367 . S
C533 C541 1.439 . S
C534 H530 0.929 . S
C534 C536 1.378 . S
C534 C538 1.350 . S
C535 C538 1.462 1_556 S
C535 C540 1.352 . S
C535 N543 1.426 1_556 S
C536 H527 0.930 . S
C536 C534 1.378 . S
C536 C537 1.367 . S
C537 C536 1.367 . S
C537 C539 1.433 . S
C538 C534 1.350 . S
C538 C535 1.462 1_554 S
C538 N542 1.427 . S
C539 H529 0.929 . S
C539 C537 1.433 . S
C539 N542 1.384 . S
C540 H531 0.929 . S
C540 C532 1.378 . S
C540 C535 1.352 . S
C541 H528 0.927 1_556 S
C541 C533 1.439 . S
C541 N543 1.381 1_556 S
N542 C538 1.427 . S
N542 C539 1.384 . S
N543 C535 1.426 1_554 S
N543 C541 1.381 1_554 S
H544 C550 0.930 . S
H545 C554 0.930 . S
H546 C559 0.929 . S
H547 C557 0.929 . S
H548 C552 0.929 . S
H549 C558 0.929 . S
C550 H544 0.930 . S
C550 C551 1.367 . S
C550 C558 1.378 . S
C551 C550 1.367 . S
C551 C559 1.433 . S
C552 H548 0.929 . S
C552 C554 1.378 . S
C552 C556 1.350 . S
C553 C556 1.463 1_565 S
C553 C558 1.350 . S
C553 N561 1.427 . S
C554 H545 0.930 . S
C554 C552 1.378 . S
C554 C555 1.367 . S
C555 C554 1.367 . S
C555 C557 1.433 . S
C556 C552 1.350 . S
C556 C553 1.463 1_545 S
C556 N560 1.427 . S
C557 H547 0.929 . S
C557 C555 1.433 . S
C557 N560 1.384 . S
C558 H549 0.929 . S
C558 C550 1.378 . S
C558 C553 1.350 . S
C559 H546 0.929 . S
C559 C551 1.433 . S
C559 N561 1.384 . S
N560 C556 1.427 . S
N560 C557 1.384 . S
N561 C553 1.427 . S
N561 C559 1.384 . S
H562 C568 0.930 . S
H563 C572 0.930 . S
H564 C577 0.929 . S
H565 C575 0.929 . S
H566 C570 0.929 . S
H567 C576 0.929 . S
C568 H562 0.930 . S
C568 C569 1.367 . S
C568 C576 1.378 . S
C569 C568 1.367 . S
C569 C577 1.433 . S
C570 H566 0.929 . S
C570 C572 1.378 . S
C570 C574 1.350 . S
C571 C574 1.463 1_455 S
C571 C576 1.350 . S
C571 N579 1.427 . S
C572 H563 0.930 . S
C572 C570 1.378 . S
C572 C573 1.367 . S
C573 C572 1.367 . S
C573 C575 1.433 . S
C574 C570 1.350 . S
C574 C571 1.463 1_655 S
C574 N578 1.427 . S
C575 H565 0.929 . S
C575 C573 1.433 . S
C575 N578 1.384 . S
C576 H567 0.929 . S
C576 C568 1.378 . S
C576 C571 1.350 . S
C577 H564 0.929 . S
C577 C569 1.433 . S
C577 N579 1.384 . S
N578 C574 1.427 . S
N578 C575 1.384 . S
N579 C571 1.427 . S
N579 C577 1.384 . S
H580 C586 0.930 . S
H581 C590 0.930 . S
H582 C595 0.929 . S
H583 C593 0.929 . S
H584 C588 0.929 . S
H585 C594 0.929 . S
C586 H580 0.930 . S
C586 C587 1.367 . S
C586 C594 1.378 . S
C587 C586 1.367 . S
C587 C595 1.433 . S
C588 H584 0.929 . S
C588 C590 1.378 . S
C588 C592 1.350 . S
C589 C592 1.463 1_545 S
C589 C594 1.350 . S
C589 N597 1.427 . S
C590 H581 0.930 . S
C590 C588 1.378 . S
C590 C591 1.367 . S
C591 C590 1.367 . S
C591 C593 1.433 . S
C592 C588 1.350 . S
C592 C589 1.463 1_565 S
C592 N596 1.427 . S
C593 H583 0.929 . S
C593 C591 1.433 . S
C593 N596 1.384 . S
C594 H585 0.929 . S
C594 C586 1.378 . S
C594 C589 1.350 . S
C595 H582 0.929 . S
C595 C587 1.433 . S
C595 N597 1.384 . S
N596 C592 1.427 . S
N596 C593 1.384 . S
N597 C589 1.427 . S
N597 C595 1.384 . S
H598 C604 0.930 . S
H599 C608 0.930 . S
H600 C613 0.929 . S
H601 C611 0.929 . S
H602 C606 0.929 . S
H603 C612 0.929 . S
C604 H598 0.930 . S
C604 C605 1.367 . S
C604 C612 1.378 . S
C605 C604 1.367 . S
C605 C613 1.433 . S
C606 H602 0.929 . S
C606 C608 1.378 . S
C606 C610 1.350 . S
C607 C610 1.463 1_655 S
C607 C612 1.350 . S
C607 N615 1.427 . S
C608 H599 0.930 . S
C608 C606 1.378 . S
C608 C609 1.367 . S
C609 C608 1.367 . S
C609 C611 1.433 . S
C610 C606 1.350 . S
C610 C607 1.463 1_455 S
C610 N614 1.427 . S
C611 H601 0.929 . S
C611 C609 1.433 . S
C611 N614 1.384 . S
C612 H603 0.929 . S
C612 C604 1.378 . S
C612 C607 1.350 . S
C613 H600 0.929 . S
C613 C605 1.433 . S
C613 N615 1.384 . S
N614 C610 1.427 . S
N614 C611 1.384 . S
N615 C607 1.427 . S
N615 C613 1.384 . S
H616 C622 0.930 . S
H617 C626 0.930 . S
H618 C631 0.929 . S
H619 C629 0.929 . S
H620 C624 0.929 . S
H621 C630 0.929 . S
C622 H616 0.930 . S
C622 C623 1.367 . S
C622 C630 1.378 . S
C623 C622 1.367 . S
C623 C631 1.433 . S
C624 H620 0.929 . S
C624 C626 1.378 . S
C624 C628 1.350 . S
C625 C628 1.463 . S
C625 C630 1.350 . S
C625 N633 1.427 . S
C626 H617 0.930 . S
C626 C624 1.378 . S
C626 C627 1.367 . S
C627 C626 1.367 . S
C627 C629 1.433 . S
C628 C624 1.350 . S
C628 C625 1.463 . S
C628 N632 1.427 . S
C629 H619 0.929 . S
C629 C627 1.433 . S
C629 N632 1.384 . S
C630 H621 0.929 . S
C630 C622 1.378 . S
C630 C625 1.350 . S
C631 H618 0.929 . S
C631 C623 1.433 . S
C631 N633 1.384 . S
N632 C628 1.427 . S
N632 C629 1.384 . S
N633 C625 1.427 . S
N633 C631 1.384 . S
H634 C640 0.930 . S
H635 C644 0.930 . S
H636 C649 0.929 . S
H637 C647 0.929 . S
H638 C642 0.929 . S
H639 C648 0.929 . S
C640 H634 0.930 . S
C640 C641 1.367 . S
C640 C648 1.378 . S
C641 C640 1.367 . S
C641 C649 1.433 . S
C642 H638 0.929 . S
C642 C644 1.378 . S
C642 C646 1.350 . S
C643 C646 1.463 . S
C643 C648 1.350 . S
C643 N651 1.427 . S
C644 H635 0.930 . S
C644 C642 1.378 . S
C644 C645 1.367 . S
C645 C644 1.367 . S
C645 C647 1.433 . S
C646 C642 1.350 . S
C646 C643 1.463 . S
C646 N650 1.427 . S
C647 H637 0.929 . S
C647 C645 1.433 . S
C647 N650 1.384 . S
C648 H639 0.929 . S
C648 C640 1.378 . S
C648 C643 1.350 . S
C649 H636 0.929 . S
C649 C641 1.433 . S
C649 N651 1.384 . S
N650 C646 1.427 . S
N650 C647 1.384 . S
N651 C643 1.427 . S
N651 C649 1.384 . S
H652 C658 0.930 . S
H653 C662 0.930 . S
H654 C667 0.929 . S
H655 C665 0.929 . S
H656 C660 0.929 . S
H657 C666 0.929 . S
C658 H652 0.930 . S
C658 C659 1.367 . S
C658 C666 1.378 . S
C659 C658 1.367 . S
C659 C667 1.433 . S
C660 H656 0.929 . S
C660 C662 1.378 . S
C660 C664 1.350 . S
C661 C664 1.463 . S
C661 C666 1.350 . S
C661 N669 1.427 . S
C662 H653 0.930 . S
C662 C660 1.378 . S
C662 C663 1.367 . S
C663 C662 1.367 . S
C663 C665 1.433 . S
C664 C660 1.350 . S
C664 C661 1.463 . S
C664 N668 1.427 . S
C665 H655 0.929 . S
C665 C663 1.433 . S
C665 N668 1.384 . S
C666 H657 0.929 . S
C666 C658 1.378 . S
C666 C661 1.350 . S
C667 H654 0.929 . S
C667 C659 1.433 . S
C667 N669 1.384 . S
N668 C664 1.427 . S
N668 C665 1.384 . S
N669 C661 1.427 . S
N669 C667 1.384 . S
H670 C676 0.930 . S
H671 C680 0.930 . S
H672 C685 0.929 . S
H673 C683 0.929 . S
H674 C678 0.929 . S
H675 C684 0.929 . S
C676 H670 0.930 . S
C676 C677 1.367 . S
C676 C684 1.378 . S
C677 C676 1.367 . S
C677 C685 1.433 . S
C678 H674 0.929 . S
C678 C680 1.378 . S
C678 C682 1.350 . S
C679 C682 1.463 . S
C679 C684 1.350 . S
C679 N687 1.427 . S
C680 H671 0.930 . S
C680 C678 1.378 . S
C680 C681 1.367 . S
C681 C680 1.367 . S
C681 C683 1.433 . S
C682 C678 1.350 . S
C682 C679 1.463 . S
C682 N686 1.427 . S
C683 H673 0.929 . S
C683 C681 1.433 . S
C683 N686 1.384 . S
C684 H675 0.929 . S
C684 C676 1.378 . S
C684 C679 1.350 . S
C685 H672 0.929 . S
C685 C677 1.433 . S
C685 N687 1.384 . S
N686 C682 1.427 . S
N686 C683 1.384 . S
N687 C679 1.427 . S
N687 C685 1.384 . S
H688 C694 0.930 . S
H689 C698 0.930 . S
H690 C703 0.929 . S
H691 C701 0.929 . S
H692 C696 0.929 . S
H693 C702 0.929 . S
C694 H688 0.930 . S
C694 C695 1.367 . S
C694 C702 1.378 . S
C695 C694 1.367 . S
C695 C703 1.433 . S
C696 H692 0.929 . S
C696 C698 1.378 . S
C696 C700 1.350 . S
C697 C700 1.463 . S
C697 C702 1.350 . S
C697 N705 1.427 . S
C698 H689 0.930 . S
C698 C696 1.378 . S
C698 C699 1.367 . S
C699 C698 1.367 . S
C699 C701 1.433 . S
C700 C696 1.350 . S
C700 C697 1.463 . S
C700 N704 1.427 . S
C701 H691 0.929 . S
C701 C699 1.433 . S
C701 N704 1.384 . S
C702 H693 0.929 . S
C702 C694 1.378 . S
C702 C697 1.350 . S
C703 H690 0.929 . S
C703 C695 1.433 . S
C703 N705 1.384 . S
N704 C700 1.427 . S
N704 C701 1.384 . S
N705 C697 1.427 . S
N705 C703 1.384 . S
H706 C712 0.930 . S
H707 C716 0.930 . S
H708 C721 0.929 . S
H709 C719 0.929 . S
H710 C714 0.929 . S
H711 C720 0.929 . S
C712 H706 0.930 . S
C712 C713 1.367 . S
C712 C720 1.378 . S
C713 C712 1.367 . S
C713 C721 1.433 . S
C714 H710 0.929 . S
C714 C716 1.378 . S
C714 C718 1.350 . S
C715 C718 1.463 . S
C715 C720 1.350 . S
C715 N723 1.427 . S
C716 H707 0.930 . S
C716 C714 1.378 . S
C716 C717 1.367 . S
C717 C716 1.367 . S
C717 C719 1.433 . S
C718 C714 1.350 . S
C718 C715 1.463 . S
C718 N722 1.427 . S
C719 H709 0.929 . S
C719 C717 1.433 . S
C719 N722 1.384 . S
C720 H711 0.929 . S
C720 C712 1.378 . S
C720 C715 1.350 . S
C721 H708 0.929 . S
C721 C713 1.433 . S
C721 N723 1.384 . S
N722 C718 1.427 . S
N722 C719 1.384 . S
N723 C715 1.427 . S
N723 C721 1.384 . S
H724 C730 0.930 . S
H725 C734 0.930 . S
H726 C739 0.929 . S
H727 C737 0.929 . S
H728 C732 0.929 . S
H729 C738 0.929 . S
C730 H724 0.930 . S
C730 C731 1.367 . S
C730 C738 1.378 . S
C731 C730 1.367 . S
C731 C739 1.433 . S
C732 H728 0.929 . S
C732 C734 1.378 . S
C732 C736 1.350 . S
C733 C736 1.463 . S
C733 C738 1.350 . S
C733 N741 1.427 . S
C734 H725 0.930 . S
C734 C732 1.378 . S
C734 C735 1.367 . S
C735 C734 1.367 . S
C735 C737 1.433 . S
C736 C732 1.350 . S
C736 C733 1.463 . S
C736 N740 1.427 . S
C737 H727 0.929 . S
C737 C735 1.433 . S
C737 N740 1.384 . S
C738 H729 0.929 . S
C738 C730 1.378 . S
C738 C733 1.350 . S
C739 H726 0.929 . S
C739 C731 1.433 . S
C739 N741 1.384 . S
N740 C736 1.427 . S
N740 C737 1.384 . S
N741 C733 1.427 . S
N741 C739 1.384 . S
H742 C748 0.930 . S
H743 C752 0.930 . S
H744 C757 0.929 . S
H745 C755 0.929 . S
H746 C750 0.929 . S
H747 C756 0.929 . S
C748 H742 0.930 . S
C748 C749 1.367 . S
C748 C756 1.378 . S
C749 C748 1.367 . S
C749 C757 1.433 . S
C750 H746 0.929 . S
C750 C752 1.378 . S
C750 C754 1.350 . S
C751 C754 1.463 . S
C751 C756 1.350 . S
C751 N759 1.427 . S
C752 H743 0.930 . S
C752 C750 1.378 . S
C752 C753 1.367 . S
C753 C752 1.367 . S
C753 C755 1.433 . S
C754 C750 1.350 . S
C754 C751 1.463 . S
C754 N758 1.427 . S
C755 H745 0.929 . S
C755 C753 1.433 . S
C755 N758 1.384 . S
C756 H747 0.929 . S
C756 C748 1.378 . S
C756 C751 1.350 . S
C757 H744 0.929 . S
C757 C749 1.433 . S
C757 N759 1.384 . S
N758 C754 1.427 . S
N758 C755 1.384 . S
N759 C751 1.427 . S
N759 C757 1.384 . S
C479 C52 1.669 . S
C483 C210 1.671 . S
C497 C33 1.677 . S
C501 C92 1.677 . S
C515 C111 1.669 . S
C519 C151 1.670 . S
C533 C229 1.676 . S
C537 C170 1.673 . S
C551 C288 1.675 . S
C555 C465 1.677 . S
C569 C347 1.677 . S
C573 C269 1.679 . S
C587 C387 1.680 . S
C591 C328 1.679 . S
C605 C446 1.675 . S
C609 C406 1.671 . S
C623 C359 1.618 . S
C627 C5 1.620 . S
C641 C62 1.611 . S
C645 C418 1.615 . S
C659 C239 1.610 . S
C663 C121 1.608 . S
C677 C298 1.610 . S
C681 C182 1.619 . S
C695 C300 1.617 . S
C699 C180 1.609 . S
C713 C3 1.614 . S
C717 C357 1.612 . S
C731 C64 1.616 . S
C735 C416 1.609 . S
C749 C123 1.619 . S
C753 C241 1.616 . S
