# Generated by pormake.
# Topology una, (4)-cn, num edge types: 1
# Building blocks:
#     Node 0, Type 0, BuildingBlock: AZAVOO_clean_sbu_0, # of connection points: 4
#     Node 1, Type 0, BuildingBlock: AZAVOO_clean_sbu_0, # of connection points: 4
#     Node 2, Type 0, BuildingBlock: AZAVOO_clean_sbu_0, # of connection points: 4
#     Node 3, Type 0, BuildingBlock: AZAVOO_clean_sbu_0, # of connection points: 4
#     Node 4, Type 0, BuildingBlock: AZAVOO_clean_sbu_0, # of connection points: 4
#     Node 5, Type 0, BuildingBlock: AZAVOO_clean_sbu_0, # of connection points: 4
#     Node 6, Type 0, BuildingBlock: AZAVOO_clean_sbu_0, # of connection points: 4
#     Node 7, Type 0, BuildingBlock: AZAVOO_clean_sbu_0, # of connection points: 4
#     Node 8, Type 0, BuildingBlock: AZAVOO_clean_sbu_0, # of connection points: 4
#     Node 9, Type 0, BuildingBlock: AZAVOO_clean_sbu_0, # of connection points: 4
#     Node 10, Type 0, BuildingBlock: AZAVOO_clean_sbu_0, # of connection points: 4
#     Node 11, Type 0, BuildingBlock: AZAVOO_clean_sbu_0, # of connection points: 4
#     Edge 12, Type (0, 0), BuildingBlock: XIVTED_clean_linker_0, # of connection points: 2
#     Edge 13, Type (0, 0), BuildingBlock: XIVTED_clean_linker_0, # of connection points: 2
#     Edge 14, Type (0, 0), BuildingBlock: XIVTED_clean_linker_0, # of connection points: 2
#     Edge 15, Type (0, 0), BuildingBlock: XIVTED_clean_linker_0, # of connection points: 2
#     Edge 16, Type (0, 0), BuildingBlock: XIVTED_clean_linker_0, # of connection points: 2
#     Edge 17, Type (0, 0), BuildingBlock: XIVTED_clean_linker_0, # of connection points: 2
#     Edge 18, Type (0, 0), BuildingBlock: XIVTED_clean_linker_0, # of connection points: 2
#     Edge 19, Type (0, 0), BuildingBlock: XIVTED_clean_linker_0, # of connection points: 2
#     Edge 20, Type (0, 0), BuildingBlock: XIVTED_clean_linker_0, # of connection points: 2
#     Edge 21, Type (0, 0), BuildingBlock: XIVTED_clean_linker_0, # of connection points: 2
#     Edge 22, Type (0, 0), BuildingBlock: XIVTED_clean_linker_0, # of connection points: 2
#     Edge 23, Type (0, 0), BuildingBlock: XIVTED_clean_linker_0, # of connection points: 2
#     Edge 24, Type (0, 0), BuildingBlock: XIVTED_clean_linker_0, # of connection points: 2
#     Edge 25, Type (0, 0), BuildingBlock: XIVTED_clean_linker_0, # of connection points: 2
#     Edge 26, Type (0, 0), BuildingBlock: XIVTED_clean_linker_0, # of connection points: 2
#     Edge 27, Type (0, 0), BuildingBlock: XIVTED_clean_linker_0, # of connection points: 2
#     Edge 28, Type (0, 0), BuildingBlock: XIVTED_clean_linker_0, # of connection points: 2
#     Edge 29, Type (0, 0), BuildingBlock: XIVTED_clean_linker_0, # of connection points: 2
#     Edge 30, Type (0, 0), BuildingBlock: XIVTED_clean_linker_0, # of connection points: 2
#     Edge 31, Type (0, 0), BuildingBlock: XIVTED_clean_linker_0, # of connection points: 2
#     Edge 32, Type (0, 0), BuildingBlock: XIVTED_clean_linker_0, # of connection points: 2
#     Edge 33, Type (0, 0), BuildingBlock: XIVTED_clean_linker_0, # of connection points: 2
#     Edge 34, Type (0, 0), BuildingBlock: XIVTED_clean_linker_0, # of connection points: 2
#     Edge 35, Type (0, 0), BuildingBlock: XIVTED_clean_linker_0, # of connection points: 2
# Relax obj value: 0.178
# Max RMSD: 0.208
# Mean RMSD: 0.204
data_MOF--net-una--node1-AZAVOO_clean_sbu_0--edge1-XIVTED_clean_linker_0
_symmetry_space_group_name_H-M    P1
_symmetry_Int_Tables_number       1
_symmetry_cell_setting            triclinic
loop_
_symmetry_equiv_pos_as_xyz
'x, y, z'
_cell_length_a     57.83842
_cell_length_b     55.372059
_cell_length_c     22.077421
_cell_angle_alpha  90.031961
_cell_angle_beta   89.982126
_cell_angle_gamma 121.33062
loop_
_atom_site_label
_atom_site_type_symbol
_atom_site_fract_x
_atom_site_fract_y
_atom_site_fract_z
_atom_type_partial_charge
Mg0 Mg 0.16832 0.45837 0.9161 0.0
O1 O 0.17384 0.48575 -0.00054 0.0
O2 O 0.21643 0.50654 0.03405 0.0
Mg3 Mg 0.24055 0.49592 0.96775 0.0
C4 C 0.19225 0.50165 0.03743 0.0
C5 C 0.10923 0.44117 0.94116 0.0
O6 O 0.11672 0.43633 -0.00631 0.0
O7 O 0.18929 0.49876 0.86065 0.0
O8 O 0.22927 0.51897 0.89913 0.0
O9 O 0.16068 0.42245 0.97482 0.0
O10 O 0.20184 0.45564 0.94682 0.0
C11 C 0.21366 0.50502 0.85557 0.0
C12 C 0.18659 0.43341 0.97877 0.0
O13 O 0.12643 0.45144 0.89838 0.0
Mg14 Mg 0.69838 0.10478 0.2682 0.0
O15 O 0.71862 0.14164 0.20118 0.0
O16 O 0.69466 0.12858 0.11524 0.0
Mg17 Mg 0.66061 0.08249 0.12504 0.0
C18 C 0.71424 0.14693 0.14764 0.0
C19 C 0.74792 0.15356 0.33753 0.0
O20 O 0.76047 0.15304 0.28841 0.0
O21 O 0.66387 0.11329 0.28145 0.0
O22 O 0.64155 0.09801 0.19357 0.0
O23 O 0.72338 0.08719 0.2331 0.0
O24 O 0.68356 0.07665 0.19677 0.0
C25 C 0.64441 0.10869 0.24632 0.0
C26 C 0.70454 0.07443 0.19286 0.0
O27 O 0.72276 0.13563 0.34354 0.0
Mg28 Mg 0.54524 0.69222 0.35907 0.0
O29 O 0.50128 0.65424 0.36472 0.0
O30 O 0.47617 0.67169 0.39711 0.0
Mg31 Mg 0.50301 0.71859 0.41904 0.0
C32 C 0.47841 0.65112 0.3788 0.0
C33 C 0.57657 0.6819 0.26062 0.0
O34 O 0.58457 0.70871 0.25377 0.0
O35 O 0.53497 0.70974 0.27568 0.0
O36 O 0.51265 0.72826 0.31879 0.0
O37 O 0.55433 0.68669 0.45613 0.0
O38 O 0.53703 0.71213 0.42752 0.0
C39 C 0.52331 0.72398 0.27254 0.0
C40 C 0.54489 0.70259 0.47066 0.0
O41 O 0.55891 0.66764 0.30084 0.0
Mg42 Mg 0.86428 0.58687 0.5208 0.0
O43 O 0.85768 0.55244 0.58808 0.0
O44 O 0.81919 0.53811 0.6382 0.0
Mg45 Mg 0.80162 0.56449 0.60552 0.0
C46 C 0.83998 0.53648 0.627 0.0
C47 C 0.90178 0.58471 0.41998 0.0
O48 O 0.88438 0.58627 0.38448 0.0
O49 O 0.83092 0.55298 0.46006 0.0
O50 O 0.79403 0.54294 0.51361 0.0
O51 O 0.88465 0.62069 0.5927 0.0
O52 O 0.84101 0.59768 0.57116 0.0
C53 C 0.80515 0.53972 0.46679 0.0
C54 C 0.86072 0.61628 0.60314 0.0
O55 O 0.8983 0.5836 0.47699 0.0
Mg56 Mg 0.3148 0.90326 0.75048 0.0
O57 O 0.29428 0.86588 0.68498 0.0
O58 O 0.31868 0.87779 0.59974 0.0
Mg59 Mg 0.35296 0.92394 0.60787 0.0
C60 C 0.2988 0.85994 0.63219 0.0
C61 C 0.26475 0.8559 0.82054 0.0
O62 O 0.25262 0.85633 0.77062 0.0
O63 O 0.34897 0.89434 0.76545 0.0
O64 O 0.37214 0.90949 0.67865 0.0
O65 O 0.29021 0.92094 0.7139 0.0
O66 O 0.32984 0.93066 0.67785 0.0
C67 C 0.36888 0.89902 0.73173 0.0
C68 C 0.309 0.93311 0.67333 0.0
O69 O 0.29001 0.87335 0.82674 0.0
Mg70 Mg 0.45417 0.3108 0.85361 0.0
O71 O 0.49714 0.35059 0.84885 0.0
O72 O 0.52544 0.33569 0.87158 0.0
Mg73 Mg 0.50191 0.28928 0.89924 0.0
C74 C 0.52105 0.35514 0.85577 0.0
C75 C 0.4157 0.31303 0.76555 0.0
O76 O 0.40766 0.28617 0.77168 0.0
O77 O 0.46121 0.29202 0.76877 0.0
O78 O 0.4878 0.27644 0.8014 0.0
O79 O 0.44934 0.31819 0.95227 0.0
O80 O 0.46722 0.29397 0.91878 0.0
C81 C 0.47384 0.27908 0.76008 0.0
C82 C 0.4606 0.30371 0.96397 0.0
O83 O 0.43596 0.33116 0.79629 0.0
Mg84 Mg 0.58895 0.89915 0.82708 0.0
O85 O 0.57863 0.87336 0.9136 0.0
O86 O 0.57756 0.89859 -0.0088 0.0
Mg87 Mg 0.58825 0.94171 0.95315 0.0
C88 C 0.57502 0.87595 0.96954 0.0
C89 C 0.58632 0.84401 0.78298 0.0
O90 O 0.60664 0.85314 0.82105 0.0
O91 O 0.54612 0.89195 0.82495 0.0
O92 O 0.54792 0.91926 0.9018 0.0
O93 O 0.63331 0.91806 0.84692 0.0
O94 O 0.60914 0.93666 0.87517 0.0
C95 C 0.53519 0.90221 0.85829 0.0
C96 C 0.63179 0.9376 0.87553 0.0
O97 O 0.57529 0.85852 0.77481 0.0
Mg98 Mg 0.72127 0.5876 0.02858 0.0
O99 O 0.69164 0.55266 0.9635 0.0
O100 O 0.71348 0.53342 0.9216 0.0
Mg101 Mg 0.75694 0.55609 0.95658 0.0
C102 C 0.69218 0.5346 0.92842 0.0
C103 C 0.68865 0.61515 0.05916 0.0
O104 O 0.70936 0.63438 0.02773 0.0
O105 O 0.71601 0.55357 0.09616 0.0
O106 O 0.74052 0.53815 0.05027 0.0
O107 O 0.73937 0.61999 0.95281 0.0
O108 O 0.75459 0.59278 0.9821 0.0
C109 C 0.72631 0.53792 0.09484 0.0
C110 C 0.75685 0.61224 0.94696 0.0
O111 O 0.68666 0.59147 0.0686 0.0
Mg112 Mg 0.14616 0.69061 0.25249 0.0
O113 O 0.15546 0.65569 0.2292 0.0
O114 O 0.20025 0.67801 0.21517 0.0
Mg115 Mg 0.21929 0.72546 0.22338 0.0
C116 C 0.17702 0.6554 0.218 0.0
C117 C 0.08381 0.64716 0.25014 0.0
O118 O 0.08834 0.65301 0.19214 0.0
O119 O 0.16461 0.69649 0.34752 0.0
O120 O 0.20861 0.7194 0.32347 0.0
O121 O 0.14165 0.69815 0.15353 0.0
O122 O 0.1799 0.72036 0.20433 0.0
C123 C 0.18957 0.70896 0.36255 0.0
C124 C 0.16734 0.71666 0.15413 0.0
O125 O 0.10375 0.65814 0.28658 0.0
Mg126 Mg 0.42356 0.10908 0.31388 0.0
O127 O 0.43252 0.13355 0.40176 0.0
O128 O 0.42856 0.10651 0.48085 0.0
Mg129 Mg 0.4215 0.0651 0.43991 0.0
C130 C 0.433 0.12979 0.45845 0.0
C131 C 0.42778 0.16548 0.27513 0.0
O132 O 0.40801 0.15647 0.3147 0.0
O133 O 0.46616 0.11648 0.31606 0.0
O134 O 0.46344 0.08934 0.39412 0.0
O135 O 0.3789 0.08998 0.32965 0.0
O136 O 0.40247 0.07087 0.35929 0.0
C137 C 0.47681 0.10664 0.35137 0.0
C138 C 0.37987 0.07003 0.35782 0.0
O139 O 0.43806 0.15047 0.26404 0.0
Mg140 Mg 0.28117 0.39149 0.43401 0.0
O141 O 0.31058 0.43827 0.41364 0.0
O142 O 0.28642 0.457 0.38301 0.0
Mg143 Mg 0.24146 0.42191 0.38251 0.0
C144 C 0.30906 0.45927 0.39535 0.0
C145 C 0.31119 0.36418 0.4852 0.0
O146 O 0.29045 0.34334 0.45666 0.0
O147 O 0.26865 0.40353 0.52235 0.0
O148 O 0.24223 0.41863 0.48557 0.0
O149 O 0.28295 0.38149 0.3351 0.0
O150 O 0.25303 0.39031 0.37445 0.0
C151 C 0.2525 0.41255 0.52985 0.0
C152 C 0.26282 0.38521 0.32749 0.0
O153 O 0.31432 0.38864 0.48328 0.0
Mg154 Mg 0.86095 0.32008 0.76758 0.0
O155 O 0.85313 0.35614 0.74725 0.0
O156 O 0.80863 0.33584 0.73175 0.0
Mg157 Mg 0.78843 0.28802 0.73525 0.0
C158 C 0.83227 0.35776 0.73642 0.0
C159 C 0.91185 0.34714 0.85167 0.0
O160 O 0.8954 0.32462 0.88366 0.0
O161 O 0.84156 0.3131 0.86173 0.0
O162 O 0.79778 0.29137 0.83614 0.0
O163 O 0.86641 0.3141 0.66862 0.0
O164 O 0.82743 0.2918 0.71689 0.0
C165 C 0.81651 0.30067 0.87594 0.0
C166 C 0.8406 0.29604 0.66731 0.0
O167 O 0.90337 0.35176 0.80249 0.0
H168 H 0.15902 0.39037 0.05905 0.0
H169 H 0.29076 0.40742 0.22074 0.0
H170 H 0.24006 0.45054 -0.00179 0.0
H171 H 0.21094 0.36643 0.29942 0.0
H172 H 0.27237 0.41595 0.12774 0.0
H173 H 0.17772 0.37389 0.13601 0.0
C174 C 0.18078 0.40008 0.06169 0.0
C175 C 0.19801 0.42224 0.02277 0.0
C176 C 0.2589 0.40471 0.16514 0.0
C177 C 0.21964 0.40339 0.11118 0.0
C178 C 0.26931 0.39965 0.21778 0.0
C179 C 0.25228 0.38631 0.26754 0.0
C180 C 0.2313 0.39596 0.16254 0.0
C181 C 0.22474 0.37694 0.26205 0.0
C182 C 0.19147 0.39064 0.10574 0.0
C183 C 0.22606 0.43375 0.02799 0.0
N184 N 0.21515 0.38202 0.21072 0.0
N185 N 0.23606 0.42433 0.07179 0.0
H186 H 0.78654 0.25884 0.65236 0.0
H187 H 0.8014 0.19625 0.33858 0.0
H188 H 0.86295 0.29342 0.55913 0.0
H189 H 0.72721 0.16218 0.44085 0.0
H190 H 0.82421 0.2338 0.41434 0.0
H191 H 0.76429 0.22615 0.5696 0.0
C192 C 0.79867 0.25995 0.61402 0.0
C193 C 0.82673 0.27904 0.61289 0.0
C194 C 0.80294 0.2181 0.42004 0.0
C195 C 0.80123 0.24077 0.51776 0.0
C196 C 0.78992 0.1966 0.37697 0.0
C197 C 0.76236 0.17594 0.38352 0.0
C198 C 0.78826 0.21894 0.46983 0.0
C199 C 0.74848 0.17754 0.43397 0.0
C200 C 0.78589 0.241 0.56672 0.0
C201 C 0.84126 0.27909 0.56186 0.0
N202 N 0.76158 0.19862 0.47507 0.0
N203 N 0.82837 0.26003 0.51644 0.0
H204 H 0.5839 0.71679 0.55658 0.0
H205 H 0.53941 0.8141 0.71872 0.0
H206 H 0.50791 0.71161 0.52544 0.0
H207 H 0.61105 0.81335 0.76996 0.0
H208 H 0.52506 0.7722 0.65693 0.0
H209 H 0.59123 0.74642 0.6458 0.0
C210 C 0.56839 0.72117 0.56964 0.0
C211 C 0.54558 0.71238 0.53298 0.0
C212 C 0.5438 0.78097 0.68209 0.0
C213 C 0.554 0.74659 0.63354 0.0
C214 C 0.55209 0.80503 0.71716 0.0
C215 C 0.57666 0.81748 0.74883 0.0
C216 C 0.56038 0.76941 0.67779 0.0
C217 C 0.59205 0.80455 0.74582 0.0
C218 C 0.57268 0.73831 0.62015 0.0
C219 C 0.52616 0.71872 0.55149 0.0
N220 N 0.58385 0.78143 0.71018 0.0
N221 N 0.531 0.7358 0.59988 0.0
H222 H 0.82597 0.63477 0.60073 0.0
H223 H 0.80443 0.61416 0.95144 0.0
H224 H 0.88057 0.62637 0.71928 0.0
H225 H 0.7579 0.63656 0.83731 0.0
H226 H 0.83723 0.62687 0.87033 0.0
H227 H 0.80639 0.64466 0.68797 0.0
C228 C 0.83428 0.63576 0.6453 0.0
C229 C 0.85462 0.62945 0.6533 0.0
C230 C 0.82013 0.62947 0.86307 0.0
C231 C 0.83181 0.63989 0.75344 0.0
C232 C 0.80127 0.62204 0.90925 0.0
C233 C 0.77814 0.62373 0.90037 0.0
C234 C 0.81559 0.63816 0.80702 0.0
C235 C 0.77533 0.63464 0.84556 0.0
C236 C 0.82306 0.64135 0.69509 0.0
C237 C 0.86484 0.63109 0.71152 0.0
N238 N 0.79361 0.64093 0.80034 0.0
N239 N 0.85286 0.63553 0.75977 0.0
H240 H 0.21117 0.81351 0.82009 0.0
H241 H 0.22088 0.75692 0.14597 0.0
H242 H 0.28395 0.84884 0.92787 0.0
H243 H 0.14698 0.71746 0.04164 0.0
H244 H 0.24422 0.78908 0.0632 0.0
H245 H 0.18714 0.77733 0.89797 0.0
C246 C 0.22208 0.81372 0.86013 0.0
C247 C 0.24961 0.83432 0.86758 0.0
C248 C 0.22296 0.77328 0.05788 0.0
C249 C 0.22231 0.79294 0.9564 0.0
C250 C 0.20956 0.75462 0.10523 0.0
C251 C 0.18189 0.73419 0.10079 0.0
C252 C 0.20863 0.77189 0.00547 0.0
C253 C 0.16836 0.73281 0.0469 0.0
C254 C 0.20837 0.793 0.90441 0.0
C255 C 0.26274 0.83348 0.92019 0.0
N256 N 0.18184 0.75157 0.00134 0.0
N257 N 0.24897 0.81318 0.96247 0.0
H258 H 0.47331 0.19461 0.2059 0.0
H259 H 0.42667 0.29327 0.05972 0.0
H260 H 0.40417 0.19745 0.26944 0.0
H261 H 0.49865 0.29348 0.00818 0.0
H262 H 0.42263 0.26522 0.14938 0.0
H263 H 0.48683 0.23648 0.14465 0.0
C264 C 0.46103 0.20415 0.20721 0.0
C265 C 0.43732 0.19223 0.242 0.0
C266 C 0.43964 0.27192 0.11911 0.0
C267 C 0.45262 0.24023 0.17161 0.0
C268 C 0.44209 0.28817 0.06828 0.0
C269 C 0.46265 0.29505 0.02584 0.0
C270 C 0.4579 0.2626 0.12709 0.0
C271 C 0.48204 0.28787 0.03886 0.0
C272 C 0.46883 0.22818 0.17241 0.0
C273 C 0.42246 0.20578 0.24272 0.0
N274 N 0.47894 0.27164 0.08775 0.0
N275 N 0.43013 0.22883 0.20728 0.0
H276 H 0.22571 0.53824 0.12517 0.0
H277 H 0.13325 0.60452 0.18072 0.0
H278 H 0.14557 0.5029 0.04966 0.0
H279 H 0.21769 0.64468 0.22886 0.0
H280 H 0.13377 0.56206 0.15065 0.0
H281 H 0.21902 0.57165 0.18283 0.0
C282 C 0.20653 0.53717 0.12135 0.0
C283 C 0.1864 0.51803 0.08147 0.0
C284 C 0.15206 0.58009 0.1685 0.0
C285 C 0.17873 0.5566 0.14703 0.0
C286 C 0.15175 0.60427 0.18577 0.0
C287 C 0.17557 0.62832 0.20635 0.0
C288 C 0.17629 0.57999 0.17247 0.0
C289 C 0.19897 0.62682 0.21217 0.0
C290 C 0.20275 0.55636 0.1542 0.0
C291 C 0.16183 0.5175 0.07917 0.0
N292 N 0.19877 0.60321 0.19495 0.0
N293 N 0.15884 0.53681 0.11075 0.0
H294 H 0.62898 0.11153 0.36274 0.0
H295 H 0.50868 0.13251 0.25189 0.0
H296 H 0.61306 0.12059 0.17574 0.0
H297 H 0.50923 0.09724 0.42595 0.0
H298 H 0.55305 0.13912 0.23021 0.0
H299 H 0.591 0.11694 0.39287 0.0
C300 C 0.61777 0.11506 0.32818 0.0
C301 C 0.6239 0.11522 0.26664 0.0
C302 C 0.54354 0.13018 0.27337 0.0
C303 C 0.58078 0.12156 0.30062 0.0
C304 C 0.51824 0.12647 0.28588 0.0
C305 C 0.50499 0.1139 0.34045 0.0
C306 C 0.55579 0.12145 0.31587 0.0
C307 C 0.5185 0.10663 0.38289 0.0
C308 C 0.59608 0.11802 0.34533 0.0
C309 C 0.60875 0.11988 0.22366 0.0
N310 N 0.54307 0.11034 0.36954 0.0
N311 N 0.58785 0.12274 0.24143 0.0
H312 H 0.36148 0.47149 0.40211 0.0
H313 H 0.42599 0.63828 0.38058 0.0
H314 H 0.31448 0.51071 0.37319 0.0
H315 H 0.47391 0.59923 0.36947 0.0
H316 H 0.38503 0.59159 0.38057 0.0
H317 H 0.4029 0.51787 0.39324 0.0
C318 C 0.35983 0.48981 0.39383 0.0
C319 C 0.33438 0.48715 0.38865 0.0
C320 C 0.40447 0.59318 0.37781 0.0
C321 C 0.38181 0.54034 0.37858 0.0
C322 C 0.42794 0.61988 0.37799 0.0
C323 C 0.45351 0.62274 0.37534 0.0
C324 C 0.40646 0.569 0.37561 0.0
C325 C 0.45465 0.59806 0.37155 0.0
C326 C 0.38352 0.51628 0.38856 0.0
C327 C 0.33358 0.51167 0.37758 0.0
N328 N 0.43145 0.57219 0.37229 0.0
N329 N 0.35692 0.53722 0.37329 0.0
H330 H 0.88179 0.52657 0.61828 0.0
H331 H 0.79274 0.37038 0.74637 0.0
H332 H 0.80289 0.49337 0.69905 0.0
H333 H 0.87819 0.40897 0.71042 0.0
H334 H 0.7967 0.4158 0.72971 0.0
H335 H 0.88185 0.48468 0.65323 0.0
C336 C 0.86463 0.51069 0.64399 0.0
C337 C 0.84215 0.51342 0.65512 0.0
C338 C 0.81467 0.41447 0.72585 0.0
C339 C 0.84204 0.46531 0.69461 0.0
C340 C 0.8124 0.38845 0.73503 0.0
C341 C 0.83514 0.38578 0.72924 0.0
C342 C 0.83979 0.43807 0.70986 0.0
C343 C 0.86013 0.41006 0.71519 0.0
C344 C 0.86471 0.48678 0.66392 0.0
C345 C 0.82059 0.49219 0.68896 0.0
N346 N 0.86175 0.43517 0.70529 0.0
N347 N 0.82094 0.46892 0.70681 0.0
H348 H 0.37618 0.88638 0.84818 0.0
H349 H 0.50152 0.90914 0.93322 0.0
H350 H 0.40866 0.89797 0.6672 0.0
H351 H 0.50539 0.88021 0.75401 0.0
H352 H 0.45796 0.90327 0.90831 0.0
H353 H 0.41313 0.881 0.88512 0.0
C354 C 0.39102 0.88775 0.81621 0.0
C355 C 0.38957 0.89319 0.75469 0.0
C356 C 0.46786 0.89743 0.87484 0.0
C357 C 0.43226 0.88768 0.79675 0.0
C358 C 0.49299 0.9011 0.88882 0.0
C359 C 0.50727 0.89534 0.84546 0.0
C360 C 0.45688 0.88806 0.81681 0.0
C361 C 0.49512 0.88491 0.78882 0.0
C362 C 0.4123 0.88496 0.83743 0.0
C363 C 0.4092 0.89434 0.71521 0.0
N364 N 0.47081 0.88203 0.77582 0.0
N365 N 0.42975 0.89175 0.73697 0.0
H366 H 0.52386 0.40584 0.87252 0.0
H367 H 0.68547 0.49333 0.84936 0.0
H368 H 0.5724 0.37025 0.82498 0.0
H369 H 0.64053 0.52442 0.94318 0.0
H370 H 0.64295 0.45213 0.817 0.0
H371 H 0.56524 0.45295 0.87624 0.0
C372 C 0.54312 0.40801 0.86173 0.0
C373 C 0.54478 0.3841 0.84916 0.0
C374 C 0.64238 0.46812 0.8441 0.0
C375 C 0.59193 0.43766 0.85314 0.0
C376 C 0.66669 0.49174 0.86255 0.0
C377 C 0.66666 0.51222 0.90007 0.0
C378 C 0.61773 0.46478 0.86324 0.0
C379 C 0.64157 0.50905 0.91488 0.0
C380 C 0.5667 0.43483 0.86417 0.0
C381 C 0.57024 0.38807 0.83571 0.0
N382 N 0.61809 0.48557 0.89707 0.0
N383 N 0.59278 0.41426 0.83839 0.0
H384 H 0.20288 0.39793 0.57017 0.0
H385 H 0.26121 0.50555 0.84462 0.0
H386 H 0.28609 0.43809 0.6273 0.0
H387 H 0.17705 0.45792 0.79194 0.0
H388 H 0.26992 0.47588 0.77754 0.0
H389 H 0.19203 0.41363 0.66307 0.0
C390 C 0.21878 0.40969 0.60308 0.0
C391 C 0.24542 0.417 0.59111 0.0
C392 C 0.24947 0.4716 0.78168 0.0
C393 C 0.23343 0.43589 0.69692 0.0
C394 C 0.24446 0.4885 0.82003 0.0
C395 C 0.2184 0.48441 0.82366 0.0
C396 C 0.22829 0.45064 0.74645 0.0
C397 C 0.19751 0.46208 0.79048 0.0
C398 C 0.21263 0.41872 0.65612 0.0
C399 C 0.26529 0.43208 0.63514 0.0
N400 N 0.20299 0.44631 0.75293 0.0
N401 N 0.25901 0.4416 0.68576 0.0
H402 H 0.76818 0.18426 0.17009 0.0
H403 H 0.77175 0.29409 0.93156 0.0
H404 H 0.69991 0.17486 0.06997 0.0
H405 H 0.84053 0.28502 0.96163 0.0
H406 H 0.7485 0.26216 0.01612 0.0
H407 H 0.79707 0.23088 0.12256 0.0
C408 C 0.75925 0.19216 0.1387 0.0
C409 C 0.73178 0.17558 0.12291 0.0
C410 C 0.76898 0.26776 0.00529 0.0
C411 C 0.76426 0.22877 0.07049 0.0
C412 C 0.78234 0.28616 0.95742 0.0
C413 C 0.8078 0.29161 0.93882 0.0
C414 C 0.78109 0.25458 0.03434 0.0
C415 C 0.82077 0.28107 0.97425 0.0
C416 C 0.77568 0.21867 0.11189 0.0
C417 C 0.7211 0.18675 0.08242 0.0
N418 N 0.80694 0.26236 0.01958 0.0
N419 N 0.73737 0.21261 0.05757 0.0
H420 H 0.49555 0.75002 0.24543 0.0
H421 H 0.58128 0.83065 0.952 0.0
H422 H 0.55603 0.7345 0.17286 0.0
H423 H 0.54841 0.86492 0.07757 0.0
H424 H 0.56511 0.78923 0.01799 0.0
H425 H 0.50628 0.78481 0.16621 0.0
C426 C 0.5108 0.75355 0.21224 0.0
C427 C 0.5253 0.73968 0.21661 0.0
C428 C 0.56148 0.80586 0.03082 0.0
C429 C 0.53774 0.77975 0.12591 0.0
C430 C 0.57067 0.82946 -0.0066 0.0
C431 C 0.56632 0.85135 0.00962 0.0
C432 C 0.54736 0.80392 0.08402 0.0
C433 C 0.55245 0.84872 0.06362 0.0
C434 C 0.517 0.77358 0.16724 0.0
C435 C 0.54451 0.74486 0.17153 0.0
N436 N 0.54335 0.82537 0.0987 0.0
N437 N 0.55044 0.7648 0.1283 0.0
H438 H 0.74976 0.50881 0.46567 0.0
H439 H 0.70421 0.53616 0.20643 0.0
H440 H 0.8192 0.53402 0.35086 0.0
H441 H 0.74847 0.5051 0.10936 0.0
H442 H 0.71605 0.52268 0.30132 0.0
H443 H 0.72102 0.4946 0.37598 0.0
C444 C 0.75896 0.51086 0.42175 0.0
C445 C 0.78718 0.52368 0.41559 0.0
C446 C 0.72232 0.51784 0.25912 0.0
C447 C 0.7543 0.5076 0.3132 0.0
C448 C 0.71566 0.5257 0.20484 0.0
C449 C 0.72602 0.52257 0.14994 0.0
C450 C 0.7397 0.50717 0.25821 0.0
C451 C 0.7406 0.50865 0.15072 0.0
C452 C 0.74247 0.50285 0.37066 0.0
C453 C 0.7977 0.52493 0.35768 0.0
N454 N 0.74777 0.50232 0.20414 0.0
N455 N 0.78127 0.51748 0.30847 0.0
H456 H 0.16665 0.7256 0.44871 0.0
H457 H 0.31227 0.83045 0.55682 0.0
H458 H 0.23254 0.71176 0.4188 0.0
H459 H 0.24455 0.82423 0.65349 0.0
H460 H 0.28206 0.78427 0.51183 0.0
H461 H 0.19182 0.75699 0.53349 0.0
C462 C 0.18583 0.7281 0.4618 0.0
C463 C 0.19789 0.71667 0.42606 0.0
C464 C 0.27377 0.79272 0.54355 0.0
C465 C 0.22696 0.753 0.52106 0.0
C466 C 0.29099 0.81924 0.56868 0.0
C467 C 0.28077 0.83127 0.60807 0.0
C468 C 0.24593 0.7784 0.55653 0.0
C469 C 0.25312 0.81567 0.62284 0.0
C470 C 0.20032 0.74625 0.50978 0.0
C471 C 0.22283 0.72069 0.44463 0.0
N472 N 0.23647 0.79021 0.59598 0.0
N473 N 0.23688 0.73914 0.48983 0.0
H474 H 0.42584 0.2476 0.7018 0.0
H475 H 0.47231 0.18479 0.44297 0.0
H476 H 0.5097 0.27161 0.69467 0.0
H477 H 0.40814 0.12878 0.56432 0.0
H478 H 0.48286 0.22469 0.51026 0.0
H479 H 0.4154 0.2118 0.6234 0.0
C480 C 0.44215 0.24592 0.68234 0.0
C481 C 0.46867 0.26248 0.70438 0.0
C482 C 0.46643 0.20364 0.52168 0.0
C483 C 0.45689 0.22211 0.61532 0.0
C484 C 0.46041 0.18099 0.48367 0.0
C485 C 0.43951 0.15359 0.49878 0.0
C486 C 0.45076 0.19885 0.57367 0.0
C487 C 0.4246 0.14961 0.55174 0.0
C488 C 0.43612 0.22538 0.63835 0.0
C489 C 0.48903 0.25919 0.67863 0.0
N490 N 0.43034 0.17214 0.58721 0.0
N491 N 0.48273 0.23933 0.63513 0.0
H492 H 0.08617 0.44725 0.83798 0.0
H493 H 0.93544 0.34617 0.95821 0.0
H494 H 0.06685 0.41427 0.02014 0.0
H495 H 0.95382 0.38899 0.78574 0.0
H496 H 0.98355 0.37278 0.9832 0.0
H497 H 0.03799 0.42804 0.81919 0.0
C498 C 0.07185 0.43619 0.87419 0.0
C499 C 0.08056 0.43215 0.93055 0.0
C500 C 0.97707 0.37656 0.94008 0.0
C501 C 0.02538 0.40996 0.90923 0.0
C502 C 0.94957 0.36134 0.92575 0.0
C503 C 0.94059 0.36518 0.86959 0.0
C504 C 0.99583 0.3956 0.89772 0.0
C505 C 0.95984 0.38527 0.82949 0.0
C506 C 0.04433 0.42524 0.86344 0.0
C507 C 0.06108 0.41776 0.97586 0.0
N508 N 0.98659 0.39951 0.84407 0.0
N509 N 0.03442 0.40698 0.96402 0.0
H510 H 0.65673 0.99353 0.85636 0.0
H511 H 0.7104 0.02853 0.195 0.0
H512 H 0.65636 0.93191 0.9759 0.0
H513 H 0.70312 0.08527 0.07423 0.0
H514 H 0.70229 0.99674 0.10896 0.0
H515 H 0.68564 0.03087 0.92757 0.0
C516 C 0.66345 0.98806 0.89712 0.0
C517 C 0.65437 0.95984 0.91057 0.0
C518 C 0.70316 0.0165 0.10106 0.0
C519 C 0.6864 1.00214 -0.00626 0.0
C520 C 0.70796 0.03466 0.14997 0.0
C521 C 0.7071 0.05925 0.1413 0.0
C522 C 0.69757 0.02322 0.04357 0.0
C523 C 0.70357 0.06626 0.08261 0.0
C524 C 0.6798 0.00931 0.938 0.0
C525 C 0.66326 0.9536 0.96403 0.0
N526 N 0.69865 0.04821 0.03612 0.0
N527 N 0.67841 0.9746 0.0045 0.0
H528 H 0.64664 0.58401 0.13911 0.0
H529 H 0.61135 0.70573 0.16567 0.0
H530 H 0.68586 0.66193 0.03736 0.0
H531 H 0.57199 0.63009 0.27491 0.0
H532 H 0.63595 0.68745 0.11276 0.0
H533 H 0.61649 0.59802 0.18429 0.0
C534 C 0.6488 0.60393 0.12596 0.0
C535 C 0.66895 0.6219 0.08468 0.0
C536 C 0.62186 0.6747 0.14807 0.0
C537 C 0.63462 0.63801 0.13604 0.0
C538 C 0.60775 0.68515 0.17838 0.0
C539 C 0.5897 0.66953 0.22518 0.0
C540 C 0.61812 0.6484 0.1647 0.0
C541 C 0.58577 0.64289 0.23921 0.0
C542 C 0.63162 0.61192 0.1518 0.0
C543 C 0.67081 0.64744 0.06927 0.0
N544 N 0.60004 0.63323 0.20939 0.0
N545 N 0.65399 0.65472 0.09505 0.0
H546 H 0.03666 0.62522 0.18558 0.0
H547 H 0.9441 0.58705 0.48143 0.0
H548 H 0.06678 0.63346 0.368 0.0
H549 H 0.91666 0.58901 0.30067 0.0
H550 H 0.98724 0.5969 0.43942 0.0
H551 H 0.99089 0.60475 0.22586 0.0
C552 C 0.03365 0.62243 0.23408 0.0
C553 C 0.05569 0.63139 0.2735 0.0
C554 C 0.9717 0.59495 0.4089 0.0
C555 C 1.00325 0.60805 0.31995 0.0
C556 C 0.94702 0.58927 0.43283 0.0
C557 C 0.92679 0.58751 0.39459 0.0
C558 C 0.97626 0.59889 0.34622 0.0
C559 C 0.93172 0.59042 0.33196 0.0
C560 C 0.00747 0.6108 0.25706 0.0
C561 C 0.05046 0.62708 0.33592 0.0
N562 N 0.95601 0.59617 0.3098 0.0
N563 N 0.02482 0.61594 0.35722 0.0
H564 H 0.3539 0.01426 0.33545 0.0
H565 H 0.30029 0.97714 0.67447 0.0
H566 H 0.35561 0.07537 0.45898 0.0
H567 H 0.31318 0.92376 0.55484 0.0
H568 H 0.30745 0.00867 0.58855 0.0
H569 H 0.3253 0.97655 0.40631 0.0
C570 C 0.34745 0.01953 0.37691 0.0
C571 C 0.35687 0.04772 0.39164 0.0
C572 C 0.30808 0.98969 0.58092 0.0
C573 C 0.32528 0.00502 0.47428 0.0
C574 C 0.30384 0.97168 0.62972 0.0
C575 C 0.30659 0.94821 0.62141 0.0
C576 C 0.31483 0.98383 0.52381 0.0
C577 C 0.3114 0.942 0.56304 0.0
C578 C 0.33132 0.99809 0.41759 0.0
C579 C 0.3484 0.05371 0.44607 0.0
N580 N 0.31562 0.95984 0.5166 0.0
N581 N 0.33346 0.03252 0.48624 0.0
H582 H 0.35363 0.40105 0.55834 0.0
H583 H 0.37493 0.27902 0.68817 0.0
H584 H 0.30931 0.31421 0.49808 0.0
H585 H 0.42418 0.36617 0.74437 0.0
H586 H 0.35132 0.29238 0.6175 0.0
H587 H 0.38055 0.38968 0.62513 0.0
C588 C 0.34968 0.37966 0.5588 0.0
C589 C 0.32907 0.35851 0.52272 0.0
C590 C 0.3673 0.30868 0.64511 0.0
C591 C 0.35966 0.34537 0.59917 0.0
C592 C 0.3808 0.30103 0.68573 0.0
C593 C 0.40154 0.32149 0.72253 0.0
C594 C 0.37441 0.33703 0.64109 0.0
C595 C 0.40828 0.3497 0.71695 0.0
C596 C 0.36502 0.37319 0.59701 0.0
C597 C 0.32486 0.33119 0.5252 0.0
N598 N 0.39468 0.35665 0.67709 0.0
N599 N 0.33991 0.32542 0.56288 0.0
loop_
_geom_bond_atom_site_label_1
_geom_bond_atom_site_label_2
_geom_bond_distance
_geom_bond_site_symmetry_2
_ccdc_geom_bond_type
Mg0 O1 2.028 . S
Mg0 O7 1.986 1_554 S
Mg0 O9 2.114 . S
Mg0 O10 2.251 . S
Mg0 O13 2.010 . S
O1 Mg0 2.028 . S
O1 C4 1.250 . S
O2 Mg3 2.028 . S
O2 C4 1.248 . S
Mg3 O2 2.028 . S
Mg3 O8 2.032 1_554 S
Mg3 O10 2.079 . S
C4 O1 1.250 . S
C4 O2 1.248 . S
C5 O6 1.263 1_554 S
C5 O13 1.250 . S
O6 C5 1.263 1_556 S
O7 Mg0 1.986 1_556 S
O7 C11 1.246 . S
O8 Mg3 2.032 1_556 S
O8 C11 1.259 . S
O9 Mg0 2.114 . S
O9 C12 1.252 . S
O10 Mg0 2.251 . S
O10 Mg3 2.079 . S
O10 C12 1.273 . S
C11 O7 1.246 . S
C11 O8 1.259 . S
C12 O9 1.252 . S
C12 O10 1.273 . S
O13 Mg0 2.010 . S
O13 C5 1.250 . S
Mg14 O15 2.028 . S
Mg14 O21 1.986 . S
Mg14 O23 2.114 . S
Mg14 O24 2.251 . S
Mg14 O27 2.010 . S
O15 Mg14 2.028 . S
O15 C18 1.250 . S
O16 Mg17 2.028 . S
O16 C18 1.248 . S
Mg17 O16 2.028 . S
Mg17 O22 2.032 . S
Mg17 O24 2.079 . S
C18 O15 1.250 . S
C18 O16 1.248 . S
C19 O20 1.264 . S
C19 O27 1.249 . S
O20 C19 1.264 . S
O21 Mg14 1.986 . S
O21 C25 1.246 . S
O22 Mg17 2.032 . S
O22 C25 1.259 . S
O23 Mg14 2.114 . S
O23 C26 1.252 . S
O24 Mg14 2.251 . S
O24 Mg17 2.079 . S
O24 C26 1.273 . S
C25 O21 1.246 . S
C25 O22 1.259 . S
C26 O23 1.252 . S
C26 O24 1.273 . S
O27 Mg14 2.010 . S
O27 C19 1.249 . S
Mg28 O29 2.028 . S
Mg28 O35 1.986 . S
Mg28 O37 2.114 . S
Mg28 O38 2.251 . S
Mg28 O41 2.010 . S
O29 Mg28 2.028 . S
O29 C32 1.250 . S
O30 Mg31 2.028 . S
O30 C32 1.248 . S
Mg31 O30 2.028 . S
Mg31 O36 2.032 . S
Mg31 O38 2.079 . S
C32 O29 1.250 . S
C32 O30 1.248 . S
C33 O34 1.264 . S
C33 O41 1.249 . S
O34 C33 1.264 . S
O35 Mg28 1.986 . S
O35 C39 1.246 . S
O36 Mg31 2.032 . S
O36 C39 1.259 . S
O37 Mg28 2.114 . S
O37 C40 1.252 . S
O38 Mg28 2.251 . S
O38 Mg31 2.079 . S
O38 C40 1.273 . S
C39 O35 1.246 . S
C39 O36 1.259 . S
C40 O37 1.252 . S
C40 O38 1.273 . S
O41 Mg28 2.010 . S
O41 C33 1.249 . S
Mg42 O43 2.028 . S
Mg42 O49 1.986 . S
Mg42 O51 2.114 . S
Mg42 O52 2.251 . S
Mg42 O55 2.010 . S
O43 Mg42 2.028 . S
O43 C46 1.250 . S
O44 Mg45 2.028 . S
O44 C46 1.248 . S
Mg45 O44 2.028 . S
Mg45 O50 2.032 . S
Mg45 O52 2.079 . S
C46 O43 1.250 . S
C46 O44 1.248 . S
C47 O48 1.264 . S
C47 O55 1.249 . S
O48 C47 1.264 . S
O49 Mg42 1.986 . S
O49 C53 1.246 . S
O50 Mg45 2.032 . S
O50 C53 1.259 . S
O51 Mg42 2.114 . S
O51 C54 1.252 . S
O52 Mg42 2.251 . S
O52 Mg45 2.079 . S
O52 C54 1.273 . S
C53 O49 1.246 . S
C53 O50 1.259 . S
C54 O51 1.252 . S
C54 O52 1.273 . S
O55 Mg42 2.010 . S
O55 C47 1.249 . S
Mg56 O57 2.028 . S
Mg56 O63 1.986 . S
Mg56 O65 2.114 . S
Mg56 O66 2.251 . S
Mg56 O69 2.010 . S
O57 Mg56 2.028 . S
O57 C60 1.250 . S
O58 Mg59 2.028 . S
O58 C60 1.248 . S
Mg59 O58 2.028 . S
Mg59 O64 2.032 . S
Mg59 O66 2.079 . S
C60 O57 1.250 . S
C60 O58 1.248 . S
C61 O62 1.264 . S
C61 O69 1.249 . S
O62 C61 1.264 . S
O63 Mg56 1.986 . S
O63 C67 1.246 . S
O64 Mg59 2.032 . S
O64 C67 1.259 . S
O65 Mg56 2.114 . S
O65 C68 1.252 . S
O66 Mg56 2.251 . S
O66 Mg59 2.079 . S
O66 C68 1.273 . S
C67 O63 1.246 . S
C67 O64 1.259 . S
C68 O65 1.252 . S
C68 O66 1.273 . S
O69 Mg56 2.010 . S
O69 C61 1.249 . S
Mg70 O71 2.028 . S
Mg70 O77 1.986 . S
Mg70 O79 2.114 . S
Mg70 O80 2.251 . S
Mg70 O83 2.010 . S
O71 Mg70 2.028 . S
O71 C74 1.250 . S
O72 Mg73 2.028 . S
O72 C74 1.248 . S
Mg73 O72 2.028 . S
Mg73 O78 2.032 . S
Mg73 O80 2.079 . S
C74 O71 1.250 . S
C74 O72 1.248 . S
C75 O76 1.264 . S
C75 O83 1.249 . S
O76 C75 1.264 . S
O77 Mg70 1.986 . S
O77 C81 1.246 . S
O78 Mg73 2.032 . S
O78 C81 1.259 . S
O79 Mg70 2.114 . S
O79 C82 1.252 . S
O80 Mg70 2.251 . S
O80 Mg73 2.079 . S
O80 C82 1.273 . S
C81 O77 1.246 . S
C81 O78 1.259 . S
C82 O79 1.252 . S
C82 O80 1.273 . S
O83 Mg70 2.010 . S
O83 C75 1.249 . S
Mg84 O85 2.028 . S
Mg84 O91 1.986 . S
Mg84 O93 2.114 . S
Mg84 O94 2.251 . S
Mg84 O97 2.010 . S
O85 Mg84 2.028 . S
O85 C88 1.250 . S
O86 Mg87 2.028 . S
O86 C88 1.248 . S
Mg87 O86 2.028 . S
Mg87 O92 2.032 . S
Mg87 O94 2.079 . S
C88 O85 1.250 . S
C88 O86 1.248 . S
C89 O90 1.264 . S
C89 O97 1.249 . S
O90 C89 1.264 . S
O91 Mg84 1.986 . S
O91 C95 1.246 . S
O92 Mg87 2.032 . S
O92 C95 1.259 . S
O93 Mg84 2.114 . S
O93 C96 1.252 . S
O94 Mg84 2.251 . S
O94 Mg87 2.079 . S
O94 C96 1.273 . S
C95 O91 1.246 . S
C95 O92 1.259 . S
C96 O93 1.252 . S
C96 O94 1.273 . S
O97 Mg84 2.010 . S
O97 C89 1.249 . S
Mg98 O99 2.028 . S
Mg98 O105 1.986 . S
Mg98 O107 2.114 1_554 S
Mg98 O108 2.251 1_554 S
Mg98 O111 2.010 . S
O99 Mg98 2.028 . S
O99 C102 1.250 . S
O100 Mg101 2.028 . S
O100 C102 1.248 . S
Mg101 O100 2.028 . S
Mg101 O106 2.032 . S
Mg101 O108 2.079 1_554 S
C102 O99 1.250 . S
C102 O100 1.248 . S
C103 O104 1.264 . S
C103 O111 1.249 . S
O104 C103 1.264 . S
O105 Mg98 1.986 . S
O105 C109 1.246 . S
O106 Mg101 2.032 . S
O106 C109 1.259 . S
O107 Mg98 2.114 1_556 S
O107 C110 1.252 . S
O108 Mg98 2.251 1_556 S
O108 Mg101 2.079 1_556 S
O108 C110 1.273 . S
C109 O105 1.246 . S
C109 O106 1.259 . S
C110 O107 1.252 . S
C110 O108 1.273 . S
O111 Mg98 2.010 . S
O111 C103 1.249 . S
Mg112 O113 2.028 . S
Mg112 O119 1.986 . S
Mg112 O121 2.114 . S
Mg112 O122 2.251 . S
Mg112 O125 2.010 . S
O113 Mg112 2.028 . S
O113 C116 1.250 . S
O114 Mg115 2.028 . S
O114 C116 1.248 . S
Mg115 O114 2.028 . S
Mg115 O120 2.032 . S
Mg115 O122 2.079 . S
C116 O113 1.250 . S
C116 O114 1.248 . S
C117 O118 1.264 . S
C117 O125 1.249 . S
O118 C117 1.264 . S
O119 Mg112 1.986 . S
O119 C123 1.246 . S
O120 Mg115 2.032 . S
O120 C123 1.259 . S
O121 Mg112 2.114 . S
O121 C124 1.252 . S
O122 Mg112 2.251 . S
O122 Mg115 2.079 . S
O122 C124 1.273 . S
C123 O119 1.246 . S
C123 O120 1.259 . S
C124 O121 1.252 . S
C124 O122 1.273 . S
O125 Mg112 2.010 . S
O125 C117 1.249 . S
Mg126 O127 2.028 . S
Mg126 O133 1.986 . S
Mg126 O135 2.114 . S
Mg126 O136 2.251 . S
Mg126 O139 2.010 . S
O127 Mg126 2.028 . S
O127 C130 1.250 . S
O128 Mg129 2.028 . S
O128 C130 1.248 . S
Mg129 O128 2.028 . S
Mg129 O134 2.032 . S
Mg129 O136 2.079 . S
C130 O127 1.250 . S
C130 O128 1.248 . S
C131 O132 1.264 . S
C131 O139 1.249 . S
O132 C131 1.264 . S
O133 Mg126 1.986 . S
O133 C137 1.246 . S
O134 Mg129 2.032 . S
O134 C137 1.259 . S
O135 Mg126 2.114 . S
O135 C138 1.252 . S
O136 Mg126 2.251 . S
O136 Mg129 2.079 . S
O136 C138 1.273 . S
C137 O133 1.246 . S
C137 O134 1.259 . S
C138 O135 1.252 . S
C138 O136 1.273 . S
O139 Mg126 2.010 . S
O139 C131 1.249 . S
Mg140 O141 2.028 . S
Mg140 O147 1.986 . S
Mg140 O149 2.114 . S
Mg140 O150 2.251 . S
Mg140 O153 2.010 . S
O141 Mg140 2.028 . S
O141 C144 1.250 . S
O142 Mg143 2.028 . S
O142 C144 1.248 . S
Mg143 O142 2.028 . S
Mg143 O148 2.032 . S
Mg143 O150 2.079 . S
C144 O141 1.250 . S
C144 O142 1.248 . S
C145 O146 1.264 . S
C145 O153 1.249 . S
O146 C145 1.264 . S
O147 Mg140 1.986 . S
O147 C151 1.246 . S
O148 Mg143 2.032 . S
O148 C151 1.259 . S
O149 Mg140 2.114 . S
O149 C152 1.252 . S
O150 Mg140 2.251 . S
O150 Mg143 2.079 . S
O150 C152 1.273 . S
C151 O147 1.246 . S
C151 O148 1.259 . S
C152 O149 1.252 . S
C152 O150 1.273 . S
O153 Mg140 2.010 . S
O153 C145 1.249 . S
Mg154 O155 2.028 . S
Mg154 O161 1.986 . S
Mg154 O163 2.114 . S
Mg154 O164 2.251 . S
Mg154 O167 2.010 . S
O155 Mg154 2.028 . S
O155 C158 1.250 . S
O156 Mg157 2.028 . S
O156 C158 1.248 . S
Mg157 O156 2.028 . S
Mg157 O162 2.032 . S
Mg157 O164 2.079 . S
C158 O155 1.250 . S
C158 O156 1.248 . S
C159 O160 1.264 . S
C159 O167 1.249 . S
O160 C159 1.264 . S
O161 Mg154 1.986 . S
O161 C165 1.246 . S
O162 Mg157 2.032 . S
O162 C165 1.259 . S
O163 Mg154 2.114 . S
O163 C166 1.252 . S
O164 Mg154 2.251 . S
O164 Mg157 2.079 . S
O164 C166 1.273 . S
C165 O161 1.246 . S
C165 O162 1.259 . S
C166 O163 1.252 . S
C166 O164 1.273 . S
O167 Mg154 2.010 . S
O167 C159 1.249 . S
H168 C174 0.930 . S
H169 C178 0.930 . S
H170 C183 0.929 . S
H171 C181 0.929 . S
H172 C176 0.929 . S
H173 C182 0.929 . S
C174 H168 0.930 . S
C174 C175 1.367 . S
C174 C182 1.378 . S
C175 C174 1.367 . S
C175 C183 1.433 . S
C176 H172 0.929 . S
C176 C178 1.378 . S
C176 C180 1.350 . S
C177 C180 1.463 . S
C177 C182 1.350 . S
C177 N185 1.427 . S
C178 H169 0.930 . S
C178 C176 1.378 . S
C178 C179 1.367 . S
C179 C178 1.367 . S
C179 C181 1.433 . S
C180 C176 1.350 . S
C180 C177 1.463 . S
C180 N184 1.427 . S
C181 H171 0.929 . S
C181 C179 1.433 . S
C181 N184 1.384 . S
C182 H173 0.929 . S
C182 C174 1.378 . S
C182 C177 1.350 . S
C183 H170 0.929 . S
C183 C175 1.433 . S
C183 N185 1.384 . S
N184 C180 1.427 . S
N184 C181 1.384 . S
N185 C177 1.427 . S
N185 C183 1.384 . S
H186 C192 0.930 . S
H187 C196 0.930 . S
H188 C201 0.929 . S
H189 C199 0.929 . S
H190 C194 0.929 . S
H191 C200 0.929 . S
C192 H186 0.930 . S
C192 C193 1.367 . S
C192 C200 1.378 . S
C193 C192 1.367 . S
C193 C201 1.433 . S
C194 H190 0.929 . S
C194 C196 1.378 . S
C194 C198 1.350 . S
C195 C198 1.463 . S
C195 C200 1.350 . S
C195 N203 1.427 . S
C196 H187 0.930 . S
C196 C194 1.378 . S
C196 C197 1.367 . S
C197 C196 1.367 . S
C197 C199 1.433 . S
C198 C194 1.350 . S
C198 C195 1.463 . S
C198 N202 1.427 . S
C199 H189 0.929 . S
C199 C197 1.433 . S
C199 N202 1.384 . S
C200 H191 0.929 . S
C200 C192 1.378 . S
C200 C195 1.350 . S
C201 H188 0.929 . S
C201 C193 1.433 . S
C201 N203 1.384 . S
N202 C198 1.427 . S
N202 C199 1.384 . S
N203 C195 1.427 . S
N203 C201 1.384 . S
H204 C210 0.930 . S
H205 C214 0.930 . S
H206 C219 0.929 . S
H207 C217 0.929 . S
H208 C212 0.929 . S
H209 C218 0.929 . S
C210 H204 0.930 . S
C210 C211 1.367 . S
C210 C218 1.378 . S
C211 C210 1.367 . S
C211 C219 1.433 . S
C212 H208 0.929 . S
C212 C214 1.378 . S
C212 C216 1.350 . S
C213 C216 1.463 . S
C213 C218 1.350 . S
C213 N221 1.427 . S
C214 H205 0.930 . S
C214 C212 1.378 . S
C214 C215 1.367 . S
C215 C214 1.367 . S
C215 C217 1.433 . S
C216 C212 1.350 . S
C216 C213 1.463 . S
C216 N220 1.427 . S
C217 H207 0.929 . S
C217 C215 1.433 . S
C217 N220 1.384 . S
C218 H209 0.929 . S
C218 C210 1.378 . S
C218 C213 1.350 . S
C219 H206 0.929 . S
C219 C211 1.433 . S
C219 N221 1.384 . S
N220 C216 1.427 . S
N220 C217 1.384 . S
N221 C213 1.427 . S
N221 C219 1.384 . S
H222 C228 0.930 . S
H223 C232 0.930 . S
H224 C237 0.929 . S
H225 C235 0.929 . S
H226 C230 0.929 . S
H227 C236 0.929 . S
C228 H222 0.930 . S
C228 C229 1.367 . S
C228 C236 1.378 . S
C229 C228 1.367 . S
C229 C237 1.433 . S
C230 H226 0.929 . S
C230 C232 1.378 . S
C230 C234 1.350 . S
C231 C234 1.463 . S
C231 C236 1.350 . S
C231 N239 1.427 . S
C232 H223 0.930 . S
C232 C230 1.378 . S
C232 C233 1.367 . S
C233 C232 1.367 . S
C233 C235 1.433 . S
C234 C230 1.350 . S
C234 C231 1.463 . S
C234 N238 1.427 . S
C235 H225 0.929 . S
C235 C233 1.433 . S
C235 N238 1.384 . S
C236 H227 0.929 . S
C236 C228 1.378 . S
C236 C231 1.350 . S
C237 H224 0.929 . S
C237 C229 1.433 . S
C237 N239 1.384 . S
N238 C234 1.427 . S
N238 C235 1.384 . S
N239 C231 1.427 . S
N239 C237 1.384 . S
H240 C246 0.930 . S
H241 C250 0.930 . S
H242 C255 0.929 . S
H243 C253 0.929 . S
H244 C248 0.929 1_556 S
H245 C254 0.929 . S
C246 H240 0.930 . S
C246 C247 1.367 . S
C246 C254 1.378 . S
C247 C246 1.367 . S
C247 C255 1.433 . S
C248 H244 0.929 1_554 S
C248 C250 1.378 . S
C248 C252 1.350 . S
C249 C252 1.463 1_556 S
C249 C254 1.350 . S
C249 N257 1.427 . S
C250 H241 0.930 . S
C250 C248 1.378 . S
C250 C251 1.367 . S
C251 C250 1.367 . S
C251 C253 1.433 . S
C252 C248 1.350 . S
C252 C249 1.463 1_554 S
C252 N256 1.427 . S
C253 H243 0.929 . S
C253 C251 1.433 . S
C253 N256 1.384 . S
C254 H245 0.929 . S
C254 C246 1.378 . S
C254 C249 1.350 . S
C255 H242 0.929 . S
C255 C247 1.433 . S
C255 N257 1.384 . S
N256 C252 1.427 . S
N256 C253 1.384 . S
N257 C249 1.427 . S
N257 C255 1.384 . S
H258 C264 0.930 . S
H259 C268 0.930 . S
H260 C273 0.929 . S
H261 C271 0.929 . S
H262 C266 0.929 . S
H263 C272 0.929 . S
C264 H258 0.930 . S
C264 C265 1.367 . S
C264 C272 1.378 . S
C265 C264 1.367 . S
C265 C273 1.433 . S
C266 H262 0.929 . S
C266 C268 1.378 . S
C266 C270 1.350 . S
C267 C270 1.463 . S
C267 C272 1.350 . S
C267 N275 1.427 . S
C268 H259 0.930 . S
C268 C266 1.378 . S
C268 C269 1.367 1_554 S
C269 C268 1.367 1_556 S
C269 C271 1.433 . S
C270 C266 1.350 . S
C270 C267 1.463 . S
C270 N274 1.427 . S
C271 H261 0.929 . S
C271 C269 1.433 . S
C271 N274 1.384 1_556 S
C272 H263 0.929 . S
C272 C264 1.378 . S
C272 C267 1.350 . S
C273 H260 0.929 . S
C273 C265 1.433 . S
C273 N275 1.384 . S
N274 C270 1.427 . S
N274 C271 1.384 1_554 S
N275 C267 1.427 . S
N275 C273 1.384 . S
H276 C282 0.930 . S
H277 C286 0.930 . S
H278 C291 0.929 . S
H279 C289 0.929 . S
H280 C284 0.929 . S
H281 C290 0.929 . S
C282 H276 0.930 . S
C282 C283 1.367 . S
C282 C290 1.378 . S
C283 C282 1.367 . S
C283 C291 1.433 . S
C284 H280 0.929 . S
C284 C286 1.378 . S
C284 C288 1.350 . S
C285 C288 1.463 . S
C285 C290 1.350 . S
C285 N293 1.427 . S
C286 H277 0.930 . S
C286 C284 1.378 . S
C286 C287 1.367 . S
C287 C286 1.367 . S
C287 C289 1.433 . S
C288 C284 1.350 . S
C288 C285 1.463 . S
C288 N292 1.427 . S
C289 H279 0.929 . S
C289 C287 1.433 . S
C289 N292 1.384 . S
C290 H281 0.929 . S
C290 C282 1.378 . S
C290 C285 1.350 . S
C291 H278 0.929 . S
C291 C283 1.433 . S
C291 N293 1.384 . S
N292 C288 1.427 . S
N292 C289 1.384 . S
N293 C285 1.427 . S
N293 C291 1.384 . S
H294 C300 0.930 . S
H295 C304 0.930 . S
H296 C309 0.929 . S
H297 C307 0.929 . S
H298 C302 0.929 . S
H299 C308 0.929 . S
C300 H294 0.930 . S
C300 C301 1.367 . S
C300 C308 1.378 . S
C301 C300 1.367 . S
C301 C309 1.433 . S
C302 H298 0.929 . S
C302 C304 1.378 . S
C302 C306 1.350 . S
C303 C306 1.463 . S
C303 C308 1.350 . S
C303 N311 1.427 . S
C304 H295 0.930 . S
C304 C302 1.378 . S
C304 C305 1.367 . S
C305 C304 1.367 . S
C305 C307 1.433 . S
C306 C302 1.350 . S
C306 C303 1.463 . S
C306 N310 1.427 . S
C307 H297 0.929 . S
C307 C305 1.433 . S
C307 N310 1.384 . S
C308 H299 0.929 . S
C308 C300 1.378 . S
C308 C303 1.350 . S
C309 H296 0.929 . S
C309 C301 1.433 . S
C309 N311 1.384 . S
N310 C306 1.427 . S
N310 C307 1.384 . S
N311 C303 1.427 . S
N311 C309 1.384 . S
H312 C318 0.930 . S
H313 C322 0.930 . S
H314 C327 0.929 . S
H315 C325 0.929 . S
H316 C320 0.929 . S
H317 C326 0.929 . S
C318 H312 0.930 . S
C318 C319 1.367 . S
C318 C326 1.378 . S
C319 C318 1.367 . S
C319 C327 1.433 . S
C320 H316 0.929 . S
C320 C322 1.378 . S
C320 C324 1.350 . S
C321 C324 1.463 . S
C321 C326 1.350 . S
C321 N329 1.427 . S
C322 H313 0.930 . S
C322 C320 1.378 . S
C322 C323 1.367 . S
C323 C322 1.367 . S
C323 C325 1.433 . S
C324 C320 1.350 . S
C324 C321 1.463 . S
C324 N328 1.427 . S
C325 H315 0.929 . S
C325 C323 1.433 . S
C325 N328 1.384 . S
C326 H317 0.929 . S
C326 C318 1.378 . S
C326 C321 1.350 . S
C327 H314 0.929 . S
C327 C319 1.433 . S
C327 N329 1.384 . S
N328 C324 1.427 . S
N328 C325 1.384 . S
N329 C321 1.427 . S
N329 C327 1.384 . S
H330 C336 0.930 . S
H331 C340 0.930 . S
H332 C345 0.929 . S
H333 C343 0.929 . S
H334 C338 0.929 . S
H335 C344 0.929 . S
C336 H330 0.930 . S
C336 C337 1.367 . S
C336 C344 1.378 . S
C337 C336 1.367 . S
C337 C345 1.433 . S
C338 H334 0.929 . S
C338 C340 1.378 . S
C338 C342 1.350 . S
C339 C342 1.463 . S
C339 C344 1.350 . S
C339 N347 1.427 . S
C340 H331 0.930 . S
C340 C338 1.378 . S
C340 C341 1.367 . S
C341 C340 1.367 . S
C341 C343 1.433 . S
C342 C338 1.350 . S
C342 C339 1.463 . S
C342 N346 1.427 . S
C343 H333 0.929 . S
C343 C341 1.433 . S
C343 N346 1.384 . S
C344 H335 0.929 . S
C344 C336 1.378 . S
C344 C339 1.350 . S
C345 H332 0.929 . S
C345 C337 1.433 . S
C345 N347 1.384 . S
N346 C342 1.427 . S
N346 C343 1.384 . S
N347 C339 1.427 . S
N347 C345 1.384 . S
H348 C354 0.930 . S
H349 C358 0.930 . S
H350 C363 0.929 . S
H351 C361 0.929 . S
H352 C356 0.929 . S
H353 C362 0.929 . S
C354 H348 0.930 . S
C354 C355 1.367 . S
C354 C362 1.378 . S
C355 C354 1.367 . S
C355 C363 1.433 . S
C356 H352 0.929 . S
C356 C358 1.378 . S
C356 C360 1.350 . S
C357 C360 1.463 . S
C357 C362 1.350 . S
C357 N365 1.427 . S
C358 H349 0.930 . S
C358 C356 1.378 . S
C358 C359 1.367 . S
C359 C358 1.367 . S
C359 C361 1.433 . S
C360 C356 1.350 . S
C360 C357 1.463 . S
C360 N364 1.427 . S
C361 H351 0.929 . S
C361 C359 1.433 . S
C361 N364 1.384 . S
C362 H353 0.929 . S
C362 C354 1.378 . S
C362 C357 1.350 . S
C363 H350 0.929 . S
C363 C355 1.433 . S
C363 N365 1.384 . S
N364 C360 1.427 . S
N364 C361 1.384 . S
N365 C357 1.427 . S
N365 C363 1.384 . S
H366 C372 0.930 . S
H367 C376 0.930 . S
H368 C381 0.929 . S
H369 C379 0.929 . S
H370 C374 0.929 . S
H371 C380 0.929 . S
C372 H366 0.930 . S
C372 C373 1.367 . S
C372 C380 1.378 . S
C373 C372 1.367 . S
C373 C381 1.433 . S
C374 H370 0.929 . S
C374 C376 1.378 . S
C374 C378 1.350 . S
C375 C378 1.463 . S
C375 C380 1.350 . S
C375 N383 1.427 . S
C376 H367 0.930 . S
C376 C374 1.378 . S
C376 C377 1.367 . S
C377 C376 1.367 . S
C377 C379 1.433 1_556 S
C378 C374 1.350 . S
C378 C375 1.463 . S
C378 N382 1.427 1_556 S
C379 H369 0.929 . S
C379 C377 1.433 1_554 S
C379 N382 1.384 . S
C380 H371 0.929 . S
C380 C372 1.378 . S
C380 C375 1.350 . S
C381 H368 0.929 . S
C381 C373 1.433 . S
C381 N383 1.384 . S
N382 C378 1.427 1_554 S
N382 C379 1.384 . S
N383 C375 1.427 . S
N383 C381 1.384 . S
H384 C390 0.930 . S
H385 C394 0.930 . S
H386 C399 0.929 . S
H387 C397 0.929 . S
H388 C392 0.929 . S
H389 C398 0.929 . S
C390 H384 0.930 . S
C390 C391 1.367 . S
C390 C398 1.378 . S
C391 C390 1.367 . S
C391 C399 1.433 . S
C392 H388 0.929 . S
C392 C394 1.378 . S
C392 C396 1.350 . S
C393 C396 1.463 . S
C393 C398 1.350 . S
C393 N401 1.427 . S
C394 H385 0.930 . S
C394 C392 1.378 . S
C394 C395 1.367 . S
C395 C394 1.367 . S
C395 C397 1.433 . S
C396 C392 1.350 . S
C396 C393 1.463 . S
C396 N400 1.427 . S
C397 H387 0.929 . S
C397 C395 1.433 . S
C397 N400 1.384 . S
C398 H389 0.929 . S
C398 C390 1.378 . S
C398 C393 1.350 . S
C399 H386 0.929 . S
C399 C391 1.433 . S
C399 N401 1.384 . S
N400 C396 1.427 . S
N400 C397 1.384 . S
N401 C393 1.427 . S
N401 C399 1.384 . S
H402 C408 0.930 . S
H403 C412 0.930 . S
H404 C417 0.929 . S
H405 C415 0.929 . S
H406 C410 0.929 . S
H407 C416 0.929 . S
C408 H402 0.930 . S
C408 C409 1.367 . S
C408 C416 1.378 . S
C409 C408 1.367 . S
C409 C417 1.433 . S
C410 H406 0.929 . S
C410 C412 1.378 . S
C410 C414 1.350 . S
C411 C414 1.463 1_554 S
C411 C416 1.350 . S
C411 N419 1.427 . S
C412 H403 0.930 . S
C412 C410 1.378 . S
C412 C413 1.367 . S
C413 C412 1.367 . S
C413 C415 1.433 . S
C414 C410 1.350 . S
C414 C411 1.463 1_556 S
C414 N418 1.427 . S
C415 H405 0.929 . S
C415 C413 1.433 . S
C415 N418 1.384 . S
C416 H407 0.929 . S
C416 C408 1.378 . S
C416 C411 1.350 . S
C417 H404 0.929 . S
C417 C409 1.433 . S
C417 N419 1.384 . S
N418 C414 1.427 . S
N418 C415 1.384 . S
N419 C411 1.427 . S
N419 C417 1.384 . S
H420 C426 0.930 . S
H421 C430 0.930 . S
H422 C435 0.929 . S
H423 C433 0.929 . S
H424 C428 0.929 . S
H425 C434 0.929 . S
C426 H420 0.930 . S
C426 C427 1.367 . S
C426 C434 1.378 . S
C427 C426 1.367 . S
C427 C435 1.433 . S
C428 H424 0.929 . S
C428 C430 1.378 1_554 S
C428 C432 1.350 . S
C429 C432 1.463 . S
C429 C434 1.350 . S
C429 N437 1.427 . S
C430 H421 0.930 . S
C430 C428 1.378 1_556 S
C430 C431 1.367 . S
C431 C430 1.367 . S
C431 C433 1.433 . S
C432 C428 1.350 . S
C432 C429 1.463 . S
C432 N436 1.427 . S
C433 H423 0.929 . S
C433 C431 1.433 . S
C433 N436 1.384 1_556 S
C434 H425 0.929 . S
C434 C426 1.378 . S
C434 C429 1.350 . S
C435 H422 0.929 . S
C435 C427 1.433 . S
C435 N437 1.384 . S
N436 C432 1.427 . S
N436 C433 1.384 1_554 S
N437 C429 1.427 . S
N437 C435 1.384 . S
H438 C444 0.930 . S
H439 C448 0.930 . S
H440 C453 0.929 . S
H441 C451 0.929 . S
H442 C446 0.929 . S
H443 C452 0.929 . S
C444 H438 0.930 . S
C444 C445 1.367 . S
C444 C452 1.378 . S
C445 C444 1.367 . S
C445 C453 1.433 . S
C446 H442 0.929 . S
C446 C448 1.378 . S
C446 C450 1.350 . S
C447 C450 1.463 . S
C447 C452 1.350 . S
C447 N455 1.427 . S
C448 H439 0.930 . S
C448 C446 1.378 . S
C448 C449 1.367 . S
C449 C448 1.367 . S
C449 C451 1.433 . S
C450 C446 1.350 . S
C450 C447 1.463 . S
C450 N454 1.427 . S
C451 H441 0.929 . S
C451 C449 1.433 . S
C451 N454 1.384 . S
C452 H443 0.929 . S
C452 C444 1.378 . S
C452 C447 1.350 . S
C453 H440 0.929 . S
C453 C445 1.433 . S
C453 N455 1.384 . S
N454 C450 1.427 . S
N454 C451 1.384 . S
N455 C447 1.427 . S
N455 C453 1.384 . S
H456 C462 0.930 . S
H457 C466 0.930 . S
H458 C471 0.929 . S
H459 C469 0.929 . S
H460 C464 0.929 . S
H461 C470 0.929 . S
C462 H456 0.930 . S
C462 C463 1.367 . S
C462 C470 1.378 . S
C463 C462 1.367 . S
C463 C471 1.433 . S
C464 H460 0.929 . S
C464 C466 1.378 . S
C464 C468 1.350 . S
C465 C468 1.463 . S
C465 C470 1.350 . S
C465 N473 1.427 . S
C466 H457 0.930 . S
C466 C464 1.378 . S
C466 C467 1.367 . S
C467 C466 1.367 . S
C467 C469 1.433 . S
C468 C464 1.350 . S
C468 C465 1.463 . S
C468 N472 1.427 . S
C469 H459 0.929 . S
C469 C467 1.433 . S
C469 N472 1.384 . S
C470 H461 0.929 . S
C470 C462 1.378 . S
C470 C465 1.350 . S
C471 H458 0.929 . S
C471 C463 1.433 . S
C471 N473 1.384 . S
N472 C468 1.427 . S
N472 C469 1.384 . S
N473 C465 1.427 . S
N473 C471 1.384 . S
H474 C480 0.930 . S
H475 C484 0.930 . S
H476 C489 0.929 . S
H477 C487 0.929 . S
H478 C482 0.929 . S
H479 C488 0.929 . S
C480 H474 0.930 . S
C480 C481 1.367 . S
C480 C488 1.378 . S
C481 C480 1.367 . S
C481 C489 1.433 . S
C482 H478 0.929 . S
C482 C484 1.378 . S
C482 C486 1.350 . S
C483 C486 1.463 . S
C483 C488 1.350 . S
C483 N491 1.427 . S
C484 H475 0.930 . S
C484 C482 1.378 . S
C484 C485 1.367 . S
C485 C484 1.367 . S
C485 C487 1.433 . S
C486 C482 1.350 . S
C486 C483 1.463 . S
C486 N490 1.427 . S
C487 H477 0.929 . S
C487 C485 1.433 . S
C487 N490 1.384 . S
C488 H479 0.929 . S
C488 C480 1.378 . S
C488 C483 1.350 . S
C489 H476 0.929 . S
C489 C481 1.433 . S
C489 N491 1.384 . S
N490 C486 1.427 . S
N490 C487 1.384 . S
N491 C483 1.427 . S
N491 C489 1.384 . S
H492 C498 0.930 . S
H493 C502 0.930 . S
H494 C507 0.929 . S
H495 C505 0.929 . S
H496 C500 0.929 . S
H497 C506 0.929 . S
C498 H492 0.930 . S
C498 C499 1.367 . S
C498 C506 1.378 . S
C499 C498 1.367 . S
C499 C507 1.433 . S
C500 H496 0.929 . S
C500 C502 1.378 . S
C500 C504 1.350 . S
C501 C504 1.463 1_455 S
C501 C506 1.350 . S
C501 N509 1.427 . S
C502 H493 0.930 . S
C502 C500 1.378 . S
C502 C503 1.367 . S
C503 C502 1.367 . S
C503 C505 1.433 . S
C504 C500 1.350 . S
C504 C501 1.463 1_655 S
C504 N508 1.427 . S
C505 H495 0.929 . S
C505 C503 1.433 . S
C505 N508 1.384 . S
C506 H497 0.929 . S
C506 C498 1.378 . S
C506 C501 1.350 . S
C507 H494 0.929 . S
C507 C499 1.433 . S
C507 N509 1.384 . S
N508 C504 1.427 . S
N508 C505 1.384 . S
N509 C501 1.427 . S
N509 C507 1.384 . S
H510 C516 0.930 . S
H511 C520 0.930 . S
H512 C525 0.929 1_554 S
H513 C523 0.929 . S
H514 C518 0.929 1_565 S
H515 C524 0.929 1_545 S
C516 H510 0.930 . S
C516 C517 1.367 . S
C516 C524 1.378 . S
C517 C516 1.367 . S
C517 C525 1.433 . S
C518 H514 0.929 1_545 S
C518 C520 1.378 . S
C518 C522 1.350 . S
C519 C522 1.463 1_565 S
C519 C524 1.350 1_554 S
C519 N527 1.427 . S
C520 H511 0.930 . S
C520 C518 1.378 . S
C520 C521 1.367 . S
C521 C520 1.367 . S
C521 C523 1.433 . S
C522 C518 1.350 . S
C522 C519 1.463 1_545 S
C522 N526 1.427 . S
C523 H513 0.929 . S
C523 C521 1.433 . S
C523 N526 1.384 . S
C524 H515 0.929 1_565 S
C524 C516 1.378 . S
C524 C519 1.350 1_556 S
C525 H512 0.929 1_556 S
C525 C517 1.433 . S
C525 N527 1.384 1_556 S
N526 C522 1.427 . S
N526 C523 1.384 . S
N527 C519 1.427 . S
N527 C525 1.384 1_554 S
H528 C534 0.930 . S
H529 C538 0.930 . S
H530 C543 0.929 . S
H531 C541 0.929 . S
H532 C536 0.929 . S
H533 C542 0.929 . S
C534 H528 0.930 . S
C534 C535 1.367 . S
C534 C542 1.378 . S
C535 C534 1.367 . S
C535 C543 1.433 . S
C536 H532 0.929 . S
C536 C538 1.378 . S
C536 C540 1.350 . S
C537 C540 1.463 . S
C537 C542 1.350 . S
C537 N545 1.427 . S
C538 H529 0.930 . S
C538 C536 1.378 . S
C538 C539 1.367 . S
C539 C538 1.367 . S
C539 C541 1.433 . S
C540 C536 1.350 . S
C540 C537 1.463 . S
C540 N544 1.427 . S
C541 H531 0.929 . S
C541 C539 1.433 . S
C541 N544 1.384 . S
C542 H533 0.929 . S
C542 C534 1.378 . S
C542 C537 1.350 . S
C543 H530 0.929 . S
C543 C535 1.433 . S
C543 N545 1.384 . S
N544 C540 1.427 . S
N544 C541 1.384 . S
N545 C537 1.427 . S
N545 C543 1.384 . S
H546 C552 0.930 . S
H547 C556 0.930 . S
H548 C561 0.929 . S
H549 C559 0.929 . S
H550 C554 0.929 . S
H551 C560 0.929 1_655 S
C552 H546 0.930 . S
C552 C553 1.367 . S
C552 C560 1.378 . S
C553 C552 1.367 . S
C553 C561 1.433 . S
C554 H550 0.929 . S
C554 C556 1.378 . S
C554 C558 1.350 . S
C555 C558 1.463 1_455 S
C555 C560 1.350 . S
C555 N563 1.427 . S
C556 H547 0.930 . S
C556 C554 1.378 . S
C556 C557 1.367 . S
C557 C556 1.367 . S
C557 C559 1.433 . S
C558 C554 1.350 . S
C558 C555 1.463 1_655 S
C558 N562 1.427 . S
C559 H549 0.929 . S
C559 C557 1.433 . S
C559 N562 1.384 . S
C560 H551 0.929 1_455 S
C560 C552 1.378 . S
C560 C555 1.350 . S
C561 H548 0.929 . S
C561 C553 1.433 . S
C561 N563 1.384 . S
N562 C558 1.427 . S
N562 C559 1.384 . S
N563 C555 1.427 . S
N563 C561 1.384 . S
H564 C570 0.930 . S
H565 C574 0.930 . S
H566 C579 0.929 . S
H567 C577 0.929 . S
H568 C572 0.929 1_545 S
H569 C578 0.929 1_565 S
C570 H564 0.930 . S
C570 C571 1.367 . S
C570 C578 1.378 . S
C571 C570 1.367 . S
C571 C579 1.433 . S
C572 H568 0.929 1_565 S
C572 C574 1.378 . S
C572 C576 1.350 . S
C573 C576 1.463 1_545 S
C573 C578 1.350 . S
C573 N581 1.427 . S
C574 H565 0.930 . S
C574 C572 1.378 . S
C574 C575 1.367 . S
C575 C574 1.367 . S
C575 C577 1.433 . S
C576 C572 1.350 . S
C576 C573 1.463 1_565 S
C576 N580 1.427 . S
C577 H567 0.929 . S
C577 C575 1.433 . S
C577 N580 1.384 . S
C578 H569 0.929 1_545 S
C578 C570 1.378 . S
C578 C573 1.350 . S
C579 H566 0.929 . S
C579 C571 1.433 . S
C579 N581 1.384 . S
N580 C576 1.427 . S
N580 C577 1.384 . S
N581 C573 1.427 . S
N581 C579 1.384 . S
H582 C588 0.930 . S
H583 C592 0.930 . S
H584 C597 0.929 . S
H585 C595 0.929 . S
H586 C590 0.929 . S
H587 C596 0.929 . S
C588 H582 0.930 . S
C588 C589 1.367 . S
C588 C596 1.378 . S
C589 C588 1.367 . S
C589 C597 1.433 . S
C590 H586 0.929 . S
C590 C592 1.378 . S
C590 C594 1.350 . S
C591 C594 1.463 . S
C591 C596 1.350 . S
C591 N599 1.427 . S
C592 H583 0.930 . S
C592 C590 1.378 . S
C592 C593 1.367 . S
C593 C592 1.367 . S
C593 C595 1.433 . S
C594 C590 1.350 . S
C594 C591 1.463 . S
C594 N598 1.427 . S
C595 H585 0.929 . S
C595 C593 1.433 . S
C595 N598 1.384 . S
C596 H587 0.929 . S
C596 C588 1.378 . S
C596 C591 1.350 . S
C597 H584 0.929 . S
C597 C589 1.433 . S
C597 N599 1.384 . S
N598 C594 1.427 . S
N598 C595 1.384 . S
N599 C591 1.427 . S
N599 C597 1.384 . S
C175 C12 1.246 . S
C179 C152 1.248 . S
C193 C166 1.181 . S
C197 C19 1.095 . S
C211 C40 1.191 . S
C215 C89 1.065 . S
C229 C54 1.242 . S
C233 C110 1.238 . S
C247 C61 1.077 . S
C251 C124 1.184 . S
C265 C131 1.071 . S
C269 C82 1.191 . S
C283 C4 1.552 . S
C287 C116 1.547 . S
C301 C25 1.504 . S
C305 C137 1.507 . S
C319 C144 1.557 . S
C323 C32 1.541 . S
C337 C46 1.561 . S
C341 C158 1.541 . S
C355 C67 1.501 . S
C359 C95 1.506 . S
C373 C74 1.547 . S
C377 C102 1.552 1_556 S
C391 C151 0.868 . S
C395 C11 0.866 . S
C409 C18 0.948 . S
C413 C165 0.948 . S
C427 C39 0.948 . S
C431 C88 0.948 . S
C445 C53 0.870 . S
C449 C109 0.874 . S
C463 C123 0.952 . S
C467 C60 0.947 . S
C481 C81 0.948 . S
C485 C130 0.951 . S
C499 C5 1.323 1_556 S
C503 C159 1.317 . S
C517 C96 1.445 . S
C521 C26 1.444 . S
C535 C103 1.314 . S
C539 C33 1.319 . S
C553 C117 1.323 . S
C557 C47 1.326 . S
C571 C138 1.440 . S
C575 C68 1.445 . S
C589 C145 1.321 . S
C593 C75 1.317 . S
