# Generated by pormake.
# Topology qtz-e, (6)-cn, num edge types: 1
# Building blocks:
#     Node 0, Type 0, BuildingBlock: PAMTOO_clean_sbu_0, # of connection points: 6
#     Node 1, Type 0, BuildingBlock: PAMTOO_clean_sbu_0, # of connection points: 6
#     Node 2, Type 0, BuildingBlock: PAMTOO_clean_sbu_0, # of connection points: 6
#     Node 3, Type 0, BuildingBlock: PAMTOO_clean_sbu_0, # of connection points: 6
#     Node 4, Type 0, BuildingBlock: PAMTOO_clean_sbu_0, # of connection points: 6
#     Node 5, Type 0, BuildingBlock: PAMTOO_clean_sbu_0, # of connection points: 6
#     Edge 6, Type (0, 0), BuildingBlock: ZUJKAS_clean_linker_0, # of connection points: 2
#     Edge 7, Type (0, 0), BuildingBlock: ZUJKAS_clean_linker_0, # of connection points: 2
#     Edge 8, Type (0, 0), BuildingBlock: ZUJKAS_clean_linker_0, # of connection points: 2
#     Edge 9, Type (0, 0), BuildingBlock: ZUJKAS_clean_linker_0, # of connection points: 2
#     Edge 10, Type (0, 0), BuildingBlock: ZUJKAS_clean_linker_0, # of connection points: 2
#     Edge 11, Type (0, 0), BuildingBlock: ZUJKAS_clean_linker_0, # of connection points: 2
#     Edge 12, Type (0, 0), BuildingBlock: ZUJKAS_clean_linker_0, # of connection points: 2
#     Edge 13, Type (0, 0), BuildingBlock: ZUJKAS_clean_linker_0, # of connection points: 2
#     Edge 14, Type (0, 0), BuildingBlock: ZUJKAS_clean_linker_0, # of connection points: 2
#     Edge 15, Type (0, 0), BuildingBlock: ZUJKAS_clean_linker_0, # of connection points: 2
#     Edge 16, Type (0, 0), BuildingBlock: ZUJKAS_clean_linker_0, # of connection points: 2
#     Edge 17, Type (0, 0), BuildingBlock: ZUJKAS_clean_linker_0, # of connection points: 2
#     Edge 18, Type (0, 0), BuildingBlock: ZUJKAS_clean_linker_0, # of connection points: 2
#     Edge 19, Type (0, 0), BuildingBlock: ZUJKAS_clean_linker_0, # of connection points: 2
#     Edge 20, Type (0, 0), BuildingBlock: ZUJKAS_clean_linker_0, # of connection points: 2
#     Edge 21, Type (0, 0), BuildingBlock: ZUJKAS_clean_linker_0, # of connection points: 2
#     Edge 22, Type (0, 0), BuildingBlock: ZUJKAS_clean_linker_0, # of connection points: 2
#     Edge 23, Type (0, 0), BuildingBlock: ZUJKAS_clean_linker_0, # of connection points: 2
# Relax obj value: 0.168
# Max RMSD: 0.200
# Mean RMSD: 0.200
data_MOF--net-qtz-e--node1-PAMTOO_clean_sbu_0--edge1-ZUJKAS_clean_linker_0
_symmetry_space_group_name_H-M    P1
_symmetry_Int_Tables_number       1
_symmetry_cell_setting            triclinic
loop_
_symmetry_equiv_pos_as_xyz
'x, y, z'
_cell_length_a     34.366292
_cell_length_b     34.38768
_cell_length_c     62.148357
_cell_angle_alpha  89.988099
_cell_angle_beta   89.911271
_cell_angle_gamma 120.02184
loop_
_atom_site_label
_atom_site_type_symbol
_atom_site_fract_x
_atom_site_fract_y
_atom_site_fract_z
_atom_type_partial_charge
Dy0 Dy 0.16201 0.37043 0.11699 0.0
Dy1 Dy 0.20927 0.46922 0.14166 0.0
C2 C 0.25349 0.41029 0.1422 0.0
O3 O 0.13853 0.35511 0.15119 0.0
O4 O 0.14871 0.42402 0.16115 0.0
O5 O 0.15539 0.30495 0.11268 0.0
O6 O 0.11503 0.32442 0.09375 0.0
O7 O 0.16673 0.47166 0.11548 0.0
O8 O 0.11444 0.39682 0.11494 0.0
O9 O 0.24989 0.48235 0.11157 0.0
O10 O 0.20169 0.42033 0.09137 0.0
O11 O 0.20685 0.52719 0.15281 0.0
O12 O 0.26574 0.52134 0.15924 0.0
C13 C 0.13115 0.38067 0.16439 0.0
O14 O 0.23392 0.39266 0.12383 0.0
O15 O 0.23533 0.42678 0.1551 0.0
C16 C 0.14005 0.28042 0.07659 0.0
C17 C 0.15986 0.2558 0.0365 0.0
C18 C 0.19141 0.29586 0.0467 0.0
C19 C 0.18153 0.30811 0.06654 0.0
C20 C 0.1088 0.24015 0.06674 0.0
C21 C 0.11859 0.22787 0.04687 0.0
C22 C 0.1279 0.29498 0.09646 0.0
C23 C 0.12671 0.43874 0.11042 0.0
C24 C 0.23739 0.46058 0.09314 0.0
C25 C 0.24366 0.55544 0.18596 0.0
C26 C 0.24191 0.58201 0.22877 0.0
C27 C 0.2026 0.54805 0.21901 0.0
C28 C 0.20351 0.53476 0.19788 0.0
C29 C 0.28309 0.5887 0.1957 0.0
C30 C 0.28231 0.6018 0.21692 0.0
C31 C 0.24461 0.54322 0.16333 0.0
H32 H 0.22372 0.31786 0.03933 0.0
H33 H 0.20596 0.33955 0.07388 0.0
H34 H 0.07641 0.21866 0.07418 0.0
H35 H 0.09328 0.19715 0.03936 0.0
H36 H 0.17076 0.53244 0.22748 0.0
H37 H 0.1726 0.5088 0.19076 0.0
H38 H 0.31446 0.6048 0.18682 0.0
H39 H 0.31337 0.62745 0.22403 0.0
Dy40 Dy 0.84031 0.19113 0.40486 0.0
Dy41 Dy 0.79214 0.24237 0.3811 0.0
C42 C 0.739 0.13721 0.38819 0.0
O43 O 0.87619 0.21717 0.3735 0.0
O44 O 0.81916 0.21811 0.35486 0.0
O45 O 0.84918 0.1337 0.40953 0.0
O46 O 0.89013 0.19487 0.42727 0.0
O47 O 0.86434 0.29217 0.38491 0.0
O48 O 0.87304 0.26263 0.41599 0.0
O49 O 0.78121 0.24527 0.41652 0.0
O50 O 0.78921 0.18625 0.42848 0.0
O51 O 0.78532 0.30099 0.37666 0.0
O52 O 0.74268 0.23972 0.35898 0.0
C53 C 0.85797 0.21932 0.35528 0.0
O54 O 0.77699 0.13684 0.38959 0.0
O55 O 0.73783 0.17453 0.38959 0.0
C56 C 0.86764 0.12713 0.44551 0.0
C57 C 0.85007 0.08338 0.48583 0.0
C58 C 0.81487 0.08167 0.4735 0.0
C59 C 0.8236 0.10353 0.4536 0.0
C60 C 0.90276 0.12862 0.45757 0.0
C61 C 0.89413 0.10703 0.47754 0.0
C62 C 0.87769 0.15257 0.42523 0.0
C63 C 0.88389 0.29746 0.40356 0.0
C64 C 0.77604 0.21577 0.43142 0.0
C65 C 0.76091 0.30764 0.34209 0.0
C66 C 0.76888 0.3525 0.30302 0.0
C67 C 0.80422 0.34637 0.31034 0.0
C68 C 0.8002 0.32397 0.32972 0.0
C69 C 0.72589 0.31403 0.33501 0.0
C70 C 0.72975 0.33618 0.31564 0.0
C71 C 0.75472 0.28183 0.36179 0.0
H72 H 0.78047 0.06334 0.47918 0.0
H73 H 0.79601 0.10234 0.44464 0.0
H74 H 0.93704 0.14717 0.4517 0.0
H75 H 0.92219 0.10981 0.48669 0.0
H76 H 0.83495 0.35889 0.30111 0.0
H77 H 0.82746 0.31899 0.33496 0.0
H78 H 0.69517 0.30115 0.3443 0.0
H79 H 0.70157 0.33952 0.31032 0.0
Dy80 Dy 0.65313 0.79739 0.78342 0.0
Dy81 Dy 0.57092 0.78762 0.81533 0.0
C82 C 0.64593 0.88071 0.79876 0.0
O83 O 0.67583 0.80138 0.81755 0.0
O84 O 0.60633 0.75777 0.83249 0.0
O85 O 0.72319 0.83495 0.77439 0.0
O86 O 0.67752 0.77438 0.75704 0.0
O87 O 0.54456 0.72128 0.79934 0.0
O88 O 0.61093 0.72391 0.79039 0.0
O89 O 0.55737 0.81019 0.78397 0.0
O90 O 0.59668 0.78769 0.76205 0.0
O91 O 0.50164 0.7627 0.82438 0.0
O92 O 0.55542 0.80853 0.84532 0.0
C93 C 0.65009 0.77571 0.83323 0.0
O94 O 0.65321 0.86202 0.78211 0.0
O95 O 0.62953 0.85725 0.81638 0.0
C96 C 0.7323 0.8346 0.73672 0.0
C97 C 0.75605 0.87727 0.69607 0.0
C98 C 0.73713 0.89177 0.71206 0.0
C99 C 0.72513 0.8705 0.73211 0.0
C100 C 0.75164 0.8203 0.72099 0.0
C101 C 0.7634 0.84139 0.70085 0.0
C102 C 0.71718 0.81036 0.75734 0.0
C103 C 0.567 0.70159 0.79306 0.0
C104 C 0.56697 0.80081 0.76484 0.0
C105 C 0.48971 0.7529 0.86187 0.0
C106 C 0.45093 0.7008 0.89914 0.0
C107 C 0.47188 0.6874 0.88371 0.0
C108 C 0.49131 0.71337 0.86527 0.0
C109 C 0.46841 0.76609 0.87704 0.0
C110 C 0.44919 0.7403 0.89553 0.0
C111 C 0.51225 0.78184 0.84324 0.0
H112 H 0.73158 0.91967 0.70914 0.0
H113 H 0.70985 0.88186 0.74394 0.0
H114 H 0.75693 0.79231 0.72416 0.0
H115 H 0.77723 0.82883 0.68886 0.0
H116 H 0.47418 0.65742 0.88614 0.0
H117 H 0.50812 0.70297 0.8538 0.0
H118 H 0.46709 0.79663 0.8747 0.0
H119 H 0.43284 0.75122 0.90698 0.0
Dy120 Dy 0.80164 0.63982 0.07374 0.0
Dy121 Dy 0.72037 0.54498 0.05339 0.0
C122 C 0.82403 0.57492 0.0467 0.0
O123 O 0.77751 0.65733 0.04384 0.0
O124 O 0.75258 0.59108 0.02568 0.0
O125 O 0.87061 0.68251 0.08338 0.0
O126 O 0.82275 0.70559 0.08694 0.0
O127 O 0.69295 0.58761 0.06514 0.0
O128 O 0.73972 0.61856 0.09352 0.0
O129 O 0.72349 0.53042 0.08825 0.0
O130 O 0.79696 0.58474 0.09446 0.0
O131 O 0.65433 0.51038 0.03922 0.0
O132 O 0.69023 0.47463 0.04497 0.0
C133 C 0.76596 0.63412 0.02585 0.0
O134 O 0.83552 0.61699 0.05035 0.0
O135 O 0.78297 0.54178 0.04995 0.0
C136 C 0.87937 0.72753 0.11331 0.0
C137 C 0.91417 0.75167 0.15531 0.0
C138 C 0.93938 0.77686 0.13744 0.0
C139 C 0.92208 0.76487 0.11663 0.0
C140 C 0.85377 0.70254 0.13106 0.0
C141 C 0.87094 0.71465 0.15191 0.0
C142 C 0.86317 0.71329 0.09126 0.0
C143 C 0.70018 0.60359 0.08472 0.0
C144 C 0.76054 0.54708 0.09976 0.0
C145 C 0.64501 0.45528 0.01394 0.0
C146 C 0.62367 0.41943 0.97202 0.0
C147 C 0.6469 0.46617 0.97523 0.0
C148 C 0.65763 0.48393 0.996 0.0
C149 C 0.6222 0.40869 0.01081 0.0
C150 C 0.61167 0.39087 0.99002 0.0
C151 C 0.65558 0.4736 0.03589 0.0
H152 H 0.97257 0.80581 0.13955 0.0
H153 H 0.94236 0.78436 0.10308 0.0
H154 H 0.82089 0.67321 0.12875 0.0
H155 H 0.85093 0.69427 0.16531 0.0
H156 H 0.65708 0.48902 0.96168 0.0
H157 H 0.6756 0.52003 0.99805 0.0
H158 H 0.6123 0.38609 0.02446 0.0
H159 H 0.59338 0.35473 0.98806 0.0
Dy160 Dy 0.19338 0.83049 0.45586 0.0
Dy161 Dy 0.25366 0.7956 0.4825 0.0
C162 C 0.14762 0.73722 0.48009 0.0
O163 O 0.2196 0.87392 0.48519 0.0
O164 O 0.2292 0.82555 0.50696 0.0
O165 O 0.12982 0.82098 0.44473 0.0
O166 O 0.19118 0.88286 0.4375 0.0
O167 O 0.29658 0.86642 0.47189 0.0
O168 O 0.26061 0.85723 0.44028 0.0
O169 O 0.25101 0.77145 0.44877 0.0
O170 O 0.19048 0.77568 0.43541 0.0
O171 O 0.31775 0.79978 0.48798 0.0
O172 O 0.25946 0.75459 0.50701 0.0
C173 C 0.22576 0.86155 0.50432 0.0
O174 O 0.14592 0.77418 0.4772 0.0
O175 O 0.1855 0.73694 0.47873 0.0
C176 C 0.13384 0.85462 0.41137 0.0
C177 C 0.10162 0.84338 0.3688 0.0
C178 C 0.12547 0.82226 0.37576 0.0
C179 C 0.14143 0.82784 0.39686 0.0
C180 C 0.11082 0.87634 0.40446 0.0
C181 C 0.09486 0.87083 0.38335 0.0
C182 C 0.14814 0.85847 0.4339 0.0
C183 C 0.29788 0.87561 0.45142 0.0
C184 C 0.21994 0.76193 0.43404 0.0
C185 C 0.32934 0.7876 0.52413 0.0
C186 C 0.37463 0.81091 0.56383 0.0
C187 C 0.35317 0.83395 0.55624 0.0
C188 C 0.33069 0.82238 0.5365 0.0
C189 C 0.35142 0.76524 0.53136 0.0
C190 C 0.3739 0.77676 0.55104 0.0
C191 C 0.30271 0.7724 0.50437 0.0
H192 H 0.13081 0.80049 0.36507 0.0
H193 H 0.15904 0.81067 0.40197 0.0
H194 H 0.10475 0.89718 0.41547 0.0
H195 H 0.07722 0.88807 0.37843 0.0
H196 H 0.35345 0.86063 0.56563 0.0
H197 H 0.31366 0.83993 0.53108 0.0
H198 H 0.35035 0.73809 0.52204 0.0
H199 H 0.38939 0.75781 0.55656 0.0
Dy200 Dy 0.35778 0.15247 0.74236 0.0
Dy201 Dy 0.45335 0.20849 0.71487 0.0
C202 C 0.39639 0.25523 0.72818 0.0
O203 O 0.345 0.11948 0.71017 0.0
O204 O 0.39815 0.17915 0.69065 0.0
O205 O 0.28799 0.13208 0.74804 0.0
O206 O 0.32109 0.10569 0.76788 0.0
O207 O 0.43651 0.13732 0.71694 0.0
O208 O 0.40163 0.12322 0.74947 0.0
O209 O 0.47219 0.22014 0.74985 0.0
O210 O 0.40478 0.20554 0.76472 0.0
O211 O 0.52065 0.22175 0.7084 0.0
O212 O 0.49363 0.25732 0.69071 0.0
C213 C 0.36176 0.13942 0.69167 0.0
O214 O 0.36038 0.21599 0.73175 0.0
O215 O 0.43609 0.25985 0.72465 0.0
C216 C 0.2708 0.12243 0.78511 0.0
C217 C 0.24822 0.14514 0.825 0.0
C218 C 0.28228 0.17834 0.81204 0.0
C219 C 0.29353 0.16707 0.79231 0.0
C220 C 0.23621 0.08933 0.79767 0.0
C221 C 0.22491 0.10057 0.81745 0.0
C222 C 0.28574 0.10988 0.76547 0.0
C223 C 0.42533 0.11568 0.73526 0.0
C224 C 0.44843 0.22234 0.76599 0.0
C225 C 0.54478 0.24259 0.6725 0.0
C226 C 0.57852 0.2319 0.63297 0.0
C227 C 0.54264 0.19473 0.64324 0.0
C228 C 0.52573 0.20009 0.66283 0.0
C229 C 0.58075 0.27954 0.66244 0.0
C230 C 0.59748 0.27429 0.64285 0.0
C231 C 0.52684 0.24946 0.69268 0.0
H232 H 0.30048 0.21306 0.81721 0.0
H233 H 0.32057 0.19306 0.78286 0.0
H234 H 0.2187 0.05463 0.79245 0.0
H235 H 0.19891 0.07409 0.82712 0.0
H236 H 0.52712 0.16176 0.63591 0.0
H237 H 0.49763 0.17123 0.67033 0.0
H238 H 0.59576 0.31257 0.6697 0.0
H239 H 0.6255 0.30342 0.63548 0.0
H240 H 0.151 0.71728 0.40567 0.0
H241 H 0.15196 0.68042 0.37221 0.0
H242 H 0.28928 0.71545 0.3844 0.0
H243 H 0.28814 0.75118 0.41817 0.0
H244 H 0.20309 0.71816 0.33786 0.0
H245 H 0.23535 0.58552 0.3681 0.0
H246 H 0.2191 0.61683 0.38562 0.0
H247 H 0.27672 0.64033 0.37721 0.0
C248 C 0.18123 0.71663 0.40135 0.0
C249 C 0.21947 0.73701 0.41459 0.0
C250 C 0.18171 0.69554 0.38223 0.0
C251 C 0.22048 0.6946 0.37592 0.0
C252 C 0.25859 0.71464 0.3892 0.0
H253 H 0.28721 0.66808 0.24441 0.0
H254 H 0.2823 0.69402 0.28029 0.0
C255 C 0.25796 0.73528 0.40846 0.0
C256 C 0.22201 0.67544 0.35476 0.0
H257 H 0.24659 0.60133 0.33035 0.0
C258 C 0.21224 0.69234 0.33624 0.0
C259 C 0.23336 0.64132 0.35266 0.0
C260 C 0.24126 0.6196 0.37198 0.0
C261 C 0.21442 0.6768 0.31567 0.0
C262 C 0.22807 0.64439 0.31349 0.0
C263 C 0.2368 0.62667 0.33202 0.0
C264 C 0.23312 0.62822 0.29211 0.0
C265 C 0.20135 0.6948 0.29653 0.0
C266 C 0.20872 0.5823 0.28714 0.0
C267 C 0.21228 0.56714 0.26676 0.0
C268 C 0.24027 0.59766 0.25092 0.0
C269 C 0.26559 0.64353 0.2562 0.0
C270 C 0.26231 0.65856 0.27664 0.0
H271 H 0.17916 0.70822 0.3013 0.0
H272 H 0.2321 0.72272 0.28916 0.0
H273 H 0.18377 0.6684 0.28416 0.0
H274 H 0.18636 0.55822 0.29892 0.0
H275 H 0.193 0.53149 0.26343 0.0
H276 H 0.6 0.28641 0.5978 0.0
H277 H 0.63174 0.28012 0.56363 0.0
H278 H 0.62908 0.16035 0.58647 0.0
H279 H 0.59698 0.1663 0.62071 0.0
H280 H 0.71179 0.2821 0.5573 0.0
H281 H 0.56962 0.12111 0.52778 0.0
H282 H 0.56372 0.15209 0.54976 0.0
H283 H 0.58919 0.11809 0.55416 0.0
C284 C 0.60614 0.2587 0.59554 0.0
C285 C 0.59605 0.22686 0.61194 0.0
C286 C 0.62411 0.25507 0.57599 0.0
C287 C 0.63228 0.2195 0.57241 0.0
C288 C 0.6221 0.1875 0.5887 0.0
H289 H 0.75664 0.15826 0.46546 0.0
H290 H 0.72253 0.15913 0.49988 0.0
C291 C 0.60386 0.19098 0.60826 0.0
C292 C 0.65329 0.21728 0.55194 0.0
H293 H 0.63728 0.15234 0.50758 0.0
C294 C 0.69544 0.25379 0.5464 0.0
C295 C 0.63196 0.1802 0.5378 0.0
C296 C 0.58595 0.14079 0.54252 0.0
C297 C 0.71696 0.25417 0.52714 0.0
C298 C 0.69546 0.21732 0.51292 0.0
C299 C 0.65359 0.18054 0.51855 0.0
C300 C 0.7157 0.21668 0.49198 0.0
C301 C 0.76281 0.29375 0.52229 0.0
C302 C 0.72258 0.24842 0.47605 0.0
C303 C 0.74204 0.24807 0.45635 0.0
C304 C 0.75483 0.21581 0.45219 0.0
C305 C 0.74734 0.18368 0.46813 0.0
C306 C 0.72778 0.18404 0.48781 0.0
H307 H 0.77928 0.31353 0.53699 0.0
H308 H 0.78504 0.28256 0.51495 0.0
H309 H 0.75927 0.31628 0.51067 0.0
H310 H 0.71275 0.27342 0.47885 0.0
H311 H 0.74712 0.27318 0.44443 0.0
H312 H 0.3037 0.54834 0.08809 0.0
H313 H 0.34187 0.58603 0.05476 0.0
H314 H 0.26873 0.46101 0.02029 0.0
H315 H 0.22971 0.4232 0.05338 0.0
H316 H 0.39553 0.57201 0.02648 0.0
H317 H 0.23962 0.54356 0.98587 0.0
H318 H 0.2417 0.53409 0.01429 0.0
H319 H 0.23751 0.49306 0.99508 0.0
C320 C 0.29582 0.52877 0.07345 0.0
C321 C 0.2632 0.48285 0.07338 0.0
C322 C 0.31769 0.55039 0.05441 0.0
C323 C 0.30744 0.52655 0.03495 0.0
C324 C 0.27629 0.48033 0.035 0.0
H325 H 0.39925 0.60941 0.90309 0.0
H326 H 0.36641 0.56583 0.93605 0.0
C327 C 0.25418 0.45873 0.05398 0.0
C328 C 0.3289 0.55024 0.01461 0.0
H329 H 0.30598 0.57583 0.9648 0.0
C330 C 0.37597 0.5729 0.013 0.0
C331 C 0.3033 0.55139 0.99704 0.0
C332 C 0.25277 0.5296 0.99815 0.0
C333 C 0.3981 0.5964 0.99424 0.0
C334 C 0.37248 0.59761 0.97674 0.0
C335 C 0.32546 0.57462 0.97824 0.0
C336 C 0.39384 0.62381 0.95698 0.0
C337 C 0.44869 0.61942 0.99317 0.0
C338 C 0.4198 0.67079 0.95785 0.0
C339 C 0.43847 0.69572 0.93909 0.0
C340 C 0.4315 0.67411 0.91908 0.0
C341 C 0.4056 0.62697 0.91828 0.0
C342 C 0.38669 0.60207 0.93706 0.0
H343 H 0.4625 0.60648 0.00563 0.0
H344 H 0.45998 0.61492 0.97708 0.0
H345 H 0.46298 0.65596 0.99591 0.0
H346 H 0.42515 0.68823 0.97303 0.0
H347 H 0.45859 0.73194 0.94027 0.0
H348 H 0.80451 0.34335 0.26514 0.0
H349 H 0.80647 0.37744 0.23032 0.0
H350 H 0.73974 0.44334 0.25828 0.0
H351 H 0.73961 0.41129 0.29332 0.0
H352 H 0.73592 0.36651 0.20608 0.0
H353 H 0.84381 0.546 0.22727 0.0
H354 H 0.83841 0.50116 0.24439 0.0
H355 H 0.79604 0.51734 0.24472 0.0
C356 C 0.79113 0.36588 0.264 0.0
C357 C 0.772 0.37467 0.28205 0.0
C358 C 0.79191 0.38499 0.24404 0.0
C359 C 0.77372 0.41331 0.24177 0.0
C360 C 0.75474 0.42227 0.25975 0.0
H361 H 0.68921 0.48246 0.12273 0.0
H362 H 0.692 0.44825 0.15685 0.0
C363 C 0.75418 0.40343 0.27972 0.0
C364 C 0.77299 0.43214 0.22044 0.0
H365 H 0.80416 0.53044 0.19405 0.0
C366 C 0.75109 0.40237 0.20338 0.0
C367 C 0.79324 0.47893 0.21693 0.0
C368 C 0.81959 0.51273 0.23424 0.0
C369 C 0.74824 0.41812 0.18294 0.0
C370 C 0.76691 0.46482 0.17967 0.0
C371 C 0.78941 0.49459 0.19666 0.0
C372 C 0.76469 0.48387 0.15863 0.0
C373 C 0.72601 0.38466 0.16497 0.0
C374 C 0.80451 0.51579 0.14853 0.0
C375 C 0.80299 0.53577 0.12928 0.0
C376 C 0.76156 0.52413 0.11966 0.0
C377 C 0.72163 0.49175 0.12964 0.0
C378 C 0.72319 0.47203 0.14907 0.0
H379 H 0.72493 0.35243 0.16843 0.0
H380 H 0.69089 0.37741 0.16312 0.0
H381 H 0.74384 0.39814 0.14947 0.0
H382 H 0.83688 0.52546 0.15564 0.0
H383 H 0.8344 0.56047 0.12197 0.0
H384 H 0.50415 0.82799 0.76281 0.0
H385 H 0.467 0.83478 0.73048 0.0
H386 H 0.54379 0.79398 0.69115 0.0
H387 H 0.58047 0.78656 0.72305 0.0
H388 H 0.50474 0.88742 0.69221 0.0
H389 H 0.41262 0.70482 0.67508 0.0
H390 H 0.43804 0.7274 0.70087 0.0
H391 H 0.47178 0.72688 0.67882 0.0
C392 C 0.51297 0.82029 0.74728 0.0
C393 C 0.54479 0.80606 0.74556 0.0
C394 C 0.49184 0.82434 0.72886 0.0
C395 C 0.5021 0.81403 0.70854 0.0
C396 C 0.53472 0.80113 0.70676 0.0
H397 H 0.45382 0.81597 0.57529 0.0
H398 H 0.4831 0.82115 0.61165 0.0
C399 C 0.55573 0.79701 0.72506 0.0
C400 C 0.47888 0.81628 0.68898 0.0
H401 H 0.41862 0.75334 0.64603 0.0
C402 C 0.48525 0.85806 0.68225 0.0
C403 C 0.45325 0.77778 0.67615 0.0
C404 C 0.44309 0.7316 0.68318 0.0
C405 C 0.46855 0.86264 0.66235 0.0
C406 C 0.44508 0.82454 0.64909 0.0
C407 C 0.43712 0.78254 0.65623 0.0
C408 C 0.43022 0.82748 0.62721 0.0
C409 C 0.4775 0.90825 0.65514 0.0
C410 C 0.39119 0.83 0.62404 0.0
C411 C 0.37406 0.82657 0.60329 0.0
C412 C 0.39572 0.82042 0.58545 0.0
C413 C 0.43596 0.81994 0.58871 0.0
C414 C 0.45291 0.82321 0.60942 0.0
H415 H 0.49833 0.93503 0.66687 0.0
H416 H 0.4949 0.91676 0.63932 0.0
H417 H 0.4451 0.90757 0.653 0.0
H418 H 0.37305 0.8328 0.63767 0.0
H419 H 0.34275 0.82658 0.60135 0.0
H420 H 0.63034 0.34981 0.95468 0.0
H421 H 0.6079 0.31762 0.9186 0.0
H422 H 0.56577 0.41354 0.90377 0.0
H423 H 0.58839 0.44602 0.93969 0.0
H424 H 0.52494 0.27813 0.9008 0.0
H425 H 0.6419 0.4252 0.85169 0.0
H426 H 0.64904 0.42215 0.8803 0.0
H427 H 0.60979 0.43793 0.87024 0.0
C428 C 0.61639 0.36408 0.94369 0.0
C429 C 0.61129 0.40056 0.94998 0.0
C430 C 0.60379 0.34581 0.92307 0.0
C431 C 0.58593 0.3637 0.90836 0.0
C432 C 0.58067 0.40002 0.91463 0.0
H433 H 0.41051 0.23625 0.80165 0.0
H434 H 0.44659 0.26982 0.83572 0.0
C435 C 0.59348 0.41845 0.93519 0.0
C436 C 0.57029 0.34276 0.88691 0.0
H437 H 0.57931 0.36574 0.83307 0.0
C438 C 0.53719 0.29718 0.88598 0.0
C439 C 0.58673 0.36746 0.86757 0.0
C440 C 0.62416 0.41577 0.86743 0.0
C441 C 0.51887 0.27607 0.86629 0.0
C442 C 0.5335 0.30144 0.84706 0.0
C443 C 0.56781 0.34653 0.84788 0.0
C444 C 0.51231 0.28209 0.82608 0.0
C445 C 0.48393 0.22678 0.86625 0.0
C446 C 0.53768 0.27916 0.80909 0.0
C447 C 0.51717 0.26011 0.78942 0.0
C448 C 0.471 0.24394 0.78643 0.0
C449 C 0.44604 0.24794 0.80339 0.0
C450 C 0.46654 0.26695 0.82296 0.0
H451 H 0.48591 0.20964 0.88102 0.0
H452 H 0.44997 0.2231 0.86569 0.0
H453 H 0.48783 0.20958 0.85198 0.0
H454 H 0.57318 0.29103 0.81115 0.0
H455 H 0.53739 0.2577 0.77668 0.0
H456 H 0.30933 0.4596 0.17516 0.0
H457 H 0.39128 0.49504 0.17573 0.0
H458 H 0.38749 0.42666 0.11695 0.0
H459 H 0.3057 0.39075 0.1163 0.0
H460 H 0.45466 0.43559 0.1476 0.0
H461 H 0.45787 0.59633 0.13046 0.0
H462 H 0.42858 0.56603 0.15427 0.0
H463 H 0.40715 0.54253 0.12824 0.0
C464 C 0.32579 0.45115 0.16264 0.0
C465 C 0.30102 0.42292 0.14546 0.0
C466 C 0.37265 0.47162 0.16296 0.0
C467 C 0.39535 0.46414 0.14615 0.0
C468 C 0.37051 0.43301 0.13002 0.0
H469 H 0.62128 0.59316 0.07003 0.0
H470 H 0.55131 0.56524 0.09014 0.0
C471 C 0.32373 0.41254 0.12967 0.0
C472 C 0.44467 0.49213 0.14375 0.0
H473 H 0.526 0.59677 0.12786 0.0
C474 C 0.47063 0.47108 0.14377 0.0
C475 C 0.46508 0.53834 0.13857 0.0
C476 C 0.43839 0.56232 0.13771 0.0
C477 C 0.51611 0.49454 0.13772 0.0
C478 C 0.53599 0.54024 0.13167 0.0
C479 C 0.51062 0.56185 0.13272 0.0
C480 C 0.58021 0.56366 0.1208 0.0
C481 C 0.54177 0.46957 0.13641 0.0
C482 C 0.62003 0.57376 0.1316 0.0
C483 C 0.66034 0.59008 0.12011 0.0
C484 C 0.66106 0.59613 0.09769 0.0
C485 C 0.62167 0.58861 0.08726 0.0
C486 C 0.58169 0.5727 0.09873 0.0
H487 H 0.51999 0.43304 0.13953 0.0
H488 H 0.55738 0.47412 0.12027 0.0
H489 H 0.56918 0.4834 0.14849 0.0
H490 H 0.61955 0.5674 0.14869 0.0
H491 H 0.69017 0.59537 0.12853 0.0
H492 H 0.13386 0.6613 0.49995 0.0
H493 H 0.0768 0.58488 0.49013 0.0
H494 H 0.01242 0.63727 0.4493 0.0
H495 H 0.06928 0.71406 0.45923 0.0
H496 H 0.96883 0.53254 0.48446 0.0
H497 H 0.0797 0.57858 0.41209 0.0
H498 H 0.09988 0.60775 0.43734 0.0
H499 H 0.06177 0.61677 0.42136 0.0
C500 C 0.10641 0.65645 0.48961 0.0
C501 C 0.10605 0.6934 0.48019 0.0
C502 C 0.0739 0.61285 0.48404 0.0
C503 C 0.04094 0.60578 0.46887 0.0
C504 C 0.03772 0.64237 0.4611 0.0
H505 H 0.9007 0.37604 0.38468 0.0
H506 H 0.93672 0.45051 0.40087 0.0
C507 C 0.07004 0.68612 0.46687 0.0
C508 C 0.01601 0.5616 0.45839 0.0
H509 H 0.02078 0.50417 0.41471 0.0
C510 C 0.97973 0.52621 0.46913 0.0
C511 C 0.03078 0.55385 0.43846 0.0
C512 C 0.07025 0.59102 0.42655 0.0
C513 C 0.95755 0.48279 0.46033 0.0
C514 C 0.97316 0.47469 0.44066 0.0
C515 C 0.00908 0.51044 0.42983 0.0
C516 C 0.95255 0.4295 0.43084 0.0
C517 C 0.91735 0.44624 0.47204 0.0
C518 C 0.95087 0.39326 0.44206 0.0
C519 C 0.93011 0.35045 0.43287 0.0
C520 C 0.91121 0.34338 0.4122 0.0
C521 C 0.91488 0.38025 0.40064 0.0
C522 C 0.93529 0.42286 0.4099 0.0
H523 H 0.90214 0.46037 0.4831 0.0
H524 H 0.89122 0.42321 0.46056 0.0
H525 H 0.92812 0.42633 0.48184 0.0
H526 H 0.96526 0.39798 0.45799 0.0
H527 H 0.92805 0.32279 0.44214 0.0
H528 H 0.47956 0.09631 0.71069 0.0
H529 H 0.52142 0.05992 0.72245 0.0
H530 H 0.46153 0.0392 0.78549 0.0
H531 H 0.419 0.07484 0.77385 0.0
H532 H 0.58395 0.08982 0.75582 0.0
H533 H 0.44494 0.91612 0.77088 0.0
H534 H 0.43748 0.95632 0.75539 0.0
H535 H 0.43797 0.95847 0.7843 0.0
C536 C 0.47462 0.08328 0.72694 0.0
C537 C 0.44589 0.08844 0.74134 0.0
C538 C 0.49874 0.06271 0.73365 0.0
C539 C 0.49436 0.04672 0.75478 0.0
C540 C 0.46482 0.05068 0.769 0.0
H541 H 0.61352 0.91876 0.82697 0.0
H542 H 0.58322 0.96725 0.8174 0.0
C543 C 0.44059 0.07115 0.76232 0.0
C544 C 0.52244 0.02804 0.7623 0.0
H545 H 0.51708 0.93419 0.78369 0.0
C546 C 0.56941 0.05574 0.76186 0.0
C547 C 0.50327 0.98363 0.77015 0.0
C548 C 0.45317 0.95172 0.77005 0.0
C549 C 0.59776 0.04029 0.76937 0.0
C550 C 0.57852 0.99606 0.77737 0.0
C551 C 0.53162 0.96838 0.77779 0.0
C552 C 0.60603 0.97645 0.78437 0.0
C553 C 0.64796 0.07138 0.76892 0.0
C554 C 0.63066 0.96742 0.76918 0.0
C555 C 0.6481 0.93974 0.77458 0.0
C556 C 0.64068 0.92033 0.79519 0.0
C557 C 0.61965 0.93295 0.81092 0.0
C558 C 0.60216 0.96055 0.80549 0.0
H559 H 0.65695 0.10705 0.76703 0.0
H560 H 0.66363 0.06794 0.78388 0.0
H561 H 0.66244 0.06236 0.75513 0.0
H562 H 0.63357 0.97902 0.75273 0.0
H563 H 0.66423 0.9308 0.76209 0.0
H564 H 0.59986 0.64694 0.7807 0.0
H565 H 0.55652 0.56762 0.77059 0.0
H566 H 0.43314 0.56696 0.78415 0.0
H567 H 0.47587 0.64608 0.79429 0.0
H568 H 0.48786 0.49156 0.7964 0.0
H569 H 0.42335 0.52306 0.72002 0.0
H570 H 0.47205 0.56664 0.73368 0.0
H571 H 0.41688 0.54811 0.7442 0.0
C572 C 0.56354 0.62993 0.78165 0.0
C573 C 0.54138 0.65298 0.78819 0.0
C574 C 0.53887 0.58465 0.77589 0.0
C575 C 0.49174 0.56182 0.77642 0.0
C576 C 0.46951 0.58429 0.78341 0.0
H577 H 0.3433 0.26934 0.7562 0.0
H578 H 0.35593 0.34291 0.7681 0.0
C579 C 0.49409 0.62947 0.78926 0.0
C580 C 0.46599 0.5146 0.76932 0.0
H581 H 0.40277 0.4482 0.72778 0.0
C582 C 0.46869 0.48183 0.78157 0.0
C583 C 0.44122 0.50238 0.74993 0.0
C584 C 0.4382 0.53677 0.73604 0.0
C585 C 0.44829 0.43712 0.7746 0.0
C586 C 0.42436 0.42506 0.75494 0.0
C587 C 0.4206 0.4576 0.74299 0.0
C588 C 0.4092 0.38066 0.74515 0.0
C589 C 0.45442 0.40358 0.7877 0.0
C590 C 0.4333 0.37778 0.72763 0.0
C591 C 0.42625 0.33614 0.72088 0.0
C592 C 0.39466 0.29671 0.73142 0.0
C593 C 0.36761 0.29927 0.7477 0.0
C594 C 0.37502 0.34117 0.75462 0.0
H595 H 0.47835 0.41968 0.80121 0.0
H596 H 0.42155 0.37806 0.79449 0.0
H597 H 0.4669 0.38581 0.77734 0.0
H598 H 0.45974 0.40794 0.72012 0.0
H599 H 0.44741 0.335 0.70823 0.0
H600 H 0.13609 0.52146 0.10445 0.0
H601 H 0.08492 0.53996 0.08602 0.0
H602 H 0.99669 0.39986 0.07153 0.0
H603 H 0.04737 0.38075 0.09048 0.0
H604 H 0.05419 0.52649 0.04414 0.0
H605 H 0.91382 0.43427 0.10217 0.0
H606 H 0.97005 0.44531 0.10738 0.0
H607 H 0.93395 0.40086 0.0894 0.0
C608 C 0.10578 0.49447 0.09739 0.0
C609 C 0.09551 0.44954 0.09913 0.0
C610 C 0.07669 0.50518 0.08676 0.0
C611 C 0.03684 0.47126 0.07762 0.0
C612 C 0.02691 0.42644 0.07884 0.0
H613 H 0.81216 0.49552 0.03141 0.0
H614 H 0.86632 0.46943 0.0331 0.0
C615 C 0.05588 0.4156 0.08966 0.0
C616 C 0.00522 0.48316 0.06753 0.0
H617 H 0.90104 0.47083 0.07352 0.0
C618 C 0.02052 0.51404 0.05041 0.0
C619 C 0.96142 0.46693 0.07581 0.0
C620 C 0.94382 0.43532 0.09481 0.0
C621 C 0.99333 0.52973 0.04158 0.0
C622 C 0.95002 0.51426 0.05021 0.0
C623 C 0.93423 0.48233 0.06684 0.0
C624 C 0.92144 0.53311 0.04375 0.0
C625 C 0.01125 0.56296 0.02327 0.0
C626 C 0.93513 0.57815 0.04828 0.0
C627 C 0.90423 0.59327 0.04731 0.0
C628 C 0.85912 0.56329 0.04206 0.0
C629 C 0.84659 0.51929 0.03573 0.0
C630 C 0.87748 0.50431 0.03664 0.0
H631 H 0.03868 0.56145 0.01452 0.0
H632 H 0.98417 0.55681 0.01169 0.0
H633 H 0.02509 0.59742 0.02979 0.0
H634 H 0.96873 0.60072 0.05414 0.0
H635 H 0.91487 0.6273 0.05234 0.0
H636 H 0.37655 0.94804 0.46354 0.0
H637 H 0.45048 0.97558 0.44702 0.0
H638 H 0.39136 0.86963 0.3997 0.0
H639 H 0.31706 0.84454 0.4152 0.0
H640 H 0.49874 0.93832 0.44373 0.0
H641 H 0.46276 0.96986 0.36041 0.0
H642 H 0.42318 0.95665 0.38204 0.0
H643 H 0.42876 0.91281 0.36911 0.0
C644 C 0.37941 0.93155 0.44926 0.0
C645 C 0.34132 0.89501 0.44029 0.0
C646 C 0.42159 0.94689 0.43994 0.0
C647 C 0.42661 0.92509 0.42188 0.0
C648 C 0.38839 0.88804 0.41312 0.0
H649 H 0.719 0.05025 0.39711 0.0
H650 H 0.6432 0.98453 0.40109 0.0
C651 C 0.34595 0.87367 0.422 0.0
C652 C 0.47216 0.94108 0.41279 0.0
H653 H 0.53577 0.98471 0.36753 0.0
C654 C 0.50687 0.94833 0.42703 0.0
C655 C 0.48257 0.95321 0.39087 0.0
C656 C 0.44747 0.94811 0.37475 0.0
C657 C 0.55204 0.97126 0.42055 0.0
C658 C 0.56264 0.98536 0.39886 0.0
C659 C 0.52755 0.9739 0.38414 0.0
C660 C 0.6086 0.02042 0.39236 0.0
C661 C 0.58788 0.9834 0.43743 0.0
C662 C 0.61431 0.06118 0.38454 0.0
C663 C 0.65701 0.09791 0.38177 0.0
C664 C 0.6953 0.09515 0.38702 0.0
C665 C 0.69003 0.05344 0.39319 0.0
C666 C 0.64678 0.01608 0.39569 0.0
H667 H 0.57372 0.97554 0.45398 0.0
H668 H 0.60535 0.96413 0.43453 0.0
H669 H 0.61314 0.01976 0.43667 0.0
H670 H 0.58561 0.06553 0.38171 0.0
H671 H 0.6598 0.12926 0.37652 0.0
H672 H 0.16581 0.11425 0.84413 0.0
H673 H 0.15004 0.13206 0.88009 0.0
H674 H 0.29183 0.22044 0.89054 0.0
H675 H 0.30804 0.20165 0.85498 0.0
H676 H 0.24956 0.1639 0.92496 0.0
H677 H 0.15599 0.24868 0.89908 0.0
H678 H 0.13423 0.19301 0.8885 0.0
H679 H 0.18939 0.2367 0.88072 0.0
C680 C 0.19366 0.13733 0.85411 0.0
C681 C 0.23819 0.15671 0.8466 0.0
C682 C 0.18455 0.14784 0.87457 0.0
C683 C 0.21972 0.17811 0.88786 0.0
C684 C 0.26416 0.19726 0.88048 0.0
H685 H 0.20118 0.31182 0.00227 0.0
H686 H 0.21643 0.29219 0.96669 0.0
C687 C 0.27332 0.18676 0.86007 0.0
C688 C 0.21046 0.18916 0.90966 0.0
H689 H 0.15642 0.23516 0.93649 0.0
C690 C 0.22923 0.17952 0.9275 0.0
C691 C 0.18436 0.21 0.9129 0.0
C692 C 0.16513 0.22313 0.8943 0.0
C693 C 0.22234 0.18985 0.94852 0.0
C694 C 0.1953 0.20965 0.9518 0.0
C695 C 0.17682 0.21963 0.93395 0.0
C696 C 0.18657 0.22125 0.97359 0.0
C697 C 0.2449 0.18036 0.96697 0.0
C698 C 0.16446 0.18784 0.98927 0.0
C699 C 0.15613 0.19903 0.00973 0.0
C700 C 0.16942 0.24384 0.01487 0.0
C701 C 0.19122 0.27713 0.99902 0.0
C702 C 0.19962 0.26592 0.9786 0.0
H703 H 0.2734 0.17631 0.96137 0.0
H704 H 0.25761 0.20774 0.97907 0.0
H705 H 0.22014 0.14867 0.97499 0.0
H706 H 0.15336 0.15303 0.98563 0.0
H707 H 0.13952 0.17258 0.02156 0.0
H708 H 0.94706 0.24616 0.35036 0.0
H709 H 0.99103 0.26887 0.31712 0.0
H710 H 0.87101 0.23368 0.28081 0.0
H711 H 0.82706 0.21243 0.31407 0.0
H712 H 0.99017 0.22775 0.28061 0.0
H713 H 0.94996 0.36157 0.26237 0.0
H714 H 0.93565 0.33206 0.28771 0.0
H715 H 0.90094 0.30696 0.2644 0.0
C716 C 0.9299 0.2429 0.3353 0.0
C717 C 0.88358 0.22788 0.33492 0.0
C718 C 0.95513 0.25596 0.31628 0.0
C719 C 0.93457 0.25404 0.29648 0.0
C720 C 0.88791 0.23679 0.29593 0.0
H721 H 0.07152 0.29162 0.17231 0.0
H722 H 0.02296 0.25913 0.20385 0.0
C723 C 0.86274 0.22428 0.31497 0.0
C724 C 0.96224 0.27109 0.27659 0.0
H725 H 0.98984 0.34666 0.23559 0.0
C726 C 0.99013 0.25377 0.27076 0.0
C727 C 0.96277 0.30559 0.26391 0.0
C728 C 0.9361 0.32798 0.27 0.0
C729 C 0.01841 0.2699 0.25264 0.0
C730 C 0.01789 0.30342 0.2396 0.0
C731 C 0.98997 0.32068 0.24544 0.0
C732 C 0.04732 0.32258 0.22036 0.0
C733 C 0.04959 0.25185 0.2481 0.0
C734 C 0.07626 0.36919 0.21877 0.0
C735 C 0.10336 0.38788 0.20061 0.0
C736 C 0.10237 0.36038 0.18362 0.0
C737 C 0.07343 0.31369 0.18521 0.0
C738 C 0.04584 0.29503 0.2033 0.0
H739 H 0.0552 0.23659 0.26268 0.0
H740 H 0.0344 0.22534 0.23562 0.0
H741 H 0.08268 0.27872 0.24211 0.0
H742 H 0.07802 0.39121 0.23167 0.0
H743 H 0.12536 0.42395 0.2 0.0
H744 H 0.82832 0.89585 0.67014 0.0
H745 H 0.84566 0.93073 0.63443 0.0
H746 H 0.72727 0.94351 0.63733 0.0
H747 H 0.70875 0.90746 0.67265 0.0
H748 H 0.78419 0.89989 0.59613 0.0
H749 H 0.83615 0.07317 0.62342 0.0
H750 H 0.83595 0.03136 0.64111 0.0
H751 H 0.78407 0.02881 0.63415 0.0
C752 C 0.80568 0.90565 0.66314 0.0
C753 C 0.76719 0.89894 0.6744 0.0
C754 C 0.81583 0.92583 0.64278 0.0
C755 C 0.78801 0.94011 0.6334 0.0
C756 C 0.74954 0.93334 0.64447 0.0
H757 H 0.7903 0.07825 0.51664 0.0
H758 H 0.77522 0.04182 0.5518 0.0
C759 C 0.73916 0.9129 0.66473 0.0
C760 C 0.79863 0.9614 0.61184 0.0
H761 H 0.82987 0.06027 0.5859 0.0
C762 C 0.79443 0.935 0.59383 0.0
C763 C 0.81169 0.00709 0.60899 0.0
C764 C 0.81761 0.03704 0.62791 0.0
C765 C 0.80194 0.95288 0.57291 0.0
C766 C 0.8152 0.99874 0.57001 0.0
C767 C 0.81971 0.02516 0.58811 0.0
C768 C 0.82399 0.01993 0.54835 0.0
C769 C 0.79416 0.92205 0.55411 0.0
C770 C 0.85669 0.02011 0.53471 0.0
C771 C 0.86488 0.04027 0.5144 0.0
C772 C 0.84099 0.06132 0.50737 0.0
C773 C 0.80871 0.06162 0.52125 0.0
C774 C 0.80032 0.04115 0.54149 0.0
H775 H 0.77197 0.88623 0.55857 0.0
H776 H 0.77881 0.93009 0.54035 0.0
H777 H 0.82683 0.92618 0.54876 0.0
H778 H 0.87614 0.00489 0.53982 0.0
H779 H 0.88973 0.03904 0.50414 0.0
H780 H 0.73922 0.81574 0.84452 0.0
H781 H 0.77074 0.80152 0.87699 0.0
H782 H 0.63768 0.70044 0.89696 0.0
H783 H 0.60597 0.71498 0.86508 0.0
H784 H 0.6848 0.75863 0.92923 0.0
H785 H 0.78693 0.69418 0.88995 0.0
H786 H 0.79854 0.74889 0.8814 0.0
H787 H 0.74486 0.70062 0.87562 0.0
C788 C 0.71678 0.79032 0.85579 0.0
C789 C 0.67011 0.76651 0.85221 0.0
C790 C 0.73485 0.78211 0.87427 0.0
C791 C 0.70657 0.74963 0.88927 0.0
C792 C 0.6601 0.7257 0.8856 0.0
H793 H 0.73705 0.59488 0.9865 0.0
H794 H 0.72929 0.6292 0.95372 0.0
C795 C 0.64204 0.73405 0.86732 0.0
C796 C 0.72451 0.74073 0.90916 0.0
H797 H 0.78844 0.69753 0.92781 0.0
C798 C 0.70782 0.74567 0.92897 0.0
C799 C 0.75431 0.72361 0.90869 0.0
C800 C 0.77203 0.7161 0.8878 0.0
C801 C 0.7187 0.73236 0.9483 0.0
C802 C 0.74818 0.71482 0.94784 0.0
C803 C 0.76613 0.71132 0.9281 0.0
C804 C 0.75707 0.69576 0.96735 0.0
C805 C 0.69658 0.73498 0.96884 0.0
C806 C 0.77632 0.72203 0.98578 0.0
C807 C 0.7802 0.70231 0.00473 0.0
C808 C 0.76544 0.65608 0.00546 0.0
C809 C 0.74831 0.63044 0.98662 0.0
C810 C 0.74406 0.65007 0.96779 0.0
H811 H 0.66746 0.73978 0.96565 0.0
H812 H 0.68479 0.70402 0.9786 0.0
H813 H 0.72132 0.76392 0.97853 0.0
H814 H 0.78752 0.7576 0.98562 0.0
H815 H 0.79407 0.72313 0.01888 0.0
H816 H 0.01941 0.82991 0.35624 0.0
H817 H 0.98791 0.81557 0.31993 0.0
H818 H 0.10954 0.82523 0.2949 0.0
H819 H 0.14146 0.83989 0.33114 0.0
H820 H 0.01948 0.86774 0.28263 0.0
H821 H 0.01148 0.70355 0.27224 0.0
H822 H 0.02035 0.73062 0.29809 0.0
H823 H 0.06615 0.74882 0.27936 0.0
C824 C 0.03966 0.8294 0.343 0.0
C825 C 0.08292 0.83586 0.34663 0.0
C826 C 0.0215 0.82098 0.32227 0.0
C827 C 0.04608 0.8186 0.30479 0.0
C828 C 0.08958 0.8259 0.30825 0.0
H829 H -0.001 0.77402 0.16785 0.0
H830 H 0.03066 0.79179 0.20416 0.0
C831 C 0.10777 0.83428 0.32898 0.0
C832 C 0.02628 0.8088 0.2829 0.0
H833 H 0.99595 0.73416 0.24138 0.0
C834 C 0.01412 0.83843 0.27364 0.0
C835 C 0.01923 0.77047 0.27124 0.0
C836 C 0.02957 0.73627 0.28077 0.0
C837 C 0.99593 0.83123 0.25282 0.0
C838 C 0.98927 0.79313 0.24112 0.0
C839 C 0.00126 0.76342 0.2504 0.0
C840 C 0.97014 0.78356 0.21914 0.0
C841 C 0.98483 0.86488 0.2433 0.0
C842 C 0.92552 0.77278 0.21559 0.0
C843 C 0.90732 0.76261 0.19486 0.0
C844 C 0.93349 0.76315 0.17731 0.0
C845 C 0.97819 0.77399 0.18097 0.0
C846 C 0.99625 0.78388 0.20171 0.0
H847 H 0.00068 0.89694 0.25243 0.0
H848 H 0.99603 0.87212 0.22627 0.0
H849 H 0.94788 0.85072 0.24366 0.0
H850 H 0.90464 0.77177 0.2289 0.0
H851 H 0.87286 0.7546 0.19254 0.0
H852 H 0.39092 0.16709 0.65049 0.0
H853 H 0.36202 0.12387 0.61737 0.0
H854 H 0.25901 0.01304 0.65358 0.0
H855 H 0.28728 0.05612 0.68681 0.0
H856 H 0.35886 0.04318 0.60959 0.0
H857 H 0.18886 0.0231 0.6026 0.0
H858 H 0.23191 0.0648 0.61976 0.0
H859 H 0.20005 0.00727 0.6284 0.0
C860 C 0.36162 0.13382 0.65143 0.0
C861 C 0.34145 0.11508 0.67136 0.0
C862 C 0.34519 0.10916 0.63245 0.0
C863 C 0.3081 0.06545 0.63298 0.0
C864 C 0.28713 0.04705 0.65274 0.0
H865 H 0.24281 0.84788 0.54572 0.0
H866 H 0.26119 0.89854 0.57626 0.0
C867 C 0.30355 0.07167 0.67176 0.0
C868 C 0.29395 0.03771 0.61318 0.0
H869 H 0.20438 0.97597 0.58016 0.0
C870 C 0.3252 0.02881 0.60306 0.0
C871 C 0.25014 0.0193 0.60459 0.0
C872 C 0.21588 0.02938 0.61425 0.0
C873 C 0.31345 0.00095 0.58492 0.0
C874 C 0.26913 0.98105 0.57686 0.0
C875 C 0.23821 0.99098 0.58654 0.0
C876 C 0.25432 0.94904 0.55867 0.0
C877 C 0.34858 0.99297 0.57454 0.0
C878 C 0.24288 0.96003 0.53883 0.0
C879 C 0.23224 0.93104 0.52122 0.0
C880 C 0.23263 0.89046 0.52327 0.0
C881 C 0.24238 0.8789 0.54347 0.0
C882 C 0.25308 0.90789 0.56098 0.0
H883 H 0.38315 0.01889 0.57929 0.0
H884 H 0.34322 0.95973 0.57968 0.0
H885 H 0.34601 0.99281 0.55672 0.0
H886 H 0.24347 0.99161 0.5368 0.0
H887 H 0.22478 0.94093 0.50593 0.0
loop_
_geom_bond_atom_site_label_1
_geom_bond_atom_site_label_2
_geom_bond_distance
_geom_bond_site_symmetry_2
_ccdc_geom_bond_type
Dy0 O3 2.307 . S
Dy0 O5 2.395 . S
Dy0 O6 2.379 . S
Dy0 O8 2.339 . S
Dy0 O10 2.298 . S
Dy0 O14 2.275 . S
Dy0 C22 2.738 . S
Dy1 O4 2.298 . S
Dy1 O7 2.275 . S
Dy1 O9 2.307 . S
Dy1 O11 2.395 . S
Dy1 O12 2.379 . S
Dy1 O15 2.339 . S
Dy1 C31 2.738 . S
C2 O14 1.254 . S
C2 O15 1.257 . S
O3 Dy0 2.307 . S
O3 C13 1.266 . S
O4 Dy1 2.298 . S
O4 C13 1.236 . S
O5 Dy0 2.395 . S
O5 C22 1.255 . S
O6 Dy0 2.379 . S
O6 C22 1.249 . S
O7 Dy1 2.275 . S
O7 C23 1.254 . S
O8 Dy0 2.339 . S
O8 C23 1.257 . S
O9 Dy1 2.307 . S
O9 C24 1.266 . S
O10 Dy0 2.298 . S
O10 C24 1.236 . S
O11 Dy1 2.395 . S
O11 C31 1.255 . S
O12 Dy1 2.379 . S
O12 C31 1.249 . S
C13 O3 1.266 . S
C13 O4 1.236 . S
O14 Dy0 2.275 . S
O14 C2 1.254 . S
O15 Dy1 2.339 . S
O15 C2 1.257 . S
C16 C19 1.344 . S
C16 C20 1.328 . S
C16 C22 1.516 . S
C17 C18 1.304 . S
C17 C21 1.323 . S
C18 C17 1.304 . S
C18 C19 1.371 . S
C18 H32 0.930 . S
C19 C16 1.344 . S
C19 C18 1.371 . S
C19 H33 0.931 . S
C20 C16 1.328 . S
C20 C21 1.433 . S
C20 H34 0.931 . S
C21 C17 1.323 . S
C21 C20 1.433 . S
C21 H35 0.933 . S
C22 Dy0 2.738 . S
C22 O5 1.255 . S
C22 O6 1.249 . S
C22 C16 1.516 . S
C23 O7 1.254 . S
C23 O8 1.257 . S
C24 O9 1.266 . S
C24 O10 1.236 . S
C25 C28 1.344 . S
C25 C29 1.328 . S
C25 C31 1.516 . S
C26 C27 1.304 . S
C26 C30 1.323 . S
C27 C26 1.304 . S
C27 C28 1.371 . S
C27 H36 0.930 . S
C28 C25 1.344 . S
C28 C27 1.371 . S
C28 H37 0.931 . S
C29 C25 1.328 . S
C29 C30 1.433 . S
C29 H38 0.931 . S
C30 C26 1.323 . S
C30 C29 1.433 . S
C30 H39 0.933 . S
C31 Dy1 2.738 . S
C31 O11 1.255 . S
C31 O12 1.249 . S
C31 C25 1.516 . S
H32 C18 0.930 . S
H33 C19 0.931 . S
H34 C20 0.931 . S
H35 C21 0.933 . S
H36 C27 0.930 . S
H37 C28 0.931 . S
H38 C29 0.931 . S
H39 C30 0.933 . S
Dy40 O43 2.307 . S
Dy40 O45 2.395 . S
Dy40 O46 2.379 . S
Dy40 O48 2.339 . S
Dy40 O50 2.298 . S
Dy40 O54 2.275 . S
Dy40 C62 2.738 . S
Dy41 O44 2.298 . S
Dy41 O47 2.275 . S
Dy41 O49 2.307 . S
Dy41 O51 2.395 . S
Dy41 O52 2.379 . S
Dy41 O55 2.339 . S
Dy41 C71 2.738 . S
C42 O54 1.254 . S
C42 O55 1.257 . S
O43 Dy40 2.307 . S
O43 C53 1.266 . S
O44 Dy41 2.298 . S
O44 C53 1.236 . S
O45 Dy40 2.395 . S
O45 C62 1.255 . S
O46 Dy40 2.379 . S
O46 C62 1.249 . S
O47 Dy41 2.275 . S
O47 C63 1.254 . S
O48 Dy40 2.339 . S
O48 C63 1.257 . S
O49 Dy41 2.307 . S
O49 C64 1.266 . S
O50 Dy40 2.298 . S
O50 C64 1.236 . S
O51 Dy41 2.395 . S
O51 C71 1.255 . S
O52 Dy41 2.379 . S
O52 C71 1.249 . S
C53 O43 1.266 . S
C53 O44 1.236 . S
O54 Dy40 2.275 . S
O54 C42 1.254 . S
O55 Dy41 2.339 . S
O55 C42 1.257 . S
C56 C59 1.344 . S
C56 C60 1.328 . S
C56 C62 1.516 . S
C57 C58 1.304 . S
C57 C61 1.323 . S
C58 C57 1.304 . S
C58 C59 1.371 . S
C58 H72 0.930 . S
C59 C56 1.344 . S
C59 C58 1.371 . S
C59 H73 0.931 . S
C60 C56 1.328 . S
C60 C61 1.433 . S
C60 H74 0.931 . S
C61 C57 1.323 . S
C61 C60 1.433 . S
C61 H75 0.933 . S
C62 Dy40 2.738 . S
C62 O45 1.255 . S
C62 O46 1.249 . S
C62 C56 1.516 . S
C63 O47 1.254 . S
C63 O48 1.257 . S
C64 O49 1.266 . S
C64 O50 1.236 . S
C65 C68 1.344 . S
C65 C69 1.328 . S
C65 C71 1.516 . S
C66 C67 1.304 . S
C66 C70 1.323 . S
C67 C66 1.304 . S
C67 C68 1.371 . S
C67 H76 0.930 . S
C68 C65 1.344 . S
C68 C67 1.371 . S
C68 H77 0.931 . S
C69 C65 1.328 . S
C69 C70 1.433 . S
C69 H78 0.931 . S
C70 C66 1.323 . S
C70 C69 1.433 . S
C70 H79 0.933 . S
C71 Dy41 2.738 . S
C71 O51 1.255 . S
C71 O52 1.249 . S
C71 C65 1.516 . S
H72 C58 0.930 . S
H73 C59 0.931 . S
H74 C60 0.931 . S
H75 C61 0.933 . S
H76 C67 0.930 . S
H77 C68 0.931 . S
H78 C69 0.931 . S
H79 C70 0.933 . S
Dy80 O83 2.307 . S
Dy80 O85 2.395 . S
Dy80 O86 2.379 . S
Dy80 O88 2.339 . S
Dy80 O90 2.298 . S
Dy80 O94 2.275 . S
Dy80 C102 2.738 . S
Dy81 O84 2.298 . S
Dy81 O87 2.275 . S
Dy81 O89 2.307 . S
Dy81 O91 2.395 . S
Dy81 O92 2.379 . S
Dy81 O95 2.339 . S
Dy81 C111 2.738 . S
C82 O94 1.254 . S
C82 O95 1.257 . S
O83 Dy80 2.307 . S
O83 C93 1.266 . S
O84 Dy81 2.298 . S
O84 C93 1.236 . S
O85 Dy80 2.395 . S
O85 C102 1.255 . S
O86 Dy80 2.379 . S
O86 C102 1.249 . S
O87 Dy81 2.275 . S
O87 C103 1.254 . S
O88 Dy80 2.339 . S
O88 C103 1.257 . S
O89 Dy81 2.307 . S
O89 C104 1.266 . S
O90 Dy80 2.298 . S
O90 C104 1.236 . S
O91 Dy81 2.395 . S
O91 C111 1.255 . S
O92 Dy81 2.379 . S
O92 C111 1.249 . S
C93 O83 1.266 . S
C93 O84 1.236 . S
O94 Dy80 2.275 . S
O94 C82 1.254 . S
O95 Dy81 2.339 . S
O95 C82 1.257 . S
C96 C99 1.344 . S
C96 C100 1.328 . S
C96 C102 1.516 . S
C97 C98 1.304 . S
C97 C101 1.323 . S
C98 C97 1.304 . S
C98 C99 1.371 . S
C98 H112 0.930 . S
C99 C96 1.344 . S
C99 C98 1.371 . S
C99 H113 0.931 . S
C100 C96 1.328 . S
C100 C101 1.433 . S
C100 H114 0.931 . S
C101 C97 1.323 . S
C101 C100 1.433 . S
C101 H115 0.933 . S
C102 Dy80 2.738 . S
C102 O85 1.255 . S
C102 O86 1.249 . S
C102 C96 1.516 . S
C103 O87 1.254 . S
C103 O88 1.257 . S
C104 O89 1.266 . S
C104 O90 1.236 . S
C105 C108 1.344 . S
C105 C109 1.328 . S
C105 C111 1.516 . S
C106 C107 1.304 . S
C106 C110 1.323 . S
C107 C106 1.304 . S
C107 C108 1.371 . S
C107 H116 0.930 . S
C108 C105 1.344 . S
C108 C107 1.371 . S
C108 H117 0.931 . S
C109 C105 1.328 . S
C109 C110 1.433 . S
C109 H118 0.931 . S
C110 C106 1.323 . S
C110 C109 1.433 . S
C110 H119 0.933 . S
C111 Dy81 2.738 . S
C111 O91 1.255 . S
C111 O92 1.249 . S
C111 C105 1.516 . S
H112 C98 0.930 . S
H113 C99 0.931 . S
H114 C100 0.931 . S
H115 C101 0.933 . S
H116 C107 0.930 . S
H117 C108 0.931 . S
H118 C109 0.931 . S
H119 C110 0.933 . S
Dy120 O123 2.307 . S
Dy120 O125 2.395 . S
Dy120 O126 2.379 . S
Dy120 O128 2.339 . S
Dy120 O130 2.298 . S
Dy120 O134 2.275 . S
Dy120 C142 2.738 . S
Dy121 O124 2.298 . S
Dy121 O127 2.275 . S
Dy121 O129 2.307 . S
Dy121 O131 2.395 . S
Dy121 O132 2.379 . S
Dy121 O135 2.339 . S
Dy121 C151 2.738 . S
C122 O134 1.254 . S
C122 O135 1.257 . S
O123 Dy120 2.307 . S
O123 C133 1.266 . S
O124 Dy121 2.298 . S
O124 C133 1.236 . S
O125 Dy120 2.395 . S
O125 C142 1.255 . S
O126 Dy120 2.379 . S
O126 C142 1.249 . S
O127 Dy121 2.275 . S
O127 C143 1.254 . S
O128 Dy120 2.339 . S
O128 C143 1.257 . S
O129 Dy121 2.307 . S
O129 C144 1.266 . S
O130 Dy120 2.298 . S
O130 C144 1.236 . S
O131 Dy121 2.395 . S
O131 C151 1.255 . S
O132 Dy121 2.379 . S
O132 C151 1.249 . S
C133 O123 1.266 . S
C133 O124 1.236 . S
O134 Dy120 2.275 . S
O134 C122 1.254 . S
O135 Dy121 2.339 . S
O135 C122 1.257 . S
C136 C139 1.344 . S
C136 C140 1.328 . S
C136 C142 1.516 . S
C137 C138 1.304 . S
C137 C141 1.323 . S
C138 C137 1.304 . S
C138 C139 1.371 . S
C138 H152 0.930 . S
C139 C136 1.344 . S
C139 C138 1.371 . S
C139 H153 0.931 . S
C140 C136 1.328 . S
C140 C141 1.433 . S
C140 H154 0.931 . S
C141 C137 1.323 . S
C141 C140 1.433 . S
C141 H155 0.933 . S
C142 Dy120 2.738 . S
C142 O125 1.255 . S
C142 O126 1.249 . S
C142 C136 1.516 . S
C143 O127 1.254 . S
C143 O128 1.257 . S
C144 O129 1.266 . S
C144 O130 1.236 . S
C145 C148 1.344 . S
C145 C149 1.328 . S
C145 C151 1.516 1_556 S
C146 C147 1.304 . S
C146 C150 1.323 . S
C147 C146 1.304 . S
C147 C148 1.371 . S
C147 H156 0.930 . S
C148 C145 1.344 . S
C148 C147 1.371 . S
C148 H157 0.931 . S
C149 C145 1.328 . S
C149 C150 1.433 . S
C149 H158 0.931 . S
C150 C146 1.323 . S
C150 C149 1.433 . S
C150 H159 0.933 . S
C151 Dy121 2.738 . S
C151 O131 1.255 . S
C151 O132 1.249 . S
C151 C145 1.516 1_554 S
H152 C138 0.930 . S
H153 C139 0.931 . S
H154 C140 0.931 . S
H155 C141 0.933 . S
H156 C147 0.930 . S
H157 C148 0.931 . S
H158 C149 0.931 . S
H159 C150 0.933 . S
Dy160 O163 2.307 . S
Dy160 O165 2.395 . S
Dy160 O166 2.379 . S
Dy160 O168 2.339 . S
Dy160 O170 2.298 . S
Dy160 O174 2.275 . S
Dy160 C182 2.738 . S
Dy161 O164 2.298 . S
Dy161 O167 2.275 . S
Dy161 O169 2.307 . S
Dy161 O171 2.395 . S
Dy161 O172 2.379 . S
Dy161 O175 2.339 . S
Dy161 C191 2.738 . S
C162 O174 1.254 . S
C162 O175 1.257 . S
O163 Dy160 2.307 . S
O163 C173 1.266 . S
O164 Dy161 2.298 . S
O164 C173 1.236 . S
O165 Dy160 2.395 . S
O165 C182 1.255 . S
O166 Dy160 2.379 . S
O166 C182 1.249 . S
O167 Dy161 2.275 . S
O167 C183 1.254 . S
O168 Dy160 2.339 . S
O168 C183 1.257 . S
O169 Dy161 2.307 . S
O169 C184 1.266 . S
O170 Dy160 2.298 . S
O170 C184 1.236 . S
O171 Dy161 2.395 . S
O171 C191 1.255 . S
O172 Dy161 2.379 . S
O172 C191 1.249 . S
C173 O163 1.266 . S
C173 O164 1.236 . S
O174 Dy160 2.275 . S
O174 C162 1.254 . S
O175 Dy161 2.339 . S
O175 C162 1.257 . S
C176 C179 1.344 . S
C176 C180 1.328 . S
C176 C182 1.516 . S
C177 C178 1.304 . S
C177 C181 1.323 . S
C178 C177 1.304 . S
C178 C179 1.371 . S
C178 H192 0.930 . S
C179 C176 1.344 . S
C179 C178 1.371 . S
C179 H193 0.931 . S
C180 C176 1.328 . S
C180 C181 1.433 . S
C180 H194 0.931 . S
C181 C177 1.323 . S
C181 C180 1.433 . S
C181 H195 0.933 . S
C182 Dy160 2.738 . S
C182 O165 1.255 . S
C182 O166 1.249 . S
C182 C176 1.516 . S
C183 O167 1.254 . S
C183 O168 1.257 . S
C184 O169 1.266 . S
C184 O170 1.236 . S
C185 C188 1.344 . S
C185 C189 1.328 . S
C185 C191 1.516 . S
C186 C187 1.304 . S
C186 C190 1.323 . S
C187 C186 1.304 . S
C187 C188 1.371 . S
C187 H196 0.930 . S
C188 C185 1.344 . S
C188 C187 1.371 . S
C188 H197 0.931 . S
C189 C185 1.328 . S
C189 C190 1.433 . S
C189 H198 0.931 . S
C190 C186 1.323 . S
C190 C189 1.433 . S
C190 H199 0.933 . S
C191 Dy161 2.738 . S
C191 O171 1.255 . S
C191 O172 1.249 . S
C191 C185 1.516 . S
H192 C178 0.930 . S
H193 C179 0.931 . S
H194 C180 0.931 . S
H195 C181 0.933 . S
H196 C187 0.930 . S
H197 C188 0.931 . S
H198 C189 0.931 . S
H199 C190 0.933 . S
Dy200 O203 2.307 . S
Dy200 O205 2.395 . S
Dy200 O206 2.379 . S
Dy200 O208 2.339 . S
Dy200 O210 2.298 . S
Dy200 O214 2.275 . S
Dy200 C222 2.738 . S
Dy201 O204 2.298 . S
Dy201 O207 2.275 . S
Dy201 O209 2.307 . S
Dy201 O211 2.395 . S
Dy201 O212 2.379 . S
Dy201 O215 2.339 . S
Dy201 C231 2.738 . S
C202 O214 1.254 . S
C202 O215 1.257 . S
O203 Dy200 2.307 . S
O203 C213 1.266 . S
O204 Dy201 2.298 . S
O204 C213 1.236 . S
O205 Dy200 2.395 . S
O205 C222 1.255 . S
O206 Dy200 2.379 . S
O206 C222 1.249 . S
O207 Dy201 2.275 . S
O207 C223 1.254 . S
O208 Dy200 2.339 . S
O208 C223 1.257 . S
O209 Dy201 2.307 . S
O209 C224 1.266 . S
O210 Dy200 2.298 . S
O210 C224 1.236 . S
O211 Dy201 2.395 . S
O211 C231 1.255 . S
O212 Dy201 2.379 . S
O212 C231 1.249 . S
C213 O203 1.266 . S
C213 O204 1.236 . S
O214 Dy200 2.275 . S
O214 C202 1.254 . S
O215 Dy201 2.339 . S
O215 C202 1.257 . S
C216 C219 1.344 . S
C216 C220 1.328 . S
C216 C222 1.516 . S
C217 C218 1.304 . S
C217 C221 1.323 . S
C218 C217 1.304 . S
C218 C219 1.371 . S
C218 H232 0.930 . S
C219 C216 1.344 . S
C219 C218 1.371 . S
C219 H233 0.931 . S
C220 C216 1.328 . S
C220 C221 1.433 . S
C220 H234 0.931 . S
C221 C217 1.323 . S
C221 C220 1.433 . S
C221 H235 0.933 . S
C222 Dy200 2.738 . S
C222 O205 1.255 . S
C222 O206 1.249 . S
C222 C216 1.516 . S
C223 O207 1.254 . S
C223 O208 1.257 . S
C224 O209 1.266 . S
C224 O210 1.236 . S
C225 C228 1.344 . S
C225 C229 1.328 . S
C225 C231 1.516 . S
C226 C227 1.304 . S
C226 C230 1.323 . S
C227 C226 1.304 . S
C227 C228 1.371 . S
C227 H236 0.930 . S
C228 C225 1.344 . S
C228 C227 1.371 . S
C228 H237 0.931 . S
C229 C225 1.328 . S
C229 C230 1.433 . S
C229 H238 0.931 . S
C230 C226 1.323 . S
C230 C229 1.433 . S
C230 H239 0.933 . S
C231 Dy201 2.738 . S
C231 O211 1.255 . S
C231 O212 1.249 . S
C231 C225 1.516 . S
H232 C218 0.930 . S
H233 C219 0.931 . S
H234 C220 0.931 . S
H235 C221 0.933 . S
H236 C227 0.930 . S
H237 C228 0.931 . S
H238 C229 0.931 . S
H239 C230 0.933 . S
H240 C248 0.929 . S
H241 C250 0.930 . S
H242 C252 0.930 . S
H243 C255 0.929 . S
H244 C258 0.930 . S
H245 C260 0.960 . S
H246 C260 0.960 . S
H247 C260 0.960 . S
C248 H240 0.929 . S
C248 C249 1.377 . S
C248 C250 1.384 . S
C249 C248 1.377 . S
C249 C255 1.390 . S
C250 H241 0.930 . S
C250 C248 1.384 . S
C250 C251 1.372 . S
C251 C250 1.372 . S
C251 C252 1.400 . S
C251 C256 1.490 . S
C252 H242 0.930 . S
C252 C251 1.400 . S
C252 C255 1.386 . S
H253 C269 0.930 . S
H254 C270 0.931 . S
C255 H243 0.929 . S
C255 C249 1.390 . S
C255 C252 1.386 . S
C256 C251 1.490 . S
C256 C258 1.395 . S
C256 C259 1.403 . S
H257 C263 0.930 . S
C258 H244 0.930 . S
C258 C256 1.395 . S
C258 C261 1.403 . S
C259 C256 1.403 . S
C259 C260 1.524 . S
C259 C263 1.400 . S
C260 H245 0.960 . S
C260 H246 0.960 . S
C260 H247 0.960 . S
C260 C259 1.524 . S
C261 C258 1.403 . S
C261 C262 1.392 . S
C261 C265 1.495 . S
C262 C261 1.392 . S
C262 C263 1.385 . S
C262 C264 1.478 . S
C263 H257 0.930 . S
C263 C259 1.400 . S
C263 C262 1.385 . S
C264 C262 1.478 . S
C264 C266 1.381 . S
C264 C270 1.383 . S
C265 C261 1.495 . S
C265 H271 0.959 . S
C265 H272 0.961 . S
C265 H273 0.960 . S
C266 C264 1.381 . S
C266 C267 1.394 . S
C266 H274 0.930 . S
C267 C266 1.394 . S
C267 C268 1.383 . S
C267 H275 0.929 . S
C268 C267 1.383 . S
C268 C269 1.377 . S
C269 H253 0.930 . S
C269 C268 1.377 . S
C269 C270 1.379 . S
C270 H254 0.931 . S
C270 C264 1.383 . S
C270 C269 1.379 . S
H271 C265 0.959 . S
H272 C265 0.961 . S
H273 C265 0.960 . S
H274 C266 0.930 . S
H275 C267 0.929 . S
H276 C284 0.929 . S
H277 C286 0.930 . S
H278 C288 0.930 . S
H279 C291 0.929 . S
H280 C294 0.930 . S
H281 C296 0.960 . S
H282 C296 0.960 . S
H283 C296 0.960 . S
C284 H276 0.929 . S
C284 C285 1.377 . S
C284 C286 1.384 . S
C285 C284 1.377 . S
C285 C291 1.390 . S
C286 H277 0.930 . S
C286 C284 1.384 . S
C286 C287 1.372 . S
C287 C286 1.372 . S
C287 C288 1.400 . S
C287 C292 1.490 . S
C288 H278 0.930 . S
C288 C287 1.400 . S
C288 C291 1.386 . S
H289 C305 0.930 . S
H290 C306 0.931 . S
C291 H279 0.929 . S
C291 C285 1.390 . S
C291 C288 1.386 . S
C292 C287 1.490 . S
C292 C294 1.395 . S
C292 C295 1.403 . S
H293 C299 0.930 . S
C294 H280 0.930 . S
C294 C292 1.395 . S
C294 C297 1.403 . S
C295 C292 1.403 . S
C295 C296 1.524 . S
C295 C299 1.400 . S
C296 H281 0.960 . S
C296 H282 0.960 . S
C296 H283 0.960 . S
C296 C295 1.524 . S
C297 C294 1.403 . S
C297 C298 1.392 . S
C297 C301 1.495 . S
C298 C297 1.392 . S
C298 C299 1.385 . S
C298 C300 1.478 . S
C299 H293 0.930 . S
C299 C295 1.400 . S
C299 C298 1.385 . S
C300 C298 1.478 . S
C300 C302 1.381 . S
C300 C306 1.383 . S
C301 C297 1.495 . S
C301 H307 0.959 . S
C301 H308 0.961 . S
C301 H309 0.960 . S
C302 C300 1.381 . S
C302 C303 1.394 . S
C302 H310 0.930 . S
C303 C302 1.394 . S
C303 C304 1.383 . S
C303 H311 0.929 . S
C304 C303 1.383 . S
C304 C305 1.377 . S
C305 H289 0.930 . S
C305 C304 1.377 . S
C305 C306 1.379 . S
C306 H290 0.931 . S
C306 C300 1.383 . S
C306 C305 1.379 . S
H307 C301 0.959 . S
H308 C301 0.961 . S
H309 C301 0.960 . S
H310 C302 0.930 . S
H311 C303 0.929 . S
H312 C320 0.929 . S
H313 C322 0.930 . S
H314 C324 0.930 . S
H315 C327 0.929 . S
H316 C330 0.930 . S
H317 C332 0.960 . S
H318 C332 0.960 . S
H319 C332 0.960 . S
C320 H312 0.929 . S
C320 C321 1.377 . S
C320 C322 1.384 . S
C321 C320 1.377 . S
C321 C327 1.390 . S
C322 H313 0.930 . S
C322 C320 1.384 . S
C322 C323 1.372 . S
C323 C322 1.372 . S
C323 C324 1.400 . S
C323 C328 1.490 . S
C324 H314 0.930 . S
C324 C323 1.400 . S
C324 C327 1.386 . S
H325 C341 0.930 . S
H326 C342 0.931 . S
C327 H315 0.929 . S
C327 C321 1.390 . S
C327 C324 1.386 . S
C328 C323 1.490 . S
C328 C330 1.395 . S
C328 C331 1.403 1_554 S
H329 C335 0.930 . S
C330 H316 0.930 . S
C330 C328 1.395 . S
C330 C333 1.403 1_554 S
C331 C328 1.403 1_556 S
C331 C332 1.524 . S
C331 C335 1.400 . S
C332 H317 0.960 . S
C332 H318 0.960 . S
C332 H319 0.960 . S
C332 C331 1.524 . S
C333 C330 1.403 1_556 S
C333 C334 1.392 . S
C333 C337 1.496 1_556 S
C334 C333 1.392 . S
C334 C335 1.385 . S
C334 C336 1.478 . S
C335 H329 0.930 . S
C335 C331 1.400 . S
C335 C334 1.385 . S
C336 C334 1.478 . S
C336 C338 1.381 . S
C336 C342 1.383 . S
C337 C333 1.496 1_554 S
C337 H343 0.956 . S
C337 H344 0.962 1_554 S
C337 H345 0.961 1_554 S
C338 C336 1.381 . S
C338 C339 1.394 . S
C338 H346 0.930 . S
C339 C338 1.394 . S
C339 C340 1.383 . S
C339 H347 0.929 . S
C340 C339 1.383 . S
C340 C341 1.377 . S
C341 H325 0.930 . S
C341 C340 1.377 . S
C341 C342 1.379 . S
C342 H326 0.931 . S
C342 C336 1.383 . S
C342 C341 1.379 . S
H343 C337 0.956 . S
H344 C337 0.962 1_556 S
H345 C337 0.961 1_556 S
H346 C338 0.930 . S
H347 C339 0.929 . S
H348 C356 0.929 . S
H349 C358 0.930 . S
H350 C360 0.930 . S
H351 C363 0.929 . S
H352 C366 0.930 . S
H353 C368 0.960 . S
H354 C368 0.960 . S
H355 C368 0.960 . S
C356 H348 0.929 . S
C356 C357 1.377 . S
C356 C358 1.384 . S
C357 C356 1.377 . S
C357 C363 1.390 . S
C358 H349 0.930 . S
C358 C356 1.384 . S
C358 C359 1.372 . S
C359 C358 1.372 . S
C359 C360 1.400 . S
C359 C364 1.490 . S
C360 H350 0.930 . S
C360 C359 1.400 . S
C360 C363 1.386 . S
H361 C377 0.930 . S
H362 C378 0.931 . S
C363 H351 0.929 . S
C363 C357 1.390 . S
C363 C360 1.386 . S
C364 C359 1.490 . S
C364 C366 1.395 . S
C364 C367 1.403 . S
H365 C371 0.930 . S
C366 H352 0.930 . S
C366 C364 1.395 . S
C366 C369 1.403 . S
C367 C364 1.403 . S
C367 C368 1.524 . S
C367 C371 1.400 . S
C368 H353 0.960 . S
C368 H354 0.960 . S
C368 H355 0.960 . S
C368 C367 1.524 . S
C369 C366 1.403 . S
C369 C370 1.392 . S
C369 C373 1.495 . S
C370 C369 1.392 . S
C370 C371 1.385 . S
C370 C372 1.478 . S
C371 H365 0.930 . S
C371 C367 1.400 . S
C371 C370 1.385 . S
C372 C370 1.478 . S
C372 C374 1.381 . S
C372 C378 1.383 . S
C373 C369 1.495 . S
C373 H379 0.959 . S
C373 H380 0.961 . S
C373 H381 0.960 . S
C374 C372 1.381 . S
C374 C375 1.394 . S
C374 H382 0.930 . S
C375 C374 1.394 . S
C375 C376 1.383 . S
C375 H383 0.929 . S
C376 C375 1.383 . S
C376 C377 1.377 . S
C377 H361 0.930 . S
C377 C376 1.377 . S
C377 C378 1.379 . S
C378 H362 0.931 . S
C378 C372 1.383 . S
C378 C377 1.379 . S
H379 C373 0.959 . S
H380 C373 0.961 . S
H381 C373 0.960 . S
H382 C374 0.930 . S
H383 C375 0.929 . S
H384 C392 0.929 . S
H385 C394 0.930 . S
H386 C396 0.930 . S
H387 C399 0.929 . S
H388 C402 0.930 . S
H389 C404 0.960 . S
H390 C404 0.960 . S
H391 C404 0.960 . S
C392 H384 0.929 . S
C392 C393 1.377 . S
C392 C394 1.384 . S
C393 C392 1.377 . S
C393 C399 1.390 . S
C394 H385 0.930 . S
C394 C392 1.384 . S
C394 C395 1.372 . S
C395 C394 1.372 . S
C395 C396 1.400 . S
C395 C400 1.490 . S
C396 H386 0.930 . S
C396 C395 1.400 . S
C396 C399 1.386 . S
H397 C413 0.930 . S
H398 C414 0.931 . S
C399 H387 0.929 . S
C399 C393 1.390 . S
C399 C396 1.386 . S
C400 C395 1.490 . S
C400 C402 1.395 . S
C400 C403 1.403 . S
H401 C407 0.930 . S
C402 H388 0.930 . S
C402 C400 1.395 . S
C402 C405 1.403 . S
C403 C400 1.403 . S
C403 C404 1.524 . S
C403 C407 1.400 . S
C404 H389 0.960 . S
C404 H390 0.960 . S
C404 H391 0.960 . S
C404 C403 1.524 . S
C405 C402 1.403 . S
C405 C406 1.392 . S
C405 C409 1.495 . S
C406 C405 1.392 . S
C406 C407 1.385 . S
C406 C408 1.478 . S
C407 H401 0.930 . S
C407 C403 1.400 . S
C407 C406 1.385 . S
C408 C406 1.478 . S
C408 C410 1.381 . S
C408 C414 1.383 . S
C409 C405 1.495 . S
C409 H415 0.959 . S
C409 H416 0.961 . S
C409 H417 0.960 . S
C410 C408 1.381 . S
C410 C411 1.394 . S
C410 H418 0.930 . S
C411 C410 1.394 . S
C411 C412 1.383 . S
C411 H419 0.929 . S
C412 C411 1.383 . S
C412 C413 1.377 . S
C413 H397 0.930 . S
C413 C412 1.377 . S
C413 C414 1.379 . S
C414 H398 0.931 . S
C414 C408 1.383 . S
C414 C413 1.379 . S
H415 C409 0.959 . S
H416 C409 0.961 . S
H417 C409 0.960 . S
H418 C410 0.930 . S
H419 C411 0.929 . S
H420 C428 0.929 . S
H421 C430 0.930 . S
H422 C432 0.930 . S
H423 C435 0.929 . S
H424 C438 0.930 . S
H425 C440 0.960 . S
H426 C440 0.960 . S
H427 C440 0.960 . S
C428 H420 0.929 . S
C428 C429 1.377 . S
C428 C430 1.384 . S
C429 C428 1.377 . S
C429 C435 1.390 . S
C430 H421 0.930 . S
C430 C428 1.384 . S
C430 C431 1.372 . S
C431 C430 1.372 . S
C431 C432 1.400 . S
C431 C436 1.490 . S
C432 H422 0.930 . S
C432 C431 1.400 . S
C432 C435 1.386 . S
H433 C449 0.930 . S
H434 C450 0.931 . S
C435 H423 0.929 . S
C435 C429 1.390 . S
C435 C432 1.386 . S
C436 C431 1.490 . S
C436 C438 1.395 . S
C436 C439 1.403 . S
H437 C443 0.930 . S
C438 H424 0.930 . S
C438 C436 1.395 . S
C438 C441 1.403 . S
C439 C436 1.403 . S
C439 C440 1.524 . S
C439 C443 1.400 . S
C440 H425 0.960 . S
C440 H426 0.960 . S
C440 H427 0.960 . S
C440 C439 1.524 . S
C441 C438 1.403 . S
C441 C442 1.392 . S
C441 C445 1.495 . S
C442 C441 1.392 . S
C442 C443 1.385 . S
C442 C444 1.478 . S
C443 H437 0.930 . S
C443 C439 1.400 . S
C443 C442 1.385 . S
C444 C442 1.478 . S
C444 C446 1.381 . S
C444 C450 1.383 . S
C445 C441 1.495 . S
C445 H451 0.959 . S
C445 H452 0.961 . S
C445 H453 0.960 . S
C446 C444 1.381 . S
C446 C447 1.394 . S
C446 H454 0.930 . S
C447 C446 1.394 . S
C447 C448 1.383 . S
C447 H455 0.929 . S
C448 C447 1.383 . S
C448 C449 1.377 . S
C449 H433 0.930 . S
C449 C448 1.377 . S
C449 C450 1.379 . S
C450 H434 0.931 . S
C450 C444 1.383 . S
C450 C449 1.379 . S
H451 C445 0.959 . S
H452 C445 0.961 . S
H453 C445 0.960 . S
H454 C446 0.930 . S
H455 C447 0.929 . S
H456 C464 0.929 . S
H457 C466 0.930 . S
H458 C468 0.930 . S
H459 C471 0.929 . S
H460 C474 0.930 . S
H461 C476 0.960 . S
H462 C476 0.960 . S
H463 C476 0.960 . S
C464 H456 0.929 . S
C464 C465 1.377 . S
C464 C466 1.384 . S
C465 C464 1.377 . S
C465 C471 1.390 . S
C466 H457 0.930 . S
C466 C464 1.384 . S
C466 C467 1.372 . S
C467 C466 1.372 . S
C467 C468 1.400 . S
C467 C472 1.490 . S
C468 H458 0.930 . S
C468 C467 1.400 . S
C468 C471 1.386 . S
H469 C485 0.930 . S
H470 C486 0.931 . S
C471 H459 0.929 . S
C471 C465 1.390 . S
C471 C468 1.386 . S
C472 C467 1.490 . S
C472 C474 1.395 . S
C472 C475 1.403 . S
H473 C479 0.930 . S
C474 H460 0.930 . S
C474 C472 1.395 . S
C474 C477 1.403 . S
C475 C472 1.403 . S
C475 C476 1.524 . S
C475 C479 1.400 . S
C476 H461 0.960 . S
C476 H462 0.960 . S
C476 H463 0.960 . S
C476 C475 1.524 . S
C477 C474 1.403 . S
C477 C478 1.392 . S
C477 C481 1.495 . S
C478 C477 1.392 . S
C478 C479 1.385 . S
C478 C480 1.478 . S
C479 H473 0.930 . S
C479 C475 1.400 . S
C479 C478 1.385 . S
C480 C478 1.478 . S
C480 C482 1.381 . S
C480 C486 1.383 . S
C481 C477 1.495 . S
C481 H487 0.959 . S
C481 H488 0.961 . S
C481 H489 0.960 . S
C482 C480 1.381 . S
C482 C483 1.394 . S
C482 H490 0.930 . S
C483 C482 1.394 . S
C483 C484 1.383 . S
C483 H491 0.929 . S
C484 C483 1.383 . S
C484 C485 1.377 . S
C485 H469 0.930 . S
C485 C484 1.377 . S
C485 C486 1.379 . S
C486 H470 0.931 . S
C486 C480 1.383 . S
C486 C485 1.379 . S
H487 C481 0.959 . S
H488 C481 0.961 . S
H489 C481 0.960 . S
H490 C482 0.930 . S
H491 C483 0.929 . S
H492 C500 0.929 . S
H493 C502 0.930 . S
H494 C504 0.930 . S
H495 C507 0.929 . S
H496 C510 0.930 . S
H497 C512 0.960 . S
H498 C512 0.960 . S
H499 C512 0.960 . S
C500 H492 0.929 . S
C500 C501 1.377 . S
C500 C502 1.384 . S
C501 C500 1.377 . S
C501 C507 1.390 . S
C502 H493 0.930 . S
C502 C500 1.384 . S
C502 C503 1.372 . S
C503 C502 1.372 . S
C503 C504 1.400 . S
C503 C508 1.490 . S
C504 H494 0.930 . S
C504 C503 1.400 . S
C504 C507 1.386 . S
H505 C521 0.930 . S
H506 C522 0.931 . S
C507 H495 0.929 . S
C507 C501 1.390 . S
C507 C504 1.386 . S
C508 C503 1.490 . S
C508 C510 1.395 . S
C508 C511 1.403 . S
H509 C515 0.930 . S
C510 H496 0.930 . S
C510 C508 1.395 . S
C510 C513 1.403 . S
C511 C508 1.403 . S
C511 C512 1.524 . S
C511 C515 1.400 . S
C512 H497 0.960 . S
C512 H498 0.960 . S
C512 H499 0.960 . S
C512 C511 1.524 . S
C513 C510 1.403 . S
C513 C514 1.392 . S
C513 C517 1.495 1_455 S
C514 C513 1.392 . S
C514 C515 1.385 . S
C514 C516 1.478 . S
C515 H509 0.930 . S
C515 C511 1.400 . S
C515 C514 1.385 . S
C516 C514 1.478 . S
C516 C518 1.381 1_455 S
C516 C522 1.383 . S
C517 C513 1.495 1_655 S
C517 H523 0.959 . S
C517 H524 0.961 . S
C517 H525 0.960 . S
C518 C516 1.381 1_655 S
C518 C519 1.394 . S
C518 H526 0.930 . S
C519 C518 1.394 . S
C519 C520 1.383 . S
C519 H527 0.929 . S
C520 C519 1.383 . S
C520 C521 1.377 . S
C521 H505 0.930 . S
C521 C520 1.377 . S
C521 C522 1.379 1_655 S
C522 H506 0.931 . S
C522 C516 1.383 . S
C522 C521 1.379 1_455 S
H523 C517 0.959 . S
H524 C517 0.961 . S
H525 C517 0.960 . S
H526 C518 0.930 . S
H527 C519 0.929 . S
H528 C536 0.929 . S
H529 C538 0.930 . S
H530 C540 0.930 . S
H531 C543 0.929 . S
H532 C546 0.934 . S
H533 C548 0.960 . S
H534 C548 0.960 . S
H535 C548 0.960 . S
C536 H528 0.929 . S
C536 C537 1.377 . S
C536 C538 1.384 1_545 S
C537 C536 1.377 . S
C537 C543 1.390 . S
C538 H529 0.930 . S
C538 C536 1.384 1_565 S
C538 C539 1.372 . S
C539 C538 1.372 . S
C539 C540 1.400 1_565 S
C539 C544 1.490 . S
C540 H530 0.930 . S
C540 C539 1.400 1_545 S
C540 C543 1.386 . S
H541 C557 0.930 . S
H542 C558 0.931 . S
C543 H531 0.929 . S
C543 C537 1.390 . S
C543 C540 1.386 . S
C544 C539 1.490 . S
C544 C546 1.395 . S
C544 C547 1.403 . S
H545 C551 0.930 . S
C546 H532 0.934 . S
C546 C544 1.395 . S
C546 C549 1.403 . S
C547 C544 1.403 . S
C547 C548 1.524 . S
C547 C551 1.400 . S
C548 H533 0.960 . S
C548 H534 0.960 . S
C548 H535 0.960 . S
C548 C547 1.524 . S
C549 C546 1.403 . S
C549 C550 1.392 . S
C549 C553 1.495 . S
C550 C549 1.392 . S
C550 C551 1.385 . S
C550 C552 1.478 . S
C551 H545 0.930 . S
C551 C547 1.400 . S
C551 C550 1.385 . S
C552 C550 1.478 . S
C552 C554 1.381 . S
C552 C558 1.383 . S
C553 C549 1.495 . S
C553 H559 0.959 . S
C553 H560 0.961 . S
C553 H561 0.960 . S
C554 C552 1.381 . S
C554 C555 1.394 . S
C554 H562 0.930 . S
C555 C554 1.394 . S
C555 C556 1.383 . S
C555 H563 0.929 . S
C556 C555 1.383 . S
C556 C557 1.377 . S
C557 H541 0.930 . S
C557 C556 1.377 . S
C557 C558 1.379 . S
C558 H542 0.931 . S
C558 C552 1.383 . S
C558 C557 1.379 . S
H559 C553 0.959 . S
H560 C553 0.961 . S
H561 C553 0.960 . S
H562 C554 0.930 . S
H563 C555 0.929 . S
H564 C572 0.929 . S
H565 C574 0.930 . S
H566 C576 0.930 . S
H567 C579 0.929 . S
H568 C582 0.930 . S
H569 C584 0.960 . S
H570 C584 0.960 . S
H571 C584 0.960 . S
C572 H564 0.929 . S
C572 C573 1.377 . S
C572 C574 1.384 . S
C573 C572 1.377 . S
C573 C579 1.390 . S
C574 H565 0.930 . S
C574 C572 1.384 . S
C574 C575 1.372 . S
C575 C574 1.372 . S
C575 C576 1.400 . S
C575 C580 1.490 . S
C576 H566 0.930 . S
C576 C575 1.400 . S
C576 C579 1.386 . S
H577 C593 0.930 . S
H578 C594 0.931 . S
C579 H567 0.929 . S
C579 C573 1.390 . S
C579 C576 1.386 . S
C580 C575 1.490 . S
C580 C582 1.395 . S
C580 C583 1.403 . S
H581 C587 0.930 . S
C582 H568 0.930 . S
C582 C580 1.395 . S
C582 C585 1.403 . S
C583 C580 1.403 . S
C583 C584 1.524 . S
C583 C587 1.400 . S
C584 H569 0.960 . S
C584 H570 0.960 . S
C584 H571 0.960 . S
C584 C583 1.524 . S
C585 C582 1.403 . S
C585 C586 1.392 . S
C585 C589 1.495 . S
C586 C585 1.392 . S
C586 C587 1.385 . S
C586 C588 1.478 . S
C587 H581 0.930 . S
C587 C583 1.400 . S
C587 C586 1.385 . S
C588 C586 1.478 . S
C588 C590 1.381 . S
C588 C594 1.383 . S
C589 C585 1.495 . S
C589 H595 0.959 . S
C589 H596 0.961 . S
C589 H597 0.960 . S
C590 C588 1.381 . S
C590 C591 1.394 . S
C590 H598 0.930 . S
C591 C590 1.394 . S
C591 C592 1.383 . S
C591 H599 0.929 . S
C592 C591 1.383 . S
C592 C593 1.377 . S
C593 H577 0.930 . S
C593 C592 1.377 . S
C593 C594 1.379 . S
C594 H578 0.931 . S
C594 C588 1.383 . S
C594 C593 1.379 . S
H595 C589 0.959 . S
H596 C589 0.961 . S
H597 C589 0.960 . S
H598 C590 0.930 . S
H599 C591 0.929 . S
H600 C608 0.929 . S
H601 C610 0.930 . S
H602 C612 0.930 . S
H603 C615 0.929 . S
H604 C618 0.930 1_455 S
H605 C620 0.960 . S
H606 C620 0.960 . S
H607 C620 0.960 . S
C608 H600 0.929 . S
C608 C609 1.377 . S
C608 C610 1.384 . S
C609 C608 1.377 . S
C609 C615 1.390 . S
C610 H601 0.930 . S
C610 C608 1.384 . S
C610 C611 1.372 1_455 S
C611 C610 1.372 1_655 S
C611 C612 1.400 . S
C611 C616 1.490 . S
C612 H602 0.930 . S
C612 C611 1.400 . S
C612 C615 1.386 1_655 S
H613 C629 0.930 . S
H614 C630 0.931 . S
C615 H603 0.929 . S
C615 C609 1.390 . S
C615 C612 1.386 1_455 S
C616 C611 1.490 . S
C616 C618 1.395 . S
C616 C619 1.403 . S
H617 C623 0.930 . S
C618 H604 0.930 1_655 S
C618 C616 1.395 . S
C618 C621 1.403 . S
C619 C616 1.403 . S
C619 C620 1.524 . S
C619 C623 1.400 . S
C620 H605 0.960 . S
C620 H606 0.960 . S
C620 H607 0.960 . S
C620 C619 1.524 . S
C621 C618 1.403 . S
C621 C622 1.392 . S
C621 C625 1.495 1_655 S
C622 C621 1.392 . S
C622 C623 1.385 . S
C622 C624 1.478 . S
C623 H617 0.930 . S
C623 C619 1.400 . S
C623 C622 1.385 . S
C624 C622 1.478 . S
C624 C626 1.381 . S
C624 C630 1.383 . S
C625 C621 1.495 1_455 S
C625 H631 0.959 . S
C625 H632 0.961 1_455 S
C625 H633 0.960 1_455 S
C626 C624 1.381 . S
C626 C627 1.394 . S
C626 H634 0.930 . S
C627 C626 1.394 . S
C627 C628 1.383 . S
C627 H635 0.929 . S
C628 C627 1.383 . S
C628 C629 1.377 . S
C629 H613 0.930 . S
C629 C628 1.377 . S
C629 C630 1.379 . S
C630 H614 0.931 . S
C630 C624 1.383 . S
C630 C629 1.379 . S
H631 C625 0.959 . S
H632 C625 0.961 1_655 S
H633 C625 0.960 1_655 S
H634 C626 0.930 . S
H635 C627 0.929 . S
H636 C644 0.929 . S
H637 C646 0.930 . S
H638 C648 0.930 . S
H639 C651 0.929 . S
H640 C654 0.930 . S
H641 C656 0.960 . S
H642 C656 0.960 . S
H643 C656 0.960 1_565 S
C644 H636 0.929 . S
C644 C645 1.377 1_545 S
C644 C646 1.384 . S
C645 C644 1.377 1_565 S
C645 C651 1.390 . S
C646 H637 0.930 . S
C646 C644 1.384 . S
C646 C647 1.372 . S
C647 C646 1.372 . S
C647 C648 1.400 1_545 S
C647 C652 1.490 . S
C648 H638 0.930 . S
C648 C647 1.400 1_565 S
C648 C651 1.386 . S
H649 C665 0.930 . S
H650 C666 0.931 . S
C651 H639 0.929 . S
C651 C645 1.390 . S
C651 C648 1.386 . S
C652 C647 1.490 . S
C652 C654 1.395 . S
C652 C655 1.403 . S
H653 C659 0.930 . S
C654 H640 0.930 . S
C654 C652 1.395 . S
C654 C657 1.403 . S
C655 C652 1.403 . S
C655 C656 1.524 . S
C655 C659 1.400 . S
C656 H641 0.960 . S
C656 H642 0.960 . S
C656 H643 0.960 1_545 S
C656 C655 1.524 . S
C657 C654 1.403 . S
C657 C658 1.392 . S
C657 C661 1.495 . S
C658 C657 1.392 . S
C658 C659 1.385 . S
C658 C660 1.478 . S
C659 H653 0.930 . S
C659 C655 1.400 . S
C659 C658 1.385 . S
C660 C658 1.478 . S
C660 C662 1.381 . S
C660 C666 1.383 . S
C661 C657 1.495 . S
C661 H667 0.959 . S
C661 H668 0.961 . S
C661 H669 0.960 . S
C662 C660 1.381 . S
C662 C663 1.394 . S
C662 H670 0.930 . S
C663 C662 1.394 . S
C663 C664 1.383 . S
C663 H671 0.929 . S
C664 C663 1.383 . S
C664 C665 1.377 . S
C665 H649 0.930 . S
C665 C664 1.377 . S
C665 C666 1.379 . S
C666 H650 0.931 . S
C666 C660 1.383 . S
C666 C665 1.379 . S
H667 C661 0.959 . S
H668 C661 0.961 . S
H669 C661 0.960 . S
H670 C662 0.930 . S
H671 C663 0.929 . S
H672 C680 0.929 . S
H673 C682 0.930 . S
H674 C684 0.930 . S
H675 C687 0.929 . S
H676 C690 0.930 . S
H677 C692 0.960 . S
H678 C692 0.960 . S
H679 C692 0.960 . S
C680 H672 0.929 . S
C680 C681 1.377 . S
C680 C682 1.384 . S
C681 C680 1.377 . S
C681 C687 1.390 . S
C682 H673 0.930 . S
C682 C680 1.384 . S
C682 C683 1.372 . S
C683 C682 1.372 . S
C683 C684 1.400 . S
C683 C688 1.490 . S
C684 H674 0.930 . S
C684 C683 1.400 . S
C684 C687 1.386 . S
H685 C701 0.930 1_554 S
H686 C702 0.931 . S
C687 H675 0.929 . S
C687 C681 1.390 . S
C687 C684 1.386 . S
C688 C683 1.490 . S
C688 C690 1.395 . S
C688 C691 1.403 . S
H689 C695 0.930 . S
C690 H676 0.930 . S
C690 C688 1.395 . S
C690 C693 1.403 . S
C691 C688 1.403 . S
C691 C692 1.524 . S
C691 C695 1.400 . S
C692 H677 0.960 . S
C692 H678 0.960 . S
C692 H679 0.960 . S
C692 C691 1.524 . S
C693 C690 1.403 . S
C693 C694 1.392 . S
C693 C697 1.495 . S
C694 C693 1.392 . S
C694 C695 1.385 . S
C694 C696 1.478 . S
C695 H689 0.930 . S
C695 C691 1.400 . S
C695 C694 1.385 . S
C696 C694 1.478 . S
C696 C698 1.381 . S
C696 C702 1.383 . S
C697 C693 1.495 . S
C697 H703 0.959 . S
C697 H704 0.961 . S
C697 H705 0.960 . S
C698 C696 1.381 . S
C698 C699 1.394 . S
C698 H706 0.930 . S
C699 C698 1.394 . S
C699 C700 1.383 1_556 S
C699 H707 0.929 1_556 S
C700 C699 1.383 1_554 S
C700 C701 1.377 1_554 S
C701 H685 0.930 1_556 S
C701 C700 1.377 1_556 S
C701 C702 1.379 . S
C702 H686 0.931 . S
C702 C696 1.383 . S
C702 C701 1.379 . S
H703 C697 0.959 . S
H704 C697 0.961 . S
H705 C697 0.960 . S
H706 C698 0.930 . S
H707 C699 0.929 1_554 S
H708 C716 0.929 . S
H709 C718 0.930 1_455 S
H710 C720 0.930 . S
H711 C723 0.929 . S
H712 C726 0.926 . S
H713 C728 0.960 . S
H714 C728 0.960 . S
H715 C728 0.960 . S
C716 H708 0.929 . S
C716 C717 1.377 . S
C716 C718 1.384 . S
C717 C716 1.377 . S
C717 C723 1.390 . S
C718 H709 0.930 1_655 S
C718 C716 1.384 . S
C718 C719 1.372 . S
C719 C718 1.372 . S
C719 C720 1.400 . S
C719 C724 1.490 . S
C720 H710 0.930 . S
C720 C719 1.400 . S
C720 C723 1.386 . S
H721 C737 0.930 . S
H722 C738 0.931 1_655 S
C723 H711 0.929 . S
C723 C717 1.390 . S
C723 C720 1.386 . S
C724 C719 1.490 . S
C724 C726 1.404 . S
C724 C727 1.403 . S
H725 C731 0.930 . S
C726 H712 0.926 . S
C726 C724 1.404 . S
C726 C729 1.398 1_655 S
C727 C724 1.403 . S
C727 C728 1.524 . S
C727 C731 1.400 1_655 S
C728 H713 0.960 . S
C728 H714 0.960 . S
C728 H715 0.960 . S
C728 C727 1.524 . S
C729 C726 1.398 1_455 S
C729 C730 1.392 . S
C729 C733 1.495 . S
C730 C729 1.392 . S
C730 C731 1.385 . S
C730 C732 1.478 . S
C731 H725 0.930 . S
C731 C727 1.400 1_455 S
C731 C730 1.385 . S
C732 C730 1.478 . S
C732 C734 1.381 . S
C732 C738 1.383 . S
C733 C729 1.495 . S
C733 H739 0.959 . S
C733 H740 0.961 . S
C733 H741 0.960 . S
C734 C732 1.381 . S
C734 C735 1.394 . S
C734 H742 0.930 . S
C735 C734 1.394 . S
C735 C736 1.383 . S
C735 H743 0.929 . S
C736 C735 1.383 . S
C736 C737 1.377 . S
C737 H721 0.930 . S
C737 C736 1.377 . S
C737 C738 1.379 . S
C738 H722 0.931 1_455 S
C738 C732 1.383 . S
C738 C737 1.379 . S
H739 C733 0.959 . S
H740 C733 0.961 . S
H741 C733 0.960 . S
H742 C734 0.930 . S
H743 C735 0.929 . S
H744 C752 0.929 . S
H745 C754 0.930 . S
H746 C756 0.930 . S
H747 C759 0.929 . S
H748 C762 0.930 . S
H749 C764 0.960 . S
H750 C764 0.960 . S
H751 C764 0.960 . S
C752 H744 0.929 . S
C752 C753 1.377 . S
C752 C754 1.384 . S
C753 C752 1.377 . S
C753 C759 1.390 . S
C754 H745 0.930 . S
C754 C752 1.384 . S
C754 C755 1.372 . S
C755 C754 1.372 . S
C755 C756 1.400 . S
C755 C760 1.490 . S
C756 H746 0.930 . S
C756 C755 1.400 . S
C756 C759 1.386 . S
H757 C773 0.930 . S
H758 C774 0.931 . S
C759 H747 0.929 . S
C759 C753 1.390 . S
C759 C756 1.386 . S
C760 C755 1.490 . S
C760 C762 1.395 . S
C760 C763 1.403 1_565 S
H761 C767 0.930 . S
C762 H748 0.930 . S
C762 C760 1.395 . S
C762 C765 1.403 . S
C763 C760 1.403 1_545 S
C763 C764 1.524 . S
C763 C767 1.400 . S
C764 H749 0.960 . S
C764 H750 0.960 . S
C764 H751 0.960 . S
C764 C763 1.524 . S
C765 C762 1.403 . S
C765 C766 1.392 1_565 S
C765 C769 1.495 . S
C766 C765 1.392 1_545 S
C766 C767 1.385 . S
C766 C768 1.478 . S
C767 H761 0.930 . S
C767 C763 1.400 . S
C767 C766 1.385 . S
C768 C766 1.478 . S
C768 C770 1.381 . S
C768 C774 1.383 . S
C769 C765 1.495 . S
C769 H775 0.959 . S
C769 H776 0.961 . S
C769 H777 0.960 . S
C770 C768 1.381 . S
C770 C771 1.394 . S
C770 H778 0.930 . S
C771 C770 1.394 . S
C771 C772 1.383 . S
C771 H779 0.929 . S
C772 C771 1.383 . S
C772 C773 1.377 . S
C773 H757 0.930 . S
C773 C772 1.377 . S
C773 C774 1.379 . S
C774 H758 0.931 . S
C774 C768 1.383 . S
C774 C773 1.379 . S
H775 C769 0.959 . S
H776 C769 0.961 . S
H777 C769 0.960 . S
H778 C770 0.930 . S
H779 C771 0.929 . S
H780 C788 0.929 . S
H781 C790 0.930 . S
H782 C792 0.930 . S
H783 C795 0.929 . S
H784 C798 0.930 . S
H785 C800 0.960 . S
H786 C800 0.960 . S
H787 C800 0.960 . S
C788 H780 0.929 . S
C788 C789 1.377 . S
C788 C790 1.384 . S
C789 C788 1.377 . S
C789 C795 1.390 . S
C790 H781 0.930 . S
C790 C788 1.384 . S
C790 C791 1.372 . S
C791 C790 1.372 . S
C791 C792 1.400 . S
C791 C796 1.490 . S
C792 H782 0.930 . S
C792 C791 1.400 . S
C792 C795 1.386 . S
H793 C809 0.930 . S
H794 C810 0.931 . S
C795 H783 0.929 . S
C795 C789 1.390 . S
C795 C792 1.386 . S
C796 C791 1.490 . S
C796 C798 1.395 . S
C796 C799 1.403 . S
H797 C803 0.930 . S
C798 H784 0.930 . S
C798 C796 1.395 . S
C798 C801 1.403 . S
C799 C796 1.403 . S
C799 C800 1.524 . S
C799 C803 1.400 . S
C800 H785 0.960 . S
C800 H786 0.960 . S
C800 H787 0.960 . S
C800 C799 1.524 . S
C801 C798 1.403 . S
C801 C802 1.392 . S
C801 C805 1.495 . S
C802 C801 1.392 . S
C802 C803 1.385 . S
C802 C804 1.478 . S
C803 H797 0.930 . S
C803 C799 1.400 . S
C803 C802 1.385 . S
C804 C802 1.478 . S
C804 C806 1.381 . S
C804 C810 1.383 . S
C805 C801 1.495 . S
C805 H811 0.959 . S
C805 H812 0.961 . S
C805 H813 0.960 . S
C806 C804 1.381 . S
C806 C807 1.394 1_556 S
C806 H814 0.930 . S
C807 C806 1.394 1_554 S
C807 C808 1.383 . S
C807 H815 0.929 . S
C808 C807 1.383 . S
C808 C809 1.377 1_554 S
C809 H793 0.930 . S
C809 C808 1.377 1_556 S
C809 C810 1.379 . S
C810 H794 0.931 . S
C810 C804 1.383 . S
C810 C809 1.379 . S
H811 C805 0.959 . S
H812 C805 0.961 . S
H813 C805 0.960 . S
H814 C806 0.930 . S
H815 C807 0.929 . S
H816 C824 0.929 . S
H817 C826 0.930 . S
H818 C828 0.930 . S
H819 C831 0.929 . S
H820 C834 0.930 . S
H821 C836 0.960 . S
H822 C836 0.960 . S
H823 C836 0.972 . S
C824 H816 0.929 . S
C824 C825 1.377 . S
C824 C826 1.384 . S
C825 C824 1.377 . S
C825 C831 1.390 . S
C826 H817 0.930 . S
C826 C824 1.384 . S
C826 C827 1.372 . S
C827 C826 1.372 . S
C827 C828 1.400 . S
C827 C832 1.490 . S
C828 H818 0.930 . S
C828 C827 1.400 . S
C828 C831 1.386 . S
H829 C845 0.930 . S
H830 C846 0.931 . S
C831 H819 0.929 . S
C831 C825 1.390 . S
C831 C828 1.386 . S
C832 C827 1.490 . S
C832 C834 1.395 . S
C832 C835 1.403 1_455 S
H833 C839 0.930 . S
C834 H820 0.930 . S
C834 C832 1.395 . S
C834 C837 1.403 . S
C835 C832 1.403 1_655 S
C835 C836 1.524 . S
C835 C839 1.400 . S
C836 H821 0.960 . S
C836 H822 0.960 . S
C836 H823 0.972 . S
C836 C835 1.524 . S
C837 C834 1.403 . S
C837 C838 1.392 1_455 S
C837 C841 1.495 . S
C838 C837 1.392 1_655 S
C838 C839 1.385 . S
C838 C840 1.478 . S
C839 H833 0.930 . S
C839 C835 1.400 . S
C839 C838 1.385 . S
C840 C838 1.478 . S
C840 C842 1.381 . S
C840 C846 1.383 . S
C841 C837 1.495 . S
C841 H847 0.959 . S
C841 H848 0.961 . S
C841 H849 0.960 . S
C842 C840 1.381 . S
C842 C843 1.394 . S
C842 H850 0.930 . S
C843 C842 1.394 . S
C843 C844 1.383 . S
C843 H851 0.929 . S
C844 C843 1.383 . S
C844 C845 1.377 . S
C845 H829 0.930 . S
C845 C844 1.377 . S
C845 C846 1.379 . S
C846 H830 0.931 . S
C846 C840 1.383 . S
C846 C845 1.379 . S
H847 C841 0.959 . S
H848 C841 0.961 . S
H849 C841 0.960 . S
H850 C842 0.930 . S
H851 C843 0.929 . S
H852 C860 0.929 . S
H853 C862 0.930 . S
H854 C864 0.930 1_565 S
H855 C867 0.929 . S
H856 C870 0.930 . S
H857 C872 0.960 1_565 S
H858 C872 0.960 . S
H859 C872 0.960 1_565 S
C860 H852 0.929 . S
C860 C861 1.377 . S
C860 C862 1.384 . S
C861 C860 1.377 . S
C861 C867 1.390 . S
C862 H853 0.930 . S
C862 C860 1.384 . S
C862 C863 1.372 . S
C863 C862 1.372 . S
C863 C864 1.400 . S
C863 C868 1.490 . S
C864 H854 0.930 1_545 S
C864 C863 1.400 . S
C864 C867 1.386 . S
H865 C881 0.930 . S
H866 C882 0.931 . S
C867 H855 0.929 . S
C867 C861 1.390 . S
C867 C864 1.386 . S
C868 C863 1.490 . S
C868 C870 1.395 . S
C868 C871 1.403 . S
H869 C875 0.930 . S
C870 H856 0.930 . S
C870 C868 1.395 . S
C870 C873 1.403 . S
C871 C868 1.403 . S
C871 C872 1.524 . S
C871 C875 1.400 1_545 S
C872 H857 0.960 1_545 S
C872 H858 0.960 . S
C872 H859 0.960 1_545 S
C872 C871 1.524 . S
C873 C870 1.403 . S
C873 C874 1.392 1_545 S
C873 C877 1.495 . S
C874 C873 1.392 1_565 S
C874 C875 1.385 . S
C874 C876 1.478 . S
C875 H869 0.930 . S
C875 C871 1.400 1_565 S
C875 C874 1.385 . S
C876 C874 1.478 . S
C876 C878 1.381 . S
C876 C882 1.383 . S
C877 C873 1.495 . S
C877 H883 0.959 . S
C877 H884 0.961 1_545 S
C877 H885 0.960 . S
C878 C876 1.381 . S
C878 C879 1.394 . S
C878 H886 0.930 1_565 S
C879 C878 1.394 . S
C879 C880 1.383 . S
C879 H887 0.929 . S
C880 C879 1.383 . S
C880 C881 1.377 . S
C881 H865 0.930 . S
C881 C880 1.377 . S
C881 C882 1.379 . S
C882 H866 0.931 . S
C882 C876 1.383 . S
C882 C881 1.379 . S
H883 C877 0.959 . S
H884 C877 0.961 1_565 S
H885 C877 0.960 . S
H886 C878 0.930 1_545 S
H887 C879 0.929 . S
C249 C184 1.184 . S
C268 C26 1.193 . S
C285 C226 1.185 . S
C304 C64 1.194 . S
C321 C24 1.185 . S
C340 C106 1.176 . S
C357 C66 1.186 . S
C376 C144 1.192 . S
C393 C104 1.185 . S
C412 C186 1.193 . S
C429 C146 1.183 . S
C448 C224 1.183 . S
C465 C2 1.209 . S
C484 C143 1.257 . S
C501 C162 1.210 . S
C520 C63 1.260 . S
C537 C223 1.278 . S
C556 C82 1.244 . S
C573 C103 1.269 . S
C592 C202 1.174 . S
C609 C23 1.280 . S
C628 C122 1.253 . S
C645 C183 1.273 . S
C664 C42 1.208 . S
C681 C217 0.663 . S
C700 C17 0.666 . S
C717 C53 1.480 . S
C736 C13 1.487 . S
C753 C97 0.664 . S
C772 C57 0.663 . S
C789 C93 1.482 . S
C808 C133 1.478 . S
C825 C177 0.660 . S
C844 C137 0.683 . S
C861 C213 1.480 . S
C880 C173 1.467 . S
