# Generated by pormake.
# Topology bcs, (6)-cn, num edge types: 1
# Building blocks:
#     Node 0, Type 0, BuildingBlock: JUFBIX_clean_sbu_0, # of connection points: 6
#     Node 1, Type 0, BuildingBlock: JUFBIX_clean_sbu_0, # of connection points: 6
#     Node 2, Type 0, BuildingBlock: JUFBIX_clean_sbu_0, # of connection points: 6
#     Node 3, Type 0, BuildingBlock: JUFBIX_clean_sbu_0, # of connection points: 6
#     Node 4, Type 0, BuildingBlock: JUFBIX_clean_sbu_0, # of connection points: 6
#     Node 5, Type 0, BuildingBlock: JUFBIX_clean_sbu_0, # of connection points: 6
#     Node 6, Type 0, BuildingBlock: JUFBIX_clean_sbu_0, # of connection points: 6
#     Node 7, Type 0, BuildingBlock: JUFBIX_clean_sbu_0, # of connection points: 6
#     Node 8, Type 0, BuildingBlock: JUFBIX_clean_sbu_0, # of connection points: 6
#     Node 9, Type 0, BuildingBlock: JUFBIX_clean_sbu_0, # of connection points: 6
#     Node 10, Type 0, BuildingBlock: JUFBIX_clean_sbu_0, # of connection points: 6
#     Node 11, Type 0, BuildingBlock: JUFBIX_clean_sbu_0, # of connection points: 6
#     Node 12, Type 0, BuildingBlock: JUFBIX_clean_sbu_0, # of connection points: 6
#     Node 13, Type 0, BuildingBlock: JUFBIX_clean_sbu_0, # of connection points: 6
#     Node 14, Type 0, BuildingBlock: JUFBIX_clean_sbu_0, # of connection points: 6
#     Node 15, Type 0, BuildingBlock: JUFBIX_clean_sbu_0, # of connection points: 6
#     Edge 16, Type (0, 0), BuildingBlock: UVAHIK_clean_linker_0, # of connection points: 2
#     Edge 17, Type (0, 0), BuildingBlock: UVAHIK_clean_linker_0, # of connection points: 2
#     Edge 18, Type (0, 0), BuildingBlock: UVAHIK_clean_linker_0, # of connection points: 2
#     Edge 19, Type (0, 0), BuildingBlock: UVAHIK_clean_linker_0, # of connection points: 2
#     Edge 20, Type (0, 0), BuildingBlock: UVAHIK_clean_linker_0, # of connection points: 2
#     Edge 21, Type (0, 0), BuildingBlock: UVAHIK_clean_linker_0, # of connection points: 2
#     Edge 22, Type (0, 0), BuildingBlock: UVAHIK_clean_linker_0, # of connection points: 2
#     Edge 23, Type (0, 0), BuildingBlock: UVAHIK_clean_linker_0, # of connection points: 2
#     Edge 24, Type (0, 0), BuildingBlock: UVAHIK_clean_linker_0, # of connection points: 2
#     Edge 25, Type (0, 0), BuildingBlock: UVAHIK_clean_linker_0, # of connection points: 2
#     Edge 26, Type (0, 0), BuildingBlock: UVAHIK_clean_linker_0, # of connection points: 2
#     Edge 27, Type (0, 0), BuildingBlock: UVAHIK_clean_linker_0, # of connection points: 2
#     Edge 28, Type (0, 0), BuildingBlock: UVAHIK_clean_linker_0, # of connection points: 2
#     Edge 29, Type (0, 0), BuildingBlock: UVAHIK_clean_linker_0, # of connection points: 2
#     Edge 30, Type (0, 0), BuildingBlock: UVAHIK_clean_linker_0, # of connection points: 2
#     Edge 31, Type (0, 0), BuildingBlock: UVAHIK_clean_linker_0, # of connection points: 2
#     Edge 32, Type (0, 0), BuildingBlock: UVAHIK_clean_linker_0, # of connection points: 2
#     Edge 33, Type (0, 0), BuildingBlock: UVAHIK_clean_linker_0, # of connection points: 2
#     Edge 34, Type (0, 0), BuildingBlock: UVAHIK_clean_linker_0, # of connection points: 2
#     Edge 35, Type (0, 0), BuildingBlock: UVAHIK_clean_linker_0, # of connection points: 2
#     Edge 36, Type (0, 0), BuildingBlock: UVAHIK_clean_linker_0, # of connection points: 2
#     Edge 37, Type (0, 0), BuildingBlock: UVAHIK_clean_linker_0, # of connection points: 2
#     Edge 38, Type (0, 0), BuildingBlock: UVAHIK_clean_linker_0, # of connection points: 2
#     Edge 39, Type (0, 0), BuildingBlock: UVAHIK_clean_linker_0, # of connection points: 2
#     Edge 40, Type (0, 0), BuildingBlock: UVAHIK_clean_linker_0, # of connection points: 2
#     Edge 41, Type (0, 0), BuildingBlock: UVAHIK_clean_linker_0, # of connection points: 2
#     Edge 42, Type (0, 0), BuildingBlock: UVAHIK_clean_linker_0, # of connection points: 2
#     Edge 43, Type (0, 0), BuildingBlock: UVAHIK_clean_linker_0, # of connection points: 2
#     Edge 44, Type (0, 0), BuildingBlock: UVAHIK_clean_linker_0, # of connection points: 2
#     Edge 45, Type (0, 0), BuildingBlock: UVAHIK_clean_linker_0, # of connection points: 2
#     Edge 46, Type (0, 0), BuildingBlock: UVAHIK_clean_linker_0, # of connection points: 2
#     Edge 47, Type (0, 0), BuildingBlock: UVAHIK_clean_linker_0, # of connection points: 2
#     Edge 48, Type (0, 0), BuildingBlock: UVAHIK_clean_linker_0, # of connection points: 2
#     Edge 49, Type (0, 0), BuildingBlock: UVAHIK_clean_linker_0, # of connection points: 2
#     Edge 50, Type (0, 0), BuildingBlock: UVAHIK_clean_linker_0, # of connection points: 2
#     Edge 51, Type (0, 0), BuildingBlock: UVAHIK_clean_linker_0, # of connection points: 2
#     Edge 52, Type (0, 0), BuildingBlock: UVAHIK_clean_linker_0, # of connection points: 2
#     Edge 53, Type (0, 0), BuildingBlock: UVAHIK_clean_linker_0, # of connection points: 2
#     Edge 54, Type (0, 0), BuildingBlock: UVAHIK_clean_linker_0, # of connection points: 2
#     Edge 55, Type (0, 0), BuildingBlock: UVAHIK_clean_linker_0, # of connection points: 2
#     Edge 56, Type (0, 0), BuildingBlock: UVAHIK_clean_linker_0, # of connection points: 2
#     Edge 57, Type (0, 0), BuildingBlock: UVAHIK_clean_linker_0, # of connection points: 2
#     Edge 58, Type (0, 0), BuildingBlock: UVAHIK_clean_linker_0, # of connection points: 2
#     Edge 59, Type (0, 0), BuildingBlock: UVAHIK_clean_linker_0, # of connection points: 2
#     Edge 60, Type (0, 0), BuildingBlock: UVAHIK_clean_linker_0, # of connection points: 2
#     Edge 61, Type (0, 0), BuildingBlock: UVAHIK_clean_linker_0, # of connection points: 2
#     Edge 62, Type (0, 0), BuildingBlock: UVAHIK_clean_linker_0, # of connection points: 2
#     Edge 63, Type (0, 0), BuildingBlock: UVAHIK_clean_linker_0, # of connection points: 2
# Relax obj value: 0.364
# Max RMSD: 0.287
# Mean RMSD: 0.241
data_MOF--net-bcs--node1-JUFBIX_clean_sbu_0--edge1-UVAHIK_clean_linker_0
_symmetry_space_group_name_H-M    P1
_symmetry_Int_Tables_number       1
_symmetry_cell_setting            triclinic
loop_
_symmetry_equiv_pos_as_xyz
'x, y, z'
_cell_length_a     45.266292
_cell_length_b     47.351449
_cell_length_c     46.436212
_cell_angle_alpha  97.416729
_cell_angle_beta   96.679515
_cell_angle_gamma 90.145378
loop_
_atom_site_label
_atom_site_type_symbol
_atom_site_fract_x
_atom_site_fract_y
_atom_site_fract_z
_atom_type_partial_charge
Co0 Co 0.97851 0.98084 0.99374 0.0
C1 C 0.97158 0.02931 0.03598 0.0
Co2 Co 0.01405 0.01369 0.99716 0.0
C3 C 0.94174 0.94197 0.01771 0.0
C4 C 0.93105 0.93925 0.97135 0.0
N5 N 0.94901 0.95308 0.99394 0.0
N6 N 0.92005 0.9216 0.011 0.0
C7 C 0.91329 0.91999 0.9817 0.0
H8 H 0.95269 0.94847 0.03953 0.0
H9 H 0.93097 0.94282 0.9488 0.0
C10 C 0.02119 0.96539 0.95497 0.0
N11 N 0.04391 0.04118 0.99669 0.0
C12 C 0.05014 0.05319 0.97305 0.0
C13 C 0.0652 0.05165 0.01821 0.0
N14 N 0.07444 0.07056 0.97886 0.0
C15 C 0.08405 0.06955 0.00729 0.0
C16 C 0.02994 0.97082 0.03397 0.0
O17 O 0.99661 0.95703 0.96248 0.0
O18 O 0.03168 0.9897 0.96682 0.0
O19 O 0.03933 0.99428 0.02687 0.0
O20 O 1.00399 0.96203 0.02256 0.0
O21 O 0.99586 0.03773 0.02789 0.0
H22 H 0.06729 0.04617 0.04026 0.0
H23 H 0.03774 0.04845 0.95157 0.0
O24 O 0.96115 0.00477 0.02465 0.0
O25 O 0.95298 1.00029 0.96464 0.0
O26 O 0.98853 0.03223 0.96781 0.0
C27 C 0.96232 0.0235 0.95703 0.0
H28 H 0.89656 0.90605 0.96849 0.0
H29 H 0.10337 0.08089 0.01932 0.0
Co30 Co 0.26129 0.74556 0.23134 0.0
C31 C 0.26706 0.78749 0.27973 0.0
Co32 Co 0.226 0.74434 0.26005 0.0
C33 C 0.29877 0.77261 0.19729 0.0
C34 C 0.30786 0.72813 0.19523 0.0
N35 N 0.29071 0.74855 0.20729 0.0
N36 N 0.32013 0.76816 0.17929 0.0
C37 C 0.32603 0.74014 0.17804 0.0
H38 H 0.28913 0.79311 0.20328 0.0
H39 H 0.3069 0.70593 0.1984 0.0
C40 C 0.22064 0.7021 0.2118 0.0
N41 N 0.19641 0.7419 0.28416 0.0
C42 C 0.18754 0.71873 0.2953 0.0
C43 C 0.1794 0.76317 0.2948 0.0
N44 N 0.16563 0.72466 0.31251 0.0
C45 C 0.16046 0.75266 0.31216 0.0
C46 C 0.21057 0.77957 0.21512 0.0
O47 O 0.24406 0.71384 0.20587 0.0
O48 O 0.20901 0.71216 0.23453 0.0
O49 O 0.20108 0.77002 0.23698 0.0
O50 O 0.23629 0.77157 0.2089 0.0
O51 O 0.24312 0.77646 0.28535 0.0
H52 H 0.18091 0.785 0.29045 0.0
H53 H 0.1969 0.69785 0.29066 0.0
O54 O 0.2786 0.77711 0.25711 0.0
O55 O 0.28592 0.71945 0.25385 0.0
O56 O 0.25138 0.71887 0.28297 0.0
C57 C 0.27687 0.71051 0.27623 0.0
H58 H 0.3418 0.72894 0.16511 0.0
H59 H 0.14458 0.76489 0.3241 0.0
Co60 Co 0.51854 0.98185 0.50133 0.0
C61 C 0.5699 0.01458 0.5027 0.0
Co62 Co 0.51498 0.01253 0.46956 0.0
C63 C 0.54627 0.94079 0.5344 0.0
C64 C 0.50304 0.95064 0.54687 0.0
N65 N 0.52205 0.9562 0.52793 0.0
N66 N 0.54349 0.92613 0.55695 0.0
C67 C 0.51629 0.93221 0.56492 0.0
H68 H 0.5663 0.94166 0.52386 0.0
H69 H 0.48151 0.96024 0.54821 0.0
C70 C 0.46365 0.97982 0.46828 0.0
N71 N 0.51185 0.0382 0.44305 0.0
C72 C 0.51859 0.06619 0.44895 0.0
C73 C 0.50084 0.03401 0.4146 0.0
N74 N 0.51163 0.08 0.42551 0.0
C75 C 0.5006 0.05971 0.40375 0.0
C76 C 0.53331 0.95993 0.44704 0.0
O77 O 0.47886 0.96945 0.48902 0.0
O78 O 0.47507 0.99954 0.45674 0.0
O79 O 0.52837 0.98511 0.44145 0.0
O80 O 0.53112 0.95388 0.47256 0.0
O81 O 0.55469 0.02537 0.48228 0.0
H82 H 0.49237 0.01384 0.40289 0.0
H83 H 0.52753 0.07631 0.47042 0.0
O84 O 0.55846 0.99458 0.51373 0.0
O85 O 0.50573 0.00962 0.52984 0.0
O86 O 0.50128 0.04008 0.49798 0.0
C87 C 0.49941 0.03439 0.52366 0.0
H88 H 0.50702 0.92458 0.58301 0.0
H89 H 0.4912 0.06334 0.38205 0.0
Co90 Co 0.22851 0.26423 0.74456 0.0
C91 C 0.28119 0.26392 0.78144 0.0
Co92 Co 0.25498 0.22622 0.73554 0.0
C93 C 0.17681 0.29675 0.75217 0.0
C94 C 0.21571 0.3236 0.7581 0.0
N95 N 0.20647 0.29621 0.75182 0.0
N96 N 0.16693 0.32337 0.7588 0.0
C97 C 0.19144 0.34037 0.7625 0.0
H98 H 0.1629 0.27773 0.748 0.0
H99 H 0.23864 0.33078 0.75997 0.0
C100 C 0.20244 0.22612 0.69863 0.0
N101 N 0.27659 0.19391 0.72798 0.0
C102 C 0.30423 0.1922 0.71996 0.0
C103 C 0.26713 0.16669 0.72663 0.0
N104 N 0.31222 0.16501 0.7131 0.0
C105 C 0.28899 0.14884 0.71737 0.0
C106 C 0.21493 0.22043 0.77613 0.0
O107 O 0.19986 0.25068 0.71254 0.0
O108 O 0.22487 0.21139 0.70567 0.0
O109 O 0.23601 0.20848 0.76363 0.0
O110 O 0.20717 0.2451 0.77041 0.0
O111 O 0.28502 0.24083 0.76526 0.0
H112 H 0.24523 0.16026 0.73078 0.0
H113 H 0.31749 0.21056 0.71736 0.0
O114 O 0.2574 0.27765 0.77662 0.0
O115 O 0.24962 0.28323 0.71898 0.0
O116 O 0.27406 0.24446 0.70742 0.0
C117 C 0.26865 0.27032 0.70425 0.0
H118 H 0.19213 0.36313 0.76923 0.0
H119 H 0.28742 0.12585 0.71292 0.0
Co120 Co 0.00866 0.99848 0.47057 0.0
C121 C 0.00608 0.05233 0.50204 0.0
Co122 Co 0.97912 1.00085 0.50545 0.0
C123 C 0.04354 0.01704 0.42785 0.0
C124 C 0.05223 0.97397 0.43505 0.0
N125 N 0.03484 0.99621 0.44247 0.0
N126 N 0.06594 0.00884 0.41197 0.0
C127 C 0.07135 0.98167 0.41635 0.0
H128 H 0.0348 0.03837 0.43016 0.0
H129 H 0.05197 0.95385 0.44372 0.0
C130 C 0.98101 0.94712 0.47446 0.0
N131 N 0.95324 1.00268 0.53366 0.0
C132 C 0.95919 0.01054 0.56276 0.0
C133 C 0.92454 0.99389 0.52954 0.0
N134 N 0.93543 0.00668 0.57705 0.0
C135 C 0.91356 0.99635 0.55606 0.0
C136 C 0.95106 0.00968 0.45107 0.0
O137 O 0.99882 0.95907 0.46036 0.0
O138 O 0.97047 0.96157 0.49575 0.0
O139 O 0.94782 0.00837 0.47762 0.0
O140 O 0.97682 0.00709 0.44276 0.0
O141 O 0.98756 0.04007 0.51507 0.0
H142 H 0.91275 0.98493 0.50876 0.0
H143 H 0.98086 0.01804 0.57332 0.0
O144 O 0.01803 0.03802 0.48148 0.0
O145 O 0.04021 0.9898 0.49835 0.0
O146 O 0.01096 0.99318 0.53304 0.0
C147 C 0.0366 0.98918 0.52497 0.0
H148 H 0.08849 0.96855 0.4074 0.0
H149 H 0.89173 0.98922 0.55971 0.0
Co150 Co 0.25462 0.74101 0.76211 0.0
C151 C 0.29019 0.787 0.75924 0.0
Co152 Co 0.24041 0.76259 0.72412 0.0
C153 C 0.26914 0.69285 0.79005 0.0
C154 C 0.2732 0.73031 0.82149 0.0
N155 N 0.26569 0.72121 0.79284 0.0
N156 N 0.27903 0.6837 0.81559 0.0
C157 C 0.28148 0.70715 0.83561 0.0
H158 H 0.26495 0.67916 0.76941 0.0
H159 H 0.27348 0.75235 0.83122 0.0
C160 C 0.20454 0.71698 0.72729 0.0
N161 N 0.22943 0.78202 0.69308 0.0
C162 C 0.22648 0.8104 0.69444 0.0
C163 C 0.22322 0.77181 0.66455 0.0
N164 N 0.21855 0.81847 0.66792 0.0
C165 C 0.21648 0.79425 0.64897 0.0
C166 C 0.2819 0.71935 0.71146 0.0
O167 O 0.22239 0.71514 0.75008 0.0
O168 O 0.20848 0.73653 0.71179 0.0
O169 O 0.26634 0.73856 0.7004 0.0
O170 O 0.28005 0.71677 0.73817 0.0
O171 O 0.27219 0.78892 0.73656 0.0
H172 H 0.22334 0.74952 0.65575 0.0
H173 H 0.23022 0.82486 0.7146 0.0
O174 O 0.28684 0.76688 0.77424 0.0
O175 O 0.22933 0.76526 0.78595 0.0
O176 O 0.21436 0.78647 0.74793 0.0
C177 C 0.21307 0.78399 0.77482 0.0
H178 H 0.28998 0.70772 0.85846 0.0
H179 H 0.20968 0.79273 0.62568 0.0
Co180 Co 0.4618 0.02367 0.00442 0.0
C181 C 0.50364 0.03437 0.0536 0.0
Co182 Co 0.50063 0.99569 0.00441 0.0
C183 C 0.41681 0.0556 0.03085 0.0
C184 C 0.4168 0.06344 0.98653 0.0
N185 N 0.42973 0.04761 0.00645 0.0
N186 N 0.39682 0.07636 0.02746 0.0
C187 C 0.39654 0.08117 0.9994 0.0
H188 H 0.42291 0.04692 0.0511 0.0
H189 H 0.4228 0.06314 0.96461 0.0
C190 C 0.45905 0.9847 0.95523 0.0
N191 N 0.53281 0.97188 0.0032 0.0
C192 C 0.56144 0.97933 1.00237 0.0
C193 C 0.53248 0.94319 1.00048 0.0
N194 N 0.57895 0.95645 0.99869 0.0
C195 C 0.56079 0.93365 0.99773 0.0
C196 C 0.45466 0.97433 0.03007 0.0
O197 O 0.44526 0.00549 0.96735 0.0
O198 O 0.48338 0.97684 0.96808 0.0
O199 O 0.48101 0.96998 0.02402 0.0
O200 O 0.44158 0.99664 0.02311 0.0
O201 O 0.51776 0.01444 0.04063 0.0
H202 H 0.5127 0.92999 0.99911 0.0
H203 H 0.56911 1.00112 0.00334 0.0
O204 O 0.47879 0.04169 0.04146 0.0
O205 O 0.48225 0.05048 0.9857 0.0
O206 O 0.52002 0.02175 0.98465 0.0
C207 C 0.50812 0.04484 0.97861 0.0
H208 H 0.38394 0.09742 0.9893 0.0
H209 H 0.56704 0.91161 0.99323 0.0
Co210 Co 0.28472 0.29232 0.31194 0.0
C211 C 0.29246 0.34554 0.3463 0.0
Co212 Co 0.31811 0.32087 0.29922 0.0
C213 C 0.24958 0.24319 0.32162 0.0
C214 C 0.22808 0.28315 0.32991 0.0
N215 N 0.25363 0.27155 0.32211 0.0
N216 N 0.22235 0.23677 0.32857 0.0
C217 C 0.20894 0.26194 0.33394 0.0
H218 H 0.26587 0.22756 0.3154 0.0
H219 H 0.22339 0.30566 0.33195 0.0
C220 C 0.31067 0.26747 0.2649 0.0
N221 N 0.34886 0.34202 0.2895 0.0
C222 C 0.34949 0.36966 0.28524 0.0
C223 C 0.37667 0.3328 0.28672 0.0
N224 N 0.37673 0.37808 0.28019 0.0
C225 C 0.39385 0.3549 0.28105 0.0
C226 C 0.33884 0.28574 0.34133 0.0
O227 O 0.29095 0.26323 0.28132 0.0
O228 O 0.32541 0.29085 0.26956 0.0
O229 O 0.34527 0.30527 0.32669 0.0
O230 O 0.31247 0.27558 0.33792 0.0
O231 O 0.31063 0.35075 0.32873 0.0
H232 H 0.38401 0.31135 0.28877 0.0
H233 H 0.33044 0.38339 0.28618 0.0
O234 O 0.27906 0.32154 0.34257 0.0
O235 O 0.25714 0.30912 0.28572 0.0
O236 O 0.29065 0.33626 0.27179 0.0
C237 C 0.26392 0.32727 0.2696 0.0
H238 H 0.18681 0.26489 0.34036 0.0
H239 H 0.41695 0.35381 0.27713 0.0
Co240 Co 0.51979 0.48604 0.96364 0.0
C241 C 0.52367 0.54151 0.99261 0.0
Co242 Co 0.48924 0.49497 0.99726 0.0
C243 C 0.55186 0.49772 0.91713 0.0
C244 C 0.56412 0.45749 0.93077 0.0
N245 N 0.54593 0.47962 0.9359 0.0
N246 N 0.57319 0.48804 0.90056 0.0
C247 C 0.58104 0.46267 0.90909 0.0
H248 H 0.5415 0.51824 0.91655 0.0
H249 H 0.56545 0.43913 0.94249 0.0
C250 C 0.48544 0.43946 0.96869 0.0
N251 N 0.46269 0.50156 0.02462 0.0
C252 C 0.46822 0.51173 0.05326 0.0
C253 C 0.43334 0.49531 0.02019 0.0
N254 N 0.4435 0.51176 0.06707 0.0
C255 C 0.42152 0.5015 0.04612 0.0
C256 C 0.46483 0.50402 0.942 0.0
O257 O 0.50582 0.44786 0.95498 0.0
O258 O 0.47544 0.45666 0.98843 0.0
O259 O 0.46027 0.50532 0.96854 0.0
O260 O 0.49009 0.49647 0.9347 0.0
O261 O 0.503 0.5331 0.00591 0.0
H262 H 0.4215 0.48577 0.99964 0.0
H263 H 0.49019 0.51817 0.06382 0.0
O264 O 0.53381 0.52442 0.97287 0.0
O265 O 0.54914 0.47572 0.99251 0.0
O266 O 0.51878 0.48463 0.02599 0.0
C267 C 0.54423 0.47728 0.01904 0.0
H268 H 0.59802 0.44903 0.90058 0.0
H269 H 0.3988 0.49707 0.04947 0.0
Co270 Co 0.75348 0.23877 0.26392 0.0
C271 C 0.79388 0.28188 0.2652 0.0
Co272 Co 0.74407 0.26282 0.22687 0.0
C273 C 0.76251 0.18909 0.29173 0.0
C274 C 0.76077 0.22605 0.3233 0.0
N275 N 0.75985 0.21757 0.29433 0.0
N276 N 0.76495 0.17941 0.31782 0.0
C277 C 0.76385 0.20248 0.33787 0.0
H278 H 0.76234 0.17557 0.27104 0.0
H279 H 0.75925 0.24789 0.33318 0.0
C280 C 0.70357 0.21981 0.22587 0.0
N281 N 0.73742 0.28388 0.19642 0.0
C282 C 0.73599 0.31244 0.19858 0.0
C283 C 0.73289 0.27465 0.16755 0.0
N284 N 0.73049 0.32156 0.17221 0.0
C285 C 0.72857 0.29781 0.15257 0.0
C286 C 0.78268 0.21676 0.21477 0.0
O287 O 0.71973 0.21581 0.2491 0.0
O288 O 0.71055 0.23951 0.21167 0.0
O289 O 0.76947 0.2375 0.20413 0.0
O290 O 0.77869 0.21312 0.2408 0.0
O291 O 0.77765 0.28616 0.24206 0.0
H292 H 0.73216 0.25251 0.1581 0.0
H293 H 0.73868 0.32625 0.21921 0.0
O294 O 0.78715 0.26175 0.27896 0.0
O295 O 0.72852 0.26436 0.28671 0.0
O296 O 0.71831 0.28821 0.24975 0.0
C297 C 0.71472 0.28471 0.27593 0.0
H298 H 0.766 0.20234 0.36132 0.0
H299 H 0.72311 0.2971 0.12917 0.0
Co300 Co 0.97363 0.51532 0.49971 0.0
C301 C 0.01287 0.52794 0.55024 0.0
Co302 Co 0.01316 0.48832 0.50174 0.0
C303 C 0.92621 0.5462 0.52283 0.0
C304 C 0.92602 0.5504 0.47752 0.0
N305 N 0.94034 0.53768 0.49935 0.0
N306 N 0.90382 0.56403 0.51687 0.0
C307 C 0.90357 0.56676 0.48828 0.0
H308 H 0.93326 0.54042 0.54434 0.0
H309 H 0.93204 0.54853 0.45549 0.0
C310 C 0.97421 0.47551 0.45122 0.0
N311 N 0.04652 0.46608 0.50266 0.0
C312 C 0.0751 0.47521 0.50589 0.0
C313 C 0.04773 0.43744 0.49855 0.0
N314 N 0.09419 0.45344 0.50358 0.0
C315 C 0.07701 0.4296 0.4991 0.0
C316 C 0.96665 0.46621 0.52597 0.0
O317 O 0.95888 0.49522 0.46307 0.0
O318 O 0.99884 0.46904 0.4646 0.0
O319 O 0.99307 0.46158 0.52013 0.0
O320 O 0.95392 0.48863 0.5189 0.0
O321 O 0.0274 0.50746 0.5388 0.0
H322 H 0.02854 0.42322 0.49435 0.0
H323 H 0.08169 0.49748 0.5092 0.0
O324 O 0.98892 0.53539 0.53647 0.0
O325 O 0.99334 0.54181 0.48052 0.0
O326 O 0.03296 0.51541 0.48321 0.0
C327 C 0.02004 0.53744 0.47537 0.0
H328 H 0.88869 0.58003 0.47615 0.0
H329 H 0.08485 0.40806 0.49486 0.0
Co330 Co 0.73995 0.75323 0.24495 0.0
C331 C 0.79043 0.7578 0.28438 0.0
Co332 Co 0.76904 0.71665 0.23849 0.0
C333 C 0.68552 0.78177 0.24817 0.0
C334 C 0.72171 0.81174 0.25222 0.0
N335 N 0.71519 0.78365 0.24839 0.0
N336 N 0.67304 0.80753 0.25224 0.0
C337 C 0.69578 0.82652 0.2547 0.0
H338 H 0.67345 0.76169 0.24571 0.0
H339 H 0.74391 0.82079 0.25396 0.0
C340 C 0.71879 0.71217 0.19881 0.0
N341 N 0.79329 0.68571 0.23534 0.0
C342 C 0.82314 0.68558 0.2362 0.0
C343 C 0.78513 0.65829 0.23537 0.0
N344 N 0.83393 0.65922 0.23728 0.0
C345 C 0.81014 0.64194 0.23663 0.0
C346 C 0.72649 0.71056 0.27725 0.0
O347 O 0.71373 0.73612 0.21279 0.0
O348 O 0.74227 0.69913 0.20655 0.0
O349 O 0.74818 0.69882 0.2656 0.0
O350 O 0.71865 0.73497 0.27102 0.0
O351 O 0.79576 0.73411 0.27001 0.0
H352 H 0.7625 0.65078 0.23505 0.0
H353 H 0.83675 0.70452 0.23675 0.0
O354 O 0.76642 0.77041 0.27736 0.0
O355 O 0.76105 0.77147 0.21895 0.0
O356 O 0.78991 0.73484 0.21157 0.0
C357 C 0.78225 0.75976 0.20641 0.0
H358 H 0.69412 0.8494 0.25959 0.0
H359 H 0.81079 0.61907 0.23653 0.0
Co360 Co 0.7626 0.25461 0.73964 0.0
C361 C 0.75043 0.28641 0.79194 0.0
Co362 Co 0.72264 0.24051 0.75757 0.0
C363 C 0.80096 0.27911 0.70271 0.0
C364 C 0.82485 0.26788 0.74201 0.0
N365 N 0.79739 0.26719 0.72707 0.0
N366 N 0.82952 0.2871 0.70191 0.0
C367 C 0.84459 0.27992 0.72659 0.0
H368 H 0.78293 0.28215 0.686 0.0
H369 H 0.83015 0.2609 0.76325 0.0
C370 C 0.73501 0.20857 0.70538 0.0
N371 N 0.68764 0.22781 0.76983 0.0
C372 C 0.68298 0.21629 0.7942 0.0
C373 C 0.66091 0.22599 0.75343 0.0
N374 N 0.65445 0.2072 0.7934 0.0
C375 C 0.64059 0.21354 0.76781 0.0
C376 C 0.71097 0.28289 0.71768 0.0
O377 O 0.75703 0.22565 0.70701 0.0
O378 O 0.71757 0.21161 0.72507 0.0
O379 O 0.69926 0.2674 0.73415 0.0
O380 O 0.73899 0.28089 0.71681 0.0
O381 O 0.72831 0.2694 0.79031 0.0
H382 H 0.65656 0.23246 0.73187 0.0
H383 H 0.70042 0.2136 0.81161 0.0
O384 O 0.76774 0.28349 0.77211 0.0
O385 O 0.78595 0.22789 0.76297 0.0
O386 O 0.74634 0.21411 0.78041 0.0
C387 C 0.7744 0.21226 0.7794 0.0
H388 H 0.86801 0.28413 0.7336 0.0
H389 H 0.61741 0.2092 0.75977 0.0
Co390 Co 0.76495 0.7734 0.78862 0.0
C391 C 0.76466 0.8272 0.82026 0.0
Co392 Co 0.80528 0.79934 0.78771 0.0
C393 C 0.7279 0.72531 0.79405 0.0
C394 C 0.70237 0.76093 0.78234 0.0
N395 N 0.73049 0.7525 0.78877 0.0
N396 N 0.69921 0.71626 0.79108 0.0
C397 C 0.68314 0.73876 0.78366 0.0
H398 H 0.74687 0.71258 0.80006 0.0
H399 H 0.69626 0.78177 0.77668 0.0
C400 C 0.80515 0.74566 0.75533 0.0
N401 N 0.83963 0.82025 0.78739 0.0
C402 C 0.84174 0.84757 0.78247 0.0
C403 C 0.86791 0.8114 0.79113 0.0
N404 N 0.87024 0.85621 0.78267 0.0
C405 C 0.88677 0.83341 0.7882 0.0
C406 C 0.80831 0.76697 0.83363 0.0
O407 O 0.78033 0.74285 0.76496 0.0
O408 O 0.82007 0.76874 0.76293 0.0
O409 O 0.82262 0.78408 0.82123 0.0
O410 O 0.78211 0.75907 0.82273 0.0
O411 O 0.79032 0.82961 0.81227 0.0
H412 H 0.87434 0.79011 0.79506 0.0
H413 H 0.82253 0.86066 0.77848 0.0
O414 O 0.74957 0.80432 0.81204 0.0
O415 O 0.74818 0.7877 0.7547 0.0
O416 O 0.78741 0.81472 0.75404 0.0
C417 C 0.76161 0.8058 0.74282 0.0
H418 H 0.65919 0.73924 0.77902 0.0
H419 H 0.9107 0.83221 0.78888 0.0
Co420 Co 0.47827 0.4811 0.49306 0.0
C421 C 0.471 0.5299 0.53503 0.0
Co422 Co 0.5139 0.51391 0.49701 0.0
C423 C 0.43879 0.44425 0.5166 0.0
C424 C 0.43258 0.43803 0.46984 0.0
N425 N 0.44837 0.45361 0.49284 0.0
N426 N 0.41769 0.42334 0.50949 0.0
C427 C 0.41379 0.4195 0.47993 0.0
H428 H 0.44731 0.45276 0.53875 0.0
H429 H 0.4349 0.43972 0.4472 0.0
C430 C 0.52142 0.46548 0.45496 0.0
N431 N 0.54413 0.54106 0.49699 0.0
C432 C 0.55139 0.55242 0.47334 0.0
C433 C 0.56512 0.55138 0.51886 0.0
N434 N 0.57612 0.56919 0.47947 0.0
C435 C 0.58487 0.56853 0.50813 0.0
C436 C 0.529 0.47106 0.53407 0.0
O437 O 0.49701 0.45685 0.46258 0.0
O438 O 0.5315 0.49 0.46654 0.0
O439 O 0.53878 0.4941 0.52646 0.0
O440 O 0.50287 0.4625 0.52289 0.0
O441 O 0.49583 0.53789 0.52775 0.0
H442 H 0.56647 0.54618 0.54097 0.0
H443 H 0.53949 0.54749 0.45164 0.0
O444 O 0.46025 0.50562 0.52322 0.0
O445 O 0.45369 0.50024 0.46293 0.0
O446 O 0.48871 0.53298 0.46801 0.0
C447 C 0.46293 0.5239 0.45622 0.0
H448 H 0.39892 0.40398 0.46635 0.0
H449 H 0.60428 0.5795 0.52042 0.0
Co450 Co 0.99572 0.45761 0.01909 0.0
C451 C 0.04529 0.49301 0.02256 0.0
Co452 Co 0.98717 0.49537 0.99661 0.0
C453 C 0.02869 0.41202 0.04024 0.0
C454 C 0.98594 0.41471 0.05564 0.0
N455 N 1.00275 0.4258 0.03764 0.0
N456 N 0.02947 0.39356 0.06014 0.0
C457 C 1.00232 0.39492 0.06956 0.0
H458 H 0.0473 0.41693 0.02901 0.0
H459 H 0.96414 0.42214 0.06008 0.0
C460 C 0.93741 0.46082 0.99338 0.0
N461 N 0.98127 0.52748 0.97846 0.0
C462 C 0.96117 0.54806 0.98289 0.0
C463 C 0.99955 0.53743 0.96095 0.0
N464 N 0.96665 0.57066 0.96931 0.0
C465 C 0.99066 0.56407 0.95538 0.0
C466 C 1.00352 0.44894 0.96052 0.0
O467 O 0.95521 0.44608 0.00836 0.0
O468 O 0.94674 0.48396 0.98612 0.0
O469 O 0.99646 0.4749 0.9614 0.0
O470 O 0.00522 0.43715 0.98371 0.0
O471 O 0.02725 0.50675 0.00696 0.0
H472 H 0.01887 0.5265 0.95375 0.0
H473 H 0.94384 0.54715 0.99699 0.0
O474 O 0.03644 0.46991 0.03014 0.0
O475 O 0.9863 0.47792 0.05426 0.0
O476 O 0.97812 0.51585 0.03226 0.0
C477 C 0.97988 0.50405 0.05544 0.0
H478 H 0.99556 0.38435 0.08711 0.0
H479 H 1.00122 0.57774 0.94246 0.0
C480 C 0.1711 0.21296 0.80356 0.0
C481 C 0.19994 0.20572 0.79716 0.0
C482 C 0.1569 0.19843 0.82284 0.0
C483 C 0.16363 0.13253 0.86139 0.0
H484 H 0.10433 0.1702 0.90591 0.0
C485 C 0.11908 0.08845 0.96001 0.0
C486 C 0.08795 0.08595 0.9586 0.0
C487 C 0.13221 0.10292 0.94007 0.0
C488 C 0.12077 0.15937 0.89351 0.0
H489 H 0.23677 0.17802 0.80677 0.0
H490 H 0.21309 0.15398 0.84135 0.0
H491 H 0.12854 0.19595 0.87262 0.0
H492 H 0.04625 0.09722 0.93545 0.0
H493 H 0.06921 0.12339 0.90116 0.0
H494 H 0.15656 0.09641 0.88355 0.0
C495 C 0.20056 0.16991 0.83069 0.0
C496 C 0.13461 0.17406 0.87415 0.0
C497 C 0.21441 0.18396 0.81093 0.0
C498 C 0.07027 0.09865 0.93699 0.0
C499 C 0.08341 0.11375 0.91748 0.0
C500 C 0.15028 0.11813 0.88124 0.0
C501 C 0.17138 0.17662 0.83685 0.0
C502 C 0.15633 0.16092 0.85764 0.0
C503 C 0.11455 0.11588 0.91865 0.0
C504 C 0.12864 0.13132 0.89749 0.0
H505 H 0.15921 0.22949 0.79318 0.0
H506 H 0.13434 0.20412 0.82629 0.0
H507 H 0.17947 0.12107 0.84876 0.0
H508 H 0.13328 0.07874 0.97625 0.0
H509 H 0.15624 0.10427 0.94158 0.0
C510 C 0.03783 0.92655 0.06035 0.0
C511 C 0.0489 0.95277 0.05405 0.0
C512 C 0.05518 0.90884 0.07787 0.0
C513 C 0.13498 0.89621 0.11127 0.0
H514 H 0.09544 0.84493 0.15355 0.0
C515 C 0.20247 0.80976 0.17257 0.0
C516 C 0.19214 0.79978 0.19711 0.0
C517 C 0.18552 0.82847 0.15579 0.0
C518 C 0.10728 0.85915 0.14227 0.0
H519 H 0.08808 0.98023 0.06228 0.0
H520 H 0.11802 0.94994 0.09301 0.0
H521 H 0.06631 0.87696 0.12519 0.0
H522 H 0.15499 0.80277 0.22271 0.0
H523 H 0.12596 0.83526 0.19424 0.0
H524 H 0.17603 0.87888 0.12904 0.0
C525 C 0.09578 0.94266 0.08401 0.0
C526 C 0.09021 0.87759 0.1253 0.0
C527 C 0.07834 0.96043 0.06637 0.0
C528 C 0.16402 0.80955 0.20407 0.0
C529 C 0.14707 0.82831 0.18733 0.0
C530 C 0.15208 0.87776 0.12829 0.0
C531 C 0.08471 0.91627 0.09025 0.0
C532 C 0.10349 0.89663 0.10916 0.0
C533 C 0.15728 0.83833 0.16264 0.0
C534 C 0.13875 0.8586 0.14427 0.0
H535 H 0.01552 0.91936 0.05139 0.0
H536 H 0.04533 0.88883 0.08113 0.0
H537 H 0.14672 0.90993 0.09935 0.0
H538 H 0.22384 0.80299 0.1661 0.0
H539 H 0.19462 0.8348 0.13702 0.0
C540 C 0.41971 0.97473 0.42958 0.0
C541 C 0.43493 0.96618 0.45511 0.0
C542 C 0.39603 0.9582 0.41391 0.0
C543 C 0.37533 0.88378 0.39811 0.0
H544 H 0.30149 0.90876 0.35885 0.0
C545 C 0.31225 0.81779 0.29783 0.0
C546 C 0.28242 0.81102 0.30002 0.0
C547 C 0.32775 0.83842 0.31818 0.0
C548 C 0.32196 0.90157 0.36987 0.0
H549 H 0.43556 0.93493 0.48553 0.0
H550 H 0.39448 0.90612 0.45805 0.0
H551 H 0.33291 0.94286 0.39395 0.0
H552 H 0.24507 0.82141 0.32456 0.0
H553 H 0.27228 0.85818 0.35995 0.0
H554 H 0.3651 0.84287 0.37343 0.0
C555 C 0.40105 0.92543 0.45006 0.0
C556 C 0.33991 0.92101 0.38979 0.0
C557 C 0.42453 0.94201 0.46581 0.0
C558 C 0.26808 0.8261 0.32241 0.0
C559 C 0.28354 0.84716 0.34255 0.0
C560 C 0.35773 0.86458 0.37794 0.0
C561 C 0.38732 0.93279 0.42343 0.0
C562 C 0.36683 0.91226 0.40398 0.0
C563 C 0.31366 0.85305 0.34088 0.0
C564 C 0.33106 0.87334 0.36344 0.0
H565 H 0.42712 0.99329 0.4208 0.0
H566 H 0.38586 0.9643 0.39339 0.0
H567 H 0.39614 0.87653 0.40842 0.0
H568 H 0.32395 0.80659 0.28085 0.0
H569 H 0.35092 0.84279 0.31635 0.0
C570 C 0.334 0.13303 0.67561 0.0
C571 C 0.33725 0.15592 0.69821 0.0
C572 C 0.35693 0.12637 0.65854 0.0
C573 C 0.43563 0.12888 0.65601 0.0
H574 H 0.41236 0.11899 0.57217 0.0
C575 C 0.48052 0.08295 0.53872 0.0
C576 C 0.48952 0.05611 0.54596 0.0
C577 C 0.46857 0.10248 0.55919 0.0
C578 C 0.41951 0.12229 0.59546 0.0
H579 H 0.36735 0.18896 0.72166 0.0
H580 H 0.40807 0.17679 0.69186 0.0
H581 H 0.37734 0.13883 0.60499 0.0
H582 H 0.49513 0.02944 0.58081 0.0
H583 H 0.47384 0.06329 0.61627 0.0
H584 H 0.47736 0.11092 0.64645 0.0
C585 C 0.38753 0.16439 0.6873 0.0
C586 C 0.39936 0.13335 0.6142 0.0
C587 C 0.36434 0.17132 0.70421 0.0
C588 C 0.48807 0.04984 0.5745 0.0
C589 C 0.47623 0.06938 0.59495 0.0
C590 C 0.45581 0.11755 0.63721 0.0
C591 C 0.38362 0.1423 0.66393 0.0
C592 C 0.40688 0.1357 0.64458 0.0
C593 C 0.46556 0.09553 0.58722 0.0
C594 C 0.44748 0.11322 0.60681 0.0
H595 H 0.31328 0.12103 0.67027 0.0
H596 H 0.35366 0.10895 0.64083 0.0
H597 H 0.44183 0.13063 0.67943 0.0
H598 H 0.48176 0.08853 0.51699 0.0
H599 H 0.4607 0.12261 0.55279 0.0
C600 C 0.05981 0.9892 0.57642 0.0
C601 C 0.06197 0.9839 0.54628 0.0
C602 C 0.08328 0.9826 0.59654 0.0
C603 C 0.16176 0.95739 0.60304 0.0
H604 H 0.13292 0.91249 0.65844 0.0
C605 C 0.21313 0.85439 0.63378 0.0
C606 C 0.21101 0.84668 0.66165 0.0
C607 C 0.20221 0.88039 0.62655 0.0
C608 C 0.14159 0.92556 0.64374 0.0
H609 H 0.09078 0.96893 0.51354 0.0
H610 H 0.13111 0.95621 0.54841 0.0
H611 H 0.09884 0.94241 0.63266 0.0
H612 H 0.19759 0.861 0.70447 0.0
H613 H 0.17862 0.90639 0.69182 0.0
H614 H 0.20411 0.93844 0.61269 0.0
C615 C 0.11175 0.96616 0.55672 0.0
C616 C 0.12199 0.94282 0.62891 0.0
C617 C 0.08846 0.9731 0.53665 0.0
C618 C 0.19962 0.8663 0.6828 0.0
C619 C 0.18865 0.89226 0.67557 0.0
C620 C 0.18135 0.93986 0.61773 0.0
C621 C 0.10916 0.9702 0.58686 0.0
C622 C 0.13152 0.95789 0.6074 0.0
C623 C 0.1889 0.8991 0.64708 0.0
C624 C 0.17105 0.92287 0.63724 0.0
H625 H 0.03982 0.99804 0.58446 0.0
H626 H 0.08079 0.98642 0.61962 0.0
H627 H 0.16993 0.96931 0.58711 0.0
H628 H 0.22231 0.83992 0.61724 0.0
H629 H 0.20246 0.88498 0.60432 0.0
C630 C 0.31061 0.83591 0.75919 0.0
C631 C 0.31336 0.80909 0.76908 0.0
C632 C 0.33046 0.85806 0.77118 0.0
C633 C 0.35711 0.9008 0.82315 0.0
H634 H 0.44288 0.89513 0.83686 0.0
C635 C 0.45633 0.94146 0.9184 0.0
C636 C 0.44667 0.96908 0.92694 0.0
C637 C 0.44333 0.92564 0.89267 0.0
C638 C 0.41894 0.89703 0.83333 0.0
H639 H 0.34001 0.78378 0.79768 0.0
H640 H 0.37507 0.82249 0.81828 0.0
H641 H 0.41413 0.85884 0.80271 0.0
H642 H 0.41721 1.00258 0.91451 0.0
H643 H 0.39512 0.9753 0.86886 0.0
H644 H 0.36121 0.93736 0.85537 0.0
C645 C 0.35747 0.82632 0.8014 0.0
C646 C 0.40261 0.87639 0.81361 0.0
C647 C 0.33731 0.8043 0.78982 0.0
C648 C 0.42474 0.98114 0.9086 0.0
C649 C 0.41207 0.96547 0.88251 0.0
C650 C 0.37333 0.9211 0.84327 0.0
C651 C 0.35367 0.85354 0.79275 0.0
C652 C 0.37152 0.87774 0.80904 0.0
C653 C 0.42071 0.93726 0.87458 0.0
C654 C 0.40436 0.91893 0.84935 0.0
H655 H 0.29233 0.84018 0.7432 0.0
H656 H 0.32716 0.87895 0.76429 0.0
H657 H 0.33307 0.90207 0.82013 0.0
H658 H 0.47318 0.93159 0.93216 0.0
H659 H 0.4502 0.90384 0.88773 0.0
C660 C 0.39385 0.09312 0.07978 0.0
C661 C 0.38235 0.09259 0.0502 0.0
C662 C 0.38104 0.10994 0.10176 0.0
C663 C 0.34148 0.13723 0.14543 0.0
H664 H 0.32767 0.21614 0.13457 0.0
C665 C 0.30032 0.21973 0.23485 0.0
C666 C 0.31569 0.24608 0.23984 0.0
C667 C 0.3046 0.19997 0.21062 0.0
C668 C 0.33139 0.19414 0.1379 0.0
H669 H 0.34765 0.109 0.02088 0.0
H670 H 0.32555 0.13886 0.05945 0.0
H671 H 0.34144 0.1826 0.09404 0.0
H672 H 0.34759 0.27232 0.22332 0.0
H673 H 0.35513 0.23785 0.18131 0.0
H674 H 0.33246 0.14899 0.1896 0.0
C675 C 0.34462 0.12616 0.0654 0.0
C676 C 0.33894 0.17488 0.1146 0.0
C677 C 0.35734 0.1091 0.04332 0.0
C678 C 0.33539 0.25223 0.22014 0.0
C679 C 0.33952 0.23258 0.19589 0.0
C680 C 0.33378 0.15646 0.16869 0.0
C681 C 0.3565 0.12687 0.09484 0.0
C682 C 0.34473 0.14636 0.11832 0.0
C683 C 0.32416 0.20626 0.19082 0.0
C684 C 0.32932 0.18526 0.16536 0.0
H685 H 0.41342 0.08132 0.08614 0.0
H686 H 0.39109 0.11045 0.12417 0.0
H687 H 0.34552 0.1153 0.14884 0.0
H688 H 0.2849 0.21439 0.24958 0.0
H689 H 0.29234 0.17991 0.2072 0.0
C690 C 0.06994 0.04983 0.38461 0.0
C691 C 0.0831 0.02668 0.39698 0.0
C692 C 0.08707 0.06839 0.37198 0.0
C693 C 0.1632 0.09581 0.37697 0.0
H694 H 0.13398 0.12777 0.3065 0.0
C695 C 0.22728 0.18636 0.33732 0.0
C696 C 0.20947 0.20911 0.32963 0.0
C697 C 0.21417 0.16039 0.34089 0.0
C698 C 0.14244 0.11911 0.32626 0.0
H699 H 0.12454 0.00463 0.40538 0.0
H700 H 0.15442 0.03701 0.38327 0.0
H701 H 0.10609 0.08917 0.32165 0.0
H702 H 0.16414 0.22181 0.31781 0.0
H703 H 0.14138 0.17718 0.32468 0.0
H704 H 0.19886 0.12645 0.38233 0.0
C705 C 0.13083 0.04078 0.38339 0.0
C706 C 0.12646 0.097 0.3349 0.0
C707 C 0.11365 0.02209 0.3958 0.0
C708 C 0.17847 0.20493 0.32431 0.0
C709 C 0.16542 0.1791 0.32783 0.0
C710 C 0.17909 0.11805 0.36844 0.0
C711 C 0.11779 0.06431 0.37165 0.0
C712 C 0.13634 0.08554 0.36068 0.0
C713 C 0.18302 0.15665 0.33666 0.0
C714 C 0.16852 0.13043 0.34336 0.0
H715 H 0.04643 0.05375 0.38497 0.0
H716 H 0.07642 0.08648 0.36334 0.0
H717 H 0.17124 0.08759 0.3971 0.0
H718 H 0.25121 0.18896 0.34157 0.0
H719 H 0.22838 0.1434 0.3474 0.0
C720 C 0.8076 0.20196 0.16862 0.0
C721 C 0.80261 0.19738 0.19713 0.0
C722 C 0.82632 0.18412 0.15219 0.0
C723 C 0.86343 0.11213 0.14816 0.0
H724 H 0.90903 0.14345 0.09376 0.0
C725 C 0.92749 0.03853 0.06527 0.0
C726 C 0.95421 0.04834 0.05668 0.0
C727 C 0.91001 0.0565 0.08295 0.0
C728 C 0.89675 0.13416 0.10896 0.0
H729 H 0.8141 0.16973 0.23028 0.0
H730 H 0.84664 0.13898 0.20202 0.0
H731 H 0.87774 0.17444 0.12298 0.0
H732 H 0.9831 0.08551 0.06076 0.0
H733 H 0.95305 0.11663 0.09167 0.0
H734 H 0.88281 0.07195 0.13451 0.0
C735 C 0.8358 0.15623 0.19202 0.0
C736 C 0.87827 0.15207 0.12564 0.0
C737 C 0.81711 0.17413 0.20848 0.0
C738 C 0.96285 0.0769 0.0668 0.0
C739 C 0.94528 0.09495 0.08445 0.0
C740 C 0.88183 0.09421 0.13141 0.0
C741 C 0.84091 0.16081 0.16347 0.0
C742 C 0.8611 0.1415 0.14562 0.0
C743 C 0.91834 0.08522 0.09284 0.0
C744 C 0.89891 0.10475 0.11134 0.0
H745 H 0.79695 0.21945 0.15884 0.0
H746 H 0.82896 0.18847 0.13031 0.0
H747 H 0.85062 0.10268 0.16285 0.0
H748 H 0.9197 0.01685 0.05796 0.0
H749 H 0.88944 0.04788 0.08825 0.0
C750 C 0.06494 0.5519 0.45336 0.0
C751 C 0.03569 0.55726 0.45973 0.0
C752 C 0.07942 0.57005 0.4378 0.0
C753 C 0.0775 0.64288 0.41666 0.0
H754 H 0.12411 0.61016 0.35608 0.0
C755 C 0.12232 0.7108 0.33596 0.0
C756 C 0.15119 0.70543 0.32847 0.0
C757 C 0.10853 0.6926 0.35198 0.0
C758 C 0.11149 0.61969 0.37315 0.0
H759 H 0.99883 0.58611 0.45489 0.0
H760 H 0.02402 0.61769 0.42765 0.0
H761 H 0.09976 0.57897 0.38434 0.0
H762 H 0.1882 0.67662 0.33221 0.0
H763 H 0.16419 0.64492 0.36019 0.0
H764 H 0.08923 0.68359 0.40553 0.0
C765 C 0.03589 0.59958 0.43493 0.0
C766 C 0.09751 0.60179 0.38937 0.0
C767 C 0.02138 0.58139 0.45044 0.0
C768 C 0.16582 0.68122 0.33722 0.0
C769 C 0.15203 0.66302 0.35329 0.0
C770 C 0.09151 0.66078 0.40048 0.0
C771 C 0.06504 0.59407 0.42828 0.0
C772 C 0.08027 0.61315 0.41128 0.0
C773 C 0.12324 0.66855 0.36099 0.0
C774 C 0.10861 0.64943 0.37844 0.0
H775 H 0.07668 0.53355 0.46025 0.0
H776 H 0.102 0.56538 0.43342 0.0
H777 H 0.0648 0.65239 0.43368 0.0
H778 H 0.11018 0.72893 0.32918 0.0
H779 H 0.08614 0.69724 0.357 0.0
C780 C 0.56947 0.91223 0.60245 0.0
C781 C 0.56688 0.91126 0.57193 0.0
C782 C 0.59418 0.90074 0.61732 0.0
C783 C 0.65398 0.84975 0.6086 0.0
H784 H 0.69106 0.89387 0.67993 0.0
C785 C 0.75466 0.84309 0.7091 0.0
C786 C 0.74645 0.81673 0.71686 0.0
C787 C 0.73742 0.85479 0.68674 0.0
C788 C 0.68133 0.88153 0.65976 0.0
H789 H 0.58724 0.89637 0.53288 0.0
H790 H 0.6305 0.87617 0.55892 0.0
H791 H 0.6502 0.91402 0.65059 0.0
H792 H 0.71529 0.78098 0.70614 0.0
H793 H 0.68544 0.80128 0.66731 0.0
H794 H 0.68469 0.81698 0.61819 0.0
C795 C 0.61352 0.88598 0.57131 0.0
C796 C 0.65768 0.89289 0.64323 0.0
C797 C 0.58888 0.89762 0.55646 0.0
C798 C 0.72197 0.80148 0.70078 0.0
C799 C 0.70503 0.81298 0.67834 0.0
C800 C 0.67755 0.83832 0.62523 0.0
C801 C 0.61665 0.88793 0.60192 0.0
C802 C 0.64333 0.87682 0.61791 0.0
C803 C 0.71207 0.84007 0.67163 0.0
C804 C 0.69095 0.85385 0.65133 0.0
H805 H 0.55299 0.92281 0.61494 0.0
H806 H 0.59583 0.90208 0.64092 0.0
H807 H 0.6433 0.83693 0.58914 0.0
H808 H 0.77351 0.85522 0.72114 0.0
H809 H 0.74338 0.87567 0.68182 0.0
C810 C 0.48328 0.39102 0.93973 0.0
C811 C 0.47048 0.41163 0.95879 0.0
C812 C 0.46657 0.36727 0.92574 0.0
C813 C 0.42038 0.33697 0.88063 0.0
H814 H 0.35121 0.30648 0.90894 0.0
C815 C 0.33336 0.26395 0.80579 0.0
C816 C 0.30443 0.27474 0.80528 0.0
C817 C 0.35578 0.27498 0.82757 0.0
C818 C 0.37058 0.31471 0.90087 0.0
H819 H 0.43096 0.42254 0.97986 0.0
H820 H 0.40153 0.38208 0.95471 0.0
H821 H 0.38877 0.33399 0.94344 0.0
H822 H 0.27597 0.30475 0.82772 0.0
H823 H 0.31521 0.3238 0.86608 0.0
H824 H 0.402 0.31774 0.83807 0.0
C825 C 0.42459 0.38359 0.95089 0.0
C826 C 0.39203 0.33056 0.92053 0.0
C827 C 0.44146 0.40701 0.96526 0.0
C828 C 0.2981 0.29614 0.82749 0.0
C829 C 0.32044 0.30685 0.84955 0.0
C830 C 0.39923 0.32073 0.86112 0.0
C831 C 0.43654 0.36399 0.93008 0.0
C832 C 0.41672 0.34272 0.91051 0.0
C833 C 0.34954 0.29663 0.84951 0.0
C834 C 0.37373 0.31021 0.87093 0.0
H835 H 0.50577 0.39387 0.93465 0.0
H836 H 0.47681 0.35218 0.91052 0.0
H837 H 0.43869 0.34632 0.87186 0.0
H838 H 0.33889 0.24743 0.78896 0.0
H839 H 0.37807 0.26679 0.82713 0.0
C840 C 0.84235 0.76205 0.30937 0.0
C841 C 0.8126 0.77076 0.30822 0.0
C842 C 0.86387 0.77517 0.33091 0.0
C843 C 0.87673 0.81516 0.40331 0.0
H844 H 0.93943 0.8549 0.37377 0.0
C845 C 0.94105 0.91021 0.4706 0.0
C846 C 0.96878 0.91838 0.46328 0.0
C847 C 0.92596 0.88614 0.45534 0.0
C848 C 0.92273 0.84333 0.38267 0.0
H849 H 0.78181 0.79922 0.32926 0.0
H850 H 0.81957 0.82178 0.36751 0.0
H851 H 0.90466 0.82408 0.33997 0.0
H852 H 1.00393 0.90622 0.43647 0.0
H853 H 0.97834 0.86319 0.41086 0.0
H854 H 0.89478 0.83402 0.44605 0.0
C855 C 0.82607 0.80493 0.35152 0.0
C856 C 0.90263 0.82586 0.36315 0.0
C857 C 0.8046 0.7922 0.32959 0.0
C858 C 0.98238 0.90059 0.44229 0.0
C859 C 0.96754 0.8761 0.42743 0.0
C860 C 0.89726 0.83214 0.42298 0.0
C861 C 0.85592 0.79678 0.35204 0.0
C862 C 0.87903 0.81231 0.37324 0.0
C863 C 0.93851 0.86932 0.43278 0.0
C864 C 0.91998 0.84722 0.41282 0.0
H865 H 0.84918 0.7456 0.29314 0.0
H866 H 0.8868 0.76863 0.33093 0.0
H867 H 0.85881 0.80457 0.41153 0.0
H868 H 0.92993 0.92354 0.48664 0.0
H869 H 0.90361 0.88199 0.46003 0.0
C870 C 0.42664 0.5396 0.5639 0.0
C871 C 0.45344 0.54922 0.5553 0.0
C872 C 0.40904 0.55786 0.58117 0.0
C873 C 0.3951 0.63567 0.60524 0.0
H874 H 0.35036 0.60558 0.66104 0.0
C875 C 0.30558 0.70375 0.6646 0.0
C876 C 0.30186 0.70015 0.69368 0.0
C877 C 0.32427 0.6858 0.64817 0.0
C878 C 0.36276 0.61463 0.64577 0.0
H879 H 0.48229 0.58637 0.55884 0.0
H880 H 0.45193 0.61801 0.58893 0.0
H881 H 0.3825 0.57438 0.63308 0.0
H882 H 0.31553 0.67416 0.72785 0.0
H883 H 0.34781 0.64323 0.6996 0.0
H884 H 0.37557 0.67602 0.6182 0.0
C885 C 0.44427 0.59625 0.5821 0.0
C886 C 0.38114 0.59644 0.62928 0.0
C887 C 0.462 0.57789 0.56494 0.0
C888 C 0.31755 0.67781 0.70561 0.0
C889 C 0.3361 0.65978 0.68916 0.0
C890 C 0.37656 0.65384 0.62161 0.0
C891 C 0.41728 0.58669 0.59053 0.0
C892 C 0.39776 0.6065 0.6086 0.0
C893 C 0.33993 0.66333 0.66004 0.0
C894 C 0.35995 0.64376 0.64229 0.0
H895 H 0.41893 0.51785 0.55694 0.0
H896 H 0.38845 0.54938 0.58657 0.0
H897 H 0.40703 0.64455 0.58952 0.0
H898 H 0.29398 0.72053 0.65439 0.0
H899 H 0.32601 0.68934 0.62586 0.0
C900 C 0.55232 0.05712 0.9544 0.0
C901 C 0.52419 0.06436 0.96292 0.0
C902 C 0.5672 0.07477 0.93867 0.0
C903 C 0.60084 0.12188 0.91684 0.0
H904 H 0.55412 0.1554 0.85502 0.0
C905 C 0.65244 0.196 0.84403 0.0
C906 C 0.64145 0.19213 0.81416 0.0
C907 C 0.63881 0.18202 0.86405 0.0
C908 C 0.56756 0.1461 0.8721 0.0
H909 H 0.48998 0.0963 0.96207 0.0
H910 H 0.51611 0.12733 0.9349 0.0
H911 H 0.52927 0.12822 0.88646 0.0
H912 H 0.60839 0.16931 0.78186 0.0
H913 H 0.58495 0.1451 0.81637 0.0
H914 H 0.63924 0.139 0.9017 0.0
C915 C 0.52648 0.10772 0.94002 0.0
C916 C 0.55324 0.1308 0.89043 0.0
C917 C 0.51154 0.09 0.95574 0.0
C918 C 0.61701 0.17346 0.80475 0.0
C919 C 0.60349 0.15953 0.82462 0.0
C920 C 0.6152 0.13721 0.89845 0.0
C921 C 0.55442 0.10022 0.93105 0.0
C922 C 0.56967 0.11816 0.91284 0.0
C923 C 0.61394 0.16382 0.85459 0.0
C924 C 0.59876 0.14916 0.87556 0.0
H925 H 0.56276 0.03752 0.95949 0.0
H926 H 0.58843 0.06803 0.93181 0.0
H927 H 0.61421 0.11279 0.93411 0.0
H928 H 0.67112 0.21032 0.85203 0.0
H929 H 0.64737 0.18593 0.88699 0.0
C930 C 0.08421 0.39219 0.07179 0.0
C931 C 0.0557 0.38117 0.07387 0.0
C932 C 0.10911 0.38363 0.08885 0.0
C933 C 0.15027 0.38125 0.14418 0.0
H934 H 0.16212 0.30542 0.16594 0.0
C935 C 0.21218 0.32417 0.24434 0.0
C936 C 0.24126 0.33543 0.24682 0.0
C937 C 0.19135 0.32902 0.22107 0.0
C938 C 0.15898 0.32673 0.1601 0.0
H939 H 0.03174 0.35051 0.09376 0.0
H940 H 0.0751 0.33629 0.12427 0.0
H941 H 0.12292 0.31316 0.12713 0.0
H942 H 0.27106 0.36135 0.22734 0.0
H943 H 0.23432 0.37007 0.1866 0.0
H944 H 0.18605 0.39487 0.17743 0.0
C945 C 0.07812 0.3515 0.10928 0.0
C946 C 0.13658 0.33114 0.13791 0.0
C947 C 0.05316 0.35991 0.09202 0.0
C948 C 0.2488 0.35246 0.22604 0.0
C949 C 0.22782 0.35742 0.20274 0.0
C950 C 0.17273 0.37681 0.16628 0.0
C951 C 0.10618 0.364 0.10855 0.0
C952 C 0.13169 0.35853 0.13003 0.0
C953 C 0.19907 0.34531 0.19981 0.0
C954 C 0.17694 0.34962 0.1748 0.0
H955 H 0.08741 0.40857 0.05822 0.0
H956 H 0.13055 0.39318 0.08733 0.0
H957 H 0.14676 0.40273 0.13898 0.0
H958 H 0.20559 0.31105 0.26005 0.0
H959 H 0.16916 0.31995 0.2197 0.0
C960 C 0.6166 0.49963 0.87607 0.0
C961 C 0.58659 0.50345 0.88047 0.0
C962 C 0.63048 0.51734 0.85961 0.0
C963 C 0.61553 0.57261 0.8094 0.0
H964 H 0.6917 0.60396 0.84694 0.0
C965 C 0.65786 0.68459 0.79855 0.0
C966 C 0.68806 0.68862 0.79528 0.0
C967 C 0.64718 0.65817 0.80346 0.0
C968 C 0.6707 0.59507 0.83587 0.0
H969 H 0.54708 0.52734 0.86916 0.0
H970 H 0.57131 0.55866 0.84139 0.0
H971 H 0.6698 0.56346 0.86471 0.0
H972 H 0.73038 0.66714 0.79375 0.0
H973 H 0.71175 0.62137 0.80321 0.0
H974 H 0.61583 0.60535 0.78161 0.0
C975 C 0.58421 0.54193 0.85035 0.0
C976 C 0.65816 0.57178 0.84598 0.0
C977 C 0.57037 0.52422 0.86668 0.0
C978 C 0.70715 0.66524 0.79667 0.0
C979 C 0.69648 0.63887 0.80192 0.0
C980 C 0.62795 0.59606 0.79949 0.0
C981 C 0.61463 0.5392 0.84721 0.0
C982 C 0.63003 0.56077 0.83339 0.0
C983 C 0.66643 0.63514 0.8055 0.0
C984 C 0.65528 0.60796 0.81314 0.0
H985 H 0.62973 0.48385 0.88641 0.0
H986 H 0.65384 0.51439 0.85725 0.0
H987 H 0.59413 0.56428 0.7988 0.0
H988 H 0.64242 0.70193 0.79807 0.0
H989 H 0.62398 0.65604 0.80662 0.0
C990 C 0.72681 0.35834 0.13905 0.0
C991 C 0.72353 0.35004 0.16646 0.0
C992 C 0.71503 0.3839 0.13149 0.0
C993 C 0.65024 0.4242 0.14578 0.0
H994 H 0.67566 0.46736 0.08731 0.0
C995 C 0.5649 0.4786 0.07151 0.0
C996 C 0.56841 0.47213 0.04172 0.0
C997 C 0.58801 0.47392 0.09291 0.0
C998 C 0.66831 0.45563 0.10379 0.0
H999 H 0.70782 0.36335 0.20849 0.0
H1000 H 0.68747 0.40803 0.1953 0.0
H1001 H 0.71226 0.44117 0.11591 0.0
H1002 H 0.59903 0.45647 0.01094 0.0
H1003 H 0.63884 0.44732 0.04812 0.0
H1004 H 0.60611 0.43665 0.13232 0.0
C1005 C 0.6989 0.39461 0.17958 0.0
C1006 C 0.68925 0.44079 0.12021 0.0
C1007 C 0.71069 0.36903 0.18714 0.0
C1008 C 0.59562 0.46153 0.03373 0.0
C1009 C 0.61861 0.4567 0.05508 0.0
C1010 C 0.62933 0.43888 0.1293 0.0
C1011 C 0.69973 0.40162 0.15123 0.0
C1012 C 0.68013 0.42378 0.14029 0.0
C1013 C 0.61497 0.46253 0.08491 0.0
C1014 C 0.63792 0.45351 0.10709 0.0
H1015 H 0.7372 0.34442 0.12294 0.0
H1016 H 0.7159 0.38861 0.10939 0.0
H1017 H 0.64243 0.41108 0.16091 0.0
H1018 H 0.54429 0.48722 0.07832 0.0
H1019 H 0.58463 0.47882 0.11572 0.0
C1020 C 0.93359 0.46262 0.41055 0.0
C1021 C 0.96303 0.45946 0.42274 0.0
C1022 C 0.92198 0.44518 0.38527 0.0
C1023 C 0.90265 0.41008 0.32752 0.0
H1024 H 0.92005 0.33058 0.33242 0.0
C1025 C 0.82891 0.32109 0.25956 0.0
C1026 C 0.82002 0.30041 0.2761 0.0
C1027 C 0.85265 0.33972 0.27064 0.0
C1028 C 0.91506 0.3527 0.33064 0.0
H1029 H 1.00419 0.43717 0.41689 0.0
H1030 H 0.984 0.40699 0.37237 0.0
H1031 H 0.95009 0.36731 0.36404 0.0
H1032 H 0.82956 0.2823 0.31669 0.0
H1033 H 0.8703 0.31521 0.33638 0.0
H1034 H 0.866 0.39536 0.29591 0.0
C1035 C 0.96969 0.42248 0.38274 0.0
C1036 C 0.93255 0.3738 0.34848 0.0
C1037 C 0.98123 0.43977 0.4082 0.0
C1038 C 0.83588 0.29804 0.30346 0.0
C1039 C 0.85947 0.31674 0.3146 0.0
C1040 C 0.88497 0.38895 0.30988 0.0
C1041 C 0.93967 0.4244 0.37151 0.0
C1042 C 0.9257 0.40269 0.34802 0.0
C1043 C 0.86782 0.33807 0.29851 0.0
C1044 C 0.89023 0.36005 0.31222 0.0
H1045 H 0.91906 0.4777 0.42121 0.0
H1046 H 0.89864 0.44698 0.3775 0.0
H1047 H 0.89723 0.43218 0.32623 0.0
H1048 H 0.81727 0.32321 0.23823 0.0
H1049 H 0.85878 0.35572 0.25762 0.0
C1050 C 0.6221 0.58498 0.46146 0.0
C1051 C 0.59091 0.58352 0.45926 0.0
C1052 C 0.6365 0.59848 0.44164 0.0
C1053 C 0.62224 0.62814 0.36953 0.0
H1054 H 0.70075 0.66183 0.394 0.0
C1055 C 0.68168 0.70374 0.30337 0.0
C1056 C 0.71073 0.69606 0.29788 0.0
C1057 C 0.66679 0.68992 0.32264 0.0
C1058 C 0.67886 0.65242 0.38682 0.0
H1059 H 0.55035 0.59563 0.43487 0.0
H1060 H 0.5751 0.62047 0.40128 0.0
H1061 H 0.67527 0.63906 0.4285 0.0
H1062 H 0.74696 0.66803 0.30874 0.0
H1063 H 0.72132 0.64465 0.34315 0.0
H1064 H 0.62569 0.64289 0.32814 0.0
C1065 C 0.58878 0.61027 0.41749 0.0
C1066 C 0.6642 0.63906 0.40657 0.0
C1067 C 0.57443 0.59616 0.43692 0.0
C1068 C 0.7246 0.67443 0.31239 0.0
C1069 C 0.70997 0.6611 0.33219 0.0
C1070 C 0.63667 0.64209 0.35003 0.0
C1071 C 0.62014 0.61159 0.41934 0.0
C1072 C 0.63566 0.62644 0.39827 0.0
C1073 C 0.68084 0.66858 0.33745 0.0
C1074 C 0.66524 0.65421 0.35836 0.0
H1075 H 0.63542 0.57508 0.47817 0.0
H1076 H 0.66054 0.59816 0.44367 0.0
H1077 H 0.6007 0.61832 0.36174 0.0
H1078 H 0.67031 0.72026 0.29251 0.0
H1079 H 0.64442 0.69624 0.32633 0.0
C1080 C 0.75136 0.30425 0.84524 0.0
C1081 C 0.75724 0.30872 0.81711 0.0
C1082 C 0.76206 0.32372 0.86957 0.0
C1083 C 0.7914 0.39652 0.89348 0.0
H1084 H 0.84903 0.36219 0.94623 0.0
C1085 C 0.89502 0.42662 0.99289 0.0
C1086 C 0.90751 0.44927 0.98136 0.0
C1087 C 0.86921 0.41253 0.97849 0.0
C1088 C 0.83249 0.37231 0.93242 0.0
H1089 H 0.77703 0.33773 0.79202 0.0
H1090 H 0.79487 0.37206 0.83432 0.0
H1091 H 0.8156 0.33195 0.91044 0.0
H1092 H 0.90189 0.47594 0.9466 0.0
H1093 H 0.85794 0.45082 0.92086 0.0
H1094 H 0.80833 0.43691 0.91511 0.0
C1095 C 0.78232 0.35347 0.83766 0.0
C1096 C 0.81336 0.35485 0.91178 0.0
C1097 C 0.77229 0.33375 0.8135 0.0
C1098 C 0.89275 0.45861 0.95611 0.0
C1099 C 0.86731 0.44421 0.9414 0.0
C1100 C 0.81013 0.41405 0.9145 0.0
C1101 C 0.77806 0.34826 0.86598 0.0
C1102 C 0.79342 0.36678 0.89146 0.0
C1103 C 0.85567 0.42039 0.95189 0.0
C1104 C 0.8318 0.40218 0.9335 0.0
H1105 H 0.73993 0.28502 0.84858 0.0
H1106 H 0.7586 0.31925 0.89124 0.0
H1107 H 0.776 0.4062 0.87813 0.0
H1108 H 0.90575 0.41915 0.01254 0.0
H1109 H 0.86051 0.39483 0.98773 0.0
C1110 C 0.82257 0.76429 0.17359 0.0
C1111 C 0.79751 0.77536 0.18618 0.0
C1112 C 0.8368 0.77954 0.15489 0.0
C1113 C 0.84344 0.85289 0.13379 0.0
H1114 H 0.87593 0.81355 0.06638 0.0
C1115 C 0.91085 0.91342 0.06125 0.0
C1116 C 0.90726 0.90486 0.03081 0.0
C1117 C 0.89855 0.89724 0.08034 0.0
C1118 C 0.86678 0.82498 0.08496 0.0
H1119 H 0.76768 0.81117 0.18846 0.0
H1120 H 0.79188 0.83723 0.15576 0.0
H1121 H 0.85222 0.78624 0.09871 0.0
H1122 H 0.88779 0.87183 0.99707 0.0
H1123 H 0.86578 0.84433 0.03006 0.0
H1124 H 0.85707 0.89163 0.11963 0.0
C1125 C 0.8011 0.81709 0.1607 0.0
C1126 C 0.85349 0.80921 0.10381 0.0
C1127 C 0.787 0.80195 0.17939 0.0
C1128 C 0.89094 0.8795 0.02019 0.0
C1129 C 0.87856 0.86338 0.03929 0.0
C1130 C 0.85662 0.86863 0.11493 0.0
C1131 C 0.82633 0.80627 0.14823 0.0
C1132 C 0.84143 0.82292 0.12846 0.0
C1133 C 0.88211 0.87199 0.0697 0.0
C1134 C 0.86844 0.85498 0.09012 0.0
H1135 H 0.83136 0.74393 0.17836 0.0
H1136 H 0.85631 0.77055 0.14603 0.0
H1137 H 0.8349 0.86433 0.15271 0.0
H1138 H 0.92294 0.93281 0.07052 0.0
H1139 H 0.90221 0.90451 0.10358 0.0
C1140 C 0.82486 0.19313 0.79952 0.0
C1141 C 0.79344 0.19234 0.79721 0.0
C1142 C 0.84258 0.17489 0.81622 0.0
C1143 C 0.83861 0.12165 0.87228 0.0
H1144 H 0.91908 0.10542 0.85554 0.0
C1145 C 0.91186 0.03605 0.9299 0.0
C1146 C 0.94278 0.04128 0.93717 0.0
C1147 C 0.8937 0.05379 0.9129 0.0
C1148 C 0.89677 0.10974 0.86093 0.0
H1149 H 0.75666 0.17057 0.81131 0.0
H1150 H 0.78686 0.13856 0.83921 0.0
H1151 H 0.88851 0.1362 0.82673 0.0
H1152 H 0.97818 0.07009 0.93122 0.0
H1153 H 0.94714 0.10028 0.90163 0.0
H1154 H 0.84695 0.09452 0.90616 0.0
C1155 C 0.79832 0.15378 0.8288 0.0
C1156 C 0.87889 0.12783 0.84419 0.0
C1157 C 0.78063 0.17226 0.81235 0.0
C1158 C 0.95467 0.06489 0.92626 0.0
C1159 C 0.93664 0.08237 0.90897 0.0
C1160 C 0.85641 0.10328 0.88879 0.0
C1161 C 0.8299 0.15453 0.83134 0.0
C1162 C 0.84926 0.13451 0.8494 0.0
C1163 C 0.90561 0.07747 0.90197 0.0
C1164 C 0.88604 0.09692 0.88369 0.0
H1165 H 0.83599 0.2082 0.78858 0.0
H1166 H 0.86647 0.17727 0.81747 0.0
H1167 H 0.81648 0.12605 0.87806 0.0
H1168 H 0.90145 0.01837 0.93775 0.0
H1169 H 0.87019 0.04868 0.90809 0.0
C1170 C 0.73723 0.18814 0.65307 0.0
C1171 C 0.72918 0.18536 0.68091 0.0
C1172 C 0.72883 0.16706 0.62944 0.0
C1173 C 0.68265 0.13071 0.58509 0.0
H1174 H 0.69136 0.05002 0.59038 0.0
C1175 C 0.61208 0.04917 0.50348 0.0
C1176 C 0.59865 0.02785 0.51625 0.0
C1177 C 0.63609 0.06538 0.51891 0.0
C1178 C 0.6886 0.07245 0.58853 0.0
H1179 H 0.70758 0.15786 0.70631 0.0
H1180 H 0.6937 0.12083 0.66534 0.0
H1181 H 0.71875 0.08484 0.62731 0.0
H1182 H 0.6011 0.00558 0.55442 0.0
H1183 H 0.64197 0.03427 0.58161 0.0
H1184 H 0.65077 0.11881 0.54789 0.0
C1185 C 0.70619 0.13932 0.66167 0.0
C1186 C 0.7045 0.09233 0.60957 0.0
C1187 C 0.71393 0.16061 0.68504 0.0
C1188 C 0.61095 0.02184 0.54393 0.0
C1189 C 0.63463 0.03828 0.5595 0.0
C1190 C 0.66634 0.11088 0.56433 0.0
C1191 C 0.71302 0.14259 0.63356 0.0
C1192 C 0.70098 0.12163 0.60848 0.0
C1193 C 0.64692 0.0609 0.5476 0.0
C1194 C 0.66835 0.08148 0.56632 0.0
H1195 H 0.74891 0.20709 0.64934 0.0
H1196 H 0.73423 0.17004 0.6079 0.0
H1197 H 0.67934 0.15321 0.58395 0.0
H1198 H 0.60328 0.05412 0.48204 0.0
H1199 H 0.64543 0.08211 0.50872 0.0
C1200 C 0.53467 0.90862 0.42647 0.0
C1201 C 0.53803 0.93748 0.42315 0.0
C1202 C 0.53648 0.88753 0.40283 0.0
C1203 C 0.5651 0.84962 0.35682 0.0
H1204 H 0.54481 0.86559 0.27709 0.0
C1205 C 0.63118 0.84039 0.2568 0.0
C1206 C 0.64311 0.81326 0.25861 0.0
C1207 C 0.60529 0.84801 0.26923 0.0
C1208 C 0.5501 0.86053 0.29918 0.0
H1209 H 0.54592 0.96696 0.39265 0.0
H1210 H 0.55041 0.93028 0.35192 0.0
H1211 H 0.52374 0.89436 0.31701 0.0
H1212 H 0.63497 0.77166 0.27165 0.0
H1213 H 0.58986 0.78498 0.29296 0.0
H1214 H 0.59277 0.817 0.33944 0.0
C1215 C 0.54536 0.92385 0.37238 0.0
C1216 C 0.53825 0.87707 0.32202 0.0
C1217 C 0.54332 0.94488 0.39588 0.0
C1218 C 0.62671 0.79286 0.27 0.0
C1219 C 0.60079 0.80046 0.28233 0.0
C1220 C 0.57672 0.83299 0.33401 0.0
C1221 C 0.5419 0.89495 0.37554 0.0
C1222 C 0.54716 0.87287 0.35119 0.0
C1223 C 0.59089 0.82857 0.28363 0.0
C1224 C 0.57076 0.83942 0.30521 0.0
H1225 H 0.53009 0.90235 0.44716 0.0
H1226 H 0.53366 0.86544 0.4059 0.0
H1227 H 0.57246 0.84583 0.379 0.0
H1228 H 0.64283 0.8563 0.24742 0.0
H1229 H 0.59822 0.8699 0.2699 0.0
C1230 C 0.75805 0.13908 0.3449 0.0
C1231 C 0.77118 0.15085 0.32322 0.0
C1232 C 0.76708 0.11264 0.35261 0.0
C1233 C 0.82042 0.05343 0.33594 0.0
H1234 H 0.83484 0.06167 0.42052 0.0
C1235 C 0.92707 0.02252 0.4032 0.0
C1236 C 0.92461 0.01346 0.43044 0.0
C1237 C 0.9015 0.02889 0.38545 0.0
C1238 C 0.8305 0.05852 0.39687 0.0
H1239 H 0.80247 0.144 0.29129 0.0
H1240 H 0.81973 0.09894 0.30578 0.0
H1241 H 0.79968 0.09219 0.3974 0.0
H1242 H 0.89361 1.00105 0.45913 0.0
H1243 H 0.84927 0.01223 0.42824 0.0
H1244 H 0.85376 0.02128 0.33602 0.0
C1245 C 0.8017 0.10916 0.31626 0.0
C1246 C 0.81008 0.076 0.38349 0.0
C1247 C 0.79207 0.13518 0.30809 0.0
C1248 C 0.89624 0.00873 0.43857 0.0
C1249 C 0.87082 0.01489 0.42083 0.0
C1250 C 0.84134 0.0362 0.34944 0.0
C1251 C 0.79015 0.09807 0.33941 0.0
C1252 C 0.8057 0.07457 0.35286 0.0
C1253 C 0.87325 0.02609 0.3947 0.0
C1254 C 0.84726 0.03939 0.38002 0.0
H1255 H 0.74142 0.15071 0.35635 0.0
H1256 H 0.75706 0.10436 0.36993 0.0
H1257 H 0.81703 0.05124 0.31229 0.0
H1258 H 0.94869 0.02603 0.39631 0.0
H1259 H 0.90396 0.03775 0.36547 0.0
C1260 C 0.66693 0.18306 0.23396 0.0
C1261 C 0.67669 0.20205 0.216 0.0
C1262 C 0.64177 0.16582 0.2245 0.0
C1263 C 0.57661 0.15529 0.1675 0.0
H1264 H 0.58736 0.07535 0.17555 0.0
C1265 C 0.54603 0.04483 0.09284 0.0
C1266 C 0.51666 0.04993 0.0817 0.0
C1267 C 0.55973 0.06198 0.11738 0.0
C1268 C 0.58389 0.09763 0.17334 0.0
H1269 H 0.66749 0.21839 0.17441 0.0
H1270 H 0.62416 0.1877 0.15748 0.0
H1271 H 0.62294 0.11053 0.20249 0.0
H1272 H 0.47768 0.07535 0.08884 0.0
H1273 H 0.50164 0.1052 0.13202 0.0
H1274 H 0.53906 0.1422 0.13646 0.0
C1275 C 0.63547 0.18656 0.17916 0.0
C1276 C 0.60411 0.11784 0.18899 0.0
C1277 C 0.6605 0.20393 0.1887 0.0
C1278 C 0.50054 0.07122 0.09671 0.0
C1279 C 0.51423 0.08831 0.1214 0.0
C1280 C 0.55656 0.13507 0.15166 0.0
C1281 C 0.626 0.16713 0.19684 0.0
C1282 C 0.60138 0.14673 0.18521 0.0
C1283 C 0.54427 0.08446 0.13139 0.0
C1284 C 0.56079 0.10592 0.15343 0.0
H1285 H 0.6788 0.18138 0.2553 0.0
H1286 H 0.63484 0.15126 0.23871 0.0
H1287 H 0.57359 0.17749 0.1647 0.0
H1288 H 0.55895 0.02846 0.08183 0.0
H1289 H 0.58302 0.05866 0.12421 0.0
C1290 C 0.72177 0.85221 0.84021 0.0
C1291 C 0.75259 0.85043 0.83941 0.0
C1292 C 0.71019 0.87324 0.85933 0.0
C1293 C 0.72579 0.91241 0.93027 0.0
H1294 H 0.6554 0.95351 0.90533 0.0
C1295 C 0.62682 0.93245 0.99466 0.0
C1296 C 0.60868 0.95594 0.99053 0.0
C1297 C 0.65277 0.92876 0.98117 0.0
C1298 C 0.67548 0.94287 0.91278 0.0
H1299 H 0.79554 0.86931 0.85761 0.0
H1300 H 0.77507 0.90578 0.89199 0.0
H1301 H 0.68456 0.92958 0.86892 0.0
H1302 H 0.60516 0.99549 0.97141 0.0
H1303 H 0.65053 0.98911 0.94812 0.0
H1304 H 0.71551 0.92412 0.9741 0.0
C1305 C 0.76004 0.89109 0.87741 0.0
C1306 C 0.69199 0.92899 0.89187 0.0
C1307 C 0.77165 0.87034 0.85777 0.0
C1308 C 0.61854 0.9771 0.97503 0.0
C1309 C 0.64447 0.97339 0.96151 0.0
C1310 C 0.70908 0.92612 0.95126 0.0
C1311 C 0.72921 0.89259 0.87835 0.0
C1312 C 0.71649 0.91268 0.90039 0.0
C1313 C 0.66103 0.94852 0.96328 0.0
C1314 C 0.68305 0.94047 0.94259 0.0
H1315 H 0.7066 0.8372 0.82621 0.0
H1316 H 0.68634 0.87376 0.85996 0.0
H1317 H 0.74462 0.89987 0.9373 0.0
H1318 H 0.62007 0.91612 0.00695 0.0
H1319 H 0.66499 0.90929 0.98288 0.0
C1320 C 0.96096 1.00402 0.62677 0.0
C1321 C 0.93482 0.00769 0.60815 0.0
C1322 C 0.95945 0.99915 0.65562 0.0
C1323 C 0.90653 0.99372 0.71131 0.0
H1324 H 0.95097 0.9256 0.72372 0.0
C1325 C 0.86129 0.89971 0.75877 0.0
C1326 C 0.88062 0.8828 0.77499 0.0
C1327 C 0.87208 0.92344 0.7481 0.0
C1328 C 0.93891 0.94502 0.72118 0.0
H1329 H 0.88708 0.01261 0.60639 0.0
H1330 H 0.88424 1.00291 0.65596 0.0
H1331 H 0.96335 0.95377 0.68673 0.0
H1332 H 0.92611 0.87935 0.79483 0.0
H1333 H 0.94504 0.92043 0.77546 0.0
H1334 H 0.8806 0.98339 0.74444 0.0
C1335 C 0.90599 1.00395 0.64858 0.0
C1336 C 0.94606 0.96131 0.69992 0.0
C1337 C 0.90753 0.00906 0.61987 0.0
C1338 C 0.9107 0.89136 0.78179 0.0
C1339 C 0.92154 0.91503 0.7709 0.0
C1340 C 0.89922 0.97724 0.73245 0.0
C1341 C 0.93179 0.99764 0.6664 0.0
C1342 C 0.92908 0.98512 0.69377 0.0
C1343 C 0.90248 0.93081 0.75324 0.0
C1344 C 0.91452 0.95205 0.73666 0.0
H1345 H 0.98243 1.003 0.61867 0.0
H1346 H 0.97984 0.99502 0.66897 0.0
H1347 H 0.89346 0.01231 0.70762 0.0
H1348 H 0.83807 0.89387 0.75282 0.0
H1349 H 0.85689 0.93491 0.73419 0.0
C1350 C 0.17095 0.81959 0.77977 0.0
C1351 C 0.19276 0.80245 0.79286 0.0
C1352 C 0.15176 0.83647 0.7966 0.0
C1353 C 0.14441 0.8707 0.87314 0.0
H1354 H 0.06123 0.87784 0.84441 0.0
C1355 C 0.06852 0.95451 0.93133 0.0
C1356 C 0.03907 0.94665 0.93452 0.0
C1357 C 0.08637 0.93676 0.91394 0.0
C1358 C 0.08435 0.87608 0.85295 0.0
H1359 H 0.21107 0.79031 0.83461 0.0
H1360 H 0.17826 0.81987 0.86379 0.0
H1361 H 0.09359 0.84782 0.81496 0.0
H1362 H 0.00561 0.91334 0.92088 0.0
H1363 H 0.03648 0.88266 0.89005 0.0
H1364 H 0.13532 0.89906 0.91099 0.0
C1365 C 0.17586 0.82027 0.84038 0.0
C1366 C 0.10312 0.85895 0.83582 0.0
C1367 C 0.19473 0.80308 0.82351 0.0
C1368 C 0.02802 0.92039 0.91907 0.0
C1369 C 0.04583 0.90273 0.90124 0.0
C1370 C 0.12579 0.88815 0.89003 0.0
C1371 C 0.15387 0.83729 0.82731 0.0
C1372 C 0.13357 0.85582 0.84558 0.0
C1373 C 0.07553 0.91042 0.89859 0.0
C1374 C 0.09533 0.89124 0.88035 0.0
H1375 H 0.16852 0.81986 0.75632 0.0
H1376 H 0.1355 0.84931 0.78549 0.0
H1377 H 0.1676 0.86925 0.8816 0.0
H1378 H 0.07816 0.9744 0.94274 0.0
H1379 H 0.10881 0.9439 0.91238 0.0
C1380 C 0.96635 0.42285 0.55177 0.0
C1381 C 0.95124 0.44617 0.54152 0.0
C1382 C 0.95227 0.40458 0.56748 0.0
C1383 C 0.87872 0.38035 0.58266 0.0
H1384 H 0.92301 0.35919 0.65301 0.0
C1385 C 0.82419 0.32203 0.66632 0.0
C1386 C 0.84145 0.30228 0.68073 0.0
C1387 C 0.83678 0.33857 0.6478 0.0
C1388 C 0.91041 0.36446 0.63319 0.0
H1389 H 0.90923 0.46822 0.53933 0.0
H1390 H 0.88466 0.43621 0.5667 0.0
H1391 H 0.94642 0.38968 0.62358 0.0
H1392 H 0.88491 0.2833 0.68574 0.0
H1393 H 0.90669 0.31155 0.65308 0.0
H1394 H 0.84273 0.35494 0.5922 0.0
C1395 C 0.90738 0.43204 0.56246 0.0
C1396 C 0.92386 0.38204 0.61635 0.0
C1397 C 0.92152 0.45046 0.5469 0.0
C1398 C 0.87121 0.2987 0.67537 0.0
C1399 C 0.88371 0.31501 0.65672 0.0
C1400 C 0.86528 0.36256 0.59944 0.0
C1401 C 0.92269 0.40905 0.57318 0.0
C1402 C 0.90821 0.39019 0.59088 0.0
C1403 C 0.86686 0.33558 0.64311 0.0
C1404 C 0.88098 0.35435 0.62493 0.0
H1405 H 0.98921 0.41886 0.54796 0.0
H1406 H 0.96457 0.38685 0.57512 0.0
H1407 H 0.86616 0.38603 0.563 0.0
H1408 H 0.80129 0.32548 0.67024 0.0
H1409 H 0.82317 0.35436 0.63796 0.0
C1410 C 0.50724 0.12187 0.39883 0.0
C1411 C 0.51013 0.11037 0.42538 0.0
C1412 C 0.49915 0.15016 0.398 0.0
C1413 C 0.45292 0.19947 0.43788 0.0
H1414 H 0.46382 0.24316 0.37477 0.0
C1415 C 0.39067 0.28787 0.36649 0.0
C1416 C 0.36236 0.27464 0.36128 0.0
C1417 C 0.41397 0.2759 0.38288 0.0
C1418 C 0.46087 0.23174 0.39303 0.0
H1419 H 0.51029 0.1208 0.47245 0.0
H1420 H 0.49702 0.17012 0.47095 0.0
H1421 H 0.50077 0.20841 0.38804 0.0
H1422 H 0.33575 0.23948 0.37049 0.0
H1423 H 0.37657 0.21815 0.39854 0.0
H1424 H 0.4125 0.22204 0.44215 0.0
C1425 C 0.5002 0.15702 0.45067 0.0
C1426 C 0.48193 0.21165 0.40043 0.0
C1427 C 0.50804 0.12866 0.45148 0.0
C1428 C 0.35735 0.25007 0.37406 0.0
C1429 C 0.38071 0.23803 0.39038 0.0
C1430 C 0.43198 0.21965 0.43059 0.0
C1431 C 0.49406 0.1676 0.42378 0.0
C1432 C 0.4773 0.19422 0.42183 0.0
C1433 C 0.40943 0.25044 0.39431 0.0
C1434 C 0.43494 0.23485 0.40705 0.0
H1435 H 0.50954 0.10862 0.37844 0.0
H1436 H 0.49459 0.15757 0.37684 0.0
H1437 H 0.44856 0.18638 0.45445 0.0
H1438 H 0.39511 0.30709 0.35722 0.0
H1439 H 0.43576 0.28609 0.38586 0.0
C1440 C 0.56926 0.57228 0.99978 0.0
C1441 C 0.53925 0.5688 0.00372 0.0
C1442 C 0.58646 0.59444 0.01635 0.0
C1443 C 0.58682 0.63844 0.08795 0.0
H1444 H 0.66101 0.66732 0.06795 0.0
C1445 C 0.66842 0.71051 0.17039 0.0
C1446 C 0.69744 0.69996 0.17386 0.0
C1447 C 0.64794 0.69894 0.14704 0.0
C1448 C 0.64028 0.65944 0.07371 0.0
H1449 H 0.50276 0.58754 0.02541 0.0
H1450 H 0.53232 0.62719 0.05315 0.0
H1451 H 0.62553 0.64185 0.0296 0.0
H1452 H 0.72804 0.66955 0.1553 0.0
H1453 H 0.69214 0.64952 0.1141 0.0
H1454 H 0.60165 0.65619 0.13202 0.0
C1455 C 0.54303 0.61206 0.03836 0.0
C1456 C 0.61999 0.64479 0.05184 0.0
C1457 C 0.52598 0.58953 0.02225 0.0
C1458 C 0.70577 0.67797 0.15322 0.0
C1459 C 0.68538 0.66671 0.12957 0.0
C1460 C 0.60684 0.6535 0.10963 0.0
C1461 C 0.57385 0.61391 0.0368 0.0
C1462 C 0.59331 0.63343 0.05881 0.0
C1463 C 0.65623 0.67694 0.12648 0.0
C1464 C 0.63401 0.66353 0.10283 0.0
H1465 H 0.58013 0.55658 0.98568 0.0
H1466 H 0.61008 0.59491 0.01455 0.0
H1467 H 0.56694 0.62956 0.09445 0.0
H1468 H 0.66136 0.72745 0.18596 0.0
H1469 H 0.62558 0.70716 0.14506 0.0
C1470 C 0.15819 0.23215 0.66228 0.0
C1471 C 0.1792 0.21434 0.67523 0.0
C1472 C 0.13562 0.22058 0.6408 0.0
C1473 C 0.10445 0.18498 0.5827 0.0
H1474 H 0.05636 0.12574 0.6058 0.0
C1475 C 1.00401 0.09648 0.5373 0.0
C1476 C 0.01703 0.08136 0.51406 0.0
C1477 C 0.01863 0.1201 0.55399 0.0
C1478 C 0.06916 0.1426 0.59909 0.0
H1479 H 0.19323 0.17061 0.6758 0.0
H1480 H 0.15336 0.15045 0.63892 0.0
H1481 H 0.09343 0.15184 0.64167 0.0
H1482 H 0.05378 0.08111 0.48791 0.0
H1483 H 0.07945 0.12231 0.51729 0.0
H1484 H 0.0811 0.17458 0.5396 0.0
C1485 C 0.15459 0.17331 0.64519 0.0
C1486 C 0.09052 0.15731 0.61958 0.0
C1487 C 0.1774 0.18486 0.66618 0.0
C1488 C 0.0433 0.09219 0.50584 0.0
C1489 C 0.05795 0.11588 0.5226 0.0
C1490 C 0.08328 0.16988 0.56195 0.0
C1491 C 0.13345 0.19103 0.6325 0.0
C1492 C 0.10871 0.17818 0.61142 0.0
C1493 C 0.04651 0.12906 0.54774 0.0
C1494 C 0.06577 0.14823 0.56992 0.0
H1495 H 0.15915 0.25497 0.66879 0.0
H1496 H 0.11944 0.23455 0.63125 0.0
H1497 H 0.11838 0.20101 0.57602 0.0
H1498 H 0.98353 0.08893 0.54392 0.0
H1499 H 0.00909 0.13022 0.57298 0.0
C1500 C 0.69492 0.30304 0.32401 0.0
C1501 C 0.69447 0.3036 0.29364 0.0
C1502 C 0.67595 0.32031 0.34066 0.0
C1503 C 0.60472 0.36101 0.33528 0.0
H1504 H 0.63555 0.39841 0.41212 0.0
C1505 C 0.52848 0.42089 0.41856 0.0
C1506 C 0.53954 0.44687 0.43463 0.0
C1507 C 0.54643 0.40345 0.40068 0.0
C1508 C 0.62641 0.38825 0.39069 0.0
H1509 H 0.67283 0.3232 0.2573 0.0
H1510 H 0.63948 0.35279 0.2861 0.0
H1511 H 0.66813 0.36883 0.38282 0.0
H1512 H 0.57883 0.47433 0.44395 0.0
H1513 H 0.60976 0.44413 0.41361 0.0
H1514 H 0.56287 0.38032 0.34338 0.0
C1515 C 0.6547 0.33898 0.29715 0.0
C1516 C 0.64519 0.37095 0.37385 0.0
C1517 C 0.67407 0.32204 0.28055 0.0
C1518 C 0.56918 0.45466 0.43205 0.0
C1519 C 0.58718 0.43709 0.41466 0.0
C1520 C 0.58575 0.37794 0.35238 0.0
C1521 C 0.65531 0.33857 0.3276 0.0
C1522 C 0.63484 0.35706 0.3457 0.0
C1523 C 0.5763 0.41106 0.39864 0.0
C1524 C 0.59626 0.39209 0.38039 0.0
H1525 H 0.71012 0.28923 0.3351 0.0
H1526 H 0.67716 0.31896 0.36387 0.0
H1527 H 0.5956 0.35065 0.31393 0.0
H1528 H 0.50593 0.41391 0.41987 0.0
H1529 H 0.53706 0.3836 0.38894 0.0
C1530 C 0.45465 0.92882 0.05209 0.0
C1531 C 0.43981 0.95358 0.04524 0.0
C1532 C 0.44117 0.90924 0.06671 0.0
C1533 C 0.36821 0.88517 0.0836 0.0
H1534 H 0.41615 0.85071 0.14408 0.0
C1535 C 0.31739 0.81336 0.15764 0.0
C1536 C 0.33317 0.78895 0.16413 0.0
C1537 C 0.33004 0.83365 0.14319 0.0
C1538 C 0.40252 0.85987 0.12703 0.0
H1539 H 0.39902 0.97711 0.04835 0.0
H1540 H 0.37547 0.94289 0.07413 0.0
H1541 H 0.43857 0.886 0.11911 0.0
H1542 H 0.37473 0.76689 0.16044 0.0
H1543 H 0.39664 0.80207 0.13482 0.0
H1544 H 0.33215 0.85896 0.09152 0.0
C1545 C 0.39749 0.93854 0.06789 0.0
C1546 C 0.41537 0.88015 0.11271 0.0
C1547 C 0.41103 0.95822 0.05324 0.0
C1548 C 0.36187 0.7853 0.15563 0.0
C1549 C 0.37456 0.80564 0.14122 0.0
C1550 C 0.35534 0.86488 0.09794 0.0
C1551 C 0.41248 0.91387 0.07491 0.0
C1552 C 0.39843 0.89294 0.09071 0.0
C1553 C 0.35881 0.8301 0.13487 0.0
C1554 C 0.37238 0.85188 0.11974 0.0
H1555 H 0.47679 0.92447 0.04615 0.0
H1556 H 0.45316 0.89026 0.0713 0.0
H1557 H 0.35462 0.89432 0.0665 0.0
H1558 H 0.29509 0.81672 0.16345 0.0
H1559 H 0.31737 0.85234 0.13888 0.0
C1560 C 0.96676 0.62277 0.97243 0.0
C1561 C 0.951 0.59692 0.97025 0.0
C1562 C 0.9516 0.64802 0.96968 0.0
C1563 C 0.87587 0.67941 0.96056 0.0
H1564 H 0.91121 0.71843 0.90419 0.0
C1565 C 0.80959 0.73262 0.87028 0.0
C1566 C 0.82245 0.75578 0.85991 0.0
C1567 C 0.82474 0.72002 0.89311 0.0
C1568 C 0.90125 0.7084 0.9205 0.0
H1569 H 0.90736 0.57707 0.96549 0.0
H1570 H 0.8806 0.62096 0.95921 0.0
H1571 H 0.9396 0.68346 0.92841 0.0
H1572 H 0.85991 0.78556 0.8669 0.0
H1573 H 0.88621 0.76371 0.90694 0.0
H1574 H 0.83668 0.70342 0.95088 0.0
C1575 C 0.90461 0.62205 0.96383 0.0
C1576 C 0.91761 0.68827 0.9345 0.0
C1577 C 0.91984 0.59686 0.96716 0.0
C1578 C 0.84971 0.76737 0.87409 0.0
C1579 C 0.86474 0.75492 0.89703 0.0
C1580 C 0.85937 0.69957 0.94636 0.0
C1581 C 0.9204 0.64774 0.964 0.0
C1582 C 0.90482 0.67284 0.95397 0.0
C1583 C 0.85292 0.7305 0.90605 0.0
C1584 C 0.87163 0.71356 0.92549 0.0
H1585 H 0.99084 0.62327 0.97551 0.0
H1586 H 0.96439 0.66756 0.97069 0.0
H1587 H 0.86558 0.66822 0.97581 0.0
H1588 H 0.78848 0.72336 0.85988 0.0
H1589 H 0.81519 0.70105 0.89935 0.0
C1590 C 0.46717 0.51499 0.11835 0.0
C1591 C 0.44165 0.51635 0.09818 0.0
C1592 C 0.46454 0.51337 0.14777 0.0
C1593 C 0.40891 0.51162 0.20178 0.0
H1594 H 0.45521 0.44679 0.22196 0.0
C1595 C 0.36532 0.42103 0.25632 0.0
C1596 C 0.38549 0.4052 0.27281 0.0
C1597 C 0.37523 0.44463 0.24468 0.0
C1598 C 0.44255 0.46538 0.21731 0.0
H1599 H 0.39374 0.52127 0.09421 0.0
H1600 H 0.389 0.51671 0.14471 0.0
H1601 H 0.4683 0.47191 0.18319 0.0
H1602 H 0.43098 0.40346 0.2929 0.0
H1603 H 0.44832 0.44474 0.2727 0.0
H1604 H 0.38179 0.50332 0.23478 0.0
C1605 C 0.41113 0.51705 0.13808 0.0
C1606 C 0.45013 0.47996 0.19496 0.0
C1607 C 0.41381 0.51912 0.1088 0.0
C1608 C 0.41515 0.41488 0.27962 0.0
C1609 C 0.42502 0.43855 0.26817 0.0
C1610 C 0.40116 0.49682 0.22409 0.0
C1611 C 0.43634 0.51267 0.15761 0.0
C1612 C 0.43265 0.50247 0.186 0.0
C1613 C 0.40546 0.45289 0.24948 0.0
C1614 C 0.41721 0.47281 0.23122 0.0
H1615 H 0.48911 0.51327 0.11132 0.0
H1616 H 0.48452 0.51088 0.16242 0.0
H1617 H 0.39536 0.52928 0.19589 0.0
H1618 H 0.34236 0.41402 0.25069 0.0
H1619 H 0.35962 0.45504 0.23016 0.0
C1620 C 0.41332 0.52001 0.92929 0.0
C1621 C 0.44064 0.51094 0.92017 0.0
C1622 C 0.39066 0.52802 0.9093 0.0
C1623 C 0.38209 0.55891 0.84145 0.0
H1624 H 0.29927 0.55779 0.85548 0.0
C1625 C 0.301 0.63858 0.79652 0.0
C1626 C 0.28903 0.65553 0.81938 0.0
C1627 C 0.31353 0.61245 0.80095 0.0
C1628 C 0.32223 0.55792 0.85101 0.0
H1629 H 0.46508 0.50145 0.88268 0.0
H1630 H 0.42513 0.51543 0.84745 0.0
H1631 H 0.33378 0.52441 0.87675 0.0
H1632 H 0.27907 0.65769 0.86407 0.0
H1633 H 0.30139 0.61196 0.87204 0.0
H1634 H 0.37083 0.59316 0.81674 0.0
C1635 C 0.42151 0.51667 0.87023 0.0
C1636 C 0.34199 0.53895 0.86319 0.0
C1637 C 0.44437 0.50875 0.89036 0.0
C1638 C 0.28844 0.64517 0.84626 0.0
C1639 C 0.30081 0.61887 0.85063 0.0
C1640 C 0.36227 0.57758 0.82896 0.0
C1641 C 0.39465 0.52699 0.87964 0.0
C1642 C 0.37245 0.54044 0.85995 0.0
C1643 C 0.31418 0.60271 0.82824 0.0
C1644 C 0.33257 0.57823 0.83493 0.0
H1645 H 0.40964 0.52175 0.95209 0.0
H1646 H 0.37057 0.53641 0.9175 0.0
H1647 H 0.4054 0.5608 0.83863 0.0
H1648 H 0.30208 0.64609 0.77563 0.0
H1649 H 0.32377 0.60036 0.78342 0.0
C1650 C 0.044 0.53049 0.59835 0.0
C1651 C 0.02451 0.54365 0.57864 0.0
C1652 C 0.05774 0.54626 0.62383 0.0
C1653 C 0.10265 0.58762 0.65818 0.0
H1654 H 0.07293 0.65879 0.69407 0.0
C1655 C 0.15564 0.70226 0.69875 0.0
C1656 C 0.17963 0.69646 0.71899 0.0
C1657 C 0.13265 0.68224 0.68999 0.0
C1658 C 0.08134 0.63877 0.68448 0.0
H1659 H 1.00264 0.58298 0.57062 0.0
H1660 H 0.02786 0.61099 0.61405 0.0
H1661 H 0.03822 0.62405 0.66438 0.0
H1662 H 0.19808 0.66569 0.74669 0.0
H1663 H 0.1582 0.63027 0.73053 0.0
H1664 H 0.14578 0.60262 0.67793 0.0
C1665 C 0.03196 0.58836 0.61062 0.0
C1666 C 0.0616 0.61898 0.66734 0.0
C1667 C 0.01768 0.5724 0.5855 0.0
C1668 C 0.17986 0.67066 0.73096 0.0
C1669 C 0.1571 0.65046 0.72184 0.0
C1670 C 0.12223 0.60714 0.67573 0.0
C1671 C 0.05288 0.57567 0.62964 0.0
C1672 C 0.07223 0.59372 0.65293 0.0
C1673 C 0.13354 0.65599 0.70103 0.0
C1674 C 0.1119 0.63331 0.68802 0.0
H1675 H 0.04913 0.50813 0.59376 0.0
H1676 H 0.07305 0.5356 0.63839 0.0
H1677 H 0.11188 0.5687 0.64718 0.0
H1678 H 0.15481 0.72208 0.68938 0.0
H1679 H 0.11487 0.68677 0.67359 0.0
C1680 C 0.30374 0.27108 0.66571 0.0
C1681 C 0.28439 0.28549 0.68401 0.0
C1682 C 0.31846 0.28561 0.6468 0.0
C1683 C 0.34232 0.35823 0.63537 0.0
H1684 H 0.3491 0.32336 0.55623 0.0
C1685 C 0.41466 0.40843 0.55875 0.0
C1686 C 0.40299 0.40792 0.52916 0.0
C1687 C 0.40054 0.39339 0.57762 0.0
C1688 C 0.34731 0.33351 0.57821 0.0
H1689 H 0.26556 0.3267 0.69667 0.0
H1690 H 0.29115 0.35186 0.66394 0.0
H1691 H 0.32391 0.29748 0.58885 0.0
H1692 H 0.36658 0.39103 0.49682 0.0
H1693 H 0.3424 0.36475 0.5295 0.0
H1694 H 0.36547 0.39435 0.62469 0.0
C1695 C 0.29514 0.32936 0.66425 0.0
C1696 C 0.3331 0.3185 0.59706 0.0
C1697 C 0.28027 0.31482 0.68295 0.0
C1698 C 0.37671 0.39178 0.51918 0.0
C1699 C 0.36272 0.37661 0.53801 0.0
C1700 C 0.35674 0.37313 0.61662 0.0
C1701 C 0.31445 0.315 0.64587 0.0
C1702 C 0.33024 0.3307 0.62589 0.0
C1703 C 0.3744 0.37718 0.56753 0.0
C1704 C 0.35934 0.36106 0.5877 0.0
H1705 H 0.30753 0.24853 0.66594 0.0
H1706 H 0.33335 0.27386 0.63321 0.0
H1707 H 0.34086 0.36825 0.65747 0.0
H1708 H 0.43499 0.42011 0.56742 0.0
H1709 H 0.41046 0.39409 0.60008 0.0
C1710 C 0.17737 0.66889 0.19417 0.0
C1711 C 0.2068 0.67727 0.19225 0.0
C1712 C 0.16379 0.64626 0.17486 0.0
C1713 C 0.17676 0.58152 0.12652 0.0
H1714 H 0.10074 0.59786 0.08481 0.0
C1715 C 0.08311 0.53189 0.02585 0.0
C1716 C 0.07378 0.50696 0.03594 0.0
C1717 C 0.10454 0.55 0.04285 0.0
C1718 C 0.12206 0.59303 0.09613 0.0
H1719 H 0.24544 0.66784 0.1693 0.0
H1720 H 0.22168 0.62785 0.1358 0.0
H1721 H 0.12682 0.63483 0.12009 0.0
H1722 H 0.08192 0.47995 0.07026 0.0
H1723 H 0.11979 0.51172 0.09995 0.0
H1724 H 0.17143 0.53933 0.10283 0.0
C1725 C 0.20919 0.63901 0.15216 0.0
C1726 C 0.13682 0.6141 0.1165 0.0
C1727 C 0.22266 0.66198 0.17118 0.0
C1728 C 0.08863 0.49902 0.06192 0.0
C1729 C 0.11026 0.51721 0.07894 0.0
C1730 C 0.16166 0.56016 0.10641 0.0
C1731 C 0.17949 0.63125 0.15355 0.0
C1732 C 0.16426 0.60858 0.13192 0.0
C1733 C 0.11724 0.54352 0.07019 0.0
C1734 C 0.13423 0.56583 0.09093 0.0
H1735 H 0.16459 0.6802 0.21018 0.0
H1736 H 0.1409 0.64055 0.17647 0.0
H1737 H 0.19789 0.57677 0.13825 0.0
H1738 H 0.07237 0.53846 0.00576 0.0
H1739 H 0.10994 0.56994 0.03538 0.0
C1740 C 0.66084 0.30231 0.69675 0.0
C1741 C 0.69229 0.30279 0.6995 0.0
C1742 C 0.64362 0.32045 0.67946 0.0
C1743 C 0.64784 0.38798 0.64302 0.0
H1744 H 0.57274 0.36042 0.60013 0.0
C1745 C 0.57878 0.4581 0.56228 0.0
C1746 C 0.54788 0.4533 0.5545 0.0
C1747 C 0.59627 0.44035 0.57987 0.0
C1748 C 0.59332 0.36912 0.61217 0.0
H1749 H 0.72967 0.32382 0.68547 0.0
H1750 H 0.70008 0.3553 0.65601 0.0
H1751 H 0.60204 0.3298 0.63014 0.0
H1752 H 0.5117 0.42544 0.56045 0.0
H1753 H 0.54119 0.39573 0.59141 0.0
H1754 H 0.63905 0.42744 0.62562 0.0
C1755 C 0.68846 0.34088 0.66728 0.0
C1756 C 0.61048 0.35112 0.62963 0.0
C1757 C 0.70565 0.3225 0.68427 0.0
C1758 C 0.53529 0.43015 0.56556 0.0
C1759 C 0.55263 0.41264 0.58338 0.0
C1760 C 0.63053 0.40613 0.62582 0.0
C1761 C 0.65694 0.3403 0.66428 0.0
C1762 C 0.63826 0.35999 0.64551 0.0
C1763 C 0.58375 0.41695 0.59091 0.0
C1764 C 0.6027 0.39728 0.60979 0.0
H1765 H 0.64933 0.28767 0.70789 0.0
H1766 H 0.61964 0.3191 0.67838 0.0
H1767 H 0.6687 0.39627 0.65491 0.0
H1768 H 0.58974 0.47535 0.55424 0.0
H1769 H 0.6199 0.44486 0.58423 0.0
C1770 C 0.88149 0.66179 0.21722 0.0
C1771 C 0.86407 0.65048 0.23615 0.0
C1772 C 0.90781 0.64863 0.21058 0.0
C1773 C 0.93172 0.57542 0.20311 0.0
H1774 H 0.99079 0.60763 0.16209 0.0
C1775 C 0.98048 0.50814 0.10965 0.0
C1776 C 0.97689 0.52097 0.08383 0.0
C1777 C 0.97827 0.52426 0.13663 0.0
C1778 C 0.97467 0.59831 0.17376 0.0
H1779 H 0.86221 0.61958 0.26638 0.0
H1780 H 0.90885 0.59702 0.25564 0.0
H1781 H 0.96772 0.63804 0.19952 0.0
H1782 H 0.96925 0.56088 0.06609 0.0
H1783 H 0.96457 0.58884 0.11307 0.0
H1784 H 0.93732 0.53619 0.17634 0.0
C1785 C 0.90171 0.61528 0.24496 0.0
C1786 C 0.96147 0.61567 0.19517 0.0
C1787 C 0.87507 0.62811 0.25112 0.0
C1788 C 0.97183 0.55034 0.08558 0.0
C1789 C 0.96966 0.56645 0.11255 0.0
C1790 C 0.94506 0.55809 0.18196 0.0
C1791 C 0.91728 0.62415 0.2231 0.0
C1792 C 0.93845 0.60479 0.20869 0.0
C1793 C 0.97247 0.5535 0.13829 0.0
C1794 C 0.9653 0.56976 0.16588 0.0
H1795 H 0.87341 0.67912 0.20553 0.0
H1796 H 0.91902 0.65607 0.19354 0.0
H1797 H 0.91399 0.56618 0.21281 0.0
H1798 H 0.98482 0.4856 0.10905 0.0
H1799 H 0.98058 0.51378 0.15615 0.0
C1800 C 0.87599 0.60666 0.53399 0.0
C1801 C 0.88697 0.57954 0.53801 0.0
C1802 C 0.86346 0.62328 0.55643 0.0
C1803 C 0.83562 0.62101 0.62865 0.0
H1804 H 0.86055 0.70046 0.64161 0.0
C1805 C 0.795 0.70183 0.71927 0.0
C1806 C 0.81488 0.72363 0.73307 0.0
C1807 C 0.80263 0.68316 0.6956 0.0
C1808 C 0.85367 0.67825 0.63853 0.0
H1809 H 0.89112 0.54774 0.56787 0.0
H1810 H 0.87043 0.57692 0.60721 0.0
H1811 H 0.87395 0.67002 0.59909 0.0
H1812 H 0.85893 0.74202 0.73389 0.0
H1813 H 0.87268 0.70881 0.69322 0.0
H1814 H 0.81651 0.62899 0.66886 0.0
C1815 C 0.87123 0.58542 0.58675 0.0
C1816 C 0.86087 0.66089 0.61379 0.0
C1817 C 0.88352 0.56878 0.56428 0.0
C1818 C 0.84306 0.72556 0.72357 0.0
C1819 C 0.85081 0.7067 0.70007 0.0
C1820 C 0.82864 0.63833 0.65356 0.0
C1821 C 0.86174 0.61316 0.5834 0.0
C1822 C 0.8521 0.632 0.60862 0.0
C1823 C 0.83043 0.68568 0.68538 0.0
C1824 C 0.83776 0.66713 0.65891 0.0
H1825 H 0.87826 0.61562 0.51406 0.0
H1826 H 0.85578 0.64433 0.55289 0.0
H1827 H 0.82821 0.59894 0.6252 0.0
H1828 H 0.77303 0.69985 0.72598 0.0
H1829 H 0.78627 0.66743 0.68468 0.0
C1830 C 0.44984 0.57132 0.4371 0.0
C1831 C 0.44361 0.54193 0.43648 0.0
C1832 C 0.43165 0.58877 0.41997 0.0
C1833 C 0.37646 0.58809 0.35254 0.0
H1834 H 0.35545 0.66305 0.38743 0.0
C1835 C 0.31924 0.67479 0.28312 0.0
C1836 C 0.29574 0.69073 0.29431 0.0
C1837 C 0.33651 0.65625 0.29986 0.0
C1838 C 0.36096 0.64221 0.37713 0.0
H1839 H 0.41256 0.50838 0.41607 0.0
H1840 H 0.38165 0.53841 0.38545 0.0
H1841 H 0.38625 0.63218 0.41674 0.0
H1842 H 0.2729 0.69911 0.33292 0.0
H1843 H 0.3034 0.66792 0.36218 0.0
H1844 H 0.35177 0.59846 0.3127 0.0
C1845 C 0.40063 0.5481 0.39966 0.0
C1846 C 0.37896 0.62438 0.39406 0.0
C1847 C 0.41846 0.53073 0.41742 0.0
C1848 C 0.29059 0.68744 0.32318 0.0
C1849 C 0.30833 0.66946 0.34017 0.0
C1850 C 0.35908 0.60623 0.33538 0.0
C1851 C 0.40662 0.57765 0.40073 0.0
C1852 C 0.38706 0.5968 0.38227 0.0
C1853 C 0.33165 0.65327 0.3289 0.0
C1854 C 0.35074 0.6337 0.34729 0.0
H1855 H 0.46874 0.58115 0.45135 0.0
H1856 H 0.43752 0.61115 0.42158 0.0
H1857 H 0.38208 0.56728 0.34225 0.0
H1858 H 0.32418 0.67641 0.26112 0.0
H1859 H 0.35417 0.64456 0.2901 0.0
C1860 C 0.12892 0.35995 0.76733 0.0
C1861 C 0.13745 0.3313 0.76523 0.0
C1862 C 0.10287 0.36839 0.77916 0.0
C1863 C 0.06383 0.34664 0.8357 0.0
H1864 H 0.0154 0.41223 0.8228 0.0
C1865 C 0.00545 0.4027 0.92856 0.0
C1866 C 0.00877 0.43246 0.93263 0.0
C1867 C 0.01099 0.387 0.90228 0.0
C1868 C 0.02875 0.39385 0.82667 0.0
H1869 H 0.12315 0.2886 0.77082 0.0
H1870 H 0.07781 0.30335 0.79081 0.0
H1871 H 0.04309 0.38996 0.78393 0.0
H1872 H 0.01939 0.46934 0.91232 0.0
H1873 H 0.0308 0.44193 0.8671 0.0
H1874 H 0.05175 0.35153 0.87892 0.0
C1875 C 0.09163 0.31933 0.78388 0.0
C1876 C 0.0444 0.38105 0.80437 0.0
C1877 C 0.11771 0.31091 0.77227 0.0
C1878 C 0.01682 0.44636 0.90973 0.0
C1879 C 0.02295 0.43063 0.88366 0.0
C1880 C 0.04852 0.35955 0.85799 0.0
C1881 C 0.08482 0.34828 0.7889 0.0
C1882 C 0.06289 0.35793 0.80911 0.0
C1883 C 0.02063 0.40072 0.87983 0.0
C1884 C 0.03168 0.38394 0.85416 0.0
H1885 H 0.14307 0.37612 0.76129 0.0
H1886 H 0.09819 0.39091 0.78276 0.0
H1887 H 0.07827 0.32915 0.84023 0.0
H1888 H 0.99861 0.39154 0.94571 0.0
H1889 H 0.00837 0.36405 0.89984 0.0
C1890 C 0.29088 0.39596 0.37048 0.0
C1891 C 0.28691 0.36664 0.37117 0.0
C1892 C 0.28218 0.41567 0.39297 0.0
C1893 C 0.25693 0.42229 0.46701 0.0
H1894 H 0.1942 0.46775 0.43335 0.0
C1895 C 0.14391 0.4321 0.50675 0.0
C1896 C 0.12559 0.45513 0.50124 0.0
C1897 C 0.17297 0.43138 0.49951 0.0
C1898 C 0.21216 0.45603 0.44352 0.0
H1899 H 0.27316 0.33479 0.39676 0.0
H1900 H 0.25822 0.36889 0.43576 0.0
H1901 H 0.23131 0.44763 0.40342 0.0
H1902 H 0.12442 0.49673 0.48619 0.0
H1903 H 0.17527 0.49564 0.47401 0.0
H1904 H 0.23648 0.4291 0.50658 0.0
C1905 C 0.26795 0.37686 0.41807 0.0
C1906 C 0.23351 0.44447 0.42626 0.0
C1907 C 0.27611 0.3573 0.3955 0.0
C1908 C 0.13783 0.47859 0.49069 0.0
C1909 C 0.16697 0.47791 0.48351 0.0
C1910 C 0.23564 0.43397 0.48434 0.0
C1911 C 0.27002 0.40624 0.41666 0.0
C1912 C 0.2549 0.42601 0.43731 0.0
C1913 C 0.18442 0.45375 0.48666 0.0
C1914 C 0.21192 0.44942 0.47218 0.0
H1915 H 0.29931 0.40365 0.35198 0.0
H1916 H 0.28392 0.43822 0.39135 0.0
H1917 H 0.27357 0.40851 0.47619 0.0
H1918 H 0.13534 0.414 0.51543 0.0
H1919 H 0.18562 0.4123 0.50207 0.0
loop_
_geom_bond_atom_site_label_1
_geom_bond_atom_site_label_2
_geom_bond_distance
_geom_bond_site_symmetry_2
_ccdc_geom_bond_type
Co0 N5 2.057 . S
Co0 O17 2.021 1_554 S
Co0 O20 2.062 1_655 S
Co0 O24 2.117 1_565 S
Co0 O25 2.020 1_554 S
C1 O21 1.259 1_655 S
C1 O24 1.258 . S
Co2 N11 2.057 . S
Co2 O18 2.117 1_545 S
Co2 O19 2.020 1_556 S
Co2 O21 2.021 1_556 S
Co2 O26 2.062 1_455 S
C3 N5 1.316 . S
C3 N6 1.347 . S
C3 H8 0.931 . S
C4 N5 1.375 . S
C4 C7 1.350 . S
C4 H9 0.930 . S
N5 Co0 2.057 . S
N5 C3 1.316 . S
N5 C4 1.375 . S
N6 C3 1.347 . S
N6 C7 1.373 . S
C7 C4 1.350 . S
C7 N6 1.373 . S
C7 H28 0.931 . S
H8 C3 0.931 . S
H9 C4 0.930 . S
C10 O17 1.259 1_455 S
C10 O18 1.258 . S
N11 Co2 2.057 . S
N11 C12 1.316 . S
N11 C13 1.375 . S
C12 N11 1.316 . S
C12 N14 1.347 . S
C12 H23 0.931 . S
C13 N11 1.375 . S
C13 C15 1.350 . S
C13 H22 0.930 . S
N14 C12 1.347 . S
N14 C15 1.373 . S
C15 C13 1.350 . S
C15 N14 1.373 . S
C15 H29 0.931 . S
C16 O19 1.256 1_565 S
C16 O20 1.255 . S
O17 Co0 2.021 1_556 S
O17 C10 1.259 1_655 S
O18 Co2 2.117 1_565 S
O18 C10 1.258 . S
O19 Co2 2.020 1_554 S
O19 C16 1.256 1_545 S
O20 Co0 2.062 1_455 S
O20 C16 1.255 . S
O21 C1 1.259 1_455 S
O21 Co2 2.021 1_554 S
H22 C13 0.930 . S
H23 C12 0.931 . S
O24 Co0 2.117 1_545 S
O24 C1 1.258 . S
O25 Co0 2.020 1_556 S
O25 C27 1.256 1_565 S
O26 Co2 2.062 1_655 S
O26 C27 1.255 . S
C27 O25 1.256 1_545 S
C27 O26 1.255 . S
H28 C7 0.931 . S
H29 C15 0.931 . S
Co30 N35 2.057 . S
Co30 O47 2.021 . S
Co30 O50 2.062 . S
Co30 O54 2.117 . S
Co30 O55 2.020 . S
C31 O51 1.259 . S
C31 O54 1.258 . S
Co32 N41 2.057 . S
Co32 O48 2.117 . S
Co32 O49 2.020 . S
Co32 O51 2.021 . S
Co32 O56 2.062 . S
C33 N35 1.316 . S
C33 N36 1.347 . S
C33 H38 0.931 . S
C34 N35 1.375 . S
C34 C37 1.350 . S
C34 H39 0.930 . S
N35 Co30 2.057 . S
N35 C33 1.316 . S
N35 C34 1.375 . S
N36 C33 1.347 . S
N36 C37 1.373 . S
C37 C34 1.350 . S
C37 N36 1.373 . S
C37 H58 0.931 . S
H38 C33 0.931 . S
H39 C34 0.930 . S
C40 O47 1.259 . S
C40 O48 1.258 . S
N41 Co32 2.057 . S
N41 C42 1.316 . S
N41 C43 1.375 . S
C42 N41 1.316 . S
C42 N44 1.347 . S
C42 H53 0.931 . S
C43 N41 1.375 . S
C43 C45 1.350 . S
C43 H52 0.930 . S
N44 C42 1.347 . S
N44 C45 1.373 . S
C45 C43 1.350 . S
C45 N44 1.373 . S
C45 H59 0.931 . S
C46 O49 1.256 . S
C46 O50 1.255 . S
O47 Co30 2.021 . S
O47 C40 1.259 . S
O48 Co32 2.117 . S
O48 C40 1.258 . S
O49 Co32 2.020 . S
O49 C46 1.256 . S
O50 Co30 2.062 . S
O50 C46 1.255 . S
O51 C31 1.259 . S
O51 Co32 2.021 . S
H52 C43 0.930 . S
H53 C42 0.931 . S
O54 Co30 2.117 . S
O54 C31 1.258 . S
O55 Co30 2.020 . S
O55 C57 1.256 . S
O56 Co32 2.062 . S
O56 C57 1.255 . S
C57 O55 1.256 . S
C57 O56 1.255 . S
H58 C37 0.931 . S
H59 C45 0.931 . S
Co60 N65 2.057 . S
Co60 O77 2.021 . S
Co60 O80 2.062 . S
Co60 O84 2.117 1_565 S
Co60 O85 2.020 1_565 S
C61 O81 1.259 . S
C61 O84 1.258 . S
Co62 N71 2.057 . S
Co62 O78 2.117 1_545 S
Co62 O79 2.020 1_545 S
Co62 O81 2.021 . S
Co62 O86 2.062 . S
C63 N65 1.316 . S
C63 N66 1.347 . S
C63 H68 0.931 . S
C64 N65 1.375 . S
C64 C67 1.350 . S
C64 H69 0.930 . S
N65 Co60 2.057 . S
N65 C63 1.316 . S
N65 C64 1.375 . S
N66 C63 1.347 . S
N66 C67 1.373 . S
C67 C64 1.350 . S
C67 N66 1.373 . S
C67 H88 0.931 . S
H68 C63 0.931 . S
H69 C64 0.930 . S
C70 O77 1.259 . S
C70 O78 1.258 . S
N71 Co62 2.057 . S
N71 C72 1.316 . S
N71 C73 1.375 . S
C72 N71 1.316 . S
C72 N74 1.347 . S
C72 H83 0.931 . S
C73 N71 1.375 . S
C73 C75 1.350 . S
C73 H82 0.930 . S
N74 C72 1.347 . S
N74 C75 1.373 . S
C75 C73 1.350 . S
C75 N74 1.373 . S
C75 H89 0.931 . S
C76 O79 1.256 . S
C76 O80 1.255 . S
O77 Co60 2.021 . S
O77 C70 1.259 . S
O78 Co62 2.117 1_565 S
O78 C70 1.258 . S
O79 Co62 2.020 1_565 S
O79 C76 1.256 . S
O80 Co60 2.062 . S
O80 C76 1.255 . S
O81 C61 1.259 . S
O81 Co62 2.021 . S
H82 C73 0.930 . S
H83 C72 0.931 . S
O84 Co60 2.117 1_545 S
O84 C61 1.258 . S
O85 Co60 2.020 1_545 S
O85 C87 1.256 . S
O86 Co62 2.062 . S
O86 C87 1.255 . S
C87 O85 1.256 . S
C87 O86 1.255 . S
H88 C67 0.931 . S
H89 C75 0.931 . S
Co90 N95 2.057 . S
Co90 O107 2.021 . S
Co90 O110 2.062 . S
Co90 O114 2.117 . S
Co90 O115 2.020 . S
C91 O111 1.259 . S
C91 O114 1.258 . S
Co92 N101 2.057 . S
Co92 O108 2.117 . S
Co92 O109 2.020 . S
Co92 O111 2.021 . S
Co92 O116 2.062 . S
C93 N95 1.316 . S
C93 N96 1.347 . S
C93 H98 0.931 . S
C94 N95 1.375 . S
C94 C97 1.350 . S
C94 H99 0.930 . S
N95 Co90 2.057 . S
N95 C93 1.316 . S
N95 C94 1.375 . S
N96 C93 1.347 . S
N96 C97 1.373 . S
C97 C94 1.350 . S
C97 N96 1.373 . S
C97 H118 0.931 . S
H98 C93 0.931 . S
H99 C94 0.930 . S
C100 O107 1.259 . S
C100 O108 1.258 . S
N101 Co92 2.057 . S
N101 C102 1.316 . S
N101 C103 1.375 . S
C102 N101 1.316 . S
C102 N104 1.347 . S
C102 H113 0.931 . S
C103 N101 1.375 . S
C103 C105 1.350 . S
C103 H112 0.930 . S
N104 C102 1.347 . S
N104 C105 1.373 . S
C105 C103 1.350 . S
C105 N104 1.373 . S
C105 H119 0.931 . S
C106 O109 1.256 . S
C106 O110 1.255 . S
O107 Co90 2.021 . S
O107 C100 1.259 . S
O108 Co92 2.117 . S
O108 C100 1.258 . S
O109 Co92 2.020 . S
O109 C106 1.256 . S
O110 Co90 2.062 . S
O110 C106 1.255 . S
O111 C91 1.259 . S
O111 Co92 2.021 . S
H112 C103 0.930 . S
H113 C102 0.931 . S
O114 Co90 2.117 . S
O114 C91 1.258 . S
O115 Co90 2.020 . S
O115 C117 1.256 . S
O116 Co92 2.062 . S
O116 C117 1.255 . S
C117 O115 1.256 . S
C117 O116 1.255 . S
H118 C97 0.931 . S
H119 C105 0.931 . S
Co120 N125 2.057 . S
Co120 O137 2.008 1_445 S
Co120 O140 2.062 1_455 S
Co120 O144 2.117 . S
Co120 O145 2.020 1_545 S
C121 O141 1.259 . S
C121 O144 1.258 . S
Co122 N131 2.057 . S
Co122 O138 2.117 . S
Co122 O139 2.020 1_565 S
Co122 O141 2.021 1_665 S
Co122 O146 2.062 1_655 S
C123 N125 1.316 . S
C123 N126 1.347 . S
C123 H128 0.931 . S
C124 N125 1.375 . S
C124 C127 1.350 . S
C124 H129 0.930 . S
N125 Co120 2.057 . S
N125 C123 1.316 . S
N125 C124 1.375 . S
N126 C123 1.347 . S
N126 C127 1.373 . S
C127 C124 1.350 . S
C127 N126 1.373 . S
C127 H148 0.931 . S
H128 C123 0.931 . S
H129 C124 0.930 . S
C130 O137 1.287 . S
C130 O138 1.258 . S
N131 Co122 2.057 . S
N131 C132 1.316 . S
N131 C133 1.375 . S
C132 N131 1.316 . S
C132 N134 1.347 . S
C132 H143 0.931 . S
C133 N131 1.375 . S
C133 C135 1.350 . S
C133 H142 0.930 . S
N134 C132 1.347 . S
N134 C135 1.373 . S
C135 C133 1.350 . S
C135 N134 1.373 . S
C135 H149 0.931 . S
C136 O139 1.256 . S
C136 O140 1.255 . S
O137 Co120 2.008 1_665 S
O137 C130 1.287 . S
O138 Co122 2.117 . S
O138 C130 1.258 . S
O139 Co122 2.020 1_545 S
O139 C136 1.256 . S
O140 Co120 2.062 1_655 S
O140 C136 1.255 . S
O141 C121 1.259 . S
O141 Co122 2.021 1_445 S
H142 C133 0.930 . S
H143 C132 0.931 . S
O144 Co120 2.117 . S
O144 C121 1.258 . S
O145 Co120 2.020 1_565 S
O145 C147 1.256 . S
O146 Co122 2.062 1_455 S
O146 C147 1.255 . S
C147 O145 1.256 . S
C147 O146 1.255 . S
H148 C127 0.931 . S
H149 C135 0.931 . S
Co150 N155 2.057 . S
Co150 O167 2.021 . S
Co150 O170 2.062 . S
Co150 O174 2.117 . S
Co150 O175 2.020 . S
C151 O171 1.259 . S
C151 O174 1.258 . S
Co152 N161 2.057 . S
Co152 O168 2.117 . S
Co152 O169 2.020 . S
Co152 O171 2.021 . S
Co152 O176 2.062 . S
C153 N155 1.316 . S
C153 N156 1.347 . S
C153 H158 0.931 . S
C154 N155 1.375 . S
C154 C157 1.350 . S
C154 H159 0.930 . S
N155 Co150 2.057 . S
N155 C153 1.316 . S
N155 C154 1.375 . S
N156 C153 1.347 . S
N156 C157 1.373 . S
C157 C154 1.350 . S
C157 N156 1.373 . S
C157 H178 0.931 . S
H158 C153 0.931 . S
H159 C154 0.930 . S
C160 O167 1.259 . S
C160 O168 1.258 . S
N161 Co152 2.057 . S
N161 C162 1.316 . S
N161 C163 1.375 . S
C162 N161 1.316 . S
C162 N164 1.347 . S
C162 H173 0.931 . S
C163 N161 1.375 . S
C163 C165 1.350 . S
C163 H172 0.930 . S
N164 C162 1.347 . S
N164 C165 1.373 . S
C165 C163 1.350 . S
C165 N164 1.373 . S
C165 H179 0.931 . S
C166 O169 1.256 . S
C166 O170 1.255 . S
O167 Co150 2.021 . S
O167 C160 1.259 . S
O168 Co152 2.117 . S
O168 C160 1.258 . S
O169 Co152 2.020 . S
O169 C166 1.256 . S
O170 Co150 2.062 . S
O170 C166 1.255 . S
O171 C151 1.259 . S
O171 Co152 2.021 . S
H172 C163 0.930 . S
H173 C162 0.931 . S
O174 Co150 2.117 . S
O174 C151 1.258 . S
O175 Co150 2.020 . S
O175 C177 1.256 . S
O176 Co152 2.062 . S
O176 C177 1.255 . S
C177 O175 1.256 . S
C177 O176 1.255 . S
H178 C157 0.931 . S
H179 C165 0.931 . S
Co180 N185 2.057 . S
Co180 O197 2.010 1_544 S
Co180 O200 2.062 1_545 S
Co180 O204 2.117 . S
Co180 O205 2.020 1_554 S
C181 O201 1.288 . S
C181 O204 1.258 . S
Co182 N191 2.057 . S
Co182 O198 2.117 . S
Co182 O199 2.020 1_556 S
Co182 O201 2.007 1_566 S
Co182 O206 2.062 1_565 S
C183 N185 1.316 . S
C183 N186 1.347 . S
C183 H188 0.931 . S
C184 N185 1.375 . S
C184 C187 1.350 . S
C184 H189 0.930 . S
N185 Co180 2.057 . S
N185 C183 1.316 . S
N185 C184 1.375 . S
N186 C183 1.347 . S
N186 C187 1.373 . S
C187 C184 1.350 . S
C187 N186 1.373 . S
C187 H208 0.931 . S
H188 C183 0.931 . S
H189 C184 0.930 . S
C190 O197 1.281 . S
C190 O198 1.258 . S
N191 Co182 2.057 . S
N191 C192 1.316 . S
N191 C193 1.375 . S
C192 N191 1.316 . S
C192 N194 1.347 . S
C192 H203 0.931 . S
C193 N191 1.375 . S
C193 C195 1.350 . S
C193 H202 0.930 . S
N194 C192 1.347 . S
N194 C195 1.373 . S
C195 C193 1.350 . S
C195 N194 1.373 . S
C195 H209 0.931 . S
C196 O199 1.256 . S
C196 O200 1.255 . S
O197 Co180 2.010 1_566 S
O197 C190 1.281 . S
O198 Co182 2.117 . S
O198 C190 1.258 . S
O199 Co182 2.020 1_554 S
O199 C196 1.256 . S
O200 Co180 2.062 1_565 S
O200 C196 1.255 . S
O201 C181 1.288 . S
O201 Co182 2.007 1_544 S
H202 C193 0.930 . S
H203 C192 0.931 . S
O204 Co180 2.117 . S
O204 C181 1.258 . S
O205 Co180 2.020 1_556 S
O205 C207 1.256 . S
O206 Co182 2.062 1_545 S
O206 C207 1.255 . S
C207 O205 1.256 . S
C207 O206 1.255 . S
H208 C187 0.931 . S
H209 C195 0.931 . S
Co210 N215 2.057 . S
Co210 O227 2.021 . S
Co210 O230 2.062 . S
Co210 O234 2.117 . S
Co210 O235 2.020 . S
C211 O231 1.259 . S
C211 O234 1.258 . S
Co212 N221 2.057 . S
Co212 O228 2.117 . S
Co212 O229 2.020 . S
Co212 O231 2.021 . S
Co212 O236 2.062 . S
C213 N215 1.316 . S
C213 N216 1.347 . S
C213 H218 0.931 . S
C214 N215 1.375 . S
C214 C217 1.350 . S
C214 H219 0.930 . S
N215 Co210 2.057 . S
N215 C213 1.316 . S
N215 C214 1.375 . S
N216 C213 1.347 . S
N216 C217 1.373 . S
C217 C214 1.350 . S
C217 N216 1.373 . S
C217 H238 0.931 . S
H218 C213 0.931 . S
H219 C214 0.930 . S
C220 O227 1.259 . S
C220 O228 1.258 . S
N221 Co212 2.057 . S
N221 C222 1.316 . S
N221 C223 1.375 . S
C222 N221 1.316 . S
C222 N224 1.347 . S
C222 H233 0.931 . S
C223 N221 1.375 . S
C223 C225 1.350 . S
C223 H232 0.930 . S
N224 C222 1.347 . S
N224 C225 1.373 . S
C225 C223 1.350 . S
C225 N224 1.373 . S
C225 H239 0.931 . S
C226 O229 1.256 . S
C226 O230 1.255 . S
O227 Co210 2.021 . S
O227 C220 1.259 . S
O228 Co212 2.117 . S
O228 C220 1.258 . S
O229 Co212 2.020 . S
O229 C226 1.256 . S
O230 Co210 2.062 . S
O230 C226 1.255 . S
O231 C211 1.259 . S
O231 Co212 2.021 . S
H232 C223 0.930 . S
H233 C222 0.931 . S
O234 Co210 2.117 . S
O234 C211 1.258 . S
O235 Co210 2.020 . S
O235 C237 1.256 . S
O236 Co212 2.062 . S
O236 C237 1.255 . S
C237 O235 1.256 . S
C237 O236 1.255 . S
H238 C217 0.931 . S
H239 C225 0.931 . S
Co240 N245 2.057 . S
Co240 O257 2.021 . S
Co240 O260 2.062 . S
Co240 O264 2.117 1_556 S
Co240 O265 2.012 1_556 S
C241 O261 1.259 . S
C241 O264 1.258 . S
Co242 N251 2.057 . S
Co242 O258 2.117 1_554 S
Co242 O259 2.017 1_554 S
Co242 O261 2.021 . S
Co242 O266 2.062 . S
C243 N245 1.316 . S
C243 N246 1.347 . S
C243 H248 0.931 . S
C244 N245 1.375 . S
C244 C247 1.350 . S
C244 H249 0.930 . S
N245 Co240 2.057 . S
N245 C243 1.316 . S
N245 C244 1.375 . S
N246 C243 1.347 . S
N246 C247 1.373 . S
C247 C244 1.350 . S
C247 N246 1.373 . S
C247 H268 0.931 . S
H248 C243 0.931 . S
H249 C244 0.930 . S
C250 O257 1.259 . S
C250 O258 1.258 . S
N251 Co242 2.057 . S
N251 C252 1.316 . S
N251 C253 1.375 . S
C252 N251 1.316 . S
C252 N254 1.347 . S
C252 H263 0.931 . S
C253 N251 1.375 . S
C253 C255 1.350 . S
C253 H262 0.930 . S
N254 C252 1.347 . S
N254 C255 1.373 . S
C255 C253 1.350 . S
C255 N254 1.373 . S
C255 H269 0.931 . S
C256 O259 1.260 . S
C256 O260 1.255 . S
O257 Co240 2.021 . S
O257 C250 1.259 . S
O258 Co242 2.117 1_556 S
O258 C250 1.258 . S
O259 Co242 2.017 1_556 S
O259 C256 1.260 . S
O260 Co240 2.062 . S
O260 C256 1.255 . S
O261 C241 1.259 . S
O261 Co242 2.021 . S
H262 C253 0.930 . S
H263 C252 0.931 . S
O264 Co240 2.117 1_554 S
O264 C241 1.258 . S
O265 Co240 2.012 1_554 S
O265 C267 1.268 . S
O266 Co242 2.062 . S
O266 C267 1.255 . S
C267 O265 1.268 . S
C267 O266 1.255 . S
H268 C247 0.931 . S
H269 C255 0.931 . S
Co270 N275 2.057 . S
Co270 O287 2.021 . S
Co270 O290 2.062 . S
Co270 O294 2.117 . S
Co270 O295 2.020 . S
C271 O291 1.259 . S
C271 O294 1.258 . S
Co272 N281 2.057 . S
Co272 O288 2.117 . S
Co272 O289 2.020 . S
Co272 O291 2.021 . S
Co272 O296 2.062 . S
C273 N275 1.316 . S
C273 N276 1.347 . S
C273 H278 0.931 . S
C274 N275 1.375 . S
C274 C277 1.350 . S
C274 H279 0.930 . S
N275 Co270 2.057 . S
N275 C273 1.316 . S
N275 C274 1.375 . S
N276 C273 1.347 . S
N276 C277 1.373 . S
C277 C274 1.350 . S
C277 N276 1.373 . S
C277 H298 0.931 . S
H278 C273 0.931 . S
H279 C274 0.930 . S
C280 O287 1.259 . S
C280 O288 1.258 . S
N281 Co272 2.057 . S
N281 C282 1.316 . S
N281 C283 1.375 . S
C282 N281 1.316 . S
C282 N284 1.347 . S
C282 H293 0.931 . S
C283 N281 1.375 . S
C283 C285 1.350 . S
C283 H292 0.930 . S
N284 C282 1.347 . S
N284 C285 1.373 . S
C285 C283 1.350 . S
C285 N284 1.373 . S
C285 H299 0.931 . S
C286 O289 1.256 . S
C286 O290 1.255 . S
O287 Co270 2.021 . S
O287 C280 1.259 . S
O288 Co272 2.117 . S
O288 C280 1.258 . S
O289 Co272 2.020 . S
O289 C286 1.256 . S
O290 Co270 2.062 . S
O290 C286 1.255 . S
O291 C271 1.259 . S
O291 Co272 2.021 . S
H292 C283 0.930 . S
H293 C282 0.931 . S
O294 Co270 2.117 . S
O294 C271 1.258 . S
O295 Co270 2.020 . S
O295 C297 1.256 . S
O296 Co272 2.062 . S
O296 C297 1.255 . S
C297 O295 1.256 . S
C297 O296 1.255 . S
H298 C277 0.931 . S
H299 C285 0.931 . S
Co300 N305 2.057 . S
Co300 O317 2.021 . S
Co300 O320 2.062 . S
Co300 O324 2.117 1_655 S
Co300 O325 2.020 . S
C301 O321 1.259 . S
C301 O324 1.258 . S
Co302 N311 2.057 . S
Co302 O318 2.117 1_455 S
Co302 O319 2.020 . S
Co302 O321 2.021 . S
Co302 O326 2.062 . S
C303 N305 1.316 . S
C303 N306 1.347 . S
C303 H308 0.931 . S
C304 N305 1.375 . S
C304 C307 1.350 . S
C304 H309 0.930 . S
N305 Co300 2.057 . S
N305 C303 1.316 . S
N305 C304 1.375 . S
N306 C303 1.347 . S
N306 C307 1.373 . S
C307 C304 1.350 . S
C307 N306 1.373 . S
C307 H328 0.931 . S
H308 C303 0.931 . S
H309 C304 0.930 . S
C310 O317 1.259 . S
C310 O318 1.258 . S
N311 Co302 2.057 . S
N311 C312 1.316 . S
N311 C313 1.375 . S
C312 N311 1.316 . S
C312 N314 1.347 . S
C312 H323 0.931 . S
C313 N311 1.375 . S
C313 C315 1.350 . S
C313 H322 0.930 . S
N314 C312 1.347 . S
N314 C315 1.373 . S
C315 C313 1.350 . S
C315 N314 1.373 . S
C315 H329 0.931 . S
C316 O319 1.256 1_655 S
C316 O320 1.255 . S
O317 Co300 2.021 . S
O317 C310 1.259 . S
O318 Co302 2.117 1_655 S
O318 C310 1.258 . S
O319 Co302 2.020 . S
O319 C316 1.256 1_455 S
O320 Co300 2.062 . S
O320 C316 1.255 . S
O321 C301 1.259 . S
O321 Co302 2.021 . S
H322 C313 0.930 . S
H323 C312 0.931 . S
O324 Co300 2.117 1_455 S
O324 C301 1.258 . S
O325 Co300 2.020 . S
O325 C327 1.256 1_655 S
O326 Co302 2.062 . S
O326 C327 1.255 . S
C327 O325 1.256 1_455 S
C327 O326 1.255 . S
H328 C307 0.931 . S
H329 C315 0.931 . S
Co330 N335 2.057 . S
Co330 O347 2.021 . S
Co330 O350 2.062 . S
Co330 O354 2.117 . S
Co330 O355 2.020 . S
C331 O351 1.259 . S
C331 O354 1.258 . S
Co332 N341 2.057 . S
Co332 O348 2.117 . S
Co332 O349 2.020 . S
Co332 O351 2.021 . S
Co332 O356 2.062 . S
C333 N335 1.316 . S
C333 N336 1.347 . S
C333 H338 0.931 . S
C334 N335 1.375 . S
C334 C337 1.350 . S
C334 H339 0.930 . S
N335 Co330 2.057 . S
N335 C333 1.316 . S
N335 C334 1.375 . S
N336 C333 1.347 . S
N336 C337 1.373 . S
C337 C334 1.350 . S
C337 N336 1.373 . S
C337 H358 0.931 . S
H338 C333 0.931 . S
H339 C334 0.930 . S
C340 O347 1.259 . S
C340 O348 1.258 . S
N341 Co332 2.057 . S
N341 C342 1.316 . S
N341 C343 1.375 . S
C342 N341 1.316 . S
C342 N344 1.347 . S
C342 H353 0.931 . S
C343 N341 1.375 . S
C343 C345 1.350 . S
C343 H352 0.930 . S
N344 C342 1.347 . S
N344 C345 1.373 . S
C345 C343 1.350 . S
C345 N344 1.373 . S
C345 H359 0.931 . S
C346 O349 1.256 . S
C346 O350 1.255 . S
O347 Co330 2.021 . S
O347 C340 1.259 . S
O348 Co332 2.117 . S
O348 C340 1.258 . S
O349 Co332 2.020 . S
O349 C346 1.256 . S
O350 Co330 2.062 . S
O350 C346 1.255 . S
O351 C331 1.259 . S
O351 Co332 2.021 . S
H352 C343 0.930 . S
H353 C342 0.931 . S
O354 Co330 2.117 . S
O354 C331 1.258 . S
O355 Co330 2.020 . S
O355 C357 1.256 . S
O356 Co332 2.062 . S
O356 C357 1.255 . S
C357 O355 1.256 . S
C357 O356 1.255 . S
H358 C337 0.931 . S
H359 C345 0.931 . S
Co360 N365 2.057 . S
Co360 O377 2.021 . S
Co360 O380 2.062 . S
Co360 O384 2.117 . S
Co360 O385 2.020 . S
C361 O381 1.259 . S
C361 O384 1.258 . S
Co362 N371 2.057 . S
Co362 O378 2.117 . S
Co362 O379 2.020 . S
Co362 O381 2.021 . S
Co362 O386 2.062 . S
C363 N365 1.316 . S
C363 N366 1.347 . S
C363 H368 0.931 . S
C364 N365 1.375 . S
C364 C367 1.350 . S
C364 H369 0.930 . S
N365 Co360 2.057 . S
N365 C363 1.316 . S
N365 C364 1.375 . S
N366 C363 1.347 . S
N366 C367 1.373 . S
C367 C364 1.350 . S
C367 N366 1.373 . S
C367 H388 0.931 . S
H368 C363 0.931 . S
H369 C364 0.930 . S
C370 O377 1.259 . S
C370 O378 1.258 . S
N371 Co362 2.057 . S
N371 C372 1.316 . S
N371 C373 1.375 . S
C372 N371 1.316 . S
C372 N374 1.347 . S
C372 H383 0.931 . S
C373 N371 1.375 . S
C373 C375 1.350 . S
C373 H382 0.930 . S
N374 C372 1.347 . S
N374 C375 1.373 . S
C375 C373 1.350 . S
C375 N374 1.373 . S
C375 H389 0.931 . S
C376 O379 1.256 . S
C376 O380 1.255 . S
O377 Co360 2.021 . S
O377 C370 1.259 . S
O378 Co362 2.117 . S
O378 C370 1.258 . S
O379 Co362 2.020 . S
O379 C376 1.256 . S
O380 Co360 2.062 . S
O380 C376 1.255 . S
O381 C361 1.259 . S
O381 Co362 2.021 . S
H382 C373 0.930 . S
H383 C372 0.931 . S
O384 Co360 2.117 . S
O384 C361 1.258 . S
O385 Co360 2.020 . S
O385 C387 1.256 . S
O386 Co362 2.062 . S
O386 C387 1.255 . S
C387 O385 1.256 . S
C387 O386 1.255 . S
H388 C367 0.931 . S
H389 C375 0.931 . S
Co390 N395 2.057 . S
Co390 O407 2.021 . S
Co390 O410 2.062 . S
Co390 O414 2.117 . S
Co390 O415 2.020 . S
C391 O411 1.259 . S
C391 O414 1.258 . S
Co392 N401 2.057 . S
Co392 O408 2.117 . S
Co392 O409 2.020 . S
Co392 O411 2.021 . S
Co392 O416 2.062 . S
C393 N395 1.316 . S
C393 N396 1.347 . S
C393 H398 0.931 . S
C394 N395 1.375 . S
C394 C397 1.350 . S
C394 H399 0.930 . S
N395 Co390 2.057 . S
N395 C393 1.316 . S
N395 C394 1.375 . S
N396 C393 1.347 . S
N396 C397 1.373 . S
C397 C394 1.350 . S
C397 N396 1.373 . S
C397 H418 0.931 . S
H398 C393 0.931 . S
H399 C394 0.930 . S
C400 O407 1.259 . S
C400 O408 1.258 . S
N401 Co392 2.057 . S
N401 C402 1.316 . S
N401 C403 1.375 . S
C402 N401 1.316 . S
C402 N404 1.347 . S
C402 H413 0.931 . S
C403 N401 1.375 . S
C403 C405 1.350 . S
C403 H412 0.930 . S
N404 C402 1.347 . S
N404 C405 1.373 . S
C405 C403 1.350 . S
C405 N404 1.373 . S
C405 H419 0.931 . S
C406 O409 1.256 . S
C406 O410 1.255 . S
O407 Co390 2.021 . S
O407 C400 1.259 . S
O408 Co392 2.117 . S
O408 C400 1.258 . S
O409 Co392 2.020 . S
O409 C406 1.256 . S
O410 Co390 2.062 . S
O410 C406 1.255 . S
O411 C391 1.259 . S
O411 Co392 2.021 . S
H412 C403 0.930 . S
H413 C402 0.931 . S
O414 Co390 2.117 . S
O414 C391 1.258 . S
O415 Co390 2.020 . S
O415 C417 1.256 . S
O416 Co392 2.062 . S
O416 C417 1.255 . S
C417 O415 1.256 . S
C417 O416 1.255 . S
H418 C397 0.931 . S
H419 C405 0.931 . S
Co420 N425 2.057 . S
Co420 O437 2.021 . S
Co420 O440 2.062 . S
Co420 O444 2.117 . S
Co420 O445 2.020 . S
C421 O441 1.259 . S
C421 O444 1.258 . S
Co422 N431 2.057 . S
Co422 O438 2.117 . S
Co422 O439 2.020 . S
Co422 O441 2.021 . S
Co422 O446 2.062 . S
C423 N425 1.316 . S
C423 N426 1.347 . S
C423 H428 0.931 . S
C424 N425 1.375 . S
C424 C427 1.350 . S
C424 H429 0.930 . S
N425 Co420 2.057 . S
N425 C423 1.316 . S
N425 C424 1.375 . S
N426 C423 1.347 . S
N426 C427 1.373 . S
C427 C424 1.350 . S
C427 N426 1.373 . S
C427 H448 0.931 . S
H428 C423 0.931 . S
H429 C424 0.930 . S
C430 O437 1.259 . S
C430 O438 1.258 . S
N431 Co422 2.057 . S
N431 C432 1.316 . S
N431 C433 1.375 . S
C432 N431 1.316 . S
C432 N434 1.347 . S
C432 H443 0.931 . S
C433 N431 1.375 . S
C433 C435 1.350 . S
C433 H442 0.930 . S
N434 C432 1.347 . S
N434 C435 1.373 . S
C435 C433 1.350 . S
C435 N434 1.373 . S
C435 H449 0.931 . S
C436 O439 1.256 . S
C436 O440 1.255 . S
O437 Co420 2.021 . S
O437 C430 1.259 . S
O438 Co422 2.117 . S
O438 C430 1.258 . S
O439 Co422 2.020 . S
O439 C436 1.256 . S
O440 Co420 2.062 . S
O440 C436 1.255 . S
O441 C421 1.259 . S
O441 Co422 2.021 . S
H442 C433 0.930 . S
H443 C432 0.931 . S
O444 Co420 2.117 . S
O444 C421 1.258 . S
O445 Co420 2.020 . S
O445 C447 1.256 . S
O446 Co422 2.062 . S
O446 C447 1.255 . S
C447 O445 1.256 . S
C447 O446 1.255 . S
H448 C427 0.931 . S
H449 C435 0.931 . S
Co450 N455 2.057 . S
Co450 O467 2.021 1_454 S
Co450 O470 2.062 1_554 S
Co450 O474 2.117 . S
Co450 O475 2.020 1_455 S
C451 O471 1.259 . S
C451 O474 1.258 . S
Co452 N461 2.057 . S
Co452 O468 2.117 . S
Co452 O469 2.020 1_655 S
Co452 O471 2.021 1_656 S
Co452 O476 2.062 1_556 S
C453 N455 1.316 . S
C453 N456 1.347 . S
C453 H458 0.931 . S
C454 N455 1.375 . S
C454 C457 1.350 . S
C454 H459 0.930 . S
N455 Co450 2.057 . S
N455 C453 1.316 . S
N455 C454 1.375 . S
N456 C453 1.347 . S
N456 C457 1.373 . S
C457 C454 1.350 . S
C457 N456 1.373 . S
C457 H478 0.931 . S
H458 C453 0.931 . S
H459 C454 0.930 . S
C460 O467 1.259 . S
C460 O468 1.258 . S
N461 Co452 2.057 . S
N461 C462 1.316 . S
N461 C463 1.375 . S
C462 N461 1.316 . S
C462 N464 1.347 . S
C462 H473 0.931 . S
C463 N461 1.375 . S
C463 C465 1.350 . S
C463 H472 0.930 . S
N464 C462 1.347 . S
N464 C465 1.373 . S
C465 C463 1.350 . S
C465 N464 1.373 . S
C465 H479 0.931 . S
C466 O469 1.256 . S
C466 O470 1.255 . S
O467 Co450 2.021 1_656 S
O467 C460 1.259 . S
O468 Co452 2.117 . S
O468 C460 1.258 . S
O469 Co452 2.020 1_455 S
O469 C466 1.256 . S
O470 Co450 2.062 1_556 S
O470 C466 1.255 . S
O471 C451 1.259 . S
O471 Co452 2.021 1_454 S
H472 C463 0.930 . S
H473 C462 0.931 . S
O474 Co450 2.117 . S
O474 C451 1.258 . S
O475 Co450 2.020 1_655 S
O475 C477 1.256 . S
O476 Co452 2.062 1_554 S
O476 C477 1.255 . S
C477 O475 1.256 . S
C477 O476 1.255 . S
H478 C457 0.931 . S
H479 C465 0.931 . S
C480 C481 1.349 . S
C480 C482 1.327 . S
C480 H505 0.950 . S
C481 C480 1.349 . S
C481 C497 1.349 . S
C482 C480 1.327 . S
C482 C501 1.429 . S
C482 H506 0.950 . S
C483 C500 1.574 . S
C483 C502 1.368 . S
C483 H507 0.949 . S
H484 C488 0.949 . S
C485 C486 1.349 . S
C485 C487 1.327 . S
C485 H508 0.950 . S
C486 C485 1.349 . S
C486 C498 1.349 . S
C487 C485 1.327 . S
C487 C503 1.429 . S
C487 H509 0.950 . S
C488 H484 0.949 . S
C488 C496 1.574 . S
C488 C504 1.368 . S
H489 C497 0.950 . S
H490 C495 0.950 . S
H491 C496 0.949 . S
H492 C498 0.950 . S
H493 C499 0.950 . S
H494 C500 0.949 . S
C495 H490 0.950 . S
C495 C497 1.327 . S
C495 C501 1.429 . S
C496 C488 1.574 . S
C496 H491 0.949 . S
C496 C502 1.368 . S
C497 C481 1.349 . S
C497 H489 0.950 . S
C497 C495 1.327 . S
C498 C486 1.349 . S
C498 H492 0.950 . S
C498 C499 1.327 . S
C499 H493 0.950 . S
C499 C498 1.327 . S
C499 C503 1.429 . S
C500 C483 1.574 . S
C500 H494 0.949 . S
C500 C504 1.368 . S
C501 C482 1.429 . S
C501 C495 1.429 . S
C501 C502 1.523 . S
C502 C483 1.368 . S
C502 C496 1.368 . S
C502 C501 1.523 . S
C503 C487 1.429 . S
C503 C499 1.429 . S
C503 C504 1.523 . S
C504 C488 1.368 . S
C504 C500 1.368 . S
C504 C503 1.523 . S
H505 C480 0.950 . S
H506 C482 0.950 . S
H507 C483 0.949 . S
H508 C485 0.950 . S
H509 C487 0.950 . S
C510 C511 1.349 . S
C510 C512 1.327 . S
C510 H535 0.950 . S
C511 C510 1.349 . S
C511 C527 1.349 . S
C512 C510 1.327 . S
C512 C531 1.429 . S
C512 H536 0.950 . S
C513 C530 1.574 . S
C513 C532 1.368 . S
C513 H537 0.949 . S
H514 C518 0.949 . S
C515 C516 1.349 . S
C515 C517 1.327 . S
C515 H538 0.950 . S
C516 C515 1.349 . S
C516 C528 1.349 . S
C517 C515 1.327 . S
C517 C533 1.429 . S
C517 H539 0.950 . S
C518 H514 0.949 . S
C518 C526 1.574 . S
C518 C534 1.368 . S
H519 C527 0.950 . S
H520 C525 0.950 . S
H521 C526 0.949 . S
H522 C528 0.950 . S
H523 C529 0.950 . S
H524 C530 0.949 . S
C525 H520 0.950 . S
C525 C527 1.327 . S
C525 C531 1.429 . S
C526 C518 1.574 . S
C526 H521 0.949 . S
C526 C532 1.368 . S
C527 C511 1.349 . S
C527 H519 0.950 . S
C527 C525 1.327 . S
C528 C516 1.349 . S
C528 H522 0.950 . S
C528 C529 1.327 . S
C529 H523 0.950 . S
C529 C528 1.327 . S
C529 C533 1.429 . S
C530 C513 1.574 . S
C530 H524 0.949 . S
C530 C534 1.368 . S
C531 C512 1.429 . S
C531 C525 1.429 . S
C531 C532 1.523 . S
C532 C513 1.368 . S
C532 C526 1.368 . S
C532 C531 1.523 . S
C533 C517 1.429 . S
C533 C529 1.429 . S
C533 C534 1.523 . S
C534 C518 1.368 . S
C534 C530 1.368 . S
C534 C533 1.523 . S
H535 C510 0.950 . S
H536 C512 0.950 . S
H537 C513 0.949 . S
H538 C515 0.950 . S
H539 C517 0.950 . S
C540 C541 1.349 . S
C540 C542 1.327 . S
C540 H565 0.950 . S
C541 C540 1.349 . S
C541 C557 1.349 . S
C542 C540 1.327 . S
C542 C561 1.429 . S
C542 H566 0.950 . S
C543 C560 1.574 . S
C543 C562 1.368 . S
C543 H567 0.949 . S
H544 C548 0.949 . S
C545 C546 1.349 . S
C545 C547 1.327 . S
C545 H568 0.950 . S
C546 C545 1.349 . S
C546 C558 1.349 . S
C547 C545 1.327 . S
C547 C563 1.429 . S
C547 H569 0.950 . S
C548 H544 0.949 . S
C548 C556 1.574 . S
C548 C564 1.368 . S
H549 C557 0.950 . S
H550 C555 0.950 . S
H551 C556 0.949 . S
H552 C558 0.950 . S
H553 C559 0.950 . S
H554 C560 0.949 . S
C555 H550 0.950 . S
C555 C557 1.327 . S
C555 C561 1.429 . S
C556 C548 1.574 . S
C556 H551 0.949 . S
C556 C562 1.368 . S
C557 C541 1.349 . S
C557 H549 0.950 . S
C557 C555 1.327 . S
C558 C546 1.349 . S
C558 H552 0.950 . S
C558 C559 1.327 . S
C559 H553 0.950 . S
C559 C558 1.327 . S
C559 C563 1.429 . S
C560 C543 1.574 . S
C560 H554 0.949 . S
C560 C564 1.368 . S
C561 C542 1.429 . S
C561 C555 1.429 . S
C561 C562 1.523 . S
C562 C543 1.368 . S
C562 C556 1.368 . S
C562 C561 1.523 . S
C563 C547 1.429 . S
C563 C559 1.429 . S
C563 C564 1.523 . S
C564 C548 1.368 . S
C564 C560 1.368 . S
C564 C563 1.523 . S
H565 C540 0.950 . S
H566 C542 0.950 . S
H567 C543 0.949 . S
H568 C545 0.950 . S
H569 C547 0.950 . S
C570 C571 1.349 . S
C570 C572 1.327 . S
C570 H595 0.950 . S
C571 C570 1.349 . S
C571 C587 1.349 . S
C572 C570 1.327 . S
C572 C591 1.429 . S
C572 H596 0.950 . S
C573 C590 1.574 . S
C573 C592 1.368 . S
C573 H597 0.949 . S
H574 C578 0.949 . S
C575 C576 1.349 . S
C575 C577 1.327 . S
C575 H598 0.950 . S
C576 C575 1.349 . S
C576 C588 1.349 . S
C577 C575 1.327 . S
C577 C593 1.429 . S
C577 H599 0.950 . S
C578 H574 0.949 . S
C578 C586 1.574 . S
C578 C594 1.368 . S
H579 C587 0.950 . S
H580 C585 0.950 . S
H581 C586 0.949 . S
H582 C588 0.950 . S
H583 C589 0.950 . S
H584 C590 0.949 . S
C585 H580 0.950 . S
C585 C587 1.327 . S
C585 C591 1.429 . S
C586 C578 1.574 . S
C586 H581 0.949 . S
C586 C592 1.368 . S
C587 C571 1.349 . S
C587 H579 0.950 . S
C587 C585 1.327 . S
C588 C576 1.349 . S
C588 H582 0.950 . S
C588 C589 1.327 . S
C589 H583 0.950 . S
C589 C588 1.327 . S
C589 C593 1.429 . S
C590 C573 1.574 . S
C590 H584 0.949 . S
C590 C594 1.368 . S
C591 C572 1.429 . S
C591 C585 1.429 . S
C591 C592 1.523 . S
C592 C573 1.368 . S
C592 C586 1.368 . S
C592 C591 1.523 . S
C593 C577 1.429 . S
C593 C589 1.429 . S
C593 C594 1.523 . S
C594 C578 1.368 . S
C594 C590 1.368 . S
C594 C593 1.523 . S
H595 C570 0.950 . S
H596 C572 0.950 . S
H597 C573 0.949 . S
H598 C575 0.950 . S
H599 C577 0.950 . S
C600 C601 1.349 . S
C600 C602 1.327 . S
C600 H625 0.950 . S
C601 C600 1.349 . S
C601 C617 1.349 . S
C602 C600 1.327 . S
C602 C621 1.429 . S
C602 H626 0.950 . S
C603 C620 1.574 . S
C603 C622 1.368 . S
C603 H627 0.949 . S
H604 C608 0.949 . S
C605 C606 1.349 . S
C605 C607 1.327 . S
C605 H628 0.950 . S
C606 C605 1.349 . S
C606 C618 1.349 . S
C607 C605 1.327 . S
C607 C623 1.429 . S
C607 H629 0.950 . S
C608 H604 0.949 . S
C608 C616 1.574 . S
C608 C624 1.368 . S
H609 C617 0.950 . S
H610 C615 0.950 . S
H611 C616 0.949 . S
H612 C618 0.950 . S
H613 C619 0.950 . S
H614 C620 0.949 . S
C615 H610 0.950 . S
C615 C617 1.327 . S
C615 C621 1.429 . S
C616 C608 1.574 . S
C616 H611 0.949 . S
C616 C622 1.368 . S
C617 C601 1.349 . S
C617 H609 0.950 . S
C617 C615 1.327 . S
C618 C606 1.349 . S
C618 H612 0.950 . S
C618 C619 1.327 . S
C619 H613 0.950 . S
C619 C618 1.327 . S
C619 C623 1.429 . S
C620 C603 1.574 . S
C620 H614 0.949 . S
C620 C624 1.368 . S
C621 C602 1.429 . S
C621 C615 1.429 . S
C621 C622 1.523 . S
C622 C603 1.368 . S
C622 C616 1.368 . S
C622 C621 1.523 . S
C623 C607 1.429 . S
C623 C619 1.429 . S
C623 C624 1.523 . S
C624 C608 1.368 . S
C624 C620 1.368 . S
C624 C623 1.523 . S
H625 C600 0.950 . S
H626 C602 0.950 . S
H627 C603 0.949 . S
H628 C605 0.950 . S
H629 C607 0.950 . S
C630 C631 1.349 . S
C630 C632 1.327 . S
C630 H655 0.950 . S
C631 C630 1.349 . S
C631 C647 1.349 . S
C632 C630 1.327 . S
C632 C651 1.429 . S
C632 H656 0.950 . S
C633 C650 1.574 . S
C633 C652 1.368 . S
C633 H657 0.949 . S
H634 C638 0.949 . S
C635 C636 1.349 . S
C635 C637 1.327 . S
C635 H658 0.950 . S
C636 C635 1.349 . S
C636 C648 1.349 . S
C637 C635 1.327 . S
C637 C653 1.429 . S
C637 H659 0.950 . S
C638 H634 0.949 . S
C638 C646 1.574 . S
C638 C654 1.368 . S
H639 C647 0.950 . S
H640 C645 0.950 . S
H641 C646 0.949 . S
H642 C648 0.950 . S
H643 C649 0.950 . S
H644 C650 0.949 . S
C645 H640 0.950 . S
C645 C647 1.327 . S
C645 C651 1.429 . S
C646 C638 1.574 . S
C646 H641 0.949 . S
C646 C652 1.368 . S
C647 C631 1.349 . S
C647 H639 0.950 . S
C647 C645 1.327 . S
C648 C636 1.349 . S
C648 H642 0.950 . S
C648 C649 1.327 . S
C649 H643 0.950 . S
C649 C648 1.327 . S
C649 C653 1.429 . S
C650 C633 1.574 . S
C650 H644 0.949 . S
C650 C654 1.368 . S
C651 C632 1.429 . S
C651 C645 1.429 . S
C651 C652 1.523 . S
C652 C633 1.368 . S
C652 C646 1.368 . S
C652 C651 1.523 . S
C653 C637 1.429 . S
C653 C649 1.429 . S
C653 C654 1.523 . S
C654 C638 1.368 . S
C654 C650 1.368 . S
C654 C653 1.523 . S
H655 C630 0.950 . S
H656 C632 0.950 . S
H657 C633 0.949 . S
H658 C635 0.950 . S
H659 C637 0.950 . S
C660 C661 1.349 . S
C660 C662 1.327 . S
C660 H685 0.950 . S
C661 C660 1.349 . S
C661 C677 1.349 . S
C662 C660 1.327 . S
C662 C681 1.429 . S
C662 H686 0.950 . S
C663 C680 1.574 . S
C663 C682 1.368 . S
C663 H687 0.949 . S
H664 C668 0.949 . S
C665 C666 1.349 . S
C665 C667 1.327 . S
C665 H688 0.950 . S
C666 C665 1.349 . S
C666 C678 1.349 . S
C667 C665 1.327 . S
C667 C683 1.429 . S
C667 H689 0.950 . S
C668 H664 0.949 . S
C668 C676 1.574 . S
C668 C684 1.368 . S
H669 C677 0.950 . S
H670 C675 0.950 . S
H671 C676 0.949 . S
H672 C678 0.950 . S
H673 C679 0.950 . S
H674 C680 0.949 . S
C675 H670 0.950 . S
C675 C677 1.327 . S
C675 C681 1.429 . S
C676 C668 1.574 . S
C676 H671 0.949 . S
C676 C682 1.368 . S
C677 C661 1.349 . S
C677 H669 0.950 . S
C677 C675 1.327 . S
C678 C666 1.349 . S
C678 H672 0.950 . S
C678 C679 1.327 . S
C679 H673 0.950 . S
C679 C678 1.327 . S
C679 C683 1.429 . S
C680 C663 1.574 . S
C680 H674 0.949 . S
C680 C684 1.368 . S
C681 C662 1.429 . S
C681 C675 1.429 . S
C681 C682 1.523 . S
C682 C663 1.368 . S
C682 C676 1.368 . S
C682 C681 1.523 . S
C683 C667 1.429 . S
C683 C679 1.429 . S
C683 C684 1.523 . S
C684 C668 1.368 . S
C684 C680 1.368 . S
C684 C683 1.523 . S
H685 C660 0.950 . S
H686 C662 0.950 . S
H687 C663 0.949 . S
H688 C665 0.950 . S
H689 C667 0.950 . S
C690 C691 1.349 . S
C690 C692 1.327 . S
C690 H715 0.950 . S
C691 C690 1.349 . S
C691 C707 1.349 . S
C692 C690 1.327 . S
C692 C711 1.429 . S
C692 H716 0.950 . S
C693 C710 1.574 . S
C693 C712 1.368 . S
C693 H717 0.949 . S
H694 C698 0.949 . S
C695 C696 1.349 . S
C695 C697 1.327 . S
C695 H718 0.950 . S
C696 C695 1.349 . S
C696 C708 1.349 . S
C697 C695 1.327 . S
C697 C713 1.429 . S
C697 H719 0.950 . S
C698 H694 0.949 . S
C698 C706 1.574 . S
C698 C714 1.368 . S
H699 C707 0.950 . S
H700 C705 0.950 . S
H701 C706 0.949 . S
H702 C708 0.950 . S
H703 C709 0.950 . S
H704 C710 0.949 . S
C705 H700 0.950 . S
C705 C707 1.327 . S
C705 C711 1.429 . S
C706 C698 1.574 . S
C706 H701 0.949 . S
C706 C712 1.368 . S
C707 C691 1.349 . S
C707 H699 0.950 . S
C707 C705 1.327 . S
C708 C696 1.349 . S
C708 H702 0.950 . S
C708 C709 1.327 . S
C709 H703 0.950 . S
C709 C708 1.327 . S
C709 C713 1.429 . S
C710 C693 1.574 . S
C710 H704 0.949 . S
C710 C714 1.368 . S
C711 C692 1.429 . S
C711 C705 1.429 . S
C711 C712 1.523 . S
C712 C693 1.368 . S
C712 C706 1.368 . S
C712 C711 1.523 . S
C713 C697 1.429 . S
C713 C709 1.429 . S
C713 C714 1.523 . S
C714 C698 1.368 . S
C714 C710 1.368 . S
C714 C713 1.523 . S
H715 C690 0.950 . S
H716 C692 0.950 . S
H717 C693 0.949 . S
H718 C695 0.950 . S
H719 C697 0.950 . S
C720 C721 1.349 . S
C720 C722 1.327 . S
C720 H745 0.950 . S
C721 C720 1.349 . S
C721 C737 1.349 . S
C722 C720 1.327 . S
C722 C741 1.429 . S
C722 H746 0.950 . S
C723 C740 1.574 . S
C723 C742 1.368 . S
C723 H747 0.949 . S
H724 C728 0.949 . S
C725 C726 1.349 . S
C725 C727 1.327 . S
C725 H748 0.950 . S
C726 C725 1.349 . S
C726 C738 1.349 . S
C727 C725 1.327 . S
C727 C743 1.429 . S
C727 H749 0.950 . S
C728 H724 0.949 . S
C728 C736 1.574 . S
C728 C744 1.368 . S
H729 C737 0.950 . S
H730 C735 0.950 . S
H731 C736 0.949 . S
H732 C738 0.950 . S
H733 C739 0.950 . S
H734 C740 0.949 . S
C735 H730 0.950 . S
C735 C737 1.327 . S
C735 C741 1.429 . S
C736 C728 1.574 . S
C736 H731 0.949 . S
C736 C742 1.368 . S
C737 C721 1.349 . S
C737 H729 0.950 . S
C737 C735 1.327 . S
C738 C726 1.349 . S
C738 H732 0.950 . S
C738 C739 1.327 . S
C739 H733 0.950 . S
C739 C738 1.327 . S
C739 C743 1.429 . S
C740 C723 1.574 . S
C740 H734 0.949 . S
C740 C744 1.368 . S
C741 C722 1.429 . S
C741 C735 1.429 . S
C741 C742 1.523 . S
C742 C723 1.368 . S
C742 C736 1.368 . S
C742 C741 1.523 . S
C743 C727 1.429 . S
C743 C739 1.429 . S
C743 C744 1.523 . S
C744 C728 1.368 . S
C744 C740 1.368 . S
C744 C743 1.523 . S
H745 C720 0.950 . S
H746 C722 0.950 . S
H747 C723 0.949 . S
H748 C725 0.950 . S
H749 C727 0.950 . S
C750 C751 1.349 . S
C750 C752 1.327 . S
C750 H775 0.950 . S
C751 C750 1.349 . S
C751 C767 1.349 . S
C752 C750 1.327 . S
C752 C771 1.429 . S
C752 H776 0.950 . S
C753 C770 1.574 . S
C753 C772 1.368 . S
C753 H777 0.949 . S
H754 C758 0.949 . S
C755 C756 1.349 . S
C755 C757 1.327 . S
C755 H778 0.950 . S
C756 C755 1.349 . S
C756 C768 1.349 . S
C757 C755 1.327 . S
C757 C773 1.429 . S
C757 H779 0.950 . S
C758 H754 0.949 . S
C758 C766 1.574 . S
C758 C774 1.368 . S
H759 C767 0.950 . S
H760 C765 0.950 . S
H761 C766 0.949 . S
H762 C768 0.950 . S
H763 C769 0.950 . S
H764 C770 0.949 . S
C765 H760 0.950 . S
C765 C767 1.327 . S
C765 C771 1.429 . S
C766 C758 1.574 . S
C766 H761 0.949 . S
C766 C772 1.368 . S
C767 C751 1.349 . S
C767 H759 0.950 . S
C767 C765 1.327 . S
C768 C756 1.349 . S
C768 H762 0.950 . S
C768 C769 1.327 . S
C769 H763 0.950 . S
C769 C768 1.327 . S
C769 C773 1.429 . S
C770 C753 1.574 . S
C770 H764 0.949 . S
C770 C774 1.368 . S
C771 C752 1.429 . S
C771 C765 1.429 . S
C771 C772 1.523 . S
C772 C753 1.368 . S
C772 C766 1.368 . S
C772 C771 1.523 . S
C773 C757 1.429 . S
C773 C769 1.429 . S
C773 C774 1.523 . S
C774 C758 1.368 . S
C774 C770 1.368 . S
C774 C773 1.523 . S
H775 C750 0.950 . S
H776 C752 0.950 . S
H777 C753 0.949 . S
H778 C755 0.950 . S
H779 C757 0.950 . S
C780 C781 1.349 . S
C780 C782 1.327 . S
C780 H805 0.950 . S
C781 C780 1.349 . S
C781 C797 1.349 . S
C782 C780 1.327 . S
C782 C801 1.429 . S
C782 H806 0.950 . S
C783 C800 1.574 . S
C783 C802 1.368 . S
C783 H807 0.949 . S
H784 C788 0.949 . S
C785 C786 1.349 . S
C785 C787 1.327 . S
C785 H808 0.950 . S
C786 C785 1.349 . S
C786 C798 1.349 . S
C787 C785 1.327 . S
C787 C803 1.429 . S
C787 H809 0.950 . S
C788 H784 0.949 . S
C788 C796 1.574 . S
C788 C804 1.368 . S
H789 C797 0.950 . S
H790 C795 0.950 . S
H791 C796 0.949 . S
H792 C798 0.950 . S
H793 C799 0.950 . S
H794 C800 0.949 . S
C795 H790 0.950 . S
C795 C797 1.327 . S
C795 C801 1.429 . S
C796 C788 1.574 . S
C796 H791 0.949 . S
C796 C802 1.368 . S
C797 C781 1.349 . S
C797 H789 0.950 . S
C797 C795 1.327 . S
C798 C786 1.349 . S
C798 H792 0.950 . S
C798 C799 1.327 . S
C799 H793 0.950 . S
C799 C798 1.327 . S
C799 C803 1.429 . S
C800 C783 1.574 . S
C800 H794 0.949 . S
C800 C804 1.368 . S
C801 C782 1.429 . S
C801 C795 1.429 . S
C801 C802 1.523 . S
C802 C783 1.368 . S
C802 C796 1.368 . S
C802 C801 1.523 . S
C803 C787 1.429 . S
C803 C799 1.429 . S
C803 C804 1.523 . S
C804 C788 1.368 . S
C804 C800 1.368 . S
C804 C803 1.523 . S
H805 C780 0.950 . S
H806 C782 0.950 . S
H807 C783 0.949 . S
H808 C785 0.950 . S
H809 C787 0.950 . S
C810 C811 1.349 . S
C810 C812 1.327 . S
C810 H835 0.950 . S
C811 C810 1.349 . S
C811 C827 1.349 . S
C812 C810 1.327 . S
C812 C831 1.429 . S
C812 H836 0.950 . S
C813 C830 1.574 . S
C813 C832 1.368 . S
C813 H837 0.949 . S
H814 C818 0.949 . S
C815 C816 1.349 . S
C815 C817 1.327 . S
C815 H838 0.950 . S
C816 C815 1.349 . S
C816 C828 1.349 . S
C817 C815 1.327 . S
C817 C833 1.429 . S
C817 H839 0.950 . S
C818 H814 0.949 . S
C818 C826 1.574 . S
C818 C834 1.368 . S
H819 C827 0.950 . S
H820 C825 0.950 . S
H821 C826 0.949 . S
H822 C828 0.950 . S
H823 C829 0.950 . S
H824 C830 0.949 . S
C825 H820 0.950 . S
C825 C827 1.327 . S
C825 C831 1.429 . S
C826 C818 1.574 . S
C826 H821 0.949 . S
C826 C832 1.368 . S
C827 C811 1.349 . S
C827 H819 0.950 . S
C827 C825 1.327 . S
C828 C816 1.349 . S
C828 H822 0.950 . S
C828 C829 1.327 . S
C829 H823 0.950 . S
C829 C828 1.327 . S
C829 C833 1.429 . S
C830 C813 1.574 . S
C830 H824 0.949 . S
C830 C834 1.368 . S
C831 C812 1.429 . S
C831 C825 1.429 . S
C831 C832 1.523 . S
C832 C813 1.368 . S
C832 C826 1.368 . S
C832 C831 1.523 . S
C833 C817 1.429 . S
C833 C829 1.429 . S
C833 C834 1.523 . S
C834 C818 1.368 . S
C834 C830 1.368 . S
C834 C833 1.523 . S
H835 C810 0.950 . S
H836 C812 0.950 . S
H837 C813 0.949 . S
H838 C815 0.950 . S
H839 C817 0.950 . S
C840 C841 1.349 . S
C840 C842 1.327 . S
C840 H865 0.950 . S
C841 C840 1.349 . S
C841 C857 1.349 . S
C842 C840 1.327 . S
C842 C861 1.429 . S
C842 H866 0.950 . S
C843 C860 1.574 . S
C843 C862 1.368 . S
C843 H867 0.949 . S
H844 C848 0.949 . S
C845 C846 1.349 . S
C845 C847 1.327 . S
C845 H868 0.950 . S
C846 C845 1.349 . S
C846 C858 1.349 . S
C847 C845 1.327 . S
C847 C863 1.429 . S
C847 H869 0.950 . S
C848 H844 0.949 . S
C848 C856 1.574 . S
C848 C864 1.368 . S
H849 C857 0.950 . S
H850 C855 0.950 . S
H851 C856 0.949 . S
H852 C858 0.950 . S
H853 C859 0.950 . S
H854 C860 0.949 . S
C855 H850 0.950 . S
C855 C857 1.327 . S
C855 C861 1.429 . S
C856 C848 1.574 . S
C856 H851 0.949 . S
C856 C862 1.368 . S
C857 C841 1.349 . S
C857 H849 0.950 . S
C857 C855 1.327 . S
C858 C846 1.349 . S
C858 H852 0.950 . S
C858 C859 1.327 . S
C859 H853 0.950 . S
C859 C858 1.327 . S
C859 C863 1.429 . S
C860 C843 1.574 . S
C860 H854 0.949 . S
C860 C864 1.368 . S
C861 C842 1.429 . S
C861 C855 1.429 . S
C861 C862 1.523 . S
C862 C843 1.368 . S
C862 C856 1.368 . S
C862 C861 1.523 . S
C863 C847 1.429 . S
C863 C859 1.429 . S
C863 C864 1.523 . S
C864 C848 1.368 . S
C864 C860 1.368 . S
C864 C863 1.523 . S
H865 C840 0.950 . S
H866 C842 0.950 . S
H867 C843 0.949 . S
H868 C845 0.950 . S
H869 C847 0.950 . S
C870 C871 1.349 . S
C870 C872 1.327 . S
C870 H895 0.950 . S
C871 C870 1.349 . S
C871 C887 1.349 . S
C872 C870 1.327 . S
C872 C891 1.429 . S
C872 H896 0.950 . S
C873 C890 1.574 . S
C873 C892 1.368 . S
C873 H897 0.949 . S
H874 C878 0.949 . S
C875 C876 1.349 . S
C875 C877 1.327 . S
C875 H898 0.950 . S
C876 C875 1.349 . S
C876 C888 1.349 . S
C877 C875 1.327 . S
C877 C893 1.429 . S
C877 H899 0.950 . S
C878 H874 0.949 . S
C878 C886 1.574 . S
C878 C894 1.368 . S
H879 C887 0.950 . S
H880 C885 0.950 . S
H881 C886 0.949 . S
H882 C888 0.950 . S
H883 C889 0.950 . S
H884 C890 0.949 . S
C885 H880 0.950 . S
C885 C887 1.327 . S
C885 C891 1.429 . S
C886 C878 1.574 . S
C886 H881 0.949 . S
C886 C892 1.368 . S
C887 C871 1.349 . S
C887 H879 0.950 . S
C887 C885 1.327 . S
C888 C876 1.349 . S
C888 H882 0.950 . S
C888 C889 1.327 . S
C889 H883 0.950 . S
C889 C888 1.327 . S
C889 C893 1.429 . S
C890 C873 1.574 . S
C890 H884 0.949 . S
C890 C894 1.368 . S
C891 C872 1.429 . S
C891 C885 1.429 . S
C891 C892 1.523 . S
C892 C873 1.368 . S
C892 C886 1.368 . S
C892 C891 1.523 . S
C893 C877 1.429 . S
C893 C889 1.429 . S
C893 C894 1.523 . S
C894 C878 1.368 . S
C894 C890 1.368 . S
C894 C893 1.523 . S
H895 C870 0.950 . S
H896 C872 0.950 . S
H897 C873 0.949 . S
H898 C875 0.950 . S
H899 C877 0.950 . S
C900 C901 1.349 . S
C900 C902 1.327 . S
C900 H925 0.950 . S
C901 C900 1.349 . S
C901 C917 1.349 . S
C902 C900 1.327 . S
C902 C921 1.429 . S
C902 H926 0.950 . S
C903 C920 1.574 . S
C903 C922 1.368 . S
C903 H927 0.949 . S
H904 C908 0.949 . S
C905 C906 1.349 . S
C905 C907 1.327 . S
C905 H928 0.950 . S
C906 C905 1.349 . S
C906 C918 1.349 . S
C907 C905 1.327 . S
C907 C923 1.429 . S
C907 H929 0.950 . S
C908 H904 0.949 . S
C908 C916 1.574 . S
C908 C924 1.368 . S
H909 C917 0.950 . S
H910 C915 0.950 . S
H911 C916 0.949 . S
H912 C918 0.950 . S
H913 C919 0.950 . S
H914 C920 0.949 . S
C915 H910 0.950 . S
C915 C917 1.327 . S
C915 C921 1.429 . S
C916 C908 1.574 . S
C916 H911 0.949 . S
C916 C922 1.368 . S
C917 C901 1.349 . S
C917 H909 0.950 . S
C917 C915 1.327 . S
C918 C906 1.349 . S
C918 H912 0.950 . S
C918 C919 1.327 . S
C919 H913 0.950 . S
C919 C918 1.327 . S
C919 C923 1.429 . S
C920 C903 1.574 . S
C920 H914 0.949 . S
C920 C924 1.368 . S
C921 C902 1.429 . S
C921 C915 1.429 . S
C921 C922 1.523 . S
C922 C903 1.368 . S
C922 C916 1.368 . S
C922 C921 1.523 . S
C923 C907 1.429 . S
C923 C919 1.429 . S
C923 C924 1.523 . S
C924 C908 1.368 . S
C924 C920 1.368 . S
C924 C923 1.523 . S
H925 C900 0.950 . S
H926 C902 0.950 . S
H927 C903 0.949 . S
H928 C905 0.950 . S
H929 C907 0.950 . S
C930 C931 1.349 . S
C930 C932 1.327 . S
C930 H955 0.950 . S
C931 C930 1.349 . S
C931 C947 1.349 . S
C932 C930 1.327 . S
C932 C951 1.429 . S
C932 H956 0.950 . S
C933 C950 1.574 . S
C933 C952 1.368 . S
C933 H957 0.949 . S
H934 C938 0.949 . S
C935 C936 1.349 . S
C935 C937 1.327 . S
C935 H958 0.950 . S
C936 C935 1.349 . S
C936 C948 1.349 . S
C937 C935 1.327 . S
C937 C953 1.429 . S
C937 H959 0.950 . S
C938 H934 0.949 . S
C938 C946 1.574 . S
C938 C954 1.368 . S
H939 C947 0.950 . S
H940 C945 0.950 . S
H941 C946 0.949 . S
H942 C948 0.950 . S
H943 C949 0.950 . S
H944 C950 0.949 . S
C945 H940 0.950 . S
C945 C947 1.327 . S
C945 C951 1.429 . S
C946 C938 1.574 . S
C946 H941 0.949 . S
C946 C952 1.368 . S
C947 C931 1.349 . S
C947 H939 0.950 . S
C947 C945 1.327 . S
C948 C936 1.349 . S
C948 H942 0.950 . S
C948 C949 1.327 . S
C949 H943 0.950 . S
C949 C948 1.327 . S
C949 C953 1.429 . S
C950 C933 1.574 . S
C950 H944 0.949 . S
C950 C954 1.368 . S
C951 C932 1.429 . S
C951 C945 1.429 . S
C951 C952 1.523 . S
C952 C933 1.368 . S
C952 C946 1.368 . S
C952 C951 1.523 . S
C953 C937 1.429 . S
C953 C949 1.429 . S
C953 C954 1.523 . S
C954 C938 1.368 . S
C954 C950 1.368 . S
C954 C953 1.523 . S
H955 C930 0.950 . S
H956 C932 0.950 . S
H957 C933 0.949 . S
H958 C935 0.950 . S
H959 C937 0.950 . S
C960 C961 1.349 . S
C960 C962 1.327 . S
C960 H985 0.950 . S
C961 C960 1.349 . S
C961 C977 1.349 . S
C962 C960 1.327 . S
C962 C981 1.429 . S
C962 H986 0.950 . S
C963 C980 1.574 . S
C963 C982 1.368 . S
C963 H987 0.949 . S
H964 C968 0.949 . S
C965 C966 1.349 . S
C965 C967 1.327 . S
C965 H988 0.950 . S
C966 C965 1.349 . S
C966 C978 1.349 . S
C967 C965 1.327 . S
C967 C983 1.429 . S
C967 H989 0.950 . S
C968 H964 0.949 . S
C968 C976 1.574 . S
C968 C984 1.368 . S
H969 C977 0.950 . S
H970 C975 0.950 . S
H971 C976 0.949 . S
H972 C978 0.950 . S
H973 C979 0.950 . S
H974 C980 0.949 . S
C975 H970 0.950 . S
C975 C977 1.327 . S
C975 C981 1.429 . S
C976 C968 1.574 . S
C976 H971 0.949 . S
C976 C982 1.368 . S
C977 C961 1.349 . S
C977 H969 0.950 . S
C977 C975 1.327 . S
C978 C966 1.349 . S
C978 H972 0.950 . S
C978 C979 1.327 . S
C979 H973 0.950 . S
C979 C978 1.327 . S
C979 C983 1.429 . S
C980 C963 1.574 . S
C980 H974 0.949 . S
C980 C984 1.368 . S
C981 C962 1.429 . S
C981 C975 1.429 . S
C981 C982 1.523 . S
C982 C963 1.368 . S
C982 C976 1.368 . S
C982 C981 1.523 . S
C983 C967 1.429 . S
C983 C979 1.429 . S
C983 C984 1.523 . S
C984 C968 1.368 . S
C984 C980 1.368 . S
C984 C983 1.523 . S
H985 C960 0.950 . S
H986 C962 0.950 . S
H987 C963 0.949 . S
H988 C965 0.950 . S
H989 C967 0.950 . S
C990 C991 1.349 . S
C990 C992 1.327 . S
C990 H1015 0.950 . S
C991 C990 1.349 . S
C991 C1007 1.349 . S
C992 C990 1.327 . S
C992 C1011 1.429 . S
C992 H1016 0.950 . S
C993 C1010 1.574 . S
C993 C1012 1.368 . S
C993 H1017 0.949 . S
H994 C998 0.949 . S
C995 C996 1.349 . S
C995 C997 1.327 . S
C995 H1018 0.950 . S
C996 C995 1.349 . S
C996 C1008 1.349 . S
C997 C995 1.327 . S
C997 C1013 1.429 . S
C997 H1019 0.950 . S
C998 H994 0.949 . S
C998 C1006 1.574 . S
C998 C1014 1.368 . S
H999 C1007 0.950 . S
H1000 C1005 0.950 . S
H1001 C1006 0.949 . S
H1002 C1008 0.950 . S
H1003 C1009 0.950 . S
H1004 C1010 0.949 . S
C1005 H1000 0.950 . S
C1005 C1007 1.327 . S
C1005 C1011 1.429 . S
C1006 C998 1.574 . S
C1006 H1001 0.949 . S
C1006 C1012 1.368 . S
C1007 C991 1.349 . S
C1007 H999 0.950 . S
C1007 C1005 1.327 . S
C1008 C996 1.349 . S
C1008 H1002 0.950 . S
C1008 C1009 1.327 . S
C1009 H1003 0.950 . S
C1009 C1008 1.327 . S
C1009 C1013 1.429 . S
C1010 C993 1.574 . S
C1010 H1004 0.949 . S
C1010 C1014 1.368 . S
C1011 C992 1.429 . S
C1011 C1005 1.429 . S
C1011 C1012 1.523 . S
C1012 C993 1.368 . S
C1012 C1006 1.368 . S
C1012 C1011 1.523 . S
C1013 C997 1.429 . S
C1013 C1009 1.429 . S
C1013 C1014 1.523 . S
C1014 C998 1.368 . S
C1014 C1010 1.368 . S
C1014 C1013 1.523 . S
H1015 C990 0.950 . S
H1016 C992 0.950 . S
H1017 C993 0.949 . S
H1018 C995 0.950 . S
H1019 C997 0.950 . S
C1020 C1021 1.349 . S
C1020 C1022 1.327 . S
C1020 H1045 0.950 . S
C1021 C1020 1.349 . S
C1021 C1037 1.349 . S
C1022 C1020 1.327 . S
C1022 C1041 1.429 . S
C1022 H1046 0.950 . S
C1023 C1040 1.574 . S
C1023 C1042 1.368 . S
C1023 H1047 0.949 . S
H1024 C1028 0.949 . S
C1025 C1026 1.349 . S
C1025 C1027 1.327 . S
C1025 H1048 0.950 . S
C1026 C1025 1.349 . S
C1026 C1038 1.349 . S
C1027 C1025 1.327 . S
C1027 C1043 1.429 . S
C1027 H1049 0.950 . S
C1028 H1024 0.949 . S
C1028 C1036 1.574 . S
C1028 C1044 1.368 . S
H1029 C1037 0.950 . S
H1030 C1035 0.950 . S
H1031 C1036 0.949 . S
H1032 C1038 0.950 . S
H1033 C1039 0.950 . S
H1034 C1040 0.949 . S
C1035 H1030 0.950 . S
C1035 C1037 1.327 . S
C1035 C1041 1.429 . S
C1036 C1028 1.574 . S
C1036 H1031 0.949 . S
C1036 C1042 1.368 . S
C1037 C1021 1.349 . S
C1037 H1029 0.950 . S
C1037 C1035 1.327 . S
C1038 C1026 1.349 . S
C1038 H1032 0.950 . S
C1038 C1039 1.327 . S
C1039 H1033 0.950 . S
C1039 C1038 1.327 . S
C1039 C1043 1.429 . S
C1040 C1023 1.574 . S
C1040 H1034 0.949 . S
C1040 C1044 1.368 . S
C1041 C1022 1.429 . S
C1041 C1035 1.429 . S
C1041 C1042 1.523 . S
C1042 C1023 1.368 . S
C1042 C1036 1.368 . S
C1042 C1041 1.523 . S
C1043 C1027 1.429 . S
C1043 C1039 1.429 . S
C1043 C1044 1.523 . S
C1044 C1028 1.368 . S
C1044 C1040 1.368 . S
C1044 C1043 1.523 . S
H1045 C1020 0.950 . S
H1046 C1022 0.950 . S
H1047 C1023 0.949 . S
H1048 C1025 0.950 . S
H1049 C1027 0.950 . S
C1050 C1051 1.349 . S
C1050 C1052 1.327 . S
C1050 H1075 0.950 . S
C1051 C1050 1.349 . S
C1051 C1067 1.349 . S
C1052 C1050 1.327 . S
C1052 C1071 1.429 . S
C1052 H1076 0.950 . S
C1053 C1070 1.574 . S
C1053 C1072 1.368 . S
C1053 H1077 0.949 . S
H1054 C1058 0.949 . S
C1055 C1056 1.349 . S
C1055 C1057 1.327 . S
C1055 H1078 0.950 . S
C1056 C1055 1.349 . S
C1056 C1068 1.349 . S
C1057 C1055 1.327 . S
C1057 C1073 1.429 . S
C1057 H1079 0.950 . S
C1058 H1054 0.949 . S
C1058 C1066 1.574 . S
C1058 C1074 1.368 . S
H1059 C1067 0.950 . S
H1060 C1065 0.950 . S
H1061 C1066 0.949 . S
H1062 C1068 0.950 . S
H1063 C1069 0.950 . S
H1064 C1070 0.949 . S
C1065 H1060 0.950 . S
C1065 C1067 1.327 . S
C1065 C1071 1.429 . S
C1066 C1058 1.574 . S
C1066 H1061 0.949 . S
C1066 C1072 1.368 . S
C1067 C1051 1.349 . S
C1067 H1059 0.950 . S
C1067 C1065 1.327 . S
C1068 C1056 1.349 . S
C1068 H1062 0.950 . S
C1068 C1069 1.327 . S
C1069 H1063 0.950 . S
C1069 C1068 1.327 . S
C1069 C1073 1.429 . S
C1070 C1053 1.574 . S
C1070 H1064 0.949 . S
C1070 C1074 1.368 . S
C1071 C1052 1.429 . S
C1071 C1065 1.429 . S
C1071 C1072 1.523 . S
C1072 C1053 1.368 . S
C1072 C1066 1.368 . S
C1072 C1071 1.523 . S
C1073 C1057 1.429 . S
C1073 C1069 1.429 . S
C1073 C1074 1.523 . S
C1074 C1058 1.368 . S
C1074 C1070 1.368 . S
C1074 C1073 1.523 . S
H1075 C1050 0.950 . S
H1076 C1052 0.950 . S
H1077 C1053 0.949 . S
H1078 C1055 0.950 . S
H1079 C1057 0.950 . S
C1080 C1081 1.349 . S
C1080 C1082 1.327 . S
C1080 H1105 0.950 . S
C1081 C1080 1.349 . S
C1081 C1097 1.349 . S
C1082 C1080 1.327 . S
C1082 C1101 1.429 . S
C1082 H1106 0.950 . S
C1083 C1100 1.574 . S
C1083 C1102 1.368 . S
C1083 H1107 0.949 . S
H1084 C1088 0.949 . S
C1085 C1086 1.349 . S
C1085 C1087 1.327 . S
C1085 H1108 0.950 . S
C1086 C1085 1.349 . S
C1086 C1098 1.349 . S
C1087 C1085 1.327 . S
C1087 C1103 1.429 . S
C1087 H1109 0.950 . S
C1088 H1084 0.949 . S
C1088 C1096 1.574 . S
C1088 C1104 1.368 . S
H1089 C1097 0.950 . S
H1090 C1095 0.950 . S
H1091 C1096 0.949 . S
H1092 C1098 0.950 . S
H1093 C1099 0.950 . S
H1094 C1100 0.949 . S
C1095 H1090 0.950 . S
C1095 C1097 1.327 . S
C1095 C1101 1.429 . S
C1096 C1088 1.574 . S
C1096 H1091 0.949 . S
C1096 C1102 1.368 . S
C1097 C1081 1.349 . S
C1097 H1089 0.950 . S
C1097 C1095 1.327 . S
C1098 C1086 1.349 . S
C1098 H1092 0.950 . S
C1098 C1099 1.327 . S
C1099 H1093 0.950 . S
C1099 C1098 1.327 . S
C1099 C1103 1.429 . S
C1100 C1083 1.574 . S
C1100 H1094 0.949 . S
C1100 C1104 1.368 . S
C1101 C1082 1.429 . S
C1101 C1095 1.429 . S
C1101 C1102 1.523 . S
C1102 C1083 1.368 . S
C1102 C1096 1.368 . S
C1102 C1101 1.523 . S
C1103 C1087 1.429 . S
C1103 C1099 1.429 . S
C1103 C1104 1.523 . S
C1104 C1088 1.368 . S
C1104 C1100 1.368 . S
C1104 C1103 1.523 . S
H1105 C1080 0.950 . S
H1106 C1082 0.950 . S
H1107 C1083 0.949 . S
H1108 C1085 0.950 . S
H1109 C1087 0.950 . S
C1110 C1111 1.349 . S
C1110 C1112 1.327 . S
C1110 H1135 0.950 . S
C1111 C1110 1.349 . S
C1111 C1127 1.349 . S
C1112 C1110 1.327 . S
C1112 C1131 1.429 . S
C1112 H1136 0.950 . S
C1113 C1130 1.574 . S
C1113 C1132 1.368 . S
C1113 H1137 0.949 . S
H1114 C1118 0.949 . S
C1115 C1116 1.349 . S
C1115 C1117 1.327 . S
C1115 H1138 0.950 . S
C1116 C1115 1.349 . S
C1116 C1128 1.349 . S
C1117 C1115 1.327 . S
C1117 C1133 1.429 . S
C1117 H1139 0.950 . S
C1118 H1114 0.949 . S
C1118 C1126 1.574 . S
C1118 C1134 1.368 . S
H1119 C1127 0.950 . S
H1120 C1125 0.950 . S
H1121 C1126 0.949 . S
H1122 C1128 0.950 . S
H1123 C1129 0.950 . S
H1124 C1130 0.949 . S
C1125 H1120 0.950 . S
C1125 C1127 1.327 . S
C1125 C1131 1.429 . S
C1126 C1118 1.574 . S
C1126 H1121 0.949 . S
C1126 C1132 1.368 . S
C1127 C1111 1.349 . S
C1127 H1119 0.950 . S
C1127 C1125 1.327 . S
C1128 C1116 1.349 . S
C1128 H1122 0.950 . S
C1128 C1129 1.327 . S
C1129 H1123 0.950 . S
C1129 C1128 1.327 . S
C1129 C1133 1.429 . S
C1130 C1113 1.574 . S
C1130 H1124 0.949 . S
C1130 C1134 1.368 . S
C1131 C1112 1.429 . S
C1131 C1125 1.429 . S
C1131 C1132 1.523 . S
C1132 C1113 1.368 . S
C1132 C1126 1.368 . S
C1132 C1131 1.523 . S
C1133 C1117 1.429 . S
C1133 C1129 1.429 . S
C1133 C1134 1.523 . S
C1134 C1118 1.368 . S
C1134 C1130 1.368 . S
C1134 C1133 1.523 . S
H1135 C1110 0.950 . S
H1136 C1112 0.950 . S
H1137 C1113 0.949 . S
H1138 C1115 0.950 . S
H1139 C1117 0.950 . S
C1140 C1141 1.349 . S
C1140 C1142 1.327 . S
C1140 H1165 0.950 . S
C1141 C1140 1.349 . S
C1141 C1157 1.349 . S
C1142 C1140 1.327 . S
C1142 C1161 1.429 . S
C1142 H1166 0.950 . S
C1143 C1160 1.574 . S
C1143 C1162 1.368 . S
C1143 H1167 0.949 . S
H1144 C1148 0.949 . S
C1145 C1146 1.349 . S
C1145 C1147 1.327 . S
C1145 H1168 0.950 . S
C1146 C1145 1.349 . S
C1146 C1158 1.349 . S
C1147 C1145 1.327 . S
C1147 C1163 1.429 . S
C1147 H1169 0.950 . S
C1148 H1144 0.949 . S
C1148 C1156 1.574 . S
C1148 C1164 1.368 . S
H1149 C1157 0.950 . S
H1150 C1155 0.950 . S
H1151 C1156 0.949 . S
H1152 C1158 0.950 . S
H1153 C1159 0.950 . S
H1154 C1160 0.949 . S
C1155 H1150 0.950 . S
C1155 C1157 1.327 . S
C1155 C1161 1.429 . S
C1156 C1148 1.574 . S
C1156 H1151 0.949 . S
C1156 C1162 1.368 . S
C1157 C1141 1.349 . S
C1157 H1149 0.950 . S
C1157 C1155 1.327 . S
C1158 C1146 1.349 . S
C1158 H1152 0.950 . S
C1158 C1159 1.327 . S
C1159 H1153 0.950 . S
C1159 C1158 1.327 . S
C1159 C1163 1.429 . S
C1160 C1143 1.574 . S
C1160 H1154 0.949 . S
C1160 C1164 1.368 . S
C1161 C1142 1.429 . S
C1161 C1155 1.429 . S
C1161 C1162 1.523 . S
C1162 C1143 1.368 . S
C1162 C1156 1.368 . S
C1162 C1161 1.523 . S
C1163 C1147 1.429 . S
C1163 C1159 1.429 . S
C1163 C1164 1.523 . S
C1164 C1148 1.368 . S
C1164 C1160 1.368 . S
C1164 C1163 1.523 . S
H1165 C1140 0.950 . S
H1166 C1142 0.950 . S
H1167 C1143 0.949 . S
H1168 C1145 0.950 . S
H1169 C1147 0.950 . S
C1170 C1171 1.349 . S
C1170 C1172 1.327 . S
C1170 H1195 0.950 . S
C1171 C1170 1.349 . S
C1171 C1187 1.349 . S
C1172 C1170 1.327 . S
C1172 C1191 1.429 . S
C1172 H1196 0.950 . S
C1173 C1190 1.574 . S
C1173 C1192 1.368 . S
C1173 H1197 0.949 . S
H1174 C1178 0.949 . S
C1175 C1176 1.349 . S
C1175 C1177 1.327 . S
C1175 H1198 0.950 . S
C1176 C1175 1.349 . S
C1176 C1188 1.349 . S
C1177 C1175 1.327 . S
C1177 C1193 1.429 . S
C1177 H1199 0.950 . S
C1178 H1174 0.949 . S
C1178 C1186 1.574 . S
C1178 C1194 1.368 . S
H1179 C1187 0.950 . S
H1180 C1185 0.950 . S
H1181 C1186 0.949 . S
H1182 C1188 0.950 . S
H1183 C1189 0.950 . S
H1184 C1190 0.949 . S
C1185 H1180 0.950 . S
C1185 C1187 1.327 . S
C1185 C1191 1.429 . S
C1186 C1178 1.574 . S
C1186 H1181 0.949 . S
C1186 C1192 1.368 . S
C1187 C1171 1.349 . S
C1187 H1179 0.950 . S
C1187 C1185 1.327 . S
C1188 C1176 1.349 . S
C1188 H1182 0.950 . S
C1188 C1189 1.327 . S
C1189 H1183 0.950 . S
C1189 C1188 1.327 . S
C1189 C1193 1.429 . S
C1190 C1173 1.574 . S
C1190 H1184 0.949 . S
C1190 C1194 1.368 . S
C1191 C1172 1.429 . S
C1191 C1185 1.429 . S
C1191 C1192 1.523 . S
C1192 C1173 1.368 . S
C1192 C1186 1.368 . S
C1192 C1191 1.523 . S
C1193 C1177 1.429 . S
C1193 C1189 1.429 . S
C1193 C1194 1.523 . S
C1194 C1178 1.368 . S
C1194 C1190 1.368 . S
C1194 C1193 1.523 . S
H1195 C1170 0.950 . S
H1196 C1172 0.950 . S
H1197 C1173 0.949 . S
H1198 C1175 0.950 . S
H1199 C1177 0.950 . S
C1200 C1201 1.349 . S
C1200 C1202 1.327 . S
C1200 H1225 0.950 . S
C1201 C1200 1.349 . S
C1201 C1217 1.349 . S
C1202 C1200 1.327 . S
C1202 C1221 1.429 . S
C1202 H1226 0.950 . S
C1203 C1220 1.574 . S
C1203 C1222 1.368 . S
C1203 H1227 0.949 . S
H1204 C1208 0.949 . S
C1205 C1206 1.349 . S
C1205 C1207 1.327 . S
C1205 H1228 0.950 . S
C1206 C1205 1.349 . S
C1206 C1218 1.349 . S
C1207 C1205 1.327 . S
C1207 C1223 1.429 . S
C1207 H1229 0.950 . S
C1208 H1204 0.949 . S
C1208 C1216 1.574 . S
C1208 C1224 1.368 . S
H1209 C1217 0.950 1_545 S
H1210 C1215 0.950 . S
H1211 C1216 0.949 . S
H1212 C1218 0.950 . S
H1213 C1219 0.950 . S
H1214 C1220 0.949 . S
C1215 H1210 0.950 . S
C1215 C1217 1.327 . S
C1215 C1221 1.429 . S
C1216 C1208 1.574 . S
C1216 H1211 0.949 . S
C1216 C1222 1.368 . S
C1217 C1201 1.349 . S
C1217 H1209 0.950 1_565 S
C1217 C1215 1.327 . S
C1218 C1206 1.349 . S
C1218 H1212 0.950 . S
C1218 C1219 1.327 . S
C1219 H1213 0.950 . S
C1219 C1218 1.327 . S
C1219 C1223 1.429 . S
C1220 C1203 1.574 . S
C1220 H1214 0.949 . S
C1220 C1224 1.368 . S
C1221 C1202 1.429 . S
C1221 C1215 1.429 . S
C1221 C1222 1.523 . S
C1222 C1203 1.368 . S
C1222 C1216 1.368 . S
C1222 C1221 1.523 . S
C1223 C1207 1.429 . S
C1223 C1219 1.429 . S
C1223 C1224 1.523 . S
C1224 C1208 1.368 . S
C1224 C1220 1.368 . S
C1224 C1223 1.523 . S
H1225 C1200 0.950 . S
H1226 C1202 0.950 . S
H1227 C1203 0.949 . S
H1228 C1205 0.950 . S
H1229 C1207 0.950 . S
C1230 C1231 1.349 . S
C1230 C1232 1.327 . S
C1230 H1255 0.950 . S
C1231 C1230 1.349 . S
C1231 C1247 1.349 . S
C1232 C1230 1.327 . S
C1232 C1251 1.429 . S
C1232 H1256 0.950 . S
C1233 C1250 1.574 . S
C1233 C1252 1.368 . S
C1233 H1257 0.949 . S
H1234 C1238 0.949 . S
C1235 C1236 1.349 . S
C1235 C1237 1.327 . S
C1235 H1258 0.950 . S
C1236 C1235 1.349 . S
C1236 C1248 1.349 . S
C1237 C1235 1.327 . S
C1237 C1253 1.429 . S
C1237 H1259 0.950 . S
C1238 H1234 0.949 . S
C1238 C1246 1.574 . S
C1238 C1254 1.368 . S
H1239 C1247 0.950 . S
H1240 C1245 0.950 . S
H1241 C1246 0.949 . S
H1242 C1248 0.950 . S
H1243 C1249 0.950 . S
H1244 C1250 0.949 . S
C1245 H1240 0.950 . S
C1245 C1247 1.327 . S
C1245 C1251 1.429 . S
C1246 C1238 1.574 . S
C1246 H1241 0.949 . S
C1246 C1252 1.368 . S
C1247 C1231 1.349 . S
C1247 H1239 0.950 . S
C1247 C1245 1.327 . S
C1248 C1236 1.349 . S
C1248 H1242 0.950 . S
C1248 C1249 1.327 . S
C1249 H1243 0.950 . S
C1249 C1248 1.327 . S
C1249 C1253 1.429 . S
C1250 C1233 1.574 . S
C1250 H1244 0.949 . S
C1250 C1254 1.368 . S
C1251 C1232 1.429 . S
C1251 C1245 1.429 . S
C1251 C1252 1.523 . S
C1252 C1233 1.368 . S
C1252 C1246 1.368 . S
C1252 C1251 1.523 . S
C1253 C1237 1.429 . S
C1253 C1249 1.429 . S
C1253 C1254 1.523 . S
C1254 C1238 1.368 . S
C1254 C1250 1.368 . S
C1254 C1253 1.523 . S
H1255 C1230 0.950 . S
H1256 C1232 0.950 . S
H1257 C1233 0.949 . S
H1258 C1235 0.950 . S
H1259 C1237 0.950 . S
C1260 C1261 1.349 . S
C1260 C1262 1.327 . S
C1260 H1285 0.950 . S
C1261 C1260 1.349 . S
C1261 C1277 1.349 . S
C1262 C1260 1.327 . S
C1262 C1281 1.429 . S
C1262 H1286 0.950 . S
C1263 C1280 1.574 . S
C1263 C1282 1.368 . S
C1263 H1287 0.949 . S
H1264 C1268 0.949 . S
C1265 C1266 1.349 . S
C1265 C1267 1.327 . S
C1265 H1288 0.950 . S
C1266 C1265 1.349 . S
C1266 C1278 1.349 . S
C1267 C1265 1.327 . S
C1267 C1283 1.429 . S
C1267 H1289 0.950 . S
C1268 H1264 0.949 . S
C1268 C1276 1.574 . S
C1268 C1284 1.368 . S
H1269 C1277 0.950 . S
H1270 C1275 0.950 . S
H1271 C1276 0.949 . S
H1272 C1278 0.950 . S
H1273 C1279 0.950 . S
H1274 C1280 0.949 . S
C1275 H1270 0.950 . S
C1275 C1277 1.327 . S
C1275 C1281 1.429 . S
C1276 C1268 1.574 . S
C1276 H1271 0.949 . S
C1276 C1282 1.368 . S
C1277 C1261 1.349 . S
C1277 H1269 0.950 . S
C1277 C1275 1.327 . S
C1278 C1266 1.349 . S
C1278 H1272 0.950 . S
C1278 C1279 1.327 . S
C1279 H1273 0.950 . S
C1279 C1278 1.327 . S
C1279 C1283 1.429 . S
C1280 C1263 1.574 . S
C1280 H1274 0.949 . S
C1280 C1284 1.368 . S
C1281 C1262 1.429 . S
C1281 C1275 1.429 . S
C1281 C1282 1.523 . S
C1282 C1263 1.368 . S
C1282 C1276 1.368 . S
C1282 C1281 1.523 . S
C1283 C1267 1.429 . S
C1283 C1279 1.429 . S
C1283 C1284 1.523 . S
C1284 C1268 1.368 . S
C1284 C1280 1.368 . S
C1284 C1283 1.523 . S
H1285 C1260 0.950 . S
H1286 C1262 0.950 . S
H1287 C1263 0.949 . S
H1288 C1265 0.950 . S
H1289 C1267 0.950 . S
C1290 C1291 1.349 . S
C1290 C1292 1.327 . S
C1290 H1315 0.950 . S
C1291 C1290 1.349 . S
C1291 C1307 1.349 . S
C1292 C1290 1.327 . S
C1292 C1311 1.429 . S
C1292 H1316 0.950 . S
C1293 C1310 1.574 . S
C1293 C1312 1.368 . S
C1293 H1317 0.949 . S
H1294 C1298 0.949 . S
C1295 C1296 1.349 . S
C1295 C1297 1.327 . S
C1295 H1318 0.950 . S
C1296 C1295 1.349 . S
C1296 C1308 1.349 . S
C1297 C1295 1.327 . S
C1297 C1313 1.429 . S
C1297 H1319 0.950 . S
C1298 H1294 0.949 . S
C1298 C1306 1.574 . S
C1298 C1314 1.368 . S
H1299 C1307 0.950 . S
H1300 C1305 0.950 . S
H1301 C1306 0.949 . S
H1302 C1308 0.950 . S
H1303 C1309 0.950 . S
H1304 C1310 0.949 . S
C1305 H1300 0.950 . S
C1305 C1307 1.327 . S
C1305 C1311 1.429 . S
C1306 C1298 1.574 . S
C1306 H1301 0.949 . S
C1306 C1312 1.368 . S
C1307 C1291 1.349 . S
C1307 H1299 0.950 . S
C1307 C1305 1.327 . S
C1308 C1296 1.349 . S
C1308 H1302 0.950 . S
C1308 C1309 1.327 . S
C1309 H1303 0.950 . S
C1309 C1308 1.327 . S
C1309 C1313 1.429 . S
C1310 C1293 1.574 . S
C1310 H1304 0.949 . S
C1310 C1314 1.368 . S
C1311 C1292 1.429 . S
C1311 C1305 1.429 . S
C1311 C1312 1.523 . S
C1312 C1293 1.368 . S
C1312 C1306 1.368 . S
C1312 C1311 1.523 . S
C1313 C1297 1.429 . S
C1313 C1309 1.429 . S
C1313 C1314 1.523 . S
C1314 C1298 1.368 . S
C1314 C1310 1.368 . S
C1314 C1313 1.523 . S
H1315 C1290 0.950 . S
H1316 C1292 0.950 . S
H1317 C1293 0.949 . S
H1318 C1295 0.950 . S
H1319 C1297 0.950 . S
C1320 C1321 1.349 . S
C1320 C1322 1.327 . S
C1320 H1345 0.950 . S
C1321 C1320 1.349 . S
C1321 C1337 1.349 . S
C1322 C1320 1.327 . S
C1322 C1341 1.429 . S
C1322 H1346 0.950 . S
C1323 C1340 1.574 . S
C1323 C1342 1.368 . S
C1323 H1347 0.949 . S
H1324 C1328 0.949 . S
C1325 C1326 1.349 . S
C1325 C1327 1.327 . S
C1325 H1348 0.950 . S
C1326 C1325 1.349 . S
C1326 C1338 1.349 . S
C1327 C1325 1.327 . S
C1327 C1343 1.429 . S
C1327 H1349 0.950 . S
C1328 H1324 0.949 . S
C1328 C1336 1.574 . S
C1328 C1344 1.368 . S
H1329 C1337 0.933 1_545 S
H1330 C1335 0.950 . S
H1331 C1336 0.949 . S
H1332 C1338 0.950 . S
H1333 C1339 0.950 . S
H1334 C1340 0.949 . S
C1335 H1330 0.950 . S
C1335 C1337 1.327 . S
C1335 C1341 1.429 . S
C1336 C1328 1.574 . S
C1336 H1331 0.949 . S
C1336 C1342 1.368 . S
C1337 C1321 1.349 . S
C1337 H1329 0.933 1_565 S
C1337 C1335 1.327 . S
C1338 C1326 1.349 . S
C1338 H1332 0.950 . S
C1338 C1339 1.327 . S
C1339 H1333 0.950 . S
C1339 C1338 1.327 . S
C1339 C1343 1.429 . S
C1340 C1323 1.574 . S
C1340 H1334 0.949 . S
C1340 C1344 1.368 . S
C1341 C1322 1.429 . S
C1341 C1335 1.429 . S
C1341 C1342 1.523 . S
C1342 C1323 1.368 . S
C1342 C1336 1.368 . S
C1342 C1341 1.523 . S
C1343 C1327 1.429 . S
C1343 C1339 1.429 . S
C1343 C1344 1.523 . S
C1344 C1328 1.368 . S
C1344 C1340 1.368 . S
C1344 C1343 1.523 . S
H1345 C1320 0.950 . S
H1346 C1322 0.950 . S
H1347 C1323 0.949 . S
H1348 C1325 0.950 . S
H1349 C1327 0.950 . S
C1350 C1351 1.349 . S
C1350 C1352 1.327 . S
C1350 H1375 0.950 . S
C1351 C1350 1.349 . S
C1351 C1367 1.349 . S
C1352 C1350 1.327 . S
C1352 C1371 1.429 . S
C1352 H1376 0.950 . S
C1353 C1370 1.574 . S
C1353 C1372 1.368 . S
C1353 H1377 0.949 . S
H1354 C1358 0.949 . S
C1355 C1356 1.349 . S
C1355 C1357 1.327 . S
C1355 H1378 0.950 . S
C1356 C1355 1.349 . S
C1356 C1368 1.349 . S
C1357 C1355 1.327 . S
C1357 C1373 1.429 . S
C1357 H1379 0.950 . S
C1358 H1354 0.949 . S
C1358 C1366 1.574 . S
C1358 C1374 1.368 . S
H1359 C1367 0.950 . S
H1360 C1365 0.950 . S
H1361 C1366 0.949 . S
H1362 C1368 0.950 . S
H1363 C1369 0.950 . S
H1364 C1370 0.949 . S
C1365 H1360 0.950 . S
C1365 C1367 1.327 . S
C1365 C1371 1.429 . S
C1366 C1358 1.574 . S
C1366 H1361 0.949 . S
C1366 C1372 1.368 . S
C1367 C1351 1.349 . S
C1367 H1359 0.950 . S
C1367 C1365 1.327 . S
C1368 C1356 1.349 . S
C1368 H1362 0.950 . S
C1368 C1369 1.327 . S
C1369 H1363 0.950 . S
C1369 C1368 1.327 . S
C1369 C1373 1.429 . S
C1370 C1353 1.574 . S
C1370 H1364 0.949 . S
C1370 C1374 1.368 . S
C1371 C1352 1.429 . S
C1371 C1365 1.429 . S
C1371 C1372 1.523 . S
C1372 C1353 1.368 . S
C1372 C1366 1.368 . S
C1372 C1371 1.523 . S
C1373 C1357 1.429 . S
C1373 C1369 1.429 . S
C1373 C1374 1.523 . S
C1374 C1358 1.368 . S
C1374 C1370 1.368 . S
C1374 C1373 1.523 . S
H1375 C1350 0.950 . S
H1376 C1352 0.950 . S
H1377 C1353 0.949 . S
H1378 C1355 0.950 . S
H1379 C1357 0.950 . S
C1380 C1381 1.349 . S
C1380 C1382 1.327 . S
C1380 H1405 0.919 1_655 S
C1381 C1380 1.349 . S
C1381 C1397 1.349 . S
C1382 C1380 1.327 . S
C1382 C1401 1.429 . S
C1382 H1406 0.950 . S
C1383 C1400 1.574 . S
C1383 C1402 1.368 . S
C1383 H1407 0.949 . S
H1384 C1388 0.949 . S
C1385 C1386 1.349 . S
C1385 C1387 1.327 . S
C1385 H1408 0.950 . S
C1386 C1385 1.349 . S
C1386 C1398 1.349 . S
C1387 C1385 1.327 . S
C1387 C1403 1.429 . S
C1387 H1409 0.950 . S
C1388 H1384 0.949 . S
C1388 C1396 1.574 . S
C1388 C1404 1.368 . S
H1389 C1397 0.950 . S
H1390 C1395 0.950 . S
H1391 C1396 0.949 . S
H1392 C1398 0.950 . S
H1393 C1399 0.950 . S
H1394 C1400 0.949 . S
C1395 H1390 0.950 . S
C1395 C1397 1.327 . S
C1395 C1401 1.429 . S
C1396 C1388 1.574 . S
C1396 H1391 0.949 . S
C1396 C1402 1.368 . S
C1397 C1381 1.349 . S
C1397 H1389 0.950 . S
C1397 C1395 1.327 . S
C1398 C1386 1.349 . S
C1398 H1392 0.950 . S
C1398 C1399 1.327 . S
C1399 H1393 0.950 . S
C1399 C1398 1.327 . S
C1399 C1403 1.429 . S
C1400 C1383 1.574 . S
C1400 H1394 0.949 . S
C1400 C1404 1.368 . S
C1401 C1382 1.429 . S
C1401 C1395 1.429 . S
C1401 C1402 1.523 . S
C1402 C1383 1.368 . S
C1402 C1396 1.368 . S
C1402 C1401 1.523 . S
C1403 C1387 1.429 . S
C1403 C1399 1.429 . S
C1403 C1404 1.523 . S
C1404 C1388 1.368 . S
C1404 C1400 1.368 . S
C1404 C1403 1.523 . S
H1405 C1380 0.919 1_455 S
H1406 C1382 0.950 . S
H1407 C1383 0.949 . S
H1408 C1385 0.950 . S
H1409 C1387 0.950 . S
C1410 C1411 1.349 . S
C1410 C1412 1.327 . S
C1410 H1435 0.950 . S
C1411 C1410 1.349 . S
C1411 C1427 1.349 . S
C1412 C1410 1.327 . S
C1412 C1431 1.429 . S
C1412 H1436 0.950 . S
C1413 C1430 1.574 . S
C1413 C1432 1.368 . S
C1413 H1437 0.949 . S
H1414 C1418 0.949 . S
C1415 C1416 1.349 . S
C1415 C1417 1.327 . S
C1415 H1438 0.950 . S
C1416 C1415 1.349 . S
C1416 C1428 1.349 . S
C1417 C1415 1.327 . S
C1417 C1433 1.429 . S
C1417 H1439 0.950 . S
C1418 H1414 0.949 . S
C1418 C1426 1.574 . S
C1418 C1434 1.368 . S
H1419 C1427 0.950 . S
H1420 C1425 0.950 . S
H1421 C1426 0.949 . S
H1422 C1428 0.950 . S
H1423 C1429 0.950 . S
H1424 C1430 0.949 . S
C1425 H1420 0.950 . S
C1425 C1427 1.327 . S
C1425 C1431 1.429 . S
C1426 C1418 1.574 . S
C1426 H1421 0.949 . S
C1426 C1432 1.368 . S
C1427 C1411 1.349 . S
C1427 H1419 0.950 . S
C1427 C1425 1.327 . S
C1428 C1416 1.349 . S
C1428 H1422 0.950 . S
C1428 C1429 1.327 . S
C1429 H1423 0.950 . S
C1429 C1428 1.327 . S
C1429 C1433 1.429 . S
C1430 C1413 1.574 . S
C1430 H1424 0.949 . S
C1430 C1434 1.368 . S
C1431 C1412 1.429 . S
C1431 C1425 1.429 . S
C1431 C1432 1.523 . S
C1432 C1413 1.368 . S
C1432 C1426 1.368 . S
C1432 C1431 1.523 . S
C1433 C1417 1.429 . S
C1433 C1429 1.429 . S
C1433 C1434 1.523 . S
C1434 C1418 1.368 . S
C1434 C1430 1.368 . S
C1434 C1433 1.523 . S
H1435 C1410 0.950 . S
H1436 C1412 0.950 . S
H1437 C1413 0.949 . S
H1438 C1415 0.950 . S
H1439 C1417 0.950 . S
C1440 C1441 1.349 . S
C1440 C1442 1.327 . S
C1440 H1465 0.950 . S
C1441 C1440 1.349 . S
C1441 C1457 1.349 . S
C1442 C1440 1.327 . S
C1442 C1461 1.429 . S
C1442 H1466 0.950 . S
C1443 C1460 1.574 . S
C1443 C1462 1.368 . S
C1443 H1467 0.949 . S
H1444 C1448 0.949 . S
C1445 C1446 1.349 . S
C1445 C1447 1.327 . S
C1445 H1468 0.950 . S
C1446 C1445 1.349 . S
C1446 C1458 1.349 . S
C1447 C1445 1.327 . S
C1447 C1463 1.429 . S
C1447 H1469 0.950 . S
C1448 H1444 0.949 . S
C1448 C1456 1.574 . S
C1448 C1464 1.368 . S
H1449 C1457 0.950 . S
H1450 C1455 0.950 . S
H1451 C1456 0.949 . S
H1452 C1458 0.950 . S
H1453 C1459 0.950 . S
H1454 C1460 0.949 . S
C1455 H1450 0.950 . S
C1455 C1457 1.327 . S
C1455 C1461 1.429 . S
C1456 C1448 1.574 . S
C1456 H1451 0.949 . S
C1456 C1462 1.368 . S
C1457 C1441 1.349 . S
C1457 H1449 0.950 . S
C1457 C1455 1.327 . S
C1458 C1446 1.349 . S
C1458 H1452 0.950 . S
C1458 C1459 1.327 . S
C1459 H1453 0.950 . S
C1459 C1458 1.327 . S
C1459 C1463 1.429 . S
C1460 C1443 1.574 . S
C1460 H1454 0.949 . S
C1460 C1464 1.368 . S
C1461 C1442 1.429 . S
C1461 C1455 1.429 . S
C1461 C1462 1.523 . S
C1462 C1443 1.368 . S
C1462 C1456 1.368 . S
C1462 C1461 1.523 . S
C1463 C1447 1.429 . S
C1463 C1459 1.429 . S
C1463 C1464 1.523 . S
C1464 C1448 1.368 . S
C1464 C1460 1.368 . S
C1464 C1463 1.523 . S
H1465 C1440 0.950 . S
H1466 C1442 0.950 . S
H1467 C1443 0.949 . S
H1468 C1445 0.950 . S
H1469 C1447 0.950 . S
C1470 C1471 1.349 . S
C1470 C1472 1.327 . S
C1470 H1495 0.950 . S
C1471 C1470 1.349 . S
C1471 C1487 1.349 . S
C1472 C1470 1.327 . S
C1472 C1491 1.429 . S
C1472 H1496 0.950 . S
C1473 C1490 1.574 . S
C1473 C1492 1.368 . S
C1473 H1497 0.949 . S
H1474 C1478 0.949 . S
C1475 C1476 1.349 . S
C1475 C1477 1.327 . S
C1475 H1498 0.950 . S
C1476 C1475 1.349 . S
C1476 C1488 1.349 . S
C1477 C1475 1.327 . S
C1477 C1493 1.429 . S
C1477 H1499 0.950 . S
C1478 H1474 0.949 . S
C1478 C1486 1.574 . S
C1478 C1494 1.368 . S
H1479 C1487 0.950 . S
H1480 C1485 0.950 . S
H1481 C1486 0.949 . S
H1482 C1488 0.950 . S
H1483 C1489 0.950 . S
H1484 C1490 0.949 . S
C1485 H1480 0.950 . S
C1485 C1487 1.327 . S
C1485 C1491 1.429 . S
C1486 C1478 1.574 . S
C1486 H1481 0.949 . S
C1486 C1492 1.368 . S
C1487 C1471 1.349 . S
C1487 H1479 0.950 . S
C1487 C1485 1.327 . S
C1488 C1476 1.349 . S
C1488 H1482 0.950 . S
C1488 C1489 1.327 . S
C1489 H1483 0.950 . S
C1489 C1488 1.327 . S
C1489 C1493 1.429 . S
C1490 C1473 1.574 . S
C1490 H1484 0.949 . S
C1490 C1494 1.368 . S
C1491 C1472 1.429 . S
C1491 C1485 1.429 . S
C1491 C1492 1.523 . S
C1492 C1473 1.368 . S
C1492 C1486 1.368 . S
C1492 C1491 1.523 . S
C1493 C1477 1.429 . S
C1493 C1489 1.429 . S
C1493 C1494 1.523 . S
C1494 C1478 1.368 . S
C1494 C1490 1.368 . S
C1494 C1493 1.523 . S
H1495 C1470 0.950 . S
H1496 C1472 0.950 . S
H1497 C1473 0.949 . S
H1498 C1475 0.950 . S
H1499 C1477 0.950 . S
C1500 C1501 1.349 . S
C1500 C1502 1.327 . S
C1500 H1525 0.950 . S
C1501 C1500 1.349 . S
C1501 C1517 1.349 . S
C1502 C1500 1.327 . S
C1502 C1521 1.429 . S
C1502 H1526 0.950 . S
C1503 C1520 1.574 . S
C1503 C1522 1.368 . S
C1503 H1527 0.949 . S
H1504 C1508 0.949 . S
C1505 C1506 1.349 . S
C1505 C1507 1.327 . S
C1505 H1528 0.950 . S
C1506 C1505 1.349 . S
C1506 C1518 1.349 . S
C1507 C1505 1.327 . S
C1507 C1523 1.429 . S
C1507 H1529 0.950 . S
C1508 H1504 0.949 . S
C1508 C1516 1.574 . S
C1508 C1524 1.368 . S
H1509 C1517 0.950 . S
H1510 C1515 0.950 . S
H1511 C1516 0.949 . S
H1512 C1518 0.950 . S
H1513 C1519 0.950 . S
H1514 C1520 0.949 . S
C1515 H1510 0.950 . S
C1515 C1517 1.327 . S
C1515 C1521 1.429 . S
C1516 C1508 1.574 . S
C1516 H1511 0.949 . S
C1516 C1522 1.368 . S
C1517 C1501 1.349 . S
C1517 H1509 0.950 . S
C1517 C1515 1.327 . S
C1518 C1506 1.349 . S
C1518 H1512 0.950 . S
C1518 C1519 1.327 . S
C1519 H1513 0.950 . S
C1519 C1518 1.327 . S
C1519 C1523 1.429 . S
C1520 C1503 1.574 . S
C1520 H1514 0.949 . S
C1520 C1524 1.368 . S
C1521 C1502 1.429 . S
C1521 C1515 1.429 . S
C1521 C1522 1.523 . S
C1522 C1503 1.368 . S
C1522 C1516 1.368 . S
C1522 C1521 1.523 . S
C1523 C1507 1.429 . S
C1523 C1519 1.429 . S
C1523 C1524 1.523 . S
C1524 C1508 1.368 . S
C1524 C1520 1.368 . S
C1524 C1523 1.523 . S
H1525 C1500 0.950 . S
H1526 C1502 0.950 . S
H1527 C1503 0.949 . S
H1528 C1505 0.950 . S
H1529 C1507 0.950 . S
C1530 C1531 1.349 . S
C1530 C1532 1.327 . S
C1530 H1555 0.950 . S
C1531 C1530 1.349 . S
C1531 C1547 1.349 . S
C1532 C1530 1.327 . S
C1532 C1551 1.429 . S
C1532 H1556 0.950 . S
C1533 C1550 1.574 . S
C1533 C1552 1.368 . S
C1533 H1557 0.949 . S
H1534 C1538 0.949 . S
C1535 C1536 1.349 . S
C1535 C1537 1.327 . S
C1535 H1558 0.950 . S
C1536 C1535 1.349 . S
C1536 C1548 1.349 . S
C1537 C1535 1.327 . S
C1537 C1553 1.429 . S
C1537 H1559 0.950 . S
C1538 H1534 0.949 . S
C1538 C1546 1.574 . S
C1538 C1554 1.368 . S
H1539 C1547 0.950 . S
H1540 C1545 0.950 . S
H1541 C1546 0.949 . S
H1542 C1548 0.950 . S
H1543 C1549 0.950 . S
H1544 C1550 0.949 . S
C1545 H1540 0.950 . S
C1545 C1547 1.327 . S
C1545 C1551 1.429 . S
C1546 C1538 1.574 . S
C1546 H1541 0.949 . S
C1546 C1552 1.368 . S
C1547 C1531 1.349 . S
C1547 H1539 0.950 . S
C1547 C1545 1.327 . S
C1548 C1536 1.349 . S
C1548 H1542 0.950 . S
C1548 C1549 1.327 . S
C1549 H1543 0.950 . S
C1549 C1548 1.327 . S
C1549 C1553 1.429 . S
C1550 C1533 1.574 . S
C1550 H1544 0.949 . S
C1550 C1554 1.368 . S
C1551 C1532 1.429 . S
C1551 C1545 1.429 . S
C1551 C1552 1.523 . S
C1552 C1533 1.368 . S
C1552 C1546 1.368 . S
C1552 C1551 1.523 . S
C1553 C1537 1.429 . S
C1553 C1549 1.429 . S
C1553 C1554 1.523 . S
C1554 C1538 1.368 . S
C1554 C1550 1.368 . S
C1554 C1553 1.523 . S
H1555 C1530 0.950 . S
H1556 C1532 0.950 . S
H1557 C1533 0.949 . S
H1558 C1535 0.950 . S
H1559 C1537 0.950 . S
C1560 C1561 1.349 . S
C1560 C1562 1.327 . S
C1560 H1585 0.950 . S
C1561 C1560 1.349 . S
C1561 C1577 1.349 . S
C1562 C1560 1.327 . S
C1562 C1581 1.429 . S
C1562 H1586 0.950 . S
C1563 C1580 1.574 . S
C1563 C1582 1.368 . S
C1563 H1587 0.949 . S
H1564 C1568 0.949 . S
C1565 C1566 1.349 . S
C1565 C1567 1.327 . S
C1565 H1588 0.950 . S
C1566 C1565 1.349 . S
C1566 C1578 1.349 . S
C1567 C1565 1.327 . S
C1567 C1583 1.429 . S
C1567 H1589 0.950 . S
C1568 H1564 0.949 . S
C1568 C1576 1.574 . S
C1568 C1584 1.368 . S
H1569 C1577 0.950 . S
H1570 C1575 0.950 . S
H1571 C1576 0.949 . S
H1572 C1578 0.950 . S
H1573 C1579 0.950 . S
H1574 C1580 0.949 . S
C1575 H1570 0.950 . S
C1575 C1577 1.327 . S
C1575 C1581 1.429 . S
C1576 C1568 1.574 . S
C1576 H1571 0.949 . S
C1576 C1582 1.368 . S
C1577 C1561 1.349 . S
C1577 H1569 0.950 . S
C1577 C1575 1.327 . S
C1578 C1566 1.349 . S
C1578 H1572 0.950 . S
C1578 C1579 1.327 . S
C1579 H1573 0.950 . S
C1579 C1578 1.327 . S
C1579 C1583 1.429 . S
C1580 C1563 1.574 . S
C1580 H1574 0.949 . S
C1580 C1584 1.368 . S
C1581 C1562 1.429 . S
C1581 C1575 1.429 . S
C1581 C1582 1.523 . S
C1582 C1563 1.368 . S
C1582 C1576 1.368 . S
C1582 C1581 1.523 . S
C1583 C1567 1.429 . S
C1583 C1579 1.429 . S
C1583 C1584 1.523 . S
C1584 C1568 1.368 . S
C1584 C1580 1.368 . S
C1584 C1583 1.523 . S
H1585 C1560 0.950 . S
H1586 C1562 0.950 . S
H1587 C1563 0.949 . S
H1588 C1565 0.950 . S
H1589 C1567 0.950 . S
C1590 C1591 1.349 . S
C1590 C1592 1.327 . S
C1590 H1615 0.950 . S
C1591 C1590 1.349 . S
C1591 C1607 1.349 . S
C1592 C1590 1.327 . S
C1592 C1611 1.429 . S
C1592 H1616 0.950 . S
C1593 C1610 1.574 . S
C1593 C1612 1.368 . S
C1593 H1617 0.949 . S
H1594 C1598 0.949 . S
C1595 C1596 1.349 . S
C1595 C1597 1.327 . S
C1595 H1618 0.950 . S
C1596 C1595 1.349 . S
C1596 C1608 1.349 . S
C1597 C1595 1.327 . S
C1597 C1613 1.429 . S
C1597 H1619 0.950 . S
C1598 H1594 0.949 . S
C1598 C1606 1.574 . S
C1598 C1614 1.368 . S
H1599 C1607 0.950 . S
H1600 C1605 0.950 . S
H1601 C1606 0.949 . S
H1602 C1608 0.950 . S
H1603 C1609 0.950 . S
H1604 C1610 0.949 . S
C1605 H1600 0.950 . S
C1605 C1607 1.327 . S
C1605 C1611 1.429 . S
C1606 C1598 1.574 . S
C1606 H1601 0.949 . S
C1606 C1612 1.368 . S
C1607 C1591 1.349 . S
C1607 H1599 0.950 . S
C1607 C1605 1.327 . S
C1608 C1596 1.349 . S
C1608 H1602 0.950 . S
C1608 C1609 1.327 . S
C1609 H1603 0.950 . S
C1609 C1608 1.327 . S
C1609 C1613 1.429 . S
C1610 C1593 1.574 . S
C1610 H1604 0.949 . S
C1610 C1614 1.368 . S
C1611 C1592 1.429 . S
C1611 C1605 1.429 . S
C1611 C1612 1.523 . S
C1612 C1593 1.368 . S
C1612 C1606 1.368 . S
C1612 C1611 1.523 . S
C1613 C1597 1.429 . S
C1613 C1609 1.429 . S
C1613 C1614 1.523 . S
C1614 C1598 1.368 . S
C1614 C1610 1.368 . S
C1614 C1613 1.523 . S
H1615 C1590 0.950 . S
H1616 C1592 0.950 . S
H1617 C1593 0.949 . S
H1618 C1595 0.950 . S
H1619 C1597 0.950 . S
C1620 C1621 1.349 . S
C1620 C1622 1.327 . S
C1620 H1645 0.950 . S
C1621 C1620 1.349 . S
C1621 C1637 1.349 . S
C1622 C1620 1.327 . S
C1622 C1641 1.429 . S
C1622 H1646 0.950 . S
C1623 C1640 1.574 . S
C1623 C1642 1.368 . S
C1623 H1647 0.949 . S
H1624 C1628 0.949 . S
C1625 C1626 1.349 . S
C1625 C1627 1.327 . S
C1625 H1648 0.950 . S
C1626 C1625 1.349 . S
C1626 C1638 1.349 . S
C1627 C1625 1.327 . S
C1627 C1643 1.429 . S
C1627 H1649 0.950 . S
C1628 H1624 0.949 . S
C1628 C1636 1.574 . S
C1628 C1644 1.368 . S
H1629 C1637 0.950 . S
H1630 C1635 0.950 . S
H1631 C1636 0.949 . S
H1632 C1638 0.950 . S
H1633 C1639 0.950 . S
H1634 C1640 0.949 . S
C1635 H1630 0.950 . S
C1635 C1637 1.327 . S
C1635 C1641 1.429 . S
C1636 C1628 1.574 . S
C1636 H1631 0.949 . S
C1636 C1642 1.368 . S
C1637 C1621 1.349 . S
C1637 H1629 0.950 . S
C1637 C1635 1.327 . S
C1638 C1626 1.349 . S
C1638 H1632 0.950 . S
C1638 C1639 1.327 . S
C1639 H1633 0.950 . S
C1639 C1638 1.327 . S
C1639 C1643 1.429 . S
C1640 C1623 1.574 . S
C1640 H1634 0.949 . S
C1640 C1644 1.368 . S
C1641 C1622 1.429 . S
C1641 C1635 1.429 . S
C1641 C1642 1.523 . S
C1642 C1623 1.368 . S
C1642 C1636 1.368 . S
C1642 C1641 1.523 . S
C1643 C1627 1.429 . S
C1643 C1639 1.429 . S
C1643 C1644 1.523 . S
C1644 C1628 1.368 . S
C1644 C1640 1.368 . S
C1644 C1643 1.523 . S
H1645 C1620 0.950 . S
H1646 C1622 0.950 . S
H1647 C1623 0.949 . S
H1648 C1625 0.950 . S
H1649 C1627 0.950 . S
C1650 C1651 1.349 . S
C1650 C1652 1.327 . S
C1650 H1675 0.950 . S
C1651 C1650 1.349 . S
C1651 C1667 1.349 . S
C1652 C1650 1.327 . S
C1652 C1671 1.429 . S
C1652 H1676 0.950 . S
C1653 C1670 1.574 . S
C1653 C1672 1.368 . S
C1653 H1677 0.949 . S
H1654 C1658 0.949 . S
C1655 C1656 1.349 . S
C1655 C1657 1.327 . S
C1655 H1678 0.950 . S
C1656 C1655 1.349 . S
C1656 C1668 1.349 . S
C1657 C1655 1.327 . S
C1657 C1673 1.429 . S
C1657 H1679 0.950 . S
C1658 H1654 0.949 . S
C1658 C1666 1.574 . S
C1658 C1674 1.368 . S
H1659 C1667 0.950 . S
H1660 C1665 0.950 . S
H1661 C1666 0.949 . S
H1662 C1668 0.950 . S
H1663 C1669 0.950 . S
H1664 C1670 0.949 . S
C1665 H1660 0.950 . S
C1665 C1667 1.327 . S
C1665 C1671 1.429 . S
C1666 C1658 1.574 . S
C1666 H1661 0.949 . S
C1666 C1672 1.368 . S
C1667 C1651 1.349 . S
C1667 H1659 0.950 . S
C1667 C1665 1.327 . S
C1668 C1656 1.349 . S
C1668 H1662 0.950 . S
C1668 C1669 1.327 . S
C1669 H1663 0.950 . S
C1669 C1668 1.327 . S
C1669 C1673 1.429 . S
C1670 C1653 1.574 . S
C1670 H1664 0.949 . S
C1670 C1674 1.368 . S
C1671 C1652 1.429 . S
C1671 C1665 1.429 . S
C1671 C1672 1.523 . S
C1672 C1653 1.368 . S
C1672 C1666 1.368 . S
C1672 C1671 1.523 . S
C1673 C1657 1.429 . S
C1673 C1669 1.429 . S
C1673 C1674 1.523 . S
C1674 C1658 1.368 . S
C1674 C1670 1.368 . S
C1674 C1673 1.523 . S
H1675 C1650 0.950 . S
H1676 C1652 0.950 . S
H1677 C1653 0.949 . S
H1678 C1655 0.950 . S
H1679 C1657 0.950 . S
C1680 C1681 1.349 . S
C1680 C1682 1.327 . S
C1680 H1705 0.950 . S
C1681 C1680 1.349 . S
C1681 C1697 1.349 . S
C1682 C1680 1.327 . S
C1682 C1701 1.429 . S
C1682 H1706 0.950 . S
C1683 C1700 1.574 . S
C1683 C1702 1.368 . S
C1683 H1707 0.949 . S
H1684 C1688 0.949 . S
C1685 C1686 1.349 . S
C1685 C1687 1.327 . S
C1685 H1708 0.950 . S
C1686 C1685 1.349 . S
C1686 C1698 1.349 . S
C1687 C1685 1.327 . S
C1687 C1703 1.429 . S
C1687 H1709 0.950 . S
C1688 H1684 0.949 . S
C1688 C1696 1.574 . S
C1688 C1704 1.368 . S
H1689 C1697 0.950 . S
H1690 C1695 0.950 . S
H1691 C1696 0.949 . S
H1692 C1698 0.950 . S
H1693 C1699 0.950 . S
H1694 C1700 0.949 . S
C1695 H1690 0.950 . S
C1695 C1697 1.327 . S
C1695 C1701 1.429 . S
C1696 C1688 1.574 . S
C1696 H1691 0.949 . S
C1696 C1702 1.368 . S
C1697 C1681 1.349 . S
C1697 H1689 0.950 . S
C1697 C1695 1.327 . S
C1698 C1686 1.349 . S
C1698 H1692 0.950 . S
C1698 C1699 1.327 . S
C1699 H1693 0.950 . S
C1699 C1698 1.327 . S
C1699 C1703 1.429 . S
C1700 C1683 1.574 . S
C1700 H1694 0.949 . S
C1700 C1704 1.368 . S
C1701 C1682 1.429 . S
C1701 C1695 1.429 . S
C1701 C1702 1.523 . S
C1702 C1683 1.368 . S
C1702 C1696 1.368 . S
C1702 C1701 1.523 . S
C1703 C1687 1.429 . S
C1703 C1699 1.429 . S
C1703 C1704 1.523 . S
C1704 C1688 1.368 . S
C1704 C1700 1.368 . S
C1704 C1703 1.523 . S
H1705 C1680 0.950 . S
H1706 C1682 0.950 . S
H1707 C1683 0.949 . S
H1708 C1685 0.950 . S
H1709 C1687 0.950 . S
C1710 C1711 1.349 . S
C1710 C1712 1.327 . S
C1710 H1735 0.950 . S
C1711 C1710 1.349 . S
C1711 C1727 1.349 . S
C1712 C1710 1.327 . S
C1712 C1731 1.429 . S
C1712 H1736 0.950 . S
C1713 C1730 1.574 . S
C1713 C1732 1.368 . S
C1713 H1737 0.949 . S
H1714 C1718 0.949 . S
C1715 C1716 1.349 . S
C1715 C1717 1.327 . S
C1715 H1738 0.950 . S
C1716 C1715 1.349 . S
C1716 C1728 1.349 . S
C1717 C1715 1.327 . S
C1717 C1733 1.429 . S
C1717 H1739 0.950 . S
C1718 H1714 0.949 . S
C1718 C1726 1.574 . S
C1718 C1734 1.368 . S
H1719 C1727 0.950 . S
H1720 C1725 0.950 . S
H1721 C1726 0.949 . S
H1722 C1728 0.950 . S
H1723 C1729 0.950 . S
H1724 C1730 0.949 . S
C1725 H1720 0.950 . S
C1725 C1727 1.327 . S
C1725 C1731 1.429 . S
C1726 C1718 1.574 . S
C1726 H1721 0.949 . S
C1726 C1732 1.368 . S
C1727 C1711 1.349 . S
C1727 H1719 0.950 . S
C1727 C1725 1.327 . S
C1728 C1716 1.349 . S
C1728 H1722 0.950 . S
C1728 C1729 1.327 . S
C1729 H1723 0.950 . S
C1729 C1728 1.327 . S
C1729 C1733 1.429 . S
C1730 C1713 1.574 . S
C1730 H1724 0.949 . S
C1730 C1734 1.368 . S
C1731 C1712 1.429 . S
C1731 C1725 1.429 . S
C1731 C1732 1.523 . S
C1732 C1713 1.368 . S
C1732 C1726 1.368 . S
C1732 C1731 1.523 . S
C1733 C1717 1.429 . S
C1733 C1729 1.429 . S
C1733 C1734 1.523 . S
C1734 C1718 1.368 . S
C1734 C1730 1.368 . S
C1734 C1733 1.523 . S
H1735 C1710 0.950 . S
H1736 C1712 0.950 . S
H1737 C1713 0.949 . S
H1738 C1715 0.950 . S
H1739 C1717 0.950 . S
C1740 C1741 1.349 . S
C1740 C1742 1.327 . S
C1740 H1765 0.950 . S
C1741 C1740 1.349 . S
C1741 C1757 1.349 . S
C1742 C1740 1.327 . S
C1742 C1761 1.429 . S
C1742 H1766 0.950 . S
C1743 C1760 1.574 . S
C1743 C1762 1.368 . S
C1743 H1767 0.949 . S
H1744 C1748 0.949 . S
C1745 C1746 1.349 . S
C1745 C1747 1.327 . S
C1745 H1768 0.950 . S
C1746 C1745 1.349 . S
C1746 C1758 1.349 . S
C1747 C1745 1.327 . S
C1747 C1763 1.429 . S
C1747 H1769 0.950 . S
C1748 H1744 0.949 . S
C1748 C1756 1.574 . S
C1748 C1764 1.368 . S
H1749 C1757 0.950 . S
H1750 C1755 0.950 . S
H1751 C1756 0.949 . S
H1752 C1758 0.950 . S
H1753 C1759 0.950 . S
H1754 C1760 0.949 . S
C1755 H1750 0.950 . S
C1755 C1757 1.327 . S
C1755 C1761 1.429 . S
C1756 C1748 1.574 . S
C1756 H1751 0.949 . S
C1756 C1762 1.368 . S
C1757 C1741 1.349 . S
C1757 H1749 0.950 . S
C1757 C1755 1.327 . S
C1758 C1746 1.349 . S
C1758 H1752 0.950 . S
C1758 C1759 1.327 . S
C1759 H1753 0.950 . S
C1759 C1758 1.327 . S
C1759 C1763 1.429 . S
C1760 C1743 1.574 . S
C1760 H1754 0.949 . S
C1760 C1764 1.368 . S
C1761 C1742 1.429 . S
C1761 C1755 1.429 . S
C1761 C1762 1.523 . S
C1762 C1743 1.368 . S
C1762 C1756 1.368 . S
C1762 C1761 1.523 . S
C1763 C1747 1.429 . S
C1763 C1759 1.429 . S
C1763 C1764 1.523 . S
C1764 C1748 1.368 . S
C1764 C1760 1.368 . S
C1764 C1763 1.523 . S
H1765 C1740 0.950 . S
H1766 C1742 0.950 . S
H1767 C1743 0.949 . S
H1768 C1745 0.950 . S
H1769 C1747 0.950 . S
C1770 C1771 1.349 . S
C1770 C1772 1.327 . S
C1770 H1795 0.950 . S
C1771 C1770 1.349 . S
C1771 C1787 1.349 . S
C1772 C1770 1.327 . S
C1772 C1791 1.429 . S
C1772 H1796 0.950 . S
C1773 C1790 1.574 . S
C1773 C1792 1.368 . S
C1773 H1797 0.949 . S
H1774 C1778 0.949 . S
C1775 C1776 1.349 . S
C1775 C1777 1.327 . S
C1775 H1798 0.950 . S
C1776 C1775 1.349 . S
C1776 C1788 1.349 . S
C1777 C1775 1.327 . S
C1777 C1793 1.429 . S
C1777 H1799 0.950 . S
C1778 H1774 0.949 . S
C1778 C1786 1.574 . S
C1778 C1794 1.368 . S
H1779 C1787 0.950 . S
H1780 C1785 0.950 . S
H1781 C1786 0.949 . S
H1782 C1788 0.950 . S
H1783 C1789 0.950 . S
H1784 C1790 0.949 . S
C1785 H1780 0.950 . S
C1785 C1787 1.327 . S
C1785 C1791 1.429 . S
C1786 C1778 1.574 . S
C1786 H1781 0.949 . S
C1786 C1792 1.368 . S
C1787 C1771 1.349 . S
C1787 H1779 0.950 . S
C1787 C1785 1.327 . S
C1788 C1776 1.349 . S
C1788 H1782 0.950 . S
C1788 C1789 1.327 . S
C1789 H1783 0.950 . S
C1789 C1788 1.327 . S
C1789 C1793 1.429 . S
C1790 C1773 1.574 . S
C1790 H1784 0.949 . S
C1790 C1794 1.368 . S
C1791 C1772 1.429 . S
C1791 C1785 1.429 . S
C1791 C1792 1.523 . S
C1792 C1773 1.368 . S
C1792 C1786 1.368 . S
C1792 C1791 1.523 . S
C1793 C1777 1.429 . S
C1793 C1789 1.429 . S
C1793 C1794 1.523 . S
C1794 C1778 1.368 . S
C1794 C1790 1.368 . S
C1794 C1793 1.523 . S
H1795 C1770 0.950 . S
H1796 C1772 0.950 . S
H1797 C1773 0.949 . S
H1798 C1775 0.950 . S
H1799 C1777 0.950 . S
C1800 C1801 1.349 . S
C1800 C1802 1.327 . S
C1800 H1825 0.950 . S
C1801 C1800 1.349 . S
C1801 C1817 1.349 . S
C1802 C1800 1.327 . S
C1802 C1821 1.429 . S
C1802 H1826 0.950 . S
C1803 C1820 1.574 . S
C1803 C1822 1.368 . S
C1803 H1827 0.949 . S
H1804 C1808 0.949 . S
C1805 C1806 1.349 . S
C1805 C1807 1.327 . S
C1805 H1828 0.950 . S
C1806 C1805 1.349 . S
C1806 C1818 1.349 . S
C1807 C1805 1.327 . S
C1807 C1823 1.429 . S
C1807 H1829 0.950 . S
C1808 H1804 0.949 . S
C1808 C1816 1.574 . S
C1808 C1824 1.368 . S
H1809 C1817 0.950 . S
H1810 C1815 0.950 . S
H1811 C1816 0.949 . S
H1812 C1818 0.950 . S
H1813 C1819 0.950 . S
H1814 C1820 0.949 . S
C1815 H1810 0.950 . S
C1815 C1817 1.327 . S
C1815 C1821 1.429 . S
C1816 C1808 1.574 . S
C1816 H1811 0.949 . S
C1816 C1822 1.368 . S
C1817 C1801 1.349 . S
C1817 H1809 0.950 . S
C1817 C1815 1.327 . S
C1818 C1806 1.349 . S
C1818 H1812 0.950 . S
C1818 C1819 1.327 . S
C1819 H1813 0.950 . S
C1819 C1818 1.327 . S
C1819 C1823 1.429 . S
C1820 C1803 1.574 . S
C1820 H1814 0.949 . S
C1820 C1824 1.368 . S
C1821 C1802 1.429 . S
C1821 C1815 1.429 . S
C1821 C1822 1.523 . S
C1822 C1803 1.368 . S
C1822 C1816 1.368 . S
C1822 C1821 1.523 . S
C1823 C1807 1.429 . S
C1823 C1819 1.429 . S
C1823 C1824 1.523 . S
C1824 C1808 1.368 . S
C1824 C1820 1.368 . S
C1824 C1823 1.523 . S
H1825 C1800 0.950 . S
H1826 C1802 0.950 . S
H1827 C1803 0.949 . S
H1828 C1805 0.950 . S
H1829 C1807 0.950 . S
C1830 C1831 1.349 . S
C1830 C1832 1.327 . S
C1830 H1855 0.950 . S
C1831 C1830 1.349 . S
C1831 C1847 1.349 . S
C1832 C1830 1.327 . S
C1832 C1851 1.429 . S
C1832 H1856 0.950 . S
C1833 C1850 1.574 . S
C1833 C1852 1.368 . S
C1833 H1857 0.949 . S
H1834 C1838 0.949 . S
C1835 C1836 1.349 . S
C1835 C1837 1.327 . S
C1835 H1858 0.950 . S
C1836 C1835 1.349 . S
C1836 C1848 1.349 . S
C1837 C1835 1.327 . S
C1837 C1853 1.429 . S
C1837 H1859 0.950 . S
C1838 H1834 0.949 . S
C1838 C1846 1.574 . S
C1838 C1854 1.368 . S
H1839 C1847 0.950 . S
H1840 C1845 0.950 . S
H1841 C1846 0.949 . S
H1842 C1848 0.950 . S
H1843 C1849 0.950 . S
H1844 C1850 0.949 . S
C1845 H1840 0.950 . S
C1845 C1847 1.327 . S
C1845 C1851 1.429 . S
C1846 C1838 1.574 . S
C1846 H1841 0.949 . S
C1846 C1852 1.368 . S
C1847 C1831 1.349 . S
C1847 H1839 0.950 . S
C1847 C1845 1.327 . S
C1848 C1836 1.349 . S
C1848 H1842 0.950 . S
C1848 C1849 1.327 . S
C1849 H1843 0.950 . S
C1849 C1848 1.327 . S
C1849 C1853 1.429 . S
C1850 C1833 1.574 . S
C1850 H1844 0.949 . S
C1850 C1854 1.368 . S
C1851 C1832 1.429 . S
C1851 C1845 1.429 . S
C1851 C1852 1.523 . S
C1852 C1833 1.368 . S
C1852 C1846 1.368 . S
C1852 C1851 1.523 . S
C1853 C1837 1.429 . S
C1853 C1849 1.429 . S
C1853 C1854 1.523 . S
C1854 C1838 1.368 . S
C1854 C1850 1.368 . S
C1854 C1853 1.523 . S
H1855 C1830 0.950 . S
H1856 C1832 0.950 . S
H1857 C1833 0.949 . S
H1858 C1835 0.950 . S
H1859 C1837 0.950 . S
C1860 C1861 1.349 . S
C1860 C1862 1.327 . S
C1860 H1885 0.950 . S
C1861 C1860 1.349 . S
C1861 C1877 1.349 . S
C1862 C1860 1.327 . S
C1862 C1881 1.429 . S
C1862 H1886 0.950 . S
C1863 C1880 1.574 . S
C1863 C1882 1.368 . S
C1863 H1887 0.949 . S
H1864 C1868 0.949 . S
C1865 C1866 1.349 . S
C1865 C1867 1.327 . S
C1865 H1888 0.950 . S
C1866 C1865 1.349 . S
C1866 C1878 1.349 . S
C1867 C1865 1.327 . S
C1867 C1883 1.429 . S
C1867 H1889 0.950 . S
C1868 H1864 0.949 . S
C1868 C1876 1.574 . S
C1868 C1884 1.368 . S
H1869 C1877 0.950 . S
H1870 C1875 0.950 . S
H1871 C1876 0.949 . S
H1872 C1878 0.950 . S
H1873 C1879 0.950 . S
H1874 C1880 0.949 . S
C1875 H1870 0.950 . S
C1875 C1877 1.327 . S
C1875 C1881 1.429 . S
C1876 C1868 1.574 . S
C1876 H1871 0.949 . S
C1876 C1882 1.368 . S
C1877 C1861 1.349 . S
C1877 H1869 0.950 . S
C1877 C1875 1.327 . S
C1878 C1866 1.349 . S
C1878 H1872 0.950 . S
C1878 C1879 1.327 . S
C1879 H1873 0.950 . S
C1879 C1878 1.327 . S
C1879 C1883 1.429 . S
C1880 C1863 1.574 . S
C1880 H1874 0.949 . S
C1880 C1884 1.368 . S
C1881 C1862 1.429 . S
C1881 C1875 1.429 . S
C1881 C1882 1.523 . S
C1882 C1863 1.368 . S
C1882 C1876 1.368 . S
C1882 C1881 1.523 . S
C1883 C1867 1.429 . S
C1883 C1879 1.429 . S
C1883 C1884 1.523 . S
C1884 C1868 1.368 . S
C1884 C1880 1.368 . S
C1884 C1883 1.523 . S
H1885 C1860 0.950 . S
H1886 C1862 0.950 . S
H1887 C1863 0.949 . S
H1888 C1865 0.950 . S
H1889 C1867 0.950 . S
C1890 C1891 1.349 . S
C1890 C1892 1.327 . S
C1890 H1915 0.950 . S
C1891 C1890 1.349 . S
C1891 C1907 1.349 . S
C1892 C1890 1.327 . S
C1892 C1911 1.429 . S
C1892 H1916 0.950 . S
C1893 C1910 1.574 . S
C1893 C1912 1.368 . S
C1893 H1917 0.949 . S
H1894 C1898 0.949 . S
C1895 C1896 1.349 . S
C1895 C1897 1.327 . S
C1895 H1918 0.950 . S
C1896 C1895 1.349 . S
C1896 C1908 1.349 . S
C1897 C1895 1.327 . S
C1897 C1913 1.429 . S
C1897 H1919 0.950 . S
C1898 H1894 0.949 . S
C1898 C1906 1.574 . S
C1898 C1914 1.368 . S
H1899 C1907 0.950 . S
H1900 C1905 0.950 . S
H1901 C1906 0.949 . S
H1902 C1908 0.950 . S
H1903 C1909 0.950 . S
H1904 C1910 0.949 . S
C1905 H1900 0.950 . S
C1905 C1907 1.327 . S
C1905 C1911 1.429 . S
C1906 C1898 1.574 . S
C1906 H1901 0.949 . S
C1906 C1912 1.368 . S
C1907 C1891 1.349 . S
C1907 H1899 0.950 . S
C1907 C1905 1.327 . S
C1908 C1896 1.349 . S
C1908 H1902 0.950 . S
C1908 C1909 1.327 . S
C1909 H1903 0.950 . S
C1909 C1908 1.327 . S
C1909 C1913 1.429 . S
C1910 C1893 1.574 . S
C1910 H1904 0.949 . S
C1910 C1914 1.368 . S
C1911 C1892 1.429 . S
C1911 C1905 1.429 . S
C1911 C1912 1.523 . S
C1912 C1893 1.368 . S
C1912 C1906 1.368 . S
C1912 C1911 1.523 . S
C1913 C1897 1.429 . S
C1913 C1909 1.429 . S
C1913 C1914 1.523 . S
C1914 C1898 1.368 . S
C1914 C1910 1.368 . S
C1914 C1913 1.523 . S
H1915 C1890 0.950 . S
H1916 C1892 0.950 . S
H1917 C1893 0.949 . S
H1918 C1895 0.950 . S
H1919 C1897 0.950 . S
C481 C106 1.486 . S
C486 N14 1.394 . S
C511 C16 2.181 . S
C516 C46 2.190 . S
C541 C70 0.963 . S
C546 C31 0.965 . S
C571 N104 0.652 . S
C576 C87 0.618 . S
C601 C147 0.759 . S
C606 N164 0.761 . S
C631 C151 0.971 . S
C636 C190 0.976 . S
C661 N186 0.647 . S
C666 C220 0.617 . S
C691 N126 0.377 . S
C696 N216 0.422 . S
C721 C286 2.003 . S
C726 C1 2.001 . S
C751 C327 1.455 . S
C756 N44 1.378 . S
C781 N66 0.765 . S
C786 C417 0.769 . S
C811 C250 0.985 . S
C816 C91 0.986 . S
C841 C331 0.984 . S
C846 C130 0.990 . S
C871 C421 2.004 . S
C876 C166 2.003 . S
C901 C207 1.455 . S
C906 N374 1.382 . S
C931 N456 0.765 . S
C936 C237 0.761 . S
C961 N246 0.377 . S
C966 N396 0.421 . S
C991 N284 0.757 . S
C996 C267 0.757 . S
C1021 C310 0.971 . S
C1026 C271 0.974 . S
C1051 N434 1.397 . S
C1056 C346 1.486 . S
C1081 C361 0.963 . S
C1086 C460 0.968 . S
C1111 C357 1.486 . S
C1116 N6 1.400 . S
C1141 C387 2.191 . S
C1146 C27 2.184 . S
C1171 C370 0.963 . S
C1176 C61 0.961 . S
C1201 C76 0.620 . S
C1206 N336 0.653 . S
C1231 N276 0.757 . S
C1236 C136 0.758 . S
C1261 C280 0.971 . S
C1266 C181 0.966 . S
C1291 C391 0.623 . S
C1296 N194 0.649 . S
C1321 N134 0.377 . S
C1326 N404 0.425 . S
C1351 C177 2.003 . S
C1356 C10 2.006 . S
C1381 C316 1.455 . S
C1386 N366 1.382 . S
C1411 N74 0.765 . S
C1416 C226 0.764 . S
C1441 C241 0.985 . S
C1446 C340 0.981 . S
C1471 C100 0.984 . S
C1476 C121 0.980 . S
C1501 C297 2.003 . S
C1506 C430 2.004 . S
C1531 C196 1.455 . S
C1536 N36 1.379 . S
C1561 N464 0.765 . S
C1566 C406 0.772 . S
C1591 N254 0.377 . S
C1596 N224 0.426 . S
C1621 C256 0.759 . S
C1626 N156 0.759 . S
C1651 C301 0.971 . S
C1656 C160 0.968 . S
C1681 C117 1.486 . S
C1686 N426 1.397 . S
C1711 C40 0.963 . S
C1716 C451 0.959 . S
C1741 C376 2.191 . S
C1746 C436 2.181 . S
C1771 N344 0.652 . S
C1776 C477 0.621 . S
C1801 N306 0.647 . S
C1806 C400 0.625 . S
C1831 C447 2.181 . S
C1836 C57 2.191 . S
C1861 N96 0.652 . S
C1866 C466 0.619 . S
C1891 C211 0.622 . S
C1896 N314 0.643 . S
