# Generated by pormake.
# Topology unw, (4)-cn, num edge types: 1
# Building blocks:
#     Node 0, Type 0, BuildingBlock: NAWXER_clean_sbu_0, # of connection points: 4
#     Node 1, Type 0, BuildingBlock: NAWXER_clean_sbu_0, # of connection points: 4
#     Node 2, Type 0, BuildingBlock: NAWXER_clean_sbu_0, # of connection points: 4
#     Node 3, Type 0, BuildingBlock: NAWXER_clean_sbu_0, # of connection points: 4
#     Node 4, Type 0, BuildingBlock: NAWXER_clean_sbu_0, # of connection points: 4
#     Node 5, Type 0, BuildingBlock: NAWXER_clean_sbu_0, # of connection points: 4
#     Node 6, Type 0, BuildingBlock: NAWXER_clean_sbu_0, # of connection points: 4
#     Node 7, Type 0, BuildingBlock: NAWXER_clean_sbu_0, # of connection points: 4
#     Node 8, Type 0, BuildingBlock: NAWXER_clean_sbu_0, # of connection points: 4
#     Node 9, Type 0, BuildingBlock: NAWXER_clean_sbu_0, # of connection points: 4
#     Node 10, Type 0, BuildingBlock: NAWXER_clean_sbu_0, # of connection points: 4
#     Node 11, Type 0, BuildingBlock: NAWXER_clean_sbu_0, # of connection points: 4
#     Node 12, Type 0, BuildingBlock: NAWXER_clean_sbu_0, # of connection points: 4
#     Node 13, Type 0, BuildingBlock: NAWXER_clean_sbu_0, # of connection points: 4
#     Node 14, Type 0, BuildingBlock: NAWXER_clean_sbu_0, # of connection points: 4
#     Node 15, Type 0, BuildingBlock: NAWXER_clean_sbu_0, # of connection points: 4
#     Node 16, Type 0, BuildingBlock: NAWXER_clean_sbu_0, # of connection points: 4
#     Node 17, Type 0, BuildingBlock: NAWXER_clean_sbu_0, # of connection points: 4
#     Node 18, Type 0, BuildingBlock: NAWXER_clean_sbu_0, # of connection points: 4
#     Node 19, Type 0, BuildingBlock: NAWXER_clean_sbu_0, # of connection points: 4
#     Node 20, Type 0, BuildingBlock: NAWXER_clean_sbu_0, # of connection points: 4
#     Node 21, Type 0, BuildingBlock: NAWXER_clean_sbu_0, # of connection points: 4
#     Node 22, Type 0, BuildingBlock: NAWXER_clean_sbu_0, # of connection points: 4
#     Node 23, Type 0, BuildingBlock: NAWXER_clean_sbu_0, # of connection points: 4
#     Edge 24, Type (0, 0), BuildingBlock: XUDNAN_clean_linker_2, # of connection points: 2
#     Edge 25, Type (0, 0), BuildingBlock: XUDNAN_clean_linker_2, # of connection points: 2
#     Edge 26, Type (0, 0), BuildingBlock: XUDNAN_clean_linker_2, # of connection points: 2
#     Edge 27, Type (0, 0), BuildingBlock: XUDNAN_clean_linker_2, # of connection points: 2
#     Edge 28, Type (0, 0), BuildingBlock: XUDNAN_clean_linker_2, # of connection points: 2
#     Edge 29, Type (0, 0), BuildingBlock: XUDNAN_clean_linker_2, # of connection points: 2
#     Edge 30, Type (0, 0), BuildingBlock: XUDNAN_clean_linker_2, # of connection points: 2
#     Edge 31, Type (0, 0), BuildingBlock: XUDNAN_clean_linker_2, # of connection points: 2
#     Edge 32, Type (0, 0), BuildingBlock: XUDNAN_clean_linker_2, # of connection points: 2
#     Edge 33, Type (0, 0), BuildingBlock: XUDNAN_clean_linker_2, # of connection points: 2
#     Edge 34, Type (0, 0), BuildingBlock: XUDNAN_clean_linker_2, # of connection points: 2
#     Edge 35, Type (0, 0), BuildingBlock: XUDNAN_clean_linker_2, # of connection points: 2
#     Edge 36, Type (0, 0), BuildingBlock: XUDNAN_clean_linker_2, # of connection points: 2
#     Edge 37, Type (0, 0), BuildingBlock: XUDNAN_clean_linker_2, # of connection points: 2
#     Edge 38, Type (0, 0), BuildingBlock: XUDNAN_clean_linker_2, # of connection points: 2
#     Edge 39, Type (0, 0), BuildingBlock: XUDNAN_clean_linker_2, # of connection points: 2
#     Edge 40, Type (0, 0), BuildingBlock: XUDNAN_clean_linker_2, # of connection points: 2
#     Edge 41, Type (0, 0), BuildingBlock: XUDNAN_clean_linker_2, # of connection points: 2
#     Edge 42, Type (0, 0), BuildingBlock: XUDNAN_clean_linker_2, # of connection points: 2
#     Edge 43, Type (0, 0), BuildingBlock: XUDNAN_clean_linker_2, # of connection points: 2
#     Edge 44, Type (0, 0), BuildingBlock: XUDNAN_clean_linker_2, # of connection points: 2
#     Edge 45, Type (0, 0), BuildingBlock: XUDNAN_clean_linker_2, # of connection points: 2
#     Edge 46, Type (0, 0), BuildingBlock: XUDNAN_clean_linker_2, # of connection points: 2
#     Edge 47, Type (0, 0), BuildingBlock: XUDNAN_clean_linker_2, # of connection points: 2
#     Edge 48, Type (0, 0), BuildingBlock: XUDNAN_clean_linker_2, # of connection points: 2
#     Edge 49, Type (0, 0), BuildingBlock: XUDNAN_clean_linker_2, # of connection points: 2
#     Edge 50, Type (0, 0), BuildingBlock: XUDNAN_clean_linker_2, # of connection points: 2
#     Edge 51, Type (0, 0), BuildingBlock: XUDNAN_clean_linker_2, # of connection points: 2
#     Edge 52, Type (0, 0), BuildingBlock: XUDNAN_clean_linker_2, # of connection points: 2
#     Edge 53, Type (0, 0), BuildingBlock: XUDNAN_clean_linker_2, # of connection points: 2
#     Edge 54, Type (0, 0), BuildingBlock: XUDNAN_clean_linker_2, # of connection points: 2
#     Edge 55, Type (0, 0), BuildingBlock: XUDNAN_clean_linker_2, # of connection points: 2
#     Edge 56, Type (0, 0), BuildingBlock: XUDNAN_clean_linker_2, # of connection points: 2
#     Edge 57, Type (0, 0), BuildingBlock: XUDNAN_clean_linker_2, # of connection points: 2
#     Edge 58, Type (0, 0), BuildingBlock: XUDNAN_clean_linker_2, # of connection points: 2
#     Edge 59, Type (0, 0), BuildingBlock: XUDNAN_clean_linker_2, # of connection points: 2
#     Edge 60, Type (0, 0), BuildingBlock: XUDNAN_clean_linker_2, # of connection points: 2
#     Edge 61, Type (0, 0), BuildingBlock: XUDNAN_clean_linker_2, # of connection points: 2
#     Edge 62, Type (0, 0), BuildingBlock: XUDNAN_clean_linker_2, # of connection points: 2
#     Edge 63, Type (0, 0), BuildingBlock: XUDNAN_clean_linker_2, # of connection points: 2
#     Edge 64, Type (0, 0), BuildingBlock: XUDNAN_clean_linker_2, # of connection points: 2
#     Edge 65, Type (0, 0), BuildingBlock: XUDNAN_clean_linker_2, # of connection points: 2
#     Edge 66, Type (0, 0), BuildingBlock: XUDNAN_clean_linker_2, # of connection points: 2
#     Edge 67, Type (0, 0), BuildingBlock: XUDNAN_clean_linker_2, # of connection points: 2
#     Edge 68, Type (0, 0), BuildingBlock: XUDNAN_clean_linker_2, # of connection points: 2
#     Edge 69, Type (0, 0), BuildingBlock: XUDNAN_clean_linker_2, # of connection points: 2
#     Edge 70, Type (0, 0), BuildingBlock: XUDNAN_clean_linker_2, # of connection points: 2
#     Edge 71, Type (0, 0), BuildingBlock: XUDNAN_clean_linker_2, # of connection points: 2
# Relax obj value: 0.404
# Max RMSD: 0.268
# Mean RMSD: 0.268
data_MOF--net-unw--node1-NAWXER_clean_sbu_0--edge1-XUDNAN_clean_linker_2
_symmetry_space_group_name_H-M    P1
_symmetry_Int_Tables_number       1
_symmetry_cell_setting            triclinic
loop_
_symmetry_equiv_pos_as_xyz
'x, y, z'
_cell_length_a     46.904794
_cell_length_b     47.130717
_cell_length_c     47.072139
_cell_angle_alpha  89.77163
_cell_angle_beta   89.841788
_cell_angle_gamma 89.766873
loop_
_atom_site_label
_atom_site_type_symbol
_atom_site_fract_x
_atom_site_fract_y
_atom_site_fract_z
_atom_type_partial_charge
C0 C 0.17132 0.36889 0.22804 0.0
C1 C 0.07919 0.37289 0.2772 0.0
O2 O 0.14858 0.35678 0.21972 0.0
Zn3 Zn 0.12455 0.37135 0.25037 0.0
O4 O 0.17115 0.3835 0.25088 0.0
Zn5 Zn 0.14259 0.39678 0.28343 0.0
O6 O 0.1599 0.37808 0.31633 0.0
O7 O 0.14247 0.34815 0.28503 0.0
O8 O 0.09863 0.38719 0.28966 0.0
O9 O 0.08463 0.36111 0.25353 0.0
O10 O 0.1261 0.41589 0.24085 0.0
O11 O 0.14521 0.43751 0.27767 0.0
C12 C 0.15525 0.35265 0.30857 0.0
C13 C 0.13533 0.43859 0.25253 0.0
C14 C 0.68057 0.14287 0.20414 0.0
C15 C 0.64633 0.06541 0.26365 0.0
O16 O 0.68345 0.1164 0.19977 0.0
Zn17 Zn 0.65988 0.10452 0.23147 0.0
O18 O 0.66558 0.15155 0.22529 0.0
Zn19 Zn 0.64161 0.13312 0.26022 0.0
O20 O 0.66187 0.14898 0.29167 0.0
O21 O 0.68679 0.11825 0.26626 0.0
O22 O 0.63877 0.08948 0.27385 0.0
O23 O 0.65705 0.0644 0.23889 0.0
O24 O 0.61822 0.12014 0.21879 0.0
O25 O 0.6039 0.14728 0.25407 0.0
C26 C 0.68484 0.13519 0.28747 0.0
C27 C 0.59958 0.13697 0.22964 0.0
C28 C 0.93435 0.64254 0.27994 0.0
C29 C 0.84631 0.64938 0.22639 0.0
O30 O 0.9293 0.65288 0.25559 0.0
Zn31 Zn 0.89053 0.64108 0.25094 0.0
O32 O 0.91546 0.62658 0.29163 0.0
Zn33 Zn 0.87243 0.61312 0.27932 0.0
O34 O 0.87257 0.57327 0.2707 0.0
O35 O 0.88963 0.59807 0.23501 0.0
O36 O 0.84349 0.63173 0.24711 0.0
O37 O 0.87064 0.65987 0.22099 0.0
O38 O 0.86833 0.65937 0.28787 0.0
O39 O 0.85106 0.62311 0.31243 0.0
C40 C 0.8814 0.57422 0.24527 0.0
C41 C 0.85397 0.6497 0.30912 0.0
C42 C 0.30872 0.90267 0.22496 0.0
C43 C 0.41261 0.89256 0.21144 0.0
O44 O 0.32195 0.88707 0.24285 0.0
Zn45 Zn 0.36329 0.8731 0.25442 0.0
O46 O 0.32248 0.91686 0.20627 0.0
Zn47 Zn 0.36038 0.90314 0.21927 0.0
O48 O 0.35399 0.85975 0.209 0.0
O49 O 0.35528 0.83267 0.24746 0.0
O50 O 0.3966 0.91105 0.19969 0.0
O51 O 0.40272 0.87793 0.23223 0.0
O52 O 0.36563 0.89019 0.29272 0.0
O53 O 0.35999 0.92289 0.25965 0.0
C54 C 0.35165 0.83531 0.22068 0.0
C55 C 0.36092 0.91598 0.28594 0.0
C56 C 0.17103 0.68202 0.74427 0.0
C57 C 0.1467 0.59175 0.79026 0.0
O58 O 0.17069 0.66084 0.72733 0.0
Zn59 Zn 0.16154 0.61637 0.72818 0.0
O60 O 0.1625 0.67905 0.76985 0.0
Zn61 Zn 0.15278 0.63891 0.76697 0.0
O62 O 0.1953 0.62416 0.76106 0.0
O63 O 0.20047 0.60302 0.71936 0.0
O64 O 0.1418 0.61628 0.80043 0.0
O65 O 0.15304 0.58941 0.76387 0.0
O66 O 0.12988 0.61296 0.70135 0.0
O67 O 0.11801 0.63975 0.73776 0.0
C68 C 0.21092 0.61132 0.7429 0.0
C69 C 0.11193 0.62926 0.71344 0.0
C70 C 0.36506 0.17355 0.70559 0.0
C71 C 0.44744 0.14908 0.76281 0.0
O72 O 0.39107 0.17967 0.7012 0.0
Zn73 Zn 0.40597 0.15611 0.73098 0.0
O74 O 0.35858 0.15557 0.72521 0.0
Zn75 Zn 0.38195 0.13116 0.75775 0.0
O76 O 0.36194 0.14388 0.7905 0.0
O77 O 0.38534 0.17753 0.76744 0.0
O78 O 0.42529 0.13656 0.77271 0.0
O79 O 0.44608 0.16044 0.73841 0.0
O80 O 0.39802 0.11396 0.71373 0.0
O81 O 0.37533 0.09225 0.74833 0.0
C82 C 0.369 0.16978 0.78805 0.0
C83 C 0.38528 0.09181 0.72332 0.0
C84 C 0.88754 0.34592 0.77211 0.0
C85 C 0.90379 0.44233 0.80644 0.0
O86 O 0.8826 0.36527 0.7536 0.0
Zn87 Zn 0.88492 0.41054 0.74948 0.0
O88 O 0.89891 0.35227 0.79583 0.0
Zn89 Zn 0.90217 0.39284 0.78794 0.0
O90 O 0.85727 0.39984 0.78721 0.0
O91 O 0.84354 0.41664 0.74555 0.0
O92 O 0.91409 0.41981 0.81738 0.0
O93 O 0.89346 0.44138 0.78129 0.0
O94 O 0.91157 0.41557 0.71768 0.0
O95 O 0.93183 0.39291 0.75337 0.0
C96 C 0.83734 0.40798 0.77056 0.0
C97 C 0.93276 0.40192 0.72765 0.0
C98 C 0.64773 0.94735 0.76158 0.0
C99 C 0.67565 0.87145 0.82578 0.0
O100 O 0.65474 0.94844 0.78755 0.0
Zn101 Zn 0.65669 0.90855 0.79587 0.0
O102 O 0.64175 0.92319 0.75065 0.0
Zn103 Zn 0.64251 0.8796 0.76583 0.0
O104 O 0.60399 0.86564 0.76842 0.0
O105 O 0.61382 0.89326 0.80455 0.0
O106 O 0.66317 0.86195 0.80349 0.0
O107 O 0.67668 0.89803 0.83009 0.0
O108 O 0.68826 0.89347 0.76506 0.0
O109 O 0.66673 0.86254 0.73735 0.0
C110 C 0.59656 0.87638 0.79196 0.0
C111 C 0.6892 0.8758 0.74435 0.0
C112 C 0.22245 0.16843 0.38039 0.0
C113 C 0.26341 0.07193 0.38508 0.0
O114 O 0.21236 0.14658 0.36815 0.0
Zn115 Zn 0.23983 0.11946 0.3843 0.0
O116 O 0.24438 0.16586 0.39635 0.0
Zn117 Zn 0.27349 0.13389 0.4111 0.0
O118 O 0.30873 0.14855 0.39449 0.0
O119 O 0.27718 0.13417 0.36304 0.0
O120 O 0.27701 0.08977 0.40037 0.0
O121 O 0.24031 0.07964 0.37317 0.0
O122 O 0.22845 0.12158 0.42855 0.0
O123 O 0.26645 0.13628 0.45165 0.0
C124 C 0.30162 0.1447 0.36868 0.0
C125 C 0.24032 0.12916 0.45182 0.0
C126 C 0.92526 0.28145 0.38444 0.0
C127 C 0.84683 0.21584 0.38347 0.0
O128 O 0.92431 0.25577 0.37674 0.0
Zn129 Zn 0.88648 0.24708 0.38876 0.0
O130 O 0.90444 0.29173 0.39897 0.0
Zn131 Zn 0.86354 0.27526 0.41351 0.0
O132 O 0.86405 0.27069 0.45426 0.0
O133 O 0.88708 0.236 0.43321 0.0
O134 O 0.84062 0.23765 0.39864 0.0
O135 O 0.87188 0.21286 0.37361 0.0
O136 O 0.8597 0.27824 0.36611 0.0
O137 O 0.83818 0.30388 0.39912 0.0
C138 C 0.87691 0.24705 0.45592 0.0
C139 C 0.84227 0.29824 0.37303 0.0
C140 C 0.8029 0.88194 0.42453 0.0
C141 C 0.77128 0.87742 0.32569 0.0
O142 O 0.77738 0.87284 0.42171 0.0
Zn143 Zn 0.74663 0.86764 0.38923 0.0
O144 O 0.81519 0.89372 0.40348 0.0
Zn145 Zn 0.78648 0.88512 0.37447 0.0
O146 O 0.75262 0.91496 0.37631 0.0
O147 O 0.71486 0.89416 0.3948 0.0
O148 O 0.79482 0.88823 0.33367 0.0
O149 O 0.75278 0.8696 0.34417 0.0
O150 O 0.74122 0.82671 0.39253 0.0
O151 O 0.78405 0.83977 0.37772 0.0
C152 C 0.72626 0.91582 0.38338 0.0
C153 C 0.7664 0.82016 0.38448 0.0
C154 C 0.16437 0.82177 0.33647 0.0
C155 C 0.0944 0.75091 0.35986 0.0
O156 O 0.13779 0.82146 0.33182 0.0
Zn157 Zn 0.13032 0.78892 0.35463 0.0
O158 O 0.17558 0.80321 0.35331 0.0
Zn159 Zn 0.15821 0.76662 0.37842 0.0
O160 O 0.18474 0.73905 0.36724 0.0
O161 O 0.15798 0.75614 0.33245 0.0
O162 O 0.11793 0.74375 0.37191 0.0
O163 O 0.09207 0.77576 0.34995 0.0
O164 O 0.13567 0.8071 0.39737 0.0
O165 O 0.16306 0.77526 0.4175 0.0
C166 C 0.17823 0.73958 0.34114 0.0
C167 C 0.1498 0.79852 0.41916 0.0
C168 C 0.26663 0.83033 0.63826 0.0
C169 C 0.29915 0.92831 0.6276 0.0
O170 O 0.24721 0.84892 0.64283 0.0
Zn171 Zn 0.24184 0.89406 0.64215 0.0
O172 O 0.29079 0.83787 0.62832 0.0
Zn173 Zn 0.28207 0.87839 0.62629 0.0
O174 O 0.27857 0.88305 0.67103 0.0
O175 O 0.23554 0.89749 0.68361 0.0
O176 O 0.31141 0.90657 0.6172 0.0
O177 O 0.27342 0.92622 0.63661 0.0
O178 O 0.21153 0.89965 0.6137 0.0
O179 O 0.24966 0.87984 0.59479 0.0
C180 C 0.26063 0.88938 0.6905 0.0
C181 C 0.2237 0.88811 0.59248 0.0
C182 C 0.1285 0.22182 0.60161 0.0
C183 C 0.12401 0.26144 0.69743 0.0
O184 O 0.13727 0.24747 0.60282 0.0
Zn185 Zn 0.139 0.28087 0.63304 0.0
O186 O 0.1151 0.2114 0.62269 0.0
Zn187 Zn 0.12109 0.2425 0.64961 0.0
O188 O 0.0903 0.27531 0.64244 0.0
O189 O 0.11238 0.31123 0.6222 0.0
O190 O 0.11497 0.23698 0.69032 0.0
O191 O 0.13296 0.27867 0.67826 0.0
O192 O 0.18013 0.28702 0.63242 0.0
O193 O 0.16693 0.24549 0.65003 0.0
C194 C 0.08972 0.30072 0.63266 0.0
C195 C 0.18669 0.26299 0.6432 0.0
C196 C 0.77969 0.13042 0.72403 0.0
C197 C 0.81082 0.1451 0.62543 0.0
O198 O 0.7617 0.14214 0.70733 0.0
Zn199 Zn 0.75599 0.15492 0.66459 0.0
O200 O 0.80386 0.12215 0.7145 0.0
Zn201 Zn 0.79548 0.13323 0.6748 0.0
O202 O 0.79498 0.17798 0.68207 0.0
O203 O 0.752 0.19531 0.67291 0.0
O204 O 0.82306 0.12926 0.64368 0.0
O205 O 0.78601 0.15517 0.63087 0.0
O206 O 0.72323 0.13138 0.65429 0.0
O207 O 0.76028 0.10561 0.66748 0.0
C208 C 0.77751 0.19889 0.68145 0.0
C209 C 0.73387 0.10735 0.66078 0.0
C210 C 0.86011 0.70823 0.6595 0.0
C211 C 0.8847 0.77029 0.58082 0.0
O212 O 0.85413 0.70538 0.63336 0.0
Zn213 Zn 0.8769 0.7366 0.62037 0.0
O214 O 0.87735 0.7279 0.66721 0.0
Zn215 Zn 0.90083 0.76243 0.64646 0.0
O216 O 0.88581 0.79389 0.66735 0.0
O217 O 0.85383 0.77126 0.64168 0.0
O218 O 0.89668 0.77901 0.60362 0.0
O219 O 0.87306 0.74608 0.58082 0.0
O220 O 0.9199 0.72049 0.62776 0.0
O221 O 0.94022 0.7534 0.65356 0.0
C222 C 0.86018 0.79121 0.65909 0.0
C223 C 0.94169 0.72946 0.6415 0.0
C224 C 0.37185 0.21675 0.18726 0.0
C225 C 0.36839 0.25982 0.09229 0.0
O226 O 0.35938 0.20653 0.16559 0.0
Zn227 Zn 0.37224 0.2353 0.13864 0.0
O228 O 0.38626 0.23966 0.18479 0.0
Zn229 Zn 0.39762 0.27006 0.1528 0.0
O230 O 0.3798 0.30405 0.16825 0.0
O231 O 0.34952 0.27102 0.15472 0.0
O232 O 0.38401 0.27364 0.10966 0.0
O233 O 0.35848 0.2358 0.09965 0.0
O234 O 0.41726 0.22719 0.13791 0.0
O235 O 0.43856 0.26618 0.15244 0.0
C236 C 0.35424 0.29563 0.16502 0.0
C237 C 0.44012 0.24048 0.14445 0.0
C238 C 0.35663 0.70348 0.84165 0.0
C239 C 0.42978 0.77127 0.86388 0.0
O240 O 0.38221 0.70529 0.83316 0.0
Zn241 Zn 0.39211 0.73538 0.85777 0.0
O242 O 0.34718 0.72048 0.86092 0.0
Zn243 Zn 0.36615 0.75676 0.8847 0.0
O244 O 0.33961 0.78563 0.87521 0.0
O245 O 0.36499 0.76972 0.83899 0.0
O246 O 0.4071 0.77833 0.87757 0.0
O247 O 0.43059 0.7473 0.852 0.0
O248 O 0.38787 0.71459 0.89985 0.0
O249 O 0.36322 0.74624 0.9236 0.0
C250 C 0.34557 0.78644 0.84896 0.0
C251 C 0.37527 0.72223 0.92292 0.0
C252 C 0.22194 0.42137 0.88597 0.0
C253 C 0.27017 0.33026 0.87595 0.0
O254 O 0.24537 0.41506 0.87407 0.0
Zn255 Zn 0.2481 0.37568 0.88417 0.0
O256 O 0.20961 0.40273 0.90171 0.0
Zn257 Zn 0.2186 0.35856 0.91271 0.0
O258 O 0.22831 0.35559 0.95251 0.0
O259 O 0.26425 0.3713 0.92687 0.0
O260 O 0.24961 0.32915 0.89401 0.0
O261 O 0.27645 0.3538 0.86423 0.0
O262 O 0.21027 0.3571 0.86576 0.0
O263 O 0.18408 0.33981 0.90084 0.0
C264 C 0.25443 0.36228 0.95069 0.0
C265 C 0.18801 0.34379 0.87439 0.0
C266 C 0.67134 0.31406 0.85141 0.0
C267 C 0.59723 0.24679 0.86842 0.0
O268 O 0.64632 0.31196 0.84161 0.0
Zn269 Zn 0.63455 0.2831 0.86656 0.0
O270 O 0.67908 0.2979 0.87228 0.0
Zn271 Zn 0.6571 0.26294 0.89669 0.0
O272 O 0.68502 0.23456 0.89273 0.0
O273 O 0.66417 0.24792 0.85265 0.0
O274 O 0.61817 0.23968 0.88454 0.0
O275 O 0.59712 0.27125 0.85746 0.0
O276 O 0.63476 0.30624 0.90699 0.0
O277 O 0.65493 0.27505 0.93516 0.0
C278 C 0.68236 0.23221 0.86608 0.0
C279 C 0.64396 0.29927 0.93171 0.0
C280 C 0.7726 0.70139 0.89281 0.0
C281 C 0.8123 0.60492 0.90002 0.0
O282 O 0.75588 0.68136 0.88532 0.0
Zn283 Zn 0.75375 0.63605 0.88371 0.0
O284 O 0.79716 0.69536 0.90286 0.0
Zn285 Zn 0.79221 0.65399 0.90086 0.0
O286 O 0.79041 0.64987 0.85554 0.0
O287 O 0.74895 0.63186 0.84271 0.0
O288 O 0.82292 0.62715 0.9109 0.0
O289 O 0.78682 0.60581 0.89033 0.0
O290 O 0.72222 0.6289 0.91033 0.0
O291 O 0.75825 0.65052 0.93079 0.0
C292 C 0.77342 0.64158 0.836 0.0
C293 C 0.73247 0.64173 0.93169 0.0
C294 C 0.67398 0.73756 0.14951 0.0
C295 C 0.58809 0.79765 0.14278 0.0
O296 O 0.65039 0.7336 0.16242 0.0
Zn297 Zn 0.63055 0.76512 0.14397 0.0
O298 O 0.6764 0.75824 0.13184 0.0
Zn299 Zn 0.65067 0.79318 0.11538 0.0
O300 O 0.67398 0.82464 0.12806 0.0
O301 O 0.65543 0.79871 0.16258 0.0
O302 O 0.60833 0.80697 0.12693 0.0
O303 O 0.59136 0.77393 0.15523 0.0
O304 O 0.63129 0.75009 0.10038 0.0
O305 O 0.65094 0.78446 0.07541 0.0
C306 C 0.67134 0.81931 0.15444 0.0
C307 C 0.64069 0.75958 0.07653 0.0
C308 C 0.262 0.62924 0.1863 0.0
C309 C 0.29749 0.62017 0.08828 0.0
O310 O 0.2436 0.63339 0.16672 0.0
Zn311 Zn 0.23934 0.63246 0.12166 0.0
O312 O 0.28685 0.62002 0.17983 0.0
Zn313 Zn 0.2797 0.61825 0.1386 0.0
O314 O 0.27417 0.66294 0.13394 0.0
O315 O 0.23092 0.67295 0.11761 0.0
O316 O 0.30985 0.61023 0.11022 0.0
O317 O 0.2714 0.62806 0.09016 0.0
O318 O 0.20984 0.60378 0.11704 0.0
O319 O 0.24774 0.58617 0.13841 0.0
C320 C 0.25514 0.68105 0.12674 0.0
C321 C 0.22176 0.58355 0.1305 0.0
C322 C 0.72185 0.38678 0.10013 0.0
C323 C 0.75726 0.37147 0.19702 0.0
O324 O 0.74745 0.3772 0.10094 0.0
Zn325 Zn 0.77931 0.36763 0.13184 0.0
O326 O 0.70997 0.39464 0.12311 0.0
Zn327 Zn 0.74 0.38303 0.14958 0.0
O328 O 0.77319 0.41375 0.14829 0.0
O329 O 0.81045 0.39486 0.12678 0.0
O330 O 0.73316 0.38227 0.1905 0.0
O331 O 0.77536 0.36569 0.17738 0.0
O332 O 0.78502 0.32712 0.1247 0.0
O333 O 0.74275 0.33822 0.14239 0.0
C334 C 0.79906 0.41566 0.13971 0.0
C335 C 0.76043 0.31947 0.13337 0.0
H336 H 0.23483 0.55134 0.17683 0.0
H337 H 0.16883 0.5644 0.11367 0.0
H338 H 0.13786 0.5303 0.13947 0.0
H339 H 0.22261 0.47666 0.19056 0.0
H340 H 0.22955 0.48016 0.22801 0.0
H341 H 0.24663 0.50364 0.20302 0.0
H342 H 0.22635 0.54681 0.2306 0.0
H343 H 0.20864 0.52344 0.25527 0.0
H344 H 0.18841 0.54983 0.23608 0.0
H345 H 0.11457 0.49377 0.17264 0.0
H346 H 0.10151 0.45824 0.20937 0.0
H347 H 0.18132 0.47361 0.25267 0.0
C348 C 0.21413 0.5466 0.16793 0.0
C349 C 0.20448 0.56017 0.14284 0.0
C350 C 0.17684 0.55396 0.13258 0.0
C351 C 0.15907 0.53476 0.14722 0.0
C352 C 0.16906 0.52239 0.17234 0.0
C353 C 0.19599 0.52811 0.18255 0.0
C354 C 0.20145 0.51313 0.21054 0.0
C355 C 0.22654 0.49215 0.20786 0.0
C356 C 0.20651 0.53459 0.23454 0.0
C357 C 0.17345 0.49778 0.21454 0.0
C358 C 0.15505 0.50318 0.19222 0.0
C359 C 0.12866 0.48977 0.19039 0.0
C360 C 0.12132 0.46978 0.21143 0.0
C361 C 0.14002 0.46381 0.23429 0.0
C362 C 0.16611 0.47852 0.23607 0.0
H363 H 0.56984 0.18618 0.23711 0.0
H364 H 0.57548 0.1124 0.18255 0.0
H365 H 0.53735 0.13256 0.15205 0.0
H366 H 0.49445 0.19673 0.2334 0.0
H367 H 0.49709 0.23487 0.23296 0.0
H368 H 0.52416 0.21395 0.25026 0.0
H369 H 0.56269 0.23827 0.21905 0.0
H370 H 0.53562 0.25888 0.20126 0.0
H371 H 0.55971 0.23702 0.1809 0.0
H372 H 0.49661 0.16026 0.12909 0.0
H373 H 0.45713 0.19276 0.1159 0.0
H374 H 0.48177 0.24985 0.18342 0.0
C375 C 0.56286 0.17403 0.21895 0.0
C376 C 0.57532 0.14749 0.21242 0.0
C377 C 0.56602 0.13264 0.18807 0.0
C378 C 0.5445 0.144 0.17058 0.0
C379 C 0.53295 0.17046 0.17746 0.0
C380 C 0.54194 0.18529 0.20103 0.0
C381 C 0.5265 0.21341 0.20373 0.0
C382 C 0.50954 0.2148 0.23174 0.0
C383 C 0.54738 0.23837 0.20107 0.0
C384 C 0.50694 0.21195 0.17829 0.0
C385 C 0.51089 0.18701 0.16338 0.0
C386 C 0.49368 0.18005 0.14033 0.0
C387 C 0.47141 0.19867 0.1329 0.0
C388 C 0.46682 0.22411 0.1482 0.0
C389 C 0.48533 0.23105 0.17071 0.0
H390 H 0.79273 0.44334 0.18944 0.0
H391 H 0.84528 0.4415 0.1136 0.0
H392 H 0.87434 0.48108 0.13288 0.0
H393 H 0.79218 0.51779 0.20104 0.0
H394 H 0.79424 0.51435 0.23913 0.0
H395 H 0.77785 0.48684 0.21851 0.0
H396 H 0.81242 0.44986 0.24065 0.0
H397 H 0.82913 0.47733 0.26114 0.0
H398 H 0.85035 0.45533 0.23799 0.0
H399 H 0.8954 0.52376 0.16052 0.0
H400 H 0.9078 0.56226 0.19414 0.0
H401 H 0.84382 0.53114 0.25301 0.0
C402 C 0.81015 0.45145 0.17665 0.0
C403 C 0.81642 0.43982 0.14974 0.0
C404 C 0.83995 0.45039 0.13412 0.0
C405 C 0.85655 0.47279 0.14496 0.0
C406 C 0.84973 0.48373 0.17173 0.0
C407 C 0.82723 0.47304 0.18742 0.0
C408 C 0.82454 0.48746 0.21593 0.0
C409 C 0.79549 0.5025 0.2188 0.0
C410 C 0.82941 0.46622 0.24037 0.0
C411 C 0.84867 0.50851 0.2138 0.0
C412 C 0.86292 0.50634 0.18814 0.0
C413 C 0.88467 0.52522 0.18084 0.0
C414 C 0.89163 0.54698 0.20007 0.0
C415 C 0.87723 0.54936 0.22647 0.0
C416 C 0.85584 0.52947 0.23341 0.0
H417 H 0.54577 0.78948 0.18287 0.0
H418 H 0.57218 0.84686 0.11554 0.0
H419 H 0.53132 0.87828 0.12652 0.0
H420 H 0.46964 0.79745 0.1727 0.0
H421 H 0.46173 0.79595 0.21016 0.0
H422 H 0.49263 0.77781 0.19637 0.0
H423 H 0.52457 0.80502 0.23177 0.0
H424 H 0.49379 0.82347 0.24546 0.0
H425 H 0.52376 0.84326 0.23201 0.0
H426 H 0.48685 0.90373 0.14513 0.0
H427 H 0.44254 0.91996 0.1689 0.0
H428 H 0.44638 0.84671 0.22495 0.0
C429 C 0.54284 0.80849 0.17021 0.0
C430 C 0.56225 0.81551 0.14817 0.0
C431 C 0.55767 0.84086 0.13244 0.0
C432 C 0.5345 0.85893 0.13858 0.0
C433 C 0.51604 0.85157 0.16068 0.0
C434 C 0.51995 0.8269 0.1762 0.0
C435 C 0.49724 0.82397 0.19906 0.0
C436 C 0.47924 0.79721 0.19427 0.0
C437 C 0.51065 0.82393 0.22883 0.0
C438 C 0.4799 0.85076 0.19393 0.0
C439 C 0.49102 0.86643 0.17169 0.0
C440 C 0.47808 0.89165 0.16266 0.0
C441 C 0.45294 0.90079 0.17638 0.0
C442 C 0.44097 0.88488 0.19905 0.0
C443 C 0.45504 0.85971 0.20801 0.0
H444 H 0.22802 0.45112 0.83681 0.0
H445 H 0.1819 0.45189 0.91671 0.0
H446 H 0.15629 0.49562 0.90131 0.0
H447 H 0.23545 0.52666 0.82672 0.0
H448 H 0.23003 0.52396 0.78893 0.0
H449 H 0.24531 0.49465 0.80823 0.0
H450 H 0.20543 0.46231 0.78797 0.0
H451 H 0.18973 0.49211 0.76968 0.0
H452 H 0.1686 0.47151 0.79419 0.0
H453 H 0.13709 0.54143 0.8764 0.0
H454 H 0.12471 0.58156 0.84416 0.0
H455 H 0.1806 0.54619 0.77976 0.0
C456 C 0.21287 0.46068 0.85134 0.0
C457 C 0.20738 0.4484 0.87823 0.0
C458 C 0.18669 0.46113 0.89615 0.0
C459 C 0.17203 0.48594 0.88753 0.0
C460 C 0.17787 0.49736 0.86067 0.0
C461 C 0.19765 0.48483 0.84282 0.0
C462 C 0.19926 0.49999 0.81449 0.0
C463 C 0.22929 0.51204 0.80932 0.0
C464 C 0.19021 0.48031 0.79016 0.0
C465 C 0.17761 0.52338 0.81915 0.0
C466 C 0.16558 0.52188 0.84595 0.0
C467 C 0.14613 0.54246 0.85525 0.0
C468 C 0.13913 0.56514 0.8368 0.0
C469 C 0.1511 0.56673 0.80917 0.0
C470 C 0.17035 0.54528 0.80039 0.0
H471 H 0.57155 0.24741 0.81725 0.0
H472 H 0.57538 0.19883 0.89553 0.0
H473 H 0.53924 0.16548 0.87614 0.0
H474 H 0.49807 0.24177 0.80425 0.0
H475 H 0.50234 0.23873 0.76631 0.0
H476 H 0.52836 0.25763 0.78678 0.0
H477 H 0.56826 0.22519 0.76651 0.0
H478 H 0.54228 0.206 0.74615 0.0
H479 H 0.56539 0.18724 0.77038 0.0
H480 H 0.49883 0.13992 0.84794 0.0
H481 H 0.46136 0.1243 0.81436 0.0
H482 H 0.48887 0.1885 0.75415 0.0
C483 C 0.56477 0.22985 0.83053 0.0
C484 C 0.57589 0.22601 0.85816 0.0
C485 C 0.56694 0.20231 0.87441 0.0
C486 C 0.54649 0.18329 0.8635 0.0
C487 C 0.53585 0.18795 0.83608 0.0
C488 C 0.54513 0.21056 0.8198 0.0
C489 C 0.531 0.21131 0.791 0.0
C490 C 0.51393 0.23899 0.78686 0.0
C491 C 0.55305 0.20718 0.7671 0.0
C492 C 0.51159 0.18595 0.79358 0.0
C493 C 0.51446 0.17264 0.81967 0.0
C494 C 0.4969 0.14996 0.82731 0.0
C495 C 0.4757 0.14116 0.80807 0.0
C496 C 0.47241 0.15481 0.78135 0.0
C497 C 0.49114 0.17707 0.77402 0.0
H498 H 0.80563 0.57022 0.85502 0.0
H499 H 0.86081 0.5844 0.92725 0.0
H500 H 0.89186 0.54446 0.91134 0.0
H501 H 0.81084 0.49441 0.85164 0.0
H502 H 0.81107 0.49412 0.81336 0.0
H503 H 0.79301 0.5222 0.83206 0.0
H504 H 0.82308 0.55936 0.80452 0.0
H505 H 0.84148 0.53138 0.78599 0.0
H506 H 0.86144 0.55726 0.80572 0.0
H507 H 0.91571 0.50032 0.88684 0.0
H508 H 0.93068 0.46031 0.85573 0.0
H509 H 0.86166 0.48085 0.79803 0.0
C510 C 0.82394 0.56468 0.86793 0.0
C511 C 0.83041 0.58 0.89281 0.0
C512 C 0.8552 0.57266 0.90837 0.0
C513 C 0.87296 0.55006 0.89941 0.0
C514 C 0.86596 0.53556 0.8745 0.0
C515 C 0.8421 0.54295 0.85893 0.0
C516 C 0.83963 0.52557 0.83216 0.0
C517 C 0.81201 0.50804 0.83234 0.0
C518 C 0.84153 0.54453 0.80553 0.0
C519 C 0.86565 0.50682 0.83504 0.0
C520 C 0.88055 0.51244 0.85967 0.0
C521 C 0.90437 0.49616 0.86732 0.0
C522 C 0.91281 0.47353 0.8495 0.0
C523 C 0.89782 0.46782 0.82407 0.0
C524 C 0.8742 0.48507 0.81683 0.0
H525 H 0.56497 0.82949 0.7795 0.0
H526 H 0.56798 0.90106 0.837 0.0
H527 H 0.52521 0.88271 0.86209 0.0
H528 H 0.48827 0.82323 0.77497 0.0
H529 H 0.48941 0.78501 0.7744 0.0
H530 H 0.51883 0.8051 0.76032 0.0
H531 H 0.55332 0.7782 0.79402 0.0
H532 H 0.52397 0.75822 0.80839 0.0
H533 H 0.54656 0.77831 0.83174 0.0
H534 H 0.48095 0.85535 0.88087 0.0
H535 H 0.44189 0.8215 0.89188 0.0
H536 H 0.47134 0.76721 0.82355 0.0
C537 C 0.55644 0.84163 0.79708 0.0
C538 C 0.56968 0.86697 0.806 0.0
C539 C 0.5581 0.88173 0.82959 0.0
C540 C 0.53381 0.87143 0.84399 0.0
C541 C 0.52152 0.84612 0.83481 0.0
C542 C 0.53264 0.83143 0.81191 0.0
C543 C 0.5166 0.80414 0.80683 0.0
C544 C 0.50244 0.8044 0.77739 0.0
C545 C 0.53629 0.77819 0.81047 0.0
C546 C 0.49462 0.80564 0.83037 0.0
C547 C 0.49745 0.83006 0.84622 0.0
C548 C 0.47876 0.83609 0.86864 0.0
C549 C 0.45664 0.81674 0.87481 0.0
C550 C 0.45368 0.79146 0.8589 0.0
C551 C 0.47315 0.78604 0.83652 0.0
H552 H 0.17732 0.22926 0.57156 0.0
H553 H 0.1058 0.1719 0.58074 0.0
H554 H 0.12774 0.13993 0.54483 0.0
H555 H 0.18966 0.22074 0.4969 0.0
H556 H 0.22787 0.22217 0.50047 0.0
H557 H 0.20543 0.24048 0.52553 0.0
H558 H 0.23008 0.21338 0.56682 0.0
H559 H 0.25228 0.19462 0.54182 0.0
H560 H 0.23056 0.17514 0.56673 0.0
H561 H 0.15748 0.1156 0.50564 0.0
H562 H 0.1922 0.10073 0.4687 0.0
H563 H 0.24595 0.17206 0.48997 0.0
C564 C 0.16591 0.21023 0.56571 0.0
C565 C 0.13947 0.20338 0.57848 0.0
C566 C 0.12584 0.17776 0.5709 0.0
C567 C 0.13823 0.15946 0.55064 0.0
C568 C 0.16457 0.16679 0.53874 0.0
C569 C 0.17827 0.19153 0.54624 0.0
C570 C 0.20681 0.19432 0.5314 0.0
C571 C 0.20746 0.221 0.51245 0.0
C572 C 0.23138 0.19436 0.55298 0.0
C573 C 0.207 0.1675 0.51385 0.0
C574 C 0.1824 0.15192 0.51815 0.0
C575 C 0.17699 0.1274 0.50255 0.0
C576 C 0.19687 0.11903 0.48171 0.0
C577 C 0.22213 0.13479 0.47701 0.0
C578 C 0.22737 0.15899 0.49376 0.0
H579 H 0.79984 0.19349 0.59592 0.0
H580 H 0.85693 0.12089 0.59764 0.0
H581 H 0.88276 0.14045 0.55578 0.0
H582 H 0.79461 0.20147 0.52114 0.0
H583 H 0.79421 0.23969 0.5224 0.0
H584 H 0.7808 0.21946 0.55201 0.0
H585 H 0.8157 0.24559 0.5855 0.0
H586 H 0.82947 0.26566 0.55588 0.0
H587 H 0.85336 0.24507 0.57777 0.0
H588 H 0.90034 0.16766 0.51148 0.0
H589 H 0.90824 0.19958 0.47027 0.0
H590 H 0.84138 0.25542 0.50114 0.0
C591 C 0.81761 0.18146 0.58741 0.0
C592 C 0.82611 0.15539 0.59977 0.0
C593 C 0.84992 0.14077 0.58834 0.0
C594 C 0.86473 0.15179 0.56466 0.0
C595 C 0.85579 0.1777 0.55311 0.0
C596 C 0.83286 0.19237 0.56434 0.0
C597 C 0.82744 0.21986 0.54855 0.0
C598 C 0.7975 0.22011 0.53523 0.0
C599 C 0.83176 0.24556 0.56809 0.0
C600 C 0.85049 0.21824 0.52611 0.0
C601 C 0.86668 0.19381 0.52895 0.0
C602 C 0.88803 0.18702 0.50937 0.0
C603 C 0.89243 0.20532 0.48606 0.0
C604 C 0.87576 0.23026 0.48266 0.0
C605 C 0.85499 0.23693 0.5034 0.0
H606 H 0.79272 0.83463 0.45532 0.0
H607 H 0.85149 0.90514 0.4488 0.0
H608 H 0.88048 0.884 0.48784 0.0
H609 H 0.79525 0.82344 0.53054 0.0
H610 H 0.79388 0.78538 0.52719 0.0
H611 H 0.77757 0.80761 0.5006 0.0
H612 H 0.8077 0.78263 0.46169 0.0
H613 H 0.82445 0.76061 0.48822 0.0
H614 H 0.846 0.78194 0.46472 0.0
H615 H 0.90191 0.85426 0.52956 0.0
H616 H 0.91428 0.81906 0.56701 0.0
H617 H 0.84331 0.76681 0.54066 0.0
C618 C 0.81133 0.84611 0.46243 0.0
C619 C 0.81943 0.872 0.44953 0.0
C620 C 0.84462 0.88557 0.45876 0.0
C621 C 0.86122 0.87362 0.4808 0.0
C622 C 0.85268 0.84777 0.49277 0.0
C623 C 0.82838 0.83417 0.48357 0.0
C624 C 0.82424 0.80595 0.49832 0.0
C625 C 0.79607 0.80559 0.51517 0.0
C626 C 0.82569 0.78134 0.47696 0.0
C627 C 0.84974 0.80578 0.51783 0.0
C628 C 0.86589 0.83008 0.51465 0.0
C629 C 0.88957 0.83504 0.53186 0.0
C630 C 0.89651 0.8149 0.55301 0.0
C631 C 0.88012 0.7899 0.55645 0.0
C632 C 0.85676 0.78529 0.5382 0.0
H633 H 0.19184 0.79262 0.45814 0.0
H634 H 0.11855 0.84529 0.43805 0.0
H635 H 0.12864 0.87481 0.48062 0.0
H636 H 0.18584 0.79385 0.53394 0.0
H637 H 0.22388 0.79523 0.53901 0.0
H638 H 0.20949 0.77818 0.50808 0.0
H639 H 0.24002 0.81082 0.47571 0.0
H640 H 0.25438 0.82809 0.50652 0.0
H641 H 0.23703 0.84879 0.47926 0.0
H642 H 0.14757 0.89771 0.52783 0.0
H643 H 0.17424 0.91256 0.57091 0.0
H644 H 0.23626 0.84594 0.55542 0.0
C645 C 0.17755 0.81013 0.4627 0.0
C646 C 0.15408 0.81633 0.4449 0.0
C647 C 0.1365 0.83994 0.45149 0.0
C648 C 0.14212 0.8568 0.47563 0.0
C649 C 0.16566 0.85002 0.49265 0.0
C650 C 0.18314 0.82728 0.48612 0.0
C651 C 0.2078 0.82467 0.50658 0.0
C652 C 0.20667 0.79631 0.52286 0.0
C653 C 0.23649 0.82832 0.49108 0.0
C654 C 0.20163 0.84942 0.52593 0.0
C655 C 0.17712 0.86376 0.518 0.0
C656 C 0.16694 0.88672 0.53389 0.0
C657 C 0.1822 0.89504 0.55832 0.0
C658 C 0.20763 0.88076 0.5663 0.0
C659 C 0.21728 0.85777 0.54965 0.0
H660 H 0.68228 0.99218 0.77185 0.0
H661 H 0.62447 0.95864 0.70879 0.0
H662 H 0.63758 0.99792 0.67598 0.0
H663 H 0.67408 0.06811 0.75567 0.0
H664 H 0.7115 0.07442 0.76143 0.0
H665 H 0.69369 0.04652 0.78063 0.0
H666 H 0.73148 0.01071 0.76187 0.0
H667 H 0.7488 0.03852 0.74216 0.0
H668 H 0.73676 1.00713 0.7241 0.0
H669 H 0.65935 0.04159 0.64936 0.0
H670 H 0.68949 0.08145 0.63156 0.0
H671 H 0.7356 0.08097 0.71115 0.0
C672 C 0.67164 0.9935 0.75149 0.0
C673 C 0.65183 0.97268 0.74315 0.0
C674 C 0.63934 0.97464 0.71581 0.0
C675 C 0.64671 0.99687 0.69704 0.0
C676 C 0.66695 0.01668 0.70576 0.0
C677 C 0.67928 0.01495 0.73239 0.0
C678 C 0.70253 0.03672 0.73599 0.0
C679 C 0.69498 0.05768 0.75983 0.0
C680 C 0.7316 0.0224 0.74133 0.0
C681 C 0.70164 0.05095 0.7072 0.0
C682 C 0.68069 0.0397 0.69006 0.0
C683 C 0.67592 0.05033 0.66263 0.0
C684 C 0.69309 0.07287 0.65262 0.0
C685 C 0.71519 0.08374 0.66976 0.0
C686 C 0.71924 0.07261 0.69733 0.0
H687 H 0.98328 0.73572 0.68157 0.0
H688 H 0.95726 0.68091 0.61261 0.0
H689 H 0.99803 0.64887 0.62304 0.0
H690 H 0.05957 0.7275 0.67311 0.0
H691 H 0.06602 0.72754 0.71084 0.0
H692 H 0.03591 0.74659 0.69655 0.0
H693 H 1.0022 0.71858 0.73006 0.0
H694 H 0.03216 0.69925 0.74427 0.0
H695 H 1.00252 0.68034 0.72924 0.0
H696 H 0.04269 0.62273 0.64172 0.0
H697 H 0.08534 0.60484 0.66734 0.0
H698 H 0.0792 0.67579 0.72547 0.0
C699 C 0.98632 0.71722 0.66831 0.0
C700 C 0.96719 0.71106 0.64599 0.0
C701 C 0.97171 0.68623 0.62966 0.0
C702 C 0.99481 0.66788 0.63548 0.0
C703 C 0.01303 0.67446 0.65792 0.0
C704 C 1.00888 0.69854 0.6741 0.0
C705 C 0.0306 0.70042 0.69777 0.0
C706 C 0.04912 0.72709 0.69435 0.0
C707 C 0.01599 0.69959 0.72706 0.0
C708 C 0.04774 0.67367 0.69246 0.0
C709 C 0.03754 0.65901 0.66927 0.0
C710 C 0.05067 0.63402 0.66 0.0
C711 C 0.07487 0.62397 0.6747 0.0
C712 C 0.08547 0.63865 0.69866 0.0
C713 C 0.07144 0.66372 0.70757 0.0
H714 H 0.34061 0.05573 0.7287 0.0
H715 H 0.41357 0.07362 0.67493 0.0
H716 H 0.39957 0.03405 0.64312 0.0
H717 H 0.34048 0.97997 0.72226 0.0
H718 H 0.30213 0.9779 0.72149 0.0
H719 H 0.3192 1.00641 0.74013 0.0
H720 H 0.29045 0.04293 0.71029 0.0
H721 H 0.27351 0.01452 0.69135 0.0
H722 H 0.29242 0.04171 0.67206 0.0
H723 H 0.37737 0.98996 0.61833 0.0
H724 H 0.34829 0.94908 0.60219 0.0
H725 H 0.28821 0.96501 0.67049 0.0
C726 C 0.35396 0.05115 0.71046 0.0
C727 C 0.37852 0.06744 0.70459 0.0
C728 C 0.39485 0.06121 0.68001 0.0
C729 C 0.387 0.0388 0.66183 0.0
C730 C 0.36244 0.02328 0.66823 0.0
C731 C 0.34608 0.02951 0.69189 0.0
C732 C 0.32001 0.01082 0.69374 0.0
C733 C 0.3205 0.9927 0.72102 0.0
C734 C 0.29248 0.02856 0.69173 0.0
C735 C 0.32423 0.99277 0.6676 0.0
C736 C 0.34892 0.99987 0.65318 0.0
C737 C 0.35779 0.98461 0.62928 0.0
C738 C 0.34114 0.96147 0.6202 0.0
C739 C 0.31562 0.95422 0.63463 0.0
C740 C 0.30713 0.97043 0.65841 0.0
H741 H 0.05107 0.29284 0.67498 0.0
H742 H 0.07288 0.35094 0.60674 0.0
H743 H 0.03418 0.38348 0.62258 0.0
H744 H 0.97434 0.30452 0.67609 0.0
H745 H 0.9726 0.30248 0.71429 0.0
H746 H 0.99966 0.28297 0.69532 0.0
H747 H 0.03866 0.3073 0.7255 0.0
H748 H 0.01179 0.32714 0.74431 0.0
H749 H 0.04035 0.34549 0.72642 0.0
H750 H 0.99213 0.40983 0.64727 0.0
H751 H 0.95385 0.42789 0.67917 0.0
H752 H 0.96446 0.35386 0.7331 0.0
C753 C 0.04732 0.31204 0.6628 0.0
C754 C 0.06463 0.31901 0.63915 0.0
C755 C 0.0596 0.34493 0.62461 0.0
C756 C 0.03771 0.36355 0.63354 0.0
C757 C 0.02141 0.35618 0.65736 0.0
C758 C 0.0262 0.33102 0.67181 0.0
C759 C 1.00753 0.32869 0.69798 0.0
C760 C 0.98734 0.30316 0.69577 0.0
C761 C 0.02567 0.32707 0.72515 0.0
C762 C 0.99135 0.35645 0.69615 0.0
C763 C 0.9992 0.37195 0.67242 0.0
C764 C 0.98609 0.3979 0.66602 0.0
C765 C 0.96442 0.40805 0.68425 0.0
C766 C 0.95656 0.3926 0.70892 0.0
C767 C 0.97042 0.36656 0.71481 0.0
H768 H 0.73414 0.94015 0.33227 0.0
H769 H 0.67742 0.94144 0.4051 0.0
H770 H 0.6475 0.97801 0.38084 0.0
H771 H 0.73195 0.01303 0.3145 0.0
H772 H 0.73241 1.00667 0.27677 0.0
H773 H 0.74864 0.98147 0.30057 0.0
H774 H 0.71715 0.94168 0.27957 0.0
H775 H 0.70046 0.96687 0.25597 0.0
H776 H 0.67892 0.94575 0.27966 0.0
H777 H 0.6265 0.01774 0.34879 0.0
H778 H 0.61564 0.0544 0.3124 0.0
H779 H 0.68388 0.02159 0.25948 0.0
C780 C 0.71564 0.94837 0.3434 0.0
C781 C 0.70845 0.93861 0.37089 0.0
C782 C 0.68349 0.94907 0.38422 0.0
C783 C 0.66638 0.96967 0.37052 0.0
C784 C 0.67416 0.97876 0.34323 0.0
C785 C 0.69808 0.96806 0.32981 0.0
C786 C 0.70188 0.98044 0.30039 0.0
C787 C 0.7304 0.99635 0.29793 0.0
C788 C 0.69945 0.9573 0.27756 0.0
C789 C 0.67677 1.00058 0.29941 0.0
C790 C 0.661 0.99952 0.32429 0.0
C791 C 0.63836 0.01825 0.32905 0.0
C792 C 0.63227 0.03894 0.30823 0.0
C793 C 0.64846 0.04044 0.2828 0.0
C794 C 0.67046 0.02044 0.2782 0.0
H795 H 0.96511 0.69038 0.26994 0.0
H796 H 0.96087 0.61769 0.32649 0.0
H797 H 1.00196 0.63665 0.35369 0.0
H798 H 0.04132 0.69905 0.26867 0.0
H799 H 0.039 0.73723 0.26857 0.0
H800 H 1.01087 0.71657 0.2531 0.0
H801 H 0.97409 0.74162 0.28579 0.0
H802 H 1.00213 0.76219 0.30154 0.0
H803 H 0.97921 0.7409 0.32373 0.0
H804 H 0.04539 0.66476 0.37413 0.0
H805 H 0.08309 0.69952 0.38671 0.0
H806 H 0.0543 0.75449 0.31843 0.0
C807 C 0.97302 0.67809 0.28777 0.0
C808 C 0.96003 0.65222 0.29574 0.0
C809 C 0.97066 0.63738 0.31976 0.0
C810 C 0.99398 0.64804 0.33534 0.0
C811 C 1.00611 0.67384 0.32694 0.0
C812 C 0.99567 0.68868 0.30378 0.0
C813 C 1.01104 0.71655 0.29967 0.0
C814 C 0.02648 0.71738 0.27079 0.0
C815 C 0.99038 0.7418 0.30289 0.0
C816 C 0.03199 0.71521 0.32399 0.0
C817 C 0.02925 0.69037 0.33943 0.0
C818 C 0.04739 0.68437 0.36227 0.0
C819 C 0.06874 0.70423 0.36932 0.0
C820 C 0.07141 0.72999 0.35393 0.0
C821 C 0.05257 0.73533 0.3311 0.0
H822 H 0.32128 0.95681 0.27646 0.0
H823 H 0.37441 0.92157 0.34316 0.0
H824 H 0.35354 0.95626 0.37725 0.0
H825 H 0.32355 0.02934 0.29679 0.0
H826 H 0.2868 0.03602 0.28779 0.0
H827 H 0.30654 1.00889 0.26939 0.0
H828 H 0.26789 0.97254 0.28322 0.0
H829 H 0.24821 0.99904 0.30249 0.0
H830 H 0.25917 0.96674 0.32006 0.0
H831 H 0.32803 0.99791 0.40299 0.0
H832 H 0.29951 0.03972 0.41802 0.0
H833 H 0.26045 0.04347 0.3348 0.0
C834 C 0.3289 0.95653 0.29816 0.0
C835 C 0.35005 0.9369 0.30701 0.0
C836 C 0.35857 0.93667 0.33584 0.0
C837 C 0.34674 0.95625 0.3553 0.0
C838 C 0.32588 0.97535 0.34573 0.0
C839 C 0.31687 0.97527 0.31783 0.0
C840 C 0.29371 0.9972 0.3127 0.0
C841 C 0.30323 0.01916 0.29036 0.0
C842 C 0.26558 0.98302 0.30413 0.0
C843 C 0.29136 0.01025 0.34189 0.0
C844 C 0.31013 0.99755 0.36074 0.0
C845 C 0.31296 1.00755 0.38847 0.0
C846 C 0.2966 0.03126 0.39687 0.0
C847 C 0.27722 0.04444 0.37782 0.0
C848 C 0.27435 0.03335 0.35016 0.0
H849 H 0.04699 0.32482 0.2743 0.0
H850 H 0.05266 0.40594 0.31697 0.0
H851 H 0.01324 0.39195 0.34908 0.0
H852 H 0.96927 0.31534 0.28065 0.0
H853 H 0.97279 0.27779 0.28719 0.0
H854 H 0.9988 0.29589 0.26559 0.0
H855 H 0.03888 0.27717 0.29861 0.0
H856 H 0.01297 0.25951 0.32064 0.0
H857 H 0.03722 0.28464 0.33611 0.0
H858 H 0.97436 0.36774 0.37816 0.0
H859 H 0.9392 0.3357 0.40095 0.0
H860 H 0.96209 0.26959 0.34105 0.0
C861 C 0.03931 0.33999 0.28979 0.0
C862 C 0.05249 0.36668 0.29281 0.0
C863 C 0.04257 0.38553 0.31407 0.0
C864 C 0.02027 0.37772 0.33246 0.0
C865 C 1.00835 0.35084 0.32954 0.0
C866 C 0.01749 0.33231 0.30866 0.0
C867 C 1.00268 0.30395 0.31122 0.0
C868 C 0.98482 0.2979 0.28458 0.0
C869 C 0.02423 0.27991 0.31699 0.0
C870 C 0.9839 0.30932 0.33686 0.0
C871 C 0.98721 0.33654 0.34704 0.0
C872 C 0.97164 0.34635 0.37037 0.0
C873 C 0.95183 0.32799 0.38328 0.0
C874 C 0.9481 0.30002 0.37307 0.0
C875 C 0.96468 0.29066 0.34974 0.0
H876 H 0.73622 0.69377 0.95475 0.0
H877 H 0.68495 0.61751 0.95747 0.0
H878 H 0.65288 0.64043 0.993 0.0
H879 H 0.73171 0.71308 0.0272 0.0
H880 H 0.72936 0.75053 0.01964 0.0
H881 H 0.74768 0.72737 0.99536 0.0
H882 H 0.71515 0.74513 0.95446 0.0
H883 H 0.69641 0.76809 0.97874 0.0
H884 H 0.677 0.7425 0.95813 0.0
H885 H 0.62875 0.67195 0.0314 0.0
H886 H 0.61429 0.70842 0.0665 0.0
H887 H 0.67931 0.76482 0.03345 0.0
C888 C 0.71848 0.68162 0.96308 0.0
C889 C 0.71348 0.65354 0.95399 0.0
C890 C 0.68941 0.63886 0.96457 0.0
C891 C 0.67107 0.6518 0.98461 0.0
C892 C 0.67669 0.67968 0.99306 0.0
C893 C 0.69971 0.69441 0.98224 0.0
C894 C 0.70107 0.72427 0.99378 0.0
C895 C 0.72911 0.72908 0.00996 0.0
C896 C 0.69717 0.74629 0.96986 0.0
C897 C 0.67568 0.724 0.01366 0.0
C898 C 0.66183 0.69815 0.01311 0.0
C899 C 0.63916 0.6924 0.03153 0.0
C900 C 0.63101 0.71329 0.05135 0.0
C901 C 0.64522 0.73976 0.0524 0.0
C902 C 0.66738 0.74521 0.03273 0.0
H903 H 0.28512 0.66361 0.05278 0.0
H904 H 0.34761 0.59694 0.06621 0.0
H905 H 0.37521 0.61473 0.02451 0.0
H906 H 0.28674 0.66631 0.97658 0.0
H907 H 0.28331 0.70441 0.97573 0.0
H908 H 0.26825 0.68453 1.0048 0.0
H909 H 0.29701 0.71489 0.04041 0.0
H910 H 0.31239 0.7347 0.01146 0.0
H911 H 0.33521 0.71708 0.03679 0.0
H912 H 0.39514 0.64113 0.97892 0.0
H913 H 0.40629 0.67415 0.93893 0.0
H914 H 0.33214 0.72469 0.96109 0.0
C915 C 0.3043 0.65223 0.04672 0.0
C916 C 0.31382 0.62839 0.06237 0.0
C917 C 0.33966 0.61497 0.05426 0.0
C918 C 0.35546 0.625 0.03062 0.0
C919 C 0.34543 0.64884 0.0158 0.0
C920 C 0.32051 0.66233 0.02395 0.0
C921 C 0.31478 0.68854 1.0063 0.0
C922 C 0.28661 0.68577 0.98988 0.0
C923 C 0.31486 0.71538 0.02485 0.0
C924 C 0.34017 0.6878 0.98654 0.0
C925 C 0.35761 0.66467 0.99183 0.0
C926 C 0.38171 0.65944 0.97497 0.0
C927 C 0.38794 0.67828 0.95231 0.0
C928 C 0.37046 0.70235 0.94715 0.0
C929 C 0.34642 0.70693 0.96473 0.0
H930 H 0.24631 0.32257 0.99263 0.0
H931 H 0.30901 0.3811 0.95864 0.0
H932 H 0.34565 0.35994 0.99 0.0
H933 H 0.27374 0.31983 0.06599 0.0
H934 H 0.26605 0.28256 0.06958 0.0
H935 H 0.24446 0.30451 0.04672 0.0
H936 H 0.25497 0.2703 1.00496 0.0
H937 H 0.27725 0.24868 0.02748 0.0
H938 H 0.29142 0.2632 0.99491 0.0
H939 H 0.37591 0.33106 0.02386 0.0
H940 H 0.39671 0.29865 0.05979 0.0
H941 H 0.31503 0.25687 0.06915 0.0
C942 C 0.26751 0.33156 0.9924 0.0
C943 C 0.27467 0.35384 0.97344 0.0
C944 C 0.30294 0.36432 0.97321 0.0
C945 C 0.32394 0.35229 0.99082 0.0
C946 C 0.31642 0.32961 1.00839 0.0
C947 C 0.28882 0.31952 1.00952 0.0
C948 C 0.28659 0.29412 0.02931 0.0
C949 C 0.26653 0.30065 0.05439 0.0
C950 C 0.27699 0.26751 0.01319 0.0
C951 C 0.31727 0.29137 0.03899 0.0
C952 C 0.33411 0.31215 0.0268 0.0
C953 C 0.36296 0.31461 0.03338 0.0
C954 C 0.37465 0.29597 0.05362 0.0
C955 C 0.35768 0.27483 0.06674 0.0
C956 C 0.32876 0.2722 0.05881 0.0
H957 H 0.74088 0.36575 0.04969 0.0
H958 H 0.66503 0.39966 0.0903 0.0
H959 H 0.63653 0.38622 0.04819 0.0
H960 H 0.72199 0.38314 0.97501 0.0
H961 H 0.73716 0.35026 0.96252 0.0
H962 H 0.75184 0.36737 0.99334 0.0
H963 H 0.74456 0.32121 0.02257 0.0
H964 H 0.72968 0.30407 0.99204 0.0
H965 H 0.70954 0.30572 0.02466 0.0
H966 H 0.61545 0.36329 1.00276 0.0
H967 H 0.60488 0.33278 0.96093 0.0
H968 H 0.69471 0.31287 0.95316 0.0
C969 C 0.71844 0.37124 0.04951 0.0
C970 C 0.70532 0.38406 0.0733 0.0
C971 C 0.67571 0.39018 0.07223 0.0
C972 C 0.65933 0.38256 0.04837 0.0
C973 C 0.67286 0.3689 0.02571 0.0
C974 C 0.70188 0.36352 0.02618 0.0
C975 C 0.71118 0.34594 1.001 0.0
C976 C 0.73176 0.36269 0.98183 0.0
C977 C 0.7245 0.31757 0.01066 0.0
C978 C 0.68284 0.34149 0.98659 0.0
C979 C 0.66089 0.35524 1.00064 0.0
C980 C 0.6326 0.35277 0.99149 0.0
C981 C 0.62673 0.3355 0.96774 0.0
C982 C 0.64903 0.32063 0.95398 0.0
C983 C 0.67731 0.32415 0.96333 0.0
H984 H 0.15223 0.29663 0.294 0.0
H985 H 0.18033 0.35241 0.36149 0.0
H986 H 0.19724 0.31057 0.38872 0.0
H987 H 0.1285 0.23824 0.33891 0.0
H988 H 0.1411 0.2115 0.31459 0.0
H989 H 0.12969 0.24561 0.30131 0.0
H990 H 0.17856 0.25228 0.27641 0.0
H991 H 0.19009 0.2182 0.28951 0.0
H992 H 0.21081 0.24941 0.29699 0.0
H993 H 0.21309 0.26299 0.40729 0.0
H994 H 0.22824 0.21357 0.41556 0.0
H995 H 0.18978 0.1886 0.33575 0.0
C996 C 0.16166 0.30016 0.31465 0.0
C997 C 0.16484 0.3279 0.32568 0.0
C998 C 0.1776 0.33143 0.35264 0.0
C999 C 0.18718 0.30777 0.36827 0.0
C1000 C 0.1838 0.28078 0.35664 0.0
C1001 C 0.17137 0.27688 0.33042 0.0
C1002 C 0.17145 0.24582 0.32204 0.0
C1003 C 0.14086 0.23464 0.31904 0.0
C1004 C 0.18876 0.24117 0.29462 0.0
C1005 C 0.18623 0.23277 0.34753 0.0
C1006 C 0.19298 0.25333 0.3673 0.0
C1007 C 0.20774 0.24673 0.39205 0.0
C1008 C 0.2163 0.21856 0.3965 0.0
C1009 C 0.21014 0.19717 0.37631 0.0
C1010 C 0.19443 0.20436 0.35174 0.0
H1011 H 0.78943 0.22529 0.38253 0.0
H1012 H 0.85399 0.16168 0.36434 0.0
H1013 H 0.81724 0.13079 0.34357 0.0
H1014 H 0.72867 0.17517 0.39652 0.0
H1015 H 0.70371 0.19846 0.37891 0.0
H1016 H 0.7339 0.21303 0.39737 0.0
H1017 H 0.7491 0.23954 0.35146 0.0
H1018 H 0.71923 0.2249 0.33281 0.0
H1019 H 0.75485 0.21965 0.31929 0.0
H1020 H 0.77571 0.11031 0.31865 0.0
H1021 H 0.73196 0.10133 0.29129 0.0
H1022 H 0.69421 0.17847 0.32498 0.0
C1023 C 0.79563 0.20442 0.37512 0.0
C1024 C 0.82444 0.19569 0.37526 0.0
C1025 C 0.83196 0.16866 0.36453 0.0
C1026 C 0.81123 0.15094 0.35282 0.0
C1027 C 0.78313 0.16059 0.35207 0.0
C1028 C 0.77524 0.18662 0.36308 0.0
C1029 C 0.74437 0.19346 0.35654 0.0
C1030 C 0.72661 0.19512 0.38397 0.0
C1031 C 0.74176 0.221 0.33898 0.0
C1032 C 0.73648 0.16771 0.33919 0.0
C1033 C 0.75902 0.14881 0.33727 0.0
C1034 C 0.75771 0.12465 0.32042 0.0
C1035 C 0.73285 0.11983 0.30483 0.0
C1036 C 0.70969 0.13917 0.30612 0.0
C1037 C 0.71139 0.16309 0.32396 0.0
H1038 H 0.86873 0.70417 0.32018 0.0
H1039 H 0.80534 0.6404 0.34015 0.0
H1040 H 0.77708 0.67627 0.36644 0.0
H1041 H 0.86287 0.74329 0.38848 0.0
H1042 H 0.86824 0.77691 0.37091 0.0
H1043 H 0.88467 0.74526 0.35693 0.0
H1044 H 0.86082 0.75488 0.30812 0.0
H1045 H 0.84421 0.78635 0.32198 0.0
H1046 H 0.82263 0.75902 0.30634 0.0
H1047 H 0.75264 0.72148 0.38459 0.0
H1048 H 0.73644 0.77058 0.39522 0.0
H1049 H 0.81777 0.80252 0.36495 0.0
C1050 C 0.84921 0.69761 0.33062 0.0
C1051 C 0.83917 0.66964 0.3282 0.0
C1052 C 0.8135 0.66177 0.34203 0.0
C1053 C 0.7973 0.68199 0.35694 0.0
C1054 C 0.80745 0.70972 0.35827 0.0
C1055 C 0.83313 0.71731 0.34589 0.0
C1056 C 0.8388 0.74861 0.34888 0.0
C1057 C 0.86521 0.75381 0.36741 0.0
C1058 C 0.84177 0.76304 0.3196 0.0
C1059 C 0.81183 0.75772 0.36387 0.0
C1060 C 0.79394 0.73516 0.36934 0.0
C1061 C 0.76676 0.73923 0.38094 0.0
C1062 C 0.75769 0.76713 0.38685 0.0
C1063 C 0.77583 0.7904 0.38105 0.0
C1064 C 0.80337 0.7853 0.36995 0.0
H1065 H 0.27763 0.85654 0.21743 0.0
H1066 H 0.27201 0.94458 0.24168 0.0
H1067 H 0.22902 0.93397 0.27063 0.0
H1068 H 0.19806 0.83645 0.22396 0.0
H1069 H 0.20909 0.80267 0.2384 0.0
H1070 H 0.23084 0.82032 0.2121 0.0
H1071 H 0.27336 0.81587 0.24753 0.0
H1072 H 0.25083 0.80046 0.27434 0.0
H1073 H 0.27048 0.83232 0.2819 0.0
H1074 H 0.19296 0.91129 0.3046 0.0
H1075 H 0.16594 0.87975 0.3374 0.0
H1076 H 0.20129 0.80608 0.29526 0.0
C1077 C 0.26595 0.87392 0.22708 0.0
C1078 C 0.27752 0.90149 0.22688 0.0
C1079 C 0.26285 0.92356 0.24098 0.0
C1080 C 0.23871 0.91752 0.25781 0.0
C1081 C 0.22974 0.88933 0.26014 0.0
C1082 C 0.24272 0.86795 0.24467 0.0
C1083 C 0.23316 0.83888 0.25455 0.0
C1084 C 0.2168 0.82366 0.23086 0.0
C1085 C 0.25846 0.82084 0.2652 0.0
C1086 C 0.21359 0.84701 0.27872 0.0
C1087 C 0.21122 0.87617 0.28125 0.0
C1088 C 0.19457 0.88847 0.30259 0.0
C1089 C 0.1796 0.8705 0.3213 0.0
C1090 C 0.18229 0.84068 0.31915 0.0
C1091 C 0.19952 0.82888 0.29767 0.0
H1092 H 0.16564 0.70801 0.69288 0.0
H1093 H 0.21109 0.7125 0.77273 0.0
H1094 H 0.24455 0.74728 0.75149 0.0
H1095 H 0.22412 0.71258 0.64654 0.0
H1096 H 0.20706 0.73537 0.6208 0.0
H1097 H 0.18594 0.7117 0.64231 0.0
H1098 H 0.15531 0.75374 0.6607 0.0
H1099 H 0.17556 0.77732 0.63832 0.0
H1100 H 0.17273 0.78413 0.67589 0.0
H1101 H 0.27602 0.7774 0.7196 0.0
H1102 H 0.2949 0.81162 0.68433 0.0
H1103 H 0.22651 0.79036 0.62674 0.0
C1104 C 0.18223 0.7169 0.70606 0.0
C1105 C 0.18579 0.70781 0.73445 0.0
C1106 C 0.20777 0.71965 0.75109 0.0
C1107 C 0.22712 0.739 0.73904 0.0
C1108 C 0.22389 0.74643 0.71049 0.0
C1109 C 0.20132 0.73661 0.69457 0.0
C1110 C 0.20162 0.7491 0.66486 0.0
C1111 C 0.20488 0.72579 0.64231 0.0
C1112 C 0.17472 0.76716 0.65965 0.0
C1113 C 0.22812 0.76727 0.66639 0.0
C1114 C 0.2411 0.76484 0.69264 0.0
C1115 C 0.266 0.77952 0.69901 0.0
C1116 C 0.27692 0.79846 0.67865 0.0
C1117 C 0.26261 0.8029 0.65256 0.0
C1118 C 0.23835 0.78659 0.64613 0.0
H1119 H 0.30754 0.16566 0.71041 0.0
H1120 H 0.37073 0.21679 0.66655 0.0
H1121 H 0.33215 0.24545 0.64487 0.0
H1122 H 0.2548 0.16561 0.65391 0.0
H1123 H 0.22535 0.16757 0.67851 0.0
H1124 H 0.25808 0.15043 0.68897 0.0
H1125 H 0.26123 0.1837 0.73262 0.0
H1126 H 0.22872 0.20116 0.72211 0.0
H1127 H 0.26066 0.2216 0.7273 0.0
H1128 H 0.28573 0.2705 0.63026 0.0
H1129 H 0.23612 0.28728 0.6222 0.0
H1130 H 0.20492 0.21895 0.67582 0.0
C1131 C 0.31336 0.1826 0.69594 0.0
C1132 C 0.34218 0.18889 0.69015 0.0
C1133 C 0.34877 0.21145 0.67122 0.0
C1134 C 0.32701 0.22792 0.65886 0.0
C1135 C 0.29878 0.22148 0.66554 0.0
C1136 C 0.292 0.19916 0.68345 0.0
C1137 C 0.2602 0.19687 0.68788 0.0
C1138 C 0.24895 0.16844 0.67664 0.0
C1139 C 0.25225 0.20109 0.71934 0.0
C1140 C 0.25008 0.22147 0.66983 0.0
C1141 C 0.2725 0.23556 0.6571 0.0
C1142 C 0.26801 0.25947 0.63999 0.0
C1143 C 0.23983 0.26894 0.63563 0.0
C1144 C 0.21664 0.25439 0.64825 0.0
C1145 C 0.22209 0.23046 0.66561 0.0
H1146 H 0.82342 0.23136 0.66858 0.0
H1147 H 0.75382 0.22222 0.7285 0.0
H1148 H 0.7777 0.25557 0.76126 0.0
H1149 H 0.87912 0.23417 0.71718 0.0
H1150 H 0.89947 0.26101 0.69888 0.0
H1151 H 0.87624 0.23803 0.67917 0.0
H1152 H 0.84914 0.28131 0.6582 0.0
H1153 H 0.87311 0.3044 0.67685 0.0
H1154 H 0.83515 0.308 0.68183 0.0
H1155 H 0.81203 0.28611 0.78938 0.0
H1156 H 0.84779 0.32096 0.80562 0.0
H1157 H 0.89341 0.31196 0.72605 0.0
C1158 C 0.81274 0.23733 0.68811 0.0
C1159 C 0.78654 0.2249 0.69585 0.0
C1160 C 0.77346 0.23235 0.7219 0.0
C1161 C 0.78714 0.25081 0.74082 0.0
C1162 C 0.81365 0.26181 0.73309 0.0
C1163 C 0.82581 0.25612 0.70691 0.0
C1164 C 0.85409 0.27113 0.70339 0.0
C1165 C 0.87867 0.2498 0.69942 0.0
C1166 C 0.85278 0.29248 0.67861 0.0
C1167 C 0.85613 0.28595 0.73177 0.0
C1168 C 0.83292 0.27984 0.74888 0.0
C1169 C 0.83022 0.29112 0.77612 0.0
C1170 C 0.85091 0.31043 0.78543 0.0
C1171 C 0.87364 0.31849 0.76733 0.0
C1172 C 0.87664 0.30549 0.74054 0.0
H1173 H 0.80223 0.78349 0.65714 0.0
H1174 H 0.86719 0.84123 0.68746 0.0
H1175 H 0.82984 0.87121 0.70919 0.0
H1176 H 0.74701 0.83717 0.64237 0.0
H1177 H 0.71855 0.81468 0.65479 0.0
H1178 H 0.75012 0.79917 0.6393 0.0
H1179 H 0.75755 0.76866 0.68462 0.0
H1180 H 0.72607 0.78406 0.70025 0.0
H1181 H 0.75964 0.78585 0.71869 0.0
H1182 H 0.78609 0.89313 0.73026 0.0
H1183 H 0.73896 0.90505 0.75027 0.0
H1184 H 0.70215 0.83284 0.70685 0.0
C1185 C 0.80857 0.80273 0.66789 0.0
C1186 C 0.83764 0.81014 0.67043 0.0
C1187 C 0.84507 0.83516 0.68519 0.0
C1188 C 0.824 0.85238 0.69752 0.0
C1189 C 0.79559 0.84427 0.69496 0.0
C1190 C 0.78782 0.82005 0.68053 0.0
C1191 C 0.75594 0.81513 0.68252 0.0
C1192 C 0.74209 0.81664 0.65298 0.0
C1193 C 0.74943 0.78675 0.69741 0.0
C1194 C 0.74708 0.84015 0.7007 0.0
C1195 C 0.77027 0.85681 0.70741 0.0
C1196 C 0.76772 0.8804 0.72495 0.0
C1197 C 0.74083 0.88696 0.73625 0.0
C1198 C 0.71679 0.86995 0.73008 0.0
C1199 C 0.72 0.84646 0.71172 0.0
H1200 H 0.29126 0.13706 0.31233 0.0
H1201 H 0.35327 0.17255 0.37041 0.0
H1202 H 0.38101 0.19058 0.3293 0.0
H1203 H 0.3415 0.11728 0.25531 0.0
H1204 H 0.3165 0.12699 0.22789 0.0
H1205 H 0.30373 0.11404 0.26167 0.0
H1206 H 0.27289 0.15942 0.26749 0.0
H1207 H 0.2856 0.17256 0.23387 0.0
H1208 H 0.28967 0.19372 0.2654 0.0
H1209 H 0.39895 0.20874 0.28214 0.0
H1210 H 0.40584 0.22595 0.23312 0.0
H1211 H 0.33166 0.17852 0.20604 0.0
C1212 C 0.31095 0.14818 0.31655 0.0
C1213 C 0.32015 0.15335 0.34466 0.0
C1214 C 0.3459 0.16821 0.34909 0.0
C1215 C 0.36178 0.17847 0.32587 0.0
C1216 C 0.35168 0.17347 0.29845 0.0
C1217 C 0.32692 0.15853 0.29374 0.0
C1218 C 0.3194 0.15775 0.26248 0.0
C1219 C 0.32035 0.1272 0.25118 0.0
C1220 C 0.29017 0.1717 0.257 0.0
C1221 C 0.34339 0.17534 0.25024 0.0
C1222 C 0.36196 0.18393 0.27131 0.0
C1223 C 0.38476 0.20183 0.26547 0.0
C1224 C 0.38841 0.21157 0.23754 0.0
C1225 C 0.3693 0.2035 0.21571 0.0
C1226 C 0.34685 0.18469 0.22214 0.0
H1227 H 0.85081 0.29589 0.31565 0.0
H1228 H 0.79727 0.33525 0.37981 0.0
H1229 H 0.76917 0.35886 0.34201 0.0
H1230 H 0.8524 0.35564 0.26755 0.0
H1231 H 0.85176 0.33361 0.23635 0.0
H1232 H 0.86758 0.32045 0.26865 0.0
H1233 H 0.83412 0.27677 0.26737 0.0
H1234 H 0.81809 0.28988 0.23516 0.0
H1235 H 0.79609 0.28216 0.26566 0.0
H1236 H 0.74563 0.37673 0.29605 0.0
H1237 H 0.73093 0.38877 0.24677 0.0
H1238 H 0.80113 0.33799 0.21436 0.0
C1239 C 0.83328 0.30956 0.32185 0.0
C1240 C 0.82625 0.31369 0.3507 0.0
C1241 C 0.80314 0.33184 0.35782 0.0
C1242 C 0.78699 0.34528 0.3365 0.0
C1243 C 0.79437 0.3405 0.3082 0.0
C1244 C 0.81714 0.32322 0.30094 0.0
C1245 C 0.82086 0.3214 0.26913 0.0
C1246 C 0.84987 0.3335 0.25989 0.0
C1247 C 0.81705 0.29074 0.25873 0.0
C1248 C 0.79655 0.34022 0.25953 0.0
C1249 C 0.78134 0.35103 0.28222 0.0
C1250 C 0.75754 0.3685 0.27815 0.0
C1251 C 0.74928 0.37517 0.25014 0.0
C1252 C 0.76495 0.3645 0.22673 0.0
C1253 C 0.7888 0.34679 0.23173 0.0
H1254 H 0.68021 0.80243 0.20873 0.0
H1255 H 0.70327 0.86841 0.14848 0.0
H1256 H 0.73489 0.8899 0.18479 0.0
H1257 H 0.67812 0.84467 0.27058 0.0
H1258 H 0.6928 0.81704 0.2928 0.0
H1259 H 0.67249 0.80791 0.26183 0.0
H1260 H 0.71503 0.77763 0.24344 0.0
H1261 H 0.73564 0.78707 0.27419 0.0
H1262 H 0.7495 0.79387 0.23908 0.0
H1263 H 0.76341 0.90444 0.23 0.0
H1264 H 0.78349 0.91077 0.27853 0.0
H1265 H 0.74204 0.83322 0.30562 0.0
C1266 C 0.69163 0.82157 0.20304 0.0
C1267 C 0.689 0.83394 0.17585 0.0
C1268 C 0.70482 0.8587 0.16931 0.0
C1269 C 0.72291 0.87094 0.18974 0.0
C1270 C 0.72518 0.85785 0.21633 0.0
C1271 C 0.70989 0.83364 0.2228 0.0
C1272 C 0.71564 0.82324 0.25254 0.0
C1273 C 0.68813 0.82324 0.27049 0.0
C1274 C 0.72979 0.79371 0.25228 0.0
C1275 C 0.73614 0.84569 0.26228 0.0
C1276 C 0.74172 0.86552 0.24129 0.0
C1277 C 0.75935 0.88884 0.24642 0.0
C1278 C 0.77085 0.89219 0.27389 0.0
C1279 C 0.76436 0.8724 0.29562 0.0
C1280 C 0.7474 0.84866 0.28936 0.0
H1281 H 0.20984 0.64721 0.20364 0.0
H1282 H 0.2969 0.63664 0.23314 0.0
H1283 H 0.28425 0.66274 0.27717 0.0
H1284 H 0.20228 0.71744 0.22496 0.0
H1285 H 0.16521 0.71438 0.23453 0.0
H1286 H 0.1801 0.6917 0.20758 0.0
H1287 H 0.16338 0.64723 0.23552 0.0
H1288 H 0.14812 0.66982 0.2624 0.0
H1289 H 0.17369 0.64285 0.27215 0.0
H1290 H 0.26217 0.69241 0.31648 0.0
H1291 H 0.23319 0.72269 0.34803 0.0
H1292 H 0.16185 0.71675 0.28992 0.0
C1293 C 0.22629 0.64975 0.21952 0.0
C1294 C 0.25441 0.63964 0.215 0.0
C1295 C 0.27515 0.64378 0.23632 0.0
C1296 C 0.26817 0.65876 0.26125 0.0
C1297 C 0.24047 0.66944 0.2643 0.0
C1298 C 0.21987 0.66498 0.24399 0.0
C1299 C 0.19223 0.68011 0.2511 0.0
C1300 C 0.18453 0.70221 0.22818 0.0
C1301 C 0.16792 0.65873 0.25557 0.0
C1302 C 0.20041 0.69417 0.27864 0.0
C1303 C 0.22821 0.68748 0.28607 0.0
C1304 C 0.24042 0.69769 0.31086 0.0
C1305 C 0.22375 0.71486 0.32862 0.0
C1306 C 0.19526 0.72207 0.32136 0.0
C1307 C 0.18359 0.71177 0.29587 0.0
H1308 H 0.36158 0.80822 0.79715 0.0
H1309 H 0.29239 0.80815 0.85847 0.0
H1310 H 0.26392 0.83904 0.8268 0.0
H1311 H 0.35225 0.88255 0.77495 0.0
H1312 H 0.36123 0.87497 0.7385 0.0
H1313 H 0.37652 0.85396 0.76671 0.0
H1314 H 0.35728 0.80826 0.74332 0.0
H1315 H 0.34183 0.82894 0.71507 0.0
H1316 H 0.31976 0.80542 0.7358 0.0
H1317 H 0.24109 0.86634 0.78561 0.0
H1318 H 0.22721 0.88777 0.73933 0.0
H1319 H 0.31321 0.87328 0.7081 0.0
C1320 C 0.34054 0.81488 0.80398 0.0
C1321 C 0.3292 0.80575 0.8302 0.0
C1322 C 0.30159 0.81502 0.83847 0.0
C1323 C 0.28523 0.83259 0.82065 0.0
C1324 C 0.29699 0.84123 0.79487 0.0
C1325 C 0.32417 0.83292 0.78675 0.0
C1326 C 0.33173 0.84456 0.75779 0.0
C1327 C 0.35692 0.86524 0.75961 0.0
C1328 C 0.338 0.82037 0.73676 0.0
C1329 C 0.30433 0.85998 0.75054 0.0
C1330 C 0.28443 0.85794 0.77206 0.0
C1331 C 0.25671 0.86856 0.76881 0.0
C1332 C 0.24902 0.88086 0.74254 0.0
C1333 C 0.26907 0.88247 0.72009 0.0
C1334 C 0.29728 0.87273 0.72479 0.0
H1335 H 0.1832 0.35894 0.81904 0.0
H1336 H 0.15118 0.29888 0.88129 0.0
H1337 H 0.12673 0.27256 0.84295 0.0
H1338 H 0.12061 0.3583 0.77116 0.0
H1339 H 0.1431 0.361 0.74016 0.0
H1340 H 0.15409 0.37685 0.77311 0.0
H1341 H 0.2015 0.34837 0.77084 0.0
H1342 H 0.19054 0.33218 0.73817 0.0
H1343 H 0.20035 0.31025 0.76806 0.0
H1344 H 0.11178 0.24912 0.79592 0.0
H1345 H 0.10546 0.23333 0.74601 0.0
H1346 H 0.14721 0.31014 0.71675 0.0
C1347 C 0.17043 0.34068 0.82478 0.0
C1348 C 0.16901 0.33096 0.85308 0.0
C1349 C 0.15227 0.30685 0.85971 0.0
C1350 C 0.13842 0.29172 0.83806 0.0
C1351 C 0.14124 0.30131 0.8101 0.0
C1352 C 0.15649 0.32557 0.80362 0.0
C1353 C 0.1583 0.33057 0.77201 0.0
C1354 C 0.14311 0.35832 0.76363 0.0
C1355 C 0.18951 0.33031 0.76169 0.0
C1356 C 0.1423 0.30499 0.76154 0.0
C1357 C 0.13246 0.28826 0.7836 0.0
C1358 C 0.11895 0.26239 0.77851 0.0
C1359 C 0.11554 0.25352 0.75016 0.0
C1360 C 0.12568 0.27053 0.72744 0.0
C1361 C 0.13886 0.29668 0.73348 0.0
H1362 H 0.72706 0.1255 0.74529 0.0
H1363 H 0.81461 0.14016 0.76989 0.0
H1364 H 0.79772 0.16165 0.81483 0.0
H1365 H 0.70667 0.19013 0.75924 0.0
H1366 H 0.67091 0.18292 0.77131 0.0
H1367 H 0.68831 0.15878 0.74747 0.0
H1368 H 0.68073 0.11724 0.78239 0.0
H1369 H 0.66253 0.14073 0.80656 0.0
H1370 H 0.69266 0.12014 0.81863 0.0
H1371 H 0.7713 0.19066 0.85124 0.0
H1372 H 0.73854 0.22348 0.87613 0.0
H1373 H 0.6689 0.19619 0.82263 0.0
C1374 C 0.74272 0.1317 0.76095 0.0
C1375 C 0.77212 0.13091 0.7544 0.0
C1376 C 0.79205 0.13992 0.77486 0.0
C1377 C 0.78254 0.15246 0.80029 0.0
C1378 C 0.75318 0.15571 0.80463 0.0
C1379 C 0.73353 0.14524 0.78556 0.0
C1380 C 0.70376 0.15641 0.79148 0.0
C1381 C 0.69175 0.17304 0.76586 0.0
C1382 C 0.68375 0.13218 0.80031 0.0
C1383 C 0.70977 0.17586 0.8161 0.0
C1384 C 0.73818 0.17448 0.82399 0.0
C1385 C 0.74899 0.19152 0.84548 0.0
C1386 C 0.73029 0.2102 0.85934 0.0
C1387 C 0.70136 0.21236 0.85104 0.0
C1388 C 0.691 0.19499 0.82917 0.0
H1389 H 0.87336 0.70395 0.71571 0.0
H1390 H 0.81323 0.67405 0.6528 0.0
H1391 H 0.78547 0.65026 0.69075 0.0
H1392 H 0.87076 0.64082 0.76211 0.0
H1393 H 0.87367 0.66198 0.79377 0.0
H1394 H 0.89 0.67385 0.76115 0.0
H1395 H 0.86214 0.72139 0.76474 0.0
H1396 H 0.84559 0.70959 0.79716 0.0
H1397 H 0.82381 0.72079 0.76766 0.0
H1398 H 0.76145 0.63415 0.73717 0.0
H1399 H 0.74541 0.62558 0.7868 0.0
H1400 H 0.82256 0.66562 0.81747 0.0
C1401 C 0.85466 0.69196 0.70977 0.0
C1402 C 0.8455 0.69083 0.6813 0.0
C1403 C 0.82079 0.67503 0.67449 0.0
C1404 C 0.80484 0.6615 0.69591 0.0
C1405 C 0.81411 0.66369 0.72393 0.0
C1406 C 0.8387 0.67824 0.73075 0.0
C1407 C 0.84355 0.6788 0.76242 0.0
C1408 C 0.87113 0.66291 0.77032 0.0
C1409 C 0.84377 0.70945 0.77364 0.0
C1410 C 0.81751 0.66291 0.77249 0.0
C1411 C 0.80071 0.65419 0.75016 0.0
C1412 C 0.7747 0.64053 0.75479 0.0
C1413 C 0.7657 0.63581 0.78301 0.0
C1414 C 0.78273 0.64479 0.80606 0.0
C1415 C 0.80905 0.6582 0.80046 0.0
H1416 H 0.19027 0.32393 0.19608 0.0
H1417 H 0.2144 0.40694 0.22712 0.0
H1418 H 0.26354 0.39921 0.21021 0.0
H1419 H 0.25005 0.28905 0.21822 0.0
H1420 H 0.25368 0.26569 0.18819 0.0
H1421 H 0.21917 0.27947 0.1977 0.0
H1422 H 0.21291 0.30035 0.14702 0.0
H1423 H 0.24729 0.28621 0.13717 0.0
H1424 H 0.23988 0.32349 0.13259 0.0
H1425 H 0.31143 0.37978 0.19673 0.0
H1426 H 0.35388 0.35083 0.18439 0.0
H1427 H 0.29833 0.28083 0.16227 0.0
C1428 C 0.20567 0.34083 0.1983 0.0
C1429 C 0.19862 0.36599 0.21279 0.0
C1430 C 0.21947 0.38742 0.21608 0.0
C1431 C 0.24742 0.3833 0.20649 0.0
C1432 C 0.25414 0.3577 0.19346 0.0
C1433 C 0.23379 0.33698 0.18893 0.0
C1434 C 0.24718 0.31042 0.17678 0.0
C1435 C 0.24223 0.28466 0.1964 0.0
C1436 C 0.23616 0.3048 0.1466 0.0
C1437 C 0.2782 0.31908 0.17636 0.0
C1438 C 0.28183 0.34651 0.18572 0.0
C1439 C 0.30886 0.35841 0.18884 0.0
C1440 C 0.33283 0.3418 0.18199 0.0
C1441 C 0.32946 0.31364 0.17232 0.0
C1442 C 0.30172 0.30237 0.1694 0.0
H1443 H 0.33685 0.70387 0.78762 0.0
H1444 H 0.33484 0.65583 0.86616 0.0
H1445 H 0.30566 0.61884 0.84283 0.0
H1446 H 0.26539 0.69318 0.77112 0.0
H1447 H 0.27079 0.69163 0.7332 0.0
H1448 H 0.29517 0.71116 0.75491 0.0
H1449 H 0.33693 0.68135 0.73435 0.0
H1450 H 0.31234 0.6612 0.71313 0.0
H1451 H 0.33612 0.64321 0.7373 0.0
H1452 H 0.2736 0.58975 0.81263 0.0
H1453 H 0.23298 0.57658 0.78245 0.0
H1454 H 0.25398 0.6441 0.72374 0.0
C1455 C 0.33046 0.68532 0.79968 0.0
C1456 C 0.338 0.68235 0.82851 0.0
C1457 C 0.32906 0.65828 0.84402 0.0
C1458 C 0.3129 0.63707 0.83082 0.0
C1459 C 0.30588 0.64044 0.80217 0.0
C1460 C 0.3139 0.66427 0.78695 0.0
C1461 C 0.30016 0.66489 0.75785 0.0
C1462 C 0.28178 0.69179 0.75407 0.0
C1463 C 0.32275 0.66251 0.73427 0.0
C1464 C 0.28212 0.6383 0.75947 0.0
C1465 C 0.28662 0.62393 0.7848 0.0
C1466 C 0.27037 0.60042 0.79249 0.0
C1467 C 0.24761 0.59271 0.77495 0.0
C1468 C 0.24111 0.60866 0.75029 0.0
C1469 C 0.25949 0.6307 0.74167 0.0
H1470 H 0.30707 0.32128 0.83128 0.0
H1471 H 0.26892 0.27987 0.9046 0.0
H1472 H 0.29348 0.23532 0.8921 0.0
H1473 H 0.3 0.26332 0.78465 0.0
H1474 H 0.33329 0.26912 0.76637 0.0
H1475 H 0.31474 0.29852 0.78236 0.0
H1476 H 0.35983 0.31068 0.81156 0.0
H1477 H 0.37851 0.28124 0.79566 0.0
H1478 H 0.3759 0.28381 0.83377 0.0
H1479 H 0.31907 0.19457 0.87009 0.0
H1480 H 0.34376 0.1599 0.83945 0.0
H1481 H 0.36575 0.22745 0.78045 0.0
C1482 C 0.30423 0.30295 0.84492 0.0
C1483 C 0.28612 0.30407 0.86895 0.0
C1484 C 0.28263 0.27951 0.88605 0.0
C1485 C 0.29659 0.25412 0.87921 0.0
C1486 C 0.31401 0.25362 0.85523 0.0
C1487 C 0.31792 0.27734 0.83832 0.0
C1488 C 0.33646 0.27056 0.8128 0.0
C1489 C 0.32014 0.27568 0.78491 0.0
C1490 C 0.36433 0.28759 0.8135 0.0
C1491 C 0.34196 0.23924 0.8178 0.0
C1492 C 0.32895 0.22997 0.8425 0.0
C1493 C 0.32964 0.2016 0.85086 0.0
C1494 C 0.34366 0.18207 0.8333 0.0
C1495 C 0.35684 0.19101 0.80769 0.0
C1496 C 0.3563 0.22006 0.80014 0.0
H1497 H 0.72608 0.32758 0.86747 0.0
H1498 H 0.66194 0.34553 0.80346 0.0
H1499 H 0.69581 0.3762 0.7779 0.0
H1500 H 0.75863 0.39884 0.86686 0.0
H1501 H 0.79409 0.38473 0.8715 0.0
H1502 H 0.76391 0.3661 0.88612 0.0
H1503 H 0.7789 0.32069 0.85875 0.0
H1504 H 0.80912 0.33914 0.84424 0.0
H1505 H 0.78391 0.32254 0.82081 0.0
H1506 H 0.73872 0.40065 0.75614 0.0
H1507 H 0.78676 0.41717 0.74142 0.0
H1508 H 0.82101 0.38558 0.82119 0.0
C1509 C 0.71901 0.33831 0.84835 0.0
C1510 C 0.69134 0.33411 0.83757 0.0
C1511 C 0.68302 0.34843 0.81229 0.0
C1512 C 0.70209 0.36599 0.79756 0.0
C1513 C 0.72935 0.36941 0.80852 0.0
C1514 C 0.7377 0.35617 0.83349 0.0
C1515 C 0.7686 0.36217 0.83999 0.0
C1516 C 0.77146 0.37896 0.86777 0.0
C1517 C 0.78616 0.3345 0.84099 0.0
C1518 C 0.77644 0.38017 0.81446 0.0
C1519 C 0.75361 0.38425 0.7965 0.0
C1520 C 0.75667 0.3981 0.77033 0.0
C1521 C 0.78397 0.40749 0.76213 0.0
C1522 C 0.80766 0.40297 0.78015 0.0
C1523 C 0.80341 0.38983 0.80693 0.0
H1524 H 0.72162 0.7175 0.87121 0.0
H1525 H 0.7995 0.75209 0.90635 0.0
H1526 H 0.7805 0.80082 0.89828 0.0
H1527 H 0.7147 0.76536 0.81586 0.0
H1528 H 0.67631 0.76653 0.81741 0.0
H1529 H 0.69502 0.73529 0.82914 0.0
H1530 H 0.6699 0.73867 0.87819 0.0
H1531 H 0.65118 0.77013 0.8667 0.0
H1532 H 0.67252 0.7709 0.89848 0.0
H1533 H 0.75304 0.84597 0.88291 0.0
H1534 H 0.72254 0.88185 0.85896 0.0
H1535 H 0.66439 0.8155 0.8334 0.0
C1536 C 0.73478 0.73516 0.87762 0.0
C1537 C 0.76213 0.73093 0.88945 0.0
C1538 C 0.77849 0.75483 0.89726 0.0
C1539 C 0.76778 0.78252 0.89288 0.0
C1540 C 0.74072 0.78577 0.88083 0.0
C1541 C 0.72458 0.76256 0.87332 0.0
C1542 C 0.69719 0.77106 0.85879 0.0
C1543 C 0.69575 0.75885 0.82852 0.0
C1544 C 0.67116 0.76217 0.87661 0.0
C1545 C 0.70059 0.80284 0.85837 0.0
C1546 C 0.72548 0.81115 0.87166 0.0
C1547 C 0.73343 0.83962 0.87272 0.0
C1548 C 0.71592 0.85987 0.85918 0.0
C1549 C 0.69112 0.85138 0.8444 0.0
C1550 C 0.68317 0.8226 0.84464 0.0
H1551 H 0.68881 0.70884 0.19869 0.0
H1552 H 0.71681 0.72653 0.1125 0.0
H1553 H 0.7622 0.70192 0.12192 0.0
H1554 H 0.75472 0.72196 0.23068 0.0
H1555 H 0.75235 0.69431 0.25714 0.0
H1556 H 0.72036 0.71005 0.24298 0.0
H1557 H 0.70226 0.66043 0.22809 0.0
H1558 H 0.73415 0.64447 0.24241 0.0
H1559 H 0.72439 0.63824 0.20595 0.0
H1560 H 0.80628 0.681 0.1416 0.0
H1561 H 0.84636 0.66276 0.17029 0.0
H1562 H 0.79076 0.65691 0.24385 0.0
C1563 C 0.70421 0.70676 0.18164 0.0
C1564 C 0.69923 0.71941 0.15479 0.0
C1565 C 0.72018 0.71698 0.1332 0.0
C1566 C 0.74602 0.70297 0.13831 0.0
C1567 C 0.75068 0.69143 0.16515 0.0
C1568 C 0.73038 0.69293 0.18647 0.0
C1569 C 0.74189 0.68051 0.21401 0.0
C1570 C 0.74236 0.70305 0.23759 0.0
C1571 C 0.72464 0.65435 0.22315 0.0
C1572 C 0.77188 0.67228 0.20486 0.0
C1573 C 0.77638 0.67878 0.17655 0.0
C1574 C 0.80291 0.6753 0.16364 0.0
C1575 C 0.82556 0.66504 0.18011 0.0
C1576 C 0.82152 0.65809 0.2091 0.0
C1577 C 0.79421 0.66142 0.22153 0.0
H1578 H 0.32252 0.7865 0.23656 0.0
H1579 H 0.35523 0.83263 0.16342 0.0
H1580 H 0.32836 0.80164 0.13153 0.0
H1581 H 0.32608 0.71658 0.2009 0.0
H1582 H 0.29452 0.70378 0.21862 0.0
H1583 H 0.31696 0.72936 0.23583 0.0
H1584 H 0.27313 0.7621 0.24209 0.0
H1585 H 0.25092 0.73695 0.2241 0.0
H1586 H 0.25292 0.77297 0.21129 0.0
H1587 H 0.29707 0.76711 0.10708 0.0
H1588 H 0.27014 0.72471 0.0917 0.0
H1589 H 0.25741 0.70085 0.17973 0.0
C1590 C 0.32451 0.78961 0.21384 0.0
C1591 C 0.3408 0.81219 0.20256 0.0
C1592 C 0.34272 0.81564 0.17264 0.0
C1593 C 0.32735 0.79829 0.15427 0.0
C1594 C 0.31032 0.77726 0.166 0.0
C1595 C 0.3094 0.77221 0.195 0.0
C1596 C 0.29052 0.747 0.20168 0.0
C1597 C 0.30808 0.72275 0.21503 0.0
C1598 C 0.26537 0.75532 0.22092 0.0
C1599 C 0.2805 0.73942 0.17205 0.0
C1600 C 0.2921 0.7572 0.15177 0.0
C1601 C 0.28749 0.7532 0.12274 0.0
C1602 C 0.2718 0.72945 0.11414 0.0
C1603 C 0.26092 0.71039 0.13459 0.0
C1604 C 0.26455 0.71595 0.16382 0.0
H1605 H 0.70999 0.29914 0.15274 0.0
H1606 H 0.79215 0.27137 0.12031 0.0
H1607 H 0.77852 0.22136 0.12995 0.0
H1608 H 0.70847 0.25382 0.2101 0.0
H1609 H 0.67051 0.24809 0.20911 0.0
H1610 H 0.68513 0.2806 0.19549 0.0
H1611 H 0.66082 0.27179 0.14691 0.0
H1612 H 0.64596 0.23921 0.16045 0.0
H1613 H 0.66723 0.2389 0.1285 0.0
H1614 H 0.75642 0.17431 0.14742 0.0
H1615 H 0.72981 0.13639 0.17276 0.0
H1616 H 0.66408 0.1973 0.19511 0.0
C1617 C 0.72506 0.28264 0.14702 0.0
C1618 C 0.75213 0.28922 0.13559 0.0
C1619 C 0.7712 0.26683 0.12887 0.0
C1620 C 0.7636 0.23839 0.13426 0.0
C1621 C 0.7369 0.23283 0.14628 0.0
C1622 C 0.71799 0.2545 0.1525 0.0
C1623 C 0.69179 0.24379 0.16778 0.0
C1624 C 0.68883 0.25737 0.19736 0.0
C1625 C 0.66486 0.24871 0.14983 0.0
C1626 C 0.69903 0.21266 0.16991 0.0
C1627 C 0.72483 0.20645 0.15699 0.0
C1628 C 0.73611 0.17899 0.15735 0.0
C1629 C 0.72085 0.15758 0.17171 0.0
C1630 C 0.69496 0.16401 0.1859 0.0
C1631 C 0.68384 0.19179 0.18448 0.0
loop_
_geom_bond_atom_site_label_1
_geom_bond_atom_site_label_2
_geom_bond_distance
_geom_bond_site_symmetry_2
_ccdc_geom_bond_type
C0 O2 1.247 . S
C0 O4 1.258 . S
C1 O8 1.247 . S
C1 O9 1.258 . S
O2 C0 1.247 . S
O2 Zn3 2.028 . S
Zn3 O2 2.028 . S
Zn3 O7 2.035 . S
Zn3 O9 2.035 . S
Zn3 O10 2.028 . S
O4 C0 1.258 . S
O4 Zn5 2.035 . S
Zn5 O4 2.035 . S
Zn5 O6 2.028 . S
Zn5 O8 2.028 . S
Zn5 O11 2.035 . S
O6 Zn5 2.028 . S
O6 C12 1.247 . S
O7 Zn3 2.035 . S
O7 C12 1.258 . S
O8 C1 1.247 . S
O8 Zn5 2.028 . S
O9 C1 1.258 . S
O9 Zn3 2.035 . S
O10 Zn3 2.028 . S
O10 C13 1.247 . S
O11 Zn5 2.035 . S
O11 C13 1.258 . S
C12 O6 1.247 . S
C12 O7 1.258 . S
C13 O10 1.247 . S
C13 O11 1.258 . S
C14 O16 1.247 . S
C14 O18 1.258 . S
C15 O22 1.247 . S
C15 O23 1.258 . S
O16 C14 1.247 . S
O16 Zn17 2.028 . S
Zn17 O16 2.028 . S
Zn17 O21 2.035 . S
Zn17 O23 2.035 . S
Zn17 O24 2.028 . S
O18 C14 1.258 . S
O18 Zn19 2.035 . S
Zn19 O18 2.035 . S
Zn19 O20 2.028 . S
Zn19 O22 2.028 . S
Zn19 O25 2.035 . S
O20 Zn19 2.028 . S
O20 C26 1.247 . S
O21 Zn17 2.035 . S
O21 C26 1.258 . S
O22 C15 1.247 . S
O22 Zn19 2.028 . S
O23 C15 1.258 . S
O23 Zn17 2.035 . S
O24 Zn17 2.028 . S
O24 C27 1.247 . S
O25 Zn19 2.035 . S
O25 C27 1.258 . S
C26 O20 1.247 . S
C26 O21 1.258 . S
C27 O24 1.247 . S
C27 O25 1.258 . S
C28 O30 1.247 . S
C28 O32 1.258 . S
C29 O36 1.247 . S
C29 O37 1.258 . S
O30 C28 1.247 . S
O30 Zn31 2.028 . S
Zn31 O30 2.028 . S
Zn31 O35 2.035 . S
Zn31 O37 2.035 . S
Zn31 O38 2.028 . S
O32 C28 1.258 . S
O32 Zn33 2.035 . S
Zn33 O32 2.035 . S
Zn33 O34 2.028 . S
Zn33 O36 2.028 . S
Zn33 O39 2.035 . S
O34 Zn33 2.028 . S
O34 C40 1.247 . S
O35 Zn31 2.035 . S
O35 C40 1.258 . S
O36 C29 1.247 . S
O36 Zn33 2.028 . S
O37 C29 1.258 . S
O37 Zn31 2.035 . S
O38 Zn31 2.028 . S
O38 C41 1.247 . S
O39 Zn33 2.035 . S
O39 C41 1.258 . S
C40 O34 1.247 . S
C40 O35 1.258 . S
C41 O38 1.247 . S
C41 O39 1.258 . S
C42 O44 1.247 . S
C42 O46 1.258 . S
C43 O50 1.247 . S
C43 O51 1.258 . S
O44 C42 1.247 . S
O44 Zn45 2.028 . S
Zn45 O44 2.028 . S
Zn45 O49 2.035 . S
Zn45 O51 2.035 . S
Zn45 O52 2.028 . S
O46 C42 1.258 . S
O46 Zn47 2.035 . S
Zn47 O46 2.035 . S
Zn47 O48 2.028 . S
Zn47 O50 2.028 . S
Zn47 O53 2.035 . S
O48 Zn47 2.028 . S
O48 C54 1.247 . S
O49 Zn45 2.035 . S
O49 C54 1.258 . S
O50 C43 1.247 . S
O50 Zn47 2.028 . S
O51 C43 1.258 . S
O51 Zn45 2.035 . S
O52 Zn45 2.028 . S
O52 C55 1.247 . S
O53 Zn47 2.035 . S
O53 C55 1.258 . S
C54 O48 1.247 . S
C54 O49 1.258 . S
C55 O52 1.247 . S
C55 O53 1.258 . S
C56 O58 1.247 . S
C56 O60 1.258 . S
C57 O64 1.247 . S
C57 O65 1.258 . S
O58 C56 1.247 . S
O58 Zn59 2.028 . S
Zn59 O58 2.028 . S
Zn59 O63 2.035 . S
Zn59 O65 2.035 . S
Zn59 O66 2.028 . S
O60 C56 1.258 . S
O60 Zn61 2.035 . S
Zn61 O60 2.035 . S
Zn61 O62 2.028 . S
Zn61 O64 2.028 . S
Zn61 O67 2.035 . S
O62 Zn61 2.028 . S
O62 C68 1.247 . S
O63 Zn59 2.035 . S
O63 C68 1.258 . S
O64 C57 1.247 . S
O64 Zn61 2.028 . S
O65 C57 1.258 . S
O65 Zn59 2.035 . S
O66 Zn59 2.028 . S
O66 C69 1.247 . S
O67 Zn61 2.035 . S
O67 C69 1.258 . S
C68 O62 1.247 . S
C68 O63 1.258 . S
C69 O66 1.247 . S
C69 O67 1.258 . S
C70 O72 1.247 . S
C70 O74 1.258 . S
C71 O78 1.247 . S
C71 O79 1.258 . S
O72 C70 1.247 . S
O72 Zn73 2.028 . S
Zn73 O72 2.028 . S
Zn73 O77 2.035 . S
Zn73 O79 2.035 . S
Zn73 O80 2.028 . S
O74 C70 1.258 . S
O74 Zn75 2.035 . S
Zn75 O74 2.035 . S
Zn75 O76 2.028 . S
Zn75 O78 2.028 . S
Zn75 O81 2.035 . S
O76 Zn75 2.028 . S
O76 C82 1.247 . S
O77 Zn73 2.035 . S
O77 C82 1.258 . S
O78 C71 1.247 . S
O78 Zn75 2.028 . S
O79 C71 1.258 . S
O79 Zn73 2.035 . S
O80 Zn73 2.028 . S
O80 C83 1.247 . S
O81 Zn75 2.035 . S
O81 C83 1.258 . S
C82 O76 1.247 . S
C82 O77 1.258 . S
C83 O80 1.247 . S
C83 O81 1.258 . S
C84 O86 1.247 . S
C84 O88 1.258 . S
C85 O92 1.247 . S
C85 O93 1.258 . S
O86 C84 1.247 . S
O86 Zn87 2.028 . S
Zn87 O86 2.028 . S
Zn87 O91 2.035 . S
Zn87 O93 2.035 . S
Zn87 O94 2.028 . S
O88 C84 1.258 . S
O88 Zn89 2.035 . S
Zn89 O88 2.035 . S
Zn89 O90 2.028 . S
Zn89 O92 2.028 . S
Zn89 O95 2.035 . S
O90 Zn89 2.028 . S
O90 C96 1.247 . S
O91 Zn87 2.035 . S
O91 C96 1.258 . S
O92 C85 1.247 . S
O92 Zn89 2.028 . S
O93 C85 1.258 . S
O93 Zn87 2.035 . S
O94 Zn87 2.028 . S
O94 C97 1.247 . S
O95 Zn89 2.035 . S
O95 C97 1.258 . S
C96 O90 1.247 . S
C96 O91 1.258 . S
C97 O94 1.247 . S
C97 O95 1.258 . S
C98 O100 1.247 . S
C98 O102 1.258 . S
C99 O106 1.247 . S
C99 O107 1.258 . S
O100 C98 1.247 . S
O100 Zn101 2.028 . S
Zn101 O100 2.028 . S
Zn101 O105 2.035 . S
Zn101 O107 2.035 . S
Zn101 O108 2.028 . S
O102 C98 1.258 . S
O102 Zn103 2.035 . S
Zn103 O102 2.035 . S
Zn103 O104 2.028 . S
Zn103 O106 2.028 . S
Zn103 O109 2.035 . S
O104 Zn103 2.028 . S
O104 C110 1.247 . S
O105 Zn101 2.035 . S
O105 C110 1.258 . S
O106 C99 1.247 . S
O106 Zn103 2.028 . S
O107 C99 1.258 . S
O107 Zn101 2.035 . S
O108 Zn101 2.028 . S
O108 C111 1.247 . S
O109 Zn103 2.035 . S
O109 C111 1.258 . S
C110 O104 1.247 . S
C110 O105 1.258 . S
C111 O108 1.247 . S
C111 O109 1.258 . S
C112 O114 1.247 . S
C112 O116 1.258 . S
C113 O120 1.247 . S
C113 O121 1.258 . S
O114 C112 1.247 . S
O114 Zn115 2.028 . S
Zn115 O114 2.028 . S
Zn115 O119 2.035 . S
Zn115 O121 2.035 . S
Zn115 O122 2.028 . S
O116 C112 1.258 . S
O116 Zn117 2.035 . S
Zn117 O116 2.035 . S
Zn117 O118 2.028 . S
Zn117 O120 2.028 . S
Zn117 O123 2.035 . S
O118 Zn117 2.028 . S
O118 C124 1.247 . S
O119 Zn115 2.035 . S
O119 C124 1.258 . S
O120 C113 1.247 . S
O120 Zn117 2.028 . S
O121 C113 1.258 . S
O121 Zn115 2.035 . S
O122 Zn115 2.028 . S
O122 C125 1.247 . S
O123 Zn117 2.035 . S
O123 C125 1.258 . S
C124 O118 1.247 . S
C124 O119 1.258 . S
C125 O122 1.247 . S
C125 O123 1.258 . S
C126 O128 1.247 . S
C126 O130 1.258 . S
C127 O134 1.247 . S
C127 O135 1.258 . S
O128 C126 1.247 . S
O128 Zn129 2.028 . S
Zn129 O128 2.028 . S
Zn129 O133 2.035 . S
Zn129 O135 2.035 . S
Zn129 O136 2.028 . S
O130 C126 1.258 . S
O130 Zn131 2.035 . S
Zn131 O130 2.035 . S
Zn131 O132 2.028 . S
Zn131 O134 2.028 . S
Zn131 O137 2.035 . S
O132 Zn131 2.028 . S
O132 C138 1.247 . S
O133 Zn129 2.035 . S
O133 C138 1.258 . S
O134 C127 1.247 . S
O134 Zn131 2.028 . S
O135 C127 1.258 . S
O135 Zn129 2.035 . S
O136 Zn129 2.028 . S
O136 C139 1.247 . S
O137 Zn131 2.035 . S
O137 C139 1.258 . S
C138 O132 1.247 . S
C138 O133 1.258 . S
C139 O136 1.247 . S
C139 O137 1.258 . S
C140 O142 1.247 . S
C140 O144 1.258 . S
C141 O148 1.247 . S
C141 O149 1.258 . S
O142 C140 1.247 . S
O142 Zn143 2.028 . S
Zn143 O142 2.028 . S
Zn143 O147 2.035 . S
Zn143 O149 2.035 . S
Zn143 O150 2.028 . S
O144 C140 1.258 . S
O144 Zn145 2.035 . S
Zn145 O144 2.035 . S
Zn145 O146 2.028 . S
Zn145 O148 2.028 . S
Zn145 O151 2.035 . S
O146 Zn145 2.028 . S
O146 C152 1.247 . S
O147 Zn143 2.035 . S
O147 C152 1.258 . S
O148 C141 1.247 . S
O148 Zn145 2.028 . S
O149 C141 1.258 . S
O149 Zn143 2.035 . S
O150 Zn143 2.028 . S
O150 C153 1.247 . S
O151 Zn145 2.035 . S
O151 C153 1.258 . S
C152 O146 1.247 . S
C152 O147 1.258 . S
C153 O150 1.247 . S
C153 O151 1.258 . S
C154 O156 1.247 . S
C154 O158 1.258 . S
C155 O162 1.247 . S
C155 O163 1.258 . S
O156 C154 1.247 . S
O156 Zn157 2.028 . S
Zn157 O156 2.028 . S
Zn157 O161 2.035 . S
Zn157 O163 2.035 . S
Zn157 O164 2.028 . S
O158 C154 1.258 . S
O158 Zn159 2.035 . S
Zn159 O158 2.035 . S
Zn159 O160 2.028 . S
Zn159 O162 2.028 . S
Zn159 O165 2.035 . S
O160 Zn159 2.028 . S
O160 C166 1.247 . S
O161 Zn157 2.035 . S
O161 C166 1.258 . S
O162 C155 1.247 . S
O162 Zn159 2.028 . S
O163 C155 1.258 . S
O163 Zn157 2.035 . S
O164 Zn157 2.028 . S
O164 C167 1.247 . S
O165 Zn159 2.035 . S
O165 C167 1.258 . S
C166 O160 1.247 . S
C166 O161 1.258 . S
C167 O164 1.247 . S
C167 O165 1.258 . S
C168 O170 1.247 . S
C168 O172 1.258 . S
C169 O176 1.247 . S
C169 O177 1.258 . S
O170 C168 1.247 . S
O170 Zn171 2.028 . S
Zn171 O170 2.028 . S
Zn171 O175 2.035 . S
Zn171 O177 2.035 . S
Zn171 O178 2.028 . S
O172 C168 1.258 . S
O172 Zn173 2.035 . S
Zn173 O172 2.035 . S
Zn173 O174 2.028 . S
Zn173 O176 2.028 . S
Zn173 O179 2.035 . S
O174 Zn173 2.028 . S
O174 C180 1.247 . S
O175 Zn171 2.035 . S
O175 C180 1.258 . S
O176 C169 1.247 . S
O176 Zn173 2.028 . S
O177 C169 1.258 . S
O177 Zn171 2.035 . S
O178 Zn171 2.028 . S
O178 C181 1.247 . S
O179 Zn173 2.035 . S
O179 C181 1.258 . S
C180 O174 1.247 . S
C180 O175 1.258 . S
C181 O178 1.247 . S
C181 O179 1.258 . S
C182 O184 1.247 . S
C182 O186 1.258 . S
C183 O190 1.247 . S
C183 O191 1.258 . S
O184 C182 1.247 . S
O184 Zn185 2.028 . S
Zn185 O184 2.028 . S
Zn185 O189 2.035 . S
Zn185 O191 2.035 . S
Zn185 O192 2.028 . S
O186 C182 1.258 . S
O186 Zn187 2.035 . S
Zn187 O186 2.035 . S
Zn187 O188 2.028 . S
Zn187 O190 2.028 . S
Zn187 O193 2.035 . S
O188 Zn187 2.028 . S
O188 C194 1.247 . S
O189 Zn185 2.035 . S
O189 C194 1.258 . S
O190 C183 1.247 . S
O190 Zn187 2.028 . S
O191 C183 1.258 . S
O191 Zn185 2.035 . S
O192 Zn185 2.028 . S
O192 C195 1.247 . S
O193 Zn187 2.035 . S
O193 C195 1.258 . S
C194 O188 1.247 . S
C194 O189 1.258 . S
C195 O192 1.247 . S
C195 O193 1.258 . S
C196 O198 1.247 . S
C196 O200 1.258 . S
C197 O204 1.247 . S
C197 O205 1.258 . S
O198 C196 1.247 . S
O198 Zn199 2.028 . S
Zn199 O198 2.028 . S
Zn199 O203 2.035 . S
Zn199 O205 2.035 . S
Zn199 O206 2.028 . S
O200 C196 1.258 . S
O200 Zn201 2.035 . S
Zn201 O200 2.035 . S
Zn201 O202 2.028 . S
Zn201 O204 2.028 . S
Zn201 O207 2.035 . S
O202 Zn201 2.028 . S
O202 C208 1.247 . S
O203 Zn199 2.035 . S
O203 C208 1.258 . S
O204 C197 1.247 . S
O204 Zn201 2.028 . S
O205 C197 1.258 . S
O205 Zn199 2.035 . S
O206 Zn199 2.028 . S
O206 C209 1.247 . S
O207 Zn201 2.035 . S
O207 C209 1.258 . S
C208 O202 1.247 . S
C208 O203 1.258 . S
C209 O206 1.247 . S
C209 O207 1.258 . S
C210 O212 1.247 . S
C210 O214 1.258 . S
C211 O218 1.247 . S
C211 O219 1.258 . S
O212 C210 1.247 . S
O212 Zn213 2.028 . S
Zn213 O212 2.028 . S
Zn213 O217 2.035 . S
Zn213 O219 2.035 . S
Zn213 O220 2.028 . S
O214 C210 1.258 . S
O214 Zn215 2.035 . S
Zn215 O214 2.035 . S
Zn215 O216 2.028 . S
Zn215 O218 2.028 . S
Zn215 O221 2.035 . S
O216 Zn215 2.028 . S
O216 C222 1.247 . S
O217 Zn213 2.035 . S
O217 C222 1.258 . S
O218 C211 1.247 . S
O218 Zn215 2.028 . S
O219 C211 1.258 . S
O219 Zn213 2.035 . S
O220 Zn213 2.028 . S
O220 C223 1.247 . S
O221 Zn215 2.035 . S
O221 C223 1.258 . S
C222 O216 1.247 . S
C222 O217 1.258 . S
C223 O220 1.247 . S
C223 O221 1.258 . S
C224 O226 1.247 . S
C224 O228 1.258 . S
C225 O232 1.247 . S
C225 O233 1.258 . S
O226 C224 1.247 . S
O226 Zn227 2.028 . S
Zn227 O226 2.028 . S
Zn227 O231 2.035 . S
Zn227 O233 2.035 . S
Zn227 O234 2.028 . S
O228 C224 1.258 . S
O228 Zn229 2.035 . S
Zn229 O228 2.035 . S
Zn229 O230 2.028 . S
Zn229 O232 2.028 . S
Zn229 O235 2.035 . S
O230 Zn229 2.028 . S
O230 C236 1.247 . S
O231 Zn227 2.035 . S
O231 C236 1.258 . S
O232 C225 1.247 . S
O232 Zn229 2.028 . S
O233 C225 1.258 . S
O233 Zn227 2.035 . S
O234 Zn227 2.028 . S
O234 C237 1.247 . S
O235 Zn229 2.035 . S
O235 C237 1.258 . S
C236 O230 1.247 . S
C236 O231 1.258 . S
C237 O234 1.247 . S
C237 O235 1.258 . S
C238 O240 1.247 . S
C238 O242 1.258 . S
C239 O246 1.247 . S
C239 O247 1.258 . S
O240 C238 1.247 . S
O240 Zn241 2.028 . S
Zn241 O240 2.028 . S
Zn241 O245 2.035 . S
Zn241 O247 2.035 . S
Zn241 O248 2.028 . S
O242 C238 1.258 . S
O242 Zn243 2.035 . S
Zn243 O242 2.035 . S
Zn243 O244 2.028 . S
Zn243 O246 2.028 . S
Zn243 O249 2.035 . S
O244 Zn243 2.028 . S
O244 C250 1.247 . S
O245 Zn241 2.035 . S
O245 C250 1.258 . S
O246 C239 1.247 . S
O246 Zn243 2.028 . S
O247 C239 1.258 . S
O247 Zn241 2.035 . S
O248 Zn241 2.028 . S
O248 C251 1.247 . S
O249 Zn243 2.035 . S
O249 C251 1.258 . S
C250 O244 1.247 . S
C250 O245 1.258 . S
C251 O248 1.247 . S
C251 O249 1.258 . S
C252 O254 1.247 . S
C252 O256 1.258 . S
C253 O260 1.247 . S
C253 O261 1.258 . S
O254 C252 1.247 . S
O254 Zn255 2.028 . S
Zn255 O254 2.028 . S
Zn255 O259 2.035 . S
Zn255 O261 2.035 . S
Zn255 O262 2.028 . S
O256 C252 1.258 . S
O256 Zn257 2.035 . S
Zn257 O256 2.035 . S
Zn257 O258 2.028 . S
Zn257 O260 2.028 . S
Zn257 O263 2.035 . S
O258 Zn257 2.028 . S
O258 C264 1.247 . S
O259 Zn255 2.035 . S
O259 C264 1.258 . S
O260 C253 1.247 . S
O260 Zn257 2.028 . S
O261 C253 1.258 . S
O261 Zn255 2.035 . S
O262 Zn255 2.028 . S
O262 C265 1.247 . S
O263 Zn257 2.035 . S
O263 C265 1.258 . S
C264 O258 1.247 . S
C264 O259 1.258 . S
C265 O262 1.247 . S
C265 O263 1.258 . S
C266 O268 1.247 . S
C266 O270 1.258 . S
C267 O274 1.247 . S
C267 O275 1.258 . S
O268 C266 1.247 . S
O268 Zn269 2.028 . S
Zn269 O268 2.028 . S
Zn269 O273 2.035 . S
Zn269 O275 2.035 . S
Zn269 O276 2.028 . S
O270 C266 1.258 . S
O270 Zn271 2.035 . S
Zn271 O270 2.035 . S
Zn271 O272 2.028 . S
Zn271 O274 2.028 . S
Zn271 O277 2.035 . S
O272 Zn271 2.028 . S
O272 C278 1.247 . S
O273 Zn269 2.035 . S
O273 C278 1.258 . S
O274 C267 1.247 . S
O274 Zn271 2.028 . S
O275 C267 1.258 . S
O275 Zn269 2.035 . S
O276 Zn269 2.028 . S
O276 C279 1.247 . S
O277 Zn271 2.035 . S
O277 C279 1.258 . S
C278 O272 1.247 . S
C278 O273 1.258 . S
C279 O276 1.247 . S
C279 O277 1.258 . S
C280 O282 1.247 . S
C280 O284 1.258 . S
C281 O288 1.247 . S
C281 O289 1.258 . S
O282 C280 1.247 . S
O282 Zn283 2.028 . S
Zn283 O282 2.028 . S
Zn283 O287 2.035 . S
Zn283 O289 2.035 . S
Zn283 O290 2.028 . S
O284 C280 1.258 . S
O284 Zn285 2.035 . S
Zn285 O284 2.035 . S
Zn285 O286 2.028 . S
Zn285 O288 2.028 . S
Zn285 O291 2.035 . S
O286 Zn285 2.028 . S
O286 C292 1.247 . S
O287 Zn283 2.035 . S
O287 C292 1.258 . S
O288 C281 1.247 . S
O288 Zn285 2.028 . S
O289 C281 1.258 . S
O289 Zn283 2.035 . S
O290 Zn283 2.028 . S
O290 C293 1.247 . S
O291 Zn285 2.035 . S
O291 C293 1.258 . S
C292 O286 1.247 . S
C292 O287 1.258 . S
C293 O290 1.247 . S
C293 O291 1.258 . S
C294 O296 1.247 . S
C294 O298 1.258 . S
C295 O302 1.247 . S
C295 O303 1.258 . S
O296 C294 1.247 . S
O296 Zn297 2.028 . S
Zn297 O296 2.028 . S
Zn297 O301 2.035 . S
Zn297 O303 2.035 . S
Zn297 O304 2.028 . S
O298 C294 1.258 . S
O298 Zn299 2.035 . S
Zn299 O298 2.035 . S
Zn299 O300 2.028 . S
Zn299 O302 2.028 . S
Zn299 O305 2.035 . S
O300 Zn299 2.028 . S
O300 C306 1.247 . S
O301 Zn297 2.035 . S
O301 C306 1.258 . S
O302 C295 1.247 . S
O302 Zn299 2.028 . S
O303 C295 1.258 . S
O303 Zn297 2.035 . S
O304 Zn297 2.028 . S
O304 C307 1.247 . S
O305 Zn299 2.035 . S
O305 C307 1.258 . S
C306 O300 1.247 . S
C306 O301 1.258 . S
C307 O304 1.247 . S
C307 O305 1.258 . S
C308 O310 1.247 . S
C308 O312 1.258 . S
C309 O316 1.247 . S
C309 O317 1.258 . S
O310 C308 1.247 . S
O310 Zn311 2.028 . S
Zn311 O310 2.028 . S
Zn311 O315 2.035 . S
Zn311 O317 2.035 . S
Zn311 O318 2.028 . S
O312 C308 1.258 . S
O312 Zn313 2.035 . S
Zn313 O312 2.035 . S
Zn313 O314 2.028 . S
Zn313 O316 2.028 . S
Zn313 O319 2.035 . S
O314 Zn313 2.028 . S
O314 C320 1.247 . S
O315 Zn311 2.035 . S
O315 C320 1.258 . S
O316 C309 1.247 . S
O316 Zn313 2.028 . S
O317 C309 1.258 . S
O317 Zn311 2.035 . S
O318 Zn311 2.028 . S
O318 C321 1.247 . S
O319 Zn313 2.035 . S
O319 C321 1.258 . S
C320 O314 1.247 . S
C320 O315 1.258 . S
C321 O318 1.247 . S
C321 O319 1.258 . S
C322 O324 1.247 . S
C322 O326 1.258 . S
C323 O330 1.247 . S
C323 O331 1.258 . S
O324 C322 1.247 . S
O324 Zn325 2.028 . S
Zn325 O324 2.028 . S
Zn325 O329 2.035 . S
Zn325 O331 2.035 . S
Zn325 O332 2.028 . S
O326 C322 1.258 . S
O326 Zn327 2.035 . S
Zn327 O326 2.035 . S
Zn327 O328 2.028 . S
Zn327 O330 2.028 . S
Zn327 O333 2.035 . S
O328 Zn327 2.028 . S
O328 C334 1.247 . S
O329 Zn325 2.035 . S
O329 C334 1.258 . S
O330 C323 1.247 . S
O330 Zn327 2.028 . S
O331 C323 1.258 . S
O331 Zn325 2.035 . S
O332 Zn325 2.028 . S
O332 C335 1.247 . S
O333 Zn327 2.035 . S
O333 C335 1.258 . S
C334 O328 1.247 . S
C334 O329 1.258 . S
C335 O332 1.247 . S
C335 O333 1.258 . S
H336 C348 0.930 . S
H337 C350 0.930 . S
H338 C351 0.930 . S
H339 C355 0.959 . S
H340 C355 0.959 . S
H341 C355 0.961 . S
H342 C356 0.960 . S
H343 C356 0.961 . S
H344 C356 0.959 . S
H345 C359 0.929 . S
H346 C360 0.931 . S
H347 C362 0.930 . S
C348 H336 0.930 . S
C348 C349 1.399 . S
C348 C353 1.399 . S
C349 C348 1.399 . S
C349 C350 1.376 . S
C350 H337 0.930 . S
C350 C349 1.376 . S
C350 C351 1.388 . S
C351 H338 0.930 . S
C351 C350 1.388 . S
C351 C352 1.390 . S
C352 C351 1.390 . S
C352 C353 1.394 . S
C352 C358 1.465 . S
C353 C348 1.399 . S
C353 C352 1.394 . S
C353 C354 1.516 . S
C354 C353 1.516 . S
C354 C355 1.502 . S
C354 C356 1.561 . S
C354 C357 1.526 . S
C355 H339 0.959 . S
C355 H340 0.959 . S
C355 H341 0.961 . S
C355 C354 1.502 . S
C356 H342 0.960 . S
C356 H343 0.961 . S
C356 H344 0.959 . S
C356 C354 1.561 . S
C357 C354 1.526 . S
C357 C358 1.396 . S
C357 C362 1.390 . S
C358 C352 1.465 . S
C358 C357 1.396 . S
C358 C359 1.399 . S
C359 H345 0.929 . S
C359 C358 1.399 . S
C359 C360 1.385 . S
C360 H346 0.931 . S
C360 C359 1.385 . S
C360 C361 1.389 . S
C361 C360 1.389 . S
C361 C362 1.387 . S
C362 H347 0.930 . S
C362 C357 1.390 . S
C362 C361 1.387 . S
H363 C375 0.930 . S
H364 C377 0.930 . S
H365 C378 0.930 . S
H366 C382 0.959 . S
H367 C382 0.959 . S
H368 C382 0.961 . S
H369 C383 0.960 . S
H370 C383 0.961 . S
H371 C383 0.959 . S
H372 C386 0.929 . S
H373 C387 0.931 . S
H374 C389 0.930 . S
C375 H363 0.930 . S
C375 C376 1.399 . S
C375 C380 1.399 . S
C376 C375 1.399 . S
C376 C377 1.376 . S
C377 H364 0.930 . S
C377 C376 1.376 . S
C377 C378 1.388 . S
C378 H365 0.930 . S
C378 C377 1.388 . S
C378 C379 1.390 . S
C379 C378 1.390 . S
C379 C380 1.394 . S
C379 C385 1.465 . S
C380 C375 1.399 . S
C380 C379 1.394 . S
C380 C381 1.516 . S
C381 C380 1.516 . S
C381 C382 1.502 . S
C381 C383 1.561 . S
C381 C384 1.526 . S
C382 H366 0.959 . S
C382 H367 0.959 . S
C382 H368 0.961 . S
C382 C381 1.502 . S
C383 H369 0.960 . S
C383 H370 0.961 . S
C383 H371 0.959 . S
C383 C381 1.561 . S
C384 C381 1.526 . S
C384 C385 1.396 . S
C384 C389 1.390 . S
C385 C379 1.465 . S
C385 C384 1.396 . S
C385 C386 1.399 . S
C386 H372 0.929 . S
C386 C385 1.399 . S
C386 C387 1.385 . S
C387 H373 0.931 . S
C387 C386 1.385 . S
C387 C388 1.389 . S
C388 C387 1.389 . S
C388 C389 1.387 . S
C389 H374 0.930 . S
C389 C384 1.390 . S
C389 C388 1.387 . S
H390 C402 0.930 . S
H391 C404 0.930 . S
H392 C405 0.930 . S
H393 C409 0.959 . S
H394 C409 0.959 . S
H395 C409 0.961 . S
H396 C410 0.960 . S
H397 C410 0.961 . S
H398 C410 0.959 . S
H399 C413 0.929 . S
H400 C414 0.931 . S
H401 C416 0.930 . S
C402 H390 0.930 . S
C402 C403 1.399 . S
C402 C407 1.399 . S
C403 C402 1.399 . S
C403 C404 1.376 . S
C404 H391 0.930 . S
C404 C403 1.376 . S
C404 C405 1.388 . S
C405 H392 0.930 . S
C405 C404 1.388 . S
C405 C406 1.390 . S
C406 C405 1.390 . S
C406 C407 1.394 . S
C406 C412 1.465 . S
C407 C402 1.399 . S
C407 C406 1.394 . S
C407 C408 1.516 . S
C408 C407 1.516 . S
C408 C409 1.502 . S
C408 C410 1.561 . S
C408 C411 1.526 . S
C409 H393 0.959 . S
C409 H394 0.959 . S
C409 H395 0.961 . S
C409 C408 1.502 . S
C410 H396 0.960 . S
C410 H397 0.961 . S
C410 H398 0.959 . S
C410 C408 1.561 . S
C411 C408 1.526 . S
C411 C412 1.396 . S
C411 C416 1.390 . S
C412 C406 1.465 . S
C412 C411 1.396 . S
C412 C413 1.399 . S
C413 H399 0.929 . S
C413 C412 1.399 . S
C413 C414 1.385 . S
C414 H400 0.931 . S
C414 C413 1.385 . S
C414 C415 1.389 . S
C415 C414 1.389 . S
C415 C416 1.387 . S
C416 H401 0.930 . S
C416 C411 1.390 . S
C416 C415 1.387 . S
H417 C429 0.930 . S
H418 C431 0.930 . S
H419 C432 0.930 . S
H420 C436 0.959 . S
H421 C436 0.959 . S
H422 C436 0.961 . S
H423 C437 0.960 . S
H424 C437 0.961 . S
H425 C437 0.959 . S
H426 C440 0.929 . S
H427 C441 0.931 . S
H428 C443 0.930 . S
C429 H417 0.930 . S
C429 C430 1.399 . S
C429 C434 1.399 . S
C430 C429 1.399 . S
C430 C431 1.376 . S
C431 H418 0.930 . S
C431 C430 1.376 . S
C431 C432 1.388 . S
C432 H419 0.930 . S
C432 C431 1.388 . S
C432 C433 1.390 . S
C433 C432 1.390 . S
C433 C434 1.394 . S
C433 C439 1.465 . S
C434 C429 1.399 . S
C434 C433 1.394 . S
C434 C435 1.516 . S
C435 C434 1.516 . S
C435 C436 1.502 . S
C435 C437 1.561 . S
C435 C438 1.526 . S
C436 H420 0.959 . S
C436 H421 0.959 . S
C436 H422 0.961 . S
C436 C435 1.502 . S
C437 H423 0.960 . S
C437 H424 0.961 . S
C437 H425 0.959 . S
C437 C435 1.561 . S
C438 C435 1.526 . S
C438 C439 1.396 . S
C438 C443 1.390 . S
C439 C433 1.465 . S
C439 C438 1.396 . S
C439 C440 1.399 . S
C440 H426 0.929 . S
C440 C439 1.399 . S
C440 C441 1.385 . S
C441 H427 0.931 . S
C441 C440 1.385 . S
C441 C442 1.389 . S
C442 C441 1.389 . S
C442 C443 1.387 . S
C443 H428 0.930 . S
C443 C438 1.390 . S
C443 C442 1.387 . S
H444 C456 0.930 . S
H445 C458 0.930 . S
H446 C459 0.930 . S
H447 C463 0.959 . S
H448 C463 0.959 . S
H449 C463 0.961 . S
H450 C464 0.960 . S
H451 C464 0.961 . S
H452 C464 0.959 . S
H453 C467 0.929 . S
H454 C468 0.931 . S
H455 C470 0.930 . S
C456 H444 0.930 . S
C456 C457 1.399 . S
C456 C461 1.399 . S
C457 C456 1.399 . S
C457 C458 1.376 . S
C458 H445 0.930 . S
C458 C457 1.376 . S
C458 C459 1.388 . S
C459 H446 0.930 . S
C459 C458 1.388 . S
C459 C460 1.390 . S
C460 C459 1.390 . S
C460 C461 1.394 . S
C460 C466 1.465 . S
C461 C456 1.399 . S
C461 C460 1.394 . S
C461 C462 1.516 . S
C462 C461 1.516 . S
C462 C463 1.502 . S
C462 C464 1.561 . S
C462 C465 1.526 . S
C463 H447 0.959 . S
C463 H448 0.959 . S
C463 H449 0.961 . S
C463 C462 1.502 . S
C464 H450 0.960 . S
C464 H451 0.961 . S
C464 H452 0.959 . S
C464 C462 1.561 . S
C465 C462 1.526 . S
C465 C466 1.396 . S
C465 C470 1.390 . S
C466 C460 1.465 . S
C466 C465 1.396 . S
C466 C467 1.399 . S
C467 H453 0.929 . S
C467 C466 1.399 . S
C467 C468 1.385 . S
C468 H454 0.931 . S
C468 C467 1.385 . S
C468 C469 1.389 . S
C469 C468 1.389 . S
C469 C470 1.387 . S
C470 H455 0.930 . S
C470 C465 1.390 . S
C470 C469 1.387 . S
H471 C483 0.930 . S
H472 C485 0.930 . S
H473 C486 0.930 . S
H474 C490 0.959 . S
H475 C490 0.959 . S
H476 C490 0.961 . S
H477 C491 0.960 . S
H478 C491 0.961 . S
H479 C491 0.959 . S
H480 C494 0.929 . S
H481 C495 0.931 . S
H482 C497 0.930 . S
C483 H471 0.930 . S
C483 C484 1.399 . S
C483 C488 1.399 . S
C484 C483 1.399 . S
C484 C485 1.376 . S
C485 H472 0.930 . S
C485 C484 1.376 . S
C485 C486 1.388 . S
C486 H473 0.930 . S
C486 C485 1.388 . S
C486 C487 1.390 . S
C487 C486 1.390 . S
C487 C488 1.394 . S
C487 C493 1.465 . S
C488 C483 1.399 . S
C488 C487 1.394 . S
C488 C489 1.516 . S
C489 C488 1.516 . S
C489 C490 1.502 . S
C489 C491 1.561 . S
C489 C492 1.526 . S
C490 H474 0.959 . S
C490 H475 0.959 . S
C490 H476 0.961 . S
C490 C489 1.502 . S
C491 H477 0.960 . S
C491 H478 0.961 . S
C491 H479 0.959 . S
C491 C489 1.561 . S
C492 C489 1.526 . S
C492 C493 1.396 . S
C492 C497 1.390 . S
C493 C487 1.465 . S
C493 C492 1.396 . S
C493 C494 1.399 . S
C494 H480 0.929 . S
C494 C493 1.399 . S
C494 C495 1.385 . S
C495 H481 0.931 . S
C495 C494 1.385 . S
C495 C496 1.389 . S
C496 C495 1.389 . S
C496 C497 1.387 . S
C497 H482 0.930 . S
C497 C492 1.390 . S
C497 C496 1.387 . S
H498 C510 0.930 . S
H499 C512 0.930 . S
H500 C513 0.930 . S
H501 C517 0.959 . S
H502 C517 0.959 . S
H503 C517 0.961 . S
H504 C518 0.960 . S
H505 C518 0.961 . S
H506 C518 0.959 . S
H507 C521 0.929 . S
H508 C522 0.931 . S
H509 C524 0.930 . S
C510 H498 0.930 . S
C510 C511 1.399 . S
C510 C515 1.399 . S
C511 C510 1.399 . S
C511 C512 1.376 . S
C512 H499 0.930 . S
C512 C511 1.376 . S
C512 C513 1.388 . S
C513 H500 0.930 . S
C513 C512 1.388 . S
C513 C514 1.390 . S
C514 C513 1.390 . S
C514 C515 1.394 . S
C514 C520 1.465 . S
C515 C510 1.399 . S
C515 C514 1.394 . S
C515 C516 1.516 . S
C516 C515 1.516 . S
C516 C517 1.502 . S
C516 C518 1.561 . S
C516 C519 1.526 . S
C517 H501 0.959 . S
C517 H502 0.959 . S
C517 H503 0.961 . S
C517 C516 1.502 . S
C518 H504 0.960 . S
C518 H505 0.961 . S
C518 H506 0.959 . S
C518 C516 1.561 . S
C519 C516 1.526 . S
C519 C520 1.396 . S
C519 C524 1.390 . S
C520 C514 1.465 . S
C520 C519 1.396 . S
C520 C521 1.399 . S
C521 H507 0.929 . S
C521 C520 1.399 . S
C521 C522 1.385 . S
C522 H508 0.931 . S
C522 C521 1.385 . S
C522 C523 1.389 . S
C523 C522 1.389 . S
C523 C524 1.387 . S
C524 H509 0.930 . S
C524 C519 1.390 . S
C524 C523 1.387 . S
H525 C537 0.930 . S
H526 C539 0.930 . S
H527 C540 0.930 . S
H528 C544 0.959 . S
H529 C544 0.959 . S
H530 C544 0.961 . S
H531 C545 0.960 . S
H532 C545 0.961 . S
H533 C545 0.959 . S
H534 C548 0.929 . S
H535 C549 0.931 . S
H536 C551 0.930 . S
C537 H525 0.930 . S
C537 C538 1.399 . S
C537 C542 1.399 . S
C538 C537 1.399 . S
C538 C539 1.376 . S
C539 H526 0.930 . S
C539 C538 1.376 . S
C539 C540 1.388 . S
C540 H527 0.930 . S
C540 C539 1.388 . S
C540 C541 1.390 . S
C541 C540 1.390 . S
C541 C542 1.394 . S
C541 C547 1.465 . S
C542 C537 1.399 . S
C542 C541 1.394 . S
C542 C543 1.516 . S
C543 C542 1.516 . S
C543 C544 1.502 . S
C543 C545 1.561 . S
C543 C546 1.526 . S
C544 H528 0.959 . S
C544 H529 0.959 . S
C544 H530 0.961 . S
C544 C543 1.502 . S
C545 H531 0.960 . S
C545 H532 0.961 . S
C545 H533 0.959 . S
C545 C543 1.561 . S
C546 C543 1.526 . S
C546 C547 1.396 . S
C546 C551 1.390 . S
C547 C541 1.465 . S
C547 C546 1.396 . S
C547 C548 1.399 . S
C548 H534 0.929 . S
C548 C547 1.399 . S
C548 C549 1.385 . S
C549 H535 0.931 . S
C549 C548 1.385 . S
C549 C550 1.389 . S
C550 C549 1.389 . S
C550 C551 1.387 . S
C551 H536 0.930 . S
C551 C546 1.390 . S
C551 C550 1.387 . S
H552 C564 0.930 . S
H553 C566 0.930 . S
H554 C567 0.930 . S
H555 C571 0.959 . S
H556 C571 0.959 . S
H557 C571 0.961 . S
H558 C572 0.960 . S
H559 C572 0.961 . S
H560 C572 0.959 . S
H561 C575 0.929 . S
H562 C576 0.931 . S
H563 C578 0.930 . S
C564 H552 0.930 . S
C564 C565 1.399 . S
C564 C569 1.399 . S
C565 C564 1.399 . S
C565 C566 1.376 . S
C566 H553 0.930 . S
C566 C565 1.376 . S
C566 C567 1.388 . S
C567 H554 0.930 . S
C567 C566 1.388 . S
C567 C568 1.390 . S
C568 C567 1.390 . S
C568 C569 1.394 . S
C568 C574 1.465 . S
C569 C564 1.399 . S
C569 C568 1.394 . S
C569 C570 1.516 . S
C570 C569 1.516 . S
C570 C571 1.502 . S
C570 C572 1.561 . S
C570 C573 1.526 . S
C571 H555 0.959 . S
C571 H556 0.959 . S
C571 H557 0.961 . S
C571 C570 1.502 . S
C572 H558 0.960 . S
C572 H559 0.961 . S
C572 H560 0.959 . S
C572 C570 1.561 . S
C573 C570 1.526 . S
C573 C574 1.396 . S
C573 C578 1.390 . S
C574 C568 1.465 . S
C574 C573 1.396 . S
C574 C575 1.399 . S
C575 H561 0.929 . S
C575 C574 1.399 . S
C575 C576 1.385 . S
C576 H562 0.931 . S
C576 C575 1.385 . S
C576 C577 1.389 . S
C577 C576 1.389 . S
C577 C578 1.387 . S
C578 H563 0.930 . S
C578 C573 1.390 . S
C578 C577 1.387 . S
H579 C591 0.930 . S
H580 C593 0.930 . S
H581 C594 0.930 . S
H582 C598 0.959 . S
H583 C598 0.959 . S
H584 C598 0.961 . S
H585 C599 0.960 . S
H586 C599 0.961 . S
H587 C599 0.959 . S
H588 C602 0.929 . S
H589 C603 0.931 . S
H590 C605 0.930 . S
C591 H579 0.930 . S
C591 C592 1.399 . S
C591 C596 1.399 . S
C592 C591 1.399 . S
C592 C593 1.376 . S
C593 H580 0.930 . S
C593 C592 1.376 . S
C593 C594 1.388 . S
C594 H581 0.930 . S
C594 C593 1.388 . S
C594 C595 1.390 . S
C595 C594 1.390 . S
C595 C596 1.394 . S
C595 C601 1.465 . S
C596 C591 1.399 . S
C596 C595 1.394 . S
C596 C597 1.516 . S
C597 C596 1.516 . S
C597 C598 1.502 . S
C597 C599 1.561 . S
C597 C600 1.526 . S
C598 H582 0.959 . S
C598 H583 0.959 . S
C598 H584 0.961 . S
C598 C597 1.502 . S
C599 H585 0.960 . S
C599 H586 0.961 . S
C599 H587 0.959 . S
C599 C597 1.561 . S
C600 C597 1.526 . S
C600 C601 1.396 . S
C600 C605 1.390 . S
C601 C595 1.465 . S
C601 C600 1.396 . S
C601 C602 1.399 . S
C602 H588 0.929 . S
C602 C601 1.399 . S
C602 C603 1.385 . S
C603 H589 0.931 . S
C603 C602 1.385 . S
C603 C604 1.389 . S
C604 C603 1.389 . S
C604 C605 1.387 . S
C605 H590 0.930 . S
C605 C600 1.390 . S
C605 C604 1.387 . S
H606 C618 0.930 . S
H607 C620 0.930 . S
H608 C621 0.930 . S
H609 C625 0.959 . S
H610 C625 0.959 . S
H611 C625 0.961 . S
H612 C626 0.960 . S
H613 C626 0.961 . S
H614 C626 0.959 . S
H615 C629 0.929 . S
H616 C630 0.931 . S
H617 C632 0.930 . S
C618 H606 0.930 . S
C618 C619 1.399 . S
C618 C623 1.399 . S
C619 C618 1.399 . S
C619 C620 1.376 . S
C620 H607 0.930 . S
C620 C619 1.376 . S
C620 C621 1.388 . S
C621 H608 0.930 . S
C621 C620 1.388 . S
C621 C622 1.390 . S
C622 C621 1.390 . S
C622 C623 1.394 . S
C622 C628 1.465 . S
C623 C618 1.399 . S
C623 C622 1.394 . S
C623 C624 1.516 . S
C624 C623 1.516 . S
C624 C625 1.502 . S
C624 C626 1.561 . S
C624 C627 1.526 . S
C625 H609 0.959 . S
C625 H610 0.959 . S
C625 H611 0.961 . S
C625 C624 1.502 . S
C626 H612 0.960 . S
C626 H613 0.961 . S
C626 H614 0.959 . S
C626 C624 1.561 . S
C627 C624 1.526 . S
C627 C628 1.396 . S
C627 C632 1.390 . S
C628 C622 1.465 . S
C628 C627 1.396 . S
C628 C629 1.399 . S
C629 H615 0.929 . S
C629 C628 1.399 . S
C629 C630 1.385 . S
C630 H616 0.931 . S
C630 C629 1.385 . S
C630 C631 1.389 . S
C631 C630 1.389 . S
C631 C632 1.387 . S
C632 H617 0.930 . S
C632 C627 1.390 . S
C632 C631 1.387 . S
H633 C645 0.930 . S
H634 C647 0.930 . S
H635 C648 0.930 . S
H636 C652 0.959 . S
H637 C652 0.959 . S
H638 C652 0.961 . S
H639 C653 0.960 . S
H640 C653 0.961 . S
H641 C653 0.959 . S
H642 C656 0.929 . S
H643 C657 0.931 . S
H644 C659 0.930 . S
C645 H633 0.930 . S
C645 C646 1.399 . S
C645 C650 1.399 . S
C646 C645 1.399 . S
C646 C647 1.376 . S
C647 H634 0.930 . S
C647 C646 1.376 . S
C647 C648 1.388 . S
C648 H635 0.930 . S
C648 C647 1.388 . S
C648 C649 1.390 . S
C649 C648 1.390 . S
C649 C650 1.394 . S
C649 C655 1.465 . S
C650 C645 1.399 . S
C650 C649 1.394 . S
C650 C651 1.516 . S
C651 C650 1.516 . S
C651 C652 1.502 . S
C651 C653 1.561 . S
C651 C654 1.526 . S
C652 H636 0.959 . S
C652 H637 0.959 . S
C652 H638 0.961 . S
C652 C651 1.502 . S
C653 H639 0.960 . S
C653 H640 0.961 . S
C653 H641 0.959 . S
C653 C651 1.561 . S
C654 C651 1.526 . S
C654 C655 1.396 . S
C654 C659 1.390 . S
C655 C649 1.465 . S
C655 C654 1.396 . S
C655 C656 1.399 . S
C656 H642 0.929 . S
C656 C655 1.399 . S
C656 C657 1.385 . S
C657 H643 0.931 . S
C657 C656 1.385 . S
C657 C658 1.389 . S
C658 C657 1.389 . S
C658 C659 1.387 . S
C659 H644 0.930 . S
C659 C654 1.390 . S
C659 C658 1.387 . S
H660 C672 0.930 . S
H661 C674 0.930 . S
H662 C675 0.930 1_545 S
H663 C679 0.959 . S
H664 C679 0.959 . S
H665 C679 0.961 . S
H666 C680 0.960 . S
H667 C680 0.961 . S
H668 C680 0.959 . S
H669 C683 0.929 . S
H670 C684 0.931 . S
H671 C686 0.930 . S
C672 H660 0.930 . S
C672 C673 1.399 . S
C672 C677 1.399 . S
C673 C672 1.399 . S
C673 C674 1.376 . S
C674 H661 0.930 . S
C674 C673 1.376 . S
C674 C675 1.388 . S
C675 H662 0.930 1_565 S
C675 C674 1.388 . S
C675 C676 1.390 . S
C676 C675 1.390 . S
C676 C677 1.394 . S
C676 C682 1.465 1_565 S
C677 C672 1.399 . S
C677 C676 1.394 . S
C677 C678 1.516 . S
C678 C677 1.516 . S
C678 C679 1.502 . S
C678 C680 1.561 . S
C678 C681 1.526 1_565 S
C679 H663 0.959 . S
C679 H664 0.959 . S
C679 H665 0.961 . S
C679 C678 1.502 . S
C680 H666 0.960 . S
C680 H667 0.961 . S
C680 H668 0.959 . S
C680 C678 1.561 . S
C681 C678 1.526 1_545 S
C681 C682 1.396 . S
C681 C686 1.390 . S
C682 C676 1.465 1_545 S
C682 C681 1.396 . S
C682 C683 1.399 . S
C683 H669 0.929 . S
C683 C682 1.399 . S
C683 C684 1.385 . S
C684 H670 0.931 . S
C684 C683 1.385 . S
C684 C685 1.389 . S
C685 C684 1.389 . S
C685 C686 1.387 . S
C686 H671 0.930 . S
C686 C681 1.390 . S
C686 C685 1.387 . S
H687 C699 0.930 . S
H688 C701 0.930 . S
H689 C702 0.930 . S
H690 C706 0.959 1_455 S
H691 C706 0.959 1_455 S
H692 C706 0.961 . S
H693 C707 0.960 . S
H694 C707 0.961 . S
H695 C707 0.959 . S
H696 C710 0.929 . S
H697 C711 0.931 . S
H698 C713 0.930 . S
C699 H687 0.930 . S
C699 C700 1.399 . S
C699 C704 1.399 . S
C700 C699 1.399 . S
C700 C701 1.376 . S
C701 H688 0.930 . S
C701 C700 1.376 . S
C701 C702 1.388 . S
C702 H689 0.930 . S
C702 C701 1.388 . S
C702 C703 1.390 . S
C703 C702 1.390 . S
C703 C704 1.394 . S
C703 C709 1.465 1_655 S
C704 C699 1.399 . S
C704 C703 1.394 . S
C704 C705 1.516 . S
C705 C704 1.516 . S
C705 C706 1.502 . S
C705 C707 1.561 . S
C705 C708 1.526 1_655 S
C706 H690 0.959 1_655 S
C706 H691 0.959 1_655 S
C706 H692 0.961 . S
C706 C705 1.502 . S
C707 H693 0.960 . S
C707 H694 0.961 . S
C707 H695 0.959 . S
C707 C705 1.561 . S
C708 C705 1.526 1_455 S
C708 C709 1.396 . S
C708 C713 1.390 . S
C709 C703 1.465 1_455 S
C709 C708 1.396 . S
C709 C710 1.399 . S
C710 H696 0.929 . S
C710 C709 1.399 . S
C710 C711 1.385 . S
C711 H697 0.931 . S
C711 C710 1.385 . S
C711 C712 1.389 . S
C712 C711 1.389 . S
C712 C713 1.387 . S
C713 H698 0.930 . S
C713 C708 1.390 . S
C713 C712 1.387 . S
H714 C726 0.930 . S
H715 C728 0.930 . S
H716 C729 0.930 . S
H717 C733 0.959 . S
H718 C733 0.959 . S
H719 C733 0.961 . S
H720 C734 0.960 . S
H721 C734 0.961 . S
H722 C734 0.959 . S
H723 C737 0.929 1_545 S
H724 C738 0.931 . S
H725 C740 0.930 . S
C726 H714 0.930 . S
C726 C727 1.399 . S
C726 C731 1.399 . S
C727 C726 1.399 . S
C727 C728 1.376 . S
C728 H715 0.930 . S
C728 C727 1.376 . S
C728 C729 1.388 . S
C729 H716 0.930 . S
C729 C728 1.388 . S
C729 C730 1.390 . S
C730 C729 1.390 . S
C730 C731 1.394 . S
C730 C736 1.465 1_545 S
C731 C726 1.399 . S
C731 C730 1.394 . S
C731 C732 1.516 1_545 S
C732 C731 1.516 1_565 S
C732 C733 1.502 . S
C732 C734 1.561 . S
C732 C735 1.526 . S
C733 H717 0.959 . S
C733 H718 0.959 . S
C733 H719 0.961 . S
C733 C732 1.502 . S
C734 H720 0.960 . S
C734 H721 0.961 . S
C734 H722 0.959 . S
C734 C732 1.561 . S
C735 C732 1.526 . S
C735 C736 1.396 . S
C735 C740 1.390 . S
C736 C730 1.465 1_565 S
C736 C735 1.396 . S
C736 C737 1.399 . S
C737 H723 0.929 1_565 S
C737 C736 1.399 . S
C737 C738 1.385 . S
C738 H724 0.931 . S
C738 C737 1.385 . S
C738 C739 1.389 . S
C739 C738 1.389 . S
C739 C740 1.387 . S
C740 H725 0.930 . S
C740 C735 1.390 . S
C740 C739 1.387 . S
H741 C753 0.930 . S
H742 C755 0.930 . S
H743 C756 0.930 1_655 S
H744 C760 0.959 . S
H745 C760 0.959 . S
H746 C760 0.961 . S
H747 C761 0.960 . S
H748 C761 0.961 . S
H749 C761 0.959 . S
H750 C764 0.929 . S
H751 C765 0.931 . S
H752 C767 0.930 . S
C753 H741 0.930 . S
C753 C754 1.399 . S
C753 C758 1.399 . S
C754 C753 1.399 . S
C754 C755 1.376 . S
C755 H742 0.930 . S
C755 C754 1.376 . S
C755 C756 1.388 . S
C756 H743 0.930 1_455 S
C756 C755 1.388 . S
C756 C757 1.390 . S
C757 C756 1.390 . S
C757 C758 1.394 . S
C757 C763 1.465 1_455 S
C758 C753 1.399 . S
C758 C757 1.394 . S
C758 C759 1.516 . S
C759 C758 1.516 . S
C759 C760 1.502 . S
C759 C761 1.561 . S
C759 C762 1.526 1_455 S
C760 H744 0.959 . S
C760 H745 0.959 . S
C760 H746 0.961 . S
C760 C759 1.502 . S
C761 H747 0.960 . S
C761 H748 0.961 . S
C761 H749 0.959 . S
C761 C759 1.561 . S
C762 C759 1.526 1_655 S
C762 C763 1.396 . S
C762 C767 1.390 . S
C763 C757 1.465 1_655 S
C763 C762 1.396 . S
C763 C764 1.399 . S
C764 H750 0.929 . S
C764 C763 1.399 . S
C764 C765 1.385 . S
C765 H751 0.931 . S
C765 C764 1.385 . S
C765 C766 1.389 . S
C766 C765 1.389 . S
C766 C767 1.387 . S
C767 H752 0.930 . S
C767 C762 1.390 . S
C767 C766 1.387 . S
H768 C780 0.930 . S
H769 C782 0.930 . S
H770 C783 0.930 . S
H771 C787 0.959 . S
H772 C787 0.959 1_545 S
H773 C787 0.961 . S
H774 C788 0.960 . S
H775 C788 0.961 . S
H776 C788 0.959 . S
H777 C791 0.929 . S
H778 C792 0.931 . S
H779 C794 0.930 . S
C780 H768 0.930 . S
C780 C781 1.399 . S
C780 C785 1.399 . S
C781 C780 1.399 . S
C781 C782 1.376 . S
C782 H769 0.930 . S
C782 C781 1.376 . S
C782 C783 1.388 . S
C783 H770 0.930 . S
C783 C782 1.388 . S
C783 C784 1.390 . S
C784 C783 1.390 . S
C784 C785 1.394 . S
C784 C790 1.465 1_565 S
C785 C780 1.399 . S
C785 C784 1.394 . S
C785 C786 1.516 1_565 S
C786 C785 1.516 1_545 S
C786 C787 1.502 1_545 S
C786 C788 1.561 . S
C786 C789 1.526 . S
C787 H771 0.959 . S
C787 H772 0.959 1_565 S
C787 H773 0.961 . S
C787 C786 1.502 1_565 S
C788 H774 0.960 . S
C788 H775 0.961 . S
C788 H776 0.959 . S
C788 C786 1.561 . S
C789 C786 1.526 . S
C789 C790 1.396 . S
C789 C794 1.390 . S
C790 C784 1.465 1_545 S
C790 C789 1.396 . S
C790 C791 1.399 . S
C791 H777 0.929 . S
C791 C790 1.399 . S
C791 C792 1.385 . S
C792 H778 0.931 . S
C792 C791 1.385 . S
C792 C793 1.389 . S
C793 C792 1.389 . S
C793 C794 1.387 . S
C794 H779 0.930 . S
C794 C789 1.390 . S
C794 C793 1.387 . S
H795 C807 0.930 . S
H796 C809 0.930 . S
H797 C810 0.930 . S
H798 C814 0.959 . S
H799 C814 0.959 . S
H800 C814 0.961 . S
H801 C815 0.960 . S
H802 C815 0.961 . S
H803 C815 0.959 . S
H804 C818 0.929 . S
H805 C819 0.931 . S
H806 C821 0.930 . S
C807 H795 0.930 . S
C807 C808 1.399 . S
C807 C812 1.399 . S
C808 C807 1.399 . S
C808 C809 1.376 . S
C809 H796 0.930 . S
C809 C808 1.376 . S
C809 C810 1.388 . S
C810 H797 0.930 . S
C810 C809 1.388 . S
C810 C811 1.390 . S
C811 C810 1.390 . S
C811 C812 1.394 . S
C811 C817 1.465 1_655 S
C812 C807 1.399 . S
C812 C811 1.394 . S
C812 C813 1.538 . S
C813 C812 1.538 . S
C813 C814 1.483 1_655 S
C813 C815 1.582 . S
C813 C816 1.505 1_655 S
C814 H798 0.959 . S
C814 H799 0.959 . S
C814 H800 0.961 . S
C814 C813 1.483 1_455 S
C815 H801 0.960 . S
C815 H802 0.961 . S
C815 H803 0.959 . S
C815 C813 1.582 . S
C816 C813 1.505 1_455 S
C816 C817 1.396 . S
C816 C821 1.390 . S
C817 C811 1.465 1_455 S
C817 C816 1.396 . S
C817 C818 1.399 . S
C818 H804 0.929 . S
C818 C817 1.399 . S
C818 C819 1.385 . S
C819 H805 0.931 . S
C819 C818 1.385 . S
C819 C820 1.389 . S
C820 C819 1.389 . S
C820 C821 1.387 . S
C821 H806 0.930 . S
C821 C816 1.390 . S
C821 C820 1.387 . S
H822 C834 0.930 . S
H823 C836 0.930 . S
H824 C837 0.930 1_545 S
H825 C841 0.959 . S
H826 C841 0.959 . S
H827 C841 0.961 . S
H828 C842 0.960 . S
H829 C842 0.961 . S
H830 C842 0.959 . S
H831 C845 0.929 . S
H832 C846 0.931 . S
H833 C848 0.930 . S
C834 H822 0.930 . S
C834 C835 1.399 . S
C834 C839 1.399 . S
C835 C834 1.399 . S
C835 C836 1.376 . S
C836 H823 0.930 . S
C836 C835 1.376 . S
C836 C837 1.388 . S
C837 H824 0.930 1_565 S
C837 C836 1.388 . S
C837 C838 1.390 . S
C838 C837 1.390 . S
C838 C839 1.394 . S
C838 C844 1.465 1_565 S
C839 C834 1.399 . S
C839 C838 1.394 . S
C839 C840 1.516 . S
C840 C839 1.516 . S
C840 C841 1.502 . S
C840 C842 1.561 . S
C840 C843 1.526 1_565 S
C841 H825 0.959 . S
C841 H826 0.959 . S
C841 H827 0.961 . S
C841 C840 1.502 . S
C842 H828 0.960 . S
C842 H829 0.961 . S
C842 H830 0.959 . S
C842 C840 1.561 . S
C843 C840 1.526 1_545 S
C843 C844 1.396 . S
C843 C848 1.390 . S
C844 C838 1.465 1_545 S
C844 C843 1.396 . S
C844 C845 1.399 . S
C845 H831 0.929 . S
C845 C844 1.399 . S
C845 C846 1.385 . S
C846 H832 0.931 . S
C846 C845 1.385 . S
C846 C847 1.389 . S
C847 C846 1.389 . S
C847 C848 1.387 . S
C848 H833 0.930 . S
C848 C843 1.390 . S
C848 C847 1.387 . S
H849 C861 0.930 . S
H850 C863 0.930 . S
H851 C864 0.930 . S
H852 C868 0.959 1_655 S
H853 C868 0.959 1_655 S
H854 C868 0.961 . S
H855 C869 0.960 . S
H856 C869 0.961 . S
H857 C869 0.959 . S
H858 C872 0.929 . S
H859 C873 0.931 . S
H860 C875 0.930 . S
C861 H849 0.930 . S
C861 C862 1.399 . S
C861 C866 1.399 . S
C862 C861 1.399 . S
C862 C863 1.376 . S
C863 H850 0.930 . S
C863 C862 1.376 . S
C863 C864 1.388 . S
C864 H851 0.930 . S
C864 C863 1.388 . S
C864 C865 1.390 . S
C865 C864 1.390 . S
C865 C866 1.394 . S
C865 C871 1.465 1_455 S
C866 C861 1.399 . S
C866 C865 1.394 . S
C866 C867 1.516 . S
C867 C866 1.516 . S
C867 C868 1.502 . S
C867 C869 1.561 . S
C867 C870 1.526 1_455 S
C868 H852 0.959 1_455 S
C868 H853 0.959 1_455 S
C868 H854 0.961 . S
C868 C867 1.502 . S
C869 H855 0.960 . S
C869 H856 0.961 . S
C869 H857 0.959 . S
C869 C867 1.561 . S
C870 C867 1.526 1_655 S
C870 C871 1.396 . S
C870 C875 1.390 . S
C871 C865 1.465 1_655 S
C871 C870 1.396 . S
C871 C872 1.399 . S
C872 H858 0.929 . S
C872 C871 1.399 . S
C872 C873 1.385 . S
C873 H859 0.931 . S
C873 C872 1.385 . S
C873 C874 1.389 . S
C874 C873 1.389 . S
C874 C875 1.387 . S
C875 H860 0.930 . S
C875 C870 1.390 . S
C875 C874 1.387 . S
H876 C888 0.930 . S
H877 C890 0.930 . S
H878 C891 0.930 . S
H879 C895 0.959 . S
H880 C895 0.959 . S
H881 C895 0.961 . S
H882 C896 0.960 . S
H883 C896 0.961 . S
H884 C896 0.959 . S
H885 C899 0.929 1_556 S
H886 C900 0.931 . S
H887 C902 0.930 . S
C888 H876 0.930 . S
C888 C889 1.399 . S
C888 C893 1.399 . S
C889 C888 1.399 . S
C889 C890 1.376 . S
C890 H877 0.930 . S
C890 C889 1.376 . S
C890 C891 1.388 . S
C891 H878 0.930 . S
C891 C890 1.388 . S
C891 C892 1.390 . S
C892 C891 1.390 . S
C892 C893 1.394 . S
C892 C898 1.465 1_556 S
C893 C888 1.399 . S
C893 C892 1.394 . S
C893 C894 1.516 1_556 S
C894 C893 1.516 1_554 S
C894 C895 1.502 . S
C894 C896 1.561 . S
C894 C897 1.526 . S
C895 H879 0.959 . S
C895 H880 0.959 . S
C895 H881 0.961 . S
C895 C894 1.502 . S
C896 H882 0.960 . S
C896 H883 0.961 . S
C896 H884 0.959 . S
C896 C894 1.561 . S
C897 C894 1.526 . S
C897 C898 1.396 . S
C897 C902 1.390 . S
C898 C892 1.465 1_554 S
C898 C897 1.396 . S
C898 C899 1.399 . S
C899 H885 0.929 1_554 S
C899 C898 1.399 . S
C899 C900 1.385 . S
C900 H886 0.931 . S
C900 C899 1.385 . S
C900 C901 1.389 . S
C901 C900 1.389 . S
C901 C902 1.387 . S
C902 H887 0.930 . S
C902 C897 1.390 . S
C902 C901 1.387 . S
H903 C915 0.930 . S
H904 C917 0.930 . S
H905 C918 0.930 . S
H906 C922 0.950 1_554 S
H907 C922 0.959 . S
H908 C922 0.961 . S
H909 C923 0.960 . S
H910 C923 0.961 . S
H911 C923 0.959 . S
H912 C926 0.929 . S
H913 C927 0.931 . S
H914 C929 0.930 . S
C915 H903 0.930 . S
C915 C916 1.399 . S
C915 C920 1.399 . S
C916 C915 1.399 . S
C916 C917 1.376 . S
C917 H904 0.930 . S
C917 C916 1.376 . S
C917 C918 1.388 . S
C918 H905 0.930 . S
C918 C917 1.388 . S
C918 C919 1.390 . S
C919 C918 1.390 . S
C919 C920 1.394 . S
C919 C925 1.465 1_554 S
C920 C915 1.399 . S
C920 C919 1.394 . S
C920 C921 1.516 1_554 S
C921 C920 1.516 1_556 S
C921 C922 1.502 . S
C921 C923 1.561 . S
C921 C924 1.526 . S
C922 H906 0.950 1_556 S
C922 H907 0.959 . S
C922 H908 0.961 . S
C922 C921 1.502 . S
C923 H909 0.960 . S
C923 H910 0.961 . S
C923 H911 0.959 . S
C923 C921 1.561 . S
C924 C921 1.526 . S
C924 C925 1.396 . S
C924 C929 1.390 . S
C925 C919 1.465 1_556 S
C925 C924 1.396 . S
C925 C926 1.399 . S
C926 H912 0.929 . S
C926 C925 1.399 . S
C926 C927 1.385 . S
C927 H913 0.931 . S
C927 C926 1.385 . S
C927 C928 1.389 . S
C928 C927 1.389 . S
C928 C929 1.387 . S
C929 H914 0.930 . S
C929 C924 1.390 . S
C929 C928 1.387 . S
H930 C942 0.930 . S
H931 C944 0.930 . S
H932 C945 0.930 . S
H933 C949 0.959 . S
H934 C949 0.959 . S
H935 C949 0.961 . S
H936 C950 0.960 . S
H937 C950 0.961 . S
H938 C950 0.959 . S
H939 C953 0.929 1_556 S
H940 C954 0.931 . S
H941 C956 0.930 . S
C942 H930 0.930 . S
C942 C943 1.399 . S
C942 C947 1.399 . S
C943 C942 1.399 . S
C943 C944 1.376 . S
C944 H931 0.930 . S
C944 C943 1.376 . S
C944 C945 1.388 . S
C945 H932 0.930 . S
C945 C944 1.388 . S
C945 C946 1.390 . S
C946 C945 1.390 . S
C946 C947 1.394 . S
C946 C952 1.465 1_556 S
C947 C942 1.399 . S
C947 C946 1.394 . S
C947 C948 1.516 1_556 S
C948 C947 1.516 1_554 S
C948 C949 1.502 . S
C948 C950 1.561 . S
C948 C951 1.526 . S
C949 H933 0.959 . S
C949 H934 0.959 . S
C949 H935 0.961 . S
C949 C948 1.502 . S
C950 H936 0.960 . S
C950 H937 0.961 . S
C950 H938 0.959 . S
C950 C948 1.561 . S
C951 C948 1.526 . S
C951 C952 1.396 . S
C951 C956 1.390 . S
C952 C946 1.465 1_554 S
C952 C951 1.396 . S
C952 C953 1.399 . S
C953 H939 0.929 1_554 S
C953 C952 1.399 . S
C953 C954 1.385 . S
C954 H940 0.931 . S
C954 C953 1.385 . S
C954 C955 1.389 . S
C955 C954 1.389 . S
C955 C956 1.387 . S
C956 H941 0.930 . S
C956 C951 1.390 . S
C956 C955 1.387 . S
H957 C969 0.930 . S
H958 C971 0.930 . S
H959 C972 0.930 . S
H960 C976 0.987 . S
H961 C976 0.975 . S
H962 C976 0.932 1_554 S
H963 C977 0.960 . S
H964 C977 0.961 . S
H965 C977 0.959 . S
H966 C980 0.929 . S
H967 C981 0.931 . S
H968 C983 0.930 . S
C969 H957 0.930 . S
C969 C970 1.399 . S
C969 C974 1.399 . S
C970 C969 1.399 . S
C970 C971 1.376 . S
C971 H958 0.930 . S
C971 C970 1.376 . S
C971 C972 1.388 . S
C972 H959 0.930 . S
C972 C971 1.388 . S
C972 C973 1.390 . S
C973 C972 1.390 . S
C973 C974 1.394 . S
C973 C979 1.465 1_554 S
C974 C969 1.399 . S
C974 C973 1.394 . S
C974 C975 1.516 . S
C975 C974 1.516 . S
C975 C976 1.490 1_554 S
C975 C977 1.561 . S
C975 C978 1.526 1_554 S
C976 H960 0.987 . S
C976 H961 0.975 . S
C976 H962 0.932 1_556 S
C976 C975 1.490 1_556 S
C977 H963 0.960 . S
C977 H964 0.961 . S
C977 H965 0.959 . S
C977 C975 1.561 . S
C978 C975 1.526 1_556 S
C978 C979 1.396 . S
C978 C983 1.390 . S
C979 C973 1.465 1_556 S
C979 C978 1.396 . S
C979 C980 1.399 . S
C980 H966 0.929 . S
C980 C979 1.399 . S
C980 C981 1.385 . S
C981 H967 0.931 . S
C981 C980 1.385 . S
C981 C982 1.389 . S
C982 C981 1.389 . S
C982 C983 1.387 . S
C983 H968 0.930 . S
C983 C978 1.390 . S
C983 C982 1.387 . S
H984 C996 0.930 . S
H985 C998 0.930 . S
H986 C999 0.930 . S
H987 C1003 0.959 . S
H988 C1003 0.959 . S
H989 C1003 0.961 . S
H990 C1004 0.960 . S
H991 C1004 0.961 . S
H992 C1004 0.959 . S
H993 C1007 0.929 . S
H994 C1008 0.931 . S
H995 C1010 0.930 . S
C996 H984 0.930 . S
C996 C997 1.399 . S
C996 C1001 1.399 . S
C997 C996 1.399 . S
C997 C998 1.376 . S
C998 H985 0.930 . S
C998 C997 1.376 . S
C998 C999 1.388 . S
C999 H986 0.930 . S
C999 C998 1.388 . S
C999 C1000 1.390 . S
C1000 C999 1.390 . S
C1000 C1001 1.394 . S
C1000 C1006 1.465 . S
C1001 C996 1.399 . S
C1001 C1000 1.394 . S
C1001 C1002 1.516 . S
C1002 C1001 1.516 . S
C1002 C1003 1.502 . S
C1002 C1004 1.561 . S
C1002 C1005 1.526 . S
C1003 H987 0.959 . S
C1003 H988 0.959 . S
C1003 H989 0.961 . S
C1003 C1002 1.502 . S
C1004 H990 0.960 . S
C1004 H991 0.961 . S
C1004 H992 0.959 . S
C1004 C1002 1.561 . S
C1005 C1002 1.526 . S
C1005 C1006 1.396 . S
C1005 C1010 1.390 . S
C1006 C1000 1.465 . S
C1006 C1005 1.396 . S
C1006 C1007 1.399 . S
C1007 H993 0.929 . S
C1007 C1006 1.399 . S
C1007 C1008 1.385 . S
C1008 H994 0.931 . S
C1008 C1007 1.385 . S
C1008 C1009 1.389 . S
C1009 C1008 1.389 . S
C1009 C1010 1.387 . S
C1010 H995 0.930 . S
C1010 C1005 1.390 . S
C1010 C1009 1.387 . S
H1011 C1023 0.930 . S
H1012 C1025 0.930 . S
H1013 C1026 0.930 . S
H1014 C1030 0.959 . S
H1015 C1030 0.959 . S
H1016 C1030 0.961 . S
H1017 C1031 0.960 . S
H1018 C1031 0.961 . S
H1019 C1031 0.959 . S
H1020 C1034 0.929 . S
H1021 C1035 0.931 . S
H1022 C1037 0.930 . S
C1023 H1011 0.930 . S
C1023 C1024 1.399 . S
C1023 C1028 1.399 . S
C1024 C1023 1.399 . S
C1024 C1025 1.376 . S
C1025 H1012 0.930 . S
C1025 C1024 1.376 . S
C1025 C1026 1.388 . S
C1026 H1013 0.930 . S
C1026 C1025 1.388 . S
C1026 C1027 1.390 . S
C1027 C1026 1.390 . S
C1027 C1028 1.394 . S
C1027 C1033 1.465 . S
C1028 C1023 1.399 . S
C1028 C1027 1.394 . S
C1028 C1029 1.516 . S
C1029 C1028 1.516 . S
C1029 C1030 1.502 . S
C1029 C1031 1.561 . S
C1029 C1032 1.526 . S
C1030 H1014 0.959 . S
C1030 H1015 0.959 . S
C1030 H1016 0.961 . S
C1030 C1029 1.502 . S
C1031 H1017 0.960 . S
C1031 H1018 0.961 . S
C1031 H1019 0.959 . S
C1031 C1029 1.561 . S
C1032 C1029 1.526 . S
C1032 C1033 1.396 . S
C1032 C1037 1.390 . S
C1033 C1027 1.465 . S
C1033 C1032 1.396 . S
C1033 C1034 1.399 . S
C1034 H1020 0.929 . S
C1034 C1033 1.399 . S
C1034 C1035 1.385 . S
C1035 H1021 0.931 . S
C1035 C1034 1.385 . S
C1035 C1036 1.389 . S
C1036 C1035 1.389 . S
C1036 C1037 1.387 . S
C1037 H1022 0.930 . S
C1037 C1032 1.390 . S
C1037 C1036 1.387 . S
H1038 C1050 0.930 . S
H1039 C1052 0.930 . S
H1040 C1053 0.930 . S
H1041 C1057 0.959 . S
H1042 C1057 0.959 . S
H1043 C1057 0.961 . S
H1044 C1058 0.960 . S
H1045 C1058 0.961 . S
H1046 C1058 0.959 . S
H1047 C1061 0.929 . S
H1048 C1062 0.931 . S
H1049 C1064 0.930 . S
C1050 H1038 0.930 . S
C1050 C1051 1.399 . S
C1050 C1055 1.399 . S
C1051 C1050 1.399 . S
C1051 C1052 1.376 . S
C1052 H1039 0.930 . S
C1052 C1051 1.376 . S
C1052 C1053 1.388 . S
C1053 H1040 0.930 . S
C1053 C1052 1.388 . S
C1053 C1054 1.390 . S
C1054 C1053 1.390 . S
C1054 C1055 1.394 . S
C1054 C1060 1.465 . S
C1055 C1050 1.399 . S
C1055 C1054 1.394 . S
C1055 C1056 1.516 . S
C1056 C1055 1.516 . S
C1056 C1057 1.502 . S
C1056 C1058 1.561 . S
C1056 C1059 1.526 . S
C1057 H1041 0.959 . S
C1057 H1042 0.959 . S
C1057 H1043 0.961 . S
C1057 C1056 1.502 . S
C1058 H1044 0.960 . S
C1058 H1045 0.961 . S
C1058 H1046 0.959 . S
C1058 C1056 1.561 . S
C1059 C1056 1.526 . S
C1059 C1060 1.396 . S
C1059 C1064 1.390 . S
C1060 C1054 1.465 . S
C1060 C1059 1.396 . S
C1060 C1061 1.399 . S
C1061 H1047 0.929 . S
C1061 C1060 1.399 . S
C1061 C1062 1.385 . S
C1062 H1048 0.931 . S
C1062 C1061 1.385 . S
C1062 C1063 1.389 . S
C1063 C1062 1.389 . S
C1063 C1064 1.387 . S
C1064 H1049 0.930 . S
C1064 C1059 1.390 . S
C1064 C1063 1.387 . S
H1065 C1077 0.930 . S
H1066 C1079 0.930 . S
H1067 C1080 0.930 . S
H1068 C1084 0.959 . S
H1069 C1084 0.959 . S
H1070 C1084 0.961 . S
H1071 C1085 0.960 . S
H1072 C1085 0.961 . S
H1073 C1085 0.959 . S
H1074 C1088 0.929 . S
H1075 C1089 0.931 . S
H1076 C1091 0.930 . S
C1077 H1065 0.930 . S
C1077 C1078 1.399 . S
C1077 C1082 1.399 . S
C1078 C1077 1.399 . S
C1078 C1079 1.376 . S
C1079 H1066 0.930 . S
C1079 C1078 1.376 . S
C1079 C1080 1.388 . S
C1080 H1067 0.930 . S
C1080 C1079 1.388 . S
C1080 C1081 1.390 . S
C1081 C1080 1.390 . S
C1081 C1082 1.394 . S
C1081 C1087 1.465 . S
C1082 C1077 1.399 . S
C1082 C1081 1.394 . S
C1082 C1083 1.516 . S
C1083 C1082 1.516 . S
C1083 C1084 1.502 . S
C1083 C1085 1.561 . S
C1083 C1086 1.526 . S
C1084 H1068 0.959 . S
C1084 H1069 0.959 . S
C1084 H1070 0.961 . S
C1084 C1083 1.502 . S
C1085 H1071 0.960 . S
C1085 H1072 0.961 . S
C1085 H1073 0.959 . S
C1085 C1083 1.561 . S
C1086 C1083 1.526 . S
C1086 C1087 1.396 . S
C1086 C1091 1.390 . S
C1087 C1081 1.465 . S
C1087 C1086 1.396 . S
C1087 C1088 1.399 . S
C1088 H1074 0.929 . S
C1088 C1087 1.399 . S
C1088 C1089 1.385 . S
C1089 H1075 0.931 . S
C1089 C1088 1.385 . S
C1089 C1090 1.389 . S
C1090 C1089 1.389 . S
C1090 C1091 1.387 . S
C1091 H1076 0.930 . S
C1091 C1086 1.390 . S
C1091 C1090 1.387 . S
H1092 C1104 0.930 . S
H1093 C1106 0.930 . S
H1094 C1107 0.930 . S
H1095 C1111 0.959 . S
H1096 C1111 0.959 . S
H1097 C1111 0.961 . S
H1098 C1112 0.960 . S
H1099 C1112 0.961 . S
H1100 C1112 0.959 . S
H1101 C1115 0.929 . S
H1102 C1116 0.931 . S
H1103 C1118 0.930 . S
C1104 H1092 0.930 . S
C1104 C1105 1.399 . S
C1104 C1109 1.399 . S
C1105 C1104 1.399 . S
C1105 C1106 1.376 . S
C1106 H1093 0.930 . S
C1106 C1105 1.376 . S
C1106 C1107 1.388 . S
C1107 H1094 0.930 . S
C1107 C1106 1.388 . S
C1107 C1108 1.390 . S
C1108 C1107 1.390 . S
C1108 C1109 1.394 . S
C1108 C1114 1.465 . S
C1109 C1104 1.399 . S
C1109 C1108 1.394 . S
C1109 C1110 1.516 . S
C1110 C1109 1.516 . S
C1110 C1111 1.502 . S
C1110 C1112 1.561 . S
C1110 C1113 1.526 . S
C1111 H1095 0.959 . S
C1111 H1096 0.959 . S
C1111 H1097 0.961 . S
C1111 C1110 1.502 . S
C1112 H1098 0.960 . S
C1112 H1099 0.961 . S
C1112 H1100 0.959 . S
C1112 C1110 1.561 . S
C1113 C1110 1.526 . S
C1113 C1114 1.396 . S
C1113 C1118 1.390 . S
C1114 C1108 1.465 . S
C1114 C1113 1.396 . S
C1114 C1115 1.399 . S
C1115 H1101 0.929 . S
C1115 C1114 1.399 . S
C1115 C1116 1.385 . S
C1116 H1102 0.931 . S
C1116 C1115 1.385 . S
C1116 C1117 1.389 . S
C1117 C1116 1.389 . S
C1117 C1118 1.387 . S
C1118 H1103 0.930 . S
C1118 C1113 1.390 . S
C1118 C1117 1.387 . S
H1119 C1131 0.930 . S
H1120 C1133 0.930 . S
H1121 C1134 0.930 . S
H1122 C1138 0.959 . S
H1123 C1138 0.959 . S
H1124 C1138 0.961 . S
H1125 C1139 0.960 . S
H1126 C1139 0.961 . S
H1127 C1139 0.959 . S
H1128 C1142 0.929 . S
H1129 C1143 0.931 . S
H1130 C1145 0.930 . S
C1131 H1119 0.930 . S
C1131 C1132 1.399 . S
C1131 C1136 1.399 . S
C1132 C1131 1.399 . S
C1132 C1133 1.376 . S
C1133 H1120 0.930 . S
C1133 C1132 1.376 . S
C1133 C1134 1.388 . S
C1134 H1121 0.930 . S
C1134 C1133 1.388 . S
C1134 C1135 1.390 . S
C1135 C1134 1.390 . S
C1135 C1136 1.394 . S
C1135 C1141 1.465 . S
C1136 C1131 1.399 . S
C1136 C1135 1.394 . S
C1136 C1137 1.516 . S
C1137 C1136 1.516 . S
C1137 C1138 1.502 . S
C1137 C1139 1.561 . S
C1137 C1140 1.526 . S
C1138 H1122 0.959 . S
C1138 H1123 0.959 . S
C1138 H1124 0.961 . S
C1138 C1137 1.502 . S
C1139 H1125 0.960 . S
C1139 H1126 0.961 . S
C1139 H1127 0.959 . S
C1139 C1137 1.561 . S
C1140 C1137 1.526 . S
C1140 C1141 1.396 . S
C1140 C1145 1.390 . S
C1141 C1135 1.465 . S
C1141 C1140 1.396 . S
C1141 C1142 1.399 . S
C1142 H1128 0.929 . S
C1142 C1141 1.399 . S
C1142 C1143 1.385 . S
C1143 H1129 0.931 . S
C1143 C1142 1.385 . S
C1143 C1144 1.389 . S
C1144 C1143 1.389 . S
C1144 C1145 1.387 . S
C1145 H1130 0.930 . S
C1145 C1140 1.390 . S
C1145 C1144 1.387 . S
H1146 C1158 0.930 . S
H1147 C1160 0.930 . S
H1148 C1161 0.930 . S
H1149 C1165 0.959 . S
H1150 C1165 0.959 . S
H1151 C1165 0.961 . S
H1152 C1166 0.960 . S
H1153 C1166 0.961 . S
H1154 C1166 0.959 . S
H1155 C1169 0.929 . S
H1156 C1170 0.931 . S
H1157 C1172 0.930 . S
C1158 H1146 0.930 . S
C1158 C1159 1.399 . S
C1158 C1163 1.399 . S
C1159 C1158 1.399 . S
C1159 C1160 1.376 . S
C1160 H1147 0.930 . S
C1160 C1159 1.376 . S
C1160 C1161 1.388 . S
C1161 H1148 0.930 . S
C1161 C1160 1.388 . S
C1161 C1162 1.390 . S
C1162 C1161 1.390 . S
C1162 C1163 1.394 . S
C1162 C1168 1.465 . S
C1163 C1158 1.399 . S
C1163 C1162 1.394 . S
C1163 C1164 1.516 . S
C1164 C1163 1.516 . S
C1164 C1165 1.502 . S
C1164 C1166 1.561 . S
C1164 C1167 1.526 . S
C1165 H1149 0.959 . S
C1165 H1150 0.959 . S
C1165 H1151 0.961 . S
C1165 C1164 1.502 . S
C1166 H1152 0.960 . S
C1166 H1153 0.961 . S
C1166 H1154 0.959 . S
C1166 C1164 1.561 . S
C1167 C1164 1.526 . S
C1167 C1168 1.396 . S
C1167 C1172 1.390 . S
C1168 C1162 1.465 . S
C1168 C1167 1.396 . S
C1168 C1169 1.399 . S
C1169 H1155 0.929 . S
C1169 C1168 1.399 . S
C1169 C1170 1.385 . S
C1170 H1156 0.931 . S
C1170 C1169 1.385 . S
C1170 C1171 1.389 . S
C1171 C1170 1.389 . S
C1171 C1172 1.387 . S
C1172 H1157 0.930 . S
C1172 C1167 1.390 . S
C1172 C1171 1.387 . S
H1173 C1185 0.930 . S
H1174 C1187 0.930 . S
H1175 C1188 0.930 . S
H1176 C1192 0.959 . S
H1177 C1192 0.959 . S
H1178 C1192 0.961 . S
H1179 C1193 0.960 . S
H1180 C1193 0.961 . S
H1181 C1193 0.959 . S
H1182 C1196 0.929 . S
H1183 C1197 0.931 . S
H1184 C1199 0.930 . S
C1185 H1173 0.930 . S
C1185 C1186 1.399 . S
C1185 C1190 1.399 . S
C1186 C1185 1.399 . S
C1186 C1187 1.376 . S
C1187 H1174 0.930 . S
C1187 C1186 1.376 . S
C1187 C1188 1.388 . S
C1188 H1175 0.930 . S
C1188 C1187 1.388 . S
C1188 C1189 1.390 . S
C1189 C1188 1.390 . S
C1189 C1190 1.394 . S
C1189 C1195 1.465 . S
C1190 C1185 1.399 . S
C1190 C1189 1.394 . S
C1190 C1191 1.516 . S
C1191 C1190 1.516 . S
C1191 C1192 1.502 . S
C1191 C1193 1.561 . S
C1191 C1194 1.526 . S
C1192 H1176 0.959 . S
C1192 H1177 0.959 . S
C1192 H1178 0.961 . S
C1192 C1191 1.502 . S
C1193 H1179 0.960 . S
C1193 H1180 0.961 . S
C1193 H1181 0.959 . S
C1193 C1191 1.561 . S
C1194 C1191 1.526 . S
C1194 C1195 1.396 . S
C1194 C1199 1.390 . S
C1195 C1189 1.465 . S
C1195 C1194 1.396 . S
C1195 C1196 1.399 . S
C1196 H1182 0.929 . S
C1196 C1195 1.399 . S
C1196 C1197 1.385 . S
C1197 H1183 0.931 . S
C1197 C1196 1.385 . S
C1197 C1198 1.389 . S
C1198 C1197 1.389 . S
C1198 C1199 1.387 . S
C1199 H1184 0.930 . S
C1199 C1194 1.390 . S
C1199 C1198 1.387 . S
H1200 C1212 0.930 . S
H1201 C1214 0.930 . S
H1202 C1215 0.930 . S
H1203 C1219 0.959 . S
H1204 C1219 0.959 . S
H1205 C1219 0.961 . S
H1206 C1220 0.960 . S
H1207 C1220 0.961 . S
H1208 C1220 0.959 . S
H1209 C1223 0.929 . S
H1210 C1224 0.931 . S
H1211 C1226 0.930 . S
C1212 H1200 0.930 . S
C1212 C1213 1.399 . S
C1212 C1217 1.399 . S
C1213 C1212 1.399 . S
C1213 C1214 1.376 . S
C1214 H1201 0.930 . S
C1214 C1213 1.376 . S
C1214 C1215 1.388 . S
C1215 H1202 0.930 . S
C1215 C1214 1.388 . S
C1215 C1216 1.390 . S
C1216 C1215 1.390 . S
C1216 C1217 1.394 . S
C1216 C1222 1.465 . S
C1217 C1212 1.399 . S
C1217 C1216 1.394 . S
C1217 C1218 1.516 . S
C1218 C1217 1.516 . S
C1218 C1219 1.502 . S
C1218 C1220 1.561 . S
C1218 C1221 1.526 . S
C1219 H1203 0.959 . S
C1219 H1204 0.959 . S
C1219 H1205 0.961 . S
C1219 C1218 1.502 . S
C1220 H1206 0.960 . S
C1220 H1207 0.961 . S
C1220 H1208 0.959 . S
C1220 C1218 1.561 . S
C1221 C1218 1.526 . S
C1221 C1222 1.396 . S
C1221 C1226 1.390 . S
C1222 C1216 1.465 . S
C1222 C1221 1.396 . S
C1222 C1223 1.399 . S
C1223 H1209 0.929 . S
C1223 C1222 1.399 . S
C1223 C1224 1.385 . S
C1224 H1210 0.931 . S
C1224 C1223 1.385 . S
C1224 C1225 1.389 . S
C1225 C1224 1.389 . S
C1225 C1226 1.387 . S
C1226 H1211 0.930 . S
C1226 C1221 1.390 . S
C1226 C1225 1.387 . S
H1227 C1239 0.930 . S
H1228 C1241 0.930 . S
H1229 C1242 0.930 . S
H1230 C1246 0.959 . S
H1231 C1246 0.959 . S
H1232 C1246 0.961 . S
H1233 C1247 0.960 . S
H1234 C1247 0.961 . S
H1235 C1247 0.959 . S
H1236 C1250 0.929 . S
H1237 C1251 0.931 . S
H1238 C1253 0.930 . S
C1239 H1227 0.930 . S
C1239 C1240 1.399 . S
C1239 C1244 1.399 . S
C1240 C1239 1.399 . S
C1240 C1241 1.376 . S
C1241 H1228 0.930 . S
C1241 C1240 1.376 . S
C1241 C1242 1.388 . S
C1242 H1229 0.930 . S
C1242 C1241 1.388 . S
C1242 C1243 1.390 . S
C1243 C1242 1.390 . S
C1243 C1244 1.394 . S
C1243 C1249 1.465 . S
C1244 C1239 1.399 . S
C1244 C1243 1.394 . S
C1244 C1245 1.516 . S
C1245 C1244 1.516 . S
C1245 C1246 1.502 . S
C1245 C1247 1.561 . S
C1245 C1248 1.526 . S
C1246 H1230 0.959 . S
C1246 H1231 0.959 . S
C1246 H1232 0.961 . S
C1246 C1245 1.502 . S
C1247 H1233 0.960 . S
C1247 H1234 0.961 . S
C1247 H1235 0.959 . S
C1247 C1245 1.561 . S
C1248 C1245 1.526 . S
C1248 C1249 1.396 . S
C1248 C1253 1.390 . S
C1249 C1243 1.465 . S
C1249 C1248 1.396 . S
C1249 C1250 1.399 . S
C1250 H1236 0.929 . S
C1250 C1249 1.399 . S
C1250 C1251 1.385 . S
C1251 H1237 0.931 . S
C1251 C1250 1.385 . S
C1251 C1252 1.389 . S
C1252 C1251 1.389 . S
C1252 C1253 1.387 . S
C1253 H1238 0.930 . S
C1253 C1248 1.390 . S
C1253 C1252 1.387 . S
H1254 C1266 0.930 . S
H1255 C1268 0.930 . S
H1256 C1269 0.930 . S
H1257 C1273 0.959 . S
H1258 C1273 0.959 . S
H1259 C1273 0.961 . S
H1260 C1274 0.960 . S
H1261 C1274 0.961 . S
H1262 C1274 0.959 . S
H1263 C1277 0.929 . S
H1264 C1278 0.931 . S
H1265 C1280 0.930 . S
C1266 H1254 0.930 . S
C1266 C1267 1.399 . S
C1266 C1271 1.399 . S
C1267 C1266 1.399 . S
C1267 C1268 1.376 . S
C1268 H1255 0.930 . S
C1268 C1267 1.376 . S
C1268 C1269 1.388 . S
C1269 H1256 0.930 . S
C1269 C1268 1.388 . S
C1269 C1270 1.390 . S
C1270 C1269 1.390 . S
C1270 C1271 1.394 . S
C1270 C1276 1.465 . S
C1271 C1266 1.399 . S
C1271 C1270 1.394 . S
C1271 C1272 1.516 . S
C1272 C1271 1.516 . S
C1272 C1273 1.502 . S
C1272 C1274 1.561 . S
C1272 C1275 1.526 . S
C1273 H1257 0.959 . S
C1273 H1258 0.959 . S
C1273 H1259 0.961 . S
C1273 C1272 1.502 . S
C1274 H1260 0.960 . S
C1274 H1261 0.961 . S
C1274 H1262 0.959 . S
C1274 C1272 1.561 . S
C1275 C1272 1.526 . S
C1275 C1276 1.396 . S
C1275 C1280 1.390 . S
C1276 C1270 1.465 . S
C1276 C1275 1.396 . S
C1276 C1277 1.399 . S
C1277 H1263 0.929 . S
C1277 C1276 1.399 . S
C1277 C1278 1.385 . S
C1278 H1264 0.931 . S
C1278 C1277 1.385 . S
C1278 C1279 1.389 . S
C1279 C1278 1.389 . S
C1279 C1280 1.387 . S
C1280 H1265 0.930 . S
C1280 C1275 1.390 . S
C1280 C1279 1.387 . S
H1281 C1293 0.930 . S
H1282 C1295 0.930 . S
H1283 C1296 0.930 . S
H1284 C1300 0.959 . S
H1285 C1300 0.959 . S
H1286 C1300 0.961 . S
H1287 C1301 0.960 . S
H1288 C1301 0.961 . S
H1289 C1301 0.959 . S
H1290 C1304 0.929 . S
H1291 C1305 0.931 . S
H1292 C1307 0.930 . S
C1293 H1281 0.930 . S
C1293 C1294 1.399 . S
C1293 C1298 1.399 . S
C1294 C1293 1.399 . S
C1294 C1295 1.376 . S
C1295 H1282 0.930 . S
C1295 C1294 1.376 . S
C1295 C1296 1.388 . S
C1296 H1283 0.930 . S
C1296 C1295 1.388 . S
C1296 C1297 1.390 . S
C1297 C1296 1.390 . S
C1297 C1298 1.394 . S
C1297 C1303 1.465 . S
C1298 C1293 1.399 . S
C1298 C1297 1.394 . S
C1298 C1299 1.516 . S
C1299 C1298 1.516 . S
C1299 C1300 1.502 . S
C1299 C1301 1.561 . S
C1299 C1302 1.526 . S
C1300 H1284 0.959 . S
C1300 H1285 0.959 . S
C1300 H1286 0.961 . S
C1300 C1299 1.502 . S
C1301 H1287 0.960 . S
C1301 H1288 0.961 . S
C1301 H1289 0.959 . S
C1301 C1299 1.561 . S
C1302 C1299 1.526 . S
C1302 C1303 1.396 . S
C1302 C1307 1.390 . S
C1303 C1297 1.465 . S
C1303 C1302 1.396 . S
C1303 C1304 1.399 . S
C1304 H1290 0.929 . S
C1304 C1303 1.399 . S
C1304 C1305 1.385 . S
C1305 H1291 0.931 . S
C1305 C1304 1.385 . S
C1305 C1306 1.389 . S
C1306 C1305 1.389 . S
C1306 C1307 1.387 . S
C1307 H1292 0.930 . S
C1307 C1302 1.390 . S
C1307 C1306 1.387 . S
H1308 C1320 0.930 . S
H1309 C1322 0.930 . S
H1310 C1323 0.930 . S
H1311 C1327 0.959 . S
H1312 C1327 0.959 . S
H1313 C1327 0.961 . S
H1314 C1328 0.960 . S
H1315 C1328 0.961 . S
H1316 C1328 0.959 . S
H1317 C1331 0.929 . S
H1318 C1332 0.931 . S
H1319 C1334 0.930 . S
C1320 H1308 0.930 . S
C1320 C1321 1.399 . S
C1320 C1325 1.399 . S
C1321 C1320 1.399 . S
C1321 C1322 1.376 . S
C1322 H1309 0.930 . S
C1322 C1321 1.376 . S
C1322 C1323 1.388 . S
C1323 H1310 0.930 . S
C1323 C1322 1.388 . S
C1323 C1324 1.390 . S
C1324 C1323 1.390 . S
C1324 C1325 1.394 . S
C1324 C1330 1.465 . S
C1325 C1320 1.399 . S
C1325 C1324 1.394 . S
C1325 C1326 1.516 . S
C1326 C1325 1.516 . S
C1326 C1327 1.502 . S
C1326 C1328 1.561 . S
C1326 C1329 1.526 . S
C1327 H1311 0.959 . S
C1327 H1312 0.959 . S
C1327 H1313 0.961 . S
C1327 C1326 1.502 . S
C1328 H1314 0.960 . S
C1328 H1315 0.961 . S
C1328 H1316 0.959 . S
C1328 C1326 1.561 . S
C1329 C1326 1.526 . S
C1329 C1330 1.396 . S
C1329 C1334 1.390 . S
C1330 C1324 1.465 . S
C1330 C1329 1.396 . S
C1330 C1331 1.399 . S
C1331 H1317 0.929 . S
C1331 C1330 1.399 . S
C1331 C1332 1.385 . S
C1332 H1318 0.931 . S
C1332 C1331 1.385 . S
C1332 C1333 1.389 . S
C1333 C1332 1.389 . S
C1333 C1334 1.387 . S
C1334 H1319 0.930 . S
C1334 C1329 1.390 . S
C1334 C1333 1.387 . S
H1335 C1347 0.930 . S
H1336 C1349 0.930 . S
H1337 C1350 0.930 . S
H1338 C1354 0.959 . S
H1339 C1354 0.959 . S
H1340 C1354 0.961 . S
H1341 C1355 0.960 . S
H1342 C1355 0.961 . S
H1343 C1355 0.959 . S
H1344 C1358 0.929 . S
H1345 C1359 0.931 . S
H1346 C1361 0.930 . S
C1347 H1335 0.930 . S
C1347 C1348 1.399 . S
C1347 C1352 1.399 . S
C1348 C1347 1.399 . S
C1348 C1349 1.376 . S
C1349 H1336 0.930 . S
C1349 C1348 1.376 . S
C1349 C1350 1.388 . S
C1350 H1337 0.930 . S
C1350 C1349 1.388 . S
C1350 C1351 1.390 . S
C1351 C1350 1.390 . S
C1351 C1352 1.394 . S
C1351 C1357 1.465 . S
C1352 C1347 1.399 . S
C1352 C1351 1.394 . S
C1352 C1353 1.516 . S
C1353 C1352 1.516 . S
C1353 C1354 1.502 . S
C1353 C1355 1.561 . S
C1353 C1356 1.526 . S
C1354 H1338 0.959 . S
C1354 H1339 0.959 . S
C1354 H1340 0.961 . S
C1354 C1353 1.502 . S
C1355 H1341 0.960 . S
C1355 H1342 0.961 . S
C1355 H1343 0.959 . S
C1355 C1353 1.561 . S
C1356 C1353 1.526 . S
C1356 C1357 1.396 . S
C1356 C1361 1.390 . S
C1357 C1351 1.465 . S
C1357 C1356 1.396 . S
C1357 C1358 1.399 . S
C1358 H1344 0.929 . S
C1358 C1357 1.399 . S
C1358 C1359 1.385 . S
C1359 H1345 0.931 . S
C1359 C1358 1.385 . S
C1359 C1360 1.389 . S
C1360 C1359 1.389 . S
C1360 C1361 1.387 . S
C1361 H1346 0.930 . S
C1361 C1356 1.390 . S
C1361 C1360 1.387 . S
H1362 C1374 0.930 . S
H1363 C1376 0.930 . S
H1364 C1377 0.930 . S
H1365 C1381 0.959 . S
H1366 C1381 0.959 . S
H1367 C1381 0.961 . S
H1368 C1382 0.960 . S
H1369 C1382 0.961 . S
H1370 C1382 0.959 . S
H1371 C1385 0.929 . S
H1372 C1386 0.931 . S
H1373 C1388 0.930 . S
C1374 H1362 0.930 . S
C1374 C1375 1.399 . S
C1374 C1379 1.399 . S
C1375 C1374 1.399 . S
C1375 C1376 1.376 . S
C1376 H1363 0.930 . S
C1376 C1375 1.376 . S
C1376 C1377 1.388 . S
C1377 H1364 0.930 . S
C1377 C1376 1.388 . S
C1377 C1378 1.390 . S
C1378 C1377 1.390 . S
C1378 C1379 1.394 . S
C1378 C1384 1.465 . S
C1379 C1374 1.399 . S
C1379 C1378 1.394 . S
C1379 C1380 1.516 . S
C1380 C1379 1.516 . S
C1380 C1381 1.502 . S
C1380 C1382 1.561 . S
C1380 C1383 1.526 . S
C1381 H1365 0.959 . S
C1381 H1366 0.959 . S
C1381 H1367 0.961 . S
C1381 C1380 1.502 . S
C1382 H1368 0.960 . S
C1382 H1369 0.961 . S
C1382 H1370 0.959 . S
C1382 C1380 1.561 . S
C1383 C1380 1.526 . S
C1383 C1384 1.396 . S
C1383 C1388 1.390 . S
C1384 C1378 1.465 . S
C1384 C1383 1.396 . S
C1384 C1385 1.399 . S
C1385 H1371 0.929 . S
C1385 C1384 1.399 . S
C1385 C1386 1.385 . S
C1386 H1372 0.931 . S
C1386 C1385 1.385 . S
C1386 C1387 1.389 . S
C1387 C1386 1.389 . S
C1387 C1388 1.387 . S
C1388 H1373 0.930 . S
C1388 C1383 1.390 . S
C1388 C1387 1.387 . S
H1389 C1401 0.930 . S
H1390 C1403 0.930 . S
H1391 C1404 0.930 . S
H1392 C1408 0.959 . S
H1393 C1408 0.959 . S
H1394 C1408 0.961 . S
H1395 C1409 0.960 . S
H1396 C1409 0.961 . S
H1397 C1409 0.959 . S
H1398 C1412 0.929 . S
H1399 C1413 0.931 . S
H1400 C1415 0.930 . S
C1401 H1389 0.930 . S
C1401 C1402 1.399 . S
C1401 C1406 1.399 . S
C1402 C1401 1.399 . S
C1402 C1403 1.376 . S
C1403 H1390 0.930 . S
C1403 C1402 1.376 . S
C1403 C1404 1.388 . S
C1404 H1391 0.930 . S
C1404 C1403 1.388 . S
C1404 C1405 1.390 . S
C1405 C1404 1.390 . S
C1405 C1406 1.394 . S
C1405 C1411 1.465 . S
C1406 C1401 1.399 . S
C1406 C1405 1.394 . S
C1406 C1407 1.516 . S
C1407 C1406 1.516 . S
C1407 C1408 1.502 . S
C1407 C1409 1.561 . S
C1407 C1410 1.526 . S
C1408 H1392 0.959 . S
C1408 H1393 0.959 . S
C1408 H1394 0.961 . S
C1408 C1407 1.502 . S
C1409 H1395 0.960 . S
C1409 H1396 0.961 . S
C1409 H1397 0.959 . S
C1409 C1407 1.561 . S
C1410 C1407 1.526 . S
C1410 C1411 1.396 . S
C1410 C1415 1.390 . S
C1411 C1405 1.465 . S
C1411 C1410 1.396 . S
C1411 C1412 1.399 . S
C1412 H1398 0.929 . S
C1412 C1411 1.399 . S
C1412 C1413 1.385 . S
C1413 H1399 0.931 . S
C1413 C1412 1.385 . S
C1413 C1414 1.389 . S
C1414 C1413 1.389 . S
C1414 C1415 1.387 . S
C1415 H1400 0.930 . S
C1415 C1410 1.390 . S
C1415 C1414 1.387 . S
H1416 C1428 0.930 . S
H1417 C1430 0.930 . S
H1418 C1431 0.930 . S
H1419 C1435 0.959 . S
H1420 C1435 0.959 . S
H1421 C1435 0.961 . S
H1422 C1436 0.960 . S
H1423 C1436 0.961 . S
H1424 C1436 0.959 . S
H1425 C1439 0.929 . S
H1426 C1440 0.931 . S
H1427 C1442 0.930 . S
C1428 H1416 0.930 . S
C1428 C1429 1.399 . S
C1428 C1433 1.399 . S
C1429 C1428 1.399 . S
C1429 C1430 1.376 . S
C1430 H1417 0.930 . S
C1430 C1429 1.376 . S
C1430 C1431 1.388 . S
C1431 H1418 0.930 . S
C1431 C1430 1.388 . S
C1431 C1432 1.390 . S
C1432 C1431 1.390 . S
C1432 C1433 1.394 . S
C1432 C1438 1.465 . S
C1433 C1428 1.399 . S
C1433 C1432 1.394 . S
C1433 C1434 1.516 . S
C1434 C1433 1.516 . S
C1434 C1435 1.502 . S
C1434 C1436 1.561 . S
C1434 C1437 1.526 . S
C1435 H1419 0.959 . S
C1435 H1420 0.959 . S
C1435 H1421 0.961 . S
C1435 C1434 1.502 . S
C1436 H1422 0.960 . S
C1436 H1423 0.961 . S
C1436 H1424 0.959 . S
C1436 C1434 1.561 . S
C1437 C1434 1.526 . S
C1437 C1438 1.396 . S
C1437 C1442 1.390 . S
C1438 C1432 1.465 . S
C1438 C1437 1.396 . S
C1438 C1439 1.399 . S
C1439 H1425 0.929 . S
C1439 C1438 1.399 . S
C1439 C1440 1.385 . S
C1440 H1426 0.931 . S
C1440 C1439 1.385 . S
C1440 C1441 1.389 . S
C1441 C1440 1.389 . S
C1441 C1442 1.387 . S
C1442 H1427 0.930 . S
C1442 C1437 1.390 . S
C1442 C1441 1.387 . S
H1443 C1455 0.930 . S
H1444 C1457 0.930 . S
H1445 C1458 0.930 . S
H1446 C1462 0.959 . S
H1447 C1462 0.959 . S
H1448 C1462 0.961 . S
H1449 C1463 0.960 . S
H1450 C1463 0.961 . S
H1451 C1463 0.959 . S
H1452 C1466 0.929 . S
H1453 C1467 0.931 . S
H1454 C1469 0.930 . S
C1455 H1443 0.930 . S
C1455 C1456 1.399 . S
C1455 C1460 1.399 . S
C1456 C1455 1.399 . S
C1456 C1457 1.376 . S
C1457 H1444 0.930 . S
C1457 C1456 1.376 . S
C1457 C1458 1.388 . S
C1458 H1445 0.930 . S
C1458 C1457 1.388 . S
C1458 C1459 1.390 . S
C1459 C1458 1.390 . S
C1459 C1460 1.394 . S
C1459 C1465 1.465 . S
C1460 C1455 1.399 . S
C1460 C1459 1.394 . S
C1460 C1461 1.516 . S
C1461 C1460 1.516 . S
C1461 C1462 1.502 . S
C1461 C1463 1.561 . S
C1461 C1464 1.526 . S
C1462 H1446 0.959 . S
C1462 H1447 0.959 . S
C1462 H1448 0.961 . S
C1462 C1461 1.502 . S
C1463 H1449 0.960 . S
C1463 H1450 0.961 . S
C1463 H1451 0.959 . S
C1463 C1461 1.561 . S
C1464 C1461 1.526 . S
C1464 C1465 1.396 . S
C1464 C1469 1.390 . S
C1465 C1459 1.465 . S
C1465 C1464 1.396 . S
C1465 C1466 1.399 . S
C1466 H1452 0.929 . S
C1466 C1465 1.399 . S
C1466 C1467 1.385 . S
C1467 H1453 0.931 . S
C1467 C1466 1.385 . S
C1467 C1468 1.389 . S
C1468 C1467 1.389 . S
C1468 C1469 1.387 . S
C1469 H1454 0.930 . S
C1469 C1464 1.390 . S
C1469 C1468 1.387 . S
H1470 C1482 0.930 . S
H1471 C1484 0.930 . S
H1472 C1485 0.930 . S
H1473 C1489 0.959 . S
H1474 C1489 0.959 . S
H1475 C1489 0.961 . S
H1476 C1490 0.960 . S
H1477 C1490 0.961 . S
H1478 C1490 0.959 . S
H1479 C1493 0.929 . S
H1480 C1494 0.931 . S
H1481 C1496 0.930 . S
C1482 H1470 0.930 . S
C1482 C1483 1.399 . S
C1482 C1487 1.399 . S
C1483 C1482 1.399 . S
C1483 C1484 1.376 . S
C1484 H1471 0.930 . S
C1484 C1483 1.376 . S
C1484 C1485 1.388 . S
C1485 H1472 0.930 . S
C1485 C1484 1.388 . S
C1485 C1486 1.390 . S
C1486 C1485 1.390 . S
C1486 C1487 1.394 . S
C1486 C1492 1.465 . S
C1487 C1482 1.399 . S
C1487 C1486 1.394 . S
C1487 C1488 1.516 . S
C1488 C1487 1.516 . S
C1488 C1489 1.502 . S
C1488 C1490 1.561 . S
C1488 C1491 1.526 . S
C1489 H1473 0.959 . S
C1489 H1474 0.959 . S
C1489 H1475 0.961 . S
C1489 C1488 1.502 . S
C1490 H1476 0.960 . S
C1490 H1477 0.961 . S
C1490 H1478 0.959 . S
C1490 C1488 1.561 . S
C1491 C1488 1.526 . S
C1491 C1492 1.396 . S
C1491 C1496 1.390 . S
C1492 C1486 1.465 . S
C1492 C1491 1.396 . S
C1492 C1493 1.399 . S
C1493 H1479 0.929 . S
C1493 C1492 1.399 . S
C1493 C1494 1.385 . S
C1494 H1480 0.931 . S
C1494 C1493 1.385 . S
C1494 C1495 1.389 . S
C1495 C1494 1.389 . S
C1495 C1496 1.387 . S
C1496 H1481 0.930 . S
C1496 C1491 1.390 . S
C1496 C1495 1.387 . S
H1497 C1509 0.930 . S
H1498 C1511 0.930 . S
H1499 C1512 0.930 . S
H1500 C1516 0.959 . S
H1501 C1516 0.959 . S
H1502 C1516 0.961 . S
H1503 C1517 0.960 . S
H1504 C1517 0.961 . S
H1505 C1517 0.959 . S
H1506 C1520 0.929 . S
H1507 C1521 0.931 . S
H1508 C1523 0.930 . S
C1509 H1497 0.930 . S
C1509 C1510 1.399 . S
C1509 C1514 1.399 . S
C1510 C1509 1.399 . S
C1510 C1511 1.376 . S
C1511 H1498 0.930 . S
C1511 C1510 1.376 . S
C1511 C1512 1.388 . S
C1512 H1499 0.930 . S
C1512 C1511 1.388 . S
C1512 C1513 1.390 . S
C1513 C1512 1.390 . S
C1513 C1514 1.394 . S
C1513 C1519 1.465 . S
C1514 C1509 1.399 . S
C1514 C1513 1.394 . S
C1514 C1515 1.516 . S
C1515 C1514 1.516 . S
C1515 C1516 1.502 . S
C1515 C1517 1.561 . S
C1515 C1518 1.526 . S
C1516 H1500 0.959 . S
C1516 H1501 0.959 . S
C1516 H1502 0.961 . S
C1516 C1515 1.502 . S
C1517 H1503 0.960 . S
C1517 H1504 0.961 . S
C1517 H1505 0.959 . S
C1517 C1515 1.561 . S
C1518 C1515 1.526 . S
C1518 C1519 1.396 . S
C1518 C1523 1.390 . S
C1519 C1513 1.465 . S
C1519 C1518 1.396 . S
C1519 C1520 1.399 . S
C1520 H1506 0.929 . S
C1520 C1519 1.399 . S
C1520 C1521 1.385 . S
C1521 H1507 0.931 . S
C1521 C1520 1.385 . S
C1521 C1522 1.389 . S
C1522 C1521 1.389 . S
C1522 C1523 1.387 . S
C1523 H1508 0.930 . S
C1523 C1518 1.390 . S
C1523 C1522 1.387 . S
H1524 C1536 0.930 . S
H1525 C1538 0.930 . S
H1526 C1539 0.930 . S
H1527 C1543 0.959 . S
H1528 C1543 0.959 . S
H1529 C1543 0.961 . S
H1530 C1544 0.960 . S
H1531 C1544 0.961 . S
H1532 C1544 0.959 . S
H1533 C1547 0.929 . S
H1534 C1548 0.931 . S
H1535 C1550 0.930 . S
C1536 H1524 0.930 . S
C1536 C1537 1.399 . S
C1536 C1541 1.399 . S
C1537 C1536 1.399 . S
C1537 C1538 1.376 . S
C1538 H1525 0.930 . S
C1538 C1537 1.376 . S
C1538 C1539 1.388 . S
C1539 H1526 0.930 . S
C1539 C1538 1.388 . S
C1539 C1540 1.390 . S
C1540 C1539 1.390 . S
C1540 C1541 1.394 . S
C1540 C1546 1.465 . S
C1541 C1536 1.399 . S
C1541 C1540 1.394 . S
C1541 C1542 1.516 . S
C1542 C1541 1.516 . S
C1542 C1543 1.502 . S
C1542 C1544 1.561 . S
C1542 C1545 1.526 . S
C1543 H1527 0.959 . S
C1543 H1528 0.959 . S
C1543 H1529 0.961 . S
C1543 C1542 1.502 . S
C1544 H1530 0.960 . S
C1544 H1531 0.961 . S
C1544 H1532 0.959 . S
C1544 C1542 1.561 . S
C1545 C1542 1.526 . S
C1545 C1546 1.396 . S
C1545 C1550 1.390 . S
C1546 C1540 1.465 . S
C1546 C1545 1.396 . S
C1546 C1547 1.399 . S
C1547 H1533 0.929 . S
C1547 C1546 1.399 . S
C1547 C1548 1.385 . S
C1548 H1534 0.931 . S
C1548 C1547 1.385 . S
C1548 C1549 1.389 . S
C1549 C1548 1.389 . S
C1549 C1550 1.387 . S
C1550 H1535 0.930 . S
C1550 C1545 1.390 . S
C1550 C1549 1.387 . S
H1551 C1563 0.930 . S
H1552 C1565 0.930 . S
H1553 C1566 0.930 . S
H1554 C1570 0.959 . S
H1555 C1570 0.959 . S
H1556 C1570 0.961 . S
H1557 C1571 0.960 . S
H1558 C1571 0.961 . S
H1559 C1571 0.959 . S
H1560 C1574 0.929 . S
H1561 C1575 0.931 . S
H1562 C1577 0.930 . S
C1563 H1551 0.930 . S
C1563 C1564 1.399 . S
C1563 C1568 1.399 . S
C1564 C1563 1.399 . S
C1564 C1565 1.376 . S
C1565 H1552 0.930 . S
C1565 C1564 1.376 . S
C1565 C1566 1.388 . S
C1566 H1553 0.930 . S
C1566 C1565 1.388 . S
C1566 C1567 1.390 . S
C1567 C1566 1.390 . S
C1567 C1568 1.394 . S
C1567 C1573 1.465 . S
C1568 C1563 1.399 . S
C1568 C1567 1.394 . S
C1568 C1569 1.516 . S
C1569 C1568 1.516 . S
C1569 C1570 1.502 . S
C1569 C1571 1.561 . S
C1569 C1572 1.526 . S
C1570 H1554 0.959 . S
C1570 H1555 0.959 . S
C1570 H1556 0.961 . S
C1570 C1569 1.502 . S
C1571 H1557 0.960 . S
C1571 H1558 0.961 . S
C1571 H1559 0.959 . S
C1571 C1569 1.561 . S
C1572 C1569 1.526 . S
C1572 C1573 1.396 . S
C1572 C1577 1.390 . S
C1573 C1567 1.465 . S
C1573 C1572 1.396 . S
C1573 C1574 1.399 . S
C1574 H1560 0.929 . S
C1574 C1573 1.399 . S
C1574 C1575 1.385 . S
C1575 H1561 0.931 . S
C1575 C1574 1.385 . S
C1575 C1576 1.389 . S
C1576 C1575 1.389 . S
C1576 C1577 1.387 . S
C1577 H1562 0.930 . S
C1577 C1572 1.390 . S
C1577 C1576 1.387 . S
H1578 C1590 0.930 . S
H1579 C1592 0.930 . S
H1580 C1593 0.930 . S
H1581 C1597 0.959 . S
H1582 C1597 0.959 . S
H1583 C1597 0.961 . S
H1584 C1598 0.960 . S
H1585 C1598 0.961 . S
H1586 C1598 0.959 . S
H1587 C1601 0.929 . S
H1588 C1602 0.931 . S
H1589 C1604 0.930 . S
C1590 H1578 0.930 . S
C1590 C1591 1.399 . S
C1590 C1595 1.399 . S
C1591 C1590 1.399 . S
C1591 C1592 1.376 . S
C1592 H1579 0.930 . S
C1592 C1591 1.376 . S
C1592 C1593 1.388 . S
C1593 H1580 0.930 . S
C1593 C1592 1.388 . S
C1593 C1594 1.390 . S
C1594 C1593 1.390 . S
C1594 C1595 1.394 . S
C1594 C1600 1.465 . S
C1595 C1590 1.399 . S
C1595 C1594 1.394 . S
C1595 C1596 1.516 . S
C1596 C1595 1.516 . S
C1596 C1597 1.502 . S
C1596 C1598 1.561 . S
C1596 C1599 1.526 . S
C1597 H1581 0.959 . S
C1597 H1582 0.959 . S
C1597 H1583 0.961 . S
C1597 C1596 1.502 . S
C1598 H1584 0.960 . S
C1598 H1585 0.961 . S
C1598 H1586 0.959 . S
C1598 C1596 1.561 . S
C1599 C1596 1.526 . S
C1599 C1600 1.396 . S
C1599 C1604 1.390 . S
C1600 C1594 1.465 . S
C1600 C1599 1.396 . S
C1600 C1601 1.399 . S
C1601 H1587 0.929 . S
C1601 C1600 1.399 . S
C1601 C1602 1.385 . S
C1602 H1588 0.931 . S
C1602 C1601 1.385 . S
C1602 C1603 1.389 . S
C1603 C1602 1.389 . S
C1603 C1604 1.387 . S
C1604 H1589 0.930 . S
C1604 C1599 1.390 . S
C1604 C1603 1.387 . S
H1605 C1617 0.930 . S
H1606 C1619 0.930 . S
H1607 C1620 0.930 . S
H1608 C1624 0.959 . S
H1609 C1624 0.959 . S
H1610 C1624 0.961 . S
H1611 C1625 0.960 . S
H1612 C1625 0.961 . S
H1613 C1625 0.959 . S
H1614 C1628 0.929 . S
H1615 C1629 0.931 . S
H1616 C1631 0.930 . S
C1617 H1605 0.930 . S
C1617 C1618 1.399 . S
C1617 C1622 1.399 . S
C1618 C1617 1.399 . S
C1618 C1619 1.376 . S
C1619 H1606 0.930 . S
C1619 C1618 1.376 . S
C1619 C1620 1.388 . S
C1620 H1607 0.930 . S
C1620 C1619 1.388 . S
C1620 C1621 1.390 . S
C1621 C1620 1.390 . S
C1621 C1622 1.394 . S
C1621 C1627 1.465 . S
C1622 C1617 1.399 . S
C1622 C1621 1.394 . S
C1622 C1623 1.516 . S
C1623 C1622 1.516 . S
C1623 C1624 1.502 . S
C1623 C1625 1.561 . S
C1623 C1626 1.526 . S
C1624 H1608 0.959 . S
C1624 H1609 0.959 . S
C1624 H1610 0.961 . S
C1624 C1623 1.502 . S
C1625 H1611 0.960 . S
C1625 H1612 0.961 . S
C1625 H1613 0.959 . S
C1625 C1623 1.561 . S
C1626 C1623 1.526 . S
C1626 C1627 1.396 . S
C1626 C1631 1.390 . S
C1627 C1621 1.465 . S
C1627 C1626 1.396 . S
C1627 C1628 1.399 . S
C1628 H1614 0.929 . S
C1628 C1627 1.399 . S
C1628 C1629 1.385 . S
C1629 H1615 0.931 . S
C1629 C1628 1.385 . S
C1629 C1630 1.389 . S
C1630 C1629 1.389 . S
C1630 C1631 1.387 . S
C1631 H1616 0.930 . S
C1631 C1626 1.390 . S
C1631 C1630 1.387 . S
C349 C321 1.853 . S
C361 C13 1.845 . S
C376 C27 1.832 . S
C388 C237 1.858 . S
C403 C334 1.843 . S
C415 C40 1.809 . S
C430 C295 1.824 . S
C442 C43 1.859 . S
C457 C252 1.818 . S
C469 C57 1.819 . S
C484 C267 1.859 . S
C496 C71 1.829 . S
C511 C281 1.854 . S
C523 C85 1.815 . S
C538 C110 1.824 . S
C550 C239 1.859 . S
C565 C182 1.814 . S
C577 C125 1.855 . S
C592 C197 1.842 . S
C604 C138 1.854 . S
C619 C140 1.814 . S
C631 C211 1.855 . S
C646 C167 1.848 . S
C658 C181 1.810 . S
C673 C98 1.856 . S
C685 C209 1.818 . S
C700 C223 1.851 . S
C712 C69 1.847 . S
C727 C83 1.810 . S
C739 C169 1.848 . S
C754 C194 1.855 . S
C766 C97 1.816 . S
C781 C152 1.821 . S
C793 C15 1.816 . S
C808 C28 1.841 . S
C820 C155 1.855 . S
C835 C55 1.851 . S
C847 C113 1.812 . S
C862 C1 1.851 . S
C874 C126 1.846 . S
C889 C293 1.808 . S
C901 C307 1.842 . S
C916 C309 1.813 . S
C928 C251 1.827 . S
C943 C264 1.809 . S
C955 C225 1.848 . S
C970 C322 1.850 . S
C982 C279 1.848 . S
C997 C12 1.098 . S
C1009 C112 1.163 . S
C1024 C127 1.084 . S
C1036 C26 1.079 . S
C1051 C41 1.152 . S
C1063 C153 1.060 . S
C1078 C42 1.091 . S
C1090 C154 1.165 . S
C1105 C56 1.053 . S
C1117 C168 1.142 . S
C1132 C70 1.132 . S
C1144 C195 1.148 . S
C1159 C208 1.163 . S
C1171 C84 1.071 . S
C1186 C222 1.109 . S
C1198 C111 1.161 . S
C1213 C124 1.088 . S
C1225 C224 1.075 . S
C1240 C139 1.130 . S
C1252 C323 1.056 . S
C1267 C306 1.165 . S
C1279 C141 1.096 . S
C1294 C308 1.099 . S
C1306 C166 1.067 . S
C1321 C250 1.116 . S
C1333 C180 1.058 . S
C1348 C265 1.166 . S
C1360 C183 1.094 . S
C1375 C196 1.071 . S
C1387 C278 1.092 . S
C1402 C210 1.166 . S
C1414 C292 1.086 . S
C1429 C0 1.132 . S
C1441 C236 1.054 . S
C1456 C238 1.138 . S
C1468 C68 1.142 . S
C1483 C253 1.073 . S
C1495 C82 1.092 . S
C1510 C266 1.099 . S
C1522 C96 1.067 . S
C1537 C280 1.067 . S
C1549 C99 1.097 . S
C1564 C294 1.139 . S
C1576 C29 1.056 . S
C1591 C54 1.064 . S
C1603 C320 1.159 . S
C1618 C335 1.121 . S
C1630 C14 1.056 . S
