# Generated by pormake.
# Topology umq, (4)-cn, num edge types: 1
# Building blocks:
#     Node 0, Type 0, BuildingBlock: QUQFOY_clean_sbu_3, # of connection points: 4
#     Node 1, Type 0, BuildingBlock: QUQFOY_clean_sbu_3, # of connection points: 4
#     Node 2, Type 0, BuildingBlock: QUQFOY_clean_sbu_3, # of connection points: 4
#     Node 3, Type 0, BuildingBlock: QUQFOY_clean_sbu_3, # of connection points: 4
#     Node 4, Type 0, BuildingBlock: QUQFOY_clean_sbu_3, # of connection points: 4
#     Node 5, Type 0, BuildingBlock: QUQFOY_clean_sbu_3, # of connection points: 4
#     Node 6, Type 0, BuildingBlock: QUQFOY_clean_sbu_3, # of connection points: 4
#     Node 7, Type 0, BuildingBlock: QUQFOY_clean_sbu_3, # of connection points: 4
#     Node 8, Type 0, BuildingBlock: QUQFOY_clean_sbu_3, # of connection points: 4
#     Node 9, Type 0, BuildingBlock: QUQFOY_clean_sbu_3, # of connection points: 4
#     Node 10, Type 0, BuildingBlock: QUQFOY_clean_sbu_3, # of connection points: 4
#     Node 11, Type 0, BuildingBlock: QUQFOY_clean_sbu_3, # of connection points: 4
#     Node 12, Type 0, BuildingBlock: QUQFOY_clean_sbu_3, # of connection points: 4
#     Node 13, Type 0, BuildingBlock: QUQFOY_clean_sbu_3, # of connection points: 4
#     Node 14, Type 0, BuildingBlock: QUQFOY_clean_sbu_3, # of connection points: 4
#     Node 15, Type 0, BuildingBlock: QUQFOY_clean_sbu_3, # of connection points: 4
#     Node 16, Type 0, BuildingBlock: QUQFOY_clean_sbu_3, # of connection points: 4
#     Node 17, Type 0, BuildingBlock: QUQFOY_clean_sbu_3, # of connection points: 4
#     Node 18, Type 0, BuildingBlock: QUQFOY_clean_sbu_3, # of connection points: 4
#     Node 19, Type 0, BuildingBlock: QUQFOY_clean_sbu_3, # of connection points: 4
#     Node 20, Type 0, BuildingBlock: QUQFOY_clean_sbu_3, # of connection points: 4
#     Node 21, Type 0, BuildingBlock: QUQFOY_clean_sbu_3, # of connection points: 4
#     Node 22, Type 0, BuildingBlock: QUQFOY_clean_sbu_3, # of connection points: 4
#     Node 23, Type 0, BuildingBlock: QUQFOY_clean_sbu_3, # of connection points: 4
#     Node 24, Type 0, BuildingBlock: QUQFOY_clean_sbu_3, # of connection points: 4
#     Node 25, Type 0, BuildingBlock: QUQFOY_clean_sbu_3, # of connection points: 4
#     Node 26, Type 0, BuildingBlock: QUQFOY_clean_sbu_3, # of connection points: 4
#     Node 27, Type 0, BuildingBlock: QUQFOY_clean_sbu_3, # of connection points: 4
#     Node 28, Type 0, BuildingBlock: QUQFOY_clean_sbu_3, # of connection points: 4
#     Node 29, Type 0, BuildingBlock: QUQFOY_clean_sbu_3, # of connection points: 4
#     Node 30, Type 0, BuildingBlock: QUQFOY_clean_sbu_3, # of connection points: 4
#     Node 31, Type 0, BuildingBlock: QUQFOY_clean_sbu_3, # of connection points: 4
#     Edge 32, Type (0, 0), BuildingBlock: UVAHIK_clean_linker_0, # of connection points: 2
#     Edge 33, Type (0, 0), BuildingBlock: UVAHIK_clean_linker_0, # of connection points: 2
#     Edge 34, Type (0, 0), BuildingBlock: UVAHIK_clean_linker_0, # of connection points: 2
#     Edge 35, Type (0, 0), BuildingBlock: UVAHIK_clean_linker_0, # of connection points: 2
#     Edge 36, Type (0, 0), BuildingBlock: UVAHIK_clean_linker_0, # of connection points: 2
#     Edge 37, Type (0, 0), BuildingBlock: UVAHIK_clean_linker_0, # of connection points: 2
#     Edge 38, Type (0, 0), BuildingBlock: UVAHIK_clean_linker_0, # of connection points: 2
#     Edge 39, Type (0, 0), BuildingBlock: UVAHIK_clean_linker_0, # of connection points: 2
#     Edge 40, Type (0, 0), BuildingBlock: UVAHIK_clean_linker_0, # of connection points: 2
#     Edge 41, Type (0, 0), BuildingBlock: UVAHIK_clean_linker_0, # of connection points: 2
#     Edge 42, Type (0, 0), BuildingBlock: UVAHIK_clean_linker_0, # of connection points: 2
#     Edge 43, Type (0, 0), BuildingBlock: UVAHIK_clean_linker_0, # of connection points: 2
#     Edge 44, Type (0, 0), BuildingBlock: UVAHIK_clean_linker_0, # of connection points: 2
#     Edge 45, Type (0, 0), BuildingBlock: UVAHIK_clean_linker_0, # of connection points: 2
#     Edge 46, Type (0, 0), BuildingBlock: UVAHIK_clean_linker_0, # of connection points: 2
#     Edge 47, Type (0, 0), BuildingBlock: UVAHIK_clean_linker_0, # of connection points: 2
#     Edge 48, Type (0, 0), BuildingBlock: UVAHIK_clean_linker_0, # of connection points: 2
#     Edge 49, Type (0, 0), BuildingBlock: UVAHIK_clean_linker_0, # of connection points: 2
#     Edge 50, Type (0, 0), BuildingBlock: UVAHIK_clean_linker_0, # of connection points: 2
#     Edge 51, Type (0, 0), BuildingBlock: UVAHIK_clean_linker_0, # of connection points: 2
#     Edge 52, Type (0, 0), BuildingBlock: UVAHIK_clean_linker_0, # of connection points: 2
#     Edge 53, Type (0, 0), BuildingBlock: UVAHIK_clean_linker_0, # of connection points: 2
#     Edge 54, Type (0, 0), BuildingBlock: UVAHIK_clean_linker_0, # of connection points: 2
#     Edge 55, Type (0, 0), BuildingBlock: UVAHIK_clean_linker_0, # of connection points: 2
#     Edge 56, Type (0, 0), BuildingBlock: UVAHIK_clean_linker_0, # of connection points: 2
#     Edge 57, Type (0, 0), BuildingBlock: UVAHIK_clean_linker_0, # of connection points: 2
#     Edge 58, Type (0, 0), BuildingBlock: UVAHIK_clean_linker_0, # of connection points: 2
#     Edge 59, Type (0, 0), BuildingBlock: UVAHIK_clean_linker_0, # of connection points: 2
#     Edge 60, Type (0, 0), BuildingBlock: UVAHIK_clean_linker_0, # of connection points: 2
#     Edge 61, Type (0, 0), BuildingBlock: UVAHIK_clean_linker_0, # of connection points: 2
#     Edge 62, Type (0, 0), BuildingBlock: UVAHIK_clean_linker_0, # of connection points: 2
#     Edge 63, Type (0, 0), BuildingBlock: UVAHIK_clean_linker_0, # of connection points: 2
#     Edge 64, Type (0, 0), BuildingBlock: UVAHIK_clean_linker_0, # of connection points: 2
#     Edge 65, Type (0, 0), BuildingBlock: UVAHIK_clean_linker_0, # of connection points: 2
#     Edge 66, Type (0, 0), BuildingBlock: UVAHIK_clean_linker_0, # of connection points: 2
#     Edge 67, Type (0, 0), BuildingBlock: UVAHIK_clean_linker_0, # of connection points: 2
#     Edge 68, Type (0, 0), BuildingBlock: UVAHIK_clean_linker_0, # of connection points: 2
#     Edge 69, Type (0, 0), BuildingBlock: UVAHIK_clean_linker_0, # of connection points: 2
#     Edge 70, Type (0, 0), BuildingBlock: UVAHIK_clean_linker_0, # of connection points: 2
#     Edge 71, Type (0, 0), BuildingBlock: UVAHIK_clean_linker_0, # of connection points: 2
#     Edge 72, Type (0, 0), BuildingBlock: UVAHIK_clean_linker_0, # of connection points: 2
#     Edge 73, Type (0, 0), BuildingBlock: UVAHIK_clean_linker_0, # of connection points: 2
#     Edge 74, Type (0, 0), BuildingBlock: UVAHIK_clean_linker_0, # of connection points: 2
#     Edge 75, Type (0, 0), BuildingBlock: UVAHIK_clean_linker_0, # of connection points: 2
#     Edge 76, Type (0, 0), BuildingBlock: UVAHIK_clean_linker_0, # of connection points: 2
#     Edge 77, Type (0, 0), BuildingBlock: UVAHIK_clean_linker_0, # of connection points: 2
#     Edge 78, Type (0, 0), BuildingBlock: UVAHIK_clean_linker_0, # of connection points: 2
#     Edge 79, Type (0, 0), BuildingBlock: UVAHIK_clean_linker_0, # of connection points: 2
#     Edge 80, Type (0, 0), BuildingBlock: UVAHIK_clean_linker_0, # of connection points: 2
#     Edge 81, Type (0, 0), BuildingBlock: UVAHIK_clean_linker_0, # of connection points: 2
#     Edge 82, Type (0, 0), BuildingBlock: UVAHIK_clean_linker_0, # of connection points: 2
#     Edge 83, Type (0, 0), BuildingBlock: UVAHIK_clean_linker_0, # of connection points: 2
#     Edge 84, Type (0, 0), BuildingBlock: UVAHIK_clean_linker_0, # of connection points: 2
#     Edge 85, Type (0, 0), BuildingBlock: UVAHIK_clean_linker_0, # of connection points: 2
#     Edge 86, Type (0, 0), BuildingBlock: UVAHIK_clean_linker_0, # of connection points: 2
#     Edge 87, Type (0, 0), BuildingBlock: UVAHIK_clean_linker_0, # of connection points: 2
#     Edge 88, Type (0, 0), BuildingBlock: UVAHIK_clean_linker_0, # of connection points: 2
#     Edge 89, Type (0, 0), BuildingBlock: UVAHIK_clean_linker_0, # of connection points: 2
#     Edge 90, Type (0, 0), BuildingBlock: UVAHIK_clean_linker_0, # of connection points: 2
#     Edge 91, Type (0, 0), BuildingBlock: UVAHIK_clean_linker_0, # of connection points: 2
#     Edge 92, Type (0, 0), BuildingBlock: UVAHIK_clean_linker_0, # of connection points: 2
#     Edge 93, Type (0, 0), BuildingBlock: UVAHIK_clean_linker_0, # of connection points: 2
#     Edge 94, Type (0, 0), BuildingBlock: UVAHIK_clean_linker_0, # of connection points: 2
#     Edge 95, Type (0, 0), BuildingBlock: UVAHIK_clean_linker_0, # of connection points: 2
# Relax obj value: 0.065
# Max RMSD: 0.052
# Mean RMSD: 0.052
data_MOF--net-umq--node1-QUQFOY_clean_sbu_3--edge1-UVAHIK_clean_linker_0
_symmetry_space_group_name_H-M    P1
_symmetry_Int_Tables_number       1
_symmetry_cell_setting            triclinic
loop_
_symmetry_equiv_pos_as_xyz
'x, y, z'
_cell_length_a     87.57706
_cell_length_b     87.517313
_cell_length_c     59.505383
_cell_angle_alpha  90.039175
_cell_angle_beta   90.027805
_cell_angle_gamma 89.977276
loop_
_atom_site_label
_atom_site_type_symbol
_atom_site_fract_x
_atom_site_fract_y
_atom_site_fract_z
_atom_type_partial_charge
C0 C 0.21923 0.09286 0.10556 0.0
O1 O 0.21063 0.10431 0.10917 0.0
Cd2 Cd 0.20654 0.11693 0.14416 0.0
O3 O 0.22659 0.08652 0.12154 0.0
Cd4 Cd 0.22905 0.08914 0.16314 0.0
C5 C 0.24416 0.12479 0.15813 0.0
O6 O 0.20267 0.09581 0.16813 0.0
O7 O 0.21575 0.09643 0.19858 0.0
O8 O 0.2294 0.06146 0.16324 0.0
C9 C 0.20296 0.09831 0.18901 0.0
O10 O 0.23083 0.12934 0.15271 0.0
C11 C 0.2405 0.06014 0.17684 0.0
O12 O 0.24685 0.11069 0.16178 0.0
O13 O 0.2466 0.07244 0.1838 0.0
C14 C 0.89656 0.21844 0.10273 0.0
O15 O 0.88525 0.2096 0.10567 0.0
Cd16 Cd 0.87116 0.2071 0.13967 0.0
O17 O 0.90174 0.22652 0.11885 0.0
Cd18 Cd 0.89633 0.22967 0.15976 0.0
C19 C 0.86149 0.2447 0.14924 0.0
O20 O 0.89026 0.2031 0.16751 0.0
O21 O 0.88503 0.21872 0.19426 0.0
O22 O 0.92378 0.23025 0.16542 0.0
C23 C 0.88552 0.20502 0.18737 0.0
O24 O 0.85725 0.23113 0.14466 0.0
C25 C 0.92383 0.24212 0.17768 0.0
O26 O 0.87537 0.24757 0.15406 0.0
O27 O 0.91101 0.24843 0.18137 0.0
C28 C 0.76593 0.89297 0.10106 0.0
O29 O 0.77514 0.88185 0.10322 0.0
Cd30 Cd 0.77975 0.86796 0.13709 0.0
O31 O 0.7587 0.89832 0.11793 0.0
Cd32 Cd 0.75761 0.89449 0.15938 0.0
C33 C 0.74239 0.85919 0.15157 0.0
O34 O 0.78416 0.88782 0.16325 0.0
O35 O 0.77113 0.88549 0.1936 0.0
O36 O 0.75774 0.92209 0.16172 0.0
C37 C 0.78393 0.8843 0.18383 0.0
O38 O 0.75561 0.85495 0.14514 0.0
C39 C 0.74675 0.92314 0.17555 0.0
O40 O 0.73978 0.87307 0.15683 0.0
O41 O 0.74047 0.91072 0.18165 0.0
C42 C 0.08917 0.76882 0.10381 0.0
O43 O 0.10052 0.77745 0.10773 0.0
Cd44 Cd 0.11433 0.77872 0.14216 0.0
O45 O 0.08375 0.76022 0.11915 0.0
Cd46 Cd 0.08865 0.75544 0.15986 0.0
C47 C 0.12357 0.74068 0.14879 0.0
O48 O 0.09507 0.78153 0.17 0.0
O49 O 0.09987 0.7648 0.19539 0.0
O50 O 0.06115 0.75502 0.16525 0.0
C51 C 0.09975 0.77874 0.18968 0.0
O52 O 0.12793 0.75437 0.14542 0.0
C53 C 0.06092 0.7427 0.17649 0.0
O54 O 0.10964 0.73771 0.15309 0.0
O55 O 0.07365 0.73606 0.17963 0.0
C56 C 0.21891 0.8953 0.37653 0.0
O57 O 0.21011 0.88388 0.37428 0.0
Cd58 Cd 0.20808 0.8687 0.3412 0.0
O59 O 0.22696 0.90004 0.36011 0.0
Cd60 Cd 0.22998 0.89384 0.31949 0.0
C61 C 0.24604 0.85989 0.33208 0.0
O62 O 0.20369 0.8866 0.3119 0.0
O63 O 0.21972 0.88088 0.28589 0.0
O64 O 0.22827 0.921 0.31278 0.0
C65 C 0.20596 0.88118 0.29248 0.0
O66 O 0.23257 0.85557 0.33705 0.0
C67 C 0.24001 0.92194 0.30037 0.0
O68 O 0.24866 0.87365 0.32626 0.0
O69 O 0.2475 0.90969 0.29713 0.0
C70 C 0.0896 0.21837 0.37339 0.0
O71 O 0.10105 0.20965 0.3705 0.0
Cd72 Cd 0.11447 0.20485 0.33635 0.0
O73 O 0.08367 0.22563 0.35697 0.0
Cd74 Cd 0.0876 0.22756 0.3155 0.0
C75 C 0.12351 0.24198 0.32182 0.0
O76 O 0.09389 0.20101 0.31128 0.0
O77 O 0.09575 0.21385 0.28076 0.0
O78 O 0.05999 0.22898 0.31176 0.0
C79 C 0.09708 0.20108 0.2906 0.0
O80 O 0.12783 0.22865 0.32767 0.0
C81 C 0.06001 0.24058 0.29894 0.0
O82 O 0.10952 0.24477 0.31766 0.0
O83 O 0.07292 0.24629 0.2941 0.0
C84 C 0.76548 0.09079 0.3748 0.0
O85 O 0.77489 0.1017 0.3724 0.0
Cd86 Cd 0.77823 0.11568 0.33838 0.0
O87 O 0.75778 0.08581 0.35816 0.0
Cd88 Cd 0.75642 0.09028 0.31688 0.0
C89 C 0.74071 0.12489 0.32601 0.0
O90 O 0.78307 0.09677 0.31062 0.0
O91 O 0.76798 0.10176 0.28309 0.0
O92 O 0.75762 0.06284 0.31251 0.0
C93 C 0.78151 0.10151 0.29067 0.0
O94 O 0.7541 0.12911 0.33172 0.0
C95 C 0.74627 0.06173 0.29934 0.0
O96 O 0.73801 0.11103 0.32083 0.0
O97 O 0.73924 0.07401 0.29459 0.0
C98 C 0.89674 0.76742 0.37359 0.0
O99 O 0.88523 0.776 0.37041 0.0
Cd100 Cd 0.8714 0.77961 0.33623 0.0
O101 O 0.90251 0.75968 0.35751 0.0
Cd102 Cd 0.89811 0.7565 0.31634 0.0
C103 C 0.86235 0.74206 0.32436 0.0
O104 O 0.89154 0.78293 0.3102 0.0
O105 O 0.88975 0.76883 0.28081 0.0
O106 O 0.92571 0.75515 0.31215 0.0
C107 C 0.88834 0.78196 0.28956 0.0
O108 O 0.85803 0.75552 0.3295 0.0
C109 C 0.92564 0.7433 0.29981 0.0
O110 O 0.87631 0.73922 0.31999 0.0
O111 O 0.91272 0.73737 0.29556 0.0
C112 C 0.76079 0.89043 0.87122 0.0
O113 O 0.76904 0.87865 0.86842 0.0
Cd114 Cd 0.77618 0.86765 0.83329 0.0
O115 O 0.75522 0.89761 0.85448 0.0
Cd116 Cd 0.75521 0.89431 0.81291 0.0
C117 C 0.7399 0.85869 0.81661 0.0
O118 O 0.7822 0.88841 0.80899 0.0
O119 O 0.7687 0.88491 0.77928 0.0
O120 O 0.75496 0.92201 0.80953 0.0
C121 C 0.78178 0.88484 0.7884 0.0
O122 O 0.75321 0.85412 0.82198 0.0
C123 C 0.74387 0.92255 0.79579 0.0
O124 O 0.73716 0.87286 0.81375 0.0
O125 O 0.73781 0.9099 0.79032 0.0
C126 C 0.08883 0.76967 0.87235 0.0
O127 O 0.10017 0.77831 0.86841 0.0
Cd128 Cd 0.11308 0.78073 0.8334 0.0
O129 O 0.083 0.76151 0.85679 0.0
Cd130 Cd 0.0871 0.75769 0.81566 0.0
C131 C 0.12247 0.74307 0.82357 0.0
O132 O 0.09289 0.78412 0.80718 0.0
O133 O 0.09717 0.76849 0.78013 0.0
O134 O 0.0595 0.75673 0.8113 0.0
C135 C 0.09704 0.78219 0.78705 0.0
O136 O 0.12683 0.7567 0.82749 0.0
C137 C 0.05937 0.74454 0.79971 0.0
O138 O 0.10844 0.74008 0.82012 0.0
O139 O 0.07219 0.73829 0.79582 0.0
C140 C 0.21959 0.09446 0.87489 0.0
O141 O 0.21103 0.10598 0.8716 0.0
Cd142 Cd 0.20735 0.11928 0.83707 0.0
O143 O 0.22705 0.08839 0.85879 0.0
Cd144 Cd 0.22979 0.09169 0.81736 0.0
C145 C 0.24514 0.12713 0.8242 0.0
O146 O 0.20351 0.09876 0.81193 0.0
O147 O 0.21706 0.09979 0.78195 0.0
O148 O 0.22946 0.06404 0.81606 0.0
C149 C 0.20415 0.10162 0.79116 0.0
O150 O 0.2318 0.13166 0.82959 0.0
C151 C 0.24068 0.06266 0.80271 0.0
O152 O 0.24776 0.1131 0.81992 0.0
O153 O 0.24723 0.07491 0.7965 0.0
C154 C 0.89652 0.21853 0.87332 0.0
O155 O 0.885 0.20992 0.87041 0.0
Cd156 Cd 0.87116 0.2061 0.83637 0.0
O157 O 0.90222 0.22609 0.85703 0.0
Cd158 Cd 0.89766 0.22875 0.81576 0.0
C159 C 0.8621 0.24356 0.82393 0.0
O160 O 0.8913 0.20222 0.81046 0.0
O161 O 0.88873 0.21589 0.78081 0.0
O162 O 0.92525 0.22978 0.81152 0.0
C163 C 0.88781 0.20283 0.78989 0.0
O164 O 0.85777 0.23017 0.82936 0.0
C165 C 0.92531 0.24142 0.79879 0.0
O166 O 0.87604 0.24628 0.81931 0.0
O167 O 0.91245 0.24739 0.79428 0.0
C168 C 0.76084 0.09581 0.60486 0.0
O169 O 0.7687 0.10788 0.60759 0.0
Cd170 Cd 0.77676 0.11902 0.64239 0.0
O171 O 0.75586 0.08824 0.62163 0.0
Cd172 Cd 0.75619 0.09081 0.66323 0.0
C173 C 0.74084 0.12682 0.66202 0.0
O174 O 0.78287 0.09771 0.66534 0.0
O175 O 0.77113 0.09766 0.69702 0.0
O176 O 0.75563 0.06303 0.66544 0.0
C177 C 0.78346 0.0998 0.68635 0.0
O178 O 0.75383 0.13172 0.65567 0.0
C179 C 0.74459 0.06241 0.67926 0.0
O180 O 0.73844 0.11257 0.66466 0.0
O181 O 0.73873 0.07505 0.68526 0.0
C182 C 0.8965 0.76786 0.60352 0.0
O183 O 0.88525 0.77677 0.60667 0.0
Cd184 Cd 0.87147 0.77946 0.64091 0.0
O185 O 0.90173 0.75971 0.61954 0.0
Cd186 Cd 0.89648 0.75652 0.66052 0.0
C187 C 0.86135 0.742 0.65041 0.0
O188 O 0.89092 0.78322 0.66828 0.0
O189 O 0.88557 0.76768 0.69508 0.0
O190 O 0.92395 0.75531 0.66588 0.0
C191 C 0.88635 0.78137 0.68824 0.0
O192 O 0.8572 0.75564 0.64603 0.0
C193 C 0.92376 0.74346 0.67818 0.0
O194 O 0.87523 0.73897 0.65493 0.0
O195 O 0.91081 0.73747 0.68197 0.0
C196 C 0.21931 0.8957 0.60371 0.0
O197 O 0.21053 0.88427 0.60611 0.0
Cd198 Cd 0.20763 0.86985 0.63967 0.0
O199 O 0.22707 0.90083 0.62021 0.0
Cd200 Cd 0.2295 0.89542 0.66123 0.0
C201 C 0.2453 0.86089 0.65103 0.0
O202 O 0.20296 0.88883 0.66733 0.0
O203 O 0.21782 0.88374 0.69503 0.0
O204 O 0.22835 0.92283 0.66627 0.0
C205 C 0.20435 0.88402 0.68724 0.0
O206 O 0.23188 0.85663 0.64563 0.0
C207 C 0.23973 0.9238 0.6794 0.0
O208 O 0.24799 0.87474 0.65632 0.0
O209 O 0.24676 0.91146 0.68383 0.0
C210 C 0.09079 0.2201 0.60301 0.0
O211 O 0.10226 0.21141 0.60581 0.0
Cd212 Cd 0.11634 0.20747 0.63959 0.0
O213 O 0.08518 0.22772 0.61934 0.0
Cd214 Cd 0.08976 0.23041 0.66062 0.0
C215 C 0.12536 0.24504 0.65197 0.0
O216 O 0.09629 0.20397 0.66562 0.0
O217 O 0.09863 0.21744 0.69553 0.0
O218 O 0.06218 0.23133 0.66468 0.0
C219 C 0.0998 0.20448 0.68618 0.0
O220 O 0.12959 0.23163 0.64637 0.0
C221 C 0.06201 0.24289 0.67758 0.0
O222 O 0.11147 0.24783 0.6569 0.0
O223 O 0.07483 0.2489 0.68227 0.0
C224 C 0.71913 0.59243 0.60241 0.0
O225 O 0.71044 0.60392 0.60511 0.0
Cd226 Cd 0.70676 0.61802 0.63898 0.0
O227 O 0.72664 0.58682 0.61883 0.0
Cd228 Cd 0.72919 0.59104 0.66008 0.0
C229 C 0.74456 0.62625 0.65143 0.0
O230 O 0.70289 0.5982 0.66525 0.0
O231 O 0.7166 0.6001 0.69504 0.0
O232 O 0.72857 0.56347 0.66278 0.0
C233 C 0.70363 0.6016 0.68585 0.0
O234 O 0.73121 0.63061 0.64581 0.0
C235 C 0.73986 0.56228 0.67606 0.0
O236 O 0.7472 0.61233 0.65646 0.0
O237 O 0.7466 0.57458 0.68158 0.0
C238 C 0.39592 0.71839 0.60211 0.0
O239 O 0.38433 0.70984 0.60471 0.0
Cd240 Cd 0.37004 0.70632 0.63842 0.0
O241 O 0.40141 0.72602 0.6185 0.0
Cd242 Cd 0.3963 0.72899 0.65953 0.0
C243 C 0.3609 0.74385 0.65019 0.0
O244 O 0.38984 0.70248 0.66499 0.0
O245 O 0.3871 0.71637 0.69443 0.0
O246 O 0.42384 0.73009 0.66431 0.0
C247 C 0.3862 0.70326 0.68549 0.0
O248 O 0.35659 0.73044 0.64476 0.0
C249 C 0.42376 0.74176 0.67701 0.0
O250 O 0.37479 0.74654 0.65518 0.0
O251 O 0.41085 0.74771 0.68127 0.0
C252 C 0.26578 0.39459 0.60449 0.0
O253 O 0.27512 0.38356 0.60655 0.0
Cd254 Cd 0.27976 0.36939 0.64008 0.0
O255 O 0.2585 0.3998 0.62141 0.0
Cd256 Cd 0.25783 0.39565 0.66291 0.0
C257 C 0.24239 0.36056 0.65441 0.0
O258 O 0.28441 0.38894 0.66663 0.0
O259 O 0.27123 0.38581 0.69669 0.0
O260 O 0.25848 0.42318 0.6669 0.0
C261 C 0.28411 0.38503 0.68706 0.0
O262 O 0.2556 0.35636 0.64785 0.0
C263 C 0.24743 0.42405 0.68064 0.0
O264 O 0.23983 0.37438 0.66003 0.0
O265 O 0.24078 0.41162 0.68574 0.0
C266 C 0.59126 0.26657 0.60466 0.0
O267 O 0.60286 0.27497 0.60821 0.0
Cd268 Cd 0.61582 0.27909 0.64303 0.0
O269 O 0.58494 0.25919 0.62064 0.0
Cd270 Cd 0.58837 0.25644 0.66203 0.0
C271 C 0.62434 0.24179 0.6569 0.0
O272 O 0.59497 0.28285 0.66768 0.0
O273 O 0.59581 0.2693 0.69767 0.0
O274 O 0.56072 0.25512 0.66529 0.0
C275 C 0.59762 0.28224 0.68852 0.0
O276 O 0.62894 0.25513 0.65165 0.0
C277 C 0.56062 0.24321 0.67748 0.0
O278 O 0.61022 0.23913 0.66027 0.0
O279 O 0.57347 0.23727 0.6821 0.0
C280 C 0.72074 0.39356 0.87409 0.0
O281 O 0.71226 0.38187 0.87176 0.0
Cd282 Cd 0.70812 0.36763 0.8382 0.0
O283 O 0.7279 0.39924 0.8574 0.0
Cd284 Cd 0.72986 0.39474 0.81608 0.0
C285 C 0.74567 0.35962 0.82404 0.0
O286 O 0.70351 0.38757 0.81237 0.0
O287 O 0.71633 0.3855 0.78182 0.0
O288 O 0.72921 0.42231 0.81307 0.0
C289 C 0.70362 0.38409 0.79179 0.0
O290 O 0.73248 0.35516 0.83025 0.0
C291 C 0.74022 0.42342 0.79931 0.0
O292 O 0.7481 0.37356 0.81895 0.0
O293 O 0.74681 0.41106 0.79362 0.0
C294 C 0.58922 0.71852 0.87344 0.0
O295 O 0.60073 0.70992 0.87026 0.0
Cd296 Cd 0.61428 0.70585 0.83605 0.0
O297 O 0.58329 0.72606 0.85729 0.0
Cd298 Cd 0.5873 0.72877 0.81592 0.0
C299 C 0.62307 0.74334 0.82312 0.0
O300 O 0.59385 0.70238 0.81062 0.0
O301 O 0.59571 0.71585 0.7807 0.0
O302 O 0.55969 0.72989 0.81204 0.0
C303 C 0.59713 0.70291 0.78999 0.0
O304 O 0.62744 0.72993 0.8285 0.0
C305 C 0.55959 0.74164 0.79951 0.0
O306 O 0.60907 0.74612 0.81891 0.0
O307 O 0.57244 0.74761 0.79497 0.0
C308 C 0.2617 0.59818 0.8754 0.0
O309 O 0.26965 0.61015 0.87232 0.0
Cd310 Cd 0.27664 0.62108 0.83694 0.0
O311 O 0.25627 0.59068 0.85885 0.0
Cd312 Cd 0.25577 0.59267 0.81722 0.0
C313 C 0.23998 0.62834 0.81914 0.0
O314 O 0.28234 0.59971 0.81393 0.0
O315 O 0.26992 0.59962 0.78278 0.0
O316 O 0.25617 0.56495 0.81707 0.0
C317 C 0.28247 0.60174 0.7929 0.0
O318 O 0.2531 0.63323 0.82493 0.0
C319 C 0.24537 0.56336 0.80302 0.0
O320 O 0.23753 0.61409 0.81647 0.0
O321 O 0.23903 0.5755 0.79594 0.0
C322 C 0.39712 0.26581 0.87462 0.0
O323 O 0.3861 0.27511 0.87202 0.0
Cd324 Cd 0.37227 0.27958 0.83797 0.0
O325 O 0.4024 0.25819 0.85808 0.0
Cd326 Cd 0.39815 0.25634 0.81679 0.0
C327 C 0.36226 0.24243 0.82487 0.0
O328 O 0.39214 0.28304 0.81146 0.0
O329 O 0.38972 0.26919 0.78187 0.0
O330 O 0.42568 0.2546 0.81247 0.0
C331 C 0.38873 0.28228 0.79085 0.0
O332 O 0.35823 0.25587 0.83066 0.0
C333 C 0.42539 0.24295 0.79973 0.0
O334 O 0.37611 0.23945 0.82004 0.0
O335 O 0.41237 0.23731 0.79531 0.0
C336 C 0.2607 0.38772 0.37433 0.0
O337 O 0.26888 0.3759 0.37133 0.0
Cd338 Cd 0.27637 0.36536 0.33586 0.0
O339 O 0.25536 0.39519 0.35771 0.0
Cd340 Cd 0.25548 0.39325 0.31607 0.0
C341 C 0.24016 0.35742 0.3171 0.0
O342 O 0.28233 0.3868 0.31303 0.0
O343 O 0.2699 0.38654 0.28186 0.0
O344 O 0.25538 0.42097 0.31619 0.0
C345 C 0.28253 0.38482 0.29197 0.0
O346 O 0.2533 0.3527 0.32309 0.0
C347 C 0.2447 0.42243 0.30192 0.0
O348 O 0.23752 0.37165 0.31462 0.0
O349 O 0.23867 0.4102 0.29454 0.0
C350 C 0.59083 0.26719 0.37397 0.0
O351 O 0.60235 0.27576 0.3708 0.0
Cd352 Cd 0.61616 0.27935 0.33673 0.0
O353 O 0.58502 0.25949 0.35787 0.0
Cd354 Cd 0.58924 0.2564 0.31657 0.0
C355 C 0.62481 0.2416 0.32498 0.0
O356 O 0.59595 0.28271 0.31091 0.0
O357 O 0.59804 0.26892 0.28129 0.0
O358 O 0.56163 0.25572 0.3128 0.0
C359 C 0.59936 0.28197 0.29033 0.0
O360 O 0.62917 0.25504 0.33018 0.0
C361 C 0.56129 0.24405 0.30011 0.0
O362 O 0.61086 0.23885 0.32037 0.0
O363 O 0.57403 0.23785 0.29544 0.0
C364 C 0.72012 0.59375 0.37401 0.0
O365 O 0.71168 0.60544 0.37149 0.0
Cd366 Cd 0.70747 0.61936 0.33767 0.0
O367 O 0.72723 0.58786 0.35741 0.0
Cd368 Cd 0.72918 0.59193 0.31601 0.0
C369 C 0.74503 0.62709 0.32334 0.0
O370 O 0.70286 0.59914 0.31228 0.0
O371 O 0.71557 0.60079 0.28158 0.0
O372 O 0.7287 0.56431 0.31357 0.0
C373 C 0.70291 0.6024 0.29162 0.0
O374 O 0.73186 0.63168 0.32946 0.0
C375 C 0.7397 0.56315 0.29979 0.0
O376 O 0.7474 0.6131 0.31852 0.0
O377 O 0.74618 0.5755 0.29382 0.0
C378 C 0.39957 0.71799 0.37315 0.0
O379 O 0.38843 0.70896 0.36994 0.0
Cd380 Cd 0.37381 0.70707 0.33632 0.0
O381 O 0.40437 0.72661 0.3574 0.0
Cd382 Cd 0.39859 0.73078 0.31681 0.0
C383 C 0.3637 0.74492 0.32953 0.0
O384 O 0.39244 0.70449 0.30756 0.0
O385 O 0.38673 0.72085 0.28205 0.0
O386 O 0.42595 0.73162 0.31046 0.0
C387 C 0.38721 0.70697 0.2881 0.0
O388 O 0.35973 0.73117 0.33341 0.0
C389 C 0.4258 0.74382 0.29892 0.0
O390 O 0.37744 0.74815 0.32435 0.0
O391 O 0.41292 0.75018 0.29596 0.0
C392 C 0.26638 0.59086 0.10604 0.0
O393 O 0.27587 0.60167 0.10872 0.0
Cd394 Cd 0.27839 0.61599 0.14258 0.0
O395 O 0.25829 0.58609 0.12239 0.0
Cd396 Cd 0.25617 0.59073 0.16358 0.0
C397 C 0.24044 0.62502 0.1524 0.0
O398 O 0.28257 0.5975 0.17108 0.0
O399 O 0.26676 0.603 0.1975 0.0
O400 O 0.25767 0.56336 0.16855 0.0
C401 C 0.28048 0.60267 0.1907 0.0
O402 O 0.25394 0.62926 0.14734 0.0
C403 C 0.24609 0.56222 0.18125 0.0
O404 O 0.23771 0.61124 0.15797 0.0
O405 O 0.23878 0.57445 0.18544 0.0
C406 C 0.39137 0.26146 0.10493 0.0
O407 O 0.37946 0.26956 0.10752 0.0
Cd408 Cd 0.36829 0.27752 0.14226 0.0
O409 O 0.39869 0.25624 0.1218 0.0
Cd410 Cd 0.3956 0.25648 0.16339 0.0
C411 C 0.35955 0.24156 0.16079 0.0
O412 O 0.38946 0.28339 0.16573 0.0
O413 O 0.38804 0.27131 0.19704 0.0
O414 O 0.42331 0.25538 0.16646 0.0
C415 C 0.38683 0.28386 0.18661 0.0
O416 O 0.35494 0.25471 0.15468 0.0
C417 C 0.42352 0.24433 0.1803 0.0
O418 O 0.37373 0.23891 0.16375 0.0
O419 O 0.4107 0.23874 0.18593 0.0
C420 C 0.71931 0.39494 0.10177 0.0
O421 O 0.71066 0.3834 0.10419 0.0
Cd422 Cd 0.70712 0.3689 0.13772 0.0
O423 O 0.72681 0.40038 0.11832 0.0
Cd424 Cd 0.72935 0.39574 0.15945 0.0
C425 C 0.74496 0.36075 0.14999 0.0
O426 O 0.7031 0.38831 0.16466 0.0
O427 O 0.71702 0.38618 0.19421 0.0
O428 O 0.72841 0.42325 0.16299 0.0
C429 C 0.70401 0.38468 0.18516 0.0
O430 O 0.73164 0.35638 0.14424 0.0
C431 C 0.73977 0.4244 0.17614 0.0
O432 O 0.74752 0.37463 0.15534 0.0
O433 O 0.7467 0.41211 0.1812 0.0
C434 C 0.59002 0.71919 0.10385 0.0
O435 O 0.60133 0.71037 0.10719 0.0
Cd436 Cd 0.61504 0.70675 0.14145 0.0
O437 O 0.5844 0.72716 0.1198 0.0
Cd438 Cd 0.58863 0.73064 0.16095 0.0
C439 C 0.62466 0.74433 0.1525 0.0
O440 O 0.59476 0.70422 0.16737 0.0
O441 O 0.59665 0.71833 0.19672 0.0
O442 O 0.56103 0.73229 0.16447 0.0
C443 C 0.59794 0.70517 0.18802 0.0
O444 O 0.6287 0.73075 0.14754 0.0
C445 C 0.56106 0.74421 0.17667 0.0
O446 O 0.61077 0.74746 0.15699 0.0
O447 O 0.57398 0.75004 0.1812 0.0
C448 C 0.33265 0.23205 0.1599 0.0
C449 C 0.34827 0.22907 0.1632 0.0
C450 C 0.32202 0.22021 0.16038 0.0
C451 C 0.31538 0.18072 0.17918 0.0
H452 H 0.28477 0.18127 0.13204 0.0
C453 C 0.2717 0.13161 0.16475 0.0
C454 C 0.25666 0.13614 0.1598 0.0
C455 C 0.28347 0.14242 0.16568 0.0
C456 C 0.29315 0.18102 0.14544 0.0
H457 H 0.36486 0.2113 0.17038 0.0
H458 H 0.34618 0.19055 0.17115 0.0
H459 H 0.30419 0.20112 0.13319 0.0
H460 H 0.24216 0.15564 0.15242 0.0
H461 H 0.26255 0.17437 0.15426 0.0
H462 H 0.30418 0.16061 0.19148 0.0
C463 C 0.34223 0.20211 0.16825 0.0
C464 C 0.30427 0.1924 0.1461 0.0
C465 C 0.35293 0.21399 0.16774 0.0
C466 C 0.25362 0.15171 0.15612 0.0
C467 C 0.26534 0.16246 0.15704 0.0
C468 C 0.30419 0.16931 0.17854 0.0
C469 C 0.3267 0.20509 0.16417 0.0
C470 C 0.31538 0.1925 0.16313 0.0
C471 C 0.28041 0.15794 0.16162 0.0
C472 C 0.29283 0.16948 0.16182 0.0
H473 H 0.32861 0.24353 0.15656 0.0
H474 H 0.31009 0.22291 0.15763 0.0
H475 H 0.32376 0.18056 0.19256 0.0
H476 H 0.27444 0.1197 0.16769 0.0
H477 H 0.29499 0.13858 0.16912 0.0
C478 C 0.83475 0.25417 0.14398 0.0
C479 C 0.85009 0.25721 0.14929 0.0
C480 C 0.82387 0.26582 0.14455 0.0
C481 C 0.81937 0.30769 0.14291 0.0
H482 H 0.77966 0.29863 0.16847 0.0
C483 C 0.77248 0.35372 0.15633 0.0
C484 C 0.75754 0.34943 0.1504 0.0
C485 C 0.78422 0.34287 0.15679 0.0
C486 C 0.79065 0.30131 0.16111 0.0
H487 H 0.86604 0.27497 0.15915 0.0
H488 H 0.84698 0.2953 0.1603 0.0
H489 H 0.79933 0.27897 0.168 0.0
H490 H 0.74328 0.33035 0.14013 0.0
H491 H 0.7637 0.31158 0.14079 0.0
H492 H 0.81059 0.33005 0.13594 0.0
C493 C 0.84342 0.2839 0.15551 0.0
C494 C 0.80192 0.29004 0.16082 0.0
C495 C 0.85433 0.27223 0.15495 0.0
C496 C 0.75463 0.33408 0.14487 0.0
C497 C 0.76632 0.32327 0.14538 0.0
C498 C 0.80807 0.31899 0.14321 0.0
C499 C 0.82806 0.28079 0.15046 0.0
C500 C 0.81634 0.29304 0.1515 0.0
C501 C 0.78123 0.32751 0.15143 0.0
C502 C 0.79354 0.31586 0.15209 0.0
H503 H 0.83108 0.24276 0.13943 0.0
H504 H 0.81217 0.2631 0.1402 0.0
H505 H 0.83033 0.31031 0.13543 0.0
H506 H 0.77512 0.36545 0.16068 0.0
H507 H 0.79559 0.34646 0.16167 0.0
C508 C 0.65157 0.75332 0.1474 0.0
C509 C 0.6363 0.75661 0.15285 0.0
C510 C 0.66257 0.76485 0.14743 0.0
C511 C 0.67102 0.80317 0.16981 0.0
H512 H 0.70074 0.80396 0.12154 0.0
C513 C 0.71497 0.85215 0.15856 0.0
C514 C 0.72988 0.84781 0.15249 0.0
C515 C 0.70316 0.84139 0.15881 0.0
C516 C 0.69262 0.80381 0.13527 0.0
H517 H 0.62066 0.77464 0.16278 0.0
H518 H 0.63993 0.79481 0.16271 0.0
H519 H 0.68082 0.78457 0.12154 0.0
H520 H 0.74408 0.82867 0.14231 0.0
H521 H 0.72357 0.80998 0.14299 0.0
H522 H 0.68292 0.8224 0.18359 0.0
C523 C 0.64337 0.78325 0.15858 0.0
C524 C 0.6812 0.7927 0.13526 0.0
C525 C 0.63232 0.77171 0.1585 0.0
C526 C 0.73273 0.83246 0.14694 0.0
C527 C 0.72095 0.82173 0.14719 0.0
C528 C 0.68247 0.8143 0.16984 0.0
C529 C 0.6586 0.77995 0.15293 0.0
C530 C 0.67035 0.79216 0.15262 0.0
C531 C 0.70601 0.82609 0.15296 0.0
C532 C 0.69348 0.81465 0.15266 0.0
H533 H 0.65507 0.74182 0.14305 0.0
H534 H 0.67426 0.76189 0.14334 0.0
H535 H 0.66291 0.80295 0.18355 0.0
H536 H 0.71237 0.86389 0.16291 0.0
H537 H 0.69175 0.84513 0.16316 0.0
C538 C 0.21275 0.63198 0.15653 0.0
C539 C 0.22784 0.63631 0.15159 0.0
C540 C 0.2009 0.64269 0.15556 0.0
C541 C 0.191 0.68024 0.13113 0.0
H542 H 0.16022 0.68128 0.17793 0.0
C543 C 0.15026 0.73123 0.14275 0.0
C544 C 0.13492 0.72813 0.14801 0.0
C545 C 0.16106 0.7195 0.14242 0.0
C546 C 0.16862 0.68101 0.16457 0.0
H547 H 0.2423 0.65534 0.14189 0.0
H548 H 0.22173 0.67396 0.14046 0.0
H549 H 0.18008 0.66172 0.1789 0.0
H550 H 0.11891 0.7102 0.15692 0.0
H551 H 0.1378 0.68971 0.15622 0.0
H552 H 0.17965 0.69961 0.11692 0.0
C553 C 0.219 0.66226 0.14474 0.0
C554 C 0.17999 0.6698 0.16513 0.0
C555 C 0.23081 0.65158 0.14572 0.0
C556 C 0.13063 0.713 0.15282 0.0
C557 C 0.14146 0.70126 0.15255 0.0
C558 C 0.17965 0.69144 0.13059 0.0
C559 C 0.2039 0.65794 0.14959 0.0
C560 C 0.1914 0.66939 0.14853 0.0
C561 C 0.1568 0.70439 0.14737 0.0
C562 C 0.16842 0.69204 0.14741 0.0
H563 H 0.21004 0.62031 0.16107 0.0
H564 H 0.18937 0.63898 0.15919 0.0
H565 H 0.19945 0.68006 0.11785 0.0
H566 H 0.15398 0.74275 0.13901 0.0
H567 H 0.17283 0.72232 0.13867 0.0
C568 C 0.27365 0.85287 0.32688 0.0
C569 C 0.25868 0.84864 0.33273 0.0
C570 C 0.2854 0.84204 0.32688 0.0
C571 C 0.29176 0.8005 0.32313 0.0
H572 H 0.33182 0.80985 0.34727 0.0
C573 C 0.33697 0.75384 0.33676 0.0
C574 C 0.35211 0.75723 0.3307 0.0
C575 C 0.3259 0.7653 0.33726 0.0
C576 C 0.32074 0.80712 0.34024 0.0
H577 H 0.24441 0.82974 0.34358 0.0
H578 H 0.26487 0.81098 0.34374 0.0
H579 H 0.31189 0.8294 0.34763 0.0
H580 H 0.36749 0.77542 0.32065 0.0
H581 H 0.34808 0.79542 0.32133 0.0
H582 H 0.30053 0.77827 0.31569 0.0
C583 C 0.26749 0.8226 0.33883 0.0
C584 C 0.30934 0.81832 0.34045 0.0
C585 C 0.25578 0.8334 0.33886 0.0
C586 C 0.35595 0.77241 0.32542 0.0
C587 C 0.34484 0.78389 0.32591 0.0
C588 C 0.30313 0.78934 0.3229 0.0
C589 C 0.28241 0.82676 0.33268 0.0
C590 C 0.29469 0.81508 0.33203 0.0
C591 C 0.32967 0.78044 0.33168 0.0
C592 C 0.31772 0.79248 0.33159 0.0
H593 H 0.27628 0.8645 0.32206 0.0
H594 H 0.29676 0.84556 0.3219 0.0
H595 H 0.28068 0.79774 0.31612 0.0
H596 H 0.33362 0.74229 0.34105 0.0
H597 H 0.31437 0.76231 0.34214 0.0
C598 C 0.23083 0.33045 0.31693 0.0
C599 C 0.2277 0.34612 0.31441 0.0
C600 C 0.21907 0.31975 0.31648 0.0
C601 C 0.17935 0.313 0.2992 0.0
H602 H 0.18085 0.28222 0.34603 0.0
C603 C 0.13051 0.26943 0.31497 0.0
C604 C 0.13496 0.25437 0.32001 0.0
C605 C 0.14137 0.28111 0.31369 0.0
C606 C 0.18034 0.29062 0.3327 0.0
H607 H 0.20975 0.36274 0.30853 0.0
H608 H 0.1891 0.34391 0.30778 0.0
H609 H 0.2006 0.30171 0.34429 0.0
H610 H 0.15439 0.23975 0.32718 0.0
H611 H 0.17327 0.26 0.32468 0.0
H612 H 0.1591 0.30176 0.28753 0.0
C613 C 0.20073 0.34 0.31007 0.0
C614 C 0.19165 0.3018 0.33171 0.0
C615 C 0.21255 0.35077 0.31057 0.0
C616 C 0.15052 0.25122 0.32345 0.0
C617 C 0.16136 0.26287 0.32213 0.0
C618 C 0.16801 0.30175 0.30014 0.0
C619 C 0.20386 0.32441 0.31349 0.0
C620 C 0.19139 0.313 0.31481 0.0
C621 C 0.15691 0.27796 0.31743 0.0
C622 C 0.1685 0.29033 0.31677 0.0
H623 H 0.24238 0.32642 0.3197 0.0
H624 H 0.22187 0.30779 0.3187 0.0
H625 H 0.17891 0.32145 0.28593 0.0
H626 H 0.11861 0.27225 0.31223 0.0
H627 H 0.13757 0.29264 0.31022 0.0
C628 C 0.73126 0.15172 0.33047 0.0
C629 C 0.72825 0.13634 0.32531 0.0
C630 C 0.71965 0.16262 0.32956 0.0
C631 C 0.67788 0.16716 0.33114 0.0
H632 H 0.68692 0.20685 0.30547 0.0
C633 C 0.63186 0.21408 0.31863 0.0
C634 C 0.63619 0.22907 0.32431 0.0
C635 C 0.64271 0.20235 0.31794 0.0
C636 C 0.68424 0.19587 0.31287 0.0
H637 H 0.71057 0.12034 0.31528 0.0
H638 H 0.69028 0.13945 0.31361 0.0
H639 H 0.70652 0.18711 0.30576 0.0
H640 H 0.65534 0.24342 0.33391 0.0
H641 H 0.67414 0.22301 0.3329 0.0
H642 H 0.65561 0.17601 0.33841 0.0
C643 C 0.70164 0.14302 0.31851 0.0
C644 C 0.69548 0.18456 0.31303 0.0
C645 C 0.71329 0.13209 0.31937 0.0
C646 C 0.65159 0.23204 0.32936 0.0
C647 C 0.66241 0.22034 0.32865 0.0
C648 C 0.66662 0.1785 0.33099 0.0
C649 C 0.70472 0.15842 0.32349 0.0
C650 C 0.69248 0.17013 0.3224 0.0
C651 C 0.65812 0.20538 0.32287 0.0
C652 C 0.66975 0.19304 0.32208 0.0
H653 H 0.74262 0.15541 0.3352 0.0
H654 H 0.72234 0.17434 0.33385 0.0
H655 H 0.67527 0.1562 0.33867 0.0
H656 H 0.62009 0.2114 0.31462 0.0
H657 H 0.63907 0.19096 0.31325 0.0
C658 C 0.75495 0.65381 0.32656 0.0
C659 C 0.75769 0.63829 0.32197 0.0
C660 C 0.76677 0.66445 0.3254 0.0
C661 C 0.80853 0.66814 0.32794 0.0
H662 H 0.80045 0.70793 0.30184 0.0
C663 C 0.85522 0.71462 0.31763 0.0
C664 C 0.8509 0.72962 0.32327 0.0
C665 C 0.8443 0.70299 0.31637 0.0
C666 C 0.80286 0.69691 0.30935 0.0
H667 H 0.77506 0.6218 0.31254 0.0
H668 H 0.79574 0.64049 0.31043 0.0
H669 H 0.78061 0.68845 0.30136 0.0
H670 H 0.83169 0.7441 0.3322 0.0
H671 H 0.81276 0.72385 0.33019 0.0
H672 H 0.83075 0.67671 0.33613 0.0
C673 C 0.78442 0.64435 0.31509 0.0
C674 C 0.79149 0.68575 0.30906 0.0
C675 C 0.77256 0.63366 0.31619 0.0
C676 C 0.83544 0.7327 0.32772 0.0
C677 C 0.82455 0.72111 0.32642 0.0
C678 C 0.81992 0.67933 0.32823 0.0
C679 C 0.78163 0.65987 0.31963 0.0
C680 C 0.79411 0.67131 0.31863 0.0
C681 C 0.82883 0.70614 0.32065 0.0
C682 C 0.81712 0.69391 0.31922 0.0
H683 H 0.74366 0.65779 0.33114 0.0
H684 H 0.76429 0.67628 0.32936 0.0
H685 H 0.81084 0.65716 0.33563 0.0
H686 H 0.86703 0.71185 0.31408 0.0
H687 H 0.84793 0.69159 0.31172 0.0
C688 C 0.71225 0.85196 0.81082 0.0
C689 C 0.72738 0.84736 0.81495 0.0
C690 C 0.70039 0.84124 0.81093 0.0
C691 C 0.691 0.80346 0.83407 0.0
H692 H 0.65883 0.80286 0.78927 0.0
C693 C 0.64999 0.75273 0.82581 0.0
C694 C 0.63447 0.7558 0.82182 0.0
C695 C 0.66079 0.76441 0.82477 0.0
C696 C 0.66763 0.80301 0.80207 0.0
H697 H 0.74196 0.8278 0.82162 0.0
H698 H 0.72138 0.80922 0.82166 0.0
H699 H 0.67872 0.82244 0.7874 0.0
H700 H 0.61816 0.7736 0.81346 0.0
H701 H 0.63708 0.79406 0.81187 0.0
H702 H 0.68003 0.78411 0.84878 0.0
C703 C 0.71863 0.82112 0.81871 0.0
C704 C 0.67901 0.8142 0.80097 0.0
C705 C 0.73044 0.83179 0.81855 0.0
C706 C 0.63002 0.77084 0.81661 0.0
C707 C 0.64087 0.78255 0.81558 0.0
C708 C 0.67965 0.79233 0.83519 0.0
C709 C 0.70345 0.82575 0.81526 0.0
C710 C 0.69092 0.8144 0.8168 0.0
C711 C 0.65636 0.77947 0.81976 0.0
C712 C 0.66794 0.79184 0.81905 0.0
H713 H 0.7095 0.86387 0.80797 0.0
H714 H 0.68879 0.84513 0.80829 0.0
H715 H 0.69985 0.80353 0.8468 0.0
H716 H 0.65385 0.74128 0.82973 0.0
H717 H 0.67267 0.7616 0.82769 0.0
C718 C 0.12945 0.71542 0.81872 0.0
C719 C 0.13391 0.73061 0.82282 0.0
C720 C 0.14033 0.70373 0.81789 0.0
C721 C 0.17956 0.6946 0.83616 0.0
H722 H 0.17781 0.66334 0.78998 0.0
C723 C 0.23028 0.65518 0.81935 0.0
C724 C 0.22733 0.63948 0.81691 0.0
C725 C 0.21837 0.66573 0.81929 0.0
C726 C 0.17834 0.6719 0.80311 0.0
H727 H 0.15334 0.74541 0.82908 0.0
H728 H 0.17224 0.72511 0.82742 0.0
H729 H 0.15784 0.68286 0.79181 0.0
H730 H 0.20952 0.62262 0.81161 0.0
H731 H 0.18861 0.64119 0.81154 0.0
H732 H 0.20008 0.6838 0.84736 0.0
C733 C 0.16032 0.72218 0.82518 0.0
C734 C 0.16691 0.68307 0.80418 0.0
C735 C 0.14947 0.73384 0.82601 0.0
C736 C 0.21218 0.63463 0.81357 0.0
C737 C 0.20021 0.64525 0.81347 0.0
C738 C 0.19096 0.68351 0.83506 0.0
C739 C 0.15588 0.70698 0.82119 0.0
C740 C 0.16752 0.69465 0.82056 0.0
C741 C 0.20319 0.66088 0.81678 0.0
C742 C 0.19059 0.67215 0.81836 0.0
H743 H 0.11755 0.71252 0.81619 0.0
H744 H 0.13654 0.69211 0.81499 0.0
H745 H 0.18018 0.70316 0.8493 0.0
H746 H 0.24181 0.65937 0.82173 0.0
H747 H 0.22105 0.67773 0.82139 0.0
C748 C 0.33526 0.23333 0.82852 0.0
C749 C 0.35065 0.23015 0.82374 0.0
C750 C 0.32427 0.22179 0.82741 0.0
C751 C 0.31959 0.18001 0.82933 0.0
H752 H 0.28004 0.18903 0.80316 0.0
C753 C 0.27263 0.13401 0.81733 0.0
C754 C 0.25769 0.13846 0.82303 0.0
C755 C 0.28437 0.14483 0.81634 0.0
C756 C 0.29099 0.18636 0.81068 0.0
H757 H 0.36656 0.21229 0.81404 0.0
H758 H 0.34732 0.19218 0.812 0.0
H759 H 0.2998 0.20861 0.80348 0.0
H760 H 0.24343 0.15778 0.83226 0.0
H761 H 0.26386 0.1765 0.83073 0.0
H762 H 0.31069 0.15779 0.83672 0.0
C763 C 0.34381 0.20359 0.8168 0.0
C764 C 0.3023 0.19759 0.81087 0.0
C765 C 0.35481 0.21514 0.81786 0.0
C766 C 0.25477 0.15394 0.82772 0.0
C767 C 0.26648 0.16471 0.82671 0.0
C768 C 0.30825 0.16877 0.82915 0.0
C769 C 0.32841 0.2068 0.82151 0.0
C770 C 0.31667 0.1946 0.82042 0.0
C771 C 0.2814 0.16031 0.82097 0.0
C772 C 0.29376 0.17189 0.82006 0.0
H773 H 0.33165 0.24474 0.83318 0.0
H774 H 0.31255 0.22459 0.83147 0.0
H775 H 0.3305 0.17741 0.837 0.0
H776 H 0.27526 0.12219 0.8136 0.0
H777 H 0.29573 0.14111 0.8117 0.0
C778 C 0.83528 0.25314 0.82772 0.0
C779 C 0.85072 0.25608 0.8229 0.0
C780 C 0.82446 0.26483 0.82661 0.0
C781 C 0.82021 0.30668 0.82825 0.0
H782 H 0.7805 0.29782 0.80252 0.0
C783 C 0.77313 0.35276 0.8167 0.0
C784 C 0.75826 0.34833 0.82279 0.0
C785 C 0.78489 0.34196 0.81557 0.0
C786 C 0.79149 0.30045 0.80991 0.0
H787 H 0.86688 0.27368 0.81321 0.0
H788 H 0.84791 0.29409 0.81115 0.0
H789 H 0.80016 0.27814 0.80266 0.0
H790 H 0.74416 0.32903 0.83256 0.0
H791 H 0.76461 0.31034 0.83074 0.0
H792 H 0.81143 0.32898 0.83566 0.0
C793 C 0.84424 0.28274 0.81597 0.0
C794 C 0.80276 0.28917 0.81 0.0
C795 C 0.85509 0.27102 0.81705 0.0
C796 C 0.75544 0.33287 0.82773 0.0
C797 C 0.76716 0.32211 0.82655 0.0
C798 C 0.80892 0.31799 0.82815 0.0
C799 C 0.8288 0.27975 0.82065 0.0
C800 C 0.81718 0.29208 0.81945 0.0
C801 C 0.78201 0.3265 0.82041 0.0
C802 C 0.79437 0.31491 0.81926 0.0
H803 H 0.8315 0.2418 0.83238 0.0
H804 H 0.8127 0.2622 0.83068 0.0
H805 H 0.83116 0.30923 0.83583 0.0
H806 H 0.77569 0.36457 0.81278 0.0
H807 H 0.7962 0.34567 0.81064 0.0
C808 C 0.63087 0.21432 0.66437 0.0
C809 C 0.63562 0.2293 0.65943 0.0
C810 C 0.6416 0.20261 0.66698 0.0
C811 C 0.68235 0.19602 0.67933 0.0
H812 H 0.67595 0.15698 0.64994 0.0
C813 C 0.73114 0.15368 0.66332 0.0
C814 C 0.72829 0.13793 0.66542 0.0
C815 C 0.71927 0.16423 0.66517 0.0
C816 C 0.67779 0.16772 0.65857 0.0
H817 H 0.65538 0.24368 0.65332 0.0
H818 H 0.674 0.22328 0.65773 0.0
H819 H 0.65615 0.17657 0.648 0.0
H820 H 0.71073 0.12097 0.67161 0.0
H821 H 0.68995 0.13949 0.67497 0.0
H822 H 0.70406 0.18728 0.68964 0.0
C823 C 0.66201 0.22062 0.65985 0.0
C824 C 0.66646 0.17895 0.65743 0.0
C825 C 0.65131 0.23229 0.65715 0.0
C826 C 0.71331 0.13301 0.66987 0.0
C827 C 0.7014 0.1436 0.67167 0.0
C828 C 0.69365 0.1848 0.68051 0.0
C829 C 0.65728 0.20566 0.66483 0.0
C830 C 0.66875 0.19331 0.66746 0.0
C831 C 0.70425 0.15932 0.66917 0.0
C832 C 0.69162 0.17063 0.6698 0.0
H833 H 0.61888 0.21161 0.66626 0.0
H834 H 0.63763 0.19121 0.67096 0.0
H835 H 0.68431 0.20687 0.68761 0.0
H836 H 0.74252 0.1579 0.65988 0.0
H837 H 0.72183 0.17623 0.66283 0.0
C838 C 0.75409 0.653 0.64683 0.0
C839 C 0.75709 0.63761 0.652 0.0
C840 C 0.76577 0.66383 0.64733 0.0
C841 C 0.8075 0.66809 0.64435 0.0
H842 H 0.79904 0.70802 0.66978 0.0
C843 C 0.85401 0.71452 0.65591 0.0
C844 C 0.84983 0.72961 0.65055 0.0
C845 C 0.84304 0.70293 0.65651 0.0
C846 C 0.80154 0.69698 0.66242 0.0
H847 H 0.77478 0.62155 0.66169 0.0
H848 H 0.79521 0.64056 0.66268 0.0
H849 H 0.77934 0.6884 0.67037 0.0
H850 H 0.83083 0.74426 0.64129 0.0
H851 H 0.81179 0.72404 0.64213 0.0
H852 H 0.8297 0.67675 0.63627 0.0
C853 C 0.7838 0.64417 0.65807 0.0
C854 C 0.79026 0.68573 0.66278 0.0
C855 C 0.77208 0.6333 0.65761 0.0
C856 C 0.83446 0.7328 0.6456 0.0
C857 C 0.82351 0.72122 0.64621 0.0
C858 C 0.81881 0.67936 0.64398 0.0
C859 C 0.78074 0.65956 0.65301 0.0
C860 C 0.79305 0.67121 0.65355 0.0
C861 C 0.82765 0.70617 0.6518 0.0
C862 C 0.81589 0.69398 0.65282 0.0
H863 H 0.7427 0.65675 0.64234 0.0
H864 H 0.76308 0.67554 0.643 0.0
H865 H 0.80994 0.65706 0.6369 0.0
H866 H 0.86575 0.71167 0.65985 0.0
H867 H 0.84657 0.69148 0.66107 0.0
C868 C 0.27277 0.85364 0.65729 0.0
C869 C 0.2578 0.84947 0.65132 0.0
C870 C 0.28441 0.84269 0.65788 0.0
C871 C 0.29043 0.80106 0.66252 0.0
H872 H 0.33036 0.80967 0.6374 0.0
C873 C 0.33417 0.75353 0.64551 0.0
C874 C 0.34955 0.75641 0.65079 0.0
C875 C 0.32339 0.76526 0.64628 0.0
C876 C 0.31933 0.80716 0.64474 0.0
H877 H 0.2434 0.83051 0.64104 0.0
H878 H 0.26365 0.81155 0.64191 0.0
H879 H 0.31079 0.82958 0.63754 0.0
H880 H 0.36566 0.77396 0.66094 0.0
H881 H 0.34676 0.79444 0.66242 0.0
H882 H 0.29887 0.77865 0.66961 0.0
C883 C 0.26637 0.82323 0.64645 0.0
C884 C 0.30813 0.81856 0.64482 0.0
C885 C 0.25477 0.83414 0.64582 0.0
C886 C 0.35391 0.77134 0.65674 0.0
C887 C 0.3431 0.7831 0.65749 0.0
C888 C 0.3016 0.78969 0.66245 0.0
C889 C 0.2813 0.82734 0.65259 0.0
C890 C 0.2935 0.81557 0.65348 0.0
C891 C 0.32771 0.78017 0.65236 0.0
C892 C 0.31612 0.79254 0.65332 0.0
H893 H 0.2755 0.86535 0.66164 0.0
H894 H 0.29579 0.84619 0.66284 0.0
H895 H 0.27937 0.79849 0.66973 0.0
H896 H 0.33041 0.74219 0.64076 0.0
H897 H 0.31167 0.76268 0.64188 0.0
C898 C 0.13265 0.27243 0.65889 0.0
C899 C 0.1368 0.25751 0.65253 0.0
C900 C 0.14351 0.28414 0.65919 0.0
C901 C 0.18102 0.29458 0.63551 0.0
H902 H 0.18293 0.32321 0.68522 0.0
C903 C 0.23261 0.33397 0.64868 0.0
C904 C 0.22984 0.34921 0.65495 0.0
C905 C 0.22079 0.3233 0.64849 0.0
C906 C 0.18242 0.31542 0.67109 0.0
H907 H 0.15569 0.24322 0.64168 0.0
H908 H 0.17455 0.26357 0.64236 0.0
H909 H 0.16303 0.30365 0.68456 0.0
H910 H 0.21243 0.36512 0.66622 0.0
H911 H 0.19172 0.34643 0.66574 0.0
H912 H 0.20041 0.30624 0.62207 0.0
C913 C 0.16287 0.26627 0.64683 0.0
C914 C 0.17103 0.30422 0.67071 0.0
C915 C 0.15205 0.25458 0.64658 0.0
C916 C 0.21497 0.35347 0.66131 0.0
C917 C 0.20311 0.34276 0.66114 0.0
C918 C 0.19238 0.30575 0.63588 0.0
C919 C 0.15873 0.2812 0.65304 0.0
C920 C 0.17032 0.29357 0.65304 0.0
C921 C 0.20588 0.32758 0.65455 0.0
C922 C 0.19333 0.31618 0.65379 0.0
H923 H 0.12099 0.27509 0.66357 0.0
H924 H 0.13994 0.29556 0.66388 0.0
H925 H 0.18059 0.28675 0.62143 0.0
H926 H 0.24393 0.33024 0.6438 0.0
H927 H 0.22336 0.31163 0.64372 0.0
C928 C 0.20881 0.09018 0.06686 0.0
C929 C 0.22034 0.08677 0.08247 0.0
C930 C 0.20988 0.08507 0.04477 0.0
C931 C 0.23742 0.07681 0.00176 0.0
H932 H 0.20117 0.06419 0.9692 0.0
C933 C 0.2331 0.07901 0.90445 0.0
C934 C 0.22058 0.088 0.89776 0.0
C935 C 0.23422 0.07376 0.92663 0.0
C936 C 0.21145 0.06751 0.97807 0.0
H937 H 0.24193 0.07507 0.08731 0.0
H938 H 0.24399 0.06641 0.04814 0.0
H939 H 0.20112 0.06393 0.01021 0.0
H940 H 0.19916 0.09798 0.90871 0.0
H941 H 0.20105 0.08878 0.94706 0.0
H942 H 0.24739 0.08133 0.96955 0.0
C943 C 0.23407 0.07292 0.05326 0.0
C944 C 0.21143 0.06736 0.00149 0.0
C945 C 0.23287 0.07786 0.0756 0.0
C946 C 0.20899 0.09117 0.91337 0.0
C947 C 0.20999 0.08575 0.93529 0.0
C948 C 0.23744 0.07696 0.97825 0.0
C949 C 0.22258 0.07655 0.03766 0.0
C950 C 0.22412 0.07276 0.01353 0.0
C951 C 0.22268 0.07716 0.94225 0.0
C952 C 0.22417 0.07306 0.96627 0.0
H953 H 0.19896 0.09693 0.07165 0.0
H954 H 0.20098 0.08827 0.03303 0.0
H955 H 0.24735 0.08107 0.01064 0.0
H956 H 0.24221 0.07639 0.89275 0.0
H957 H 0.24414 0.06718 0.93164 0.0
C958 C 0.91193 0.23229 0.90271 0.0
C959 C 0.90333 0.21951 0.89598 0.0
C960 C 0.91729 0.23345 0.92484 0.0
C961 C 0.92433 0.21074 0.97627 0.0
H962 H 0.90943 0.24615 0.00875 0.0
C963 C 0.90125 0.20736 0.06482 0.0
C964 C 0.90358 0.21931 0.0802 0.0
C965 C 0.90679 0.20843 0.04296 0.0
C966 C 0.91407 0.23637 -8e-05 0.0
H967 H 0.89426 0.19764 0.90672 0.0
H968 H 0.90367 0.1996 0.94497 0.0
H969 H 0.90934 0.24623 0.96771 0.0
H970 H 0.91397 0.24156 0.08497 0.0
H971 H 0.92342 0.24358 0.04624 0.0
H972 H 0.92816 0.2005 0.00842 0.0
C973 C 0.90629 0.20872 0.9333 0.0
C974 C 0.91401 0.23642 0.97641 0.0
C975 C 0.90075 0.20768 0.91144 0.0
C976 C 0.91201 0.23218 0.07344 0.0
C977 C 0.91738 0.23336 0.05133 0.0
C978 C 0.9244 0.21069 -0.0003 0.0
C979 C 0.91441 0.2217 0.94037 0.0
C980 C 0.9184 0.22329 0.96443 0.0
C981 C 0.91467 0.22153 0.03584 0.0
C982 C 0.91852 0.2232 0.01173 0.0
H983 H 0.91408 0.24158 0.89112 0.0
H984 H 0.92349 0.24359 0.92992 0.0
H985 H 0.92803 0.20057 0.9674 0.0
H986 H 0.89489 0.19725 0.06956 0.0
H987 H 0.90429 0.19923 0.03133 0.0
C988 C 0.75637 0.88449 0.91149 0.0
C989 C 0.75732 0.89543 0.89431 0.0
C990 C 0.75374 0.88897 0.9336 0.0
C991 C 0.76302 0.91784 0.97253 0.0
H992 H 0.73373 0.8971 0.01074 0.0
C993 C 0.74931 0.9061 0.07272 0.0
C994 C 0.76338 0.89945 0.07849 0.0
C995 C 0.74642 0.91055 0.05053 0.0
C996 C 0.74175 0.90329 0.00029 0.0
H997 H 0.75608 0.9196 0.8866 0.0
H998 H 0.75213 0.92755 0.92588 0.0
H999 H 0.7314 0.89518 0.96989 0.0
H1000 H 0.78581 0.8932 0.06609 0.0
H1001 H 0.78088 0.90122 0.02757 0.0
H1002 H 0.77412 0.92486 0.00295 0.0
C1003 C 0.75311 0.9155 0.92194 0.0
C1004 C 0.74045 0.90213 0.97697 0.0
C1005 C 0.75535 0.91096 0.89959 0.0
C1006 C 0.77481 0.89817 0.06206 0.0
C1007 C 0.77205 0.90291 0.04008 0.0
C1008 C 0.76447 0.91879 -0.00413 0.0
C1009 C 0.75232 0.9045 0.93907 0.0
C1010 C 0.7514 0.90892 0.96296 0.0
C1011 C 0.75771 0.90876 0.03397 0.0
C1012 C 0.75417 0.91103 0.00992 0.0
H1013 H 0.75774 0.87244 0.90784 0.0
H1014 H 0.75338 0.88031 0.94659 0.0
H1015 H 0.77166 0.92307 0.96201 0.0
H1016 H 0.7403 0.90719 0.08508 0.0
H1017 H 0.73526 0.91499 0.04617 0.0
C1018 C 0.08597 0.78099 0.91053 0.0
C1019 C 0.08251 0.76919 0.89536 0.0
C1020 C 0.08089 0.78034 0.93267 0.0
C1021 C 0.07219 0.75314 0.97636 0.0
H1022 H 0.06059 0.78983 0.00876 0.0
C1023 C 0.07356 0.75635 0.07345 0.0
C1024 C 0.08251 0.76867 0.08099 0.0
C1025 C 0.06852 0.75577 0.05112 0.0
C1026 C 0.06368 0.77944 -7e-05 0.0
H1027 H 0.07062 0.74762 0.89134 0.0
H1028 H 0.06194 0.74634 0.9305 0.0
H1029 H 0.06069 0.78991 0.96774 0.0
H1030 H 0.09252 0.79038 0.07141 0.0
H1031 H 0.08375 0.7894 0.03276 0.0
H1032 H 0.07604 0.74295 0.00858 0.0
C1033 C 0.06853 0.75612 0.92504 0.0
C1034 C 0.06373 0.77949 0.97649 0.0
C1035 C 0.07348 0.75688 0.90268 0.0
C1036 C 0.08573 0.78068 0.0661 0.0
C1037 C 0.08056 0.78019 0.04398 0.0
C1038 C 0.07214 0.75309 -0.00014 0.0
C1039 C 0.07231 0.76781 0.94027 0.0
C1040 C 0.06866 0.76657 0.96451 0.0
C1041 C 0.07214 0.76762 0.03612 0.0
C1042 C 0.06857 0.76648 0.01183 0.0
H1043 H 0.09282 0.79068 0.9054 0.0
H1044 H 0.0842 0.7894 0.94408 0.0
H1045 H 0.0761 0.74303 0.96756 0.0
H1046 H 0.07089 0.74692 0.08457 0.0
H1047 H 0.06203 0.74596 0.04548 0.0
C1048 C 0.23283 0.91135 0.40491 0.0
C1049 C 0.21985 0.90292 0.39862 0.0
C1050 C 0.23413 0.91722 0.42674 0.0
C1051 C 0.21189 0.92539 0.47837 0.0
H1052 H 0.24708 0.90954 0.51033 0.0
C1053 C 0.20837 0.9011 0.56598 0.0
C1054 C 0.22032 0.90305 0.58144 0.0
C1055 C 0.20949 0.90705 0.54437 0.0
C1056 C 0.23738 0.91446 0.50164 0.0
H1057 H 0.1977 0.89481 0.40969 0.0
H1058 H 0.19989 0.90507 0.44745 0.0
H1059 H 0.24694 0.90955 0.46932 0.0
H1060 H 0.24263 0.91318 0.58668 0.0
H1061 H 0.24477 0.92331 0.54831 0.0
H1062 H 0.2019 0.92931 0.51067 0.0
C1063 C 0.20908 0.90718 0.43567 0.0
C1064 C 0.2373 0.91447 0.47815 0.0
C1065 C 0.20789 0.90115 0.41409 0.0
C1066 C 0.23326 0.9115 0.57506 0.0
C1067 C 0.23449 0.91728 0.55317 0.0
C1068 C 0.21197 0.92539 0.5018 0.0
C1069 C 0.22233 0.91501 0.44239 0.0
C1070 C 0.22421 0.91915 0.46636 0.0
C1071 C 0.22265 0.91496 0.53759 0.0
C1072 C 0.22438 0.91914 0.51362 0.0
H1073 H 0.24222 0.9129 0.39329 0.0
H1074 H 0.24446 0.92319 0.43154 0.0
H1075 H 0.20176 0.92933 0.46965 0.0
H1076 H 0.19821 0.89474 0.57046 0.0
H1077 H 0.20028 0.90485 0.53263 0.0
C1078 C 0.07547 0.234 0.57367 0.0
C1079 C 0.08391 0.22112 0.5804 0.0
C1080 C 0.07008 0.23519 0.55155 0.0
C1081 C 0.06262 0.2124 0.5003 0.0
H1082 H 0.07795 0.24743 0.46744 0.0
C1083 C 0.08578 0.20818 0.41197 0.0
C1084 C 0.0831 0.21978 0.39618 0.0
C1085 C 0.08045 0.20958 0.4339 0.0
C1086 C 0.0732 0.23777 0.4764 0.0
H1087 H 0.09267 0.1991 0.56969 0.0
H1088 H 0.08321 0.2011 0.53148 0.0
H1089 H 0.07809 0.24772 0.50852 0.0
H1090 H 0.07242 0.24184 0.39081 0.0
H1091 H 0.06339 0.24449 0.42973 0.0
H1092 H 0.05868 0.20204 0.46825 0.0
C1093 C 0.08073 0.21029 0.54313 0.0
C1094 C 0.07327 0.23793 0.49991 0.0
C1095 C 0.0863 0.20922 0.56497 0.0
C1096 C 0.07464 0.23272 0.40267 0.0
C1097 C 0.0695 0.23424 0.42486 0.0
C1098 C 0.06255 0.21223 0.47687 0.0
C1099 C 0.07277 0.22336 0.53606 0.0
C1100 C 0.06873 0.22493 0.51201 0.0
C1101 C 0.07245 0.22269 0.44068 0.0
C1102 C 0.06858 0.22459 0.46473 0.0
H1103 H 0.07347 0.24335 0.58524 0.0
H1104 H 0.064 0.24541 0.54647 0.0
H1105 H 0.0588 0.20233 0.50926 0.0
H1106 H 0.09217 0.19802 0.40746 0.0
H1107 H 0.08312 0.2006 0.44581 0.0
C1108 C 0.75556 0.07515 0.57668 0.0
C1109 C 0.75735 0.09073 0.58181 0.0
C1110 C 0.75335 0.07048 0.55439 0.0
C1111 C 0.74066 0.08353 0.49909 0.0
H1112 H 0.77391 0.05983 0.47377 0.0
C1113 C 0.77472 0.08543 0.41359 0.0
C1114 C 0.7631 0.08433 0.39741 0.0
C1115 C 0.77204 0.081 0.43573 0.0
C1116 C 0.76438 0.06618 0.48067 0.0
H1117 H 0.75749 0.11366 0.56803 0.0
H1118 H 0.75321 0.10554 0.52935 0.0
H1119 H 0.77158 0.06231 0.51464 0.0
H1120 H 0.73977 0.07711 0.39139 0.0
H1121 H 0.73491 0.06981 0.43054 0.0
H1122 H 0.73393 0.08812 0.4652 0.0
C1123 C 0.75368 0.09695 0.54244 0.0
C1124 C 0.76301 0.06753 0.50399 0.0
C1125 C 0.75625 0.10157 0.56452 0.0
C1126 C 0.74893 0.07806 0.40356 0.0
C1127 C 0.74614 0.0739 0.42588 0.0
C1128 C 0.74189 0.08198 0.47582 0.0
C1129 C 0.75244 0.08137 0.53713 0.0
C1130 C 0.75154 0.07678 0.5133 0.0
C1131 C 0.7576 0.07562 0.44222 0.0
C1132 C 0.75415 0.07386 0.4664 0.0
H1133 H 0.7564 0.06657 0.58974 0.0
H1134 H 0.7525 0.0584 0.55059 0.0
H1135 H 0.73172 0.0907 0.50597 0.0
H1136 H 0.78579 0.09012 0.40927 0.0
H1137 H 0.78101 0.08262 0.44804 0.0
C1138 C 0.9009 0.77893 0.56556 0.0
C1139 C 0.90338 0.76701 0.58089 0.0
C1140 C 0.90636 0.77791 0.54365 0.0
C1141 C 0.91389 0.75004 0.50047 0.0
H1142 H 0.92747 0.78598 0.46803 0.0
C1143 C 0.91211 0.75392 0.40326 0.0
C1144 C 0.90343 0.7666 0.39635 0.0
C1145 C 0.91735 0.75287 0.42546 0.0
C1146 C 0.92387 0.77578 0.47688 0.0
H1147 H 0.91397 0.74482 0.58552 0.0
H1148 H 0.9233 0.74289 0.54672 0.0
H1149 H 0.92753 0.78607 0.50905 0.0
H1150 H 0.89409 0.78842 0.40687 0.0
H1151 H 0.90328 0.78666 0.44525 0.0
H1152 H 0.90935 0.7401 0.46824 0.0
C1153 C 0.91719 0.75306 0.55188 0.0
C1154 C 0.9239 0.77584 0.50031 0.0
C1155 C 0.91188 0.75419 0.57403 0.0
C1156 C 0.90065 0.77845 0.41171 0.0
C1157 C 0.90606 0.77752 0.43366 0.0
C1158 C 0.91388 0.74998 0.47697 0.0
C1159 C 0.91434 0.76487 0.53644 0.0
C1160 C 0.91818 0.76326 0.51231 0.0
C1161 C 0.91425 0.76463 0.44089 0.0
C1162 C 0.91814 0.76314 0.46501 0.0
H1163 H 0.89448 0.78901 0.57036 0.0
H1164 H 0.90375 0.78709 0.53206 0.0
H1165 H 0.90937 0.74021 0.50929 0.0
H1166 H 0.91442 0.74461 0.39175 0.0
H1167 H 0.92362 0.7428 0.43066 0.0
C1168 C 0.70869 0.58802 0.56408 0.0
C1169 C 0.72035 0.58554 0.57984 0.0
C1170 C 0.71001 0.58241 0.54229 0.0
C1171 C 0.73821 0.57491 0.5 0.0
H1172 H 0.70267 0.5609 0.46699 0.0
C1173 C 0.73402 0.57796 0.40279 0.0
C1174 C 0.72129 0.5868 0.39654 0.0
C1175 C 0.73528 0.57229 0.42474 0.0
C1176 C 0.71278 0.56457 0.476 0.0
H1177 H 0.7424 0.57488 0.58534 0.0
H1178 H 0.7449 0.56535 0.54668 0.0
H1179 H 0.70242 0.56056 0.508 0.0
H1180 H 0.69963 0.59602 0.40789 0.0
H1181 H 0.70174 0.58606 0.44581 0.0
H1182 H 0.74815 0.57991 0.46793 0.0
C1183 C 0.73467 0.57152 0.55145 0.0
C1184 C 0.71263 0.56439 0.49942 0.0
C1185 C 0.73323 0.57695 0.5735 0.0
C1186 C 0.70962 0.58935 0.41226 0.0
C1187 C 0.71075 0.58349 0.43391 0.0
C1188 C 0.73836 0.57509 0.4765 0.0
C1189 C 0.7231 0.57432 0.53562 0.0
C1190 C 0.72501 0.57034 0.51161 0.0
C1191 C 0.72366 0.57509 0.4405 0.0
C1192 C 0.72531 0.5707 0.46437 0.0
H1193 H 0.69858 0.5945 0.56849 0.0
H1194 H 0.70101 0.58497 0.53036 0.0
H1195 H 0.7479 0.5796 0.50899 0.0
H1196 H 0.74317 0.57583 0.39097 0.0
H1197 H 0.74537 0.5659 0.42948 0.0
C1198 C 0.41483 0.73158 0.40283 0.0
C1199 C 0.40662 0.71864 0.39568 0.0
C1200 C 0.41998 0.73266 0.42507 0.0
C1201 C 0.42616 0.7099 0.47696 0.0
H1202 H 0.4106 0.74558 0.50813 0.0
C1203 C 0.40068 0.70737 0.5642 0.0
C1204 C 0.4031 0.71922 0.57969 0.0
C1205 C 0.40664 0.70827 0.54256 0.0
C1206 C 0.4154 0.73573 0.49968 0.0
H1207 H 0.39821 0.69636 0.40572 0.0
H1208 H 0.40718 0.69822 0.44419 0.0
H1209 H 0.41152 0.7454 0.46714 0.0
H1210 H 0.414 0.74119 0.58488 0.0
H1211 H 0.42414 0.74297 0.54648 0.0
H1212 H 0.42905 0.69984 0.50945 0.0
C1213 C 0.40969 0.70752 0.43278 0.0
C1214 C 0.41594 0.73562 0.47619 0.0
C1215 C 0.40439 0.70652 0.41076 0.0
C1216 C 0.41196 0.73189 0.57325 0.0
C1217 C 0.41774 0.73292 0.55135 0.0
C1218 C 0.42559 0.71 0.50038 0.0
C1219 C 0.41724 0.72072 0.44033 0.0
C1220 C 0.4206 0.72241 0.46462 0.0
C1221 C 0.41502 0.72114 0.53578 0.0
C1222 C 0.41948 0.72261 0.51189 0.0
H1223 H 0.41672 0.74109 0.39155 0.0
H1224 H 0.42579 0.74296 0.43047 0.0
H1225 H 0.43008 0.69968 0.46846 0.0
H1226 H 0.394 0.69741 0.5687 0.0
H1227 H 0.40414 0.69913 0.53083 0.0
C1228 C 0.25703 0.38186 0.41489 0.0
C1229 C 0.25725 0.39267 0.39747 0.0
C1230 C 0.25433 0.38642 0.43697 0.0
C1231 C 0.26174 0.41669 0.47504 0.0
H1232 H 0.23422 0.39452 0.51432 0.0
C1233 C 0.24851 0.40634 0.57573 0.0
C1234 C 0.26302 0.4009 0.5819 0.0
C1235 C 0.24544 0.41013 0.55333 0.0
C1236 C 0.24171 0.40108 0.50354 0.0
H1237 H 0.25468 0.41668 0.38937 0.0
H1238 H 0.25056 0.42476 0.42848 0.0
H1239 H 0.2322 0.39134 0.4736 0.0
H1240 H 0.28595 0.39624 0.57006 0.0
H1241 H 0.28069 0.40317 0.53117 0.0
H1242 H 0.27206 0.42547 0.50508 0.0
C1243 C 0.25218 0.41275 0.42479 0.0
C1244 C 0.24061 0.39919 0.48031 0.0
C1245 C 0.25453 0.40813 0.40252 0.0
C1246 C 0.27465 0.4003 0.5657 0.0
C1247 C 0.27167 0.4044 0.5435 0.0
C1248 C 0.26301 0.41839 0.49832 0.0
C1249 C 0.2521 0.4019 0.44216 0.0
C1250 C 0.25097 0.40656 0.46594 0.0
C1251 C 0.25694 0.4089 0.53697 0.0
C1252 C 0.25335 0.41017 0.51277 0.0
H1253 H 0.25899 0.36986 0.41146 0.0
H1254 H 0.25451 0.37787 0.45014 0.0
H1255 H 0.2699 0.42242 0.46427 0.0
H1256 H 0.23935 0.40687 0.58793 0.0
H1257 H 0.23398 0.41354 0.54864 0.0
C1258 C 0.5884 0.27729 0.56617 0.0
C1259 C 0.58499 0.26569 0.58165 0.0
C1260 C 0.58311 0.27642 0.54415 0.0
C1261 C 0.56492 0.27531 0.50119 0.0
H1262 H 0.57823 0.23941 0.46837 0.0
C1263 C 0.57546 0.25372 0.40365 0.0
C1264 C 0.58423 0.26633 0.39676 0.0
C1265 C 0.57037 0.25261 0.42592 0.0
C1266 C 0.57403 0.24934 0.47731 0.0
H1267 H 0.57312 0.24418 0.58634 0.0
H1268 H 0.56415 0.24247 0.54729 0.0
H1269 H 0.57853 0.23924 0.50945 0.0
H1270 H 0.59385 0.28801 0.40739 0.0
H1271 H 0.58496 0.28614 0.44587 0.0
H1272 H 0.56128 0.28575 0.46914 0.0
C1273 C 0.5708 0.25229 0.55246 0.0
C1274 C 0.57422 0.24925 0.50082 0.0
C1275 C 0.57591 0.25329 0.57474 0.0
C1276 C 0.58722 0.27809 0.41221 0.0
C1277 C 0.58198 0.2771 0.43423 0.0
C1278 C 0.56471 0.2754 0.47777 0.0
C1279 C 0.57441 0.26385 0.53698 0.0
C1280 C 0.57039 0.26251 0.5129 0.0
C1281 C 0.57371 0.26426 0.44144 0.0
C1282 C 0.57 0.2627 0.46561 0.0
H1283 H 0.59528 0.28704 0.571 0.0
H1284 H 0.58629 0.28538 0.53249 0.0
H1285 H 0.56166 0.28559 0.51015 0.0
H1286 H 0.57299 0.24449 0.39208 0.0
H1287 H 0.56403 0.24259 0.43109 0.0
C1288 C 0.73467 0.40948 0.9027 0.0
C1289 C 0.72188 0.40072 0.89648 0.0
C1290 C 0.73591 0.4153 0.92457 0.0
C1291 C 0.71336 0.42346 0.97572 0.0
H1292 H 0.74827 0.40811 0.00886 0.0
C1293 C 0.70889 0.39977 0.06354 0.0
C1294 C 0.72057 0.40204 0.07936 0.0
C1295 C 0.71028 0.40552 0.04185 0.0
C1296 C 0.73865 0.4129 -0.00017 0.0
H1297 H 0.70007 0.39185 0.90779 0.0
H1298 H 0.70216 0.40207 0.94557 0.0
H1299 H 0.74862 0.4078 0.96781 0.0
H1300 H 0.74267 0.4125 0.08511 0.0
H1301 H 0.74528 0.42227 0.04661 0.0
H1302 H 0.70296 0.42756 0.00768 0.0
C1303 C 0.71123 0.40446 0.93371 0.0
C1304 C 0.73886 0.41272 0.97633 0.0
C1305 C 0.71012 0.39844 0.91213 0.0
C1306 C 0.7335 0.41059 0.07321 0.0
C1307 C 0.73501 0.41616 0.05126 0.0
C1308 C 0.71317 0.42365 -0.00086 0.0
C1309 C 0.72421 0.41275 0.94028 0.0
C1310 C 0.72586 0.4172 0.96414 0.0
C1311 C 0.72344 0.41354 0.03534 0.0
C1312 C 0.72546 0.41757 0.01138 0.0
H1313 H 0.74389 0.4114 0.89092 0.0
H1314 H 0.74606 0.42161 0.9293 0.0
H1315 H 0.7033 0.42722 0.96666 0.0
H1316 H 0.69874 0.39333 0.06782 0.0
H1317 H 0.70129 0.40309 0.02985 0.0
C1318 C 0.57476 0.73275 0.07411 0.0
C1319 C 0.5834 0.72004 0.08105 0.0
C1320 C 0.56954 0.73381 0.05191 0.0
C1321 C 0.56296 0.71085 0.00056 0.0
H1322 H 0.57718 0.74648 0.96802 0.0
C1323 C 0.58564 0.70779 0.91177 0.0
C1324 C 0.58272 0.71953 0.89628 0.0
C1325 C 0.58039 0.70887 0.93377 0.0
C1326 C 0.57274 0.73663 0.97688 0.0
H1327 H 0.59269 0.69819 0.07054 0.0
H1328 H 0.58355 0.69999 0.03214 0.0
H1329 H 0.57737 0.74658 0.00908 0.0
H1330 H 0.57166 0.74146 0.89154 0.0
H1331 H 0.56273 0.74353 0.93057 0.0
H1332 H 0.55923 0.70054 0.96841 0.0
C1333 C 0.58078 0.70913 0.04373 0.0
C1334 C 0.57285 0.73669 0.00039 0.0
C1335 C 0.58617 0.70818 0.06569 0.0
C1336 C 0.57407 0.73225 0.90315 0.0
C1337 C 0.56899 0.73344 0.92541 0.0
C1338 C 0.56284 0.71079 0.97713 0.0
C1339 C 0.57261 0.72203 0.03649 0.0
C1340 C 0.56868 0.7235 0.01238 0.0
C1341 C 0.57221 0.72178 0.94095 0.0
C1342 C 0.56846 0.72339 0.96509 0.0
H1343 H 0.57246 0.74206 0.08562 0.0
H1344 H 0.56329 0.74389 0.04671 0.0
H1345 H 0.55942 0.70064 0.00943 0.0
H1346 H 0.59218 0.6978 0.90696 0.0
H1347 H 0.58328 0.69981 0.94544 0.0
C1348 C 0.2499 0.57867 0.07669 0.0
C1349 C 0.26417 0.58449 0.08332 0.0
C1350 C 0.24722 0.57489 0.05418 0.0
C1351 C 0.24361 0.58403 0.00461 0.0
H1352 H 0.27273 0.56391 0.96536 0.0
C1353 C 0.25829 0.60389 0.91605 0.0
C1354 C 0.25862 0.59311 0.89857 0.0
C1355 C 0.25592 0.59924 0.93815 0.0
C1356 C 0.26433 0.56929 0.97614 0.0
H1357 H 0.28712 0.58978 0.07216 0.0
H1358 H 0.28252 0.58291 0.03305 0.0
H1359 H 0.27487 0.5608 0.00618 0.0
H1360 H 0.2566 0.56905 0.89039 0.0
H1361 H 0.25304 0.56083 0.92954 0.0
H1362 H 0.23382 0.59349 0.97468 0.0
C1363 C 0.2734 0.58137 0.04512 0.0
C1364 C 0.26559 0.56757 -0.00059 0.0
C1365 C 0.27599 0.58543 0.06746 0.0
C1366 C 0.25636 0.57758 0.90359 0.0
C1367 C 0.25433 0.57288 0.92587 0.0
C1368 C 0.24251 0.58595 0.98139 0.0
C1369 C 0.25887 0.57653 0.03814 0.0
C1370 C 0.25555 0.57535 0.01385 0.0
C1371 C 0.25412 0.5837 0.94329 0.0
C1372 C 0.25318 0.57901 0.96705 0.0
H1373 H 0.24059 0.57785 0.0886 0.0
H1374 H 0.23592 0.57119 0.04915 0.0
H1375 H 0.23581 0.59027 0.01538 0.0
H1376 H 0.25992 0.61594 0.91264 0.0
H1377 H 0.25597 0.60777 0.95137 0.0
C1378 C 0.40972 0.24938 0.90369 0.0
C1379 C 0.40338 0.2635 0.89738 0.0
C1380 C 0.41375 0.24665 0.9261 0.0
C1381 C 0.40548 0.24244 0.97599 0.0
H1382 H 0.42488 0.27231 0.01485 0.0
C1383 C 0.38572 0.25689 0.06456 0.0
C1384 C 0.39652 0.25794 0.08193 0.0
C1385 C 0.39038 0.25432 0.04251 0.0
C1386 C 0.41973 0.26369 0.00418 0.0
H1387 H 0.39729 0.28616 0.90908 0.0
H1388 H 0.40457 0.2815 0.948 0.0
H1389 H 0.42738 0.27462 0.97397 0.0
H1390 H 0.42063 0.25693 0.09002 0.0
H1391 H 0.42888 0.25304 0.05089 0.0
H1392 H 0.3968 0.23224 0.00612 0.0
C1393 C 0.40634 0.27252 0.93574 0.0
C1394 C 0.4211 0.26506 0.98087 0.0
C1395 C 0.40204 0.27513 0.91352 0.0
C1396 C 0.4121 0.25612 0.07689 0.0
C1397 C 0.41681 0.25392 0.05462 0.0
C1398 C 0.40392 0.24123 -0.00074 0.0
C1399 C 0.41182 0.25813 0.94237 0.0
C1400 C 0.41352 0.25475 0.96659 0.0
C1401 C 0.40595 0.25305 0.03729 0.0
C1402 C 0.41058 0.25216 0.01348 0.0
H1403 H 0.41086 0.24021 0.89156 0.0
H1404 H 0.41792 0.23546 0.93085 0.0
H1405 H 0.39942 0.23442 0.96535 0.0
H1406 H 0.37364 0.25816 0.068 0.0
H1407 H 0.38182 0.25389 0.02937 0.0
C1408 C 0.23828 0.03173 0.177 0.0
C1409 C 0.2451 0.04503 0.18557 0.0
C1410 C 0.24068 0.01767 0.18741 0.0
C1411 C 0.2362 -0.00513 0.22457 0.0
H1412 H 0.27381 0.97939 0.25047 0.0
C1413 C 0.23495 0.94946 0.29276 0.0
C1414 C 0.24393 0.93641 0.28898 0.0
C1415 C 0.23719 0.96263 0.28007 0.0
C1416 C 0.26326 0.98358 0.24321 0.0
H1417 H 0.26069 0.05387 0.21076 0.0
H1418 H 0.26474 0.02924 0.22916 0.0
H1419 H 0.27445 0.0021 0.22621 0.0
H1420 H 0.26291 0.92722 0.26985 0.0
H1421 H 0.26685 0.95044 0.24755 0.0
H1422 H 0.22495 0.97661 0.24162 0.0
C1423 C 0.2576 0.02971 0.21431 0.0
C1424 C 0.26361 -0.00344 0.22945 0.0
C1425 C 0.25522 0.04382 0.20384 0.0
C1426 C 0.25578 0.93709 0.27307 0.0
C1427 C 0.25807 0.95037 0.26037 0.0
C1428 C 0.23584 0.98206 0.2384 0.0
C1429 C 0.24991 0.01661 0.20666 0.0
C1430 C 0.25005 0.00235 0.22008 0.0
C1431 C 0.24848 0.96308 0.26334 0.0
C1432 C 0.24931 0.97638 0.24805 0.0
H1433 H 0.23058 0.03226 0.16276 0.0
H1434 H 0.23483 0.0077 0.1809 0.0
H1435 H 0.22552 -0.00083 0.21788 0.0
H1436 H 0.22583 0.94937 0.30504 0.0
H1437 H 0.22982 0.97238 0.28295 0.0
C1438 C 0.93766 0.25921 0.20469 0.0
C1439 C 0.93805 0.24772 0.18819 0.0
C1440 C 0.95095 0.26327 0.2163 0.0
C1441 C -0.00683 0.25926 0.2157 0.0
H1442 H 0.98916 0.25852 0.28059 0.0
C1443 C 0.03165 0.23984 0.29459 0.0
C1444 C 0.04573 0.24653 0.28903 0.0
C1445 C 0.01833 0.24425 0.28347 0.0
C1446 C 0.99046 0.25886 0.2625 0.0
H1447 H 0.95277 0.23202 0.1701 0.0
H1448 H 0.97584 0.239 0.19035 0.0
H1449 H 0.96631 0.25849 0.25718 0.0
H1450 H 0.05677 0.26366 0.26833 0.0
H1451 H 0.03343 0.27139 0.24891 0.0
H1452 H 0.01731 0.25869 0.22097 0.0
C1453 C 0.96534 0.24498 0.19427 0.0
C1454 C 0.97737 0.25901 0.24908 0.0
C1455 C 0.95208 0.24089 0.18278 0.0
C1456 C 0.0461 0.25823 0.27288 0.0
C1457 C 0.03276 0.26262 0.2617 0.0
C1458 C 0.00626 0.25913 0.22911 0.0
C1459 C 0.96487 0.25598 0.21148 0.0
C1460 C 0.9786 0.25868 0.22553 0.0
C1461 C 0.01879 0.25544 0.26654 0.0
C1462 C 0.00503 0.2584 0.25264 0.0
H1463 H 0.92701 0.26472 0.20917 0.0
H1464 H 0.95027 0.27187 0.22935 0.0
H1465 H -0.00553 0.25923 0.1976 0.0
H1466 H 0.03098 0.23082 0.30701 0.0
H1467 H 0.00781 0.23834 0.28742 0.0
C1468 C 0.75074 0.03381 0.29427 0.0
C1469 C 0.74231 0.04696 0.2888 0.0
C1470 C 0.74861 0.02028 0.28232 0.0
C1471 C 0.75126 -0.0002 0.24184 0.0
H1472 H 0.71278 0.98077 0.22574 0.0
C1473 C 0.74974 0.95142 0.17803 0.0
C1474 C 0.74241 0.93804 0.18533 0.0
C1475 C 0.74742 0.9652 0.18925 0.0
C1476 C 0.72358 0.986 0.23014 0.0
H1477 H 0.72433 0.05596 0.26749 0.0
H1478 H 0.72062 0.03215 0.24649 0.0
H1479 H 0.7129 0.00356 0.24994 0.0
H1480 H 0.7261 0.92882 0.20915 0.0
H1481 H 0.7221 0.95303 0.22891 0.0
H1482 H 0.76202 0.9824 0.22232 0.0
C1483 C 0.72887 0.0324 0.26006 0.0
C1484 C 0.72364 -0.00097 0.24385 0.0
C1485 C 0.73104 0.04602 0.27201 0.0
C1486 C 0.73195 0.93894 0.20321 0.0
C1487 C 0.72961 0.95279 0.21445 0.0
C1488 C 0.75119 0.98696 0.22803 0.0
C1489 C 0.73799 0.01957 0.26467 0.0
C1490 C 0.73753 0.00593 0.24999 0.0
C1491 C 0.73772 0.96593 0.20802 0.0
C1492 C 0.73738 0.9799 0.22205 0.0
H1493 H 0.7594 0.0341 0.30727 0.0
H1494 H 0.75561 0.01047 0.28645 0.0
H1495 H 0.76212 0.005 0.24605 0.0
H1496 H 0.75773 0.95115 0.16415 0.0
H1497 H 0.75361 0.97523 0.1837 0.0
C1498 C 0.04696 0.72511 0.20257 0.0
C1499 C 0.04665 0.73699 0.1867 0.0
C1500 C 0.03369 0.72103 0.21418 0.0
C1501 C 0.99156 0.72571 0.21467 0.0
H1502 H -0.00376 0.72529 0.27948 0.0
C1503 C 0.95396 0.74406 0.29494 0.0
C1504 C 0.93983 0.73739 0.28958 0.0
C1505 C 0.96715 0.73979 0.2834 0.0
C1506 C -0.00524 0.72527 0.2614 0.0
H1507 H 0.03208 0.75334 0.16964 0.0
H1508 H 0.00902 0.74627 0.18986 0.0
H1509 H 0.01886 0.72547 0.25558 0.0
H1510 H 0.92858 0.72045 0.26873 0.0
H1511 H 0.9517 0.71299 0.24852 0.0
H1512 H 0.96748 0.72639 0.22049 0.0
C1513 C 0.01945 0.74003 0.19331 0.0
C1514 C 0.00771 0.72521 0.2477 0.0
C1515 C 0.0327 0.74417 0.18183 0.0
C1516 C 0.9393 0.72584 0.27317 0.0
C1517 C 0.95251 0.72161 0.26154 0.0
C1518 C 0.97862 0.72572 0.22836 0.0
C1519 C 0.01987 0.72867 0.20997 0.0
C1520 C 0.00624 0.72594 0.2242 0.0
C1521 C 0.96651 0.72879 0.2662 0.0
C1522 C 0.98009 0.72601 0.25188 0.0
H1523 H 0.05755 0.71933 0.20663 0.0
H1524 H 0.03432 0.71213 0.2268 0.0
H1525 H 0.99008 0.72608 0.1966 0.0
H1526 H 0.95475 0.75296 0.30755 0.0
H1527 H 0.97772 0.74567 0.28723 0.0
C1528 C 0.7279 0.93739 0.76848 0.0
C1529 C 0.73894 0.93715 0.78563 0.0
C1530 C 0.72443 0.95102 0.75733 0.0
C1531 C 0.72938 0.97817 0.72623 0.0
H1532 H 0.72951 0.01744 0.75646 0.0
C1533 C 0.74656 0.03401 0.68258 0.0
C1534 C 0.73949 0.04775 0.68899 0.0
C1535 C 0.74292 0.02035 0.6934 0.0
C1536 C 0.72917 0.00658 0.74774 0.0
H1537 H 0.7545 0.9511 0.80522 0.0
H1538 H 0.74856 0.97478 0.78573 0.0
H1539 H 0.72909 -0.00597 0.7786 0.0
H1540 H 0.72251 0.05781 0.71104 0.0
H1541 H 0.7161 0.03388 0.72988 0.0
H1542 H 0.7297 0.99073 0.69537 0.0
C1543 C 0.74247 0.96451 0.78097 0.0
C1544 C 0.7291 -0.00683 0.76044 0.0
C1545 C 0.74596 0.9509 0.79205 0.0
C1546 C 0.72822 0.04742 0.7058 0.0
C1547 C 0.7246 0.03374 0.71666 0.0
C1548 C 0.72945 0.99159 0.71353 0.0
C1549 C 0.73188 0.96468 0.7632 0.0
C1550 C 0.72963 0.97882 0.74984 0.0
C1551 C 0.73213 0.02011 0.71089 0.0
C1552 C 0.72976 0.00594 0.72415 0.0
H1553 H 0.72225 0.92698 0.76321 0.0
H1554 H 0.7161 0.95083 0.74387 0.0
H1555 H 0.72988 0.96731 0.71753 0.0
H1556 H 0.75527 0.03388 0.66966 0.0
H1557 H 0.74908 0.0101 0.68872 0.0
C1558 C 0.95204 0.74404 0.68318 0.0
C1559 C 0.93785 0.73758 0.68869 0.0
C1560 C 0.9652 0.73975 0.69477 0.0
C1561 C -0.00732 0.72514 0.71678 0.0
H1562 H 0.9884 0.72702 0.78158 0.0
C1563 C 0.04533 0.7264 0.77452 0.0
C1564 C 0.04505 0.73852 0.79002 0.0
C1565 C 0.03198 0.72194 0.76341 0.0
C1566 C 0.98977 0.72634 0.76352 0.0
H1567 H 0.92643 0.72101 0.70993 0.0
H1568 H 0.94951 0.71353 0.7303 0.0
H1569 H 0.96565 0.72705 0.75795 0.0
H1570 H 0.03046 0.75491 0.80697 0.0
H1571 H 0.00727 0.74724 0.78755 0.0
H1572 H 0.0168 0.72538 0.72228 0.0
C1573 C 0.95038 0.72199 0.71708 0.0
C1574 C 0.97674 0.7262 0.74998 0.0
C1575 C 0.9372 0.72624 0.70537 0.0
C1576 C 0.03106 0.74556 0.79505 0.0
C1577 C 0.01773 0.74107 0.78404 0.0
C1578 C 0.0057 0.72527 0.73031 0.0
C1579 C 0.96446 0.72893 0.71219 0.0
C1580 C 0.97808 0.72614 0.72644 0.0
C1581 C 0.01811 0.72947 0.76771 0.0
C1582 C 0.00439 0.72641 0.75379 0.0
H1583 H 0.95292 0.75278 0.67036 0.0
H1584 H 0.97582 0.74546 0.69079 0.0
H1585 H -0.00595 0.72489 0.69869 0.0
H1586 H 0.05595 0.7207 0.77037 0.0
H1587 H 0.03259 0.71286 0.75107 0.0
C1588 C 0.23527 0.95166 0.68509 0.0
C1589 C 0.24371 0.93847 0.69024 0.0
C1590 C 0.23748 0.9651 0.69724 0.0
C1591 C 0.26283 0.98603 0.73556 0.0
H1592 H 0.22471 0.00311 0.75732 0.0
C1593 C 0.23735 0.03439 0.80088 0.0
C1594 C 0.24492 0.04759 0.7934 0.0
C1595 C 0.2395 0.02047 0.78992 0.0
C1596 C 0.23547 -0.00158 0.75157 0.0
H1597 H 0.26176 0.92927 0.71124 0.0
H1598 H 0.26562 0.95292 0.73257 0.0
H1599 H 0.22429 0.98047 0.73369 0.0
H1600 H 0.26148 0.05633 0.76957 0.0
H1601 H 0.26515 0.03191 0.75027 0.0
H1602 H 0.27396 0.0042 0.75351 0.0
C1603 C 0.2573 0.95277 0.7191 0.0
C1604 C 0.23521 0.98556 0.73781 0.0
C1605 C 0.25505 0.93925 0.70695 0.0
C1606 C 0.25545 0.04636 0.77566 0.0
C1607 C 0.2576 0.03238 0.76467 0.0
C1608 C 0.26308 -0.00093 0.74924 0.0
C1609 C 0.2482 0.96567 0.71478 0.0
C1610 C 0.24885 0.97927 0.72955 0.0
C1611 C 0.24924 0.01943 0.77124 0.0
C1612 C 0.24938 0.00536 0.75739 0.0
H1613 H 0.22656 0.9515 0.67217 0.0
H1614 H 0.23049 0.97496 0.69331 0.0
H1615 H 0.2735 0.98139 0.72938 0.0
H1616 H 0.2293 0.03491 0.81467 0.0
H1617 H 0.23311 0.0106 0.7956 0.0
C1618 C 0.95362 0.24026 0.7941 0.0
C1619 C 0.9396 0.2471 0.78861 0.0
C1620 C 0.96694 0.24443 0.78281 0.0
C1621 C -0.00513 0.25883 0.76177 0.0
H1622 H 0.99098 0.2592 0.69685 0.0
C1623 C 0.04785 0.25973 0.70456 0.0
C1624 C 0.04766 0.24839 0.68782 0.0
C1625 C 0.03446 0.2636 0.71602 0.0
C1626 C 0.99225 0.25922 0.71496 0.0
H1627 H 0.92865 0.26421 0.76772 0.0
H1628 H 0.95199 0.27152 0.74797 0.0
H1629 H 0.9681 0.25859 0.72012 0.0
H1630 H 0.03316 0.23279 0.66917 0.0
H1631 H 0.0099 0.23943 0.68921 0.0
H1632 H 0.01903 0.25856 0.75659 0.0
C1633 C 0.95262 0.26282 0.76088 0.0
C1634 C 0.97913 0.25904 0.72831 0.0
C1635 C 0.93928 0.25868 0.77225 0.0
C1636 C 0.0337 0.24154 0.68203 0.0
C1637 C 0.02033 0.24544 0.69341 0.0
C1638 C 0.00798 0.25902 0.74842 0.0
C1639 C 0.96654 0.25552 0.76573 0.0
C1640 C 0.98032 0.25835 0.75184 0.0
C1641 C 0.02062 0.25626 0.71088 0.0
C1642 C 0.00681 0.25873 0.72486 0.0
H1643 H 0.95425 0.23133 0.80666 0.0
H1644 H 0.97742 0.23844 0.78676 0.0
H1645 H -0.00386 0.25852 0.77987 0.0
H1646 H 0.05844 0.26525 0.70933 0.0
H1647 H 0.03501 0.2721 0.72924 0.0
C1648 C 0.73596 0.53417 0.67963 0.0
C1649 C 0.744 0.54737 0.686 0.0
C1650 C 0.73814 0.52047 0.69112 0.0
C1651 C 0.73501 0.49924 0.73065 0.0
H1652 H 0.7735 0.4813 0.74928 0.0
C1653 C 0.73629 0.45152 0.79555 0.0
C1654 C 0.74423 0.43827 0.78911 0.0
C1655 C 0.7384 0.46518 0.78394 0.0
C1656 C 0.76269 0.48622 0.74414 0.0
H1657 H 0.76136 0.55632 0.70843 0.0
H1658 H 0.76514 0.53225 0.72863 0.0
H1659 H 0.77346 0.5041 0.72516 0.0
H1660 H 0.76134 0.4292 0.76638 0.0
H1661 H 0.76499 0.45321 0.74598 0.0
H1662 H 0.72418 0.48154 0.74946 0.0
C1663 C 0.75717 0.53257 0.7147 0.0
C1664 C 0.76267 0.49925 0.73047 0.0
C1665 C 0.75496 0.54634 0.7032 0.0
C1666 C 0.75502 0.43921 0.77167 0.0
C1667 C 0.75716 0.45295 0.76005 0.0
C1668 C 0.73503 0.4864 0.74442 0.0
C1669 C 0.74841 0.51965 0.70922 0.0
C1670 C 0.7488 0.50581 0.7235 0.0
C1671 C 0.7485 0.46592 0.76566 0.0
C1672 C 0.74884 0.47975 0.75134 0.0
H1673 H 0.72755 0.53453 0.66629 0.0
H1674 H 0.73143 0.5106 0.6863 0.0
H1675 H 0.72414 0.50417 0.72581 0.0
H1676 H 0.72802 0.45122 0.80907 0.0
H1677 H 0.73177 0.47509 0.78885 0.0
C1678 C 0.54557 0.7591 0.7733 0.0
C1679 C 0.54527 0.74741 0.78949 0.0
C1680 C 0.53224 0.76326 0.76192 0.0
C1681 C 0.49001 0.75892 0.7622 0.0
H1682 H 0.49434 0.75925 0.69734 0.0
C1683 C 0.45205 0.74078 0.68203 0.0
C1684 C 0.43795 0.74748 0.68748 0.0
C1685 C 0.46526 0.74494 0.69361 0.0
C1686 C 0.49295 0.75929 0.71543 0.0
H1687 H 0.53066 0.7315 0.8073 0.0
H1688 H 0.5075 0.73864 0.78737 0.0
H1689 H 0.51707 0.75897 0.72097 0.0
H1690 H 0.42675 0.76432 0.70856 0.0
H1691 H 0.44992 0.7716 0.72883 0.0
H1692 H 0.4659 0.75832 0.75663 0.0
C1693 C 0.51796 0.7447 0.78355 0.0
C1694 C 0.50597 0.7593 0.72899 0.0
C1695 C 0.53127 0.74052 0.79487 0.0
C1696 C 0.43745 0.75891 0.70406 0.0
C1697 C 0.45069 0.76304 0.71572 0.0
C1698 C 0.47699 0.75893 0.74865 0.0
C1699 C 0.51835 0.75587 0.76659 0.0
C1700 C 0.50464 0.7586 0.75251 0.0
C1701 C 0.46468 0.75586 0.71092 0.0
C1702 C 0.47834 0.7586 0.72511 0.0
H1703 H 0.55619 0.76468 0.76888 0.0
H1704 H 0.53285 0.77202 0.7491 0.0
H1705 H 0.48863 0.7586 0.78028 0.0
H1706 H 0.45281 0.73196 0.6693 0.0
H1707 H 0.47581 0.73905 0.68968 0.0
C1708 C 0.23215 0.43942 0.7083 0.0
C1709 C 0.24342 0.43871 0.69149 0.0
C1710 C 0.22988 0.45292 0.7205 0.0
C1711 C 0.25175 0.48583 0.73921 0.0
H1712 H 0.21285 0.50428 0.75463 0.0
C1713 C 0.23093 0.54669 0.77611 0.0
C1714 C 0.24138 0.54816 0.79392 0.0
C1715 C 0.22895 0.5326 0.76536 0.0
C1716 C 0.22377 0.49921 0.75045 0.0
H1717 H 0.26047 0.45181 0.67338 0.0
H1718 H 0.25651 0.47524 0.69465 0.0
H1719 H 0.2135 0.48142 0.73065 0.0
H1720 H 0.25709 0.53582 0.81551 0.0
H1721 H 0.2536 0.51131 0.7968 0.0
H1722 H 0.2621 0.50351 0.75867 0.0
C1723 C 0.24958 0.46534 0.69858 0.0
C1724 C 0.22413 0.48613 0.73685 0.0
C1725 C 0.2518 0.45194 0.68635 0.0
C1726 C 0.24908 0.5351 0.80168 0.0
C1727 C 0.24712 0.52107 0.79093 0.0
C1728 C 0.25138 0.49872 0.75292 0.0
C1729 C 0.2389 0.46585 0.71616 0.0
C1730 C 0.23816 0.47945 0.73092 0.0
C1731 C 0.23743 0.51979 0.77221 0.0
C1732 C 0.23742 0.50561 0.75861 0.0
H1733 H 0.22549 0.42942 0.71259 0.0
H1734 H 0.22159 0.45301 0.734 0.0
H1735 H 0.26271 0.4808 0.73515 0.0
H1736 H 0.22479 0.55654 0.76981 0.0
H1737 H 0.22144 0.53195 0.75092 0.0
C1738 C 0.4537 0.2433 0.79486 0.0
C1739 C 0.43947 0.23694 0.78932 0.0
C1740 C 0.46682 0.23896 0.78321 0.0
C1741 C 0.4942 0.22438 0.7609 0.0
H1742 H 0.4896 0.22598 0.69612 0.0
C1743 C 0.54659 0.22522 0.70284 0.0
C1744 C 0.54629 0.23722 0.68715 0.0
C1745 C 0.53327 0.22086 0.71404 0.0
C1746 C 0.49105 0.22539 0.71418 0.0
H1747 H 0.42794 0.22043 0.76804 0.0
H1748 H 0.45094 0.21284 0.74765 0.0
H1749 H 0.46697 0.22617 0.71997 0.0
H1750 H 0.53167 0.25344 0.66993 0.0
H1751 H 0.50851 0.24595 0.68956 0.0
H1752 H 0.51829 0.22455 0.75518 0.0
C1753 C 0.45189 0.22129 0.76088 0.0
C1754 C 0.4781 0.22533 0.72784 0.0
C1755 C 0.43874 0.2256 0.77262 0.0
C1756 C 0.53229 0.24419 0.68199 0.0
C1757 C 0.51898 0.23981 0.69313 0.0
C1758 C 0.50715 0.22442 0.74724 0.0
C1759 C 0.466 0.22818 0.76573 0.0
C1760 C 0.47955 0.22536 0.75137 0.0
C1761 C 0.51939 0.22836 0.70968 0.0
C1762 C 0.50572 0.22546 0.72376 0.0
H1763 H 0.45464 0.25204 0.80769 0.0
H1764 H 0.47748 0.24463 0.78718 0.0
H1765 H 0.49566 0.22418 0.77898 0.0
H1766 H 0.55721 0.21956 0.70707 0.0
H1767 H 0.5339 0.21188 0.72653 0.0
C1768 C 0.25091 0.53445 0.18715 0.0
C1769 C 0.24215 0.54749 0.19192 0.0
C1770 C 0.24869 0.52098 0.1992 0.0
C1771 C 0.22289 0.49958 0.23609 0.0
H1772 H 0.26078 0.48298 0.25949 0.0
C1773 C 0.24772 0.45077 0.30124 0.0
C1774 C 0.24051 0.43759 0.29294 0.0
C1775 C 0.24561 0.46483 0.29068 0.0
C1776 C 0.25008 0.48755 0.2533 0.0
H1777 H 0.22354 0.5564 0.21211 0.0
H1778 H 0.21965 0.53269 0.23325 0.0
H1779 H 0.26135 0.50581 0.23629 0.0
H1780 H 0.22457 0.42901 0.26802 0.0
H1781 H 0.22097 0.45366 0.24944 0.0
H1782 H 0.21168 0.48107 0.2531 0.0
C1783 C 0.22824 0.53298 0.22017 0.0
C1784 C 0.25043 0.50051 0.23978 0.0
C1785 C 0.23051 0.54653 0.20813 0.0
C1786 C 0.23034 0.43896 0.27474 0.0
C1787 C 0.22822 0.45308 0.26417 0.0
C1788 C 0.22255 0.48643 0.24951 0.0
C1789 C 0.23764 0.52024 0.21624 0.0
C1790 C 0.23688 0.5066 0.23089 0.0
C1791 C 0.23624 0.46603 0.2716 0.0
C1792 C 0.23617 0.48031 0.25822 0.0
H1793 H 0.25987 0.53475 0.17462 0.0
H1794 H 0.25592 0.51124 0.19557 0.0
H1795 H 0.21229 0.50407 0.22941 0.0
H1796 H 0.25549 0.45013 0.31538 0.0
H1797 H 0.25173 0.4747 0.297 0.0
C1798 C 0.53298 0.24567 0.29584 0.0
C1799 C 0.54684 0.23863 0.29006 0.0
C1800 C 0.51952 0.24183 0.28462 0.0
C1801 C 0.49122 0.22806 0.26371 0.0
H1802 H 0.49465 0.22795 0.19873 0.0
C1803 C 0.43782 0.22769 0.20733 0.0
C1804 C 0.43794 0.23892 0.19045 0.0
C1805 C 0.45127 0.2238 0.21861 0.0
C1806 C 0.49351 0.22788 0.21686 0.0
H1807 H 0.55737 0.2215 0.26874 0.0
H1808 H 0.53378 0.21474 0.24913 0.0
H1809 H 0.5177 0.22814 0.22169 0.0
H1810 H 0.45237 0.25435 0.17143 0.0
H1811 H 0.47575 0.2477 0.19122 0.0
H1812 H 0.46704 0.22868 0.25888 0.0
C1813 C 0.53338 0.22335 0.26221 0.0
C1814 C 0.50672 0.22782 0.23002 0.0
C1815 C 0.54686 0.22717 0.2735 0.0
C1816 C 0.45189 0.24567 0.18439 0.0
C1817 C 0.46532 0.24177 0.19563 0.0
C1818 C 0.47801 0.22812 0.25055 0.0
C1819 C 0.51963 0.23086 0.26735 0.0
C1820 C 0.50571 0.22837 0.25359 0.0
C1821 C 0.46511 0.23104 0.2132 0.0
C1822 C 0.47902 0.22849 0.22697 0.0
H1823 H 0.53258 0.25453 0.30855 0.0
H1824 H 0.50917 0.24797 0.28881 0.0
H1825 H 0.49008 0.22828 0.28183 0.0
H1826 H 0.42725 0.22222 0.21229 0.0
H1827 H 0.45078 0.21536 0.23189 0.0
C1828 C 0.75449 0.54724 0.27227 0.0
C1829 C 0.74385 0.54823 0.2899 0.0
C1830 C 0.75671 0.53341 0.26091 0.0
C1831 C 0.7348 0.49957 0.24646 0.0
H1832 H 0.77316 0.4825 0.22566 0.0
C1833 C 0.75494 0.44019 0.2034 0.0
C1834 C 0.74379 0.43923 0.18645 0.0
C1835 C 0.7571 0.45386 0.21523 0.0
C1836 C 0.7624 0.48716 0.23142 0.0
H1837 H 0.72803 0.5353 0.31051 0.0
H1838 H 0.73192 0.51125 0.29075 0.0
H1839 H 0.77325 0.50527 0.24987 0.0
H1840 H 0.72693 0.45208 0.16753 0.0
H1841 H 0.73071 0.47581 0.18812 0.0
H1842 H 0.72389 0.48167 0.22813 0.0
C1843 C 0.73837 0.52119 0.28548 0.0
C1844 C 0.76244 0.50018 0.24515 0.0
C1845 C 0.73617 0.53495 0.29683 0.0
C1846 C 0.7355 0.45239 0.18067 0.0
C1847 C 0.73762 0.46598 0.19249 0.0
C1848 C 0.73475 0.48674 0.23263 0.0
C1849 C 0.74828 0.52039 0.26697 0.0
C1850 C 0.74862 0.50645 0.25285 0.0
C1851 C 0.74809 0.46672 0.21033 0.0
C1852 C 0.74851 0.48043 0.2249 0.0
H1853 H 0.76061 0.55727 0.26662 0.0
H1854 H 0.76439 0.53311 0.24666 0.0
H1855 H 0.72396 0.50427 0.25187 0.0
H1856 H 0.76154 0.43024 0.20818 0.0
H1857 H 0.76524 0.45413 0.22894 0.0
C1858 C 0.43921 0.76145 0.27225 0.0
C1859 C 0.43987 0.74973 0.28837 0.0
C1860 C 0.45236 0.76581 0.26055 0.0
C1861 C 0.47857 0.7622 0.22721 0.0
H1862 H 0.51872 0.76206 0.25472 0.0
C1863 C 0.5327 0.74359 0.1809 0.0
C1864 C 0.54678 0.75028 0.18643 0.0
C1865 C 0.5194 0.74796 0.1921 0.0
C1866 C 0.50761 0.76245 0.24675 0.0
H1867 H 0.4549 0.73395 0.3057 0.0
H1868 H 0.47773 0.74147 0.28531 0.0
H1869 H 0.49605 0.76212 0.27843 0.0
H1870 H 0.55785 0.76744 0.2071 0.0
H1871 H 0.53455 0.7751 0.22669 0.0
H1872 H 0.49014 0.76209 0.19551 0.0
C1873 C 0.46714 0.74738 0.28175 0.0
C1874 C 0.49462 0.76232 0.26035 0.0
C1875 C 0.45402 0.74298 0.29332 0.0
C1876 C 0.54717 0.76201 0.20257 0.0
C1877 C 0.53386 0.76636 0.21384 0.0
C1878 C 0.49157 0.76231 0.2136 0.0
C1879 C 0.4664 0.75861 0.26491 0.0
C1880 C 0.47998 0.76166 0.25072 0.0
C1881 C 0.51989 0.75912 0.20909 0.0
C1882 C 0.50622 0.76191 0.22323 0.0
H1883 H 0.42846 0.7669 0.26813 0.0
H1884 H 0.45148 0.77458 0.24778 0.0
H1885 H 0.46746 0.76162 0.21926 0.0
H1886 H 0.53201 0.73456 0.16849 0.0
H1887 H 0.50888 0.74202 0.18821 0.0
C1888 C 0.18953 0.10697 0.22392 0.0
C1889 C 0.19008 0.10595 0.20041 0.0
C1890 C 0.17784 0.11519 0.23445 0.0
C1891 C 0.14025 0.13434 0.2235 0.0
H1892 H 0.15176 0.15826 0.27568 0.0
C1893 C 0.10784 0.18773 0.25685 0.0
C1894 C 0.10512 0.18808 0.28011 0.0
C1895 C 0.11668 0.17605 0.24742 0.0
C1896 C 0.14836 0.15152 0.26124 0.0
H1897 H 0.17874 0.11247 0.16945 0.0
H1898 H 0.15886 0.12729 0.18761 0.0
H1899 H 0.17021 0.14085 0.25899 0.0
H1900 H 0.10914 0.17627 0.31164 0.0
H1901 H 0.12484 0.15614 0.29519 0.0
H1902 H 0.11861 0.14579 0.2253 0.0
C1903 C 0.16707 0.12142 0.19811 0.0
C1904 C 0.15889 0.14145 0.25172 0.0
C1905 C 0.17857 0.11299 0.18764 0.0
C1906 C 0.11104 0.17632 0.29365 0.0
C1907 C 0.12006 0.16483 0.2843 0.0
C1908 C 0.12982 0.14465 0.2328 0.0
C1909 C 0.16663 0.12279 0.22166 0.0
C1910 C 0.15503 0.13277 0.23263 0.0
C1911 C 0.12313 0.16471 0.26117 0.0
C1912 C 0.13383 0.15335 0.25169 0.0
H1913 H 0.19819 0.10154 0.23417 0.0
H1914 H 0.17771 0.11569 0.25263 0.0
H1915 H 0.13673 0.12765 0.20909 0.0
H1916 H 0.10339 0.19663 0.24602 0.0
H1917 H 0.11897 0.17622 0.22953 0.0
C1918 C 0.87805 0.17757 0.19095 0.0
C1919 C 0.87805 0.19247 0.19979 0.0
C1920 C 0.86965 0.166 0.20131 0.0
C1921 C 0.84925 0.15576 0.25385 0.0
H1922 H 0.82504 0.13034 0.21405 0.0
C1923 C 0.79163 0.11679 0.25842 0.0
C1924 C 0.79422 0.10908 0.27875 0.0
C1925 C 0.80329 0.12525 0.24836 0.0
C1926 C 0.8317 0.13736 0.22539 0.0
H1927 H 0.86976 0.20677 0.22693 0.0
H1928 H 0.85492 0.18664 0.24486 0.0
H1929 H 0.84297 0.14867 0.19824 0.0
H1930 H 0.81125 0.1036 0.30396 0.0
H1931 H 0.83167 0.11816 0.28623 0.0
H1932 H 0.83749 0.14494 0.28099 0.0
C1933 C 0.86154 0.18384 0.23006 0.0
C1934 C 0.84213 0.14774 0.21634 0.0
C1935 C 0.86999 0.19541 0.21972 0.0
C1936 C 0.80887 0.1095 0.28837 0.0
C1937 C 0.82055 0.11793 0.27829 0.0
C1938 C 0.8388 0.1454 0.2629 0.0
C1939 C 0.86104 0.16907 0.22072 0.0
C1940 C 0.85088 0.15721 0.23046 0.0
C1941 C 0.81781 0.12613 0.25839 0.0
C1942 C 0.82976 0.13623 0.24877 0.0
H1943 H 0.88426 0.17492 0.17569 0.0
H1944 H 0.86972 0.15468 0.19393 0.0
H1945 H 0.85594 0.16277 0.26519 0.0
H1946 H 0.78044 0.11669 0.25059 0.0
H1947 H 0.80074 0.13156 0.23316 0.0
C1948 C 0.87358 0.80634 0.28992 0.0
C1949 C 0.88057 0.79454 0.27767 0.0
C1950 C 0.86495 0.81749 0.27897 0.0
C1951 C 0.84441 0.82398 0.22523 0.0
H1952 H 0.83967 0.8649 0.24938 0.0
C1953 C 0.80875 0.87042 0.18111 0.0
C1954 C 0.79699 0.87647 0.19449 0.0
C1955 C 0.82039 0.86173 0.19078 0.0
C1956 C 0.84093 0.8535 0.2425 0.0
H1957 H 0.88474 0.78558 0.24431 0.0
H1958 H 0.8703 0.80545 0.22498 0.0
H1959 H 0.85813 0.84745 0.26639 0.0
H1960 H 0.78852 0.87879 0.22855 0.0
H1961 H 0.80918 0.86383 0.24557 0.0
H1962 H 0.8274 0.83026 0.20107 0.0
C1963 C 0.87094 0.80581 0.24314 0.0
C1964 C 0.85142 0.84345 0.25228 0.0
C1965 C 0.87933 0.79447 0.25416 0.0
C1966 C 0.79743 0.87421 0.21785 0.0
C1967 C 0.80924 0.86573 0.22758 0.0
C1968 C 0.83416 0.83413 0.21523 0.0
C1969 C 0.86335 0.81728 0.25544 0.0
C1970 C 0.85313 0.82846 0.24398 0.0
C1971 C 0.82063 0.85917 0.21405 0.0
C1972 C 0.83219 0.84889 0.22395 0.0
H1973 H 0.87427 0.80663 0.30809 0.0
H1974 H 0.8591 0.82593 0.28911 0.0
H1975 H 0.8451 0.81248 0.21861 0.0
H1976 H 0.80871 0.87196 0.16304 0.0
H1977 H 0.8291 0.85684 0.18005 0.0
C1978 C 0.17873 0.87307 0.28856 0.0
C1979 C 0.19378 0.87289 0.28039 0.0
C1980 C 0.1675 0.86399 0.27857 0.0
C1981 C 0.16365 0.82849 0.24688 0.0
H1982 H 0.12226 0.84226 0.23538 0.0
C1983 C 0.11634 0.78639 0.22202 0.0
C1984 C 0.1079 0.79048 0.20287 0.0
C1985 C 0.12567 0.7971 0.23271 0.0
C1986 C 0.13378 0.83828 0.2385 0.0
H1987 H 0.20875 0.86356 0.25479 0.0
H1988 H 0.18912 0.84767 0.23737 0.0
H1989 H 0.1412 0.86028 0.25005 0.0
H1990 H 0.10192 0.80921 0.18067 0.0
H1991 H 0.11818 0.82792 0.19941 0.0
H1992 H 0.15634 0.80656 0.23522 0.0
C1993 C 0.18606 0.85473 0.25164 0.0
C1994 C 0.14458 0.84855 0.24698 0.0
C1995 C 0.19726 0.86389 0.26152 0.0
C1996 C 0.10834 0.8057 0.19535 0.0
C1997 C 0.1176 0.81644 0.20613 0.0
C1998 C 0.15285 0.81822 0.2386 0.0
C1999 C 0.17114 0.85449 0.26032 0.0
C2000 C 0.15964 0.84376 0.25112 0.0
C2001 C 0.12665 0.81214 0.22456 0.0
C2002 C 0.13782 0.823 0.23427 0.0
H2003 H 0.17569 0.87993 0.30305 0.0
H2004 H 0.15611 0.86397 0.28568 0.0
H2005 H 0.17511 0.82443 0.25018 0.0
H2006 H 0.11618 0.77477 0.22828 0.0
H2007 H 0.13237 0.79354 0.2471 0.0
C2008 C 0.88027 0.80912 0.6926 0.0
C2009 C 0.87934 0.79411 0.70088 0.0
C2010 C 0.87224 0.82095 0.70301 0.0
C2011 C 0.85062 0.83121 0.75469 0.0
H2012 H 0.82884 0.85829 0.71425 0.0
C2013 C 0.80924 0.87695 0.78831 0.0
C2014 C 0.79511 0.87783 0.77718 0.0
C2015 C 0.82138 0.86884 0.77881 0.0
C2016 C 0.83483 0.85082 0.72577 0.0
H2017 H 0.8698 0.77986 0.72712 0.0
H2018 H 0.85554 0.80042 0.74505 0.0
H2019 H 0.84678 0.83975 0.69904 0.0
H2020 H 0.7828 0.87146 0.74697 0.0
H2021 H 0.80384 0.85712 0.73058 0.0
H2022 H 0.83805 0.84174 0.78131 0.0
C2023 C 0.86264 0.80312 0.7307 0.0
C2024 C 0.84527 0.8403 0.71708 0.0
C2025 C 0.87075 0.7913 0.72036 0.0
C2026 C 0.79355 0.87099 0.75595 0.0
C2027 C 0.80566 0.86284 0.7465 0.0
C2028 C 0.84012 0.84168 0.76337 0.0
C2029 C 0.86304 0.81803 0.72188 0.0
C2030 C 0.8531 0.83019 0.7314 0.0
C2031 C 0.81962 0.86142 0.75801 0.0
C2032 C 0.8319 0.85142 0.74897 0.0
H2033 H 0.88691 0.81167 0.67772 0.0
H2034 H 0.87304 0.83235 0.69604 0.0
H2035 H 0.85661 0.82374 0.76621 0.0
H2036 H 0.81082 0.8822 0.80463 0.0
H2037 H 0.83206 0.8682 0.78793 0.0
C2038 C 0.19387 0.86834 0.71886 0.0
C2039 C 0.19151 0.8764 0.69877 0.0
C2040 C 0.18201 0.85989 0.72846 0.0
C2041 C 0.15312 0.84813 0.75067 0.0
H2042 H 0.12851 0.82386 0.70985 0.0
C2043 C 0.10508 0.80945 0.78345 0.0
C2044 C 0.10472 0.79457 0.77456 0.0
C2045 C 0.11392 0.82077 0.77331 0.0
C2046 C 0.1353 0.83054 0.72146 0.0
H2047 H 0.17471 0.88254 0.67352 0.0
H2048 H 0.15398 0.86801 0.69047 0.0
H2049 H 0.14768 0.84124 0.69481 0.0
H2050 H 0.11277 0.78008 0.74746 0.0
H2051 H 0.12837 0.7998 0.7299 0.0
H2052 H 0.14119 0.83698 0.77734 0.0
C2053 C 0.16506 0.86793 0.69856 0.0
C2054 C 0.14617 0.84064 0.71285 0.0
C2055 C 0.17691 0.87634 0.68894 0.0
C2056 C 0.11281 0.79144 0.75471 0.0
C2057 C 0.12171 0.80277 0.7446 0.0
C2058 C 0.14227 0.83802 0.75928 0.0
C2059 C 0.16754 0.85939 0.7182 0.0
C2060 C 0.15532 0.84942 0.72737 0.0
C2061 C 0.12263 0.81747 0.75408 0.0
C2062 C 0.13335 0.82899 0.74478 0.0
H2063 H 0.205 0.86815 0.72681 0.0
H2064 H 0.18435 0.85331 0.74349 0.0
H2065 H 0.15987 0.85485 0.76229 0.0
H2066 H 0.09886 0.81225 0.79863 0.0
H2067 H 0.11414 0.83206 0.78077 0.0
C2068 C 0.11049 0.1916 0.72035 0.0
C2069 C 0.10781 0.19162 0.69707 0.0
C2070 C 0.1192 0.17999 0.73019 0.0
C2071 C 0.15069 0.15504 0.71747 0.0
H2072 H 0.13845 0.13169 0.76977 0.0
C2073 C 0.19112 0.11036 0.75601 0.0
C2074 C 0.19147 0.1094 0.77954 0.0
C2075 C 0.17962 0.11866 0.74522 0.0
C2076 C 0.14215 0.13824 0.75533 0.0
H2077 H 0.11179 0.17932 0.66592 0.0
H2078 H 0.12729 0.1593 0.68308 0.0
H2079 H 0.12061 0.14985 0.75295 0.0
H2080 H 0.17997 0.11615 0.81025 0.0
H2081 H 0.1604 0.13114 0.79164 0.0
H2082 H 0.17243 0.14422 0.7203 0.0
C2083 C 0.12256 0.16819 0.69367 0.0
C2084 C 0.13188 0.14855 0.74567 0.0
C2085 C 0.11365 0.17962 0.68392 0.0
C2086 C 0.17995 0.11661 0.79206 0.0
C2087 C 0.16863 0.12514 0.78133 0.0
C2088 C 0.16106 0.14497 0.72734 0.0
C2089 C 0.12556 0.16839 0.71682 0.0
C2090 C 0.1361 0.15706 0.72671 0.0
C2091 C 0.16839 0.12643 0.75776 0.0
C2092 C 0.15697 0.13647 0.74649 0.0
H2093 H 0.10608 0.20069 0.73088 0.0
H2094 H 0.12144 0.18039 0.74808 0.0
H2095 H 0.15425 0.16162 0.70297 0.0
H2096 H 0.1998 0.10478 0.74596 0.0
H2097 H 0.17963 0.11908 0.72704 0.0
C2098 C 0.87516 0.17731 0.79141 0.0
C2099 C 0.88017 0.18986 0.77866 0.0
C2100 C 0.86656 0.16573 0.78145 0.0
C2101 C 0.85635 0.14733 0.72848 0.0
H2102 H 0.81723 0.14011 0.75704 0.0
C2103 C 0.80737 0.11524 0.68402 0.0
C2104 C 0.79674 0.10717 0.69708 0.0
C2105 C 0.81899 0.12365 0.69428 0.0
C2106 C 0.82823 0.14165 0.74906 0.0
H2107 H 0.88077 0.19975 0.74528 0.0
H2108 H 0.86589 0.17925 0.72773 0.0
H2109 H 0.83529 0.15767 0.77418 0.0
H2110 H 0.79042 0.10077 0.73097 0.0
H2111 H 0.81111 0.11485 0.74892 0.0
H2112 H 0.84946 0.13116 0.70351 0.0
C2113 C 0.86858 0.17851 0.74547 0.0
C2114 C 0.83853 0.15182 0.75886 0.0
C2115 C 0.87701 0.19024 0.75552 0.0
C2116 C 0.79837 0.10704 0.72052 0.0
C2117 C 0.81017 0.11522 0.73079 0.0
C2118 C 0.84614 0.13693 0.71884 0.0
C2119 C 0.863 0.16634 0.75848 0.0
C2120 C 0.8526 0.15488 0.74854 0.0
C2121 C 0.8204 0.12397 0.71784 0.0
C2122 C 0.83184 0.1341 0.72886 0.0
H2123 H 0.87744 0.17667 0.80929 0.0
H2124 H 0.86248 0.1564 0.79178 0.0
H2125 H 0.86721 0.14944 0.72033 0.0
H2126 H 0.80633 0.1156 0.66588 0.0
H2127 H 0.82646 0.13038 0.68372 0.0
C2128 C 0.67929 0.61636 0.68456 0.0
C2129 C 0.69091 0.60946 0.69726 0.0
C2130 C 0.66786 0.62487 0.69507 0.0
C2131 C 0.65989 0.64511 0.74867 0.0
H2132 H 0.61928 0.64874 0.72311 0.0
C2133 C 0.61154 0.67837 0.79211 0.0
C2134 C 0.60537 0.69023 0.77901 0.0
C2135 C 0.62075 0.66721 0.7823 0.0
C2136 C 0.63059 0.6478 0.73036 0.0
H2137 H 0.69935 0.60542 0.73095 0.0
H2138 H 0.67899 0.61966 0.7495 0.0
H2139 H 0.63757 0.63097 0.70645 0.0
H2140 H 0.60337 0.69929 0.74524 0.0
H2141 H 0.61926 0.67942 0.72794 0.0
H2142 H 0.65266 0.66171 0.77288 0.0
C2143 C 0.67898 0.61902 0.73133 0.0
C2144 C 0.64112 0.63771 0.72079 0.0
C2145 C 0.69059 0.61075 0.72075 0.0
C2146 C 0.60802 0.6903 0.75572 0.0
C2147 C 0.61704 0.67894 0.74584 0.0
C2148 C 0.64927 0.65496 0.75846 0.0
C2149 C 0.66761 0.62645 0.7186 0.0
C2150 C 0.65599 0.63637 0.72965 0.0
C2151 C 0.62374 0.66752 0.75916 0.0
C2152 C 0.6346 0.65651 0.74925 0.0
H2153 H 0.6793 0.61564 0.66638 0.0
H2154 H 0.65953 0.6306 0.68461 0.0
H2155 H 0.67128 0.64471 0.75571 0.0
H2156 H 0.60971 0.67799 0.8101 0.0
H2157 H 0.62573 0.65844 0.79285 0.0
C2158 C 0.30658 0.61692 0.79409 0.0
C2159 C 0.29559 0.60893 0.78154 0.0
C2160 C 0.31813 0.62509 0.78329 0.0
C2161 C 0.3267 0.6426 0.72798 0.0
H2162 H 0.3662 0.65003 0.75542 0.0
C2163 C 0.3734 0.67781 0.68423 0.0
C2164 C 0.37859 0.69036 0.69686 0.0
C2165 C 0.36486 0.66628 0.6944 0.0
C2166 C 0.35521 0.64801 0.74761 0.0
H2167 H 0.28854 0.60244 0.74798 0.0
H2168 H 0.3091 0.6161 0.72907 0.0
H2169 H 0.34852 0.63201 0.7729 0.0
H2170 H 0.37956 0.70032 0.7302 0.0
H2171 H 0.3648 0.6799 0.7481 0.0
H2172 H 0.33356 0.65844 0.70254 0.0
C2173 C 0.30851 0.61659 0.74723 0.0
C2174 C 0.34503 0.63777 0.75764 0.0
C2175 C 0.29678 0.60865 0.75804 0.0
C2176 C 0.37566 0.6908 0.72006 0.0
C2177 C 0.36729 0.67912 0.73031 0.0
C2178 C 0.33697 0.6526 0.71779 0.0
C2179 C 0.31911 0.62524 0.75968 0.0
C2180 C 0.33054 0.6351 0.74813 0.0
C2181 C 0.36155 0.66694 0.71744 0.0
C2182 C 0.35122 0.65555 0.72766 0.0
H2183 H 0.3059 0.61739 0.81225 0.0
H2184 H 0.32589 0.63177 0.79349 0.0
H2185 H 0.31557 0.64116 0.72037 0.0
H2186 H 0.37549 0.67713 0.66632 0.0
H2187 H 0.36062 0.65694 0.68418 0.0
C2188 C 0.37422 0.30681 0.79171 0.0
C2189 C 0.38117 0.2951 0.77924 0.0
C2190 C 0.36564 0.31809 0.78095 0.0
C2191 C 0.34515 0.32497 0.72727 0.0
H2192 H 0.34005 0.3656 0.75226 0.0
C2193 C 0.30913 0.37153 0.6841 0.0
C2194 C 0.29723 0.37723 0.69757 0.0
C2195 C 0.32086 0.36289 0.6936 0.0
C2196 C 0.34142 0.35429 0.74515 0.0
H2197 H 0.38541 0.28647 0.74571 0.0
H2198 H 0.3711 0.30658 0.72674 0.0
H2199 H 0.35863 0.34814 0.76895 0.0
H2200 H 0.28863 0.37897 0.73162 0.0
H2201 H 0.30946 0.3641 0.74836 0.0
H2202 H 0.32811 0.33133 0.7032 0.0
C2203 C 0.3717 0.30676 0.74491 0.0
C2204 C 0.35198 0.34423 0.75474 0.0
C2205 C 0.38001 0.29528 0.75573 0.0
C2206 C 0.29763 0.37467 0.72086 0.0
C2207 C 0.30955 0.36624 0.73043 0.0
C2208 C 0.33483 0.33512 0.71745 0.0
C2209 C 0.36407 0.31811 0.75741 0.0
C2210 C 0.35381 0.32933 0.74614 0.0
C2211 C 0.32107 0.36004 0.71679 0.0
C2212 C 0.33273 0.34977 0.72649 0.0
H2213 H 0.37485 0.3069 0.8099 0.0
H2214 H 0.35978 0.32643 0.79125 0.0
H2215 H 0.34592 0.31353 0.72042 0.0
H2216 H 0.30912 0.3733 0.66608 0.0
H2217 H 0.32968 0.35825 0.6828 0.0
C2218 C 0.60666 0.295 0.72375 0.0
C2219 C 0.60544 0.29487 0.70024 0.0
C2220 C 0.61521 0.3063 0.73458 0.0
C2221 C 0.63533 0.34352 0.7248 0.0
H2222 H 0.65951 0.33018 0.77575 0.0
C2223 C 0.68994 0.37376 0.75804 0.0
C2224 C 0.69055 0.37614 0.78137 0.0
C2225 C 0.67801 0.3653 0.74858 0.0
C2226 C 0.65271 0.33409 0.76166 0.0
H2227 H 0.61191 0.30663 0.66962 0.0
H2228 H 0.62731 0.32586 0.68828 0.0
H2229 H 0.64133 0.31264 0.75873 0.0
H2230 H 0.67902 0.37184 0.81304 0.0
H2231 H 0.65844 0.35679 0.7965 0.0
H2232 H 0.64748 0.36476 0.72725 0.0
C2233 C 0.62135 0.31759 0.69856 0.0
C2234 C 0.64219 0.32409 0.75197 0.0
C2235 C 0.61258 0.30647 0.6878 0.0
C2236 C 0.67886 0.3702 0.79499 0.0
C2237 C 0.66711 0.36155 0.78559 0.0
C2238 C 0.64608 0.35342 0.73428 0.0
C2239 C 0.62297 0.31755 0.72208 0.0
C2240 C 0.63341 0.32862 0.7333 0.0
C2241 C 0.66667 0.3589 0.76235 0.0
C2242 C 0.65488 0.34875 0.75272 0.0
H2243 H 0.60115 0.28626 0.73375 0.0
H2244 H 0.61588 0.30609 0.75274 0.0
H2245 H 0.62859 0.34755 0.71075 0.0
H2246 H 0.69878 0.37824 0.74717 0.0
H2247 H 0.67792 0.36332 0.7306 0.0
C2248 C 0.37755 0.29805 0.2205 0.0
C2249 C 0.37973 0.2974 0.19713 0.0
C2250 C 0.36938 0.31012 0.23013 0.0
C2251 C 0.3383 0.33564 0.21664 0.0
H2252 H 0.3498 0.35736 0.27086 0.0
C2253 C 0.29696 0.37851 0.25696 0.0
C2254 C 0.29593 0.37823 0.28048 0.0
C2255 C 0.30895 0.37106 0.246 0.0
C2256 C 0.34634 0.35131 0.25583 0.0
H2257 H 0.37563 0.30917 0.16561 0.0
H2258 H 0.36114 0.33008 0.18244 0.0
H2259 H 0.36783 0.33961 0.2535 0.0
H2260 H 0.3068 0.37033 0.31107 0.0
H2261 H 0.32731 0.35679 0.29204 0.0
H2262 H 0.3166 0.34651 0.2194 0.0
C2263 C 0.36577 0.32128 0.19326 0.0
C2264 C 0.35671 0.34121 0.24586 0.0
C2265 C 0.37411 0.30934 0.18367 0.0
C2266 C 0.30735 0.37078 0.29289 0.0
C2267 C 0.31918 0.3631 0.28194 0.0
C2268 C 0.32786 0.34552 0.22676 0.0
C2269 C 0.3631 0.32163 0.21651 0.0
C2270 C 0.35272 0.3332 0.22628 0.0
C2271 C 0.32 0.3629 0.25832 0.0
C2272 C 0.33166 0.35338 0.24663 0.0
H2273 H 0.3818 0.28904 0.23129 0.0
H2274 H 0.36738 0.31008 0.24809 0.0
H2275 H 0.33485 0.32943 0.20172 0.0
H2276 H 0.28839 0.38433 0.24699 0.0
H2277 H 0.30938 0.3715 0.22783 0.0
C2278 C 0.61357 0.30662 0.29204 0.0
C2279 C 0.60752 0.2946 0.27914 0.0
C2280 C 0.62262 0.31781 0.28202 0.0
C2281 C 0.63198 0.33706 0.22989 0.0
H2282 H 0.67272 0.34083 0.25484 0.0
C2283 C 0.67991 0.36952 0.18385 0.0
C2284 C 0.69144 0.37658 0.19655 0.0
C2285 C 0.66868 0.36076 0.19437 0.0
C2286 C 0.66131 0.34024 0.2479 0.0
H2287 H 0.60556 0.28525 0.24551 0.0
H2288 H 0.62116 0.30517 0.22785 0.0
H2289 H 0.65447 0.32356 0.2722 0.0
H2290 H 0.69991 0.38066 0.23021 0.0
H2291 H 0.67989 0.36601 0.24877 0.0
H2292 H 0.63856 0.354 0.20593 0.0
C2293 C 0.61898 0.30575 0.24575 0.0
C2294 C 0.6509 0.33023 0.25779 0.0
C2295 C 0.61012 0.29437 0.25585 0.0
C2296 C 0.69122 0.37521 0.22002 0.0
C2297 C 0.6798 0.3667 0.23061 0.0
C2298 C 0.64229 0.34732 0.22022 0.0
C2299 C 0.62555 0.31737 0.25887 0.0
C2300 C 0.63622 0.32846 0.24875 0.0
C2301 C 0.66855 0.3591 0.21789 0.0
C2302 C 0.65717 0.34892 0.22895 0.0
H2303 H 0.61177 0.30712 0.31003 0.0
H2304 H 0.62752 0.32672 0.29242 0.0
H2305 H 0.62065 0.33594 0.22276 0.0
H2306 H 0.67986 0.3703 0.16569 0.0
H2307 H 0.66043 0.35491 0.18392 0.0
C2308 C 0.67836 0.61667 0.29482 0.0
C2309 C 0.6899 0.61042 0.28119 0.0
C2310 C 0.66671 0.62544 0.28539 0.0
C2311 C 0.64548 0.63353 0.23433 0.0
H2312 H 0.64194 0.67471 0.25786 0.0
C2313 C 0.6124 0.68063 0.18753 0.0
C2314 C 0.6057 0.69256 0.19985 0.0
C2315 C 0.62108 0.66946 0.19833 0.0
C2316 C 0.64246 0.66316 0.25137 0.0
H2317 H 0.69793 0.60788 0.24694 0.0
H2318 H 0.67722 0.62301 0.23033 0.0
H2319 H 0.65987 0.65694 0.27492 0.0
H2320 H 0.60209 0.70175 0.23323 0.0
H2321 H 0.61665 0.68184 0.25233 0.0
H2322 H 0.62788 0.63953 0.21107 0.0
C2323 C 0.67736 0.62118 0.24833 0.0
C2324 C 0.65284 0.65303 0.26108 0.0
C2325 C 0.68921 0.6126 0.25782 0.0
C2326 C 0.60727 0.69275 0.22331 0.0
C2327 C 0.61572 0.68139 0.2342 0.0
C2328 C 0.63486 0.64357 0.22485 0.0
C2329 C 0.6662 0.6279 0.26212 0.0
C2330 C 0.65458 0.63822 0.25246 0.0
C2331 C 0.62304 0.66979 0.2218 0.0
C2332 C 0.63337 0.65862 0.23302 0.0
H2333 H 0.67858 0.61519 0.31289 0.0
H2334 H 0.65817 0.63046 0.29631 0.0
H2335 H 0.64655 0.62208 0.22756 0.0
H2336 H 0.61145 0.68023 0.16938 0.0
H2337 H 0.6267 0.66092 0.18811 0.0
C2338 C 0.28942 0.61974 0.22177 0.0
C2339 C 0.29275 0.61089 0.20269 0.0
C2340 C 0.30065 0.62897 0.23145 0.0
C2341 C 0.34212 0.63589 0.23468 0.0
H2342 H 0.32981 0.6777 0.24659 0.0
C2343 C 0.37886 0.67983 0.28361 0.0
C2344 C 0.37886 0.69496 0.27571 0.0
C2345 C 0.36948 0.66884 0.27365 0.0
C2346 C 0.33345 0.6661 0.24318 0.0
H2347 H 0.31063 0.60415 0.17948 0.0
H2348 H 0.33025 0.62024 0.19647 0.0
H2349 H 0.31108 0.65942 0.23266 0.0
H2350 H 0.36962 0.71027 0.25047 0.0
H2351 H 0.35323 0.69105 0.23309 0.0
H2352 H 0.36455 0.64266 0.24517 0.0
C2353 C 0.31897 0.62005 0.20392 0.0
C2354 C 0.32268 0.65558 0.2355 0.0
C2355 C 0.30771 0.61089 0.19414 0.0
C2356 C 0.36982 0.69872 0.25701 0.0
C2357 C 0.36037 0.68775 0.24715 0.0
C2358 C 0.35289 0.6464 0.24257 0.0
C2359 C 0.31545 0.62945 0.22234 0.0
C2360 C 0.32689 0.64038 0.23116 0.0
C2361 C 0.35986 0.67279 0.25568 0.0
C2362 C 0.34866 0.66163 0.24681 0.0
H2363 H 0.27802 0.61993 0.22881 0.0
H2364 H 0.29769 0.63594 0.24585 0.0
H2365 H 0.34566 0.62422 0.23153 0.0
H2366 H 0.38575 0.67658 0.29796 0.0
H2367 H 0.36928 0.65741 0.28064 0.0
loop_
_geom_bond_atom_site_label_1
_geom_bond_atom_site_label_2
_geom_bond_distance
_geom_bond_site_symmetry_2
_ccdc_geom_bond_type
C0 O1 1.306 . S
C0 O3 1.160 . S
O1 C0 1.306 . S
O1 Cd2 2.228 . S
Cd2 O1 2.228 . S
Cd2 O6 2.273 . S
Cd2 O10 2.277 . S
O3 C0 1.160 . S
O3 Cd4 2.203 . S
Cd4 O3 2.203 . S
Cd4 O6 2.411 . S
Cd4 O7 2.333 . S
Cd4 O8 2.352 . S
Cd4 O12 2.277 . S
Cd4 O13 2.356 . S
C5 O10 1.209 . S
C5 O12 1.226 . S
O6 Cd2 2.273 . S
O6 Cd4 2.411 . S
O6 C9 1.320 . S
O7 Cd4 2.333 . S
O7 C9 1.214 . S
O8 Cd4 2.352 . S
O8 C11 1.258 . S
C9 O6 1.320 . S
C9 O7 1.214 . S
O10 Cd2 2.277 . S
O10 C5 1.209 . S
C11 O8 1.258 . S
C11 O13 1.282 . S
O12 Cd4 2.277 . S
O12 C5 1.226 . S
O13 Cd4 2.356 . S
O13 C11 1.282 . S
C14 O15 1.306 . S
C14 O17 1.160 . S
O15 C14 1.306 . S
O15 Cd16 2.228 . S
Cd16 O15 2.228 . S
Cd16 O20 2.273 . S
Cd16 O24 2.277 . S
O17 C14 1.160 . S
O17 Cd18 2.203 . S
Cd18 O17 2.203 . S
Cd18 O20 2.411 . S
Cd18 O21 2.333 . S
Cd18 O22 2.352 . S
Cd18 O26 2.277 . S
Cd18 O27 2.356 . S
C19 O24 1.209 . S
C19 O26 1.226 . S
O20 Cd16 2.273 . S
O20 Cd18 2.411 . S
O20 C23 1.320 . S
O21 Cd18 2.333 . S
O21 C23 1.214 . S
O22 Cd18 2.352 . S
O22 C25 1.258 . S
C23 O20 1.320 . S
C23 O21 1.214 . S
O24 Cd16 2.277 . S
O24 C19 1.209 . S
C25 O22 1.258 . S
C25 O27 1.282 . S
O26 Cd18 2.277 . S
O26 C19 1.226 . S
O27 Cd18 2.356 . S
O27 C25 1.282 . S
C28 O29 1.306 . S
C28 O31 1.160 . S
O29 C28 1.306 . S
O29 Cd30 2.228 . S
Cd30 O29 2.228 . S
Cd30 O34 2.273 . S
Cd30 O38 2.277 . S
O31 C28 1.160 . S
O31 Cd32 2.203 . S
Cd32 O31 2.203 . S
Cd32 O34 2.411 . S
Cd32 O35 2.333 . S
Cd32 O36 2.352 . S
Cd32 O40 2.277 . S
Cd32 O41 2.356 . S
C33 O38 1.209 . S
C33 O40 1.226 . S
O34 Cd30 2.273 . S
O34 Cd32 2.411 . S
O34 C37 1.320 . S
O35 Cd32 2.333 . S
O35 C37 1.214 . S
O36 Cd32 2.352 . S
O36 C39 1.258 . S
C37 O34 1.320 . S
C37 O35 1.214 . S
O38 Cd30 2.277 . S
O38 C33 1.209 . S
C39 O36 1.258 . S
C39 O41 1.282 . S
O40 Cd32 2.277 . S
O40 C33 1.226 . S
O41 Cd32 2.356 . S
O41 C39 1.282 . S
C42 O43 1.306 . S
C42 O45 1.160 . S
O43 C42 1.306 . S
O43 Cd44 2.228 . S
Cd44 O43 2.228 . S
Cd44 O48 2.273 . S
Cd44 O52 2.277 . S
O45 C42 1.160 . S
O45 Cd46 2.203 . S
Cd46 O45 2.203 . S
Cd46 O48 2.411 . S
Cd46 O49 2.333 . S
Cd46 O50 2.352 . S
Cd46 O54 2.277 . S
Cd46 O55 2.356 . S
C47 O52 1.209 . S
C47 O54 1.226 . S
O48 Cd44 2.273 . S
O48 Cd46 2.411 . S
O48 C51 1.320 . S
O49 Cd46 2.333 . S
O49 C51 1.214 . S
O50 Cd46 2.352 . S
O50 C53 1.258 . S
C51 O48 1.320 . S
C51 O49 1.214 . S
O52 Cd44 2.277 . S
O52 C47 1.209 . S
C53 O50 1.258 . S
C53 O55 1.282 . S
O54 Cd46 2.277 . S
O54 C47 1.226 . S
O55 Cd46 2.356 . S
O55 C53 1.282 . S
C56 O57 1.306 . S
C56 O59 1.160 . S
O57 C56 1.306 . S
O57 Cd58 2.228 . S
Cd58 O57 2.228 . S
Cd58 O62 2.273 . S
Cd58 O66 2.277 . S
O59 C56 1.160 . S
O59 Cd60 2.203 . S
Cd60 O59 2.203 . S
Cd60 O62 2.411 . S
Cd60 O63 2.333 . S
Cd60 O64 2.352 . S
Cd60 O68 2.277 . S
Cd60 O69 2.356 . S
C61 O66 1.209 . S
C61 O68 1.226 . S
O62 Cd58 2.273 . S
O62 Cd60 2.411 . S
O62 C65 1.320 . S
O63 Cd60 2.333 . S
O63 C65 1.214 . S
O64 Cd60 2.352 . S
O64 C67 1.258 . S
C65 O62 1.320 . S
C65 O63 1.214 . S
O66 Cd58 2.277 . S
O66 C61 1.209 . S
C67 O64 1.258 . S
C67 O69 1.282 . S
O68 Cd60 2.277 . S
O68 C61 1.226 . S
O69 Cd60 2.356 . S
O69 C67 1.282 . S
C70 O71 1.306 . S
C70 O73 1.160 . S
O71 C70 1.306 . S
O71 Cd72 2.228 . S
Cd72 O71 2.228 . S
Cd72 O76 2.273 . S
Cd72 O80 2.277 . S
O73 C70 1.160 . S
O73 Cd74 2.203 . S
Cd74 O73 2.203 . S
Cd74 O76 2.411 . S
Cd74 O77 2.333 . S
Cd74 O78 2.352 . S
Cd74 O82 2.277 . S
Cd74 O83 2.356 . S
C75 O80 1.209 . S
C75 O82 1.226 . S
O76 Cd72 2.273 . S
O76 Cd74 2.411 . S
O76 C79 1.320 . S
O77 Cd74 2.333 . S
O77 C79 1.214 . S
O78 Cd74 2.352 . S
O78 C81 1.258 . S
C79 O76 1.320 . S
C79 O77 1.214 . S
O80 Cd72 2.277 . S
O80 C75 1.209 . S
C81 O78 1.258 . S
C81 O83 1.282 . S
O82 Cd74 2.277 . S
O82 C75 1.226 . S
O83 Cd74 2.356 . S
O83 C81 1.282 . S
C84 O85 1.306 . S
C84 O87 1.160 . S
O85 C84 1.306 . S
O85 Cd86 2.228 . S
Cd86 O85 2.228 . S
Cd86 O90 2.273 . S
Cd86 O94 2.277 . S
O87 C84 1.160 . S
O87 Cd88 2.203 . S
Cd88 O87 2.203 . S
Cd88 O90 2.411 . S
Cd88 O91 2.333 . S
Cd88 O92 2.352 . S
Cd88 O96 2.277 . S
Cd88 O97 2.356 . S
C89 O94 1.209 . S
C89 O96 1.226 . S
O90 Cd86 2.273 . S
O90 Cd88 2.411 . S
O90 C93 1.320 . S
O91 Cd88 2.333 . S
O91 C93 1.214 . S
O92 Cd88 2.352 . S
O92 C95 1.258 . S
C93 O90 1.320 . S
C93 O91 1.214 . S
O94 Cd86 2.277 . S
O94 C89 1.209 . S
C95 O92 1.258 . S
C95 O97 1.282 . S
O96 Cd88 2.277 . S
O96 C89 1.226 . S
O97 Cd88 2.356 . S
O97 C95 1.282 . S
C98 O99 1.306 . S
C98 O101 1.160 . S
O99 C98 1.306 . S
O99 Cd100 2.228 . S
Cd100 O99 2.228 . S
Cd100 O104 2.273 . S
Cd100 O108 2.277 . S
O101 C98 1.160 . S
O101 Cd102 2.203 . S
Cd102 O101 2.203 . S
Cd102 O104 2.411 . S
Cd102 O105 2.333 . S
Cd102 O106 2.352 . S
Cd102 O110 2.277 . S
Cd102 O111 2.356 . S
C103 O108 1.209 . S
C103 O110 1.226 . S
O104 Cd100 2.273 . S
O104 Cd102 2.411 . S
O104 C107 1.320 . S
O105 Cd102 2.333 . S
O105 C107 1.214 . S
O106 Cd102 2.352 . S
O106 C109 1.258 . S
C107 O104 1.320 . S
C107 O105 1.214 . S
O108 Cd100 2.277 . S
O108 C103 1.209 . S
C109 O106 1.258 . S
C109 O111 1.282 . S
O110 Cd102 2.277 . S
O110 C103 1.226 . S
O111 Cd102 2.356 . S
O111 C109 1.282 . S
C112 O113 1.306 . S
C112 O115 1.160 . S
O113 C112 1.306 . S
O113 Cd114 2.228 . S
Cd114 O113 2.228 . S
Cd114 O118 2.273 . S
Cd114 O122 2.277 . S
O115 C112 1.160 . S
O115 Cd116 2.203 . S
Cd116 O115 2.203 . S
Cd116 O118 2.411 . S
Cd116 O119 2.333 . S
Cd116 O120 2.352 . S
Cd116 O124 2.277 . S
Cd116 O125 2.356 . S
C117 O122 1.209 . S
C117 O124 1.226 . S
O118 Cd114 2.273 . S
O118 Cd116 2.411 . S
O118 C121 1.320 . S
O119 Cd116 2.333 . S
O119 C121 1.214 . S
O120 Cd116 2.352 . S
O120 C123 1.258 . S
C121 O118 1.320 . S
C121 O119 1.214 . S
O122 Cd114 2.277 . S
O122 C117 1.209 . S
C123 O120 1.258 . S
C123 O125 1.282 . S
O124 Cd116 2.277 . S
O124 C117 1.226 . S
O125 Cd116 2.356 . S
O125 C123 1.282 . S
C126 O127 1.306 . S
C126 O129 1.160 . S
O127 C126 1.306 . S
O127 Cd128 2.228 . S
Cd128 O127 2.228 . S
Cd128 O132 2.273 . S
Cd128 O136 2.277 . S
O129 C126 1.160 . S
O129 Cd130 2.203 . S
Cd130 O129 2.203 . S
Cd130 O132 2.411 . S
Cd130 O133 2.333 . S
Cd130 O134 2.352 . S
Cd130 O138 2.277 . S
Cd130 O139 2.356 . S
C131 O136 1.209 . S
C131 O138 1.226 . S
O132 Cd128 2.273 . S
O132 Cd130 2.411 . S
O132 C135 1.320 . S
O133 Cd130 2.333 . S
O133 C135 1.214 . S
O134 Cd130 2.352 . S
O134 C137 1.258 . S
C135 O132 1.320 . S
C135 O133 1.214 . S
O136 Cd128 2.277 . S
O136 C131 1.209 . S
C137 O134 1.258 . S
C137 O139 1.282 . S
O138 Cd130 2.277 . S
O138 C131 1.226 . S
O139 Cd130 2.356 . S
O139 C137 1.282 . S
C140 O141 1.306 . S
C140 O143 1.160 . S
O141 C140 1.306 . S
O141 Cd142 2.228 . S
Cd142 O141 2.228 . S
Cd142 O146 2.273 . S
Cd142 O150 2.277 . S
O143 C140 1.160 . S
O143 Cd144 2.203 . S
Cd144 O143 2.203 . S
Cd144 O146 2.411 . S
Cd144 O147 2.333 . S
Cd144 O148 2.352 . S
Cd144 O152 2.277 . S
Cd144 O153 2.356 . S
C145 O150 1.209 . S
C145 O152 1.226 . S
O146 Cd142 2.273 . S
O146 Cd144 2.411 . S
O146 C149 1.320 . S
O147 Cd144 2.333 . S
O147 C149 1.214 . S
O148 Cd144 2.352 . S
O148 C151 1.258 . S
C149 O146 1.320 . S
C149 O147 1.214 . S
O150 Cd142 2.277 . S
O150 C145 1.209 . S
C151 O148 1.258 . S
C151 O153 1.282 . S
O152 Cd144 2.277 . S
O152 C145 1.226 . S
O153 Cd144 2.356 . S
O153 C151 1.282 . S
C154 O155 1.306 . S
C154 O157 1.160 . S
O155 C154 1.306 . S
O155 Cd156 2.228 . S
Cd156 O155 2.228 . S
Cd156 O160 2.273 . S
Cd156 O164 2.277 . S
O157 C154 1.160 . S
O157 Cd158 2.203 . S
Cd158 O157 2.203 . S
Cd158 O160 2.411 . S
Cd158 O161 2.333 . S
Cd158 O162 2.352 . S
Cd158 O166 2.277 . S
Cd158 O167 2.356 . S
C159 O164 1.209 . S
C159 O166 1.226 . S
O160 Cd156 2.273 . S
O160 Cd158 2.411 . S
O160 C163 1.320 . S
O161 Cd158 2.333 . S
O161 C163 1.214 . S
O162 Cd158 2.352 . S
O162 C165 1.258 . S
C163 O160 1.320 . S
C163 O161 1.214 . S
O164 Cd156 2.277 . S
O164 C159 1.209 . S
C165 O162 1.258 . S
C165 O167 1.282 . S
O166 Cd158 2.277 . S
O166 C159 1.226 . S
O167 Cd158 2.356 . S
O167 C165 1.282 . S
C168 O169 1.306 . S
C168 O171 1.160 . S
O169 C168 1.306 . S
O169 Cd170 2.228 . S
Cd170 O169 2.228 . S
Cd170 O174 2.273 . S
Cd170 O178 2.277 . S
O171 C168 1.160 . S
O171 Cd172 2.203 . S
Cd172 O171 2.203 . S
Cd172 O174 2.411 . S
Cd172 O175 2.333 . S
Cd172 O176 2.352 . S
Cd172 O180 2.277 . S
Cd172 O181 2.356 . S
C173 O178 1.209 . S
C173 O180 1.226 . S
O174 Cd170 2.273 . S
O174 Cd172 2.411 . S
O174 C177 1.320 . S
O175 Cd172 2.333 . S
O175 C177 1.214 . S
O176 Cd172 2.352 . S
O176 C179 1.258 . S
C177 O174 1.320 . S
C177 O175 1.214 . S
O178 Cd170 2.277 . S
O178 C173 1.209 . S
C179 O176 1.258 . S
C179 O181 1.282 . S
O180 Cd172 2.277 . S
O180 C173 1.226 . S
O181 Cd172 2.356 . S
O181 C179 1.282 . S
C182 O183 1.306 . S
C182 O185 1.160 . S
O183 C182 1.306 . S
O183 Cd184 2.228 . S
Cd184 O183 2.228 . S
Cd184 O188 2.273 . S
Cd184 O192 2.277 . S
O185 C182 1.160 . S
O185 Cd186 2.203 . S
Cd186 O185 2.203 . S
Cd186 O188 2.411 . S
Cd186 O189 2.333 . S
Cd186 O190 2.352 . S
Cd186 O194 2.277 . S
Cd186 O195 2.356 . S
C187 O192 1.209 . S
C187 O194 1.226 . S
O188 Cd184 2.273 . S
O188 Cd186 2.411 . S
O188 C191 1.320 . S
O189 Cd186 2.333 . S
O189 C191 1.214 . S
O190 Cd186 2.352 . S
O190 C193 1.258 . S
C191 O188 1.320 . S
C191 O189 1.214 . S
O192 Cd184 2.277 . S
O192 C187 1.209 . S
C193 O190 1.258 . S
C193 O195 1.282 . S
O194 Cd186 2.277 . S
O194 C187 1.226 . S
O195 Cd186 2.356 . S
O195 C193 1.282 . S
C196 O197 1.306 . S
C196 O199 1.160 . S
O197 C196 1.306 . S
O197 Cd198 2.228 . S
Cd198 O197 2.228 . S
Cd198 O202 2.273 . S
Cd198 O206 2.277 . S
O199 C196 1.160 . S
O199 Cd200 2.203 . S
Cd200 O199 2.203 . S
Cd200 O202 2.411 . S
Cd200 O203 2.333 . S
Cd200 O204 2.352 . S
Cd200 O208 2.277 . S
Cd200 O209 2.356 . S
C201 O206 1.209 . S
C201 O208 1.226 . S
O202 Cd198 2.273 . S
O202 Cd200 2.411 . S
O202 C205 1.320 . S
O203 Cd200 2.333 . S
O203 C205 1.214 . S
O204 Cd200 2.352 . S
O204 C207 1.258 . S
C205 O202 1.320 . S
C205 O203 1.214 . S
O206 Cd198 2.277 . S
O206 C201 1.209 . S
C207 O204 1.258 . S
C207 O209 1.282 . S
O208 Cd200 2.277 . S
O208 C201 1.226 . S
O209 Cd200 2.356 . S
O209 C207 1.282 . S
C210 O211 1.306 . S
C210 O213 1.160 . S
O211 C210 1.306 . S
O211 Cd212 2.228 . S
Cd212 O211 2.228 . S
Cd212 O216 2.273 . S
Cd212 O220 2.277 . S
O213 C210 1.160 . S
O213 Cd214 2.203 . S
Cd214 O213 2.203 . S
Cd214 O216 2.411 . S
Cd214 O217 2.333 . S
Cd214 O218 2.352 . S
Cd214 O222 2.277 . S
Cd214 O223 2.356 . S
C215 O220 1.209 . S
C215 O222 1.226 . S
O216 Cd212 2.273 . S
O216 Cd214 2.411 . S
O216 C219 1.320 . S
O217 Cd214 2.333 . S
O217 C219 1.214 . S
O218 Cd214 2.352 . S
O218 C221 1.258 . S
C219 O216 1.320 . S
C219 O217 1.214 . S
O220 Cd212 2.277 . S
O220 C215 1.209 . S
C221 O218 1.258 . S
C221 O223 1.282 . S
O222 Cd214 2.277 . S
O222 C215 1.226 . S
O223 Cd214 2.356 . S
O223 C221 1.282 . S
C224 O225 1.306 . S
C224 O227 1.160 . S
O225 C224 1.306 . S
O225 Cd226 2.228 . S
Cd226 O225 2.228 . S
Cd226 O230 2.273 . S
Cd226 O234 2.277 . S
O227 C224 1.160 . S
O227 Cd228 2.203 . S
Cd228 O227 2.203 . S
Cd228 O230 2.411 . S
Cd228 O231 2.333 . S
Cd228 O232 2.352 . S
Cd228 O236 2.277 . S
Cd228 O237 2.356 . S
C229 O234 1.209 . S
C229 O236 1.226 . S
O230 Cd226 2.273 . S
O230 Cd228 2.411 . S
O230 C233 1.320 . S
O231 Cd228 2.333 . S
O231 C233 1.214 . S
O232 Cd228 2.352 . S
O232 C235 1.258 . S
C233 O230 1.320 . S
C233 O231 1.214 . S
O234 Cd226 2.277 . S
O234 C229 1.209 . S
C235 O232 1.258 . S
C235 O237 1.282 . S
O236 Cd228 2.277 . S
O236 C229 1.226 . S
O237 Cd228 2.356 . S
O237 C235 1.282 . S
C238 O239 1.306 . S
C238 O241 1.160 . S
O239 C238 1.306 . S
O239 Cd240 2.228 . S
Cd240 O239 2.228 . S
Cd240 O244 2.273 . S
Cd240 O248 2.277 . S
O241 C238 1.160 . S
O241 Cd242 2.203 . S
Cd242 O241 2.203 . S
Cd242 O244 2.411 . S
Cd242 O245 2.333 . S
Cd242 O246 2.352 . S
Cd242 O250 2.277 . S
Cd242 O251 2.356 . S
C243 O248 1.209 . S
C243 O250 1.226 . S
O244 Cd240 2.273 . S
O244 Cd242 2.411 . S
O244 C247 1.320 . S
O245 Cd242 2.333 . S
O245 C247 1.214 . S
O246 Cd242 2.352 . S
O246 C249 1.258 . S
C247 O244 1.320 . S
C247 O245 1.214 . S
O248 Cd240 2.277 . S
O248 C243 1.209 . S
C249 O246 1.258 . S
C249 O251 1.282 . S
O250 Cd242 2.277 . S
O250 C243 1.226 . S
O251 Cd242 2.356 . S
O251 C249 1.282 . S
C252 O253 1.306 . S
C252 O255 1.160 . S
O253 C252 1.306 . S
O253 Cd254 2.228 . S
Cd254 O253 2.228 . S
Cd254 O258 2.273 . S
Cd254 O262 2.277 . S
O255 C252 1.160 . S
O255 Cd256 2.203 . S
Cd256 O255 2.203 . S
Cd256 O258 2.411 . S
Cd256 O259 2.333 . S
Cd256 O260 2.352 . S
Cd256 O264 2.277 . S
Cd256 O265 2.356 . S
C257 O262 1.209 . S
C257 O264 1.226 . S
O258 Cd254 2.273 . S
O258 Cd256 2.411 . S
O258 C261 1.320 . S
O259 Cd256 2.333 . S
O259 C261 1.214 . S
O260 Cd256 2.352 . S
O260 C263 1.258 . S
C261 O258 1.320 . S
C261 O259 1.214 . S
O262 Cd254 2.277 . S
O262 C257 1.209 . S
C263 O260 1.258 . S
C263 O265 1.282 . S
O264 Cd256 2.277 . S
O264 C257 1.226 . S
O265 Cd256 2.356 . S
O265 C263 1.282 . S
C266 O267 1.306 . S
C266 O269 1.160 . S
O267 C266 1.306 . S
O267 Cd268 2.228 . S
Cd268 O267 2.228 . S
Cd268 O272 2.273 . S
Cd268 O276 2.277 . S
O269 C266 1.160 . S
O269 Cd270 2.203 . S
Cd270 O269 2.203 . S
Cd270 O272 2.411 . S
Cd270 O273 2.333 . S
Cd270 O274 2.352 . S
Cd270 O278 2.277 . S
Cd270 O279 2.356 . S
C271 O276 1.209 . S
C271 O278 1.226 . S
O272 Cd268 2.273 . S
O272 Cd270 2.411 . S
O272 C275 1.320 . S
O273 Cd270 2.333 . S
O273 C275 1.214 . S
O274 Cd270 2.352 . S
O274 C277 1.258 . S
C275 O272 1.320 . S
C275 O273 1.214 . S
O276 Cd268 2.277 . S
O276 C271 1.209 . S
C277 O274 1.258 . S
C277 O279 1.282 . S
O278 Cd270 2.277 . S
O278 C271 1.226 . S
O279 Cd270 2.356 . S
O279 C277 1.282 . S
C280 O281 1.306 . S
C280 O283 1.160 . S
O281 C280 1.306 . S
O281 Cd282 2.228 . S
Cd282 O281 2.228 . S
Cd282 O286 2.273 . S
Cd282 O290 2.277 . S
O283 C280 1.160 . S
O283 Cd284 2.203 . S
Cd284 O283 2.203 . S
Cd284 O286 2.411 . S
Cd284 O287 2.333 . S
Cd284 O288 2.352 . S
Cd284 O292 2.277 . S
Cd284 O293 2.356 . S
C285 O290 1.209 . S
C285 O292 1.226 . S
O286 Cd282 2.273 . S
O286 Cd284 2.411 . S
O286 C289 1.320 . S
O287 Cd284 2.333 . S
O287 C289 1.214 . S
O288 Cd284 2.352 . S
O288 C291 1.258 . S
C289 O286 1.320 . S
C289 O287 1.214 . S
O290 Cd282 2.277 . S
O290 C285 1.209 . S
C291 O288 1.258 . S
C291 O293 1.282 . S
O292 Cd284 2.277 . S
O292 C285 1.226 . S
O293 Cd284 2.356 . S
O293 C291 1.282 . S
C294 O295 1.306 . S
C294 O297 1.160 . S
O295 C294 1.306 . S
O295 Cd296 2.228 . S
Cd296 O295 2.228 . S
Cd296 O300 2.273 . S
Cd296 O304 2.277 . S
O297 C294 1.160 . S
O297 Cd298 2.203 . S
Cd298 O297 2.203 . S
Cd298 O300 2.411 . S
Cd298 O301 2.333 . S
Cd298 O302 2.352 . S
Cd298 O306 2.277 . S
Cd298 O307 2.356 . S
C299 O304 1.209 . S
C299 O306 1.226 . S
O300 Cd296 2.273 . S
O300 Cd298 2.411 . S
O300 C303 1.320 . S
O301 Cd298 2.333 . S
O301 C303 1.214 . S
O302 Cd298 2.352 . S
O302 C305 1.258 . S
C303 O300 1.320 . S
C303 O301 1.214 . S
O304 Cd296 2.277 . S
O304 C299 1.209 . S
C305 O302 1.258 . S
C305 O307 1.282 . S
O306 Cd298 2.277 . S
O306 C299 1.226 . S
O307 Cd298 2.356 . S
O307 C305 1.282 . S
C308 O309 1.306 . S
C308 O311 1.160 . S
O309 C308 1.306 . S
O309 Cd310 2.228 . S
Cd310 O309 2.228 . S
Cd310 O314 2.273 . S
Cd310 O318 2.277 . S
O311 C308 1.160 . S
O311 Cd312 2.203 . S
Cd312 O311 2.203 . S
Cd312 O314 2.411 . S
Cd312 O315 2.333 . S
Cd312 O316 2.352 . S
Cd312 O320 2.277 . S
Cd312 O321 2.356 . S
C313 O318 1.209 . S
C313 O320 1.226 . S
O314 Cd310 2.273 . S
O314 Cd312 2.411 . S
O314 C317 1.320 . S
O315 Cd312 2.333 . S
O315 C317 1.214 . S
O316 Cd312 2.352 . S
O316 C319 1.258 . S
C317 O314 1.320 . S
C317 O315 1.214 . S
O318 Cd310 2.277 . S
O318 C313 1.209 . S
C319 O316 1.258 . S
C319 O321 1.282 . S
O320 Cd312 2.277 . S
O320 C313 1.226 . S
O321 Cd312 2.356 . S
O321 C319 1.282 . S
C322 O323 1.306 . S
C322 O325 1.160 . S
O323 C322 1.306 . S
O323 Cd324 2.228 . S
Cd324 O323 2.228 . S
Cd324 O328 2.273 . S
Cd324 O332 2.277 . S
O325 C322 1.160 . S
O325 Cd326 2.203 . S
Cd326 O325 2.203 . S
Cd326 O328 2.411 . S
Cd326 O329 2.333 . S
Cd326 O330 2.352 . S
Cd326 O334 2.277 . S
Cd326 O335 2.356 . S
C327 O332 1.209 . S
C327 O334 1.226 . S
O328 Cd324 2.273 . S
O328 Cd326 2.411 . S
O328 C331 1.320 . S
O329 Cd326 2.333 . S
O329 C331 1.214 . S
O330 Cd326 2.352 . S
O330 C333 1.258 . S
C331 O328 1.320 . S
C331 O329 1.214 . S
O332 Cd324 2.277 . S
O332 C327 1.209 . S
C333 O330 1.258 . S
C333 O335 1.282 . S
O334 Cd326 2.277 . S
O334 C327 1.226 . S
O335 Cd326 2.356 . S
O335 C333 1.282 . S
C336 O337 1.306 . S
C336 O339 1.160 . S
O337 C336 1.306 . S
O337 Cd338 2.228 . S
Cd338 O337 2.228 . S
Cd338 O342 2.273 . S
Cd338 O346 2.277 . S
O339 C336 1.160 . S
O339 Cd340 2.203 . S
Cd340 O339 2.203 . S
Cd340 O342 2.411 . S
Cd340 O343 2.333 . S
Cd340 O344 2.352 . S
Cd340 O348 2.277 . S
Cd340 O349 2.356 . S
C341 O346 1.209 . S
C341 O348 1.226 . S
O342 Cd338 2.273 . S
O342 Cd340 2.411 . S
O342 C345 1.320 . S
O343 Cd340 2.333 . S
O343 C345 1.214 . S
O344 Cd340 2.352 . S
O344 C347 1.258 . S
C345 O342 1.320 . S
C345 O343 1.214 . S
O346 Cd338 2.277 . S
O346 C341 1.209 . S
C347 O344 1.258 . S
C347 O349 1.282 . S
O348 Cd340 2.277 . S
O348 C341 1.226 . S
O349 Cd340 2.356 . S
O349 C347 1.282 . S
C350 O351 1.306 . S
C350 O353 1.160 . S
O351 C350 1.306 . S
O351 Cd352 2.228 . S
Cd352 O351 2.228 . S
Cd352 O356 2.273 . S
Cd352 O360 2.277 . S
O353 C350 1.160 . S
O353 Cd354 2.203 . S
Cd354 O353 2.203 . S
Cd354 O356 2.411 . S
Cd354 O357 2.333 . S
Cd354 O358 2.352 . S
Cd354 O362 2.277 . S
Cd354 O363 2.356 . S
C355 O360 1.209 . S
C355 O362 1.226 . S
O356 Cd352 2.273 . S
O356 Cd354 2.411 . S
O356 C359 1.320 . S
O357 Cd354 2.333 . S
O357 C359 1.214 . S
O358 Cd354 2.352 . S
O358 C361 1.258 . S
C359 O356 1.320 . S
C359 O357 1.214 . S
O360 Cd352 2.277 . S
O360 C355 1.209 . S
C361 O358 1.258 . S
C361 O363 1.282 . S
O362 Cd354 2.277 . S
O362 C355 1.226 . S
O363 Cd354 2.356 . S
O363 C361 1.282 . S
C364 O365 1.306 . S
C364 O367 1.160 . S
O365 C364 1.306 . S
O365 Cd366 2.228 . S
Cd366 O365 2.228 . S
Cd366 O370 2.273 . S
Cd366 O374 2.277 . S
O367 C364 1.160 . S
O367 Cd368 2.203 . S
Cd368 O367 2.203 . S
Cd368 O370 2.411 . S
Cd368 O371 2.333 . S
Cd368 O372 2.352 . S
Cd368 O376 2.277 . S
Cd368 O377 2.356 . S
C369 O374 1.209 . S
C369 O376 1.226 . S
O370 Cd366 2.273 . S
O370 Cd368 2.411 . S
O370 C373 1.320 . S
O371 Cd368 2.333 . S
O371 C373 1.214 . S
O372 Cd368 2.352 . S
O372 C375 1.258 . S
C373 O370 1.320 . S
C373 O371 1.214 . S
O374 Cd366 2.277 . S
O374 C369 1.209 . S
C375 O372 1.258 . S
C375 O377 1.282 . S
O376 Cd368 2.277 . S
O376 C369 1.226 . S
O377 Cd368 2.356 . S
O377 C375 1.282 . S
C378 O379 1.306 . S
C378 O381 1.160 . S
O379 C378 1.306 . S
O379 Cd380 2.228 . S
Cd380 O379 2.228 . S
Cd380 O384 2.273 . S
Cd380 O388 2.277 . S
O381 C378 1.160 . S
O381 Cd382 2.203 . S
Cd382 O381 2.203 . S
Cd382 O384 2.411 . S
Cd382 O385 2.333 . S
Cd382 O386 2.352 . S
Cd382 O390 2.277 . S
Cd382 O391 2.356 . S
C383 O388 1.209 . S
C383 O390 1.226 . S
O384 Cd380 2.273 . S
O384 Cd382 2.411 . S
O384 C387 1.320 . S
O385 Cd382 2.333 . S
O385 C387 1.214 . S
O386 Cd382 2.352 . S
O386 C389 1.258 . S
C387 O384 1.320 . S
C387 O385 1.214 . S
O388 Cd380 2.277 . S
O388 C383 1.209 . S
C389 O386 1.258 . S
C389 O391 1.282 . S
O390 Cd382 2.277 . S
O390 C383 1.226 . S
O391 Cd382 2.356 . S
O391 C389 1.282 . S
C392 O393 1.306 . S
C392 O395 1.160 . S
O393 C392 1.306 . S
O393 Cd394 2.228 . S
Cd394 O393 2.228 . S
Cd394 O398 2.273 . S
Cd394 O402 2.277 . S
O395 C392 1.160 . S
O395 Cd396 2.203 . S
Cd396 O395 2.203 . S
Cd396 O398 2.411 . S
Cd396 O399 2.333 . S
Cd396 O400 2.352 . S
Cd396 O404 2.277 . S
Cd396 O405 2.356 . S
C397 O402 1.209 . S
C397 O404 1.226 . S
O398 Cd394 2.273 . S
O398 Cd396 2.411 . S
O398 C401 1.320 . S
O399 Cd396 2.333 . S
O399 C401 1.214 . S
O400 Cd396 2.352 . S
O400 C403 1.258 . S
C401 O398 1.320 . S
C401 O399 1.214 . S
O402 Cd394 2.277 . S
O402 C397 1.209 . S
C403 O400 1.258 . S
C403 O405 1.282 . S
O404 Cd396 2.277 . S
O404 C397 1.226 . S
O405 Cd396 2.356 . S
O405 C403 1.282 . S
C406 O407 1.306 . S
C406 O409 1.160 . S
O407 C406 1.306 . S
O407 Cd408 2.228 . S
Cd408 O407 2.228 . S
Cd408 O412 2.273 . S
Cd408 O416 2.277 . S
O409 C406 1.160 . S
O409 Cd410 2.203 . S
Cd410 O409 2.203 . S
Cd410 O412 2.411 . S
Cd410 O413 2.333 . S
Cd410 O414 2.352 . S
Cd410 O418 2.277 . S
Cd410 O419 2.356 . S
C411 O416 1.209 . S
C411 O418 1.226 . S
O412 Cd408 2.273 . S
O412 Cd410 2.411 . S
O412 C415 1.320 . S
O413 Cd410 2.333 . S
O413 C415 1.214 . S
O414 Cd410 2.352 . S
O414 C417 1.258 . S
C415 O412 1.320 . S
C415 O413 1.214 . S
O416 Cd408 2.277 . S
O416 C411 1.209 . S
C417 O414 1.258 . S
C417 O419 1.282 . S
O418 Cd410 2.277 . S
O418 C411 1.226 . S
O419 Cd410 2.356 . S
O419 C417 1.282 . S
C420 O421 1.306 . S
C420 O423 1.160 . S
O421 C420 1.306 . S
O421 Cd422 2.228 . S
Cd422 O421 2.228 . S
Cd422 O426 2.273 . S
Cd422 O430 2.277 . S
O423 C420 1.160 . S
O423 Cd424 2.203 . S
Cd424 O423 2.203 . S
Cd424 O426 2.411 . S
Cd424 O427 2.333 . S
Cd424 O428 2.352 . S
Cd424 O432 2.277 . S
Cd424 O433 2.356 . S
C425 O430 1.209 . S
C425 O432 1.226 . S
O426 Cd422 2.273 . S
O426 Cd424 2.411 . S
O426 C429 1.320 . S
O427 Cd424 2.333 . S
O427 C429 1.214 . S
O428 Cd424 2.352 . S
O428 C431 1.258 . S
C429 O426 1.320 . S
C429 O427 1.214 . S
O430 Cd422 2.277 . S
O430 C425 1.209 . S
C431 O428 1.258 . S
C431 O433 1.282 . S
O432 Cd424 2.277 . S
O432 C425 1.226 . S
O433 Cd424 2.356 . S
O433 C431 1.282 . S
C434 O435 1.306 . S
C434 O437 1.160 . S
O435 C434 1.306 . S
O435 Cd436 2.228 . S
Cd436 O435 2.228 . S
Cd436 O440 2.273 . S
Cd436 O444 2.277 . S
O437 C434 1.160 . S
O437 Cd438 2.203 . S
Cd438 O437 2.203 . S
Cd438 O440 2.411 . S
Cd438 O441 2.333 . S
Cd438 O442 2.352 . S
Cd438 O446 2.277 . S
Cd438 O447 2.356 . S
C439 O444 1.209 . S
C439 O446 1.226 . S
O440 Cd436 2.273 . S
O440 Cd438 2.411 . S
O440 C443 1.320 . S
O441 Cd438 2.333 . S
O441 C443 1.214 . S
O442 Cd438 2.352 . S
O442 C445 1.258 . S
C443 O440 1.320 . S
C443 O441 1.214 . S
O444 Cd436 2.277 . S
O444 C439 1.209 . S
C445 O442 1.258 . S
C445 O447 1.282 . S
O446 Cd438 2.277 . S
O446 C439 1.226 . S
O447 Cd438 2.356 . S
O447 C445 1.282 . S
C448 C449 1.349 . S
C448 C450 1.327 . S
C448 H473 0.950 . S
C449 C448 1.349 . S
C449 C465 1.349 . S
C450 C448 1.327 . S
C450 C469 1.429 . S
C450 H474 0.950 . S
C451 C468 1.574 . S
C451 C470 1.368 . S
C451 H475 0.949 . S
H452 C456 0.949 . S
C453 C454 1.349 . S
C453 C455 1.327 . S
C453 H476 0.950 . S
C454 C453 1.349 . S
C454 C466 1.349 . S
C455 C453 1.327 . S
C455 C471 1.429 . S
C455 H477 0.950 . S
C456 H452 0.949 . S
C456 C464 1.574 . S
C456 C472 1.368 . S
H457 C465 0.950 . S
H458 C463 0.950 . S
H459 C464 0.949 . S
H460 C466 0.950 . S
H461 C467 0.950 . S
H462 C468 0.949 . S
C463 H458 0.950 . S
C463 C465 1.327 . S
C463 C469 1.429 . S
C464 C456 1.574 . S
C464 H459 0.949 . S
C464 C470 1.368 . S
C465 C449 1.349 . S
C465 H457 0.950 . S
C465 C463 1.327 . S
C466 C454 1.349 . S
C466 H460 0.950 . S
C466 C467 1.327 . S
C467 H461 0.950 . S
C467 C466 1.327 . S
C467 C471 1.429 . S
C468 C451 1.574 . S
C468 H462 0.949 . S
C468 C472 1.368 . S
C469 C450 1.429 . S
C469 C463 1.429 . S
C469 C470 1.523 . S
C470 C451 1.368 . S
C470 C464 1.368 . S
C470 C469 1.523 . S
C471 C455 1.429 . S
C471 C467 1.429 . S
C471 C472 1.523 . S
C472 C456 1.368 . S
C472 C468 1.368 . S
C472 C471 1.523 . S
H473 C448 0.950 . S
H474 C450 0.950 . S
H475 C451 0.949 . S
H476 C453 0.950 . S
H477 C455 0.950 . S
C478 C479 1.349 . S
C478 C480 1.327 . S
C478 H503 0.950 . S
C479 C478 1.349 . S
C479 C495 1.349 . S
C480 C478 1.327 . S
C480 C499 1.429 . S
C480 H504 0.950 . S
C481 C498 1.574 . S
C481 C500 1.368 . S
C481 H505 0.949 . S
H482 C486 0.949 . S
C483 C484 1.349 . S
C483 C485 1.327 . S
C483 H506 0.950 . S
C484 C483 1.349 . S
C484 C496 1.349 . S
C485 C483 1.327 . S
C485 C501 1.429 . S
C485 H507 0.950 . S
C486 H482 0.949 . S
C486 C494 1.574 . S
C486 C502 1.368 . S
H487 C495 0.950 . S
H488 C493 0.950 . S
H489 C494 0.949 . S
H490 C496 0.950 . S
H491 C497 0.950 . S
H492 C498 0.949 . S
C493 H488 0.950 . S
C493 C495 1.327 . S
C493 C499 1.429 . S
C494 C486 1.574 . S
C494 H489 0.949 . S
C494 C500 1.368 . S
C495 C479 1.349 . S
C495 H487 0.950 . S
C495 C493 1.327 . S
C496 C484 1.349 . S
C496 H490 0.950 . S
C496 C497 1.327 . S
C497 H491 0.950 . S
C497 C496 1.327 . S
C497 C501 1.429 . S
C498 C481 1.574 . S
C498 H492 0.949 . S
C498 C502 1.368 . S
C499 C480 1.429 . S
C499 C493 1.429 . S
C499 C500 1.523 . S
C500 C481 1.368 . S
C500 C494 1.368 . S
C500 C499 1.523 . S
C501 C485 1.429 . S
C501 C497 1.429 . S
C501 C502 1.523 . S
C502 C486 1.368 . S
C502 C498 1.368 . S
C502 C501 1.523 . S
H503 C478 0.950 . S
H504 C480 0.950 . S
H505 C481 0.949 . S
H506 C483 0.950 . S
H507 C485 0.950 . S
C508 C509 1.349 . S
C508 C510 1.327 . S
C508 H533 0.950 . S
C509 C508 1.349 . S
C509 C525 1.349 . S
C510 C508 1.327 . S
C510 C529 1.429 . S
C510 H534 0.950 . S
C511 C528 1.574 . S
C511 C530 1.368 . S
C511 H535 0.949 . S
H512 C516 0.949 . S
C513 C514 1.349 . S
C513 C515 1.327 . S
C513 H536 0.950 . S
C514 C513 1.349 . S
C514 C526 1.349 . S
C515 C513 1.327 . S
C515 C531 1.429 . S
C515 H537 0.950 . S
C516 H512 0.949 . S
C516 C524 1.574 . S
C516 C532 1.368 . S
H517 C525 0.950 . S
H518 C523 0.950 . S
H519 C524 0.949 . S
H520 C526 0.950 . S
H521 C527 0.950 . S
H522 C528 0.949 . S
C523 H518 0.950 . S
C523 C525 1.327 . S
C523 C529 1.429 . S
C524 C516 1.574 . S
C524 H519 0.949 . S
C524 C530 1.368 . S
C525 C509 1.349 . S
C525 H517 0.950 . S
C525 C523 1.327 . S
C526 C514 1.349 . S
C526 H520 0.950 . S
C526 C527 1.327 . S
C527 H521 0.950 . S
C527 C526 1.327 . S
C527 C531 1.429 . S
C528 C511 1.574 . S
C528 H522 0.949 . S
C528 C532 1.368 . S
C529 C510 1.429 . S
C529 C523 1.429 . S
C529 C530 1.523 . S
C530 C511 1.368 . S
C530 C524 1.368 . S
C530 C529 1.523 . S
C531 C515 1.429 . S
C531 C527 1.429 . S
C531 C532 1.523 . S
C532 C516 1.368 . S
C532 C528 1.368 . S
C532 C531 1.523 . S
H533 C508 0.950 . S
H534 C510 0.950 . S
H535 C511 0.949 . S
H536 C513 0.950 . S
H537 C515 0.950 . S
C538 C539 1.349 . S
C538 C540 1.327 . S
C538 H563 0.950 . S
C539 C538 1.349 . S
C539 C555 1.349 . S
C540 C538 1.327 . S
C540 C559 1.429 . S
C540 H564 0.950 . S
C541 C558 1.574 . S
C541 C560 1.368 . S
C541 H565 0.949 . S
H542 C546 0.949 . S
C543 C544 1.349 . S
C543 C545 1.327 . S
C543 H566 0.950 . S
C544 C543 1.349 . S
C544 C556 1.349 . S
C545 C543 1.327 . S
C545 C561 1.429 . S
C545 H567 0.950 . S
C546 H542 0.949 . S
C546 C554 1.574 . S
C546 C562 1.368 . S
H547 C555 0.950 . S
H548 C553 0.950 . S
H549 C554 0.949 . S
H550 C556 0.950 . S
H551 C557 0.950 . S
H552 C558 0.949 . S
C553 H548 0.950 . S
C553 C555 1.327 . S
C553 C559 1.429 . S
C554 C546 1.574 . S
C554 H549 0.949 . S
C554 C560 1.368 . S
C555 C539 1.349 . S
C555 H547 0.950 . S
C555 C553 1.327 . S
C556 C544 1.349 . S
C556 H550 0.950 . S
C556 C557 1.327 . S
C557 H551 0.950 . S
C557 C556 1.327 . S
C557 C561 1.429 . S
C558 C541 1.574 . S
C558 H552 0.949 . S
C558 C562 1.368 . S
C559 C540 1.429 . S
C559 C553 1.429 . S
C559 C560 1.523 . S
C560 C541 1.368 . S
C560 C554 1.368 . S
C560 C559 1.523 . S
C561 C545 1.429 . S
C561 C557 1.429 . S
C561 C562 1.523 . S
C562 C546 1.368 . S
C562 C558 1.368 . S
C562 C561 1.523 . S
H563 C538 0.950 . S
H564 C540 0.950 . S
H565 C541 0.949 . S
H566 C543 0.950 . S
H567 C545 0.950 . S
C568 C569 1.349 . S
C568 C570 1.327 . S
C568 H593 0.950 . S
C569 C568 1.349 . S
C569 C585 1.349 . S
C570 C568 1.327 . S
C570 C589 1.429 . S
C570 H594 0.950 . S
C571 C588 1.574 . S
C571 C590 1.368 . S
C571 H595 0.949 . S
H572 C576 0.949 . S
C573 C574 1.349 . S
C573 C575 1.327 . S
C573 H596 0.950 . S
C574 C573 1.349 . S
C574 C586 1.349 . S
C575 C573 1.327 . S
C575 C591 1.429 . S
C575 H597 0.950 . S
C576 H572 0.949 . S
C576 C584 1.574 . S
C576 C592 1.368 . S
H577 C585 0.950 . S
H578 C583 0.950 . S
H579 C584 0.949 . S
H580 C586 0.950 . S
H581 C587 0.950 . S
H582 C588 0.949 . S
C583 H578 0.950 . S
C583 C585 1.327 . S
C583 C589 1.429 . S
C584 C576 1.574 . S
C584 H579 0.949 . S
C584 C590 1.368 . S
C585 C569 1.349 . S
C585 H577 0.950 . S
C585 C583 1.327 . S
C586 C574 1.349 . S
C586 H580 0.950 . S
C586 C587 1.327 . S
C587 H581 0.950 . S
C587 C586 1.327 . S
C587 C591 1.429 . S
C588 C571 1.574 . S
C588 H582 0.949 . S
C588 C592 1.368 . S
C589 C570 1.429 . S
C589 C583 1.429 . S
C589 C590 1.523 . S
C590 C571 1.368 . S
C590 C584 1.368 . S
C590 C589 1.523 . S
C591 C575 1.429 . S
C591 C587 1.429 . S
C591 C592 1.523 . S
C592 C576 1.368 . S
C592 C588 1.368 . S
C592 C591 1.523 . S
H593 C568 0.950 . S
H594 C570 0.950 . S
H595 C571 0.949 . S
H596 C573 0.950 . S
H597 C575 0.950 . S
C598 C599 1.349 . S
C598 C600 1.327 . S
C598 H623 0.950 . S
C599 C598 1.349 . S
C599 C615 1.349 . S
C600 C598 1.327 . S
C600 C619 1.429 . S
C600 H624 0.950 . S
C601 C618 1.574 . S
C601 C620 1.368 . S
C601 H625 0.949 . S
H602 C606 0.949 . S
C603 C604 1.349 . S
C603 C605 1.327 . S
C603 H626 0.950 . S
C604 C603 1.349 . S
C604 C616 1.349 . S
C605 C603 1.327 . S
C605 C621 1.429 . S
C605 H627 0.950 . S
C606 H602 0.949 . S
C606 C614 1.574 . S
C606 C622 1.368 . S
H607 C615 0.950 . S
H608 C613 0.950 . S
H609 C614 0.949 . S
H610 C616 0.950 . S
H611 C617 0.950 . S
H612 C618 0.949 . S
C613 H608 0.950 . S
C613 C615 1.327 . S
C613 C619 1.429 . S
C614 C606 1.574 . S
C614 H609 0.949 . S
C614 C620 1.368 . S
C615 C599 1.349 . S
C615 H607 0.950 . S
C615 C613 1.327 . S
C616 C604 1.349 . S
C616 H610 0.950 . S
C616 C617 1.327 . S
C617 H611 0.950 . S
C617 C616 1.327 . S
C617 C621 1.429 . S
C618 C601 1.574 . S
C618 H612 0.949 . S
C618 C622 1.368 . S
C619 C600 1.429 . S
C619 C613 1.429 . S
C619 C620 1.523 . S
C620 C601 1.368 . S
C620 C614 1.368 . S
C620 C619 1.523 . S
C621 C605 1.429 . S
C621 C617 1.429 . S
C621 C622 1.523 . S
C622 C606 1.368 . S
C622 C618 1.368 . S
C622 C621 1.523 . S
H623 C598 0.950 . S
H624 C600 0.950 . S
H625 C601 0.949 . S
H626 C603 0.950 . S
H627 C605 0.950 . S
C628 C629 1.349 . S
C628 C630 1.327 . S
C628 H653 0.950 . S
C629 C628 1.349 . S
C629 C645 1.349 . S
C630 C628 1.327 . S
C630 C649 1.429 . S
C630 H654 0.950 . S
C631 C648 1.574 . S
C631 C650 1.368 . S
C631 H655 0.949 . S
H632 C636 0.949 . S
C633 C634 1.349 . S
C633 C635 1.327 . S
C633 H656 0.950 . S
C634 C633 1.349 . S
C634 C646 1.349 . S
C635 C633 1.327 . S
C635 C651 1.429 . S
C635 H657 0.950 . S
C636 H632 0.949 . S
C636 C644 1.574 . S
C636 C652 1.368 . S
H637 C645 0.950 . S
H638 C643 0.950 . S
H639 C644 0.949 . S
H640 C646 0.950 . S
H641 C647 0.950 . S
H642 C648 0.949 . S
C643 H638 0.950 . S
C643 C645 1.327 . S
C643 C649 1.429 . S
C644 C636 1.574 . S
C644 H639 0.949 . S
C644 C650 1.368 . S
C645 C629 1.349 . S
C645 H637 0.950 . S
C645 C643 1.327 . S
C646 C634 1.349 . S
C646 H640 0.950 . S
C646 C647 1.327 . S
C647 H641 0.950 . S
C647 C646 1.327 . S
C647 C651 1.429 . S
C648 C631 1.574 . S
C648 H642 0.949 . S
C648 C652 1.368 . S
C649 C630 1.429 . S
C649 C643 1.429 . S
C649 C650 1.523 . S
C650 C631 1.368 . S
C650 C644 1.368 . S
C650 C649 1.523 . S
C651 C635 1.429 . S
C651 C647 1.429 . S
C651 C652 1.523 . S
C652 C636 1.368 . S
C652 C648 1.368 . S
C652 C651 1.523 . S
H653 C628 0.950 . S
H654 C630 0.950 . S
H655 C631 0.949 . S
H656 C633 0.950 . S
H657 C635 0.950 . S
C658 C659 1.349 . S
C658 C660 1.327 . S
C658 H683 0.950 . S
C659 C658 1.349 . S
C659 C675 1.349 . S
C660 C658 1.327 . S
C660 C679 1.429 . S
C660 H684 0.950 . S
C661 C678 1.574 . S
C661 C680 1.368 . S
C661 H685 0.949 . S
H662 C666 0.949 . S
C663 C664 1.349 . S
C663 C665 1.327 . S
C663 H686 0.950 . S
C664 C663 1.349 . S
C664 C676 1.349 . S
C665 C663 1.327 . S
C665 C681 1.429 . S
C665 H687 0.950 . S
C666 H662 0.949 . S
C666 C674 1.574 . S
C666 C682 1.368 . S
H667 C675 0.950 . S
H668 C673 0.950 . S
H669 C674 0.949 . S
H670 C676 0.950 . S
H671 C677 0.950 . S
H672 C678 0.949 . S
C673 H668 0.950 . S
C673 C675 1.327 . S
C673 C679 1.429 . S
C674 C666 1.574 . S
C674 H669 0.949 . S
C674 C680 1.368 . S
C675 C659 1.349 . S
C675 H667 0.950 . S
C675 C673 1.327 . S
C676 C664 1.349 . S
C676 H670 0.950 . S
C676 C677 1.327 . S
C677 H671 0.950 . S
C677 C676 1.327 . S
C677 C681 1.429 . S
C678 C661 1.574 . S
C678 H672 0.949 . S
C678 C682 1.368 . S
C679 C660 1.429 . S
C679 C673 1.429 . S
C679 C680 1.523 . S
C680 C661 1.368 . S
C680 C674 1.368 . S
C680 C679 1.523 . S
C681 C665 1.429 . S
C681 C677 1.429 . S
C681 C682 1.523 . S
C682 C666 1.368 . S
C682 C678 1.368 . S
C682 C681 1.523 . S
H683 C658 0.950 . S
H684 C660 0.950 . S
H685 C661 0.949 . S
H686 C663 0.950 . S
H687 C665 0.950 . S
C688 C689 1.349 . S
C688 C690 1.327 . S
C688 H713 0.950 . S
C689 C688 1.349 . S
C689 C705 1.349 . S
C690 C688 1.327 . S
C690 C709 1.429 . S
C690 H714 0.950 . S
C691 C708 1.574 . S
C691 C710 1.368 . S
C691 H715 0.949 . S
H692 C696 0.949 . S
C693 C694 1.349 . S
C693 C695 1.327 . S
C693 H716 0.950 . S
C694 C693 1.349 . S
C694 C706 1.349 . S
C695 C693 1.327 . S
C695 C711 1.429 . S
C695 H717 0.950 . S
C696 H692 0.949 . S
C696 C704 1.574 . S
C696 C712 1.368 . S
H697 C705 0.950 . S
H698 C703 0.950 . S
H699 C704 0.949 . S
H700 C706 0.950 . S
H701 C707 0.950 . S
H702 C708 0.949 . S
C703 H698 0.950 . S
C703 C705 1.327 . S
C703 C709 1.429 . S
C704 C696 1.574 . S
C704 H699 0.949 . S
C704 C710 1.368 . S
C705 C689 1.349 . S
C705 H697 0.950 . S
C705 C703 1.327 . S
C706 C694 1.349 . S
C706 H700 0.950 . S
C706 C707 1.327 . S
C707 H701 0.950 . S
C707 C706 1.327 . S
C707 C711 1.429 . S
C708 C691 1.574 . S
C708 H702 0.949 . S
C708 C712 1.368 . S
C709 C690 1.429 . S
C709 C703 1.429 . S
C709 C710 1.523 . S
C710 C691 1.368 . S
C710 C704 1.368 . S
C710 C709 1.523 . S
C711 C695 1.429 . S
C711 C707 1.429 . S
C711 C712 1.523 . S
C712 C696 1.368 . S
C712 C708 1.368 . S
C712 C711 1.523 . S
H713 C688 0.950 . S
H714 C690 0.950 . S
H715 C691 0.949 . S
H716 C693 0.950 . S
H717 C695 0.950 . S
C718 C719 1.349 . S
C718 C720 1.327 . S
C718 H743 0.950 . S
C719 C718 1.349 . S
C719 C735 1.349 . S
C720 C718 1.327 . S
C720 C739 1.429 . S
C720 H744 0.950 . S
C721 C738 1.574 . S
C721 C740 1.368 . S
C721 H745 0.949 . S
H722 C726 0.949 . S
C723 C724 1.349 . S
C723 C725 1.327 . S
C723 H746 0.950 . S
C724 C723 1.349 . S
C724 C736 1.349 . S
C725 C723 1.327 . S
C725 C741 1.429 . S
C725 H747 0.950 . S
C726 H722 0.949 . S
C726 C734 1.574 . S
C726 C742 1.368 . S
H727 C735 0.950 . S
H728 C733 0.950 . S
H729 C734 0.949 . S
H730 C736 0.950 . S
H731 C737 0.950 . S
H732 C738 0.949 . S
C733 H728 0.950 . S
C733 C735 1.327 . S
C733 C739 1.429 . S
C734 C726 1.574 . S
C734 H729 0.949 . S
C734 C740 1.368 . S
C735 C719 1.349 . S
C735 H727 0.950 . S
C735 C733 1.327 . S
C736 C724 1.349 . S
C736 H730 0.950 . S
C736 C737 1.327 . S
C737 H731 0.950 . S
C737 C736 1.327 . S
C737 C741 1.429 . S
C738 C721 1.574 . S
C738 H732 0.949 . S
C738 C742 1.368 . S
C739 C720 1.429 . S
C739 C733 1.429 . S
C739 C740 1.523 . S
C740 C721 1.368 . S
C740 C734 1.368 . S
C740 C739 1.523 . S
C741 C725 1.429 . S
C741 C737 1.429 . S
C741 C742 1.523 . S
C742 C726 1.368 . S
C742 C738 1.368 . S
C742 C741 1.523 . S
H743 C718 0.950 . S
H744 C720 0.950 . S
H745 C721 0.949 . S
H746 C723 0.950 . S
H747 C725 0.950 . S
C748 C749 1.349 . S
C748 C750 1.327 . S
C748 H773 0.950 . S
C749 C748 1.349 . S
C749 C765 1.349 . S
C750 C748 1.327 . S
C750 C769 1.429 . S
C750 H774 0.950 . S
C751 C768 1.574 . S
C751 C770 1.368 . S
C751 H775 0.949 . S
H752 C756 0.949 . S
C753 C754 1.349 . S
C753 C755 1.327 . S
C753 H776 0.950 . S
C754 C753 1.349 . S
C754 C766 1.349 . S
C755 C753 1.327 . S
C755 C771 1.429 . S
C755 H777 0.950 . S
C756 H752 0.949 . S
C756 C764 1.574 . S
C756 C772 1.368 . S
H757 C765 0.950 . S
H758 C763 0.950 . S
H759 C764 0.949 . S
H760 C766 0.950 . S
H761 C767 0.950 . S
H762 C768 0.949 . S
C763 H758 0.950 . S
C763 C765 1.327 . S
C763 C769 1.429 . S
C764 C756 1.574 . S
C764 H759 0.949 . S
C764 C770 1.368 . S
C765 C749 1.349 . S
C765 H757 0.950 . S
C765 C763 1.327 . S
C766 C754 1.349 . S
C766 H760 0.950 . S
C766 C767 1.327 . S
C767 H761 0.950 . S
C767 C766 1.327 . S
C767 C771 1.429 . S
C768 C751 1.574 . S
C768 H762 0.949 . S
C768 C772 1.368 . S
C769 C750 1.429 . S
C769 C763 1.429 . S
C769 C770 1.523 . S
C770 C751 1.368 . S
C770 C764 1.368 . S
C770 C769 1.523 . S
C771 C755 1.429 . S
C771 C767 1.429 . S
C771 C772 1.523 . S
C772 C756 1.368 . S
C772 C768 1.368 . S
C772 C771 1.523 . S
H773 C748 0.950 . S
H774 C750 0.950 . S
H775 C751 0.949 . S
H776 C753 0.950 . S
H777 C755 0.950 . S
C778 C779 1.349 . S
C778 C780 1.327 . S
C778 H803 0.950 . S
C779 C778 1.349 . S
C779 C795 1.349 . S
C780 C778 1.327 . S
C780 C799 1.429 . S
C780 H804 0.950 . S
C781 C798 1.574 . S
C781 C800 1.368 . S
C781 H805 0.949 . S
H782 C786 0.949 . S
C783 C784 1.349 . S
C783 C785 1.327 . S
C783 H806 0.950 . S
C784 C783 1.349 . S
C784 C796 1.349 . S
C785 C783 1.327 . S
C785 C801 1.429 . S
C785 H807 0.950 . S
C786 H782 0.949 . S
C786 C794 1.574 . S
C786 C802 1.368 . S
H787 C795 0.950 . S
H788 C793 0.950 . S
H789 C794 0.949 . S
H790 C796 0.950 . S
H791 C797 0.950 . S
H792 C798 0.949 . S
C793 H788 0.950 . S
C793 C795 1.327 . S
C793 C799 1.429 . S
C794 C786 1.574 . S
C794 H789 0.949 . S
C794 C800 1.368 . S
C795 C779 1.349 . S
C795 H787 0.950 . S
C795 C793 1.327 . S
C796 C784 1.349 . S
C796 H790 0.950 . S
C796 C797 1.327 . S
C797 H791 0.950 . S
C797 C796 1.327 . S
C797 C801 1.429 . S
C798 C781 1.574 . S
C798 H792 0.949 . S
C798 C802 1.368 . S
C799 C780 1.429 . S
C799 C793 1.429 . S
C799 C800 1.523 . S
C800 C781 1.368 . S
C800 C794 1.368 . S
C800 C799 1.523 . S
C801 C785 1.429 . S
C801 C797 1.429 . S
C801 C802 1.523 . S
C802 C786 1.368 . S
C802 C798 1.368 . S
C802 C801 1.523 . S
H803 C778 0.950 . S
H804 C780 0.950 . S
H805 C781 0.949 . S
H806 C783 0.950 . S
H807 C785 0.950 . S
C808 C809 1.349 . S
C808 C810 1.327 . S
C808 H833 0.950 . S
C809 C808 1.349 . S
C809 C825 1.349 . S
C810 C808 1.327 . S
C810 C829 1.429 . S
C810 H834 0.950 . S
C811 C828 1.574 . S
C811 C830 1.368 . S
C811 H835 0.949 . S
H812 C816 0.949 . S
C813 C814 1.349 . S
C813 C815 1.327 . S
C813 H836 0.950 . S
C814 C813 1.349 . S
C814 C826 1.349 . S
C815 C813 1.327 . S
C815 C831 1.429 . S
C815 H837 0.950 . S
C816 H812 0.949 . S
C816 C824 1.574 . S
C816 C832 1.368 . S
H817 C825 0.950 . S
H818 C823 0.950 . S
H819 C824 0.949 . S
H820 C826 0.950 . S
H821 C827 0.950 . S
H822 C828 0.949 . S
C823 H818 0.950 . S
C823 C825 1.327 . S
C823 C829 1.429 . S
C824 C816 1.574 . S
C824 H819 0.949 . S
C824 C830 1.368 . S
C825 C809 1.349 . S
C825 H817 0.950 . S
C825 C823 1.327 . S
C826 C814 1.349 . S
C826 H820 0.950 . S
C826 C827 1.327 . S
C827 H821 0.950 . S
C827 C826 1.327 . S
C827 C831 1.429 . S
C828 C811 1.574 . S
C828 H822 0.949 . S
C828 C832 1.368 . S
C829 C810 1.429 . S
C829 C823 1.429 . S
C829 C830 1.523 . S
C830 C811 1.368 . S
C830 C824 1.368 . S
C830 C829 1.523 . S
C831 C815 1.429 . S
C831 C827 1.429 . S
C831 C832 1.523 . S
C832 C816 1.368 . S
C832 C828 1.368 . S
C832 C831 1.523 . S
H833 C808 0.950 . S
H834 C810 0.950 . S
H835 C811 0.949 . S
H836 C813 0.950 . S
H837 C815 0.950 . S
C838 C839 1.349 . S
C838 C840 1.327 . S
C838 H863 0.950 . S
C839 C838 1.349 . S
C839 C855 1.349 . S
C840 C838 1.327 . S
C840 C859 1.429 . S
C840 H864 0.950 . S
C841 C858 1.574 . S
C841 C860 1.368 . S
C841 H865 0.949 . S
H842 C846 0.949 . S
C843 C844 1.349 . S
C843 C845 1.327 . S
C843 H866 0.950 . S
C844 C843 1.349 . S
C844 C856 1.349 . S
C845 C843 1.327 . S
C845 C861 1.429 . S
C845 H867 0.950 . S
C846 H842 0.949 . S
C846 C854 1.574 . S
C846 C862 1.368 . S
H847 C855 0.950 . S
H848 C853 0.950 . S
H849 C854 0.949 . S
H850 C856 0.950 . S
H851 C857 0.950 . S
H852 C858 0.949 . S
C853 H848 0.950 . S
C853 C855 1.327 . S
C853 C859 1.429 . S
C854 C846 1.574 . S
C854 H849 0.949 . S
C854 C860 1.368 . S
C855 C839 1.349 . S
C855 H847 0.950 . S
C855 C853 1.327 . S
C856 C844 1.349 . S
C856 H850 0.950 . S
C856 C857 1.327 . S
C857 H851 0.950 . S
C857 C856 1.327 . S
C857 C861 1.429 . S
C858 C841 1.574 . S
C858 H852 0.949 . S
C858 C862 1.368 . S
C859 C840 1.429 . S
C859 C853 1.429 . S
C859 C860 1.523 . S
C860 C841 1.368 . S
C860 C854 1.368 . S
C860 C859 1.523 . S
C861 C845 1.429 . S
C861 C857 1.429 . S
C861 C862 1.523 . S
C862 C846 1.368 . S
C862 C858 1.368 . S
C862 C861 1.523 . S
H863 C838 0.950 . S
H864 C840 0.950 . S
H865 C841 0.949 . S
H866 C843 0.950 . S
H867 C845 0.950 . S
C868 C869 1.349 . S
C868 C870 1.327 . S
C868 H893 0.950 . S
C869 C868 1.349 . S
C869 C885 1.349 . S
C870 C868 1.327 . S
C870 C889 1.429 . S
C870 H894 0.950 . S
C871 C888 1.574 . S
C871 C890 1.368 . S
C871 H895 0.949 . S
H872 C876 0.949 . S
C873 C874 1.349 . S
C873 C875 1.327 . S
C873 H896 0.950 . S
C874 C873 1.349 . S
C874 C886 1.349 . S
C875 C873 1.327 . S
C875 C891 1.429 . S
C875 H897 0.950 . S
C876 H872 0.949 . S
C876 C884 1.574 . S
C876 C892 1.368 . S
H877 C885 0.950 . S
H878 C883 0.950 . S
H879 C884 0.949 . S
H880 C886 0.950 . S
H881 C887 0.950 . S
H882 C888 0.949 . S
C883 H878 0.950 . S
C883 C885 1.327 . S
C883 C889 1.429 . S
C884 C876 1.574 . S
C884 H879 0.949 . S
C884 C890 1.368 . S
C885 C869 1.349 . S
C885 H877 0.950 . S
C885 C883 1.327 . S
C886 C874 1.349 . S
C886 H880 0.950 . S
C886 C887 1.327 . S
C887 H881 0.950 . S
C887 C886 1.327 . S
C887 C891 1.429 . S
C888 C871 1.574 . S
C888 H882 0.949 . S
C888 C892 1.368 . S
C889 C870 1.429 . S
C889 C883 1.429 . S
C889 C890 1.523 . S
C890 C871 1.368 . S
C890 C884 1.368 . S
C890 C889 1.523 . S
C891 C875 1.429 . S
C891 C887 1.429 . S
C891 C892 1.523 . S
C892 C876 1.368 . S
C892 C888 1.368 . S
C892 C891 1.523 . S
H893 C868 0.950 . S
H894 C870 0.950 . S
H895 C871 0.949 . S
H896 C873 0.950 . S
H897 C875 0.950 . S
C898 C899 1.349 . S
C898 C900 1.327 . S
C898 H923 0.950 . S
C899 C898 1.349 . S
C899 C915 1.349 . S
C900 C898 1.327 . S
C900 C919 1.429 . S
C900 H924 0.950 . S
C901 C918 1.574 . S
C901 C920 1.368 . S
C901 H925 0.949 . S
H902 C906 0.949 . S
C903 C904 1.349 . S
C903 C905 1.327 . S
C903 H926 0.950 . S
C904 C903 1.349 . S
C904 C916 1.349 . S
C905 C903 1.327 . S
C905 C921 1.429 . S
C905 H927 0.950 . S
C906 H902 0.949 . S
C906 C914 1.574 . S
C906 C922 1.368 . S
H907 C915 0.950 . S
H908 C913 0.950 . S
H909 C914 0.949 . S
H910 C916 0.950 . S
H911 C917 0.950 . S
H912 C918 0.949 . S
C913 H908 0.950 . S
C913 C915 1.327 . S
C913 C919 1.429 . S
C914 C906 1.574 . S
C914 H909 0.949 . S
C914 C920 1.368 . S
C915 C899 1.349 . S
C915 H907 0.950 . S
C915 C913 1.327 . S
C916 C904 1.349 . S
C916 H910 0.950 . S
C916 C917 1.327 . S
C917 H911 0.950 . S
C917 C916 1.327 . S
C917 C921 1.429 . S
C918 C901 1.574 . S
C918 H912 0.949 . S
C918 C922 1.368 . S
C919 C900 1.429 . S
C919 C913 1.429 . S
C919 C920 1.523 . S
C920 C901 1.368 . S
C920 C914 1.368 . S
C920 C919 1.523 . S
C921 C905 1.429 . S
C921 C917 1.429 . S
C921 C922 1.523 . S
C922 C906 1.368 . S
C922 C918 1.368 . S
C922 C921 1.523 . S
H923 C898 0.950 . S
H924 C900 0.950 . S
H925 C901 0.949 . S
H926 C903 0.950 . S
H927 C905 0.950 . S
C928 C929 1.349 . S
C928 C930 1.327 . S
C928 H953 0.950 . S
C929 C928 1.349 . S
C929 C945 1.349 . S
C930 C928 1.327 . S
C930 C949 1.429 . S
C930 H954 0.950 . S
C931 C948 1.574 1_554 S
C931 C950 1.368 . S
C931 H955 0.949 . S
H932 C936 0.949 . S
C933 C934 1.349 . S
C933 C935 1.327 . S
C933 H956 0.950 . S
C934 C933 1.349 . S
C934 C946 1.349 . S
C935 C933 1.327 . S
C935 C951 1.429 . S
C935 H957 0.950 . S
C936 H932 0.949 . S
C936 C944 1.574 1_556 S
C936 C952 1.368 . S
H937 C945 0.950 . S
H938 C943 0.950 . S
H939 C944 0.949 . S
H940 C946 0.950 . S
H941 C947 0.950 . S
H942 C948 0.949 . S
C943 H938 0.950 . S
C943 C945 1.327 . S
C943 C949 1.429 . S
C944 C936 1.574 1_554 S
C944 H939 0.949 . S
C944 C950 1.368 . S
C945 C929 1.349 . S
C945 H937 0.950 . S
C945 C943 1.327 . S
C946 C934 1.349 . S
C946 H940 0.950 . S
C946 C947 1.327 . S
C947 H941 0.950 . S
C947 C946 1.327 . S
C947 C951 1.429 . S
C948 C931 1.574 1_556 S
C948 H942 0.949 . S
C948 C952 1.368 . S
C949 C930 1.429 . S
C949 C943 1.429 . S
C949 C950 1.523 . S
C950 C931 1.368 . S
C950 C944 1.368 . S
C950 C949 1.523 . S
C951 C935 1.429 . S
C951 C947 1.429 . S
C951 C952 1.523 . S
C952 C936 1.368 . S
C952 C948 1.368 . S
C952 C951 1.523 . S
H953 C928 0.950 . S
H954 C930 0.950 . S
H955 C931 0.949 . S
H956 C933 0.950 . S
H957 C935 0.950 . S
C958 C959 1.349 . S
C958 C960 1.327 . S
C958 H983 0.950 . S
C959 C958 1.349 . S
C959 C975 1.349 . S
C960 C958 1.327 . S
C960 C979 1.429 . S
C960 H984 0.950 . S
C961 C978 1.574 1_556 S
C961 C980 1.368 . S
C961 H985 0.949 . S
H962 C966 0.949 . S
C963 C964 1.349 . S
C963 C965 1.327 . S
C963 H986 0.950 . S
C964 C963 1.349 . S
C964 C976 1.349 . S
C965 C963 1.327 . S
C965 C981 1.429 . S
C965 H987 0.950 . S
C966 H962 0.949 . S
C966 C974 1.574 1_554 S
C966 C982 1.368 . S
H967 C975 0.950 . S
H968 C973 0.950 . S
H969 C974 0.949 . S
H970 C976 0.950 . S
H971 C977 0.950 . S
H972 C978 0.949 . S
C973 H968 0.950 . S
C973 C975 1.327 . S
C973 C979 1.429 . S
C974 C966 1.574 1_556 S
C974 H969 0.949 . S
C974 C980 1.368 . S
C975 C959 1.349 . S
C975 H967 0.950 . S
C975 C973 1.327 . S
C976 C964 1.349 . S
C976 H970 0.950 . S
C976 C977 1.327 . S
C977 H971 0.950 . S
C977 C976 1.327 . S
C977 C981 1.429 . S
C978 C961 1.574 1_554 S
C978 H972 0.949 . S
C978 C982 1.368 . S
C979 C960 1.429 . S
C979 C973 1.429 . S
C979 C980 1.523 . S
C980 C961 1.368 . S
C980 C974 1.368 . S
C980 C979 1.523 . S
C981 C965 1.429 . S
C981 C977 1.429 . S
C981 C982 1.523 . S
C982 C966 1.368 . S
C982 C978 1.368 . S
C982 C981 1.523 . S
H983 C958 0.950 . S
H984 C960 0.950 . S
H985 C961 0.949 . S
H986 C963 0.950 . S
H987 C965 0.950 . S
C988 C989 1.349 . S
C988 C990 1.327 . S
C988 H1013 0.950 . S
C989 C988 1.349 . S
C989 C1005 1.349 . S
C990 C988 1.327 . S
C990 C1009 1.429 . S
C990 H1014 0.950 . S
C991 C1008 1.574 1_556 S
C991 C1010 1.368 . S
C991 H1015 0.949 . S
H992 C996 0.949 . S
C993 C994 1.349 . S
C993 C995 1.327 . S
C993 H1016 0.950 . S
C994 C993 1.349 . S
C994 C1006 1.349 . S
C995 C993 1.327 . S
C995 C1011 1.429 . S
C995 H1017 0.950 . S
C996 H992 0.949 . S
C996 C1004 1.574 1_554 S
C996 C1012 1.368 . S
H997 C1005 0.950 . S
H998 C1003 0.950 . S
H999 C1004 0.949 . S
H1000 C1006 0.950 . S
H1001 C1007 0.950 . S
H1002 C1008 0.949 . S
C1003 H998 0.950 . S
C1003 C1005 1.327 . S
C1003 C1009 1.429 . S
C1004 C996 1.574 1_556 S
C1004 H999 0.949 . S
C1004 C1010 1.368 . S
C1005 C989 1.349 . S
C1005 H997 0.950 . S
C1005 C1003 1.327 . S
C1006 C994 1.349 . S
C1006 H1000 0.950 . S
C1006 C1007 1.327 . S
C1007 H1001 0.950 . S
C1007 C1006 1.327 . S
C1007 C1011 1.429 . S
C1008 C991 1.574 1_554 S
C1008 H1002 0.949 . S
C1008 C1012 1.368 . S
C1009 C990 1.429 . S
C1009 C1003 1.429 . S
C1009 C1010 1.523 . S
C1010 C991 1.368 . S
C1010 C1004 1.368 . S
C1010 C1009 1.523 . S
C1011 C995 1.429 . S
C1011 C1007 1.429 . S
C1011 C1012 1.523 . S
C1012 C996 1.368 . S
C1012 C1008 1.368 . S
C1012 C1011 1.523 . S
H1013 C988 0.950 . S
H1014 C990 0.950 . S
H1015 C991 0.949 . S
H1016 C993 0.950 . S
H1017 C995 0.950 . S
C1018 C1019 1.349 . S
C1018 C1020 1.327 . S
C1018 H1043 0.950 . S
C1019 C1018 1.349 . S
C1019 C1035 1.349 . S
C1020 C1018 1.327 . S
C1020 C1039 1.429 . S
C1020 H1044 0.950 . S
C1021 C1038 1.574 1_556 S
C1021 C1040 1.368 . S
C1021 H1045 0.949 . S
H1022 C1026 0.949 . S
C1023 C1024 1.349 . S
C1023 C1025 1.327 . S
C1023 H1046 0.950 . S
C1024 C1023 1.349 . S
C1024 C1036 1.349 . S
C1025 C1023 1.327 . S
C1025 C1041 1.429 . S
C1025 H1047 0.950 . S
C1026 H1022 0.949 . S
C1026 C1034 1.574 1_554 S
C1026 C1042 1.368 . S
H1027 C1035 0.950 . S
H1028 C1033 0.950 . S
H1029 C1034 0.949 . S
H1030 C1036 0.950 . S
H1031 C1037 0.950 . S
H1032 C1038 0.949 . S
C1033 H1028 0.950 . S
C1033 C1035 1.327 . S
C1033 C1039 1.429 . S
C1034 C1026 1.574 1_556 S
C1034 H1029 0.949 . S
C1034 C1040 1.368 . S
C1035 C1019 1.349 . S
C1035 H1027 0.950 . S
C1035 C1033 1.327 . S
C1036 C1024 1.349 . S
C1036 H1030 0.950 . S
C1036 C1037 1.327 . S
C1037 H1031 0.950 . S
C1037 C1036 1.327 . S
C1037 C1041 1.429 . S
C1038 C1021 1.574 1_554 S
C1038 H1032 0.949 . S
C1038 C1042 1.368 . S
C1039 C1020 1.429 . S
C1039 C1033 1.429 . S
C1039 C1040 1.523 . S
C1040 C1021 1.368 . S
C1040 C1034 1.368 . S
C1040 C1039 1.523 . S
C1041 C1025 1.429 . S
C1041 C1037 1.429 . S
C1041 C1042 1.523 . S
C1042 C1026 1.368 . S
C1042 C1038 1.368 . S
C1042 C1041 1.523 . S
H1043 C1018 0.950 . S
H1044 C1020 0.950 . S
H1045 C1021 0.949 . S
H1046 C1023 0.950 . S
H1047 C1025 0.950 . S
C1048 C1049 1.349 . S
C1048 C1050 1.327 . S
C1048 H1073 0.950 . S
C1049 C1048 1.349 . S
C1049 C1065 1.349 . S
C1050 C1048 1.327 . S
C1050 C1069 1.429 . S
C1050 H1074 0.950 . S
C1051 C1068 1.574 . S
C1051 C1070 1.368 . S
C1051 H1075 0.949 . S
H1052 C1056 0.949 . S
C1053 C1054 1.349 . S
C1053 C1055 1.327 . S
C1053 H1076 0.950 . S
C1054 C1053 1.349 . S
C1054 C1066 1.349 . S
C1055 C1053 1.327 . S
C1055 C1071 1.429 . S
C1055 H1077 0.950 . S
C1056 H1052 0.949 . S
C1056 C1064 1.574 . S
C1056 C1072 1.368 . S
H1057 C1065 0.950 . S
H1058 C1063 0.950 . S
H1059 C1064 0.949 . S
H1060 C1066 0.950 . S
H1061 C1067 0.950 . S
H1062 C1068 0.949 . S
C1063 H1058 0.950 . S
C1063 C1065 1.327 . S
C1063 C1069 1.429 . S
C1064 C1056 1.574 . S
C1064 H1059 0.949 . S
C1064 C1070 1.368 . S
C1065 C1049 1.349 . S
C1065 H1057 0.950 . S
C1065 C1063 1.327 . S
C1066 C1054 1.349 . S
C1066 H1060 0.950 . S
C1066 C1067 1.327 . S
C1067 H1061 0.950 . S
C1067 C1066 1.327 . S
C1067 C1071 1.429 . S
C1068 C1051 1.574 . S
C1068 H1062 0.949 . S
C1068 C1072 1.368 . S
C1069 C1050 1.429 . S
C1069 C1063 1.429 . S
C1069 C1070 1.523 . S
C1070 C1051 1.368 . S
C1070 C1064 1.368 . S
C1070 C1069 1.523 . S
C1071 C1055 1.429 . S
C1071 C1067 1.429 . S
C1071 C1072 1.523 . S
C1072 C1056 1.368 . S
C1072 C1068 1.368 . S
C1072 C1071 1.523 . S
H1073 C1048 0.950 . S
H1074 C1050 0.950 . S
H1075 C1051 0.949 . S
H1076 C1053 0.950 . S
H1077 C1055 0.950 . S
C1078 C1079 1.349 . S
C1078 C1080 1.327 . S
C1078 H1103 0.950 . S
C1079 C1078 1.349 . S
C1079 C1095 1.349 . S
C1080 C1078 1.327 . S
C1080 C1099 1.429 . S
C1080 H1104 0.950 . S
C1081 C1098 1.574 . S
C1081 C1100 1.368 . S
C1081 H1105 0.949 . S
H1082 C1086 0.949 . S
C1083 C1084 1.349 . S
C1083 C1085 1.327 . S
C1083 H1106 0.950 . S
C1084 C1083 1.349 . S
C1084 C1096 1.349 . S
C1085 C1083 1.327 . S
C1085 C1101 1.429 . S
C1085 H1107 0.950 . S
C1086 H1082 0.949 . S
C1086 C1094 1.574 . S
C1086 C1102 1.368 . S
H1087 C1095 0.950 . S
H1088 C1093 0.950 . S
H1089 C1094 0.949 . S
H1090 C1096 0.950 . S
H1091 C1097 0.950 . S
H1092 C1098 0.949 . S
C1093 H1088 0.950 . S
C1093 C1095 1.327 . S
C1093 C1099 1.429 . S
C1094 C1086 1.574 . S
C1094 H1089 0.949 . S
C1094 C1100 1.368 . S
C1095 C1079 1.349 . S
C1095 H1087 0.950 . S
C1095 C1093 1.327 . S
C1096 C1084 1.349 . S
C1096 H1090 0.950 . S
C1096 C1097 1.327 . S
C1097 H1091 0.950 . S
C1097 C1096 1.327 . S
C1097 C1101 1.429 . S
C1098 C1081 1.574 . S
C1098 H1092 0.949 . S
C1098 C1102 1.368 . S
C1099 C1080 1.429 . S
C1099 C1093 1.429 . S
C1099 C1100 1.523 . S
C1100 C1081 1.368 . S
C1100 C1094 1.368 . S
C1100 C1099 1.523 . S
C1101 C1085 1.429 . S
C1101 C1097 1.429 . S
C1101 C1102 1.523 . S
C1102 C1086 1.368 . S
C1102 C1098 1.368 . S
C1102 C1101 1.523 . S
H1103 C1078 0.950 . S
H1104 C1080 0.950 . S
H1105 C1081 0.949 . S
H1106 C1083 0.950 . S
H1107 C1085 0.950 . S
C1108 C1109 1.349 . S
C1108 C1110 1.327 . S
C1108 H1133 0.950 . S
C1109 C1108 1.349 . S
C1109 C1125 1.349 . S
C1110 C1108 1.327 . S
C1110 C1129 1.429 . S
C1110 H1134 0.950 . S
C1111 C1128 1.574 . S
C1111 C1130 1.368 . S
C1111 H1135 0.949 . S
H1112 C1116 0.949 . S
C1113 C1114 1.349 . S
C1113 C1115 1.327 . S
C1113 H1136 0.950 . S
C1114 C1113 1.349 . S
C1114 C1126 1.349 . S
C1115 C1113 1.327 . S
C1115 C1131 1.429 . S
C1115 H1137 0.950 . S
C1116 H1112 0.949 . S
C1116 C1124 1.574 . S
C1116 C1132 1.368 . S
H1117 C1125 0.950 . S
H1118 C1123 0.950 . S
H1119 C1124 0.949 . S
H1120 C1126 0.950 . S
H1121 C1127 0.950 . S
H1122 C1128 0.949 . S
C1123 H1118 0.950 . S
C1123 C1125 1.327 . S
C1123 C1129 1.429 . S
C1124 C1116 1.574 . S
C1124 H1119 0.949 . S
C1124 C1130 1.368 . S
C1125 C1109 1.349 . S
C1125 H1117 0.950 . S
C1125 C1123 1.327 . S
C1126 C1114 1.349 . S
C1126 H1120 0.950 . S
C1126 C1127 1.327 . S
C1127 H1121 0.950 . S
C1127 C1126 1.327 . S
C1127 C1131 1.429 . S
C1128 C1111 1.574 . S
C1128 H1122 0.949 . S
C1128 C1132 1.368 . S
C1129 C1110 1.429 . S
C1129 C1123 1.429 . S
C1129 C1130 1.523 . S
C1130 C1111 1.368 . S
C1130 C1124 1.368 . S
C1130 C1129 1.523 . S
C1131 C1115 1.429 . S
C1131 C1127 1.429 . S
C1131 C1132 1.523 . S
C1132 C1116 1.368 . S
C1132 C1128 1.368 . S
C1132 C1131 1.523 . S
H1133 C1108 0.950 . S
H1134 C1110 0.950 . S
H1135 C1111 0.949 . S
H1136 C1113 0.950 . S
H1137 C1115 0.950 . S
C1138 C1139 1.349 . S
C1138 C1140 1.327 . S
C1138 H1163 0.950 . S
C1139 C1138 1.349 . S
C1139 C1155 1.349 . S
C1140 C1138 1.327 . S
C1140 C1159 1.429 . S
C1140 H1164 0.950 . S
C1141 C1158 1.574 . S
C1141 C1160 1.368 . S
C1141 H1165 0.949 . S
H1142 C1146 0.949 . S
C1143 C1144 1.349 . S
C1143 C1145 1.327 . S
C1143 H1166 0.950 . S
C1144 C1143 1.349 . S
C1144 C1156 1.349 . S
C1145 C1143 1.327 . S
C1145 C1161 1.429 . S
C1145 H1167 0.950 . S
C1146 H1142 0.949 . S
C1146 C1154 1.574 . S
C1146 C1162 1.368 . S
H1147 C1155 0.950 . S
H1148 C1153 0.950 . S
H1149 C1154 0.949 . S
H1150 C1156 0.950 . S
H1151 C1157 0.950 . S
H1152 C1158 0.949 . S
C1153 H1148 0.950 . S
C1153 C1155 1.327 . S
C1153 C1159 1.429 . S
C1154 C1146 1.574 . S
C1154 H1149 0.949 . S
C1154 C1160 1.368 . S
C1155 C1139 1.349 . S
C1155 H1147 0.950 . S
C1155 C1153 1.327 . S
C1156 C1144 1.349 . S
C1156 H1150 0.950 . S
C1156 C1157 1.327 . S
C1157 H1151 0.950 . S
C1157 C1156 1.327 . S
C1157 C1161 1.429 . S
C1158 C1141 1.574 . S
C1158 H1152 0.949 . S
C1158 C1162 1.368 . S
C1159 C1140 1.429 . S
C1159 C1153 1.429 . S
C1159 C1160 1.523 . S
C1160 C1141 1.368 . S
C1160 C1154 1.368 . S
C1160 C1159 1.523 . S
C1161 C1145 1.429 . S
C1161 C1157 1.429 . S
C1161 C1162 1.523 . S
C1162 C1146 1.368 . S
C1162 C1158 1.368 . S
C1162 C1161 1.523 . S
H1163 C1138 0.950 . S
H1164 C1140 0.950 . S
H1165 C1141 0.949 . S
H1166 C1143 0.950 . S
H1167 C1145 0.950 . S
C1168 C1169 1.349 . S
C1168 C1170 1.327 . S
C1168 H1193 0.950 . S
C1169 C1168 1.349 . S
C1169 C1185 1.349 . S
C1170 C1168 1.327 . S
C1170 C1189 1.429 . S
C1170 H1194 0.950 . S
C1171 C1188 1.574 . S
C1171 C1190 1.368 . S
C1171 H1195 0.949 . S
H1172 C1176 0.949 . S
C1173 C1174 1.349 . S
C1173 C1175 1.327 . S
C1173 H1196 0.950 . S
C1174 C1173 1.349 . S
C1174 C1186 1.349 . S
C1175 C1173 1.327 . S
C1175 C1191 1.429 . S
C1175 H1197 0.950 . S
C1176 H1172 0.949 . S
C1176 C1184 1.574 . S
C1176 C1192 1.368 . S
H1177 C1185 0.950 . S
H1178 C1183 0.950 . S
H1179 C1184 0.949 . S
H1180 C1186 0.950 . S
H1181 C1187 0.950 . S
H1182 C1188 0.949 . S
C1183 H1178 0.950 . S
C1183 C1185 1.327 . S
C1183 C1189 1.429 . S
C1184 C1176 1.574 . S
C1184 H1179 0.949 . S
C1184 C1190 1.368 . S
C1185 C1169 1.349 . S
C1185 H1177 0.950 . S
C1185 C1183 1.327 . S
C1186 C1174 1.349 . S
C1186 H1180 0.950 . S
C1186 C1187 1.327 . S
C1187 H1181 0.950 . S
C1187 C1186 1.327 . S
C1187 C1191 1.429 . S
C1188 C1171 1.574 . S
C1188 H1182 0.949 . S
C1188 C1192 1.368 . S
C1189 C1170 1.429 . S
C1189 C1183 1.429 . S
C1189 C1190 1.523 . S
C1190 C1171 1.368 . S
C1190 C1184 1.368 . S
C1190 C1189 1.523 . S
C1191 C1175 1.429 . S
C1191 C1187 1.429 . S
C1191 C1192 1.523 . S
C1192 C1176 1.368 . S
C1192 C1188 1.368 . S
C1192 C1191 1.523 . S
H1193 C1168 0.950 . S
H1194 C1170 0.950 . S
H1195 C1171 0.949 . S
H1196 C1173 0.950 . S
H1197 C1175 0.950 . S
C1198 C1199 1.349 . S
C1198 C1200 1.327 . S
C1198 H1223 0.950 . S
C1199 C1198 1.349 . S
C1199 C1215 1.349 . S
C1200 C1198 1.327 . S
C1200 C1219 1.429 . S
C1200 H1224 0.950 . S
C1201 C1218 1.574 . S
C1201 C1220 1.368 . S
C1201 H1225 0.949 . S
H1202 C1206 0.949 . S
C1203 C1204 1.349 . S
C1203 C1205 1.327 . S
C1203 H1226 0.950 . S
C1204 C1203 1.349 . S
C1204 C1216 1.349 . S
C1205 C1203 1.327 . S
C1205 C1221 1.429 . S
C1205 H1227 0.950 . S
C1206 H1202 0.949 . S
C1206 C1214 1.574 . S
C1206 C1222 1.368 . S
H1207 C1215 0.950 . S
H1208 C1213 0.950 . S
H1209 C1214 0.949 . S
H1210 C1216 0.950 . S
H1211 C1217 0.950 . S
H1212 C1218 0.949 . S
C1213 H1208 0.950 . S
C1213 C1215 1.327 . S
C1213 C1219 1.429 . S
C1214 C1206 1.574 . S
C1214 H1209 0.949 . S
C1214 C1220 1.368 . S
C1215 C1199 1.349 . S
C1215 H1207 0.950 . S
C1215 C1213 1.327 . S
C1216 C1204 1.349 . S
C1216 H1210 0.950 . S
C1216 C1217 1.327 . S
C1217 H1211 0.950 . S
C1217 C1216 1.327 . S
C1217 C1221 1.429 . S
C1218 C1201 1.574 . S
C1218 H1212 0.949 . S
C1218 C1222 1.368 . S
C1219 C1200 1.429 . S
C1219 C1213 1.429 . S
C1219 C1220 1.523 . S
C1220 C1201 1.368 . S
C1220 C1214 1.368 . S
C1220 C1219 1.523 . S
C1221 C1205 1.429 . S
C1221 C1217 1.429 . S
C1221 C1222 1.523 . S
C1222 C1206 1.368 . S
C1222 C1218 1.368 . S
C1222 C1221 1.523 . S
H1223 C1198 0.950 . S
H1224 C1200 0.950 . S
H1225 C1201 0.949 . S
H1226 C1203 0.950 . S
H1227 C1205 0.950 . S
C1228 C1229 1.349 . S
C1228 C1230 1.327 . S
C1228 H1253 0.950 . S
C1229 C1228 1.349 . S
C1229 C1245 1.349 . S
C1230 C1228 1.327 . S
C1230 C1249 1.429 . S
C1230 H1254 0.950 . S
C1231 C1248 1.574 . S
C1231 C1250 1.368 . S
C1231 H1255 0.949 . S
H1232 C1236 0.949 . S
C1233 C1234 1.349 . S
C1233 C1235 1.327 . S
C1233 H1256 0.950 . S
C1234 C1233 1.349 . S
C1234 C1246 1.349 . S
C1235 C1233 1.327 . S
C1235 C1251 1.429 . S
C1235 H1257 0.950 . S
C1236 H1232 0.949 . S
C1236 C1244 1.574 . S
C1236 C1252 1.368 . S
H1237 C1245 0.950 . S
H1238 C1243 0.950 . S
H1239 C1244 0.949 . S
H1240 C1246 0.950 . S
H1241 C1247 0.950 . S
H1242 C1248 0.949 . S
C1243 H1238 0.950 . S
C1243 C1245 1.327 . S
C1243 C1249 1.429 . S
C1244 C1236 1.574 . S
C1244 H1239 0.949 . S
C1244 C1250 1.368 . S
C1245 C1229 1.349 . S
C1245 H1237 0.950 . S
C1245 C1243 1.327 . S
C1246 C1234 1.349 . S
C1246 H1240 0.950 . S
C1246 C1247 1.327 . S
C1247 H1241 0.950 . S
C1247 C1246 1.327 . S
C1247 C1251 1.429 . S
C1248 C1231 1.574 . S
C1248 H1242 0.949 . S
C1248 C1252 1.368 . S
C1249 C1230 1.429 . S
C1249 C1243 1.429 . S
C1249 C1250 1.523 . S
C1250 C1231 1.368 . S
C1250 C1244 1.368 . S
C1250 C1249 1.523 . S
C1251 C1235 1.429 . S
C1251 C1247 1.429 . S
C1251 C1252 1.523 . S
C1252 C1236 1.368 . S
C1252 C1248 1.368 . S
C1252 C1251 1.523 . S
H1253 C1228 0.950 . S
H1254 C1230 0.950 . S
H1255 C1231 0.949 . S
H1256 C1233 0.950 . S
H1257 C1235 0.950 . S
C1258 C1259 1.349 . S
C1258 C1260 1.327 . S
C1258 H1283 0.950 . S
C1259 C1258 1.349 . S
C1259 C1275 1.349 . S
C1260 C1258 1.327 . S
C1260 C1279 1.429 . S
C1260 H1284 0.950 . S
C1261 C1278 1.574 . S
C1261 C1280 1.368 . S
C1261 H1285 0.949 . S
H1262 C1266 0.949 . S
C1263 C1264 1.349 . S
C1263 C1265 1.327 . S
C1263 H1286 0.950 . S
C1264 C1263 1.349 . S
C1264 C1276 1.349 . S
C1265 C1263 1.327 . S
C1265 C1281 1.429 . S
C1265 H1287 0.950 . S
C1266 H1262 0.949 . S
C1266 C1274 1.574 . S
C1266 C1282 1.368 . S
H1267 C1275 0.950 . S
H1268 C1273 0.950 . S
H1269 C1274 0.949 . S
H1270 C1276 0.950 . S
H1271 C1277 0.950 . S
H1272 C1278 0.949 . S
C1273 H1268 0.950 . S
C1273 C1275 1.327 . S
C1273 C1279 1.429 . S
C1274 C1266 1.574 . S
C1274 H1269 0.949 . S
C1274 C1280 1.368 . S
C1275 C1259 1.349 . S
C1275 H1267 0.950 . S
C1275 C1273 1.327 . S
C1276 C1264 1.349 . S
C1276 H1270 0.950 . S
C1276 C1277 1.327 . S
C1277 H1271 0.950 . S
C1277 C1276 1.327 . S
C1277 C1281 1.429 . S
C1278 C1261 1.574 . S
C1278 H1272 0.949 . S
C1278 C1282 1.368 . S
C1279 C1260 1.429 . S
C1279 C1273 1.429 . S
C1279 C1280 1.523 . S
C1280 C1261 1.368 . S
C1280 C1274 1.368 . S
C1280 C1279 1.523 . S
C1281 C1265 1.429 . S
C1281 C1277 1.429 . S
C1281 C1282 1.523 . S
C1282 C1266 1.368 . S
C1282 C1278 1.368 . S
C1282 C1281 1.523 . S
H1283 C1258 0.950 . S
H1284 C1260 0.950 . S
H1285 C1261 0.949 . S
H1286 C1263 0.950 . S
H1287 C1265 0.950 . S
C1288 C1289 1.349 . S
C1288 C1290 1.327 . S
C1288 H1313 0.950 . S
C1289 C1288 1.349 . S
C1289 C1305 1.349 . S
C1290 C1288 1.327 . S
C1290 C1309 1.429 . S
C1290 H1314 0.950 . S
C1291 C1308 1.574 1_556 S
C1291 C1310 1.368 . S
C1291 H1315 0.949 . S
H1292 C1296 0.949 . S
C1293 C1294 1.349 . S
C1293 C1295 1.327 . S
C1293 H1316 0.950 . S
C1294 C1293 1.349 . S
C1294 C1306 1.349 . S
C1295 C1293 1.327 . S
C1295 C1311 1.429 . S
C1295 H1317 0.950 . S
C1296 H1292 0.949 . S
C1296 C1304 1.574 1_554 S
C1296 C1312 1.368 . S
H1297 C1305 0.950 . S
H1298 C1303 0.950 . S
H1299 C1304 0.949 . S
H1300 C1306 0.950 . S
H1301 C1307 0.950 . S
H1302 C1308 0.949 . S
C1303 H1298 0.950 . S
C1303 C1305 1.327 . S
C1303 C1309 1.429 . S
C1304 C1296 1.574 1_556 S
C1304 H1299 0.949 . S
C1304 C1310 1.368 . S
C1305 C1289 1.349 . S
C1305 H1297 0.950 . S
C1305 C1303 1.327 . S
C1306 C1294 1.349 . S
C1306 H1300 0.950 . S
C1306 C1307 1.327 . S
C1307 H1301 0.950 . S
C1307 C1306 1.327 . S
C1307 C1311 1.429 . S
C1308 C1291 1.574 1_554 S
C1308 H1302 0.949 . S
C1308 C1312 1.368 . S
C1309 C1290 1.429 . S
C1309 C1303 1.429 . S
C1309 C1310 1.523 . S
C1310 C1291 1.368 . S
C1310 C1304 1.368 . S
C1310 C1309 1.523 . S
C1311 C1295 1.429 . S
C1311 C1307 1.429 . S
C1311 C1312 1.523 . S
C1312 C1296 1.368 . S
C1312 C1308 1.368 . S
C1312 C1311 1.523 . S
H1313 C1288 0.950 . S
H1314 C1290 0.950 . S
H1315 C1291 0.949 . S
H1316 C1293 0.950 . S
H1317 C1295 0.950 . S
C1318 C1319 1.349 . S
C1318 C1320 1.327 . S
C1318 H1343 0.950 . S
C1319 C1318 1.349 . S
C1319 C1335 1.349 . S
C1320 C1318 1.327 . S
C1320 C1339 1.429 . S
C1320 H1344 0.950 . S
C1321 C1338 1.574 1_554 S
C1321 C1340 1.368 . S
C1321 H1345 0.949 . S
H1322 C1326 0.949 . S
C1323 C1324 1.349 . S
C1323 C1325 1.327 . S
C1323 H1346 0.950 . S
C1324 C1323 1.349 . S
C1324 C1336 1.349 . S
C1325 C1323 1.327 . S
C1325 C1341 1.429 . S
C1325 H1347 0.950 . S
C1326 H1322 0.949 . S
C1326 C1334 1.574 1_556 S
C1326 C1342 1.368 . S
H1327 C1335 0.950 . S
H1328 C1333 0.950 . S
H1329 C1334 0.949 . S
H1330 C1336 0.950 . S
H1331 C1337 0.950 . S
H1332 C1338 0.949 . S
C1333 H1328 0.950 . S
C1333 C1335 1.327 . S
C1333 C1339 1.429 . S
C1334 C1326 1.574 1_554 S
C1334 H1329 0.949 . S
C1334 C1340 1.368 . S
C1335 C1319 1.349 . S
C1335 H1327 0.950 . S
C1335 C1333 1.327 . S
C1336 C1324 1.349 . S
C1336 H1330 0.950 . S
C1336 C1337 1.327 . S
C1337 H1331 0.950 . S
C1337 C1336 1.327 . S
C1337 C1341 1.429 . S
C1338 C1321 1.574 1_556 S
C1338 H1332 0.949 . S
C1338 C1342 1.368 . S
C1339 C1320 1.429 . S
C1339 C1333 1.429 . S
C1339 C1340 1.523 . S
C1340 C1321 1.368 . S
C1340 C1334 1.368 . S
C1340 C1339 1.523 . S
C1341 C1325 1.429 . S
C1341 C1337 1.429 . S
C1341 C1342 1.523 . S
C1342 C1326 1.368 . S
C1342 C1338 1.368 . S
C1342 C1341 1.523 . S
H1343 C1318 0.950 . S
H1344 C1320 0.950 . S
H1345 C1321 0.949 . S
H1346 C1323 0.950 . S
H1347 C1325 0.950 . S
C1348 C1349 1.349 . S
C1348 C1350 1.327 . S
C1348 H1373 0.950 . S
C1349 C1348 1.349 . S
C1349 C1365 1.349 . S
C1350 C1348 1.327 . S
C1350 C1369 1.429 . S
C1350 H1374 0.950 . S
C1351 C1368 1.574 1_554 S
C1351 C1370 1.368 . S
C1351 H1375 0.949 . S
H1352 C1356 0.949 . S
C1353 C1354 1.349 . S
C1353 C1355 1.327 . S
C1353 H1376 0.950 . S
C1354 C1353 1.349 . S
C1354 C1366 1.349 . S
C1355 C1353 1.327 . S
C1355 C1371 1.429 . S
C1355 H1377 0.950 . S
C1356 H1352 0.949 . S
C1356 C1364 1.574 1_556 S
C1356 C1372 1.368 . S
H1357 C1365 0.950 . S
H1358 C1363 0.950 . S
H1359 C1364 0.949 . S
H1360 C1366 0.950 . S
H1361 C1367 0.950 . S
H1362 C1368 0.949 . S
C1363 H1358 0.950 . S
C1363 C1365 1.327 . S
C1363 C1369 1.429 . S
C1364 C1356 1.574 1_554 S
C1364 H1359 0.949 . S
C1364 C1370 1.368 . S
C1365 C1349 1.349 . S
C1365 H1357 0.950 . S
C1365 C1363 1.327 . S
C1366 C1354 1.349 . S
C1366 H1360 0.950 . S
C1366 C1367 1.327 . S
C1367 H1361 0.950 . S
C1367 C1366 1.327 . S
C1367 C1371 1.429 . S
C1368 C1351 1.574 1_556 S
C1368 H1362 0.949 . S
C1368 C1372 1.368 . S
C1369 C1350 1.429 . S
C1369 C1363 1.429 . S
C1369 C1370 1.523 . S
C1370 C1351 1.368 . S
C1370 C1364 1.368 . S
C1370 C1369 1.523 . S
C1371 C1355 1.429 . S
C1371 C1367 1.429 . S
C1371 C1372 1.523 . S
C1372 C1356 1.368 . S
C1372 C1368 1.368 . S
C1372 C1371 1.523 . S
H1373 C1348 0.950 . S
H1374 C1350 0.950 . S
H1375 C1351 0.949 . S
H1376 C1353 0.950 . S
H1377 C1355 0.950 . S
C1378 C1379 1.349 . S
C1378 C1380 1.327 . S
C1378 H1403 0.950 . S
C1379 C1378 1.349 . S
C1379 C1395 1.349 . S
C1380 C1378 1.327 . S
C1380 C1399 1.429 . S
C1380 H1404 0.950 . S
C1381 C1398 1.574 1_556 S
C1381 C1400 1.368 . S
C1381 H1405 0.949 . S
H1382 C1386 0.949 . S
C1383 C1384 1.349 . S
C1383 C1385 1.327 . S
C1383 H1406 0.950 . S
C1384 C1383 1.349 . S
C1384 C1396 1.349 . S
C1385 C1383 1.327 . S
C1385 C1401 1.429 . S
C1385 H1407 0.950 . S
C1386 H1382 0.949 . S
C1386 C1394 1.574 1_554 S
C1386 C1402 1.368 . S
H1387 C1395 0.950 . S
H1388 C1393 0.950 . S
H1389 C1394 0.949 . S
H1390 C1396 0.950 . S
H1391 C1397 0.950 . S
H1392 C1398 0.949 . S
C1393 H1388 0.950 . S
C1393 C1395 1.327 . S
C1393 C1399 1.429 . S
C1394 C1386 1.574 1_556 S
C1394 H1389 0.949 . S
C1394 C1400 1.368 . S
C1395 C1379 1.349 . S
C1395 H1387 0.950 . S
C1395 C1393 1.327 . S
C1396 C1384 1.349 . S
C1396 H1390 0.950 . S
C1396 C1397 1.327 . S
C1397 H1391 0.950 . S
C1397 C1396 1.327 . S
C1397 C1401 1.429 . S
C1398 C1381 1.574 1_554 S
C1398 H1392 0.949 . S
C1398 C1402 1.368 . S
C1399 C1380 1.429 . S
C1399 C1393 1.429 . S
C1399 C1400 1.523 . S
C1400 C1381 1.368 . S
C1400 C1394 1.368 . S
C1400 C1399 1.523 . S
C1401 C1385 1.429 . S
C1401 C1397 1.429 . S
C1401 C1402 1.523 . S
C1402 C1386 1.368 . S
C1402 C1398 1.368 . S
C1402 C1401 1.523 . S
H1403 C1378 0.950 . S
H1404 C1380 0.950 . S
H1405 C1381 0.949 . S
H1406 C1383 0.950 . S
H1407 C1385 0.950 . S
C1408 C1409 1.349 . S
C1408 C1410 1.327 . S
C1408 H1433 0.950 . S
C1409 C1408 1.349 . S
C1409 C1425 1.349 . S
C1410 C1408 1.327 . S
C1410 C1429 1.429 . S
C1410 H1434 0.950 . S
C1411 C1428 1.559 1_545 S
C1411 C1430 1.368 . S
C1411 H1435 0.949 . S
H1412 C1416 0.949 . S
C1413 C1414 1.349 . S
C1413 C1415 1.327 . S
C1413 H1436 0.950 . S
C1414 C1413 1.349 . S
C1414 C1426 1.349 . S
C1415 C1413 1.327 . S
C1415 C1431 1.429 . S
C1415 H1437 0.950 . S
C1416 H1412 0.949 . S
C1416 C1424 1.559 1_565 S
C1416 C1432 1.368 . S
H1417 C1425 0.950 . S
H1418 C1423 0.950 . S
H1419 C1424 0.948 . S
H1420 C1426 0.950 . S
H1421 C1427 0.950 . S
H1422 C1428 0.948 . S
C1423 H1418 0.950 . S
C1423 C1425 1.327 . S
C1423 C1429 1.429 . S
C1424 C1416 1.559 1_545 S
C1424 H1419 0.948 . S
C1424 C1430 1.382 . S
C1425 C1409 1.349 . S
C1425 H1417 0.950 . S
C1425 C1423 1.327 . S
C1426 C1414 1.349 . S
C1426 H1420 0.950 . S
C1426 C1427 1.327 . S
C1427 H1421 0.950 . S
C1427 C1426 1.327 . S
C1427 C1431 1.429 . S
C1428 C1411 1.559 1_565 S
C1428 H1422 0.948 . S
C1428 C1432 1.382 . S
C1429 C1410 1.429 . S
C1429 C1423 1.429 . S
C1429 C1430 1.523 . S
C1430 C1411 1.368 . S
C1430 C1424 1.382 . S
C1430 C1429 1.523 . S
C1431 C1415 1.429 . S
C1431 C1427 1.429 . S
C1431 C1432 1.523 . S
C1432 C1416 1.368 . S
C1432 C1428 1.382 . S
C1432 C1431 1.523 . S
H1433 C1408 0.950 . S
H1434 C1410 0.950 . S
H1435 C1411 0.949 . S
H1436 C1413 0.950 . S
H1437 C1415 0.950 . S
C1438 C1439 1.349 . S
C1438 C1440 1.327 . S
C1438 H1463 0.950 . S
C1439 C1438 1.349 . S
C1439 C1455 1.349 . S
C1440 C1438 1.327 . S
C1440 C1459 1.429 . S
C1440 H1464 0.950 . S
C1441 C1458 1.574 1_655 S
C1441 C1460 1.368 . S
C1441 H1465 0.949 . S
H1442 C1446 0.949 . S
C1443 C1444 1.349 . S
C1443 C1445 1.327 . S
C1443 H1466 0.950 . S
C1444 C1443 1.349 . S
C1444 C1456 1.349 . S
C1445 C1443 1.327 . S
C1445 C1461 1.429 . S
C1445 H1467 0.950 . S
C1446 H1442 0.949 . S
C1446 C1454 1.574 1_455 S
C1446 C1462 1.368 . S
H1447 C1455 0.950 . S
H1448 C1453 0.950 . S
H1449 C1454 0.949 . S
H1450 C1456 0.950 . S
H1451 C1457 0.950 . S
H1452 C1458 0.949 . S
C1453 H1448 0.950 . S
C1453 C1455 1.327 . S
C1453 C1459 1.429 . S
C1454 C1446 1.574 1_655 S
C1454 H1449 0.949 . S
C1454 C1460 1.368 . S
C1455 C1439 1.349 . S
C1455 H1447 0.950 . S
C1455 C1453 1.327 . S
C1456 C1444 1.349 . S
C1456 H1450 0.950 . S
C1456 C1457 1.327 . S
C1457 H1451 0.950 . S
C1457 C1456 1.327 . S
C1457 C1461 1.429 . S
C1458 C1441 1.574 1_455 S
C1458 H1452 0.949 . S
C1458 C1462 1.368 . S
C1459 C1440 1.429 . S
C1459 C1453 1.429 . S
C1459 C1460 1.523 . S
C1460 C1441 1.368 . S
C1460 C1454 1.368 . S
C1460 C1459 1.523 . S
C1461 C1445 1.429 . S
C1461 C1457 1.429 . S
C1461 C1462 1.523 . S
C1462 C1446 1.368 . S
C1462 C1458 1.368 . S
C1462 C1461 1.523 . S
H1463 C1438 0.950 . S
H1464 C1440 0.950 . S
H1465 C1441 0.949 . S
H1466 C1443 0.950 . S
H1467 C1445 0.950 . S
C1468 C1469 1.349 . S
C1468 C1470 1.327 . S
C1468 H1493 0.950 . S
C1469 C1468 1.349 . S
C1469 C1485 1.349 . S
C1470 C1468 1.327 . S
C1470 C1489 1.429 . S
C1470 H1494 0.950 . S
C1471 C1488 1.574 1_545 S
C1471 C1490 1.368 . S
C1471 H1495 0.949 . S
H1472 C1476 0.949 . S
C1473 C1474 1.349 . S
C1473 C1475 1.327 . S
C1473 H1496 0.950 . S
C1474 C1473 1.349 . S
C1474 C1486 1.349 . S
C1475 C1473 1.327 . S
C1475 C1491 1.429 . S
C1475 H1497 0.950 . S
C1476 H1472 0.949 . S
C1476 C1484 1.574 1_565 S
C1476 C1492 1.368 . S
H1477 C1485 0.950 . S
H1478 C1483 0.950 . S
H1479 C1484 0.949 . S
H1480 C1486 0.950 . S
H1481 C1487 0.950 . S
H1482 C1488 0.949 . S
C1483 H1478 0.950 . S
C1483 C1485 1.327 . S
C1483 C1489 1.429 . S
C1484 C1476 1.574 1_545 S
C1484 H1479 0.949 . S
C1484 C1490 1.368 . S
C1485 C1469 1.349 . S
C1485 H1477 0.950 . S
C1485 C1483 1.327 . S
C1486 C1474 1.349 . S
C1486 H1480 0.950 . S
C1486 C1487 1.327 . S
C1487 H1481 0.950 . S
C1487 C1486 1.327 . S
C1487 C1491 1.429 . S
C1488 C1471 1.574 1_565 S
C1488 H1482 0.949 . S
C1488 C1492 1.368 . S
C1489 C1470 1.429 . S
C1489 C1483 1.429 . S
C1489 C1490 1.523 . S
C1490 C1471 1.368 . S
C1490 C1484 1.368 . S
C1490 C1489 1.523 . S
C1491 C1475 1.429 . S
C1491 C1487 1.429 . S
C1491 C1492 1.523 . S
C1492 C1476 1.368 . S
C1492 C1488 1.368 . S
C1492 C1491 1.523 . S
H1493 C1468 0.950 . S
H1494 C1470 0.950 . S
H1495 C1471 0.949 . S
H1496 C1473 0.950 . S
H1497 C1475 0.950 . S
C1498 C1499 1.349 . S
C1498 C1500 1.327 . S
C1498 H1523 0.950 . S
C1499 C1498 1.349 . S
C1499 C1515 1.349 . S
C1500 C1498 1.327 . S
C1500 C1519 1.429 . S
C1500 H1524 0.950 . S
C1501 C1518 1.574 1_455 S
C1501 C1520 1.368 . S
C1501 H1525 0.949 . S
H1502 C1506 0.949 . S
C1503 C1504 1.349 . S
C1503 C1505 1.327 . S
C1503 H1526 0.950 . S
C1504 C1503 1.349 . S
C1504 C1516 1.349 . S
C1505 C1503 1.327 . S
C1505 C1521 1.429 . S
C1505 H1527 0.950 . S
C1506 H1502 0.949 . S
C1506 C1514 1.574 1_655 S
C1506 C1522 1.368 . S
H1507 C1515 0.950 . S
H1508 C1513 0.950 . S
H1509 C1514 0.949 . S
H1510 C1516 0.950 . S
H1511 C1517 0.950 . S
H1512 C1518 0.949 . S
C1513 H1508 0.950 . S
C1513 C1515 1.327 . S
C1513 C1519 1.429 . S
C1514 C1506 1.574 1_455 S
C1514 H1509 0.949 . S
C1514 C1520 1.368 . S
C1515 C1499 1.349 . S
C1515 H1507 0.950 . S
C1515 C1513 1.327 . S
C1516 C1504 1.349 . S
C1516 H1510 0.950 . S
C1516 C1517 1.327 . S
C1517 H1511 0.950 . S
C1517 C1516 1.327 . S
C1517 C1521 1.429 . S
C1518 C1501 1.574 1_655 S
C1518 H1512 0.949 . S
C1518 C1522 1.368 . S
C1519 C1500 1.429 . S
C1519 C1513 1.429 . S
C1519 C1520 1.523 . S
C1520 C1501 1.368 . S
C1520 C1514 1.368 . S
C1520 C1519 1.523 . S
C1521 C1505 1.429 . S
C1521 C1517 1.429 . S
C1521 C1522 1.523 . S
C1522 C1506 1.368 . S
C1522 C1518 1.368 . S
C1522 C1521 1.523 . S
H1523 C1498 0.950 . S
H1524 C1500 0.950 . S
H1525 C1501 0.949 . S
H1526 C1503 0.950 . S
H1527 C1505 0.950 . S
C1528 C1529 1.349 . S
C1528 C1530 1.327 . S
C1528 H1553 0.950 . S
C1529 C1528 1.349 . S
C1529 C1545 1.349 . S
C1530 C1528 1.327 . S
C1530 C1549 1.429 . S
C1530 H1554 0.950 . S
C1531 C1548 1.574 1_565 S
C1531 C1550 1.368 . S
C1531 H1555 0.949 . S
H1532 C1536 0.949 . S
C1533 C1534 1.349 . S
C1533 C1535 1.327 . S
C1533 H1556 0.950 . S
C1534 C1533 1.349 . S
C1534 C1546 1.349 . S
C1535 C1533 1.327 . S
C1535 C1551 1.429 . S
C1535 H1557 0.950 . S
C1536 H1532 0.949 . S
C1536 C1544 1.574 1_545 S
C1536 C1552 1.368 . S
H1537 C1545 0.950 . S
H1538 C1543 0.950 . S
H1539 C1544 0.949 . S
H1540 C1546 0.950 . S
H1541 C1547 0.950 . S
H1542 C1548 0.949 . S
C1543 H1538 0.950 . S
C1543 C1545 1.327 . S
C1543 C1549 1.429 . S
C1544 C1536 1.574 1_565 S
C1544 H1539 0.949 . S
C1544 C1550 1.368 . S
C1545 C1529 1.349 . S
C1545 H1537 0.950 . S
C1545 C1543 1.327 . S
C1546 C1534 1.349 . S
C1546 H1540 0.950 . S
C1546 C1547 1.327 . S
C1547 H1541 0.950 . S
C1547 C1546 1.327 . S
C1547 C1551 1.429 . S
C1548 C1531 1.574 1_545 S
C1548 H1542 0.949 . S
C1548 C1552 1.368 . S
C1549 C1530 1.429 . S
C1549 C1543 1.429 . S
C1549 C1550 1.523 . S
C1550 C1531 1.368 . S
C1550 C1544 1.368 . S
C1550 C1549 1.523 . S
C1551 C1535 1.429 . S
C1551 C1547 1.429 . S
C1551 C1552 1.523 . S
C1552 C1536 1.368 . S
C1552 C1548 1.368 . S
C1552 C1551 1.523 . S
H1553 C1528 0.950 . S
H1554 C1530 0.950 . S
H1555 C1531 0.949 . S
H1556 C1533 0.950 . S
H1557 C1535 0.950 . S
C1558 C1559 1.349 . S
C1558 C1560 1.327 . S
C1558 H1583 0.950 . S
C1559 C1558 1.349 . S
C1559 C1575 1.349 . S
C1560 C1558 1.327 . S
C1560 C1579 1.429 . S
C1560 H1584 0.950 . S
C1561 C1578 1.574 1_655 S
C1561 C1580 1.368 . S
C1561 H1585 0.949 . S
H1562 C1566 0.949 . S
C1563 C1564 1.349 . S
C1563 C1565 1.327 . S
C1563 H1586 0.950 . S
C1564 C1563 1.349 . S
C1564 C1576 1.349 . S
C1565 C1563 1.327 . S
C1565 C1581 1.429 . S
C1565 H1587 0.950 . S
C1566 H1562 0.949 . S
C1566 C1574 1.574 1_455 S
C1566 C1582 1.368 . S
H1567 C1575 0.950 . S
H1568 C1573 0.950 . S
H1569 C1574 0.949 . S
H1570 C1576 0.950 . S
H1571 C1577 0.950 . S
H1572 C1578 0.949 . S
C1573 H1568 0.950 . S
C1573 C1575 1.327 . S
C1573 C1579 1.429 . S
C1574 C1566 1.574 1_655 S
C1574 H1569 0.949 . S
C1574 C1580 1.368 . S
C1575 C1559 1.349 . S
C1575 H1567 0.950 . S
C1575 C1573 1.327 . S
C1576 C1564 1.349 . S
C1576 H1570 0.950 . S
C1576 C1577 1.327 . S
C1577 H1571 0.950 . S
C1577 C1576 1.327 . S
C1577 C1581 1.429 . S
C1578 C1561 1.574 1_455 S
C1578 H1572 0.949 . S
C1578 C1582 1.368 . S
C1579 C1560 1.429 . S
C1579 C1573 1.429 . S
C1579 C1580 1.523 . S
C1580 C1561 1.368 . S
C1580 C1574 1.368 . S
C1580 C1579 1.523 . S
C1581 C1565 1.429 . S
C1581 C1577 1.429 . S
C1581 C1582 1.523 . S
C1582 C1566 1.368 . S
C1582 C1578 1.368 . S
C1582 C1581 1.523 . S
H1583 C1558 0.950 . S
H1584 C1560 0.950 . S
H1585 C1561 0.949 . S
H1586 C1563 0.950 . S
H1587 C1565 0.950 . S
C1588 C1589 1.349 . S
C1588 C1590 1.327 . S
C1588 H1613 0.950 . S
C1589 C1588 1.349 . S
C1589 C1605 1.349 . S
C1590 C1588 1.327 . S
C1590 C1609 1.429 . S
C1590 H1614 0.950 . S
C1591 C1608 1.574 1_565 S
C1591 C1610 1.368 . S
C1591 H1615 0.949 . S
H1592 C1596 0.949 . S
C1593 C1594 1.349 . S
C1593 C1595 1.327 . S
C1593 H1616 0.950 . S
C1594 C1593 1.349 . S
C1594 C1606 1.349 . S
C1595 C1593 1.327 . S
C1595 C1611 1.429 . S
C1595 H1617 0.950 . S
C1596 H1592 0.949 . S
C1596 C1604 1.574 1_545 S
C1596 C1612 1.368 . S
H1597 C1605 0.950 . S
H1598 C1603 0.950 . S
H1599 C1604 0.949 . S
H1600 C1606 0.950 . S
H1601 C1607 0.950 . S
H1602 C1608 0.949 . S
C1603 H1598 0.950 . S
C1603 C1605 1.327 . S
C1603 C1609 1.429 . S
C1604 C1596 1.574 1_565 S
C1604 H1599 0.949 . S
C1604 C1610 1.368 . S
C1605 C1589 1.349 . S
C1605 H1597 0.950 . S
C1605 C1603 1.327 . S
C1606 C1594 1.349 . S
C1606 H1600 0.950 . S
C1606 C1607 1.327 . S
C1607 H1601 0.950 . S
C1607 C1606 1.327 . S
C1607 C1611 1.429 . S
C1608 C1591 1.574 1_545 S
C1608 H1602 0.949 . S
C1608 C1612 1.368 . S
C1609 C1590 1.429 . S
C1609 C1603 1.429 . S
C1609 C1610 1.523 . S
C1610 C1591 1.368 . S
C1610 C1604 1.368 . S
C1610 C1609 1.523 . S
C1611 C1595 1.429 . S
C1611 C1607 1.429 . S
C1611 C1612 1.523 . S
C1612 C1596 1.368 . S
C1612 C1608 1.368 . S
C1612 C1611 1.523 . S
H1613 C1588 0.950 . S
H1614 C1590 0.950 . S
H1615 C1591 0.949 . S
H1616 C1593 0.950 . S
H1617 C1595 0.950 . S
C1618 C1619 1.349 . S
C1618 C1620 1.327 . S
C1618 H1643 0.950 . S
C1619 C1618 1.349 . S
C1619 C1635 1.349 . S
C1620 C1618 1.327 . S
C1620 C1639 1.429 . S
C1620 H1644 0.950 . S
C1621 C1638 1.574 1_655 S
C1621 C1640 1.368 . S
C1621 H1645 0.949 . S
H1622 C1626 0.949 . S
C1623 C1624 1.349 . S
C1623 C1625 1.327 . S
C1623 H1646 0.950 . S
C1624 C1623 1.349 . S
C1624 C1636 1.349 . S
C1625 C1623 1.327 . S
C1625 C1641 1.429 . S
C1625 H1647 0.950 . S
C1626 H1622 0.949 . S
C1626 C1634 1.574 1_455 S
C1626 C1642 1.368 . S
H1627 C1635 0.950 . S
H1628 C1633 0.950 . S
H1629 C1634 0.949 . S
H1630 C1636 0.950 . S
H1631 C1637 0.950 . S
H1632 C1638 0.949 . S
C1633 H1628 0.950 . S
C1633 C1635 1.327 . S
C1633 C1639 1.429 . S
C1634 C1626 1.574 1_655 S
C1634 H1629 0.949 . S
C1634 C1640 1.368 . S
C1635 C1619 1.349 . S
C1635 H1627 0.950 . S
C1635 C1633 1.327 . S
C1636 C1624 1.349 . S
C1636 H1630 0.950 . S
C1636 C1637 1.327 . S
C1637 H1631 0.950 . S
C1637 C1636 1.327 . S
C1637 C1641 1.429 . S
C1638 C1621 1.574 1_455 S
C1638 H1632 0.949 . S
C1638 C1642 1.368 . S
C1639 C1620 1.429 . S
C1639 C1633 1.429 . S
C1639 C1640 1.523 . S
C1640 C1621 1.368 . S
C1640 C1634 1.368 . S
C1640 C1639 1.523 . S
C1641 C1625 1.429 . S
C1641 C1637 1.429 . S
C1641 C1642 1.523 . S
C1642 C1626 1.368 . S
C1642 C1638 1.368 . S
C1642 C1641 1.523 . S
H1643 C1618 0.950 . S
H1644 C1620 0.950 . S
H1645 C1621 0.949 . S
H1646 C1623 0.950 . S
H1647 C1625 0.950 . S
C1648 C1649 1.349 . S
C1648 C1650 1.327 . S
C1648 H1673 0.950 . S
C1649 C1648 1.349 . S
C1649 C1665 1.349 . S
C1650 C1648 1.327 . S
C1650 C1669 1.429 . S
C1650 H1674 0.950 . S
C1651 C1668 1.574 . S
C1651 C1670 1.368 . S
C1651 H1675 0.949 . S
H1652 C1656 0.949 . S
C1653 C1654 1.349 . S
C1653 C1655 1.327 . S
C1653 H1676 0.950 . S
C1654 C1653 1.349 . S
C1654 C1666 1.349 . S
C1655 C1653 1.327 . S
C1655 C1671 1.429 . S
C1655 H1677 0.950 . S
C1656 H1652 0.949 . S
C1656 C1664 1.574 . S
C1656 C1672 1.368 . S
H1657 C1665 0.950 . S
H1658 C1663 0.950 . S
H1659 C1664 0.949 . S
H1660 C1666 0.950 . S
H1661 C1667 0.950 . S
H1662 C1668 0.949 . S
C1663 H1658 0.950 . S
C1663 C1665 1.327 . S
C1663 C1669 1.429 . S
C1664 C1656 1.574 . S
C1664 H1659 0.949 . S
C1664 C1670 1.368 . S
C1665 C1649 1.349 . S
C1665 H1657 0.950 . S
C1665 C1663 1.327 . S
C1666 C1654 1.349 . S
C1666 H1660 0.950 . S
C1666 C1667 1.327 . S
C1667 H1661 0.950 . S
C1667 C1666 1.327 . S
C1667 C1671 1.429 . S
C1668 C1651 1.574 . S
C1668 H1662 0.949 . S
C1668 C1672 1.368 . S
C1669 C1650 1.429 . S
C1669 C1663 1.429 . S
C1669 C1670 1.523 . S
C1670 C1651 1.368 . S
C1670 C1664 1.368 . S
C1670 C1669 1.523 . S
C1671 C1655 1.429 . S
C1671 C1667 1.429 . S
C1671 C1672 1.523 . S
C1672 C1656 1.368 . S
C1672 C1668 1.368 . S
C1672 C1671 1.523 . S
H1673 C1648 0.950 . S
H1674 C1650 0.950 . S
H1675 C1651 0.949 . S
H1676 C1653 0.950 . S
H1677 C1655 0.950 . S
C1678 C1679 1.349 . S
C1678 C1680 1.327 . S
C1678 H1703 0.950 . S
C1679 C1678 1.349 . S
C1679 C1695 1.349 . S
C1680 C1678 1.327 . S
C1680 C1699 1.429 . S
C1680 H1704 0.950 . S
C1681 C1698 1.574 . S
C1681 C1700 1.368 . S
C1681 H1705 0.949 . S
H1682 C1686 0.949 . S
C1683 C1684 1.349 . S
C1683 C1685 1.327 . S
C1683 H1706 0.950 . S
C1684 C1683 1.349 . S
C1684 C1696 1.349 . S
C1685 C1683 1.327 . S
C1685 C1701 1.429 . S
C1685 H1707 0.950 . S
C1686 H1682 0.949 . S
C1686 C1694 1.574 . S
C1686 C1702 1.368 . S
H1687 C1695 0.950 . S
H1688 C1693 0.950 . S
H1689 C1694 0.949 . S
H1690 C1696 0.950 . S
H1691 C1697 0.950 . S
H1692 C1698 0.949 . S
C1693 H1688 0.950 . S
C1693 C1695 1.327 . S
C1693 C1699 1.429 . S
C1694 C1686 1.574 . S
C1694 H1689 0.949 . S
C1694 C1700 1.368 . S
C1695 C1679 1.349 . S
C1695 H1687 0.950 . S
C1695 C1693 1.327 . S
C1696 C1684 1.349 . S
C1696 H1690 0.950 . S
C1696 C1697 1.327 . S
C1697 H1691 0.950 . S
C1697 C1696 1.327 . S
C1697 C1701 1.429 . S
C1698 C1681 1.574 . S
C1698 H1692 0.949 . S
C1698 C1702 1.368 . S
C1699 C1680 1.429 . S
C1699 C1693 1.429 . S
C1699 C1700 1.523 . S
C1700 C1681 1.368 . S
C1700 C1694 1.368 . S
C1700 C1699 1.523 . S
C1701 C1685 1.429 . S
C1701 C1697 1.429 . S
C1701 C1702 1.523 . S
C1702 C1686 1.368 . S
C1702 C1698 1.368 . S
C1702 C1701 1.523 . S
H1703 C1678 0.950 . S
H1704 C1680 0.950 . S
H1705 C1681 0.949 . S
H1706 C1683 0.950 . S
H1707 C1685 0.950 . S
C1708 C1709 1.349 . S
C1708 C1710 1.327 . S
C1708 H1733 0.950 . S
C1709 C1708 1.349 . S
C1709 C1725 1.349 . S
C1710 C1708 1.327 . S
C1710 C1729 1.429 . S
C1710 H1734 0.950 . S
C1711 C1728 1.574 . S
C1711 C1730 1.368 . S
C1711 H1735 0.949 . S
H1712 C1716 0.949 . S
C1713 C1714 1.349 . S
C1713 C1715 1.327 . S
C1713 H1736 0.950 . S
C1714 C1713 1.349 . S
C1714 C1726 1.349 . S
C1715 C1713 1.327 . S
C1715 C1731 1.429 . S
C1715 H1737 0.950 . S
C1716 H1712 0.949 . S
C1716 C1724 1.574 . S
C1716 C1732 1.368 . S
H1717 C1725 0.950 . S
H1718 C1723 0.950 . S
H1719 C1724 0.949 . S
H1720 C1726 0.950 . S
H1721 C1727 0.950 . S
H1722 C1728 0.949 . S
C1723 H1718 0.950 . S
C1723 C1725 1.327 . S
C1723 C1729 1.429 . S
C1724 C1716 1.574 . S
C1724 H1719 0.949 . S
C1724 C1730 1.368 . S
C1725 C1709 1.349 . S
C1725 H1717 0.950 . S
C1725 C1723 1.327 . S
C1726 C1714 1.349 . S
C1726 H1720 0.950 . S
C1726 C1727 1.327 . S
C1727 H1721 0.950 . S
C1727 C1726 1.327 . S
C1727 C1731 1.429 . S
C1728 C1711 1.574 . S
C1728 H1722 0.949 . S
C1728 C1732 1.368 . S
C1729 C1710 1.429 . S
C1729 C1723 1.429 . S
C1729 C1730 1.523 . S
C1730 C1711 1.368 . S
C1730 C1724 1.368 . S
C1730 C1729 1.523 . S
C1731 C1715 1.429 . S
C1731 C1727 1.429 . S
C1731 C1732 1.523 . S
C1732 C1716 1.368 . S
C1732 C1728 1.368 . S
C1732 C1731 1.523 . S
H1733 C1708 0.950 . S
H1734 C1710 0.950 . S
H1735 C1711 0.949 . S
H1736 C1713 0.950 . S
H1737 C1715 0.950 . S
C1738 C1739 1.349 . S
C1738 C1740 1.327 . S
C1738 H1763 0.950 . S
C1739 C1738 1.349 . S
C1739 C1755 1.349 . S
C1740 C1738 1.327 . S
C1740 C1759 1.429 . S
C1740 H1764 0.950 . S
C1741 C1758 1.574 . S
C1741 C1760 1.368 . S
C1741 H1765 0.949 . S
H1742 C1746 0.949 . S
C1743 C1744 1.349 . S
C1743 C1745 1.327 . S
C1743 H1766 0.950 . S
C1744 C1743 1.349 . S
C1744 C1756 1.349 . S
C1745 C1743 1.327 . S
C1745 C1761 1.429 . S
C1745 H1767 0.950 . S
C1746 H1742 0.949 . S
C1746 C1754 1.574 . S
C1746 C1762 1.368 . S
H1747 C1755 0.950 . S
H1748 C1753 0.950 . S
H1749 C1754 0.949 . S
H1750 C1756 0.950 . S
H1751 C1757 0.950 . S
H1752 C1758 0.949 . S
C1753 H1748 0.950 . S
C1753 C1755 1.327 . S
C1753 C1759 1.429 . S
C1754 C1746 1.574 . S
C1754 H1749 0.949 . S
C1754 C1760 1.368 . S
C1755 C1739 1.349 . S
C1755 H1747 0.950 . S
C1755 C1753 1.327 . S
C1756 C1744 1.349 . S
C1756 H1750 0.950 . S
C1756 C1757 1.327 . S
C1757 H1751 0.950 . S
C1757 C1756 1.327 . S
C1757 C1761 1.429 . S
C1758 C1741 1.574 . S
C1758 H1752 0.949 . S
C1758 C1762 1.368 . S
C1759 C1740 1.429 . S
C1759 C1753 1.429 . S
C1759 C1760 1.523 . S
C1760 C1741 1.368 . S
C1760 C1754 1.368 . S
C1760 C1759 1.523 . S
C1761 C1745 1.429 . S
C1761 C1757 1.429 . S
C1761 C1762 1.523 . S
C1762 C1746 1.368 . S
C1762 C1758 1.368 . S
C1762 C1761 1.523 . S
H1763 C1738 0.950 . S
H1764 C1740 0.950 . S
H1765 C1741 0.949 . S
H1766 C1743 0.950 . S
H1767 C1745 0.950 . S
C1768 C1769 1.349 . S
C1768 C1770 1.327 . S
C1768 H1793 0.950 . S
C1769 C1768 1.349 . S
C1769 C1785 1.349 . S
C1770 C1768 1.327 . S
C1770 C1789 1.429 . S
C1770 H1794 0.950 . S
C1771 C1788 1.574 . S
C1771 C1790 1.368 . S
C1771 H1795 0.949 . S
H1772 C1776 0.949 . S
C1773 C1774 1.349 . S
C1773 C1775 1.327 . S
C1773 H1796 0.950 . S
C1774 C1773 1.349 . S
C1774 C1786 1.349 . S
C1775 C1773 1.327 . S
C1775 C1791 1.429 . S
C1775 H1797 0.950 . S
C1776 H1772 0.949 . S
C1776 C1784 1.574 . S
C1776 C1792 1.368 . S
H1777 C1785 0.950 . S
H1778 C1783 0.950 . S
H1779 C1784 0.949 . S
H1780 C1786 0.950 . S
H1781 C1787 0.950 . S
H1782 C1788 0.949 . S
C1783 H1778 0.950 . S
C1783 C1785 1.327 . S
C1783 C1789 1.429 . S
C1784 C1776 1.574 . S
C1784 H1779 0.949 . S
C1784 C1790 1.368 . S
C1785 C1769 1.349 . S
C1785 H1777 0.950 . S
C1785 C1783 1.327 . S
C1786 C1774 1.349 . S
C1786 H1780 0.950 . S
C1786 C1787 1.327 . S
C1787 H1781 0.950 . S
C1787 C1786 1.327 . S
C1787 C1791 1.429 . S
C1788 C1771 1.574 . S
C1788 H1782 0.949 . S
C1788 C1792 1.368 . S
C1789 C1770 1.429 . S
C1789 C1783 1.429 . S
C1789 C1790 1.523 . S
C1790 C1771 1.368 . S
C1790 C1784 1.368 . S
C1790 C1789 1.523 . S
C1791 C1775 1.429 . S
C1791 C1787 1.429 . S
C1791 C1792 1.523 . S
C1792 C1776 1.368 . S
C1792 C1788 1.368 . S
C1792 C1791 1.523 . S
H1793 C1768 0.950 . S
H1794 C1770 0.950 . S
H1795 C1771 0.949 . S
H1796 C1773 0.950 . S
H1797 C1775 0.950 . S
C1798 C1799 1.349 . S
C1798 C1800 1.327 . S
C1798 H1823 0.950 . S
C1799 C1798 1.349 . S
C1799 C1815 1.349 . S
C1800 C1798 1.327 . S
C1800 C1819 1.429 . S
C1800 H1824 0.950 . S
C1801 C1818 1.574 . S
C1801 C1820 1.368 . S
C1801 H1825 0.949 . S
H1802 C1806 0.949 . S
C1803 C1804 1.349 . S
C1803 C1805 1.327 . S
C1803 H1826 0.950 . S
C1804 C1803 1.349 . S
C1804 C1816 1.349 . S
C1805 C1803 1.327 . S
C1805 C1821 1.429 . S
C1805 H1827 0.950 . S
C1806 H1802 0.949 . S
C1806 C1814 1.574 . S
C1806 C1822 1.368 . S
H1807 C1815 0.950 . S
H1808 C1813 0.950 . S
H1809 C1814 0.949 . S
H1810 C1816 0.950 . S
H1811 C1817 0.950 . S
H1812 C1818 0.949 . S
C1813 H1808 0.950 . S
C1813 C1815 1.327 . S
C1813 C1819 1.429 . S
C1814 C1806 1.574 . S
C1814 H1809 0.949 . S
C1814 C1820 1.368 . S
C1815 C1799 1.349 . S
C1815 H1807 0.950 . S
C1815 C1813 1.327 . S
C1816 C1804 1.349 . S
C1816 H1810 0.950 . S
C1816 C1817 1.327 . S
C1817 H1811 0.950 . S
C1817 C1816 1.327 . S
C1817 C1821 1.429 . S
C1818 C1801 1.574 . S
C1818 H1812 0.949 . S
C1818 C1822 1.368 . S
C1819 C1800 1.429 . S
C1819 C1813 1.429 . S
C1819 C1820 1.523 . S
C1820 C1801 1.368 . S
C1820 C1814 1.368 . S
C1820 C1819 1.523 . S
C1821 C1805 1.429 . S
C1821 C1817 1.429 . S
C1821 C1822 1.523 . S
C1822 C1806 1.368 . S
C1822 C1818 1.368 . S
C1822 C1821 1.523 . S
H1823 C1798 0.950 . S
H1824 C1800 0.950 . S
H1825 C1801 0.949 . S
H1826 C1803 0.950 . S
H1827 C1805 0.950 . S
C1828 C1829 1.349 . S
C1828 C1830 1.327 . S
C1828 H1853 0.950 . S
C1829 C1828 1.349 . S
C1829 C1845 1.349 . S
C1830 C1828 1.327 . S
C1830 C1849 1.429 . S
C1830 H1854 0.950 . S
C1831 C1848 1.574 . S
C1831 C1850 1.368 . S
C1831 H1855 0.949 . S
H1832 C1836 0.949 . S
C1833 C1834 1.349 . S
C1833 C1835 1.327 . S
C1833 H1856 0.950 . S
C1834 C1833 1.349 . S
C1834 C1846 1.349 . S
C1835 C1833 1.327 . S
C1835 C1851 1.429 . S
C1835 H1857 0.950 . S
C1836 H1832 0.949 . S
C1836 C1844 1.574 . S
C1836 C1852 1.368 . S
H1837 C1845 0.950 . S
H1838 C1843 0.950 . S
H1839 C1844 0.949 . S
H1840 C1846 0.950 . S
H1841 C1847 0.950 . S
H1842 C1848 0.949 . S
C1843 H1838 0.950 . S
C1843 C1845 1.327 . S
C1843 C1849 1.429 . S
C1844 C1836 1.574 . S
C1844 H1839 0.949 . S
C1844 C1850 1.368 . S
C1845 C1829 1.349 . S
C1845 H1837 0.950 . S
C1845 C1843 1.327 . S
C1846 C1834 1.349 . S
C1846 H1840 0.950 . S
C1846 C1847 1.327 . S
C1847 H1841 0.950 . S
C1847 C1846 1.327 . S
C1847 C1851 1.429 . S
C1848 C1831 1.574 . S
C1848 H1842 0.949 . S
C1848 C1852 1.368 . S
C1849 C1830 1.429 . S
C1849 C1843 1.429 . S
C1849 C1850 1.523 . S
C1850 C1831 1.368 . S
C1850 C1844 1.368 . S
C1850 C1849 1.523 . S
C1851 C1835 1.429 . S
C1851 C1847 1.429 . S
C1851 C1852 1.523 . S
C1852 C1836 1.368 . S
C1852 C1848 1.368 . S
C1852 C1851 1.523 . S
H1853 C1828 0.950 . S
H1854 C1830 0.950 . S
H1855 C1831 0.949 . S
H1856 C1833 0.950 . S
H1857 C1835 0.950 . S
C1858 C1859 1.349 . S
C1858 C1860 1.327 . S
C1858 H1883 0.950 . S
C1859 C1858 1.349 . S
C1859 C1875 1.349 . S
C1860 C1858 1.327 . S
C1860 C1879 1.429 . S
C1860 H1884 0.950 . S
C1861 C1878 1.574 . S
C1861 C1880 1.368 . S
C1861 H1885 0.949 . S
H1862 C1866 0.949 . S
C1863 C1864 1.349 . S
C1863 C1865 1.327 . S
C1863 H1886 0.950 . S
C1864 C1863 1.349 . S
C1864 C1876 1.349 . S
C1865 C1863 1.327 . S
C1865 C1881 1.429 . S
C1865 H1887 0.950 . S
C1866 H1862 0.949 . S
C1866 C1874 1.574 . S
C1866 C1882 1.368 . S
H1867 C1875 0.950 . S
H1868 C1873 0.950 . S
H1869 C1874 0.949 . S
H1870 C1876 0.950 . S
H1871 C1877 0.950 . S
H1872 C1878 0.949 . S
C1873 H1868 0.950 . S
C1873 C1875 1.327 . S
C1873 C1879 1.429 . S
C1874 C1866 1.574 . S
C1874 H1869 0.949 . S
C1874 C1880 1.368 . S
C1875 C1859 1.349 . S
C1875 H1867 0.950 . S
C1875 C1873 1.327 . S
C1876 C1864 1.349 . S
C1876 H1870 0.950 . S
C1876 C1877 1.327 . S
C1877 H1871 0.950 . S
C1877 C1876 1.327 . S
C1877 C1881 1.429 . S
C1878 C1861 1.574 . S
C1878 H1872 0.949 . S
C1878 C1882 1.368 . S
C1879 C1860 1.429 . S
C1879 C1873 1.429 . S
C1879 C1880 1.523 . S
C1880 C1861 1.368 . S
C1880 C1874 1.368 . S
C1880 C1879 1.523 . S
C1881 C1865 1.429 . S
C1881 C1877 1.429 . S
C1881 C1882 1.523 . S
C1882 C1866 1.368 . S
C1882 C1878 1.368 . S
C1882 C1881 1.523 . S
H1883 C1858 0.950 . S
H1884 C1860 0.950 . S
H1885 C1861 0.949 . S
H1886 C1863 0.950 . S
H1887 C1865 0.950 . S
C1888 C1889 1.349 . S
C1888 C1890 1.327 . S
C1888 H1913 0.950 . S
C1889 C1888 1.349 . S
C1889 C1905 1.349 . S
C1890 C1888 1.327 . S
C1890 C1909 1.429 . S
C1890 H1914 0.950 . S
C1891 C1908 1.574 . S
C1891 C1910 1.368 . S
C1891 H1915 0.949 . S
H1892 C1896 0.949 . S
C1893 C1894 1.349 . S
C1893 C1895 1.327 . S
C1893 H1916 0.950 . S
C1894 C1893 1.349 . S
C1894 C1906 1.349 . S
C1895 C1893 1.327 . S
C1895 C1911 1.429 . S
C1895 H1917 0.950 . S
C1896 H1892 0.949 . S
C1896 C1904 1.574 . S
C1896 C1912 1.368 . S
H1897 C1905 0.950 . S
H1898 C1903 0.950 . S
H1899 C1904 0.949 . S
H1900 C1906 0.950 . S
H1901 C1907 0.950 . S
H1902 C1908 0.949 . S
C1903 H1898 0.950 . S
C1903 C1905 1.327 . S
C1903 C1909 1.429 . S
C1904 C1896 1.574 . S
C1904 H1899 0.949 . S
C1904 C1910 1.368 . S
C1905 C1889 1.349 . S
C1905 H1897 0.950 . S
C1905 C1903 1.327 . S
C1906 C1894 1.349 . S
C1906 H1900 0.950 . S
C1906 C1907 1.327 . S
C1907 H1901 0.950 . S
C1907 C1906 1.327 . S
C1907 C1911 1.429 . S
C1908 C1891 1.574 . S
C1908 H1902 0.949 . S
C1908 C1912 1.368 . S
C1909 C1890 1.429 . S
C1909 C1903 1.429 . S
C1909 C1910 1.523 . S
C1910 C1891 1.368 . S
C1910 C1904 1.368 . S
C1910 C1909 1.523 . S
C1911 C1895 1.429 . S
C1911 C1907 1.429 . S
C1911 C1912 1.523 . S
C1912 C1896 1.368 . S
C1912 C1908 1.368 . S
C1912 C1911 1.523 . S
H1913 C1888 0.950 . S
H1914 C1890 0.950 . S
H1915 C1891 0.949 . S
H1916 C1893 0.950 . S
H1917 C1895 0.950 . S
C1918 C1919 1.349 . S
C1918 C1920 1.327 . S
C1918 H1943 0.950 . S
C1919 C1918 1.349 . S
C1919 C1935 1.349 . S
C1920 C1918 1.327 . S
C1920 C1939 1.429 . S
C1920 H1944 0.950 . S
C1921 C1938 1.574 . S
C1921 C1940 1.368 . S
C1921 H1945 0.949 . S
H1922 C1926 0.949 . S
C1923 C1924 1.349 . S
C1923 C1925 1.327 . S
C1923 H1946 0.950 . S
C1924 C1923 1.349 . S
C1924 C1936 1.349 . S
C1925 C1923 1.327 . S
C1925 C1941 1.429 . S
C1925 H1947 0.950 . S
C1926 H1922 0.949 . S
C1926 C1934 1.574 . S
C1926 C1942 1.368 . S
H1927 C1935 0.950 . S
H1928 C1933 0.950 . S
H1929 C1934 0.949 . S
H1930 C1936 0.950 . S
H1931 C1937 0.950 . S
H1932 C1938 0.949 . S
C1933 H1928 0.950 . S
C1933 C1935 1.327 . S
C1933 C1939 1.429 . S
C1934 C1926 1.574 . S
C1934 H1929 0.949 . S
C1934 C1940 1.368 . S
C1935 C1919 1.349 . S
C1935 H1927 0.950 . S
C1935 C1933 1.327 . S
C1936 C1924 1.349 . S
C1936 H1930 0.950 . S
C1936 C1937 1.327 . S
C1937 H1931 0.950 . S
C1937 C1936 1.327 . S
C1937 C1941 1.429 . S
C1938 C1921 1.574 . S
C1938 H1932 0.949 . S
C1938 C1942 1.368 . S
C1939 C1920 1.429 . S
C1939 C1933 1.429 . S
C1939 C1940 1.523 . S
C1940 C1921 1.368 . S
C1940 C1934 1.368 . S
C1940 C1939 1.523 . S
C1941 C1925 1.429 . S
C1941 C1937 1.429 . S
C1941 C1942 1.523 . S
C1942 C1926 1.368 . S
C1942 C1938 1.368 . S
C1942 C1941 1.523 . S
H1943 C1918 0.950 . S
H1944 C1920 0.950 . S
H1945 C1921 0.949 . S
H1946 C1923 0.950 . S
H1947 C1925 0.950 . S
C1948 C1949 1.349 . S
C1948 C1950 1.327 . S
C1948 H1973 0.950 . S
C1949 C1948 1.349 . S
C1949 C1965 1.349 . S
C1950 C1948 1.327 . S
C1950 C1969 1.429 . S
C1950 H1974 0.950 . S
C1951 C1968 1.574 . S
C1951 C1970 1.368 . S
C1951 H1975 0.949 . S
H1952 C1956 0.949 . S
C1953 C1954 1.349 . S
C1953 C1955 1.327 . S
C1953 H1976 0.950 . S
C1954 C1953 1.349 . S
C1954 C1966 1.349 . S
C1955 C1953 1.327 . S
C1955 C1971 1.429 . S
C1955 H1977 0.950 . S
C1956 H1952 0.949 . S
C1956 C1964 1.574 . S
C1956 C1972 1.368 . S
H1957 C1965 0.950 . S
H1958 C1963 0.950 . S
H1959 C1964 0.949 . S
H1960 C1966 0.950 . S
H1961 C1967 0.950 . S
H1962 C1968 0.949 . S
C1963 H1958 0.950 . S
C1963 C1965 1.327 . S
C1963 C1969 1.429 . S
C1964 C1956 1.574 . S
C1964 H1959 0.949 . S
C1964 C1970 1.368 . S
C1965 C1949 1.349 . S
C1965 H1957 0.950 . S
C1965 C1963 1.327 . S
C1966 C1954 1.349 . S
C1966 H1960 0.950 . S
C1966 C1967 1.327 . S
C1967 H1961 0.950 . S
C1967 C1966 1.327 . S
C1967 C1971 1.429 . S
C1968 C1951 1.574 . S
C1968 H1962 0.949 . S
C1968 C1972 1.368 . S
C1969 C1950 1.429 . S
C1969 C1963 1.429 . S
C1969 C1970 1.523 . S
C1970 C1951 1.368 . S
C1970 C1964 1.368 . S
C1970 C1969 1.523 . S
C1971 C1955 1.429 . S
C1971 C1967 1.429 . S
C1971 C1972 1.523 . S
C1972 C1956 1.368 . S
C1972 C1968 1.368 . S
C1972 C1971 1.523 . S
H1973 C1948 0.950 . S
H1974 C1950 0.950 . S
H1975 C1951 0.949 . S
H1976 C1953 0.950 . S
H1977 C1955 0.950 . S
C1978 C1979 1.349 . S
C1978 C1980 1.327 . S
C1978 H2003 0.950 . S
C1979 C1978 1.349 . S
C1979 C1995 1.349 . S
C1980 C1978 1.327 . S
C1980 C1999 1.429 . S
C1980 H2004 0.950 . S
C1981 C1998 1.574 . S
C1981 C2000 1.368 . S
C1981 H2005 0.949 . S
H1982 C1986 0.949 . S
C1983 C1984 1.349 . S
C1983 C1985 1.327 . S
C1983 H2006 0.950 . S
C1984 C1983 1.349 . S
C1984 C1996 1.349 . S
C1985 C1983 1.327 . S
C1985 C2001 1.429 . S
C1985 H2007 0.950 . S
C1986 H1982 0.949 . S
C1986 C1994 1.574 . S
C1986 C2002 1.368 . S
H1987 C1995 0.950 . S
H1988 C1993 0.950 . S
H1989 C1994 0.949 . S
H1990 C1996 0.950 . S
H1991 C1997 0.950 . S
H1992 C1998 0.949 . S
C1993 H1988 0.950 . S
C1993 C1995 1.327 . S
C1993 C1999 1.429 . S
C1994 C1986 1.574 . S
C1994 H1989 0.949 . S
C1994 C2000 1.368 . S
C1995 C1979 1.349 . S
C1995 H1987 0.950 . S
C1995 C1993 1.327 . S
C1996 C1984 1.349 . S
C1996 H1990 0.950 . S
C1996 C1997 1.327 . S
C1997 H1991 0.950 . S
C1997 C1996 1.327 . S
C1997 C2001 1.429 . S
C1998 C1981 1.574 . S
C1998 H1992 0.949 . S
C1998 C2002 1.368 . S
C1999 C1980 1.429 . S
C1999 C1993 1.429 . S
C1999 C2000 1.523 . S
C2000 C1981 1.368 . S
C2000 C1994 1.368 . S
C2000 C1999 1.523 . S
C2001 C1985 1.429 . S
C2001 C1997 1.429 . S
C2001 C2002 1.523 . S
C2002 C1986 1.368 . S
C2002 C1998 1.368 . S
C2002 C2001 1.523 . S
H2003 C1978 0.950 . S
H2004 C1980 0.950 . S
H2005 C1981 0.949 . S
H2006 C1983 0.950 . S
H2007 C1985 0.950 . S
C2008 C2009 1.349 . S
C2008 C2010 1.327 . S
C2008 H2033 0.950 . S
C2009 C2008 1.349 . S
C2009 C2025 1.349 . S
C2010 C2008 1.327 . S
C2010 C2029 1.429 . S
C2010 H2034 0.950 . S
C2011 C2028 1.574 . S
C2011 C2030 1.368 . S
C2011 H2035 0.949 . S
H2012 C2016 0.949 . S
C2013 C2014 1.349 . S
C2013 C2015 1.327 . S
C2013 H2036 0.950 . S
C2014 C2013 1.349 . S
C2014 C2026 1.349 . S
C2015 C2013 1.327 . S
C2015 C2031 1.429 . S
C2015 H2037 0.950 . S
C2016 H2012 0.949 . S
C2016 C2024 1.574 . S
C2016 C2032 1.368 . S
H2017 C2025 0.950 . S
H2018 C2023 0.950 . S
H2019 C2024 0.949 . S
H2020 C2026 0.950 . S
H2021 C2027 0.950 . S
H2022 C2028 0.949 . S
C2023 H2018 0.950 . S
C2023 C2025 1.327 . S
C2023 C2029 1.429 . S
C2024 C2016 1.574 . S
C2024 H2019 0.949 . S
C2024 C2030 1.368 . S
C2025 C2009 1.349 . S
C2025 H2017 0.950 . S
C2025 C2023 1.327 . S
C2026 C2014 1.349 . S
C2026 H2020 0.950 . S
C2026 C2027 1.327 . S
C2027 H2021 0.950 . S
C2027 C2026 1.327 . S
C2027 C2031 1.429 . S
C2028 C2011 1.574 . S
C2028 H2022 0.949 . S
C2028 C2032 1.368 . S
C2029 C2010 1.429 . S
C2029 C2023 1.429 . S
C2029 C2030 1.523 . S
C2030 C2011 1.368 . S
C2030 C2024 1.368 . S
C2030 C2029 1.523 . S
C2031 C2015 1.429 . S
C2031 C2027 1.429 . S
C2031 C2032 1.523 . S
C2032 C2016 1.368 . S
C2032 C2028 1.368 . S
C2032 C2031 1.523 . S
H2033 C2008 0.950 . S
H2034 C2010 0.950 . S
H2035 C2011 0.949 . S
H2036 C2013 0.950 . S
H2037 C2015 0.950 . S
C2038 C2039 1.349 . S
C2038 C2040 1.327 . S
C2038 H2063 0.950 . S
C2039 C2038 1.349 . S
C2039 C2055 1.349 . S
C2040 C2038 1.327 . S
C2040 C2059 1.429 . S
C2040 H2064 0.950 . S
C2041 C2058 1.574 . S
C2041 C2060 1.368 . S
C2041 H2065 0.949 . S
H2042 C2046 0.949 . S
C2043 C2044 1.349 . S
C2043 C2045 1.327 . S
C2043 H2066 0.950 . S
C2044 C2043 1.349 . S
C2044 C2056 1.349 . S
C2045 C2043 1.327 . S
C2045 C2061 1.429 . S
C2045 H2067 0.950 . S
C2046 H2042 0.949 . S
C2046 C2054 1.574 . S
C2046 C2062 1.368 . S
H2047 C2055 0.950 . S
H2048 C2053 0.950 . S
H2049 C2054 0.949 . S
H2050 C2056 0.950 . S
H2051 C2057 0.950 . S
H2052 C2058 0.949 . S
C2053 H2048 0.950 . S
C2053 C2055 1.327 . S
C2053 C2059 1.429 . S
C2054 C2046 1.574 . S
C2054 H2049 0.949 . S
C2054 C2060 1.368 . S
C2055 C2039 1.349 . S
C2055 H2047 0.950 . S
C2055 C2053 1.327 . S
C2056 C2044 1.349 . S
C2056 H2050 0.950 . S
C2056 C2057 1.327 . S
C2057 H2051 0.950 . S
C2057 C2056 1.327 . S
C2057 C2061 1.429 . S
C2058 C2041 1.574 . S
C2058 H2052 0.949 . S
C2058 C2062 1.368 . S
C2059 C2040 1.429 . S
C2059 C2053 1.429 . S
C2059 C2060 1.523 . S
C2060 C2041 1.368 . S
C2060 C2054 1.368 . S
C2060 C2059 1.523 . S
C2061 C2045 1.429 . S
C2061 C2057 1.429 . S
C2061 C2062 1.523 . S
C2062 C2046 1.368 . S
C2062 C2058 1.368 . S
C2062 C2061 1.523 . S
H2063 C2038 0.950 . S
H2064 C2040 0.950 . S
H2065 C2041 0.949 . S
H2066 C2043 0.950 . S
H2067 C2045 0.950 . S
C2068 C2069 1.349 . S
C2068 C2070 1.327 . S
C2068 H2093 0.950 . S
C2069 C2068 1.349 . S
C2069 C2085 1.349 . S
C2070 C2068 1.327 . S
C2070 C2089 1.429 . S
C2070 H2094 0.950 . S
C2071 C2088 1.574 . S
C2071 C2090 1.368 . S
C2071 H2095 0.949 . S
H2072 C2076 0.949 . S
C2073 C2074 1.349 . S
C2073 C2075 1.327 . S
C2073 H2096 0.950 . S
C2074 C2073 1.349 . S
C2074 C2086 1.349 . S
C2075 C2073 1.327 . S
C2075 C2091 1.429 . S
C2075 H2097 0.950 . S
C2076 H2072 0.949 . S
C2076 C2084 1.574 . S
C2076 C2092 1.368 . S
H2077 C2085 0.950 . S
H2078 C2083 0.950 . S
H2079 C2084 0.949 . S
H2080 C2086 0.950 . S
H2081 C2087 0.950 . S
H2082 C2088 0.949 . S
C2083 H2078 0.950 . S
C2083 C2085 1.327 . S
C2083 C2089 1.429 . S
C2084 C2076 1.574 . S
C2084 H2079 0.949 . S
C2084 C2090 1.368 . S
C2085 C2069 1.349 . S
C2085 H2077 0.950 . S
C2085 C2083 1.327 . S
C2086 C2074 1.349 . S
C2086 H2080 0.950 . S
C2086 C2087 1.327 . S
C2087 H2081 0.950 . S
C2087 C2086 1.327 . S
C2087 C2091 1.429 . S
C2088 C2071 1.574 . S
C2088 H2082 0.949 . S
C2088 C2092 1.368 . S
C2089 C2070 1.429 . S
C2089 C2083 1.429 . S
C2089 C2090 1.523 . S
C2090 C2071 1.368 . S
C2090 C2084 1.368 . S
C2090 C2089 1.523 . S
C2091 C2075 1.429 . S
C2091 C2087 1.429 . S
C2091 C2092 1.523 . S
C2092 C2076 1.368 . S
C2092 C2088 1.368 . S
C2092 C2091 1.523 . S
H2093 C2068 0.950 . S
H2094 C2070 0.950 . S
H2095 C2071 0.949 . S
H2096 C2073 0.950 . S
H2097 C2075 0.950 . S
C2098 C2099 1.349 . S
C2098 C2100 1.327 . S
C2098 H2123 0.950 . S
C2099 C2098 1.349 . S
C2099 C2115 1.349 . S
C2100 C2098 1.327 . S
C2100 C2119 1.429 . S
C2100 H2124 0.950 . S
C2101 C2118 1.574 . S
C2101 C2120 1.368 . S
C2101 H2125 0.949 . S
H2102 C2106 0.949 . S
C2103 C2104 1.349 . S
C2103 C2105 1.327 . S
C2103 H2126 0.950 . S
C2104 C2103 1.349 . S
C2104 C2116 1.349 . S
C2105 C2103 1.327 . S
C2105 C2121 1.429 . S
C2105 H2127 0.950 . S
C2106 H2102 0.949 . S
C2106 C2114 1.574 . S
C2106 C2122 1.368 . S
H2107 C2115 0.950 . S
H2108 C2113 0.950 . S
H2109 C2114 0.949 . S
H2110 C2116 0.950 . S
H2111 C2117 0.950 . S
H2112 C2118 0.949 . S
C2113 H2108 0.950 . S
C2113 C2115 1.327 . S
C2113 C2119 1.429 . S
C2114 C2106 1.574 . S
C2114 H2109 0.949 . S
C2114 C2120 1.368 . S
C2115 C2099 1.349 . S
C2115 H2107 0.950 . S
C2115 C2113 1.327 . S
C2116 C2104 1.349 . S
C2116 H2110 0.950 . S
C2116 C2117 1.327 . S
C2117 H2111 0.950 . S
C2117 C2116 1.327 . S
C2117 C2121 1.429 . S
C2118 C2101 1.574 . S
C2118 H2112 0.949 . S
C2118 C2122 1.368 . S
C2119 C2100 1.429 . S
C2119 C2113 1.429 . S
C2119 C2120 1.523 . S
C2120 C2101 1.368 . S
C2120 C2114 1.368 . S
C2120 C2119 1.523 . S
C2121 C2105 1.429 . S
C2121 C2117 1.429 . S
C2121 C2122 1.523 . S
C2122 C2106 1.368 . S
C2122 C2118 1.368 . S
C2122 C2121 1.523 . S
H2123 C2098 0.950 . S
H2124 C2100 0.950 . S
H2125 C2101 0.949 . S
H2126 C2103 0.950 . S
H2127 C2105 0.950 . S
C2128 C2129 1.349 . S
C2128 C2130 1.327 . S
C2128 H2153 0.950 . S
C2129 C2128 1.349 . S
C2129 C2145 1.349 . S
C2130 C2128 1.327 . S
C2130 C2149 1.429 . S
C2130 H2154 0.950 . S
C2131 C2148 1.574 . S
C2131 C2150 1.368 . S
C2131 H2155 0.949 . S
H2132 C2136 0.949 . S
C2133 C2134 1.349 . S
C2133 C2135 1.327 . S
C2133 H2156 0.950 . S
C2134 C2133 1.349 . S
C2134 C2146 1.349 . S
C2135 C2133 1.327 . S
C2135 C2151 1.429 . S
C2135 H2157 0.950 . S
C2136 H2132 0.949 . S
C2136 C2144 1.574 . S
C2136 C2152 1.368 . S
H2137 C2145 0.950 . S
H2138 C2143 0.950 . S
H2139 C2144 0.949 . S
H2140 C2146 0.950 . S
H2141 C2147 0.950 . S
H2142 C2148 0.949 . S
C2143 H2138 0.950 . S
C2143 C2145 1.327 . S
C2143 C2149 1.429 . S
C2144 C2136 1.574 . S
C2144 H2139 0.949 . S
C2144 C2150 1.368 . S
C2145 C2129 1.349 . S
C2145 H2137 0.950 . S
C2145 C2143 1.327 . S
C2146 C2134 1.349 . S
C2146 H2140 0.950 . S
C2146 C2147 1.327 . S
C2147 H2141 0.950 . S
C2147 C2146 1.327 . S
C2147 C2151 1.429 . S
C2148 C2131 1.574 . S
C2148 H2142 0.949 . S
C2148 C2152 1.368 . S
C2149 C2130 1.429 . S
C2149 C2143 1.429 . S
C2149 C2150 1.523 . S
C2150 C2131 1.368 . S
C2150 C2144 1.368 . S
C2150 C2149 1.523 . S
C2151 C2135 1.429 . S
C2151 C2147 1.429 . S
C2151 C2152 1.523 . S
C2152 C2136 1.368 . S
C2152 C2148 1.368 . S
C2152 C2151 1.523 . S
H2153 C2128 0.950 . S
H2154 C2130 0.950 . S
H2155 C2131 0.949 . S
H2156 C2133 0.950 . S
H2157 C2135 0.950 . S
C2158 C2159 1.349 . S
C2158 C2160 1.327 . S
C2158 H2183 0.950 . S
C2159 C2158 1.349 . S
C2159 C2175 1.349 . S
C2160 C2158 1.327 . S
C2160 C2179 1.429 . S
C2160 H2184 0.950 . S
C2161 C2178 1.574 . S
C2161 C2180 1.368 . S
C2161 H2185 0.949 . S
H2162 C2166 0.949 . S
C2163 C2164 1.349 . S
C2163 C2165 1.327 . S
C2163 H2186 0.950 . S
C2164 C2163 1.349 . S
C2164 C2176 1.349 . S
C2165 C2163 1.327 . S
C2165 C2181 1.429 . S
C2165 H2187 0.950 . S
C2166 H2162 0.949 . S
C2166 C2174 1.574 . S
C2166 C2182 1.368 . S
H2167 C2175 0.950 . S
H2168 C2173 0.950 . S
H2169 C2174 0.949 . S
H2170 C2176 0.950 . S
H2171 C2177 0.950 . S
H2172 C2178 0.949 . S
C2173 H2168 0.950 . S
C2173 C2175 1.327 . S
C2173 C2179 1.429 . S
C2174 C2166 1.574 . S
C2174 H2169 0.949 . S
C2174 C2180 1.368 . S
C2175 C2159 1.349 . S
C2175 H2167 0.950 . S
C2175 C2173 1.327 . S
C2176 C2164 1.349 . S
C2176 H2170 0.950 . S
C2176 C2177 1.327 . S
C2177 H2171 0.950 . S
C2177 C2176 1.327 . S
C2177 C2181 1.429 . S
C2178 C2161 1.574 . S
C2178 H2172 0.949 . S
C2178 C2182 1.368 . S
C2179 C2160 1.429 . S
C2179 C2173 1.429 . S
C2179 C2180 1.523 . S
C2180 C2161 1.368 . S
C2180 C2174 1.368 . S
C2180 C2179 1.523 . S
C2181 C2165 1.429 . S
C2181 C2177 1.429 . S
C2181 C2182 1.523 . S
C2182 C2166 1.368 . S
C2182 C2178 1.368 . S
C2182 C2181 1.523 . S
H2183 C2158 0.950 . S
H2184 C2160 0.950 . S
H2185 C2161 0.949 . S
H2186 C2163 0.950 . S
H2187 C2165 0.950 . S
C2188 C2189 1.349 . S
C2188 C2190 1.327 . S
C2188 H2213 0.950 . S
C2189 C2188 1.349 . S
C2189 C2205 1.349 . S
C2190 C2188 1.327 . S
C2190 C2209 1.429 . S
C2190 H2214 0.950 . S
C2191 C2208 1.574 . S
C2191 C2210 1.368 . S
C2191 H2215 0.949 . S
H2192 C2196 0.949 . S
C2193 C2194 1.349 . S
C2193 C2195 1.327 . S
C2193 H2216 0.950 . S
C2194 C2193 1.349 . S
C2194 C2206 1.349 . S
C2195 C2193 1.327 . S
C2195 C2211 1.429 . S
C2195 H2217 0.950 . S
C2196 H2192 0.949 . S
C2196 C2204 1.574 . S
C2196 C2212 1.368 . S
H2197 C2205 0.950 . S
H2198 C2203 0.950 . S
H2199 C2204 0.949 . S
H2200 C2206 0.950 . S
H2201 C2207 0.950 . S
H2202 C2208 0.949 . S
C2203 H2198 0.950 . S
C2203 C2205 1.327 . S
C2203 C2209 1.429 . S
C2204 C2196 1.574 . S
C2204 H2199 0.949 . S
C2204 C2210 1.368 . S
C2205 C2189 1.349 . S
C2205 H2197 0.950 . S
C2205 C2203 1.327 . S
C2206 C2194 1.349 . S
C2206 H2200 0.950 . S
C2206 C2207 1.327 . S
C2207 H2201 0.950 . S
C2207 C2206 1.327 . S
C2207 C2211 1.429 . S
C2208 C2191 1.574 . S
C2208 H2202 0.949 . S
C2208 C2212 1.368 . S
C2209 C2190 1.429 . S
C2209 C2203 1.429 . S
C2209 C2210 1.523 . S
C2210 C2191 1.368 . S
C2210 C2204 1.368 . S
C2210 C2209 1.523 . S
C2211 C2195 1.429 . S
C2211 C2207 1.429 . S
C2211 C2212 1.523 . S
C2212 C2196 1.368 . S
C2212 C2208 1.368 . S
C2212 C2211 1.523 . S
H2213 C2188 0.950 . S
H2214 C2190 0.950 . S
H2215 C2191 0.949 . S
H2216 C2193 0.950 . S
H2217 C2195 0.950 . S
C2218 C2219 1.349 . S
C2218 C2220 1.327 . S
C2218 H2243 0.950 . S
C2219 C2218 1.349 . S
C2219 C2235 1.349 . S
C2220 C2218 1.327 . S
C2220 C2239 1.429 . S
C2220 H2244 0.950 . S
C2221 C2238 1.574 . S
C2221 C2240 1.368 . S
C2221 H2245 0.949 . S
H2222 C2226 0.949 . S
C2223 C2224 1.349 . S
C2223 C2225 1.327 . S
C2223 H2246 0.950 . S
C2224 C2223 1.349 . S
C2224 C2236 1.349 . S
C2225 C2223 1.327 . S
C2225 C2241 1.429 . S
C2225 H2247 0.950 . S
C2226 H2222 0.949 . S
C2226 C2234 1.574 . S
C2226 C2242 1.368 . S
H2227 C2235 0.950 . S
H2228 C2233 0.950 . S
H2229 C2234 0.949 . S
H2230 C2236 0.950 . S
H2231 C2237 0.950 . S
H2232 C2238 0.949 . S
C2233 H2228 0.950 . S
C2233 C2235 1.327 . S
C2233 C2239 1.429 . S
C2234 C2226 1.574 . S
C2234 H2229 0.949 . S
C2234 C2240 1.368 . S
C2235 C2219 1.349 . S
C2235 H2227 0.950 . S
C2235 C2233 1.327 . S
C2236 C2224 1.349 . S
C2236 H2230 0.950 . S
C2236 C2237 1.327 . S
C2237 H2231 0.950 . S
C2237 C2236 1.327 . S
C2237 C2241 1.429 . S
C2238 C2221 1.574 . S
C2238 H2232 0.949 . S
C2238 C2242 1.368 . S
C2239 C2220 1.429 . S
C2239 C2233 1.429 . S
C2239 C2240 1.523 . S
C2240 C2221 1.368 . S
C2240 C2234 1.368 . S
C2240 C2239 1.523 . S
C2241 C2225 1.429 . S
C2241 C2237 1.429 . S
C2241 C2242 1.523 . S
C2242 C2226 1.368 . S
C2242 C2238 1.368 . S
C2242 C2241 1.523 . S
H2243 C2218 0.950 . S
H2244 C2220 0.950 . S
H2245 C2221 0.949 . S
H2246 C2223 0.950 . S
H2247 C2225 0.950 . S
C2248 C2249 1.349 . S
C2248 C2250 1.327 . S
C2248 H2273 0.950 . S
C2249 C2248 1.349 . S
C2249 C2265 1.349 . S
C2250 C2248 1.327 . S
C2250 C2269 1.429 . S
C2250 H2274 0.950 . S
C2251 C2268 1.574 . S
C2251 C2270 1.368 . S
C2251 H2275 0.949 . S
H2252 C2256 0.949 . S
C2253 C2254 1.349 . S
C2253 C2255 1.327 . S
C2253 H2276 0.950 . S
C2254 C2253 1.349 . S
C2254 C2266 1.349 . S
C2255 C2253 1.327 . S
C2255 C2271 1.429 . S
C2255 H2277 0.950 . S
C2256 H2252 0.949 . S
C2256 C2264 1.574 . S
C2256 C2272 1.368 . S
H2257 C2265 0.950 . S
H2258 C2263 0.950 . S
H2259 C2264 0.949 . S
H2260 C2266 0.950 . S
H2261 C2267 0.950 . S
H2262 C2268 0.949 . S
C2263 H2258 0.950 . S
C2263 C2265 1.327 . S
C2263 C2269 1.429 . S
C2264 C2256 1.574 . S
C2264 H2259 0.949 . S
C2264 C2270 1.368 . S
C2265 C2249 1.349 . S
C2265 H2257 0.950 . S
C2265 C2263 1.327 . S
C2266 C2254 1.349 . S
C2266 H2260 0.950 . S
C2266 C2267 1.327 . S
C2267 H2261 0.950 . S
C2267 C2266 1.327 . S
C2267 C2271 1.429 . S
C2268 C2251 1.574 . S
C2268 H2262 0.949 . S
C2268 C2272 1.368 . S
C2269 C2250 1.429 . S
C2269 C2263 1.429 . S
C2269 C2270 1.523 . S
C2270 C2251 1.368 . S
C2270 C2264 1.368 . S
C2270 C2269 1.523 . S
C2271 C2255 1.429 . S
C2271 C2267 1.429 . S
C2271 C2272 1.523 . S
C2272 C2256 1.368 . S
C2272 C2268 1.368 . S
C2272 C2271 1.523 . S
H2273 C2248 0.950 . S
H2274 C2250 0.950 . S
H2275 C2251 0.949 . S
H2276 C2253 0.950 . S
H2277 C2255 0.950 . S
C2278 C2279 1.349 . S
C2278 C2280 1.327 . S
C2278 H2303 0.950 . S
C2279 C2278 1.349 . S
C2279 C2295 1.349 . S
C2280 C2278 1.327 . S
C2280 C2299 1.429 . S
C2280 H2304 0.950 . S
C2281 C2298 1.574 . S
C2281 C2300 1.368 . S
C2281 H2305 0.949 . S
H2282 C2286 0.949 . S
C2283 C2284 1.349 . S
C2283 C2285 1.327 . S
C2283 H2306 0.950 . S
C2284 C2283 1.349 . S
C2284 C2296 1.349 . S
C2285 C2283 1.327 . S
C2285 C2301 1.429 . S
C2285 H2307 0.950 . S
C2286 H2282 0.949 . S
C2286 C2294 1.574 . S
C2286 C2302 1.368 . S
H2287 C2295 0.950 . S
H2288 C2293 0.950 . S
H2289 C2294 0.949 . S
H2290 C2296 0.950 . S
H2291 C2297 0.950 . S
H2292 C2298 0.949 . S
C2293 H2288 0.950 . S
C2293 C2295 1.327 . S
C2293 C2299 1.429 . S
C2294 C2286 1.574 . S
C2294 H2289 0.949 . S
C2294 C2300 1.368 . S
C2295 C2279 1.349 . S
C2295 H2287 0.950 . S
C2295 C2293 1.327 . S
C2296 C2284 1.349 . S
C2296 H2290 0.950 . S
C2296 C2297 1.327 . S
C2297 H2291 0.950 . S
C2297 C2296 1.327 . S
C2297 C2301 1.429 . S
C2298 C2281 1.574 . S
C2298 H2292 0.949 . S
C2298 C2302 1.368 . S
C2299 C2280 1.429 . S
C2299 C2293 1.429 . S
C2299 C2300 1.523 . S
C2300 C2281 1.368 . S
C2300 C2294 1.368 . S
C2300 C2299 1.523 . S
C2301 C2285 1.429 . S
C2301 C2297 1.429 . S
C2301 C2302 1.523 . S
C2302 C2286 1.368 . S
C2302 C2298 1.368 . S
C2302 C2301 1.523 . S
H2303 C2278 0.950 . S
H2304 C2280 0.950 . S
H2305 C2281 0.949 . S
H2306 C2283 0.950 . S
H2307 C2285 0.950 . S
C2308 C2309 1.349 . S
C2308 C2310 1.327 . S
C2308 H2333 0.950 . S
C2309 C2308 1.349 . S
C2309 C2325 1.349 . S
C2310 C2308 1.327 . S
C2310 C2329 1.429 . S
C2310 H2334 0.950 . S
C2311 C2328 1.574 . S
C2311 C2330 1.368 . S
C2311 H2335 0.949 . S
H2312 C2316 0.949 . S
C2313 C2314 1.349 . S
C2313 C2315 1.327 . S
C2313 H2336 0.950 . S
C2314 C2313 1.349 . S
C2314 C2326 1.349 . S
C2315 C2313 1.327 . S
C2315 C2331 1.429 . S
C2315 H2337 0.950 . S
C2316 H2312 0.949 . S
C2316 C2324 1.574 . S
C2316 C2332 1.368 . S
H2317 C2325 0.950 . S
H2318 C2323 0.950 . S
H2319 C2324 0.949 . S
H2320 C2326 0.950 . S
H2321 C2327 0.950 . S
H2322 C2328 0.949 . S
C2323 H2318 0.950 . S
C2323 C2325 1.327 . S
C2323 C2329 1.429 . S
C2324 C2316 1.574 . S
C2324 H2319 0.949 . S
C2324 C2330 1.368 . S
C2325 C2309 1.349 . S
C2325 H2317 0.950 . S
C2325 C2323 1.327 . S
C2326 C2314 1.349 . S
C2326 H2320 0.950 . S
C2326 C2327 1.327 . S
C2327 H2321 0.950 . S
C2327 C2326 1.327 . S
C2327 C2331 1.429 . S
C2328 C2311 1.574 . S
C2328 H2322 0.949 . S
C2328 C2332 1.368 . S
C2329 C2310 1.429 . S
C2329 C2323 1.429 . S
C2329 C2330 1.523 . S
C2330 C2311 1.368 . S
C2330 C2324 1.368 . S
C2330 C2329 1.523 . S
C2331 C2315 1.429 . S
C2331 C2327 1.429 . S
C2331 C2332 1.523 . S
C2332 C2316 1.368 . S
C2332 C2328 1.368 . S
C2332 C2331 1.523 . S
H2333 C2308 0.950 . S
H2334 C2310 0.950 . S
H2335 C2311 0.949 . S
H2336 C2313 0.950 . S
H2337 C2315 0.950 . S
C2338 C2339 1.349 . S
C2338 C2340 1.327 . S
C2338 H2363 0.950 . S
C2339 C2338 1.349 . S
C2339 C2355 1.349 . S
C2340 C2338 1.327 . S
C2340 C2359 1.429 . S
C2340 H2364 0.950 . S
C2341 C2358 1.574 . S
C2341 C2360 1.368 . S
C2341 H2365 0.949 . S
H2342 C2346 0.949 . S
C2343 C2344 1.349 . S
C2343 C2345 1.327 . S
C2343 H2366 0.950 . S
C2344 C2343 1.349 . S
C2344 C2356 1.349 . S
C2345 C2343 1.327 . S
C2345 C2361 1.429 . S
C2345 H2367 0.950 . S
C2346 H2342 0.949 . S
C2346 C2354 1.574 . S
C2346 C2362 1.368 . S
H2347 C2355 0.950 . S
H2348 C2353 0.950 . S
H2349 C2354 0.949 . S
H2350 C2356 0.950 . S
H2351 C2357 0.950 . S
H2352 C2358 0.949 . S
C2353 H2348 0.950 . S
C2353 C2355 1.327 . S
C2353 C2359 1.429 . S
C2354 C2346 1.574 . S
C2354 H2349 0.949 . S
C2354 C2360 1.368 . S
C2355 C2339 1.349 . S
C2355 H2347 0.950 . S
C2355 C2353 1.327 . S
C2356 C2344 1.349 . S
C2356 H2350 0.950 . S
C2356 C2357 1.327 . S
C2357 H2351 0.950 . S
C2357 C2356 1.327 . S
C2357 C2361 1.429 . S
C2358 C2341 1.574 . S
C2358 H2352 0.949 . S
C2358 C2362 1.368 . S
C2359 C2340 1.429 . S
C2359 C2353 1.429 . S
C2359 C2360 1.523 . S
C2360 C2341 1.368 . S
C2360 C2354 1.368 . S
C2360 C2359 1.523 . S
C2361 C2345 1.429 . S
C2361 C2357 1.429 . S
C2361 C2362 1.523 . S
C2362 C2346 1.368 . S
C2362 C2358 1.368 . S
C2362 C2361 1.523 . S
H2363 C2338 0.950 . S
H2364 C2340 0.950 . S
H2365 C2341 0.949 . S
H2366 C2343 0.950 . S
H2367 C2345 0.950 . S
C449 C411 1.581 . S
C454 C5 1.581 . S
C479 C19 1.581 . S
C484 C425 1.581 . S
C509 C439 1.581 . S
C514 C33 1.581 . S
C539 C397 1.581 . S
C544 C47 1.581 . S
C569 C61 1.581 . S
C574 C383 1.581 . S
C599 C341 1.581 . S
C604 C75 1.581 . S
C629 C89 1.581 . S
C634 C355 1.581 . S
C659 C369 1.581 . S
C664 C103 1.581 . S
C689 C117 1.581 . S
C694 C299 1.581 . S
C719 C131 1.581 . S
C724 C313 1.581 . S
C749 C327 1.581 . S
C754 C145 1.581 . S
C779 C159 1.581 . S
C784 C285 1.581 . S
C809 C271 1.581 . S
C814 C173 1.581 . S
C839 C229 1.581 . S
C844 C187 1.581 . S
C869 C201 1.581 . S
C874 C243 1.581 . S
C899 C215 1.581 . S
C904 C257 1.581 . S
C929 C0 1.364 . S
C934 C140 1.364 . S
C959 C154 1.364 . S
C964 C14 1.364 . S
C989 C112 1.364 . S
C994 C28 1.364 . S
C1019 C126 1.364 . S
C1024 C42 1.364 . S
C1049 C56 1.364 . S
C1054 C196 1.364 . S
C1079 C210 1.364 . S
C1084 C70 1.364 . S
C1109 C168 1.364 . S
C1114 C84 1.364 . S
C1139 C182 1.364 . S
C1144 C98 1.364 . S
C1169 C224 1.364 . S
C1174 C364 1.364 . S
C1199 C378 1.364 . S
C1204 C238 1.364 . S
C1229 C336 1.364 . S
C1234 C252 1.364 . S
C1259 C266 1.364 . S
C1264 C350 1.364 . S
C1289 C280 1.364 . S
C1294 C420 1.364 . S
C1319 C434 1.364 . S
C1324 C294 1.364 . S
C1349 C392 1.364 . S
C1354 C308 1.364 . S
C1379 C322 1.364 . S
C1384 C406 1.364 . S
C1409 C11 1.482 . S
C1414 C67 1.482 . S
C1439 C25 1.482 . S
C1444 C81 1.482 . S
C1469 C95 1.482 . S
C1474 C39 1.482 . S
C1499 C53 1.482 . S
C1504 C109 1.482 . S
C1529 C123 1.482 . S
C1534 C179 1.482 . S
C1559 C193 1.482 . S
C1564 C137 1.482 . S
C1589 C207 1.482 . S
C1594 C151 1.482 . S
C1619 C165 1.482 . S
C1624 C221 1.482 . S
C1649 C235 1.482 . S
C1654 C291 1.482 . S
C1679 C305 1.482 . S
C1684 C249 1.482 . S
C1709 C263 1.482 . S
C1714 C319 1.482 . S
C1739 C333 1.482 . S
C1744 C277 1.482 . S
C1769 C403 1.482 . S
C1774 C347 1.482 . S
C1799 C361 1.482 . S
C1804 C417 1.482 . S
C1829 C375 1.482 . S
C1834 C431 1.482 . S
C1859 C389 1.482 . S
C1864 C445 1.482 . S
C1889 C9 1.362 . S
C1894 C79 1.362 . S
C1919 C23 1.362 . S
C1924 C93 1.362 . S
C1949 C107 1.362 . S
C1954 C37 1.362 . S
C1979 C65 1.362 . S
C1984 C51 1.362 . S
C2009 C191 1.362 . S
C2014 C121 1.362 . S
C2039 C205 1.362 . S
C2044 C135 1.362 . S
C2069 C219 1.362 . S
C2074 C149 1.362 . S
C2099 C163 1.362 . S
C2104 C177 1.362 . S
C2129 C233 1.362 . S
C2134 C303 1.362 . S
C2159 C317 1.362 . S
C2164 C247 1.362 . S
C2189 C331 1.362 . S
C2194 C261 1.362 . S
C2219 C275 1.362 . S
C2224 C289 1.362 . S
C2249 C415 1.362 . S
C2254 C345 1.362 . S
C2279 C359 1.362 . S
C2284 C429 1.362 . S
C2309 C373 1.362 . S
C2314 C443 1.362 . S
C2339 C401 1.362 . S
C2344 C387 1.362 . S
