# Generated by pormake.
# Topology wnr, (7)-cn, num edge types: 1
# Building blocks:
#     Node 0, Type 0, BuildingBlock: NUHQUE_clean_sbu_2, # of connection points: 7
#     Node 1, Type 0, BuildingBlock: NUHQUE_clean_sbu_2, # of connection points: 7
#     Node 2, Type 0, BuildingBlock: NUHQUE_clean_sbu_2, # of connection points: 7
#     Node 3, Type 0, BuildingBlock: NUHQUE_clean_sbu_2, # of connection points: 7
#     Node 4, Type 0, BuildingBlock: NUHQUE_clean_sbu_2, # of connection points: 7
#     Node 5, Type 0, BuildingBlock: NUHQUE_clean_sbu_2, # of connection points: 7
#     Edge 6, Type (0, 0), BuildingBlock: TEMPAE_clean_linker_10, # of connection points: 2
#     Edge 7, Type (0, 0), BuildingBlock: TEMPAE_clean_linker_10, # of connection points: 2
#     Edge 8, Type (0, 0), BuildingBlock: TEMPAE_clean_linker_10, # of connection points: 2
#     Edge 9, Type (0, 0), BuildingBlock: TEMPAE_clean_linker_10, # of connection points: 2
#     Edge 10, Type (0, 0), BuildingBlock: TEMPAE_clean_linker_10, # of connection points: 2
#     Edge 11, Type (0, 0), BuildingBlock: TEMPAE_clean_linker_10, # of connection points: 2
#     Edge 12, Type (0, 0), BuildingBlock: TEMPAE_clean_linker_10, # of connection points: 2
#     Edge 13, Type (0, 0), BuildingBlock: TEMPAE_clean_linker_10, # of connection points: 2
#     Edge 14, Type (0, 0), BuildingBlock: TEMPAE_clean_linker_10, # of connection points: 2
#     Edge 15, Type (0, 0), BuildingBlock: TEMPAE_clean_linker_10, # of connection points: 2
#     Edge 16, Type (0, 0), BuildingBlock: TEMPAE_clean_linker_10, # of connection points: 2
#     Edge 17, Type (0, 0), BuildingBlock: TEMPAE_clean_linker_10, # of connection points: 2
#     Edge 18, Type (0, 0), BuildingBlock: TEMPAE_clean_linker_10, # of connection points: 2
#     Edge 19, Type (0, 0), BuildingBlock: TEMPAE_clean_linker_10, # of connection points: 2
#     Edge 20, Type (0, 0), BuildingBlock: TEMPAE_clean_linker_10, # of connection points: 2
#     Edge 21, Type (0, 0), BuildingBlock: TEMPAE_clean_linker_10, # of connection points: 2
#     Edge 22, Type (0, 0), BuildingBlock: TEMPAE_clean_linker_10, # of connection points: 2
#     Edge 23, Type (0, 0), BuildingBlock: TEMPAE_clean_linker_10, # of connection points: 2
#     Edge 24, Type (0, 0), BuildingBlock: TEMPAE_clean_linker_10, # of connection points: 2
#     Edge 25, Type (0, 0), BuildingBlock: TEMPAE_clean_linker_10, # of connection points: 2
#     Edge 26, Type (0, 0), BuildingBlock: TEMPAE_clean_linker_10, # of connection points: 2
# Relax obj value: 0.187
# Max RMSD: 0.215
# Mean RMSD: 0.215
data_MOF--net-wnr--node1-NUHQUE_clean_sbu_2--edge1-TEMPAE_clean_linker_10
_symmetry_space_group_name_H-M    P1
_symmetry_Int_Tables_number       1
_symmetry_cell_setting            triclinic
loop_
_symmetry_equiv_pos_as_xyz
'x, y, z'
_cell_length_a     46.952426
_cell_length_b     46.890297
_cell_length_c     18.328562
_cell_angle_alpha  90.182195
_cell_angle_beta   89.988098
_cell_angle_gamma 119.99875
loop_
_atom_site_label
_atom_site_type_symbol
_atom_site_fract_x
_atom_site_fract_y
_atom_site_fract_z
_atom_type_partial_charge
O0 O 0.26751 0.45412 0.86601 0.0
Tb1 Tb 0.29037 0.48056 0.96654 0.0
Eu2 Eu 0.24436 0.42496 0.11521 0.0
C3 C 0.28384 0.44472 0.82312 0.0
O4 O 0.31212 0.44866 0.84577 0.0
C5 C 0.30422 0.42338 0.02645 0.0
O6 O 0.24343 0.41632 0.23652 0.0
C7 C 0.18448 0.39266 0.06577 0.0
C8 C 0.26876 0.43656 0.27691 0.0
O9 O 0.29478 0.46038 0.24475 0.0
C10 C 0.25731 0.49679 0.0938 0.0
C11 C 0.15066 0.38665 0.07803 0.0
C12 C 0.1336 0.3911 0.01982 0.0
C13 C 0.10022 0.38187 0.02716 0.0
C14 C 0.08409 0.36795 0.09276 0.0
C15 C 0.10028 0.36262 0.15026 0.0
C16 C 0.13371 0.37247 0.14371 0.0
O17 O 0.31475 0.45266 0.99683 0.0
O18 O 0.27714 0.40791 0.06551 0.0
O19 O 0.31326 0.52134 0.88899 0.0
O20 O 0.3377 0.5251 0.98889 0.0
C21 C 0.33923 0.53991 0.92786 0.0
O22 O 0.26211 0.47834 0.13989 0.0
O23 O 0.2551 0.49026 0.02362 0.0
O24 O 0.19639 0.38105 0.11492 0.0
O25 O 0.2067 0.42126 0.03881 0.0
H26 H 0.14594 0.40071 0.9682 0.0
H27 H 0.05798 0.35927 0.09793 0.0
H28 H 0.14586 0.36765 0.18827 0.0
O29 O 0.56763 0.816 0.53737 0.0
Tb30 Tb 0.54065 0.81069 0.63743 0.0
Eu31 Eu 0.59502 0.81945 0.78865 0.0
C32 C 0.55916 0.79066 0.49379 0.0
O33 O 0.53674 0.76123 0.51585 0.0
C34 C 0.59641 0.88195 0.70394 0.0
O35 O 0.60263 0.82213 0.91035 0.0
C36 C 0.62848 0.79433 0.73266 0.0
C37 C 0.58385 0.82832 0.95302 0.0
O38 O 0.56223 0.8347 0.92305 0.0
C39 C 0.52422 0.76051 0.76108 0.0
C40 C 0.6349 0.76663 0.74309 0.0
C41 C 0.63006 0.7452 0.68417 0.0
C42 C 0.63899 0.72077 0.69042 0.0
C43 C 0.65316 0.71828 0.75546 0.0
C44 C 0.65887 0.73969 0.81369 0.0
C45 C 0.64922 0.7635 0.80832 0.0
O46 O 0.56995 0.86329 0.66404 0.0
O47 O 0.60991 0.87039 0.74951 0.0
O48 O 0.49894 0.79282 0.56222 0.0
O49 O 0.49652 0.81368 0.66332 0.0
C50 C 0.4809 0.80025 0.60287 0.0
O51 O 0.54172 0.78315 0.80943 0.0
O52 O 0.53215 0.76572 0.6918 0.0
O53 O 0.64004 0.81751 0.78294 0.0
O54 O 0.59954 0.78761 0.70711 0.0
H55 H 0.6202 0.7481 0.63303 0.0
H56 H 0.66154 0.70056 0.75973 0.0
H57 H 0.65418 0.78029 0.85356 0.0
O58 O 0.20624 0.75124 0.22249 0.0
Tb59 Tb 0.20704 0.72631 0.32179 0.0
Eu60 Eu 0.19713 0.77095 0.47515 0.0
C61 C 0.17933 0.74034 0.18306 0.0
O62 O 0.15148 0.71641 0.20843 0.0
C63 C 0.13539 0.70896 0.38971 0.0
O64 O 0.19226 0.77431 0.59643 0.0
C65 C 0.21766 0.82894 0.41982 0.0
C66 C 0.18502 0.74864 0.6374 0.0
O67 O 0.17991 0.72126 0.60591 0.0
C68 C 0.2575 0.76091 0.447 0.0
C69 C 0.24268 0.86434 0.42087 0.0
C70 C 0.245 0.88307 0.35899 0.0
C71 C 0.26448 0.91743 0.36078 0.0
C72 C 0.28299 0.93294 0.42284 0.0
C73 C 0.28143 0.91503 0.48503 0.0
C74 C 0.26072 0.88048 0.48458 0.0
O75 O 0.15441 0.70212 0.34855 0.0
O76 O 0.14648 0.73357 0.43672 0.0
O77 O 0.22386 0.70333 0.24135 0.0
O78 O 0.20654 0.6799 0.34344 0.0
C79 C 0.21843 0.67807 0.28049 0.0
O80 O 0.23546 0.7566 0.49607 0.0
O81 O 0.25179 0.76283 0.37758 0.0
O82 O 0.19812 0.81756 0.47666 0.0
O83 O 0.22518 0.80771 0.39126 0.0
H84 H 0.23024 0.87112 0.311 0.0
H85 H 0.29774 0.95963 0.42369 0.0
H86 H 0.25815 0.86647 0.53348 0.0
O87 O 0.46821 0.26441 0.11833 0.0
Tb88 Tb 0.49115 0.29332 0.01988 0.0
Eu89 Eu 0.42557 0.23206 0.88108 0.0
C90 C 0.46167 0.28009 0.16991 0.0
O91 O 0.46564 0.30914 0.15367 0.0
C92 C 0.43062 0.3011 0.95585 0.0
O93 O 0.4278 0.2348 0.75671 0.0
C94 C 0.37444 0.17595 0.91491 0.0
C95 C 0.45506 0.25201 0.71881 0.0
O96 O 0.48294 0.26969 0.75383 0.0
C97 C 0.50002 0.24982 0.90401 0.0
C98 C 0.3633 0.14024 0.91768 0.0
C99 C 0.34761 0.12272 0.98145 0.0
C100 C 0.33447 0.08856 0.98432 0.0
C101 C 0.33792 0.07202 0.92469 0.0
C102 C 0.35389 0.08873 0.86115 0.0
C103 C 0.36624 0.12298 0.85704 0.0
O104 O 0.45695 0.31079 0.99749 0.0
O105 O 0.41781 0.27499 0.91183 0.0
O106 O 0.53822 0.31028 0.07533 0.0
O107 O 0.52565 0.34575 0.04142 0.0
C108 C 0.54795 0.34153 0.0738 0.0
O109 O 0.46955 0.2257 0.89856 0.0
O110 O 0.50641 0.27979 0.9194 0.0
O111 O 0.37903 0.18945 0.85018 0.0
O112 O 0.3964 0.19525 0.9634 0.0
H113 H 0.34486 0.13548 0.028 0.0
H114 H 0.32759 0.04553 0.9277 0.0
H115 H 0.37799 0.13597 0.80731 0.0
O116 O 0.75635 0.19754 0.80913 0.0
Tb117 Tb 0.73226 0.19866 0.70819 0.0
Eu118 Eu 0.78405 0.19278 0.5622 0.0
C119 C 0.74288 0.17102 0.8504 0.0
O120 O 0.71739 0.14415 0.82497 0.0
C121 C 0.72095 0.13041 0.64038 0.0
O122 O 0.78425 0.18551 0.43986 0.0
C123 C 0.84383 0.21888 0.61144 0.0
C124 C 0.75912 0.18132 0.39983 0.0
O125 O 0.73359 0.17991 0.43276 0.0
C126 C 0.77099 0.25195 0.59086 0.0
C127 C 0.87772 0.24688 0.60079 0.0
C128 C 0.89416 0.26837 0.65973 0.0
C129 C 0.92744 0.29294 0.65355 0.0
C130 C 0.94416 0.29551 0.58859 0.0
C131 C 0.92862 0.27401 0.53043 0.0
C132 C 0.89525 0.25007 0.53569 0.0
O133 O 0.70849 0.14853 0.66388 0.0
O134 O 0.75042 0.14287 0.61107 0.0
O135 O 0.70061 0.20259 0.79051 0.0
O136 O 0.69321 0.20947 0.67945 0.0
C137 C 0.68313 0.20902 0.74579 0.0
O138 O 0.76913 0.23074 0.54157 0.0
O139 O 0.76921 0.2453 0.66092 0.0
O140 O 0.83177 0.19629 0.55988 0.0
O141 O 0.82175 0.22492 0.64077 0.0
H142 H 0.88139 0.26539 0.71089 0.0
H143 H 0.9702 0.31336 0.58435 0.0
H144 H 0.88357 0.23319 0.49053 0.0
O145 O 0.82242 0.55883 0.4815 0.0
Tb146 Tb 0.82159 0.53332 0.38101 0.0
Eu147 Eu 0.82728 0.59169 0.23449 0.0
C148 C 0.84917 0.57264 0.52224 0.0
O149 O 0.87621 0.57476 0.496 0.0
C150 C 0.88799 0.58936 0.31217 0.0
O151 O 0.83545 0.59896 0.11235 0.0
C152 C 0.79979 0.62473 0.28023 0.0
C153 C 0.8386 0.57735 0.07211 0.0
O154 O 0.8387 0.55247 0.10464 0.0
C155 C 0.76845 0.51973 0.26429 0.0
C156 C 0.7718 0.63046 0.26741 0.0
C157 C 0.74996 0.62554 0.32524 0.0
C158 C 0.72545 0.63425 0.31755 0.0
C159 C 0.72316 0.64811 0.25195 0.0
C160 C 0.74497 0.65392 0.19477 0.0
C161 C 0.769 0.64464 0.20172 0.0
O162 O 0.86905 0.55756 0.32453 0.0
O163 O 0.87602 0.60791 0.28964 0.0
O164 O 0.82778 0.50135 0.45864 0.0
O165 O 0.80115 0.48034 0.36128 0.0
C166 C 0.81164 0.47422 0.42161 0.0
O167 O 0.79059 0.5381 0.21577 0.0
O168 O 0.77502 0.52475 0.33455 0.0
O169 O 0.82308 0.6356 0.23059 0.0
O170 O 0.79359 0.59656 0.30941 0.0
H171 H 0.7527 0.61594 0.37687 0.0
H172 H 0.70536 0.65632 0.24652 0.0
H173 H 0.7862 0.64982 0.15747 0.0
C174 C 0.0797 0.36603 0.89952 0.0
C175 C 0.07994 0.38169 0.96487 0.0
C176 C 0.05418 0.35679 0.84865 0.0
C177 C 0.02831 0.36324 0.86392 0.0
C178 C 0.03007 0.38167 0.92665 0.0
C179 C 0.05602 0.39088 0.97616 0.0
C180 C 0.05357 0.33781 0.78138 0.0
C181 C 1.00319 0.38928 0.94472 0.0
C182 C 0.97025 0.34677 0.70551 0.0
C183 C 0.94704 0.31339 0.71632 0.0
C184 C 0.99593 0.36413 0.75539 0.0
C185 C 0.99812 0.34779 0.81799 0.0
C186 C 0.97285 0.31514 0.83283 0.0
C187 C 0.94759 0.29826 0.78159 0.0
C188 C 0.02215 0.39894 0.73777 0.0
C189 C 0.97391 0.2971 0.89994 0.0
H190 H 0.09796 0.35868 0.89072 0.0
H191 H 0.05636 0.40331 0.02643 0.0
H192 H 0.0335 0.31185 0.78628 0.0
H193 H 0.04849 0.34824 0.73211 0.0
H194 H 0.07713 0.33803 0.77338 0.0
H195 H 1.01074 0.40813 0.98855 0.0
H196 H 0.99602 0.39809 0.89579 0.0
H197 H 0.98108 0.36646 0.96341 0.0
H198 H 0.96967 0.35862 0.65527 0.0
H199 H 0.92985 0.27244 0.79 0.0
H200 H 0.04464 0.39897 0.71899 0.0
H201 H 0.0289 0.4149 0.7869 0.0
H202 H 1.01418 0.40982 0.69412 0.0
H203 H 0.9944 0.29184 0.89494 0.0
H204 H 0.95065 0.27342 0.90776 0.0
H205 H 0.97862 0.31258 0.94933 0.0
C206 C 0.72 0.64951 0.44525 0.0
C207 C 0.70496 0.63391 0.37959 0.0
C208 C 0.70325 0.65824 0.49602 0.0
C209 C 0.67082 0.65132 0.48034 0.0
C210 C 0.65453 0.6329 0.41733 0.0
C211 C 0.67176 0.62423 0.3679 0.0
C212 C 0.72122 0.6772 0.5636 0.0
C213 C 0.61993 0.62474 0.3989 0.0
C214 C 0.62852 0.66709 0.63841 0.0
C215 C 0.63836 0.70041 0.62764 0.0
C216 C 0.63712 0.64993 0.58854 0.0
C217 C 0.6556 0.66641 0.52601 0.0
C218 C 0.6626 0.69895 0.51114 0.0
C219 C 0.65394 0.71563 0.56235 0.0
C220 C 0.62891 0.61521 0.60616 0.0
C221 C 0.68163 0.71712 0.44409 0.0
H222 H 0.74567 0.65722 0.4544 0.0
H223 H 0.65996 0.61182 0.31741 0.0
H224 H 0.72671 0.70306 0.5589 0.0
H225 H 0.70562 0.66649 0.61263 0.0
H226 H 0.74473 0.67736 0.57189 0.0
H227 H 0.60897 0.60584 0.35511 0.0
H228 H 0.60388 0.61577 0.4477 0.0
H229 H 0.62025 0.64736 0.37996 0.0
H230 H 0.61615 0.65516 0.68864 0.0
H231 H 0.66173 0.74139 0.55394 0.0
H232 H 0.65142 0.61547 0.62562 0.0
H233 H 0.62013 0.5993 0.5569 0.0
H234 H 0.60986 0.6041 0.64935 0.0
H235 H 0.70747 0.72269 0.44923 0.0
H236 H 0.68172 0.74064 0.4362 0.0
H237 H 0.67107 0.7016 0.39467 0.0
C238 C 0.27927 0.93904 0.23421 0.0
C239 C 0.26461 0.93841 0.30095 0.0
C240 C 0.28651 0.96424 0.18378 0.0
C241 C 0.27868 0.98906 0.20092 0.0
C242 C 0.26179 0.98709 0.26621 0.0
C243 C 0.25506 0.96179 0.31567 0.0
C244 C 0.30438 0.96546 0.11432 0.0
C245 C 0.25262 1.01275 0.28593 0.0
C246 C 0.33536 0.07097 0.11134 0.0
C247 C 0.31731 0.06884 0.04892 0.0
C248 C 0.32226 0.04587 0.16374 0.0
C249 C 0.29042 0.01827 0.153 0.0
C250 C 0.27114 0.01751 0.093 0.0
C251 C 0.28492 0.04282 0.04137 0.0
C252 C 0.34347 0.04765 0.22745 0.0
C253 C 0.23696 0.98882 0.08026 0.0
H254 H 0.28688 0.92107 0.22353 0.0
H255 H 0.24376 0.96117 0.3677 0.0
H256 H 0.29144 0.96807 0.06641 0.0
H257 H 0.32948 0.98731 0.11548 0.0
H258 H 0.30652 0.94309 0.10672 0.0
H259 H 0.23602 1.0054 0.33396 0.0
H260 H 0.27522 0.03637 0.29879 0.0
H261 H 0.2404 0.0173 0.23925 0.0
H262 H 0.36057 0.0909 0.11629 0.0
H263 H 0.27119 0.0412 0.99243 0.0
H264 H 0.35049 0.02841 0.2212 0.0
H265 H 0.32963 0.04274 0.2793 0.0
H266 H 0.36628 0.07202 0.2316 0.0
H267 H 0.2386 0.96702 0.06271 0.0
H268 H 0.22358 0.99423 0.03748 0.0
H269 H 0.2224 0.98214 0.13136 0.0
C270 C 0.23038 0.53133 0.0852 0.0
C271 C 0.25145 0.52312 0.12206 0.0
C272 C 0.22418 0.55581 0.11249 0.0
C273 C 0.24032 0.57333 0.17683 0.0
C274 C 0.262 0.5654 0.21361 0.0
C275 C 0.26684 0.54002 0.1865 0.0
C276 C 0.20012 0.56272 0.07275 0.0
C277 C 0.28054 0.5841 0.28092 0.0
C278 C 0.2481 0.65771 0.20218 0.0
C279 C 0.22449 0.65143 0.25602 0.0
C280 C 0.25402 0.63274 0.17725 0.0
C281 C 0.235 0.60034 0.20482 0.0
C282 C 0.21083 0.59383 0.25875 0.0
C283 C 0.20629 0.6196 0.28467 0.0
C284 C 0.28077 0.64111 0.12163 0.0
C285 C 0.18929 0.55949 0.28796 0.0
H286 H 0.21818 0.51812 0.03576 0.0
H287 H 0.28331 0.53389 0.21493 0.0
H288 H 0.18069 0.56038 0.11083 0.0
H289 H 0.21292 0.58836 0.05213 0.0
H290 H 0.18825 0.54573 0.02591 0.0
H291 H 0.29704 0.57542 0.30222 0.0
H292 H 0.29555 0.61074 0.26833 0.0
H293 H 0.26303 0.58147 0.32456 0.0
H294 H 0.26233 0.68237 0.18023 0.0
H295 H 0.18782 0.61465 0.32587 0.0
H296 H 0.26997 0.62715 0.07046 0.0
H297 H 0.2984 0.63376 0.14222 0.0
H298 H 0.29453 0.6678 0.10862 0.0
H299 H 0.17592 0.54234 0.24232 0.0
H300 H 0.17106 0.55831 0.32825 0.0
H301 H 0.20464 0.55061 0.31443 0.0
C302 C 0.36073 0.59085 0.85298 0.0
C303 C 0.36635 0.57244 0.90515 0.0
C304 C 0.38621 0.62177 0.83031 0.0
C305 C 0.41834 0.63403 0.85869 0.0
C306 C 0.42418 0.61525 0.91081 0.0
C307 C 0.39795 0.5849 0.93436 0.0
C308 C 0.37869 0.64141 0.77643 0.0
C309 C 0.45822 0.62696 0.94081 0.0
C310 C 0.48885 0.69944 0.74592 0.0
C311 C 0.49726 0.72815 0.78578 0.0
C312 C 0.46368 0.66856 0.76983 0.0
C313 C 0.44579 0.6665 0.83381 0.0
C314 C 0.45391 0.69555 0.87358 0.0
C315 C 0.47988 0.72594 0.84972 0.0
C316 C 0.45645 0.6381 0.727 0.0
C317 C 0.43485 0.69462 0.94078 0.0
H318 H 0.33622 0.58127 0.83066 0.0
H319 H 0.40234 0.57052 0.97431 0.0
H320 H 0.38612 0.66608 0.79949 0.0
H321 H 0.39306 0.64531 0.72572 0.0
H322 H 0.35216 0.62903 0.76198 0.0
H323 H 0.45885 0.60899 0.97918 0.0
H324 H 0.47554 0.63127 0.89537 0.0
H325 H 0.46729 0.65076 0.96978 0.0
H326 H 0.50242 0.70103 0.69678 0.0
H327 H 0.48617 0.74814 0.88037 0.0
H328 H 0.43094 0.62596 0.70563 0.0
H329 H 0.45832 0.62017 0.76321 0.0
H330 H 0.47356 0.64372 0.68037 0.0
H331 H 0.40837 0.68358 0.92708 0.0
H332 H 0.44369 0.71951 0.9644 0.0
H333 H 0.43688 0.67885 0.98301 0.0
C334 C 0.43546 0.81328 0.61348 0.0
C335 C 0.44791 0.79438 0.58262 0.0
C336 C 0.40465 0.80868 0.59202 0.0
C337 C 0.38543 0.78383 0.54034 0.0
C338 C 0.39768 0.76417 0.51043 0.0
C339 C 0.42901 0.77008 0.53101 0.0
C340 C 0.39295 0.8308 0.62359 0.0
C341 C 0.37763 0.73678 0.45694 0.0
C342 C 0.29328 0.75235 0.53474 0.0
C343 C 0.29024 0.76712 0.47108 0.0
C344 C 0.32403 0.75732 0.55757 0.0
C345 C 0.35261 0.77847 0.51709 0.0
C346 C 0.34972 0.79401 0.45356 0.0
C347 C 0.3185 0.7877 0.43065 0.0
C348 C 0.32585 0.73946 0.62424 0.0
C349 C 0.37963 0.81745 0.40999 0.0
H350 H 0.45019 0.83224 0.65302 0.0
H351 H 0.43856 0.75531 0.50743 0.0
H352 H 0.38811 0.84375 0.57893 0.0
H353 H 0.36946 0.8159 0.65315 0.0
H354 H 0.41114 0.84946 0.66179 0.0
H355 H 0.39 0.7227 0.44154 0.0
H356 H 0.35327 0.71949 0.48083 0.0
H357 H 0.37314 0.74705 0.40669 0.0
H358 H 0.27143 0.73621 0.56581 0.0
H359 H 0.31629 0.7994 0.38173 0.0
H360 H 0.34203 0.75744 0.666 0.0
H361 H 0.33682 0.72405 0.60949 0.0
H362 H 0.30129 0.72341 0.64889 0.0
H363 H 0.3978 0.8373 0.44601 0.0
H364 H 0.37341 0.82887 0.36426 0.0
H365 H 0.39171 0.80423 0.38725 0.0
C366 C 0.55979 0.27001 0.8799 0.0
C367 C 0.52703 0.24414 0.87985 0.0
C368 C 0.58551 0.26495 0.85696 0.0
C369 C 0.57839 0.23323 0.83357 0.0
C370 C 0.54541 0.20702 0.83335 0.0
C371 C 0.52017 0.21278 0.85646 0.0
C372 C 0.62034 0.29354 0.85803 0.0
C373 C 0.53677 0.17281 0.80909 0.0
C374 C 0.64066 0.22461 0.71596 0.0
C375 C 0.65636 0.21521 0.76765 0.0
C376 C 0.61536 0.23077 0.73665 0.0
C377 C 0.60548 0.22726 0.81071 0.0
C378 C 0.62132 0.21773 0.86301 0.0
C379 C 0.64662 0.21192 0.84086 0.0
C380 C 0.59921 0.24103 0.67932 0.0
C381 C 0.61146 0.21356 0.9424 0.0
H382 H 0.56542 0.29431 0.898 0.0
H383 H 0.49501 0.19257 0.85624 0.0
H384 H 0.63568 0.28798 0.89485 0.0
H385 H 0.63122 0.29742 0.80268 0.0
H386 H 0.62173 0.31678 0.87661 0.0
H387 H 0.5099 0.15519 0.81134 0.0
H388 H 0.54536 0.17349 0.75239 0.0
H389 H 0.54951 0.16344 0.84425 0.0
H390 H 0.64823 0.22728 0.65934 0.0
H391 H 0.65872 0.20465 0.88098 0.0
H392 H 0.60185 0.2652 0.69408 0.0
H393 H 0.5725 0.22295 0.67677 0.0
H394 H 0.60995 0.24298 0.62429 0.0
H395 H 0.61447 0.23697 0.96449 0.0
H396 H 0.62624 0.20608 0.97622 0.0
H397 H 0.5851 0.19465 0.94788 0.0
C398 C 0.76385 0.30109 0.60533 0.0
C399 C 0.77723 0.28469 0.56681 0.0
C400 C 0.76861 0.33164 0.58136 0.0
C401 C 0.78812 0.34663 0.51875 0.0
C402 C 0.80216 0.33036 0.48051 0.0
C403 C 0.79609 0.29935 0.50429 0.0
C404 C 0.75241 0.34767 0.62248 0.0
C405 C 0.82389 0.34585 0.41486 0.0
C406 C 0.78001 0.41268 0.41541 0.0
C407 C 0.80577 0.44162 0.44546 0.0
C408 C 0.77361 0.38158 0.4396 0.0
C409 C 0.79409 0.37944 0.49357 0.0
C410 C 0.8205 0.4087 0.52312 0.0
C411 C 0.8257 0.43943 0.49947 0.0
C412 C 0.74472 0.35102 0.40804 0.0
C413 C 0.84345 0.40758 0.57924 0.0
H414 H 0.74896 0.28961 0.65323 0.0
H415 H 0.80664 0.2868 0.47466 0.0
H416 H 0.77139 0.37177 0.64485 0.0
H417 H 0.7368 0.3525 0.58482 0.0
H418 H 0.7369 0.33218 0.66819 0.0
H419 H 0.83378 0.33048 0.39261 0.0
H420 H 0.80986 0.34975 0.37117 0.0
H421 H 0.84484 0.37038 0.42977 0.0
H422 H 0.76442 0.41436 0.37402 0.0
H423 H 0.84572 0.46182 0.52256 0.0
H424 H 0.72801 0.33586 0.45253 0.0
H425 H 0.75339 0.33577 0.38002 0.0
H426 H 0.7305 0.35691 0.36845 0.0
H427 H 0.82951 0.39474 0.62894 0.0
H428 H 0.86343 0.43254 0.59505 0.0
H429 H 0.8547 0.39337 0.55752 0.0
C430 C 0.58653 0.40062 0.10643 0.0
C431 C 0.57948 0.36784 0.10425 0.0
C432 C 0.61655 0.42569 0.13499 0.0
C433 C 0.64018 0.41781 0.16129 0.0
C434 C 0.633 0.38466 0.1595 0.0
C435 C 0.6027 0.36009 0.13132 0.0
C436 C 0.62311 0.46066 0.13648 0.0
C437 C 0.65756 0.37519 0.18629 0.0
C438 C 0.73016 0.48521 0.16436 0.0
C439 C 0.73546 0.49375 0.23864 0.0
C440 C 0.69934 0.46066 0.13864 0.0
C441 C 0.67289 0.44433 0.18814 0.0
C442 C 0.67794 0.45296 0.26313 0.0
C443 C 0.7092 0.47741 0.28756 0.0
C444 C 0.69518 0.45199 0.05843 0.0
C445 C 0.65032 0.43634 0.31755 0.0
H446 H 0.56856 0.40667 0.08585 0.0
H447 H 0.59734 0.33476 0.12974 0.0
H448 H 0.62923 0.47067 0.19281 0.0
H449 H 0.64464 0.47644 0.10171 0.0
H450 H 0.60171 0.46252 0.11687 0.0
H451 H 0.64798 0.34826 0.18246 0.0
H452 H 0.68048 0.3881 0.15373 0.0
H453 H 0.66422 0.38301 0.24391 0.0
H454 H 0.75027 0.49752 0.12604 0.0
H455 H 0.71298 0.48387 0.34496 0.0
H456 H 0.67551 0.45571 0.03491 0.0
H457 H 0.68746 0.4256 0.05117 0.0
H458 H 0.71816 0.46702 0.02703 0.0
H459 H 0.62929 0.43941 0.30087 0.0
H460 H 0.65799 0.44639 0.37358 0.0
H461 H 0.64137 0.40952 0.31867 0.0
C462 C 0.94793 0.29111 0.4031 0.0
C463 C 0.9492 0.27601 0.46766 0.0
C464 C 0.97321 0.30146 0.35121 0.0
C465 C 1.00022 0.29655 0.36477 0.0
C466 C 1.00031 0.27926 0.42775 0.0
C467 C 0.9748 0.26929 0.47862 0.0
C468 C 0.9721 0.31956 0.28429 0.0
C469 C 0.02839 0.27323 0.44389 0.0
C470 C 0.05609 0.31077 0.20305 0.0
C471 C 0.08024 0.34383 0.21327 0.0
C472 C 0.03069 0.29443 0.25383 0.0
C473 C 0.0294 0.31174 0.31589 0.0
C474 C 0.05498 0.34455 0.32866 0.0
C475 C 0.08016 0.36028 0.27688 0.0
C476 C 1.00414 0.25941 0.23853 0.0
C477 C 0.05461 0.36374 0.39459 0.0
H478 H 0.92836 0.29673 0.3955 0.0
H479 H 0.97583 0.25792 0.52927 0.0
H480 H 0.99202 0.34568 0.28743 0.0
H481 H 0.97636 0.30876 0.23442 0.0
H482 H 0.94821 0.31889 0.2787 0.0
H483 H 0.02278 0.25597 0.49015 0.0
H484 H 0.03432 0.26309 0.39516 0.0
H485 H 0.05069 0.29692 0.45786 0.0
H486 H 0.05604 0.29833 0.15302 0.0
H487 H 0.09857 0.38603 0.2838 0.0
H488 H 0.981 0.25898 0.22386 0.0
H489 H 0.99909 0.24397 0.28785 0.0
H490 H 1.01085 0.24821 0.19301 0.0
H491 H 0.03348 0.36807 0.39066 0.0
H492 H 0.07757 0.38794 0.3996 0.0
H493 H 0.05133 0.34946 0.44511 0.0
C494 C 0.72734 0.65583 0.06767 0.0
C495 C 0.74332 0.67247 0.13158 0.0
C496 C 0.71723 0.67098 0.01576 0.0
C497 C 0.72322 0.70339 0.02867 0.0
C498 C 0.74126 0.72094 0.09108 0.0
C499 C 0.75101 0.70519 0.14195 0.0
C500 C 0.6983 0.65155 0.94951 0.0
C501 C 0.74839 0.75554 0.10662 0.0
C502 C 0.71008 0.74537 0.86609 0.0
C503 C 0.67746 0.73778 0.87658 0.0
C504 C 0.72595 0.73575 0.91697 0.0
C505 C 0.7086 0.7179 0.97947 0.0
C506 C 0.67628 0.71198 0.99245 0.0
C507 C 0.66103 0.722 0.94058 0.0
C508 C 0.76046 0.74286 0.90144 0.0
C509 C 0.65706 0.69324 0.0588 0.0
H510 H 0.7209 0.63033 0.06062 0.0
H511 H 0.76294 0.71776 0.19221 0.0
H512 H 0.67252 0.64628 0.95309 0.0
H513 H 0.70909 0.66609 0.89918 0.0
H514 H 0.69806 0.62781 0.94442 0.0
H515 H 0.76594 0.76709 0.15262 0.0
H516 H 0.75864 0.77122 0.05757 0.0
H517 H 0.72516 0.75504 0.12066 0.0
H518 H 0.72252 0.75721 0.81583 0.0
H519 H 0.63562 0.71568 0.94779 0.0
H520 H 0.75997 0.71955 0.88771 0.0
H521 H 0.77627 0.75338 0.9504 0.0
H522 H 0.77184 0.76023 0.85525 0.0
H523 H 0.6518 0.66742 0.05536 0.0
H524 H 0.63337 0.69301 0.0639 0.0
H525 H 0.67172 0.70421 0.10907 0.0
C526 C 0.36488 0.04529 0.81359 0.0
C527 C 0.35505 0.06856 0.7997 0.0
C528 C 0.35712 0.01917 0.76512 0.0
C529 C 0.33949 0.01647 0.7005 0.0
C530 C 0.33204 0.04153 0.68313 0.0
C531 C 0.33983 0.06727 0.73315 0.0
C532 C 0.36568 0.9932 0.78581 0.0
C533 C 0.31395 0.03999 0.61385 0.0
C534 C 0.33188 0.95965 0.54427 0.0
C535 C 0.29898 0.93443 0.55085 0.0
C536 C 0.34601 0.98581 0.59446 0.0
C537 C 0.32692 0.98651 0.6534 0.0
C538 C 0.29476 0.95944 0.66427 0.0
C539 C 0.28109 0.93372 0.6126 0.0
C540 C 0.38036 0.01395 0.5808 0.0
C541 C 0.27388 0.95882 0.72753 0.0
H542 H 0.37674 0.04629 0.86508 0.0
H543 H 0.33192 0.085 0.72253 0.0
H544 H 0.34286 0.97013 0.8003 0.0
H545 H 0.37706 0.98749 0.73916 0.0
H546 H 0.38277 1.00089 0.83311 0.0
H547 H 0.31282 0.06283 0.60495 0.0
H548 H 0.32604 0.03595 0.56608 0.0
H549 H 0.28845 0.01885 0.61648 0.0
H550 H 0.34573 0.96027 0.49634 0.0
H551 H 0.25557 0.91452 0.61746 0.0
H552 H 0.39508 0.02117 0.63179 0.0
H553 H 0.37903 0.03571 0.56181 0.0
H554 H 0.39342 1.00769 0.53875 0.0
H555 H 0.28793 0.96443 0.77933 0.0
H556 H 0.25099 0.9346 0.73283 0.0
H557 H 0.26701 0.97808 0.71972 0.0
C558 C 0.35057 0.41941 0.96621 0.0
C559 C 0.32397 0.40667 0.01511 0.0
C560 C 0.36848 0.40311 0.95324 0.0
C561 C 0.35993 0.37344 0.99048 0.0
C562 C 0.33334 0.36062 0.04034 0.0
C563 C 0.31569 0.37724 0.0518 0.0
C564 C 0.39653 0.41761 0.89941 0.0
C565 C 0.3235 0.32926 0.08182 0.0
C566 C 0.38626 0.31362 0.91699 0.0
C567 C 0.41346 0.32073 0.96138 0.0
C568 C 0.36907 0.33098 0.92477 0.0
C569 C 0.37905 0.35602 0.97851 0.0
C570 C 0.40673 0.36367 0.02268 0.0
C571 C 0.42356 0.3461 0.01352 0.0
C572 C 0.33983 0.32214 0.87617 0.0
C573 C 0.41822 0.39002 0.08088 0.0
H574 H 0.3573 0.44202 0.93732 0.0
H575 H 0.29533 0.36705 0.08985 0.0
H576 H 0.41977 0.42323 0.92714 0.0
H577 H 0.39212 0.39945 0.85563 0.0
H578 H 0.3998 0.44053 0.87397 0.0
H579 H 0.3023 0.32249 0.1187 0.0
H580 H 0.31689 0.30866 0.04305 0.0
H581 H 0.34455 0.33208 0.11491 0.0
H582 H 0.37812 0.29423 0.8764 0.0
H583 H 0.4444 0.35198 0.04852 0.0
H584 H 0.34311 0.34438 0.84749 0.0
H585 H 0.31726 0.31268 0.90977 0.0
H586 H 0.33604 0.30316 0.83487 0.0
H587 H 0.42337 0.41374 0.05646 0.0
H588 H 0.44074 0.39375 0.10928 0.0
H589 H 0.39852 0.38322 0.12198 0.0
C590 C 0.63861 0.93956 0.74219 0.0
C591 C 0.61251 0.9185 0.69606 0.0
C592 C 0.65505 0.97396 0.7335 0.0
C593 C 0.6454 0.98793 0.67704 0.0
C594 C 0.6188 0.96695 0.63092 0.0
C595 C 0.60266 0.93259 0.64105 0.0
C596 C 0.68311 0.99537 0.78425 0.0
C597 C 0.60777 0.98078 0.56992 0.0
C598 C 0.67241 0.07932 0.69124 0.0
C599 C 0.70064 0.09385 0.64712 0.0
C600 C 0.65402 0.04495 0.70089 0.0
C601 C 0.66382 0.02441 0.6651 0.0
C602 C 0.69188 0.03884 0.61937 0.0
C603 C 0.70998 0.07327 0.61123 0.0
C604 C 0.62445 0.03066 0.75056 0.0
C605 C 0.70307 0.01791 0.57966 0.0
H606 H 0.64647 0.92918 0.78513 0.0
H607 H 0.58264 0.91676 0.60486 0.0
H608 H 0.70622 1.00905 0.75263 0.0
H609 H 0.67845 0.01388 0.81111 0.0
H610 H 0.68683 0.98084 0.82712 0.0
H611 H 0.58611 0.96132 0.54014 0.0
H612 H 0.60143 0.99896 0.59194 0.0
H613 H 0.62816 0.99396 0.53051 0.0
H614 H 0.66497 0.09485 0.71958 0.0
H615 H 0.73158 0.08405 0.57669 0.0
H616 H 0.62836 0.01777 0.79677 0.0
H617 H 0.60231 1.01214 0.72059 0.0
H618 H 0.6195 0.04981 0.77289 0.0
H619 H 0.70977 1.00452 0.61967 0.0
H620 H 0.72462 0.03274 0.54399 0.0
H621 H 0.68273 0.99914 0.54567 0.0
C622 C 0.94562 0.63627 0.29318 0.0
C623 C 0.92435 0.60476 0.32122 0.0
C624 C 0.97986 0.65171 0.30359 0.0
C625 C 0.9934 0.63555 0.34386 0.0
C626 C 0.97212 0.60364 0.37185 0.0
C627 C 0.93795 0.58858 0.35988 0.0
C628 C 1.00157 0.68556 0.27204 0.0
C629 C 0.98541 0.58564 0.41571 0.0
C630 C 0.08523 0.66651 0.32129 0.0
C631 C 0.09892 0.68822 0.38077 0.0
C632 C 0.051 0.64887 0.30917 0.0
C633 C 0.02969 0.65253 0.35821 0.0
C634 C 0.04322 0.67352 0.41963 0.0
C635 C 0.07754 0.69118 0.4299 0.0
C636 C 0.03771 0.62701 0.24267 0.0
C637 C 0.02146 0.67786 0.47389 0.0
H638 H 0.93552 0.64901 0.26295 0.0
H639 H 0.92182 0.56435 0.38225 0.0
H640 H 1.01454 0.70349 0.31668 0.0
H641 H 0.02063 0.68542 0.2365 0.0
H642 H 0.98743 0.69428 0.23962 0.0
H643 H 0.96579 0.5607 0.43233 0.0
H644 H 1.00409 0.58318 0.38354 0.0
H645 H 0.99784 0.60002 0.46551 0.0
H646 H 0.1013 0.66383 0.28291 0.0
H647 H 0.0876 0.7076 0.4764 0.0
H648 H 0.02527 0.63632 0.20638 0.0
H649 H 1.01905 0.60167 0.25899 0.0
H650 H 0.05734 0.62589 0.21113 0.0
H651 H 1.00857 0.68931 0.44665 0.0
H652 H 0.03557 0.69356 0.52098 0.0
H653 H 1.00234 0.65354 0.49471 0.0
C654 C 0.29163 0.45971 0.40001 0.0
C655 C 0.26755 0.43397 0.35767 0.0
C656 C 0.29074 0.45833 0.47647 0.0
C657 C 0.26535 0.43031 0.51183 0.0
C658 C 0.24098 0.40414 0.46951 0.0
C659 C 0.24225 0.40637 0.39287 0.0
C660 C 0.31704 0.48696 0.51945 0.0
C661 C 0.21377 0.37372 0.5052 0.0
C662 C 0.28841 0.42076 0.70486 0.0
C663 C 0.274 0.4355 0.74597 0.0
C664 C 0.28398 0.41691 0.62898 0.0
C665 C 0.26506 0.42852 0.5931 0.0
C666 C 0.24889 0.4417 0.63484 0.0
C667 C 0.25338 0.44483 0.71093 0.0
C668 C 0.30118 0.40219 0.5868 0.0
C669 C 0.22869 0.45458 0.59871 0.0
H670 H 0.31114 0.48125 0.37341 0.0
H671 H 0.22355 0.38637 0.36054 0.0
H672 H 0.30555 0.49671 0.55753 0.0
H673 H 0.33116 0.47859 0.55286 0.0
H674 H 0.3345 0.50734 0.48374 0.0
H675 H 0.19655 0.35565 0.46468 0.0
H676 H 0.22444 0.36163 0.53851 0.0
H677 H 0.19962 0.38058 0.54273 0.0
H678 H 0.30415 0.41322 0.7317 0.0
H679 H 0.24224 0.45634 0.74229 0.0
H680 H 0.32166 0.42175 0.55481 0.0
H681 H 0.28399 0.38339 0.54756 0.0
H682 H 0.31142 0.39062 0.62323 0.0
H683 H 0.24519 0.47725 0.56778 0.0
H684 H 0.21473 0.46054 0.63897 0.0
H685 H 0.21112 0.43632 0.55913 0.0
C686 C 0.55565 0.77012 0.36599 0.0
C687 C 0.56983 0.79617 0.41639 0.0
C688 C 0.56127 0.77583 0.2908 0.0
C689 C 0.58176 0.80835 0.26536 0.0
C690 C 0.59778 0.83445 0.31621 0.0
C691 C 0.59157 0.82807 0.39112 0.0
C692 C 0.54373 0.74731 0.23839 0.0
C693 C 0.62009 0.86941 0.29136 0.0
C694 C 0.60814 0.81887 0.06612 0.0
C695 C 0.58493 0.82533 0.03339 0.0
C696 C 0.60796 0.814 0.14185 0.0
C697 C 0.58384 0.81538 0.1857 0.0
C698 C 0.56075 0.82248 0.15308 0.0
C699 C 0.56166 0.82748 0.0775 0.0
C700 C 0.63316 0.80679 0.17472 0.0
C701 C 0.53453 0.82404 0.19782 0.0
H702 H 0.53892 0.74538 0.3849 0.0
H703 H 0.60282 0.84835 0.42962 0.0
H704 H 0.52516 0.75024 0.20695 0.0
H705 H 0.56135 0.74694 0.1986 0.0
H706 H 0.53104 0.72322 0.26689 0.0
H707 H 0.63359 0.88617 0.33755 0.0
H708 H 0.6382 0.8704 0.25108 0.0
H709 H 0.60527 0.87869 0.26387 0.0
H710 H 0.62627 0.81723 0.03249 0.0
H711 H 0.5436 0.83242 0.05279 0.0
H712 H 0.62067 0.78173 0.19864 0.0
H713 H 0.6465 0.82439 0.21966 0.0
H714 H 0.65134 0.8083 0.13385 0.0
H715 H 0.51852 0.79986 0.22398 0.0
H716 H 0.51886 0.83054 0.1644 0.0
H717 H 0.54603 0.84254 0.24211 0.0
C718 C 0.17854 0.72402 0.76123 0.0
C719 C 0.1839 0.75084 0.71791 0.0
C720 C 0.17828 0.72586 0.83757 0.0
C721 C 0.18331 0.75519 0.87161 0.0
C722 C 0.18845 0.78229 0.82829 0.0
C723 C 0.18876 0.77983 0.75187 0.0
C724 C 0.17283 0.69642 0.88184 0.0
C725 C 0.1937 0.81387 0.86266 0.0
C726 C 0.15252 0.74181 0.06658 0.0
C727 C 0.18133 0.75011 0.10571 0.0
C728 C 0.15315 0.74542 0.99052 0.0
C729 C 0.18323 0.75715 0.95266 0.0
C730 C 0.2127 0.76744 0.99234 0.0
C731 C 0.21142 0.76402 0.06855 0.0
C732 C 0.1213 0.73478 0.95035 0.0
C733 C 0.24524 0.77989 0.95397 0.0
H734 H 0.17481 0.70156 0.73552 0.0
H735 H 0.1929 0.80067 0.71878 0.0
H736 H 0.19409 0.70345 0.91869 0.0
H737 H 0.15071 0.68788 0.91663 0.0
H738 H 0.16951 0.67554 0.84699 0.0
H739 H 0.19692 0.83252 0.82131 0.0
H740 H 0.17242 0.80876 0.89778 0.0
H741 H 0.21579 0.82449 0.89823 0.0
H742 H 0.12922 0.73132 0.0951 0.0
H743 H 0.23378 0.77043 0.09837 0.0
H744 H 0.11415 0.7117 0.91976 0.0
H745 H 0.12436 0.7537 0.91002 0.0
H746 H 0.10095 0.73031 0.98801 0.0
H747 H 0.24508 0.75934 0.92342 0.0
H748 H 0.26626 0.79018 0.99275 0.0
H749 H 0.2492 0.79916 0.91376 0.0
C750 C 0.48291 0.27223 0.59713 0.0
C751 C 0.45434 0.25174 0.63712 0.0
C752 C 0.48252 0.27315 0.52028 0.0
C753 C 0.4529 0.25294 0.48166 0.0
C754 C 0.42418 0.23149 0.52157 0.0
C755 C 0.42521 0.23124 0.59855 0.0
C756 C 0.5137 0.29661 0.48048 0.0
C757 C 0.39213 0.20934 0.48297 0.0
C758 C 0.44582 0.28604 0.29692 0.0
C759 C 0.45499 0.26902 0.24762 0.0
C760 C 0.44408 0.28026 0.37242 0.0
C761 C 0.45147 0.25658 0.4004 0.0
C762 C 0.45922 0.23809 0.35081 0.0
C763 C 0.46096 0.24456 0.27504 0.0
C764 C 0.4357 0.30063 0.42257 0.0
C765 C 0.46689 0.21235 0.37805 0.0
H766 H 0.50562 0.28811 0.62595 0.0
H767 H 0.40302 0.2151 0.62854 0.0
H768 H 0.51939 0.28319 0.43827 0.0
H769 H 0.51027 0.31554 0.45206 0.0
H770 H 0.53513 0.30926 0.51785 0.0
H771 H 0.3728 0.19203 0.52098 0.0
H772 H 0.38315 0.22451 0.45593 0.0
H773 H 0.39582 0.1949 0.43973 0.0
H774 H 0.44091 0.30486 0.27669 0.0
H775 H 0.46818 0.23133 0.23773 0.0
H776 H 0.45709 0.31626 0.45811 0.0
H777 H 0.41492 0.28439 0.45869 0.0
H778 H 0.42896 0.31686 0.39213 0.0
H779 H 0.49034 0.22445 0.40907 0.0
H780 H 0.4692 0.19785 0.33274 0.0
H781 H 0.44741 0.19526 0.41592 0.0
C782 C 0.73416 0.1786 0.27731 0.0
C783 C 0.75981 0.17961 0.31868 0.0
C784 C 0.7344 0.17766 0.20069 0.0
C785 C 0.76084 0.17748 0.16389 0.0
C786 C 0.78681 0.17838 0.20519 0.0
C787 C 0.78606 0.17955 0.28203 0.0
C788 C 0.70626 0.17692 0.15906 0.0
C789 C 0.81533 0.178 0.16817 0.0
C790 C 0.73989 0.14385 0.96999 0.0
C791 C 0.75215 0.17278 0.92864 0.0
C792 C 0.74414 0.14503 0.04613 0.0
C793 C 0.76074 0.1759 0.08226 0.0
C794 C 0.77455 0.20519 0.04044 0.0
C795 C 0.77026 0.20328 0.96416 0.0
C796 C 0.72941 0.11318 0.08825 0.0
C797 C 0.79226 0.23862 0.07662 0.0
H798 H 0.71381 0.17878 0.30481 0.0
H799 H 0.80601 0.18035 0.31337 0.0
H800 H 0.71577 0.19813 0.12116 0.0
H801 H 0.69366 0.15416 0.12553 0.0
H802 H 0.68786 0.17779 0.19569 0.0
H803 H 0.83364 0.17889 0.20787 0.0
H804 H 0.80621 0.15539 0.13445 0.0
H805 H 0.82786 0.19932 0.13082 0.0
H806 H 0.72604 0.12015 0.94309 0.0
H807 H 0.77974 0.22578 0.93286 0.0
H808 H 0.70842 0.11051 0.12133 0.0
H809 H 0.74779 0.11335 0.12656 0.0
H810 H 0.72044 0.09138 0.05179 0.0
H811 H 0.77447 0.24249 0.10887 0.0
H812 H 0.8043 0.25888 0.03636 0.0
H813 H 0.81119 0.24008 0.11507 0.0
C814 C 0.81722 0.56838 0.63593 0.0
C815 C 0.8476 0.57999 0.6008 0.0
C816 C 0.81534 0.5706 0.71229 0.0
C817 C 0.84455 0.585 0.75466 0.0
C818 C 0.87536 0.59842 0.71901 0.0
C819 C 0.8765 0.59566 0.64276 0.0
C820 C 0.78198 0.55591 0.74792 0.0
C821 C 0.90713 0.6143 0.76175 0.0
C822 C 0.84183 0.6069 0.95486 0.0
C823 C 0.84051 0.5799 0.991 0.0
C824 C 0.8431 0.60897 0.87807 0.0
C825 C 0.84285 0.58335 0.83626 0.0
C826 C 0.8414 0.55602 0.87254 0.0
C827 C 0.84036 0.55469 0.94915 0.0
C828 C 0.84481 0.6386 0.84163 0.0
C829 C 0.84091 0.52805 0.83035 0.0
H830 H 0.79473 0.55618 0.6042 0.0
H831 H 0.90012 0.6049 0.61624 0.0
H832 H 0.77723 0.53384 0.77966 0.0
H833 H 0.78125 0.57373 0.78674 0.0
H834 H 0.76189 0.5485 0.70735 0.0
H835 H 0.92904 0.62647 0.72574 0.0
H836 H 0.90777 0.63286 0.80042 0.0
H837 H 0.90881 0.59532 0.79448 0.0
H838 H 0.84192 0.62649 0.98656 0.0
H839 H 0.8392 0.53362 0.97624 0.0
H840 H 0.82365 0.63066 0.80398 0.0
H841 H 0.86751 0.65144 0.80834 0.0
H842 H 0.84467 0.65636 0.88168 0.0
H843 H 0.81969 0.51711 0.79223 0.0
H844 H 0.83921 0.50831 0.8666 0.0
H845 H 0.86356 0.53744 0.79702 0.0
loop_
_geom_bond_atom_site_label_1
_geom_bond_atom_site_label_2
_geom_bond_distance
_geom_bond_site_symmetry_2
_ccdc_geom_bond_type
O0 Tb1 2.292 . S
O0 C3 1.255 . S
Tb1 O0 2.292 . S
Tb1 O17 2.326 1_556 S
Tb1 O19 2.500 . S
Tb1 O20 2.473 1_556 S
Tb1 O23 2.324 1_556 S
Eu2 O6 2.292 . S
Eu2 C7 2.852 . S
Eu2 O18 2.324 . S
Eu2 O22 2.326 . S
Eu2 O24 2.500 . S
Eu2 O25 2.473 . S
C3 O0 1.255 . S
C3 O4 1.247 . S
O4 C3 1.247 . S
C5 O17 1.242 . S
C5 O18 1.258 . S
O6 Eu2 2.292 . S
O6 C8 1.255 . S
C7 Eu2 2.852 . S
C7 C11 1.503 . S
C7 O24 1.273 . S
C7 O25 1.257 . S
C8 O6 1.255 . S
C8 O9 1.247 . S
O9 C8 1.247 . S
C10 O22 1.242 . S
C10 O23 1.258 . S
C11 C7 1.503 . S
C11 C12 1.379 . S
C11 C16 1.392 . S
C12 C11 1.379 . S
C12 C13 1.404 . S
C12 H26 0.929 . S
C13 C12 1.404 . S
C13 C14 1.389 . S
C14 C13 1.389 . S
C14 C15 1.399 . S
C14 H27 0.931 . S
C15 C14 1.399 . S
C15 C16 1.390 . S
C16 C11 1.392 . S
C16 C15 1.390 . S
C16 H28 0.929 . S
O17 Tb1 2.326 1_554 S
O17 C5 1.242 . S
O18 Eu2 2.324 . S
O18 C5 1.258 . S
O19 Tb1 2.500 . S
O19 C21 1.273 1_556 S
O20 Tb1 2.473 1_554 S
O20 C21 1.257 . S
C21 O19 1.273 1_554 S
C21 O20 1.257 . S
O22 Eu2 2.326 . S
O22 C10 1.242 . S
O23 Tb1 2.324 1_554 S
O23 C10 1.258 . S
O24 Eu2 2.500 . S
O24 C7 1.273 . S
O25 Eu2 2.473 . S
O25 C7 1.257 . S
H26 C12 0.929 . S
H27 C14 0.931 . S
H28 C16 0.929 . S
O29 Tb30 2.292 . S
O29 C32 1.255 . S
Tb30 O29 2.292 . S
Tb30 O46 2.326 . S
Tb30 O48 2.500 . S
Tb30 O49 2.473 . S
Tb30 O52 2.324 . S
Eu31 O35 2.292 . S
Eu31 C36 2.852 . S
Eu31 O47 2.324 . S
Eu31 O51 2.326 . S
Eu31 O53 2.500 . S
Eu31 O54 2.473 . S
C32 O29 1.255 . S
C32 O33 1.247 . S
O33 C32 1.247 . S
C34 O46 1.242 . S
C34 O47 1.258 . S
O35 Eu31 2.292 . S
O35 C37 1.255 1_556 S
C36 Eu31 2.852 . S
C36 C40 1.503 . S
C36 O53 1.273 . S
C36 O54 1.257 . S
C37 O35 1.255 1_554 S
C37 O38 1.247 1_554 S
O38 C37 1.247 1_556 S
C39 O51 1.242 . S
C39 O52 1.258 . S
C40 C36 1.503 . S
C40 C41 1.379 . S
C40 C45 1.392 . S
C41 C40 1.379 . S
C41 C42 1.404 . S
C41 H55 0.929 . S
C42 C41 1.404 . S
C42 C43 1.389 . S
C43 C42 1.389 . S
C43 C44 1.399 . S
C43 H56 0.931 . S
C44 C43 1.399 . S
C44 C45 1.390 . S
C45 C40 1.392 . S
C45 C44 1.390 . S
C45 H57 0.929 . S
O46 Tb30 2.326 . S
O46 C34 1.242 . S
O47 Eu31 2.324 . S
O47 C34 1.258 . S
O48 Tb30 2.500 . S
O48 C50 1.273 . S
O49 Tb30 2.473 . S
O49 C50 1.257 . S
C50 O48 1.273 . S
C50 O49 1.257 . S
O51 Eu31 2.326 . S
O51 C39 1.242 . S
O52 Tb30 2.324 . S
O52 C39 1.258 . S
O53 Eu31 2.500 . S
O53 C36 1.273 . S
O54 Eu31 2.473 . S
O54 C36 1.257 . S
H55 C41 0.929 . S
H56 C43 0.931 . S
H57 C45 0.929 . S
O58 Tb59 2.292 . S
O58 C61 1.255 . S
Tb59 O58 2.292 . S
Tb59 O75 2.326 . S
Tb59 O77 2.500 . S
Tb59 O78 2.473 . S
Tb59 O81 2.324 . S
Eu60 O64 2.292 . S
Eu60 C65 2.852 . S
Eu60 O76 2.324 . S
Eu60 O80 2.326 . S
Eu60 O82 2.500 . S
Eu60 O83 2.473 . S
C61 O58 1.255 . S
C61 O62 1.247 . S
O62 C61 1.247 . S
C63 O75 1.242 . S
C63 O76 1.258 . S
O64 Eu60 2.292 . S
O64 C66 1.255 . S
C65 Eu60 2.852 . S
C65 C69 1.503 . S
C65 O82 1.273 . S
C65 O83 1.257 . S
C66 O64 1.255 . S
C66 O67 1.247 . S
O67 C66 1.247 . S
C68 O80 1.242 . S
C68 O81 1.258 . S
C69 C65 1.503 . S
C69 C70 1.379 . S
C69 C74 1.392 . S
C70 C69 1.379 . S
C70 C71 1.404 . S
C70 H84 0.929 . S
C71 C70 1.404 . S
C71 C72 1.389 . S
C72 C71 1.389 . S
C72 C73 1.399 . S
C72 H85 0.931 . S
C73 C72 1.399 . S
C73 C74 1.390 . S
C74 C69 1.392 . S
C74 C73 1.390 . S
C74 H86 0.929 . S
O75 Tb59 2.326 . S
O75 C63 1.242 . S
O76 Eu60 2.324 . S
O76 C63 1.258 . S
O77 Tb59 2.500 . S
O77 C79 1.273 . S
O78 Tb59 2.473 . S
O78 C79 1.257 . S
C79 O77 1.273 . S
C79 O78 1.257 . S
O80 Eu60 2.326 . S
O80 C68 1.242 . S
O81 Tb59 2.324 . S
O81 C68 1.258 . S
O82 Eu60 2.500 . S
O82 C65 1.273 . S
O83 Eu60 2.473 . S
O83 C65 1.257 . S
H84 C70 0.929 . S
H85 C72 0.931 . S
H86 C74 0.929 . S
O87 Tb88 2.292 . S
O87 C90 1.255 . S
Tb88 O87 2.292 . S
Tb88 O104 2.326 1_554 S
Tb88 O106 2.500 . S
Tb88 O107 2.473 1_554 S
Tb88 O110 2.324 1_554 S
Eu89 O93 2.292 . S
Eu89 C94 2.852 . S
Eu89 O105 2.324 . S
Eu89 O109 2.326 . S
Eu89 O111 2.500 . S
Eu89 O112 2.473 . S
C90 O87 1.255 . S
C90 O91 1.247 . S
O91 C90 1.247 . S
C92 O104 1.242 . S
C92 O105 1.258 . S
O93 Eu89 2.292 . S
O93 C95 1.255 . S
C94 Eu89 2.852 . S
C94 C98 1.503 . S
C94 O111 1.273 . S
C94 O112 1.257 . S
C95 O93 1.255 . S
C95 O96 1.247 . S
O96 C95 1.247 . S
C97 O109 1.242 . S
C97 O110 1.258 . S
C98 C94 1.503 . S
C98 C99 1.379 . S
C98 C103 1.392 . S
C99 C98 1.379 . S
C99 C100 1.404 . S
C99 H113 0.929 . S
C100 C99 1.404 . S
C100 C101 1.389 . S
C101 C100 1.389 . S
C101 C102 1.399 . S
C101 H114 0.931 . S
C102 C101 1.399 . S
C102 C103 1.390 . S
C103 C98 1.392 . S
C103 C102 1.390 . S
C103 H115 0.929 . S
O104 Tb88 2.326 1_556 S
O104 C92 1.242 . S
O105 Eu89 2.324 . S
O105 C92 1.258 . S
O106 Tb88 2.500 . S
O106 C108 1.273 1_554 S
O107 Tb88 2.473 1_556 S
O107 C108 1.257 . S
C108 O106 1.273 1_556 S
C108 O107 1.257 . S
O109 Eu89 2.326 . S
O109 C97 1.242 . S
O110 Tb88 2.324 1_556 S
O110 C97 1.258 . S
O111 Eu89 2.500 . S
O111 C94 1.273 . S
O112 Eu89 2.473 . S
O112 C94 1.257 . S
H113 C99 0.929 . S
H114 C101 0.931 . S
H115 C103 0.929 . S
O116 Tb117 2.292 . S
O116 C119 1.255 . S
Tb117 O116 2.292 . S
Tb117 O133 2.326 . S
Tb117 O135 2.500 . S
Tb117 O136 2.473 . S
Tb117 O139 2.324 . S
Eu118 O122 2.292 . S
Eu118 C123 2.852 . S
Eu118 O134 2.324 . S
Eu118 O138 2.326 . S
Eu118 O140 2.500 . S
Eu118 O141 2.473 . S
C119 O116 1.255 . S
C119 O120 1.247 . S
O120 C119 1.247 . S
C121 O133 1.242 . S
C121 O134 1.258 . S
O122 Eu118 2.292 . S
O122 C124 1.255 . S
C123 Eu118 2.852 . S
C123 C127 1.503 . S
C123 O140 1.273 . S
C123 O141 1.257 . S
C124 O122 1.255 . S
C124 O125 1.247 . S
O125 C124 1.247 . S
C126 O138 1.242 . S
C126 O139 1.258 . S
C127 C123 1.503 . S
C127 C128 1.379 . S
C127 C132 1.392 . S
C128 C127 1.379 . S
C128 C129 1.404 . S
C128 H142 0.929 . S
C129 C128 1.404 . S
C129 C130 1.389 . S
C130 C129 1.389 . S
C130 C131 1.399 . S
C130 H143 0.931 . S
C131 C130 1.399 . S
C131 C132 1.390 . S
C132 C127 1.392 . S
C132 C131 1.390 . S
C132 H144 0.929 . S
O133 Tb117 2.326 . S
O133 C121 1.242 . S
O134 Eu118 2.324 . S
O134 C121 1.258 . S
O135 Tb117 2.500 . S
O135 C137 1.273 . S
O136 Tb117 2.473 . S
O136 C137 1.257 . S
C137 O135 1.273 . S
C137 O136 1.257 . S
O138 Eu118 2.326 . S
O138 C126 1.242 . S
O139 Tb117 2.324 . S
O139 C126 1.258 . S
O140 Eu118 2.500 . S
O140 C123 1.273 . S
O141 Eu118 2.473 . S
O141 C123 1.257 . S
H142 C128 0.929 . S
H143 C130 0.931 . S
H144 C132 0.929 . S
O145 Tb146 2.292 . S
O145 C148 1.255 . S
Tb146 O145 2.292 . S
Tb146 O162 2.326 . S
Tb146 O164 2.500 . S
Tb146 O165 2.473 . S
Tb146 O168 2.324 . S
Eu147 O151 2.292 . S
Eu147 C152 2.852 . S
Eu147 O163 2.324 . S
Eu147 O167 2.326 . S
Eu147 O169 2.500 . S
Eu147 O170 2.473 . S
C148 O145 1.255 . S
C148 O149 1.247 . S
O149 C148 1.247 . S
C150 O162 1.242 . S
C150 O163 1.258 . S
O151 Eu147 2.292 . S
O151 C153 1.255 1_554 S
C152 Eu147 2.852 . S
C152 C156 1.503 . S
C152 O169 1.273 . S
C152 O170 1.257 . S
C153 O151 1.255 1_556 S
C153 O154 1.247 1_556 S
O154 C153 1.247 1_554 S
C155 O167 1.242 . S
C155 O168 1.258 . S
C156 C152 1.503 . S
C156 C157 1.379 . S
C156 C161 1.392 . S
C157 C156 1.379 . S
C157 C158 1.404 . S
C157 H171 0.929 . S
C158 C157 1.404 . S
C158 C159 1.389 . S
C159 C158 1.389 . S
C159 C160 1.399 . S
C159 H172 0.931 . S
C160 C159 1.399 . S
C160 C161 1.390 . S
C161 C156 1.392 . S
C161 C160 1.390 . S
C161 H173 0.929 . S
O162 Tb146 2.326 . S
O162 C150 1.242 . S
O163 Eu147 2.324 . S
O163 C150 1.258 . S
O164 Tb146 2.500 . S
O164 C166 1.273 . S
O165 Tb146 2.473 . S
O165 C166 1.257 . S
C166 O164 1.273 . S
C166 O165 1.257 . S
O167 Eu147 2.326 . S
O167 C155 1.242 . S
O168 Tb146 2.324 . S
O168 C155 1.258 . S
O169 Eu147 2.500 . S
O169 C152 1.273 . S
O170 Eu147 2.473 . S
O170 C152 1.257 . S
H171 C157 0.929 . S
H172 C159 0.931 . S
H173 C161 0.929 . S
C174 C175 1.391 . S
C174 C176 1.394 . S
C174 H190 0.931 . S
C175 C174 1.391 . S
C175 C179 1.376 . S
C176 C174 1.394 . S
C176 C177 1.369 . S
C176 C180 1.531 . S
C177 C176 1.369 . S
C177 C178 1.410 . S
C177 C185 1.503 1_455 S
C178 C177 1.410 . S
C178 C179 1.392 . S
C178 C181 1.511 1_455 S
C179 C175 1.376 . S
C179 C178 1.392 . S
C179 H191 0.929 1_556 S
C180 C176 1.531 . S
C180 H192 0.960 . S
C180 H193 0.962 . S
C180 H194 0.960 . S
C181 C178 1.511 1_655 S
C181 H195 0.961 . S
C181 H196 0.961 . S
C181 H197 0.961 . S
C182 C183 1.370 . S
C182 C184 1.363 . S
C182 H198 0.931 . S
C183 C182 1.370 . S
C183 C187 1.408 . S
C184 C182 1.363 . S
C184 C185 1.370 . S
C184 C188 1.524 1_655 S
C185 C177 1.503 1_655 S
C185 C184 1.370 . S
C185 C186 1.403 . S
C186 C185 1.403 . S
C186 C187 1.404 . S
C186 C189 1.539 . S
C187 C183 1.408 . S
C187 C186 1.404 . S
C187 H199 0.930 . S
C188 C184 1.524 1_455 S
C188 H200 0.956 . S
C188 H201 0.961 . S
C188 H202 0.961 . S
C189 C186 1.539 . S
C189 H203 0.958 . S
C189 H204 0.961 . S
C189 H205 0.960 . S
H190 C174 0.931 . S
H191 C179 0.929 1_554 S
H192 C180 0.960 . S
H193 C180 0.962 . S
H194 C180 0.960 . S
H195 C181 0.961 . S
H196 C181 0.961 . S
H197 C181 0.961 . S
H198 C182 0.931 . S
H199 C187 0.930 . S
H200 C188 0.956 . S
H201 C188 0.961 . S
H202 C188 0.961 . S
H203 C189 0.958 . S
H204 C189 0.961 . S
H205 C189 0.960 . S
C206 C207 1.391 . S
C206 C208 1.394 . S
C206 H222 0.931 . S
C207 C206 1.391 . S
C207 C211 1.376 . S
C208 C206 1.394 . S
C208 C209 1.369 . S
C208 C212 1.531 . S
C209 C208 1.369 . S
C209 C210 1.410 . S
C209 C217 1.503 . S
C210 C209 1.410 . S
C210 C211 1.392 . S
C210 C213 1.511 . S
C211 C207 1.376 . S
C211 C210 1.392 . S
C211 H223 0.929 . S
C212 C208 1.531 . S
C212 H224 0.960 . S
C212 H225 0.962 . S
C212 H226 0.960 . S
C213 C210 1.511 . S
C213 H227 0.961 . S
C213 H228 0.961 . S
C213 H229 0.961 . S
C214 C215 1.370 . S
C214 C216 1.363 . S
C214 H230 0.931 . S
C215 C214 1.370 . S
C215 C219 1.408 . S
C216 C214 1.363 . S
C216 C217 1.370 . S
C216 C220 1.524 . S
C217 C209 1.503 . S
C217 C216 1.370 . S
C217 C218 1.403 . S
C218 C217 1.403 . S
C218 C219 1.404 . S
C218 C221 1.539 . S
C219 C215 1.408 . S
C219 C218 1.404 . S
C219 H231 0.930 . S
C220 C216 1.524 . S
C220 H232 0.956 . S
C220 H233 0.961 . S
C220 H234 0.961 . S
C221 C218 1.539 . S
C221 H235 0.958 . S
C221 H236 0.961 . S
C221 H237 0.960 . S
H222 C206 0.931 . S
H223 C211 0.929 . S
H224 C212 0.960 . S
H225 C212 0.962 . S
H226 C212 0.960 . S
H227 C213 0.961 . S
H228 C213 0.961 . S
H229 C213 0.961 . S
H230 C214 0.931 . S
H231 C219 0.930 . S
H232 C220 0.956 . S
H233 C220 0.961 . S
H234 C220 0.961 . S
H235 C221 0.958 . S
H236 C221 0.961 . S
H237 C221 0.960 . S
C238 C239 1.391 . S
C238 C240 1.394 . S
C238 H254 0.931 . S
C239 C238 1.391 . S
C239 C243 1.376 . S
C240 C238 1.394 . S
C240 C241 1.369 . S
C240 C244 1.531 . S
C241 C240 1.369 . S
C241 C242 1.410 . S
C241 C249 1.503 1_565 S
C242 C241 1.410 . S
C242 C243 1.392 . S
C242 C245 1.511 . S
C243 C239 1.376 . S
C243 C242 1.392 . S
C243 H255 0.929 . S
C244 C240 1.531 . S
C244 H256 0.960 . S
C244 H257 0.962 . S
C244 H258 0.960 . S
C245 C242 1.511 . S
C245 H259 0.961 . S
C245 H260 0.961 1_565 S
C245 H261 0.961 . S
C246 C247 1.370 . S
C246 C248 1.363 . S
C246 H262 0.931 . S
C247 C246 1.370 . S
C247 C251 1.408 . S
C248 C246 1.363 . S
C248 C249 1.370 . S
C248 C252 1.524 . S
C249 C241 1.503 1_545 S
C249 C248 1.370 . S
C249 C250 1.403 . S
C250 C249 1.403 . S
C250 C251 1.404 . S
C250 C253 1.539 1_545 S
C251 C247 1.408 . S
C251 C250 1.404 . S
C251 H263 0.930 1_554 S
C252 C248 1.524 . S
C252 H264 0.956 . S
C252 H265 0.961 . S
C252 H266 0.961 . S
C253 C250 1.539 1_565 S
C253 H267 0.958 . S
C253 H268 0.961 1_554 S
C253 H269 0.960 . S
H254 C238 0.931 . S
H255 C243 0.929 . S
H256 C244 0.960 . S
H257 C244 0.962 . S
H258 C244 0.960 . S
H259 C245 0.961 . S
H260 C245 0.961 1_545 S
H261 C245 0.961 . S
H262 C246 0.931 . S
H263 C251 0.930 1_556 S
H264 C252 0.956 . S
H265 C252 0.961 . S
H266 C252 0.961 . S
H267 C253 0.958 . S
H268 C253 0.961 1_556 S
H269 C253 0.960 . S
C270 C271 1.391 . S
C270 C272 1.394 . S
C270 H286 0.931 . S
C271 C270 1.391 . S
C271 C275 1.376 . S
C272 C270 1.394 . S
C272 C273 1.369 . S
C272 C276 1.531 . S
C273 C272 1.369 . S
C273 C274 1.410 . S
C273 C281 1.503 . S
C274 C273 1.410 . S
C274 C275 1.392 . S
C274 C277 1.511 . S
C275 C271 1.376 . S
C275 C274 1.392 . S
C275 H287 0.929 . S
C276 C272 1.531 . S
C276 H288 0.960 . S
C276 H289 0.962 . S
C276 H290 0.960 . S
C277 C274 1.511 . S
C277 H291 0.961 . S
C277 H292 0.961 . S
C277 H293 0.961 . S
C278 C279 1.370 . S
C278 C280 1.363 . S
C278 H294 0.931 . S
C279 C278 1.370 . S
C279 C283 1.408 . S
C280 C278 1.363 . S
C280 C281 1.370 . S
C280 C284 1.524 . S
C281 C273 1.503 . S
C281 C280 1.370 . S
C281 C282 1.403 . S
C282 C281 1.403 . S
C282 C283 1.404 . S
C282 C285 1.539 . S
C283 C279 1.408 . S
C283 C282 1.404 . S
C283 H295 0.930 . S
C284 C280 1.524 . S
C284 H296 0.956 . S
C284 H297 0.961 . S
C284 H298 0.961 . S
C285 C282 1.539 . S
C285 H299 0.958 . S
C285 H300 0.961 . S
C285 H301 0.960 . S
H286 C270 0.931 . S
H287 C275 0.929 . S
H288 C276 0.960 . S
H289 C276 0.962 . S
H290 C276 0.960 . S
H291 C277 0.961 . S
H292 C277 0.961 . S
H293 C277 0.961 . S
H294 C278 0.931 . S
H295 C283 0.930 . S
H296 C284 0.956 . S
H297 C284 0.961 . S
H298 C284 0.961 . S
H299 C285 0.958 . S
H300 C285 0.961 . S
H301 C285 0.960 . S
C302 C303 1.391 1_556 S
C302 C304 1.394 . S
C302 H318 0.931 . S
C303 C302 1.391 1_554 S
C303 C307 1.376 . S
C304 C302 1.394 . S
C304 C305 1.369 . S
C304 C308 1.531 . S
C305 C304 1.369 . S
C305 C306 1.410 . S
C305 C313 1.503 . S
C306 C305 1.410 . S
C306 C307 1.392 1_556 S
C306 C309 1.511 . S
C307 C303 1.376 . S
C307 C306 1.392 1_554 S
C307 H319 0.929 . S
C308 C304 1.531 . S
C308 H320 0.960 . S
C308 H321 0.962 . S
C308 H322 0.960 . S
C309 C306 1.511 . S
C309 H323 0.961 . S
C309 H324 0.961 . S
C309 H325 0.961 1_556 S
C310 C311 1.370 . S
C310 C312 1.363 . S
C310 H326 0.931 . S
C311 C310 1.370 . S
C311 C315 1.408 . S
C312 C310 1.363 . S
C312 C313 1.370 . S
C312 C316 1.524 . S
C313 C305 1.503 . S
C313 C312 1.370 . S
C313 C314 1.403 . S
C314 C313 1.403 . S
C314 C315 1.404 . S
C314 C317 1.539 1_556 S
C315 C311 1.408 . S
C315 C314 1.404 . S
C315 H327 0.930 . S
C316 C312 1.524 . S
C316 H328 0.956 . S
C316 H329 0.961 . S
C316 H330 0.961 . S
C317 C314 1.539 1_554 S
C317 H331 0.958 . S
C317 H332 0.961 . S
C317 H333 0.960 . S
H318 C302 0.931 . S
H319 C307 0.929 . S
H320 C308 0.960 . S
H321 C308 0.962 . S
H322 C308 0.960 . S
H323 C309 0.961 . S
H324 C309 0.961 . S
H325 C309 0.961 1_554 S
H326 C310 0.931 . S
H327 C315 0.930 . S
H328 C316 0.956 . S
H329 C316 0.961 . S
H330 C316 0.961 . S
H331 C317 0.958 . S
H332 C317 0.961 . S
H333 C317 0.960 . S
C334 C335 1.391 . S
C334 C336 1.394 . S
C334 H350 0.931 . S
C335 C334 1.391 . S
C335 C339 1.376 . S
C336 C334 1.394 . S
C336 C337 1.369 . S
C336 C340 1.531 . S
C337 C336 1.369 . S
C337 C338 1.410 . S
C337 C345 1.503 . S
C338 C337 1.410 . S
C338 C339 1.392 . S
C338 C341 1.511 . S
C339 C335 1.376 . S
C339 C338 1.392 . S
C339 H351 0.929 . S
C340 C336 1.531 . S
C340 H352 0.960 . S
C340 H353 0.962 . S
C340 H354 0.960 . S
C341 C338 1.511 . S
C341 H355 0.961 . S
C341 H356 0.961 . S
C341 H357 0.961 . S
C342 C343 1.370 . S
C342 C344 1.363 . S
C342 H358 0.931 . S
C343 C342 1.370 . S
C343 C347 1.408 . S
C344 C342 1.363 . S
C344 C345 1.370 . S
C344 C348 1.524 . S
C345 C337 1.503 . S
C345 C344 1.370 . S
C345 C346 1.403 . S
C346 C345 1.403 . S
C346 C347 1.404 . S
C346 C349 1.539 . S
C347 C343 1.408 . S
C347 C346 1.404 . S
C347 H359 0.930 . S
C348 C344 1.524 . S
C348 H360 0.956 . S
C348 H361 0.961 . S
C348 H362 0.961 . S
C349 C346 1.539 . S
C349 H363 0.958 . S
C349 H364 0.961 . S
C349 H365 0.960 . S
H350 C334 0.931 . S
H351 C339 0.929 . S
H352 C340 0.960 . S
H353 C340 0.962 . S
H354 C340 0.960 . S
H355 C341 0.961 . S
H356 C341 0.961 . S
H357 C341 0.961 . S
H358 C342 0.931 . S
H359 C347 0.930 . S
H360 C348 0.956 . S
H361 C348 0.961 . S
H362 C348 0.961 . S
H363 C349 0.958 . S
H364 C349 0.961 . S
H365 C349 0.960 . S
C366 C367 1.391 . S
C366 C368 1.394 . S
C366 H382 0.931 . S
C367 C366 1.391 . S
C367 C371 1.376 . S
C368 C366 1.394 . S
C368 C369 1.369 . S
C368 C372 1.531 . S
C369 C368 1.369 . S
C369 C370 1.410 . S
C369 C377 1.503 . S
C370 C369 1.410 . S
C370 C371 1.392 . S
C370 C373 1.511 . S
C371 C367 1.376 . S
C371 C370 1.392 . S
C371 H383 0.929 . S
C372 C368 1.531 . S
C372 H384 0.960 . S
C372 H385 0.962 . S
C372 H386 0.960 . S
C373 C370 1.511 . S
C373 H387 0.961 . S
C373 H388 0.961 . S
C373 H389 0.961 . S
C374 C375 1.370 . S
C374 C376 1.363 . S
C374 H390 0.931 . S
C375 C374 1.370 . S
C375 C379 1.408 . S
C376 C374 1.363 . S
C376 C377 1.370 . S
C376 C380 1.524 . S
C377 C369 1.503 . S
C377 C376 1.370 . S
C377 C378 1.403 . S
C378 C377 1.403 . S
C378 C379 1.404 . S
C378 C381 1.539 . S
C379 C375 1.408 . S
C379 C378 1.404 . S
C379 H391 0.930 . S
C380 C376 1.524 . S
C380 H392 0.956 . S
C380 H393 0.961 . S
C380 H394 0.961 . S
C381 C378 1.539 . S
C381 H395 0.958 . S
C381 H396 0.961 . S
C381 H397 0.960 . S
H382 C366 0.931 . S
H383 C371 0.929 . S
H384 C372 0.960 . S
H385 C372 0.962 . S
H386 C372 0.960 . S
H387 C373 0.961 . S
H388 C373 0.961 . S
H389 C373 0.961 . S
H390 C374 0.931 . S
H391 C379 0.930 . S
H392 C380 0.956 . S
H393 C380 0.961 . S
H394 C380 0.961 . S
H395 C381 0.958 . S
H396 C381 0.961 . S
H397 C381 0.960 . S
C398 C399 1.391 . S
C398 C400 1.394 . S
C398 H414 0.931 . S
C399 C398 1.391 . S
C399 C403 1.376 . S
C400 C398 1.394 . S
C400 C401 1.369 . S
C400 C404 1.531 . S
C401 C400 1.369 . S
C401 C402 1.410 . S
C401 C409 1.503 . S
C402 C401 1.410 . S
C402 C403 1.392 . S
C402 C405 1.511 . S
C403 C399 1.376 . S
C403 C402 1.392 . S
C403 H415 0.929 . S
C404 C400 1.531 . S
C404 H416 0.960 . S
C404 H417 0.962 . S
C404 H418 0.960 . S
C405 C402 1.511 . S
C405 H419 0.961 . S
C405 H420 0.961 . S
C405 H421 0.961 . S
C406 C407 1.370 . S
C406 C408 1.363 . S
C406 H422 0.931 . S
C407 C406 1.370 . S
C407 C411 1.408 . S
C408 C406 1.363 . S
C408 C409 1.370 . S
C408 C412 1.524 . S
C409 C401 1.503 . S
C409 C408 1.370 . S
C409 C410 1.403 . S
C410 C409 1.403 . S
C410 C411 1.404 . S
C410 C413 1.539 . S
C411 C407 1.408 . S
C411 C410 1.404 . S
C411 H423 0.930 . S
C412 C408 1.524 . S
C412 H424 0.956 . S
C412 H425 0.961 . S
C412 H426 0.961 . S
C413 C410 1.539 . S
C413 H427 0.958 . S
C413 H428 0.961 . S
C413 H429 0.960 . S
H414 C398 0.931 . S
H415 C403 0.929 . S
H416 C404 0.960 . S
H417 C404 0.962 . S
H418 C404 0.960 . S
H419 C405 0.961 . S
H420 C405 0.961 . S
H421 C405 0.961 . S
H422 C406 0.931 . S
H423 C411 0.930 . S
H424 C412 0.956 . S
H425 C412 0.961 . S
H426 C412 0.961 . S
H427 C413 0.958 . S
H428 C413 0.961 . S
H429 C413 0.960 . S
C430 C431 1.391 1_556 S
C430 C432 1.394 1_556 S
C430 H446 0.931 . S
C431 C430 1.391 1_554 S
C431 C435 1.376 . S
C432 C430 1.394 1_554 S
C432 C433 1.369 . S
C432 C436 1.531 1_554 S
C433 C432 1.369 . S
C433 C434 1.410 . S
C433 C441 1.503 . S
C434 C433 1.410 . S
C434 C435 1.392 . S
C434 C437 1.511 . S
C435 C431 1.376 . S
C435 C434 1.392 . S
C435 H447 0.929 . S
C436 C432 1.531 1_556 S
C436 H448 0.960 1_556 S
C436 H449 0.962 . S
C436 H450 0.960 . S
C437 C434 1.511 . S
C437 H451 0.961 . S
C437 H452 0.961 . S
C437 H453 0.961 . S
C438 C439 1.370 . S
C438 C440 1.363 . S
C438 H454 0.931 . S
C439 C438 1.370 . S
C439 C443 1.408 . S
C440 C438 1.363 . S
C440 C441 1.370 . S
C440 C444 1.524 . S
C441 C433 1.503 . S
C441 C440 1.370 . S
C441 C442 1.403 . S
C442 C441 1.403 . S
C442 C443 1.404 . S
C442 C445 1.539 . S
C443 C439 1.408 . S
C443 C442 1.404 . S
C443 H455 0.930 . S
C444 C440 1.524 . S
C444 H456 0.956 1_554 S
C444 H457 0.961 . S
C444 H458 0.961 1_554 S
C445 C442 1.539 . S
C445 H459 0.958 . S
C445 H460 0.961 . S
C445 H461 0.960 . S
H446 C430 0.931 . S
H447 C435 0.929 . S
H448 C436 0.960 1_554 S
H449 C436 0.962 . S
H450 C436 0.960 . S
H451 C437 0.961 . S
H452 C437 0.961 . S
H453 C437 0.961 . S
H454 C438 0.931 . S
H455 C443 0.930 . S
H456 C444 0.956 1_556 S
H457 C444 0.961 . S
H458 C444 0.961 1_556 S
H459 C445 0.958 . S
H460 C445 0.961 . S
H461 C445 0.960 . S
C462 C463 1.391 . S
C462 C464 1.394 . S
C462 H478 0.931 . S
C463 C462 1.391 . S
C463 C467 1.376 . S
C464 C462 1.394 . S
C464 C465 1.369 . S
C464 C468 1.531 . S
C465 C464 1.369 . S
C465 C466 1.410 . S
C465 C473 1.503 1_655 S
C466 C465 1.410 . S
C466 C467 1.392 . S
C466 C469 1.511 . S
C467 C463 1.376 . S
C467 C466 1.392 . S
C467 H479 0.929 . S
C468 C464 1.531 . S
C468 H480 0.960 . S
C468 H481 0.962 . S
C468 H482 0.960 . S
C469 C466 1.511 . S
C469 H483 0.961 . S
C469 H484 0.961 1_655 S
C469 H485 0.961 1_655 S
C470 C471 1.370 . S
C470 C472 1.363 . S
C470 H486 0.931 . S
C471 C470 1.370 . S
C471 C475 1.408 . S
C472 C470 1.363 . S
C472 C473 1.370 . S
C472 C476 1.524 1_455 S
C473 C465 1.503 1_455 S
C473 C472 1.370 . S
C473 C474 1.403 . S
C474 C473 1.403 . S
C474 C475 1.404 . S
C474 C477 1.539 . S
C475 C471 1.408 . S
C475 C474 1.404 . S
C475 H487 0.930 . S
C476 C472 1.524 1_655 S
C476 H488 0.956 . S
C476 H489 0.961 . S
C476 H490 0.961 . S
C477 C474 1.539 . S
C477 H491 0.958 . S
C477 H492 0.961 . S
C477 H493 0.960 . S
H478 C462 0.931 . S
H479 C467 0.929 . S
H480 C468 0.960 . S
H481 C468 0.962 . S
H482 C468 0.960 . S
H483 C469 0.961 . S
H484 C469 0.961 1_455 S
H485 C469 0.961 1_455 S
H486 C470 0.931 . S
H487 C475 0.930 . S
H488 C476 0.956 . S
H489 C476 0.961 . S
H490 C476 0.961 . S
H491 C477 0.958 . S
H492 C477 0.961 . S
H493 C477 0.960 . S
C494 C495 1.391 . S
C494 C496 1.394 1_554 S
C494 H510 0.931 . S
C495 C494 1.391 . S
C495 C499 1.376 . S
C496 C494 1.394 1_556 S
C496 C497 1.369 1_556 S
C496 C500 1.531 . S
C497 C496 1.369 1_554 S
C497 C498 1.410 . S
C497 C505 1.503 1_554 S
C498 C497 1.410 . S
C498 C499 1.392 . S
C498 C501 1.511 . S
C499 C495 1.376 . S
C499 C498 1.392 . S
C499 H511 0.929 . S
C500 C496 1.531 . S
C500 H512 0.960 . S
C500 H513 0.962 . S
C500 H514 0.960 . S
C501 C498 1.511 . S
C501 H515 0.961 . S
C501 H516 0.961 . S
C501 H517 0.961 . S
C502 C503 1.370 . S
C502 C504 1.363 . S
C502 H518 0.931 . S
C503 C502 1.370 . S
C503 C507 1.408 . S
C504 C502 1.363 . S
C504 C505 1.370 . S
C504 C508 1.524 . S
C505 C497 1.503 1_556 S
C505 C504 1.370 . S
C505 C506 1.403 . S
C506 C505 1.403 . S
C506 C507 1.404 . S
C506 C509 1.539 . S
C507 C503 1.408 . S
C507 C506 1.404 . S
C507 H519 0.930 . S
C508 C504 1.524 . S
C508 H520 0.956 . S
C508 H521 0.961 1_556 S
C508 H522 0.961 . S
C509 C506 1.539 . S
C509 H523 0.958 . S
C509 H524 0.961 . S
C509 H525 0.960 1_556 S
H510 C494 0.931 . S
H511 C499 0.929 . S
H512 C500 0.960 . S
H513 C500 0.962 . S
H514 C500 0.960 . S
H515 C501 0.961 . S
H516 C501 0.961 . S
H517 C501 0.961 . S
H518 C502 0.931 . S
H519 C507 0.930 . S
H520 C508 0.956 . S
H521 C508 0.961 1_554 S
H522 C508 0.961 . S
H523 C509 0.958 . S
H524 C509 0.961 . S
H525 C509 0.960 1_554 S
C526 C527 1.391 . S
C526 C528 1.394 . S
C526 H542 0.931 . S
C527 C526 1.391 . S
C527 C531 1.376 . S
C528 C526 1.394 . S
C528 C529 1.369 . S
C528 C532 1.531 1_545 S
C529 C528 1.369 . S
C529 C530 1.410 . S
C529 C537 1.503 1_545 S
C530 C529 1.410 . S
C530 C531 1.392 . S
C530 C533 1.511 . S
C531 C527 1.376 . S
C531 C530 1.392 . S
C531 H543 0.929 . S
C532 C528 1.531 1_565 S
C532 H544 0.960 . S
C532 H545 0.962 . S
C532 H546 0.960 . S
C533 C530 1.511 . S
C533 H547 0.961 . S
C533 H548 0.961 . S
C533 H549 0.961 . S
C534 C535 1.370 . S
C534 C536 1.363 . S
C534 H550 0.931 . S
C535 C534 1.370 . S
C535 C539 1.408 . S
C536 C534 1.363 . S
C536 C537 1.370 . S
C536 C540 1.524 1_565 S
C537 C529 1.503 1_565 S
C537 C536 1.370 . S
C537 C538 1.403 . S
C538 C537 1.403 . S
C538 C539 1.404 . S
C538 C541 1.539 . S
C539 C535 1.408 . S
C539 C538 1.404 . S
C539 H551 0.930 . S
C540 C536 1.524 1_545 S
C540 H552 0.956 . S
C540 H553 0.961 . S
C540 H554 0.961 . S
C541 C538 1.539 . S
C541 H555 0.958 . S
C541 H556 0.961 . S
C541 H557 0.960 . S
H542 C526 0.931 . S
H543 C531 0.929 . S
H544 C532 0.960 . S
H545 C532 0.962 . S
H546 C532 0.960 . S
H547 C533 0.961 . S
H548 C533 0.961 . S
H549 C533 0.961 . S
H550 C534 0.931 . S
H551 C539 0.930 . S
H552 C540 0.956 . S
H553 C540 0.961 . S
H554 C540 0.961 . S
H555 C541 0.958 . S
H556 C541 0.961 . S
H557 C541 0.960 . S
C558 C559 1.391 1_556 S
C558 C560 1.394 . S
C558 H574 0.931 . S
C559 C558 1.391 1_554 S
C559 C563 1.376 . S
C560 C558 1.394 . S
C560 C561 1.369 1_556 S
C560 C564 1.531 . S
C561 C560 1.369 1_554 S
C561 C562 1.410 . S
C561 C569 1.503 . S
C562 C561 1.410 . S
C562 C563 1.392 . S
C562 C565 1.511 . S
C563 C559 1.376 . S
C563 C562 1.392 . S
C563 H575 0.929 . S
C564 C560 1.531 . S
C564 H576 0.960 . S
C564 H577 0.962 . S
C564 H578 0.960 . S
C565 C562 1.511 . S
C565 H579 0.961 . S
C565 H580 0.961 . S
C565 H581 0.961 . S
C566 C567 1.370 . S
C566 C568 1.363 . S
C566 H582 0.931 . S
C567 C566 1.370 . S
C567 C571 1.408 1_556 S
C568 C566 1.363 . S
C568 C569 1.370 1_556 S
C568 C572 1.524 . S
C569 C561 1.503 . S
C569 C568 1.370 1_554 S
C569 C570 1.403 . S
C570 C569 1.403 . S
C570 C571 1.404 . S
C570 C573 1.539 . S
C571 C567 1.408 1_554 S
C571 C570 1.404 . S
C571 H583 0.930 . S
C572 C568 1.524 . S
C572 H584 0.956 . S
C572 H585 0.961 . S
C572 H586 0.961 . S
C573 C570 1.539 . S
C573 H587 0.958 . S
C573 H588 0.961 . S
C573 H589 0.960 . S
H574 C558 0.931 . S
H575 C563 0.929 . S
H576 C564 0.960 . S
H577 C564 0.962 . S
H578 C564 0.960 . S
H579 C565 0.961 . S
H580 C565 0.961 . S
H581 C565 0.961 . S
H582 C566 0.931 . S
H583 C571 0.930 . S
H584 C572 0.956 . S
H585 C572 0.961 . S
H586 C572 0.961 . S
H587 C573 0.958 . S
H588 C573 0.961 . S
H589 C573 0.960 . S
C590 C591 1.391 . S
C590 C592 1.394 . S
C590 H606 0.931 . S
C591 C590 1.391 . S
C591 C595 1.376 . S
C592 C590 1.394 . S
C592 C593 1.369 . S
C592 C596 1.531 . S
C593 C592 1.369 . S
C593 C594 1.410 . S
C593 C601 1.503 1_565 S
C594 C593 1.410 . S
C594 C595 1.392 . S
C594 C597 1.511 . S
C595 C591 1.376 . S
C595 C594 1.392 . S
C595 H607 0.929 . S
C596 C592 1.531 . S
C596 H608 0.960 . S
C596 H609 0.962 . S
C596 H610 0.960 . S
C597 C594 1.511 . S
C597 H611 0.961 . S
C597 H612 0.961 . S
C597 H613 0.961 . S
C598 C599 1.370 . S
C598 C600 1.363 . S
C598 H614 0.931 . S
C599 C598 1.370 . S
C599 C603 1.408 . S
C600 C598 1.363 . S
C600 C601 1.370 . S
C600 C604 1.524 . S
C601 C593 1.503 1_545 S
C601 C600 1.370 . S
C601 C602 1.403 . S
C602 C601 1.403 . S
C602 C603 1.404 . S
C602 C605 1.539 . S
C603 C599 1.408 . S
C603 C602 1.404 . S
C603 H615 0.930 . S
C604 C600 1.524 . S
C604 H616 0.956 1_545 S
C604 H617 0.961 1_545 S
C604 H618 0.961 . S
C605 C602 1.539 . S
C605 H619 0.958 . S
C605 H620 0.961 . S
C605 H621 0.960 1_545 S
H606 C590 0.931 . S
H607 C595 0.929 . S
H608 C596 0.960 . S
H609 C596 0.962 . S
H610 C596 0.960 . S
H611 C597 0.961 . S
H612 C597 0.961 . S
H613 C597 0.961 . S
H614 C598 0.931 . S
H615 C603 0.930 . S
H616 C604 0.956 1_565 S
H617 C604 0.961 1_565 S
H618 C604 0.961 . S
H619 C605 0.958 . S
H620 C605 0.961 . S
H621 C605 0.960 1_565 S
C622 C623 1.391 . S
C622 C624 1.394 . S
C622 H638 0.931 . S
C623 C622 1.391 . S
C623 C627 1.376 . S
C624 C622 1.394 . S
C624 C625 1.369 . S
C624 C628 1.531 . S
C625 C624 1.369 . S
C625 C626 1.410 . S
C625 C633 1.503 1_655 S
C626 C625 1.410 . S
C626 C627 1.392 . S
C626 C629 1.511 . S
C627 C623 1.376 . S
C627 C626 1.392 . S
C627 H639 0.929 . S
C628 C624 1.531 . S
C628 H640 0.960 . S
C628 H641 0.962 . S
C628 H642 0.960 . S
C629 C626 1.511 . S
C629 H643 0.961 . S
C629 H644 0.961 . S
C629 H645 0.961 . S
C630 C631 1.370 . S
C630 C632 1.363 . S
C630 H646 0.931 . S
C631 C630 1.370 . S
C631 C635 1.408 . S
C632 C630 1.363 . S
C632 C633 1.370 . S
C632 C636 1.524 . S
C633 C625 1.503 1_455 S
C633 C632 1.370 . S
C633 C634 1.403 . S
C634 C633 1.403 . S
C634 C635 1.404 . S
C634 C637 1.539 . S
C635 C631 1.408 . S
C635 C634 1.404 . S
C635 H647 0.930 . S
C636 C632 1.524 . S
C636 H648 0.956 1_455 S
C636 H649 0.961 1_455 S
C636 H650 0.961 . S
C637 C634 1.539 . S
C637 H651 0.958 . S
C637 H652 0.961 . S
C637 H653 0.960 1_455 S
H638 C622 0.931 . S
H639 C627 0.929 . S
H640 C628 0.960 . S
H641 C628 0.962 . S
H642 C628 0.960 . S
H643 C629 0.961 . S
H644 C629 0.961 . S
H645 C629 0.961 . S
H646 C630 0.931 . S
H647 C635 0.930 . S
H648 C636 0.956 1_655 S
H649 C636 0.961 1_655 S
H650 C636 0.961 . S
H651 C637 0.958 . S
H652 C637 0.961 . S
H653 C637 0.960 1_655 S
C654 C655 1.391 . S
C654 C656 1.394 . S
C654 H670 0.931 . S
C655 C654 1.391 . S
C655 C659 1.376 . S
C656 C654 1.394 . S
C656 C657 1.369 . S
C656 C660 1.531 . S
C657 C656 1.369 . S
C657 C658 1.410 . S
C657 C665 1.503 . S
C658 C657 1.410 . S
C658 C659 1.392 . S
C658 C661 1.511 . S
C659 C655 1.376 . S
C659 C658 1.392 . S
C659 H671 0.929 . S
C660 C656 1.531 . S
C660 H672 0.960 . S
C660 H673 0.962 . S
C660 H674 0.960 . S
C661 C658 1.511 . S
C661 H675 0.961 . S
C661 H676 0.961 . S
C661 H677 0.961 . S
C662 C663 1.370 . S
C662 C664 1.363 . S
C662 H678 0.931 . S
C663 C662 1.370 . S
C663 C667 1.408 . S
C664 C662 1.363 . S
C664 C665 1.370 . S
C664 C668 1.524 . S
C665 C657 1.503 . S
C665 C664 1.370 . S
C665 C666 1.403 . S
C666 C665 1.403 . S
C666 C667 1.404 . S
C666 C669 1.539 . S
C667 C663 1.408 . S
C667 C666 1.404 . S
C667 H679 0.930 . S
C668 C664 1.524 . S
C668 H680 0.956 . S
C668 H681 0.961 . S
C668 H682 0.961 . S
C669 C666 1.539 . S
C669 H683 0.958 . S
C669 H684 0.961 . S
C669 H685 0.960 . S
H670 C654 0.931 . S
H671 C659 0.929 . S
H672 C660 0.960 . S
H673 C660 0.962 . S
H674 C660 0.960 . S
H675 C661 0.961 . S
H676 C661 0.961 . S
H677 C661 0.961 . S
H678 C662 0.931 . S
H679 C667 0.930 . S
H680 C668 0.956 . S
H681 C668 0.961 . S
H682 C668 0.961 . S
H683 C669 0.958 . S
H684 C669 0.961 . S
H685 C669 0.960 . S
C686 C687 1.391 . S
C686 C688 1.394 . S
C686 H702 0.931 . S
C687 C686 1.391 . S
C687 C691 1.376 . S
C688 C686 1.394 . S
C688 C689 1.369 . S
C688 C692 1.531 . S
C689 C688 1.369 . S
C689 C690 1.410 . S
C689 C697 1.503 . S
C690 C689 1.410 . S
C690 C691 1.392 . S
C690 C693 1.511 . S
C691 C687 1.376 . S
C691 C690 1.392 . S
C691 H703 0.929 . S
C692 C688 1.531 . S
C692 H704 0.960 . S
C692 H705 0.962 . S
C692 H706 0.960 . S
C693 C690 1.511 . S
C693 H707 0.961 . S
C693 H708 0.961 . S
C693 H709 0.961 . S
C694 C695 1.370 . S
C694 C696 1.363 . S
C694 H710 0.931 . S
C695 C694 1.370 . S
C695 C699 1.408 . S
C696 C694 1.363 . S
C696 C697 1.370 . S
C696 C700 1.524 . S
C697 C689 1.503 . S
C697 C696 1.370 . S
C697 C698 1.403 . S
C698 C697 1.403 . S
C698 C699 1.404 . S
C698 C701 1.539 . S
C699 C695 1.408 . S
C699 C698 1.404 . S
C699 H711 0.930 . S
C700 C696 1.524 . S
C700 H712 0.956 . S
C700 H713 0.961 . S
C700 H714 0.961 . S
C701 C698 1.539 . S
C701 H715 0.958 . S
C701 H716 0.961 . S
C701 H717 0.960 . S
H702 C686 0.931 . S
H703 C691 0.929 . S
H704 C692 0.960 . S
H705 C692 0.962 . S
H706 C692 0.960 . S
H707 C693 0.961 . S
H708 C693 0.961 . S
H709 C693 0.961 . S
H710 C694 0.931 . S
H711 C699 0.930 . S
H712 C700 0.956 . S
H713 C700 0.961 . S
H714 C700 0.961 . S
H715 C701 0.958 . S
H716 C701 0.961 . S
H717 C701 0.960 . S
C718 C719 1.391 . S
C718 C720 1.394 . S
C718 H734 0.931 . S
C719 C718 1.391 . S
C719 C723 1.376 . S
C720 C718 1.394 . S
C720 C721 1.369 . S
C720 C724 1.531 . S
C721 C720 1.369 . S
C721 C722 1.410 . S
C721 C729 1.503 . S
C722 C721 1.410 . S
C722 C723 1.392 . S
C722 C725 1.511 . S
C723 C719 1.376 . S
C723 C722 1.392 . S
C723 H735 0.929 . S
C724 C720 1.531 . S
C724 H736 0.960 . S
C724 H737 0.962 . S
C724 H738 0.960 . S
C725 C722 1.511 . S
C725 H739 0.961 . S
C725 H740 0.961 . S
C725 H741 0.961 . S
C726 C727 1.370 . S
C726 C728 1.363 1_554 S
C726 H742 0.931 . S
C727 C726 1.370 . S
C727 C731 1.408 . S
C728 C726 1.363 1_556 S
C728 C729 1.370 . S
C728 C732 1.524 . S
C729 C721 1.503 . S
C729 C728 1.370 . S
C729 C730 1.403 1_556 S
C730 C729 1.403 1_554 S
C730 C731 1.404 . S
C730 C733 1.539 1_554 S
C731 C727 1.408 . S
C731 C730 1.404 . S
C731 H743 0.930 . S
C732 C728 1.524 . S
C732 H744 0.956 . S
C732 H745 0.961 . S
C732 H746 0.961 . S
C733 C730 1.539 1_556 S
C733 H747 0.958 . S
C733 H748 0.961 1_556 S
C733 H749 0.960 . S
H734 C718 0.931 . S
H735 C723 0.929 . S
H736 C724 0.960 . S
H737 C724 0.962 . S
H738 C724 0.960 . S
H739 C725 0.961 . S
H740 C725 0.961 . S
H741 C725 0.961 . S
H742 C726 0.931 . S
H743 C731 0.930 . S
H744 C732 0.956 . S
H745 C732 0.961 . S
H746 C732 0.961 . S
H747 C733 0.958 . S
H748 C733 0.961 1_554 S
H749 C733 0.960 . S
C750 C751 1.391 . S
C750 C752 1.394 . S
C750 H766 0.931 . S
C751 C750 1.391 . S
C751 C755 1.376 . S
C752 C750 1.394 . S
C752 C753 1.369 . S
C752 C756 1.531 . S
C753 C752 1.369 . S
C753 C754 1.410 . S
C753 C761 1.503 . S
C754 C753 1.410 . S
C754 C755 1.392 . S
C754 C757 1.511 . S
C755 C751 1.376 . S
C755 C754 1.392 . S
C755 H767 0.929 . S
C756 C752 1.531 . S
C756 H768 0.960 . S
C756 H769 0.962 . S
C756 H770 0.960 . S
C757 C754 1.511 . S
C757 H771 0.961 . S
C757 H772 0.961 . S
C757 H773 0.961 . S
C758 C759 1.370 . S
C758 C760 1.363 . S
C758 H774 0.931 . S
C759 C758 1.370 . S
C759 C763 1.408 . S
C760 C758 1.363 . S
C760 C761 1.370 . S
C760 C764 1.524 . S
C761 C753 1.503 . S
C761 C760 1.370 . S
C761 C762 1.403 . S
C762 C761 1.403 . S
C762 C763 1.404 . S
C762 C765 1.539 . S
C763 C759 1.408 . S
C763 C762 1.404 . S
C763 H775 0.930 . S
C764 C760 1.524 . S
C764 H776 0.956 . S
C764 H777 0.961 . S
C764 H778 0.961 . S
C765 C762 1.539 . S
C765 H779 0.958 . S
C765 H780 0.961 . S
C765 H781 0.960 . S
H766 C750 0.931 . S
H767 C755 0.929 . S
H768 C756 0.960 . S
H769 C756 0.962 . S
H770 C756 0.960 . S
H771 C757 0.961 . S
H772 C757 0.961 . S
H773 C757 0.961 . S
H774 C758 0.931 . S
H775 C763 0.930 . S
H776 C764 0.956 . S
H777 C764 0.961 . S
H778 C764 0.961 . S
H779 C765 0.958 . S
H780 C765 0.961 . S
H781 C765 0.960 . S
C782 C783 1.391 . S
C782 C784 1.394 . S
C782 H798 0.931 . S
C783 C782 1.391 . S
C783 C787 1.376 . S
C784 C782 1.394 . S
C784 C785 1.369 . S
C784 C788 1.531 . S
C785 C784 1.369 . S
C785 C786 1.410 . S
C785 C793 1.503 . S
C786 C785 1.410 . S
C786 C787 1.392 . S
C786 C789 1.511 . S
C787 C783 1.376 . S
C787 C786 1.392 . S
C787 H799 0.929 . S
C788 C784 1.531 . S
C788 H800 0.960 . S
C788 H801 0.962 . S
C788 H802 0.960 . S
C789 C786 1.511 . S
C789 H803 0.961 . S
C789 H804 0.961 . S
C789 H805 0.961 . S
C790 C791 1.370 . S
C790 C792 1.363 1_556 S
C790 H806 0.931 . S
C791 C790 1.370 . S
C791 C795 1.408 . S
C792 C790 1.363 1_554 S
C792 C793 1.370 . S
C792 C796 1.524 . S
C793 C785 1.503 . S
C793 C792 1.370 . S
C793 C794 1.403 1_554 S
C794 C793 1.403 1_556 S
C794 C795 1.404 . S
C794 C797 1.539 1_556 S
C795 C791 1.408 . S
C795 C794 1.404 . S
C795 H807 0.930 . S
C796 C792 1.524 . S
C796 H808 0.956 . S
C796 H809 0.961 . S
C796 H810 0.961 . S
C797 C794 1.539 1_554 S
C797 H811 0.958 . S
C797 H812 0.961 1_554 S
C797 H813 0.960 . S
H798 C782 0.931 . S
H799 C787 0.929 . S
H800 C788 0.960 . S
H801 C788 0.962 . S
H802 C788 0.960 . S
H803 C789 0.961 . S
H804 C789 0.961 . S
H805 C789 0.961 . S
H806 C790 0.931 . S
H807 C795 0.930 . S
H808 C796 0.956 . S
H809 C796 0.961 . S
H810 C796 0.961 . S
H811 C797 0.958 . S
H812 C797 0.961 1_556 S
H813 C797 0.960 . S
C814 C815 1.391 . S
C814 C816 1.394 . S
C814 H830 0.931 . S
C815 C814 1.391 . S
C815 C819 1.376 . S
C816 C814 1.394 . S
C816 C817 1.369 . S
C816 C820 1.531 . S
C817 C816 1.369 . S
C817 C818 1.410 . S
C817 C825 1.503 . S
C818 C817 1.410 . S
C818 C819 1.392 . S
C818 C821 1.511 . S
C819 C815 1.376 . S
C819 C818 1.392 . S
C819 H831 0.929 . S
C820 C816 1.531 . S
C820 H832 0.960 . S
C820 H833 0.962 . S
C820 H834 0.960 . S
C821 C818 1.511 . S
C821 H835 0.961 . S
C821 H836 0.961 . S
C821 H837 0.961 . S
C822 C823 1.370 . S
C822 C824 1.363 . S
C822 H838 0.931 . S
C823 C822 1.370 . S
C823 C827 1.408 . S
C824 C822 1.363 . S
C824 C825 1.370 . S
C824 C828 1.524 . S
C825 C817 1.503 . S
C825 C824 1.370 . S
C825 C826 1.403 . S
C826 C825 1.403 . S
C826 C827 1.404 . S
C826 C829 1.539 . S
C827 C823 1.408 . S
C827 C826 1.404 . S
C827 H839 0.930 . S
C828 C824 1.524 . S
C828 H840 0.956 . S
C828 H841 0.961 . S
C828 H842 0.961 . S
C829 C826 1.539 . S
C829 H843 0.958 . S
C829 H844 0.961 . S
C829 H845 0.960 . S
H830 C814 0.931 . S
H831 C819 0.929 . S
H832 C820 0.960 . S
H833 C820 0.962 . S
H834 C820 0.960 . S
H835 C821 0.961 . S
H836 C821 0.961 . S
H837 C821 0.961 . S
H838 C822 0.931 . S
H839 C827 0.930 . S
H840 C828 0.956 . S
H841 C828 0.961 . S
H842 C828 0.961 . S
H843 C829 0.958 . S
H844 C829 0.961 . S
H845 C829 0.960 . S
C175 C13 2.370 1_556 S
C183 C129 2.400 . S
C207 C158 2.366 . S
C215 C42 2.401 . S
C239 C71 2.408 . S
C247 C100 2.384 1_554 S
C271 C10 1.922 . S
C279 C79 1.657 . S
C303 C21 1.648 . S
C311 C39 1.925 . S
C335 C50 1.645 . S
C343 C68 1.916 . S
C367 C97 1.903 . S
C375 C137 1.634 . S
C399 C126 1.902 . S
C407 C166 1.632 . S
C431 C108 1.644 1_554 S
C439 C155 1.916 . S
C463 C131 1.378 . S
C471 C15 1.390 . S
C495 C160 1.399 . S
C503 C44 1.393 . S
C527 C102 1.364 . S
C535 C73 1.384 . S
C559 C5 2.682 . S
C567 C92 2.713 . S
C591 C34 2.719 . S
C599 C121 2.697 . S
C623 C150 2.719 . S
C631 C63 2.697 . S
C655 C8 1.127 . S
C663 C3 1.083 . S
C687 C32 1.066 . S
C695 C37 1.109 . S
C719 C66 1.090 . S
C727 C61 1.098 . S
C751 C95 1.132 . S
C759 C90 1.084 . S
C783 C124 1.090 . S
C791 C119 1.098 . S
C815 C148 1.110 . S
C823 C153 1.090 . S
