# Generated by pormake.
# Topology smu, (6)-cn, num edge types: 1
# Building blocks:
#     Node 0, Type 0, BuildingBlock: INOVEN_clean_sbu_0, # of connection points: 6
#     Node 1, Type 0, BuildingBlock: INOVEN_clean_sbu_0, # of connection points: 6
#     Node 2, Type 0, BuildingBlock: INOVEN_clean_sbu_0, # of connection points: 6
#     Node 3, Type 0, BuildingBlock: INOVEN_clean_sbu_0, # of connection points: 6
#     Node 4, Type 0, BuildingBlock: INOVEN_clean_sbu_0, # of connection points: 6
#     Node 5, Type 0, BuildingBlock: INOVEN_clean_sbu_0, # of connection points: 6
#     Edge 6, Type (0, 0), BuildingBlock: EYOCIG_clean_linker_4, # of connection points: 2
#     Edge 7, Type (0, 0), BuildingBlock: EYOCIG_clean_linker_4, # of connection points: 2
#     Edge 8, Type (0, 0), BuildingBlock: EYOCIG_clean_linker_4, # of connection points: 2
#     Edge 9, Type (0, 0), BuildingBlock: EYOCIG_clean_linker_4, # of connection points: 2
#     Edge 10, Type (0, 0), BuildingBlock: EYOCIG_clean_linker_4, # of connection points: 2
#     Edge 11, Type (0, 0), BuildingBlock: EYOCIG_clean_linker_4, # of connection points: 2
#     Edge 12, Type (0, 0), BuildingBlock: EYOCIG_clean_linker_4, # of connection points: 2
#     Edge 13, Type (0, 0), BuildingBlock: EYOCIG_clean_linker_4, # of connection points: 2
#     Edge 14, Type (0, 0), BuildingBlock: EYOCIG_clean_linker_4, # of connection points: 2
#     Edge 15, Type (0, 0), BuildingBlock: EYOCIG_clean_linker_4, # of connection points: 2
#     Edge 16, Type (0, 0), BuildingBlock: EYOCIG_clean_linker_4, # of connection points: 2
#     Edge 17, Type (0, 0), BuildingBlock: EYOCIG_clean_linker_4, # of connection points: 2
#     Edge 18, Type (0, 0), BuildingBlock: EYOCIG_clean_linker_4, # of connection points: 2
#     Edge 19, Type (0, 0), BuildingBlock: EYOCIG_clean_linker_4, # of connection points: 2
#     Edge 20, Type (0, 0), BuildingBlock: EYOCIG_clean_linker_4, # of connection points: 2
#     Edge 21, Type (0, 0), BuildingBlock: EYOCIG_clean_linker_4, # of connection points: 2
#     Edge 22, Type (0, 0), BuildingBlock: EYOCIG_clean_linker_4, # of connection points: 2
#     Edge 23, Type (0, 0), BuildingBlock: EYOCIG_clean_linker_4, # of connection points: 2
# Relax obj value: 0.225
# Max RMSD: 0.332
# Mean RMSD: 0.332
data_MOF--net-smu--node1-INOVEN_clean_sbu_0--edge1-EYOCIG_clean_linker_4
_symmetry_space_group_name_H-M    P1
_symmetry_Int_Tables_number       1
_symmetry_cell_setting            triclinic
loop_
_symmetry_equiv_pos_as_xyz
'x, y, z'
_cell_length_a     32.911136
_cell_length_b     32.852483
_cell_length_c     19.265312
_cell_angle_alpha  89.885381
_cell_angle_beta   90.087389
_cell_angle_gamma 120.01673
loop_
_atom_site_label
_atom_site_type_symbol
_atom_site_fract_x
_atom_site_fract_y
_atom_site_fract_z
_atom_type_partial_charge
Gd0 Gd 0.39721 0.10496 0.32463 0.0
Gd1 Gd 0.32322 0.14303 0.31778 0.0
C2 C 0.43326 0.21909 0.32619 0.0
C3 C 0.46359 0.08671 0.29809 0.0
C4 C 0.51565 0.11065 0.30555 0.0
C5 C 0.53651 0.103 0.36446 0.0
C6 C 0.5451 0.13919 0.25181 0.0
C7 C 0.61437 0.15042 0.31423 0.0
C8 C 0.59391 0.15886 0.25613 0.0
C9 C 0.5854 0.12275 0.36869 0.0
C10 C 0.36323 0.10526 0.45232 0.0
C11 C 0.28524 0.03303 0.32892 0.0
C12 C 0.26001 0.1632 0.3481 0.0
C13 C 0.20895 0.14198 0.33787 0.0
C14 C 0.19168 0.15231 0.27771 0.0
C15 C 0.17838 0.12049 0.39436 0.0
C16 C 0.1245 0.14125 0.34283 0.0
C17 C 0.13561 0.11985 0.3967 0.0
C18 C 0.14891 0.15125 0.28005 0.0
C19 C 0.33148 0.10526 0.19773 0.0
O20 O 0.44395 0.18495 0.3283 0.0
O21 O 0.39002 0.21173 0.32305 0.0
O22 O 0.43881 0.07345 0.35518 0.0
O23 O 0.44633 0.10316 0.25157 0.0
O24 O 0.39438 0.09328 0.44024 0.0
O25 O 0.35893 0.12404 0.39715 0.0
O26 O 0.27799 0.06838 0.33768 0.0
O27 O 0.32672 0.03701 0.31452 0.0
O28 O 0.28735 0.18121 0.2935 0.0
O29 O 0.27374 0.14174 0.39169 0.0
O30 O 0.29789 0.11384 0.21025 0.0
O31 O 0.36265 0.1248 0.24426 0.0
H32 H 0.51504 0.08108 0.40681 0.0
H33 H 0.5304 0.14572 0.20565 0.0
H34 H 0.61562 0.18018 0.21352 0.0
H35 H 0.60052 0.11586 0.41409 0.0
H36 H 0.21354 0.16711 0.2322 0.0
H37 H 0.19005 0.11024 0.44037 0.0
H38 H 0.11608 0.11051 0.44494 0.0
H39 H 0.13961 0.16641 0.23711 0.0
Gd40 Gd 0.75921 0.66859 0.32442 0.0
Gd41 Gd 0.87142 0.74258 0.31794 0.0
C42 C 0.8369 0.63214 0.32514 0.0
C43 C 0.67461 0.60235 0.29742 0.0
C44 C 0.64644 0.55029 0.30527 0.0
C45 C 0.61808 0.52957 0.36427 0.0
C46 C 0.64548 0.52069 0.25183 0.0
C47 C 0.58766 0.45152 0.31467 0.0
C48 C 0.61642 0.47183 0.25652 0.0
C49 C 0.58899 0.48061 0.36885 0.0
C50 C 0.79406 0.70269 0.45175 0.0
C51 C 0.79956 0.78056 0.32948 0.0
C52 C 0.95487 0.80572 0.3483 0.0
C53 C 0.98482 0.85684 0.33794 0.0
C54 C 1.01235 0.87411 0.27781 0.0
C55 C 0.99403 0.88747 0.39436 0.0
C56 C 0.06863 0.94137 0.34295 0.0
C57 C 1.0362 0.93027 0.39673 0.0
C58 C 0.05409 0.91693 0.28016 0.0
C59 C 0.82554 0.73547 0.19775 0.0
O60 O 0.79216 0.62156 0.32735 0.0
O61 O 0.8729 0.67545 0.32227 0.0
O62 O 0.68606 0.62732 0.35435 0.0
O63 O 0.70841 0.61939 0.2512 0.0
O64 O 0.75057 0.67246 0.43975 0.0
O65 O 0.81695 0.7052 0.39718 0.0
O66 O 0.84202 0.78767 0.33894 0.0
O67 O 0.76209 0.73919 0.31425 0.0
O68 O 0.9454 0.77828 0.29379 0.0
O69 O 0.91976 0.79208 0.39181 0.0
O70 O 0.86822 0.76815 0.20991 0.0
O71 O 0.81345 0.70444 0.24465 0.0
H72 H 0.61772 0.55118 0.4064 0.0
H73 H 0.66662 0.5353 0.20563 0.0
H74 H 0.61596 0.44998 0.21415 0.0
H75 H 0.56707 0.46555 0.41429 0.0
H76 H 1.00518 0.8522 0.23234 0.0
H77 H 0.97216 0.87579 0.44033 0.0
H78 H 0.04649 0.94981 0.44497 0.0
H79 H 0.07849 0.92624 0.23728 0.0
Gd80 Gd 0.96068 0.30622 0.32402 0.0
Gd81 Gd 0.92266 0.19415 0.31758 0.0
C82 C 0.84665 0.22822 0.32577 0.0
C83 C 0.97909 0.39108 0.29766 0.0
C84 C 0.95491 0.41898 0.30495 0.0
C85 C 0.96234 0.44737 0.36381 0.0
C86 C 0.92621 0.41966 0.25127 0.0
C87 C 0.91445 0.47735 0.31362 0.0
C88 C 0.90619 0.44853 0.25559 0.0
C89 C 0.94225 0.47624 0.36803 0.0
C90 C 0.96093 0.27201 0.45184 0.0
C91 C 1.03254 0.26612 0.32794 0.0
C92 C 0.90262 0.1107 0.34828 0.0
C93 C 0.92398 0.08098 0.33799 0.0
C94 C 0.91377 0.05351 0.2778 0.0
C95 C 0.94551 0.07185 0.39443 0.0
C96 C 0.92492 0.99726 0.34297 0.0
C97 C 0.94628 0.02972 0.39676 0.0
C98 C 0.91495 1.0118 0.28015 0.0
C99 C 0.96027 0.24011 0.19721 0.0
O100 O 0.88077 0.27308 0.32762 0.0
O101 O 0.85404 0.19229 0.32295 0.0
O102 O 0.99193 0.37923 0.35494 0.0
O103 O 0.96313 0.35763 0.25085 0.0
O104 O 0.97268 0.31515 0.43953 0.0
O105 O 0.94211 0.24888 0.39684 0.0
O106 O 0.99727 0.22347 0.33686 0.0
O107 O 1.02852 0.30369 0.31358 0.0
O108 O 0.88453 0.12004 0.2937 0.0
O109 O 0.92402 0.1459 0.39175 0.0
O110 O 0.95159 0.19784 0.20999 0.0
O111 O 0.94083 0.25187 0.24369 0.0
H112 H 0.98434 0.44795 0.40613 0.0
H113 H 0.91981 0.39847 0.20518 0.0
H114 H 0.88478 0.4488 0.21303 0.0
H115 H 0.949 0.4982 0.41338 0.0
H116 H 0.89896 0.06066 0.23231 0.0
H117 H 0.95569 0.09369 0.44043 0.0
H118 H 0.95559 1.01941 0.44502 0.0
H119 H 0.89982 0.98738 0.23726 0.0
Gd120 Gd 0.15541 0.31058 0.81704 0.0
Gd121 Gd 0.11778 0.38423 0.82323 0.0
C122 C 0.04569 0.2722 0.82685 0.0
C123 C 0.17632 0.2478 0.84737 0.0
C124 C 0.15498 0.19668 0.83705 0.0
C125 C 0.1647 0.17948 0.77643 0.0
C126 C 0.1337 0.16589 0.89347 0.0
C127 C 0.15365 0.11181 0.84077 0.0
C128 C 0.1327 0.12287 0.89514 0.0
C129 C 0.16329 0.13648 0.77813 0.0
C130 C 0.11763 0.31866 0.69719 0.0
C131 C 0.23147 0.42066 0.82594 0.0
C132 C 0.09905 0.4506 0.79794 0.0
C133 C 0.12325 0.50278 0.80482 0.0
C134 C 0.11583 0.52383 0.86355 0.0
C135 C 0.15187 0.53213 0.75105 0.0
C136 C 0.1636 0.6017 0.81313 0.0
C137 C 0.17181 0.58107 0.75518 0.0
C138 C 0.13586 0.57283 0.8676 0.0
C139 C 0.11695 0.34968 0.95149 0.0
O140 O 0.08093 0.26501 0.83678 0.0
O141 O 0.04985 0.31379 0.81188 0.0
O142 O 0.19388 0.27516 0.7926 0.0
O143 O 0.15515 0.26152 0.89127 0.0
O144 O 0.12402 0.28382 0.71165 0.0
O145 O 0.13873 0.35106 0.74181 0.0
O146 O 0.19744 0.43135 0.8278 0.0
O147 O 0.22403 0.37736 0.8227 0.0
O148 O 0.08729 0.42627 0.85553 0.0
O149 O 0.11414 0.43282 0.75038 0.0
O150 O 0.10592 0.38151 0.93887 0.0
O151 O 0.13443 0.34414 0.89618 0.0
H152 H 0.17926 0.20151 0.73095 0.0
H153 H 0.12385 0.17751 0.93981 0.0
H154 H 0.12357 0.10309 0.94325 0.0
H155 H 0.17806 0.12721 0.73479 0.0
H156 H 0.09387 0.50244 0.90591 0.0
H157 H 0.15827 0.51728 0.70507 0.0
H158 H 0.19317 0.60274 0.71257 0.0
H159 H 0.12915 0.5881 0.91288 0.0
Gd160 Gd 0.20736 0.91045 0.81818 0.0
Gd161 Gd 0.3185 0.94803 0.82341 0.0
C162 C 0.27886 1.02018 0.82776 0.0
C163 C 0.1235 0.88885 0.84768 0.0
C164 C 0.09369 0.91011 0.8373 0.0
C165 C 0.06716 0.90082 0.77624 0.0
C166 C 0.0838 0.93088 0.89384 0.0
C167 C 1.01018 0.91121 0.83998 0.0
C168 C 0.04177 0.93174 0.89501 0.0
C169 C 1.02558 0.9021 0.77743 0.0
C170 C 0.25292 0.94901 0.69846 0.0
C171 C 0.24126 0.83414 0.82601 0.0
C172 C 0.40342 0.96678 0.7978 0.0
C173 C 0.43159 0.94283 0.80532 0.0
C174 C 0.46003 0.95046 0.86427 0.0
C175 C 0.4326 0.91431 0.75172 0.0
C176 C 0.49058 0.90304 0.81437 0.0
C177 C 0.46178 0.89465 0.75621 0.0
C178 C 0.48919 0.9307 0.86869 0.0
C179 C 0.2853 0.94885 0.95195 0.0
O180 O 0.23674 0.98491 0.84005 0.0
O181 O 0.31582 1.01585 0.81093 0.0
O182 O 0.13362 0.87181 0.79279 0.0
O183 O 0.15815 0.9098 0.89212 0.0
O184 O 0.21214 0.94325 0.71381 0.0
O185 O 0.26405 0.92724 0.74225 0.0
O186 O 0.28597 0.86824 0.82792 0.0
O187 O 0.20548 0.84164 0.82305 0.0
O188 O 0.39128 0.97927 0.85497 0.0
O189 O 0.37017 0.9509 0.75067 0.0
O190 O 0.32818 0.96039 0.93902 0.0
O191 O 0.26214 0.93092 0.89684 0.0
H192 H 0.07492 0.88666 0.73068 0.0
H193 H 0.10497 0.94041 0.94053 0.0
H194 H 1.03081 0.94045 0.94307 0.0
H195 H 1.00185 0.88766 0.73363 0.0
H196 H 0.46041 0.97236 0.90651 0.0
H197 H 0.41141 0.90778 0.70555 0.0
H198 H 0.46225 0.87336 0.71371 0.0
H199 H 0.51112 0.93756 0.91414 0.0
Gd200 Gd 0.75326 0.85566 0.82143 0.0
Gd201 Gd 0.68347 0.74962 0.82116 0.0
C202 C 0.79313 0.78643 0.82515 0.0
C203 C 0.81605 0.9402 0.85055 0.0
C204 C 0.86709 0.97089 0.8393 0.0
C205 C 0.8836 0.99834 0.77882 0.0
C206 C 0.89853 0.9803 0.8948 0.0
C207 C 0.95219 0.05461 0.84174 0.0
C208 C 0.94158 1.02234 0.89584 0.0
C209 C 0.92666 0.03994 0.77985 0.0
C210 C 0.75058 0.81437 0.69862 0.0
C211 C 0.64541 0.82552 0.82637 0.0
C212 C 0.61403 0.66433 0.80407 0.0
C213 C 0.56187 0.63578 0.80796 0.0
C214 C 0.54046 0.60636 0.86582 0.0
C215 C 0.5331 0.63473 0.75307 0.0
C216 C 0.46332 0.5755 0.81354 0.0
C217 C 0.48424 0.60485 0.75592 0.0
C218 C 0.49171 0.57662 0.86859 0.0
C219 C 0.72574 0.78002 0.94319 0.0
O220 O 0.79827 0.82649 0.84628 0.0
O221 O 0.75271 0.75145 0.80146 0.0
O222 O 0.78801 0.92995 0.79673 0.0
O223 O 0.80324 0.90523 0.89415 0.0
O224 O 0.78571 0.85321 0.71999 0.0
O225 O 0.71573 0.80247 0.73849 0.0
O226 O 0.63552 0.78116 0.83183 0.0
O227 O 0.68846 0.86092 0.82001 0.0
O228 O 0.63588 0.6807 0.8628 0.0
O229 O 0.63386 0.69401 0.75259 0.0
O230 O 0.71268 0.73904 0.91777 0.0
O231 O 0.71278 0.80361 0.90524 0.0
H232 H 0.86112 0.99109 0.73401 0.0
H233 H 0.88753 0.95857 0.94102 0.0
H234 H 0.96194 0.03271 0.94338 0.0
H235 H 0.93556 0.06417 0.73667 0.0
H236 H 0.56152 0.60578 0.90868 0.0
H237 H 0.54832 0.65649 0.70754 0.0
H238 H 0.46286 0.60441 0.71279 0.0
H239 H 0.47625 0.55416 0.9135 0.0
C240 C 0.28799 1.00268 1.05291 0.0
C241 C 0.27723 0.9748 1.00545 0.0
C242 C 0.3089 0.03814 0.10518 0.0
C243 C 0.32469 0.06891 0.14891 0.0
C244 C 0.77239 0.77119 0.60236 0.0
C245 C 0.75695 0.7863 0.64644 0.0
C246 C 0.79299 0.75591 0.55062 0.0
C247 C 0.80352 0.73797 0.50397 0.0
C248 C 1.02743 0.28433 0.10459 0.0
C249 C 0.99667 0.26958 0.14832 0.0
C250 C 0.06288 0.2986 1.05242 0.0
C251 C 0.09081 0.31558 1.00498 0.0
C252 C 0.31175 0.05078 0.55237 0.0
C253 C 0.32875 0.07911 0.50527 0.0
C254 C 0.29746 1.015 0.60428 0.0
C255 C 0.28248 0.98428 0.64822 0.0
C256 C 0.76613 0.78251 1.05869 0.0
C257 C 0.74978 0.79196 1.00886 0.0
C258 C 0.78102 0.76126 0.10981 0.0
C259 C 0.79612 0.74433 0.15151 0.0
C260 C 1.01574 0.2753 0.5516 0.0
C261 C 0.98732 0.26383 0.50467 0.0
C262 C 0.05148 0.29696 0.6034 0.0
C263 C 0.08216 0.31284 0.64729 0.0
C264 C 0.70696 0.18536 0.32024 0.0
C265 C 0.66483 0.1695 0.3174 0.0
C266 C 0.75634 0.20337 0.3233 0.0
C267 C 0.7981 0.21702 0.32461 0.0
C268 C 0.53008 0.35886 0.32105 0.0
C269 C 0.55631 0.40103 0.31809 0.0
C270 C 0.49873 0.30946 0.32404 0.0
C271 C 0.47061 0.26765 0.32522 0.0
C272 C 0.87928 0.53484 0.31962 0.0
C273 C 0.89523 0.50863 0.3167 0.0
C274 C 0.86138 0.56633 0.32269 0.0
C275 C 0.8479 0.59461 0.324 0.0
C276 C 0.19886 0.69443 0.81937 0.0
C277 C 0.18292 0.65225 0.81621 0.0
C278 C 0.21673 0.74381 0.82291 0.0
C279 C 0.23015 0.78557 0.82451 0.0
C280 C 0.54823 0.86801 0.82093 0.0
C281 C 0.52196 0.8839 0.8178 0.0
C282 C 0.57965 0.85002 0.82428 0.0
C283 C 0.60788 0.83649 0.82564 0.0
C284 C 0.32161 0.48621 0.82309 0.0
C285 C 0.27992 0.45803 0.82459 0.0
C286 C 0.37087 0.51763 0.81941 0.0
C287 C 0.41291 0.54409 0.81623 0.0
C288 C 0.09717 0.20252 0.3586 0.0
C289 C 0.10617 0.1713 0.36006 0.0
C290 C 0.09215 0.24233 0.34898 0.0
C291 C 0.07595 0.26732 0.33697 0.0
C292 C 0.1571 0.96853 0.35911 0.0
C293 C 0.11695 0.95959 0.36035 0.0
C294 C 0.20183 0.97345 0.3498 0.0
C295 C 0.24298 0.98958 0.33795 0.0
C296 C 0.86332 0.90877 0.35928 0.0
C297 C 0.89468 0.94892 0.36048 0.0
C298 C 0.82343 0.86406 0.34995 0.0
C299 C 0.79844 0.82286 0.33812 0.0
C300 C 0.21526 0.0849 0.85532 0.0
C301 C 0.18394 0.09365 0.85736 0.0
C302 C 0.25507 0.08007 0.84547 0.0
C303 C 0.27999 0.06376 0.83412 0.0
C304 C 0.92157 0.84959 0.85226 0.0
C305 C 0.96164 0.88083 0.85548 0.0
C306 C 0.87693 0.81019 0.84055 0.0
C307 C 0.83582 0.78576 0.82815 0.0
C308 C 0.9861 0.18859 0.84695 0.0
C309 C 1.00226 0.22984 0.83513 0.0
C310 C 0.98096 0.14368 0.85659 0.0
C311 C 0.97152 0.10329 0.85842 0.0
loop_
_geom_bond_atom_site_label_1
_geom_bond_atom_site_label_2
_geom_bond_distance
_geom_bond_site_symmetry_2
_ccdc_geom_bond_type
Gd0 C3 2.818 . S
Gd0 O20 2.377 . S
Gd0 O22 2.448 . S
Gd0 O23 2.506 . S
Gd0 O24 2.435 . S
Gd0 O25 2.717 . S
Gd0 O27 2.395 . S
Gd0 O31 2.327 . S
Gd1 C12 2.818 . S
Gd1 O21 2.395 . S
Gd1 O25 2.327 . S
Gd1 O26 2.377 . S
Gd1 O28 2.448 . S
Gd1 O29 2.506 . S
Gd1 O30 2.435 . S
Gd1 O31 2.717 . S
C2 O20 1.240 . S
C2 O21 1.240 . S
C3 Gd0 2.818 . S
C3 C4 1.510 . S
C3 O22 1.249 . S
C3 O23 1.252 . S
C4 C3 1.510 . S
C4 C5 1.404 . S
C4 C6 1.352 . S
C5 C4 1.404 . S
C5 C9 1.389 . S
C5 H32 0.930 . S
C6 C4 1.352 . S
C6 C8 1.374 . S
C6 H33 0.931 . S
C7 C8 1.359 . S
C7 C9 1.364 . S
C8 C6 1.374 . S
C8 C7 1.359 . S
C8 H34 0.931 . S
C9 C5 1.389 . S
C9 C7 1.364 . S
C9 H35 0.931 . S
C10 O24 1.256 . S
C10 O25 1.257 . S
C11 O26 1.240 . S
C11 O27 1.240 . S
C12 Gd1 2.818 . S
C12 C13 1.510 . S
C12 O28 1.249 . S
C12 O29 1.252 . S
C13 C12 1.510 . S
C13 C14 1.404 . S
C13 C15 1.352 . S
C14 C13 1.404 . S
C14 C18 1.389 . S
C14 H36 0.930 . S
C15 C13 1.352 . S
C15 C17 1.374 . S
C15 H37 0.931 . S
C16 C17 1.359 . S
C16 C18 1.364 . S
C17 C15 1.374 . S
C17 C16 1.359 . S
C17 H38 0.931 . S
C18 C14 1.389 . S
C18 C16 1.364 . S
C18 H39 0.931 . S
C19 O30 1.256 . S
C19 O31 1.257 . S
O20 Gd0 2.377 . S
O20 C2 1.240 . S
O21 Gd1 2.395 . S
O21 C2 1.240 . S
O22 Gd0 2.448 . S
O22 C3 1.249 . S
O23 Gd0 2.506 . S
O23 C3 1.252 . S
O24 Gd0 2.435 . S
O24 C10 1.256 . S
O25 Gd0 2.717 . S
O25 Gd1 2.327 . S
O25 C10 1.257 . S
O26 Gd1 2.377 . S
O26 C11 1.240 . S
O27 Gd0 2.395 . S
O27 C11 1.240 . S
O28 Gd1 2.448 . S
O28 C12 1.249 . S
O29 Gd1 2.506 . S
O29 C12 1.252 . S
O30 Gd1 2.435 . S
O30 C19 1.256 . S
O31 Gd0 2.327 . S
O31 Gd1 2.717 . S
O31 C19 1.257 . S
H32 C5 0.930 . S
H33 C6 0.931 . S
H34 C8 0.931 . S
H35 C9 0.931 . S
H36 C14 0.930 . S
H37 C15 0.931 . S
H38 C17 0.931 . S
H39 C18 0.931 . S
Gd40 C43 2.818 . S
Gd40 O60 2.377 . S
Gd40 O62 2.448 . S
Gd40 O63 2.506 . S
Gd40 O64 2.435 . S
Gd40 O65 2.717 . S
Gd40 O67 2.395 . S
Gd40 O71 2.327 . S
Gd41 C52 2.818 . S
Gd41 O61 2.395 . S
Gd41 O65 2.327 . S
Gd41 O66 2.377 . S
Gd41 O68 2.448 . S
Gd41 O69 2.506 . S
Gd41 O70 2.435 . S
Gd41 O71 2.717 . S
C42 O60 1.240 . S
C42 O61 1.240 . S
C43 Gd40 2.818 . S
C43 C44 1.510 . S
C43 O62 1.249 . S
C43 O63 1.252 . S
C44 C43 1.510 . S
C44 C45 1.404 . S
C44 C46 1.352 . S
C45 C44 1.404 . S
C45 C49 1.389 . S
C45 H72 0.930 . S
C46 C44 1.352 . S
C46 C48 1.374 . S
C46 H73 0.931 . S
C47 C48 1.359 . S
C47 C49 1.364 . S
C48 C46 1.374 . S
C48 C47 1.359 . S
C48 H74 0.931 . S
C49 C45 1.389 . S
C49 C47 1.364 . S
C49 H75 0.931 . S
C50 O64 1.256 . S
C50 O65 1.257 . S
C51 O66 1.240 . S
C51 O67 1.240 . S
C52 Gd41 2.818 . S
C52 C53 1.510 . S
C52 O68 1.249 . S
C52 O69 1.252 . S
C53 C52 1.510 . S
C53 C54 1.404 . S
C53 C55 1.352 . S
C54 C53 1.404 . S
C54 C58 1.389 1_655 S
C54 H76 0.930 . S
C55 C53 1.352 . S
C55 C57 1.374 . S
C55 H77 0.931 . S
C56 C57 1.359 1_455 S
C56 C58 1.364 . S
C57 C55 1.374 . S
C57 C56 1.359 1_655 S
C57 H78 0.931 . S
C58 C54 1.389 1_455 S
C58 C56 1.364 . S
C58 H79 0.931 . S
C59 O70 1.256 . S
C59 O71 1.257 . S
O60 Gd40 2.377 . S
O60 C42 1.240 . S
O61 Gd41 2.395 . S
O61 C42 1.240 . S
O62 Gd40 2.448 . S
O62 C43 1.249 . S
O63 Gd40 2.506 . S
O63 C43 1.252 . S
O64 Gd40 2.435 . S
O64 C50 1.256 . S
O65 Gd40 2.717 . S
O65 Gd41 2.327 . S
O65 C50 1.257 . S
O66 Gd41 2.377 . S
O66 C51 1.240 . S
O67 Gd40 2.395 . S
O67 C51 1.240 . S
O68 Gd41 2.448 . S
O68 C52 1.249 . S
O69 Gd41 2.506 . S
O69 C52 1.252 . S
O70 Gd41 2.435 . S
O70 C59 1.256 . S
O71 Gd40 2.327 . S
O71 Gd41 2.717 . S
O71 C59 1.257 . S
H72 C45 0.930 . S
H73 C46 0.931 . S
H74 C48 0.931 . S
H75 C49 0.931 . S
H76 C54 0.930 . S
H77 C55 0.931 . S
H78 C57 0.931 . S
H79 C58 0.931 . S
Gd80 C83 2.818 . S
Gd80 O100 2.377 . S
Gd80 O102 2.448 . S
Gd80 O103 2.506 . S
Gd80 O104 2.435 . S
Gd80 O105 2.717 . S
Gd80 O107 2.395 . S
Gd80 O111 2.327 . S
Gd81 C92 2.818 . S
Gd81 O101 2.395 . S
Gd81 O105 2.327 . S
Gd81 O106 2.377 . S
Gd81 O108 2.448 . S
Gd81 O109 2.506 . S
Gd81 O110 2.435 . S
Gd81 O111 2.717 . S
C82 O100 1.240 . S
C82 O101 1.240 . S
C83 Gd80 2.818 . S
C83 C84 1.510 . S
C83 O102 1.249 . S
C83 O103 1.252 . S
C84 C83 1.510 . S
C84 C85 1.404 . S
C84 C86 1.352 . S
C85 C84 1.404 . S
C85 C89 1.389 . S
C85 H112 0.930 . S
C86 C84 1.352 . S
C86 C88 1.374 . S
C86 H113 0.931 . S
C87 C88 1.359 . S
C87 C89 1.364 . S
C88 C86 1.374 . S
C88 C87 1.359 . S
C88 H114 0.931 . S
C89 C85 1.389 . S
C89 C87 1.364 . S
C89 H115 0.931 . S
C90 O104 1.256 . S
C90 O105 1.257 . S
C91 O106 1.240 . S
C91 O107 1.240 . S
C92 Gd81 2.818 . S
C92 C93 1.510 . S
C92 O108 1.249 . S
C92 O109 1.252 . S
C93 C92 1.510 . S
C93 C94 1.404 . S
C93 C95 1.352 . S
C94 C93 1.404 . S
C94 C98 1.389 1_545 S
C94 H116 0.930 . S
C95 C93 1.352 . S
C95 C97 1.374 . S
C95 H117 0.931 . S
C96 C97 1.359 1_565 S
C96 C98 1.364 . S
C97 C95 1.374 . S
C97 C96 1.359 1_545 S
C97 H118 0.931 . S
C98 C94 1.389 1_565 S
C98 C96 1.364 . S
C98 H119 0.931 . S
C99 O110 1.256 . S
C99 O111 1.257 . S
O100 Gd80 2.377 . S
O100 C82 1.240 . S
O101 Gd81 2.395 . S
O101 C82 1.240 . S
O102 Gd80 2.448 . S
O102 C83 1.249 . S
O103 Gd80 2.506 . S
O103 C83 1.252 . S
O104 Gd80 2.435 . S
O104 C90 1.256 . S
O105 Gd80 2.717 . S
O105 Gd81 2.327 . S
O105 C90 1.257 . S
O106 Gd81 2.377 . S
O106 C91 1.240 . S
O107 Gd80 2.395 . S
O107 C91 1.240 . S
O108 Gd81 2.448 . S
O108 C92 1.249 . S
O109 Gd81 2.506 . S
O109 C92 1.252 . S
O110 Gd81 2.435 . S
O110 C99 1.256 . S
O111 Gd80 2.327 . S
O111 Gd81 2.717 . S
O111 C99 1.257 . S
H112 C85 0.930 . S
H113 C86 0.931 . S
H114 C88 0.931 . S
H115 C89 0.931 . S
H116 C94 0.930 . S
H117 C95 0.931 . S
H118 C97 0.931 . S
H119 C98 0.931 . S
Gd120 C123 2.818 . S
Gd120 O140 2.377 . S
Gd120 O142 2.448 . S
Gd120 O143 2.506 . S
Gd120 O144 2.435 . S
Gd120 O145 2.717 . S
Gd120 O147 2.395 . S
Gd120 O151 2.327 . S
Gd121 C132 2.818 . S
Gd121 O141 2.395 . S
Gd121 O145 2.327 . S
Gd121 O146 2.377 . S
Gd121 O148 2.448 . S
Gd121 O149 2.506 . S
Gd121 O150 2.435 . S
Gd121 O151 2.717 . S
C122 O140 1.240 . S
C122 O141 1.240 . S
C123 Gd120 2.818 . S
C123 C124 1.510 . S
C123 O142 1.249 . S
C123 O143 1.252 . S
C124 C123 1.510 . S
C124 C125 1.404 . S
C124 C126 1.352 . S
C125 C124 1.404 . S
C125 C129 1.389 . S
C125 H152 0.930 . S
C126 C124 1.352 . S
C126 C128 1.374 . S
C126 H153 0.931 . S
C127 C128 1.359 . S
C127 C129 1.364 . S
C128 C126 1.374 . S
C128 C127 1.359 . S
C128 H154 0.931 . S
C129 C125 1.389 . S
C129 C127 1.364 . S
C129 H155 0.931 . S
C130 O144 1.256 . S
C130 O145 1.257 . S
C131 O146 1.240 . S
C131 O147 1.240 . S
C132 Gd121 2.818 . S
C132 C133 1.510 . S
C132 O148 1.249 . S
C132 O149 1.252 . S
C133 C132 1.510 . S
C133 C134 1.404 . S
C133 C135 1.352 . S
C134 C133 1.404 . S
C134 C138 1.389 . S
C134 H156 0.930 . S
C135 C133 1.352 . S
C135 C137 1.374 . S
C135 H157 0.931 . S
C136 C137 1.359 . S
C136 C138 1.364 . S
C137 C135 1.374 . S
C137 C136 1.359 . S
C137 H158 0.931 . S
C138 C134 1.389 . S
C138 C136 1.364 . S
C138 H159 0.931 . S
C139 O150 1.256 . S
C139 O151 1.257 . S
O140 Gd120 2.377 . S
O140 C122 1.240 . S
O141 Gd121 2.395 . S
O141 C122 1.240 . S
O142 Gd120 2.448 . S
O142 C123 1.249 . S
O143 Gd120 2.506 . S
O143 C123 1.252 . S
O144 Gd120 2.435 . S
O144 C130 1.256 . S
O145 Gd120 2.717 . S
O145 Gd121 2.327 . S
O145 C130 1.257 . S
O146 Gd121 2.377 . S
O146 C131 1.240 . S
O147 Gd120 2.395 . S
O147 C131 1.240 . S
O148 Gd121 2.448 . S
O148 C132 1.249 . S
O149 Gd121 2.506 . S
O149 C132 1.252 . S
O150 Gd121 2.435 . S
O150 C139 1.256 . S
O151 Gd120 2.327 . S
O151 Gd121 2.717 . S
O151 C139 1.257 . S
H152 C125 0.930 . S
H153 C126 0.931 . S
H154 C128 0.931 . S
H155 C129 0.931 . S
H156 C134 0.930 . S
H157 C135 0.931 . S
H158 C137 0.931 . S
H159 C138 0.931 . S
Gd160 C163 2.818 . S
Gd160 O180 2.377 . S
Gd160 O182 2.448 . S
Gd160 O183 2.506 . S
Gd160 O184 2.435 . S
Gd160 O185 2.717 . S
Gd160 O187 2.395 . S
Gd160 O191 2.327 . S
Gd161 C172 2.818 . S
Gd161 O181 2.395 . S
Gd161 O185 2.327 . S
Gd161 O186 2.377 . S
Gd161 O188 2.448 . S
Gd161 O189 2.506 . S
Gd161 O190 2.435 . S
Gd161 O191 2.717 . S
C162 O180 1.240 . S
C162 O181 1.240 . S
C163 Gd160 2.818 . S
C163 C164 1.510 . S
C163 O182 1.249 . S
C163 O183 1.252 . S
C164 C163 1.510 . S
C164 C165 1.404 . S
C164 C166 1.352 . S
C165 C164 1.404 . S
C165 C169 1.389 1_455 S
C165 H192 0.930 . S
C166 C164 1.352 . S
C166 C168 1.374 . S
C166 H193 0.931 . S
C167 C168 1.359 1_655 S
C167 C169 1.364 . S
C168 C166 1.374 . S
C168 C167 1.359 1_455 S
C168 H194 0.931 . S
C169 C165 1.389 1_655 S
C169 C167 1.364 . S
C169 H195 0.931 . S
C170 O184 1.256 . S
C170 O185 1.257 . S
C171 O186 1.240 . S
C171 O187 1.240 . S
C172 Gd161 2.818 . S
C172 C173 1.510 . S
C172 O188 1.249 . S
C172 O189 1.252 . S
C173 C172 1.510 . S
C173 C174 1.404 . S
C173 C175 1.352 . S
C174 C173 1.404 . S
C174 C178 1.389 . S
C174 H196 0.930 . S
C175 C173 1.352 . S
C175 C177 1.374 . S
C175 H197 0.931 . S
C176 C177 1.359 . S
C176 C178 1.364 . S
C177 C175 1.374 . S
C177 C176 1.359 . S
C177 H198 0.931 . S
C178 C174 1.389 . S
C178 C176 1.364 . S
C178 H199 0.931 . S
C179 O190 1.256 . S
C179 O191 1.257 . S
O180 Gd160 2.377 . S
O180 C162 1.240 . S
O181 Gd161 2.395 . S
O181 C162 1.240 . S
O182 Gd160 2.448 . S
O182 C163 1.249 . S
O183 Gd160 2.506 . S
O183 C163 1.252 . S
O184 Gd160 2.435 . S
O184 C170 1.256 . S
O185 Gd160 2.717 . S
O185 Gd161 2.327 . S
O185 C170 1.257 . S
O186 Gd161 2.377 . S
O186 C171 1.240 . S
O187 Gd160 2.395 . S
O187 C171 1.240 . S
O188 Gd161 2.448 . S
O188 C172 1.249 . S
O189 Gd161 2.506 . S
O189 C172 1.252 . S
O190 Gd161 2.435 . S
O190 C179 1.256 . S
O191 Gd160 2.327 . S
O191 Gd161 2.717 . S
O191 C179 1.257 . S
H192 C165 0.930 . S
H193 C166 0.931 . S
H194 C168 0.931 . S
H195 C169 0.931 . S
H196 C174 0.930 . S
H197 C175 0.931 . S
H198 C177 0.931 . S
H199 C178 0.931 . S
Gd200 C203 2.818 . S
Gd200 O220 2.377 . S
Gd200 O222 2.448 . S
Gd200 O223 2.506 . S
Gd200 O224 2.435 . S
Gd200 O225 2.717 . S
Gd200 O227 2.395 . S
Gd200 O231 2.327 . S
Gd201 C212 2.818 . S
Gd201 O221 2.395 . S
Gd201 O225 2.327 . S
Gd201 O226 2.377 . S
Gd201 O228 2.448 . S
Gd201 O229 2.506 . S
Gd201 O230 2.435 . S
Gd201 O231 2.717 . S
C202 O220 1.240 . S
C202 O221 1.240 . S
C203 Gd200 2.818 . S
C203 C204 1.510 . S
C203 O222 1.249 . S
C203 O223 1.252 . S
C204 C203 1.510 . S
C204 C205 1.404 . S
C204 C206 1.352 . S
C205 C204 1.404 . S
C205 C209 1.389 1_565 S
C205 H232 0.930 . S
C206 C204 1.352 . S
C206 C208 1.374 . S
C206 H233 0.931 . S
C207 C208 1.359 1_545 S
C207 C209 1.364 . S
C208 C206 1.374 . S
C208 C207 1.359 1_565 S
C208 H234 0.931 . S
C209 C205 1.389 1_545 S
C209 C207 1.364 . S
C209 H235 0.931 . S
C210 O224 1.256 . S
C210 O225 1.257 . S
C211 O226 1.240 . S
C211 O227 1.240 . S
C212 Gd201 2.818 . S
C212 C213 1.510 . S
C212 O228 1.249 . S
C212 O229 1.252 . S
C213 C212 1.510 . S
C213 C214 1.404 . S
C213 C215 1.352 . S
C214 C213 1.404 . S
C214 C218 1.389 . S
C214 H236 0.930 . S
C215 C213 1.352 . S
C215 C217 1.374 . S
C215 H237 0.931 . S
C216 C217 1.359 . S
C216 C218 1.364 . S
C217 C215 1.374 . S
C217 C216 1.359 . S
C217 H238 0.931 . S
C218 C214 1.389 . S
C218 C216 1.364 . S
C218 H239 0.931 . S
C219 O230 1.256 . S
C219 O231 1.257 . S
O220 Gd200 2.377 . S
O220 C202 1.240 . S
O221 Gd201 2.395 . S
O221 C202 1.240 . S
O222 Gd200 2.448 . S
O222 C203 1.249 . S
O223 Gd200 2.506 . S
O223 C203 1.252 . S
O224 Gd200 2.435 . S
O224 C210 1.256 . S
O225 Gd200 2.717 . S
O225 Gd201 2.327 . S
O225 C210 1.257 . S
O226 Gd201 2.377 . S
O226 C211 1.240 . S
O227 Gd200 2.395 . S
O227 C211 1.240 . S
O228 Gd201 2.448 . S
O228 C212 1.249 . S
O229 Gd201 2.506 . S
O229 C212 1.252 . S
O230 Gd201 2.435 . S
O230 C219 1.256 . S
O231 Gd200 2.327 . S
O231 Gd201 2.717 . S
O231 C219 1.257 . S
H232 C205 0.930 . S
H233 C206 0.931 . S
H234 C208 0.931 . S
H235 C209 0.931 . S
H236 C214 0.930 . S
H237 C215 0.931 . S
H238 C217 0.931 . S
H239 C218 0.931 . S
C240 C241 1.170 . S
C240 C242 1.380 1_566 S
C241 C240 1.170 . S
C242 C240 1.380 1_544 S
C242 C243 1.170 . S
C243 C242 1.170 . S
C244 C245 1.170 . S
C244 C246 1.380 . S
C245 C244 1.170 . S
C246 C244 1.380 . S
C246 C247 1.170 . S
C247 C246 1.170 . S
C248 C249 1.170 . S
C248 C250 1.380 1_654 S
C249 C248 1.170 . S
C250 C248 1.380 1_456 S
C250 C251 1.170 . S
C251 C250 1.170 . S
C252 C253 1.170 . S
C252 C254 1.380 1_545 S
C253 C252 1.170 . S
C254 C252 1.380 1_565 S
C254 C255 1.170 . S
C255 C254 1.170 . S
C256 C257 1.170 . S
C256 C258 1.380 1_556 S
C257 C256 1.170 . S
C258 C256 1.380 1_554 S
C258 C259 1.170 . S
C259 C258 1.170 . S
C260 C261 1.170 . S
C260 C262 1.380 1_655 S
C261 C260 1.170 . S
C262 C260 1.380 1_455 S
C262 C263 1.170 . S
C263 C262 1.170 . S
C264 C265 1.170 . S
C264 C266 1.380 . S
C265 C264 1.170 . S
C266 C264 1.380 . S
C266 C267 1.170 . S
C267 C266 1.170 . S
C268 C269 1.170 . S
C268 C270 1.380 . S
C269 C268 1.170 . S
C270 C268 1.380 . S
C270 C271 1.170 . S
C271 C270 1.170 . S
C272 C273 1.170 . S
C272 C274 1.380 . S
C273 C272 1.170 . S
C274 C272 1.380 . S
C274 C275 1.170 . S
C275 C274 1.170 . S
C276 C277 1.170 . S
C276 C278 1.380 . S
C277 C276 1.170 . S
C278 C276 1.380 . S
C278 C279 1.170 . S
C279 C278 1.170 . S
C280 C281 1.170 . S
C280 C282 1.380 . S
C281 C280 1.170 . S
C282 C280 1.380 . S
C282 C283 1.170 . S
C283 C282 1.170 . S
C284 C285 1.170 . S
C284 C286 1.380 . S
C285 C284 1.170 . S
C286 C284 1.380 . S
C286 C287 1.170 . S
C287 C286 1.170 . S
C288 C289 1.170 . S
C288 C290 1.380 . S
C289 C288 1.170 . S
C290 C288 1.380 . S
C290 C291 1.151 1_455 S
C291 C290 1.151 1_655 S
C292 C293 1.170 . S
C292 C294 1.380 . S
C293 C292 1.170 . S
C294 C292 1.380 . S
C294 C295 1.177 1_565 S
C295 C294 1.177 1_545 S
C296 C297 1.170 . S
C296 C298 1.380 . S
C297 C296 1.170 . S
C298 C296 1.380 . S
C298 C299 1.170 . S
C299 C298 1.170 . S
C300 C301 1.170 . S
C300 C302 1.380 . S
C301 C300 1.170 . S
C302 C300 1.380 . S
C302 C303 1.152 1_545 S
C303 C302 1.152 1_565 S
C304 C305 1.170 . S
C304 C306 1.380 . S
C305 C304 1.170 . S
C306 C304 1.380 . S
C306 C307 1.170 . S
C307 C306 1.170 . S
C308 C309 1.178 1_655 S
C308 C310 1.380 . S
C309 C308 1.178 1_455 S
C310 C308 1.380 . S
C310 C311 1.170 . S
C311 C310 1.170 . S
C241 C179 2.372 . S
C243 C19 2.543 . S
C245 C210 2.551 . S
C247 C50 2.387 . S
C249 C99 2.542 . S
C251 C139 2.390 . S
C253 C10 2.388 . S
C255 C170 2.550 . S
C257 C219 2.392 . S
C259 C59 2.539 . S
C261 C90 2.352 . S
C263 C130 2.556 . S
C265 C7 1.946 . S
C267 C82 1.848 . S
C269 C47 1.946 . S
C271 C2 1.850 . S
C273 C87 1.921 . S
C275 C42 1.884 . S
C277 C136 1.936 . S
C279 C171 1.881 . S
C281 C176 1.943 . S
C283 C211 1.848 . S
C285 C131 1.850 . S
C287 C216 1.945 . S
C289 C16 1.401 . S
C291 C91 1.460 . S
C293 C56 1.401 . S
C295 C11 1.437 . S
C297 C96 1.386 . S
C299 C51 1.445 . S
C301 C127 1.397 . S
C303 C162 1.455 . S
C305 C167 1.371 . S
C307 C202 1.444 . S
C309 C122 1.436 . S
C311 C207 1.414 . S
