# Generated by pormake.
# Topology wmc, (6)-cn, num edge types: 1
# Building blocks:
#     Node 0, Type 0, BuildingBlock: JUFBIX_clean_sbu_0, # of connection points: 6
#     Node 1, Type 0, BuildingBlock: JUFBIX_clean_sbu_0, # of connection points: 6
#     Node 2, Type 0, BuildingBlock: JUFBIX_clean_sbu_0, # of connection points: 6
#     Node 3, Type 0, BuildingBlock: JUFBIX_clean_sbu_0, # of connection points: 6
#     Node 4, Type 0, BuildingBlock: JUFBIX_clean_sbu_0, # of connection points: 6
#     Node 5, Type 0, BuildingBlock: JUFBIX_clean_sbu_0, # of connection points: 6
#     Node 6, Type 0, BuildingBlock: JUFBIX_clean_sbu_0, # of connection points: 6
#     Node 7, Type 0, BuildingBlock: JUFBIX_clean_sbu_0, # of connection points: 6
#     Node 8, Type 0, BuildingBlock: JUFBIX_clean_sbu_0, # of connection points: 6
#     Node 9, Type 0, BuildingBlock: JUFBIX_clean_sbu_0, # of connection points: 6
#     Node 10, Type 0, BuildingBlock: JUFBIX_clean_sbu_0, # of connection points: 6
#     Node 11, Type 0, BuildingBlock: JUFBIX_clean_sbu_0, # of connection points: 6
#     Node 12, Type 0, BuildingBlock: JUFBIX_clean_sbu_0, # of connection points: 6
#     Node 13, Type 0, BuildingBlock: JUFBIX_clean_sbu_0, # of connection points: 6
#     Node 14, Type 0, BuildingBlock: JUFBIX_clean_sbu_0, # of connection points: 6
#     Node 15, Type 0, BuildingBlock: JUFBIX_clean_sbu_0, # of connection points: 6
#     Node 16, Type 0, BuildingBlock: JUFBIX_clean_sbu_0, # of connection points: 6
#     Node 17, Type 0, BuildingBlock: JUFBIX_clean_sbu_0, # of connection points: 6
#     Edge 18, Type (0, 0), BuildingBlock: CIFDUS_clean_linker_0, # of connection points: 2
#     Edge 19, Type (0, 0), BuildingBlock: CIFDUS_clean_linker_0, # of connection points: 2
#     Edge 20, Type (0, 0), BuildingBlock: CIFDUS_clean_linker_0, # of connection points: 2
#     Edge 21, Type (0, 0), BuildingBlock: CIFDUS_clean_linker_0, # of connection points: 2
#     Edge 22, Type (0, 0), BuildingBlock: CIFDUS_clean_linker_0, # of connection points: 2
#     Edge 23, Type (0, 0), BuildingBlock: CIFDUS_clean_linker_0, # of connection points: 2
#     Edge 24, Type (0, 0), BuildingBlock: CIFDUS_clean_linker_0, # of connection points: 2
#     Edge 25, Type (0, 0), BuildingBlock: CIFDUS_clean_linker_0, # of connection points: 2
#     Edge 26, Type (0, 0), BuildingBlock: CIFDUS_clean_linker_0, # of connection points: 2
#     Edge 27, Type (0, 0), BuildingBlock: CIFDUS_clean_linker_0, # of connection points: 2
#     Edge 28, Type (0, 0), BuildingBlock: CIFDUS_clean_linker_0, # of connection points: 2
#     Edge 29, Type (0, 0), BuildingBlock: CIFDUS_clean_linker_0, # of connection points: 2
#     Edge 30, Type (0, 0), BuildingBlock: CIFDUS_clean_linker_0, # of connection points: 2
#     Edge 31, Type (0, 0), BuildingBlock: CIFDUS_clean_linker_0, # of connection points: 2
#     Edge 32, Type (0, 0), BuildingBlock: CIFDUS_clean_linker_0, # of connection points: 2
#     Edge 33, Type (0, 0), BuildingBlock: CIFDUS_clean_linker_0, # of connection points: 2
#     Edge 34, Type (0, 0), BuildingBlock: CIFDUS_clean_linker_0, # of connection points: 2
#     Edge 35, Type (0, 0), BuildingBlock: CIFDUS_clean_linker_0, # of connection points: 2
#     Edge 36, Type (0, 0), BuildingBlock: CIFDUS_clean_linker_0, # of connection points: 2
#     Edge 37, Type (0, 0), BuildingBlock: CIFDUS_clean_linker_0, # of connection points: 2
#     Edge 38, Type (0, 0), BuildingBlock: CIFDUS_clean_linker_0, # of connection points: 2
#     Edge 39, Type (0, 0), BuildingBlock: CIFDUS_clean_linker_0, # of connection points: 2
#     Edge 40, Type (0, 0), BuildingBlock: CIFDUS_clean_linker_0, # of connection points: 2
#     Edge 41, Type (0, 0), BuildingBlock: CIFDUS_clean_linker_0, # of connection points: 2
#     Edge 42, Type (0, 0), BuildingBlock: CIFDUS_clean_linker_0, # of connection points: 2
#     Edge 43, Type (0, 0), BuildingBlock: CIFDUS_clean_linker_0, # of connection points: 2
#     Edge 44, Type (0, 0), BuildingBlock: CIFDUS_clean_linker_0, # of connection points: 2
#     Edge 45, Type (0, 0), BuildingBlock: CIFDUS_clean_linker_0, # of connection points: 2
#     Edge 46, Type (0, 0), BuildingBlock: CIFDUS_clean_linker_0, # of connection points: 2
#     Edge 47, Type (0, 0), BuildingBlock: CIFDUS_clean_linker_0, # of connection points: 2
#     Edge 48, Type (0, 0), BuildingBlock: CIFDUS_clean_linker_0, # of connection points: 2
#     Edge 49, Type (0, 0), BuildingBlock: CIFDUS_clean_linker_0, # of connection points: 2
#     Edge 50, Type (0, 0), BuildingBlock: CIFDUS_clean_linker_0, # of connection points: 2
#     Edge 51, Type (0, 0), BuildingBlock: CIFDUS_clean_linker_0, # of connection points: 2
#     Edge 52, Type (0, 0), BuildingBlock: CIFDUS_clean_linker_0, # of connection points: 2
#     Edge 53, Type (0, 0), BuildingBlock: CIFDUS_clean_linker_0, # of connection points: 2
#     Edge 54, Type (0, 0), BuildingBlock: CIFDUS_clean_linker_0, # of connection points: 2
#     Edge 55, Type (0, 0), BuildingBlock: CIFDUS_clean_linker_0, # of connection points: 2
#     Edge 56, Type (0, 0), BuildingBlock: CIFDUS_clean_linker_0, # of connection points: 2
#     Edge 57, Type (0, 0), BuildingBlock: CIFDUS_clean_linker_0, # of connection points: 2
#     Edge 58, Type (0, 0), BuildingBlock: CIFDUS_clean_linker_0, # of connection points: 2
#     Edge 59, Type (0, 0), BuildingBlock: CIFDUS_clean_linker_0, # of connection points: 2
#     Edge 60, Type (0, 0), BuildingBlock: CIFDUS_clean_linker_0, # of connection points: 2
#     Edge 61, Type (0, 0), BuildingBlock: CIFDUS_clean_linker_0, # of connection points: 2
#     Edge 62, Type (0, 0), BuildingBlock: CIFDUS_clean_linker_0, # of connection points: 2
#     Edge 63, Type (0, 0), BuildingBlock: CIFDUS_clean_linker_0, # of connection points: 2
#     Edge 64, Type (0, 0), BuildingBlock: CIFDUS_clean_linker_0, # of connection points: 2
#     Edge 65, Type (0, 0), BuildingBlock: CIFDUS_clean_linker_0, # of connection points: 2
#     Edge 66, Type (0, 0), BuildingBlock: CIFDUS_clean_linker_0, # of connection points: 2
#     Edge 67, Type (0, 0), BuildingBlock: CIFDUS_clean_linker_0, # of connection points: 2
#     Edge 68, Type (0, 0), BuildingBlock: CIFDUS_clean_linker_0, # of connection points: 2
#     Edge 69, Type (0, 0), BuildingBlock: CIFDUS_clean_linker_0, # of connection points: 2
#     Edge 70, Type (0, 0), BuildingBlock: CIFDUS_clean_linker_0, # of connection points: 2
#     Edge 71, Type (0, 0), BuildingBlock: CIFDUS_clean_linker_0, # of connection points: 2
# Relax obj value: 0.522
# Max RMSD: 0.260
# Mean RMSD: 0.260
data_MOF--net-wmc--node1-JUFBIX_clean_sbu_0--edge1-CIFDUS_clean_linker_0
_symmetry_space_group_name_H-M    P1
_symmetry_Int_Tables_number       1
_symmetry_cell_setting            triclinic
loop_
_symmetry_equiv_pos_as_xyz
'x, y, z'
_cell_length_a     45.352097
_cell_length_b     45.342081
_cell_length_c     25.182349
_cell_angle_alpha  90.07102
_cell_angle_beta   90.270036
_cell_angle_gamma 119.94847
loop_
_atom_site_label
_atom_site_type_symbol
_atom_site_fract_x
_atom_site_fract_y
_atom_site_fract_z
_atom_type_partial_charge
Co0 Co 0.62416 0.11639 -0.00021 0.0
C1 C 0.55538 0.07584 0.97897 0.0
Co2 Co 0.59865 0.1477 -0.0014 0.0
C3 C 0.68199 0.10993 0.03592 0.0
C4 C 0.65404 0.0728 0.9758 0.0
N5 N 0.65335 0.09738 0.0049 0.0
N6 N 0.70063 0.09461 0.02691 0.0
C7 C 0.6827 0.0709 0.9894 0.0
H8 H 0.68927 0.13025 0.06457 0.0
H9 H 0.63554 0.05797 0.94543 0.0
C10 C 0.66632 0.18795 0.01492 0.0
N11 N 0.57275 0.16941 -0.0012 0.0
C12 C 0.58145 0.20226 0.98999 0.0
C13 C 0.54006 0.15434 0.01477 0.0
N14 N 0.5553 0.20793 -0.00046 0.0
C15 C 0.52931 0.17769 0.01498 0.0
C16 C 0.60054 0.12292 0.0974 0.0
O17 O 0.6637 0.1589 0.01151 0.0
O18 O 0.63953 0.19014 0.01147 0.0
O19 O 0.59123 0.14073 0.0713 0.0
O20 O 0.61641 0.11014 0.07416 0.0
O21 O 0.5585 0.10519 0.98435 0.0
H22 H 0.52521 0.12826 0.02787 0.0
H23 H 0.60658 0.22173 0.97782 0.0
O24 O 0.5819 0.07283 0.98579 0.0
O25 O 0.63093 0.12294 0.92474 0.0
O26 O 0.60556 0.15379 0.92585 0.0
C27 C 0.61954 0.13987 0.90024 0.0
H28 H 0.69024 0.0539 0.97176 0.0
H29 H 0.50463 0.17304 0.02795 0.0
Co30 Co 0.9351 0.51928 0.98774 0.0
C31 C 0.97767 0.49085 0.97029 0.0
Co32 Co 0.90701 0.4626 0.98385 0.0
C33 C 0.94101 0.58279 0.02641 0.0
C34 C 0.9814 0.59309 0.97262 0.0
N35 N 0.95468 0.56722 -0.00298 0.0
N36 N 0.95779 0.61709 0.02094 0.0
C37 C 0.98349 0.62353 0.98737 0.0
H38 H 0.91887 0.56919 0.05134 0.0
H39 H 0.9977 0.59001 0.94464 0.0
C40 C 0.86408 0.4885 -0.00337 0.0
N41 N 0.88332 0.41549 0.97782 0.0
C42 C 0.85298 0.39447 0.0004 0.0
C43 C 0.88976 0.39509 0.94682 0.0
N44 N 0.83991 0.36203 0.98412 0.0
C45 C 0.8631 0.36209 0.95081 0.0
C46 C 0.92614 0.4857 0.08436 0.0
O47 O 0.89174 0.51661 -0.00427 0.0
O48 O 0.8652 0.46135 -0.00734 0.0
O49 O 0.91074 0.45892 0.05644 0.0
O50 O 0.93826 0.51472 0.06247 0.0
O51 O 0.94883 0.46389 0.97399 0.0
H52 H 0.91161 0.40383 0.9212 0.0
H53 H 0.84011 0.40286 0.02736 0.0
O54 O 0.97926 0.51987 0.97704 0.0
O55 O 0.93177 0.52274 0.91287 0.0
O56 O 0.90396 0.46661 0.91124 0.0
C57 C 0.91702 0.49483 0.88697 0.0
H58 H 1.00206 0.6485 0.97312 0.0
H59 H 0.86012 0.34025 0.92876 0.0
Co60 Co 0.54023 0.42882 -0.001 0.0
C61 C 0.56325 0.49738 0.97758 0.0
Co62 Co 0.59687 0.45976 -0.00111 0.0
C63 C 0.4771 0.36816 0.03228 0.0
C64 C 0.46688 0.398 0.97734 0.0
N65 N 0.49264 0.39752 0.00337 0.0
N66 N 0.44286 0.35043 0.02528 0.0
C67 C 0.43651 0.36945 -0.00915 0.0
H68 H 0.49059 0.3601 0.05872 0.0
H69 H 0.46997 0.41767 0.94993 0.0
C70 C 0.57607 0.39286 0.01494 0.0
N71 N 0.64374 0.48872 -0.00149 0.0
C72 C 0.66889 0.4822 0.98612 0.0
C73 C 0.66 0.52113 0.01653 0.0
N74 N 0.70011 0.50924 -0.0041 0.0
C75 C 0.69449 0.53379 0.01476 0.0
C76 C 0.56954 0.45554 0.09696 0.0
O77 O 0.54725 0.39103 0.01117 0.0
O78 O 0.60276 0.42184 0.01255 0.0
O79 O 0.59696 0.46765 0.07106 0.0
O80 O 0.54126 0.43695 0.07346 0.0
O81 O 0.5909 0.49718 0.98409 0.0
H82 H 0.64758 0.53431 0.03224 0.0
H83 H 0.66432 0.45784 0.97138 0.0
O84 O 0.5351 0.46929 0.98399 0.0
O85 O 0.54022 0.42154 0.92466 0.0
O86 O 0.59634 0.45207 0.92649 0.0
C87 C 0.56867 0.43519 0.90065 0.0
H88 H 0.41157 0.36304 0.97596 0.0
H89 H 0.71384 0.55858 0.02892 0.0
Co90 Co 0.90466 0.45802 0.48173 0.0
C91 C 0.85774 0.38967 0.49218 0.0
Co92 Co 0.92962 0.42636 0.48811 0.0
C93 C 0.85639 0.48179 0.49324 0.0
C94 C 0.89707 0.51302 0.44072 0.0
N95 N 0.88533 0.48539 0.47217 0.0
N96 N 0.84962 0.50605 0.47617 0.0
C97 C 0.87528 0.52581 0.44324 0.0
H98 H 0.84048 0.46161 0.52037 0.0
H99 H 0.91968 0.52284 0.41656 0.0
C100 C 0.9763 0.49635 0.47432 0.0
N101 N 0.94666 0.396 0.49961 0.0
C102 C 0.932 0.36673 0.52884 0.0
C103 C 0.97453 0.39722 0.47881 0.0
N104 N 0.94961 0.34977 0.52707 0.0
C105 C 0.97648 0.36922 0.49563 0.0
C106 C 0.91638 0.43537 0.38605 0.0
O107 O 0.94863 0.49693 0.47573 0.0
O108 O 0.97544 0.46775 0.48075 0.0
O109 O 0.92839 0.42009 0.41329 0.0
O110 O 0.90409 0.45175 0.40895 0.0
O111 O 0.88469 0.38767 0.49353 0.0
H112 H 0.99213 0.417 0.45255 0.0
H113 H 0.90896 0.35813 0.55157 0.0
O114 O 0.86043 0.41877 0.48716 0.0
O115 O 0.90606 0.46457 0.55479 0.0
O116 O 0.93076 0.43356 0.5624 0.0
C117 C 0.91933 0.45131 0.58358 0.0
H118 H 0.87748 0.54723 0.42099 0.0
H119 H 0.99612 0.36344 0.48483 0.0
Co120 Co 0.59762 0.46119 0.49368 0.0
C121 C 0.66677 0.48719 0.50439 0.0
Co122 Co 0.62606 0.51784 0.50115 0.0
C123 C 0.58407 0.39245 0.50037 0.0
C124 C 0.54761 0.39563 0.45007 0.0
N125 N 0.57458 0.41448 0.48203 0.0
N126 N 0.5646 0.36083 0.48058 0.0
C127 C 0.54132 0.36255 0.44928 0.0
H128 H 0.60538 0.39956 0.52703 0.0
H129 H 0.53426 0.40555 0.42719 0.0
C130 C 0.55478 0.48931 0.48625 0.0
N131 N 0.65339 0.56541 0.51674 0.0
C132 C 0.68799 0.58427 0.51262 0.0
C133 C 0.64589 0.5824 0.55335 0.0
N134 N 0.70229 0.61108 0.54682 0.0
C135 C 0.67563 0.6101 0.57192 0.0
C136 C 0.61842 0.49779 0.39892 0.0
O137 O 0.55672 0.46229 0.4881 0.0
O138 O 0.58226 0.51822 0.49311 0.0
O139 O 0.63261 0.52487 0.42693 0.0
O140 O 0.6036 0.46877 0.42101 0.0
O141 O 0.66705 0.51523 0.50705 0.0
H142 H 0.62086 0.57313 0.57001 0.0
H143 H 0.70287 0.57649 0.48915 0.0
O144 O 0.63858 0.46016 0.49833 0.0
O145 O 0.59134 0.45406 0.56644 0.0
O146 O 0.61878 0.50969 0.57509 0.0
C147 C 0.60333 0.48027 0.59579 0.0
H148 H 0.5222 0.34181 0.42558 0.0
H149 H 0.67753 0.62697 0.60387 0.0
Co150 Co 0.58978 0.14347 0.49259 0.0
C151 C 0.56158 0.18425 0.50103 0.0
Co152 Co 0.53315 0.1127 0.49977 0.0
C153 C 0.66139 0.1975 0.49902 0.0
C154 C 0.65356 0.15501 0.45138 0.0
N155 N 0.63685 0.1665 0.48157 0.0
N156 N 0.69263 0.20544 0.48129 0.0
C157 C 0.68766 0.17866 0.45143 0.0
H158 H 0.65648 0.21387 0.52431 0.0
H159 H 0.64165 0.13117 0.42978 0.0
C160 C 0.5616 0.07111 0.48589 0.0
N161 N 0.48551 0.0929 0.51217 0.0
C162 C 0.47032 0.10723 0.54091 0.0
C163 C 0.45927 0.06497 0.49026 0.0
N164 N 0.43586 0.08968 0.53737 0.0
C165 C 0.42901 0.06285 0.50571 0.0
C166 C 0.55381 0.12629 0.3972 0.0
O167 O 0.58829 0.10045 0.48727 0.0
O168 O 0.53259 0.06905 0.49348 0.0
O169 O 0.52679 0.11183 0.42482 0.0
O170 O 0.58275 0.14201 0.41971 0.0
O171 O 0.53518 0.15518 0.50331 0.0
H172 H 0.46194 0.04789 0.46326 0.0
H173 H 0.48435 0.1305 0.56365 0.0
O174 O 0.59038 0.18614 0.49678 0.0
O175 O 0.59639 0.1441 0.56594 0.0
O176 O 0.54073 0.11401 0.57446 0.0
C177 C 0.57036 0.12903 0.59528 0.0
H178 H 0.70723 0.1767 0.42989 0.0
H179 H 0.40384 0.04351 0.49294 0.0
Co180 Co 0.2923 0.45152 0.33511 0.0
C181 C 0.22074 0.4082 0.31996 0.0
Co182 Co 0.26317 0.47913 0.32936 0.0
C183 C 0.34948 0.44552 0.37554 0.0
C184 C 0.31868 0.404 0.32325 0.0
N185 N 0.32023 0.43165 0.3459 0.0
N186 N 0.36632 0.42793 0.37197 0.0
C187 C 0.34665 0.40157 0.33928 0.0
H188 H 0.35844 0.46834 0.39934 0.0
H189 H 0.29902 0.38721 0.29572 0.0
C190 C 0.33278 0.52251 0.33949 0.0
N191 N 0.24005 0.50326 0.3218 0.0
C192 C 0.25091 0.53513 0.34013 0.0
C193 C 0.21148 0.49516 0.29394 0.0
N194 N 0.2308 0.54744 0.32424 0.0
C195 C 0.20563 0.52228 0.2956 0.0
C196 C 0.26999 0.46421 0.43118 0.0
O197 O 0.33335 0.49488 0.34054 0.0
O198 O 0.30437 0.52111 0.33495 0.0
O199 O 0.25756 0.4783 0.4025 0.0
O200 O 0.28613 0.45108 0.40978 0.0
O201 O 0.2221 0.43692 0.32263 0.0
H202 H 0.19659 0.47164 0.27217 0.0
H203 H 0.27358 0.54953 0.36409 0.0
O204 O 0.24853 0.40729 0.32684 0.0
O205 O 0.29761 0.4522 0.26032 0.0
O206 O 0.2684 0.47915 0.25631 0.0
C207 C 0.28325 0.46528 0.23324 0.0
H208 H 0.35246 0.38224 0.32655 0.0
H209 H 0.18546 0.52401 0.27528 0.0
Co210 Co 0.5972 0.84655 0.32063 0.0
C211 C 0.64271 0.82208 0.3052 0.0
Co212 Co 0.57095 0.78987 0.31512 0.0
C213 C 0.60102 0.90892 0.36291 0.0
C214 C 0.64257 0.92048 0.31086 0.0
N215 N 0.61492 0.89404 0.33238 0.0
N216 N 0.61889 0.94346 0.36129 0.0
C217 C 0.64512 0.95058 0.3285 0.0
H218 H 0.57829 0.89463 0.38636 0.0
H219 H 0.65959 0.91808 0.28352 0.0
C220 C 0.52518 0.81225 0.32568 0.0
N221 N 0.55107 0.74307 0.30555 0.0
C222 C 0.52229 0.71787 0.32725 0.0
C223 C 0.56229 0.72697 0.2734 0.0
N224 N 0.51521 0.68676 0.30998 0.0
C225 C 0.54044 0.69244 0.27621 0.0
C226 C 0.58702 0.81149 0.41638 0.0
O227 O 0.55244 0.84095 0.32665 0.0
O228 O 0.52723 0.78545 0.32157 0.0
O229 O 0.57293 0.78484 0.38791 0.0
O230 O 0.59882 0.84061 0.39496 0.0
O231 O 0.61449 0.79442 0.30786 0.0
H232 H 0.58457 0.73956 0.24853 0.0
H233 H 0.50673 0.7223 0.35497 0.0
O234 O 0.64274 0.85026 0.31191 0.0
O235 O 0.59545 0.85145 0.24594 0.0
O236 O 0.56973 0.79541 0.24241 0.0
C237 C 0.58241 0.82393 0.2191 0.0
H238 H 0.66468 0.97587 0.31717 0.0
H239 H 0.54229 0.67311 0.25362 0.0
Co240 Co 0.20097 0.76356 0.33623 0.0
C241 C 0.22749 0.83228 0.31507 0.0
Co242 Co 0.25792 0.79038 0.33258 0.0
C243 C 0.13542 0.69955 0.33978 0.0
C244 C 0.13366 0.73998 0.38049 0.0
N245 N 0.15285 0.73417 0.34588 0.0
N246 N 0.10744 0.68368 0.37111 0.0
C247 C 0.10617 0.70932 0.39614 0.0
H248 H 0.14508 0.68587 0.31726 0.0
H249 H 0.14118 0.76454 0.39805 0.0
C250 C 0.2319 0.72265 0.34974 0.0
N251 N 0.3054 0.81653 0.32855 0.0
C252 C 0.32915 0.8078 0.31645 0.0
C253 C 0.32358 0.84942 0.34387 0.0
N254 N 0.36129 0.83409 0.32343 0.0
C255 C 0.35763 0.86023 0.34056 0.0
C256 C 0.23475 0.7888 0.43303 0.0
O257 O 0.20508 0.72467 0.34807 0.0
O258 O 0.26044 0.74967 0.34409 0.0
O259 O 0.26128 0.79877 0.40545 0.0
O260 O 0.20562 0.77266 0.41095 0.0
O261 O 0.25441 0.83023 0.31974 0.0
H262 H 0.31286 0.86436 0.3589 0.0
H263 H 0.32299 0.78253 0.30379 0.0
O264 O 0.19856 0.80524 0.32262 0.0
O265 O 0.198 0.7555 0.2611 0.0
O266 O 0.25429 0.78253 0.2599 0.0
C267 C 0.2259 0.76781 0.23541 0.0
H268 H 0.08784 0.7061 0.42623 0.0
H269 H 0.3781 0.88507 0.35238 0.0
Co270 Co 0.5724 0.78707 0.81627 0.0
C271 C 0.52806 0.71848 0.82731 0.0
Co272 Co 0.59952 0.75767 0.82038 0.0
C273 C 0.52066 0.80411 0.83317 0.0
C274 C 0.55752 0.83853 0.77807 0.0
N275 N 0.55028 0.81178 0.80968 0.0
N276 N 0.50868 0.8244 0.81682 0.0
C277 C 0.53193 0.84642 0.78249 0.0
H278 H 0.50753 0.78333 0.86078 0.0
H279 H 0.57919 0.85055 0.75186 0.0
C280 C 0.64324 0.82836 0.80497 0.0
N281 N 0.61843 0.72894 0.83005 0.0
C282 C 0.60454 0.69993 0.85973 0.0
C283 C 0.64565 0.72995 0.80704 0.0
N284 N 0.62176 0.68275 0.8559 0.0
C285 C 0.64786 0.7019 0.82298 0.0
C286 C 0.58303 0.76508 0.7194 0.0
O287 O 0.61461 0.82692 0.80833 0.0
O288 O 0.64426 0.80061 0.81079 0.0
O289 O 0.59686 0.75112 0.74555 0.0
O290 O 0.57032 0.7807 0.74345 0.0
O291 O 0.55547 0.71741 0.82735 0.0
H292 H 0.6624 0.7494 0.77959 0.0
H293 H 0.58215 0.6915 0.88404 0.0
O294 O 0.52982 0.74706 0.82332 0.0
O295 O 0.57513 0.79383 0.88901 0.0
O296 O 0.6021 0.76502 0.89513 0.0
C297 C 0.59001 0.78197 0.91703 0.0
H298 H 0.52965 0.86554 0.76006 0.0
H299 H 0.66695 0.69576 0.81035 0.0
Co300 Co 0.2689 0.79814 0.83251 0.0
C301 C 0.33755 0.82934 0.84674 0.0
Co302 Co 0.29207 0.85454 0.8371 0.0
C303 C 0.25904 0.73032 0.84429 0.0
C304 C 0.21956 0.73017 0.79719 0.0
N305 N 0.24788 0.75097 0.82532 0.0
N306 N 0.23897 0.69766 0.82898 0.0
C307 C 0.21394 0.69741 0.79962 0.0
H308 H 0.28163 0.739 0.8686 0.0
H309 H 0.20447 0.73837 0.77503 0.0
C310 C 0.22243 0.82253 0.81726 0.0
N311 N 0.318 0.90256 0.84665 0.0
C312 C 0.34666 0.91889 0.87742 0.0
C313 C 0.31771 0.92774 0.81877 0.0
N314 N 0.36459 0.9529 0.86913 0.0
C315 C 0.34599 0.9585 0.83263 0.0
C316 C 0.28835 0.83105 0.73549 0.0
O317 O 0.22677 0.7969 0.82098 0.0
O318 O 0.24793 0.85247 0.82573 0.0
O319 O 0.29875 0.85857 0.76181 0.0
O320 O 0.27625 0.80285 0.75967 0.0
O321 O 0.33386 0.85514 0.84551 0.0
H322 H 0.29928 0.92382 0.78815 0.0
H323 H 0.35497 0.90585 0.9043 0.0
O324 O 0.31142 0.80015 0.84263 0.0
O325 O 0.26093 0.79353 0.90537 0.0
O326 O 0.28434 0.84912 0.91202 0.0
C327 C 0.26977 0.81983 0.93361 0.0
H328 H 0.19375 0.67534 0.77964 0.0
H329 H 0.35316 0.98292 0.815 0.0
Co330 Co 0.25877 0.47805 0.83351 0.0
C331 C 0.23335 0.52013 0.85021 0.0
Co332 Co 0.20199 0.44832 0.83368 0.0
C333 C 0.3308 0.52995 0.82108 0.0
C334 C 0.32295 0.48288 0.853 0.0
N335 N 0.30607 0.49819 0.83412 0.0
N336 N 0.36233 0.5348 0.83093 0.0
C337 C 0.35728 0.50511 0.85089 0.0
H338 H 0.32575 0.54921 0.8054 0.0
H339 H 0.31104 0.45743 0.86914 0.0
C340 C 0.22856 0.40618 0.81257 0.0
N341 N 0.154 0.43042 0.83763 0.0
C342 C 0.13812 0.44338 0.8679 0.0
C343 C 0.12872 0.40609 0.80806 0.0
N344 N 0.10426 0.42851 0.858 0.0
C345 C 0.09835 0.40472 0.82063 0.0
C346 C 0.23055 0.47186 0.73507 0.0
O347 O 0.25521 0.43506 0.81895 0.0
O348 O 0.19942 0.4041 0.81882 0.0
O349 O 0.20211 0.45553 0.75896 0.0
O350 O 0.25832 0.48472 0.76114 0.0
O351 O 0.20633 0.49154 0.84618 0.0
H352 H 0.13226 0.39105 0.77808 0.0
H353 H 0.15122 0.46359 0.89672 0.0
O354 O 0.26183 0.52123 0.84677 0.0
O355 O 0.25884 0.47066 0.90593 0.0
O356 O 0.20304 0.44142 0.908 0.0
C357 C 0.23159 0.45352 0.93167 0.0
H358 H 0.37696 0.50019 0.86517 0.0
H359 H 0.07386 0.38803 0.80241 0.0
Co360 Co 0.95676 0.79035 0.66814 0.0
C361 C 0.88696 0.74311 0.65916 0.0
Co362 Co 0.92485 0.81475 0.65871 0.0
C363 C 1.01553 0.79071 0.71456 0.0
C364 C 0.99069 0.74932 0.65969 0.0
N365 N 0.98754 0.77443 0.68263 0.0
N366 N 0.03641 0.77735 0.71186 0.0
C367 C 1.02047 0.75101 0.67746 0.0
H368 H 1.02139 0.81324 0.73737 0.0
H369 H 0.97328 0.73181 0.63027 0.0
C370 C 0.99318 0.86216 0.66381 0.0
N371 N 0.89722 0.83343 0.64653 0.0
C372 C 0.90131 0.86313 0.6654 0.0
C373 C 0.86912 0.8207 0.61558 0.0
N374 N 0.87696 0.86952 0.64738 0.0
C375 C 0.85657 0.84277 0.61616 0.0
C376 C 0.93521 0.80663 0.76191 0.0
O377 O 0.99532 0.83542 0.66843 0.0
O378 O 0.96397 0.85917 0.65874 0.0
O379 O 0.92054 0.81782 0.73186 0.0
O380 O 0.9517 0.79348 0.74198 0.0
O381 O 0.88607 0.77063 0.65792 0.0
H382 H 0.8588 0.79719 0.59321 0.0
H383 H 0.92188 0.87983 0.69174 0.0
O384 O 0.91575 0.7444 0.66559 0.0
O385 O 0.96127 0.7875 0.594 0.0
O386 O 0.92902 0.81098 0.58589 0.0
C387 C 0.9451 0.79768 0.56503 0.0
H388 H 1.02982 0.73435 0.66499 0.0
H389 H 0.83482 0.83991 0.59385 0.0
Co390 Co 0.27072 0.18576 0.65688 0.0
C391 C 0.31109 0.15611 0.64236 0.0
Co392 Co 0.23893 0.12924 0.64981 0.0
C393 C 0.277 0.24843 0.70007 0.0
C394 C 0.3183 0.25975 0.64764 0.0
N395 N 0.29098 0.23341 0.67008 0.0
N396 N 0.29411 0.28285 0.69673 0.0
C397 C 0.32038 0.28992 0.66403 0.0
H398 H 0.25424 0.2343 0.72352 0.0
H399 H 0.33488 0.25721 0.61958 0.0
C400 C 0.1991 0.15811 0.66021 0.0
N401 N 0.21547 0.08229 0.63838 0.0
C402 C 0.18507 0.05802 0.65743 0.0
C403 C 0.22597 0.06525 0.60688 0.0
N404 N 0.17654 0.02662 0.6394 0.0
C405 C 0.20229 0.03116 0.6077 0.0
C406 C 0.25567 0.14897 0.75188 0.0
O407 O 0.22842 0.18425 0.66169 0.0
O408 O 0.19666 0.12909 0.6555 0.0
O409 O 0.23938 0.12277 0.72281 0.0
O410 O 0.27058 0.17842 0.73101 0.0
O411 O 0.28139 0.13001 0.64342 0.0
H412 H 0.24919 0.07691 0.58406 0.0
H413 H 0.1696 0.06323 0.68421 0.0
O414 O 0.31407 0.1856 0.64964 0.0
O415 O 0.27057 0.19203 0.58223 0.0
O416 O 0.2393 0.13612 0.57708 0.0
C417 C 0.25502 0.16492 0.55459 0.0
H418 H 0.33924 0.31515 0.65118 0.0
H419 H 0.20353 1.0113 0.58565 0.0
Co420 Co 0.86562 0.09294 0.66163 0.0
C421 C 0.89245 0.16358 0.64479 0.0
Co422 Co 0.92224 0.12222 0.65709 0.0
C423 C 0.80306 0.035 0.70086 0.0
C424 C 0.79165 0.06546 0.6492 0.0
N425 N 0.818 0.06436 0.67196 0.0
N426 N 0.76869 1.01765 0.69663 0.0
C427 C 0.76153 0.03711 0.66444 0.0
H428 H 0.81714 0.02629 0.72464 0.0
H429 H 0.79416 0.08507 0.62211 0.0
C430 C 0.89729 0.0534 0.66943 0.0
N431 N 0.96926 0.14628 0.64902 0.0
C432 C 0.99144 0.13711 0.66798 0.0
C433 C 0.98815 0.17345 0.6179 0.0
N434 N 1.02314 0.15688 0.64919 0.0
C435 C 1.02133 0.18009 0.61808 0.0
C436 C 0.90073 0.11776 0.7581 0.0
O437 O 0.86906 0.05273 0.66905 0.0
O438 O 0.92427 0.08178 0.66506 0.0
O439 O 0.92724 0.12964 0.72981 0.0
O440 O 0.87148 0.1008 0.73642 0.0
O441 O 0.91991 0.16248 0.64817 0.0
H442 H 0.97814 0.18647 0.59442 0.0
H443 H 0.98433 0.11561 0.69389 0.0
O444 O 0.86393 0.13579 0.65151 0.0
O445 O 0.86087 0.08595 0.58679 0.0
O446 O 0.91692 0.11514 0.58441 0.0
C447 C 0.88845 0.09963 0.56051 0.0
H448 H 0.73626 0.03089 0.65155 0.0
H449 H 0.042 0.19921 0.59472 0.0
Co450 Co 0.23982 0.12479 0.15152 0.0
C451 C 0.19456 0.05688 0.16419 0.0
Co452 Co 0.26629 0.09451 0.15611 0.0
C453 C 0.19004 0.14673 0.16417 0.0
C454 C 0.23029 0.17898 0.1117 0.0
N455 N 0.21942 0.15139 0.14302 0.0
N456 N 0.18222 0.1703 0.1473 0.0
C457 C 0.20762 0.19072 0.11445 0.0
H458 H 0.1745 0.12624 0.19109 0.0
H459 H 0.25279 0.1894 0.08723 0.0
C460 C 0.31147 0.16422 0.13905 0.0
N461 N 0.28398 0.06461 0.16669 0.0
C462 C 0.26989 0.03558 0.19648 0.0
C463 C 0.3112 0.06542 0.14404 0.0
N464 N 0.28713 1.01831 0.19321 0.0
C465 C 0.31326 0.03737 0.16027 0.0
C466 C 0.24938 0.1011 0.05498 0.0
O467 O 0.28327 0.16375 0.14245 0.0
O468 O 0.31157 0.13609 0.14562 0.0
O469 O 0.26307 0.08708 0.08134 0.0
O470 O 0.23724 0.11733 0.07879 0.0
O471 O 0.22189 0.05562 0.16408 0.0
H472 H 0.32812 0.08482 0.11667 0.0
H473 H 0.24737 0.02726 0.22046 0.0
O474 O 0.19634 0.08556 0.15982 0.0
O475 O 0.24316 0.13254 0.2243 0.0
O476 O 0.26931 0.10283 0.23054 0.0
C477 C 0.25789 0.12045 0.25232 0.0
H478 H 0.20903 0.21182 0.09229 0.0
H479 H 0.33234 0.03118 0.14776 0.0
Co480 Co 0.92932 0.12366 0.15766 0.0
C481 C 0.99746 0.14747 0.17164 0.0
Co482 Co 0.9586 0.18044 0.16267 0.0
C483 C 0.90798 0.0523 0.17269 0.0
C484 C 0.87672 0.05956 0.11634 0.0
N485 N 0.9036 0.07667 0.14924 0.0
N486 N 0.88483 1.02072 0.15583 0.0
C487 C 0.86506 0.02525 0.12047 0.0
H488 H 0.92788 0.05763 0.20143 0.0
H489 H 0.86666 0.07131 0.09008 0.0
C490 C 0.8884 0.15431 0.14423 0.0
N491 N 0.98801 0.22827 0.17365 0.0
C492 C 1.01727 0.24353 0.20345 0.0
C493 C 0.98652 0.2545 0.15151 0.0
N494 N 0.03403 0.27804 0.20065 0.0
C495 C 1.01438 0.28479 0.16804 0.0
C496 C 0.95202 0.15707 0.06131 0.0
O497 O 0.88978 0.12707 0.14787 0.0
O498 O 0.91608 0.18296 0.15145 0.0
O499 O 0.96573 0.18472 0.08796 0.0
O500 O 0.93658 0.12862 0.0849 0.0
O501 O 0.99818 0.17582 0.17127 0.0
H502 H 0.96678 0.25182 0.12434 0.0
H503 H 1.02612 0.22957 0.22718 0.0
O504 O 0.96904 0.12035 0.16666 0.0
O505 O 0.92171 0.11922 0.23038 0.0
O506 O 0.95047 0.17505 0.23689 0.0
C507 C 0.93336 0.14598 0.25849 0.0
H508 H 0.8444 1.00527 0.09777 0.0
H509 H 1.01999 0.30997 0.15601 0.0
Co510 Co 0.92853 0.81411 0.16586 0.0
C511 C 0.90593 0.85842 0.18677 0.0
Co512 Co 0.87182 0.78746 0.16444 0.0
C513 C 1.00017 0.86579 0.15572 0.0
C514 C 0.99269 0.81807 0.18403 0.0
N515 N 0.97566 0.83355 0.16669 0.0
N516 N 1.03178 0.87097 0.16571 0.0
C517 C 1.027 0.84084 0.18334 0.0
H518 H 0.99485 0.88518 0.14154 0.0
H519 H 0.98086 0.79215 0.19823 0.0
C520 C 0.89676 0.74362 0.13919 0.0
N521 N 0.82399 0.77031 0.16775 0.0
C522 C 0.80801 0.78334 0.19758 0.0
C523 C 0.79863 0.74497 0.13968 0.0
N524 N 0.77395 0.76734 0.18908 0.0
C525 C 0.76807 0.74296 0.15286 0.0
C526 C 0.90134 0.8133 0.06784 0.0
O527 O 0.92407 0.77165 0.14709 0.0
O528 O 0.86819 0.74279 0.146 0.0
O529 O 0.87266 0.79696 0.09092 0.0
O530 O 0.92878 0.82378 0.0942 0.0
O531 O 0.87751 0.83138 0.18035 0.0
H532 H 0.80214 0.72928 0.11091 0.0
H533 H 0.82106 0.80406 0.22563 0.0
O534 O 0.93295 0.85677 0.18366 0.0
O535 O 0.92768 0.80382 0.23736 0.0
O536 O 0.87189 0.7782 0.23782 0.0
C537 C 0.89984 0.78749 0.26202 0.0
H538 H 0.04677 0.8359 0.19703 0.0
H539 H 0.74338 0.72511 0.13636 0.0
H540 H 0.60818 0.27181 0.01668 0.0
H541 H 0.50098 0.2153 0.97889 0.0
H542 H 0.49772 0.26717 0.98378 0.0
H543 H 0.52478 0.32832 -0.00109 0.0
H544 H 0.63241 0.38645 0.03305 0.0
H545 H 0.636 0.33433 0.0296 0.0
C546 C 0.58426 0.27097 0.00885 0.0
C547 C 0.5548 0.23953 -0.00212 0.0
C548 C 0.58253 0.30115 0.01153 0.0
C549 C 0.52392 0.23894 0.98831 0.0
C550 C 0.52201 0.26865 -0.00905 0.0
C551 C 0.54904 0.32966 0.00605 0.0
C552 C 0.57821 0.36126 0.01668 0.0
C553 C 0.55105 0.29981 0.00296 0.0
C554 C 0.60948 0.36245 0.02512 0.0
C555 C 0.61158 0.33265 0.02291 0.0
H556 H 0.68468 0.25561 0.01204 0.0
H557 H 0.72616 0.18828 0.02288 0.0
H558 H 0.78343 0.23615 0.0156 0.0
H559 H 0.82216 0.29692 0.00014 0.0
H560 H 0.78211 0.36517 -0.00868 0.0
H561 H 0.72429 0.31757 0.0039 0.0
C562 C 0.70628 0.25152 0.01354 0.0
C563 C 0.70089 0.21826 0.01759 0.0
C564 C 0.73958 0.2794 0.00915 0.0
C565 C 0.7293 0.21348 0.01959 0.0
C566 C 0.76225 0.2409 0.0152 0.0
C567 C 0.8007 0.30123 0.00116 0.0
C568 C 0.80625 0.33428 -0.00547 0.0
C569 C 0.76767 0.27385 0.00885 0.0
C570 C 0.7784 0.33985 -0.00333 0.0
C571 C 0.74534 0.31264 0.00363 0.0
H572 H 0.71213 0.4569 0.00517 0.0
H573 H 0.76155 0.56537 0.98059 0.0
H574 H 0.81706 0.56894 0.98118 0.0
H575 H 0.85161 0.54117 0.98833 0.0
H576 H 0.80177 0.43237 0.01064 0.0
H577 H 0.74644 0.42904 0.01102 0.0
C578 C 0.73495 0.48124 -0.00087 0.0
C579 C 0.7326 0.5108 -0.00716 0.0
C580 C 0.76679 0.4831 -0.00062 0.0
C581 C 0.76262 0.54225 0.98609 0.0
C582 C 0.79439 0.54432 0.98627 0.0
C583 C 0.82865 0.51677 -0.00646 0.0
C584 C 0.83086 0.4871 -0.00048 0.0
C585 C 0.7968 0.51492 -0.00688 0.0
C586 C 0.80083 0.45563 0.00595 0.0
C587 C 0.76913 0.45366 0.00606 0.0
H588 H 0.73207 0.54012 0.49933 0.0
H589 H 0.67302 0.43068 0.51251 0.0
H590 H 0.72479 0.42709 0.50843 0.0
H591 H 0.78641 0.45452 0.49542 0.0
H592 H 0.84564 0.56359 0.47969 0.0
H593 H 0.79431 0.56784 0.4903 0.0
C594 C 0.73057 0.51553 0.50179 0.0
C595 C 0.69866 0.48574 0.50594 0.0
C596 C 0.76047 0.51353 0.49858 0.0
C597 C 0.69719 0.45405 0.50899 0.0
C598 C 0.72681 0.45192 0.50664 0.0
C599 C 0.78818 0.47925 0.49521 0.0
C600 C 0.81979 0.50867 0.48663 0.0
C601 C 0.75853 0.48143 0.50067 0.0
C602 C 0.82154 0.54052 0.48559 0.0
C603 C 0.79222 0.54297 0.49181 0.0
H604 H 0.6112 0.25181 0.50142 0.0
H605 H 0.50215 0.18503 0.49901 0.0
H606 H 0.49354 0.23357 0.49295 0.0
H607 H 0.5165 0.29505 0.4857 0.0
H608 H 0.62497 0.36267 0.4902 0.0
H609 H 0.63422 0.31411 0.49833 0.0
C610 C 0.5856 0.24795 0.49981 0.0
C611 C 0.55748 0.21472 0.50041 0.0
C612 C 0.58062 0.27621 0.49656 0.0
C613 C 0.52441 0.21023 0.49858 0.0
C614 C 0.51934 0.23802 0.49497 0.0
C615 C 0.54211 0.29905 0.48839 0.0
C616 C 0.56993 0.33228 0.48721 0.0
C617 C 0.5472 0.27108 0.49342 0.0
C618 C 0.60307 0.33727 0.49151 0.0
C619 C 0.60839 0.30951 0.49588 0.0
H620 H 0.70401 0.26989 0.48837 0.0
H621 H 0.75386 0.21015 0.49304 0.0
H622 H 0.80932 0.26189 0.49925 0.0
H623 H 0.84394 0.32406 0.49855 0.0
H624 H 0.79487 0.38464 0.49151 0.0
H625 H 0.73906 0.33287 0.49132 0.0
C626 C 0.72702 0.2683 0.49151 0.0
C627 C 0.72481 0.23619 0.48997 0.0
C628 C 0.75904 0.29835 0.4942 0.0
C629 C 0.7549 0.23453 0.49349 0.0
C630 C 0.78663 0.26412 0.49711 0.0
C631 C 0.82108 0.32604 0.49725 0.0
C632 C 0.82374 0.35831 0.49476 0.0
C633 C 0.78906 0.29617 0.49661 0.0
C634 C 0.7937 0.3602 0.49323 0.0
C635 C 0.7617 0.33056 0.49311 0.0
H636 H 0.28067 0.70405 0.33604 0.0
H637 H 0.1745 0.6636 0.37343 0.0
H638 H 0.1647 0.60601 0.36828 0.0
H639 H 0.18516 0.56629 0.34844 0.0
H640 H 0.29134 0.60536 0.31615 0.0
H641 H 0.3023 0.66387 0.32424 0.0
C642 C 0.25555 0.68265 0.34378 0.0
C643 C 0.22832 0.68835 0.35407 0.0
C644 C 0.24995 0.64913 0.34126 0.0
C645 C 0.19592 0.66019 0.36435 0.0
C646 C 0.19017 0.62705 0.36149 0.0
C647 C 0.21063 0.58771 0.34331 0.0
C648 C 0.2373 0.58169 0.33132 0.0
C649 C 0.21679 0.62115 0.34894 0.0
C650 C 0.27042 0.60951 0.32556 0.0
C651 C 0.27666 0.64293 0.33005 0.0
H652 H 0.45199 0.67502 0.32992 0.0
H653 H 0.51156 0.62546 0.31424 0.0
H654 H 0.46044 0.56986 0.32542 0.0
H655 H 0.39821 0.53518 0.33448 0.0
H656 H 0.33872 0.5852 0.34739 0.0
H657 H 0.39032 0.64063 0.34315 0.0
C658 C 0.45385 0.6521 0.32982 0.0
C659 C 0.4855 0.65436 0.32107 0.0
C660 C 0.42428 0.62023 0.33549 0.0
C661 C 0.48741 0.62434 0.32025 0.0
C662 C 0.4582 0.59257 0.32677 0.0
C663 C 0.39657 0.55821 0.33682 0.0
C664 C 0.36457 0.55595 0.34096 0.0
C665 C 0.42639 0.59015 0.33353 0.0
C666 C 0.36294 0.5861 0.34392 0.0
C667 C 0.39248 0.61788 0.34147 0.0
H668 H 0.51192 0.86388 0.31168 0.0
H669 H 0.46257 0.75591 0.34128 0.0
H670 H 0.40704 0.75262 0.34123 0.0
H671 H 0.37248 0.78085 0.33437 0.0
H672 H 0.42257 0.88846 0.3012 0.0
H673 H 0.47758 0.89133 0.30102 0.0
C674 C 0.48905 0.83961 0.31832 0.0
C675 C 0.4915 0.81026 0.32686 0.0
C676 C 0.4572 0.83779 0.31747 0.0
C677 C 0.46149 0.77896 0.33477 0.0
C678 C 0.42968 0.77704 0.33465 0.0
C679 C 0.39535 0.8048 0.32636 0.0
C680 C 0.39324 0.83446 0.31841 0.0
C681 C 0.42718 0.80631 0.32602 0.0
C682 C 0.42335 0.86534 0.30849 0.0
C683 C 0.45491 0.86703 0.30818 0.0
H684 H 0.4926 0.87357 0.82697 0.0
H685 H 0.45044 0.76481 0.83069 0.0
H686 H 0.39356 0.75655 0.84418 0.0
H687 H 0.3553 0.78015 0.84956 0.0
H688 H 0.39767 0.88917 0.84621 0.0
H689 H 0.45478 0.8974 0.8385 0.0
C690 C 0.47089 0.84815 0.83088 0.0
C691 C 0.47562 0.81991 0.8277 0.0
C692 C 0.43827 0.84359 0.8387 0.0
C693 C 0.44745 0.787 0.83352 0.0
C694 C 0.4149 0.78223 0.84094 0.0
C695 C 0.37706 0.8057 0.84768 0.0
C696 C 0.37216 0.83393 0.84809 0.0
C697 C 0.40993 0.81033 0.84294 0.0
C698 C 0.40066 0.86692 0.8459 0.0
C699 C 0.43339 0.87171 0.84124 0.0
H700 H 0.28416 0.58745 0.84793 0.0
H701 H 0.17526 0.5227 0.86152 0.0
H702 H 0.16764 0.57185 0.85826 0.0
H703 H 0.19099 0.63295 0.8457 0.0
H704 H 0.29934 0.69896 0.83331 0.0
H705 H 0.30809 0.65003 0.84235 0.0
C706 C 0.25885 0.58419 0.85086 0.0
C707 C 0.23038 0.55123 0.85454 0.0
C708 C 0.25444 0.61288 0.84876 0.0
C709 C 0.19773 0.54758 0.85839 0.0
C710 C 0.19323 0.57576 0.85638 0.0
C711 C 0.21649 0.63655 0.84512 0.0
C712 C 0.24439 0.66937 0.83837 0.0
C713 C 0.22126 0.60842 0.8505 0.0
C714 C 0.27742 0.67389 0.83866 0.0
C715 C 0.28241 0.64589 0.84357 0.0
H716 H 0.37497 0.59964 0.83735 0.0
H717 H 0.42322 0.53934 0.81348 0.0
H718 H 0.47895 0.59073 0.81227 0.0
H719 H 0.51428 0.65289 0.81883 0.0
H720 H 0.46605 0.71348 0.84045 0.0
H721 H 0.41024 0.66206 0.84148 0.0
C722 C 0.39761 0.59777 0.83112 0.0
C723 C 0.39482 0.56558 0.82584 0.0
C724 C 0.42972 0.62753 0.83038 0.0
C725 C 0.42459 0.5637 0.81847 0.0
C726 C 0.45652 0.59311 0.8176 0.0
C727 C 0.49157 0.65484 0.82396 0.0
C728 C 0.49442 0.687 0.82973 0.0
C729 C 0.45944 0.62516 0.82396 0.0
C730 C 0.46466 0.68905 0.83597 0.0
C731 C 0.43267 0.65964 0.83647 0.0
H732 H 0.84426 0.98825 0.6659 0.0
H733 H 0.95385 0.04705 0.67788 0.0
H734 H 0.95702 0.99495 0.67507 0.0
H735 H 0.92905 0.93305 0.66382 0.0
H736 H 0.81977 0.87412 0.6497 0.0
H737 H 0.81609 0.92591 0.65855 0.0
C738 C 0.86882 0.98966 0.66836 0.0
C739 C 0.89877 0.02155 0.67186 0.0
C740 C 0.87054 0.95959 0.66593 0.0
C741 C 0.93039 0.02288 0.67495 0.0
C742 C 0.93225 0.99309 0.67329 0.0
C743 C 0.90441 0.93146 0.66351 0.0
C744 C 0.87474 0.89977 0.65598 0.0
C745 C 0.90255 0.96135 0.66805 0.0
C746 C 0.843 0.89825 0.65478 0.0
C747 C 0.84089 0.92783 0.66001 0.0
H748 H 0.11251 1.01553 0.64953 0.0
H749 H 0.1723 0.96573 0.65183 0.0
H750 H 0.1208 0.91045 0.66187 0.0
H751 H 0.05877 0.87598 0.66578 0.0
H752 H 0.99801 0.9249 0.66037 0.0
H753 H 0.04972 0.98067 0.65604 0.0
C754 C 0.11416 0.99257 0.65297 0.0
C755 C 0.14613 0.99466 0.64979 0.0
C756 C 0.08426 0.96069 0.65777 0.0
C757 C 0.14795 0.96469 0.65362 0.0
C758 C 0.11853 0.9331 0.65944 0.0
C759 C 0.05675 0.89881 0.66389 0.0
C760 C 1.02448 0.89616 0.66318 0.0
C761 C 0.08652 0.93073 0.66076 0.0
C762 C 1.02249 0.92612 0.66075 0.0
C763 C 0.05207 0.95807 0.6583 0.0
H764 H 0.08918 0.20466 0.65305 0.0
H765 H 1.02096 0.09629 0.65809 0.0
H766 H 0.0693 0.08659 0.6635 0.0
H767 H 0.13148 0.10908 0.66341 0.0
H768 H 0.19905 0.21795 0.65975 0.0
H769 H 0.15075 0.22714 0.65724 0.0
C770 C 0.08499 0.17897 0.65534 0.0
C771 C 0.05162 0.15132 0.65509 0.0
C772 C 0.11287 0.1736 0.65856 0.0
C773 C 0.04644 0.11809 0.6588 0.0
C774 C 0.07408 0.1125 0.66155 0.0
C775 C 0.13557 0.13477 0.66228 0.0
C776 C 0.16893 0.16267 0.66147 0.0
C777 C 0.10749 0.14007 0.66102 0.0
C778 C 0.17374 0.19587 0.66033 0.0
C779 C 0.14608 0.20126 0.65878 0.0
H780 H 0.11921 0.1174 0.16448 0.0
H781 H 0.17672 0.22681 0.15324 0.0
H782 H 0.12462 0.22964 0.16346 0.0
H783 H 0.06239 0.20082 0.17018 0.0
H784 H 1.00453 0.09114 0.1787 0.0
H785 H 0.05707 0.08865 0.17567 0.0
C786 C 0.12038 0.14186 0.16513 0.0
C787 C 0.15179 0.17185 0.15788 0.0
C788 C 0.09022 0.14324 0.17025 0.0
C789 C 0.15281 0.20335 0.15807 0.0
C790 C 0.12304 0.20498 0.16404 0.0
C791 C 0.06125 0.17636 0.17187 0.0
C792 C 1.0295 0.14621 0.17439 0.0
C793 C 0.09153 0.17506 0.16925 0.0
C794 C 1.02857 0.11476 0.17653 0.0
C795 C 0.05863 0.11329 0.17473 0.0
H796 H 0.85297 0.87051 0.18417 0.0
H797 H 0.96238 0.92143 0.1994 0.0
H798 H 0.96529 0.97669 0.19558 0.0
H799 H 0.93712 1.01046 0.17966 0.0
H800 H 0.82803 0.95911 0.16124 0.0
H801 H 0.82463 0.90414 0.17454 0.0
C802 C 0.87746 0.89365 0.1874 0.0
C803 C 0.90742 0.89175 0.19178 0.0
C804 C 0.87902 0.92532 0.18401 0.0
C805 C 0.9389 0.92209 0.1959 0.0
C806 C 0.94061 0.95374 0.19351 0.0
C807 C 0.91259 0.98728 0.1795 0.0
C808 C 0.88288 0.98885 0.16905 0.0
C809 C 0.9109 0.95567 0.18637 0.0
C810 C 0.85129 0.95853 0.16837 0.0
C811 C 0.84933 0.92711 0.17613 0.0
H812 H 0.18233 0.99196 0.15765 0.0
H813 H 0.13156 0.05043 0.17547 0.0
H814 H 0.07637 0.99794 0.1764 0.0
H815 H 0.04258 0.9353 0.17264 0.0
H816 H 0.09388 0.87757 0.15166 0.0
H817 H 0.14873 0.9299 0.15176 0.0
C818 C 0.15923 0.99329 0.16196 0.0
C819 C 0.16114 0.02512 0.16669 0.0
C820 C 0.12761 0.96309 0.16181 0.0
C821 C 0.13086 0.02628 0.17185 0.0
C822 C 0.09927 0.99627 0.17228 0.0
C823 C 0.06567 0.93415 0.16738 0.0
C824 C 0.06393 0.90235 0.16245 0.0
C825 C 0.09731 0.9645 0.1671 0.0
C826 C 0.09434 0.90151 0.1564 0.0
C827 C 0.1258 0.93149 0.15621 0.0
H828 H 0.59383 0.10943 0.34493 0.0
H829 H 0.51257 0.13153 0.32218 0.0
H830 H 0.51886 0.13037 0.22529 0.0
H831 H 0.55116 0.12801 0.14871 0.0
H832 H 0.63204 0.10524 0.1729 0.0
H833 H 0.6221 0.10147 0.26864 0.0
C834 C 0.57734 0.11375 0.31858 0.0
C835 C 0.55322 0.12118 0.33985 0.0
C836 C 0.58123 0.1131 0.26382 0.0
C837 C 0.53136 0.12594 0.30608 0.0
C838 C 0.53512 0.12544 0.25103 0.0
C839 C 0.5665 0.12208 0.17498 0.0
C840 C 0.5927 0.11749 0.15422 0.0
C841 C 0.56057 0.11989 0.22967 0.0
C842 C 0.61192 0.10907 0.18824 0.0
C843 C 0.60629 0.107 0.2428 0.0
H844 H 0.93432 0.49206 0.33247 0.0
H845 H 0.90911 0.38758 0.31208 0.0
H846 H 0.91159 0.39475 0.21504 0.0
H847 H 0.91707 0.42999 0.13738 0.0
H848 H 0.94294 0.53475 0.15969 0.0
H849 H 0.94421 0.52825 0.25576 0.0
C850 C 0.92937 0.47084 0.30668 0.0
C851 C 0.9208 0.43914 0.32859 0.0
C852 C 0.93089 0.47525 0.25189 0.0
C853 C 0.91547 0.41207 0.29547 0.0
C854 C 0.91678 0.41619 0.24033 0.0
C855 C 0.92308 0.45143 0.1633 0.0
C856 C 0.92942 0.48268 0.14178 0.0
C857 C 0.9238 0.44751 0.21826 0.0
C858 C 0.9378 0.51044 0.17551 0.0
C859 C 0.93847 0.50672 0.23029 0.0
H860 H 0.56231 0.45678 0.34465 0.0
H861 H 0.66425 0.54113 0.32575 0.0
H862 H 0.65672 0.53686 0.22868 0.0
H863 H 0.62258 0.50569 0.15059 0.0
H864 H 0.52055 0.42129 0.17105 0.0
H865 H 0.52654 0.42926 0.26731 0.0
C866 C 0.58288 0.47429 0.31919 0.0
C867 C 0.61406 0.49873 0.34154 0.0
C868 C 0.57829 0.47159 0.26433 0.0
C869 C 0.6402 0.52199 0.30884 0.0
C870 C 0.63589 0.51943 0.25367 0.0
C871 C 0.60157 0.48916 0.17614 0.0
C872 C 0.57134 0.46255 0.15411 0.0
C873 C 0.60529 0.49379 0.23114 0.0
C874 C 0.54407 0.44178 0.18731 0.0
C875 C 0.54754 0.44625 0.24218 0.0
H876 H 0.92503 0.44967 0.83151 0.0
H877 H 0.91406 0.53831 0.81378 0.0
H878 H 0.91413 0.5327 0.71652 0.0
H879 H 0.91523 0.50081 0.63769 0.0
H880 H 0.92824 0.41336 0.65818 0.0
H881 H 0.92945 0.42029 0.7543 0.0
C882 C 0.9225 0.46772 0.80633 0.0
C883 C 0.91884 0.49394 0.82911 0.0
C884 C 0.92291 0.46447 0.75148 0.0
C885 C 0.91664 0.51781 0.79657 0.0
C886 C 0.9166 0.51451 0.74129 0.0
C887 C 0.91831 0.48331 0.6633 0.0
C888 C 0.92129 0.45641 0.64121 0.0
C889 C 0.91934 0.48766 0.71844 0.0
C890 C 0.92584 0.43419 0.67448 0.0
C891 C 0.92647 0.43809 0.72928 0.0
H892 H 0.55707 0.42574 0.65148 0.0
H893 H 0.64349 0.52706 0.66907 0.0
H894 H 0.64082 0.52081 0.76529 0.0
H895 H 0.61434 0.48698 0.84349 0.0
H896 H 0.52542 0.38735 0.8288 0.0
H897 H 0.52862 0.39236 0.7315 0.0
C898 C 0.57526 0.44637 0.67653 0.0
C899 C 0.60055 0.47671 0.65358 0.0
C900 C 0.57322 0.44283 0.73181 0.0
C901 C 0.62377 0.50352 0.68609 0.0
C902 C 0.62235 0.49993 0.74095 0.0
C903 C 0.59586 0.46615 0.81898 0.0
C904 C 0.57009 0.43657 0.84266 0.0
C905 C 0.59732 0.4697 0.76403 0.0
C906 C 0.54564 0.41019 0.8109 0.0
C907 C 0.54747 0.41311 0.75558 0.0
H908 H 0.56738 0.13474 0.84385 0.0
H909 H 0.6651 0.14141 0.82722 0.0
H910 H 0.65865 0.13915 0.72999 0.0
H911 H 0.62478 0.13543 0.65039 0.0
H912 H 0.52512 0.12419 0.66958 0.0
H913 H 0.53265 0.12792 0.76587 0.0
C914 C 0.58744 0.13603 0.81888 0.0
C915 C 0.61698 0.13895 0.8421 0.0
C916 C 0.58303 0.13368 0.76386 0.0
C917 C 0.64233 0.1395 0.80977 0.0
C918 C 0.63859 0.13818 0.75445 0.0
C919 C 0.60478 0.13381 0.6758 0.0
C920 C 0.57454 0.12979 0.65322 0.0
C921 C 0.60902 0.1353 0.73113 0.0
C922 C 0.54855 0.12721 0.68626 0.0
C923 C 0.55288 0.12947 0.74117 0.0
H924 H 0.22125 0.46886 0.48566 0.0
H925 H 0.31048 0.45885 0.50565 0.0
H926 H 0.30624 0.46151 0.60196 0.0
H927 H 0.27789 0.46742 0.67946 0.0
H928 H 0.18646 0.47352 0.66171 0.0
H929 H 0.19079 0.47174 0.56457 0.0
C930 C 0.23972 0.46725 0.51123 0.0
C931 C 0.26629 0.46393 0.48896 0.0
C932 C 0.23681 0.46829 0.5664 0.0
C933 C 0.28981 0.46135 0.52215 0.0
C934 C 0.28748 0.46301 0.57703 0.0
C935 C 0.25907 0.46871 0.65429 0.0
C936 C 0.2323 0.47133 0.6771 0.0
C937 C 0.26127 0.46672 0.59938 0.0
C938 C 0.20744 0.47186 0.64452 0.0
C939 C 0.20993 0.4708 0.58929 0.0
H940 H 0.58143 0.75734 0.47032 0.0
H941 H 0.59828 0.85926 0.49101 0.0
H942 H 0.59959 0.85357 0.58713 0.0
H943 H 0.59372 0.81924 0.6643 0.0
H944 H 0.57865 0.71802 0.64615 0.0
H945 H 0.57919 0.72388 0.54893 0.0
C946 C 0.5854 0.77827 0.49597 0.0
C947 C 0.58938 0.80854 0.47395 0.0
C948 C 0.58642 0.77493 0.55106 0.0
C949 C 0.59509 0.83573 0.50725 0.0
C950 C 0.59578 0.83248 0.56205 0.0
C951 C 0.59044 0.79838 0.63901 0.0
C952 C 0.58544 0.76799 0.66164 0.0
C953 C 0.59107 0.80211 0.58417 0.0
C954 C 0.58227 0.7415 0.62902 0.0
C955 C 0.58249 0.74486 0.57378 0.0
H956 H 0.23796 0.78097 0.68032 0.0
H957 H 0.32836 0.87889 0.66133 0.0
H958 H 0.31909 0.87479 0.56454 0.0
H959 H 0.28553 0.842 0.48599 0.0
H960 H 0.19195 0.74718 0.50861 0.0
H961 H 0.20158 0.75191 0.60459 0.0
C962 C 0.2556 0.8016 0.65514 0.0
C963 C 0.28407 0.83 0.67752 0.0
C964 C 0.24923 0.79969 0.60068 0.0
C965 C 0.30648 0.85668 0.64463 0.0
C966 C 0.30108 0.85434 0.58957 0.0
C967 C 0.26715 0.82261 0.51217 0.0
C968 C 0.23824 0.79411 0.49069 0.0
C969 C 0.27258 0.82583 0.56724 0.0
C970 C 0.21428 0.76932 0.52455 0.0
C971 C 0.21991 0.77189 0.5792 0.0
H972 H 0.58265 0.82967 0.97027 0.0
H973 H 0.60423 0.74779 -0.00781 0.0
H974 H 0.60538 0.75537 0.08831 0.0
H975 H 0.59719 0.78287 0.16507 0.0
H976 H 0.57671 0.86543 0.14526 0.0
H977 H 0.57855 0.86029 0.04816 0.0
C978 C 0.58767 0.81354 -0.00386 0.0
C979 C 0.5929 0.7879 0.97452 0.0
C980 C 0.58843 0.81816 0.05113 0.0
C981 C 0.6 0.76757 0.00814 0.0
C982 C 0.60059 0.77185 0.06292 0.0
C983 C 0.59308 0.79974 0.13942 0.0
C984 C 0.58609 0.82399 0.16152 0.0
C985 C 0.59432 0.79665 0.08463 0.0
C986 C 0.58185 0.84644 0.12852 0.0
C987 C 0.5828 0.84339 0.07336 0.0
H988 H 0.22334 0.76336 0.98553 0.0
H989 H 0.30171 0.86795 0.01032 0.0
H990 H 0.29374 0.86064 0.10624 0.0
H991 H 0.26667 0.82408 0.1824 0.0
H992 H 0.18661 0.72026 0.15968 0.0
H993 H 0.19282 0.72767 0.06271 0.0
C994 C 0.2386 0.78455 0.012 0.0
C995 C 0.26339 0.81606 -0.00889 0.0
C996 C 0.23362 0.78024 0.06699 0.0
C997 C 0.28258 0.84349 0.02557 0.0
C998 C 0.2781 0.8393 0.0803 0.0
C999 C 0.25059 0.80304 0.15611 0.0
C1000 C 0.22671 0.77147 0.17752 0.0
C1001 C 0.25407 0.80771 0.10128 0.0
C1002 C 0.20529 0.74465 0.14361 0.0
C1003 C 0.20895 0.74892 0.08847 0.0
H1004 H 0.28536 0.45807 0.98489 0.0
H1005 H 0.183 0.43937 0.00623 0.0
H1006 H 0.19009 0.4398 0.10262 0.0
H1007 H 0.22684 0.45017 0.17961 0.0
H1008 H 0.32879 0.46783 0.15958 0.0
H1009 H 0.32045 0.46304 0.06271 0.0
C1010 C 0.26453 0.45384 0.0107 0.0
C1011 C 0.23387 0.44922 0.98891 0.0
C1012 C 0.26886 0.45425 0.0657 0.0
C1013 C 0.2068 0.44308 0.02238 0.0
C1014 C 0.21092 0.44351 0.0773 0.0
C1015 C 0.24725 0.453 0.15392 0.0
C1016 C 0.27866 0.46018 0.17587 0.0
C1017 C 0.24209 0.44991 0.09916 0.0
C1018 C 0.3046 0.46269 0.14294 0.0
C1019 C 0.2998 0.45999 0.08789 0.0
H1020 H 0.88616 0.80912 0.8192 0.0
H1021 H 0.98227 0.81149 0.83299 0.0
H1022 H 0.98137 0.8172 0.92914 0.0
H1023 H 0.95257 0.81919 0.0085 0.0
H1024 H 0.85401 0.81158 -0.00229 0.0
H1025 H 0.85663 0.81061 0.90039 0.0
C1026 C 0.90689 0.81103 0.84344 0.0
C1027 C 0.9342 0.80987 0.81953 0.0
C1028 C 0.9058 0.81348 0.89873 0.0
C1029 C 0.96086 0.81205 0.85089 0.0
C1030 C 0.96045 0.81546 0.90567 0.0
C1031 C 0.93183 0.81785 0.98493 0.0
C1032 C 0.90331 0.81584 0.00984 0.0
C1033 C 0.93298 0.81597 0.92987 0.0
C1034 C 0.87629 0.81332 0.97901 0.0
C1035 C 0.87775 0.81265 0.92362 0.0
H1036 H 0.24546 0.0928 0.80554 0.0
H1037 H 0.27003 0.19723 0.82687 0.0
H1038 H 0.27129 0.19123 0.92286 0.0
H1039 H 0.26361 0.15624 -0.0001 0.0
H1040 H 0.24113 0.05249 0.98151 0.0
H1041 H 0.24123 0.0583 0.88424 0.0
C1042 C 0.25105 0.11417 0.83133 0.0
C1043 C 0.25729 0.14531 0.80948 0.0
C1044 C 0.25216 0.11067 0.88646 0.0
C1045 C 0.26508 0.17303 0.84296 0.0
C1046 C 0.26577 0.16962 0.89771 0.0
C1047 C 0.25866 0.13484 0.97454 0.0
C1048 C 0.25173 0.1038 -0.00286 0.0
C1049 C 0.25905 0.13854 0.91969 0.0
C1050 C 0.24632 0.07652 0.96442 0.0
C1051 C 0.24626 0.07985 0.90914 0.0
H1052 H 0.9559 0.16533 0.81208 0.0
H1053 H 0.85333 0.08207 0.8332 0.0
H1054 H 0.86061 0.08805 0.92942 0.0
H1055 H 0.89665 0.11489 0.0065 0.0
H1056 H 0.99849 0.19941 0.98772 0.0
H1057 H 0.99098 0.19519 0.89059 0.0
C1058 C 0.93513 0.14858 0.83782 0.0
C1059 C 0.90424 0.12303 0.81583 0.0
C1060 C 0.93944 0.15232 0.89297 0.0
C1061 C 0.87732 0.10184 0.84935 0.0
C1062 C 0.8815 0.10518 0.90423 0.0
C1063 C 0.91729 0.13233 0.98108 0.0
C1064 C 0.94835 0.15693 0.00354 0.0
C1065 C 0.91256 0.12995 0.92624 0.0
C1066 C 0.97453 0.18012 0.97078 0.0
C1067 C 0.97021 0.17762 0.91556 0.0
H1068 H 0.25351 0.17 0.3057 0.0
H1069 H 0.27072 0.08524 0.32727 0.0
H1070 H 0.27339 0.09353 0.42327 0.0
H1071 H 0.26753 0.12242 0.50032 0.0
H1072 H 0.2516 0.20792 0.48111 0.0
H1073 H 0.25217 0.20217 0.38391 0.0
C1074 C 0.25791 0.15342 0.33149 0.0
C1075 C 0.26146 0.12675 0.30976 0.0
C1076 C 0.25966 0.1585 0.38651 0.0
C1077 C 0.26778 0.10581 0.34326 0.0
C1078 C 0.26926 0.1105 0.39801 0.0
C1079 C 0.26427 0.13987 0.47473 0.0
C1080 C 0.2589 0.16513 0.49704 0.0
C1081 C 0.26471 0.13637 0.41988 0.0
C1082 C 0.2556 0.18822 0.46419 0.0
C1083 C 0.25577 0.18478 0.40896 0.0
H1084 H 0.88518 0.09123 0.31154 0.0
H1085 H 0.9671 0.19465 0.33348 0.0
H1086 H 0.9585 0.18928 0.42925 0.0
H1087 H 0.92999 0.15468 0.50604 0.0
H1088 H 0.84731 0.05174 0.48662 0.0
H1089 H 0.85354 0.0575 0.38949 0.0
C1090 C 0.9011 0.11257 0.33737 0.0
C1091 C 0.92703 0.14317 0.3158 0.0
C1092 C 0.89584 0.10938 0.39227 0.0
C1093 C 0.94711 0.17085 0.34933 0.0
C1094 C 0.94223 0.16779 0.40396 0.0
C1095 C 0.9133 0.13348 0.48047 0.0
C1096 C 0.88869 0.10262 0.50274 0.0
C1097 C 0.91705 0.13709 0.42568 0.0
C1098 C 0.86652 0.07561 0.46977 0.0
C1099 C 0.87023 0.0789 0.41458 0.0
H1100 H 0.95271 0.79164 0.31785 0.0
H1101 H 0.84879 0.76951 0.33349 0.0
H1102 H 0.85333 0.76771 0.42998 0.0
H1103 H 0.88861 0.77864 0.50893 0.0
H1104 H 0.99256 0.80125 0.4946 0.0
H1105 H 0.98623 0.79641 0.39748 0.0
C1106 C 0.93095 0.78612 0.34239 0.0
C1107 C 0.90066 0.78136 0.31898 0.0
C1108 C 0.93389 0.78552 0.39754 0.0
C1109 C 0.87242 0.77349 0.35085 0.0
C1110 C 0.87504 0.77262 0.40587 0.0
C1111 C 0.90984 0.78238 0.48442 0.0
C1112 C 0.94126 0.79113 0.50798 0.0
C1113 C 0.90595 0.77965 0.42945 0.0
C1114 C 0.96832 0.79486 0.47665 0.0
C1115 C 0.96469 0.79219 0.42145 0.0
H1116 H 0.41753 0.94359 0.90097 0.0
H1117 H 0.38682 1.01933 0.88779 0.0
H1118 H 0.44217 0.06275 0.9214 0.0
H1119 H 0.4994 0.08009 0.95275 0.0
H1120 H 0.53307 1.00661 0.96483 0.0
H1121 H 0.47671 0.96168 0.93376 0.0
C1122 C 0.42283 0.96952 0.90586 0.0
C1123 C 0.39755 0.97793 0.89148 0.0
C1124 C 0.4554 0.99491 0.92498 0.0
C1125 C 0.40546 1.01194 0.89775 0.0
C1126 C 0.43723 0.03688 0.91724 0.0
C1127 C 0.49469 0.05426 0.94911 0.0
C1128 C 0.52094 0.04706 0.96176 0.0
C1129 C 0.46244 0.02877 0.93067 0.0
C1130 C 0.51371 1.0132 0.95584 0.0
C1131 C 0.48133 0.98744 0.93793 0.0
H1132 H 0.97643 0.43159 0.94783 0.0
H1133 H 0.04623 0.53978 0.95417 0.0
H1134 H 0.09217 0.53023 0.92232 0.0
H1135 H 0.11202 0.49035 0.88924 0.0
H1136 H 0.03921 0.38293 0.88059 0.0
H1137 H 0.99527 0.39309 0.91642 0.0
C1138 C 1.00166 0.45339 0.94272 0.0
C1139 C 1.00746 0.48654 0.95399 0.0
C1140 C 1.02762 0.44772 0.92347 0.0
C1141 C 0.04066 0.514 0.94638 0.0
C1142 C 0.06699 0.50847 0.92791 0.0
C1143 C 0.08661 0.46918 0.89564 0.0
C1144 C 0.07915 0.43568 0.88185 0.0
C1145 C 0.06078 0.47535 0.91587 0.0
C1146 C 0.04582 0.40881 0.89008 0.0
C1147 C 1.02059 0.41464 0.91083 0.0
H1148 H 0.55983 0.6267 0.87959 0.0
H1149 H 0.66829 0.66735 0.89193 0.0
H1150 H 0.65903 0.6148 0.93272 0.0
H1151 H 0.62135 0.55729 0.96233 0.0
H1152 H 0.51247 0.51269 0.94859 0.0
H1153 H 0.52064 0.56666 0.91168 0.0
C1154 C 0.58138 0.62408 0.89162 0.0
C1155 C 0.61494 0.65131 0.8822 0.0
C1156 C 0.5758 0.59302 0.91486 0.0
C1157 C 0.64238 0.64705 0.8978 0.0
C1158 C 0.63707 0.61692 0.92144 0.0
C1159 C 0.59906 0.559 0.95178 0.0
C1160 C 0.56616 0.53041 0.95879 0.0
C1161 C 0.60402 0.58969 0.92974 0.0
C1162 C 0.53806 0.53395 0.94424 0.0
C1163 C 0.54282 0.56492 0.92283 0.0
H1164 H 1.01037 0.52318 0.38078 0.0
H1165 H 1.01064 0.54628 0.54668 0.0
H1166 H 0.05138 0.60632 0.52986 0.0
H1167 H 0.08346 0.65357 0.46684 0.0
H1168 H 0.08485 0.63111 0.30102 0.0
H1169 H 0.04749 0.57015 0.3186 0.0
C1170 C 1.02043 0.54115 0.41353 0.0
C1171 C 1.00818 0.52974 0.46548 0.0
C1172 C 0.04369 0.57615 0.40323 0.0
C1173 C 1.02038 0.5539 0.50683 0.0
C1174 C 0.04337 0.58846 0.497 0.0
C1175 C 0.07565 0.63537 0.43448 0.0
C1176 C 0.08669 0.6473 0.3823 0.0
C1177 C 0.05458 0.60012 0.44519 0.0
C1178 C 0.07676 0.62294 0.34135 0.0
C1179 C 0.05532 0.58796 0.35151 0.0
H1180 H 0.49505 0.43022 0.47203 0.0
H1181 H 0.53701 0.5389 0.4633 0.0
H1182 H 0.48204 0.52983 0.42918 0.0
H1183 H 0.42201 0.49012 0.39728 0.0
H1184 H 0.38345 0.38185 0.40447 0.0
H1185 H 0.43696 0.3918 0.44307 0.0
C1186 C 0.49246 0.45222 0.46322 0.0
C1187 C 0.52069 0.48538 0.47076 0.0
C1188 C 0.4611 0.44676 0.4426 0.0
C1189 C 0.51606 0.51313 0.45858 0.0
C1190 C 0.48452 0.50786 0.43868 0.0
C1191 C 0.42523 0.46872 0.40775 0.0
C1192 C 0.39829 0.43505 0.39738 0.0
C1193 C 0.45681 0.4747 0.42987 0.0
C1194 C 0.40345 0.40787 0.41101 0.0
C1195 C 0.43416 0.41357 0.43345 0.0
H1196 H 0.55763 0.93764 0.39043 0.0
H1197 H 0.66621 1.00589 0.39566 0.0
H1198 H 0.65781 0.0496 0.43708 0.0
H1199 H 0.62046 0.07009 0.46886 0.0
H1200 H 0.51159 1.00434 0.46302 0.0
H1201 H 0.51929 0.95837 0.42612 0.0
C1202 C 0.57945 0.96195 0.40111 0.0
C1203 C 0.61269 0.96823 0.38908 0.0
C1204 C 0.5744 0.98765 0.42509 0.0
C1205 C 0.64043 1.00019 0.40322 0.0
C1206 C 0.63564 0.02532 0.42733 0.0
C1207 C 0.59819 0.04567 0.46012 0.0
C1208 C 0.56536 0.04106 0.46925 0.0
C1209 C 0.60283 1.01958 0.43796 0.0
C1210 C 0.53717 1.00891 0.45713 0.0
C1211 C 0.54162 0.98256 0.43559 0.0
H1212 H 0.15999 0.40573 0.30498 0.0
H1213 H 0.20497 0.34165 0.2953 0.0
H1214 H 0.15097 0.29505 0.25973 0.0
H1215 H 0.09077 0.27322 0.22673 0.0
H1216 H 0.049 0.34023 0.23549 0.0
H1217 H 0.10157 0.38446 0.27538 0.0
C1218 C 0.15824 0.38155 0.29567 0.0
C1219 C 0.18708 0.37763 0.30343 0.0
C1220 C 0.12733 0.35515 0.2743 0.0
C1221 C 0.18355 0.34575 0.29051 0.0
C1222 C 0.15253 0.31903 0.26975 0.0
C1223 C 0.09308 0.29738 0.23783 0.0
C1224 C 0.06547 0.30312 0.22737 0.0
C1225 C 0.12418 0.32346 0.26081 0.0
C1226 C 0.0695 0.33492 0.24196 0.0
C1227 C 0.09971 0.36035 0.26516 0.0
H1228 H 0.64532 0.76431 0.28803 0.0
H1229 H 0.70963 0.87344 0.28431 0.0
H1230 H 0.75674 0.86645 0.25044 0.0
H1231 H 0.77888 0.82838 0.21749 0.0
H1232 H 0.71103 0.71972 0.2182 0.0
H1233 H 0.66635 0.72759 0.25704 0.0
C1234 C 0.6696 0.78687 0.28026 0.0
C1235 C 0.67351 0.81951 0.28921 0.0
C1236 C 0.69612 0.78261 0.2596 0.0
C1237 C 0.70556 0.84801 0.27843 0.0
C1238 C 0.73254 0.84394 0.2587 0.0
C1239 C 0.75439 0.80647 0.22659 0.0
C1240 C 0.74849 0.77329 0.21453 0.0
C1241 C 0.72807 0.81127 0.2485 0.0
C1242 C 0.71636 0.74538 0.22628 0.0
C1243 C 0.69073 0.74989 0.24878 0.0
H1244 H 0.28649 0.89125 0.296 0.0
H1245 H 0.17778 0.84959 0.29102 0.0
H1246 H 0.18625 0.90373 0.25485 0.0
H1247 H 0.22535 0.96312 0.22084 0.0
H1248 H 0.33368 1.00175 0.22572 0.0
H1249 H 0.32441 0.94891 0.26527 0.0
C1250 C 0.26439 0.89376 0.28757 0.0
C1251 C 0.2314 0.86586 0.2968 0.0
C1252 C 0.26948 0.92476 0.26613 0.0
C1253 C 0.20347 0.87031 0.28492 0.0
C1254 C 0.20837 0.9014 0.26393 0.0
C1255 C 0.24691 0.96007 0.23101 0.0
C1256 C 0.28038 0.98682 0.21958 0.0
C1257 C 0.24135 0.92888 0.25385 0.0
C1258 C 0.30777 0.98187 0.23294 0.0
C1259 C 0.30248 0.95153 0.25594 0.0
H1260 H 0.77558 0.96171 0.71727 0.0
H1261 H 0.70627 1.00044 0.73181 0.0
H1262 H 0.66334 0.94659 0.76942 0.0
H1263 H 0.64415 0.88835 0.79534 0.0
H1264 H 0.71007 0.84583 0.77856 0.0
H1265 H 0.75557 0.90115 0.7457 0.0
C1266 C 0.75118 0.95841 0.72913 0.0
C1267 C 0.74431 0.98549 0.72126 0.0
C1268 C 0.72592 0.92661 0.75045 0.0
C1269 C 0.71231 0.98031 0.73656 0.0
C1270 C 0.68769 0.94942 0.75838 0.0
C1271 C 0.66846 0.89084 0.78495 0.0
C1272 C 0.6733 0.86239 0.78985 0.0
C1273 C 0.69403 0.92234 0.76503 0.0
C1274 C 0.70534 0.86694 0.77583 0.0
C1275 C 0.73137 0.89868 0.75667 0.0
H1276 H 0.08766 0.76681 0.68036 0.0
H1277 H 0.06168 0.81772 0.80038 0.0
H1278 H 0.11759 0.83906 0.84217 0.0
H1279 H 0.17426 0.8414 0.84711 0.0
H1280 H 0.19714 0.78804 0.72716 0.0
H1281 H 0.14292 0.77 0.68359 0.0
C1282 C 0.09386 0.78231 0.71588 0.0
C1283 C 0.06981 0.7902 0.73692 0.0
C1284 C 0.12612 0.79443 0.74003 0.0
C1285 C 0.07931 0.81112 0.78263 0.0
C1286 C 0.11148 0.82336 0.80685 0.0
C1287 C 0.16751 0.8263 0.81104 0.0
C1288 C 0.1902 0.81634 0.79037 0.0
C1289 C 0.13524 0.81509 0.78617 0.0
C1290 C 0.18052 0.79626 0.74395 0.0
C1291 C 0.14926 0.78571 0.71896 0.0
H1292 H 0.23136 0.2748 0.7218 0.0
H1293 H 0.33912 0.34677 0.72808 0.0
H1294 H 0.3279 0.38963 0.76574 0.0
H1295 H 0.28848 0.40789 0.79478 0.0
H1296 H 0.18021 0.33863 0.78783 0.0
H1297 H 0.19064 0.29377 0.75327 0.0
C1298 C 0.25238 0.29976 0.73184 0.0
C1299 C 0.28628 0.30731 0.72155 0.0
C1300 C 0.24566 0.32494 0.75344 0.0
C1301 C 0.31294 0.34009 0.73459 0.0
C1302 C 0.30651 0.36471 0.75647 0.0
C1303 C 0.26686 0.38298 0.78621 0.0
C1304 C 0.23341 0.37701 0.79447 0.0
C1305 C 0.27308 0.35759 0.76569 0.0
C1306 C 0.20618 0.34428 0.78242 0.0
C1307 C 0.21223 0.31857 0.7624 0.0
H1308 H 0.73062 0.6347 0.6443 0.0
H1309 H 0.75584 0.63542 0.47943 0.0
H1310 H 0.81632 0.67294 0.50042 0.0
H1311 H 0.86199 0.7094 0.56515 0.0
H1312 H 0.83639 0.70812 0.7298 0.0
H1313 H 0.77672 0.66687 0.70987 0.0
C1314 C 0.7493 0.64307 0.61288 0.0
C1315 C 0.73833 0.6325 0.55998 0.0
C1316 C 0.78428 0.66433 0.6255 0.0
C1317 C 0.76329 0.64312 0.52027 0.0
C1318 C 0.79799 0.66463 0.53236 0.0
C1319 C 0.84355 0.699 0.59696 0.0
C1320 C 0.85406 0.711 0.64943 0.0
C1321 C 0.80886 0.67572 0.58479 0.0
C1322 C 0.82939 0.69847 0.6896 0.0
C1323 C 0.79507 0.67524 0.67797 0.0
H1324 H 0.30948 0.09574 0.62803 0.0
H1325 H 0.37911 0.20391 0.62275 0.0
H1326 H 0.4244 0.19326 0.59179 0.0
H1327 H 0.4436 0.15248 0.56194 0.0
H1328 H 0.37159 0.04471 0.56656 0.0
H1329 H 0.32827 0.05607 0.60138 0.0
C1330 C 0.33457 0.11724 0.62058 0.0
C1331 C 0.34049 0.15076 0.62813 0.0
C1332 C 0.36027 0.11089 0.60199 0.0
C1333 C 0.37349 0.17788 0.61787 0.0
C1334 C 0.39945 0.17172 0.59981 0.0
C1335 C 0.41855 0.13147 0.57104 0.0
C1336 C 0.41113 0.09755 0.56095 0.0
C1337 C 0.39312 0.13825 0.59114 0.0
C1338 C 0.37821 0.07093 0.57284 0.0
C1339 C 0.3533 0.07743 0.59313 0.0
H1340 H 0.88785 0.29285 0.5494 0.0
H1341 H 0.99637 0.33561 0.56646 0.0
H1342 H 0.98768 0.28318 0.6068 0.0
H1343 H 0.95042 0.22465 0.63408 0.0
H1344 H 0.84166 0.17856 0.61616 0.0
H1345 H 0.84922 0.23249 0.58044 0.0
C1346 C 0.90953 0.29076 0.56243 0.0
C1347 C 0.94295 0.31854 0.55418 0.0
C1348 C 0.90432 0.25976 0.5856 0.0
C1349 C 0.97055 0.3149 0.57124 0.0
C1350 C 0.96557 0.2848 0.59467 0.0
C1351 C 0.92808 0.22613 0.62289 0.0
C1352 C 0.89537 0.19704 0.62826 0.0
C1353 C 0.93271 0.25695 0.6015 0.0
C1354 C 0.86713 0.20022 0.61313 0.0
C1355 C 0.87153 0.23117 0.59231 0.0
H1356 H 0.31468 0.22513 0.12515 0.0
H1357 H 0.37776 0.17903 0.1151 0.0
H1358 H 0.42488 0.23306 0.08143 0.0
H1359 H 0.44731 0.29361 0.05035 0.0
H1360 H 0.38081 0.33595 0.05812 0.0
H1361 H 0.33618 0.28339 0.09661 0.0
C1362 C 0.3387 0.22656 0.11601 0.0
C1363 C 0.34226 0.19749 0.12306 0.0
C1364 C 0.36526 0.25736 0.09563 0.0
C1365 C 0.37398 0.20066 0.11064 0.0
C1366 C 0.40096 0.23167 0.09104 0.0
C1367 C 0.42314 0.29135 0.06093 0.0
C1368 C 0.41758 0.31906 0.05086 0.0
C1369 C 0.39685 0.26025 0.08273 0.0
C1370 C 0.38586 0.31528 0.06458 0.0
C1371 C 0.36026 0.28512 0.08688 0.0
H1372 H 0.82974 0.09555 0.12227 0.0
H1373 H 0.86999 0.20412 0.12584 0.0
H1374 H 0.81501 0.19544 0.09217 0.0
H1375 H 0.75523 0.15617 0.05815 0.0
H1376 H 0.71896 0.04832 0.05175 0.0
H1377 H 0.7725 0.05769 0.08962 0.0
C1378 C 0.82687 0.11764 0.11611 0.0
C1379 C 0.85458 0.15063 0.12716 0.0
C1380 C 0.79555 0.11245 0.09568 0.0
C1381 C 0.84949 0.17845 0.11829 0.0
C1382 C 0.81791 0.17341 0.09874 0.0
C1383 C 0.75899 0.13473 0.06546 0.0
C1384 C 0.73263 0.10134 0.05175 0.0
C1385 C 0.79068 0.14044 0.08681 0.0
C1386 C 0.73848 0.07413 0.06117 0.0
C1387 C 0.76921 0.0795 0.0831 0.0
H1388 H 0.89561 0.61037 0.04667 0.0
H1389 H 1.00376 0.68083 0.05108 0.0
H1390 H 0.99385 0.72452 0.08885 0.0
H1391 H 0.95559 0.74384 0.11889 0.0
H1392 H 0.84692 0.67645 0.11382 0.0
H1393 H 0.8559 0.63074 0.07858 0.0
C1394 C 0.91698 0.63521 0.0563 0.0
C1395 C 0.95063 0.64208 0.04555 0.0
C1396 C 0.91101 0.66092 0.0779 0.0
C1397 C 0.97777 0.67469 0.05802 0.0
C1398 C 0.97209 0.69978 0.07993 0.0
C1399 C 0.93354 0.71918 0.11052 0.0
C1400 C 0.90043 0.71399 0.11959 0.0
C1401 C 0.93894 0.69334 0.0897 0.0
C1402 C 0.87266 0.68154 0.10774 0.0
C1403 C 0.87788 0.65533 0.0874 0.0
loop_
_geom_bond_atom_site_label_1
_geom_bond_atom_site_label_2
_geom_bond_distance
_geom_bond_site_symmetry_2
_ccdc_geom_bond_type
Co0 N5 2.057 . S
Co0 O17 2.021 . S
Co0 O20 2.062 . S
Co0 O24 2.117 . S
Co0 O25 2.020 1_554 S
C1 O21 1.259 . S
C1 O24 1.258 . S
Co2 N11 2.057 . S
Co2 O18 2.117 . S
Co2 O19 2.020 . S
Co2 O21 2.021 . S
Co2 O26 2.062 1_554 S
C3 N5 1.316 . S
C3 N6 1.347 . S
C3 H8 0.931 . S
C4 N5 1.375 . S
C4 C7 1.350 . S
C4 H9 0.930 1_554 S
N5 Co0 2.057 . S
N5 C3 1.316 . S
N5 C4 1.375 . S
N6 C3 1.347 . S
N6 C7 1.373 . S
C7 C4 1.350 . S
C7 N6 1.373 . S
C7 H28 0.931 . S
H8 C3 0.931 . S
H9 C4 0.930 1_556 S
C10 O17 1.259 . S
C10 O18 1.258 . S
N11 Co2 2.057 . S
N11 C12 1.316 1_554 S
N11 C13 1.375 . S
C12 N11 1.316 1_556 S
C12 N14 1.347 . S
C12 H23 0.931 . S
C13 N11 1.375 . S
C13 C15 1.350 1_554 S
C13 H22 0.930 . S
N14 C12 1.347 . S
N14 C15 1.373 . S
C15 C13 1.350 1_556 S
C15 N14 1.373 . S
C15 H29 0.931 . S
C16 O19 1.256 . S
C16 O20 1.255 . S
O17 Co0 2.021 . S
O17 C10 1.259 . S
O18 Co2 2.117 . S
O18 C10 1.258 . S
O19 Co2 2.020 . S
O19 C16 1.256 . S
O20 Co0 2.062 . S
O20 C16 1.255 . S
O21 C1 1.259 . S
O21 Co2 2.021 . S
H22 C13 0.930 . S
H23 C12 0.931 . S
O24 Co0 2.117 . S
O24 C1 1.258 . S
O25 Co0 2.020 1_556 S
O25 C27 1.256 . S
O26 Co2 2.062 1_556 S
O26 C27 1.255 . S
C27 O25 1.256 . S
C27 O26 1.255 . S
H28 C7 0.931 . S
H29 C15 0.931 . S
Co30 N35 2.057 . S
Co30 O47 2.021 . S
Co30 O50 2.062 . S
Co30 O54 2.117 . S
Co30 O55 2.020 1_554 S
C31 O51 1.259 . S
C31 O54 1.258 . S
Co32 N41 2.057 . S
Co32 O48 2.117 . S
Co32 O49 2.020 . S
Co32 O51 2.021 . S
Co32 O56 2.062 1_554 S
C33 N35 1.316 . S
C33 N36 1.347 . S
C33 H38 0.931 . S
C34 N35 1.375 . S
C34 C37 1.350 . S
C34 H39 0.930 1_554 S
N35 Co30 2.057 . S
N35 C33 1.316 . S
N35 C34 1.375 . S
N36 C33 1.347 . S
N36 C37 1.373 . S
C37 C34 1.350 . S
C37 N36 1.373 . S
C37 H58 0.931 . S
H38 C33 0.931 . S
H39 C34 0.930 1_556 S
C40 O47 1.259 . S
C40 O48 1.258 . S
N41 Co32 2.057 . S
N41 C42 1.316 1_554 S
N41 C43 1.375 . S
C42 N41 1.316 1_556 S
C42 N44 1.347 . S
C42 H53 0.931 . S
C43 N41 1.375 . S
C43 C45 1.350 1_554 S
C43 H52 0.930 . S
N44 C42 1.347 . S
N44 C45 1.373 . S
C45 C43 1.350 1_556 S
C45 N44 1.373 . S
C45 H59 0.931 . S
C46 O49 1.256 . S
C46 O50 1.255 . S
O47 Co30 2.021 . S
O47 C40 1.259 . S
O48 Co32 2.117 . S
O48 C40 1.258 . S
O49 Co32 2.020 . S
O49 C46 1.256 . S
O50 Co30 2.062 . S
O50 C46 1.255 . S
O51 C31 1.259 . S
O51 Co32 2.021 . S
H52 C43 0.930 . S
H53 C42 0.931 . S
O54 Co30 2.117 . S
O54 C31 1.258 . S
O55 Co30 2.020 1_556 S
O55 C57 1.256 . S
O56 Co32 2.062 1_556 S
O56 C57 1.255 . S
C57 O55 1.256 . S
C57 O56 1.255 . S
H58 C37 0.931 . S
H59 C45 0.931 . S
Co60 N65 2.057 . S
Co60 O77 2.021 . S
Co60 O80 2.062 . S
Co60 O84 2.117 . S
Co60 O85 2.020 1_554 S
C61 O81 1.259 . S
C61 O84 1.258 . S
Co62 N71 2.057 . S
Co62 O78 2.117 . S
Co62 O79 2.020 . S
Co62 O81 2.021 . S
Co62 O86 2.062 1_554 S
C63 N65 1.316 . S
C63 N66 1.347 . S
C63 H68 0.931 . S
C64 N65 1.375 . S
C64 C67 1.350 . S
C64 H69 0.930 1_554 S
N65 Co60 2.057 . S
N65 C63 1.316 . S
N65 C64 1.375 . S
N66 C63 1.347 . S
N66 C67 1.373 . S
C67 C64 1.350 . S
C67 N66 1.373 . S
C67 H88 0.931 . S
H68 C63 0.931 . S
H69 C64 0.930 1_556 S
C70 O77 1.259 . S
C70 O78 1.258 . S
N71 Co62 2.057 . S
N71 C72 1.316 1_554 S
N71 C73 1.375 . S
C72 N71 1.316 1_556 S
C72 N74 1.347 . S
C72 H83 0.931 . S
C73 N71 1.375 . S
C73 C75 1.350 1_554 S
C73 H82 0.930 . S
N74 C72 1.347 . S
N74 C75 1.373 . S
C75 C73 1.350 1_556 S
C75 N74 1.373 . S
C75 H89 0.931 . S
C76 O79 1.256 . S
C76 O80 1.255 . S
O77 Co60 2.021 . S
O77 C70 1.259 . S
O78 Co62 2.117 . S
O78 C70 1.258 . S
O79 Co62 2.020 . S
O79 C76 1.256 . S
O80 Co60 2.062 . S
O80 C76 1.255 . S
O81 C61 1.259 . S
O81 Co62 2.021 . S
H82 C73 0.930 . S
H83 C72 0.931 . S
O84 Co60 2.117 . S
O84 C61 1.258 . S
O85 Co60 2.020 1_556 S
O85 C87 1.256 . S
O86 Co62 2.062 1_556 S
O86 C87 1.255 . S
C87 O85 1.256 . S
C87 O86 1.255 . S
H88 C67 0.931 . S
H89 C75 0.931 . S
Co90 N95 2.057 . S
Co90 O107 2.021 . S
Co90 O110 2.062 . S
Co90 O114 2.117 . S
Co90 O115 2.020 . S
C91 O111 1.259 . S
C91 O114 1.258 . S
Co92 N101 2.057 . S
Co92 O108 2.117 . S
Co92 O109 2.020 . S
Co92 O111 2.021 . S
Co92 O116 2.062 . S
C93 N95 1.316 . S
C93 N96 1.347 . S
C93 H98 0.931 . S
C94 N95 1.375 . S
C94 C97 1.350 . S
C94 H99 0.930 . S
N95 Co90 2.057 . S
N95 C93 1.316 . S
N95 C94 1.375 . S
N96 C93 1.347 . S
N96 C97 1.373 . S
C97 C94 1.350 . S
C97 N96 1.373 . S
C97 H118 0.931 . S
H98 C93 0.931 . S
H99 C94 0.930 . S
C100 O107 1.259 . S
C100 O108 1.258 . S
N101 Co92 2.057 . S
N101 C102 1.316 . S
N101 C103 1.375 . S
C102 N101 1.316 . S
C102 N104 1.347 . S
C102 H113 0.931 . S
C103 N101 1.375 . S
C103 C105 1.350 . S
C103 H112 0.930 . S
N104 C102 1.347 . S
N104 C105 1.373 . S
C105 C103 1.350 . S
C105 N104 1.373 . S
C105 H119 0.931 . S
C106 O109 1.256 . S
C106 O110 1.255 . S
O107 Co90 2.021 . S
O107 C100 1.259 . S
O108 Co92 2.117 . S
O108 C100 1.258 . S
O109 Co92 2.020 . S
O109 C106 1.256 . S
O110 Co90 2.062 . S
O110 C106 1.255 . S
O111 C91 1.259 . S
O111 Co92 2.021 . S
H112 C103 0.930 . S
H113 C102 0.931 . S
O114 Co90 2.117 . S
O114 C91 1.258 . S
O115 Co90 2.020 . S
O115 C117 1.256 . S
O116 Co92 2.062 . S
O116 C117 1.255 . S
C117 O115 1.256 . S
C117 O116 1.255 . S
H118 C97 0.931 . S
H119 C105 0.931 . S
Co120 N125 2.057 . S
Co120 O137 2.021 . S
Co120 O140 2.062 . S
Co120 O144 2.117 . S
Co120 O145 2.020 . S
C121 O141 1.259 . S
C121 O144 1.258 . S
Co122 N131 2.057 . S
Co122 O138 2.117 . S
Co122 O139 2.020 . S
Co122 O141 2.021 . S
Co122 O146 2.062 . S
C123 N125 1.316 . S
C123 N126 1.347 . S
C123 H128 0.931 . S
C124 N125 1.375 . S
C124 C127 1.350 . S
C124 H129 0.930 . S
N125 Co120 2.057 . S
N125 C123 1.316 . S
N125 C124 1.375 . S
N126 C123 1.347 . S
N126 C127 1.373 . S
C127 C124 1.350 . S
C127 N126 1.373 . S
C127 H148 0.931 . S
H128 C123 0.931 . S
H129 C124 0.930 . S
C130 O137 1.259 . S
C130 O138 1.258 . S
N131 Co122 2.057 . S
N131 C132 1.316 . S
N131 C133 1.375 . S
C132 N131 1.316 . S
C132 N134 1.347 . S
C132 H143 0.931 . S
C133 N131 1.375 . S
C133 C135 1.350 . S
C133 H142 0.930 . S
N134 C132 1.347 . S
N134 C135 1.373 . S
C135 C133 1.350 . S
C135 N134 1.373 . S
C135 H149 0.931 . S
C136 O139 1.256 . S
C136 O140 1.255 . S
O137 Co120 2.021 . S
O137 C130 1.259 . S
O138 Co122 2.117 . S
O138 C130 1.258 . S
O139 Co122 2.020 . S
O139 C136 1.256 . S
O140 Co120 2.062 . S
O140 C136 1.255 . S
O141 C121 1.259 . S
O141 Co122 2.021 . S
H142 C133 0.930 . S
H143 C132 0.931 . S
O144 Co120 2.117 . S
O144 C121 1.258 . S
O145 Co120 2.020 . S
O145 C147 1.256 . S
O146 Co122 2.062 . S
O146 C147 1.255 . S
C147 O145 1.256 . S
C147 O146 1.255 . S
H148 C127 0.931 . S
H149 C135 0.931 . S
Co150 N155 2.057 . S
Co150 O167 2.021 . S
Co150 O170 2.062 . S
Co150 O174 2.117 . S
Co150 O175 2.020 . S
C151 O171 1.259 . S
C151 O174 1.258 . S
Co152 N161 2.057 . S
Co152 O168 2.117 . S
Co152 O169 2.020 . S
Co152 O171 2.021 . S
Co152 O176 2.062 . S
C153 N155 1.316 . S
C153 N156 1.347 . S
C153 H158 0.931 . S
C154 N155 1.375 . S
C154 C157 1.350 . S
C154 H159 0.930 . S
N155 Co150 2.057 . S
N155 C153 1.316 . S
N155 C154 1.375 . S
N156 C153 1.347 . S
N156 C157 1.373 . S
C157 C154 1.350 . S
C157 N156 1.373 . S
C157 H178 0.931 . S
H158 C153 0.931 . S
H159 C154 0.930 . S
C160 O167 1.259 . S
C160 O168 1.258 . S
N161 Co152 2.057 . S
N161 C162 1.316 . S
N161 C163 1.375 . S
C162 N161 1.316 . S
C162 N164 1.347 . S
C162 H173 0.931 . S
C163 N161 1.375 . S
C163 C165 1.350 . S
C163 H172 0.930 . S
N164 C162 1.347 . S
N164 C165 1.373 . S
C165 C163 1.350 . S
C165 N164 1.373 . S
C165 H179 0.931 . S
C166 O169 1.256 . S
C166 O170 1.255 . S
O167 Co150 2.021 . S
O167 C160 1.259 . S
O168 Co152 2.117 . S
O168 C160 1.258 . S
O169 Co152 2.020 . S
O169 C166 1.256 . S
O170 Co150 2.062 . S
O170 C166 1.255 . S
O171 C151 1.259 . S
O171 Co152 2.021 . S
H172 C163 0.930 . S
H173 C162 0.931 . S
O174 Co150 2.117 . S
O174 C151 1.258 . S
O175 Co150 2.020 . S
O175 C177 1.256 . S
O176 Co152 2.062 . S
O176 C177 1.255 . S
C177 O175 1.256 . S
C177 O176 1.255 . S
H178 C157 0.931 . S
H179 C165 0.931 . S
Co180 N185 2.057 . S
Co180 O197 2.021 . S
Co180 O200 2.062 . S
Co180 O204 2.117 . S
Co180 O205 2.020 . S
C181 O201 1.259 . S
C181 O204 1.258 . S
Co182 N191 2.057 . S
Co182 O198 2.117 . S
Co182 O199 2.020 . S
Co182 O201 2.021 . S
Co182 O206 2.062 . S
C183 N185 1.316 . S
C183 N186 1.347 . S
C183 H188 0.931 . S
C184 N185 1.375 . S
C184 C187 1.350 . S
C184 H189 0.930 . S
N185 Co180 2.057 . S
N185 C183 1.316 . S
N185 C184 1.375 . S
N186 C183 1.347 . S
N186 C187 1.373 . S
C187 C184 1.350 . S
C187 N186 1.373 . S
C187 H208 0.931 . S
H188 C183 0.931 . S
H189 C184 0.930 . S
C190 O197 1.259 . S
C190 O198 1.258 . S
N191 Co182 2.057 . S
N191 C192 1.316 . S
N191 C193 1.375 . S
C192 N191 1.316 . S
C192 N194 1.347 . S
C192 H203 0.931 . S
C193 N191 1.375 . S
C193 C195 1.350 . S
C193 H202 0.930 . S
N194 C192 1.347 . S
N194 C195 1.373 . S
C195 C193 1.350 . S
C195 N194 1.373 . S
C195 H209 0.931 . S
C196 O199 1.256 . S
C196 O200 1.255 . S
O197 Co180 2.021 . S
O197 C190 1.259 . S
O198 Co182 2.117 . S
O198 C190 1.258 . S
O199 Co182 2.020 . S
O199 C196 1.256 . S
O200 Co180 2.062 . S
O200 C196 1.255 . S
O201 C181 1.259 . S
O201 Co182 2.021 . S
H202 C193 0.930 . S
H203 C192 0.931 . S
O204 Co180 2.117 . S
O204 C181 1.258 . S
O205 Co180 2.020 . S
O205 C207 1.256 . S
O206 Co182 2.062 . S
O206 C207 1.255 . S
C207 O205 1.256 . S
C207 O206 1.255 . S
H208 C187 0.931 . S
H209 C195 0.931 . S
Co210 N215 2.057 . S
Co210 O227 2.021 . S
Co210 O230 2.062 . S
Co210 O234 2.117 . S
Co210 O235 2.020 . S
C211 O231 1.259 . S
C211 O234 1.258 . S
Co212 N221 2.057 . S
Co212 O228 2.117 . S
Co212 O229 2.020 . S
Co212 O231 2.021 . S
Co212 O236 2.062 . S
C213 N215 1.316 . S
C213 N216 1.347 . S
C213 H218 0.931 . S
C214 N215 1.375 . S
C214 C217 1.350 . S
C214 H219 0.930 . S
N215 Co210 2.057 . S
N215 C213 1.316 . S
N215 C214 1.375 . S
N216 C213 1.347 . S
N216 C217 1.373 . S
C217 C214 1.350 . S
C217 N216 1.373 . S
C217 H238 0.931 . S
H218 C213 0.931 . S
H219 C214 0.930 . S
C220 O227 1.259 . S
C220 O228 1.258 . S
N221 Co212 2.057 . S
N221 C222 1.316 . S
N221 C223 1.375 . S
C222 N221 1.316 . S
C222 N224 1.347 . S
C222 H233 0.931 . S
C223 N221 1.375 . S
C223 C225 1.350 . S
C223 H232 0.930 . S
N224 C222 1.347 . S
N224 C225 1.373 . S
C225 C223 1.350 . S
C225 N224 1.373 . S
C225 H239 0.931 . S
C226 O229 1.256 . S
C226 O230 1.255 . S
O227 Co210 2.021 . S
O227 C220 1.259 . S
O228 Co212 2.117 . S
O228 C220 1.258 . S
O229 Co212 2.020 . S
O229 C226 1.256 . S
O230 Co210 2.062 . S
O230 C226 1.255 . S
O231 C211 1.259 . S
O231 Co212 2.021 . S
H232 C223 0.930 . S
H233 C222 0.931 . S
O234 Co210 2.117 . S
O234 C211 1.258 . S
O235 Co210 2.020 . S
O235 C237 1.256 . S
O236 Co212 2.062 . S
O236 C237 1.255 . S
C237 O235 1.256 . S
C237 O236 1.255 . S
H238 C217 0.931 . S
H239 C225 0.931 . S
Co240 N245 2.057 . S
Co240 O257 2.021 . S
Co240 O260 2.062 . S
Co240 O264 2.117 . S
Co240 O265 2.020 . S
C241 O261 1.259 . S
C241 O264 1.258 . S
Co242 N251 2.057 . S
Co242 O258 2.117 . S
Co242 O259 2.020 . S
Co242 O261 2.021 . S
Co242 O266 2.062 . S
C243 N245 1.316 . S
C243 N246 1.347 . S
C243 H248 0.931 . S
C244 N245 1.375 . S
C244 C247 1.350 . S
C244 H249 0.930 . S
N245 Co240 2.057 . S
N245 C243 1.316 . S
N245 C244 1.375 . S
N246 C243 1.347 . S
N246 C247 1.373 . S
C247 C244 1.350 . S
C247 N246 1.373 . S
C247 H268 0.931 . S
H248 C243 0.931 . S
H249 C244 0.930 . S
C250 O257 1.259 . S
C250 O258 1.258 . S
N251 Co242 2.057 . S
N251 C252 1.316 . S
N251 C253 1.375 . S
C252 N251 1.316 . S
C252 N254 1.347 . S
C252 H263 0.931 . S
C253 N251 1.375 . S
C253 C255 1.350 . S
C253 H262 0.930 . S
N254 C252 1.347 . S
N254 C255 1.373 . S
C255 C253 1.350 . S
C255 N254 1.373 . S
C255 H269 0.931 . S
C256 O259 1.256 . S
C256 O260 1.255 . S
O257 Co240 2.021 . S
O257 C250 1.259 . S
O258 Co242 2.117 . S
O258 C250 1.258 . S
O259 Co242 2.020 . S
O259 C256 1.256 . S
O260 Co240 2.062 . S
O260 C256 1.255 . S
O261 C241 1.259 . S
O261 Co242 2.021 . S
H262 C253 0.930 . S
H263 C252 0.931 . S
O264 Co240 2.117 . S
O264 C241 1.258 . S
O265 Co240 2.020 . S
O265 C267 1.256 . S
O266 Co242 2.062 . S
O266 C267 1.255 . S
C267 O265 1.256 . S
C267 O266 1.255 . S
H268 C247 0.931 . S
H269 C255 0.931 . S
Co270 N275 2.057 . S
Co270 O287 2.021 . S
Co270 O290 2.062 . S
Co270 O294 2.117 . S
Co270 O295 2.020 . S
C271 O291 1.259 . S
C271 O294 1.258 . S
Co272 N281 2.057 . S
Co272 O288 2.117 . S
Co272 O289 2.020 . S
Co272 O291 2.021 . S
Co272 O296 2.062 . S
C273 N275 1.316 . S
C273 N276 1.347 . S
C273 H278 0.931 . S
C274 N275 1.375 . S
C274 C277 1.350 . S
C274 H279 0.930 . S
N275 Co270 2.057 . S
N275 C273 1.316 . S
N275 C274 1.375 . S
N276 C273 1.347 . S
N276 C277 1.373 . S
C277 C274 1.350 . S
C277 N276 1.373 . S
C277 H298 0.931 . S
H278 C273 0.931 . S
H279 C274 0.930 . S
C280 O287 1.259 . S
C280 O288 1.258 . S
N281 Co272 2.057 . S
N281 C282 1.316 . S
N281 C283 1.375 . S
C282 N281 1.316 . S
C282 N284 1.347 . S
C282 H293 0.931 . S
C283 N281 1.375 . S
C283 C285 1.350 . S
C283 H292 0.930 . S
N284 C282 1.347 . S
N284 C285 1.373 . S
C285 C283 1.350 . S
C285 N284 1.373 . S
C285 H299 0.931 . S
C286 O289 1.256 . S
C286 O290 1.255 . S
O287 Co270 2.021 . S
O287 C280 1.259 . S
O288 Co272 2.117 . S
O288 C280 1.258 . S
O289 Co272 2.020 . S
O289 C286 1.256 . S
O290 Co270 2.062 . S
O290 C286 1.255 . S
O291 C271 1.259 . S
O291 Co272 2.021 . S
H292 C283 0.930 . S
H293 C282 0.931 . S
O294 Co270 2.117 . S
O294 C271 1.258 . S
O295 Co270 2.020 . S
O295 C297 1.256 . S
O296 Co272 2.062 . S
O296 C297 1.255 . S
C297 O295 1.256 . S
C297 O296 1.255 . S
H298 C277 0.931 . S
H299 C285 0.931 . S
Co300 N305 2.057 . S
Co300 O317 2.021 . S
Co300 O320 2.062 . S
Co300 O324 2.117 . S
Co300 O325 2.020 . S
C301 O321 1.259 . S
C301 O324 1.258 . S
Co302 N311 2.057 . S
Co302 O318 2.117 . S
Co302 O319 2.020 . S
Co302 O321 2.021 . S
Co302 O326 2.062 . S
C303 N305 1.316 . S
C303 N306 1.347 . S
C303 H308 0.931 . S
C304 N305 1.375 . S
C304 C307 1.350 . S
C304 H309 0.930 . S
N305 Co300 2.057 . S
N305 C303 1.316 . S
N305 C304 1.375 . S
N306 C303 1.347 . S
N306 C307 1.373 . S
C307 C304 1.350 . S
C307 N306 1.373 . S
C307 H328 0.931 . S
H308 C303 0.931 . S
H309 C304 0.930 . S
C310 O317 1.259 . S
C310 O318 1.258 . S
N311 Co302 2.057 . S
N311 C312 1.316 . S
N311 C313 1.375 . S
C312 N311 1.316 . S
C312 N314 1.347 . S
C312 H323 0.931 . S
C313 N311 1.375 . S
C313 C315 1.350 . S
C313 H322 0.930 . S
N314 C312 1.347 . S
N314 C315 1.373 . S
C315 C313 1.350 . S
C315 N314 1.373 . S
C315 H329 0.931 . S
C316 O319 1.256 . S
C316 O320 1.255 . S
O317 Co300 2.021 . S
O317 C310 1.259 . S
O318 Co302 2.117 . S
O318 C310 1.258 . S
O319 Co302 2.020 . S
O319 C316 1.256 . S
O320 Co300 2.062 . S
O320 C316 1.255 . S
O321 C301 1.259 . S
O321 Co302 2.021 . S
H322 C313 0.930 . S
H323 C312 0.931 . S
O324 Co300 2.117 . S
O324 C301 1.258 . S
O325 Co300 2.020 . S
O325 C327 1.256 . S
O326 Co302 2.062 . S
O326 C327 1.255 . S
C327 O325 1.256 . S
C327 O326 1.255 . S
H328 C307 0.931 . S
H329 C315 0.931 . S
Co330 N335 2.057 . S
Co330 O347 2.021 . S
Co330 O350 2.062 . S
Co330 O354 2.117 . S
Co330 O355 2.020 . S
C331 O351 1.259 . S
C331 O354 1.258 . S
Co332 N341 2.057 . S
Co332 O348 2.117 . S
Co332 O349 2.020 . S
Co332 O351 2.021 . S
Co332 O356 2.062 . S
C333 N335 1.316 . S
C333 N336 1.347 . S
C333 H338 0.931 . S
C334 N335 1.375 . S
C334 C337 1.350 . S
C334 H339 0.930 . S
N335 Co330 2.057 . S
N335 C333 1.316 . S
N335 C334 1.375 . S
N336 C333 1.347 . S
N336 C337 1.373 . S
C337 C334 1.350 . S
C337 N336 1.373 . S
C337 H358 0.931 . S
H338 C333 0.931 . S
H339 C334 0.930 . S
C340 O347 1.259 . S
C340 O348 1.258 . S
N341 Co332 2.057 . S
N341 C342 1.316 . S
N341 C343 1.375 . S
C342 N341 1.316 . S
C342 N344 1.347 . S
C342 H353 0.931 . S
C343 N341 1.375 . S
C343 C345 1.350 . S
C343 H352 0.930 . S
N344 C342 1.347 . S
N344 C345 1.373 . S
C345 C343 1.350 . S
C345 N344 1.373 . S
C345 H359 0.931 . S
C346 O349 1.256 . S
C346 O350 1.255 . S
O347 Co330 2.021 . S
O347 C340 1.259 . S
O348 Co332 2.117 . S
O348 C340 1.258 . S
O349 Co332 2.020 . S
O349 C346 1.256 . S
O350 Co330 2.062 . S
O350 C346 1.255 . S
O351 C331 1.259 . S
O351 Co332 2.021 . S
H352 C343 0.930 . S
H353 C342 0.931 . S
O354 Co330 2.117 . S
O354 C331 1.258 . S
O355 Co330 2.020 . S
O355 C357 1.256 . S
O356 Co332 2.062 . S
O356 C357 1.255 . S
C357 O355 1.256 . S
C357 O356 1.255 . S
H358 C337 0.931 . S
H359 C345 0.931 . S
Co360 N365 2.057 . S
Co360 O377 2.021 . S
Co360 O380 2.062 . S
Co360 O384 2.117 . S
Co360 O385 2.020 . S
C361 O381 1.259 . S
C361 O384 1.258 . S
Co362 N371 2.057 . S
Co362 O378 2.117 . S
Co362 O379 2.020 . S
Co362 O381 2.021 . S
Co362 O386 2.062 . S
C363 N365 1.316 1_455 S
C363 N366 1.347 . S
C363 H368 0.931 . S
C364 N365 1.375 . S
C364 C367 1.350 . S
C364 H369 0.930 . S
N365 Co360 2.057 . S
N365 C363 1.316 1_655 S
N365 C364 1.375 . S
N366 C363 1.347 . S
N366 C367 1.373 1_455 S
C367 C364 1.350 . S
C367 N366 1.373 1_655 S
C367 H388 0.931 . S
H368 C363 0.931 . S
H369 C364 0.930 . S
C370 O377 1.259 . S
C370 O378 1.258 . S
N371 Co362 2.057 . S
N371 C372 1.316 . S
N371 C373 1.375 . S
C372 N371 1.316 . S
C372 N374 1.347 . S
C372 H383 0.931 . S
C373 N371 1.375 . S
C373 C375 1.350 . S
C373 H382 0.930 . S
N374 C372 1.347 . S
N374 C375 1.373 . S
C375 C373 1.350 . S
C375 N374 1.373 . S
C375 H389 0.931 . S
C376 O379 1.256 . S
C376 O380 1.255 . S
O377 Co360 2.021 . S
O377 C370 1.259 . S
O378 Co362 2.117 . S
O378 C370 1.258 . S
O379 Co362 2.020 . S
O379 C376 1.256 . S
O380 Co360 2.062 . S
O380 C376 1.255 . S
O381 C361 1.259 . S
O381 Co362 2.021 . S
H382 C373 0.930 . S
H383 C372 0.931 . S
O384 Co360 2.117 . S
O384 C361 1.258 . S
O385 Co360 2.020 . S
O385 C387 1.256 . S
O386 Co362 2.062 . S
O386 C387 1.255 . S
C387 O385 1.256 . S
C387 O386 1.255 . S
H388 C367 0.931 . S
H389 C375 0.931 . S
Co390 N395 2.057 . S
Co390 O407 2.021 . S
Co390 O410 2.062 . S
Co390 O414 2.117 . S
Co390 O415 2.020 . S
C391 O411 1.259 . S
C391 O414 1.258 . S
Co392 N401 2.057 . S
Co392 O408 2.117 . S
Co392 O409 2.020 . S
Co392 O411 2.021 . S
Co392 O416 2.062 . S
C393 N395 1.316 . S
C393 N396 1.347 . S
C393 H398 0.931 . S
C394 N395 1.375 . S
C394 C397 1.350 . S
C394 H399 0.930 . S
N395 Co390 2.057 . S
N395 C393 1.316 . S
N395 C394 1.375 . S
N396 C393 1.347 . S
N396 C397 1.373 . S
C397 C394 1.350 . S
C397 N396 1.373 . S
C397 H418 0.931 . S
H398 C393 0.931 . S
H399 C394 0.930 . S
C400 O407 1.259 . S
C400 O408 1.258 . S
N401 Co392 2.057 . S
N401 C402 1.316 . S
N401 C403 1.375 . S
C402 N401 1.316 . S
C402 N404 1.347 1_545 S
C402 H413 0.931 . S
C403 N401 1.375 . S
C403 C405 1.350 1_545 S
C403 H412 0.930 . S
N404 C402 1.347 1_565 S
N404 C405 1.373 . S
C405 C403 1.350 1_565 S
C405 N404 1.373 . S
C405 H419 0.931 . S
C406 O409 1.256 . S
C406 O410 1.255 . S
O407 Co390 2.021 . S
O407 C400 1.259 . S
O408 Co392 2.117 . S
O408 C400 1.258 . S
O409 Co392 2.020 . S
O409 C406 1.256 . S
O410 Co390 2.062 . S
O410 C406 1.255 . S
O411 C391 1.259 . S
O411 Co392 2.021 . S
H412 C403 0.930 . S
H413 C402 0.931 . S
O414 Co390 2.117 . S
O414 C391 1.258 . S
O415 Co390 2.020 . S
O415 C417 1.256 . S
O416 Co392 2.062 . S
O416 C417 1.255 . S
C417 O415 1.256 . S
C417 O416 1.255 . S
H418 C397 0.931 . S
H419 C405 0.931 . S
Co420 N425 2.057 . S
Co420 O437 2.021 . S
Co420 O440 2.062 . S
Co420 O444 2.117 . S
Co420 O445 2.020 . S
C421 O441 1.259 . S
C421 O444 1.258 . S
Co422 N431 2.057 . S
Co422 O438 2.117 . S
Co422 O439 2.020 . S
Co422 O441 2.021 . S
Co422 O446 2.062 . S
C423 N425 1.316 1_565 S
C423 N426 1.347 . S
C423 H428 0.931 . S
C424 N425 1.375 . S
C424 C427 1.350 . S
C424 H429 0.930 . S
N425 Co420 2.057 . S
N425 C423 1.316 1_545 S
N425 C424 1.375 . S
N426 C423 1.347 . S
N426 C427 1.373 1_565 S
C427 C424 1.350 . S
C427 N426 1.373 1_545 S
C427 H448 0.931 . S
H428 C423 0.931 . S
H429 C424 0.930 . S
C430 O437 1.259 . S
C430 O438 1.258 . S
N431 Co422 2.057 . S
N431 C432 1.316 . S
N431 C433 1.375 . S
C432 N431 1.316 . S
C432 N434 1.347 1_655 S
C432 H443 0.931 . S
C433 N431 1.375 . S
C433 C435 1.350 1_655 S
C433 H442 0.930 . S
N434 C432 1.347 1_455 S
N434 C435 1.373 . S
C435 C433 1.350 1_455 S
C435 N434 1.373 . S
C435 H449 0.931 . S
C436 O439 1.256 . S
C436 O440 1.255 . S
O437 Co420 2.021 . S
O437 C430 1.259 . S
O438 Co422 2.117 . S
O438 C430 1.258 . S
O439 Co422 2.020 . S
O439 C436 1.256 . S
O440 Co420 2.062 . S
O440 C436 1.255 . S
O441 C421 1.259 . S
O441 Co422 2.021 . S
H442 C433 0.930 . S
H443 C432 0.931 . S
O444 Co420 2.117 . S
O444 C421 1.258 . S
O445 Co420 2.020 . S
O445 C447 1.256 . S
O446 Co422 2.062 . S
O446 C447 1.255 . S
C447 O445 1.256 . S
C447 O446 1.255 . S
H448 C427 0.931 . S
H449 C435 0.931 . S
Co450 N455 2.057 . S
Co450 O467 2.021 . S
Co450 O470 2.062 . S
Co450 O474 2.117 . S
Co450 O475 2.020 . S
C451 O471 1.259 . S
C451 O474 1.258 . S
Co452 N461 2.057 . S
Co452 O468 2.117 . S
Co452 O469 2.020 . S
Co452 O471 2.021 . S
Co452 O476 2.062 . S
C453 N455 1.316 . S
C453 N456 1.347 . S
C453 H458 0.931 . S
C454 N455 1.375 . S
C454 C457 1.350 . S
C454 H459 0.930 . S
N455 Co450 2.057 . S
N455 C453 1.316 . S
N455 C454 1.375 . S
N456 C453 1.347 . S
N456 C457 1.373 . S
C457 C454 1.350 . S
C457 N456 1.373 . S
C457 H478 0.931 . S
H458 C453 0.931 . S
H459 C454 0.930 . S
C460 O467 1.259 . S
C460 O468 1.258 . S
N461 Co452 2.057 . S
N461 C462 1.316 1_545 S
N461 C463 1.375 . S
C462 N461 1.316 1_565 S
C462 N464 1.347 . S
C462 H473 0.931 . S
C463 N461 1.375 . S
C463 C465 1.350 . S
C463 H472 0.930 . S
N464 C462 1.347 . S
N464 C465 1.373 1_565 S
C465 C463 1.350 . S
C465 N464 1.373 1_545 S
C465 H479 0.931 . S
C466 O469 1.256 . S
C466 O470 1.255 . S
O467 Co450 2.021 . S
O467 C460 1.259 . S
O468 Co452 2.117 . S
O468 C460 1.258 . S
O469 Co452 2.020 . S
O469 C466 1.256 . S
O470 Co450 2.062 . S
O470 C466 1.255 . S
O471 C451 1.259 . S
O471 Co452 2.021 . S
H472 C463 0.930 . S
H473 C462 0.931 . S
O474 Co450 2.117 . S
O474 C451 1.258 . S
O475 Co450 2.020 . S
O475 C477 1.256 . S
O476 Co452 2.062 . S
O476 C477 1.255 . S
C477 O475 1.256 . S
C477 O476 1.255 . S
H478 C457 0.931 . S
H479 C465 0.931 . S
Co480 N485 2.057 . S
Co480 O497 2.021 . S
Co480 O500 2.062 . S
Co480 O504 2.117 . S
Co480 O505 2.020 . S
C481 O501 1.259 . S
C481 O504 1.258 . S
Co482 N491 2.057 . S
Co482 O498 2.117 . S
Co482 O499 2.020 . S
Co482 O501 2.021 . S
Co482 O506 2.062 . S
C483 N485 1.316 . S
C483 N486 1.347 1_545 S
C483 H488 0.931 . S
C484 N485 1.375 . S
C484 C487 1.350 1_545 S
C484 H489 0.930 . S
N485 Co480 2.057 . S
N485 C483 1.316 . S
N485 C484 1.375 . S
N486 C483 1.347 1_565 S
N486 C487 1.373 . S
C487 C484 1.350 1_565 S
C487 N486 1.373 . S
C487 H508 0.931 . S
H488 C483 0.931 . S
H489 C484 0.930 . S
C490 O497 1.259 . S
C490 O498 1.258 . S
N491 Co482 2.057 . S
N491 C492 1.316 1_655 S
N491 C493 1.375 . S
C492 N491 1.316 1_455 S
C492 N494 1.347 . S
C492 H503 0.931 . S
C493 N491 1.375 . S
C493 C495 1.350 . S
C493 H502 0.930 . S
N494 C492 1.347 . S
N494 C495 1.373 1_455 S
C495 C493 1.350 . S
C495 N494 1.373 1_655 S
C495 H509 0.931 . S
C496 O499 1.256 . S
C496 O500 1.255 . S
O497 Co480 2.021 . S
O497 C490 1.259 . S
O498 Co482 2.117 . S
O498 C490 1.258 . S
O499 Co482 2.020 . S
O499 C496 1.256 . S
O500 Co480 2.062 . S
O500 C496 1.255 . S
O501 C481 1.259 . S
O501 Co482 2.021 . S
H502 C493 0.930 . S
H503 C492 0.931 . S
O504 Co480 2.117 . S
O504 C481 1.258 . S
O505 Co480 2.020 . S
O505 C507 1.256 . S
O506 Co482 2.062 . S
O506 C507 1.255 . S
C507 O505 1.256 . S
C507 O506 1.255 . S
H508 C487 0.931 . S
H509 C495 0.931 . S
Co510 N515 2.057 . S
Co510 O527 2.021 . S
Co510 O530 2.062 . S
Co510 O534 2.117 . S
Co510 O535 2.020 . S
C511 O531 1.259 . S
C511 O534 1.258 . S
Co512 N521 2.057 . S
Co512 O528 2.117 . S
Co512 O529 2.020 . S
Co512 O531 2.021 . S
Co512 O536 2.062 . S
C513 N515 1.316 . S
C513 N516 1.347 1_655 S
C513 H518 0.931 . S
C514 N515 1.375 . S
C514 C517 1.350 1_655 S
C514 H519 0.930 . S
N515 Co510 2.057 . S
N515 C513 1.316 . S
N515 C514 1.375 . S
N516 C513 1.347 1_455 S
N516 C517 1.373 . S
C517 C514 1.350 1_455 S
C517 N516 1.373 . S
C517 H538 0.931 . S
H518 C513 0.931 . S
H519 C514 0.930 . S
C520 O527 1.259 . S
C520 O528 1.258 . S
N521 Co512 2.057 . S
N521 C522 1.316 . S
N521 C523 1.375 . S
C522 N521 1.316 . S
C522 N524 1.347 . S
C522 H533 0.931 . S
C523 N521 1.375 . S
C523 C525 1.350 . S
C523 H532 0.930 . S
N524 C522 1.347 . S
N524 C525 1.373 . S
C525 C523 1.350 . S
C525 N524 1.373 . S
C525 H539 0.931 . S
C526 O529 1.256 . S
C526 O530 1.255 . S
O527 Co510 2.021 . S
O527 C520 1.259 . S
O528 Co512 2.117 . S
O528 C520 1.258 . S
O529 Co512 2.020 . S
O529 C526 1.256 . S
O530 Co510 2.062 . S
O530 C526 1.255 . S
O531 C511 1.259 . S
O531 Co512 2.021 . S
H532 C523 0.930 . S
H533 C522 0.931 . S
O534 Co510 2.117 . S
O534 C511 1.258 . S
O535 Co510 2.020 . S
O535 C537 1.256 . S
O536 Co512 2.062 . S
O536 C537 1.255 . S
C537 O535 1.256 . S
C537 O536 1.255 . S
H538 C517 0.931 . S
H539 C525 0.931 . S
H540 C546 0.930 . S
H541 C549 0.930 . S
H542 C550 0.930 . S
H543 C551 0.930 . S
H544 C554 0.930 . S
H545 C555 0.930 . S
C546 H540 0.930 . S
C546 C547 1.355 . S
C546 C548 1.415 . S
C547 C546 1.355 . S
C547 C549 1.419 1_556 S
C548 C546 1.415 . S
C548 C553 1.425 1_556 S
C548 C555 1.409 . S
C549 H541 0.930 . S
C549 C547 1.419 1_554 S
C549 C550 1.362 . S
C550 H542 0.930 . S
C550 C549 1.362 . S
C550 C553 1.409 . S
C551 H543 0.930 . S
C551 C552 1.355 . S
C551 C553 1.415 . S
C552 C551 1.355 . S
C552 C554 1.419 1_554 S
C553 C548 1.425 1_554 S
C553 C550 1.409 . S
C553 C551 1.415 . S
C554 H544 0.930 . S
C554 C552 1.419 1_556 S
C554 C555 1.362 . S
C555 H545 0.930 . S
C555 C548 1.409 . S
C555 C554 1.362 . S
H556 C562 0.930 . S
H557 C565 0.930 . S
H558 C566 0.930 . S
H559 C567 0.930 . S
H560 C570 0.930 . S
H561 C571 0.930 . S
C562 H556 0.930 . S
C562 C563 1.355 . S
C562 C564 1.415 . S
C563 C562 1.355 . S
C563 C565 1.419 1_554 S
C564 C562 1.415 . S
C564 C569 1.425 1_554 S
C564 C571 1.409 . S
C565 H557 0.930 . S
C565 C563 1.419 1_556 S
C565 C566 1.362 . S
C566 H558 0.930 . S
C566 C565 1.362 . S
C566 C569 1.409 . S
C567 H559 0.930 . S
C567 C568 1.355 . S
C567 C569 1.415 . S
C568 C567 1.355 . S
C568 C570 1.419 1_556 S
C569 C564 1.425 1_556 S
C569 C566 1.409 . S
C569 C567 1.415 . S
C570 H560 0.930 . S
C570 C568 1.419 1_554 S
C570 C571 1.362 . S
C571 H561 0.930 . S
C571 C564 1.409 . S
C571 C570 1.362 . S
H572 C578 0.930 . S
H573 C581 0.930 . S
H574 C582 0.930 . S
H575 C583 0.930 . S
H576 C586 0.930 . S
H577 C587 0.930 . S
C578 H572 0.930 . S
C578 C579 1.355 . S
C578 C580 1.415 . S
C579 C578 1.355 . S
C579 C581 1.419 1_556 S
C580 C578 1.415 . S
C580 C585 1.425 1_556 S
C580 C587 1.409 . S
C581 H573 0.930 . S
C581 C579 1.419 1_554 S
C581 C582 1.362 . S
C582 H574 0.930 . S
C582 C581 1.362 . S
C582 C585 1.409 . S
C583 H575 0.930 . S
C583 C584 1.355 . S
C583 C585 1.415 . S
C584 C583 1.355 . S
C584 C586 1.419 1_554 S
C585 C580 1.425 1_554 S
C585 C582 1.409 . S
C585 C583 1.415 . S
C586 H576 0.930 . S
C586 C584 1.419 1_556 S
C586 C587 1.362 . S
C587 H577 0.930 . S
C587 C580 1.409 . S
C587 C586 1.362 . S
H588 C594 0.930 . S
H589 C597 0.930 . S
H590 C598 0.930 . S
H591 C599 0.930 . S
H592 C602 0.930 . S
H593 C603 0.930 . S
C594 H588 0.930 . S
C594 C595 1.355 . S
C594 C596 1.415 . S
C595 C594 1.355 . S
C595 C597 1.419 . S
C596 C594 1.415 . S
C596 C601 1.425 . S
C596 C603 1.409 . S
C597 H589 0.930 . S
C597 C595 1.419 . S
C597 C598 1.362 . S
C598 H590 0.930 . S
C598 C597 1.362 . S
C598 C601 1.409 . S
C599 H591 0.930 . S
C599 C600 1.355 . S
C599 C601 1.415 . S
C600 C599 1.355 . S
C600 C602 1.419 . S
C601 C596 1.425 . S
C601 C598 1.409 . S
C601 C599 1.415 . S
C602 H592 0.930 . S
C602 C600 1.419 . S
C602 C603 1.362 . S
C603 H593 0.930 . S
C603 C596 1.409 . S
C603 C602 1.362 . S
H604 C610 0.930 . S
H605 C613 0.930 . S
H606 C614 0.930 . S
H607 C615 0.930 . S
H608 C618 0.930 . S
H609 C619 0.930 . S
C610 H604 0.930 . S
C610 C611 1.355 . S
C610 C612 1.415 . S
C611 C610 1.355 . S
C611 C613 1.419 . S
C612 C610 1.415 . S
C612 C617 1.425 . S
C612 C619 1.409 . S
C613 H605 0.930 . S
C613 C611 1.419 . S
C613 C614 1.362 . S
C614 H606 0.930 . S
C614 C613 1.362 . S
C614 C617 1.409 . S
C615 H607 0.930 . S
C615 C616 1.355 . S
C615 C617 1.415 . S
C616 C615 1.355 . S
C616 C618 1.419 . S
C617 C612 1.425 . S
C617 C614 1.409 . S
C617 C615 1.415 . S
C618 H608 0.930 . S
C618 C616 1.419 . S
C618 C619 1.362 . S
C619 H609 0.930 . S
C619 C612 1.409 . S
C619 C618 1.362 . S
H620 C626 0.930 . S
H621 C629 0.930 . S
H622 C630 0.930 . S
H623 C631 0.930 . S
H624 C634 0.930 . S
H625 C635 0.930 . S
C626 H620 0.930 . S
C626 C627 1.355 . S
C626 C628 1.415 . S
C627 C626 1.355 . S
C627 C629 1.419 . S
C628 C626 1.415 . S
C628 C633 1.425 . S
C628 C635 1.409 . S
C629 H621 0.930 . S
C629 C627 1.419 . S
C629 C630 1.362 . S
C630 H622 0.930 . S
C630 C629 1.362 . S
C630 C633 1.409 . S
C631 H623 0.930 . S
C631 C632 1.355 . S
C631 C633 1.415 . S
C632 C631 1.355 . S
C632 C634 1.419 . S
C633 C628 1.425 . S
C633 C630 1.409 . S
C633 C631 1.415 . S
C634 H624 0.930 . S
C634 C632 1.419 . S
C634 C635 1.362 . S
C635 H625 0.930 . S
C635 C628 1.409 . S
C635 C634 1.362 . S
H636 C642 0.930 . S
H637 C645 0.930 . S
H638 C646 0.930 . S
H639 C647 0.930 . S
H640 C650 0.930 . S
H641 C651 0.930 . S
C642 H636 0.930 . S
C642 C643 1.355 . S
C642 C644 1.415 . S
C643 C642 1.355 . S
C643 C645 1.419 . S
C644 C642 1.415 . S
C644 C649 1.425 . S
C644 C651 1.409 . S
C645 H637 0.930 . S
C645 C643 1.419 . S
C645 C646 1.362 . S
C646 H638 0.930 . S
C646 C645 1.362 . S
C646 C649 1.409 . S
C647 H639 0.930 . S
C647 C648 1.355 . S
C647 C649 1.415 . S
C648 C647 1.355 . S
C648 C650 1.419 . S
C649 C644 1.425 . S
C649 C646 1.409 . S
C649 C647 1.415 . S
C650 H640 0.930 . S
C650 C648 1.419 . S
C650 C651 1.362 . S
C651 H641 0.930 . S
C651 C644 1.409 . S
C651 C650 1.362 . S
H652 C658 0.930 . S
H653 C661 0.930 . S
H654 C662 0.930 . S
H655 C663 0.930 . S
H656 C666 0.930 . S
H657 C667 0.930 . S
C658 H652 0.930 . S
C658 C659 1.355 . S
C658 C660 1.415 . S
C659 C658 1.355 . S
C659 C661 1.419 . S
C660 C658 1.415 . S
C660 C665 1.425 . S
C660 C667 1.409 . S
C661 H653 0.930 . S
C661 C659 1.419 . S
C661 C662 1.362 . S
C662 H654 0.930 . S
C662 C661 1.362 . S
C662 C665 1.409 . S
C663 H655 0.930 . S
C663 C664 1.355 . S
C663 C665 1.415 . S
C664 C663 1.355 . S
C664 C666 1.419 . S
C665 C660 1.425 . S
C665 C662 1.409 . S
C665 C663 1.415 . S
C666 H656 0.930 . S
C666 C664 1.419 . S
C666 C667 1.362 . S
C667 H657 0.930 . S
C667 C660 1.409 . S
C667 C666 1.362 . S
H668 C674 0.930 . S
H669 C677 0.930 . S
H670 C678 0.930 . S
H671 C679 0.930 . S
H672 C682 0.930 . S
H673 C683 0.930 . S
C674 H668 0.930 . S
C674 C675 1.355 . S
C674 C676 1.415 . S
C675 C674 1.355 . S
C675 C677 1.419 . S
C676 C674 1.415 . S
C676 C681 1.425 . S
C676 C683 1.409 . S
C677 H669 0.930 . S
C677 C675 1.419 . S
C677 C678 1.362 . S
C678 H670 0.930 . S
C678 C677 1.362 . S
C678 C681 1.409 . S
C679 H671 0.930 . S
C679 C680 1.355 . S
C679 C681 1.415 . S
C680 C679 1.355 . S
C680 C682 1.419 . S
C681 C676 1.425 . S
C681 C678 1.409 . S
C681 C679 1.415 . S
C682 H672 0.930 . S
C682 C680 1.419 . S
C682 C683 1.362 . S
C683 H673 0.930 . S
C683 C676 1.409 . S
C683 C682 1.362 . S
H684 C690 0.930 . S
H685 C693 0.930 . S
H686 C694 0.930 . S
H687 C695 0.930 . S
H688 C698 0.930 . S
H689 C699 0.930 . S
C690 H684 0.930 . S
C690 C691 1.355 . S
C690 C692 1.415 . S
C691 C690 1.355 . S
C691 C693 1.419 . S
C692 C690 1.415 . S
C692 C697 1.425 . S
C692 C699 1.409 . S
C693 H685 0.930 . S
C693 C691 1.419 . S
C693 C694 1.362 . S
C694 H686 0.930 . S
C694 C693 1.362 . S
C694 C697 1.409 . S
C695 H687 0.930 . S
C695 C696 1.355 . S
C695 C697 1.415 . S
C696 C695 1.355 . S
C696 C698 1.419 . S
C697 C692 1.425 . S
C697 C694 1.409 . S
C697 C695 1.415 . S
C698 H688 0.930 . S
C698 C696 1.419 . S
C698 C699 1.362 . S
C699 H689 0.930 . S
C699 C692 1.409 . S
C699 C698 1.362 . S
H700 C706 0.930 . S
H701 C709 0.930 . S
H702 C710 0.930 . S
H703 C711 0.930 . S
H704 C714 0.930 . S
H705 C715 0.930 . S
C706 H700 0.930 . S
C706 C707 1.355 . S
C706 C708 1.415 . S
C707 C706 1.355 . S
C707 C709 1.419 . S
C708 C706 1.415 . S
C708 C713 1.425 . S
C708 C715 1.409 . S
C709 H701 0.930 . S
C709 C707 1.419 . S
C709 C710 1.362 . S
C710 H702 0.930 . S
C710 C709 1.362 . S
C710 C713 1.409 . S
C711 H703 0.930 . S
C711 C712 1.355 . S
C711 C713 1.415 . S
C712 C711 1.355 . S
C712 C714 1.419 . S
C713 C708 1.425 . S
C713 C710 1.409 . S
C713 C711 1.415 . S
C714 H704 0.930 . S
C714 C712 1.419 . S
C714 C715 1.362 . S
C715 H705 0.930 . S
C715 C708 1.409 . S
C715 C714 1.362 . S
H716 C722 0.930 . S
H717 C725 0.930 . S
H718 C726 0.930 . S
H719 C727 0.930 . S
H720 C730 0.930 . S
H721 C731 0.930 . S
C722 H716 0.930 . S
C722 C723 1.355 . S
C722 C724 1.415 . S
C723 C722 1.355 . S
C723 C725 1.419 . S
C724 C722 1.415 . S
C724 C729 1.425 . S
C724 C731 1.409 . S
C725 H717 0.930 . S
C725 C723 1.419 . S
C725 C726 1.362 . S
C726 H718 0.930 . S
C726 C725 1.362 . S
C726 C729 1.409 . S
C727 H719 0.930 . S
C727 C728 1.355 . S
C727 C729 1.415 . S
C728 C727 1.355 . S
C728 C730 1.419 . S
C729 C724 1.425 . S
C729 C726 1.409 . S
C729 C727 1.415 . S
C730 H720 0.930 . S
C730 C728 1.419 . S
C730 C731 1.362 . S
C731 H721 0.930 . S
C731 C724 1.409 . S
C731 C730 1.362 . S
H732 C738 0.930 . S
H733 C741 0.930 . S
H734 C742 0.930 . S
H735 C743 0.930 . S
H736 C746 0.930 . S
H737 C747 0.930 . S
C738 H732 0.930 . S
C738 C739 1.355 . S
C738 C740 1.415 . S
C739 C738 1.355 . S
C739 C741 1.419 . S
C740 C738 1.415 . S
C740 C745 1.425 . S
C740 C747 1.409 . S
C741 H733 0.930 . S
C741 C739 1.419 . S
C741 C742 1.362 . S
C742 H734 0.930 . S
C742 C741 1.362 . S
C742 C745 1.409 . S
C743 H735 0.930 . S
C743 C744 1.355 . S
C743 C745 1.415 . S
C744 C743 1.355 . S
C744 C746 1.419 . S
C745 C740 1.425 . S
C745 C742 1.409 . S
C745 C743 1.415 . S
C746 H736 0.930 . S
C746 C744 1.419 . S
C746 C747 1.362 . S
C747 H737 0.930 . S
C747 C740 1.409 . S
C747 C746 1.362 . S
H748 C754 0.930 . S
H749 C757 0.930 . S
H750 C758 0.930 . S
H751 C759 0.930 . S
H752 C762 0.930 . S
H753 C763 0.930 . S
C754 H748 0.930 . S
C754 C755 1.355 . S
C754 C756 1.415 . S
C755 C754 1.355 . S
C755 C757 1.419 . S
C756 C754 1.415 . S
C756 C761 1.425 . S
C756 C763 1.409 . S
C757 H749 0.930 . S
C757 C755 1.419 . S
C757 C758 1.362 . S
C758 H750 0.930 . S
C758 C757 1.362 . S
C758 C761 1.409 . S
C759 H751 0.930 . S
C759 C760 1.355 . S
C759 C761 1.415 . S
C760 C759 1.355 . S
C760 C762 1.419 . S
C761 C756 1.425 . S
C761 C758 1.409 . S
C761 C759 1.415 . S
C762 H752 0.930 . S
C762 C760 1.419 . S
C762 C763 1.362 . S
C763 H753 0.930 . S
C763 C756 1.409 . S
C763 C762 1.362 . S
H764 C770 0.930 . S
H765 C773 0.930 1_655 S
H766 C774 0.930 . S
H767 C775 0.930 . S
H768 C778 0.930 . S
H769 C779 0.930 . S
C770 H764 0.930 . S
C770 C771 1.355 . S
C770 C772 1.415 . S
C771 C770 1.355 . S
C771 C773 1.419 . S
C772 C770 1.415 . S
C772 C777 1.425 . S
C772 C779 1.409 . S
C773 H765 0.930 1_455 S
C773 C771 1.419 . S
C773 C774 1.362 . S
C774 H766 0.930 . S
C774 C773 1.362 . S
C774 C777 1.409 . S
C775 H767 0.930 . S
C775 C776 1.355 . S
C775 C777 1.415 . S
C776 C775 1.355 . S
C776 C778 1.419 . S
C777 C772 1.425 . S
C777 C774 1.409 . S
C777 C775 1.415 . S
C778 H768 0.930 . S
C778 C776 1.419 . S
C778 C779 1.362 . S
C779 H769 0.930 . S
C779 C772 1.409 . S
C779 C778 1.362 . S
H780 C786 0.930 . S
H781 C789 0.930 . S
H782 C790 0.930 . S
H783 C791 0.930 . S
H784 C794 0.930 1_655 S
H785 C795 0.930 . S
C786 H780 0.930 . S
C786 C787 1.355 . S
C786 C788 1.415 . S
C787 C786 1.355 . S
C787 C789 1.419 . S
C788 C786 1.415 . S
C788 C793 1.425 . S
C788 C795 1.409 . S
C789 H781 0.930 . S
C789 C787 1.419 . S
C789 C790 1.362 . S
C790 H782 0.930 . S
C790 C789 1.362 . S
C790 C793 1.409 . S
C791 H783 0.930 . S
C791 C792 1.355 . S
C791 C793 1.415 . S
C792 C791 1.355 . S
C792 C794 1.419 . S
C793 C788 1.425 . S
C793 C790 1.409 . S
C793 C791 1.415 . S
C794 H784 0.930 1_455 S
C794 C792 1.419 . S
C794 C795 1.362 . S
C795 H785 0.930 . S
C795 C788 1.409 . S
C795 C794 1.362 . S
H796 C802 0.930 . S
H797 C805 0.930 . S
H798 C806 0.930 . S
H799 C807 0.930 . S
H800 C810 0.930 . S
H801 C811 0.930 . S
C802 H796 0.930 . S
C802 C803 1.355 . S
C802 C804 1.415 . S
C803 C802 1.355 . S
C803 C805 1.419 . S
C804 C802 1.415 . S
C804 C809 1.425 . S
C804 C811 1.409 . S
C805 H797 0.930 . S
C805 C803 1.419 . S
C805 C806 1.362 . S
C806 H798 0.930 . S
C806 C805 1.362 . S
C806 C809 1.409 . S
C807 H799 0.930 . S
C807 C808 1.355 . S
C807 C809 1.415 . S
C808 C807 1.355 . S
C808 C810 1.419 . S
C809 C804 1.425 . S
C809 C806 1.409 . S
C809 C807 1.415 . S
C810 H800 0.930 . S
C810 C808 1.419 . S
C810 C811 1.362 . S
C811 H801 0.930 . S
C811 C804 1.409 . S
C811 C810 1.362 . S
H812 C818 0.930 . S
H813 C821 0.930 1_545 S
H814 C822 0.930 . S
H815 C823 0.930 . S
H816 C826 0.930 . S
H817 C827 0.930 . S
C818 H812 0.930 . S
C818 C819 1.355 . S
C818 C820 1.415 . S
C819 C818 1.355 . S
C819 C821 1.419 . S
C820 C818 1.415 . S
C820 C825 1.425 . S
C820 C827 1.409 . S
C821 H813 0.930 1_565 S
C821 C819 1.419 . S
C821 C822 1.362 . S
C822 H814 0.930 . S
C822 C821 1.362 . S
C822 C825 1.409 . S
C823 H815 0.930 . S
C823 C824 1.355 . S
C823 C825 1.415 . S
C824 C823 1.355 . S
C824 C826 1.419 . S
C825 C820 1.425 . S
C825 C822 1.409 . S
C825 C823 1.415 . S
C826 H816 0.930 . S
C826 C824 1.419 . S
C826 C827 1.362 . S
C827 H817 0.930 . S
C827 C820 1.409 . S
C827 C826 1.362 . S
H828 C834 0.930 . S
H829 C837 0.930 . S
H830 C838 0.930 . S
H831 C839 0.930 . S
H832 C842 0.930 . S
H833 C843 0.930 . S
C834 H828 0.930 . S
C834 C835 1.355 . S
C834 C836 1.415 . S
C835 C834 1.355 . S
C835 C837 1.419 . S
C836 C834 1.415 . S
C836 C841 1.425 . S
C836 C843 1.409 . S
C837 H829 0.930 . S
C837 C835 1.419 . S
C837 C838 1.362 . S
C838 H830 0.930 . S
C838 C837 1.362 . S
C838 C841 1.409 . S
C839 H831 0.930 . S
C839 C840 1.355 . S
C839 C841 1.415 . S
C840 C839 1.355 . S
C840 C842 1.419 . S
C841 C836 1.425 . S
C841 C838 1.409 . S
C841 C839 1.415 . S
C842 H832 0.930 . S
C842 C840 1.419 . S
C842 C843 1.362 . S
C843 H833 0.930 . S
C843 C836 1.409 . S
C843 C842 1.362 . S
H844 C850 0.930 . S
H845 C853 0.930 . S
H846 C854 0.930 . S
H847 C855 0.930 . S
H848 C858 0.930 . S
H849 C859 0.930 . S
C850 H844 0.930 . S
C850 C851 1.355 . S
C850 C852 1.415 . S
C851 C850 1.355 . S
C851 C853 1.419 . S
C852 C850 1.415 . S
C852 C857 1.425 . S
C852 C859 1.409 . S
C853 H845 0.930 . S
C853 C851 1.419 . S
C853 C854 1.362 . S
C854 H846 0.930 . S
C854 C853 1.362 . S
C854 C857 1.409 . S
C855 H847 0.930 . S
C855 C856 1.355 . S
C855 C857 1.415 . S
C856 C855 1.355 . S
C856 C858 1.419 . S
C857 C852 1.425 . S
C857 C854 1.409 . S
C857 C855 1.415 . S
C858 H848 0.930 . S
C858 C856 1.419 . S
C858 C859 1.362 . S
C859 H849 0.930 . S
C859 C852 1.409 . S
C859 C858 1.362 . S
H860 C866 0.930 . S
H861 C869 0.930 . S
H862 C870 0.930 . S
H863 C871 0.930 . S
H864 C874 0.930 . S
H865 C875 0.930 . S
C866 H860 0.930 . S
C866 C867 1.355 . S
C866 C868 1.415 . S
C867 C866 1.355 . S
C867 C869 1.419 . S
C868 C866 1.415 . S
C868 C873 1.425 . S
C868 C875 1.409 . S
C869 H861 0.930 . S
C869 C867 1.419 . S
C869 C870 1.362 . S
C870 H862 0.930 . S
C870 C869 1.362 . S
C870 C873 1.409 . S
C871 H863 0.930 . S
C871 C872 1.355 . S
C871 C873 1.415 . S
C872 C871 1.355 . S
C872 C874 1.419 . S
C873 C868 1.425 . S
C873 C870 1.409 . S
C873 C871 1.415 . S
C874 H864 0.930 . S
C874 C872 1.419 . S
C874 C875 1.362 . S
C875 H865 0.930 . S
C875 C868 1.409 . S
C875 C874 1.362 . S
H876 C882 0.930 . S
H877 C885 0.930 . S
H878 C886 0.930 . S
H879 C887 0.930 . S
H880 C890 0.930 . S
H881 C891 0.930 . S
C882 H876 0.930 . S
C882 C883 1.355 . S
C882 C884 1.415 . S
C883 C882 1.355 . S
C883 C885 1.419 . S
C884 C882 1.415 . S
C884 C889 1.425 . S
C884 C891 1.409 . S
C885 H877 0.930 . S
C885 C883 1.419 . S
C885 C886 1.362 . S
C886 H878 0.930 . S
C886 C885 1.362 . S
C886 C889 1.409 . S
C887 H879 0.930 . S
C887 C888 1.355 . S
C887 C889 1.415 . S
C888 C887 1.355 . S
C888 C890 1.419 . S
C889 C884 1.425 . S
C889 C886 1.409 . S
C889 C887 1.415 . S
C890 H880 0.930 . S
C890 C888 1.419 . S
C890 C891 1.362 . S
C891 H881 0.930 . S
C891 C884 1.409 . S
C891 C890 1.362 . S
H892 C898 0.930 . S
H893 C901 0.930 . S
H894 C902 0.930 . S
H895 C903 0.930 . S
H896 C906 0.930 . S
H897 C907 0.930 . S
C898 H892 0.930 . S
C898 C899 1.355 . S
C898 C900 1.415 . S
C899 C898 1.355 . S
C899 C901 1.419 . S
C900 C898 1.415 . S
C900 C905 1.425 . S
C900 C907 1.409 . S
C901 H893 0.930 . S
C901 C899 1.419 . S
C901 C902 1.362 . S
C902 H894 0.930 . S
C902 C901 1.362 . S
C902 C905 1.409 . S
C903 H895 0.930 . S
C903 C904 1.355 . S
C903 C905 1.415 . S
C904 C903 1.355 . S
C904 C906 1.419 . S
C905 C900 1.425 . S
C905 C902 1.409 . S
C905 C903 1.415 . S
C906 H896 0.930 . S
C906 C904 1.419 . S
C906 C907 1.362 . S
C907 H897 0.930 . S
C907 C900 1.409 . S
C907 C906 1.362 . S
H908 C914 0.930 . S
H909 C917 0.930 . S
H910 C918 0.930 . S
H911 C919 0.930 . S
H912 C922 0.930 . S
H913 C923 0.930 . S
C914 H908 0.930 . S
C914 C915 1.355 . S
C914 C916 1.415 . S
C915 C914 1.355 . S
C915 C917 1.419 . S
C916 C914 1.415 . S
C916 C921 1.425 . S
C916 C923 1.409 . S
C917 H909 0.930 . S
C917 C915 1.419 . S
C917 C918 1.362 . S
C918 H910 0.930 . S
C918 C917 1.362 . S
C918 C921 1.409 . S
C919 H911 0.930 . S
C919 C920 1.355 . S
C919 C921 1.415 . S
C920 C919 1.355 . S
C920 C922 1.419 . S
C921 C916 1.425 . S
C921 C918 1.409 . S
C921 C919 1.415 . S
C922 H912 0.930 . S
C922 C920 1.419 . S
C922 C923 1.362 . S
C923 H913 0.930 . S
C923 C916 1.409 . S
C923 C922 1.362 . S
H924 C930 0.930 . S
H925 C933 0.930 . S
H926 C934 0.930 . S
H927 C935 0.930 . S
H928 C938 0.930 . S
H929 C939 0.930 . S
C930 H924 0.930 . S
C930 C931 1.355 . S
C930 C932 1.415 . S
C931 C930 1.355 . S
C931 C933 1.419 . S
C932 C930 1.415 . S
C932 C937 1.425 . S
C932 C939 1.409 . S
C933 H925 0.930 . S
C933 C931 1.419 . S
C933 C934 1.362 . S
C934 H926 0.930 . S
C934 C933 1.362 . S
C934 C937 1.409 . S
C935 H927 0.930 . S
C935 C936 1.355 . S
C935 C937 1.415 . S
C936 C935 1.355 . S
C936 C938 1.419 . S
C937 C932 1.425 . S
C937 C934 1.409 . S
C937 C935 1.415 . S
C938 H928 0.930 . S
C938 C936 1.419 . S
C938 C939 1.362 . S
C939 H929 0.930 . S
C939 C932 1.409 . S
C939 C938 1.362 . S
H940 C946 0.930 . S
H941 C949 0.930 . S
H942 C950 0.930 . S
H943 C951 0.930 . S
H944 C954 0.930 . S
H945 C955 0.930 . S
C946 H940 0.930 . S
C946 C947 1.355 . S
C946 C948 1.415 . S
C947 C946 1.355 . S
C947 C949 1.419 . S
C948 C946 1.415 . S
C948 C953 1.425 . S
C948 C955 1.409 . S
C949 H941 0.930 . S
C949 C947 1.419 . S
C949 C950 1.362 . S
C950 H942 0.930 . S
C950 C949 1.362 . S
C950 C953 1.409 . S
C951 H943 0.930 . S
C951 C952 1.355 . S
C951 C953 1.415 . S
C952 C951 1.355 . S
C952 C954 1.419 . S
C953 C948 1.425 . S
C953 C950 1.409 . S
C953 C951 1.415 . S
C954 H944 0.930 . S
C954 C952 1.419 . S
C954 C955 1.362 . S
C955 H945 0.930 . S
C955 C948 1.409 . S
C955 C954 1.362 . S
H956 C962 0.930 . S
H957 C965 0.930 . S
H958 C966 0.930 . S
H959 C967 0.930 . S
H960 C970 0.930 . S
H961 C971 0.930 . S
C962 H956 0.930 . S
C962 C963 1.355 . S
C962 C964 1.415 . S
C963 C962 1.355 . S
C963 C965 1.419 . S
C964 C962 1.415 . S
C964 C969 1.425 . S
C964 C971 1.409 . S
C965 H957 0.930 . S
C965 C963 1.419 . S
C965 C966 1.362 . S
C966 H958 0.930 . S
C966 C965 1.362 . S
C966 C969 1.409 . S
C967 H959 0.930 . S
C967 C968 1.355 . S
C967 C969 1.415 . S
C968 C967 1.355 . S
C968 C970 1.419 . S
C969 C964 1.425 . S
C969 C966 1.409 . S
C969 C967 1.415 . S
C970 H960 0.930 . S
C970 C968 1.419 . S
C970 C971 1.362 . S
C971 H961 0.930 . S
C971 C964 1.409 . S
C971 C970 1.362 . S
H972 C978 0.930 . S
H973 C981 0.930 1_556 S
H974 C982 0.930 . S
H975 C983 0.930 . S
H976 C986 0.930 . S
H977 C987 0.930 . S
C978 H972 0.930 . S
C978 C979 1.354 1_554 S
C978 C980 1.415 . S
C979 C978 1.354 1_556 S
C979 C981 1.419 1_556 S
C980 C978 1.415 . S
C980 C985 1.425 . S
C980 C987 1.409 . S
C981 H973 0.930 1_554 S
C981 C979 1.419 1_554 S
C981 C982 1.362 . S
C982 H974 0.930 . S
C982 C981 1.362 . S
C982 C985 1.409 . S
C983 H975 0.930 . S
C983 C984 1.355 . S
C983 C985 1.415 . S
C984 C983 1.355 . S
C984 C986 1.419 . S
C985 C980 1.425 . S
C985 C982 1.409 . S
C985 C983 1.415 . S
C986 H976 0.930 . S
C986 C984 1.419 . S
C986 C987 1.362 . S
C987 H977 0.930 . S
C987 C980 1.409 . S
C987 C986 1.362 . S
H988 C994 0.930 . S
H989 C997 0.930 1_556 S
H990 C998 0.930 . S
H991 C999 0.930 . S
H992 C1002 0.930 . S
H993 C1003 0.930 . S
C994 H988 0.930 . S
C994 C995 1.344 1_554 S
C994 C996 1.415 . S
C995 C994 1.344 1_556 S
C995 C997 1.417 1_556 S
C996 C994 1.415 . S
C996 C1001 1.425 . S
C996 C1003 1.409 . S
C997 H989 0.930 1_554 S
C997 C995 1.417 1_554 S
C997 C998 1.362 . S
C998 H990 0.930 . S
C998 C997 1.362 . S
C998 C1001 1.409 . S
C999 H991 0.930 . S
C999 C1000 1.355 . S
C999 C1001 1.415 . S
C1000 C999 1.355 . S
C1000 C1002 1.419 . S
C1001 C996 1.425 . S
C1001 C998 1.409 . S
C1001 C999 1.415 . S
C1002 H992 0.930 . S
C1002 C1000 1.419 . S
C1002 C1003 1.362 . S
C1003 H993 0.930 . S
C1003 C996 1.409 . S
C1003 C1002 1.362 . S
H1004 C1010 0.930 . S
H1005 C1013 0.930 . S
H1006 C1014 0.930 . S
H1007 C1015 0.930 . S
H1008 C1018 0.930 . S
H1009 C1019 0.930 . S
C1010 H1004 0.930 . S
C1010 C1011 1.355 1_554 S
C1010 C1012 1.415 . S
C1011 C1010 1.355 1_556 S
C1011 C1013 1.419 . S
C1012 C1010 1.415 . S
C1012 C1017 1.425 . S
C1012 C1019 1.409 . S
C1013 H1005 0.930 . S
C1013 C1011 1.419 . S
C1013 C1014 1.362 1_556 S
C1014 H1006 0.930 . S
C1014 C1013 1.362 1_554 S
C1014 C1017 1.409 . S
C1015 H1007 0.930 . S
C1015 C1016 1.355 . S
C1015 C1017 1.415 . S
C1016 C1015 1.355 . S
C1016 C1018 1.419 . S
C1017 C1012 1.425 . S
C1017 C1014 1.409 . S
C1017 C1015 1.415 . S
C1018 H1008 0.930 . S
C1018 C1016 1.419 . S
C1018 C1019 1.362 . S
C1019 H1009 0.930 . S
C1019 C1012 1.409 . S
C1019 C1018 1.362 . S
H1020 C1026 0.930 . S
H1021 C1029 0.930 . S
H1022 C1030 0.930 . S
H1023 C1031 0.930 . S
H1024 C1034 0.930 . S
H1025 C1035 0.930 . S
C1026 H1020 0.930 . S
C1026 C1027 1.355 . S
C1026 C1028 1.415 . S
C1027 C1026 1.355 . S
C1027 C1029 1.419 . S
C1028 C1026 1.415 . S
C1028 C1033 1.425 . S
C1028 C1035 1.409 . S
C1029 H1021 0.930 . S
C1029 C1027 1.419 . S
C1029 C1030 1.362 . S
C1030 H1022 0.930 . S
C1030 C1029 1.362 . S
C1030 C1033 1.409 . S
C1031 H1023 0.930 . S
C1031 C1032 1.355 1_556 S
C1031 C1033 1.415 . S
C1032 C1031 1.355 1_554 S
C1032 C1034 1.419 . S
C1033 C1028 1.425 . S
C1033 C1030 1.409 . S
C1033 C1031 1.415 . S
C1034 H1024 0.930 . S
C1034 C1032 1.419 . S
C1034 C1035 1.362 1_554 S
C1035 H1025 0.930 . S
C1035 C1028 1.409 . S
C1035 C1034 1.362 1_556 S
H1036 C1042 0.930 . S
H1037 C1045 0.930 . S
H1038 C1046 0.930 . S
H1039 C1047 0.930 . S
H1040 C1050 0.930 . S
H1041 C1051 0.930 . S
C1042 H1036 0.930 . S
C1042 C1043 1.355 . S
C1042 C1044 1.415 . S
C1043 C1042 1.355 . S
C1043 C1045 1.419 . S
C1044 C1042 1.415 . S
C1044 C1049 1.425 . S
C1044 C1051 1.409 . S
C1045 H1037 0.930 . S
C1045 C1043 1.419 . S
C1045 C1046 1.362 . S
C1046 H1038 0.930 . S
C1046 C1045 1.362 . S
C1046 C1049 1.409 . S
C1047 H1039 0.930 . S
C1047 C1048 1.355 1_556 S
C1047 C1049 1.415 . S
C1048 C1047 1.355 1_554 S
C1048 C1050 1.419 . S
C1049 C1044 1.425 . S
C1049 C1046 1.409 . S
C1049 C1047 1.415 . S
C1050 H1040 0.930 . S
C1050 C1048 1.419 . S
C1050 C1051 1.362 1_554 S
C1051 H1041 0.930 . S
C1051 C1044 1.409 . S
C1051 C1050 1.362 1_556 S
H1052 C1058 0.930 . S
H1053 C1061 0.930 . S
H1054 C1062 0.930 . S
H1055 C1063 0.930 1_554 S
H1056 C1066 0.930 . S
H1057 C1067 0.930 . S
C1058 H1052 0.930 . S
C1058 C1059 1.355 . S
C1058 C1060 1.415 . S
C1059 C1058 1.355 . S
C1059 C1061 1.419 . S
C1060 C1058 1.415 . S
C1060 C1065 1.425 . S
C1060 C1067 1.409 . S
C1061 H1053 0.930 . S
C1061 C1059 1.419 . S
C1061 C1062 1.362 . S
C1062 H1054 0.930 . S
C1062 C1061 1.362 . S
C1062 C1065 1.409 . S
C1063 H1055 0.930 1_556 S
C1063 C1064 1.355 1_556 S
C1063 C1065 1.415 . S
C1064 C1063 1.355 1_554 S
C1064 C1066 1.419 1_554 S
C1065 C1060 1.425 . S
C1065 C1062 1.409 . S
C1065 C1063 1.415 . S
C1066 H1056 0.930 . S
C1066 C1064 1.419 1_556 S
C1066 C1067 1.362 . S
C1067 H1057 0.930 . S
C1067 C1060 1.409 . S
C1067 C1066 1.362 . S
H1068 C1074 0.930 . S
H1069 C1077 0.930 . S
H1070 C1078 0.930 . S
H1071 C1079 0.930 . S
H1072 C1082 0.930 . S
H1073 C1083 0.930 . S
C1074 H1068 0.930 . S
C1074 C1075 1.355 . S
C1074 C1076 1.415 . S
C1075 C1074 1.355 . S
C1075 C1077 1.419 . S
C1076 C1074 1.415 . S
C1076 C1081 1.425 . S
C1076 C1083 1.409 . S
C1077 H1069 0.930 . S
C1077 C1075 1.419 . S
C1077 C1078 1.362 . S
C1078 H1070 0.930 . S
C1078 C1077 1.362 . S
C1078 C1081 1.409 . S
C1079 H1071 0.930 . S
C1079 C1080 1.355 . S
C1079 C1081 1.415 . S
C1080 C1079 1.355 . S
C1080 C1082 1.419 . S
C1081 C1076 1.425 . S
C1081 C1078 1.409 . S
C1081 C1079 1.415 . S
C1082 H1072 0.930 . S
C1082 C1080 1.419 . S
C1082 C1083 1.362 . S
C1083 H1073 0.930 . S
C1083 C1076 1.409 . S
C1083 C1082 1.362 . S
H1084 C1090 0.930 . S
H1085 C1093 0.930 . S
H1086 C1094 0.930 . S
H1087 C1095 0.930 . S
H1088 C1098 0.930 . S
H1089 C1099 0.930 . S
C1090 H1084 0.930 . S
C1090 C1091 1.355 . S
C1090 C1092 1.415 . S
C1091 C1090 1.355 . S
C1091 C1093 1.419 . S
C1092 C1090 1.415 . S
C1092 C1097 1.425 . S
C1092 C1099 1.409 . S
C1093 H1085 0.930 . S
C1093 C1091 1.419 . S
C1093 C1094 1.362 . S
C1094 H1086 0.930 . S
C1094 C1093 1.362 . S
C1094 C1097 1.409 . S
C1095 H1087 0.930 . S
C1095 C1096 1.355 . S
C1095 C1097 1.415 . S
C1096 C1095 1.355 . S
C1096 C1098 1.419 . S
C1097 C1092 1.425 . S
C1097 C1094 1.409 . S
C1097 C1095 1.415 . S
C1098 H1088 0.930 . S
C1098 C1096 1.419 . S
C1098 C1099 1.362 . S
C1099 H1089 0.930 . S
C1099 C1092 1.409 . S
C1099 C1098 1.362 . S
H1100 C1106 0.930 . S
H1101 C1109 0.930 . S
H1102 C1110 0.930 . S
H1103 C1111 0.930 . S
H1104 C1114 0.930 . S
H1105 C1115 0.930 . S
C1106 H1100 0.930 . S
C1106 C1107 1.355 . S
C1106 C1108 1.415 . S
C1107 C1106 1.355 . S
C1107 C1109 1.419 . S
C1108 C1106 1.415 . S
C1108 C1113 1.425 . S
C1108 C1115 1.409 . S
C1109 H1101 0.930 . S
C1109 C1107 1.419 . S
C1109 C1110 1.362 . S
C1110 H1102 0.930 . S
C1110 C1109 1.362 . S
C1110 C1113 1.409 . S
C1111 H1103 0.930 . S
C1111 C1112 1.355 . S
C1111 C1113 1.415 . S
C1112 C1111 1.355 . S
C1112 C1114 1.419 . S
C1113 C1108 1.425 . S
C1113 C1110 1.409 . S
C1113 C1111 1.415 . S
C1114 H1104 0.930 . S
C1114 C1112 1.419 . S
C1114 C1115 1.362 . S
C1115 H1105 0.930 . S
C1115 C1108 1.409 . S
C1115 C1114 1.362 . S
H1116 C1122 0.930 . S
H1117 C1125 0.917 1_545 S
H1118 C1126 0.930 . S
H1119 C1127 0.930 . S
H1120 C1130 0.930 . S
H1121 C1131 0.930 . S
C1122 H1116 0.930 . S
C1122 C1123 1.355 . S
C1122 C1124 1.415 . S
C1123 C1122 1.355 . S
C1123 C1125 1.419 . S
C1124 C1122 1.415 . S
C1124 C1129 1.425 1_565 S
C1124 C1131 1.409 . S
C1125 H1117 0.917 1_565 S
C1125 C1123 1.419 . S
C1125 C1126 1.362 1_565 S
C1126 H1118 0.930 . S
C1126 C1125 1.362 1_545 S
C1126 C1129 1.409 . S
C1127 H1119 0.930 . S
C1127 C1128 1.355 . S
C1127 C1129 1.415 . S
C1128 C1127 1.355 . S
C1128 C1130 1.419 . S
C1129 C1124 1.425 1_545 S
C1129 C1126 1.409 . S
C1129 C1127 1.415 . S
C1130 H1120 0.930 . S
C1130 C1128 1.419 . S
C1130 C1131 1.362 1_545 S
C1131 H1121 0.930 . S
C1131 C1124 1.409 . S
C1131 C1130 1.362 1_565 S
H1132 C1138 0.930 1_554 S
H1133 C1141 0.930 . S
H1134 C1142 0.930 . S
H1135 C1143 0.930 . S
H1136 C1146 0.930 . S
H1137 C1147 0.930 1_554 S
C1138 H1132 0.930 1_556 S
C1138 C1139 1.355 . S
C1138 C1140 1.415 . S
C1139 C1138 1.355 . S
C1139 C1141 1.419 . S
C1140 C1138 1.415 . S
C1140 C1145 1.425 . S
C1140 C1147 1.409 1_655 S
C1141 H1133 0.930 . S
C1141 C1139 1.419 . S
C1141 C1142 1.362 . S
C1142 H1134 0.930 . S
C1142 C1141 1.362 . S
C1142 C1145 1.409 . S
C1143 H1135 0.930 . S
C1143 C1144 1.355 . S
C1143 C1145 1.415 1_455 S
C1144 C1143 1.355 . S
C1144 C1146 1.419 . S
C1145 C1140 1.425 . S
C1145 C1142 1.409 . S
C1145 C1143 1.415 1_655 S
C1146 H1136 0.930 . S
C1146 C1144 1.419 . S
C1146 C1147 1.362 . S
C1147 H1137 0.930 1_556 S
C1147 C1140 1.409 1_455 S
C1147 C1146 1.362 . S
H1148 C1154 0.930 . S
H1149 C1157 0.930 . S
H1150 C1158 0.930 . S
H1151 C1159 0.930 . S
H1152 C1162 0.930 . S
H1153 C1163 0.930 1_554 S
C1154 H1148 0.930 . S
C1154 C1155 1.355 . S
C1154 C1156 1.415 . S
C1155 C1154 1.355 . S
C1155 C1157 1.419 . S
C1156 C1154 1.415 . S
C1156 C1161 1.425 . S
C1156 C1163 1.409 . S
C1157 H1149 0.930 . S
C1157 C1155 1.419 . S
C1157 C1158 1.362 . S
C1158 H1150 0.930 . S
C1158 C1157 1.362 . S
C1158 C1161 1.409 . S
C1159 H1151 0.930 . S
C1159 C1160 1.355 . S
C1159 C1161 1.415 . S
C1160 C1159 1.355 . S
C1160 C1162 1.419 1_556 S
C1161 C1156 1.425 . S
C1161 C1158 1.409 . S
C1161 C1159 1.415 . S
C1162 H1152 0.930 . S
C1162 C1160 1.419 1_554 S
C1162 C1163 1.362 1_554 S
C1163 H1153 0.930 1_556 S
C1163 C1156 1.409 . S
C1163 C1162 1.362 1_556 S
H1164 C1170 0.930 . S
H1165 C1173 0.930 . S
H1166 C1174 0.930 . S
H1167 C1175 0.930 . S
H1168 C1178 0.930 . S
H1169 C1179 0.930 . S
C1170 H1164 0.930 . S
C1170 C1171 1.355 . S
C1170 C1172 1.415 . S
C1171 C1170 1.355 . S
C1171 C1173 1.419 . S
C1172 C1170 1.415 . S
C1172 C1177 1.425 . S
C1172 C1179 1.409 1_655 S
C1173 H1165 0.930 . S
C1173 C1171 1.419 . S
C1173 C1174 1.362 . S
C1174 H1166 0.930 . S
C1174 C1173 1.362 . S
C1174 C1177 1.409 . S
C1175 H1167 0.930 . S
C1175 C1176 1.355 . S
C1175 C1177 1.415 1_455 S
C1176 C1175 1.355 . S
C1176 C1178 1.419 . S
C1177 C1172 1.425 . S
C1177 C1174 1.409 . S
C1177 C1175 1.415 1_655 S
C1178 H1168 0.930 . S
C1178 C1176 1.419 . S
C1178 C1179 1.362 . S
C1179 H1169 0.930 . S
C1179 C1172 1.409 1_455 S
C1179 C1178 1.362 . S
H1180 C1186 0.930 . S
H1181 C1189 0.930 . S
H1182 C1190 0.930 . S
H1183 C1191 0.930 . S
H1184 C1194 0.930 . S
H1185 C1195 0.930 . S
C1186 H1180 0.930 . S
C1186 C1187 1.355 . S
C1186 C1188 1.415 . S
C1187 C1186 1.355 . S
C1187 C1189 1.419 . S
C1188 C1186 1.415 . S
C1188 C1193 1.425 . S
C1188 C1195 1.409 . S
C1189 H1181 0.930 . S
C1189 C1187 1.419 . S
C1189 C1190 1.362 . S
C1190 H1182 0.930 . S
C1190 C1189 1.362 . S
C1190 C1193 1.409 . S
C1191 H1183 0.930 . S
C1191 C1192 1.355 . S
C1191 C1193 1.415 . S
C1192 C1191 1.355 . S
C1192 C1194 1.419 . S
C1193 C1188 1.425 . S
C1193 C1190 1.409 . S
C1193 C1191 1.415 . S
C1194 H1184 0.930 . S
C1194 C1192 1.419 . S
C1194 C1195 1.362 . S
C1195 H1185 0.930 . S
C1195 C1188 1.409 . S
C1195 C1194 1.362 . S
H1196 C1202 0.930 . S
H1197 C1205 0.930 . S
H1198 C1206 0.930 . S
H1199 C1207 0.930 . S
H1200 C1210 0.930 . S
H1201 C1211 0.930 1_565 S
C1202 H1196 0.930 . S
C1202 C1203 1.355 . S
C1202 C1204 1.415 . S
C1203 C1202 1.355 . S
C1203 C1205 1.419 . S
C1204 C1202 1.415 . S
C1204 C1209 1.425 1_565 S
C1204 C1211 1.409 1_565 S
C1205 H1197 0.930 . S
C1205 C1203 1.419 . S
C1205 C1206 1.362 1_565 S
C1206 H1198 0.930 . S
C1206 C1205 1.362 1_545 S
C1206 C1209 1.409 . S
C1207 H1199 0.930 . S
C1207 C1208 1.355 . S
C1207 C1209 1.415 . S
C1208 C1207 1.355 . S
C1208 C1210 1.419 . S
C1209 C1204 1.425 1_545 S
C1209 C1206 1.409 . S
C1209 C1207 1.415 . S
C1210 H1200 0.930 . S
C1210 C1208 1.419 . S
C1210 C1211 1.362 . S
C1211 H1201 0.930 1_545 S
C1211 C1204 1.409 1_545 S
C1211 C1210 1.362 . S
H1212 C1218 0.930 . S
H1213 C1221 0.930 . S
H1214 C1222 0.930 . S
H1215 C1223 0.930 . S
H1216 C1226 0.930 . S
H1217 C1227 0.930 . S
C1218 H1212 0.930 . S
C1218 C1219 1.355 . S
C1218 C1220 1.415 . S
C1219 C1218 1.355 . S
C1219 C1221 1.419 . S
C1220 C1218 1.415 . S
C1220 C1225 1.425 . S
C1220 C1227 1.409 . S
C1221 H1213 0.930 . S
C1221 C1219 1.419 . S
C1221 C1222 1.362 . S
C1222 H1214 0.930 . S
C1222 C1221 1.362 . S
C1222 C1225 1.409 . S
C1223 H1215 0.930 . S
C1223 C1224 1.355 . S
C1223 C1225 1.415 . S
C1224 C1223 1.355 . S
C1224 C1226 1.419 . S
C1225 C1220 1.425 . S
C1225 C1222 1.409 . S
C1225 C1223 1.415 . S
C1226 H1216 0.930 . S
C1226 C1224 1.419 . S
C1226 C1227 1.362 . S
C1227 H1217 0.930 . S
C1227 C1220 1.409 . S
C1227 C1226 1.362 . S
H1228 C1234 0.930 . S
H1229 C1237 0.930 . S
H1230 C1238 0.930 . S
H1231 C1239 0.930 . S
H1232 C1242 0.930 . S
H1233 C1243 0.930 . S
C1234 H1228 0.930 . S
C1234 C1235 1.355 . S
C1234 C1236 1.415 . S
C1235 C1234 1.355 . S
C1235 C1237 1.419 . S
C1236 C1234 1.415 . S
C1236 C1241 1.425 . S
C1236 C1243 1.409 . S
C1237 H1229 0.930 . S
C1237 C1235 1.419 . S
C1237 C1238 1.362 . S
C1238 H1230 0.930 . S
C1238 C1237 1.362 . S
C1238 C1241 1.409 . S
C1239 H1231 0.930 . S
C1239 C1240 1.355 . S
C1239 C1241 1.415 . S
C1240 C1239 1.355 . S
C1240 C1242 1.419 . S
C1241 C1236 1.425 . S
C1241 C1238 1.409 . S
C1241 C1239 1.415 . S
C1242 H1232 0.930 . S
C1242 C1240 1.419 . S
C1242 C1243 1.362 . S
C1243 H1233 0.930 . S
C1243 C1236 1.409 . S
C1243 C1242 1.362 . S
H1244 C1250 0.930 . S
H1245 C1253 0.930 . S
H1246 C1254 0.930 . S
H1247 C1255 0.930 . S
H1248 C1258 0.930 . S
H1249 C1259 0.930 . S
C1250 H1244 0.930 . S
C1250 C1251 1.355 . S
C1250 C1252 1.415 . S
C1251 C1250 1.355 . S
C1251 C1253 1.419 . S
C1252 C1250 1.415 . S
C1252 C1257 1.425 . S
C1252 C1259 1.409 . S
C1253 H1245 0.930 . S
C1253 C1251 1.419 . S
C1253 C1254 1.362 . S
C1254 H1246 0.930 . S
C1254 C1253 1.362 . S
C1254 C1257 1.409 . S
C1255 H1247 0.930 . S
C1255 C1256 1.355 . S
C1255 C1257 1.415 . S
C1256 C1255 1.355 . S
C1256 C1258 1.419 . S
C1257 C1252 1.425 . S
C1257 C1254 1.409 . S
C1257 C1255 1.415 . S
C1258 H1248 0.930 . S
C1258 C1256 1.419 . S
C1258 C1259 1.362 . S
C1259 H1249 0.930 . S
C1259 C1252 1.409 . S
C1259 C1258 1.362 . S
H1260 C1266 0.930 . S
H1261 C1269 0.930 . S
H1262 C1270 0.930 . S
H1263 C1271 0.930 . S
H1264 C1274 0.930 . S
H1265 C1275 0.930 . S
C1266 H1260 0.930 . S
C1266 C1267 1.355 . S
C1266 C1268 1.415 . S
C1267 C1266 1.355 . S
C1267 C1269 1.419 . S
C1268 C1266 1.415 . S
C1268 C1273 1.425 . S
C1268 C1275 1.409 . S
C1269 H1261 0.930 . S
C1269 C1267 1.419 . S
C1269 C1270 1.362 . S
C1270 H1262 0.930 . S
C1270 C1269 1.362 . S
C1270 C1273 1.409 . S
C1271 H1263 0.930 . S
C1271 C1272 1.355 . S
C1271 C1273 1.415 . S
C1272 C1271 1.355 . S
C1272 C1274 1.419 . S
C1273 C1268 1.425 . S
C1273 C1270 1.409 . S
C1273 C1271 1.415 . S
C1274 H1264 0.930 . S
C1274 C1272 1.419 . S
C1274 C1275 1.362 . S
C1275 H1265 0.930 . S
C1275 C1268 1.409 . S
C1275 C1274 1.362 . S
H1276 C1282 0.930 . S
H1277 C1285 0.930 . S
H1278 C1286 0.930 . S
H1279 C1287 0.930 . S
H1280 C1290 0.930 . S
H1281 C1291 0.930 . S
C1282 H1276 0.930 . S
C1282 C1283 1.355 . S
C1282 C1284 1.415 . S
C1283 C1282 1.355 . S
C1283 C1285 1.419 . S
C1284 C1282 1.415 . S
C1284 C1289 1.425 . S
C1284 C1291 1.409 . S
C1285 H1277 0.930 . S
C1285 C1283 1.419 . S
C1285 C1286 1.362 . S
C1286 H1278 0.930 . S
C1286 C1285 1.362 . S
C1286 C1289 1.409 . S
C1287 H1279 0.930 . S
C1287 C1288 1.355 . S
C1287 C1289 1.415 . S
C1288 C1287 1.355 . S
C1288 C1290 1.419 . S
C1289 C1284 1.425 . S
C1289 C1286 1.409 . S
C1289 C1287 1.415 . S
C1290 H1280 0.930 . S
C1290 C1288 1.419 . S
C1290 C1291 1.362 . S
C1291 H1281 0.930 . S
C1291 C1284 1.409 . S
C1291 C1290 1.362 . S
H1292 C1298 0.930 . S
H1293 C1301 0.930 . S
H1294 C1302 0.930 . S
H1295 C1303 0.930 . S
H1296 C1306 0.930 . S
H1297 C1307 0.930 . S
C1298 H1292 0.930 . S
C1298 C1299 1.355 . S
C1298 C1300 1.415 . S
C1299 C1298 1.355 . S
C1299 C1301 1.419 . S
C1300 C1298 1.415 . S
C1300 C1305 1.425 . S
C1300 C1307 1.409 . S
C1301 H1293 0.930 . S
C1301 C1299 1.419 . S
C1301 C1302 1.362 . S
C1302 H1294 0.930 . S
C1302 C1301 1.362 . S
C1302 C1305 1.409 . S
C1303 H1295 0.930 . S
C1303 C1304 1.355 . S
C1303 C1305 1.415 . S
C1304 C1303 1.355 . S
C1304 C1306 1.419 . S
C1305 C1300 1.425 . S
C1305 C1302 1.409 . S
C1305 C1303 1.415 . S
C1306 H1296 0.930 . S
C1306 C1304 1.419 . S
C1306 C1307 1.362 . S
C1307 H1297 0.930 . S
C1307 C1300 1.409 . S
C1307 C1306 1.362 . S
H1308 C1314 0.930 . S
H1309 C1317 0.930 . S
H1310 C1318 0.930 . S
H1311 C1319 0.930 . S
H1312 C1322 0.930 . S
H1313 C1323 0.930 . S
C1314 H1308 0.930 . S
C1314 C1315 1.355 . S
C1314 C1316 1.415 . S
C1315 C1314 1.355 . S
C1315 C1317 1.419 . S
C1316 C1314 1.415 . S
C1316 C1321 1.425 . S
C1316 C1323 1.409 . S
C1317 H1309 0.930 . S
C1317 C1315 1.419 . S
C1317 C1318 1.362 . S
C1318 H1310 0.930 . S
C1318 C1317 1.362 . S
C1318 C1321 1.409 . S
C1319 H1311 0.930 . S
C1319 C1320 1.355 . S
C1319 C1321 1.415 . S
C1320 C1319 1.355 . S
C1320 C1322 1.419 . S
C1321 C1316 1.425 . S
C1321 C1318 1.409 . S
C1321 C1319 1.415 . S
C1322 H1312 0.930 . S
C1322 C1320 1.419 . S
C1322 C1323 1.362 . S
C1323 H1313 0.930 . S
C1323 C1316 1.409 . S
C1323 C1322 1.362 . S
H1324 C1330 0.930 . S
H1325 C1333 0.930 . S
H1326 C1334 0.930 . S
H1327 C1335 0.930 . S
H1328 C1338 0.930 . S
H1329 C1339 0.930 . S
C1330 H1324 0.930 . S
C1330 C1331 1.355 . S
C1330 C1332 1.415 . S
C1331 C1330 1.355 . S
C1331 C1333 1.419 . S
C1332 C1330 1.415 . S
C1332 C1337 1.425 . S
C1332 C1339 1.409 . S
C1333 H1325 0.930 . S
C1333 C1331 1.419 . S
C1333 C1334 1.362 . S
C1334 H1326 0.930 . S
C1334 C1333 1.362 . S
C1334 C1337 1.409 . S
C1335 H1327 0.930 . S
C1335 C1336 1.355 . S
C1335 C1337 1.415 . S
C1336 C1335 1.355 . S
C1336 C1338 1.419 . S
C1337 C1332 1.425 . S
C1337 C1334 1.409 . S
C1337 C1335 1.415 . S
C1338 H1328 0.930 . S
C1338 C1336 1.419 . S
C1338 C1339 1.362 . S
C1339 H1329 0.930 . S
C1339 C1332 1.409 . S
C1339 C1338 1.362 . S
H1340 C1346 0.930 . S
H1341 C1349 0.930 . S
H1342 C1350 0.930 . S
H1343 C1351 0.930 . S
H1344 C1354 0.930 . S
H1345 C1355 0.930 . S
C1346 H1340 0.930 . S
C1346 C1347 1.355 . S
C1346 C1348 1.415 . S
C1347 C1346 1.355 . S
C1347 C1349 1.419 . S
C1348 C1346 1.415 . S
C1348 C1353 1.425 . S
C1348 C1355 1.409 . S
C1349 H1341 0.930 . S
C1349 C1347 1.419 . S
C1349 C1350 1.362 . S
C1350 H1342 0.930 . S
C1350 C1349 1.362 . S
C1350 C1353 1.409 . S
C1351 H1343 0.930 . S
C1351 C1352 1.355 . S
C1351 C1353 1.415 . S
C1352 C1351 1.355 . S
C1352 C1354 1.419 . S
C1353 C1348 1.425 . S
C1353 C1350 1.409 . S
C1353 C1351 1.415 . S
C1354 H1344 0.930 . S
C1354 C1352 1.419 . S
C1354 C1355 1.362 . S
C1355 H1345 0.930 . S
C1355 C1348 1.409 . S
C1355 C1354 1.362 . S
H1356 C1362 0.930 . S
H1357 C1365 0.930 . S
H1358 C1366 0.930 . S
H1359 C1367 0.930 . S
H1360 C1370 0.930 . S
H1361 C1371 0.930 . S
C1362 H1356 0.930 . S
C1362 C1363 1.355 . S
C1362 C1364 1.415 . S
C1363 C1362 1.355 . S
C1363 C1365 1.419 . S
C1364 C1362 1.415 . S
C1364 C1369 1.425 . S
C1364 C1371 1.409 . S
C1365 H1357 0.930 . S
C1365 C1363 1.419 . S
C1365 C1366 1.362 . S
C1366 H1358 0.930 . S
C1366 C1365 1.362 . S
C1366 C1369 1.409 . S
C1367 H1359 0.930 . S
C1367 C1368 1.355 . S
C1367 C1369 1.415 . S
C1368 C1367 1.355 . S
C1368 C1370 1.419 . S
C1369 C1364 1.425 . S
C1369 C1366 1.409 . S
C1369 C1367 1.415 . S
C1370 H1360 0.930 . S
C1370 C1368 1.419 . S
C1370 C1371 1.362 . S
C1371 H1361 0.930 . S
C1371 C1364 1.409 . S
C1371 C1370 1.362 . S
H1372 C1378 0.930 . S
H1373 C1381 0.930 . S
H1374 C1382 0.930 . S
H1375 C1383 0.930 . S
H1376 C1386 0.930 . S
H1377 C1387 0.930 . S
C1378 H1372 0.930 . S
C1378 C1379 1.355 . S
C1378 C1380 1.415 . S
C1379 C1378 1.355 . S
C1379 C1381 1.419 . S
C1380 C1378 1.415 . S
C1380 C1385 1.425 . S
C1380 C1387 1.409 . S
C1381 H1373 0.930 . S
C1381 C1379 1.419 . S
C1381 C1382 1.362 . S
C1382 H1374 0.930 . S
C1382 C1381 1.362 . S
C1382 C1385 1.409 . S
C1383 H1375 0.930 . S
C1383 C1384 1.355 . S
C1383 C1385 1.415 . S
C1384 C1383 1.355 . S
C1384 C1386 1.419 . S
C1385 C1380 1.425 . S
C1385 C1382 1.409 . S
C1385 C1383 1.415 . S
C1386 H1376 0.930 . S
C1386 C1384 1.419 . S
C1386 C1387 1.362 . S
C1387 H1377 0.930 . S
C1387 C1380 1.409 . S
C1387 C1386 1.362 . S
H1388 C1394 0.930 . S
H1389 C1397 0.930 . S
H1390 C1398 0.930 . S
H1391 C1399 0.930 . S
H1392 C1402 0.930 . S
H1393 C1403 0.930 . S
C1394 H1388 0.930 . S
C1394 C1395 1.355 . S
C1394 C1396 1.415 . S
C1395 C1394 1.355 . S
C1395 C1397 1.419 . S
C1396 C1394 1.415 . S
C1396 C1401 1.425 . S
C1396 C1403 1.409 . S
C1397 H1389 0.930 . S
C1397 C1395 1.419 . S
C1397 C1398 1.362 . S
C1398 H1390 0.930 . S
C1398 C1397 1.362 . S
C1398 C1401 1.409 . S
C1399 H1391 0.930 . S
C1399 C1400 1.355 . S
C1399 C1401 1.415 . S
C1400 C1399 1.355 . S
C1400 C1402 1.419 . S
C1401 C1396 1.425 . S
C1401 C1398 1.409 . S
C1401 C1399 1.415 . S
C1402 H1392 0.930 . S
C1402 C1400 1.419 . S
C1402 C1403 1.362 . S
C1403 H1393 0.930 . S
C1403 C1396 1.409 . S
C1403 C1402 1.362 . S
C547 N14 0.804 . S
C552 C70 0.981 . S
C563 C10 0.977 . S
C568 N44 0.793 . S
C579 N74 0.855 . S
C584 C40 1.003 . S
C595 C121 1.073 . S
C600 N96 0.978 . S
C611 C151 0.973 . S
C616 N126 0.755 . S
C627 N156 0.970 . S
C632 C91 1.073 . S
C643 C250 0.964 . S
C648 N194 0.752 . S
C659 N224 0.975 . S
C664 C190 1.074 . S
C675 C220 1.021 . S
C680 N254 0.892 . S
C691 N276 0.828 . S
C696 C301 0.991 . S
C707 C331 1.007 . S
C712 N306 0.820 . S
C723 N336 0.940 . S
C728 C271 1.047 . S
C739 C430 1.068 1_565 S
C744 N374 0.955 . S
C755 N404 0.974 . S
C760 C370 1.074 1_455 S
C771 N434 0.758 . S
C776 C400 0.975 . S
C787 N456 0.969 . S
C792 C481 1.073 1_455 S
C803 C511 1.040 . S
C808 N486 0.929 . S
C819 C451 0.993 1_565 S
C824 N516 0.832 . S
C835 C166 1.326 . S
C840 C16 1.330 . S
C851 C106 1.346 . S
C856 C46 1.349 . S
C867 C136 1.369 . S
C872 C76 1.372 . S
C883 C57 1.379 . S
C888 C117 1.381 . S
C899 C147 1.337 . S
C904 C87 1.333 . S
C915 C27 1.341 . S
C920 C177 1.344 . S
C931 C196 1.379 . S
C936 C346 1.377 . S
C947 C226 1.330 . S
C952 C286 1.326 . S
C963 C316 1.382 . S
C968 C256 1.384 . S
C979 C297 1.365 . S
C984 C237 1.361 . S
C995 C327 1.371 . S
C1000 C267 1.353 . S
C1011 C357 1.333 . S
C1016 C207 1.329 . S
C1027 C376 1.329 . S
C1032 C526 1.325 . S
C1043 C406 1.353 . S
C1048 C466 1.350 . S
C1059 C436 1.379 . S
C1064 C496 1.377 . S
C1075 C477 1.392 . S
C1080 C417 1.390 . S
C1091 C507 1.328 . S
C1096 C447 1.324 . S
C1107 C537 1.376 . S
C1112 C387 1.373 . S
C1123 N314 2.231 . S
C1128 C1 2.189 1_556 S
C1139 C31 2.168 1_556 S
C1144 N344 2.221 . S
C1155 N284 2.230 . S
C1160 C61 2.197 1_556 S
C1171 C100 2.173 . S
C1176 N246 2.212 . S
C1187 C130 2.150 . S
C1192 N186 2.205 . S
C1203 N216 2.231 . S
C1208 C160 2.190 . S
C1219 C181 2.162 . S
C1224 N494 2.217 . S
C1235 C211 2.174 . S
C1240 N524 2.212 . S
C1251 C241 2.189 . S
C1256 N464 2.231 . S
C1267 N426 2.217 . S
C1272 C280 2.162 . S
C1283 N366 2.212 . S
C1288 C310 2.155 . S
C1299 N396 2.208 . S
C1304 C340 2.151 . S
C1315 N134 2.204 . S
C1320 C361 2.153 . S
C1331 C391 2.166 . S
C1336 N164 2.220 . S
C1347 N104 2.232 . S
C1352 C421 2.192 . S
C1363 C460 2.197 . S
C1368 N66 2.230 . S
C1379 C490 2.153 . S
C1384 N6 2.210 . S
C1395 N36 2.216 . S
C1400 C520 2.160 . S
