# Generated by pormake.
# Topology vby, (6)-cn, num edge types: 1
# Building blocks:
#     Node 0, Type 0, BuildingBlock: JUFBIX_clean_sbu_0, # of connection points: 6
#     Node 1, Type 0, BuildingBlock: JUFBIX_clean_sbu_0, # of connection points: 6
#     Node 2, Type 0, BuildingBlock: JUFBIX_clean_sbu_0, # of connection points: 6
#     Node 3, Type 0, BuildingBlock: JUFBIX_clean_sbu_0, # of connection points: 6
#     Node 4, Type 0, BuildingBlock: JUFBIX_clean_sbu_0, # of connection points: 6
#     Node 5, Type 0, BuildingBlock: JUFBIX_clean_sbu_0, # of connection points: 6
#     Node 6, Type 0, BuildingBlock: JUFBIX_clean_sbu_0, # of connection points: 6
#     Node 7, Type 0, BuildingBlock: JUFBIX_clean_sbu_0, # of connection points: 6
#     Edge 8, Type (0, 0), BuildingBlock: XIVTED_clean_linker_0, # of connection points: 2
#     Edge 9, Type (0, 0), BuildingBlock: XIVTED_clean_linker_0, # of connection points: 2
#     Edge 10, Type (0, 0), BuildingBlock: XIVTED_clean_linker_0, # of connection points: 2
#     Edge 11, Type (0, 0), BuildingBlock: XIVTED_clean_linker_0, # of connection points: 2
#     Edge 12, Type (0, 0), BuildingBlock: XIVTED_clean_linker_0, # of connection points: 2
#     Edge 13, Type (0, 0), BuildingBlock: XIVTED_clean_linker_0, # of connection points: 2
#     Edge 14, Type (0, 0), BuildingBlock: XIVTED_clean_linker_0, # of connection points: 2
#     Edge 15, Type (0, 0), BuildingBlock: XIVTED_clean_linker_0, # of connection points: 2
#     Edge 16, Type (0, 0), BuildingBlock: XIVTED_clean_linker_0, # of connection points: 2
#     Edge 17, Type (0, 0), BuildingBlock: XIVTED_clean_linker_0, # of connection points: 2
#     Edge 18, Type (0, 0), BuildingBlock: XIVTED_clean_linker_0, # of connection points: 2
#     Edge 19, Type (0, 0), BuildingBlock: XIVTED_clean_linker_0, # of connection points: 2
#     Edge 20, Type (0, 0), BuildingBlock: XIVTED_clean_linker_0, # of connection points: 2
#     Edge 21, Type (0, 0), BuildingBlock: XIVTED_clean_linker_0, # of connection points: 2
#     Edge 22, Type (0, 0), BuildingBlock: XIVTED_clean_linker_0, # of connection points: 2
#     Edge 23, Type (0, 0), BuildingBlock: XIVTED_clean_linker_0, # of connection points: 2
#     Edge 24, Type (0, 0), BuildingBlock: XIVTED_clean_linker_0, # of connection points: 2
#     Edge 25, Type (0, 0), BuildingBlock: XIVTED_clean_linker_0, # of connection points: 2
#     Edge 26, Type (0, 0), BuildingBlock: XIVTED_clean_linker_0, # of connection points: 2
#     Edge 27, Type (0, 0), BuildingBlock: XIVTED_clean_linker_0, # of connection points: 2
#     Edge 28, Type (0, 0), BuildingBlock: XIVTED_clean_linker_0, # of connection points: 2
#     Edge 29, Type (0, 0), BuildingBlock: XIVTED_clean_linker_0, # of connection points: 2
#     Edge 30, Type (0, 0), BuildingBlock: XIVTED_clean_linker_0, # of connection points: 2
#     Edge 31, Type (0, 0), BuildingBlock: XIVTED_clean_linker_0, # of connection points: 2
# Relax obj value: 0.152
# Max RMSD: 0.158
# Mean RMSD: 0.158
data_MOF--net-vby--node1-JUFBIX_clean_sbu_0--edge1-XIVTED_clean_linker_0
_symmetry_space_group_name_H-M    P1
_symmetry_Int_Tables_number       1
_symmetry_cell_setting            triclinic
loop_
_symmetry_equiv_pos_as_xyz
'x, y, z'
_cell_length_a     19.576807
_cell_length_b     56.009334
_cell_length_c     29.319584
_cell_angle_alpha  89.948445
_cell_angle_beta   94.070632
_cell_angle_gamma 90.021794
loop_
_atom_site_label
_atom_site_type_symbol
_atom_site_fract_x
_atom_site_fract_y
_atom_site_fract_z
_atom_type_partial_charge
Co0 Co 0.0334 0.36216 0.01869 0.0
C1 C 0.09033 0.3666 0.93566 0.0
Co2 Co 0.13828 0.37685 0.02522 0.0
C3 C 0.88669 0.36036 0.02373 0.0
C4 C 0.92492 0.32979 0.99001 0.0
N5 N 0.9451 0.35013 1.0115 0.0
N6 N 0.83072 0.34728 1.01048 0.0
C7 C 0.85478 0.32796 0.9894 0.0
H8 H 0.88538 0.3772 0.04168 0.0
H9 H 0.95885 0.31741 0.97458 0.0
C10 C 0.07353 0.37285 0.10767 0.0
N11 N 0.22669 0.38885 0.03246 0.0
C12 C 0.28488 0.37896 0.01908 0.0
C13 C 0.24725 0.40868 0.0556 0.0
N14 N 0.34103 0.39172 0.03323 0.0
C15 C 0.31736 0.41053 0.05601 0.0
C16 C 0.04245 0.41195 1.0116 0.0
O17 O 0.02591 0.36436 0.08109 0.0
O18 O 0.12959 0.37915 0.09125 0.0
O19 O 0.10544 0.40729 0.01765 0.0
O20 O 0.99898 0.39493 1.01138 0.0
O21 O 0.14307 0.37476 0.9588 0.0
H22 H 0.2136 0.42066 0.07229 0.0
H23 H 0.286 0.36248 0.99991 0.0
O24 O 0.03907 0.35998 0.95628 0.0
O25 O 0.07111 0.32992 0.02592 0.0
O26 O 0.17294 0.34622 0.03271 0.0
C27 C 0.13607 0.3277 0.03177 0.0
H28 H 0.82386 0.31392 0.97315 0.0
H29 H 0.34859 0.42415 0.07338 0.0
Co30 Co 0.88662 0.62482 0.01348 0.0
C31 C 0.95536 0.63169 0.93336 0.0
Co32 Co 0.99261 0.63795 0.02435 0.0
C33 C 0.73993 0.62279 0.01752 0.0
C34 C 0.77743 0.59511 0.97569 0.0
N35 N 0.79806 0.61361 1.00266 0.0
N36 N 0.68372 0.61084 1.00071 0.0
C37 C 0.70727 0.59332 0.97452 0.0
H38 H 0.73898 0.63811 0.03992 0.0
H39 H 0.81116 0.58398 0.9572 0.0
C40 C 0.93124 0.63031 0.10485 0.0
N41 N 0.0811 0.6492 0.03506 0.0
C42 C 0.1393 0.63988 0.02059 0.0
C43 C 0.10153 0.66809 0.06104 0.0
N44 N 0.1954 0.65213 0.03668 0.0
C45 C 0.17167 0.66996 0.06204 0.0
C46 C 0.8923 0.6738 0.01518 0.0
O47 O 0.87781 0.62491 0.07941 0.0
O48 O 0.98519 0.63654 0.08685 0.0
O49 O 0.95673 0.6707 0.023 0.0
O50 O 0.85415 0.65574 1.00908 0.0
O51 O 1.00213 0.63912 0.96185 0.0
H52 H 0.06771 0.67945 0.07897 0.0
H53 H 0.14033 0.62433 0.99876 0.0
O54 O 0.89876 0.62464 0.94792 0.0
O55 O 0.91735 0.59392 0.01807 0.0
O56 O 0.025 0.60488 0.02573 0.0
C57 C 0.97985 0.58838 0.02336 0.0
H58 H 0.67597 0.58062 0.95462 0.0
H59 H 0.20281 0.68298 0.08121 0.0
Co60 Co 0.13507 0.63109 0.5227 0.0
C61 C 0.06978 0.63538 0.60494 0.0
Co62 Co 0.03008 0.64561 0.51577 0.0
C63 C 0.2818 0.62897 0.51721 0.0
C64 C 0.24375 0.59942 0.55412 0.0
N65 N 0.22344 0.61913 0.53047 0.0
N66 N 0.33786 0.61633 0.53203 0.0
C67 C 0.31388 0.59763 0.55508 0.0
H68 H 0.2832 0.64565 0.49863 0.0
H69 H 0.20984 0.58741 0.57059 0.0
C70 C 0.08761 0.64091 0.43297 0.0
N71 N 0.94182 0.65756 0.50808 0.0
C72 C 0.88343 0.64739 0.52049 0.0
C73 C 0.92163 0.67772 0.48587 0.0
N74 N 0.82742 0.66028 0.50655 0.0
C75 C 0.85145 0.67944 0.48487 0.0
C76 C 0.1324 0.68025 0.5282 0.0
O77 O 0.14039 0.63294 0.45633 0.0
O78 O 0.0361 0.64746 0.45337 0.0
O79 O 0.0675 0.67788 0.52232 0.0
O80 O 0.16954 0.6618 0.52972 0.0
O81 O 0.02223 0.64375 0.57815 0.0
H82 H 0.95562 0.69009 0.47042 0.0
H83 H 0.88198 0.63042 0.53805 0.0
O84 O 0.12591 0.62903 0.58872 0.0
O85 O 0.10241 0.60059 0.51554 0.0
O86 O 0.99584 0.6128 0.50917 0.0
C87 C 0.03945 0.59584 0.50965 0.0
H88 H 0.3447 0.58373 0.57192 0.0
H89 H 0.82063 0.69364 0.46908 0.0
Co90 Co 0.99556 0.3699 0.52706 0.0
C91 C 0.9334 0.37719 0.60744 0.0
Co92 Co 0.88959 0.38314 0.51604 0.0
C93 C 0.14276 0.36796 0.52438 0.0
C94 C 0.10381 0.33951 0.56381 0.0
N95 N 0.08406 0.35856 0.53804 0.0
N96 N 0.19851 0.35563 0.54089 0.0
C97 C 0.17399 0.33765 0.56562 0.0
H98 H 0.14453 0.38397 0.5038 0.0
H99 H 0.06946 0.32794 0.5809 0.0
C100 C 0.9591 0.3766 0.43608 0.0
N101 N 0.80099 0.39444 0.50496 0.0
C102 C 0.74236 0.38508 0.51881 0.0
C103 C 0.781 0.41318 0.47838 0.0
N104 N 0.68644 0.3971 0.50162 0.0
C105 C 0.71078 0.41487 0.4763 0.0
C106 C 0.98309 0.41948 0.52672 0.0
O107 O 1.00559 0.36895 0.46458 0.0
O108 O 0.9025 0.38368 0.45057 0.0
O109 O 0.92052 0.41401 0.52135 0.0
O110 O 0.02812 0.40295 0.52883 0.0
O111 O 0.88012 0.38269 0.58191 0.0
H112 H 0.81526 0.42461 0.46089 0.0
H113 H 0.74078 0.36921 0.5398 0.0
O114 O 0.98754 0.37109 0.58955 0.0
O115 O 0.95937 0.33716 0.52525 0.0
O116 O 0.85706 0.35228 0.51091 0.0
C117 C 0.89499 0.33417 0.51692 0.0
H118 H 0.20444 0.32411 0.58386 0.0
H119 H 0.68019 0.42813 0.45737 0.0
Co120 Co 0.53398 0.86351 0.01455 0.0
C121 C 0.594 0.86831 0.93265 0.0
Co122 Co 0.63915 0.87783 0.02295 0.0
C123 C 0.38733 0.86182 0.01867 0.0
C124 C 0.42523 0.83193 0.98275 0.0
N125 N 0.44561 0.85178 1.00586 0.0
N126 N 0.3312 0.84916 1.00415 0.0
C127 C 0.35501 0.83027 0.98162 0.0
H128 H 0.3861 0.87855 0.03705 0.0
H129 H 0.45915 0.8197 0.9669 0.0
C130 C 0.57164 0.87339 0.10432 0.0
N131 N 0.72762 0.88955 0.03177 0.0
C132 C 0.78589 0.87985 0.01812 0.0
C133 C 0.74808 0.90892 0.05635 0.0
N134 N 0.84207 0.89226 0.03356 0.0
C135 C 0.81826 0.91065 0.05748 0.0
C136 C 0.54436 0.91325 1.00889 0.0
O137 O 0.52456 0.86525 0.07687 0.0
O138 O 0.62839 0.87967 0.08884 0.0
O139 O 0.60719 0.90847 0.01569 0.0
O140 O 0.50052 0.89635 1.00771 0.0
O141 O 0.64616 0.87619 0.95675 0.0
H142 H 0.71423 0.92074 0.07323 0.0
H143 H 0.78709 0.86346 0.9987 0.0
O144 O 0.54164 0.86176 0.95216 0.0
O145 O 0.57052 0.83117 0.02133 0.0
O146 O 0.67288 0.84697 0.02999 0.0
C147 C 0.63529 0.8286 0.02782 0.0
H148 H 0.32403 0.81628 0.96526 0.0
H149 H 0.84921 0.92431 0.07492 0.0
Co150 Co 0.39345 0.12505 0.0176 0.0
C151 C 0.46165 0.13156 0.93721 0.0
Co152 Co 0.49898 0.1388 0.02796 0.0
C153 C 0.24668 0.12307 0.02168 0.0
C154 C 0.28423 0.09483 0.98121 0.0
N155 N 0.30487 0.11364 1.00734 0.0
N156 N 0.19042 0.11099 1.00532 0.0
C157 C 0.21402 0.09312 0.98 0.0
H158 H 0.24573 0.13869 0.04333 0.0
H159 H 0.31796 0.08345 0.96324 0.0
C160 C 0.43821 0.13149 0.10875 0.0
N161 N 0.58747 0.15029 0.03804 0.0
C162 C 0.64567 0.14084 0.02377 0.0
C163 C 0.60796 0.16942 0.06332 0.0
N164 N 0.70183 0.15322 0.03933 0.0
C165 C 0.67812 0.17129 0.06412 0.0
C166 C 0.39773 0.17413 0.01766 0.0
O167 O 0.3849 0.12573 0.0835 0.0
O168 O 0.49196 0.13778 0.09057 0.0
O169 O 0.46225 0.17145 0.0259 0.0
O170 O 0.36043 0.15584 1.01205 0.0
O171 O 0.50798 0.13957 0.9654 0.0
H172 H 0.5742 0.18094 0.08096 0.0
H173 H 0.64665 0.12509 1.0025 0.0
O174 O 0.40547 0.12425 0.95204 0.0
O175 O 0.42486 0.09425 0.02333 0.0
O176 O 0.53213 0.10583 0.03004 0.0
C177 C 0.48766 0.08911 0.02849 0.0
H178 H 0.18273 0.08022 0.9606 0.0
H179 H 0.70928 0.18448 0.08281 0.0
Co180 Co 0.64198 0.13024 0.52686 0.0
C181 C 0.57689 0.13419 0.60911 0.0
Co182 Co 0.53716 0.14476 0.52004 0.0
C183 C 0.788 0.12841 0.52051 0.0
C184 C 0.75147 0.09882 0.55805 0.0
N185 N 0.73027 0.11842 0.53434 0.0
N186 N 0.84454 0.11599 0.53499 0.0
C187 C 0.82162 0.09724 0.55841 0.0
H188 H 0.78849 0.14476 0.50082 0.0
H189 H 0.71823 0.08686 0.5752 0.0
C190 C 0.59453 0.14042 0.43721 0.0
N191 N 0.44896 0.1566 0.51259 0.0
C192 C 0.39099 0.14625 0.52519 0.0
C193 C 0.42816 0.17673 0.49052 0.0
N194 N 0.33463 0.15899 0.51154 0.0
C195 C 0.35796 0.17827 0.48988 0.0
C196 C 0.63912 0.17942 0.53299 0.0
O197 O 0.64722 0.13233 0.46048 0.0
O198 O 0.54302 0.14689 0.45767 0.0
O199 O 0.57424 0.17705 0.52702 0.0
O200 O 0.67625 0.16097 0.53427 0.0
O201 O 0.52935 0.14264 0.5824 0.0
H202 H 0.46169 0.18911 0.47468 0.0
H203 H 0.39028 0.12952 0.54365 0.0
O204 O 0.63305 0.12794 0.59284 0.0
O205 O 0.60969 0.09972 0.5194 0.0
O206 O 0.50314 0.11191 0.51298 0.0
C207 C 0.54677 0.09496 0.5134 0.0
H208 H 0.85338 0.08389 0.5762 0.0
H209 H 0.32652 0.19205 0.47319 0.0
Co210 Co 0.4975 0.86885 0.52536 0.0
C211 C 0.43426 0.87548 0.60531 0.0
Co212 Co 0.39186 0.88226 0.51361 0.0
C213 C 0.64417 0.86712 0.52205 0.0
C214 C 0.60648 0.83865 0.56202 0.0
N215 N 0.58599 0.85763 0.53627 0.0
N216 N 0.70035 0.85493 0.53815 0.0
C217 C 0.67668 0.83695 0.56327 0.0
H218 H 0.64524 0.88308 0.50129 0.0
H219 H 0.57261 0.82702 0.57937 0.0
C220 C 0.46218 0.87615 0.43408 0.0
N221 N 0.30325 0.8934 0.50254 0.0
C222 C 0.24517 0.88402 0.51714 0.0
C223 C 0.28247 0.91195 0.47573 0.0
N224 N 0.18877 0.89583 0.50022 0.0
C225 C 0.21222 0.91351 0.47425 0.0
C226 C 0.48479 0.91854 0.52582 0.0
O227 O 0.50837 0.86858 0.46288 0.0
O228 O 0.40508 0.88297 0.44817 0.0
O229 O 0.42232 0.91314 0.51921 0.0
O230 O 0.52968 0.90196 0.52858 0.0
O231 O 0.38197 0.88164 0.57944 0.0
H232 H 0.31619 0.92337 0.45777 0.0
H233 H 0.24432 0.86828 0.53853 0.0
O234 O 0.48859 0.86925 0.58784 0.0
O235 O 0.46189 0.83611 0.52222 0.0
O236 O 0.35964 0.85132 0.50816 0.0
C237 C 0.39751 0.83317 0.51385 0.0
H238 H 0.70773 0.8235 0.58132 0.0
H239 H 0.18101 0.9266 0.45533 0.0
H240 H 0.44933 0.422 0.03324 0.0
H241 H 0.72241 0.31695 1.01121 0.0
H242 H 0.39487 0.34744 0.02274 0.0
H243 H 0.77639 0.39162 0.01957 0.0
H244 H 0.60228 0.32774 0.01563 0.0
H245 H 0.56945 0.41121 0.02854 0.0
C246 C 0.46258 0.40336 0.03002 0.0
C247 C 0.41175 0.38563 0.02843 0.0
C248 C 0.64042 0.34177 0.01656 0.0
C249 C 0.54943 0.3731 0.0228 0.0
C250 C 0.70911 0.33562 0.01386 0.0
C251 C 0.75986 0.35338 0.01492 0.0
C252 C 0.62207 0.36588 0.02031 0.0
C253 C 0.73941 0.37727 0.01916 0.0
C254 C 0.53122 0.3972 0.02716 0.0
C255 C 0.432 0.36176 0.02353 0.0
N256 N 0.67216 0.38281 0.02159 0.0
N257 N 0.49923 0.3562 0.02103 0.0
H258 H 0.30347 0.68269 0.04166 0.0
H259 H 0.57547 0.58044 0.99501 0.0
H260 H 0.24935 0.60882 0.01767 0.0
H261 H 0.63022 0.65414 0.02022 0.0
H262 H 0.45563 0.59056 1.00286 0.0
H263 H 0.42336 0.67265 0.03372 0.0
C264 C 0.31672 0.66434 0.03485 0.0
C265 C 0.26605 0.64658 0.03042 0.0
C266 C 0.49386 0.60452 1.00675 0.0
C267 C 0.40343 0.63496 0.02097 0.0
C268 C 0.56233 0.59876 1.00208 0.0
C269 C 0.61313 0.61645 1.00691 0.0
C270 C 0.47583 0.62818 0.01623 0.0
C271 C 0.59307 0.63985 0.01679 0.0
C272 C 0.38523 0.65863 0.03014 0.0
C273 C 0.28632 0.62317 0.02083 0.0
N274 N 0.526 0.64503 0.021 0.0
N275 N 0.35339 0.61804 0.01654 0.0
H276 H 0.77651 0.63188 0.57134 0.0
H277 H 0.38899 0.64424 0.46649 0.0
H278 H 0.71623 0.6743 0.45225 0.0
H279 H 0.44905 0.60277 0.58689 0.0
H280 H 0.5086 0.65538 0.46055 0.0
H281 H 0.65686 0.62075 0.57723 0.0
C282 C 0.73826 0.63881 0.54633 0.0
C283 C 0.75673 0.65406 0.51122 0.0
C284 C 0.49558 0.64381 0.48824 0.0
C285 C 0.61927 0.64151 0.51796 0.0
C286 C 0.42714 0.63751 0.49177 0.0
C287 C 0.40859 0.62252 0.52727 0.0
C288 C 0.54605 0.63508 0.52044 0.0
C289 C 0.46072 0.61408 0.5586 0.0
C290 C 0.66981 0.63252 0.54984 0.0
C291 C 0.70454 0.66276 0.48022 0.0
N292 N 0.52693 0.62051 0.55448 0.0
N293 N 0.63832 0.65633 0.48427 0.0
H294 H 0.57588 0.40873 0.44446 0.0
H295 H 0.30923 0.34339 0.59734 0.0
H296 H 0.63432 0.37212 0.57087 0.0
H297 H 0.25052 0.38067 0.47172 0.0
H298 H 0.4286 0.35324 0.58763 0.0
H299 H 0.45663 0.39864 0.45388 0.0
C300 C 0.56377 0.39872 0.4744 0.0
C301 C 0.61557 0.39135 0.50699 0.0
C302 C 0.38963 0.35926 0.56215 0.0
C303 C 0.4786 0.37941 0.51767 0.0
C304 C 0.32132 0.3535 0.56751 0.0
C305 C 0.26943 0.36117 0.53526 0.0
C306 C 0.40649 0.37281 0.52424 0.0
C307 C 0.28849 0.37461 0.49774 0.0
C308 C 0.49552 0.39282 0.47959 0.0
C309 C 0.59646 0.37799 0.54462 0.0
N310 N 0.35541 0.37998 0.49327 0.0
N311 N 0.52959 0.37248 0.54892 0.0
H312 H 0.89269 0.86543 0.96639 0.0
H313 H 0.28085 0.87653 0.07056 0.0
H314 H 0.95358 0.90503 0.08885 0.0
H315 H 0.21967 0.83592 0.94942 0.0
H316 H 0.16131 0.88747 0.07744 0.0
H317 H 1.0122 0.85452 0.95944 0.0
C318 C 0.93101 0.87179 0.99192 0.0
C319 C 0.91272 0.88619 0.02829 0.0
C320 C 0.17404 0.87613 0.04938 0.0
C321 C 0.05008 0.8739 0.0203 0.0
C322 C 0.24242 0.86997 0.0453 0.0
C323 C 0.26059 0.85528 1.00932 0.0
C324 C 0.12326 0.8676 0.0172 0.0
C325 C 0.20819 0.84702 0.97803 0.0
C326 C 0.99939 0.86563 0.98781 0.0
C327 C 0.96506 0.89418 0.05991 0.0
N328 N 0.14203 0.85333 0.98266 0.0
N329 N 0.03122 0.8879 0.05521 0.0
H330 H 0.0818 0.08073 1.00036 0.0
H331 H 0.81018 0.1837 0.04357 0.0
H332 H 0.13705 0.15458 0.02315 0.0
H333 H 0.75568 0.10973 0.02145 0.0
H334 H 0.93006 0.17347 0.03599 0.0
H335 H 0.96198 0.09109 1.00762 0.0
C336 C 0.06879 0.09914 1.00677 0.0
C337 C 0.11977 0.11679 1.01111 0.0
C338 C 0.89185 0.15948 0.03273 0.0
C339 C 0.9824 0.1288 0.01976 0.0
C340 C 0.82332 0.1653 0.03724 0.0
C341 C 0.77251 0.14756 0.03324 0.0
C342 C 0.90995 0.13572 0.02421 0.0
C343 C 0.79271 0.12406 0.02427 0.0
C344 C 1.00031 0.10504 1.0111 0.0
C345 C 0.0998 0.14031 0.02013 0.0
N346 N 0.85979 0.11883 0.02018 0.0
N347 N 0.03272 0.14563 0.02404 0.0
H348 H 0.28263 0.1144 0.5216 0.0
H349 H 0.89602 0.1605 0.52342 0.0
H350 H 0.22489 0.18869 0.51133 0.0
H351 H 0.95426 0.08634 0.53587 0.0
H352 H 0.01592 0.17112 0.5176 0.0
H353 H 0.16274 0.1038 0.52709 0.0
C354 C 0.24494 0.12853 0.5209 0.0
C355 C 0.26413 0.15252 0.51604 0.0
C356 C 1.00249 0.15251 0.52152 0.0
C357 C 0.12621 0.14042 0.52164 0.0
C358 C 0.93386 0.1464 0.52448 0.0
C359 C 0.91489 0.12245 0.53006 0.0
C360 C 0.05268 0.13455 0.5241 0.0
C361 C 0.96656 0.10503 0.53211 0.0
C362 C 0.17628 0.12244 0.5237 0.0
C363 C 0.21253 0.16997 0.51449 0.0
N364 N 0.03304 0.11142 0.52913 0.0
N365 N 0.146 0.16358 0.51727 0.0
H366 H 0.74991 0.87963 0.46776 0.0
H367 H 0.13911 0.87122 0.57075 0.0
H368 H 0.81249 0.84334 0.59379 0.0
H369 H 0.07671 0.90684 0.44395 0.0
H370 H 0.01982 0.86072 0.57968 0.0
H371 H 0.86934 0.88989 0.45857 0.0
C372 C 0.78862 0.87388 0.49361 0.0
C373 C 0.77088 0.86062 0.53167 0.0
C374 C 0.03225 0.87086 0.54991 0.0
C375 C 0.90809 0.87215 0.52115 0.0
C376 C 0.10051 0.87677 0.54467 0.0
C377 C 0.11829 0.88996 0.5065 0.0
C378 C 0.98117 0.87814 0.51676 0.0
C379 C 0.0656 0.89695 0.47422 0.0
C380 C 0.85695 0.87965 0.48822 0.0
C381 C 0.82363 0.85333 0.56365 0.0
N382 N 0.99955 0.89094 0.48006 0.0
N383 N 0.88973 0.85923 0.55771 0.0
H384 H 0.09308 0.56449 0.99537 0.0
H385 H 0.929 0.43545 0.03997 0.0
H386 H 0.90106 0.55386 0.05623 0.0
H387 H 0.11609 0.44622 0.9733 0.0
H388 H 0.91575 0.47905 0.04463 0.0
H389 H 0.10468 0.52087 0.98902 0.0
C390 C 0.0542 0.55298 1.0081 0.0
C391 C 0.99601 0.5627 0.02606 0.0
C392 C 0.95936 0.47181 0.02859 0.0
C393 C 1.00776 0.51316 0.01819 0.0
C394 C 0.96626 0.44697 0.02544 0.0
C395 C 0.02374 0.43733 1.00649 0.0
C396 C 1.01037 0.48687 1.01265 0.0
C397 C 0.07124 0.453 0.98862 0.0
C398 C 0.06022 0.52815 1.00401 0.0
C399 C 0.94652 0.54705 0.0417 0.0
N400 N 0.06382 0.47694 0.99246 0.0
N401 N 0.95332 0.52313 0.03719 0.0
H402 H 0.09356 0.44351 0.49518 0.0
H403 H 0.9288 0.57214 0.5415 0.0
H404 H 0.9071 0.45374 0.56276 0.0
H405 H 0.11121 0.56173 0.46962 0.0
H406 H 0.9176 0.52853 0.5479 0.0
H407 H 0.1034 0.48712 0.48755 0.0
C408 C 0.05569 0.45494 0.50922 0.0
C409 C 0.99946 0.44512 0.52942 0.0
C410 C 0.95968 0.53584 0.5303 0.0
C411 C 1.009 0.49464 0.51998 0.0
C412 C 0.96533 0.56067 0.52613 0.0
C413 C 0.02098 0.57043 0.50518 0.0
C414 C 1.0101 0.52089 0.51339 0.0
C415 C 0.06773 0.55484 0.48638 0.0
C416 C 0.06062 0.47977 0.50437 0.0
C417 C 0.95107 0.46066 0.54658 0.0
N418 N 0.0616 0.5309 0.49124 0.0
N419 N 0.9567 0.48459 0.54124 0.0
H420 H 0.61194 0.94643 0.96337 0.0
H421 H 0.41983 0.05564 0.07294 0.0
H422 H 0.43942 0.93781 0.04546 0.0
H423 H 0.59099 0.06457 0.98974 0.0
H424 H 0.42833 0.01252 0.06477 0.0
H425 H 0.60259 0.98964 0.97035 0.0
C426 C 0.57098 0.95376 0.98208 0.0
C427 C 0.52619 0.93863 1.00384 0.0
C428 C 0.46456 0.02378 0.04861 0.0
C429 C 0.51648 0.98809 0.01309 0.0
C430 C 0.46023 0.04839 0.05361 0.0
C431 C 0.50494 0.0636 0.03198 0.0
C432 C 0.51377 0.01419 0.02146 0.0
C433 C 0.55612 0.05341 1.00732 0.0
C434 C 0.56617 0.97841 0.98642 0.0
C435 C 0.47436 0.94891 0.02777 0.0
N436 N 0.55875 0.02924 1.00234 0.0
N437 N 0.47136 0.97309 0.03219 0.0
H438 H 0.43368 0.0714 0.54233 0.0
H439 H 0.5984 0.94246 0.49859 0.0
H440 H 0.62066 0.06065 0.47559 0.0
H441 H 0.40636 0.95289 0.55942 0.0
H442 H 0.61009 0.98607 0.49247 0.0
H443 H 0.42094 0.0278 0.54777 0.0
C444 C 0.47102 0.05987 0.52794 0.0
C445 C 0.52831 0.06953 0.50871 0.0
C446 C 0.56563 0.97876 0.50746 0.0
C447 C 0.51552 0.02 0.51578 0.0
C448 C 0.55958 0.95393 0.51144 0.0
C449 C 0.50133 0.94416 0.52927 0.0
C450 C 0.5131 0.99371 0.52159 0.0
C451 C 0.45188 0.95975 0.54501 0.0
C452 C 0.46441 0.03504 0.53154 0.0
C453 C 0.57593 0.05386 0.49107 0.0
N454 N 0.45866 0.98369 0.54057 0.0
N455 N 0.56879 0.02993 0.49534 0.0
H456 H 0.26631 0.31921 0.06588 0.0
H457 H 0.26919 0.18377 0.982 0.0
H458 H 0.08836 0.2832 1.00369 0.0
H459 H 0.4447 0.21781 0.05186 0.0
H460 H 0.20404 0.22031 0.98815 0.0
H461 H 0.33185 0.28249 0.06166 0.0
C462 C 0.24066 0.30346 0.05171 0.0
C463 C 0.17152 0.30433 0.03494 0.0
C464 C 0.25679 0.21993 1.00203 0.0
C465 C 0.24727 0.26209 0.02953 0.0
C466 C 0.29443 0.19905 0.9984 0.0
C467 C 0.3628 0.19764 0.01662 0.0
C468 C 0.28728 0.2398 0.02409 0.0
C469 C 0.3924 0.21812 0.03716 0.0
C470 C 0.27843 0.28249 0.0492 0.0
C471 C 0.14128 0.28332 0.0172 0.0
N472 N 0.35429 0.23836 0.04053 0.0
N473 N 0.17955 0.26309 0.01464 0.0
H474 H 0.58204 0.7843 1.00371 0.0
H475 H 0.94565 0.71749 0.04456 0.0
H476 H 0.76778 0.81927 0.0563 0.0
H477 H 0.76073 0.684 0.98647 0.0
H478 H 0.8817 0.75509 0.05008 0.0
H479 H 0.64619 0.74675 1.00019 0.0
C480 C 0.63592 0.78402 0.01503 0.0
C481 C 0.66947 0.80497 0.03013 0.0
C482 C 0.85538 0.73946 0.03599 0.0
C483 C 0.74352 0.76227 0.02569 0.0
C484 C 0.89205 0.71809 0.03258 0.0
C485 C 0.85869 0.69754 0.01515 0.0
C486 C 0.785 0.74021 0.02189 0.0
C487 C 0.7888 0.69931 1.0004 0.0
C488 C 0.67275 0.76266 0.01272 0.0
C489 C 0.73971 0.8036 0.0441 0.0
N490 N 0.75446 0.72014 1.00424 0.0
N491 N 0.77432 0.78272 0.04138 0.0
H492 H 0.08206 0.72455 0.50122 0.0
H493 H 0.44745 0.78969 0.54685 0.0
H494 H 0.26381 0.68918 0.55944 0.0
H495 H 0.26818 0.82303 0.48024 0.0
H496 H 0.38126 0.75259 0.55286 0.0
H497 H 0.14855 0.76159 0.4968 0.0
C498 C 0.13551 0.72466 0.51364 0.0
C499 C 0.16735 0.70374 0.53052 0.0
C500 C 0.35668 0.76805 0.53674 0.0
C501 C 0.24406 0.7458 0.52501 0.0
C502 C 0.39469 0.78913 0.533 0.0
C503 C 0.36343 0.80951 0.51317 0.0
C504 C 0.28709 0.76746 0.52057 0.0
C505 C 0.29451 0.80783 0.49612 0.0
C506 C 0.1737 0.74571 0.51077 0.0
C507 C 0.23712 0.70485 0.54583 0.0
N508 N 0.25878 0.7873 0.5004 0.0
N509 N 0.27306 0.72543 0.54255 0.0
H510 H 0.76677 0.32383 0.48153 0.0
H511 H 0.76993 0.18831 0.56566 0.0
H512 H 0.94383 0.2908 0.55154 0.0
H513 H 0.58968 0.22376 0.5054 0.0
H514 H 0.83415 0.22532 0.56097 0.0
H515 H 0.70321 0.28694 0.48809 0.0
C516 C 0.79267 0.3087 0.49807 0.0
C517 C 0.86099 0.3105 0.51621 0.0
C518 C 0.78052 0.22513 0.54905 0.0
C519 C 0.78734 0.26794 0.52414 0.0
C520 C 0.74351 0.20399 0.55182 0.0
C521 C 0.67409 0.20289 0.53575 0.0
C522 C 0.74829 0.24545 0.52981 0.0
C523 C 0.64286 0.22382 0.51838 0.0
C524 C 0.75595 0.28762 0.50194 0.0
C525 C 0.89152 0.2902 0.53691 0.0
N526 N 0.68037 0.24421 0.51555 0.0
N527 N 0.85431 0.26976 0.5405 0.0
H528 H 0.16565 0.37905 0.18301 0.0
H529 H 0.87026 0.38496 0.36016 0.0
H530 H 0.94953 0.37402 0.14329 0.0
H531 H 0.08325 0.3718 0.40081 0.0
H532 H 0.89954 0.38639 0.28004 0.0
H533 H 0.13767 0.38197 0.26342 0.0
C534 C 0.11255 0.3787 0.19113 0.0
C535 C 0.06005 0.37599 0.15644 0.0
C536 C 0.93977 0.38322 0.30663 0.0
C537 C 0.02756 0.37951 0.24785 0.0
C538 C 0.923 0.38242 0.3523 0.0
C539 C 0.97408 0.378 0.38723 0.0
C540 C 1.00819 0.37987 0.29597 0.0
C541 C 0.04185 0.37497 0.37503 0.0
C542 C 0.09652 0.38029 0.23693 0.0
C543 C 0.9919 0.37573 0.1689 0.0
N544 N 0.05686 0.37597 0.33057 0.0
N545 N 0.97772 0.37743 0.2134 0.0
H546 H 0.88078 0.66023 0.16761 0.0
H547 H 0.12945 0.60684 0.37309 0.0
H548 H 1.00175 0.5968 0.1541 0.0
H549 H 0.02091 0.67359 0.37901 0.0
H550 H 0.08366 0.60211 0.29316 0.0
H551 H 0.92498 0.66336 0.24785 0.0
C552 C 0.9144 0.64643 0.18221 0.0
C553 C 0.93628 0.62789 0.15485 0.0
C554 C 0.07073 0.61795 0.31183 0.0
C555 C 0.99027 0.63198 0.24554 0.0
C556 C 0.09795 0.62084 0.35711 0.0
C557 C 0.07932 0.6407 0.3825 0.0
C558 C 0.02447 0.635 0.2922 0.0
C559 C 0.03671 0.65803 0.36054 0.0
C560 C 0.94089 0.64845 0.22767 0.0
C561 C 0.98243 0.61102 0.17467 0.0
N562 N 1.01031 0.65468 0.31698 0.0
N563 N 1.00831 0.61353 0.21869 0.0
H564 H 0.86619 0.62364 0.85747 0.0
H565 H 0.16164 0.62903 0.68034 0.0
H566 H 0.07941 0.63645 0.89799 0.0
H567 H 0.94567 0.63468 0.64051 0.0
H568 H 0.1335 0.6262 0.76073 0.0
H569 H 0.89533 0.62229 0.77731 0.0
C570 C 0.91894 0.62613 0.84957 0.0
C571 C 0.97014 0.63042 0.88448 0.0
C572 C 0.09242 0.628 0.73422 0.0
C573 C 1.00408 0.62863 0.7932 0.0
C574 C 0.10853 0.62955 0.68843 0.0
C575 C 0.05614 0.63239 0.65372 0.0
C576 C 0.02347 0.62897 0.7451 0.0
C577 C 0.98797 0.63286 0.66614 0.0
C578 C 0.93563 0.62537 0.80389 0.0
C579 C 0.03792 0.63338 0.87224 0.0
N580 N 0.9737 0.63119 0.71063 0.0
N581 N 0.05285 0.63242 0.82777 0.0
H582 H 0.88488 0.34653 0.66978 0.0
H583 H 0.13169 0.40064 0.87543 0.0
H584 H 1.00153 0.41106 0.65718 0.0
H585 H 0.02335 0.33385 0.88199 0.0
H586 H 0.08567 0.40527 0.79552 0.0
H587 H 0.92917 0.34334 0.75 0.0
C588 C 0.91752 0.36054 0.68458 0.0
C589 C 0.93811 0.37943 0.65748 0.0
C590 C 0.07281 0.38944 0.81432 0.0
C591 C 0.99232 0.3753 0.74815 0.0
C592 C 0.10017 0.38661 0.85959 0.0
C593 C 0.08171 0.36677 0.88516 0.0
C594 C 0.0266 0.37234 0.79485 0.0
C595 C 0.03905 0.3494 0.86339 0.0
C596 C 0.94408 0.3585 0.73004 0.0
C597 C 0.98313 0.39658 0.67755 0.0
N598 N 1.01257 0.35268 0.8198 0.0
N599 N 1.00915 0.39404 0.72154 0.0
H600 H 0.4466 0.87361 0.13879 0.0
H601 H 0.58744 0.87241 0.39998 0.0
H602 H 0.66178 0.87955 0.18079 0.0
H603 H 0.37425 0.88353 0.35716 0.0
H604 H 0.61537 0.87391 0.32048 0.0
H605 H 0.41963 0.87623 0.21826 0.0
C606 C 0.48845 0.87547 0.16479 0.0
C607 C 0.55687 0.87613 0.15299 0.0
C608 C 0.56253 0.87612 0.32835 0.0
C609 C 0.52571 0.87913 0.24473 0.0
C610 C 0.54624 0.87514 0.37383 0.0
C611 C 0.47804 0.87764 0.38539 0.0
C612 C 0.51031 0.87938 0.29373 0.0
C613 C 0.42736 0.88142 0.34989 0.0
C614 C 0.47275 0.87708 0.21026 0.0
C615 C 0.60846 0.87889 0.18828 0.0
N616 N 0.44447 0.88198 0.30561 0.0
N617 N 0.59184 0.88006 0.23265 0.0
H618 H 0.39028 0.16192 0.17159 0.0
H619 H 0.63581 0.10657 0.37671 0.0
H620 H 0.50691 0.09752 0.15789 0.0
H621 H 0.52884 0.17357 0.38384 0.0
H622 H 0.5903 0.1024 0.2966 0.0
H623 H 0.43467 0.16471 0.25183 0.0
C624 C 0.423 0.14786 0.18615 0.0
C625 C 0.44352 0.12912 0.15876 0.0
C626 C 0.57765 0.11818 0.31557 0.0
C627 C 0.49779 0.13278 0.24945 0.0
C628 C 0.60472 0.12074 0.36096 0.0
C629 C 0.58645 0.14051 0.38673 0.0
C630 C 0.53193 0.13547 0.29621 0.0
C631 C 0.54436 0.15807 0.36507 0.0
C632 C 0.44959 0.14967 0.23161 0.0
C633 C 0.48859 0.11189 0.1785 0.0
N634 N 0.51813 0.15504 0.32138 0.0
N635 N 0.51462 0.11419 0.22253 0.0
H636 H 0.37303 0.12238 0.86151 0.0
H637 H 0.66881 0.12847 0.68465 0.0
H638 H 0.58556 0.13662 0.90185 0.0
H639 H 0.4527 0.13257 0.64439 0.0
H640 H 0.64053 0.12571 0.76502 0.0
H641 H 0.40248 0.12054 0.78143 0.0
C642 C 0.42569 0.12507 0.85359 0.0
C643 C 0.47659 0.12992 0.88841 0.0
C644 C 0.59944 0.12714 0.73842 0.0
C645 C 0.51089 0.12758 0.79725 0.0
C646 C 0.61564 0.12864 0.69265 0.0
C647 C 0.56322 0.13106 0.65784 0.0
C648 C 0.5304 0.12774 0.74918 0.0
C649 C 0.49499 0.1311 0.67013 0.0
C650 C 0.44256 0.12403 0.80796 0.0
C651 C 0.54428 0.13313 0.87616 0.0
N652 N 0.48063 0.1295 0.71461 0.0
N653 N 0.55938 0.1319 0.83175 0.0
H654 H 0.41002 0.83968 0.66408 0.0
H655 H 0.62042 0.90492 0.87401 0.0
H656 H 0.4764 0.9128 0.65852 0.0
H657 H 0.54562 0.83266 0.87792 0.0
H658 H 0.57304 0.90811 0.79412 0.0
H659 H 0.45676 0.83739 0.74367 0.0
C660 C 0.43176 0.85557 0.68043 0.0
C661 C 0.43723 0.87669 0.65543 0.0
C662 C 0.5681 0.89142 0.81225 0.0
C663 C 0.49502 0.8739 0.7455 0.0
C664 C 0.59644 0.88946 0.85746 0.0
C665 C 0.5878 0.86838 0.88222 0.0
C666 C 0.53084 0.87216 0.792 0.0
C667 C 0.55407 0.84914 0.85976 0.0
C668 C 0.45986 0.85415 0.72553 0.0
C669 C 0.46916 0.89645 0.67733 0.0
N670 N 0.52648 0.85153 0.8162 0.0
N671 N 0.49737 0.89454 0.721 0.0
loop_
_geom_bond_atom_site_label_1
_geom_bond_atom_site_label_2
_geom_bond_distance
_geom_bond_site_symmetry_2
_ccdc_geom_bond_type
Co0 N5 2.057 1_554 S
Co0 O17 2.021 . S
Co0 O20 2.062 . S
Co0 O24 2.117 1_654 S
Co0 O25 2.020 1_655 S
C1 O21 1.259 . S
C1 O24 1.258 . S
Co2 N11 2.057 . S
Co2 O18 2.117 . S
Co2 O19 2.020 . S
Co2 O21 2.021 1_554 S
Co2 O26 2.062 . S
C3 N5 1.316 1_554 S
C3 N6 1.347 1_554 S
C3 H8 0.931 . S
C4 N5 1.375 . S
C4 C7 1.350 . S
C4 H9 0.930 . S
N5 Co0 2.057 1_556 S
N5 C3 1.316 1_556 S
N5 C4 1.375 . S
N6 C3 1.347 1_556 S
N6 C7 1.373 . S
C7 C4 1.350 . S
C7 N6 1.373 . S
C7 H28 0.931 . S
H8 C3 0.931 . S
H9 C4 0.930 . S
C10 O17 1.259 1_455 S
C10 O18 1.258 . S
N11 Co2 2.057 . S
N11 C12 1.316 1_554 S
N11 C13 1.375 . S
C12 N11 1.316 1_556 S
C12 N14 1.347 1_556 S
C12 H23 0.931 . S
C13 N11 1.375 . S
C13 C15 1.350 . S
C13 H22 0.930 . S
N14 C12 1.347 1_554 S
N14 C15 1.373 . S
C15 C13 1.350 . S
C15 N14 1.373 . S
C15 H29 0.931 . S
C16 O19 1.256 . S
C16 O20 1.255 1_455 S
O17 Co0 2.021 . S
O17 C10 1.259 1_655 S
O18 Co2 2.117 . S
O18 C10 1.258 . S
O19 Co2 2.020 . S
O19 C16 1.256 . S
O20 Co0 2.062 . S
O20 C16 1.255 1_655 S
O21 C1 1.259 . S
O21 Co2 2.021 1_556 S
H22 C13 0.930 . S
H23 C12 0.931 . S
O24 Co0 2.117 1_456 S
O24 C1 1.258 . S
O25 Co0 2.020 1_455 S
O25 C27 1.256 . S
O26 Co2 2.062 . S
O26 C27 1.255 . S
C27 O25 1.256 . S
C27 O26 1.255 . S
H28 C7 0.931 . S
H29 C15 0.931 . S
Co30 N35 2.057 1_554 S
Co30 O47 2.021 . S
Co30 O50 2.062 . S
Co30 O54 2.117 1_554 S
Co30 O55 2.020 . S
C31 O51 1.259 1_655 S
C31 O54 1.258 . S
Co32 N41 2.057 . S
Co32 O48 2.117 1_455 S
Co32 O49 2.020 1_455 S
Co32 O51 2.021 1_554 S
Co32 O56 2.062 . S
C33 N35 1.316 1_554 S
C33 N36 1.347 1_554 S
C33 H38 0.931 . S
C34 N35 1.375 . S
C34 C37 1.350 . S
C34 H39 0.930 . S
N35 Co30 2.057 1_556 S
N35 C33 1.316 1_556 S
N35 C34 1.375 . S
N36 C33 1.347 1_556 S
N36 C37 1.373 . S
C37 C34 1.350 . S
C37 N36 1.373 . S
C37 H58 0.931 . S
H38 C33 0.931 . S
H39 C34 0.930 . S
C40 O47 1.259 . S
C40 O48 1.258 . S
N41 Co32 2.057 . S
N41 C42 1.316 1_554 S
N41 C43 1.375 . S
C42 N41 1.316 1_556 S
C42 N44 1.347 1_556 S
C42 H53 0.931 . S
C43 N41 1.375 . S
C43 C45 1.350 . S
C43 H52 0.930 . S
N44 C42 1.347 1_554 S
N44 C45 1.373 . S
C45 C43 1.350 . S
C45 N44 1.373 . S
C45 H59 0.931 . S
C46 O49 1.256 . S
C46 O50 1.255 . S
O47 Co30 2.021 . S
O47 C40 1.259 . S
O48 Co32 2.117 1_655 S
O48 C40 1.258 . S
O49 Co32 2.020 1_655 S
O49 C46 1.256 . S
O50 Co30 2.062 . S
O50 C46 1.255 . S
O51 C31 1.259 1_455 S
O51 Co32 2.021 1_556 S
H52 C43 0.930 . S
H53 C42 0.931 . S
O54 Co30 2.117 1_556 S
O54 C31 1.258 . S
O55 Co30 2.020 . S
O55 C57 1.256 . S
O56 Co32 2.062 . S
O56 C57 1.255 1_455 S
C57 O55 1.256 . S
C57 O56 1.255 1_655 S
H58 C37 0.931 . S
H59 C45 0.931 . S
Co60 N65 2.057 . S
Co60 O77 2.021 . S
Co60 O80 2.062 . S
Co60 O84 2.117 . S
Co60 O85 2.020 . S
C61 O81 1.259 1_455 S
C61 O84 1.258 . S
Co62 N71 2.057 . S
Co62 O78 2.117 1_655 S
Co62 O79 2.020 1_655 S
Co62 O81 2.021 . S
Co62 O86 2.062 . S
C63 N65 1.316 . S
C63 N66 1.347 . S
C63 H68 0.931 . S
C64 N65 1.375 . S
C64 C67 1.350 . S
C64 H69 0.930 . S
N65 Co60 2.057 . S
N65 C63 1.316 . S
N65 C64 1.375 . S
N66 C63 1.347 . S
N66 C67 1.373 . S
C67 C64 1.350 . S
C67 N66 1.373 . S
C67 H88 0.931 . S
H68 C63 0.931 . S
H69 C64 0.930 . S
C70 O77 1.259 . S
C70 O78 1.258 . S
N71 Co62 2.057 . S
N71 C72 1.316 . S
N71 C73 1.375 . S
C72 N71 1.316 . S
C72 N74 1.347 . S
C72 H83 0.931 . S
C73 N71 1.375 . S
C73 C75 1.350 . S
C73 H82 0.930 . S
N74 C72 1.347 . S
N74 C75 1.373 . S
C75 C73 1.350 . S
C75 N74 1.373 . S
C75 H89 0.931 . S
C76 O79 1.256 . S
C76 O80 1.255 . S
O77 Co60 2.021 . S
O77 C70 1.259 . S
O78 Co62 2.117 1_455 S
O78 C70 1.258 . S
O79 Co62 2.020 1_455 S
O79 C76 1.256 . S
O80 Co60 2.062 . S
O80 C76 1.255 . S
O81 C61 1.259 1_655 S
O81 Co62 2.021 . S
H82 C73 0.930 . S
H83 C72 0.931 . S
O84 Co60 2.117 . S
O84 C61 1.258 . S
O85 Co60 2.020 . S
O85 C87 1.256 . S
O86 Co62 2.062 . S
O86 C87 1.255 1_655 S
C87 O85 1.256 . S
C87 O86 1.255 1_455 S
H88 C67 0.931 . S
H89 C75 0.931 . S
Co90 N95 2.057 . S
Co90 O107 2.021 . S
Co90 O110 2.062 . S
Co90 O114 2.117 1_455 S
Co90 O115 2.020 1_455 S
C91 O111 1.259 . S
C91 O114 1.258 . S
Co92 N101 2.057 . S
Co92 O108 2.117 . S
Co92 O109 2.020 . S
Co92 O111 2.021 . S
Co92 O116 2.062 . S
C93 N95 1.316 . S
C93 N96 1.347 . S
C93 H98 0.931 . S
C94 N95 1.375 . S
C94 C97 1.350 . S
C94 H99 0.930 . S
N95 Co90 2.057 . S
N95 C93 1.316 . S
N95 C94 1.375 . S
N96 C93 1.347 . S
N96 C97 1.373 . S
C97 C94 1.350 . S
C97 N96 1.373 . S
C97 H118 0.931 . S
H98 C93 0.931 . S
H99 C94 0.930 . S
C100 O107 1.259 1_655 S
C100 O108 1.258 . S
N101 Co92 2.057 . S
N101 C102 1.316 . S
N101 C103 1.375 . S
C102 N101 1.316 . S
C102 N104 1.347 . S
C102 H113 0.931 . S
C103 N101 1.375 . S
C103 C105 1.350 . S
C103 H112 0.930 . S
N104 C102 1.347 . S
N104 C105 1.373 . S
C105 C103 1.350 . S
C105 N104 1.373 . S
C105 H119 0.931 . S
C106 O109 1.256 . S
C106 O110 1.255 1_655 S
O107 Co90 2.021 . S
O107 C100 1.259 1_455 S
O108 Co92 2.117 . S
O108 C100 1.258 . S
O109 Co92 2.020 . S
O109 C106 1.256 . S
O110 Co90 2.062 . S
O110 C106 1.255 1_455 S
O111 C91 1.259 . S
O111 Co92 2.021 . S
H112 C103 0.930 . S
H113 C102 0.931 . S
O114 Co90 2.117 1_655 S
O114 C91 1.258 . S
O115 Co90 2.020 1_655 S
O115 C117 1.256 . S
O116 Co92 2.062 . S
O116 C117 1.255 . S
C117 O115 1.256 . S
C117 O116 1.255 . S
H118 C97 0.931 . S
H119 C105 0.931 . S
Co120 N125 2.057 1_554 S
Co120 O137 2.021 . S
Co120 O140 2.062 . S
Co120 O144 2.117 1_554 S
Co120 O145 2.020 . S
C121 O141 1.259 . S
C121 O144 1.258 . S
Co122 N131 2.057 . S
Co122 O138 2.117 . S
Co122 O139 2.020 . S
Co122 O141 2.021 1_554 S
Co122 O146 2.062 . S
C123 N125 1.316 1_554 S
C123 N126 1.347 1_554 S
C123 H128 0.931 . S
C124 N125 1.375 . S
C124 C127 1.350 . S
C124 H129 0.930 . S
N125 Co120 2.057 1_556 S
N125 C123 1.316 1_556 S
N125 C124 1.375 . S
N126 C123 1.347 1_556 S
N126 C127 1.373 . S
C127 C124 1.350 . S
C127 N126 1.373 . S
C127 H148 0.931 . S
H128 C123 0.931 . S
H129 C124 0.930 . S
C130 O137 1.259 . S
C130 O138 1.258 . S
N131 Co122 2.057 . S
N131 C132 1.316 1_554 S
N131 C133 1.375 . S
C132 N131 1.316 1_556 S
C132 N134 1.347 1_556 S
C132 H143 0.931 . S
C133 N131 1.375 . S
C133 C135 1.350 . S
C133 H142 0.930 . S
N134 C132 1.347 1_554 S
N134 C135 1.373 . S
C135 C133 1.350 . S
C135 N134 1.373 . S
C135 H149 0.931 . S
C136 O139 1.256 . S
C136 O140 1.255 . S
O137 Co120 2.021 . S
O137 C130 1.259 . S
O138 Co122 2.117 . S
O138 C130 1.258 . S
O139 Co122 2.020 . S
O139 C136 1.256 . S
O140 Co120 2.062 . S
O140 C136 1.255 . S
O141 C121 1.259 . S
O141 Co122 2.021 1_556 S
H142 C133 0.930 . S
H143 C132 0.931 . S
O144 Co120 2.117 1_556 S
O144 C121 1.258 . S
O145 Co120 2.020 . S
O145 C147 1.256 . S
O146 Co122 2.062 . S
O146 C147 1.255 . S
C147 O145 1.256 . S
C147 O146 1.255 . S
H148 C127 0.931 . S
H149 C135 0.931 . S
Co150 N155 2.057 1_554 S
Co150 O167 2.021 . S
Co150 O170 2.062 . S
Co150 O174 2.117 1_554 S
Co150 O175 2.020 . S
C151 O171 1.259 . S
C151 O174 1.258 . S
Co152 N161 2.057 . S
Co152 O168 2.117 . S
Co152 O169 2.020 . S
Co152 O171 2.021 1_554 S
Co152 O176 2.062 . S
C153 N155 1.316 1_554 S
C153 N156 1.347 1_554 S
C153 H158 0.931 . S
C154 N155 1.375 . S
C154 C157 1.350 . S
C154 H159 0.930 . S
N155 Co150 2.057 1_556 S
N155 C153 1.316 1_556 S
N155 C154 1.375 . S
N156 C153 1.347 1_556 S
N156 C157 1.373 . S
C157 C154 1.350 . S
C157 N156 1.373 . S
C157 H178 0.931 . S
H158 C153 0.931 . S
H159 C154 0.930 . S
C160 O167 1.259 . S
C160 O168 1.258 . S
N161 Co152 2.057 . S
N161 C162 1.316 1_554 S
N161 C163 1.375 . S
C162 N161 1.316 1_556 S
C162 N164 1.347 1_556 S
C162 H173 0.931 . S
C163 N161 1.375 . S
C163 C165 1.350 . S
C163 H172 0.930 . S
N164 C162 1.347 1_554 S
N164 C165 1.373 . S
C165 C163 1.350 . S
C165 N164 1.373 . S
C165 H179 0.931 . S
C166 O169 1.256 . S
C166 O170 1.255 . S
O167 Co150 2.021 . S
O167 C160 1.259 . S
O168 Co152 2.117 . S
O168 C160 1.258 . S
O169 Co152 2.020 . S
O169 C166 1.256 . S
O170 Co150 2.062 . S
O170 C166 1.255 . S
O171 C151 1.259 . S
O171 Co152 2.021 1_556 S
H172 C163 0.930 . S
H173 C162 0.931 . S
O174 Co150 2.117 1_556 S
O174 C151 1.258 . S
O175 Co150 2.020 . S
O175 C177 1.256 . S
O176 Co152 2.062 . S
O176 C177 1.255 . S
C177 O175 1.256 . S
C177 O176 1.255 . S
H178 C157 0.931 . S
H179 C165 0.931 . S
Co180 N185 2.057 . S
Co180 O197 2.021 . S
Co180 O200 2.062 . S
Co180 O204 2.117 . S
Co180 O205 2.020 . S
C181 O201 1.259 . S
C181 O204 1.258 . S
Co182 N191 2.057 . S
Co182 O198 2.117 . S
Co182 O199 2.020 . S
Co182 O201 2.021 . S
Co182 O206 2.062 . S
C183 N185 1.316 . S
C183 N186 1.347 . S
C183 H188 0.931 . S
C184 N185 1.375 . S
C184 C187 1.350 . S
C184 H189 0.930 . S
N185 Co180 2.057 . S
N185 C183 1.316 . S
N185 C184 1.375 . S
N186 C183 1.347 . S
N186 C187 1.373 . S
C187 C184 1.350 . S
C187 N186 1.373 . S
C187 H208 0.931 . S
H188 C183 0.931 . S
H189 C184 0.930 . S
C190 O197 1.259 . S
C190 O198 1.258 . S
N191 Co182 2.057 . S
N191 C192 1.316 . S
N191 C193 1.375 . S
C192 N191 1.316 . S
C192 N194 1.347 . S
C192 H203 0.931 . S
C193 N191 1.375 . S
C193 C195 1.350 . S
C193 H202 0.930 . S
N194 C192 1.347 . S
N194 C195 1.373 . S
C195 C193 1.350 . S
C195 N194 1.373 . S
C195 H209 0.931 . S
C196 O199 1.256 . S
C196 O200 1.255 . S
O197 Co180 2.021 . S
O197 C190 1.259 . S
O198 Co182 2.117 . S
O198 C190 1.258 . S
O199 Co182 2.020 . S
O199 C196 1.256 . S
O200 Co180 2.062 . S
O200 C196 1.255 . S
O201 C181 1.259 . S
O201 Co182 2.021 . S
H202 C193 0.930 . S
H203 C192 0.931 . S
O204 Co180 2.117 . S
O204 C181 1.258 . S
O205 Co180 2.020 . S
O205 C207 1.256 . S
O206 Co182 2.062 . S
O206 C207 1.255 . S
C207 O205 1.256 . S
C207 O206 1.255 . S
H208 C187 0.931 . S
H209 C195 0.931 . S
Co210 N215 2.057 . S
Co210 O227 2.021 . S
Co210 O230 2.062 . S
Co210 O234 2.117 . S
Co210 O235 2.020 . S
C211 O231 1.259 . S
C211 O234 1.258 . S
Co212 N221 2.057 . S
Co212 O228 2.117 . S
Co212 O229 2.020 . S
Co212 O231 2.021 . S
Co212 O236 2.062 . S
C213 N215 1.316 . S
C213 N216 1.347 . S
C213 H218 0.931 . S
C214 N215 1.375 . S
C214 C217 1.350 . S
C214 H219 0.930 . S
N215 Co210 2.057 . S
N215 C213 1.316 . S
N215 C214 1.375 . S
N216 C213 1.347 . S
N216 C217 1.373 . S
C217 C214 1.350 . S
C217 N216 1.373 . S
C217 H238 0.931 . S
H218 C213 0.931 . S
H219 C214 0.930 . S
C220 O227 1.259 . S
C220 O228 1.258 . S
N221 Co212 2.057 . S
N221 C222 1.316 . S
N221 C223 1.375 . S
C222 N221 1.316 . S
C222 N224 1.347 . S
C222 H233 0.931 . S
C223 N221 1.375 . S
C223 C225 1.350 . S
C223 H232 0.930 . S
N224 C222 1.347 . S
N224 C225 1.373 . S
C225 C223 1.350 . S
C225 N224 1.373 . S
C225 H239 0.931 . S
C226 O229 1.256 . S
C226 O230 1.255 . S
O227 Co210 2.021 . S
O227 C220 1.259 . S
O228 Co212 2.117 . S
O228 C220 1.258 . S
O229 Co212 2.020 . S
O229 C226 1.256 . S
O230 Co210 2.062 . S
O230 C226 1.255 . S
O231 C211 1.259 . S
O231 Co212 2.021 . S
H232 C223 0.930 . S
H233 C222 0.931 . S
O234 Co210 2.117 . S
O234 C211 1.258 . S
O235 Co210 2.020 . S
O235 C237 1.256 . S
O236 Co212 2.062 . S
O236 C237 1.255 . S
C237 O235 1.256 . S
C237 O236 1.255 . S
H238 C217 0.931 . S
H239 C225 0.931 . S
H240 C246 0.930 . S
H241 C250 0.930 . S
H242 C255 0.929 . S
H243 C253 0.929 . S
H244 C248 0.929 . S
H245 C254 0.929 . S
C246 H240 0.930 . S
C246 C247 1.367 . S
C246 C254 1.378 . S
C247 C246 1.367 . S
C247 C255 1.433 1_554 S
C248 H244 0.929 . S
C248 C250 1.378 . S
C248 C252 1.350 1_556 S
C249 C252 1.463 . S
C249 C254 1.350 . S
C249 N257 1.427 1_554 S
C250 H241 0.930 . S
C250 C248 1.378 . S
C250 C251 1.367 1_556 S
C251 C250 1.367 1_554 S
C251 C253 1.433 . S
C252 C248 1.350 1_554 S
C252 C249 1.463 . S
C252 N256 1.427 . S
C253 H243 0.929 . S
C253 C251 1.433 . S
C253 N256 1.384 . S
C254 H245 0.929 . S
C254 C246 1.378 . S
C254 C249 1.350 . S
C255 H242 0.929 . S
C255 C247 1.433 1_556 S
C255 N257 1.384 . S
N256 C252 1.427 . S
N256 C253 1.384 . S
N257 C249 1.427 1_556 S
N257 C255 1.384 . S
H258 C264 0.929 1_556 S
H259 C268 0.930 . S
H260 C273 0.929 . S
H261 C271 0.929 1_556 S
H262 C266 0.929 . S
H263 C272 0.929 1_556 S
C264 H258 0.929 1_554 S
C264 C265 1.367 . S
C264 C272 1.378 . S
C265 C264 1.367 . S
C265 C273 1.433 . S
C266 H262 0.929 . S
C266 C268 1.378 . S
C266 C270 1.350 . S
C267 C270 1.463 . S
C267 C272 1.350 . S
C267 N275 1.427 . S
C268 H259 0.930 . S
C268 C266 1.378 . S
C268 C269 1.367 . S
C269 C268 1.367 . S
C269 C271 1.433 . S
C270 C266 1.350 . S
C270 C267 1.463 . S
C270 N274 1.427 . S
C271 H261 0.929 1_554 S
C271 C269 1.433 . S
C271 N274 1.384 . S
C272 H263 0.929 1_554 S
C272 C264 1.378 . S
C272 C267 1.350 . S
C273 H260 0.929 . S
C273 C265 1.433 . S
C273 N275 1.384 . S
N274 C270 1.427 . S
N274 C271 1.384 . S
N275 C267 1.427 . S
N275 C273 1.384 . S
H276 C282 0.930 . S
H277 C286 0.930 . S
H278 C291 0.929 . S
H279 C289 0.929 . S
H280 C284 0.929 . S
H281 C290 0.929 . S
C282 H276 0.930 . S
C282 C283 1.367 . S
C282 C290 1.378 . S
C283 C282 1.367 . S
C283 C291 1.433 . S
C284 H280 0.929 . S
C284 C286 1.378 . S
C284 C288 1.350 . S
C285 C288 1.463 . S
C285 C290 1.350 . S
C285 N293 1.427 . S
C286 H277 0.930 . S
C286 C284 1.378 . S
C286 C287 1.367 . S
C287 C286 1.367 . S
C287 C289 1.433 . S
C288 C284 1.350 . S
C288 C285 1.463 . S
C288 N292 1.427 . S
C289 H279 0.929 . S
C289 C287 1.433 . S
C289 N292 1.384 . S
C290 H281 0.929 . S
C290 C282 1.378 . S
C290 C285 1.350 . S
C291 H278 0.929 . S
C291 C283 1.433 . S
C291 N293 1.384 . S
N292 C288 1.427 . S
N292 C289 1.384 . S
N293 C285 1.427 . S
N293 C291 1.384 . S
H294 C300 0.930 . S
H295 C304 0.930 . S
H296 C309 0.929 . S
H297 C307 0.929 . S
H298 C302 0.929 . S
H299 C308 0.929 . S
C300 H294 0.930 . S
C300 C301 1.367 . S
C300 C308 1.378 . S
C301 C300 1.367 . S
C301 C309 1.433 . S
C302 H298 0.929 . S
C302 C304 1.378 . S
C302 C306 1.350 . S
C303 C306 1.463 . S
C303 C308 1.350 . S
C303 N311 1.427 . S
C304 H295 0.930 . S
C304 C302 1.378 . S
C304 C305 1.367 . S
C305 C304 1.367 . S
C305 C307 1.433 . S
C306 C302 1.350 . S
C306 C303 1.463 . S
C306 N310 1.427 . S
C307 H297 0.929 . S
C307 C305 1.433 . S
C307 N310 1.384 . S
C308 H299 0.929 . S
C308 C300 1.378 . S
C308 C303 1.350 . S
C309 H296 0.929 . S
C309 C301 1.433 . S
C309 N311 1.384 . S
N310 C306 1.427 . S
N310 C307 1.384 . S
N311 C303 1.427 . S
N311 C309 1.384 . S
H312 C318 0.930 . S
H313 C322 0.930 . S
H314 C327 0.929 . S
H315 C325 0.929 . S
H316 C320 0.929 . S
H317 C326 0.929 1_455 S
C318 H312 0.930 . S
C318 C319 1.367 1_556 S
C318 C326 1.378 . S
C319 C318 1.367 1_554 S
C319 C327 1.433 . S
C320 H316 0.929 . S
C320 C322 1.378 . S
C320 C324 1.350 . S
C321 C324 1.463 . S
C321 C326 1.350 1_454 S
C321 N329 1.427 1_455 S
C322 H313 0.930 . S
C322 C320 1.378 . S
C322 C323 1.367 . S
C323 C322 1.367 . S
C323 C325 1.433 1_554 S
C324 C320 1.350 . S
C324 C321 1.463 . S
C324 N328 1.427 1_554 S
C325 H315 0.929 . S
C325 C323 1.433 1_556 S
C325 N328 1.384 . S
C326 H317 0.929 1_655 S
C326 C318 1.378 . S
C326 C321 1.350 1_656 S
C327 H314 0.929 . S
C327 C319 1.433 . S
C327 N329 1.384 . S
N328 C324 1.427 1_556 S
N328 C325 1.384 . S
N329 C321 1.427 1_655 S
N329 C327 1.384 . S
H330 C336 0.930 1_556 S
H331 C340 0.930 . S
H332 C345 0.929 . S
H333 C343 0.929 . S
H334 C338 0.929 . S
H335 C344 0.929 . S
C336 H330 0.930 1_554 S
C336 C337 1.367 . S
C336 C344 1.378 1_455 S
C337 C336 1.367 . S
C337 C345 1.433 . S
C338 H334 0.929 . S
C338 C340 1.378 . S
C338 C342 1.350 . S
C339 C342 1.463 . S
C339 C344 1.350 . S
C339 N347 1.427 1_655 S
C340 H331 0.930 . S
C340 C338 1.378 . S
C340 C341 1.367 . S
C341 C340 1.367 . S
C341 C343 1.433 . S
C342 C338 1.350 . S
C342 C339 1.463 . S
C342 N346 1.427 . S
C343 H333 0.929 . S
C343 C341 1.433 . S
C343 N346 1.384 . S
C344 H335 0.929 . S
C344 C336 1.378 1_655 S
C344 C339 1.350 . S
C345 H332 0.929 . S
C345 C337 1.433 . S
C345 N347 1.384 . S
N346 C342 1.427 . S
N346 C343 1.384 . S
N347 C339 1.427 1_455 S
N347 C345 1.384 . S
H348 C354 0.930 . S
H349 C358 0.930 . S
H350 C363 0.929 . S
H351 C361 0.929 . S
H352 C356 0.934 . S
H353 C362 0.929 . S
C354 H348 0.930 . S
C354 C355 1.367 . S
C354 C362 1.378 . S
C355 C354 1.367 . S
C355 C363 1.433 . S
C356 H352 0.934 . S
C356 C358 1.378 . S
C356 C360 1.350 1_655 S
C357 C360 1.463 . S
C357 C362 1.350 . S
C357 N365 1.427 . S
C358 H349 0.930 . S
C358 C356 1.378 . S
C358 C359 1.367 . S
C359 C358 1.367 . S
C359 C361 1.433 . S
C360 C356 1.350 1_455 S
C360 C357 1.463 . S
C360 N364 1.427 . S
C361 H351 0.929 . S
C361 C359 1.433 . S
C361 N364 1.384 1_655 S
C362 H353 0.929 . S
C362 C354 1.378 . S
C362 C357 1.350 . S
C363 H350 0.929 . S
C363 C355 1.433 . S
C363 N365 1.384 . S
N364 C360 1.427 . S
N364 C361 1.384 1_455 S
N365 C357 1.427 . S
N365 C363 1.384 . S
H366 C372 0.930 . S
H367 C376 0.930 . S
H368 C381 0.929 . S
H369 C379 0.929 . S
H370 C374 0.929 1_655 S
H371 C380 0.929 . S
C372 H366 0.930 . S
C372 C373 1.367 . S
C372 C380 1.378 . S
C373 C372 1.367 . S
C373 C381 1.433 . S
C374 H370 0.929 1_455 S
C374 C376 1.378 . S
C374 C378 1.350 1_455 S
C375 C378 1.463 . S
C375 C380 1.350 . S
C375 N383 1.427 . S
C376 H367 0.930 . S
C376 C374 1.378 . S
C376 C377 1.367 . S
C377 C376 1.367 . S
C377 C379 1.433 . S
C378 C374 1.350 1_655 S
C378 C375 1.463 . S
C378 N382 1.427 1_655 S
C379 H369 0.929 . S
C379 C377 1.433 . S
C379 N382 1.384 . S
C380 H371 0.929 . S
C380 C372 1.378 . S
C380 C375 1.350 . S
C381 H368 0.929 . S
C381 C373 1.433 . S
C381 N383 1.384 . S
N382 C378 1.427 1_455 S
N382 C379 1.384 . S
N383 C375 1.427 . S
N383 C381 1.384 . S
H384 C390 0.930 . S
H385 C394 0.930 . S
H386 C399 0.929 . S
H387 C397 0.929 . S
H388 C392 0.929 . S
H389 C398 0.929 . S
C390 H384 0.930 . S
C390 C391 1.367 1_456 S
C390 C398 1.378 . S
C391 C390 1.367 1_654 S
C391 C399 1.433 . S
C392 H388 0.929 . S
C392 C394 1.378 . S
C392 C396 1.350 1_655 S
C393 C396 1.463 1_655 S
C393 C398 1.350 1_654 S
C393 N401 1.427 . S
C394 H385 0.930 . S
C394 C392 1.378 . S
C394 C395 1.367 1_655 S
C395 C394 1.367 1_455 S
C395 C397 1.433 1_554 S
C396 C392 1.350 1_455 S
C396 C393 1.463 1_455 S
C396 N400 1.427 1_554 S
C397 H387 0.929 . S
C397 C395 1.433 1_556 S
C397 N400 1.384 . S
C398 H389 0.929 . S
C398 C390 1.378 . S
C398 C393 1.350 1_456 S
C399 H386 0.929 . S
C399 C391 1.433 . S
C399 N401 1.384 . S
N400 C396 1.427 1_556 S
N400 C397 1.384 . S
N401 C393 1.427 . S
N401 C399 1.384 . S
H402 C408 0.932 . S
H403 C412 0.932 . S
H404 C417 0.929 . S
H405 C415 0.929 . S
H406 C410 0.929 . S
H407 C416 0.929 . S
C408 H402 0.932 . S
C408 C409 1.367 . S
C408 C416 1.378 1_655 S
C409 C408 1.367 . S
C409 C417 1.433 . S
C410 H406 0.929 . S
C410 C412 1.378 1_655 S
C410 C414 1.350 1_655 S
C411 C414 1.463 1_655 S
C411 C416 1.350 1_655 S
C411 N419 1.427 . S
C412 H403 0.932 . S
C412 C410 1.378 1_455 S
C412 C413 1.367 . S
C413 C412 1.367 . S
C413 C415 1.433 . S
C414 C410 1.350 1_455 S
C414 C411 1.463 1_455 S
C414 N418 1.427 . S
C415 H405 0.929 . S
C415 C413 1.433 . S
C415 N418 1.384 . S
C416 H407 0.929 . S
C416 C408 1.378 1_455 S
C416 C411 1.350 1_455 S
C417 H404 0.929 . S
C417 C409 1.433 . S
C417 N419 1.384 . S
N418 C414 1.427 . S
N418 C415 1.384 . S
N419 C411 1.427 . S
N419 C417 1.384 . S
H420 C426 0.930 . S
H421 C430 0.930 . S
H422 C435 0.929 . S
H423 C433 0.929 . S
H424 C428 0.929 . S
H425 C434 0.929 . S
C426 H420 0.930 . S
C426 C427 1.367 1_556 S
C426 C434 1.378 . S
C427 C426 1.367 1_554 S
C427 C435 1.433 . S
C428 H424 0.929 . S
C428 C430 1.378 . S
C428 C432 1.350 . S
C429 C432 1.463 1_565 S
C429 C434 1.350 1_554 S
C429 N437 1.427 . S
C430 H421 0.930 . S
C430 C428 1.378 . S
C430 C431 1.367 . S
C431 C430 1.367 . S
C431 C433 1.433 1_554 S
C432 C428 1.350 . S
C432 C429 1.463 1_545 S
C432 N436 1.427 1_554 S
C433 H423 0.929 . S
C433 C431 1.433 1_556 S
C433 N436 1.384 . S
C434 H425 0.929 . S
C434 C426 1.378 . S
C434 C429 1.350 1_556 S
C435 H422 0.929 . S
C435 C427 1.433 . S
C435 N437 1.384 . S
N436 C432 1.427 1_556 S
N436 C433 1.384 . S
N437 C429 1.427 . S
N437 C435 1.384 . S
H438 C444 0.930 . S
H439 C448 0.930 . S
H440 C453 0.929 . S
H441 C451 0.929 . S
H442 C446 0.929 . S
H443 C452 0.929 . S
C444 H438 0.930 . S
C444 C445 1.367 . S
C444 C452 1.378 . S
C445 C444 1.367 . S
C445 C453 1.433 . S
C446 H442 0.929 . S
C446 C448 1.378 . S
C446 C450 1.350 . S
C447 C450 1.463 1_545 S
C447 C452 1.350 . S
C447 N455 1.427 . S
C448 H439 0.930 . S
C448 C446 1.378 . S
C448 C449 1.367 . S
C449 C448 1.367 . S
C449 C451 1.433 . S
C450 C446 1.350 . S
C450 C447 1.463 1_565 S
C450 N454 1.427 . S
C451 H441 0.929 . S
C451 C449 1.433 . S
C451 N454 1.384 . S
C452 H443 0.929 . S
C452 C444 1.378 . S
C452 C447 1.350 . S
C453 H440 0.929 . S
C453 C445 1.433 . S
C453 N455 1.384 . S
N454 C450 1.427 . S
N454 C451 1.384 . S
N455 C447 1.427 . S
N455 C453 1.384 . S
H456 C462 0.930 . S
H457 C466 0.930 . S
H458 C471 0.929 . S
H459 C469 0.929 . S
H460 C464 0.929 . S
H461 C470 0.929 . S
C462 H456 0.930 . S
C462 C463 1.367 . S
C462 C470 1.378 . S
C463 C462 1.367 . S
C463 C471 1.433 1_554 S
C464 H460 0.929 . S
C464 C466 1.378 . S
C464 C468 1.350 1_556 S
C465 C468 1.463 . S
C465 C470 1.350 . S
C465 N473 1.427 1_554 S
C466 H457 0.930 . S
C466 C464 1.378 . S
C466 C467 1.367 1_556 S
C467 C466 1.367 1_554 S
C467 C469 1.433 . S
C468 C464 1.350 1_554 S
C468 C465 1.463 . S
C468 N472 1.427 . S
C469 H459 0.929 . S
C469 C467 1.433 . S
C469 N472 1.384 . S
C470 H461 0.929 . S
C470 C462 1.378 . S
C470 C465 1.350 . S
C471 H458 0.929 . S
C471 C463 1.433 1_556 S
C471 N473 1.384 . S
N472 C468 1.427 . S
N472 C469 1.384 . S
N473 C465 1.427 1_556 S
N473 C471 1.384 . S
H474 C480 0.930 . S
H475 C484 0.930 . S
H476 C489 0.929 . S
H477 C487 0.929 . S
H478 C482 0.929 . S
H479 C488 0.929 . S
C480 H474 0.930 . S
C480 C481 1.367 . S
C480 C488 1.378 . S
C481 C480 1.367 . S
C481 C489 1.433 . S
C482 H478 0.929 . S
C482 C484 1.378 . S
C482 C486 1.350 . S
C483 C486 1.463 . S
C483 C488 1.350 . S
C483 N491 1.427 . S
C484 H475 0.930 . S
C484 C482 1.378 . S
C484 C485 1.367 . S
C485 C484 1.367 . S
C485 C487 1.433 . S
C486 C482 1.350 . S
C486 C483 1.463 . S
C486 N490 1.427 . S
C487 H477 0.929 . S
C487 C485 1.433 . S
C487 N490 1.384 . S
C488 H479 0.929 . S
C488 C480 1.378 . S
C488 C483 1.350 . S
C489 H476 0.929 . S
C489 C481 1.433 . S
C489 N491 1.384 . S
N490 C486 1.427 . S
N490 C487 1.384 . S
N491 C483 1.427 . S
N491 C489 1.384 . S
H492 C498 0.930 . S
H493 C502 0.930 . S
H494 C507 0.929 . S
H495 C505 0.929 . S
H496 C500 0.929 . S
H497 C506 0.929 . S
C498 H492 0.930 . S
C498 C499 1.367 . S
C498 C506 1.378 . S
C499 C498 1.367 . S
C499 C507 1.433 . S
C500 H496 0.929 . S
C500 C502 1.378 . S
C500 C504 1.350 . S
C501 C504 1.463 . S
C501 C506 1.350 . S
C501 N509 1.427 . S
C502 H493 0.930 . S
C502 C500 1.378 . S
C502 C503 1.367 . S
C503 C502 1.367 . S
C503 C505 1.433 . S
C504 C500 1.350 . S
C504 C501 1.463 . S
C504 N508 1.427 . S
C505 H495 0.929 . S
C505 C503 1.433 . S
C505 N508 1.384 . S
C506 H497 0.929 . S
C506 C498 1.378 . S
C506 C501 1.350 . S
C507 H494 0.929 . S
C507 C499 1.433 . S
C507 N509 1.384 . S
N508 C504 1.427 . S
N508 C505 1.384 . S
N509 C501 1.427 . S
N509 C507 1.384 . S
H510 C516 0.930 . S
H511 C520 0.930 . S
H512 C525 0.929 . S
H513 C523 0.929 . S
H514 C518 0.929 . S
H515 C524 0.929 . S
C516 H510 0.930 . S
C516 C517 1.367 . S
C516 C524 1.378 . S
C517 C516 1.367 . S
C517 C525 1.433 . S
C518 H514 0.929 . S
C518 C520 1.378 . S
C518 C522 1.350 . S
C519 C522 1.463 . S
C519 C524 1.350 . S
C519 N527 1.427 . S
C520 H511 0.930 . S
C520 C518 1.378 . S
C520 C521 1.367 . S
C521 C520 1.367 . S
C521 C523 1.433 . S
C522 C518 1.350 . S
C522 C519 1.463 . S
C522 N526 1.427 . S
C523 H513 0.929 . S
C523 C521 1.433 . S
C523 N526 1.384 . S
C524 H515 0.929 . S
C524 C516 1.378 . S
C524 C519 1.350 . S
C525 H512 0.929 . S
C525 C517 1.433 . S
C525 N527 1.384 . S
N526 C522 1.427 . S
N526 C523 1.384 . S
N527 C519 1.427 . S
N527 C525 1.384 . S
H528 C534 0.930 . S
H529 C538 0.930 . S
H530 C543 0.929 . S
H531 C541 0.929 . S
H532 C536 0.929 . S
H533 C542 0.929 . S
C534 H528 0.930 . S
C534 C535 1.367 . S
C534 C542 1.378 . S
C535 C534 1.367 . S
C535 C543 1.433 . S
C536 H532 0.929 . S
C536 C538 1.378 . S
C536 C540 1.350 . S
C537 C540 1.463 1_455 S
C537 C542 1.350 . S
C537 N545 1.427 . S
C538 H529 0.930 . S
C538 C536 1.378 . S
C538 C539 1.367 . S
C539 C538 1.367 . S
C539 C541 1.433 . S
C540 C536 1.350 . S
C540 C537 1.463 1_655 S
C540 N544 1.427 . S
C541 H531 0.929 . S
C541 C539 1.433 . S
C541 N544 1.384 . S
C542 H533 0.929 . S
C542 C534 1.378 . S
C542 C537 1.350 . S
C543 H530 0.929 . S
C543 C535 1.433 . S
C543 N545 1.384 . S
N544 C540 1.427 . S
N544 C541 1.384 . S
N545 C537 1.427 . S
N545 C543 1.384 . S
H546 C552 0.930 . S
H547 C556 0.930 . S
H548 C561 0.929 . S
H549 C559 0.929 . S
H550 C554 0.929 . S
H551 C560 0.929 . S
C552 H546 0.930 . S
C552 C553 1.367 . S
C552 C560 1.378 . S
C553 C552 1.367 . S
C553 C561 1.433 1_655 S
C554 H550 0.929 . S
C554 C556 1.378 . S
C554 C558 1.350 . S
C555 C558 1.463 1_655 S
C555 C560 1.350 . S
C555 N563 1.427 1_655 S
C556 H547 0.930 . S
C556 C554 1.378 . S
C556 C557 1.367 . S
C557 C556 1.367 . S
C557 C559 1.433 1_455 S
C558 C554 1.350 . S
C558 C555 1.463 1_455 S
C558 N562 1.427 1_455 S
C559 H549 0.929 . S
C559 C557 1.433 1_655 S
C559 N562 1.384 . S
C560 H551 0.929 . S
C560 C552 1.378 . S
C560 C555 1.350 . S
C561 H548 0.929 . S
C561 C553 1.433 1_455 S
C561 N563 1.384 . S
N562 C558 1.427 1_655 S
N562 C559 1.384 . S
N563 C555 1.427 1_455 S
N563 C561 1.384 . S
H564 C570 0.930 . S
H565 C574 0.930 . S
H566 C579 0.929 . S
H567 C577 0.929 . S
H568 C572 0.929 . S
H569 C578 0.929 . S
C570 H564 0.930 . S
C570 C571 1.367 . S
C570 C578 1.378 . S
C571 C570 1.367 . S
C571 C579 1.433 1_655 S
C572 H568 0.929 . S
C572 C574 1.378 . S
C572 C576 1.350 . S
C573 C576 1.463 1_655 S
C573 C578 1.350 . S
C573 N581 1.427 1_655 S
C574 H565 0.930 . S
C574 C572 1.378 . S
C574 C575 1.367 . S
C575 C574 1.367 . S
C575 C577 1.433 1_455 S
C576 C572 1.350 . S
C576 C573 1.463 1_455 S
C576 N580 1.427 1_455 S
C577 H567 0.929 . S
C577 C575 1.433 1_655 S
C577 N580 1.384 . S
C578 H569 0.929 . S
C578 C570 1.378 . S
C578 C573 1.350 . S
C579 H566 0.929 . S
C579 C571 1.433 1_455 S
C579 N581 1.384 . S
N580 C576 1.427 1_655 S
N580 C577 1.384 . S
N581 C573 1.427 1_455 S
N581 C579 1.384 . S
H582 C588 0.930 . S
H583 C592 0.930 . S
H584 C597 0.929 . S
H585 C595 0.929 . S
H586 C590 0.929 . S
H587 C596 0.929 . S
C588 H582 0.930 . S
C588 C589 1.367 . S
C588 C596 1.378 . S
C589 C588 1.367 . S
C589 C597 1.433 . S
C590 H586 0.929 . S
C590 C592 1.378 . S
C590 C594 1.350 . S
C591 C594 1.463 1_655 S
C591 C596 1.350 . S
C591 N599 1.427 . S
C592 H583 0.930 . S
C592 C590 1.378 . S
C592 C593 1.367 . S
C593 C592 1.367 . S
C593 C595 1.433 . S
C594 C590 1.350 . S
C594 C591 1.463 1_455 S
C594 N598 1.427 . S
C595 H585 0.929 . S
C595 C593 1.433 . S
C595 N598 1.384 . S
C596 H587 0.929 . S
C596 C588 1.378 . S
C596 C591 1.350 . S
C597 H584 0.929 . S
C597 C589 1.433 . S
C597 N599 1.384 . S
N598 C594 1.427 . S
N598 C595 1.384 . S
N599 C591 1.427 . S
N599 C597 1.384 . S
H600 C606 0.930 . S
H601 C610 0.930 . S
H602 C615 0.929 . S
H603 C613 0.929 . S
H604 C608 0.929 . S
H605 C614 0.929 . S
C606 H600 0.930 . S
C606 C607 1.367 . S
C606 C614 1.378 . S
C607 C606 1.367 . S
C607 C615 1.433 . S
C608 H604 0.929 . S
C608 C610 1.378 . S
C608 C612 1.350 . S
C609 C612 1.463 . S
C609 C614 1.350 . S
C609 N617 1.427 . S
C610 H601 0.930 . S
C610 C608 1.378 . S
C610 C611 1.367 . S
C611 C610 1.367 . S
C611 C613 1.433 . S
C612 C608 1.350 . S
C612 C609 1.463 . S
C612 N616 1.427 . S
C613 H603 0.929 . S
C613 C611 1.433 . S
C613 N616 1.384 . S
C614 H605 0.929 . S
C614 C606 1.378 . S
C614 C609 1.350 . S
C615 H602 0.929 . S
C615 C607 1.433 . S
C615 N617 1.384 . S
N616 C612 1.427 . S
N616 C613 1.384 . S
N617 C609 1.427 . S
N617 C615 1.384 . S
H618 C624 0.930 . S
H619 C628 0.930 . S
H620 C633 0.929 . S
H621 C631 0.929 . S
H622 C626 0.929 . S
H623 C632 0.929 . S
C624 H618 0.930 . S
C624 C625 1.367 . S
C624 C632 1.378 . S
C625 C624 1.367 . S
C625 C633 1.433 . S
C626 H622 0.929 . S
C626 C628 1.378 . S
C626 C630 1.350 . S
C627 C630 1.463 . S
C627 C632 1.350 . S
C627 N635 1.427 . S
C628 H619 0.930 . S
C628 C626 1.378 . S
C628 C629 1.367 . S
C629 C628 1.367 . S
C629 C631 1.433 . S
C630 C626 1.350 . S
C630 C627 1.463 . S
C630 N634 1.427 . S
C631 H621 0.929 . S
C631 C629 1.433 . S
C631 N634 1.384 . S
C632 H623 0.929 . S
C632 C624 1.378 . S
C632 C627 1.350 . S
C633 H620 0.929 . S
C633 C625 1.433 . S
C633 N635 1.384 . S
N634 C630 1.427 . S
N634 C631 1.384 . S
N635 C627 1.427 . S
N635 C633 1.384 . S
H636 C642 0.930 . S
H637 C646 0.930 . S
H638 C651 0.929 . S
H639 C649 0.929 . S
H640 C644 0.929 . S
H641 C650 0.929 . S
C642 H636 0.930 . S
C642 C643 1.367 . S
C642 C650 1.378 . S
C643 C642 1.367 . S
C643 C651 1.433 . S
C644 H640 0.929 . S
C644 C646 1.378 . S
C644 C648 1.350 . S
C645 C648 1.463 . S
C645 C650 1.350 . S
C645 N653 1.427 . S
C646 H637 0.930 . S
C646 C644 1.378 . S
C646 C647 1.367 . S
C647 C646 1.367 . S
C647 C649 1.433 . S
C648 C644 1.350 . S
C648 C645 1.463 . S
C648 N652 1.427 . S
C649 H639 0.929 . S
C649 C647 1.433 . S
C649 N652 1.384 . S
C650 H641 0.929 . S
C650 C642 1.378 . S
C650 C645 1.350 . S
C651 H638 0.929 . S
C651 C643 1.433 . S
C651 N653 1.384 . S
N652 C648 1.427 . S
N652 C649 1.384 . S
N653 C645 1.427 . S
N653 C651 1.384 . S
H654 C660 0.930 . S
H655 C664 0.930 . S
H656 C669 0.929 . S
H657 C667 0.929 . S
H658 C662 0.929 . S
H659 C668 0.929 . S
C660 H654 0.930 . S
C660 C661 1.367 . S
C660 C668 1.378 . S
C661 C660 1.367 . S
C661 C669 1.433 . S
C662 H658 0.929 . S
C662 C664 1.378 . S
C662 C666 1.350 . S
C663 C666 1.463 . S
C663 C668 1.350 . S
C663 N671 1.427 . S
C664 H655 0.930 . S
C664 C662 1.378 . S
C664 C665 1.367 . S
C665 C664 1.367 . S
C665 C667 1.433 . S
C666 C662 1.350 . S
C666 C663 1.463 . S
C666 N670 1.427 . S
C667 H657 0.929 . S
C667 C665 1.433 . S
C667 N670 1.384 . S
C668 H659 0.929 . S
C668 C660 1.378 . S
C668 C663 1.350 . S
C669 H656 0.929 . S
C669 C661 1.433 . S
C669 N671 1.384 . S
N670 C666 1.427 . S
N670 C667 1.384 . S
N671 C663 1.427 . S
N671 C669 1.384 . S
C247 N14 1.122 . S
C251 N6 1.122 1_554 S
C265 N44 1.126 . S
C269 N36 1.126 1_554 S
C283 N74 1.131 . S
C287 N66 1.131 . S
C301 N104 1.119 . S
C305 N96 1.119 . S
C319 N134 1.131 . S
C323 N126 1.131 1_554 S
C337 N156 1.124 1_554 S
C341 N164 1.124 . S
C355 N194 1.128 . S
C359 N186 1.128 . S
C373 N216 1.131 . S
C377 N224 1.131 . S
C391 C57 1.591 . S
C395 C16 1.591 . S
C409 C106 1.590 . S
C413 C87 1.590 . S
C427 C136 1.588 . S
C431 C177 1.588 . S
C445 C207 1.590 . S
C449 C226 1.590 . S
C463 C27 1.764 . S
C467 C166 1.764 . S
C481 C147 1.770 . S
C485 C46 1.770 . S
C499 C76 1.764 . S
C503 C237 1.764 . S
C517 C117 1.764 . S
C521 C196 1.764 . S
C535 C10 1.650 . S
C539 C100 1.653 . S
C553 C40 1.594 . S
C557 C70 1.594 . S
C571 C31 1.656 . S
C575 C61 1.654 . S
C589 C91 1.593 . S
C593 C1 1.590 . S
C607 C130 1.650 . S
C611 C220 1.647 . S
C625 C160 1.594 . S
C629 C190 1.591 . S
C643 C151 1.656 . S
C647 C181 1.655 . S
C661 C211 1.592 . S
C665 C121 1.590 . S
