# Generated by pormake.
# Topology ukl, (4)-cn, num edge types: 1
# Building blocks:
#     Node 0, Type 0, BuildingBlock: KOZSID_clean_sbu_0, # of connection points: 4
#     Node 1, Type 0, BuildingBlock: KOZSID_clean_sbu_0, # of connection points: 4
#     Node 2, Type 0, BuildingBlock: KOZSID_clean_sbu_0, # of connection points: 4
#     Node 3, Type 0, BuildingBlock: KOZSID_clean_sbu_0, # of connection points: 4
#     Node 4, Type 0, BuildingBlock: KOZSID_clean_sbu_0, # of connection points: 4
#     Node 5, Type 0, BuildingBlock: KOZSID_clean_sbu_0, # of connection points: 4
#     Node 6, Type 0, BuildingBlock: KOZSID_clean_sbu_0, # of connection points: 4
#     Node 7, Type 0, BuildingBlock: KOZSID_clean_sbu_0, # of connection points: 4
#     Node 8, Type 0, BuildingBlock: KOZSID_clean_sbu_0, # of connection points: 4
#     Node 9, Type 0, BuildingBlock: KOZSID_clean_sbu_0, # of connection points: 4
#     Node 10, Type 0, BuildingBlock: KOZSID_clean_sbu_0, # of connection points: 4
#     Node 11, Type 0, BuildingBlock: KOZSID_clean_sbu_0, # of connection points: 4
#     Node 12, Type 0, BuildingBlock: KOZSID_clean_sbu_0, # of connection points: 4
#     Node 13, Type 0, BuildingBlock: KOZSID_clean_sbu_0, # of connection points: 4
#     Node 14, Type 0, BuildingBlock: KOZSID_clean_sbu_0, # of connection points: 4
#     Node 15, Type 0, BuildingBlock: KOZSID_clean_sbu_0, # of connection points: 4
#     Edge 16, Type (0, 0), BuildingBlock: UVAHIK_clean_linker_0, # of connection points: 2
#     Edge 17, Type (0, 0), BuildingBlock: UVAHIK_clean_linker_0, # of connection points: 2
#     Edge 18, Type (0, 0), BuildingBlock: UVAHIK_clean_linker_0, # of connection points: 2
#     Edge 19, Type (0, 0), BuildingBlock: UVAHIK_clean_linker_0, # of connection points: 2
#     Edge 20, Type (0, 0), BuildingBlock: UVAHIK_clean_linker_0, # of connection points: 2
#     Edge 21, Type (0, 0), BuildingBlock: UVAHIK_clean_linker_0, # of connection points: 2
#     Edge 22, Type (0, 0), BuildingBlock: UVAHIK_clean_linker_0, # of connection points: 2
#     Edge 23, Type (0, 0), BuildingBlock: UVAHIK_clean_linker_0, # of connection points: 2
#     Edge 24, Type (0, 0), BuildingBlock: UVAHIK_clean_linker_0, # of connection points: 2
#     Edge 25, Type (0, 0), BuildingBlock: UVAHIK_clean_linker_0, # of connection points: 2
#     Edge 26, Type (0, 0), BuildingBlock: UVAHIK_clean_linker_0, # of connection points: 2
#     Edge 27, Type (0, 0), BuildingBlock: UVAHIK_clean_linker_0, # of connection points: 2
#     Edge 28, Type (0, 0), BuildingBlock: UVAHIK_clean_linker_0, # of connection points: 2
#     Edge 29, Type (0, 0), BuildingBlock: UVAHIK_clean_linker_0, # of connection points: 2
#     Edge 30, Type (0, 0), BuildingBlock: UVAHIK_clean_linker_0, # of connection points: 2
#     Edge 31, Type (0, 0), BuildingBlock: UVAHIK_clean_linker_0, # of connection points: 2
#     Edge 32, Type (0, 0), BuildingBlock: UVAHIK_clean_linker_0, # of connection points: 2
#     Edge 33, Type (0, 0), BuildingBlock: UVAHIK_clean_linker_0, # of connection points: 2
#     Edge 34, Type (0, 0), BuildingBlock: UVAHIK_clean_linker_0, # of connection points: 2
#     Edge 35, Type (0, 0), BuildingBlock: UVAHIK_clean_linker_0, # of connection points: 2
#     Edge 36, Type (0, 0), BuildingBlock: UVAHIK_clean_linker_0, # of connection points: 2
#     Edge 37, Type (0, 0), BuildingBlock: UVAHIK_clean_linker_0, # of connection points: 2
#     Edge 38, Type (0, 0), BuildingBlock: UVAHIK_clean_linker_0, # of connection points: 2
#     Edge 39, Type (0, 0), BuildingBlock: UVAHIK_clean_linker_0, # of connection points: 2
#     Edge 40, Type (0, 0), BuildingBlock: UVAHIK_clean_linker_0, # of connection points: 2
#     Edge 41, Type (0, 0), BuildingBlock: UVAHIK_clean_linker_0, # of connection points: 2
#     Edge 42, Type (0, 0), BuildingBlock: UVAHIK_clean_linker_0, # of connection points: 2
#     Edge 43, Type (0, 0), BuildingBlock: UVAHIK_clean_linker_0, # of connection points: 2
#     Edge 44, Type (0, 0), BuildingBlock: UVAHIK_clean_linker_0, # of connection points: 2
#     Edge 45, Type (0, 0), BuildingBlock: UVAHIK_clean_linker_0, # of connection points: 2
#     Edge 46, Type (0, 0), BuildingBlock: UVAHIK_clean_linker_0, # of connection points: 2
#     Edge 47, Type (0, 0), BuildingBlock: UVAHIK_clean_linker_0, # of connection points: 2
# Relax obj value: 0.079
# Max RMSD: 0.106
# Mean RMSD: 0.083
data_MOF--net-ukl--node1-KOZSID_clean_sbu_0--edge1-UVAHIK_clean_linker_0
_symmetry_space_group_name_H-M    P1
_symmetry_Int_Tables_number       1
_symmetry_cell_setting            triclinic
loop_
_symmetry_equiv_pos_as_xyz
'x, y, z'
_cell_length_a     46.256197
_cell_length_b     47.776155
_cell_length_c     35.745809
_cell_angle_alpha  90.01853
_cell_angle_beta   89.984588
_cell_angle_gamma 93.919484
loop_
_atom_site_label
_atom_site_type_symbol
_atom_site_fract_x
_atom_site_fract_y
_atom_site_fract_z
_atom_type_partial_charge
C0 C 0.37612 0.1428 0.03262 0.0
C1 C 0.38394 0.15309 0.99742 0.0
C2 C 0.36353 0.14219 0.97298 0.0
C3 C 0.34461 0.1258 0.99445 0.0
N4 N 0.35156 0.12569 0.0312 0.0
Co5 Co 0.33094 0.10321 0.07169 0.0
N6 N 0.30003 0.08813 0.03605 0.0
C7 C 0.29874 0.09317 0.99887 0.0
C8 C 0.27349 0.08277 0.98246 0.0
C9 C 0.25733 0.07089 0.01094 0.0
C10 C 0.27384 0.07447 0.04327 0.0
N11 N 0.31035 0.08034 0.11191 0.0
C12 C 0.28382 0.06632 0.11158 0.0
C13 C 0.27738 0.05358 0.14574 0.0
C14 C 0.30015 0.06069 0.16892 0.0
C15 C 0.31922 0.0771 0.14759 0.0
N16 N 0.36106 0.11871 0.10782 0.0
C17 C 0.36263 0.11294 0.1448 0.0
C18 C 0.38532 0.12724 0.16261 0.0
C19 C 0.39919 0.143 0.13537 0.0
C20 C 0.3842 0.13718 0.10229 0.0
N21 N 0.30724 0.13542 0.08324 0.0
C22 C 0.28118 0.18597 0.0995 0.0
C23 C 0.28923 0.16808 0.12814 0.0
C24 C 0.30209 0.14312 0.11947 0.0
C25 C 0.28496 0.17719 0.06256 0.0
C26 C 0.29762 0.15195 0.05513 0.0
N27 N 0.35608 0.07161 0.0599 0.0
C28 C 0.39681 0.04523 0.07856 0.0
C29 C 0.40422 0.04021 0.04128 0.0
C30 C 0.38509 0.04868 0.01376 0.0
C31 C 0.3612 0.06385 0.02363 0.0
C32 C 0.37274 0.06043 0.08714 0.0
H33 H 0.34789 0.07001 0.00121 0.0
H34 H 0.36876 0.06374 0.11606 0.0
H35 H 0.30839 0.13068 0.14252 0.0
H36 H 0.3 0.14647 0.02639 0.0
C37 C 0.31993 0.11059 0.98107 0.0
C38 C 0.39313 0.14926 0.06628 0.0
C39 C 0.26323 0.06613 0.08055 0.0
C40 C 0.34313 0.09318 0.16164 0.0
H41 H 0.40264 0.16682 0.99001 0.0
H42 H 0.36268 0.14567 0.94309 0.0
H43 H 0.26691 0.08498 0.9536 0.0
H44 H 0.23544 0.06171 0.00816 0.0
H45 H 0.25771 0.0414 0.15351 0.0
H46 H 0.3018 0.05585 0.1984 0.0
H47 H 0.39127 0.1261 0.19183 0.0
H48 H 0.41834 0.15698 0.13938 0.0
H49 H 0.28663 0.17377 0.15722 0.0
H50 H 0.27834 0.18983 0.03935 0.0
H51 H 0.40988 0.03797 0.10125 0.0
H52 H 0.38916 0.04487 0.98443 0.0
C53 C 0.7232 0.6256 0.32347 0.0
C54 C 0.73762 0.63896 0.35317 0.0
C55 C 0.72738 0.62582 0.38498 0.0
C56 C 0.70735 0.60527 0.3729 0.0
N57 N 0.70495 0.60389 0.33525 0.0
Co58 Co 0.6759 0.58001 0.30568 0.0
N59 N 0.65457 0.56711 0.35199 0.0
C60 C 0.66298 0.57213 0.38775 0.0
C61 C 0.64334 0.56145 0.41365 0.0
C62 C 0.62097 0.54914 0.39321 0.0
C63 C 0.62831 0.55291 0.35579 0.0
N64 N 0.64627 0.55717 0.27577 0.0
C65 C 0.62058 0.54431 0.2866 0.0
C66 C 0.60581 0.53169 0.25656 0.0
C67 C 0.62253 0.53726 0.22556 0.0
C68 C 0.64648 0.55288 0.23837 0.0
N69 N 0.6974 0.59309 0.2595 0.0
C70 C 0.69261 0.58375 0.22419 0.0
C71 C 0.70904 0.59856 0.19799 0.0
C72 C 0.72458 0.61904 0.21761 0.0
C73 C 0.71683 0.61548 0.25488 0.0
N74 N 0.69986 0.54645 0.30975 0.0
C75 C 0.71973 0.49207 0.3211 0.0
C76 C 0.71068 0.50068 0.28587 0.0
C77 C 0.70137 0.52773 0.28078 0.0
C78 C 0.72152 0.51225 0.34951 0.0
C79 C 0.71198 0.5391 0.34312 0.0
N80 N 0.65159 0.61224 0.30205 0.0
C81 C 0.61994 0.64002 0.26609 0.0
C82 C 0.61112 0.65332 0.29856 0.0
C83 C 0.62403 0.64677 0.33249 0.0
C84 C 0.64431 0.62648 0.33355 0.0
C85 C 0.64008 0.61961 0.26845 0.0
H86 H 0.65339 0.62204 0.36023 0.0
H87 H 0.64549 0.60941 0.243 0.0
H88 H 0.69488 0.53255 0.25323 0.0
H89 H 0.71396 0.55313 0.3661 0.0
C90 C 0.68739 0.59009 0.39592 0.0
C91 C 0.72634 0.63507 0.28468 0.0
C92 C 0.60924 0.54382 0.3248 0.0
C93 C 0.66848 0.56549 0.21585 0.0
H94 H 0.75304 0.65703 0.35196 0.0
H95 H 0.73252 0.63176 0.41357 0.0
H96 H 0.64449 0.56353 0.44378 0.0
H97 H 0.60116 0.53925 0.40463 0.0
H98 H 0.58492 0.52002 0.25696 0.0
H99 H 0.61742 0.53134 0.19697 0.0
H100 H 0.70806 0.59626 0.16788 0.0
H101 H 0.73876 0.63553 0.20549 0.0
H102 H 0.71029 0.48644 0.26226 0.0
H103 H 0.72907 0.50713 0.37718 0.0
H104 H 0.61052 0.64452 0.2392 0.0
H105 H 0.61826 0.65703 0.3582 0.0
C106 C 0.14925 0.86165 0.52864 0.0
C107 C 0.14245 0.85112 0.49324 0.0
C108 C 0.15534 0.86961 0.46794 0.0
C109 C 0.16929 0.89035 0.48913 0.0
N110 N 0.16626 0.88576 0.52617 0.0
Co111 Co 0.18242 0.91068 0.56638 0.0
N112 N 0.21033 0.93016 0.53155 0.0
C113 C 0.20856 0.93057 0.49403 0.0
C114 C 0.23231 0.94462 0.47778 0.0
C115 C 0.25002 0.95342 0.507 0.0
C116 C 0.23599 0.94422 0.53946 0.0
N117 N 0.199 0.9357 0.60613 0.0
C118 C 0.22562 0.94922 0.6078 0.0
C119 C 0.22948 0.96376 0.64117 0.0
C120 C 0.20421 0.95884 0.66114 0.0
C121 C 0.18644 0.94165 0.63882 0.0
N122 N 0.15474 0.89157 0.60174 0.0
C123 C 0.147 0.90155 0.6353 0.0
C124 C 0.1272 0.88374 0.65357 0.0
C125 C 0.1219 0.86145 0.62978 0.0
C126 C 0.13877 0.86695 0.59808 0.0
N127 N 0.2106 0.88295 0.578 0.0
C128 C 0.23923 0.83402 0.59253 0.0
C129 C 0.22803 0.84958 0.62184 0.0
C130 C 0.21393 0.87399 0.61401 0.0
C131 C 0.23793 0.84498 0.55619 0.0
C132 C 0.22376 0.86947 0.54959 0.0
N133 N 0.15296 0.93751 0.5545 0.0
C134 C 0.13709 0.98409 0.54309 0.0
C135 C 0.10879 0.97288 0.53516 0.0
C136 C 0.1032 0.9439 0.53806 0.0
C137 C 0.12519 0.92686 0.54788 0.0
C138 C 0.15899 0.96596 0.55241 0.0
H139 H 0.11939 0.90481 0.54982 0.0
H140 H 0.18073 0.97483 0.55768 0.0
H141 H 0.20425 0.88467 0.63692 0.0
H142 H 0.22206 0.87658 0.52111 0.0
C143 C 0.18845 0.91209 0.47562 0.0
C144 C 0.13589 0.85046 0.56335 0.0
C145 C 0.24696 0.94921 0.57753 0.0
C146 C 0.16168 0.92554 0.65072 0.0
H147 H 0.12894 0.83242 0.48642 0.0
H148 H 0.15504 0.86783 0.43775 0.0
H149 H 0.23718 0.94655 0.44823 0.0
H150 H 0.27101 0.96474 0.50465 0.0
H151 H 0.24863 0.97621 0.65024 0.0
H152 H 0.20009 0.96549 0.68948 0.0
H153 H 0.11815 0.88632 0.68118 0.0
H154 H 0.10674 0.84356 0.63475 0.0
H155 H 0.22862 0.84217 0.65043 0.0
H156 H 0.24702 0.83424 0.53272 0.0
H157 H 0.14237 1.00648 0.54131 0.0
H158 H 0.08167 0.93426 0.53292 0.0
C159 C 0.7895 0.38902 0.81293 0.0
C160 C 0.77545 0.37538 0.8427 0.0
C161 C 0.78585 0.38845 0.87452 0.0
C162 C 0.80565 0.40917 0.86233 0.0
N163 N 0.80768 0.41077 0.82469 0.0
Co164 Co 0.83691 0.43428 0.79502 0.0
N165 N 0.85874 0.44663 0.84099 0.0
C166 C 0.84967 0.44289 0.87669 0.0
C167 C 0.86941 0.4535 0.90252 0.0
C168 C 0.89243 0.46452 0.88203 0.0
C169 C 0.88536 0.46011 0.84464 0.0
N170 N 0.86728 0.45587 0.76481 0.0
C171 C 0.89364 0.46739 0.77528 0.0
C172 C 0.90887 0.479 0.74491 0.0
C173 C 0.89165 0.47421 0.71415 0.0
C174 C 0.86702 0.45993 0.72739 0.0
N175 N 0.81442 0.42238 0.74931 0.0
C176 C 0.81829 0.43284 0.71445 0.0
C177 C 0.8009 0.41891 0.68836 0.0
C178 C 0.78572 0.39795 0.70763 0.0
C179 C 0.79462 0.40032 0.7446 0.0
N180 N 0.8141 0.4687 0.79992 0.0
C181 C 0.79324 0.52231 0.81506 0.0
C182 C 0.80773 0.517 0.78178 0.0
C183 C 0.81749 0.49039 0.77468 0.0
C184 C 0.78722 0.49956 0.83913 0.0
C185 C 0.79733 0.47317 0.83084 0.0
N186 N 0.85991 0.40122 0.79065 0.0
C187 C 0.8878 0.37091 0.75309 0.0
C188 C 0.89693 0.35715 0.7851 0.0
C189 C 0.88623 0.36523 0.81982 0.0
C190 C 0.86775 0.38709 0.82194 0.0
C191 C 0.86941 0.39276 0.75646 0.0
H192 H 0.86043 0.39275 0.84917 0.0
H193 H 0.86343 0.40293 0.7312 0.0
H194 H 0.82834 0.48845 0.7488 0.0
H195 H 0.79151 0.45701 0.85037 0.0
C196 C 0.82513 0.42518 0.88505 0.0
C197 C 0.78587 0.38005 0.77396 0.0
C198 C 0.90487 0.46807 0.81356 0.0
C199 C 0.84331 0.44975 0.7057 0.0
H200 H 0.76006 0.35729 0.84149 0.0
H201 H 0.78084 0.38249 0.90313 0.0
H202 H 0.86796 0.45203 0.93269 0.0
H203 H 0.91243 0.47398 0.89346 0.0
H204 H 0.93024 0.48974 0.745 0.0
H205 H 0.89666 0.48009 0.68551 0.0
H206 H 0.80126 0.42186 0.65834 0.0
H207 H 0.77108 0.38189 0.69537 0.0
H208 H 0.81269 0.5336 0.76172 0.0
H209 H 0.77493 0.50207 0.86456 0.0
H210 H 0.89493 0.36502 0.72551 0.0
H211 H 0.89275 0.35538 0.84547 0.0
C212 C 0.70209 0.92428 0.95891 0.0
C213 C 0.70649 0.93703 0.99343 0.0
C214 C 0.73151 0.92712 0.00785 0.0
C215 C 0.74101 0.90895 0.98132 0.0
N216 N 0.72351 0.90714 0.95132 0.0
Co217 Co 0.72709 0.88202 0.90798 0.0
N218 N 0.75079 0.85653 0.93648 0.0
C219 C 0.76555 0.86322 0.96803 0.0
C220 C 0.77965 0.841 0.98179 0.0
C221 C 0.77344 0.81924 0.95717 0.0
C222 C 0.75593 0.82942 0.92947 0.0
N223 N 0.73023 0.857 0.86438 0.0
C224 C 0.73692 0.82987 0.86321 0.0
C225 C 0.73706 0.82029 0.82654 0.0
C226 C 0.73018 0.84235 0.80426 0.0
C227 C 0.72632 0.86417 0.82843 0.0
N228 N 0.7034 0.90756 0.87968 0.0
C229 C 0.70212 0.9098 0.84226 0.0
C230 C 0.68235 0.92836 0.83107 0.0
C231 C 0.67055 0.93813 0.86355 0.0
C232 C 0.6839 0.92501 0.89285 0.0
N233 N 0.7627 0.90351 0.89234 0.0
C234 C 0.81647 0.93241 0.87788 0.0
C235 C 0.81264 0.90326 0.87355 0.0
C236 C 0.78584 0.88932 0.88092 0.0
C237 C 0.79225 0.94701 0.88783 0.0
C238 C 0.76552 0.93215 0.89489 0.0
N239 N 0.69225 0.8604 0.92402 0.0
C240 C 0.64668 0.83569 0.9101 0.0
C241 C 0.64335 0.82828 0.94782 0.0
C242 C 0.66472 0.83741 0.9734 0.0
C243 C 0.6891 0.85326 0.96089 0.0
C244 C 0.67127 0.852 0.89878 0.0
H245 H 0.70552 0.85957 0.9811 0.0
H246 H 0.67344 0.85769 0.86968 0.0
H247 H 0.78416 0.86681 0.87837 0.0
H248 H 0.74736 0.94368 0.90347 0.0
C249 C 0.76097 0.88837 0.98721 0.0
C250 C 0.67836 0.92945 0.93291 0.0
C251 C 0.74567 0.81369 0.89588 0.0
C252 C 0.71403 0.88948 0.81951 0.0
H253 H 0.69286 0.95158 0.00688 0.0
H254 H 0.74049 0.93125 0.03541 0.0
H255 H 0.79185 0.84023 0.00757 0.0
H256 H 0.78088 0.79835 0.95953 0.0
H257 H 0.74187 0.79964 0.8169 0.0
H258 H 0.72725 0.84211 0.77421 0.0
H259 H 0.67578 0.93281 0.80275 0.0
H260 H 0.65374 0.95272 0.86529 0.0
H261 H 0.83041 0.8911 0.86494 0.0
H262 H 0.79412 0.96956 0.8914 0.0
H263 H 0.63033 0.82911 0.88963 0.0
H264 H 0.66291 0.83185 0.00274 0.0
C265 C 0.34804 0.43968 0.71732 0.0
C266 C 0.3374 0.43851 0.75354 0.0
C267 C 0.3513 0.46069 0.77248 0.0
C268 C 0.36957 0.47413 0.74676 0.0
N269 N 0.36763 0.46178 0.71302 0.0
Co270 Co 0.39141 0.47195 0.66868 0.0
N271 N 0.42223 0.49113 0.69947 0.0
C272 C 0.41902 0.50035 0.73472 0.0
C273 C 0.44444 0.51235 0.74921 0.0
C274 C 0.46464 0.51073 0.72119 0.0
C275 C 0.45036 0.49797 0.69084 0.0
N276 N 0.41499 0.48188 0.62399 0.0
C277 C 0.44363 0.48962 0.62137 0.0
C278 C 0.45126 0.49535 0.58445 0.0
C279 C 0.42639 0.49099 0.56354 0.0
C280 C 0.40494 0.48296 0.58872 0.0
N281 N 0.36047 0.45259 0.63832 0.0
C282 C 0.35579 0.45641 0.60165 0.0
C283 C 0.33396 0.43812 0.58815 0.0
C284 C 0.32469 0.42186 0.61825 0.0
C285 C 0.34134 0.43124 0.64859 0.0
N286 N 0.37268 0.50755 0.66397 0.0
C287 C 0.34707 0.55893 0.6545 0.0
C288 C 0.37713 0.5573 0.65191 0.0
C289 C 0.38939 0.53166 0.65662 0.0
C290 C 0.3301 0.53415 0.66283 0.0
C291 C 0.34332 0.5087 0.6674 0.0
N292 N 0.41023 0.43686 0.67322 0.0
C293 C 0.42551 0.39466 0.64517 0.0
C294 C 0.43438 0.38508 0.68011 0.0
C295 C 0.43144 0.40231 0.71142 0.0
C296 C 0.4194 0.42812 0.70735 0.0
C297 C 0.41352 0.42054 0.64235 0.0
H298 H 0.41704 0.44082 0.73195 0.0
H299 H 0.40659 0.42723 0.61519 0.0
H300 H 0.41257 0.53142 0.65401 0.0
H301 H 0.3298 0.48989 0.67334 0.0
C302 C 0.39363 0.4927 0.75512 0.0
C303 C 0.33889 0.42023 0.68704 0.0
C304 C 0.46328 0.49413 0.65356 0.0
C305 C 0.37684 0.47162 0.57994 0.0
H306 H 0.32175 0.42299 0.7651 0.0
H307 H 0.34981 0.46513 0.80208 0.0
H308 H 0.44821 0.52019 0.77733 0.0
H309 H 0.48722 0.51807 0.7231 0.0
H310 H 0.47248 0.50223 0.57382 0.0
H311 H 0.42446 0.49252 0.53345 0.0
H312 H 0.32706 0.43543 0.55936 0.0
H313 H 0.30813 0.40477 0.61756 0.0
H314 H 0.39133 0.57581 0.64639 0.0
H315 H 0.30676 0.53425 0.66499 0.0
H316 H 0.42792 0.38235 0.62006 0.0
H317 H 0.43778 0.39569 0.73902 0.0
C318 C 0.81079 0.093 0.46843 0.0
C319 C 0.80636 0.08166 0.50385 0.0
C320 C 0.78063 0.09105 0.51675 0.0
C321 C 0.7708 0.10771 0.48871 0.0
N322 N 0.78882 0.10908 0.45917 0.0
Co323 Co 0.78505 0.13265 0.41428 0.0
N324 N 0.75997 0.15806 0.44055 0.0
C325 C 0.74465 0.15185 0.47179 0.0
C326 C 0.72929 0.1739 0.48354 0.0
C327 C 0.73536 0.19503 0.45791 0.0
C328 C 0.75421 0.18472 0.43192 0.0
N329 N 0.78164 0.15603 0.36913 0.0
C330 C 0.77413 0.18283 0.36623 0.0
C331 C 0.775 0.19145 0.32912 0.0
C332 C 0.78295 0.16899 0.30834 0.0
C333 C 0.78664 0.14796 0.33377 0.0
N334 N 0.81021 0.10729 0.38822 0.0
C335 C 0.81218 0.10376 0.35104 0.0
C336 C 0.8328 0.08551 0.34166 0.0
C337 C 0.84442 0.07737 0.3751 0.0
C338 C 0.83026 0.09123 0.40302 0.0
N339 N 0.75049 0.10941 0.39889 0.0
C340 C 0.69811 0.078 0.38459 0.0
C341 C 0.70073 0.10705 0.37884 0.0
C342 C 0.72688 0.12226 0.38614 0.0
C343 C 0.72285 0.06476 0.39593 0.0
C344 C 0.74886 0.08086 0.40289 0.0
N345 N 0.81885 0.15597 0.43007 0.0
C346 C 0.86409 0.18138 0.4163 0.0
C347 C 0.86655 0.18994 0.4537 0.0
C348 C 0.84481 0.18117 0.479 0.0
C349 C 0.82107 0.16437 0.46657 0.0
C350 C 0.84008 0.1642 0.40507 0.0
H351 H 0.80443 0.15823 0.48657 0.0
H352 H 0.83862 0.15756 0.37625 0.0
H353 H 0.72767 0.14468 0.38242 0.0
H354 H 0.76743 0.07036 0.41255 0.0
C355 C 0.74984 0.12761 0.49263 0.0
C356 C 0.83536 0.08822 0.44336 0.0
C357 C 0.76457 0.19967 0.3979 0.0
C358 C 0.79999 0.12287 0.32671 0.0
H359 H 0.82039 0.06857 0.51917 0.0
H360 H 0.7714 0.08777 0.54435 0.0
H361 H 0.71626 0.17499 0.50859 0.0
H362 H 0.72686 0.21558 0.45821 0.0
H363 H 0.77046 0.21177 0.31811 0.0
H364 H 0.7869 0.16855 0.2785 0.0
H365 H 0.83993 0.0802 0.31387 0.0
H366 H 0.86159 0.06329 0.37857 0.0
H367 H 0.68252 0.11818 0.36916 0.0
H368 H 0.72191 0.04233 0.40064 0.0
H369 H 0.88074 0.18763 0.39607 0.0
H370 H 0.84594 0.1876 0.50806 0.0
C371 C 0.16285 0.5768 0.2282 0.0
C372 C 0.17332 0.57866 0.26448 0.0
C373 C 0.15981 0.55649 0.28384 0.0
C374 C 0.14195 0.54234 0.2583 0.0
N375 N 0.14374 0.55427 0.22429 0.0
Co376 Co 0.12052 0.54277 0.17997 0.0
N377 N 0.08998 0.52332 0.21094 0.0
C378 C 0.09321 0.51472 0.24645 0.0
C379 C 0.06796 0.50237 0.26099 0.0
C380 C 0.04785 0.50314 0.23272 0.0
C381 C 0.06201 0.51577 0.20222 0.0
N382 N 0.0975 0.53139 0.13536 0.0
C383 C 0.06902 0.52303 0.13266 0.0
C384 C 0.06173 0.51652 0.09586 0.0
C385 C 0.08667 0.52107 0.07509 0.0
C386 C 0.10781 0.52998 0.10026 0.0
N387 N 0.1511 0.56254 0.14941 0.0
C388 C 0.15607 0.5583 0.11289 0.0
C389 C 0.17744 0.57695 0.09908 0.0
C390 C 0.18613 0.59386 0.12883 0.0
C391 C 0.16962 0.5845 0.1593 0.0
N392 N 0.14046 0.50775 0.17656 0.0
C393 C 0.16793 0.45712 0.17062 0.0
C394 C 0.18413 0.48274 0.1762 0.0
C395 C 0.16997 0.50776 0.17945 0.0
C396 C 0.13776 0.45755 0.16803 0.0
C397 C 0.12456 0.4829 0.17078 0.0
N398 N 0.10059 0.57731 0.18322 0.0
C399 C 0.08427 0.61849 0.15363 0.0
C400 C 0.07527 0.62864 0.18821 0.0
C401 C 0.0786 0.61215 0.22014 0.0
C402 C 0.09118 0.58653 0.21701 0.0
C403 C 0.09687 0.59287 0.15176 0.0
H404 H 0.09382 0.5744 0.24205 0.0
H405 H 0.10398 0.5858 0.12486 0.0
H406 H 0.18287 0.52715 0.18419 0.0
H407 H 0.10133 0.48232 0.16798 0.0
C408 C 0.11832 0.52331 0.2669 0.0
C409 C 0.17175 0.59602 0.19755 0.0
C410 C 0.0492 0.51892 0.16475 0.0
C411 C 0.13562 0.54207 0.09143 0.0
H412 H 0.1886 0.59462 0.2758 0.0
H413 H 0.16131 0.55246 0.31354 0.0
H414 H 0.0642 0.49488 0.28926 0.0
H415 H 0.0254 0.49533 0.23458 0.0
H416 H 0.04068 0.5091 0.08521 0.0
H417 H 0.08879 0.51918 0.04506 0.0
H418 H 0.18443 0.57937 0.07029 0.0
H419 H 0.20223 0.61134 0.1278 0.0
H420 H 0.2075 0.4834 0.17853 0.0
H421 H 0.12436 0.4384 0.16317 0.0
H422 H 0.08156 0.63018 0.12807 0.0
H423 H 0.07216 0.61922 0.2475 0.0
C424 C 0.86675 0.65303 0.53653 0.0
C425 C 0.87417 0.66395 0.50149 0.0
C426 C 0.8614 0.64596 0.4755 0.0
C427 C 0.84695 0.62509 0.4959 0.0
N428 N 0.84954 0.62911 0.5331 0.0
Co429 Co 0.8328 0.60359 0.57228 0.0
N430 N 0.80511 0.58492 0.53646 0.0
C431 C 0.80733 0.58509 0.49898 0.0
C432 C 0.78375 0.57136 0.48193 0.0
C433 C 0.76566 0.56217 0.51058 0.0
C434 C 0.77933 0.57081 0.54353 0.0
N435 N 0.81566 0.57792 0.61098 0.0
C436 C 0.78898 0.56448 0.61181 0.0
C437 C 0.78472 0.54932 0.64462 0.0
C438 C 0.80977 0.55377 0.66511 0.0
C439 C 0.82783 0.57132 0.64365 0.0
N440 N 0.86022 0.6219 0.60864 0.0
C441 C 0.86737 0.6114 0.64213 0.0
C442 C 0.88679 0.62895 0.66143 0.0
C443 C 0.89248 0.65161 0.63841 0.0
C444 C 0.8763 0.64654 0.60603 0.0
N445 N 0.80469 0.6313 0.5844 0.0
C446 C 0.7758 0.67991 0.6005 0.0
C447 C 0.78669 0.66359 0.62927 0.0
C448 C 0.80088 0.6394 0.62068 0.0
C449 C 0.77774 0.6699 0.56369 0.0
C450 C 0.79202 0.64556 0.55632 0.0
N451 N 0.86217 0.57678 0.55995 0.0
C452 C 0.87767 0.53033 0.54668 0.0
C453 C 0.90613 0.54146 0.53959 0.0
C454 C 0.91199 0.57032 0.54392 0.0
C455 C 0.89009 0.58733 0.5542 0.0
C456 C 0.85588 0.54843 0.55654 0.0
H457 H 0.89608 0.6093 0.55714 0.0
H458 H 0.83401 0.53964 0.56112 0.0
H459 H 0.81008 0.62806 0.64333 0.0
H460 H 0.79425 0.63921 0.52758 0.0
C461 C 0.82781 0.60369 0.48145 0.0
C462 C 0.87986 0.66352 0.57177 0.0
C463 C 0.76796 0.56514 0.58126 0.0
C464 C 0.85244 0.58718 0.65652 0.0
H465 H 0.88803 0.68254 0.4953 0.0
H466 H 0.86218 0.64814 0.44537 0.0
H467 H 0.77928 0.56985 0.45224 0.0
H468 H 0.7447 0.55091 0.50754 0.0
H469 H 0.76543 0.53676 0.65298 0.0
H470 H 0.81356 0.54656 0.69326 0.0
H471 H 0.89529 0.62597 0.68925 0.0
H472 H 0.90743 0.66948 0.64434 0.0
H473 H 0.78499 0.66983 0.65827 0.0
H474 H 0.76971 0.68153 0.54035 0.0
H475 H 0.87217 0.50804 0.5438 0.0
H476 H 0.93365 0.57987 0.53948 0.0
C477 C 0.22564 0.12594 0.81729 0.0
C478 C 0.23939 0.13934 0.84749 0.0
C479 C 0.2286 0.12615 0.87897 0.0
C480 C 0.20877 0.10566 0.86631 0.0
N481 N 0.20702 0.10433 0.82859 0.0
Co482 Co 0.17797 0.08092 0.7983 0.0
N483 N 0.1558 0.06824 0.84402 0.0
C484 C 0.16389 0.07286 0.87998 0.0
C485 C 0.14371 0.06246 0.90538 0.0
C486 C 0.12133 0.05077 0.88438 0.0
C487 C 0.12921 0.05459 0.84715 0.0
N488 N 0.14835 0.05873 0.76758 0.0
C489 C 0.12222 0.04648 0.77773 0.0
C490 C 0.10761 0.03429 0.74727 0.0
C491 C 0.12491 0.03953 0.71672 0.0
C492 C 0.14902 0.05455 0.73017 0.0
N493 N 0.20027 0.09368 0.75274 0.0
C494 C 0.19616 0.08427 0.71735 0.0
C495 C 0.2134 0.09884 0.69168 0.0
C496 C 0.22871 0.11923 0.71178 0.0
C497 C 0.21985 0.11595 0.74864 0.0
N498 N 0.20126 0.04688 0.80288 0.0
C499 C 0.22119 0.99254 0.81494 0.0
C500 C 0.21162 1.00073 0.77977 0.0
C501 C 0.20226 0.02773 0.77432 0.0
C502 C 0.22324 0.01304 0.84294 0.0
C503 C 0.21364 0.03983 0.83621 0.0
N504 N 0.15437 0.11365 0.79415 0.0
C505 C 0.12463 0.14273 0.75725 0.0
C506 C 0.11574 0.15637 0.78943 0.0
C507 C 0.12756 0.14912 0.82379 0.0
C508 C 0.1469 0.12798 0.82548 0.0
C509 C 0.14383 0.12151 0.76022 0.0
H510 H 0.15516 0.12307 0.85245 0.0
H511 H 0.14938 0.11118 0.73491 0.0
H512 H 0.19539 0.03217 0.74682 0.0
H513 H 0.2159 0.05408 0.85892 0.0
C514 C 0.18837 0.09053 0.88875 0.0
C515 C 0.22903 0.13552 0.77848 0.0
C516 C 0.11034 0.04614 0.81566 0.0
C517 C 0.17178 0.06655 0.70827 0.0
H518 H 0.25461 0.15755 0.84705 0.0
H519 H 0.23315 0.13211 0.9077 0.0
H520 H 0.14449 0.06443 0.93554 0.0
H521 H 0.10117 0.04131 0.89534 0.0
H522 H 0.08646 0.0231 0.74711 0.0
H523 H 0.12012 0.03376 0.68798 0.0
H524 H 0.21311 0.09645 0.66157 0.0
H525 H 0.24358 0.13554 0.70043 0.0
H526 H 0.21095 0.98624 0.75643 0.0
H527 H 0.23111 0.00823 0.87057 0.0
H528 H 0.11601 0.14766 0.73004 0.0
H529 H 0.12174 0.15956 0.84934 0.0
C530 C 0.6502 0.3616 0.03163 0.0
C531 C 0.64442 0.35168 0.99566 0.0
C532 C 0.65702 0.37121 0.97144 0.0
C533 C 0.66979 0.3919 0.99381 0.0
N534 N 0.6662 0.38633 0.03052 0.0
Co535 Co 0.68091 0.41048 0.07219 0.0
N536 N 0.70953 0.43092 0.03933 0.0
C537 C 0.70856 0.43229 0.00181 0.0
C538 C 0.73247 0.44706 0.98704 0.0
C539 C 0.74941 0.4553 0.01724 0.0
C540 C 0.73478 0.44512 0.04881 0.0
N541 N 0.69606 0.43477 0.11349 0.0
C542 C 0.72253 0.44841 0.11689 0.0
C543 C 0.7252 0.46227 0.15091 0.0
C544 C 0.69932 0.45679 0.16942 0.0
C545 C 0.68237 0.43998 0.14566 0.0
N546 N 0.65246 0.39041 0.10547 0.0
C547 C 0.64321 0.3998 0.13863 0.0
C548 C 0.62309 0.38133 0.15524 0.0
C549 C 0.61933 0.35921 0.13078 0.0
C550 C 0.63745 0.36542 0.10044 0.0
N551 N 0.70905 0.38281 0.08424 0.0
C552 C 0.7373 0.33381 0.09927 0.0
C553 C 0.72581 0.34933 0.12837 0.0
C554 C 0.71179 0.37371 0.12028 0.0
C555 C 0.73645 0.34474 0.0629 0.0
C556 C 0.7226 0.36941 0.05608 0.0
N557 N 0.65146 0.43724 0.05993 0.0
C558 C 0.63523 0.48398 0.05132 0.0
C559 C 0.60735 0.47284 0.04127 0.0
C560 C 0.60212 0.44373 0.04137 0.0
C561 C 0.62406 0.42653 0.05108 0.0
C562 C 0.65713 0.46577 0.06016 0.0
H563 H 0.61854 0.40432 0.05133 0.0
H564 H 0.67856 0.47467 0.06712 0.0
H565 H 0.70164 0.38422 0.14298 0.0
H566 H 0.72138 0.37669 0.02762 0.0
C567 C 0.68899 0.41417 0.98187 0.0
C568 C 0.63752 0.34878 0.06581 0.0
C569 C 0.74471 0.44939 0.08752 0.0
C570 C 0.6572 0.42358 0.15562 0.0
H571 H 0.63202 0.33256 0.98774 0.0
H572 H 0.65753 0.37 0.94122 0.0
H573 H 0.73793 0.44989 0.95777 0.0
H574 H 0.77027 0.46697 0.01605 0.0
H575 H 0.74393 0.47471 0.16129 0.0
H576 H 0.69423 0.46289 0.1977 0.0
H577 H 0.61299 0.38327 0.18235 0.0
H578 H 0.60462 0.34082 0.13458 0.0
H579 H 0.72608 0.34182 0.15695 0.0
H580 H 0.74566 0.33385 0.03965 0.0
H581 H 0.64019 0.50646 0.05166 0.0
H582 H 0.58089 0.43418 0.03433 0.0
C583 C 0.28585 0.89034 0.32925 0.0
C584 C 0.26919 0.88056 0.35939 0.0
C585 C 0.2789 0.89598 0.39004 0.0
C586 C 0.30098 0.91418 0.37703 0.0
N587 N 0.30537 0.91118 0.34015 0.0
Co588 Co 0.33638 0.93079 0.31016 0.0
N589 N 0.3604 0.9394 0.35494 0.0
C590 C 0.35068 0.93938 0.39045 0.0
C591 C 0.37241 0.94615 0.41573 0.0
C592 C 0.39711 0.95097 0.39466 0.0
C593 C 0.38907 0.94702 0.35748 0.0
N594 N 0.36721 0.9501 0.27955 0.0
C595 C 0.39532 0.95687 0.28813 0.0
C596 C 0.40921 0.97116 0.25864 0.0
C597 C 0.38887 0.9734 0.23094 0.0
C598 C 0.36371 0.96048 0.24495 0.0
N599 N 0.31212 0.922 0.26582 0.0
C600 C 0.31386 0.93523 0.23267 0.0
C601 C 0.29519 0.92265 0.2067 0.0
C602 C 0.28121 0.90013 0.22484 0.0
C603 C 0.29222 0.90024 0.26087 0.0
N604 N 0.3186 0.96681 0.31666 0.0
C605 C 0.29593 0.01972 0.32483 0.0
C606 C 0.27753 0.99556 0.31814 0.0
C607 C 0.28935 0.96927 0.31385 0.0
C608 C 0.32563 0.01653 0.32808 0.0
C609 C 0.33639 0.99022 0.32409 0.0
N610 N 0.35482 0.89557 0.30384 0.0
C611 C 0.38098 0.86495 0.26497 0.0
C612 C 0.38787 0.84899 0.29624 0.0
C613 C 0.37643 0.85604 0.33108 0.0
C614 C 0.35984 0.87926 0.33421 0.0
C615 C 0.36455 0.88815 0.26939 0.0
H616 H 0.35197 0.88462 0.36149 0.0
H617 H 0.36046 0.90059 0.24505 0.0
H618 H 0.27497 0.95099 0.3081 0.0
H619 H 0.35941 0.98902 0.32697 0.0
C620 C 0.32247 0.92833 0.39912 0.0
C621 C 0.28303 0.88019 0.29041 0.0
C622 C 0.4084 0.95289 0.32518 0.0
C623 C 0.33802 0.95377 0.22472 0.0
H624 H 0.25236 0.86371 0.35958 0.0
H625 H 0.27211 0.89275 0.4188 0.0
H626 H 0.37076 0.94652 0.44593 0.0
H627 H 0.4185 0.9569 0.40549 0.0
H628 H 0.43153 0.97951 0.25749 0.0
H629 H 0.39228 0.98265 0.20353 0.0
H630 H 0.29345 0.9279 0.17737 0.0
H631 H 0.26525 0.8851 0.21288 0.0
H632 H 0.25437 0.99703 0.31552 0.0
H633 H 0.34068 0.03436 0.33406 0.0
H634 H 0.3887 0.85995 0.23733 0.0
H635 H 0.38125 0.84453 0.35614 0.0
C636 C 0.20255 0.41901 0.47102 0.0
C637 C 0.20721 0.42974 0.50673 0.0
C638 C 0.23188 0.41846 0.52003 0.0
C639 C 0.24088 0.40137 0.49192 0.0
N640 N 0.22338 0.40156 0.46194 0.0
Co641 Co 0.22574 0.37787 0.41691 0.0
N642 N 0.24795 0.35021 0.4435 0.0
C643 C 0.26321 0.3551 0.47516 0.0
C644 C 0.27662 0.33183 0.4869 0.0
C645 C 0.2694 0.3113 0.46082 0.0
C646 C 0.25184 0.32317 0.43455 0.0
N647 N 0.2277 0.35442 0.37159 0.0
C648 C 0.23313 0.32702 0.36843 0.0
C649 C 0.23196 0.31873 0.33118 0.0
C650 C 0.22609 0.34198 0.31059 0.0
C651 C 0.22383 0.36314 0.33624 0.0
N652 N 0.20345 0.40555 0.39063 0.0
C653 C 0.20224 0.4095 0.35348 0.0
C654 C 0.18317 0.42923 0.344 0.0
C655 C 0.17171 0.43786 0.37734 0.0
C656 C 0.18443 0.4228 0.40528 0.0
N657 N 0.26222 0.39842 0.40253 0.0
C658 C 0.31662 0.42626 0.38854 0.0
C659 C 0.31196 0.39726 0.3831 0.0
C660 C 0.2848 0.38383 0.39021 0.0
C661 C 0.29298 0.44123 0.39972 0.0
C662 C 0.26597 0.42692 0.40654 0.0
N663 N 0.18987 0.35741 0.43168 0.0
C664 C 0.14098 0.34076 0.41799 0.0
C665 C 0.13629 0.33408 0.45582 0.0
C666 C 0.15937 0.33822 0.48091 0.0
C667 C 0.18601 0.34963 0.46821 0.0
C668 C 0.16794 0.35247 0.40651 0.0
H669 H 0.20322 0.35307 0.48831 0.0
H670 H 0.17086 0.35822 0.37752 0.0
H671 H 0.28233 0.36142 0.3865 0.0
H672 H 0.24827 0.43878 0.41594 0.0
C673 C 0.25986 0.37971 0.49611 0.0
C674 C 0.17878 0.42544 0.44554 0.0
C675 C 0.24121 0.30921 0.39992 0.0
C676 C 0.21291 0.38944 0.3292 0.0
H677 H 0.19395 0.4436 0.52201 0.0
H678 H 0.24078 0.42077 0.54795 0.0
H679 H 0.28919 0.32965 0.51213 0.0
H680 H 0.27639 0.29014 0.46095 0.0
H681 H 0.235 0.29811 0.31994 0.0
H682 H 0.22262 0.34295 0.28068 0.0
H683 H 0.17671 0.43515 0.31616 0.0
H684 H 0.15549 0.45295 0.38072 0.0
H685 H 0.32927 0.38484 0.37362 0.0
H686 H 0.2955 0.46367 0.4043 0.0
H687 H 0.1239 0.33726 0.39746 0.0
H688 H 0.15673 0.33349 0.51039 0.0
C689 C 0.84758 0.94045 0.22647 0.0
C690 C 0.83869 0.93992 0.26352 0.0
C691 C 0.85278 0.96287 0.28057 0.0
C692 C 0.86954 0.97606 0.25312 0.0
N693 N 0.86656 0.96279 0.22007 0.0
Co694 Co 0.88818 0.97273 0.17379 0.0
N695 N 0.91966 0.99331 0.2018 0.0
C696 C 0.91748 1.00361 0.23665 0.0
C697 C 0.94287 0.01741 0.24855 0.0
C698 C 0.96195 0.01573 0.21921 0.0
C699 C 0.94715 1.00082 0.19097 0.0
N700 N 0.9095 0.98265 0.12721 0.0
C701 C 0.93791 0.99071 0.12231 0.0
C702 C 0.94406 0.99416 0.08446 0.0
C703 C 0.91841 0.98884 0.06553 0.0
C704 C 0.89802 0.98209 0.09257 0.0
N705 N 0.85673 0.95174 0.14625 0.0
C706 C 0.85029 0.95451 0.10987 0.0
C707 C 0.82839 0.93537 0.09864 0.0
C708 C 0.82095 0.91966 0.12997 0.0
C709 C 0.83882 0.9301 0.15854 0.0
N710 N 0.86798 0.00753 0.16952 0.0
C711 C 0.8406 0.05817 0.1643 0.0
C712 C 0.87055 0.05754 0.15941 0.0
C713 C 0.88369 0.03216 0.16172 0.0
C714 C 0.82448 0.03275 0.17146 0.0
C715 C 0.83863 0.00769 0.17435 0.0
N716 N 0.90852 0.93849 0.17794 0.0
C717 C 0.92652 0.89765 0.14934 0.0
C718 C 0.93747 0.88934 0.18378 0.0
C719 C 0.93359 0.90605 0.21528 0.0
C720 C 0.91926 0.93068 0.2117 0.0
C721 C 0.91198 0.92218 0.14706 0.0
H722 H 0.91686 0.94342 0.23625 0.0
H723 H 0.90344 0.92792 0.12031 0.0
H724 H 0.90674 0.03258 0.15721 0.0
H725 H 0.8259 0.98846 0.18058 0.0
C726 C 0.89321 0.99569 0.25905 0.0
C727 C 0.83789 0.92007 0.19741 0.0
C728 C 0.95877 0.99643 0.15316 0.0
C729 C 0.86995 0.96967 0.08619 0.0
H730 H 0.82416 0.92439 0.27706 0.0
H731 H 0.85243 0.96804 0.31004 0.0
H732 H 0.94734 0.02675 0.27571 0.0
H733 H 0.98406 0.02472 0.21853 0.0
H734 H 0.96482 0.9996 0.07156 0.0
H735 H 0.91538 0.98843 0.03551 0.0
H736 H 0.82019 0.93187 0.07054 0.0
H737 H 0.80468 0.90231 0.13155 0.0
H738 H 0.88378 0.07657 0.15323 0.0
H739 H 0.80124 0.03232 0.17543 0.0
H740 H 0.92886 0.88508 0.12443 0.0
H741 H 0.94197 0.90039 0.24234 0.0
C742 C 0.31076 0.59291 0.96971 0.0
C743 C 0.30623 0.58272 0.00572 0.0
C744 C 0.28138 0.59385 0.01867 0.0
C745 C 0.27215 0.61037 0.99012 0.0
N746 N 0.28967 0.60997 0.96017 0.0
Co747 Co 0.28712 0.63322 0.91474 0.0
N748 N 0.26453 0.66093 0.94077 0.0
C749 C 0.24929 0.65618 0.97247 0.0
C750 C 0.23546 0.67934 0.98373 0.0
C751 C 0.24237 0.69965 0.95726 0.0
C752 C 0.26017 0.68777 0.93126 0.0
N753 N 0.28503 0.65624 0.869 0.0
C754 C 0.27911 0.68348 0.86528 0.0
C755 C 0.28024 0.69137 0.82787 0.0
C756 C 0.28655 0.66801 0.80776 0.0
C757 C 0.28912 0.64721 0.83383 0.0
N758 N 0.30975 0.6055 0.88904 0.0
C759 C 0.31102 0.60119 0.85196 0.0
C760 C 0.33019 0.58144 0.84285 0.0
C761 C 0.34165 0.57319 0.87635 0.0
C762 C 0.32885 0.58848 0.90402 0.0
N763 N 0.25083 0.61225 0.90049 0.0
C764 C 0.19677 0.58396 0.88582 0.0
C765 C 0.20128 0.61294 0.88019 0.0
C766 C 0.22824 0.62659 0.88766 0.0
C767 C 0.22039 0.56923 0.89764 0.0
C768 C 0.24725 0.58377 0.90482 0.0
N769 N 0.32277 0.65415 0.92931 0.0
C770 C 0.37144 0.67145 0.91545 0.0
C771 C 0.37584 0.67891 0.95307 0.0
C772 C 0.35277 0.67465 0.97817 0.0
C773 C 0.3264 0.66249 0.96566 0.0
C774 C 0.34472 0.65905 0.90415 0.0
H775 H 0.30919 0.65903 0.98576 0.0
H776 H 0.34199 0.65283 0.87529 0.0
H777 H 0.23056 0.64898 0.88372 0.0
H778 H 0.26495 0.57212 0.91466 0.0
C779 C 0.25292 0.63186 0.99384 0.0
C780 C 0.33461 0.5863 0.94433 0.0
C781 C 0.27046 0.70148 0.89632 0.0
C782 C 0.30027 0.62093 0.82732 0.0
H783 H 0.31965 0.56936 0.02152 0.0
H784 H 0.27252 0.59189 0.04666 0.0
H785 H 0.22278 0.6816 0.00887 0.0
H786 H 0.23498 0.72065 0.95693 0.0
H787 H 0.27681 0.71176 0.81621 0.0
H788 H 0.29004 0.66674 0.77788 0.0
H789 H 0.3367 0.57527 0.81513 0.0
H790 H 0.35794 0.55821 0.88001 0.0
H791 H 0.18399 0.62518 0.87021 0.0
H792 H 0.21798 0.5468 0.90237 0.0
H793 H 0.38852 0.67498 0.89492 0.0
H794 H 0.35523 0.67996 0.0075 0.0
C795 C 0.66535 0.07461 0.71919 0.0
C796 C 0.67548 0.07561 0.7557 0.0
C797 C 0.66179 0.05305 0.77402 0.0
C798 C 0.64402 0.03958 0.74783 0.0
N799 N 0.64601 0.05231 0.71434 0.0
Co800 Co 0.6227 0.04198 0.66954 0.0
N801 N 0.59209 0.02186 0.69965 0.0
C802 C 0.59523 0.01238 0.73476 0.0
C803 C 0.56993 0.99974 0.74875 0.0
C804 C 0.54988 1.00125 0.72054 0.0
C805 C 0.56413 0.01461 0.6906 0.0
N806 N 0.59971 0.03184 0.62443 0.0
C807 C 0.57121 0.02368 0.62138 0.0
C808 C 0.56394 0.01813 0.58431 0.0
C809 C 0.58893 0.02307 0.56374 0.0
C810 C 0.61007 0.03124 0.58927 0.0
N811 N 0.65327 0.06235 0.63982 0.0
C812 C 0.65843 0.05894 0.60317 0.0
C813 C 0.68005 0.07778 0.5903 0.0
C814 C 0.68865 0.09393 0.62084 0.0
C815 C 0.67172 0.08405 0.65061 0.0
N816 N 0.6424 0.00693 0.66454 0.0
C817 C 0.66913 0.9561 0.65543 0.0
C818 C 0.63907 0.95723 0.652 0.0
C819 C 0.62625 0.98259 0.65659 0.0
C820 C 0.68554 0.9811 0.66428 0.0
C821 C 0.67177 1.0063 0.66859 0.0
N822 N 0.6028 0.07644 0.67431 0.0
C823 C 0.5835 0.11666 0.6458 0.0
C824 C 0.5734 0.12529 0.68055 0.0
C825 C 0.57857 0.10918 0.71222 0.0
C826 C 0.59311 0.08469 0.70845 0.0
C827 C 0.59829 0.0923 0.64332 0.0
H828 H 0.59641 0.07234 0.73312 0.0
H829 H 0.60603 0.08622 0.61627 0.0
H830 H 0.60308 0.9824 0.6535 0.0
H831 H 0.68485 0.02531 0.67494 0.0
C832 C 0.6203 0.02043 0.75556 0.0
C833 C 0.67411 0.09457 0.68922 0.0
C834 C 0.55138 0.01874 0.65331 0.0
C835 C 0.63799 0.04335 0.58095 0.0
H836 H 0.69053 0.09126 0.76811 0.0
H837 H 0.66303 0.04836 0.80358 0.0
H838 H 0.5661 0.99158 0.77669 0.0
H839 H 0.5274 0.99347 0.72205 0.0
H840 H 0.54289 0.01104 0.57336 0.0
H841 H 0.59109 0.02189 0.53364 0.0
H842 H 0.68735 0.08075 0.56172 0.0
H843 H 0.70509 0.11117 0.62111 0.0
H844 H 0.62531 0.93851 0.64601 0.0
H845 H 0.70886 0.98135 0.66711 0.0
H846 H 0.58021 0.12879 0.62074 0.0
H847 H 0.57091 0.11514 0.73954 0.0
C848 C 0.62989 0.92363 0.965 0.0
C849 C 0.65088 0.94101 0.94621 0.0
C850 C 0.60341 0.93391 0.97603 0.0
C851 C 0.56722 1.00049 0.99339 0.0
H852 H 0.49649 0.95255 0.98458 0.0
C853 C 0.45757 0.03408 0.05213 0.0
C854 C 0.43212 0.0274 0.03136 0.0
C855 C 0.48397 0.02317 0.0423 0.0
C856 C 0.51595 0.96636 0.98703 0.0
H857 H 0.66105 0.98293 0.92519 0.0
H858 H 0.61493 1.00095 0.94405 0.0
H859 H 0.54269 0.93475 0.96647 0.0
H860 H 0.41499 1.00331 0.98391 0.0
H861 H 0.46096 0.98463 0.96653 0.0
H862 H 0.54049 0.03227 0.01327 0.0
C863 C 0.61874 0.97938 0.95053 0.0
C864 C 0.54263 0.95598 0.97703 0.0
C865 C 0.64516 0.96905 0.93944 0.0
C866 C 0.434 0.00921 0.00052 0.0
C867 C 0.46044 0.99821 0.99075 0.0
C868 C 0.54058 0.01082 0.0035 0.0
C869 C 0.5973 0.96194 0.9688 0.0
C870 C 0.56874 0.97289 0.97997 0.0
C871 C 0.48593 1.00515 0.01134 0.0
C872 C 0.51446 0.99396 0.00049 0.0
H873 H 0.63383 0.90194 0.97069 0.0
H874 H 0.5878 0.91987 0.9905 0.0
H875 H 0.58672 0.01416 0.9965 0.0
H876 H 0.45731 0.04828 0.07571 0.0
H877 H 0.50287 0.02882 0.05924 0.0
C878 C 0.842 0.86792 0.19662 0.0
C879 C 0.82629 0.89091 0.20666 0.0
C880 C 0.83143 0.84039 0.20512 0.0
C881 C 0.77803 0.79951 0.26637 0.0
H882 H 0.79059 0.73911 0.19711 0.0
C883 C 0.72234 0.68735 0.28528 0.0
C884 C 0.73827 0.66433 0.27603 0.0
C885 C 0.73317 0.71487 0.27714 0.0
C886 C 0.78714 0.75561 0.21706 0.0
H887 H 0.7867 0.90313 0.23217 0.0
H888 H 0.76798 0.85521 0.24685 0.0
H889 H 0.8089 0.78682 0.1821 0.0
H890 H 0.77849 0.65207 0.2523 0.0
H891 H 0.79755 0.7 0.23801 0.0
H892 H 0.75616 0.76828 0.30125 0.0
C893 C 0.78888 0.85829 0.23327 0.0
C894 C 0.79771 0.78312 0.20842 0.0
C895 C 0.79953 0.88581 0.2248 0.0
C896 C 0.76553 0.66942 0.2591 0.0
C897 C 0.77637 0.69692 0.25084 0.0
C898 C 0.76742 0.77201 0.27498 0.0
C899 C 0.80469 0.83508 0.22368 0.0
C900 C 0.79335 0.80558 0.23292 0.0
C901 C 0.76032 0.72012 0.25961 0.0
C902 C 0.77179 0.74958 0.25047 0.0
H903 H 0.86269 0.87131 0.18251 0.0
H904 H 0.8445 0.8233 0.19761 0.0
H905 H 0.7746 0.81598 0.28637 0.0
H906 H 0.7013 0.684 0.29849 0.0
H907 H 0.71997 0.73201 0.28404 0.0
C908 C 0.07581 0.01253 0.54549 0.0
C909 C 0.0846 0.99025 0.52343 0.0
C910 C 0.04986 0.02521 0.53746 0.0
C911 C 0.97952 0.00942 0.48742 0.0
H912 H 0.96826 0.08813 0.50332 0.0
C913 C 0.86557 0.05215 0.47346 0.0
C914 C 0.86368 0.07862 0.45694 0.0
C915 C 0.89259 0.0426 0.4834 0.0
C916 C 0.97101 0.06611 0.49847 0.0
H917 H 0.07397 0.96512 0.47429 0.0
H918 H 0.02964 0.98748 0.4597 0.0
H919 H 0.01569 0.07032 0.51531 0.0
H920 H 0.88861 0.11563 0.43724 0.0
H921 H 0.93579 0.099 0.45408 0.0
H922 H 0.93526 1.00519 0.46972 0.0
C923 C 0.04202 0.99472 0.48395 0.0
C924 C 0.99825 0.0558 0.50577 0.0
C925 C 0.06769 0.98204 0.49208 0.0
C926 C 0.88942 0.09529 0.45046 0.0
C927 C 0.91646 0.08576 0.46033 0.0
C928 C 0.9524 0.01969 0.48015 0.0
C929 C 0.03214 0.01595 0.50708 0.0
C930 C 1.00302 0.02729 0.50009 0.0
C931 C 0.91856 0.05912 0.47669 0.0
C932 C 0.94762 0.04821 0.48542 0.0
H933 H 0.08819 0.01917 0.57003 0.0
H934 H 0.04308 0.04141 0.55604 0.0
H935 H 0.98196 0.98726 0.4833 0.0
H936 H 0.8462 0.03851 0.47789 0.0
H937 H 0.89308 0.02212 0.49624 0.0
C938 C 0.71332 0.12909 0.71414 0.0
C939 C 0.68605 0.12384 0.69734 0.0
C940 C 0.72411 0.15667 0.72206 0.0
C941 C 0.71429 0.23179 0.69799 0.0
H942 H 0.75783 0.24672 0.78929 0.0
C943 C 0.74673 0.34558 0.7485 0.0
C944 C 0.7742 0.3508 0.7648 0.0
C945 C 0.73601 0.31805 0.74017 0.0
C946 C 0.74602 0.24298 0.76342 0.0
H947 H 0.64894 0.14325 0.67488 0.0
H948 H 0.66741 0.19136 0.68896 0.0
H949 H 0.73938 0.19896 0.77478 0.0
H950 H 0.81171 0.33133 0.78598 0.0
H951 H 0.79327 0.28329 0.77135 0.0
H952 H 0.72087 0.27586 0.68672 0.0
C953 C 0.68075 0.17433 0.69587 0.0
C954 C 0.73539 0.21544 0.75503 0.0
C955 C 0.67002 0.14674 0.68793 0.0
C956 C 0.7905 0.32788 0.77325 0.0
C957 C 0.7798 0.30034 0.76502 0.0
C958 C 0.72488 0.25935 0.70641 0.0
C959 C 0.70795 0.17979 0.71323 0.0
C960 C 0.71935 0.20933 0.72216 0.0
C961 C 0.75239 0.29494 0.74823 0.0
C962 C 0.74095 0.26543 0.73926 0.0
H963 H 0.72638 0.11183 0.721 0.0
H964 H 0.74534 0.15984 0.73469 0.0
H965 H 0.7025 0.22807 0.67211 0.0
H966 H 0.73347 0.36284 0.74238 0.0
H967 H 0.71463 0.31487 0.72793 0.0
C968 C 0.26984 0.1735 0.77512 0.0
C969 C 0.2406 0.16476 0.76919 0.0
C970 C 0.28046 0.20092 0.76602 0.0
C971 C 0.26376 0.26334 0.70872 0.0
H972 H 0.31992 0.3027 0.77374 0.0
C973 C 0.29827 0.38198 0.68903 0.0
C974 C 0.32739 0.39089 0.69556 0.0
C975 C 0.28776 0.35444 0.69768 0.0
C976 C 0.30452 0.29198 0.75492 0.0
H977 H 0.19967 0.17754 0.74833 0.0
H978 H 0.21794 0.22544 0.73269 0.0
H979 H 0.30172 0.25502 0.7891 0.0
H980 H 0.36821 0.37821 0.71688 0.0
H981 H 0.3502 0.33012 0.73158 0.0
H982 H 0.26656 0.3003 0.67454 0.0
C983 C 0.23287 0.21122 0.74419 0.0
C984 C 0.29403 0.26449 0.76379 0.0
C985 C 0.2223 0.18382 0.75335 0.0
C986 C 0.34569 0.37183 0.71141 0.0
C987 C 0.33524 0.3443 0.72004 0.0
C988 C 0.27426 0.29083 0.69985 0.0
C989 C 0.26214 0.22028 0.75046 0.0
C990 C 0.27345 0.24969 0.74086 0.0
C991 C 0.30608 0.33511 0.71333 0.0
C992 C 0.29483 0.30564 0.7228 0.0
H993 H 0.28454 0.15904 0.78662 0.0
H994 H 0.3032 0.20679 0.77068 0.0
H995 H 0.24833 0.25262 0.68995 0.0
H996 H 0.28349 0.39644 0.67772 0.0
H997 H 0.26508 0.34848 0.69273 0.0
C998 C 0.28915 0.83224 0.26395 0.0
C999 C 0.27118 0.85113 0.28085 0.0
C1000 C 0.27841 0.80491 0.25461 0.0
C1001 C 0.21737 0.75148 0.27485 0.0
H1002 H 0.24398 0.71619 0.18469 0.0
C1003 C 0.16506 0.64451 0.2218 0.0
C1004 C 0.18325 0.62545 0.20569 0.0
C1005 C 0.17559 0.67201 0.23052 0.0
C1006 C 0.2365 0.72552 0.21023 0.0
H1007 H 0.2275 0.85667 0.29963 0.0
H1008 H 0.2086 0.80909 0.28343 0.0
H1009 H 0.26241 0.76376 0.20041 0.0
H1010 H 0.22708 0.61988 0.18754 0.0
H1011 H 0.2456 0.66782 0.20254 0.0
H1012 H 0.19146 0.71325 0.28465 0.0
C1013 C 0.23126 0.81498 0.27821 0.0
C1014 C 0.24714 0.75295 0.21931 0.0
C1015 C 0.24205 0.84231 0.28756 0.0
C1016 C 0.21235 0.63435 0.19896 0.0
C1017 C 0.22294 0.66187 0.20765 0.0
C1018 C 0.20672 0.72407 0.26575 0.0
C1019 C 0.24928 0.79576 0.26166 0.0
C1020 C 0.23778 0.76641 0.2518 0.0
C1021 C 0.20474 0.68119 0.22362 0.0
C1022 C 0.21611 0.7106 0.23329 0.0
H1023 H 0.31167 0.83856 0.25831 0.0
H1024 H 0.29315 0.79083 0.24234 0.0
H1025 H 0.20993 0.76077 0.30043 0.0
H1026 H 0.14256 0.63814 0.22749 0.0
H1027 H 0.16073 0.68618 0.24232 0.0
C1028 C 0.93842 0.50105 0.54814 0.0
C1029 C 0.93019 0.52415 0.52725 0.0
C1030 C 0.96423 0.48825 0.53969 0.0
C1031 C 0.03522 0.5047 0.49161 0.0
H1032 H 0.04519 0.42529 0.50273 0.0
C1033 C 0.14863 0.46096 0.47702 0.0
C1034 C 0.1504 0.43509 0.45881 0.0
C1035 C 0.12162 0.47052 0.48703 0.0
C1036 C 0.04281 0.44753 0.49922 0.0
H1037 H 0.94166 0.55065 0.47964 0.0
H1038 H 0.98576 0.52812 0.46435 0.0
H1039 H 0.9979 0.44334 0.51514 0.0
H1040 H 0.12524 0.39921 0.43618 0.0
H1041 H 0.07813 0.4158 0.45323 0.0
H1042 H 0.07971 0.50896 0.47487 0.0
C1043 C 0.97304 0.5203 0.48803 0.0
C1044 C 0.01565 0.45795 0.50677 0.0
C1045 C 0.94751 0.53309 0.49657 0.0
C1046 C 0.12454 0.41905 0.4507 0.0
C1047 C 0.09752 0.42855 0.46069 0.0
C1048 C 0.06226 0.49433 0.48411 0.0
C1049 C 0.98236 0.49821 0.51007 0.0
C1050 C 0.01136 0.48671 0.50281 0.0
C1051 C 0.09556 0.45459 0.47876 0.0
C1052 C 0.06657 0.46556 0.48768 0.0
H1053 H 0.92571 0.49381 0.57213 0.0
H1054 H 0.97058 0.47136 0.55742 0.0
H1055 H 0.03314 0.52704 0.48883 0.0
H1056 H 0.16809 0.47416 0.48272 0.0
H1057 H 0.12122 0.49052 0.50119 0.0
C1058 C 0.38898 0.59305 0.94681 0.0
C1059 C 0.36342 0.57751 0.95764 0.0
C1060 C 0.41632 0.58436 0.95686 0.0
C1061 C 0.45401 0.53949 0.02361 0.0
H1062 H 0.514 0.54087 0.94773 0.0
C1063 C 0.57208 0.50964 0.05571 0.0
C1064 C 0.58326 0.49057 0.03043 0.0
C1065 C 0.54643 0.52269 0.04741 0.0
C1066 C 0.49754 0.54039 0.96932 0.0
H1067 H 0.34678 0.53978 0.98606 0.0
H1068 H 0.39437 0.52508 0.0048 0.0
H1069 H 0.46684 0.55825 0.93291 0.0
H1070 H 0.57679 0.47098 0.9762 0.0
H1071 H 0.53279 0.49423 0.96126 0.0
H1072 H 0.48472 0.52142 0.05994 0.0
C1073 C 0.39327 0.54436 0.9891 0.0
C1074 C 0.4705 0.55055 0.96088 0.0
C1075 C 0.36591 0.55292 0.97865 0.0
C1076 C 0.56885 0.48574 0.99612 0.0
C1077 C 0.5436 0.4991 0.98757 0.0
C1078 C 0.48123 0.5297 0.03223 0.0
C1079 C 0.41892 0.55984 0.97812 0.0
C1080 C 0.44819 0.54999 0.98776 0.0
C1081 C 0.53164 0.51735 0.01336 0.0
C1082 C 0.50331 0.5297 0.00507 0.0
H1083 H 0.3878 0.61192 0.93025 0.0
H1084 H 0.43547 0.59695 0.94805 0.0
H1085 H 0.43749 0.53891 0.04513 0.0
H1086 H 0.58247 0.51351 0.08254 0.0
H1087 H 0.53799 0.53676 0.06783 0.0
C1088 C 0.17049 0.40585 0.18561 0.0
C1089 C 0.18201 0.43 0.16692 0.0
C1090 C 0.18221 0.37987 0.18022 0.0
C1091 C 0.24662 0.34608 0.14109 0.0
H1092 H 0.19327 0.27985 0.13953 0.0
C1093 C 0.27928 0.23783 0.08722 0.0
C1094 C 0.26978 0.21388 0.10795 0.0
C1095 C 0.26918 0.26415 0.09546 0.0
C1096 C 0.20854 0.29807 0.14024 0.0
H1097 H 0.21525 0.44574 0.12822 0.0
H1098 H 0.23534 0.40039 0.11799 0.0
H1099 H 0.17508 0.32558 0.15194 0.0
H1100 H 0.24184 0.19903 0.15349 0.0
H1101 H 0.2241 0.24493 0.16775 0.0
H1102 H 0.27994 0.31841 0.12845 0.0
C1103 C 0.21757 0.40151 0.13753 0.0
C1104 C 0.19812 0.32442 0.14751 0.0
C1105 C 0.20602 0.42761 0.1433 0.0
C1106 C 0.24976 0.217 0.13707 0.0
C1107 C 0.23941 0.2433 0.14506 0.0
C1108 C 0.25698 0.31973 0.13346 0.0
C1109 C 0.20563 0.37712 0.15557 0.0
C1110 C 0.21698 0.3489 0.14812 0.0
C1111 C 0.24906 0.26727 0.12445 0.0
C1112 C 0.23809 0.29535 0.13293 0.0
H1113 H 0.15227 0.40703 0.20446 0.0
H1114 H 0.17281 0.36191 0.19547 0.0
H1115 H 0.262 0.36419 0.14189 0.0
H1116 H 0.29492 0.23632 0.06488 0.0
H1117 H 0.2769 0.28205 0.07878 0.0
C1118 C 0.3504 0.46668 0.36602 0.0
C1119 C 0.34622 0.44029 0.38339 0.0
C1120 C 0.37845 0.47894 0.35987 0.0
C1121 C 0.45461 0.45997 0.35143 0.0
H1122 H 0.47386 0.53942 0.36632 0.0
C1123 C 0.57311 0.50655 0.34902 0.0
C1124 C 0.57885 0.53279 0.33202 0.0
C1125 C 0.54453 0.49598 0.35516 0.0
C1126 C 0.46879 0.51724 0.36159 0.0
H1127 H 0.3684 0.40687 0.40965 0.0
H1128 H 0.41696 0.42808 0.39892 0.0
H1129 H 0.42432 0.52006 0.37735 0.0
H1130 H 0.5596 0.56845 0.30751 0.0
H1131 H 0.50947 0.54994 0.31774 0.0
H1132 H 0.4989 0.45704 0.33557 0.0
C1133 C 0.39867 0.43905 0.38917 0.0
C1134 C 0.44036 0.50614 0.36793 0.0
C1135 C 0.37075 0.42687 0.39533 0.0
C1136 C 0.55558 0.54824 0.32097 0.0
C1137 C 0.52695 0.53768 0.32705 0.0
C1138 C 0.48296 0.47104 0.34503 0.0
C1139 C 0.40296 0.46508 0.37096 0.0
C1140 C 0.43296 0.4773 0.36322 0.0
C1141 C 0.52102 0.51136 0.34417 0.0
C1142 C 0.49054 0.4998 0.35027 0.0
H1143 H 0.33204 0.47754 0.35627 0.0
H1144 H 0.38095 0.49893 0.34555 0.0
H1145 H 0.4496 0.43777 0.34675 0.0
H1146 H 0.59079 0.49423 0.35753 0.0
H1147 H 0.54088 0.47583 0.36884 0.0
C1148 C 0.267 0.80032 0.63113 0.0
C1149 C 0.25035 0.80574 0.59931 0.0
C1150 C 0.27659 0.77347 0.6376 0.0
C1151 C 0.28839 0.70606 0.58872 0.0
H1152 H 0.29262 0.6766 0.68946 0.0
C1153 C 0.3453 0.6048 0.62005 0.0
C1154 C 0.33395 0.58634 0.64792 0.0
C1155 C 0.33423 0.63101 0.61461 0.0
C1156 C 0.29131 0.68434 0.66108 0.0
H1157 H 0.23004 0.78662 0.55002 0.0
H1158 H 0.24644 0.74012 0.56131 0.0
H1159 H 0.27499 0.72301 0.67936 0.0
H1160 H 0.30157 0.58124 0.69168 0.0
H1161 H 0.28173 0.62684 0.68162 0.0
H1162 H 0.30396 0.66725 0.57026 0.0
C1163 C 0.25283 0.7567 0.58088 0.0
C1164 C 0.28156 0.71121 0.65531 0.0
C1165 C 0.2434 0.7835 0.57435 0.0
C1166 C 0.31076 0.59477 0.6698 0.0
C1167 C 0.29962 0.62111 0.66432 0.0
C1168 C 0.29803 0.67924 0.59446 0.0
C1169 C 0.26966 0.75123 0.61254 0.0
C1170 C 0.28001 0.72252 0.61901 0.0
C1171 C 0.31127 0.63968 0.63667 0.0
C1172 C 0.29984 0.66798 0.63072 0.0
H1173 H 0.27294 0.81694 0.65085 0.0
H1174 H 0.28982 0.77028 0.66201 0.0
H1175 H 0.2879 0.71401 0.56038 0.0
H1176 H 0.36285 0.59899 0.60223 0.0
H1177 H 0.3441 0.64471 0.59337 0.0
C1178 C 0.9585 0.46314 0.81073 0.0
C1179 C 0.93528 0.47896 0.8209 0.0
C1180 C 0.98714 0.47345 0.81736 0.0
C1181 C 0.03164 0.53978 0.83599 0.0
H1182 H 0.08889 0.49024 0.87102 0.0
C1183 C 0.14256 0.58313 0.89122 0.0
C1184 C 0.16733 0.56976 0.88003 0.0
C1185 C 0.11478 0.57101 0.884 0.0
C1186 C 0.07325 0.5043 0.86086 0.0
H1187 H 0.92345 0.51798 0.84526 0.0
H1188 H 0.97333 0.53592 0.85758 0.0
H1189 H 0.03946 0.47133 0.85812 0.0
H1190 H 0.18208 0.53258 0.85331 0.0
H1191 H 0.13337 0.51125 0.84078 0.0
H1192 H 0.06526 0.57276 0.83895 0.0
C1193 C 0.96966 0.51567 0.84416 0.0
C1194 C 0.04488 0.49345 0.85343 0.0
C1195 C 0.94109 0.50537 0.83744 0.0
C1196 C 0.16351 0.5434 0.86247 0.0
C1197 C 0.13558 0.53119 0.85527 0.0
C1198 C 0.0599 0.5506 0.84351 0.0
C1199 C 0.99313 0.49988 0.83417 0.0
C1200 C 0.02362 0.51111 0.84116 0.0
C1201 C 0.11086 0.54508 0.86546 0.0
C1202 C 0.08104 0.53308 0.85635 0.0
H1203 H 0.95444 0.4428 0.79763 0.0
H1204 H 1.0046 0.46087 0.8088 0.0
H1205 H 0.01612 0.55393 0.8258 0.0
H1206 H 0.14461 0.6031 0.90567 0.0
H1207 H 0.09629 0.58199 0.89309 0.0
C1208 C 0.77663 0.57 0.7972 0.0
C1209 C 0.78546 0.55142 0.8249 0.0
C1210 C 0.77121 0.59777 0.80611 0.0
C1211 C 0.78783 0.65305 0.87793 0.0
H1212 H 0.72595 0.68999 0.82932 0.0
C1213 C 0.7777 0.77337 0.88874 0.0
C1214 C 0.74982 0.78311 0.89143 0.0
C1215 C 0.78145 0.74492 0.88192 0.0
C1216 C 0.74319 0.67999 0.84347 0.0
H1217 H 0.79525 0.54792 0.88399 0.0
H1218 H 0.78524 0.59598 0.89959 0.0
H1219 H 0.73271 0.64087 0.81559 0.0
H1220 H 0.70401 0.77101 0.88828 0.0
H1221 H 0.71034 0.72121 0.87688 0.0
H1222 H 0.79807 0.69205 0.90618 0.0
C1223 C 0.78284 0.58918 0.87079 0.0
C1224 C 0.7473 0.65181 0.83521 0.0
C1225 C 0.7882 0.56139 0.8619 0.0
C1226 C 0.72573 0.76391 0.8868 0.0
C1227 C 0.72943 0.73545 0.87993 0.0
C1228 C 0.78375 0.68124 0.88612 0.0
C1229 C 0.77448 0.60789 0.84299 0.0
C1230 C 0.76973 0.63789 0.85226 0.0
C1231 C 0.75736 0.7255 0.87724 0.0
C1232 C 0.76141 0.6952 0.86897 0.0
H1233 H 0.77396 0.56314 0.76846 0.0
H1234 H 0.76507 0.6115 0.78381 0.0
H1235 H 0.80554 0.64327 0.89136 0.0
H1236 H 0.79664 0.7879 0.89117 0.0
H1237 H 0.80328 0.73829 0.87934 0.0
C1238 C 0.51246 0.48031 0.6338 0.0
C1239 C 0.49483 0.501 0.64682 0.0
C1240 C 0.54196 0.48683 0.62645 0.0
C1241 C 0.60264 0.53898 0.64884 0.0
H1242 H 0.63849 0.50943 0.56052 0.0
C1243 C 0.7191 0.57704 0.60384 0.0
C1244 C 0.73668 0.55742 0.58798 0.0
C1245 C 0.68968 0.56996 0.61075 0.0
C1246 C 0.62901 0.51759 0.58562 0.0
H1247 H 0.4937 0.54501 0.66058 0.0
H1248 H 0.54523 0.55644 0.64836 0.0
H1249 H 0.58734 0.49725 0.57315 0.0
H1250 H 0.73782 0.51494 0.56758 0.0
H1251 H 0.68653 0.50219 0.58013 0.0
H1252 H 0.64424 0.55907 0.66165 0.0
C1253 C 0.53655 0.535 0.64454 0.0
C1254 C 0.59958 0.51061 0.59282 0.0
C1255 C 0.50705 0.5285 0.65159 0.0
C1256 C 0.7245 0.53048 0.57944 0.0
C1257 C 0.69509 0.52331 0.58649 0.0
C1258 C 0.63209 0.54582 0.64178 0.0
C1259 C 0.55445 0.51426 0.63193 0.0
C1260 C 0.58595 0.5213 0.62446 0.0
C1261 C 0.67719 0.54295 0.60226 0.0
C1262 C 0.64574 0.53533 0.60998 0.0
H1263 H 0.5034 0.45904 0.62942 0.0
H1264 H 0.55507 0.4703 0.61694 0.0
H1265 H 0.59303 0.54726 0.67378 0.0
H1266 H 0.72814 0.59794 0.61068 0.0
H1267 H 0.67667 0.58584 0.62235 0.0
C1268 C 0.778 0.2509 0.40881 0.0
C1269 C 0.75939 0.22989 0.39253 0.0
C1270 C 0.7741 0.27935 0.40202 0.0
C1271 C 0.74042 0.32593 0.33371 0.0
H1272 H 0.75092 0.38203 0.41176 0.0
C1273 C 0.70888 0.44004 0.3118 0.0
C1274 C 0.72602 0.46217 0.3284 0.0
C1275 C 0.71366 0.412 0.3197 0.0
C1276 C 0.74828 0.36675 0.38944 0.0
H1277 H 0.72149 0.22187 0.35779 0.0
H1278 H 0.7145 0.27143 0.34589 0.0
H1279 H 0.75749 0.33292 0.42607 0.0
H1280 H 0.76219 0.47171 0.36592 0.0
H1281 H 0.77069 0.42287 0.37944 0.0
H1282 H 0.73141 0.35962 0.29698 0.0
C1283 C 0.73247 0.26613 0.36332 0.0
C1284 C 0.752 0.33849 0.39771 0.0
C1285 C 0.73632 0.23776 0.37026 0.0
C1286 C 0.74828 0.45533 0.35294 0.0
C1287 C 0.75313 0.42723 0.36077 0.0
C1288 C 0.73681 0.35415 0.3254 0.0
C1289 C 0.75149 0.28737 0.37875 0.0
C1290 C 0.74795 0.31763 0.37001 0.0
C1291 C 0.7358 0.40511 0.34439 0.0
C1292 C 0.7405 0.37502 0.35317 0.0
H1293 H 0.7959 0.24527 0.42617 0.0
H1294 H 0.78928 0.29503 0.41422 0.0
H1295 H 0.73767 0.31061 0.31143 0.0
H1296 H 0.69115 0.44434 0.29336 0.0
H1297 H 0.69947 0.39571 0.30702 0.0
C1298 C 1.0002 0.53295 0.14456 0.0
C1299 C 0.01761 0.51221 0.15798 0.0
C1300 C 0.97066 0.52663 0.13722 0.0
C1301 C 0.9094 0.4748 0.15952 0.0
H1302 H 0.87403 0.50517 0.07145 0.0
C1303 C 0.79297 0.43753 0.11246 0.0
C1304 C 0.77567 0.45729 0.09639 0.0
C1305 C 0.82228 0.44453 0.12032 0.0
C1306 C 0.88337 0.49678 0.09649 0.0
H1307 H 0.01825 0.46832 0.17252 0.0
H1308 H 0.96668 0.45721 0.16017 0.0
H1309 H 0.92519 0.51687 0.08432 0.0
H1310 H 0.7749 0.50004 0.07689 0.0
H1311 H 0.82596 0.51262 0.09104 0.0
H1312 H 0.86762 0.45487 0.1719 0.0
C1313 C 0.97555 0.47856 0.15608 0.0
C1314 C 0.91283 0.50349 0.10384 0.0
C1315 C 1.00509 0.48487 0.16318 0.0
C1316 C 0.78798 0.48437 0.08889 0.0
C1317 C 0.81728 0.49145 0.09684 0.0
C1318 C 0.87992 0.46819 0.15227 0.0
C1319 C 0.95786 0.49935 0.14304 0.0
C1320 C 0.92631 0.49252 0.1354 0.0
C1321 C 0.83496 0.4716 0.11253 0.0
C1322 C 0.86642 0.47899 0.12057 0.0
H1323 H 0.00947 0.5541 0.13988 0.0
H1324 H 0.95776 0.54323 0.12742 0.0
H1325 H 0.91885 0.4663 0.18441 0.0
H1326 H 0.78386 0.41652 0.1185 0.0
H1327 H 0.83511 0.42851 0.1319 0.0
C1328 C 0.74128 0.71767 0.58726 0.0
C1329 C 0.76418 0.70788 0.60845 0.0
C1330 C 0.73182 0.74461 0.59309 0.0
C1331 C 0.73311 0.80351 0.66147 0.0
H1332 H 0.7153 0.84732 0.57425 0.0
C1333 C 0.70516 0.92047 0.67257 0.0
C1334 C 0.68276 0.9289 0.64935 0.0
C1335 C 0.71641 0.89408 0.66788 0.0
C1336 C 0.71984 0.83534 0.59902 0.0
H1337 H 0.79495 0.71929 0.65266 0.0
H1338 H 0.77823 0.76593 0.66305 0.0
H1339 H 0.73109 0.80013 0.56629 0.0
H1340 H 0.65552 0.91633 0.60204 0.0
H1341 H 0.67451 0.87056 0.59441 0.0
H1342 H 0.72157 0.83869 0.69422 0.0
C1343 C 0.76737 0.75262 0.64211 0.0
C1344 C 0.72892 0.80816 0.59441 0.0
C1345 C 0.77692 0.72572 0.63618 0.0
C1346 C 0.67245 0.91049 0.62084 0.0
C1347 C 0.68366 0.88425 0.61614 0.0
C1348 C 0.7239 0.83071 0.6661 0.0
C1349 C 0.7449 0.76259 0.62037 0.0
C1350 C 0.73551 0.79175 0.62554 0.0
C1351 C 0.70569 0.8755 0.63969 0.0
C1352 C 0.7169 0.84697 0.63493 0.0
H1353 H 0.73054 0.7045 0.5661 0.0
H1354 H 0.7141 0.75131 0.57625 0.0
H1355 H 0.73774 0.79145 0.68614 0.0
H1356 H 0.71353 0.93399 0.69495 0.0
H1357 H 0.73357 0.88829 0.68633 0.0
C1358 C 0.87041 0.93408 0.88649 0.0
C1359 C 0.84591 0.94683 0.87308 0.0
C1360 C 0.8983 0.94617 0.88009 0.0
C1361 C 0.9404 0.01211 0.85567 0.0
H1362 H 0.99824 0.96153 0.82549 0.0
C1363 C 0.05693 0.05162 0.81033 0.0
C1364 C 0.07966 0.03575 0.82215 0.0
C1365 C 0.02803 0.04169 0.81586 0.0
C1366 C 0.98251 0.97596 0.83434 0.0
H1367 H 0.83169 0.98303 0.8435 0.0
H1368 H 0.88068 1.00438 0.83246 0.0
H1369 H 0.94867 0.94318 0.83687 0.0
H1370 H 0.09037 0.99704 0.84839 0.0
H1371 H 0.04003 0.9798 0.85888 0.0
H1372 H 0.97442 0.04488 0.85347 0.0
C1373 C 0.87813 0.98489 0.84795 0.0
C1374 C 0.95401 0.96541 0.84081 0.0
C1375 C 0.85006 0.97267 0.85429 0.0
C1376 C 0.07312 0.0097 0.83931 0.0
C1377 C 0.04428 0.99978 0.84496 0.0
C1378 C 0.96903 0.02269 0.84932 0.0
C1379 C 0.9026 0.97149 0.86023 0.0
C1380 C 0.93263 0.98327 0.85192 0.0
C1381 C 0.0213 0.01559 0.83323 0.0
C1382 C 0.99054 1.00468 0.8389 0.0
H1383 H 0.86806 0.91457 0.90197 0.0
H1384 H 0.91658 0.93563 0.8908 0.0
H1385 H 0.92452 0.02641 0.86446 0.0
H1386 H 0.06158 0.07169 0.79672 0.0
H1387 H 0.01099 0.05426 0.80599 0.0
C1388 C 0.80296 0.08831 0.13756 0.0
C1389 C 0.82671 0.08537 0.16141 0.0
C1390 C 0.79195 0.11468 0.13206 0.0
C1391 C 0.78896 0.18562 0.17299 0.0
H1392 H 0.77818 0.2094 0.07059 0.0
C1393 C 0.76599 0.30065 0.13718 0.0
C1394 C 0.74813 0.30552 0.10637 0.0
C1395 C 0.77515 0.27374 0.1443 0.0
C1396 C 0.78053 0.20309 0.09945 0.0
H1397 H 0.85671 0.10754 0.19944 0.0
H1398 H 0.83714 0.15335 0.19051 0.0
H1399 H 0.793 0.16239 0.0832 0.0
H1400 H 0.7253 0.28563 0.05946 0.0
H1401 H 0.74045 0.23883 0.07226 0.0
H1402 H 0.77598 0.22597 0.18946 0.0
C1403 C 0.82717 0.13538 0.17575 0.0
C1404 C 0.78914 0.17603 0.10663 0.0
C1405 C 0.83847 0.10917 0.18073 0.0
C1406 C 0.73954 0.28276 0.083 0.0
C1407 C 0.74834 0.25582 0.09038 0.0
C1408 C 0.77995 0.21257 0.16586 0.0
C1409 C 0.80411 0.1386 0.15084 0.0
C1410 C 0.79363 0.16699 0.14346 0.0
C1411 C 0.76634 0.2508 0.12113 0.0
C1412 C 0.77573 0.22185 0.12892 0.0
H1413 H 0.79354 0.07041 0.12215 0.0
H1414 H 0.77401 0.1164 0.11292 0.0
H1415 H 0.79197 0.17924 0.20172 0.0
H1416 H 0.77314 0.31774 0.15561 0.0
H1417 H 0.78941 0.27106 0.16784 0.0
C1418 C 0.44491 0.99016 0.34778 0.0
C1419 C 0.43896 0.96367 0.33154 0.0
C1420 C 0.47351 1.00092 0.35283 0.0
C1421 C 0.54958 0.98078 0.35762 0.0
H1422 H 0.56675 0.06041 0.34134 0.0
C1423 C 0.66661 0.0358 0.36231 0.0
C1424 C 0.66934 0.06224 0.37983 0.0
C1425 C 0.63913 0.02222 0.35602 0.0
C1426 C 0.56232 0.03817 0.34635 0.0
H1427 H 0.45787 0.92784 0.30696 0.0
H1428 H 0.50821 0.94672 0.31541 0.0
H1429 H 0.51794 0.03988 0.33044 0.0
H1430 H 0.64529 0.09418 0.40655 0.0
H1431 H 0.5978 0.07074 0.3955 0.0
H1432 H 0.59424 0.97927 0.37347 0.0
C1433 C 0.4908 0.95897 0.32501 0.0
C1434 C 0.53425 0.02637 0.34014 0.0
C1435 C 0.46207 0.94819 0.32 0.0
C1436 C 0.64403 0.07423 0.39204 0.0
C1437 C 0.61673 0.06076 0.38572 0.0
C1438 C 0.5778 0.99263 0.36376 0.0
C1439 C 0.49689 0.98557 0.34136 0.0
C1440 C 0.52734 0.9976 0.34619 0.0
C1441 C 0.61384 0.03482 0.36708 0.0
C1442 C 0.58439 0.02157 0.35872 0.0
H1443 H 0.42735 1.00258 0.35647 0.0
H1444 H 0.47727 0.02126 0.36599 0.0
H1445 H 0.54503 0.95859 0.36283 0.0
H1446 H 0.68562 0.02601 0.35246 0.0
H1447 H 0.63767 1.00228 0.34151 0.0
C1448 C 0.3003 0.07135 0.31114 0.0
C1449 C 0.28517 0.04839 0.32867 0.0
C1450 C 0.2935 0.09885 0.31871 0.0
C1451 C 0.2382 0.14315 0.3585 0.0
H1452 H 0.30474 0.19574 0.37401 0.0
C1453 C 0.22695 0.25794 0.4098 0.0
C1454 C 0.24569 0.27891 0.39365 0.0
C1455 C 0.23078 0.22945 0.40302 0.0
C1456 C 0.28584 0.18153 0.36932 0.0
H1457 H 0.24988 0.03646 0.36647 0.0
H1458 H 0.23778 0.08476 0.37964 0.0
H1459 H 0.31201 0.14717 0.35867 0.0
H1460 H 0.28353 0.28679 0.35876 0.0
H1461 H 0.29004 0.23736 0.34622 0.0
H1462 H 0.21203 0.17774 0.36887 0.0
C1463 C 0.25502 0.08134 0.36001 0.0
C1464 C 0.29003 0.15355 0.36053 0.0
C1465 C 0.26188 0.05365 0.35241 0.0
C1466 C 0.26868 0.27096 0.37129 0.0
C1467 C 0.27248 0.24259 0.36441 0.0
C1468 C 0.23398 0.1713 0.36716 0.0
C1469 C 0.27131 0.10434 0.34402 0.0
C1470 C 0.26632 0.13398 0.35458 0.0
C1471 C 0.25357 0.22133 0.38008 0.0
C1472 C 0.25777 0.19099 0.37235 0.0
H1473 H 0.31799 0.06806 0.29212 0.0
H1474 H 0.30601 0.11591 0.30504 0.0
H1475 H 0.21943 0.12874 0.35395 0.0
H1476 H 0.20922 0.26362 0.42743 0.0
H1477 H 0.21604 0.21381 0.41608 0.0
C1478 C 0.99963 0.02592 0.1227 0.0
C1479 C 0.99029 1.00319 0.14567 0.0
C1480 C 0.02919 0.03205 0.11566 0.0
C1481 C 0.10147 0.02662 0.15454 0.0
H1482 H 0.12865 0.03425 0.0521 0.0
C1483 C 0.21625 0.07432 0.11287 0.0
C1484 C 0.23177 0.05845 0.08766 0.0
C1485 C 0.18699 0.06698 0.12055 0.0
C1486 C 0.12138 0.03213 0.08083 0.0
H1487 H 1.00459 0.97024 0.18125 0.0
H1488 H 0.05652 0.98153 0.16995 0.0
H1489 H 0.07705 0.02285 0.06463 0.0
H1490 H 0.22911 0.02182 0.05186 0.0
H1491 H 0.17751 0.00971 0.06391 0.0
H1492 H 0.1457 0.0366 0.17075 0.0
C1493 C 0.04086 0.99407 0.15653 0.0
C1494 C 0.09185 0.02576 0.08801 0.0
C1495 C 0.01122 0.98756 0.16291 0.0
C1496 C 0.21747 0.03487 0.07061 0.0
C1497 C 0.18802 0.02788 0.07765 0.0
C1498 C 0.13091 0.0336 0.14739 0.0
C1499 C 0.05015 0.01619 0.13246 0.0
C1500 C 0.08157 0.02284 0.12493 0.0
C1501 C 0.17247 0.04381 0.1028 0.0
C1502 C 0.14121 0.03634 0.11044 0.0
H1503 H 0.98404 0.03903 0.11022 0.0
H1504 H 0.03571 0.04953 0.09756 0.0
H1505 H 0.09416 0.02464 0.18327 0.0
H1506 H 0.22683 0.09245 0.12664 0.0
H1507 H 0.17556 0.07969 0.13998 0.0
C1508 C 0.28362 0.75301 0.9055 0.0
C1509 C 0.2654 0.73159 0.88944 0.0
C1510 C 0.2794 0.78132 0.89805 0.0
C1511 C 0.24485 0.82692 0.82899 0.0
H1512 H 0.25459 0.88355 0.90646 0.0
C1513 C 0.21099 0.9403 0.80642 0.0
C1514 C 0.22792 0.96277 0.82258 0.0
C1515 C 0.21631 0.9124 0.81452 0.0
C1516 C 0.25215 0.86812 0.88429 0.0
H1517 H 0.22777 0.72277 0.85444 0.0
H1518 H 0.22024 0.77203 0.84136 0.0
H1519 H 0.26212 0.83471 0.9212 0.0
H1520 H 0.26429 0.97303 0.85954 0.0
H1521 H 0.27364 0.92448 0.87347 0.0
H1522 H 0.23499 0.86022 0.79203 0.0
C1523 C 0.23822 0.76717 0.85906 0.0
C1524 C 0.25645 0.84001 0.8928 0.0
C1525 C 0.2424 0.73894 0.86664 0.0
C1526 C 0.2505 0.95641 0.84691 0.0
C1527 C 0.25585 0.92845 0.85497 0.0
C1528 C 0.24064 0.855 0.82046 0.0
C1529 C 0.2568 0.78881 0.87437 0.0
C1530 C 0.2527 0.81895 0.86532 0.0
C1531 C 0.23876 0.90599 0.83901 0.0
C1532 C 0.24405 0.87606 0.84801 0.0
H1533 H 0.30139 0.74782 0.92337 0.0
H1534 H 0.29426 0.7973 0.9102 0.0
H1535 H 0.2423 0.81147 0.80686 0.0
H1536 H 0.19304 0.94421 0.78815 0.0
H1537 H 0.20229 0.89584 0.80214 0.0
C1538 C 0.29576 0.9368 0.59964 0.0
C1539 C 0.27816 0.95684 0.5849 0.0
C1540 C 0.32515 0.94373 0.60695 0.0
C1541 C 0.38575 0.99688 0.58455 0.0
H1542 H 0.42166 0.96484 0.6711 0.0
C1543 C 0.50226 0.03294 0.63398 0.0
C1544 C 0.51987 0.01199 0.64625 0.0
C1545 C 0.47278 0.02657 0.6264 0.0
C1546 C 0.41207 0.97378 0.64659 0.0
H1547 H 0.27695 0.9999 0.56685 0.0
H1548 H 0.32818 0.01239 0.58014 0.0
H1549 H 0.37049 0.95328 0.65844 0.0
H1550 H 0.52097 0.96774 0.65848 0.0
H1551 H 0.46948 0.95654 0.64573 0.0
H1552 H 0.4274 0.01759 0.57301 0.0
C1553 C 0.31966 0.99107 0.58533 0.0
C1554 C 0.38264 0.9671 0.63924 0.0
C1555 C 0.29028 0.98404 0.57788 0.0
C1556 C 0.50764 0.98442 0.65004 0.0
C1557 C 0.47816 0.97805 0.64271 0.0
C1558 C 0.41517 1.00369 0.59203 0.0
C1559 C 0.33759 0.97101 0.59998 0.0
C1560 C 0.36901 0.97845 0.60802 0.0
C1561 C 0.46027 0.99904 0.63085 0.0
C1562 C 0.42878 0.99215 0.62309 0.0
H1563 H 0.28677 0.91567 0.60527 0.0
H1564 H 0.33819 0.92755 0.61765 0.0
H1565 H 0.37628 1.00573 0.55991 0.0
H1566 H 0.51134 0.05429 0.6304 0.0
H1567 H 0.4597 0.0433 0.61752 0.0
C1568 C 0.41896 0.1962 0.05583 0.0
C1569 C 0.4202 0.16758 0.06363 0.0
C1570 C 0.44443 0.21346 0.05298 0.0
C1571 C 0.51989 0.2201 0.08353 0.0
H1572 H 0.52846 0.2747 0.00336 0.0
C1573 C 0.62117 0.29781 0.06994 0.0
C1574 C 0.61513 0.32545 0.06165 0.0
C1575 C 0.59925 0.2762 0.06716 0.0
C1576 C 0.52633 0.25968 0.02605 0.0
H1577 H 0.44841 0.13425 0.07468 0.0
H1578 H 0.49329 0.16461 0.07021 0.0
H1579 H 0.48615 0.24137 0.00469 0.0
H1580 H 0.58224 0.35273 0.04426 0.0
H1581 H 0.54382 0.3153 0.03986 0.0
H1582 H 0.5596 0.23897 0.10559 0.0
C1583 C 0.47268 0.17369 0.06627 0.0
C1584 C 0.50213 0.2406 0.02675 0.0
C1585 C 0.44716 0.15637 0.06876 0.0
C1586 C 0.5872 0.33137 0.05041 0.0
C1587 C 0.56537 0.30992 0.04768 0.0
C1588 C 0.54405 0.23934 0.08297 0.0
C1589 C 0.47154 0.20238 0.05821 0.0
C1590 C 0.49841 0.22097 0.05586 0.0
C1591 C 0.57108 0.28208 0.0561 0.0
C1592 C 0.54723 0.2597 0.05461 0.0
H1593 H 0.39826 0.20514 0.05195 0.0
H1594 H 0.44292 0.23557 0.04725 0.0
H1595 H 0.51745 0.20528 0.10643 0.0
H1596 H 0.64269 0.29303 0.07875 0.0
H1597 H 0.60435 0.25495 0.07359 0.0
C1598 C 0.40485 0.80203 0.31512 0.0
C1599 C 0.40836 0.8264 0.29303 0.0
C1600 C 0.4255 0.782 0.31425 0.0
C1601 C 0.48492 0.75608 0.25837 0.0
H1602 H 0.51392 0.73183 0.35395 0.0
C1603 C 0.58735 0.69385 0.26988 0.0
C1604 C 0.58763 0.6729 0.29739 0.0
C1605 C 0.56485 0.71195 0.26868 0.0
C1606 C 0.5058 0.73799 0.32699 0.0
H1607 H 0.43636 0.84849 0.25235 0.0
H1608 H 0.47188 0.81323 0.25025 0.0
H1609 H 0.47478 0.7634 0.35224 0.0
H1610 H 0.56431 0.65394 0.34457 0.0
H1611 H 0.5248 0.68503 0.34208 0.0
H1612 H 0.51565 0.73047 0.23301 0.0
C1613 C 0.45306 0.80963 0.2681 0.0
C1614 C 0.48338 0.75612 0.32605 0.0
C1615 C 0.43259 0.82978 0.26923 0.0
C1616 C 0.5649 0.67024 0.32347 0.0
C1617 C 0.54228 0.68812 0.32205 0.0
C1618 C 0.50716 0.73769 0.25927 0.0
C1619 C 0.44996 0.78575 0.29101 0.0
C1620 C 0.47282 0.76548 0.29176 0.0
C1621 C 0.54199 0.70928 0.29473 0.0
C1622 C 0.51801 0.72853 0.29361 0.0
H1623 H 0.38622 0.79849 0.33329 0.0
H1624 H 0.42239 0.76359 0.33185 0.0
H1625 H 0.477 0.76277 0.23153 0.0
H1626 H 0.60473 0.69646 0.2496 0.0
H1627 H 0.56562 0.72828 0.24763 0.0
C1628 C 0.08304 0.84129 0.55311 0.0
C1629 C 0.11006 0.83067 0.55983 0.0
C1630 C 0.05806 0.82331 0.55198 0.0
C1631 C 0.03138 0.75003 0.5386 0.0
H1632 H 0.96528 0.77176 0.59597 0.0
C1633 C 0.93331 0.67316 0.56906 0.0
C1634 C 0.90566 0.68349 0.56908 0.0
C1635 C 0.95794 0.69147 0.56609 0.0
C1636 C 0.98335 0.76558 0.57932 0.0
H1637 H 0.13282 0.79337 0.56981 0.0
H1638 H 0.08881 0.76143 0.56766 0.0
H1639 H 0.00933 0.80275 0.59385 0.0
H1640 H 0.88156 0.72053 0.56486 0.0
H1641 H 0.92484 0.75297 0.55896 0.0
H1642 H 1.0054 0.71295 0.52383 0.0
C1643 C 0.08699 0.78366 0.56318 0.0
C1644 C 0.0086 0.78329 0.57822 0.0
C1645 C 0.11205 0.80178 0.56453 0.0
C1646 C 0.90283 0.71234 0.56537 0.0
C1647 C 0.92754 0.73076 0.56215 0.0
C1648 C 1.00604 0.7324 0.53948 0.0
C1649 C 0.05972 0.79436 0.55739 0.0
C1650 C 0.0329 0.77562 0.55802 0.0
C1651 C 0.95539 0.7205 0.56258 0.0
C1652 C 0.9818 0.73987 0.5601 0.0
H1653 H 0.08125 0.86361 0.54934 0.0
H1654 H 0.03742 0.83206 0.54696 0.0
H1655 H 0.04967 0.74381 0.5224 0.0
H1656 H 0.93581 0.65084 0.57155 0.0
H1657 H 0.97899 0.68288 0.56709 0.0
C1658 C 0.09441 0.19782 0.75942 0.0
C1659 C 0.09339 0.17716 0.78745 0.0
C1660 C 0.07295 0.21702 0.75738 0.0
C1661 C 0.99763 0.22671 0.785 0.0
H1662 H 0.01925 0.30594 0.77198 0.0
C1663 C 0.91611 0.31164 0.80595 0.0
C1664 C 0.91828 0.33529 0.78247 0.0
C1665 C 0.93702 0.29187 0.80468 0.0
C1666 C 0.01276 0.28385 0.77503 0.0
H1667 H 0.06889 0.16012 0.83493 0.0
H1668 H 0.03152 0.19368 0.83146 0.0
H1669 H 0.05674 0.27247 0.77296 0.0
H1670 H 0.94419 0.35652 0.73902 0.0
H1671 H 0.98002 0.32163 0.73593 0.0
H1672 H 0.95368 0.23794 0.78684 0.0
C1673 C 0.04887 0.19502 0.81105 0.0
C1674 C 0.03428 0.2647 0.77568 0.0
C1675 C 0.07043 0.17602 0.81329 0.0
C1676 C 0.94161 0.33841 0.75722 0.0
C1677 C 0.96242 0.31858 0.75582 0.0
C1678 C 0.97609 0.24583 0.78409 0.0
C1679 C 0.04988 0.21573 0.78309 0.0
C1680 C 0.02697 0.23595 0.78099 0.0
C1681 C 0.96056 0.29519 0.77978 0.0
C1682 C 0.98339 0.27468 0.77939 0.0
H1683 H 0.11192 0.19927 0.73924 0.0
H1684 H 0.07418 0.23265 0.73539 0.0
H1685 H 0.99131 0.20462 0.78858 0.0
H1686 H 0.89826 0.30838 0.82543 0.0
H1687 H 0.93502 0.27429 0.82383 0.0
C1688 C 0.40619 0.71293 0.99235 0.0
C1689 C 0.40435 0.69095 0.96613 0.0
C1690 C 0.4331 0.72515 0.00323 0.0
C1691 C 0.5126 0.71749 0.99616 0.0
H1692 H 0.51622 0.79877 0.99175 0.0
C1693 C 0.60975 0.78559 0.94187 0.0
C1694 C 0.61789 0.81072 0.96051 0.0
C1695 C 0.58543 0.7691 0.95352 0.0
C1696 C 0.51552 0.77612 0.99392 0.0
H1697 H 0.42924 0.66338 0.93255 0.0
H1698 H 0.47607 0.68567 0.94986 0.0
H1699 H 0.46937 0.77261 0.99294 0.0
H1700 H 0.60766 0.83829 0.0061 0.0
H1701 H 0.56447 0.80957 0.02605 0.0
H1702 H 0.559 0.72127 0.99436 0.0
C1703 C 0.45683 0.69316 0.96267 0.0
C1704 C 0.48867 0.76107 0.9947 0.0
C1705 C 0.42996 0.68074 0.95212 0.0
C1706 C 0.6017 0.81892 0.99139 0.0
C1707 C 0.57713 0.80258 0.00276 0.0
C1708 C 0.53948 0.73258 0.99492 0.0
C1709 C 0.45869 0.71587 0.98779 0.0
C1710 C 0.48692 0.73157 0.99446 0.0
C1711 C 0.56872 0.77765 0.98371 0.0
C1712 C 0.54106 0.76195 0.99251 0.0
H1713 H 0.38684 0.72131 0.00361 0.0
H1714 H 0.43382 0.74236 0.02301 0.0
H1715 H 0.51194 0.6948 0.99684 0.0
H1716 H 0.62216 0.77878 0.91824 0.0
H1717 H 0.57909 0.75015 0.93806 0.0
C1718 C 0.53458 0.15514 0.65855 0.0
C1719 C 0.55728 0.15086 0.68347 0.0
C1720 C 0.51981 0.1796 0.66042 0.0
C1721 C 0.50678 0.2404 0.72148 0.0
H1722 H 0.48595 0.2742 0.62749 0.0
C1723 C 0.47029 0.35362 0.70743 0.0
C1724 C 0.44661 0.35729 0.68367 0.0
C1725 C 0.48246 0.32769 0.70951 0.0
C1726 C 0.49137 0.26484 0.65396 0.0
H1727 H 0.58235 0.16854 0.73 0.0
H1728 H 0.55705 0.21173 0.73276 0.0
H1729 H 0.51003 0.23051 0.62704 0.0
H1730 H 0.41634 0.33621 0.64481 0.0
H1731 H 0.43801 0.29117 0.64791 0.0
H1732 H 0.48865 0.27538 0.7482 0.0
C1733 C 0.55017 0.19595 0.71228 0.0
C1734 C 0.50509 0.23975 0.65376 0.0
C1735 C 0.56474 0.1713 0.71066 0.0
C1736 C 0.43499 0.33429 0.66271 0.0
C1737 C 0.4473 0.30847 0.66457 0.0
C1738 C 0.49326 0.26569 0.72165 0.0
C1739 C 0.52766 0.20049 0.68697 0.0
C1740 C 0.51291 0.22715 0.6875 0.0
C1741 C 0.47133 0.305 0.68769 0.0
C1742 C 0.48537 0.27808 0.68787 0.0
H1743 H 0.52813 0.13947 0.63771 0.0
H1744 H 0.50218 0.18209 0.64104 0.0
H1745 H 0.51214 0.23109 0.74799 0.0
H1746 H 0.47994 0.37098 0.72366 0.0
H1747 H 0.50115 0.32564 0.7273 0.0
C1748 C 0.08223 0.33376 0.45447 0.0
C1749 C 0.10742 0.32315 0.46914 0.0
C1750 C 0.055 0.32239 0.46535 0.0
C1751 C 0.02114 0.25614 0.5005 0.0
H1752 H 0.95204 0.29768 0.49669 0.0
C1753 C 0.90726 0.20056 0.49829 0.0
C1754 C 0.89171 0.20792 0.46645 0.0
C1755 C 0.93183 0.21697 0.50943 0.0
C1756 C 0.97121 0.28591 0.49824 0.0
H1757 H 0.12383 0.29324 0.50817 0.0
H1758 H 0.07626 0.27411 0.5282 0.0
H1759 H 0.99969 0.32309 0.49848 0.0
H1760 H 0.88851 0.23857 0.42228 0.0
H1761 H 0.93161 0.26733 0.44171 0.0
H1762 H 0.99267 0.21901 0.49928 0.0
C1763 C 0.07756 0.29076 0.5076 0.0
C1764 C 0.99843 0.30038 0.49907 0.0
C1765 C 0.10482 0.30191 0.49635 0.0
C1766 C 0.90041 0.2324 0.44669 0.0
C1767 C 0.92476 0.24898 0.45809 0.0
C1768 C 0.99395 0.24173 0.50016 0.0
C1769 C 0.05237 0.30038 0.4915 0.0
C1770 C 0.0237 0.2856 0.4986 0.0
C1771 C 0.94092 0.24114 0.48916 0.0
C1772 C 0.96885 0.25649 0.49752 0.0
H1773 H 0.08353 0.35061 0.43414 0.0
H1774 H 0.0361 0.33011 0.45202 0.0
H1775 H 0.04009 0.24404 0.49968 0.0
H1776 H 0.90088 0.18169 0.51387 0.0
H1777 H 0.94406 0.21053 0.53342 0.0
C1778 C 0.97489 0.85818 0.16088 0.0
C1779 C 0.953 0.86341 0.18663 0.0
C1780 C 0.98918 0.83345 0.16291 0.0
C1781 C 1.00272 0.77379 0.2257 0.0
H1782 H 0.02157 0.73783 0.13236 0.0
C1783 C 0.03912 0.66028 0.2147 0.0
C1784 C 0.06264 0.65632 0.19078 0.0
C1785 C 0.0267 0.68612 0.21601 0.0
C1786 C 0.01667 0.74778 0.15864 0.0
H1787 H 0.92878 0.84706 0.23463 0.0
H1788 H 0.95322 0.80339 0.23769 0.0
H1789 H 0.99771 0.78166 0.13107 0.0
H1790 H 0.09234 0.67683 0.15072 0.0
H1791 H 0.0702 0.72166 0.15243 0.0
H1792 H 0.02117 0.73929 0.2531 0.0
C1793 C 0.95988 0.81865 0.21646 0.0
C1794 C 1.00309 0.77295 0.15794 0.0
C1795 C 0.9458 0.84358 0.21467 0.0
C1796 C 0.07381 0.67895 0.16877 0.0
C1797 C 0.06124 0.70465 0.16984 0.0
C1798 C 0.01608 0.74842 0.22637 0.0
C1799 C 0.98164 0.81322 0.19045 0.0
C1800 C 0.99605 0.78636 0.19145 0.0
C1801 C 0.03742 0.70841 0.19321 0.0
C1802 C 0.02327 0.73526 0.19282 0.0
H1803 H 0.98111 0.87336 0.13933 0.0
H1804 H 1.00626 0.83026 0.14293 0.0
H1805 H 0.99799 0.78373 0.25202 0.0
H1806 H 0.0298 0.64322 0.23173 0.0
H1807 H 0.00819 0.68842 0.23404 0.0
loop_
_geom_bond_atom_site_label_1
_geom_bond_atom_site_label_2
_geom_bond_distance
_geom_bond_site_symmetry_2
_ccdc_geom_bond_type
C0 C1 1.443 . S
C0 N4 1.376 . S
C0 C38 1.389 . S
C1 C0 1.443 . S
C1 C2 1.340 . S
C1 H41 0.951 . S
C2 C1 1.340 . S
C2 C3 1.439 . S
C2 H42 0.950 . S
C3 C2 1.439 . S
C3 N4 1.374 . S
C3 C37 1.395 . S
N4 C0 1.376 . S
N4 C3 1.374 . S
N4 Co5 2.008 1_556 S
Co5 N4 2.008 1_554 S
Co5 N6 1.995 1_554 S
Co5 N11 2.008 . S
Co5 N16 1.995 . S
Co5 N21 2.282 . S
Co5 N27 2.282 1_554 S
N6 Co5 1.995 1_556 S
N6 C7 1.376 . S
N6 C10 1.383 . S
C7 N6 1.376 . S
C7 C8 1.446 . S
C7 C37 1.391 . S
C8 C7 1.446 . S
C8 C9 1.339 . S
C8 H43 0.949 . S
C9 C8 1.339 . S
C9 C10 1.439 . S
C9 H44 0.950 . S
C10 N6 1.383 . S
C10 C9 1.439 . S
C10 C39 1.392 1_556 S
N11 Co5 2.008 . S
N11 C12 1.376 . S
N11 C15 1.374 . S
C12 N11 1.376 . S
C12 C13 1.443 . S
C12 C39 1.389 . S
C13 C12 1.443 . S
C13 C14 1.340 . S
C13 H45 0.951 . S
C14 C13 1.340 . S
C14 C15 1.439 . S
C14 H46 0.950 . S
C15 N11 1.374 . S
C15 C14 1.439 . S
C15 C40 1.395 . S
N16 Co5 1.995 . S
N16 C17 1.376 . S
N16 C20 1.383 . S
C17 N16 1.376 . S
C17 C18 1.446 . S
C17 C40 1.391 . S
C18 C17 1.446 . S
C18 C19 1.339 . S
C18 H47 0.949 . S
C19 C18 1.339 . S
C19 C20 1.439 . S
C19 H48 0.950 . S
C20 N16 1.383 . S
C20 C19 1.439 . S
C20 C38 1.392 1_554 S
N21 Co5 2.282 . S
N21 C24 1.332 . S
N21 C26 1.332 1_554 S
C22 C23 1.386 . S
C22 C25 1.388 1_554 S
C23 C22 1.386 . S
C23 C24 1.382 . S
C23 H49 0.950 . S
C24 N21 1.332 . S
C24 C23 1.382 . S
C24 H35 0.952 . S
C25 C22 1.388 1_556 S
C25 C26 1.382 . S
C25 H50 0.950 . S
C26 N21 1.332 1_556 S
C26 C25 1.382 . S
C26 H36 0.948 . S
N27 Co5 2.282 1_556 S
N27 C31 1.332 . S
N27 C32 1.332 1_556 S
C28 C29 1.388 1_554 S
C28 C32 1.382 . S
C28 H51 0.950 . S
C29 C28 1.388 1_556 S
C29 C30 1.386 . S
C30 C29 1.386 . S
C30 C31 1.382 . S
C30 H52 0.950 . S
C31 N27 1.332 . S
C31 C30 1.382 . S
C31 H33 0.952 . S
C32 N27 1.332 1_554 S
C32 C28 1.382 . S
C32 H34 0.948 . S
H33 C31 0.952 . S
H34 C32 0.948 . S
H35 C24 0.952 . S
H36 C26 0.948 . S
C37 C3 1.395 . S
C37 C7 1.391 . S
C38 C0 1.389 . S
C38 C20 1.392 1_556 S
C39 C10 1.392 1_554 S
C39 C12 1.389 . S
C40 C15 1.395 . S
C40 C17 1.391 . S
H41 C1 0.951 . S
H42 C2 0.950 . S
H43 C8 0.949 . S
H44 C9 0.950 . S
H45 C13 0.951 . S
H46 C14 0.950 . S
H47 C18 0.949 . S
H48 C19 0.950 . S
H49 C23 0.950 . S
H50 C25 0.950 . S
H51 C28 0.950 . S
H52 C30 0.950 . S
C53 C54 1.443 . S
C53 N57 1.376 . S
C53 C91 1.389 . S
C54 C53 1.443 . S
C54 C55 1.340 . S
C54 H94 0.951 . S
C55 C54 1.340 . S
C55 C56 1.439 . S
C55 H95 0.950 . S
C56 C55 1.439 . S
C56 N57 1.374 . S
C56 C90 1.395 . S
N57 C53 1.376 . S
N57 C56 1.374 . S
N57 Co58 2.008 . S
Co58 N57 2.008 . S
Co58 N59 1.995 . S
Co58 N64 2.008 . S
Co58 N69 1.995 . S
Co58 N74 2.282 . S
Co58 N80 2.282 . S
N59 Co58 1.995 . S
N59 C60 1.376 . S
N59 C63 1.383 . S
C60 N59 1.376 . S
C60 C61 1.446 . S
C60 C90 1.391 . S
C61 C60 1.446 . S
C61 C62 1.339 . S
C61 H96 0.949 . S
C62 C61 1.339 . S
C62 C63 1.439 . S
C62 H97 0.950 . S
C63 N59 1.383 . S
C63 C62 1.439 . S
C63 C92 1.392 . S
N64 Co58 2.008 . S
N64 C65 1.376 . S
N64 C68 1.374 . S
C65 N64 1.376 . S
C65 C66 1.443 . S
C65 C92 1.389 . S
C66 C65 1.443 . S
C66 C67 1.340 . S
C66 H98 0.951 . S
C67 C66 1.340 . S
C67 C68 1.439 . S
C67 H99 0.950 . S
C68 N64 1.374 . S
C68 C67 1.439 . S
C68 C93 1.395 . S
N69 Co58 1.995 . S
N69 C70 1.376 . S
N69 C73 1.383 . S
C70 N69 1.376 . S
C70 C71 1.446 . S
C70 C93 1.391 . S
C71 C70 1.446 . S
C71 C72 1.339 . S
C71 H100 0.949 . S
C72 C71 1.339 . S
C72 C73 1.439 . S
C72 H101 0.950 . S
C73 N69 1.383 . S
C73 C72 1.439 . S
C73 C91 1.392 . S
N74 Co58 2.282 . S
N74 C77 1.332 . S
N74 C79 1.332 . S
C75 C76 1.386 . S
C75 C78 1.388 . S
C76 C75 1.386 . S
C76 C77 1.382 . S
C76 H102 0.950 . S
C77 N74 1.332 . S
C77 C76 1.382 . S
C77 H88 0.952 . S
C78 C75 1.388 . S
C78 C79 1.382 . S
C78 H103 0.950 . S
C79 N74 1.332 . S
C79 C78 1.382 . S
C79 H89 0.948 . S
N80 Co58 2.282 . S
N80 C84 1.332 . S
N80 C85 1.332 . S
C81 C82 1.388 . S
C81 C85 1.382 . S
C81 H104 0.950 . S
C82 C81 1.388 . S
C82 C83 1.386 . S
C83 C82 1.386 . S
C83 C84 1.382 . S
C83 H105 0.950 . S
C84 N80 1.332 . S
C84 C83 1.382 . S
C84 H86 0.952 . S
C85 N80 1.332 . S
C85 C81 1.382 . S
C85 H87 0.948 . S
H86 C84 0.952 . S
H87 C85 0.948 . S
H88 C77 0.952 . S
H89 C79 0.948 . S
C90 C56 1.395 . S
C90 C60 1.391 . S
C91 C53 1.389 . S
C91 C73 1.392 . S
C92 C63 1.392 . S
C92 C65 1.389 . S
C93 C68 1.395 . S
C93 C70 1.391 . S
H94 C54 0.951 . S
H95 C55 0.950 . S
H96 C61 0.949 . S
H97 C62 0.950 . S
H98 C66 0.951 . S
H99 C67 0.950 . S
H100 C71 0.949 . S
H101 C72 0.950 . S
H102 C76 0.950 . S
H103 C78 0.950 . S
H104 C81 0.950 . S
H105 C83 0.950 . S
C106 C107 1.443 . S
C106 N110 1.376 . S
C106 C144 1.389 . S
C107 C106 1.443 . S
C107 C108 1.340 . S
C107 H147 0.951 . S
C108 C107 1.340 . S
C108 C109 1.439 . S
C108 H148 0.950 . S
C109 C108 1.439 . S
C109 N110 1.374 . S
C109 C143 1.395 . S
N110 C106 1.376 . S
N110 C109 1.374 . S
N110 Co111 2.008 . S
Co111 N110 2.008 . S
Co111 N112 1.995 . S
Co111 N117 2.008 . S
Co111 N122 1.995 . S
Co111 N127 2.282 . S
Co111 N133 2.282 . S
N112 Co111 1.995 . S
N112 C113 1.376 . S
N112 C116 1.383 . S
C113 N112 1.376 . S
C113 C114 1.446 . S
C113 C143 1.391 . S
C114 C113 1.446 . S
C114 C115 1.339 . S
C114 H149 0.949 . S
C115 C114 1.339 . S
C115 C116 1.439 . S
C115 H150 0.950 . S
C116 N112 1.383 . S
C116 C115 1.439 . S
C116 C145 1.392 . S
N117 Co111 2.008 . S
N117 C118 1.376 . S
N117 C121 1.374 . S
C118 N117 1.376 . S
C118 C119 1.443 . S
C118 C145 1.389 . S
C119 C118 1.443 . S
C119 C120 1.340 . S
C119 H151 0.951 . S
C120 C119 1.340 . S
C120 C121 1.439 . S
C120 H152 0.950 . S
C121 N117 1.374 . S
C121 C120 1.439 . S
C121 C146 1.395 . S
N122 Co111 1.995 . S
N122 C123 1.376 . S
N122 C126 1.383 . S
C123 N122 1.376 . S
C123 C124 1.446 . S
C123 C146 1.391 . S
C124 C123 1.446 . S
C124 C125 1.339 . S
C124 H153 0.949 . S
C125 C124 1.339 . S
C125 C126 1.439 . S
C125 H154 0.950 . S
C126 N122 1.383 . S
C126 C125 1.439 . S
C126 C144 1.392 . S
N127 Co111 2.282 . S
N127 C130 1.332 . S
N127 C132 1.332 . S
C128 C129 1.386 . S
C128 C131 1.388 . S
C129 C128 1.386 . S
C129 C130 1.382 . S
C129 H155 0.950 . S
C130 N127 1.332 . S
C130 C129 1.382 . S
C130 H141 0.952 . S
C131 C128 1.388 . S
C131 C132 1.382 . S
C131 H156 0.950 . S
C132 N127 1.332 . S
C132 C131 1.382 . S
C132 H142 0.948 . S
N133 Co111 2.282 . S
N133 C137 1.332 . S
N133 C138 1.332 . S
C134 C135 1.388 . S
C134 C138 1.382 . S
C134 H157 0.950 . S
C135 C134 1.388 . S
C135 C136 1.386 . S
C136 C135 1.386 . S
C136 C137 1.382 . S
C136 H158 0.950 . S
C137 N133 1.332 . S
C137 C136 1.382 . S
C137 H139 0.952 . S
C138 N133 1.332 . S
C138 C134 1.382 . S
C138 H140 0.948 . S
H139 C137 0.952 . S
H140 C138 0.948 . S
H141 C130 0.952 . S
H142 C132 0.948 . S
C143 C109 1.395 . S
C143 C113 1.391 . S
C144 C106 1.389 . S
C144 C126 1.392 . S
C145 C116 1.392 . S
C145 C118 1.389 . S
C146 C121 1.395 . S
C146 C123 1.391 . S
H147 C107 0.951 . S
H148 C108 0.950 . S
H149 C114 0.949 . S
H150 C115 0.950 . S
H151 C119 0.951 . S
H152 C120 0.950 . S
H153 C124 0.949 . S
H154 C125 0.950 . S
H155 C129 0.950 . S
H156 C131 0.950 . S
H157 C134 0.950 . S
H158 C136 0.950 . S
C159 C160 1.443 . S
C159 N163 1.376 . S
C159 C197 1.389 . S
C160 C159 1.443 . S
C160 C161 1.340 . S
C160 H200 0.951 . S
C161 C160 1.340 . S
C161 C162 1.439 . S
C161 H201 0.950 . S
C162 C161 1.439 . S
C162 N163 1.374 . S
C162 C196 1.395 . S
N163 C159 1.376 . S
N163 C162 1.374 . S
N163 Co164 2.008 . S
Co164 N163 2.008 . S
Co164 N165 1.995 . S
Co164 N170 2.008 . S
Co164 N175 1.995 . S
Co164 N180 2.282 . S
Co164 N186 2.282 . S
N165 Co164 1.995 . S
N165 C166 1.376 . S
N165 C169 1.383 . S
C166 N165 1.376 . S
C166 C167 1.446 . S
C166 C196 1.391 . S
C167 C166 1.446 . S
C167 C168 1.339 . S
C167 H202 0.949 . S
C168 C167 1.339 . S
C168 C169 1.439 . S
C168 H203 0.950 . S
C169 N165 1.383 . S
C169 C168 1.439 . S
C169 C198 1.392 . S
N170 Co164 2.008 . S
N170 C171 1.376 . S
N170 C174 1.374 . S
C171 N170 1.376 . S
C171 C172 1.443 . S
C171 C198 1.389 . S
C172 C171 1.443 . S
C172 C173 1.340 . S
C172 H204 0.951 . S
C173 C172 1.340 . S
C173 C174 1.439 . S
C173 H205 0.950 . S
C174 N170 1.374 . S
C174 C173 1.439 . S
C174 C199 1.395 . S
N175 Co164 1.995 . S
N175 C176 1.376 . S
N175 C179 1.383 . S
C176 N175 1.376 . S
C176 C177 1.446 . S
C176 C199 1.391 . S
C177 C176 1.446 . S
C177 C178 1.339 . S
C177 H206 0.949 . S
C178 C177 1.339 . S
C178 C179 1.439 . S
C178 H207 0.950 . S
C179 N175 1.383 . S
C179 C178 1.439 . S
C179 C197 1.392 . S
N180 Co164 2.282 . S
N180 C183 1.332 . S
N180 C185 1.332 . S
C181 C182 1.386 . S
C181 C184 1.388 . S
C182 C181 1.386 . S
C182 C183 1.382 . S
C182 H208 0.950 . S
C183 N180 1.332 . S
C183 C182 1.382 . S
C183 H194 0.952 . S
C184 C181 1.388 . S
C184 C185 1.382 . S
C184 H209 0.950 . S
C185 N180 1.332 . S
C185 C184 1.382 . S
C185 H195 0.948 . S
N186 Co164 2.282 . S
N186 C190 1.332 . S
N186 C191 1.332 . S
C187 C188 1.388 . S
C187 C191 1.382 . S
C187 H210 0.950 . S
C188 C187 1.388 . S
C188 C189 1.386 . S
C189 C188 1.386 . S
C189 C190 1.382 . S
C189 H211 0.950 . S
C190 N186 1.332 . S
C190 C189 1.382 . S
C190 H192 0.952 . S
C191 N186 1.332 . S
C191 C187 1.382 . S
C191 H193 0.948 . S
H192 C190 0.952 . S
H193 C191 0.948 . S
H194 C183 0.952 . S
H195 C185 0.948 . S
C196 C162 1.395 . S
C196 C166 1.391 . S
C197 C159 1.389 . S
C197 C179 1.392 . S
C198 C169 1.392 . S
C198 C171 1.389 . S
C199 C174 1.395 . S
C199 C176 1.391 . S
H200 C160 0.951 . S
H201 C161 0.950 . S
H202 C167 0.949 . S
H203 C168 0.950 . S
H204 C172 0.951 . S
H205 C173 0.950 . S
H206 C177 0.949 . S
H207 C178 0.950 . S
H208 C182 0.950 . S
H209 C184 0.950 . S
H210 C187 0.950 . S
H211 C189 0.950 . S
C212 C213 1.443 . S
C212 N216 1.376 . S
C212 C250 1.389 . S
C213 C212 1.443 . S
C213 C214 1.340 . S
C213 H253 0.951 . S
C214 C213 1.340 . S
C214 C215 1.439 . S
C214 H254 0.950 . S
C215 C214 1.439 . S
C215 N216 1.374 . S
C215 C249 1.395 . S
N216 C212 1.376 . S
N216 C215 1.374 . S
N216 Co217 2.008 1_554 S
Co217 N216 2.008 1_556 S
Co217 N218 1.995 1_556 S
Co217 N223 2.008 . S
Co217 N228 1.995 . S
Co217 N233 2.282 . S
Co217 N239 2.282 1_556 S
N218 Co217 1.995 1_554 S
N218 C219 1.376 . S
N218 C222 1.383 . S
C219 N218 1.376 . S
C219 C220 1.446 . S
C219 C249 1.391 . S
C220 C219 1.446 . S
C220 C221 1.339 . S
C220 H255 0.949 . S
C221 C220 1.339 . S
C221 C222 1.439 . S
C221 H256 0.950 . S
C222 N218 1.383 . S
C222 C221 1.439 . S
C222 C251 1.392 1_554 S
N223 Co217 2.008 . S
N223 C224 1.376 . S
N223 C227 1.374 . S
C224 N223 1.376 . S
C224 C225 1.443 . S
C224 C251 1.389 . S
C225 C224 1.443 . S
C225 C226 1.340 . S
C225 H257 0.951 . S
C226 C225 1.340 . S
C226 C227 1.439 . S
C226 H258 0.950 . S
C227 N223 1.374 . S
C227 C226 1.439 . S
C227 C252 1.395 . S
N228 Co217 1.995 . S
N228 C229 1.376 . S
N228 C232 1.383 . S
C229 N228 1.376 . S
C229 C230 1.446 . S
C229 C252 1.391 . S
C230 C229 1.446 . S
C230 C231 1.339 . S
C230 H259 0.949 . S
C231 C230 1.339 . S
C231 C232 1.439 . S
C231 H260 0.950 . S
C232 N228 1.383 . S
C232 C231 1.439 . S
C232 C250 1.392 1_556 S
N233 Co217 2.282 . S
N233 C236 1.332 . S
N233 C238 1.332 1_556 S
C234 C235 1.386 . S
C234 C237 1.388 1_556 S
C235 C234 1.386 . S
C235 C236 1.382 . S
C235 H261 0.950 . S
C236 N233 1.332 . S
C236 C235 1.382 . S
C236 H247 0.952 . S
C237 C234 1.388 1_554 S
C237 C238 1.382 . S
C237 H262 0.950 . S
C238 N233 1.332 1_554 S
C238 C237 1.382 . S
C238 H248 0.948 . S
N239 Co217 2.282 1_554 S
N239 C243 1.332 . S
N239 C244 1.332 1_554 S
C240 C241 1.388 1_556 S
C240 C244 1.382 . S
C240 H263 0.950 . S
C241 C240 1.388 1_554 S
C241 C242 1.386 . S
C242 C241 1.386 . S
C242 C243 1.382 . S
C242 H264 0.950 . S
C243 N239 1.332 . S
C243 C242 1.382 . S
C243 H245 0.952 . S
C244 N239 1.332 1_556 S
C244 C240 1.382 . S
C244 H246 0.948 . S
H245 C243 0.952 . S
H246 C244 0.948 . S
H247 C236 0.952 . S
H248 C238 0.948 . S
C249 C215 1.395 . S
C249 C219 1.391 . S
C250 C212 1.389 . S
C250 C232 1.392 1_554 S
C251 C222 1.392 1_556 S
C251 C224 1.389 . S
C252 C227 1.395 . S
C252 C229 1.391 . S
H253 C213 0.951 . S
H254 C214 0.950 . S
H255 C220 0.949 . S
H256 C221 0.950 . S
H257 C225 0.951 . S
H258 C226 0.950 . S
H259 C230 0.949 . S
H260 C231 0.950 . S
H261 C235 0.950 . S
H262 C237 0.950 . S
H263 C240 0.950 . S
H264 C242 0.950 . S
C265 C266 1.443 . S
C265 N269 1.376 . S
C265 C303 1.389 . S
C266 C265 1.443 . S
C266 C267 1.340 . S
C266 H306 0.951 . S
C267 C266 1.340 . S
C267 C268 1.439 . S
C267 H307 0.950 . S
C268 C267 1.439 . S
C268 N269 1.374 . S
C268 C302 1.395 . S
N269 C265 1.376 . S
N269 C268 1.374 . S
N269 Co270 2.008 . S
Co270 N269 2.008 . S
Co270 N271 1.995 . S
Co270 N276 2.008 . S
Co270 N281 1.995 . S
Co270 N286 2.282 . S
Co270 N292 2.282 . S
N271 Co270 1.995 . S
N271 C272 1.376 . S
N271 C275 1.383 . S
C272 N271 1.376 . S
C272 C273 1.446 . S
C272 C302 1.391 . S
C273 C272 1.446 . S
C273 C274 1.339 . S
C273 H308 0.949 . S
C274 C273 1.339 . S
C274 C275 1.439 . S
C274 H309 0.950 . S
C275 N271 1.383 . S
C275 C274 1.439 . S
C275 C304 1.392 . S
N276 Co270 2.008 . S
N276 C277 1.376 . S
N276 C280 1.374 . S
C277 N276 1.376 . S
C277 C278 1.443 . S
C277 C304 1.389 . S
C278 C277 1.443 . S
C278 C279 1.340 . S
C278 H310 0.951 . S
C279 C278 1.340 . S
C279 C280 1.439 . S
C279 H311 0.950 . S
C280 N276 1.374 . S
C280 C279 1.439 . S
C280 C305 1.395 . S
N281 Co270 1.995 . S
N281 C282 1.376 . S
N281 C285 1.383 . S
C282 N281 1.376 . S
C282 C283 1.446 . S
C282 C305 1.391 . S
C283 C282 1.446 . S
C283 C284 1.339 . S
C283 H312 0.949 . S
C284 C283 1.339 . S
C284 C285 1.439 . S
C284 H313 0.950 . S
C285 N281 1.383 . S
C285 C284 1.439 . S
C285 C303 1.392 . S
N286 Co270 2.282 . S
N286 C289 1.332 . S
N286 C291 1.332 . S
C287 C288 1.386 . S
C287 C290 1.388 . S
C288 C287 1.386 . S
C288 C289 1.382 . S
C288 H314 0.950 . S
C289 N286 1.332 . S
C289 C288 1.382 . S
C289 H300 0.952 . S
C290 C287 1.388 . S
C290 C291 1.382 . S
C290 H315 0.950 . S
C291 N286 1.332 . S
C291 C290 1.382 . S
C291 H301 0.948 . S
N292 Co270 2.282 . S
N292 C296 1.332 . S
N292 C297 1.332 . S
C293 C294 1.388 . S
C293 C297 1.382 . S
C293 H316 0.950 . S
C294 C293 1.388 . S
C294 C295 1.386 . S
C295 C294 1.386 . S
C295 C296 1.382 . S
C295 H317 0.950 . S
C296 N292 1.332 . S
C296 C295 1.382 . S
C296 H298 0.952 . S
C297 N292 1.332 . S
C297 C293 1.382 . S
C297 H299 0.948 . S
H298 C296 0.952 . S
H299 C297 0.948 . S
H300 C289 0.952 . S
H301 C291 0.948 . S
C302 C268 1.395 . S
C302 C272 1.391 . S
C303 C265 1.389 . S
C303 C285 1.392 . S
C304 C275 1.392 . S
C304 C277 1.389 . S
C305 C280 1.395 . S
C305 C282 1.391 . S
H306 C266 0.951 . S
H307 C267 0.950 . S
H308 C273 0.949 . S
H309 C274 0.950 . S
H310 C278 0.951 . S
H311 C279 0.950 . S
H312 C283 0.949 . S
H313 C284 0.950 . S
H314 C288 0.950 . S
H315 C290 0.950 . S
H316 C293 0.950 . S
H317 C295 0.950 . S
C318 C319 1.443 . S
C318 N322 1.376 . S
C318 C356 1.389 . S
C319 C318 1.443 . S
C319 C320 1.340 . S
C319 H359 0.951 . S
C320 C319 1.340 . S
C320 C321 1.439 . S
C320 H360 0.950 . S
C321 C320 1.439 . S
C321 N322 1.374 . S
C321 C355 1.395 . S
N322 C318 1.376 . S
N322 C321 1.374 . S
N322 Co323 2.008 . S
Co323 N322 2.008 . S
Co323 N324 1.995 . S
Co323 N329 2.008 . S
Co323 N334 1.995 . S
Co323 N339 2.282 . S
Co323 N345 2.282 . S
N324 Co323 1.995 . S
N324 C325 1.376 . S
N324 C328 1.383 . S
C325 N324 1.376 . S
C325 C326 1.446 . S
C325 C355 1.391 . S
C326 C325 1.446 . S
C326 C327 1.339 . S
C326 H361 0.949 . S
C327 C326 1.339 . S
C327 C328 1.439 . S
C327 H362 0.950 . S
C328 N324 1.383 . S
C328 C327 1.439 . S
C328 C357 1.392 . S
N329 Co323 2.008 . S
N329 C330 1.376 . S
N329 C333 1.374 . S
C330 N329 1.376 . S
C330 C331 1.443 . S
C330 C357 1.389 . S
C331 C330 1.443 . S
C331 C332 1.340 . S
C331 H363 0.951 . S
C332 C331 1.340 . S
C332 C333 1.439 . S
C332 H364 0.950 . S
C333 N329 1.374 . S
C333 C332 1.439 . S
C333 C358 1.395 . S
N334 Co323 1.995 . S
N334 C335 1.376 . S
N334 C338 1.383 . S
C335 N334 1.376 . S
C335 C336 1.446 . S
C335 C358 1.391 . S
C336 C335 1.446 . S
C336 C337 1.339 . S
C336 H365 0.949 . S
C337 C336 1.339 . S
C337 C338 1.439 . S
C337 H366 0.950 . S
C338 N334 1.383 . S
C338 C337 1.439 . S
C338 C356 1.392 . S
N339 Co323 2.282 . S
N339 C342 1.332 . S
N339 C344 1.332 . S
C340 C341 1.386 . S
C340 C343 1.388 . S
C341 C340 1.386 . S
C341 C342 1.382 . S
C341 H367 0.950 . S
C342 N339 1.332 . S
C342 C341 1.382 . S
C342 H353 0.952 . S
C343 C340 1.388 . S
C343 C344 1.382 . S
C343 H368 0.950 . S
C344 N339 1.332 . S
C344 C343 1.382 . S
C344 H354 0.948 . S
N345 Co323 2.282 . S
N345 C349 1.332 . S
N345 C350 1.332 . S
C346 C347 1.388 . S
C346 C350 1.382 . S
C346 H369 0.950 . S
C347 C346 1.388 . S
C347 C348 1.386 . S
C348 C347 1.386 . S
C348 C349 1.382 . S
C348 H370 0.950 . S
C349 N345 1.332 . S
C349 C348 1.382 . S
C349 H351 0.952 . S
C350 N345 1.332 . S
C350 C346 1.382 . S
C350 H352 0.948 . S
H351 C349 0.952 . S
H352 C350 0.948 . S
H353 C342 0.952 . S
H354 C344 0.948 . S
C355 C321 1.395 . S
C355 C325 1.391 . S
C356 C318 1.389 . S
C356 C338 1.392 . S
C357 C328 1.392 . S
C357 C330 1.389 . S
C358 C333 1.395 . S
C358 C335 1.391 . S
H359 C319 0.951 . S
H360 C320 0.950 . S
H361 C326 0.949 . S
H362 C327 0.950 . S
H363 C331 0.951 . S
H364 C332 0.950 . S
H365 C336 0.949 . S
H366 C337 0.950 . S
H367 C341 0.950 . S
H368 C343 0.950 . S
H369 C346 0.950 . S
H370 C348 0.950 . S
C371 C372 1.443 . S
C371 N375 1.376 . S
C371 C409 1.389 . S
C372 C371 1.443 . S
C372 C373 1.340 . S
C372 H412 0.951 . S
C373 C372 1.340 . S
C373 C374 1.439 . S
C373 H413 0.950 . S
C374 C373 1.439 . S
C374 N375 1.374 . S
C374 C408 1.395 . S
N375 C371 1.376 . S
N375 C374 1.374 . S
N375 Co376 2.008 . S
Co376 N375 2.008 . S
Co376 N377 1.995 . S
Co376 N382 2.008 . S
Co376 N387 1.995 . S
Co376 N392 2.282 . S
Co376 N398 2.282 . S
N377 Co376 1.995 . S
N377 C378 1.376 . S
N377 C381 1.383 . S
C378 N377 1.376 . S
C378 C379 1.446 . S
C378 C408 1.391 . S
C379 C378 1.446 . S
C379 C380 1.339 . S
C379 H414 0.949 . S
C380 C379 1.339 . S
C380 C381 1.439 . S
C380 H415 0.950 . S
C381 N377 1.383 . S
C381 C380 1.439 . S
C381 C410 1.392 . S
N382 Co376 2.008 . S
N382 C383 1.376 . S
N382 C386 1.374 . S
C383 N382 1.376 . S
C383 C384 1.443 . S
C383 C410 1.389 . S
C384 C383 1.443 . S
C384 C385 1.340 . S
C384 H416 0.951 . S
C385 C384 1.340 . S
C385 C386 1.439 . S
C385 H417 0.950 . S
C386 N382 1.374 . S
C386 C385 1.439 . S
C386 C411 1.395 . S
N387 Co376 1.995 . S
N387 C388 1.376 . S
N387 C391 1.383 . S
C388 N387 1.376 . S
C388 C389 1.446 . S
C388 C411 1.391 . S
C389 C388 1.446 . S
C389 C390 1.339 . S
C389 H418 0.949 . S
C390 C389 1.339 . S
C390 C391 1.439 . S
C390 H419 0.950 . S
C391 N387 1.383 . S
C391 C390 1.439 . S
C391 C409 1.392 . S
N392 Co376 2.282 . S
N392 C395 1.332 . S
N392 C397 1.332 . S
C393 C394 1.386 . S
C393 C396 1.388 . S
C394 C393 1.386 . S
C394 C395 1.382 . S
C394 H420 0.950 . S
C395 N392 1.332 . S
C395 C394 1.382 . S
C395 H406 0.952 . S
C396 C393 1.388 . S
C396 C397 1.382 . S
C396 H421 0.950 . S
C397 N392 1.332 . S
C397 C396 1.382 . S
C397 H407 0.948 . S
N398 Co376 2.282 . S
N398 C402 1.332 . S
N398 C403 1.332 . S
C399 C400 1.388 . S
C399 C403 1.382 . S
C399 H422 0.950 . S
C400 C399 1.388 . S
C400 C401 1.386 . S
C401 C400 1.386 . S
C401 C402 1.382 . S
C401 H423 0.950 . S
C402 N398 1.332 . S
C402 C401 1.382 . S
C402 H404 0.952 . S
C403 N398 1.332 . S
C403 C399 1.382 . S
C403 H405 0.948 . S
H404 C402 0.952 . S
H405 C403 0.948 . S
H406 C395 0.952 . S
H407 C397 0.948 . S
C408 C374 1.395 . S
C408 C378 1.391 . S
C409 C371 1.389 . S
C409 C391 1.392 . S
C410 C381 1.392 . S
C410 C383 1.389 . S
C411 C386 1.395 . S
C411 C388 1.391 . S
H412 C372 0.951 . S
H413 C373 0.950 . S
H414 C379 0.949 . S
H415 C380 0.950 . S
H416 C384 0.951 . S
H417 C385 0.950 . S
H418 C389 0.949 . S
H419 C390 0.950 . S
H420 C394 0.950 . S
H421 C396 0.950 . S
H422 C399 0.950 . S
H423 C401 0.950 . S
C424 C425 1.443 . S
C424 N428 1.376 . S
C424 C462 1.389 . S
C425 C424 1.443 . S
C425 C426 1.340 . S
C425 H465 0.951 . S
C426 C425 1.340 . S
C426 C427 1.439 . S
C426 H466 0.950 . S
C427 C426 1.439 . S
C427 N428 1.374 . S
C427 C461 1.395 . S
N428 C424 1.376 . S
N428 C427 1.374 . S
N428 Co429 2.008 . S
Co429 N428 2.008 . S
Co429 N430 1.995 . S
Co429 N435 2.008 . S
Co429 N440 1.995 . S
Co429 N445 2.282 . S
Co429 N451 2.282 . S
N430 Co429 1.995 . S
N430 C431 1.376 . S
N430 C434 1.383 . S
C431 N430 1.376 . S
C431 C432 1.446 . S
C431 C461 1.391 . S
C432 C431 1.446 . S
C432 C433 1.339 . S
C432 H467 0.949 . S
C433 C432 1.339 . S
C433 C434 1.439 . S
C433 H468 0.950 . S
C434 N430 1.383 . S
C434 C433 1.439 . S
C434 C463 1.392 . S
N435 Co429 2.008 . S
N435 C436 1.376 . S
N435 C439 1.374 . S
C436 N435 1.376 . S
C436 C437 1.443 . S
C436 C463 1.389 . S
C437 C436 1.443 . S
C437 C438 1.340 . S
C437 H469 0.951 . S
C438 C437 1.340 . S
C438 C439 1.439 . S
C438 H470 0.950 . S
C439 N435 1.374 . S
C439 C438 1.439 . S
C439 C464 1.395 . S
N440 Co429 1.995 . S
N440 C441 1.376 . S
N440 C444 1.383 . S
C441 N440 1.376 . S
C441 C442 1.446 . S
C441 C464 1.391 . S
C442 C441 1.446 . S
C442 C443 1.339 . S
C442 H471 0.949 . S
C443 C442 1.339 . S
C443 C444 1.439 . S
C443 H472 0.950 . S
C444 N440 1.383 . S
C444 C443 1.439 . S
C444 C462 1.392 . S
N445 Co429 2.282 . S
N445 C448 1.332 . S
N445 C450 1.332 . S
C446 C447 1.386 . S
C446 C449 1.388 . S
C447 C446 1.386 . S
C447 C448 1.382 . S
C447 H473 0.950 . S
C448 N445 1.332 . S
C448 C447 1.382 . S
C448 H459 0.952 . S
C449 C446 1.388 . S
C449 C450 1.382 . S
C449 H474 0.950 . S
C450 N445 1.332 . S
C450 C449 1.382 . S
C450 H460 0.948 . S
N451 Co429 2.282 . S
N451 C455 1.332 . S
N451 C456 1.332 . S
C452 C453 1.388 . S
C452 C456 1.382 . S
C452 H475 0.950 . S
C453 C452 1.388 . S
C453 C454 1.386 . S
C454 C453 1.386 . S
C454 C455 1.382 . S
C454 H476 0.950 . S
C455 N451 1.332 . S
C455 C454 1.382 . S
C455 H457 0.952 . S
C456 N451 1.332 . S
C456 C452 1.382 . S
C456 H458 0.948 . S
H457 C455 0.952 . S
H458 C456 0.948 . S
H459 C448 0.952 . S
H460 C450 0.948 . S
C461 C427 1.395 . S
C461 C431 1.391 . S
C462 C424 1.389 . S
C462 C444 1.392 . S
C463 C434 1.392 . S
C463 C436 1.389 . S
C464 C439 1.395 . S
C464 C441 1.391 . S
H465 C425 0.951 . S
H466 C426 0.950 . S
H467 C432 0.949 . S
H468 C433 0.950 . S
H469 C437 0.951 . S
H470 C438 0.950 . S
H471 C442 0.949 . S
H472 C443 0.950 . S
H473 C447 0.950 . S
H474 C449 0.950 . S
H475 C452 0.950 . S
H476 C454 0.950 . S
C477 C478 1.443 . S
C477 N481 1.376 . S
C477 C515 1.389 . S
C478 C477 1.443 . S
C478 C479 1.340 . S
C478 H518 0.951 . S
C479 C478 1.340 . S
C479 C480 1.439 . S
C479 H519 0.950 . S
C480 C479 1.439 . S
C480 N481 1.374 . S
C480 C514 1.395 . S
N481 C477 1.376 . S
N481 C480 1.374 . S
N481 Co482 2.008 . S
Co482 N481 2.008 . S
Co482 N483 1.995 . S
Co482 N488 2.008 . S
Co482 N493 1.995 . S
Co482 N498 2.282 . S
Co482 N504 2.282 . S
N483 Co482 1.995 . S
N483 C484 1.376 . S
N483 C487 1.383 . S
C484 N483 1.376 . S
C484 C485 1.446 . S
C484 C514 1.391 . S
C485 C484 1.446 . S
C485 C486 1.339 . S
C485 H520 0.949 . S
C486 C485 1.339 . S
C486 C487 1.439 . S
C486 H521 0.950 . S
C487 N483 1.383 . S
C487 C486 1.439 . S
C487 C516 1.392 . S
N488 Co482 2.008 . S
N488 C489 1.376 . S
N488 C492 1.374 . S
C489 N488 1.376 . S
C489 C490 1.443 1_545 S
C489 C516 1.389 . S
C490 C489 1.443 1_565 S
C490 C491 1.340 . S
C490 H522 0.951 . S
C491 C490 1.340 . S
C491 C492 1.439 1_565 S
C491 H523 0.950 . S
C492 N488 1.374 . S
C492 C491 1.439 1_545 S
C492 C517 1.395 . S
N493 Co482 1.995 . S
N493 C494 1.376 . S
N493 C497 1.383 . S
C494 N493 1.376 . S
C494 C495 1.446 . S
C494 C517 1.391 . S
C495 C494 1.446 . S
C495 C496 1.339 . S
C495 H524 0.949 . S
C496 C495 1.339 . S
C496 C497 1.439 . S
C496 H525 0.950 . S
C497 N493 1.383 . S
C497 C496 1.439 . S
C497 C515 1.392 . S
N498 Co482 2.282 . S
N498 C501 1.330 . S
N498 C503 1.332 . S
C499 C500 1.386 . S
C499 C502 1.388 . S
C500 C499 1.386 . S
C500 C501 1.384 1_565 S
C500 H526 0.950 . S
C501 N498 1.330 . S
C501 C500 1.384 1_545 S
C501 H512 0.951 . S
C502 C499 1.388 . S
C502 C503 1.382 1_565 S
C502 H527 0.950 . S
C503 N498 1.332 . S
C503 C502 1.382 1_545 S
C503 H513 0.948 . S
N504 Co482 2.282 . S
N504 C508 1.332 . S
N504 C509 1.332 . S
C505 C506 1.388 . S
C505 C509 1.382 . S
C505 H528 0.950 . S
C506 C505 1.388 . S
C506 C507 1.386 . S
C507 C506 1.386 . S
C507 C508 1.382 . S
C507 H529 0.950 . S
C508 N504 1.332 . S
C508 C507 1.382 . S
C508 H510 0.952 . S
C509 N504 1.332 . S
C509 C505 1.382 . S
C509 H511 0.948 . S
H510 C508 0.952 . S
H511 C509 0.948 . S
H512 C501 0.951 . S
H513 C503 0.948 . S
C514 C480 1.395 . S
C514 C484 1.391 . S
C515 C477 1.389 . S
C515 C497 1.392 . S
C516 C487 1.392 . S
C516 C489 1.389 . S
C517 C492 1.395 . S
C517 C494 1.391 . S
H518 C478 0.951 . S
H519 C479 0.950 . S
H520 C485 0.949 . S
H521 C486 0.950 . S
H522 C490 0.951 . S
H523 C491 0.950 . S
H524 C495 0.949 . S
H525 C496 0.950 . S
H526 C500 0.950 . S
H527 C502 0.950 . S
H528 C505 0.950 . S
H529 C507 0.950 . S
C530 C531 1.443 . S
C530 N534 1.376 . S
C530 C568 1.389 . S
C531 C530 1.443 . S
C531 C532 1.340 . S
C531 H571 0.951 . S
C532 C531 1.340 . S
C532 C533 1.439 . S
C532 H572 0.950 . S
C533 C532 1.439 . S
C533 N534 1.374 . S
C533 C567 1.395 . S
N534 C530 1.376 . S
N534 C533 1.374 . S
N534 Co535 2.008 1_556 S
Co535 N534 2.008 1_554 S
Co535 N536 1.995 1_554 S
Co535 N541 2.008 . S
Co535 N546 1.995 . S
Co535 N551 2.282 . S
Co535 N557 2.282 1_554 S
N536 Co535 1.995 1_556 S
N536 C537 1.376 . S
N536 C540 1.383 . S
C537 N536 1.376 . S
C537 C538 1.446 . S
C537 C567 1.391 . S
C538 C537 1.446 . S
C538 C539 1.339 . S
C538 H573 0.949 . S
C539 C538 1.339 . S
C539 C540 1.439 . S
C539 H574 0.950 . S
C540 N536 1.383 . S
C540 C539 1.439 . S
C540 C569 1.392 1_556 S
N541 Co535 2.008 . S
N541 C542 1.376 . S
N541 C545 1.374 . S
C542 N541 1.376 . S
C542 C543 1.443 . S
C542 C569 1.389 . S
C543 C542 1.443 . S
C543 C544 1.340 . S
C543 H575 0.951 . S
C544 C543 1.340 . S
C544 C545 1.439 . S
C544 H576 0.950 . S
C545 N541 1.374 . S
C545 C544 1.439 . S
C545 C570 1.395 . S
N546 Co535 1.995 . S
N546 C547 1.376 . S
N546 C550 1.383 . S
C547 N546 1.376 . S
C547 C548 1.446 . S
C547 C570 1.391 . S
C548 C547 1.446 . S
C548 C549 1.339 . S
C548 H577 0.949 . S
C549 C548 1.339 . S
C549 C550 1.439 . S
C549 H578 0.950 . S
C550 N546 1.383 . S
C550 C549 1.439 . S
C550 C568 1.392 1_554 S
N551 Co535 2.282 . S
N551 C554 1.332 . S
N551 C556 1.332 1_554 S
C552 C553 1.386 . S
C552 C555 1.388 1_554 S
C553 C552 1.386 . S
C553 C554 1.382 . S
C553 H579 0.950 . S
C554 N551 1.332 . S
C554 C553 1.382 . S
C554 H565 0.952 . S
C555 C552 1.388 1_556 S
C555 C556 1.382 . S
C555 H580 0.950 . S
C556 N551 1.332 1_556 S
C556 C555 1.382 . S
C556 H566 0.948 . S
N557 Co535 2.282 1_556 S
N557 C561 1.332 . S
N557 C562 1.332 1_556 S
C558 C559 1.388 1_554 S
C558 C562 1.382 . S
C558 H581 0.950 . S
C559 C558 1.388 1_556 S
C559 C560 1.386 . S
C560 C559 1.386 . S
C560 C561 1.382 . S
C560 H582 0.950 . S
C561 N557 1.332 . S
C561 C560 1.382 . S
C561 H563 0.952 . S
C562 N557 1.332 1_554 S
C562 C558 1.382 . S
C562 H564 0.948 . S
H563 C561 0.952 . S
H564 C562 0.948 . S
H565 C554 0.952 . S
H566 C556 0.948 . S
C567 C533 1.395 . S
C567 C537 1.391 . S
C568 C530 1.389 . S
C568 C550 1.392 1_556 S
C569 C540 1.392 1_554 S
C569 C542 1.389 . S
C570 C545 1.395 . S
C570 C547 1.391 . S
H571 C531 0.951 . S
H572 C532 0.950 . S
H573 C538 0.949 . S
H574 C539 0.950 . S
H575 C543 0.951 . S
H576 C544 0.950 . S
H577 C548 0.949 . S
H578 C549 0.950 . S
H579 C553 0.950 . S
H580 C555 0.950 . S
H581 C558 0.950 . S
H582 C560 0.950 . S
C583 C584 1.443 . S
C583 N587 1.376 . S
C583 C621 1.389 . S
C584 C583 1.443 . S
C584 C585 1.340 . S
C584 H624 0.951 . S
C585 C584 1.340 . S
C585 C586 1.439 . S
C585 H625 0.950 . S
C586 C585 1.439 . S
C586 N587 1.374 . S
C586 C620 1.395 . S
N587 C583 1.376 . S
N587 C586 1.374 . S
N587 Co588 2.008 . S
Co588 N587 2.008 . S
Co588 N589 1.995 . S
Co588 N594 2.008 . S
Co588 N599 1.995 . S
Co588 N604 2.282 . S
Co588 N610 2.282 . S
N589 Co588 1.995 . S
N589 C590 1.376 . S
N589 C593 1.383 . S
C590 N589 1.376 . S
C590 C591 1.446 . S
C590 C620 1.391 . S
C591 C590 1.446 . S
C591 C592 1.339 . S
C591 H626 0.949 . S
C592 C591 1.339 . S
C592 C593 1.439 . S
C592 H627 0.950 . S
C593 N589 1.383 . S
C593 C592 1.439 . S
C593 C622 1.392 . S
N594 Co588 2.008 . S
N594 C595 1.376 . S
N594 C598 1.374 . S
C595 N594 1.376 . S
C595 C596 1.443 1_565 S
C595 C622 1.389 . S
C596 C595 1.443 1_545 S
C596 C597 1.340 . S
C596 H628 0.951 . S
C597 C596 1.340 . S
C597 C598 1.439 1_545 S
C597 H629 0.950 . S
C598 N594 1.374 . S
C598 C597 1.439 1_565 S
C598 C623 1.395 . S
N599 Co588 1.995 . S
N599 C600 1.376 . S
N599 C603 1.383 . S
C600 N599 1.376 . S
C600 C601 1.446 . S
C600 C623 1.391 . S
C601 C600 1.446 . S
C601 C602 1.339 . S
C601 H630 0.949 . S
C602 C601 1.339 . S
C602 C603 1.439 . S
C602 H631 0.950 . S
C603 N599 1.383 . S
C603 C602 1.439 . S
C603 C621 1.392 . S
N604 Co588 2.282 . S
N604 C607 1.334 1_565 S
N604 C609 1.332 . S
C605 C606 1.386 . S
C605 C608 1.388 . S
C606 C605 1.386 . S
C606 C607 1.378 . S
C606 H632 0.950 . S
C607 N604 1.334 1_545 S
C607 C606 1.378 . S
C607 H618 0.953 1_545 S
C608 C605 1.388 . S
C608 C609 1.382 1_545 S
C608 H633 0.950 . S
C609 N604 1.332 . S
C609 C608 1.382 1_565 S
C609 H619 0.948 . S
N610 Co588 2.282 . S
N610 C614 1.332 . S
N610 C615 1.332 . S
C611 C612 1.388 . S
C611 C615 1.382 . S
C611 H634 0.950 . S
C612 C611 1.388 . S
C612 C613 1.386 . S
C613 C612 1.386 . S
C613 C614 1.382 . S
C613 H635 0.950 . S
C614 N610 1.332 . S
C614 C613 1.382 . S
C614 H616 0.952 . S
C615 N610 1.332 . S
C615 C611 1.382 . S
C615 H617 0.948 . S
H616 C614 0.952 . S
H617 C615 0.948 . S
H618 C607 0.953 1_565 S
H619 C609 0.948 . S
C620 C586 1.395 . S
C620 C590 1.391 . S
C621 C583 1.389 . S
C621 C603 1.392 . S
C622 C593 1.392 . S
C622 C595 1.389 . S
C623 C598 1.395 . S
C623 C600 1.391 . S
H624 C584 0.951 . S
H625 C585 0.950 . S
H626 C591 0.949 . S
H627 C592 0.950 . S
H628 C596 0.951 . S
H629 C597 0.950 . S
H630 C601 0.949 . S
H631 C602 0.950 . S
H632 C606 0.950 . S
H633 C608 0.950 . S
H634 C611 0.950 . S
H635 C613 0.950 . S
C636 C637 1.443 . S
C636 N640 1.376 . S
C636 C674 1.389 . S
C637 C636 1.443 . S
C637 C638 1.340 . S
C637 H677 0.951 . S
C638 C637 1.340 . S
C638 C639 1.439 . S
C638 H678 0.950 . S
C639 C638 1.439 . S
C639 N640 1.374 . S
C639 C673 1.395 . S
N640 C636 1.376 . S
N640 C639 1.374 . S
N640 Co641 2.008 . S
Co641 N640 2.008 . S
Co641 N642 1.995 . S
Co641 N647 2.008 . S
Co641 N652 1.995 . S
Co641 N657 2.282 . S
Co641 N663 2.282 . S
N642 Co641 1.995 . S
N642 C643 1.376 . S
N642 C646 1.383 . S
C643 N642 1.376 . S
C643 C644 1.446 . S
C643 C673 1.391 . S
C644 C643 1.446 . S
C644 C645 1.339 . S
C644 H679 0.949 . S
C645 C644 1.339 . S
C645 C646 1.439 . S
C645 H680 0.950 . S
C646 N642 1.383 . S
C646 C645 1.439 . S
C646 C675 1.392 . S
N647 Co641 2.008 . S
N647 C648 1.376 . S
N647 C651 1.374 . S
C648 N647 1.376 . S
C648 C649 1.443 . S
C648 C675 1.389 . S
C649 C648 1.443 . S
C649 C650 1.340 . S
C649 H681 0.951 . S
C650 C649 1.340 . S
C650 C651 1.439 . S
C650 H682 0.950 . S
C651 N647 1.374 . S
C651 C650 1.439 . S
C651 C676 1.395 . S
N652 Co641 1.995 . S
N652 C653 1.376 . S
N652 C656 1.383 . S
C653 N652 1.376 . S
C653 C654 1.446 . S
C653 C676 1.391 . S
C654 C653 1.446 . S
C654 C655 1.339 . S
C654 H683 0.949 . S
C655 C654 1.339 . S
C655 C656 1.439 . S
C655 H684 0.950 . S
C656 N652 1.383 . S
C656 C655 1.439 . S
C656 C674 1.392 . S
N657 Co641 2.282 . S
N657 C660 1.332 . S
N657 C662 1.332 . S
C658 C659 1.386 . S
C658 C661 1.388 . S
C659 C658 1.386 . S
C659 C660 1.382 . S
C659 H685 0.950 . S
C660 N657 1.332 . S
C660 C659 1.382 . S
C660 H671 0.952 . S
C661 C658 1.388 . S
C661 C662 1.382 . S
C661 H686 0.950 . S
C662 N657 1.332 . S
C662 C661 1.382 . S
C662 H672 0.948 . S
N663 Co641 2.282 . S
N663 C667 1.332 . S
N663 C668 1.332 . S
C664 C665 1.388 . S
C664 C668 1.382 . S
C664 H687 0.950 . S
C665 C664 1.388 . S
C665 C666 1.386 . S
C666 C665 1.386 . S
C666 C667 1.382 . S
C666 H688 0.950 . S
C667 N663 1.332 . S
C667 C666 1.382 . S
C667 H669 0.952 . S
C668 N663 1.332 . S
C668 C664 1.382 . S
C668 H670 0.948 . S
H669 C667 0.952 . S
H670 C668 0.948 . S
H671 C660 0.952 . S
H672 C662 0.948 . S
C673 C639 1.395 . S
C673 C643 1.391 . S
C674 C636 1.389 . S
C674 C656 1.392 . S
C675 C646 1.392 . S
C675 C648 1.389 . S
C676 C651 1.395 . S
C676 C653 1.391 . S
H677 C637 0.951 . S
H678 C638 0.950 . S
H679 C644 0.949 . S
H680 C645 0.950 . S
H681 C649 0.951 . S
H682 C650 0.950 . S
H683 C654 0.949 . S
H684 C655 0.950 . S
H685 C659 0.950 . S
H686 C661 0.950 . S
H687 C664 0.950 . S
H688 C666 0.950 . S
C689 C690 1.443 . S
C689 N693 1.376 . S
C689 C727 1.389 . S
C690 C689 1.443 . S
C690 C691 1.340 . S
C690 H730 0.951 . S
C691 C690 1.340 . S
C691 C692 1.439 . S
C691 H731 0.950 . S
C692 C691 1.439 . S
C692 N693 1.374 . S
C692 C726 1.395 . S
N693 C689 1.376 . S
N693 C692 1.374 . S
N693 Co694 2.008 . S
Co694 N693 2.008 . S
Co694 N695 1.995 . S
Co694 N700 2.008 . S
Co694 N705 1.995 . S
Co694 N710 2.282 . S
Co694 N716 2.282 . S
N695 Co694 1.995 . S
N695 C696 1.376 . S
N695 C699 1.383 . S
C696 N695 1.376 . S
C696 C697 1.446 . S
C696 C726 1.391 . S
C697 C696 1.446 . S
C697 C698 1.339 1_565 S
C697 H732 0.943 1_565 S
C698 C697 1.339 1_545 S
C698 C699 1.439 1_545 S
C698 H733 0.950 . S
C699 N695 1.383 . S
C699 C698 1.439 1_565 S
C699 C728 1.392 . S
N700 Co694 2.008 . S
N700 C701 1.376 . S
N700 C704 1.374 . S
C701 N700 1.376 . S
C701 C702 1.443 . S
C701 C728 1.389 . S
C702 C701 1.443 . S
C702 C703 1.340 . S
C702 H734 0.950 . S
C703 C702 1.340 . S
C703 C704 1.439 . S
C703 H735 0.950 . S
C704 N700 1.374 . S
C704 C703 1.439 . S
C704 C729 1.395 . S
N705 Co694 1.995 . S
N705 C706 1.376 . S
N705 C709 1.383 . S
C706 N705 1.376 . S
C706 C707 1.446 . S
C706 C729 1.391 . S
C707 C706 1.446 . S
C707 C708 1.339 . S
C707 H736 0.949 . S
C708 C707 1.339 . S
C708 C709 1.439 . S
C708 H737 0.950 . S
C709 N705 1.383 . S
C709 C708 1.439 . S
C709 C727 1.392 . S
N710 Co694 2.282 . S
N710 C713 1.332 . S
N710 C715 1.332 1_565 S
C711 C712 1.386 . S
C711 C714 1.388 . S
C712 C711 1.386 . S
C712 C713 1.382 1_545 S
C712 H738 0.950 . S
C713 N710 1.332 . S
C713 C712 1.382 1_565 S
C713 H724 0.952 . S
C714 C711 1.388 . S
C714 C715 1.382 . S
C714 H739 0.950 . S
C715 N710 1.332 1_545 S
C715 C714 1.382 . S
C715 H725 0.948 . S
N716 Co694 2.282 . S
N716 C720 1.332 . S
N716 C721 1.332 . S
C717 C718 1.388 . S
C717 C721 1.382 . S
C717 H740 0.950 . S
C718 C717 1.388 . S
C718 C719 1.386 . S
C719 C718 1.386 . S
C719 C720 1.382 . S
C719 H741 0.950 . S
C720 N716 1.332 . S
C720 C719 1.382 . S
C720 H722 0.952 . S
C721 N716 1.332 . S
C721 C717 1.382 . S
C721 H723 0.948 . S
H722 C720 0.952 . S
H723 C721 0.948 . S
H724 C713 0.952 . S
H725 C715 0.948 . S
C726 C692 1.395 . S
C726 C696 1.391 . S
C727 C689 1.389 . S
C727 C709 1.392 . S
C728 C699 1.392 . S
C728 C701 1.389 . S
C729 C704 1.395 . S
C729 C706 1.391 . S
H730 C690 0.951 . S
H731 C691 0.950 . S
H732 C697 0.943 1_545 S
H733 C698 0.950 . S
H734 C702 0.950 . S
H735 C703 0.950 . S
H736 C707 0.949 . S
H737 C708 0.950 . S
H738 C712 0.950 . S
H739 C714 0.950 . S
H740 C717 0.950 . S
H741 C719 0.950 . S
C742 C743 1.443 . S
C742 N746 1.376 . S
C742 C780 1.389 . S
C743 C742 1.443 . S
C743 C744 1.340 . S
C743 H783 0.951 . S
C744 C743 1.340 . S
C744 C745 1.439 . S
C744 H784 0.950 . S
C745 C744 1.439 . S
C745 N746 1.374 . S
C745 C779 1.395 . S
N746 C742 1.376 . S
N746 C745 1.374 . S
N746 Co747 2.008 1_554 S
Co747 N746 2.008 1_556 S
Co747 N748 1.995 1_556 S
Co747 N753 2.008 . S
Co747 N758 1.995 . S
Co747 N763 2.282 . S
Co747 N769 2.282 1_556 S
N748 Co747 1.995 1_554 S
N748 C749 1.376 . S
N748 C752 1.383 . S
C749 N748 1.376 . S
C749 C750 1.446 . S
C749 C779 1.391 . S
C750 C749 1.446 . S
C750 C751 1.339 . S
C750 H785 0.949 . S
C751 C750 1.339 . S
C751 C752 1.439 . S
C751 H786 0.950 . S
C752 N748 1.383 . S
C752 C751 1.439 . S
C752 C781 1.392 1_554 S
N753 Co747 2.008 . S
N753 C754 1.376 . S
N753 C757 1.374 . S
C754 N753 1.376 . S
C754 C755 1.443 . S
C754 C781 1.389 . S
C755 C754 1.443 . S
C755 C756 1.340 . S
C755 H787 0.951 . S
C756 C755 1.340 . S
C756 C757 1.439 . S
C756 H788 0.950 . S
C757 N753 1.374 . S
C757 C756 1.439 . S
C757 C782 1.395 . S
N758 Co747 1.995 . S
N758 C759 1.376 . S
N758 C762 1.383 . S
C759 N758 1.376 . S
C759 C760 1.446 . S
C759 C782 1.391 . S
C760 C759 1.446 . S
C760 C761 1.339 . S
C760 H789 0.949 . S
C761 C760 1.339 . S
C761 C762 1.439 . S
C761 H790 0.950 . S
C762 N758 1.383 . S
C762 C761 1.439 . S
C762 C780 1.392 1_556 S
N763 Co747 2.282 . S
N763 C766 1.332 . S
N763 C768 1.332 1_556 S
C764 C765 1.386 . S
C764 C767 1.388 1_556 S
C765 C764 1.386 . S
C765 C766 1.382 . S
C765 H791 0.950 . S
C766 N763 1.332 . S
C766 C765 1.382 . S
C766 H777 0.952 . S
C767 C764 1.388 1_554 S
C767 C768 1.382 . S
C767 H792 0.950 . S
C768 N763 1.332 1_554 S
C768 C767 1.382 . S
C768 H778 0.948 . S
N769 Co747 2.282 1_554 S
N769 C773 1.332 . S
N769 C774 1.332 1_554 S
C770 C771 1.388 1_556 S
C770 C774 1.382 . S
C770 H793 0.950 . S
C771 C770 1.388 1_554 S
C771 C772 1.386 . S
C772 C771 1.386 . S
C772 C773 1.382 . S
C772 H794 0.950 . S
C773 N769 1.332 . S
C773 C772 1.382 . S
C773 H775 0.952 . S
C774 N769 1.332 1_556 S
C774 C770 1.382 . S
C774 H776 0.948 . S
H775 C773 0.952 . S
H776 C774 0.948 . S
H777 C766 0.952 . S
H778 C768 0.948 . S
C779 C745 1.395 . S
C779 C749 1.391 . S
C780 C742 1.389 . S
C780 C762 1.392 1_554 S
C781 C752 1.392 1_556 S
C781 C754 1.389 . S
C782 C757 1.395 . S
C782 C759 1.391 . S
H783 C743 0.951 . S
H784 C744 0.950 . S
H785 C750 0.949 . S
H786 C751 0.950 . S
H787 C755 0.951 . S
H788 C756 0.950 . S
H789 C760 0.949 . S
H790 C761 0.950 . S
H791 C765 0.950 . S
H792 C767 0.950 . S
H793 C770 0.950 . S
H794 C772 0.950 . S
C795 C796 1.443 . S
C795 N799 1.376 . S
C795 C833 1.389 . S
C796 C795 1.443 . S
C796 C797 1.340 . S
C796 H836 0.951 . S
C797 C796 1.340 . S
C797 C798 1.439 . S
C797 H837 0.950 . S
C798 C797 1.439 . S
C798 N799 1.374 . S
C798 C832 1.395 . S
N799 C795 1.376 . S
N799 C798 1.374 . S
N799 Co800 2.008 . S
Co800 N799 2.008 . S
Co800 N801 1.995 . S
Co800 N806 2.008 . S
Co800 N811 1.995 . S
Co800 N816 2.282 . S
Co800 N822 2.282 . S
N801 Co800 1.995 . S
N801 C802 1.376 . S
N801 C805 1.383 . S
C802 N801 1.376 . S
C802 C803 1.446 . S
C802 C832 1.391 . S
C803 C802 1.446 . S
C803 C804 1.339 1_545 S
C803 H838 0.943 1_545 S
C804 C803 1.339 1_565 S
C804 C805 1.439 1_565 S
C804 H839 0.950 . S
C805 N801 1.383 . S
C805 C804 1.439 1_545 S
C805 C834 1.392 . S
N806 Co800 2.008 . S
N806 C807 1.376 . S
N806 C810 1.374 . S
C807 N806 1.376 . S
C807 C808 1.443 . S
C807 C834 1.389 . S
C808 C807 1.443 . S
C808 C809 1.340 . S
C808 H840 0.951 . S
C809 C808 1.340 . S
C809 C810 1.439 . S
C809 H841 0.950 . S
C810 N806 1.374 . S
C810 C809 1.439 . S
C810 C835 1.395 . S
N811 Co800 1.995 . S
N811 C812 1.376 . S
N811 C815 1.383 . S
C812 N811 1.376 . S
C812 C813 1.446 . S
C812 C835 1.391 . S
C813 C812 1.446 . S
C813 C814 1.339 . S
C813 H842 0.949 . S
C814 C813 1.339 . S
C814 C815 1.439 . S
C814 H843 0.950 . S
C815 N811 1.383 . S
C815 C814 1.439 . S
C815 C833 1.392 . S
N816 Co800 2.282 . S
N816 C819 1.332 . S
N816 C821 1.332 1_545 S
C817 C818 1.386 . S
C817 C820 1.388 . S
C818 C817 1.386 . S
C818 C819 1.382 1_565 S
C818 H844 0.950 . S
C819 N816 1.332 . S
C819 C818 1.382 1_545 S
C819 H830 0.952 . S
C820 C817 1.388 . S
C820 C821 1.382 . S
C820 H845 0.950 . S
C821 N816 1.332 1_565 S
C821 C820 1.382 . S
C821 H831 0.948 . S
N822 Co800 2.282 . S
N822 C826 1.332 . S
N822 C827 1.332 . S
C823 C824 1.388 . S
C823 C827 1.382 . S
C823 H846 0.950 . S
C824 C823 1.388 . S
C824 C825 1.386 . S
C825 C824 1.386 . S
C825 C826 1.382 . S
C825 H847 0.950 . S
C826 N822 1.332 . S
C826 C825 1.382 . S
C826 H828 0.952 . S
C827 N822 1.332 . S
C827 C823 1.382 . S
C827 H829 0.948 . S
H828 C826 0.952 . S
H829 C827 0.948 . S
H830 C819 0.952 . S
H831 C821 0.948 . S
C832 C798 1.395 . S
C832 C802 1.391 . S
C833 C795 1.389 . S
C833 C815 1.392 . S
C834 C805 1.392 . S
C834 C807 1.389 . S
C835 C810 1.395 . S
C835 C812 1.391 . S
H836 C796 0.951 . S
H837 C797 0.950 . S
H838 C803 0.943 1_565 S
H839 C804 0.950 . S
H840 C808 0.951 . S
H841 C809 0.950 . S
H842 C813 0.949 . S
H843 C814 0.950 . S
H844 C818 0.950 . S
H845 C820 0.950 . S
H846 C823 0.950 . S
H847 C825 0.950 . S
C848 C849 1.349 1_556 S
C848 C850 1.327 . S
C848 H873 0.950 . S
C849 C848 1.349 1_554 S
C849 C865 1.349 . S
C850 C848 1.327 . S
C850 C869 1.429 1_556 S
C850 H874 0.950 . S
C851 C868 1.574 1_565 S
C851 C870 1.368 . S
C851 H875 0.947 1_565 S
H852 C856 0.949 . S
C853 C854 1.349 . S
C853 C855 1.327 1_556 S
C853 H876 0.950 1_556 S
C854 C853 1.349 . S
C854 C866 1.349 . S
C855 C853 1.327 1_554 S
C855 C871 1.429 1_554 S
C855 H877 0.950 . S
C856 H852 0.949 . S
C856 C864 1.574 . S
C856 C872 1.368 . S
H857 C865 0.950 . S
H858 C863 0.950 . S
H859 C864 0.949 . S
H860 C866 0.950 . S
H861 C867 0.950 1_565 S
H862 C868 0.949 . S
C863 H858 0.950 . S
C863 C865 1.327 . S
C863 C869 1.429 . S
C864 C856 1.574 . S
C864 H859 0.949 . S
C864 C870 1.368 1_556 S
C865 C849 1.349 . S
C865 H857 0.950 . S
C865 C863 1.327 . S
C866 C854 1.349 . S
C866 H860 0.950 . S
C866 C867 1.327 . S
C867 H861 0.950 1_545 S
C867 C866 1.327 . S
C867 C871 1.429 . S
C868 C851 1.574 1_545 S
C868 H862 0.949 . S
C868 C872 1.368 1_544 S
C869 C850 1.429 1_554 S
C869 C863 1.429 . S
C869 C870 1.523 . S
C870 C851 1.368 . S
C870 C864 1.368 1_554 S
C870 C869 1.523 . S
C871 C855 1.429 1_556 S
C871 C867 1.429 . S
C871 C872 1.523 1_545 S
C872 C856 1.368 . S
C872 C868 1.368 1_566 S
C872 C871 1.523 1_565 S
H873 C848 0.950 . S
H874 C850 0.950 . S
H875 C851 0.947 1_545 S
H876 C853 0.950 1_554 S
H877 C855 0.950 . S
C878 C879 1.349 . S
C878 C880 1.327 . S
C878 H903 0.950 . S
C879 C878 1.349 . S
C879 C895 1.349 . S
C880 C878 1.327 . S
C880 C899 1.429 . S
C880 H904 0.950 . S
C881 C898 1.574 . S
C881 C900 1.368 . S
C881 H905 0.949 . S
H882 C886 0.949 . S
C883 C884 1.349 . S
C883 C885 1.327 . S
C883 H906 0.950 . S
C884 C883 1.349 . S
C884 C896 1.349 . S
C885 C883 1.327 . S
C885 C901 1.429 . S
C885 H907 0.950 . S
C886 H882 0.949 . S
C886 C894 1.574 . S
C886 C902 1.368 . S
H887 C895 0.950 . S
H888 C893 0.950 . S
H889 C894 0.949 . S
H890 C896 0.950 . S
H891 C897 0.950 . S
H892 C898 0.949 . S
C893 H888 0.950 . S
C893 C895 1.327 . S
C893 C899 1.429 . S
C894 C886 1.574 . S
C894 H889 0.949 . S
C894 C900 1.368 . S
C895 C879 1.349 . S
C895 H887 0.950 . S
C895 C893 1.327 . S
C896 C884 1.349 . S
C896 H890 0.950 . S
C896 C897 1.327 . S
C897 H891 0.950 . S
C897 C896 1.327 . S
C897 C901 1.429 . S
C898 C881 1.574 . S
C898 H892 0.949 . S
C898 C902 1.368 . S
C899 C880 1.429 . S
C899 C893 1.429 . S
C899 C900 1.523 . S
C900 C881 1.368 . S
C900 C894 1.368 . S
C900 C899 1.523 . S
C901 C885 1.429 . S
C901 C897 1.429 . S
C901 C902 1.523 . S
C902 C886 1.368 . S
C902 C898 1.368 . S
C902 C901 1.523 . S
H903 C878 0.950 . S
H904 C880 0.950 . S
H905 C881 0.949 . S
H906 C883 0.950 . S
H907 C885 0.950 . S
C908 C909 1.349 . S
C908 C910 1.327 . S
C908 H933 0.950 . S
C909 C908 1.349 . S
C909 C925 1.349 . S
C910 C908 1.327 . S
C910 C929 1.429 . S
C910 H934 0.950 1_565 S
C911 C928 1.574 1_565 S
C911 C930 1.368 1_565 S
C911 H935 0.949 . S
H912 C916 0.949 . S
C913 C914 1.349 . S
C913 C915 1.327 . S
C913 H936 0.950 . S
C914 C913 1.349 . S
C914 C926 1.349 . S
C915 C913 1.327 . S
C915 C931 1.429 . S
C915 H937 0.950 . S
C916 H912 0.949 . S
C916 C924 1.574 1_655 S
C916 C932 1.368 . S
H917 C925 0.950 . S
H918 C923 0.950 . S
H919 C924 0.949 . S
H920 C926 0.950 . S
H921 C927 0.950 . S
H922 C928 0.949 . S
C923 H918 0.950 . S
C923 C925 1.327 . S
C923 C929 1.429 . S
C924 C916 1.574 1_455 S
C924 H919 0.949 . S
C924 C930 1.368 1_455 S
C925 C909 1.349 . S
C925 H917 0.950 . S
C925 C923 1.327 . S
C926 C914 1.349 . S
C926 H920 0.950 . S
C926 C927 1.327 . S
C927 H921 0.950 . S
C927 C926 1.327 . S
C927 C931 1.429 . S
C928 C911 1.574 1_545 S
C928 H922 0.949 . S
C928 C932 1.368 . S
C929 C910 1.429 . S
C929 C923 1.429 . S
C929 C930 1.523 1_465 S
C930 C911 1.368 1_545 S
C930 C924 1.368 1_655 S
C930 C929 1.523 1_645 S
C931 C915 1.429 . S
C931 C927 1.429 . S
C931 C932 1.523 . S
C932 C916 1.368 . S
C932 C928 1.368 . S
C932 C931 1.523 . S
H933 C908 0.950 . S
H934 C910 0.950 1_545 S
H935 C911 0.949 . S
H936 C913 0.950 . S
H937 C915 0.950 . S
C938 C939 1.349 . S
C938 C940 1.327 . S
C938 H963 0.950 . S
C939 C938 1.349 . S
C939 C955 1.349 . S
C940 C938 1.327 . S
C940 C959 1.429 . S
C940 H964 0.950 . S
C941 C958 1.574 . S
C941 C960 1.368 . S
C941 H965 0.949 . S
H942 C946 0.949 . S
C943 C944 1.349 . S
C943 C945 1.327 . S
C943 H966 0.950 . S
C944 C943 1.349 . S
C944 C956 1.349 . S
C945 C943 1.327 . S
C945 C961 1.429 . S
C945 H967 0.950 . S
C946 H942 0.949 . S
C946 C954 1.574 . S
C946 C962 1.368 . S
H947 C955 0.950 . S
H948 C953 0.950 . S
H949 C954 0.949 . S
H950 C956 0.950 . S
H951 C957 0.950 . S
H952 C958 0.949 . S
C953 H948 0.950 . S
C953 C955 1.327 . S
C953 C959 1.429 . S
C954 C946 1.574 . S
C954 H949 0.949 . S
C954 C960 1.368 . S
C955 C939 1.349 . S
C955 H947 0.950 . S
C955 C953 1.327 . S
C956 C944 1.349 . S
C956 H950 0.950 . S
C956 C957 1.327 . S
C957 H951 0.950 . S
C957 C956 1.327 . S
C957 C961 1.429 . S
C958 C941 1.574 . S
C958 H952 0.949 . S
C958 C962 1.368 . S
C959 C940 1.429 . S
C959 C953 1.429 . S
C959 C960 1.523 . S
C960 C941 1.368 . S
C960 C954 1.368 . S
C960 C959 1.523 . S
C961 C945 1.429 . S
C961 C957 1.429 . S
C961 C962 1.523 . S
C962 C946 1.368 . S
C962 C958 1.368 . S
C962 C961 1.523 . S
H963 C938 0.950 . S
H964 C940 0.950 . S
H965 C941 0.949 . S
H966 C943 0.950 . S
H967 C945 0.950 . S
C968 C969 1.349 . S
C968 C970 1.327 . S
C968 H993 0.950 . S
C969 C968 1.349 . S
C969 C985 1.349 . S
C970 C968 1.327 . S
C970 C989 1.429 . S
C970 H994 0.950 . S
C971 C988 1.574 . S
C971 C990 1.368 . S
C971 H995 0.949 . S
H972 C976 0.949 . S
C973 C974 1.349 . S
C973 C975 1.327 . S
C973 H996 0.950 . S
C974 C973 1.349 . S
C974 C986 1.349 . S
C975 C973 1.327 . S
C975 C991 1.429 . S
C975 H997 0.950 . S
C976 H972 0.949 . S
C976 C984 1.574 . S
C976 C992 1.368 . S
H977 C985 0.950 . S
H978 C983 0.950 . S
H979 C984 0.949 . S
H980 C986 0.950 . S
H981 C987 0.950 . S
H982 C988 0.949 . S
C983 H978 0.950 . S
C983 C985 1.327 . S
C983 C989 1.429 . S
C984 C976 1.574 . S
C984 H979 0.949 . S
C984 C990 1.368 . S
C985 C969 1.349 . S
C985 H977 0.950 . S
C985 C983 1.327 . S
C986 C974 1.349 . S
C986 H980 0.950 . S
C986 C987 1.327 . S
C987 H981 0.950 . S
C987 C986 1.327 . S
C987 C991 1.429 . S
C988 C971 1.574 . S
C988 H982 0.949 . S
C988 C992 1.368 . S
C989 C970 1.429 . S
C989 C983 1.429 . S
C989 C990 1.523 . S
C990 C971 1.368 . S
C990 C984 1.368 . S
C990 C989 1.523 . S
C991 C975 1.429 . S
C991 C987 1.429 . S
C991 C992 1.523 . S
C992 C976 1.368 . S
C992 C988 1.368 . S
C992 C991 1.523 . S
H993 C968 0.950 . S
H994 C970 0.950 . S
H995 C971 0.949 . S
H996 C973 0.950 . S
H997 C975 0.950 . S
C998 C999 1.349 . S
C998 C1000 1.327 . S
C998 H1023 0.950 . S
C999 C998 1.349 . S
C999 C1015 1.349 . S
C1000 C998 1.327 . S
C1000 C1019 1.429 . S
C1000 H1024 0.950 . S
C1001 C1018 1.574 . S
C1001 C1020 1.368 . S
C1001 H1025 0.949 . S
H1002 C1006 0.949 . S
C1003 C1004 1.349 . S
C1003 C1005 1.327 . S
C1003 H1026 0.950 . S
C1004 C1003 1.349 . S
C1004 C1016 1.349 . S
C1005 C1003 1.327 . S
C1005 C1021 1.429 . S
C1005 H1027 0.950 . S
C1006 H1002 0.949 . S
C1006 C1014 1.574 . S
C1006 C1022 1.368 . S
H1007 C1015 0.950 . S
H1008 C1013 0.950 . S
H1009 C1014 0.949 . S
H1010 C1016 0.950 . S
H1011 C1017 0.950 . S
H1012 C1018 0.949 . S
C1013 H1008 0.950 . S
C1013 C1015 1.327 . S
C1013 C1019 1.429 . S
C1014 C1006 1.574 . S
C1014 H1009 0.949 . S
C1014 C1020 1.368 . S
C1015 C999 1.349 . S
C1015 H1007 0.950 . S
C1015 C1013 1.327 . S
C1016 C1004 1.349 . S
C1016 H1010 0.950 . S
C1016 C1017 1.327 . S
C1017 H1011 0.950 . S
C1017 C1016 1.327 . S
C1017 C1021 1.429 . S
C1018 C1001 1.574 . S
C1018 H1012 0.949 . S
C1018 C1022 1.368 . S
C1019 C1000 1.429 . S
C1019 C1013 1.429 . S
C1019 C1020 1.523 . S
C1020 C1001 1.368 . S
C1020 C1014 1.368 . S
C1020 C1019 1.523 . S
C1021 C1005 1.429 . S
C1021 C1017 1.429 . S
C1021 C1022 1.523 . S
C1022 C1006 1.368 . S
C1022 C1018 1.368 . S
C1022 C1021 1.523 . S
H1023 C998 0.950 . S
H1024 C1000 0.950 . S
H1025 C1001 0.949 . S
H1026 C1003 0.950 . S
H1027 C1005 0.950 . S
C1028 C1029 1.349 . S
C1028 C1030 1.327 . S
C1028 H1053 0.950 . S
C1029 C1028 1.349 . S
C1029 C1045 1.349 . S
C1030 C1028 1.327 . S
C1030 C1049 1.429 . S
C1030 H1054 0.950 . S
C1031 C1048 1.574 . S
C1031 C1050 1.368 . S
C1031 H1055 0.949 . S
H1032 C1036 0.949 . S
C1033 C1034 1.349 . S
C1033 C1035 1.327 . S
C1033 H1056 0.950 . S
C1034 C1033 1.349 . S
C1034 C1046 1.349 . S
C1035 C1033 1.327 . S
C1035 C1051 1.429 . S
C1035 H1057 0.950 . S
C1036 H1032 0.949 . S
C1036 C1044 1.548 1_455 S
C1036 C1052 1.368 . S
H1037 C1045 0.950 . S
H1038 C1043 0.950 . S
H1039 C1044 0.974 . S
H1040 C1046 0.950 . S
H1041 C1047 0.950 . S
H1042 C1048 0.949 . S
C1043 H1038 0.950 . S
C1043 C1045 1.327 . S
C1043 C1049 1.429 . S
C1044 C1036 1.548 1_655 S
C1044 H1039 0.974 . S
C1044 C1050 1.367 1_655 S
C1045 C1029 1.349 . S
C1045 H1037 0.950 . S
C1045 C1043 1.327 . S
C1046 C1034 1.349 . S
C1046 H1040 0.950 . S
C1046 C1047 1.327 . S
C1047 H1041 0.950 . S
C1047 C1046 1.327 . S
C1047 C1051 1.429 . S
C1048 C1031 1.574 . S
C1048 H1042 0.949 . S
C1048 C1052 1.368 . S
C1049 C1030 1.429 . S
C1049 C1043 1.429 . S
C1049 C1050 1.523 1_655 S
C1050 C1031 1.368 . S
C1050 C1044 1.367 1_455 S
C1050 C1049 1.523 1_455 S
C1051 C1035 1.429 . S
C1051 C1047 1.429 . S
C1051 C1052 1.523 . S
C1052 C1036 1.368 . S
C1052 C1048 1.368 . S
C1052 C1051 1.523 . S
H1053 C1028 0.950 . S
H1054 C1030 0.950 . S
H1055 C1031 0.949 . S
H1056 C1033 0.950 . S
H1057 C1035 0.950 . S
C1058 C1059 1.349 1_556 S
C1058 C1060 1.327 . S
C1058 H1083 0.950 . S
C1059 C1058 1.349 1_554 S
C1059 C1075 1.349 . S
C1060 C1058 1.327 . S
C1060 C1079 1.429 1_556 S
C1060 H1084 0.950 . S
C1061 C1078 1.574 . S
C1061 C1080 1.368 . S
C1061 H1085 0.949 . S
H1062 C1066 0.949 . S
C1063 C1064 1.349 1_554 S
C1063 C1065 1.327 . S
C1063 H1086 0.950 . S
C1064 C1063 1.349 1_556 S
C1064 C1076 1.349 . S
C1065 C1063 1.327 . S
C1065 C1081 1.429 1_554 S
C1065 H1087 0.950 . S
C1066 H1062 0.949 . S
C1066 C1074 1.574 . S
C1066 C1082 1.368 . S
H1067 C1075 0.950 . S
H1068 C1073 0.950 . S
H1069 C1074 0.949 . S
H1070 C1076 0.950 . S
H1071 C1077 0.950 . S
H1072 C1078 0.949 . S
C1073 H1068 0.950 . S
C1073 C1075 1.327 . S
C1073 C1079 1.429 . S
C1074 C1066 1.574 . S
C1074 H1069 0.949 . S
C1074 C1080 1.368 1_556 S
C1075 C1059 1.349 . S
C1075 H1067 0.950 . S
C1075 C1073 1.327 . S
C1076 C1064 1.349 . S
C1076 H1070 0.950 . S
C1076 C1077 1.327 . S
C1077 H1071 0.950 . S
C1077 C1076 1.327 . S
C1077 C1081 1.429 . S
C1078 C1061 1.574 . S
C1078 H1072 0.949 . S
C1078 C1082 1.368 1_554 S
C1079 C1060 1.429 1_554 S
C1079 C1073 1.429 . S
C1079 C1080 1.523 . S
C1080 C1061 1.368 . S
C1080 C1074 1.368 1_554 S
C1080 C1079 1.523 . S
C1081 C1065 1.429 1_556 S
C1081 C1077 1.429 . S
C1081 C1082 1.523 . S
C1082 C1066 1.368 . S
C1082 C1078 1.368 1_556 S
C1082 C1081 1.523 . S
H1083 C1058 0.950 . S
H1084 C1060 0.950 . S
H1085 C1061 0.949 . S
H1086 C1063 0.950 . S
H1087 C1065 0.950 . S
C1088 C1089 1.349 . S
C1088 C1090 1.327 . S
C1088 H1113 0.950 . S
C1089 C1088 1.349 . S
C1089 C1105 1.349 . S
C1090 C1088 1.327 . S
C1090 C1109 1.429 . S
C1090 H1114 0.950 . S
C1091 C1108 1.574 . S
C1091 C1110 1.368 . S
C1091 H1115 0.949 . S
H1092 C1096 0.949 . S
C1093 C1094 1.349 . S
C1093 C1095 1.327 . S
C1093 H1116 0.950 . S
C1094 C1093 1.349 . S
C1094 C1106 1.349 . S
C1095 C1093 1.327 . S
C1095 C1111 1.429 . S
C1095 H1117 0.950 . S
C1096 H1092 0.949 . S
C1096 C1104 1.574 . S
C1096 C1112 1.368 . S
H1097 C1105 0.950 . S
H1098 C1103 0.950 . S
H1099 C1104 0.949 . S
H1100 C1106 0.950 . S
H1101 C1107 0.950 . S
H1102 C1108 0.949 . S
C1103 H1098 0.950 . S
C1103 C1105 1.327 . S
C1103 C1109 1.429 . S
C1104 C1096 1.574 . S
C1104 H1099 0.949 . S
C1104 C1110 1.368 . S
C1105 C1089 1.349 . S
C1105 H1097 0.950 . S
C1105 C1103 1.327 . S
C1106 C1094 1.349 . S
C1106 H1100 0.950 . S
C1106 C1107 1.327 . S
C1107 H1101 0.950 . S
C1107 C1106 1.327 . S
C1107 C1111 1.429 . S
C1108 C1091 1.574 . S
C1108 H1102 0.949 . S
C1108 C1112 1.368 . S
C1109 C1090 1.429 . S
C1109 C1103 1.429 . S
C1109 C1110 1.523 . S
C1110 C1091 1.368 . S
C1110 C1104 1.368 . S
C1110 C1109 1.523 . S
C1111 C1095 1.429 . S
C1111 C1107 1.429 . S
C1111 C1112 1.523 . S
C1112 C1096 1.368 . S
C1112 C1108 1.368 . S
C1112 C1111 1.523 . S
H1113 C1088 0.950 . S
H1114 C1090 0.950 . S
H1115 C1091 0.949 . S
H1116 C1093 0.950 . S
H1117 C1095 0.950 . S
C1118 C1119 1.349 . S
C1118 C1120 1.327 . S
C1118 H1143 0.950 . S
C1119 C1118 1.349 . S
C1119 C1135 1.349 . S
C1120 C1118 1.327 . S
C1120 C1139 1.429 . S
C1120 H1144 0.950 . S
C1121 C1138 1.574 . S
C1121 C1140 1.368 . S
C1121 H1145 0.949 . S
H1122 C1126 0.949 . S
C1123 C1124 1.349 . S
C1123 C1125 1.327 . S
C1123 H1146 0.950 . S
C1124 C1123 1.349 . S
C1124 C1136 1.349 . S
C1125 C1123 1.327 . S
C1125 C1141 1.429 . S
C1125 H1147 0.950 . S
C1126 H1122 0.949 . S
C1126 C1134 1.574 . S
C1126 C1142 1.368 . S
H1127 C1135 0.950 . S
H1128 C1133 0.950 . S
H1129 C1134 0.949 . S
H1130 C1136 0.950 . S
H1131 C1137 0.950 . S
H1132 C1138 0.949 . S
C1133 H1128 0.950 . S
C1133 C1135 1.327 . S
C1133 C1139 1.429 . S
C1134 C1126 1.574 . S
C1134 H1129 0.949 . S
C1134 C1140 1.368 . S
C1135 C1119 1.349 . S
C1135 H1127 0.950 . S
C1135 C1133 1.327 . S
C1136 C1124 1.349 . S
C1136 H1130 0.950 . S
C1136 C1137 1.327 . S
C1137 H1131 0.950 . S
C1137 C1136 1.327 . S
C1137 C1141 1.429 . S
C1138 C1121 1.574 . S
C1138 H1132 0.949 . S
C1138 C1142 1.368 . S
C1139 C1120 1.429 . S
C1139 C1133 1.429 . S
C1139 C1140 1.523 . S
C1140 C1121 1.368 . S
C1140 C1134 1.368 . S
C1140 C1139 1.523 . S
C1141 C1125 1.429 . S
C1141 C1137 1.429 . S
C1141 C1142 1.523 . S
C1142 C1126 1.368 . S
C1142 C1138 1.368 . S
C1142 C1141 1.523 . S
H1143 C1118 0.950 . S
H1144 C1120 0.950 . S
H1145 C1121 0.949 . S
H1146 C1123 0.950 . S
H1147 C1125 0.950 . S
C1148 C1149 1.349 . S
C1148 C1150 1.327 . S
C1148 H1173 0.950 . S
C1149 C1148 1.349 . S
C1149 C1165 1.349 . S
C1150 C1148 1.327 . S
C1150 C1169 1.429 . S
C1150 H1174 0.950 . S
C1151 C1168 1.574 . S
C1151 C1170 1.368 . S
C1151 H1175 0.949 . S
H1152 C1156 0.949 . S
C1153 C1154 1.349 . S
C1153 C1155 1.327 . S
C1153 H1176 0.950 . S
C1154 C1153 1.349 . S
C1154 C1166 1.349 . S
C1155 C1153 1.327 . S
C1155 C1171 1.429 . S
C1155 H1177 0.950 . S
C1156 H1152 0.949 . S
C1156 C1164 1.574 . S
C1156 C1172 1.368 . S
H1157 C1165 0.950 . S
H1158 C1163 0.950 . S
H1159 C1164 0.949 . S
H1160 C1166 0.950 . S
H1161 C1167 0.950 . S
H1162 C1168 0.949 . S
C1163 H1158 0.950 . S
C1163 C1165 1.327 . S
C1163 C1169 1.429 . S
C1164 C1156 1.574 . S
C1164 H1159 0.949 . S
C1164 C1170 1.368 . S
C1165 C1149 1.349 . S
C1165 H1157 0.950 . S
C1165 C1163 1.327 . S
C1166 C1154 1.349 . S
C1166 H1160 0.950 . S
C1166 C1167 1.327 . S
C1167 H1161 0.950 . S
C1167 C1166 1.327 . S
C1167 C1171 1.429 . S
C1168 C1151 1.574 . S
C1168 H1162 0.949 . S
C1168 C1172 1.368 . S
C1169 C1150 1.429 . S
C1169 C1163 1.429 . S
C1169 C1170 1.523 . S
C1170 C1151 1.368 . S
C1170 C1164 1.368 . S
C1170 C1169 1.523 . S
C1171 C1155 1.429 . S
C1171 C1167 1.429 . S
C1171 C1172 1.523 . S
C1172 C1156 1.368 . S
C1172 C1168 1.368 . S
C1172 C1171 1.523 . S
H1173 C1148 0.950 . S
H1174 C1150 0.950 . S
H1175 C1151 0.949 . S
H1176 C1153 0.950 . S
H1177 C1155 0.950 . S
C1178 C1179 1.349 . S
C1178 C1180 1.327 1_655 S
C1178 H1203 0.950 . S
C1179 C1178 1.349 . S
C1179 C1195 1.349 . S
C1180 C1178 1.327 1_455 S
C1180 C1199 1.429 . S
C1180 H1204 0.950 . S
C1181 C1198 1.574 . S
C1181 C1200 1.368 . S
C1181 H1205 0.949 . S
H1182 C1186 0.949 . S
C1183 C1184 1.349 . S
C1183 C1185 1.327 . S
C1183 H1206 0.950 . S
C1184 C1183 1.349 . S
C1184 C1196 1.349 . S
C1185 C1183 1.327 . S
C1185 C1201 1.429 . S
C1185 H1207 0.950 . S
C1186 H1182 0.949 . S
C1186 C1194 1.574 . S
C1186 C1202 1.368 . S
H1187 C1195 0.950 . S
H1188 C1193 0.950 . S
H1189 C1194 0.949 . S
H1190 C1196 0.950 . S
H1191 C1197 0.950 . S
H1192 C1198 0.949 . S
C1193 H1188 0.950 . S
C1193 C1195 1.327 1_455 S
C1193 C1199 1.429 . S
C1194 C1186 1.574 . S
C1194 H1189 0.949 . S
C1194 C1200 1.368 . S
C1195 C1179 1.349 . S
C1195 H1187 0.950 . S
C1195 C1193 1.327 1_655 S
C1196 C1184 1.349 . S
C1196 H1190 0.950 . S
C1196 C1197 1.327 . S
C1197 H1191 0.950 . S
C1197 C1196 1.327 . S
C1197 C1201 1.429 . S
C1198 C1181 1.574 . S
C1198 H1192 0.949 . S
C1198 C1202 1.368 . S
C1199 C1180 1.429 . S
C1199 C1193 1.429 . S
C1199 C1200 1.523 . S
C1200 C1181 1.368 . S
C1200 C1194 1.368 . S
C1200 C1199 1.523 . S
C1201 C1185 1.429 . S
C1201 C1197 1.429 . S
C1201 C1202 1.523 . S
C1202 C1186 1.368 . S
C1202 C1198 1.368 . S
C1202 C1201 1.523 . S
H1203 C1178 0.950 . S
H1204 C1180 0.950 . S
H1205 C1181 0.949 . S
H1206 C1183 0.950 . S
H1207 C1185 0.950 . S
C1208 C1209 1.349 . S
C1208 C1210 1.327 . S
C1208 H1233 0.950 . S
C1209 C1208 1.349 . S
C1209 C1225 1.349 . S
C1210 C1208 1.327 . S
C1210 C1229 1.429 . S
C1210 H1234 0.950 . S
C1211 C1228 1.574 . S
C1211 C1230 1.368 . S
C1211 H1235 0.949 . S
H1212 C1216 0.949 . S
C1213 C1214 1.349 . S
C1213 C1215 1.327 . S
C1213 H1236 0.950 . S
C1214 C1213 1.349 . S
C1214 C1226 1.349 . S
C1215 C1213 1.327 . S
C1215 C1231 1.429 . S
C1215 H1237 0.950 . S
C1216 H1212 0.949 . S
C1216 C1224 1.574 . S
C1216 C1232 1.368 . S
H1217 C1225 0.950 . S
H1218 C1223 0.950 . S
H1219 C1224 0.949 . S
H1220 C1226 0.950 . S
H1221 C1227 0.950 . S
H1222 C1228 0.949 . S
C1223 H1218 0.950 . S
C1223 C1225 1.327 . S
C1223 C1229 1.429 . S
C1224 C1216 1.574 . S
C1224 H1219 0.949 . S
C1224 C1230 1.368 . S
C1225 C1209 1.349 . S
C1225 H1217 0.950 . S
C1225 C1223 1.327 . S
C1226 C1214 1.349 . S
C1226 H1220 0.950 . S
C1226 C1227 1.327 . S
C1227 H1221 0.950 . S
C1227 C1226 1.327 . S
C1227 C1231 1.429 . S
C1228 C1211 1.574 . S
C1228 H1222 0.949 . S
C1228 C1232 1.368 . S
C1229 C1210 1.429 . S
C1229 C1223 1.429 . S
C1229 C1230 1.523 . S
C1230 C1211 1.368 . S
C1230 C1224 1.368 . S
C1230 C1229 1.523 . S
C1231 C1215 1.429 . S
C1231 C1227 1.429 . S
C1231 C1232 1.523 . S
C1232 C1216 1.368 . S
C1232 C1228 1.368 . S
C1232 C1231 1.523 . S
H1233 C1208 0.950 . S
H1234 C1210 0.950 . S
H1235 C1211 0.949 . S
H1236 C1213 0.950 . S
H1237 C1215 0.950 . S
C1238 C1239 1.349 . S
C1238 C1240 1.327 . S
C1238 H1263 0.950 . S
C1239 C1238 1.349 . S
C1239 C1255 1.349 . S
C1240 C1238 1.327 . S
C1240 C1259 1.429 . S
C1240 H1264 0.950 . S
C1241 C1258 1.574 . S
C1241 C1260 1.368 . S
C1241 H1265 0.949 . S
H1242 C1246 0.949 . S
C1243 C1244 1.349 . S
C1243 C1245 1.327 . S
C1243 H1266 0.950 . S
C1244 C1243 1.349 . S
C1244 C1256 1.349 . S
C1245 C1243 1.327 . S
C1245 C1261 1.429 . S
C1245 H1267 0.950 . S
C1246 H1242 0.949 . S
C1246 C1254 1.574 . S
C1246 C1262 1.368 . S
H1247 C1255 0.950 . S
H1248 C1253 0.950 . S
H1249 C1254 0.949 . S
H1250 C1256 0.950 . S
H1251 C1257 0.950 . S
H1252 C1258 0.949 . S
C1253 H1248 0.950 . S
C1253 C1255 1.327 . S
C1253 C1259 1.429 . S
C1254 C1246 1.574 . S
C1254 H1249 0.949 . S
C1254 C1260 1.368 . S
C1255 C1239 1.349 . S
C1255 H1247 0.950 . S
C1255 C1253 1.327 . S
C1256 C1244 1.349 . S
C1256 H1250 0.950 . S
C1256 C1257 1.327 . S
C1257 H1251 0.950 . S
C1257 C1256 1.327 . S
C1257 C1261 1.429 . S
C1258 C1241 1.574 . S
C1258 H1252 0.949 . S
C1258 C1262 1.368 . S
C1259 C1240 1.429 . S
C1259 C1253 1.429 . S
C1259 C1260 1.523 . S
C1260 C1241 1.368 . S
C1260 C1254 1.368 . S
C1260 C1259 1.523 . S
C1261 C1245 1.429 . S
C1261 C1257 1.429 . S
C1261 C1262 1.523 . S
C1262 C1246 1.368 . S
C1262 C1258 1.368 . S
C1262 C1261 1.523 . S
H1263 C1238 0.950 . S
H1264 C1240 0.950 . S
H1265 C1241 0.949 . S
H1266 C1243 0.950 . S
H1267 C1245 0.950 . S
C1268 C1269 1.349 . S
C1268 C1270 1.327 . S
C1268 H1293 0.950 . S
C1269 C1268 1.349 . S
C1269 C1285 1.349 . S
C1270 C1268 1.327 . S
C1270 C1289 1.429 . S
C1270 H1294 0.950 . S
C1271 C1288 1.574 . S
C1271 C1290 1.368 . S
C1271 H1295 0.949 . S
H1272 C1276 0.949 . S
C1273 C1274 1.349 . S
C1273 C1275 1.327 . S
C1273 H1296 0.950 . S
C1274 C1273 1.349 . S
C1274 C1286 1.349 . S
C1275 C1273 1.327 . S
C1275 C1291 1.429 . S
C1275 H1297 0.950 . S
C1276 H1272 0.949 . S
C1276 C1284 1.574 . S
C1276 C1292 1.368 . S
H1277 C1285 0.950 . S
H1278 C1283 0.950 . S
H1279 C1284 0.949 . S
H1280 C1286 0.950 . S
H1281 C1287 0.950 . S
H1282 C1288 0.949 . S
C1283 H1278 0.950 . S
C1283 C1285 1.327 . S
C1283 C1289 1.429 . S
C1284 C1276 1.574 . S
C1284 H1279 0.949 . S
C1284 C1290 1.368 . S
C1285 C1269 1.349 . S
C1285 H1277 0.950 . S
C1285 C1283 1.327 . S
C1286 C1274 1.349 . S
C1286 H1280 0.950 . S
C1286 C1287 1.327 . S
C1287 H1281 0.950 . S
C1287 C1286 1.327 . S
C1287 C1291 1.429 . S
C1288 C1271 1.574 . S
C1288 H1282 0.949 . S
C1288 C1292 1.368 . S
C1289 C1270 1.429 . S
C1289 C1283 1.429 . S
C1289 C1290 1.523 . S
C1290 C1271 1.368 . S
C1290 C1284 1.368 . S
C1290 C1289 1.523 . S
C1291 C1275 1.429 . S
C1291 C1287 1.429 . S
C1291 C1292 1.523 . S
C1292 C1276 1.368 . S
C1292 C1288 1.368 . S
C1292 C1291 1.523 . S
H1293 C1268 0.950 . S
H1294 C1270 0.950 . S
H1295 C1271 0.949 . S
H1296 C1273 0.950 . S
H1297 C1275 0.950 . S
C1298 C1299 1.349 . S
C1298 C1300 1.327 . S
C1298 H1323 0.950 . S
C1299 C1298 1.349 . S
C1299 C1315 1.349 . S
C1300 C1298 1.327 . S
C1300 C1319 1.429 . S
C1300 H1324 0.950 . S
C1301 C1318 1.574 . S
C1301 C1320 1.368 . S
C1301 H1325 0.949 . S
H1302 C1306 0.949 . S
C1303 C1304 1.349 . S
C1303 C1305 1.327 . S
C1303 H1326 0.950 . S
C1304 C1303 1.349 . S
C1304 C1316 1.349 . S
C1305 C1303 1.327 . S
C1305 C1321 1.429 . S
C1305 H1327 0.950 . S
C1306 H1302 0.949 . S
C1306 C1314 1.574 . S
C1306 C1322 1.368 . S
H1307 C1315 0.950 . S
H1308 C1313 0.950 . S
H1309 C1314 0.949 . S
H1310 C1316 0.950 . S
H1311 C1317 0.950 . S
H1312 C1318 0.949 . S
C1313 H1308 0.950 . S
C1313 C1315 1.327 . S
C1313 C1319 1.429 . S
C1314 C1306 1.574 . S
C1314 H1309 0.949 . S
C1314 C1320 1.368 . S
C1315 C1299 1.349 . S
C1315 H1307 0.950 . S
C1315 C1313 1.327 . S
C1316 C1304 1.349 . S
C1316 H1310 0.950 . S
C1316 C1317 1.327 . S
C1317 H1311 0.950 . S
C1317 C1316 1.327 . S
C1317 C1321 1.429 . S
C1318 C1301 1.574 . S
C1318 H1312 0.949 . S
C1318 C1322 1.368 . S
C1319 C1300 1.429 . S
C1319 C1313 1.429 . S
C1319 C1320 1.523 . S
C1320 C1301 1.368 . S
C1320 C1314 1.368 . S
C1320 C1319 1.523 . S
C1321 C1305 1.429 . S
C1321 C1317 1.429 . S
C1321 C1322 1.523 . S
C1322 C1306 1.368 . S
C1322 C1318 1.368 . S
C1322 C1321 1.523 . S
H1323 C1298 0.950 . S
H1324 C1300 0.950 . S
H1325 C1301 0.949 . S
H1326 C1303 0.950 . S
H1327 C1305 0.950 . S
C1328 C1329 1.349 . S
C1328 C1330 1.327 . S
C1328 H1353 0.950 . S
C1329 C1328 1.349 . S
C1329 C1345 1.349 . S
C1330 C1328 1.327 . S
C1330 C1349 1.429 . S
C1330 H1354 0.950 . S
C1331 C1348 1.574 . S
C1331 C1350 1.368 . S
C1331 H1355 0.949 . S
H1332 C1336 0.949 . S
C1333 C1334 1.349 . S
C1333 C1335 1.327 . S
C1333 H1356 0.950 . S
C1334 C1333 1.349 . S
C1334 C1346 1.349 . S
C1335 C1333 1.327 . S
C1335 C1351 1.429 . S
C1335 H1357 0.950 . S
C1336 H1332 0.949 . S
C1336 C1344 1.574 . S
C1336 C1352 1.368 . S
H1337 C1345 0.950 . S
H1338 C1343 0.950 . S
H1339 C1344 0.949 . S
H1340 C1346 0.950 . S
H1341 C1347 0.950 . S
H1342 C1348 0.949 . S
C1343 H1338 0.950 . S
C1343 C1345 1.327 . S
C1343 C1349 1.429 . S
C1344 C1336 1.574 . S
C1344 H1339 0.949 . S
C1344 C1350 1.368 . S
C1345 C1329 1.349 . S
C1345 H1337 0.950 . S
C1345 C1343 1.327 . S
C1346 C1334 1.349 . S
C1346 H1340 0.950 . S
C1346 C1347 1.327 . S
C1347 H1341 0.950 . S
C1347 C1346 1.327 . S
C1347 C1351 1.429 . S
C1348 C1331 1.574 . S
C1348 H1342 0.949 . S
C1348 C1352 1.368 . S
C1349 C1330 1.429 . S
C1349 C1343 1.429 . S
C1349 C1350 1.523 . S
C1350 C1331 1.368 . S
C1350 C1344 1.368 . S
C1350 C1349 1.523 . S
C1351 C1335 1.429 . S
C1351 C1347 1.429 . S
C1351 C1352 1.523 . S
C1352 C1336 1.368 . S
C1352 C1348 1.368 . S
C1352 C1351 1.523 . S
H1353 C1328 0.950 . S
H1354 C1330 0.950 . S
H1355 C1331 0.949 . S
H1356 C1333 0.950 . S
H1357 C1335 0.950 . S
C1358 C1359 1.349 . S
C1358 C1360 1.327 . S
C1358 H1383 0.950 . S
C1359 C1358 1.349 . S
C1359 C1375 1.349 . S
C1360 C1358 1.327 . S
C1360 C1379 1.429 . S
C1360 H1384 0.950 . S
C1361 C1378 1.574 . S
C1361 C1380 1.368 . S
C1361 H1385 0.949 . S
H1362 C1366 0.949 . S
C1363 C1364 1.350 . S
C1363 C1365 1.328 1_455 S
C1363 H1386 0.948 1_565 S
C1364 C1363 1.350 . S
C1364 C1376 1.349 . S
C1365 C1363 1.328 1_655 S
C1365 C1381 1.429 . S
C1365 H1387 0.954 . S
C1366 H1362 0.949 . S
C1366 C1374 1.574 . S
C1366 C1382 1.368 . S
H1367 C1375 0.950 . S
H1368 C1373 0.950 . S
H1369 C1374 0.949 . S
H1370 C1376 0.950 . S
H1371 C1377 0.950 . S
H1372 C1378 0.949 . S
C1373 H1368 0.950 . S
C1373 C1375 1.327 . S
C1373 C1379 1.429 . S
C1374 C1366 1.574 . S
C1374 H1369 0.949 . S
C1374 C1380 1.368 . S
C1375 C1359 1.349 . S
C1375 H1367 0.950 . S
C1375 C1373 1.327 . S
C1376 C1364 1.349 . S
C1376 H1370 0.950 . S
C1376 C1377 1.327 1_455 S
C1377 H1371 0.950 . S
C1377 C1376 1.327 1_655 S
C1377 C1381 1.429 . S
C1378 C1361 1.574 . S
C1378 H1372 0.949 . S
C1378 C1382 1.368 . S
C1379 C1360 1.429 . S
C1379 C1373 1.429 . S
C1379 C1380 1.523 . S
C1380 C1361 1.368 . S
C1380 C1374 1.368 . S
C1380 C1379 1.523 . S
C1381 C1365 1.429 . S
C1381 C1377 1.429 . S
C1381 C1382 1.523 . S
C1382 C1366 1.368 . S
C1382 C1378 1.368 . S
C1382 C1381 1.523 . S
H1383 C1358 0.950 . S
H1384 C1360 0.950 . S
H1385 C1361 0.949 . S
H1386 C1363 0.948 1_545 S
H1387 C1365 0.954 . S
C1388 C1389 1.349 . S
C1388 C1390 1.327 . S
C1388 H1413 0.950 . S
C1389 C1388 1.349 . S
C1389 C1405 1.349 . S
C1390 C1388 1.327 . S
C1390 C1409 1.429 . S
C1390 H1414 0.950 . S
C1391 C1408 1.574 . S
C1391 C1410 1.368 . S
C1391 H1415 0.949 . S
H1392 C1396 0.949 . S
C1393 C1394 1.349 . S
C1393 C1395 1.327 . S
C1393 H1416 0.950 . S
C1394 C1393 1.349 . S
C1394 C1406 1.349 . S
C1395 C1393 1.327 . S
C1395 C1411 1.429 . S
C1395 H1417 0.950 . S
C1396 H1392 0.949 . S
C1396 C1404 1.574 . S
C1396 C1412 1.368 . S
H1397 C1405 0.950 . S
H1398 C1403 0.950 . S
H1399 C1404 0.949 . S
H1400 C1406 0.950 . S
H1401 C1407 0.950 . S
H1402 C1408 0.949 . S
C1403 H1398 0.950 . S
C1403 C1405 1.327 . S
C1403 C1409 1.429 . S
C1404 C1396 1.574 . S
C1404 H1399 0.949 . S
C1404 C1410 1.368 . S
C1405 C1389 1.349 . S
C1405 H1397 0.950 . S
C1405 C1403 1.327 . S
C1406 C1394 1.349 . S
C1406 H1400 0.950 . S
C1406 C1407 1.327 . S
C1407 H1401 0.950 . S
C1407 C1406 1.327 . S
C1407 C1411 1.429 . S
C1408 C1391 1.574 . S
C1408 H1402 0.949 . S
C1408 C1412 1.368 . S
C1409 C1390 1.429 . S
C1409 C1403 1.429 . S
C1409 C1410 1.523 . S
C1410 C1391 1.368 . S
C1410 C1404 1.368 . S
C1410 C1409 1.523 . S
C1411 C1395 1.429 . S
C1411 C1407 1.429 . S
C1411 C1412 1.523 . S
C1412 C1396 1.368 . S
C1412 C1408 1.368 . S
C1412 C1411 1.523 . S
H1413 C1388 0.950 . S
H1414 C1390 0.950 . S
H1415 C1391 0.949 . S
H1416 C1393 0.950 . S
H1417 C1395 0.950 . S
C1418 C1419 1.349 . S
C1418 C1420 1.327 . S
C1418 H1443 0.950 . S
C1419 C1418 1.349 . S
C1419 C1435 1.349 . S
C1420 C1418 1.327 . S
C1420 C1439 1.429 . S
C1420 H1444 0.950 . S
C1421 C1438 1.574 . S
C1421 C1440 1.368 . S
C1421 H1445 0.949 . S
H1422 C1426 0.949 . S
C1423 C1424 1.349 . S
C1423 C1425 1.327 . S
C1423 H1446 0.950 . S
C1424 C1423 1.349 . S
C1424 C1436 1.349 . S
C1425 C1423 1.327 . S
C1425 C1441 1.429 . S
C1425 H1447 0.950 . S
C1426 H1422 0.949 . S
C1426 C1434 1.574 . S
C1426 C1442 1.368 . S
H1427 C1435 0.950 1_565 S
H1428 C1433 0.950 . S
H1429 C1434 0.949 . S
H1430 C1436 0.950 . S
H1431 C1437 0.950 . S
H1432 C1438 0.949 . S
C1433 H1428 0.950 . S
C1433 C1435 1.327 . S
C1433 C1439 1.429 . S
C1434 C1426 1.574 . S
C1434 H1429 0.949 . S
C1434 C1440 1.368 . S
C1435 C1419 1.349 . S
C1435 H1427 0.950 1_545 S
C1435 C1433 1.327 . S
C1436 C1424 1.349 . S
C1436 H1430 0.950 . S
C1436 C1437 1.327 . S
C1437 H1431 0.950 . S
C1437 C1436 1.327 . S
C1437 C1441 1.429 . S
C1438 C1421 1.574 . S
C1438 H1432 0.949 . S
C1438 C1442 1.368 . S
C1439 C1420 1.429 . S
C1439 C1433 1.429 . S
C1439 C1440 1.523 . S
C1440 C1421 1.368 . S
C1440 C1434 1.368 . S
C1440 C1439 1.523 . S
C1441 C1425 1.429 . S
C1441 C1437 1.429 . S
C1441 C1442 1.523 . S
C1442 C1426 1.368 . S
C1442 C1438 1.368 . S
C1442 C1441 1.523 . S
H1443 C1418 0.950 . S
H1444 C1420 0.950 . S
H1445 C1421 0.949 . S
H1446 C1423 0.950 . S
H1447 C1425 0.950 . S
C1448 C1449 1.349 . S
C1448 C1450 1.327 . S
C1448 H1473 0.950 . S
C1449 C1448 1.349 . S
C1449 C1465 1.349 . S
C1450 C1448 1.327 . S
C1450 C1469 1.429 . S
C1450 H1474 0.950 . S
C1451 C1468 1.574 . S
C1451 C1470 1.368 . S
C1451 H1475 0.949 . S
H1452 C1456 0.949 . S
C1453 C1454 1.349 . S
C1453 C1455 1.327 . S
C1453 H1476 0.950 . S
C1454 C1453 1.349 . S
C1454 C1466 1.349 . S
C1455 C1453 1.327 . S
C1455 C1471 1.429 . S
C1455 H1477 0.950 . S
C1456 H1452 0.949 . S
C1456 C1464 1.574 . S
C1456 C1472 1.368 . S
H1457 C1465 0.950 . S
H1458 C1463 0.950 . S
H1459 C1464 0.949 . S
H1460 C1466 0.950 . S
H1461 C1467 0.950 . S
H1462 C1468 0.949 . S
C1463 H1458 0.950 . S
C1463 C1465 1.327 . S
C1463 C1469 1.429 . S
C1464 C1456 1.574 . S
C1464 H1459 0.949 . S
C1464 C1470 1.368 . S
C1465 C1449 1.349 . S
C1465 H1457 0.950 . S
C1465 C1463 1.327 . S
C1466 C1454 1.349 . S
C1466 H1460 0.950 . S
C1466 C1467 1.327 . S
C1467 H1461 0.950 . S
C1467 C1466 1.327 . S
C1467 C1471 1.429 . S
C1468 C1451 1.574 . S
C1468 H1462 0.949 . S
C1468 C1472 1.368 . S
C1469 C1450 1.429 . S
C1469 C1463 1.429 . S
C1469 C1470 1.523 . S
C1470 C1451 1.368 . S
C1470 C1464 1.368 . S
C1470 C1469 1.523 . S
C1471 C1455 1.429 . S
C1471 C1467 1.429 . S
C1471 C1472 1.523 . S
C1472 C1456 1.368 . S
C1472 C1468 1.368 . S
C1472 C1471 1.523 . S
H1473 C1448 0.950 . S
H1474 C1450 0.950 . S
H1475 C1451 0.949 . S
H1476 C1453 0.950 . S
H1477 C1455 0.950 . S
C1478 C1479 1.349 . S
C1478 C1480 1.327 . S
C1478 H1503 0.950 1_455 S
C1479 C1478 1.349 . S
C1479 C1495 1.349 . S
C1480 C1478 1.327 . S
C1480 C1499 1.429 . S
C1480 H1504 0.950 . S
C1481 C1498 1.574 . S
C1481 C1500 1.368 . S
C1481 H1505 0.949 . S
H1482 C1486 0.949 . S
C1483 C1484 1.349 . S
C1483 C1485 1.327 . S
C1483 H1506 0.950 . S
C1484 C1483 1.349 . S
C1484 C1496 1.349 . S
C1485 C1483 1.327 . S
C1485 C1501 1.429 . S
C1485 H1507 0.950 . S
C1486 H1482 0.949 . S
C1486 C1494 1.574 . S
C1486 C1502 1.368 . S
H1487 C1495 0.950 . S
H1488 C1493 0.950 . S
H1489 C1494 0.949 . S
H1490 C1496 0.950 . S
H1491 C1497 0.950 . S
H1492 C1498 0.949 . S
C1493 H1488 0.950 . S
C1493 C1495 1.327 . S
C1493 C1499 1.429 . S
C1494 C1486 1.574 . S
C1494 H1489 0.949 . S
C1494 C1500 1.368 . S
C1495 C1479 1.349 . S
C1495 H1487 0.950 . S
C1495 C1493 1.327 . S
C1496 C1484 1.349 . S
C1496 H1490 0.950 . S
C1496 C1497 1.327 . S
C1497 H1491 0.950 . S
C1497 C1496 1.327 . S
C1497 C1501 1.429 . S
C1498 C1481 1.574 . S
C1498 H1492 0.949 . S
C1498 C1502 1.368 . S
C1499 C1480 1.429 . S
C1499 C1493 1.429 . S
C1499 C1500 1.523 . S
C1500 C1481 1.368 . S
C1500 C1494 1.368 . S
C1500 C1499 1.523 . S
C1501 C1485 1.429 . S
C1501 C1497 1.429 . S
C1501 C1502 1.523 . S
C1502 C1486 1.368 . S
C1502 C1498 1.368 . S
C1502 C1501 1.523 . S
H1503 C1478 0.950 1_655 S
H1504 C1480 0.950 . S
H1505 C1481 0.949 . S
H1506 C1483 0.950 . S
H1507 C1485 0.950 . S
C1508 C1509 1.349 . S
C1508 C1510 1.327 . S
C1508 H1533 0.950 . S
C1509 C1508 1.349 . S
C1509 C1525 1.349 . S
C1510 C1508 1.327 . S
C1510 C1529 1.429 . S
C1510 H1534 0.950 . S
C1511 C1528 1.574 . S
C1511 C1530 1.368 . S
C1511 H1535 0.949 . S
H1512 C1516 0.949 . S
C1513 C1514 1.349 . S
C1513 C1515 1.327 . S
C1513 H1536 0.950 . S
C1514 C1513 1.349 . S
C1514 C1526 1.349 . S
C1515 C1513 1.327 . S
C1515 C1531 1.429 . S
C1515 H1537 0.950 . S
C1516 H1512 0.949 . S
C1516 C1524 1.574 . S
C1516 C1532 1.368 . S
H1517 C1525 0.950 . S
H1518 C1523 0.950 . S
H1519 C1524 0.949 . S
H1520 C1526 0.950 . S
H1521 C1527 0.950 . S
H1522 C1528 0.949 . S
C1523 H1518 0.950 . S
C1523 C1525 1.327 . S
C1523 C1529 1.429 . S
C1524 C1516 1.574 . S
C1524 H1519 0.949 . S
C1524 C1530 1.368 . S
C1525 C1509 1.349 . S
C1525 H1517 0.950 . S
C1525 C1523 1.327 . S
C1526 C1514 1.349 . S
C1526 H1520 0.950 . S
C1526 C1527 1.327 . S
C1527 H1521 0.950 . S
C1527 C1526 1.327 . S
C1527 C1531 1.429 . S
C1528 C1511 1.574 . S
C1528 H1522 0.949 . S
C1528 C1532 1.368 . S
C1529 C1510 1.429 . S
C1529 C1523 1.429 . S
C1529 C1530 1.523 . S
C1530 C1511 1.368 . S
C1530 C1524 1.368 . S
C1530 C1529 1.523 . S
C1531 C1515 1.429 . S
C1531 C1527 1.429 . S
C1531 C1532 1.523 . S
C1532 C1516 1.368 . S
C1532 C1528 1.368 . S
C1532 C1531 1.523 . S
H1533 C1508 0.950 . S
H1534 C1510 0.950 . S
H1535 C1511 0.949 . S
H1536 C1513 0.950 . S
H1537 C1515 0.950 . S
C1538 C1539 1.349 . S
C1538 C1540 1.327 . S
C1538 H1563 0.950 . S
C1539 C1538 1.349 . S
C1539 C1555 1.349 . S
C1540 C1538 1.327 . S
C1540 C1559 1.429 . S
C1540 H1564 0.950 . S
C1541 C1558 1.574 . S
C1541 C1560 1.368 . S
C1541 H1565 0.949 . S
H1542 C1546 0.949 . S
C1543 C1544 1.340 1_545 S
C1543 C1545 1.323 1_545 S
C1543 H1566 0.963 . S
C1544 C1543 1.340 1_565 S
C1544 C1556 1.349 . S
C1545 C1543 1.323 1_565 S
C1545 C1561 1.429 . S
C1545 H1567 0.950 1_565 S
C1546 H1542 0.949 . S
C1546 C1554 1.574 . S
C1546 C1562 1.368 . S
H1547 C1555 0.950 . S
H1548 C1553 0.950 . S
H1549 C1554 0.949 . S
H1550 C1556 0.950 . S
H1551 C1557 0.950 . S
H1552 C1558 0.949 . S
C1553 H1548 0.950 . S
C1553 C1555 1.327 . S
C1553 C1559 1.429 . S
C1554 C1546 1.574 . S
C1554 H1549 0.949 . S
C1554 C1560 1.368 . S
C1555 C1539 1.349 . S
C1555 H1547 0.950 . S
C1555 C1553 1.327 . S
C1556 C1544 1.349 . S
C1556 H1550 0.950 . S
C1556 C1557 1.327 . S
C1557 H1551 0.950 . S
C1557 C1556 1.327 . S
C1557 C1561 1.429 . S
C1558 C1541 1.574 . S
C1558 H1552 0.949 . S
C1558 C1562 1.368 . S
C1559 C1540 1.429 . S
C1559 C1553 1.429 . S
C1559 C1560 1.523 . S
C1560 C1541 1.368 . S
C1560 C1554 1.368 . S
C1560 C1559 1.523 . S
C1561 C1545 1.429 . S
C1561 C1557 1.429 . S
C1561 C1562 1.523 . S
C1562 C1546 1.368 . S
C1562 C1558 1.368 . S
C1562 C1561 1.523 . S
H1563 C1538 0.950 . S
H1564 C1540 0.950 . S
H1565 C1541 0.949 . S
H1566 C1543 0.963 . S
H1567 C1545 0.950 1_545 S
C1568 C1569 1.349 . S
C1568 C1570 1.327 . S
C1568 H1593 0.950 . S
C1569 C1568 1.349 . S
C1569 C1585 1.343 1_556 S
C1570 C1568 1.327 . S
C1570 C1589 1.429 . S
C1570 H1594 0.950 . S
C1571 C1588 1.574 . S
C1571 C1590 1.368 1_554 S
C1571 H1595 0.949 . S
H1572 C1576 0.949 . S
C1573 C1574 1.343 1_554 S
C1573 C1575 1.327 . S
C1573 H1596 0.955 . S
C1574 C1573 1.343 1_556 S
C1574 C1586 1.349 . S
C1575 C1573 1.327 . S
C1575 C1591 1.429 1_554 S
C1575 H1597 0.950 . S
C1576 H1572 0.949 . S
C1576 C1584 1.574 . S
C1576 C1592 1.368 . S
H1577 C1585 0.955 . S
H1578 C1583 0.950 . S
H1579 C1584 0.949 . S
H1580 C1586 0.950 . S
H1581 C1587 0.950 . S
H1582 C1588 0.949 . S
C1583 H1578 0.950 . S
C1583 C1585 1.327 . S
C1583 C1589 1.429 1_554 S
C1584 C1576 1.574 . S
C1584 H1579 0.949 . S
C1584 C1590 1.368 . S
C1585 C1569 1.343 1_554 S
C1585 H1577 0.955 . S
C1585 C1583 1.327 . S
C1586 C1574 1.349 . S
C1586 H1580 0.950 . S
C1586 C1587 1.327 . S
C1587 H1581 0.950 . S
C1587 C1586 1.327 . S
C1587 C1591 1.429 . S
C1588 C1571 1.574 . S
C1588 H1582 0.949 . S
C1588 C1592 1.368 1_554 S
C1589 C1570 1.429 . S
C1589 C1583 1.429 1_556 S
C1589 C1590 1.523 . S
C1590 C1571 1.368 1_556 S
C1590 C1584 1.368 . S
C1590 C1589 1.523 . S
C1591 C1575 1.429 1_556 S
C1591 C1587 1.429 . S
C1591 C1592 1.523 . S
C1592 C1576 1.368 . S
C1592 C1588 1.368 1_556 S
C1592 C1591 1.523 . S
H1593 C1568 0.950 . S
H1594 C1570 0.950 . S
H1595 C1571 0.949 . S
H1596 C1573 0.955 . S
H1597 C1575 0.950 . S
C1598 C1599 1.349 . S
C1598 C1600 1.327 . S
C1598 H1623 0.950 . S
C1599 C1598 1.349 . S
C1599 C1615 1.349 . S
C1600 C1598 1.327 . S
C1600 C1619 1.429 . S
C1600 H1624 0.950 . S
C1601 C1618 1.574 . S
C1601 C1620 1.368 . S
C1601 H1625 0.949 . S
H1602 C1606 0.949 . S
C1603 C1604 1.349 . S
C1603 C1605 1.327 . S
C1603 H1626 0.950 . S
C1604 C1603 1.349 . S
C1604 C1616 1.349 . S
C1605 C1603 1.327 . S
C1605 C1621 1.429 . S
C1605 H1627 0.950 . S
C1606 H1602 0.949 . S
C1606 C1614 1.574 . S
C1606 C1622 1.368 . S
H1607 C1615 0.950 . S
H1608 C1613 0.950 . S
H1609 C1614 0.949 . S
H1610 C1616 0.950 . S
H1611 C1617 0.950 . S
H1612 C1618 0.949 . S
C1613 H1608 0.950 . S
C1613 C1615 1.327 . S
C1613 C1619 1.429 . S
C1614 C1606 1.574 . S
C1614 H1609 0.949 . S
C1614 C1620 1.368 . S
C1615 C1599 1.349 . S
C1615 H1607 0.950 . S
C1615 C1613 1.327 . S
C1616 C1604 1.349 . S
C1616 H1610 0.950 . S
C1616 C1617 1.327 . S
C1617 H1611 0.950 . S
C1617 C1616 1.327 . S
C1617 C1621 1.429 . S
C1618 C1601 1.574 . S
C1618 H1612 0.949 . S
C1618 C1622 1.368 . S
C1619 C1600 1.429 . S
C1619 C1613 1.429 . S
C1619 C1620 1.523 . S
C1620 C1601 1.368 . S
C1620 C1614 1.368 . S
C1620 C1619 1.523 . S
C1621 C1605 1.429 . S
C1621 C1617 1.429 . S
C1621 C1622 1.523 . S
C1622 C1606 1.368 . S
C1622 C1618 1.368 . S
C1622 C1621 1.523 . S
H1623 C1598 0.950 . S
H1624 C1600 0.950 . S
H1625 C1601 0.949 . S
H1626 C1603 0.950 . S
H1627 C1605 0.950 . S
C1628 C1629 1.349 . S
C1628 C1630 1.327 . S
C1628 H1653 0.950 . S
C1629 C1628 1.349 . S
C1629 C1645 1.349 . S
C1630 C1628 1.327 . S
C1630 C1649 1.429 . S
C1630 H1654 0.950 . S
C1631 C1648 1.574 1_455 S
C1631 C1650 1.368 . S
C1631 H1655 0.949 . S
H1632 C1636 0.949 . S
C1633 C1634 1.349 . S
C1633 C1635 1.327 . S
C1633 H1656 0.950 . S
C1634 C1633 1.349 . S
C1634 C1646 1.349 . S
C1635 C1633 1.327 . S
C1635 C1651 1.429 . S
C1635 H1657 0.950 . S
C1636 H1632 0.949 . S
C1636 C1644 1.574 1_655 S
C1636 C1652 1.368 . S
H1637 C1645 0.950 . S
H1638 C1643 0.950 . S
H1639 C1644 0.949 . S
H1640 C1646 0.950 . S
H1641 C1647 0.950 . S
H1642 C1648 0.949 . S
C1643 H1638 0.950 . S
C1643 C1645 1.327 . S
C1643 C1649 1.429 . S
C1644 C1636 1.574 1_455 S
C1644 H1639 0.949 . S
C1644 C1650 1.368 . S
C1645 C1629 1.349 . S
C1645 H1637 0.950 . S
C1645 C1643 1.327 . S
C1646 C1634 1.349 . S
C1646 H1640 0.950 . S
C1646 C1647 1.327 . S
C1647 H1641 0.950 . S
C1647 C1646 1.327 . S
C1647 C1651 1.429 . S
C1648 C1631 1.574 1_655 S
C1648 H1642 0.949 . S
C1648 C1652 1.368 . S
C1649 C1630 1.429 . S
C1649 C1643 1.429 . S
C1649 C1650 1.523 . S
C1650 C1631 1.368 . S
C1650 C1644 1.368 . S
C1650 C1649 1.523 . S
C1651 C1635 1.429 . S
C1651 C1647 1.429 . S
C1651 C1652 1.523 . S
C1652 C1636 1.368 . S
C1652 C1648 1.368 . S
C1652 C1651 1.523 . S
H1653 C1628 0.950 . S
H1654 C1630 0.950 . S
H1655 C1631 0.949 . S
H1656 C1633 0.950 . S
H1657 C1635 0.950 . S
C1658 C1659 1.349 . S
C1658 C1660 1.327 . S
C1658 H1683 0.950 . S
C1659 C1658 1.349 . S
C1659 C1675 1.349 . S
C1660 C1658 1.327 . S
C1660 C1679 1.429 . S
C1660 H1684 0.950 . S
C1661 C1678 1.574 . S
C1661 C1680 1.368 1_655 S
C1661 H1685 0.949 . S
H1662 C1666 0.949 . S
C1663 C1664 1.349 . S
C1663 C1665 1.327 . S
C1663 H1686 0.950 . S
C1664 C1663 1.349 . S
C1664 C1676 1.349 . S
C1665 C1663 1.327 . S
C1665 C1681 1.429 . S
C1665 H1687 0.950 . S
C1666 H1662 0.949 . S
C1666 C1674 1.574 . S
C1666 C1682 1.368 1_455 S
H1667 C1675 0.950 . S
H1668 C1673 0.950 . S
H1669 C1674 0.949 . S
H1670 C1676 0.950 . S
H1671 C1677 0.950 . S
H1672 C1678 0.949 . S
C1673 H1668 0.950 . S
C1673 C1675 1.327 . S
C1673 C1679 1.429 . S
C1674 C1666 1.574 . S
C1674 H1669 0.949 . S
C1674 C1680 1.368 . S
C1675 C1659 1.349 . S
C1675 H1667 0.950 . S
C1675 C1673 1.327 . S
C1676 C1664 1.349 . S
C1676 H1670 0.950 . S
C1676 C1677 1.327 . S
C1677 H1671 0.950 . S
C1677 C1676 1.327 . S
C1677 C1681 1.429 . S
C1678 C1661 1.574 . S
C1678 H1672 0.949 . S
C1678 C1682 1.368 . S
C1679 C1660 1.429 . S
C1679 C1673 1.429 . S
C1679 C1680 1.523 . S
C1680 C1661 1.368 1_455 S
C1680 C1674 1.368 . S
C1680 C1679 1.523 . S
C1681 C1665 1.429 . S
C1681 C1677 1.429 . S
C1681 C1682 1.523 . S
C1682 C1666 1.368 1_655 S
C1682 C1678 1.368 . S
C1682 C1681 1.523 . S
H1683 C1658 0.950 . S
H1684 C1660 0.950 . S
H1685 C1661 0.949 . S
H1686 C1663 0.950 . S
H1687 C1665 0.950 . S
C1688 C1689 1.349 . S
C1688 C1690 1.327 . S
C1688 H1713 0.950 1_554 S
C1689 C1688 1.349 . S
C1689 C1705 1.349 . S
C1690 C1688 1.327 . S
C1690 C1709 1.429 . S
C1690 H1714 0.950 1_554 S
C1691 C1708 1.574 . S
C1691 C1710 1.368 . S
C1691 H1715 0.949 . S
H1692 C1696 0.949 1_556 S
C1693 C1694 1.349 . S
C1693 C1695 1.327 . S
C1693 H1716 0.950 . S
C1694 C1693 1.349 . S
C1694 C1706 1.349 . S
C1695 C1693 1.327 . S
C1695 C1711 1.429 . S
C1695 H1717 0.950 . S
C1696 H1692 0.949 1_554 S
C1696 C1704 1.574 . S
C1696 C1712 1.368 . S
H1697 C1705 0.950 . S
H1698 C1703 0.950 . S
H1699 C1704 0.949 1_556 S
H1700 C1706 0.950 1_556 S
H1701 C1707 0.950 1_556 S
H1702 C1708 0.949 . S
C1703 H1698 0.950 . S
C1703 C1705 1.327 . S
C1703 C1709 1.429 . S
C1704 C1696 1.574 . S
C1704 H1699 0.949 1_554 S
C1704 C1710 1.368 . S
C1705 C1689 1.349 . S
C1705 H1697 0.950 . S
C1705 C1703 1.327 . S
C1706 C1694 1.349 . S
C1706 H1700 0.950 1_554 S
C1706 C1707 1.327 . S
C1707 H1701 0.950 1_554 S
C1707 C1706 1.327 . S
C1707 C1711 1.429 . S
C1708 C1691 1.574 . S
C1708 H1702 0.949 . S
C1708 C1712 1.368 . S
C1709 C1690 1.429 . S
C1709 C1703 1.429 . S
C1709 C1710 1.523 . S
C1710 C1691 1.368 . S
C1710 C1704 1.368 . S
C1710 C1709 1.523 . S
C1711 C1695 1.429 . S
C1711 C1707 1.429 . S
C1711 C1712 1.523 . S
C1712 C1696 1.368 . S
C1712 C1708 1.368 . S
C1712 C1711 1.523 . S
H1713 C1688 0.950 1_556 S
H1714 C1690 0.950 1_556 S
H1715 C1691 0.949 . S
H1716 C1693 0.950 . S
H1717 C1695 0.950 . S
C1718 C1719 1.349 . S
C1718 C1720 1.327 . S
C1718 H1743 0.950 . S
C1719 C1718 1.349 . S
C1719 C1735 1.349 . S
C1720 C1718 1.327 . S
C1720 C1739 1.429 . S
C1720 H1744 0.950 . S
C1721 C1738 1.574 . S
C1721 C1740 1.368 . S
C1721 H1745 0.949 . S
H1722 C1726 0.949 . S
C1723 C1724 1.349 . S
C1723 C1725 1.327 . S
C1723 H1746 0.950 . S
C1724 C1723 1.349 . S
C1724 C1736 1.349 . S
C1725 C1723 1.327 . S
C1725 C1741 1.429 . S
C1725 H1747 0.950 . S
C1726 H1722 0.949 . S
C1726 C1734 1.574 . S
C1726 C1742 1.368 . S
H1727 C1735 0.950 . S
H1728 C1733 0.950 . S
H1729 C1734 0.949 . S
H1730 C1736 0.950 . S
H1731 C1737 0.950 . S
H1732 C1738 0.949 . S
C1733 H1728 0.950 . S
C1733 C1735 1.327 . S
C1733 C1739 1.429 . S
C1734 C1726 1.574 . S
C1734 H1729 0.949 . S
C1734 C1740 1.368 . S
C1735 C1719 1.349 . S
C1735 H1727 0.950 . S
C1735 C1733 1.327 . S
C1736 C1724 1.349 . S
C1736 H1730 0.950 . S
C1736 C1737 1.327 . S
C1737 H1731 0.950 . S
C1737 C1736 1.327 . S
C1737 C1741 1.429 . S
C1738 C1721 1.574 . S
C1738 H1732 0.949 . S
C1738 C1742 1.368 . S
C1739 C1720 1.429 . S
C1739 C1733 1.429 . S
C1739 C1740 1.523 . S
C1740 C1721 1.368 . S
C1740 C1734 1.368 . S
C1740 C1739 1.523 . S
C1741 C1725 1.429 . S
C1741 C1737 1.429 . S
C1741 C1742 1.523 . S
C1742 C1726 1.368 . S
C1742 C1738 1.368 . S
C1742 C1741 1.523 . S
H1743 C1718 0.950 . S
H1744 C1720 0.950 . S
H1745 C1721 0.949 . S
H1746 C1723 0.950 . S
H1747 C1725 0.950 . S
C1748 C1749 1.349 . S
C1748 C1750 1.327 . S
C1748 H1773 0.950 . S
C1749 C1748 1.349 . S
C1749 C1765 1.349 . S
C1750 C1748 1.327 . S
C1750 C1769 1.429 . S
C1750 H1774 0.950 . S
C1751 C1768 1.574 1_455 S
C1751 C1770 1.368 . S
C1751 H1775 0.949 . S
H1752 C1756 0.949 . S
C1753 C1754 1.349 . S
C1753 C1755 1.327 . S
C1753 H1776 0.950 . S
C1754 C1753 1.349 . S
C1754 C1766 1.349 . S
C1755 C1753 1.327 . S
C1755 C1771 1.429 . S
C1755 H1777 0.950 . S
C1756 H1752 0.949 . S
C1756 C1764 1.574 1_655 S
C1756 C1772 1.368 . S
H1757 C1765 0.950 . S
H1758 C1763 0.950 . S
H1759 C1764 0.949 . S
H1760 C1766 0.950 . S
H1761 C1767 0.950 . S
H1762 C1768 0.949 . S
C1763 H1758 0.950 . S
C1763 C1765 1.327 . S
C1763 C1769 1.429 . S
C1764 C1756 1.574 1_455 S
C1764 H1759 0.949 . S
C1764 C1770 1.368 . S
C1765 C1749 1.349 . S
C1765 H1757 0.950 . S
C1765 C1763 1.327 . S
C1766 C1754 1.349 . S
C1766 H1760 0.950 . S
C1766 C1767 1.327 . S
C1767 H1761 0.950 . S
C1767 C1766 1.327 . S
C1767 C1771 1.429 . S
C1768 C1751 1.574 1_655 S
C1768 H1762 0.949 . S
C1768 C1772 1.368 . S
C1769 C1750 1.429 . S
C1769 C1763 1.429 . S
C1769 C1770 1.523 . S
C1770 C1751 1.368 . S
C1770 C1764 1.368 . S
C1770 C1769 1.523 . S
C1771 C1755 1.429 . S
C1771 C1767 1.429 . S
C1771 C1772 1.523 . S
C1772 C1756 1.368 . S
C1772 C1768 1.368 . S
C1772 C1771 1.523 . S
H1773 C1748 0.950 . S
H1774 C1750 0.950 . S
H1775 C1751 0.949 . S
H1776 C1753 0.950 . S
H1777 C1755 0.950 . S
C1778 C1779 1.349 . S
C1778 C1780 1.327 . S
C1778 H1803 0.950 . S
C1779 C1778 1.349 . S
C1779 C1795 1.349 . S
C1780 C1778 1.327 . S
C1780 C1799 1.429 . S
C1780 H1804 0.950 1_655 S
C1781 C1798 1.574 . S
C1781 C1800 1.368 . S
C1781 H1805 0.949 . S
H1782 C1786 0.949 . S
C1783 C1784 1.349 . S
C1783 C1785 1.327 . S
C1783 H1806 0.950 . S
C1784 C1783 1.349 . S
C1784 C1796 1.349 . S
C1785 C1783 1.327 . S
C1785 C1801 1.429 . S
C1785 H1807 0.950 1_455 S
C1786 H1782 0.949 . S
C1786 C1794 1.574 . S
C1786 C1802 1.368 . S
H1787 C1795 0.950 . S
H1788 C1793 0.950 . S
H1789 C1794 0.949 . S
H1790 C1796 0.950 . S
H1791 C1797 0.950 . S
H1792 C1798 0.949 . S
C1793 H1788 0.950 . S
C1793 C1795 1.327 . S
C1793 C1799 1.429 . S
C1794 C1786 1.574 . S
C1794 H1789 0.949 . S
C1794 C1800 1.368 1_455 S
C1795 C1779 1.349 . S
C1795 H1787 0.950 . S
C1795 C1793 1.327 . S
C1796 C1784 1.349 . S
C1796 H1790 0.950 . S
C1796 C1797 1.327 . S
C1797 H1791 0.950 . S
C1797 C1796 1.327 . S
C1797 C1801 1.429 . S
C1798 C1781 1.574 . S
C1798 H1792 0.949 . S
C1798 C1802 1.368 1_655 S
C1799 C1780 1.429 . S
C1799 C1793 1.429 . S
C1799 C1800 1.523 . S
C1800 C1781 1.368 . S
C1800 C1794 1.368 1_655 S
C1800 C1799 1.523 . S
C1801 C1785 1.429 . S
C1801 C1797 1.429 . S
C1801 C1802 1.523 . S
C1802 C1786 1.368 . S
C1802 C1798 1.368 1_455 S
C1802 C1801 1.523 . S
H1803 C1778 0.950 . S
H1804 C1780 0.950 1_455 S
H1805 C1781 0.949 . S
H1806 C1783 0.950 . S
H1807 C1785 0.950 1_655 S
C849 C250 2.806 . S
C854 C29 2.806 . S
C879 C727 2.888 . S
C884 C91 2.875 . S
C909 C135 2.824 . S
C914 C356 2.824 . S
C939 C833 2.889 . S
C944 C197 2.876 . S
C969 C515 2.876 . S
C974 C303 2.889 . S
C999 C621 2.875 . S
C1004 C409 2.889 . S
C1029 C453 2.824 . S
C1034 C674 2.824 . S
C1059 C780 2.805 . S
C1064 C559 2.805 . S
C1089 C393 1.872 . S
C1094 C22 1.854 . S
C1119 C658 1.837 . S
C1124 C92 1.814 . S
C1149 C128 1.868 . S
C1154 C287 1.887 . S
C1179 C198 1.817 . S
C1184 C764 1.839 . S
C1209 C181 2.188 . S
C1214 C251 2.155 . S
C1239 C304 2.264 . S
C1244 C463 2.304 . S
C1269 C357 2.166 . S
C1274 C75 2.200 . S
C1299 C410 2.265 1_655 S
C1304 C569 2.303 . S
C1329 C446 1.868 . S
C1334 C817 1.887 . S
C1359 C234 1.840 . S
C1364 C516 1.815 1_565 S
C1389 C711 1.872 . S
C1394 C552 1.854 . S
C1419 C622 1.814 1_545 S
C1424 C340 1.837 . S
C1449 C605 2.200 . S
C1454 C675 2.166 . S
C1479 C728 2.265 1_445 S
C1484 C39 2.303 . S
C1509 C781 2.157 . S
C1514 C499 2.187 . S
C1539 C145 2.304 . S
C1544 C834 2.265 1_565 S
C1569 C38 0.700 . S
C1574 C568 0.700 . S
C1599 C612 0.505 . S
C1604 C82 0.505 . S
C1629 C144 0.710 . S
C1634 C462 0.710 . S
C1659 C506 0.505 . S
C1664 C188 0.505 . S
C1689 C771 0.217 . S
C1694 C241 0.217 . S
C1719 C824 0.187 . S
C1724 C294 0.187 . S
C1749 C665 0.215 . S
C1754 C347 0.215 . S
C1779 C718 0.187 . S
C1784 C400 0.187 . S
