# Generated by pormake.
# Topology wir, (6)-cn, num edge types: 1
# Building blocks:
#     Node 0, Type 0, BuildingBlock: VOLQOD_clean_sbu_1, # of connection points: 6
#     Node 1, Type 0, BuildingBlock: VOLQOD_clean_sbu_1, # of connection points: 6
#     Node 2, Type 0, BuildingBlock: VOLQOD_clean_sbu_1, # of connection points: 6
#     Node 3, Type 0, BuildingBlock: VOLQOD_clean_sbu_1, # of connection points: 6
#     Node 4, Type 0, BuildingBlock: VOLQOD_clean_sbu_1, # of connection points: 6
#     Node 5, Type 0, BuildingBlock: VOLQOD_clean_sbu_1, # of connection points: 6
#     Node 6, Type 0, BuildingBlock: VOLQOD_clean_sbu_1, # of connection points: 6
#     Node 7, Type 0, BuildingBlock: VOLQOD_clean_sbu_1, # of connection points: 6
#     Node 8, Type 0, BuildingBlock: VOLQOD_clean_sbu_1, # of connection points: 6
#     Node 9, Type 0, BuildingBlock: VOLQOD_clean_sbu_1, # of connection points: 6
#     Node 10, Type 0, BuildingBlock: VOLQOD_clean_sbu_1, # of connection points: 6
#     Node 11, Type 0, BuildingBlock: VOLQOD_clean_sbu_1, # of connection points: 6
#     Node 12, Type 0, BuildingBlock: VOLQOD_clean_sbu_1, # of connection points: 6
#     Node 13, Type 0, BuildingBlock: VOLQOD_clean_sbu_1, # of connection points: 6
#     Node 14, Type 0, BuildingBlock: VOLQOD_clean_sbu_1, # of connection points: 6
#     Node 15, Type 0, BuildingBlock: VOLQOD_clean_sbu_1, # of connection points: 6
#     Node 16, Type 0, BuildingBlock: VOLQOD_clean_sbu_1, # of connection points: 6
#     Node 17, Type 0, BuildingBlock: VOLQOD_clean_sbu_1, # of connection points: 6
#     Node 18, Type 0, BuildingBlock: VOLQOD_clean_sbu_1, # of connection points: 6
#     Node 19, Type 0, BuildingBlock: VOLQOD_clean_sbu_1, # of connection points: 6
#     Node 20, Type 0, BuildingBlock: VOLQOD_clean_sbu_1, # of connection points: 6
#     Node 21, Type 0, BuildingBlock: VOLQOD_clean_sbu_1, # of connection points: 6
#     Node 22, Type 0, BuildingBlock: VOLQOD_clean_sbu_1, # of connection points: 6
#     Node 23, Type 0, BuildingBlock: VOLQOD_clean_sbu_1, # of connection points: 6
#     Node 24, Type 0, BuildingBlock: VOLQOD_clean_sbu_1, # of connection points: 6
#     Node 25, Type 0, BuildingBlock: VOLQOD_clean_sbu_1, # of connection points: 6
#     Node 26, Type 0, BuildingBlock: VOLQOD_clean_sbu_1, # of connection points: 6
#     Node 27, Type 0, BuildingBlock: VOLQOD_clean_sbu_1, # of connection points: 6
#     Node 28, Type 0, BuildingBlock: VOLQOD_clean_sbu_1, # of connection points: 6
#     Node 29, Type 0, BuildingBlock: VOLQOD_clean_sbu_1, # of connection points: 6
#     Node 30, Type 0, BuildingBlock: VOLQOD_clean_sbu_1, # of connection points: 6
#     Node 31, Type 0, BuildingBlock: VOLQOD_clean_sbu_1, # of connection points: 6
#     Edge 32, Type (0, 0), BuildingBlock: AJUNOK_clean_linker_0, # of connection points: 2
#     Edge 33, Type (0, 0), BuildingBlock: AJUNOK_clean_linker_0, # of connection points: 2
#     Edge 34, Type (0, 0), BuildingBlock: AJUNOK_clean_linker_0, # of connection points: 2
#     Edge 35, Type (0, 0), BuildingBlock: AJUNOK_clean_linker_0, # of connection points: 2
#     Edge 36, Type (0, 0), BuildingBlock: AJUNOK_clean_linker_0, # of connection points: 2
#     Edge 37, Type (0, 0), BuildingBlock: AJUNOK_clean_linker_0, # of connection points: 2
#     Edge 38, Type (0, 0), BuildingBlock: AJUNOK_clean_linker_0, # of connection points: 2
#     Edge 39, Type (0, 0), BuildingBlock: AJUNOK_clean_linker_0, # of connection points: 2
#     Edge 40, Type (0, 0), BuildingBlock: AJUNOK_clean_linker_0, # of connection points: 2
#     Edge 41, Type (0, 0), BuildingBlock: AJUNOK_clean_linker_0, # of connection points: 2
#     Edge 42, Type (0, 0), BuildingBlock: AJUNOK_clean_linker_0, # of connection points: 2
#     Edge 43, Type (0, 0), BuildingBlock: AJUNOK_clean_linker_0, # of connection points: 2
#     Edge 44, Type (0, 0), BuildingBlock: AJUNOK_clean_linker_0, # of connection points: 2
#     Edge 45, Type (0, 0), BuildingBlock: AJUNOK_clean_linker_0, # of connection points: 2
#     Edge 46, Type (0, 0), BuildingBlock: AJUNOK_clean_linker_0, # of connection points: 2
#     Edge 47, Type (0, 0), BuildingBlock: AJUNOK_clean_linker_0, # of connection points: 2
#     Edge 48, Type (0, 0), BuildingBlock: AJUNOK_clean_linker_0, # of connection points: 2
#     Edge 49, Type (0, 0), BuildingBlock: AJUNOK_clean_linker_0, # of connection points: 2
#     Edge 50, Type (0, 0), BuildingBlock: AJUNOK_clean_linker_0, # of connection points: 2
#     Edge 51, Type (0, 0), BuildingBlock: AJUNOK_clean_linker_0, # of connection points: 2
#     Edge 52, Type (0, 0), BuildingBlock: AJUNOK_clean_linker_0, # of connection points: 2
#     Edge 53, Type (0, 0), BuildingBlock: AJUNOK_clean_linker_0, # of connection points: 2
#     Edge 54, Type (0, 0), BuildingBlock: AJUNOK_clean_linker_0, # of connection points: 2
#     Edge 55, Type (0, 0), BuildingBlock: AJUNOK_clean_linker_0, # of connection points: 2
#     Edge 56, Type (0, 0), BuildingBlock: AJUNOK_clean_linker_0, # of connection points: 2
#     Edge 57, Type (0, 0), BuildingBlock: AJUNOK_clean_linker_0, # of connection points: 2
#     Edge 58, Type (0, 0), BuildingBlock: AJUNOK_clean_linker_0, # of connection points: 2
#     Edge 59, Type (0, 0), BuildingBlock: AJUNOK_clean_linker_0, # of connection points: 2
#     Edge 60, Type (0, 0), BuildingBlock: AJUNOK_clean_linker_0, # of connection points: 2
#     Edge 61, Type (0, 0), BuildingBlock: AJUNOK_clean_linker_0, # of connection points: 2
#     Edge 62, Type (0, 0), BuildingBlock: AJUNOK_clean_linker_0, # of connection points: 2
#     Edge 63, Type (0, 0), BuildingBlock: AJUNOK_clean_linker_0, # of connection points: 2
#     Edge 64, Type (0, 0), BuildingBlock: AJUNOK_clean_linker_0, # of connection points: 2
#     Edge 65, Type (0, 0), BuildingBlock: AJUNOK_clean_linker_0, # of connection points: 2
#     Edge 66, Type (0, 0), BuildingBlock: AJUNOK_clean_linker_0, # of connection points: 2
#     Edge 67, Type (0, 0), BuildingBlock: AJUNOK_clean_linker_0, # of connection points: 2
#     Edge 68, Type (0, 0), BuildingBlock: AJUNOK_clean_linker_0, # of connection points: 2
#     Edge 69, Type (0, 0), BuildingBlock: AJUNOK_clean_linker_0, # of connection points: 2
#     Edge 70, Type (0, 0), BuildingBlock: AJUNOK_clean_linker_0, # of connection points: 2
#     Edge 71, Type (0, 0), BuildingBlock: AJUNOK_clean_linker_0, # of connection points: 2
#     Edge 72, Type (0, 0), BuildingBlock: AJUNOK_clean_linker_0, # of connection points: 2
#     Edge 73, Type (0, 0), BuildingBlock: AJUNOK_clean_linker_0, # of connection points: 2
#     Edge 74, Type (0, 0), BuildingBlock: AJUNOK_clean_linker_0, # of connection points: 2
#     Edge 75, Type (0, 0), BuildingBlock: AJUNOK_clean_linker_0, # of connection points: 2
#     Edge 76, Type (0, 0), BuildingBlock: AJUNOK_clean_linker_0, # of connection points: 2
#     Edge 77, Type (0, 0), BuildingBlock: AJUNOK_clean_linker_0, # of connection points: 2
#     Edge 78, Type (0, 0), BuildingBlock: AJUNOK_clean_linker_0, # of connection points: 2
#     Edge 79, Type (0, 0), BuildingBlock: AJUNOK_clean_linker_0, # of connection points: 2
#     Edge 80, Type (0, 0), BuildingBlock: AJUNOK_clean_linker_0, # of connection points: 2
#     Edge 81, Type (0, 0), BuildingBlock: AJUNOK_clean_linker_0, # of connection points: 2
#     Edge 82, Type (0, 0), BuildingBlock: AJUNOK_clean_linker_0, # of connection points: 2
#     Edge 83, Type (0, 0), BuildingBlock: AJUNOK_clean_linker_0, # of connection points: 2
#     Edge 84, Type (0, 0), BuildingBlock: AJUNOK_clean_linker_0, # of connection points: 2
#     Edge 85, Type (0, 0), BuildingBlock: AJUNOK_clean_linker_0, # of connection points: 2
#     Edge 86, Type (0, 0), BuildingBlock: AJUNOK_clean_linker_0, # of connection points: 2
#     Edge 87, Type (0, 0), BuildingBlock: AJUNOK_clean_linker_0, # of connection points: 2
#     Edge 88, Type (0, 0), BuildingBlock: AJUNOK_clean_linker_0, # of connection points: 2
#     Edge 89, Type (0, 0), BuildingBlock: AJUNOK_clean_linker_0, # of connection points: 2
#     Edge 90, Type (0, 0), BuildingBlock: AJUNOK_clean_linker_0, # of connection points: 2
#     Edge 91, Type (0, 0), BuildingBlock: AJUNOK_clean_linker_0, # of connection points: 2
#     Edge 92, Type (0, 0), BuildingBlock: AJUNOK_clean_linker_0, # of connection points: 2
#     Edge 93, Type (0, 0), BuildingBlock: AJUNOK_clean_linker_0, # of connection points: 2
#     Edge 94, Type (0, 0), BuildingBlock: AJUNOK_clean_linker_0, # of connection points: 2
#     Edge 95, Type (0, 0), BuildingBlock: AJUNOK_clean_linker_0, # of connection points: 2
#     Edge 96, Type (0, 0), BuildingBlock: AJUNOK_clean_linker_0, # of connection points: 2
#     Edge 97, Type (0, 0), BuildingBlock: AJUNOK_clean_linker_0, # of connection points: 2
#     Edge 98, Type (0, 0), BuildingBlock: AJUNOK_clean_linker_0, # of connection points: 2
#     Edge 99, Type (0, 0), BuildingBlock: AJUNOK_clean_linker_0, # of connection points: 2
#     Edge 100, Type (0, 0), BuildingBlock: AJUNOK_clean_linker_0, # of connection points: 2
#     Edge 101, Type (0, 0), BuildingBlock: AJUNOK_clean_linker_0, # of connection points: 2
#     Edge 102, Type (0, 0), BuildingBlock: AJUNOK_clean_linker_0, # of connection points: 2
#     Edge 103, Type (0, 0), BuildingBlock: AJUNOK_clean_linker_0, # of connection points: 2
#     Edge 104, Type (0, 0), BuildingBlock: AJUNOK_clean_linker_0, # of connection points: 2
#     Edge 105, Type (0, 0), BuildingBlock: AJUNOK_clean_linker_0, # of connection points: 2
#     Edge 106, Type (0, 0), BuildingBlock: AJUNOK_clean_linker_0, # of connection points: 2
#     Edge 107, Type (0, 0), BuildingBlock: AJUNOK_clean_linker_0, # of connection points: 2
#     Edge 108, Type (0, 0), BuildingBlock: AJUNOK_clean_linker_0, # of connection points: 2
#     Edge 109, Type (0, 0), BuildingBlock: AJUNOK_clean_linker_0, # of connection points: 2
#     Edge 110, Type (0, 0), BuildingBlock: AJUNOK_clean_linker_0, # of connection points: 2
#     Edge 111, Type (0, 0), BuildingBlock: AJUNOK_clean_linker_0, # of connection points: 2
#     Edge 112, Type (0, 0), BuildingBlock: AJUNOK_clean_linker_0, # of connection points: 2
#     Edge 113, Type (0, 0), BuildingBlock: AJUNOK_clean_linker_0, # of connection points: 2
#     Edge 114, Type (0, 0), BuildingBlock: AJUNOK_clean_linker_0, # of connection points: 2
#     Edge 115, Type (0, 0), BuildingBlock: AJUNOK_clean_linker_0, # of connection points: 2
#     Edge 116, Type (0, 0), BuildingBlock: AJUNOK_clean_linker_0, # of connection points: 2
#     Edge 117, Type (0, 0), BuildingBlock: AJUNOK_clean_linker_0, # of connection points: 2
#     Edge 118, Type (0, 0), BuildingBlock: AJUNOK_clean_linker_0, # of connection points: 2
#     Edge 119, Type (0, 0), BuildingBlock: AJUNOK_clean_linker_0, # of connection points: 2
#     Edge 120, Type (0, 0), BuildingBlock: AJUNOK_clean_linker_0, # of connection points: 2
#     Edge 121, Type (0, 0), BuildingBlock: AJUNOK_clean_linker_0, # of connection points: 2
#     Edge 122, Type (0, 0), BuildingBlock: AJUNOK_clean_linker_0, # of connection points: 2
#     Edge 123, Type (0, 0), BuildingBlock: AJUNOK_clean_linker_0, # of connection points: 2
#     Edge 124, Type (0, 0), BuildingBlock: AJUNOK_clean_linker_0, # of connection points: 2
#     Edge 125, Type (0, 0), BuildingBlock: AJUNOK_clean_linker_0, # of connection points: 2
#     Edge 126, Type (0, 0), BuildingBlock: AJUNOK_clean_linker_0, # of connection points: 2
#     Edge 127, Type (0, 0), BuildingBlock: AJUNOK_clean_linker_0, # of connection points: 2
# Relax obj value: 0.345
# Max RMSD: 0.208
# Mean RMSD: 0.208
data_MOF--net-wir--node1-VOLQOD_clean_sbu_1--edge1-AJUNOK_clean_linker_0
_symmetry_space_group_name_H-M    P1
_symmetry_Int_Tables_number       1
_symmetry_cell_setting            triclinic
loop_
_symmetry_equiv_pos_as_xyz
'x, y, z'
_cell_length_a     32.954592
_cell_length_b     32.964082
_cell_length_c     66.964315
_cell_angle_alpha  90.026752
_cell_angle_beta   89.969156
_cell_angle_gamma 90.013834
loop_
_atom_site_label
_atom_site_type_symbol
_atom_site_fract_x
_atom_site_fract_y
_atom_site_fract_z
_atom_type_partial_charge
O0 O 0.07637 0.0739 0.30337 0.0
Zn1 Zn 0.10823 0.11125 0.28619 0.0
O2 O 0.15417 0.13157 0.3011 0.0
Zn3 Zn 0.20639 0.11376 0.29103 0.0
Zn4 Zn 0.15158 0.11693 0.32847 0.0
Zn5 Zn 0.14955 0.18879 0.29946 0.0
O6 O 0.22955 0.15959 0.27374 0.0
O7 O 0.18239 0.20752 0.27705 0.0
O8 O 0.12871 0.07711 0.26359 0.0
O9 O 0.19392 0.0685 0.27162 0.0
O10 O 0.24435 0.0909 0.31379 0.0
O11 O 0.1962 0.08127 0.33645 0.0
O12 O 0.15874 0.16495 0.34619 0.0
O13 O 0.06617 0.15511 0.27919 0.0
O14 O 0.1717 0.21298 0.32395 0.0
O15 O 0.09204 0.208 0.29517 0.0
C16 C 0.07645 0.06867 0.32215 0.0
C17 C 0.21417 0.19381 0.26875 0.0
C18 C 0.23236 0.07629 0.33055 0.0
C19 C 0.16286 0.05947 0.2611 0.0
C20 C 0.17135 0.20031 0.34186 0.0
C21 C 0.06289 0.19138 0.28575 0.0
O22 O 0.10166 0.08634 0.33357 0.0
O23 O 0.15846 0.82658 0.55492 0.0
Zn24 Zn 0.12415 0.86029 0.53714 0.0
O25 O 0.1039 0.90668 0.55173 0.0
Zn26 Zn 0.12105 0.95855 0.54068 0.0
Zn27 Zn 0.12015 0.90548 0.57907 0.0
Zn28 Zn 0.04649 0.90118 0.55083 0.0
O29 O 0.07463 0.97995 0.52304 0.0
O30 O 0.02626 0.93451 0.5291 0.0
O31 O 0.16121 0.87997 0.51573 0.0
O32 O 0.16786 0.94627 0.52202 0.0
O33 O 0.14132 -0.00192 0.56324 0.0
O34 O 0.15295 0.95259 0.58698 0.0
O35 O 0.0729 0.91135 0.59729 0.0
O36 O 0.08016 0.81985 0.5285 0.0
O37 O 0.02288 0.92206 0.57583 0.0
O38 O 0.02731 0.84409 0.54522 0.0
C39 C 0.16527 0.82775 0.57356 0.0
C40 C 0.03933 0.96514 0.51967 0.0
C41 C 0.15502 0.98872 0.58058 0.0
C42 C 0.17859 0.91405 0.51282 0.0
C43 C 0.03688 0.92261 0.5935 0.0
C44 C 0.04372 0.81631 0.53476 0.0
O45 O 0.15101 0.85571 0.5846 0.0
O46 O 0.40487 0.90906 0.80678 0.0
Zn47 Zn 0.37449 0.87244 0.78854 0.0
O48 O 0.32746 0.85145 0.80246 0.0
Zn49 Zn 0.27628 0.87031 0.79155 0.0
Zn50 Zn 0.32815 0.86414 0.83022 0.0
Zn51 Zn 0.33212 0.79424 0.80001 0.0
O52 O 0.25344 0.82534 0.7737 0.0
O53 O 0.29969 0.77667 0.77724 0.0
O54 O 0.35575 0.90743 0.76594 0.0
O55 O 0.28995 0.91581 0.77267 0.0
O56 O 0.23687 0.89222 0.8137 0.0
O57 O 0.27989 0.89439 0.83909 0.0
O58 O 0.32517 0.81449 0.84692 0.0
O59 O 0.4167 0.82879 0.78116 0.0
O60 O 0.30974 0.76843 0.82407 0.0
O61 O 0.38964 0.77484 0.79561 0.0
C62 C 0.40284 0.9147 0.82551 0.0
C63 C 0.26848 0.791 0.7687 0.0
C64 C 0.24506 0.90139 0.83188 0.0
C65 C 0.3218 0.92497 0.7628 0.0
C66 C 0.31185 0.77961 0.84219 0.0
C67 C 0.41936 0.79184 0.78678 0.0
O68 O 0.37606 0.89742 0.83623 0.0
O69 O 0.3279 0.15785 0.05515 0.0
Zn70 Zn 0.36376 0.12526 0.03749 0.0
O71 O 0.383 0.07885 0.05225 0.0
Zn72 Zn 0.36508 0.02727 0.04168 0.0
Zn73 Zn 0.36919 0.08074 0.07982 0.0
Zn74 Zn 0.43996 0.08302 0.05053 0.0
O75 O 0.41055 0.00468 0.02409 0.0
O76 O 0.45831 0.05177 0.02768 0.0
O77 O 0.32824 0.10538 0.0153 0.0
O78 O 0.31892 0.04003 0.02287 0.0
O79 O 0.3453 0.98817 0.06436 0.0
O80 O 0.33829 0.03297 0.08883 0.0
O81 O 0.41827 0.07674 0.09705 0.0
O82 O 0.40882 0.16584 0.02966 0.0
O83 O 0.46393 0.05875 0.07447 0.0
O84 O 0.4601 0.14012 0.04681 0.0
C85 C 0.32108 0.15663 0.07381 0.0
C86 C 0.4447 0.02025 0.01915 0.0
C87 C 0.33431 -0.00286 0.08221 0.0
C88 C 0.31003 0.07157 0.01268 0.0
C89 C 0.45236 0.0612 0.0925 0.0
C90 C 0.44482 0.16891 0.03662 0.0
O91 O 0.33667 0.12964 0.08501 0.0
O92 O 0.08397 0.90259 0.16298 0.0
Zn93 Zn 0.11516 0.86705 0.18131 0.0
O94 O 0.16267 0.84733 0.16735 0.0
Zn95 Zn 0.21326 0.86694 0.1786 0.0
Zn96 Zn 0.16195 0.8603 0.13964 0.0
Zn97 Zn 0.15922 0.79009 0.16928 0.0
O98 O 0.23521 0.82272 0.19725 0.0
O99 O 0.19083 0.77281 0.19226 0.0
O100 O 0.133 0.90332 0.20373 0.0
O101 O 0.1985 0.91332 0.1968 0.0
O102 O 0.25324 0.8881 0.15648 0.0
O103 O 0.21002 0.89072 0.13112 0.0
O104 O 0.1661 0.81112 0.1226 0.0
O105 O 0.0741 0.82221 0.18864 0.0
O106 O 0.18297 0.76529 0.14527 0.0
O107 O 0.10214 0.7696 0.17337 0.0
C108 C 0.08665 0.90951 0.14438 0.0
C109 C 0.22063 0.78785 0.20167 0.0
C110 C 0.24499 0.89711 0.13829 0.0
C111 C 0.16642 0.92211 0.20659 0.0
C112 C 0.18085 0.77675 0.12722 0.0
C113 C 0.07235 0.78542 0.18265 0.0
O114 O 0.11399 0.89343 0.13357 0.0
O115 O 0.33534 0.82772 0.41706 0.0
Zn116 Zn 0.37011 0.86372 0.43352 0.0
O117 O 0.38648 0.90969 0.41775 0.0
Zn118 Zn 0.3668 0.96114 0.4279 0.0
Zn119 Zn 0.36961 0.90569 0.39071 0.0
Zn120 Zn 0.44383 0.90726 0.41847 0.0
O121 O 0.41238 0.98598 0.4447 0.0
O122 O 0.46223 0.94117 0.44058 0.0
O123 O 0.33555 0.88334 0.45583 0.0
O124 O 0.32236 0.94767 0.44787 0.0
O125 O 0.34271 -0.00231 0.40498 0.0
O126 O 0.33047 0.94815 0.38331 0.0
O127 O 0.41594 0.91588 0.3721 0.0
O128 O 0.41651 0.82589 0.44175 0.0
O129 O 0.46532 0.92987 0.39352 0.0
O130 O 0.46577 0.85064 0.42293 0.0
C131 C 0.32896 0.82637 0.39838 0.0
C132 C 0.4475 0.97212 0.44922 0.0
C133 C 0.32639 0.98474 0.38879 0.0
C134 C 0.316 0.91623 0.45861 0.0
C135 C 0.45116 0.9297 0.37589 0.0
C136 C 0.45184 0.82261 0.43409 0.0
O137 O 0.34279 0.85303 0.38645 0.0
O138 O 0.40625 0.07838 0.66423 0.0
Zn139 Zn 0.37437 0.11411 0.68212 0.0
O140 O 0.32765 0.13426 0.66777 0.0
Zn141 Zn 0.27637 0.11437 0.67813 0.0
Zn142 Zn 0.33004 0.12208 0.63997 0.0
Zn143 Zn 0.33085 0.1914 0.67041 0.0
O144 O 0.2524 0.15813 0.69642 0.0
O145 O 0.29765 0.20777 0.69305 0.0
O146 O 0.35517 0.07854 0.70445 0.0
O147 O 0.29015 0.06816 0.69659 0.0
O148 O 0.23793 0.09371 0.65531 0.0
O149 O 0.28229 0.09199 0.6304 0.0
O150 O 0.32681 0.17203 0.62343 0.0
O151 O 0.41573 0.15835 0.68962 0.0
O152 O 0.308 0.21666 0.64635 0.0
O153 O 0.38771 0.21208 0.6753 0.0
C154 C 0.40505 0.07249 0.64551 0.0
C155 C 0.26672 0.1927 0.70154 0.0
C156 C 0.24695 0.08544 0.63711 0.0
C157 C 0.32162 0.05978 0.70691 0.0
C158 C 0.31128 0.20597 0.62821 0.0
C159 C 0.41749 0.19548 0.68423 0.0
O160 O 0.37867 0.08927 0.63438 0.0
O161 O 0.15728 0.16038 0.91575 0.0
Zn162 Zn 0.12103 0.12685 0.93267 0.0
O163 O 0.10205 0.08096 0.91729 0.0
Zn164 Zn 0.11955 0.02896 0.92783 0.0
Zn165 Zn 0.11778 0.08396 0.88984 0.0
Zn166 Zn 0.0448 0.08501 0.91837 0.0
O167 O 0.07347 0.00585 0.94507 0.0
O168 O 0.02478 0.05134 0.94003 0.0
O169 O 0.15582 0.10632 0.95499 0.0
O170 O 0.16516 0.04118 0.94705 0.0
O171 O 0.14033 0.99042 0.90508 0.0
O172 O 0.14816 0.03575 0.88088 0.0
O173 O 0.06972 0.08168 0.8717 0.0
O174 O 0.07617 0.16733 0.9404 0.0
O175 O 0.02212 0.06405 0.89342 0.0
O176 O 0.02435 0.14152 0.92356 0.0
C177 C 0.16589 0.15955 0.89727 0.0
C178 C 0.03822 0.02021 0.94891 0.0
C179 C 0.15165 -0.00024 0.88733 0.0
C180 C 0.17385 0.0724 0.95752 0.0
C181 C 0.03491 0.067 0.87562 0.0
C182 C 0.03986 0.16999 0.93387 0.0
O183 O 0.15149 0.1328 0.88554 0.0
O184 O 0.91081 0.90967 0.6658 0.0
Zn185 Zn 0.87487 0.8752 0.68275 0.0
O186 O 0.82881 0.85757 0.667 0.0
Zn187 Zn 0.77706 0.8756 0.67744 0.0
Zn188 Zn 0.83211 0.87519 0.63992 0.0
Zn189 Zn 0.8317 0.80003 0.66715 0.0
O190 O 0.75448 0.82995 0.69492 0.0
O191 O 0.79741 0.77943 0.68871 0.0
O192 O 0.85455 0.91147 0.7047 0.0
O193 O 0.78958 0.9213 0.69655 0.0
O194 O 0.73836 0.89623 0.6547 0.0
O195 O 0.78422 0.90601 0.63093 0.0
O196 O 0.83118 0.8285 0.62121 0.0
O197 O 0.91271 0.82846 0.69132 0.0
O198 O 0.81185 0.77892 0.64145 0.0
O199 O 0.88806 0.7789 0.67256 0.0
C200 C 0.90966 0.91964 0.64749 0.0
C201 C 0.76776 0.79415 0.69838 0.0
C202 C 0.748 0.90879 0.63718 0.0
C203 C 0.82076 0.92989 0.70707 0.0
C204 C 0.81684 0.79319 0.624 0.0
C205 C 0.91578 0.79282 0.68391 0.0
O206 O 0.88125 0.90794 0.63602 0.0
O207 O 0.82996 0.1534 0.41477 0.0
Zn208 Zn 0.86677 0.12113 0.43199 0.0
O209 O 0.88459 0.07392 0.41757 0.0
Zn210 Zn 0.86407 0.02386 0.42903 0.0
Zn211 Zn 0.86948 0.07577 0.39018 0.0
Zn212 Zn 0.94203 0.07687 0.41872 0.0
O213 O 0.90891 0.00145 0.44721 0.0
O214 O 0.95985 0.04426 0.44136 0.0
O215 O 0.83298 0.10388 0.45494 0.0
O216 O 0.81803 0.03963 0.44764 0.0
O217 O 0.84228 0.98419 0.40684 0.0
O218 O 0.83832 0.02803 0.3818 0.0
O219 O 0.91742 0.07176 0.37234 0.0
O220 O 0.91205 0.16088 0.43915 0.0
O221 O 0.96453 0.0533 0.39411 0.0
O222 O 0.96377 0.13388 0.42282 0.0
C223 C 0.8216 0.15156 0.39629 0.0
C224 C 0.9445 0.015 0.45108 0.0
C225 C 0.83222 0.99287 0.38881 0.0
C226 C 0.81192 0.07198 0.45774 0.0
C227 C 0.95175 0.05611 0.37629 0.0
C228 C 0.94836 0.16323 0.43262 0.0
O229 O 0.83636 0.12422 0.38503 0.0
O230 O 0.57951 0.07792 0.16364 0.0
Zn231 Zn 0.6125 0.11333 0.18126 0.0
O232 O 0.65943 0.13197 0.16663 0.0
Zn233 Zn 0.7106 0.114 0.17807 0.0
Zn234 Zn 0.65812 0.11625 0.13922 0.0
Zn235 Zn 0.65464 0.1892 0.16737 0.0
O236 O 0.7317 0.16036 0.19592 0.0
O237 O 0.68672 0.20908 0.18962 0.0
O238 O 0.63103 0.07729 0.20328 0.0
O239 O 0.69685 0.06751 0.19679 0.0
O240 O 0.75058 0.09324 0.15568 0.0
O241 O 0.70615 0.08501 0.13112 0.0
O242 O 0.66218 0.16391 0.12106 0.0
O243 O 0.5724 0.15831 0.18929 0.0
O244 O 0.67745 0.21219 0.14278 0.0
O245 O 0.5973 0.20924 0.1716 0.0
C246 C 0.58137 0.06954 0.14516 0.0
C247 C 0.71692 0.19569 0.19928 0.0
C248 C 0.74183 0.08128 0.13793 0.0
C249 C 0.66433 0.05849 0.20622 0.0
C250 C 0.67587 0.19906 0.12498 0.0
C251 C 0.56893 0.19408 0.18216 0.0
O252 O 0.60933 0.08353 0.13402 0.0
O253 O 0.66002 0.83026 0.91373 0.0
Zn254 Zn 0.62294 0.85982 0.93194 0.0
O255 O 0.60229 0.90661 0.91797 0.0
Zn256 Zn 0.61956 0.95784 0.9294 0.0
Zn257 Zn 0.61508 0.90663 0.89028 0.0
Zn258 Zn 0.54549 0.90074 0.91983 0.0
O259 O 0.57386 0.97807 0.94783 0.0
O260 O 0.52762 0.92986 0.94326 0.0
O261 O 0.65778 0.87869 0.95464 0.0
O262 O 0.66608 0.94442 0.94782 0.0
O263 O 0.63974 -0.00143 0.90732 0.0
O264 O 0.64463 0.9555 0.88198 0.0
O265 O 0.56546 0.91042 0.87339 0.0
O266 O 0.57926 0.81715 0.9388 0.0
O267 O 0.5202 0.92623 0.89655 0.0
O268 O 0.52634 0.84295 0.92289 0.0
C269 C 0.66665 0.83294 0.8951 0.0
C270 C 0.54049 0.96063 0.95263 0.0
C271 C 0.64981 0.99064 0.88921 0.0
C272 C 0.67559 0.91259 0.95763 0.0
C273 C 0.53123 0.92505 0.8784 0.0
C274 C 0.54297 0.81375 0.93225 0.0
O275 O 0.64937 0.85941 0.88422 0.0
O276 O 0.90619 0.08662 0.80472 0.0
Zn277 Zn 0.87071 0.12076 0.78765 0.0
O278 O 0.82424 0.13636 0.80338 0.0
Zn279 Zn 0.77347 0.11772 0.79264 0.0
Zn280 Zn 0.82754 0.12142 0.83069 0.0
Zn281 Zn 0.82646 0.19315 0.80292 0.0
O282 O 0.75184 0.16277 0.77449 0.0
O283 O 0.79722 0.21189 0.77936 0.0
O284 O 0.85171 0.08458 0.76536 0.0
O285 O 0.78734 0.07192 0.77384 0.0
O286 O 0.73477 0.09733 0.81549 0.0
O287 O 0.78059 0.08911 0.83949 0.0
O288 O 0.82257 0.16971 0.84861 0.0
O289 O 0.90855 0.16842 0.78004 0.0
O290 O 0.79928 0.21439 0.82681 0.0
O291 O 0.88402 0.21344 0.80143 0.0
C292 C 0.90559 0.07771 0.82317 0.0
C293 C 0.76718 0.19726 0.76994 0.0
C294 C 0.74447 0.08574 0.83317 0.0
C295 C 0.81865 0.06475 0.76314 0.0
C296 C 0.80393 0.20256 0.8447 0.0
C297 C 0.91229 0.20151 0.78986 0.0
O298 O 0.87793 0.09033 0.83491 0.0
O299 O 0.65779 0.1614 0.55519 0.0
Zn300 Zn 0.62104 0.13007 0.53751 0.0
O301 O 0.60165 0.0831 0.55181 0.0
Zn302 Zn 0.61959 0.03176 0.54053 0.0
Zn303 Zn 0.61583 0.08431 0.57941 0.0
Zn304 Zn 0.54462 0.08751 0.55029 0.0
O305 O 0.57401 0.01003 0.52239 0.0
O306 O 0.52609 0.05627 0.52756 0.0
O307 O 0.65584 0.11103 0.51496 0.0
O308 O 0.66578 0.04551 0.52193 0.0
O309 O 0.64055 0.99197 0.56282 0.0
O310 O 0.6461 0.03593 0.5878 0.0
O311 O 0.56706 0.08018 0.5969 0.0
O312 O 0.57657 0.17152 0.53035 0.0
O313 O 0.5208 0.06366 0.57434 0.0
O314 O 0.5242 0.14443 0.54625 0.0
C315 C 0.66553 0.15925 0.57373 0.0
C316 C 0.53938 0.02558 0.51826 0.0
C317 C 0.65089 0.00053 0.58082 0.0
C318 C 0.67453 0.07759 0.51214 0.0
C319 C 0.53272 0.0652 0.59232 0.0
C320 C 0.54001 0.17371 0.53662 0.0
O321 O 0.64968 0.13238 0.58493 0.0
O322 O 0.5767 0.90761 0.30422 0.0
Zn323 Zn 0.60904 0.87029 0.28726 0.0
O324 O 0.65515 0.85126 0.30216 0.0
Zn325 Zn 0.7065 0.87005 0.29144 0.0
Zn326 Zn 0.6522 0.86571 0.32968 0.0
Zn327 Zn 0.65136 0.79397 0.30064 0.0
O328 O 0.72931 0.82451 0.27386 0.0
O329 O 0.6839 0.77525 0.27811 0.0
O330 O 0.62887 0.90354 0.26438 0.0
O331 O 0.69352 0.91575 0.27216 0.0
O332 O 0.74525 0.89041 0.31426 0.0
O333 O 0.7002 0.89593 0.33876 0.0
O334 O 0.6556 0.81706 0.34728 0.0
O335 O 0.56799 0.82578 0.28031 0.0
O336 O 0.67474 0.77105 0.32506 0.0
O337 O 0.59414 0.77355 0.29664 0.0
C338 C 0.57752 0.91526 0.3228 0.0
C339 C 0.71479 0.78967 0.26932 0.0
C340 C 0.73602 0.90038 0.33223 0.0
C341 C 0.66203 0.92269 0.26154 0.0
C342 C 0.67184 0.78314 0.343 0.0
C343 C 0.56501 0.78962 0.28699 0.0
O344 O 0.60361 0.89943 0.33443 0.0
O345 O 0.83055 0.82782 0.05595 0.0
Zn346 Zn 0.86627 0.85895 0.03757 0.0
O347 O 0.887 0.90595 0.05159 0.0
Zn348 Zn 0.86771 0.95721 0.04097 0.0
Zn349 Zn 0.87489 0.90475 0.0794 0.0
Zn350 Zn 0.94416 0.90177 0.04896 0.0
O351 O 0.91193 0.97988 0.02257 0.0
O352 O 0.96099 0.93399 0.02602 0.0
O353 O 0.8301 0.8779 0.01538 0.0
O354 O 0.82137 0.94353 0.02253 0.0
O355 O 0.84726 -0.00342 0.06358 0.0
O356 O 0.845 0.95281 0.08869 0.0
O357 O 0.92479 0.90824 0.09588 0.0
O358 O 0.91042 0.81737 0.02979 0.0
O359 O 0.97 0.92485 0.07282 0.0
O360 O 0.96397 0.84446 0.0446 0.0
C361 C 0.82498 0.82972 0.07469 0.0
C362 C 0.94622 0.96492 0.01741 0.0
C363 C 0.83875 0.98805 0.08181 0.0
C364 C 0.81214 0.91177 0.01259 0.0
C365 C 0.95913 0.9227 0.09097 0.0
C366 C 0.94733 0.81484 0.03554 0.0
O367 O 0.84196 0.85663 0.08544 0.0
O368 O 0.58388 0.58156 0.80575 0.0
Zn369 Zn 0.6144 0.61776 0.78752 0.0
O370 O 0.66221 0.63736 0.80112 0.0
Zn371 Zn 0.71305 0.6185 0.78944 0.0
Zn372 Zn 0.66186 0.62375 0.8288 0.0
Zn373 Zn 0.65768 0.69448 0.79941 0.0
O374 O 0.73452 0.66396 0.77093 0.0
O375 O 0.6892 0.71262 0.77671 0.0
O376 O 0.6319 0.58196 0.76514 0.0
O377 O 0.69779 0.57175 0.77126 0.0
O378 O 0.7535 0.59737 0.81167 0.0
O379 O 0.71026 0.59358 0.83699 0.0
O380 O 0.66629 0.67262 0.846 0.0
O381 O 0.5726 0.66193 0.78044 0.0
O382 O 0.68152 0.71904 0.82332 0.0
O383 O 0.60052 0.71493 0.79541 0.0
C384 C 0.58686 0.57408 0.82429 0.0
C385 C 0.71947 0.69901 0.76717 0.0
C386 C 0.74532 0.58765 0.82982 0.0
C387 C 0.66497 0.56277 0.76209 0.0
C388 C 0.68047 0.70721 0.84133 0.0
C389 C 0.57071 0.69876 0.78632 0.0
O390 O 0.61422 0.59009 0.8351 0.0
O391 O 0.65859 0.32806 0.05404 0.0
Zn392 Zn 0.62152 0.36128 0.03742 0.0
O393 O 0.60315 0.4072 0.05275 0.0
Zn394 Zn 0.62105 0.45894 0.04196 0.0
Zn395 Zn 0.61881 0.4039 0.08011 0.0
Zn396 Zn 0.5459 0.40316 0.05209 0.0
O397 O 0.57454 0.48148 0.02467 0.0
O398 O 0.52605 0.43597 0.03027 0.0
O399 O 0.65479 0.38164 0.01464 0.0
O400 O 0.66645 0.44645 0.02233 0.0
O401 O 0.64188 0.49737 0.06492 0.0
O402 O 0.64959 0.45168 0.089 0.0
O403 O 0.57105 0.40675 0.09836 0.0
O404 O 0.57643 0.32078 0.03012 0.0
O405 O 0.52356 0.42536 0.07688 0.0
O406 O 0.52496 0.3466 0.04724 0.0
C407 C 0.66639 0.32816 0.07259 0.0
C408 C 0.53931 0.46676 0.02106 0.0
C409 C 0.65307 0.48775 0.08267 0.0
C410 C 0.67353 0.41499 0.01169 0.0
C411 C 0.53645 0.42202 0.09465 0.0
C412 C 0.54023 0.31814 0.03682 0.0
O413 O 0.65169 0.35469 0.08436 0.0
O414 O 0.90264 0.40174 0.30664 0.0
Zn415 Zn 0.8703 0.36623 0.28877 0.0
O416 O 0.82249 0.34832 0.30285 0.0
Zn417 Zn 0.77248 0.3691 0.29137 0.0
Zn418 Zn 0.82389 0.36217 0.33044 0.0
Zn419 Zn 0.82484 0.29094 0.30131 0.0
O420 O 0.74996 0.32478 0.27281 0.0
O421 O 0.79276 0.27381 0.27846 0.0
O422 O 0.85334 0.40148 0.2661 0.0
O423 O 0.78854 0.4152 0.27293 0.0
O424 O 0.73272 0.39076 0.31363 0.0
O425 O 0.77593 0.39288 0.33899 0.0
O426 O 0.82014 0.31333 0.34771 0.0
O427 O 0.91008 0.3206 0.2815 0.0
O428 O 0.80059 0.26754 0.32553 0.0
O429 O 0.88159 0.26888 0.29724 0.0
C430 C 0.90017 0.40977 0.32514 0.0
C431 C 0.76362 0.28932 0.26876 0.0
C432 C 0.74103 0.39979 0.33184 0.0
C433 C 0.8211 0.42198 0.26308 0.0
C434 C 0.80418 0.27929 0.3435 0.0
C435 C 0.91142 0.28398 0.28769 0.0
O436 O 0.87238 0.39503 0.33614 0.0
O437 O 0.8355 0.66339 0.55179 0.0
Zn438 Zn 0.86861 0.62536 0.53543 0.0
O439 O 0.88512 0.58015 0.55178 0.0
Zn440 Zn 0.86605 0.52783 0.54268 0.0
Zn441 Zn 0.86762 0.58525 0.57858 0.0
Zn442 Zn 0.9424 0.58227 0.55131 0.0
O443 O 0.91117 0.5029 0.52559 0.0
O444 O 0.96107 0.54777 0.52942 0.0
O445 O 0.83193 0.60417 0.51404 0.0
O446 O 0.82066 0.53996 0.52325 0.0
O447 O 0.84348 0.49224 0.56644 0.0
O448 O 0.82785 0.54377 0.58627 0.0
O449 O 0.91317 0.57507 0.59743 0.0
O450 O 0.91568 0.66203 0.52638 0.0
O451 O 0.96343 0.56044 0.57663 0.0
O452 O 0.96389 0.63876 0.54633 0.0
C453 C 0.82917 0.66526 0.57048 0.0
C454 C 0.94623 0.51673 0.5209 0.0
C455 C 0.82556 0.50637 0.58199 0.0
C456 C 0.81277 0.57065 0.51226 0.0
C457 C 0.94856 0.56131 0.59414 0.0
C458 C 0.95057 0.66594 0.53449 0.0
O459 O 0.84205 0.63836 0.5825 0.0
O460 O 0.57897 0.4065 0.665 0.0
Zn461 Zn 0.61144 0.3706 0.68268 0.0
O462 O 0.65864 0.35193 0.66827 0.0
Zn463 Zn 0.70986 0.37047 0.67945 0.0
Zn464 Zn 0.65778 0.36791 0.64098 0.0
Zn465 Zn 0.65433 0.29462 0.66921 0.0
O466 O 0.73293 0.3242 0.69657 0.0
O467 O 0.68722 0.27554 0.6914 0.0
O468 O 0.62983 0.40548 0.70522 0.0
O469 O 0.69557 0.41526 0.69898 0.0
O470 O 0.74868 0.39462 0.65741 0.0
O471 O 0.70177 0.40551 0.63423 0.0
O472 O 0.66809 0.32114 0.62283 0.0
O473 O 0.57103 0.32558 0.69025 0.0
O474 O 0.67735 0.27155 0.64469 0.0
O475 O 0.59713 0.27398 0.67348 0.0
C476 C 0.57985 0.4122 0.64626 0.0
C477 C 0.71827 0.28904 0.70039 0.0
C478 C 0.73759 0.41001 0.64068 0.0
C479 C 0.66323 0.4237 0.70869 0.0
C480 C 0.67969 0.28538 0.62705 0.0
C481 C 0.56813 0.28944 0.6835 0.0
O482 O 0.60695 0.39645 0.63518 0.0
O483 O 0.82732 0.32828 0.91559 0.0
Zn484 Zn 0.86387 0.36239 0.93227 0.0
O485 O 0.88211 0.4083 0.91685 0.0
Zn486 Zn 0.8654 0.46036 0.92772 0.0
Zn487 Zn 0.86504 0.40508 0.88968 0.0
Zn488 Zn 0.93926 0.40378 0.9169 0.0
O489 O 0.91206 0.48115 0.94549 0.0
O490 O 0.96078 0.4366 0.93863 0.0
O491 O 0.82861 0.38292 0.95425 0.0
O492 O 0.81839 0.44815 0.94645 0.0
O493 O 0.84674 0.49986 0.90467 0.0
O494 O 0.83737 0.45455 0.88056 0.0
O495 O 0.91202 0.40379 0.87103 0.0
O496 O 0.90935 0.3229 0.94035 0.0
O497 O 0.96032 0.42484 0.89156 0.0
O498 O 0.95923 0.34677 0.92156 0.0
C499 C 0.81636 0.33015 0.89744 0.0
C500 C 0.94761 0.46663 0.94851 0.0
C501 C 0.83551 0.49077 0.88684 0.0
C502 C 0.80961 0.41635 0.95651 0.0
C503 C 0.94673 0.41945 0.87402 0.0
C504 C 0.94473 0.31909 0.93275 0.0
O505 O 0.82912 0.35793 0.88585 0.0
O506 O 0.90755 0.57669 0.16434 0.0
Zn507 Zn 0.87608 0.61248 0.18247 0.0
O508 O 0.82885 0.6324 0.16855 0.0
Zn509 Zn 0.77767 0.61393 0.17991 0.0
Zn510 Zn 0.82974 0.61882 0.14088 0.0
Zn511 Zn 0.8338 0.68956 0.17029 0.0
O512 O 0.7555 0.65999 0.1977 0.0
O513 O 0.80196 0.70804 0.1929 0.0
O514 O 0.85777 0.57702 0.20483 0.0
O515 O 0.7918 0.56781 0.19871 0.0
O516 O 0.73796 0.59258 0.15754 0.0
O517 O 0.78167 0.58827 0.13243 0.0
O518 O 0.82566 0.66776 0.1237 0.0
O519 O 0.91764 0.65647 0.18982 0.0
O520 O 0.81023 0.71425 0.1463 0.0
O521 O 0.89135 0.70939 0.17415 0.0
C522 C 0.90523 0.56992 0.14571 0.0
C523 C 0.77076 0.69478 0.20183 0.0
C524 C 0.74646 0.58256 0.13947 0.0
C525 C 0.82432 0.55865 0.20809 0.0
C526 C 0.8117 0.70246 0.12828 0.0
C527 C 0.92068 0.69288 0.18347 0.0
O528 O 0.87795 0.58591 0.13485 0.0
O529 O 0.6602 0.6582 0.41538 0.0
Zn530 Zn 0.62371 0.62591 0.4328 0.0
O531 O 0.60287 0.58015 0.418 0.0
Zn532 Zn 0.61882 0.52789 0.42888 0.0
Zn533 Zn 0.61855 0.58178 0.39058 0.0
Zn534 Zn 0.54574 0.58636 0.41904 0.0
O535 O 0.57197 0.5073 0.44659 0.0
O536 O 0.52492 0.55427 0.44108 0.0
O537 O 0.65845 0.60504 0.45494 0.0
O538 O 0.66552 0.53925 0.44776 0.0
O539 O 0.63774 0.48809 0.40609 0.0
O540 O 0.64827 0.5332 0.38202 0.0
O541 O 0.57071 0.57908 0.37252 0.0
O542 O 0.58041 0.66779 0.44065 0.0
O543 O 0.5221 0.56492 0.39428 0.0
O544 O 0.52745 0.6438 0.42396 0.0
C545 C 0.66779 0.65673 0.39681 0.0
C546 C 0.53728 0.52315 0.45033 0.0
C547 C 0.64989 0.49706 0.38841 0.0
C548 C 0.67552 0.57074 0.45776 0.0
C549 C 0.53528 0.56618 0.37648 0.0
C550 C 0.54418 0.67172 0.43418 0.0
O551 O 0.65236 0.62987 0.38549 0.0
O552 O 0.40838 0.40594 0.16641 0.0
Zn553 Zn 0.37544 0.36927 0.18336 0.0
O554 O 0.32889 0.3509 0.16851 0.0
Zn555 Zn 0.27737 0.36922 0.1794 0.0
Zn556 Zn 0.33153 0.36609 0.14111 0.0
Zn557 Zn 0.33279 0.29373 0.16963 0.0
O558 O 0.25448 0.32305 0.19694 0.0
O559 O 0.30047 0.27477 0.19189 0.0
O560 O 0.35591 0.40301 0.20606 0.0
O561 O 0.29098 0.41491 0.19864 0.0
O562 O 0.23874 0.39027 0.15648 0.0
O563 O 0.28434 0.39808 0.13238 0.0
O564 O 0.32673 0.31796 0.1233 0.0
O565 O 0.41633 0.32441 0.1904 0.0
O566 O 0.30929 0.27088 0.14525 0.0
O567 O 0.38962 0.27268 0.17385 0.0
C568 C 0.40814 0.41277 0.14776 0.0
C569 C 0.26942 0.28806 0.20091 0.0
C570 C 0.24833 0.40197 0.13878 0.0
C571 C 0.32284 0.42227 0.20894 0.0
C572 C 0.31152 0.28351 0.12739 0.0
C573 C 0.4187 0.28816 0.18377 0.0
O574 O 0.38139 0.39766 0.13625 0.0
O575 O 0.33262 0.65054 0.9132 0.0
Zn576 Zn 0.36823 0.61926 0.93137 0.0
O577 O 0.38776 0.57204 0.91711 0.0
Zn578 Zn 0.36823 0.52131 0.92814 0.0
Zn579 Zn 0.37512 0.57325 0.88935 0.0
Zn580 Zn 0.44495 0.57553 0.91916 0.0
O581 O 0.41266 0.4989 0.94659 0.0
O582 O 0.46199 0.54417 0.94217 0.0
O583 O 0.33222 0.60114 0.95392 0.0
O584 O 0.32229 0.53579 0.94668 0.0
O585 O 0.34637 0.48208 0.90582 0.0
O586 O 0.34369 0.5257 0.88064 0.0
O587 O 0.42472 0.56864 0.87253 0.0
O588 O 0.41317 0.66059 0.93851 0.0
O589 O 0.47023 0.5518 0.89536 0.0
O590 O 0.46555 0.6325 0.92309 0.0
C591 C 0.32694 0.64928 0.89446 0.0
C592 C 0.44723 0.5139 0.9513 0.0
C593 C 0.33682 0.49072 0.88773 0.0
C594 C 0.31363 0.56759 0.95671 0.0
C595 C 0.45915 0.55413 0.87726 0.0
C596 C 0.44988 0.66234 0.93236 0.0
O597 O 0.34325 0.62233 0.88347 0.0
O598 O 0.07307 0.57765 0.6671 0.0
Zn599 Zn 0.1066 0.61369 0.68428 0.0
O600 O 0.1524 0.63325 0.66903 0.0
Zn601 Zn 0.20478 0.61648 0.67934 0.0
Zn602 Zn 0.14958 0.61783 0.64159 0.0
Zn603 Zn 0.148 0.69036 0.6701 0.0
O604 O 0.22732 0.66254 0.69683 0.0
O605 O 0.18085 0.71032 0.69199 0.0
O606 O 0.12787 0.57817 0.70628 0.0
O607 O 0.19321 0.57017 0.6982 0.0
O608 O 0.24337 0.59702 0.65628 0.0
O609 O 0.19737 0.58712 0.63256 0.0
O610 O 0.15287 0.66578 0.62359 0.0
O611 O 0.06593 0.65866 0.69219 0.0
O612 O 0.17003 0.71327 0.6454 0.0
O613 O 0.09138 0.71042 0.6751 0.0
C614 C 0.07367 0.57016 0.6485 0.0
C615 C 0.21221 0.69739 0.70084 0.0
C616 C 0.2337 0.58501 0.63868 0.0
C617 C 0.16213 0.56056 0.70859 0.0
C618 C 0.16762 0.70048 0.62757 0.0
C619 C 0.0631 0.69493 0.68555 0.0
O620 O 0.10053 0.58502 0.63698 0.0
O621 O 0.15742 0.32833 0.4139 0.0
Zn622 Zn 0.12138 0.35943 0.43205 0.0
O623 O 0.09993 0.40584 0.41791 0.0
Zn624 Zn 0.11696 0.45763 0.42885 0.0
Zn625 Zn 0.11302 0.40462 0.39018 0.0
Zn626 Zn 0.04296 0.40042 0.42001 0.0
O627 O 0.07127 0.47923 0.44698 0.0
O628 O 0.02424 0.43164 0.44278 0.0
O629 O 0.15665 0.37933 0.45435 0.0
O630 O 0.16324 0.44529 0.44751 0.0
O631 O 0.13719 0.49706 0.40632 0.0
O632 O 0.14363 0.45265 0.38156 0.0
O633 O 0.0637 0.4091 0.3732 0.0
O634 O 0.07811 0.31697 0.43958 0.0
O635 O 0.01724 0.42305 0.39609 0.0
O636 O 0.0245 0.34306 0.42428 0.0
C637 C 0.16224 0.32915 0.3951 0.0
C638 C 0.03714 0.46311 0.45158 0.0
C639 C 0.14782 0.48827 0.38838 0.0
C640 C 0.17346 0.41373 0.45735 0.0
C641 C 0.02879 0.42228 0.37803 0.0
C642 C 0.04141 0.31402 0.43361 0.0
O643 O 0.1452 0.3557 0.38416 0.0
O644 O 0.40736 0.57969 0.30511 0.0
Zn645 Zn 0.37271 0.61485 0.28824 0.0
O646 O 0.32614 0.63191 0.30351 0.0
Zn647 Zn 0.27511 0.61361 0.29225 0.0
Zn648 Zn 0.32887 0.61491 0.33067 0.0
Zn649 Zn 0.32934 0.68916 0.30339 0.0
O650 O 0.25329 0.65958 0.2745 0.0
O651 O 0.29655 0.70939 0.28149 0.0
O652 O 0.35395 0.57947 0.266 0.0
O653 O 0.28903 0.56725 0.27353 0.0
O654 O 0.23577 0.59304 0.31477 0.0
O655 O 0.28073 0.58399 0.33905 0.0
O656 O 0.32673 0.66199 0.34925 0.0
O657 O 0.41167 0.66086 0.28054 0.0
O658 O 0.30746 0.71056 0.3285 0.0
O659 O 0.38597 0.71041 0.29897 0.0
C660 C 0.40639 0.57016 0.32346 0.0
C661 C 0.26703 0.69543 0.27152 0.0
C662 C 0.24482 0.58084 0.33243 0.0
C663 C 0.32117 0.55949 0.26354 0.0
C664 C 0.31187 0.69696 0.3461 0.0
C665 C 0.41431 0.69641 0.28803 0.0
O666 O 0.37824 0.58235 0.33499 0.0
O667 O 0.15925 0.65221 0.05508 0.0
Zn668 Zn 0.12304 0.62089 0.03706 0.0
O669 O 0.10276 0.5739 0.05132 0.0
Zn670 Zn 0.12183 0.52257 0.04052 0.0
Zn671 Zn 0.11579 0.57558 0.07907 0.0
Zn672 Zn 0.04546 0.57774 0.04929 0.0
O673 O 0.07715 0.50014 0.02205 0.0
O674 O 0.0277 0.54512 0.02671 0.0
O675 O 0.15882 0.60187 0.01462 0.0
O676 O 0.16817 0.53649 0.02203 0.0
O677 O 0.14271 0.48324 0.06318 0.0
O678 O 0.14521 0.52727 0.08821 0.0
O679 O 0.06649 0.57309 0.09613 0.0
O680 O 0.07859 0.66241 0.02968 0.0
O681 O 0.02061 0.5554 0.0736 0.0
O682 O 0.02525 0.63467 0.04452 0.0
C683 C 0.16629 0.64995 0.07369 0.0
C684 C 0.04231 0.51479 0.01756 0.0
C685 C 0.1514 0.49199 0.08138 0.0
C686 C 0.17717 0.56814 0.01194 0.0
C687 C 0.03206 0.55828 0.09163 0.0
C688 C 0.04157 0.66429 0.03534 0.0
O689 O 0.14986 0.62318 0.0847 0.0
O690 O 0.07575 0.40065 0.80252 0.0
Zn691 Zn 0.11173 0.36638 0.78589 0.0
O692 O 0.15712 0.35045 0.80218 0.0
Zn693 Zn 0.20861 0.3666 0.79142 0.0
Zn694 Zn 0.1541 0.36775 0.8292 0.0
Zn695 Zn 0.15183 0.29391 0.80245 0.0
O696 O 0.22868 0.31927 0.77415 0.0
O697 O 0.18114 0.27238 0.77944 0.0
O698 O 0.13192 0.40231 0.76403 0.0
O699 O 0.19666 0.41288 0.77239 0.0
O700 O 0.24745 0.38607 0.81438 0.0
O701 O 0.20089 0.40127 0.83725 0.0
O702 O 0.15995 0.32098 0.84805 0.0
O703 O 0.07345 0.3197 0.77765 0.0
O704 O 0.17738 0.27282 0.82665 0.0
O705 O 0.09326 0.27656 0.80105 0.0
C706 C 0.07539 0.40964 0.82096 0.0
C707 C 0.21238 0.28486 0.77021 0.0
C708 C 0.23757 0.40092 0.83145 0.0
C709 C 0.16542 0.42131 0.76186 0.0
C710 C 0.17573 0.28657 0.84432 0.0
C711 C 0.06711 0.28818 0.7883 0.0
O712 O 0.103 0.39794 0.83295 0.0
O713 O 0.3276 0.33298 0.55642 0.0
Zn714 Zn 0.36289 0.36557 0.53838 0.0
O715 O 0.38219 0.4129 0.55259 0.0
Zn716 Zn 0.36294 0.46385 0.54158 0.0
Zn717 Zn 0.36835 0.41144 0.58017 0.0
Zn718 Zn 0.43951 0.40954 0.55088 0.0
O719 O 0.40782 0.48664 0.52347 0.0
O720 O 0.45736 0.44181 0.52816 0.0
O721 O 0.32711 0.38384 0.51604 0.0
O722 O 0.31726 0.44941 0.52286 0.0
O723 O 0.34103 0.50309 0.56391 0.0
O724 O 0.33733 0.45911 0.5889 0.0
O725 O 0.41712 0.415 0.59739 0.0
O726 O 0.40804 0.32542 0.53061 0.0
O727 O 0.46369 0.43261 0.5752 0.0
O728 O 0.46018 0.35249 0.54661 0.0
C729 C 0.32084 0.33496 0.57507 0.0
C730 C 0.44272 0.47212 0.519 0.0
C731 C 0.33108 0.49429 0.58194 0.0
C732 C 0.30869 0.41735 0.513 0.0
C733 C 0.45175 0.4296 0.59317 0.0
C734 C 0.44453 0.3231 0.53696 0.0
O735 O 0.33609 0.36275 0.58588 0.0
C736 C 0.19721 0.26748 0.35241 0.0
C737 C 0.18194 0.22913 0.35777 0.0
C738 C 0.19622 0.29959 0.36588 0.0
C739 C 0.18028 0.29414 0.38509 0.0
H740 H 0.20668 0.27382 0.33723 0.0
H741 H 0.2041 0.32965 0.36058 0.0
S742 S 0.14875 0.19699 0.4083 0.0
N743 N 0.15966 0.18524 0.38494 0.0
N744 N 0.15794 0.24604 0.4104 0.0
C745 C 0.17131 0.25467 0.39166 0.0
C746 C 0.17202 0.22188 0.37788 0.0
C747 C 0.97254 0.95319 0.60517 0.0
C748 C 0.00949 0.93416 0.60984 0.0
C749 C 0.94119 0.9546 0.61907 0.0
C750 C 0.94583 0.93664 0.63793 0.0
H751 H 0.96651 0.96413 0.59021 0.0
H752 H 0.9118 0.96561 0.61424 0.0
S753 S 0.04097 0.89567 0.65948 0.0
N754 N 0.05253 0.9067 0.63613 0.0
N755 N 0.99301 0.90889 0.66234 0.0
C756 C 0.98468 0.92394 0.6439 0.0
C757 C 0.01677 0.92257 0.62971 0.0
C758 C 0.28982 0.71069 0.85206 0.0
C759 C 0.30296 0.7496 0.85779 0.0
C760 C 0.29245 0.67824 0.86524 0.0
C761 C 0.30802 0.68386 0.88452 0.0
H762 H 0.28073 0.70437 0.83683 0.0
H763 H 0.28601 0.64802 0.85968 0.0
S764 S 0.33393 0.78175 0.90867 0.0
N765 N 0.32254 0.79369 0.8854 0.0
N766 N 0.32753 0.7322 0.9103 0.0
C767 C 0.31487 0.7235 0.89145 0.0
C768 C 0.31242 0.75666 0.87797 0.0
C769 C 0.55177 0.03539 0.11601 0.0
C770 C 0.54642 0.05079 0.13535 0.0
C771 C 0.51962 0.0349 0.10259 0.0
C772 C 0.48128 0.04979 0.1082 0.0
H773 H 0.58181 0.02789 0.11053 0.0
H774 H 0.52599 0.02626 0.08729 0.0
S775 S 0.44869 0.07784 0.15937 0.0
N776 N 0.49801 0.06992 0.16121 0.0
N777 N 0.43703 0.06876 0.13583 0.0
C778 C 0.47396 0.0581 0.12846 0.0
C779 C 0.50683 0.05849 0.14219 0.0
C780 C 0.17767 0.75497 0.09177 0.0
C781 C 0.19097 0.74764 0.11139 0.0
C782 C 0.17545 0.72334 0.07799 0.0
C783 C 0.18626 0.6838 0.08363 0.0
H784 H 0.16522 0.78416 0.08756 0.0
H785 H 0.1606 0.729 0.06382 0.0
S786 S 0.23662 0.6523 0.13048 0.0
N787 N 0.22579 0.70075 0.13377 0.0
N788 N 0.2205 0.641 0.1078 0.0
C789 C 0.20586 0.67764 0.10191 0.0
C790 C 0.20845 0.70979 0.1159 0.0
C791 C 0.50374 0.92149 0.32668 0.0
C792 C 0.54269 0.93512 0.33192 0.0
C793 C 0.47192 0.92405 0.34038 0.0
C794 C 0.47855 0.94053 0.35946 0.0
H795 H 0.49902 0.90421 0.3131 0.0
H796 H 0.44357 0.90911 0.33677 0.0
S797 S 0.57131 -0.00638 0.37688 0.0
N798 N 0.58362 0.97481 0.35483 0.0
N799 N 0.52338 0.98097 0.38052 0.0
C800 C 0.51537 0.96069 0.36329 0.0
C801 C 0.54774 0.95764 0.34944 0.0
C802 C 0.28836 0.30647 0.60495 0.0
C803 C 0.30219 0.30051 0.58536 0.0
C804 C 0.28766 0.27445 0.61844 0.0
C805 C 0.30067 0.23555 0.61266 0.0
H806 H 0.28216 0.33675 0.61049 0.0
H807 H 0.28024 0.2812 0.63385 0.0
S808 S 0.32431 0.2018 0.56111 0.0
N809 N 0.31813 0.25137 0.55933 0.0
N810 N 0.31629 0.19058 0.5848 0.0
C811 C 0.30755 0.22791 0.59228 0.0
C812 C 0.30825 0.26068 0.5785 0.0
C813 C 0.01185 0.07555 0.84059 0.0
C814 C 0.00672 0.05731 0.85938 0.0
C815 C 0.97966 0.07696 0.82708 0.0
C816 C 0.9418 0.06038 0.83221 0.0
H817 H 0.03928 0.0922 0.83706 0.0
H818 H 0.98308 0.09523 0.81373 0.0
S819 S 0.91762 -0.00226 0.87643 0.0
N820 N 0.96473 0.01313 0.88006 0.0
N821 N 0.90379 0.01703 0.85473 0.0
C822 C 0.93841 0.03676 0.84946 0.0
C823 C 0.97115 0.03495 0.86312 0.0
C824 C 0.78692 0.73064 0.61 0.0
C825 C 0.80942 0.76634 0.60694 0.0
C826 C 0.7889 0.69894 0.59633 0.0
C827 C 0.81307 0.70231 0.5792 0.0
H828 H 0.77042 0.72573 0.62379 0.0
H829 H 0.77469 0.67029 0.60013 0.0
S830 S 0.86954 0.7929 0.562 0.0
N831 N 0.85016 0.80621 0.58376 0.0
N832 N 0.85375 0.74608 0.55792 0.0
C833 C 0.83084 0.73977 0.57452 0.0
C834 C 0.82907 0.77211 0.58852 0.0
C835 C 0.97192 0.06093 0.34066 0.0
C836 C 0.97936 0.04556 0.35991 0.0
C837 C 0.00304 0.06248 0.32657 0.0
C838 C 0.04205 0.04892 0.33157 0.0
H839 H 0.94339 0.07553 0.33708 0.0
H840 H -0.00219 0.079 0.31282 0.0
S841 S 0.07279 -0.00682 0.37699 0.0
N842 N 0.02513 0.00629 0.38105 0.0
N843 N 0.08398 0.01049 0.35452 0.0
C844 C 0.04789 0.02746 0.34933 0.0
C845 C 0.01628 0.02552 0.36363 0.0
C846 C 0.70357 0.29674 0.10029 0.0
C847 C 0.68483 0.29233 0.08164 0.0
C848 C 0.70446 0.26453 0.11368 0.0
C849 C 0.68639 0.22715 0.10877 0.0
H850 H 0.71358 0.32632 0.10538 0.0
H851 H 0.71605 0.27021 0.12856 0.0
S852 S 0.64563 0.19711 0.05931 0.0
N853 N 0.65713 0.24563 0.05697 0.0
N854 N 0.65868 0.18464 0.0823 0.0
C855 C 0.67381 0.22052 0.08899 0.0
C856 C 0.67318 0.2534 0.07528 0.0
C857 C 0.43018 0.94704 0.85567 0.0
C858 C 0.43648 0.93454 0.83589 0.0
C859 C 0.46228 0.94801 0.8691 0.0
C860 C 0.50152 0.93653 0.86307 0.0
H861 H 0.39972 0.95172 0.86135 0.0
H862 H 0.45538 0.95413 0.88464 0.0
S863 S 0.53573 0.91788 0.81112 0.0
N864 N 0.48595 0.92238 0.80951 0.0
N865 N 0.54686 0.92457 0.83493 0.0
C866 C 0.50929 0.93146 0.84259 0.0
C867 C 0.47645 0.93055 0.82885 0.0
C868 C 0.77668 0.26886 0.85582 0.0
C869 C 0.79258 0.23059 0.86085 0.0
C870 C 0.77836 0.30082 0.86936 0.0
C871 C 0.79598 0.29535 0.88823 0.0
H872 H 0.76661 0.27543 0.84077 0.0
H873 H 0.77023 0.33089 0.86418 0.0
S874 S 0.82538 0.19732 0.91118 0.0
N875 N 0.81411 0.18598 0.88782 0.0
N876 N 0.81759 0.24659 0.91341 0.0
C877 C 0.80433 0.25567 0.89472 0.0
C878 C 0.80271 0.22299 0.88088 0.0
C879 C 0.51061 0.06708 0.62775 0.0
C880 C 0.50416 0.05352 0.6081 0.0
C881 C 0.47879 0.06726 0.64148 0.0
C882 C 0.43997 0.05418 0.63573 0.0
H883 H 0.53899 0.08125 0.632 0.0
H884 H 0.48344 0.08235 0.65568 0.0
S885 S 0.41167 0.00268 0.5887 0.0
N886 N 0.45949 0.01621 0.58555 0.0
N887 N 0.39928 0.01793 0.61139 0.0
C888 C 0.43504 0.03449 0.6174 0.0
C889 C 0.4674 0.03388 0.60348 0.0
C890 C 0.6696 0.7618 0.37855 0.0
C891 C 0.68396 0.75536 0.35904 0.0
C892 C 0.67057 0.73048 0.39254 0.0
C893 C 0.68558 0.69211 0.38719 0.0
H894 H 0.65404 0.78962 0.3825 0.0
H895 H 0.65482 0.73488 0.40659 0.0
S896 S 0.73969 0.6648 0.34071 0.0
N897 N 0.72396 0.71178 0.33708 0.0
N898 N 0.72443 0.65246 0.3634 0.0
C899 C 0.70604 0.68757 0.36903 0.0
C900 C 0.70544 0.71943 0.35484 0.0
C901 C 0.01323 0.9184 0.14003 0.0
C902 C 0.05277 0.92888 0.1342 0.0
C903 C 0.9815 0.92023 0.12631 0.0
C904 C 0.98871 0.93278 0.10656 0.0
H905 H 0.00758 0.9042 0.15436 0.0
H906 H 0.95226 0.90815 0.13073 0.0
S907 S 0.08413 0.97728 0.08681 0.0
N908 N 0.09554 0.96202 0.1096 0.0
N909 N 0.03561 0.96647 0.08372 0.0
C910 C 0.02664 0.94985 0.10177 0.0
C911 C 0.05889 0.9477 0.11571 0.0
C912 C 0.67712 0.75985 0.89073 0.0
C913 C 0.68705 0.79959 0.88501 0.0
C914 C 0.67906 0.72839 0.87686 0.0
C915 C 0.69124 0.73613 0.8571 0.0
H916 H 0.663 0.75387 0.90505 0.0
H917 H 0.66713 0.69903 0.88115 0.0
S918 S 0.73473 0.83222 0.83765 0.0
N919 N 0.71958 0.8431 0.86054 0.0
N920 N 0.72442 0.78365 0.83439 0.0
C921 C 0.7081 0.77421 0.85246 0.0
C922 C 0.70577 0.80619 0.86654 0.0
C923 C 0.439 0.44933 0.11973 0.0
C924 C 0.44383 0.43088 0.13842 0.0
C925 C 0.47098 0.45023 0.1062 0.0
C926 C 0.50853 0.43237 0.11097 0.0
H927 H 0.4093 0.45919 0.11476 0.0
H928 H 0.46495 0.46169 0.09134 0.0
S929 S 0.5397 0.39276 0.16047 0.0
N930 N 0.49111 0.40384 0.16298 0.0
N931 N 0.55172 0.40546 0.13737 0.0
C932 C 0.51557 0.4201 0.13076 0.0
C933 C 0.48292 0.41947 0.14463 0.0
C934 C 0.78419 0.17937 0.3677 0.0
C935 C 0.80103 0.18562 0.38668 0.0
C936 C 0.78095 0.21133 0.35427 0.0
C937 C 0.79463 0.25034 0.35949 0.0
H938 H 0.77757 0.14896 0.36245 0.0
H939 H 0.77133 0.20443 0.33917 0.0
S940 S 0.82625 0.28457 0.4099 0.0
N941 N 0.82061 0.23499 0.41198 0.0
N942 N 0.81427 0.29561 0.3866 0.0
C943 C 0.80447 0.25821 0.37954 0.0
C944 C 0.80764 0.22553 0.39328 0.0
C945 C 0.01243 0.53138 0.60673 0.0
C946 C 0.975 0.55007 0.61089 0.0
C947 C 0.04372 0.53223 0.62065 0.0
C948 C 0.03828 0.55158 0.6391 0.0
H949 H 0.01899 0.51945 0.59199 0.0
H950 H 0.07352 0.52181 0.61611 0.0
S951 S 0.94215 0.59257 0.65959 0.0
N952 N 0.93105 0.57899 0.6365 0.0
N953 N 0.99033 0.58052 0.66281 0.0
C954 C -0.00091 0.5638 0.64475 0.0
C955 C 0.96715 0.56317 0.6305 0.0
C956 C 0.67436 0.23279 0.57779 0.0
C957 C 0.68568 0.19334 0.5834 0.0
C958 C 0.67685 0.26455 0.5915 0.0
C959 C 0.69094 0.25735 0.61098 0.0
H960 H 0.65881 0.2382 0.56378 0.0
H961 H 0.66362 0.2935 0.58748 0.0
S962 S 0.73829 0.1627 0.62978 0.0
N963 N 0.72137 0.15103 0.60729 0.0
N964 N 0.72717 0.21109 0.63309 0.0
C965 C 0.70908 0.21978 0.61535 0.0
C966 C 0.70619 0.1875 0.60146 0.0
C967 C 0.04178 0.44868 0.84735 0.0
C968 C 0.03842 0.42613 0.82971 0.0
C969 C 0.00983 0.44985 0.86089 0.0
C970 C 0.97386 0.42813 0.8572 0.0
H971 H 0.07057 0.46201 0.85163 0.0
H972 H 0.0148 0.46495 0.87506 0.0
S973 S 0.94647 0.37452 0.81039 0.0
N974 N -0.00617 0.38938 0.80704 0.0
N975 N 0.93333 0.39139 0.83269 0.0
C976 C 0.96795 0.41079 0.83825 0.0
C977 C 0.00053 0.40989 0.82436 0.0
C978 C 0.79106 0.80277 0.10451 0.0
C979 C 0.80516 0.79607 0.08502 0.0
C980 C 0.78914 0.771 0.1181 0.0
C981 C 0.80134 0.7317 0.11255 0.0
H982 H 0.78565 0.83332 0.10988 0.0
H983 H 0.78161 0.77819 0.13345 0.0
S984 S 0.82552 0.69651 0.0613 0.0
N985 N 0.82052 0.74617 0.05927 0.0
N986 N 0.81656 0.68586 0.08497 0.0
C987 C 0.80842 0.7235 0.09224 0.0
C988 C 0.81028 0.756 0.07834 0.0
C989 C 0.47055 0.53597 0.36518 0.0
C990 C 0.5074 0.55508 0.36029 0.0
C991 C 0.43866 0.53507 0.3516 0.0
C992 C 0.44276 0.55332 0.3328 0.0
H993 H 0.465 0.52462 0.38012 0.0
H994 H 0.40939 0.52406 0.35663 0.0
S995 S 0.53717 0.59495 0.31061 0.0
N996 N 0.54954 0.58326 0.33379 0.0
N997 N 0.48913 0.58169 0.30812 0.0
C998 C 0.48144 0.56615 0.32655 0.0
C999 C 0.51401 0.56719 0.34044 0.0
C1000 C 0.28471 0.21705 0.1164 0.0
C1001 C 0.30026 0.25541 0.1113 0.0
C1002 C 0.28555 0.18536 0.10271 0.0
C1003 C 0.30189 0.19126 0.08361 0.0
H1004 H 0.27533 0.21025 0.13155 0.0
H1005 H 0.27765 0.15518 0.10784 0.0
S1006 S 0.33146 0.28935 0.06081 0.0
N1007 N 0.32118 0.30036 0.08431 0.0
N1008 N 0.32303 0.24021 0.05843 0.0
C1009 C 0.31035 0.23095 0.07721 0.0
C1010 C 0.30962 0.26334 0.0912 0.0
C1011 C 0.4817 0.55873 0.84199 0.0
C1012 C 0.48901 0.54528 0.86158 0.0
C1013 C 0.51363 0.56273 0.82848 0.0
C1014 C 0.55346 0.55357 0.83435 0.0
H1015 H 0.45212 0.56994 0.83762 0.0
H1016 H 0.50768 0.57745 0.81431 0.0
S1017 S 0.5858 0.50365 0.88118 0.0
N1018 N 0.5368 0.51216 0.88415 0.0
N1019 N 0.59707 0.52081 0.85869 0.0
C1020 C 0.55998 0.53395 0.8526 0.0
C1021 C 0.52752 0.52951 0.86631 0.0
C1022 C 0.19712 0.76565 0.61642 0.0
C1023 C 0.17933 0.72821 0.61141 0.0
C1024 C 0.19839 0.79715 0.60265 0.0
C1025 C 0.18194 0.79205 0.58352 0.0
H1026 H 0.20703 0.77198 0.63153 0.0
H1027 H 0.20823 0.82682 0.6077 0.0
S1028 S 0.14544 0.69589 0.56104 0.0
N1029 N 0.15509 0.68451 0.58457 0.0
N1030 N 0.15734 0.74428 0.55854 0.0
C1031 C 0.17072 0.75292 0.57726 0.0
C1032 C 0.16927 0.72072 0.59135 0.0
C1033 C 0.00596 0.4189 0.34276 0.0
C1034 C -0.00065 0.43245 0.3624 0.0
C1035 C 0.97393 0.41714 0.3292 0.0
C1036 C 0.93468 0.42868 0.33507 0.0
H1037 H 0.03485 0.40596 0.33838 0.0
H1038 H 0.97903 0.40224 0.31498 0.0
S1039 S 0.90524 0.47964 0.38214 0.0
N1040 N 0.95359 0.468 0.3851 0.0
N1041 N 0.89307 0.46367 0.35955 0.0
C1042 C 0.9293 0.44836 0.35341 0.0
C1043 C 0.96186 0.45044 0.36717 0.0
C1044 C 0.28853 0.79425 0.37205 0.0
C1045 C 0.31112 0.79008 0.38963 0.0
C1046 C 0.28487 0.76191 0.35886 0.0
C1047 C 0.30428 0.72476 0.3628 0.0
H1048 H 0.27694 0.82366 0.36759 0.0
H1049 H 0.26991 0.76732 0.3447 0.0
S1050 S 0.35738 0.69601 0.40948 0.0
N1051 N 0.34565 0.74432 0.41248 0.0
N1052 N 0.339 0.68302 0.38747 0.0
C1053 C 0.32166 0.71854 0.38171 0.0
C1054 C 0.32507 0.75154 0.39526 0.0
C1055 C 0.9788 0.56359 0.14099 0.0
C1056 C 0.93955 0.55124 0.13557 0.0
C1057 C 0.01026 0.56228 0.12707 0.0
C1058 C 0.00308 0.54835 0.10754 0.0
H1059 H 0.98421 0.57878 0.1551 0.0
H1060 H 0.03911 0.5757 0.13113 0.0
S1061 S 0.90884 0.49951 0.08895 0.0
N1062 N 0.89742 0.51549 0.11163 0.0
N1063 N 0.95687 0.51186 0.08542 0.0
C1064 C 0.96566 0.52971 0.10321 0.0
C1065 C 0.93368 0.53138 0.11734 0.0
C1066 C 0.17054 0.2654 0.8798 0.0
C1067 C 0.18728 0.25945 0.86072 0.0
C1068 C 0.16932 0.23352 0.89349 0.0
C1069 C 0.18456 0.19516 0.88825 0.0
H1070 H 0.15452 0.29315 0.88343 0.0
H1071 H 0.15183 0.23755 0.90706 0.0
S1072 S 0.24437 0.16904 0.84333 0.0
N1073 N 0.2297 0.21636 0.83969 0.0
N1074 N 0.22602 0.15597 0.86536 0.0
C1075 C 0.20732 0.19107 0.87075 0.0
C1076 C 0.20901 0.22351 0.85691 0.0
C1077 C 0.51992 0.45198 0.60399 0.0
C1078 C 0.48086 0.4384 0.60918 0.0
C1079 C 0.55187 0.44853 0.61741 0.0
C1080 C 0.54555 0.43167 0.63638 0.0
H1081 H 0.52681 0.46189 0.58894 0.0
H1082 H 0.58229 0.45533 0.61223 0.0
S1083 S 0.44674 0.40532 0.6594 0.0
N1084 N 0.43564 0.41786 0.63618 0.0
N1085 N 0.49631 0.41112 0.66152 0.0
C1086 C 0.50569 0.42462 0.6429 0.0
C1087 C 0.47302 0.42801 0.62918 0.0
C1088 C 0.02365 0.25665 0.28313 0.0
C1089 C 0.02376 0.21391 0.28385 0.0
C1090 C 0.98721 0.27892 0.28347 0.0
C1091 C 0.94925 0.25949 0.28503 0.0
H1092 H 0.05208 0.27314 0.28261 0.0
H1093 H 0.98897 0.31174 0.2833 0.0
S1094 S 0.93258 0.14805 0.28689 0.0
N1095 N 0.98237 0.15298 0.2855 0.0
N1096 N 0.91414 0.19463 0.28662 0.0
C1097 C 0.94888 0.2167 0.28535 0.0
C1098 C 0.98598 0.19401 0.28461 0.0
C1099 C 0.0163 0.70453 0.53726 0.0
C1100 C 0.97505 0.70377 0.53156 0.0
C1101 C 0.03898 0.74069 0.53709 0.0
C1102 C 0.02119 0.77779 0.53163 0.0
H1103 H 0.03108 0.6771 0.54239 0.0
H1104 H 0.07011 0.73994 0.54223 0.0
S1105 S 0.91619 0.79241 0.51319 0.0
N1106 N 0.9188 0.74346 0.51833 0.0
N1107 N 0.96116 0.81138 0.51881 0.0
C1108 C 0.98066 0.77742 0.52513 0.0
C1109 C 0.95772 0.74046 0.52484 0.0
C1110 C 0.45817 0.72589 0.78606 0.0
C1111 C 0.45813 0.76858 0.78424 0.0
C1112 C 0.49446 0.70334 0.78571 0.0
C1113 C 0.53244 0.72252 0.78392 0.0
H1114 H 0.4299 0.70965 0.78814 0.0
H1115 H 0.4928 0.67077 0.78772 0.0
S1116 S 0.54957 0.83289 0.777 0.0
N1117 N 0.49982 0.82864 0.77914 0.0
N1118 N 0.56773 0.7864 0.77895 0.0
C1119 C 0.53288 0.76494 0.78143 0.0
C1120 C 0.49589 0.78788 0.78144 0.0
C1121 C 0.51136 0.20645 0.03729 0.0
C1122 C 0.46903 0.20698 0.03395 0.0
C1123 C 0.53458 0.24227 0.03707 0.0
C1124 C 0.51636 0.28028 0.03393 0.0
H1125 H 0.52672 0.17816 0.04052 0.0
H1126 H 0.56672 0.24037 0.04031 0.0
S1127 S 0.40791 0.29867 0.02237 0.0
N1128 N 0.41076 0.24907 0.02563 0.0
N1129 N 0.45428 0.31625 0.02586 0.0
C1130 C 0.47452 0.28127 0.02983 0.0
C1131 C 0.45093 0.24471 0.02963 0.0
C1132 C 0.95976 0.75846 0.18581 0.0
C1133 C 0.95968 0.71567 0.18559 0.0
C1134 C -0.00376 0.78076 0.18584 0.0
C1135 C 0.03425 0.76127 0.18519 0.0
H1136 H 0.93133 0.77495 0.18566 0.0
H1137 H -0.00547 0.81358 0.18555 0.0
S1138 S 0.05104 0.64978 0.18505 0.0
N1139 N 0.00119 0.65473 0.18545 0.0
N1140 N 0.06943 0.69638 0.18508 0.0
C1141 C 0.03461 0.71848 0.18542 0.0
C1142 C -0.00251 0.69579 0.18575 0.0
C1143 C 0.51744 0.78368 0.43129 0.0
C1144 C 0.4761 0.78461 0.43687 0.0
C1145 C 0.53998 0.74743 0.43158 0.0
C1146 C 0.52194 0.71045 0.43709 0.0
H1147 H 0.5324 0.81105 0.42619 0.0
H1148 H 0.57123 0.74804 0.42654 0.0
S1149 S 0.41653 0.69623 0.45508 0.0
N1150 N 0.41943 0.74513 0.44988 0.0
N1151 N 0.46155 0.67713 0.4497 0.0
C1152 C 0.48129 0.71099 0.44341 0.0
C1153 C 0.45849 0.748 0.44353 0.0
C1154 C 0.52972 0.22323 0.68279 0.0
C1155 C 0.5298 0.26552 0.68619 0.0
C1156 C 0.4936 0.20043 0.68325 0.0
C1157 C 0.45582 0.21901 0.68674 0.0
H1158 H 0.55777 0.20759 0.67935 0.0
H1159 H 0.4951 0.16828 0.67995 0.0
S1160 S 0.43907 0.32776 0.69834 0.0
N1161 N 0.48853 0.32427 0.69474 0.0
N1162 N 0.42086 0.28158 0.69505 0.0
C1163 C 0.45548 0.26088 0.69085 0.0
C1164 C 0.49234 0.28403 0.69075 0.0
C1165 C 0.03451 0.24589 0.93335 0.0
C1166 C 0.01616 0.20797 0.93666 0.0
C1167 C 0.01132 0.28171 0.93274 0.0
C1168 C 0.96894 0.28125 0.93585 0.0
H1169 H 0.06672 0.24769 0.9302 0.0
H1170 H 0.02671 0.30994 0.92938 0.0
S1171 S 0.90727 0.18991 0.94744 0.0
N1172 N 0.95376 0.17223 0.94447 0.0
N1173 N 0.91033 0.23943 0.94396 0.0
C1174 C 0.95067 0.24367 0.94031 0.0
C1175 C 0.9742 0.20711 0.94051 0.0
C1176 C 0.98729 0.70153 0.68425 0.0
C1177 C 0.02529 0.71886 0.68848 0.0
C1178 C 0.95193 0.72544 0.6835 0.0
C1179 C 0.95293 0.76759 0.68735 0.0
H1180 H 0.98517 0.66965 0.68047 0.0
H1181 H 0.9237 0.71085 0.67937 0.0
S1182 S 0.04457 0.82638 0.70174 0.0
N1183 N 0.06159 0.77984 0.69811 0.0
N1184 N -0.00473 0.8246 0.69736 0.0
C1185 C 0.99053 0.78471 0.69282 0.0
C1186 C 0.02662 0.76045 0.69317 0.0
C1187 C 0.01464 0.20165 0.43217 0.0
C1188 C 0.97225 0.20149 0.43531 0.0
C1189 C 0.0373 0.23787 0.4328 0.0
C1190 C 0.01841 0.27552 0.43618 0.0
H1191 H 0.03044 0.17365 0.42883 0.0
H1192 H 0.06954 0.23657 0.42969 0.0
S1193 S 0.90923 0.29202 0.4469 0.0
N1194 N 0.91304 0.24259 0.44337 0.0
N1195 N 0.95549 0.3103 0.44401 0.0
C1196 C 0.97645 0.27573 0.44 0.0
C1197 C 0.95345 0.23887 0.43973 0.0
C1198 C 0.53071 0.26031 0.18183 0.0
C1199 C 0.53072 0.21798 0.1851 0.0
C1200 C 0.49466 0.28316 0.18253 0.0
C1201 C 0.45693 0.26457 0.18608 0.0
H1202 H 0.55874 0.27594 0.17834 0.0
H1203 H 0.49613 0.31534 0.17937 0.0
S1204 S 0.44004 0.15579 0.19741 0.0
N1205 N 0.48947 0.1592 0.19364 0.0
N1206 N 0.42188 0.20203 0.19429 0.0
C1207 C 0.45651 0.22268 0.19003 0.0
C1208 C 0.4933 0.19946 0.18975 0.0
C1209 C 0.47726 0.77489 0.93474 0.0
C1210 C 0.52009 0.77483 0.93451 0.0
C1211 C 0.45479 0.73852 0.93504 0.0
C1212 C 0.47415 0.70043 0.93468 0.0
H1213 H 0.46085 0.80336 0.9344 0.0
H1214 H 0.42197 0.74033 0.93473 0.0
S1215 S 0.58562 0.68326 0.93465 0.0
N1216 N 0.58087 0.73312 0.93468 0.0
N1217 N 0.53893 0.66505 0.93482 0.0
C1218 C 0.51696 0.69994 0.9349 0.0
C1219 C 0.53981 0.73697 0.93495 0.0
C1220 C 0.01243 0.24721 0.77118 0.0
C1221 C 0.02684 0.26802 0.78811 0.0
C1222 C 0.97539 0.22563 0.77174 0.0
C1223 C 0.95099 0.22511 0.78907 0.0
H1224 H 0.03038 0.24672 0.75763 0.0
H1225 H 0.96574 0.20939 0.75851 0.0
S1226 S 0.97534 0.27597 0.83717 0.0
N1227 N 0.01411 0.287 0.82253 0.0
N1228 N 0.94439 0.24802 0.8235 0.0
C1229 C 0.96497 0.2467 0.80591 0.0
C1230 C 0.00289 0.26772 0.80545 0.0
C1231 C 0.51123 0.28563 0.53693 0.0
C1232 C 0.46871 0.285 0.53429 0.0
C1233 C 0.53443 0.24978 0.53658 0.0
C1234 C 0.51603 0.21164 0.53398 0.0
H1235 H 0.52675 0.31405 0.5397 0.0
H1236 H 0.56678 0.25181 0.53929 0.0
S1237 S 0.40668 0.19293 0.5246 0.0
N1238 N 0.40984 0.24261 0.52742 0.0
N1239 N 0.45331 0.17548 0.52729 0.0
C1240 C 0.47389 0.21057 0.53061 0.0
C1241 C 0.45031 0.24711 0.5306 0.0
C1242 C 0.52639 0.72399 0.28412 0.0
C1243 C 0.52619 0.76673 0.28488 0.0
C1244 C 0.49005 0.70152 0.28409 0.0
C1245 C 0.45202 0.72083 0.28535 0.0
H1246 H 0.55493 0.70768 0.28384 0.0
H1247 H 0.49188 0.66871 0.28394 0.0
S1248 S 0.43456 0.83207 0.28715 0.0
N1249 N 0.48441 0.82745 0.28619 0.0
N1250 N 0.41642 0.78537 0.28669 0.0
C1251 C 0.45136 0.76356 0.28571 0.0
C1252 C 0.4883 0.78644 0.28531 0.0
C1253 C 0.01365 0.77659 0.035 0.0
C1254 C 0.97099 0.77633 0.0329 0.0
C1255 C 0.03651 0.74049 0.03469 0.0
C1256 C 0.01768 0.7024 0.03266 0.0
H1257 H 0.0296 0.80494 0.03731 0.0
H1258 H 0.069 0.74236 0.03698 0.0
S1259 S 0.90762 0.68453 0.02486 0.0
N1260 N 0.91141 0.73427 0.02719 0.0
N1261 N 0.95421 0.66671 0.02709 0.0
C1262 C 0.97533 0.70168 0.02983 0.0
C1263 C 0.95208 0.73848 0.0298 0.0
C1264 C 0.22047 0.25872 0.24993 0.0
C1265 C 0.23059 0.2173 0.2518 0.0
C1266 C 0.2317 0.28116 0.23308 0.0
C1267 C 0.25347 0.26303 0.21745 0.0
H1268 H 0.20361 0.27406 0.26159 0.0
H1269 H 0.22401 0.31309 0.23253 0.0
S1270 S 0.28528 0.15482 0.21445 0.0
N1271 N 0.26228 0.15871 0.23626 0.0
N1272 N 0.28332 0.20055 0.20449 0.0
C1273 C 0.26334 0.22142 0.219 0.0
C1274 C 0.25207 0.19868 0.23623 0.0
C1275 C 0.00968 0.00909 0.46968 0.0
C1276 C 0.96792 -6e-05 0.46836 0.0
C1277 C 0.03227 -0.00054 0.4867 0.0
C1278 C 0.01404 0.98017 0.50305 0.0
H1279 H 0.02522 0.02398 0.45745 0.0
H1280 H 0.06444 0.00627 0.48679 0.0
S1281 S 0.90523 0.95149 0.50768 0.0
N1282 N 0.90899 0.97173 0.48522 0.0
N1283 N 0.9513 0.95351 0.51727 0.0
C1284 C 0.97216 0.97122 0.50207 0.0
C1285 C 0.94919 0.98096 0.48469 0.0
C1286 C 0.26298 0.72668 0.74934 0.0
C1287 C 0.2521 0.76783 0.75164 0.0
C1288 C 0.25135 0.70445 0.73251 0.0
C1289 C 0.22831 0.72246 0.71732 0.0
H1290 H 0.28073 0.71134 0.76067 0.0
H1291 H 0.25974 0.67272 0.73166 0.0
S1292 S 0.19376 0.82991 0.71552 0.0
N1293 N 0.21816 0.82605 0.73695 0.0
N1294 N 0.19624 0.7845 0.70522 0.0
C1295 C 0.2176 0.76379 0.71928 0.0
C1296 C 0.22936 0.78636 0.73648 0.0
C1297 C 0.50056 0.02701 -0.0057 0.0
C1298 C 0.46889 0.00347 0.00254 0.0
C1299 C 0.52371 0.01298 0.97825 0.0
C1300 C 0.5161 0.97489 0.96976 0.0
H1301 H 0.50738 0.05692 9e-05 0.0
H1302 H 0.5474 0.03236 0.97235 0.0
S1303 S 0.43835 0.90022 -0.01336 0.0
N1304 N 0.43224 0.93959 0.00155 0.0
N1305 N 0.47572 0.91271 0.97144 0.0
C1306 C 0.4849 0.95064 0.97808 0.0
C1307 C 0.4613 0.96506 -0.00558 0.0
C1308 C 0.23514 0.70119 0.23792 0.0
C1309 C 0.25266 0.72016 0.25456 0.0
C1310 C 0.22653 0.72321 0.2206 0.0
C1311 C 0.23503 0.76507 0.21925 0.0
H1312 H 0.22898 0.6689 0.23803 0.0
H1313 H 0.21294 0.70719 0.20815 0.0
S1314 S 0.27861 0.82963 0.25917 0.0
N1315 N 0.27675 0.78374 0.26898 0.0
N1316 N 0.26046 0.82494 0.23632 0.0
C1317 C 0.25219 0.78454 0.23583 0.0
C1318 C 0.26085 0.76217 0.25353 0.0
C1319 C 0.5333 0.98817 0.48597 0.0
C1320 C 0.51495 0.01082 0.50123 0.0
C1321 C 0.51158 0.97739 0.46884 0.0
C1322 C 0.4706 0.98873 0.46628 0.0
H1323 H 0.56485 0.97924 0.48708 0.0
H1324 H 0.52711 0.95968 0.45755 0.0
S1325 S 0.40801 0.04726 0.5022 0.0
N1326 N 0.45292 0.04367 0.51293 0.0
N1327 N 0.4124 0.0234 0.48065 0.0
C1328 C 0.45187 0.01148 0.48141 0.0
C1329 C 0.4739 0.02236 0.49891 0.0
C1330 C 0.25978 0.25686 0.72076 0.0
C1331 C 0.24998 0.21543 0.71866 0.0
C1332 C 0.24871 0.27874 0.73776 0.0
C1333 C 0.22719 0.26014 0.75333 0.0
H1334 H 0.27646 0.27267 0.70919 0.0
H1335 H 0.25645 0.31066 0.7385 0.0
S1336 S 0.19541 0.15196 0.75564 0.0
N1337 N 0.2184 0.15637 0.73384 0.0
N1338 N 0.19723 0.19747 0.7659 0.0
C1339 C 0.21717 0.21865 0.7515 0.0
C1340 C 0.22851 0.19634 0.73412 0.0
C1341 C 0.03233 0.98283 0.98111 0.0
C1342 C 0.01352 0.00386 0.96545 0.0
C1343 C 0.01043 0.97164 -0.00189 0.0
C1344 C 0.96885 0.98098 0.00012 0.0
H1345 H 0.06443 0.97584 0.9805 0.0
H1346 H 0.02636 0.95552 0.00982 0.0
S1347 S 0.90465 0.03326 0.96269 0.0
N1348 N 0.9503 0.03205 0.95254 0.0
N1349 N 0.90931 0.01091 0.98461 0.0
C1350 C 0.94949 0.00156 0.98448 0.0
C1351 C 0.97174 0.01286 0.96709 0.0
C1352 C 0.75154 0.70553 0.73351 0.0
C1353 C 0.73416 0.72396 0.75034 0.0
C1354 C 0.76064 0.72832 0.71644 0.0
C1355 C 0.75269 0.77036 0.71555 0.0
H1356 H 0.75726 0.67317 0.73332 0.0
H1357 H 0.77422 0.7128 0.70383 0.0
S1358 S 0.70982 0.83354 0.75625 0.0
N1359 N 0.71099 0.78716 0.76549 0.0
N1360 N 0.72794 0.82969 0.73335 0.0
C1361 C 0.73562 0.78921 0.73236 0.0
C1362 C 0.72657 0.76611 0.74977 0.0
C1363 C 0.75705 0.22424 0.25017 0.0
C1364 C 0.74903 0.26625 0.25128 0.0
C1365 C 0.74841 0.20187 0.23295 0.0
C1366 C 0.73129 0.22061 0.21617 0.0
H1367 H 0.77032 0.20837 0.26274 0.0
H1368 H 0.75422 0.16952 0.23301 0.0
S1369 S 0.70656 0.33018 0.21086 0.0
N1370 N 0.72442 0.32592 0.23378 0.0
N1371 N 0.708 0.28401 0.20133 0.0
C1372 C 0.7235 0.26271 0.21695 0.0
C1373 C 0.73223 0.28546 0.23454 0.0
C1374 C 0.75194 0.28369 0.73358 0.0
C1375 C 0.73389 0.26455 0.71712 0.0
C1376 C 0.76134 0.26176 0.75083 0.0
C1377 C 0.75303 0.21989 0.75228 0.0
H1378 H 0.75774 0.31605 0.73339 0.0
H1379 H 0.77514 0.27787 0.7632 0.0
S1380 S 0.70932 0.15483 0.71257 0.0
N1381 N 0.7103 0.20077 0.70278 0.0
N1382 N 0.72796 0.1597 0.73532 0.0
C1383 C 0.73572 0.20021 0.73578 0.0
C1384 C 0.72631 0.22247 0.71816 0.0
C1385 C 0.72222 0.72435 0.25091 0.0
C1386 C 0.73123 0.7661 0.2524 0.0
C1387 C 0.73368 0.70165 0.23417 0.0
C1388 C 0.75463 0.71985 0.2183 0.0
H1389 H 0.70608 0.70894 0.26279 0.0
H1390 H 0.72688 0.6695 0.2339 0.0
S1391 S 0.7832 0.82876 0.21421 0.0
N1392 N 0.76086 0.82501 0.23619 0.0
N1393 N 0.78236 0.78263 0.20464 0.0
C1394 C 0.76336 0.76175 0.21946 0.0
C1395 C 0.75182 0.78477 0.23655 0.0
C1396 C 0.53351 0.50008 -0.01217 0.0
C1397 C 0.5146 0.48158 0.00422 0.0
C1398 C 0.51162 0.50878 0.97049 0.0
C1399 C 0.46996 0.49942 0.96887 0.0
H1400 H 0.56567 0.50686 -0.01185 0.0
H1401 H 0.52759 0.5231 0.95822 0.0
S1402 S 0.40561 0.45311 0.00812 0.0
N1403 N 0.45128 0.45565 0.01816 0.0
N1404 N 0.41031 0.47214 -0.01455 0.0
C1405 C 0.45053 0.48131 -0.01478 0.0
C1406 C 0.47277 0.47255 0.00294 0.0
C1407 C 0.01032 0.51039 0.50134 0.0
C1408 C 0.96902 0.50009 0.50373 0.0
C1409 C 0.03185 0.49971 0.48411 0.0
C1410 C 0.01296 0.4782 0.46862 0.0
H1411 H 0.02623 0.52719 0.51283 0.0
H1412 H 0.06368 0.50768 0.48314 0.0
S1413 S 0.90496 0.44535 0.46702 0.0
N1414 N 0.90985 0.46805 0.48886 0.0
N1415 N 0.95012 0.44789 0.45644 0.0
C1416 C 0.97159 0.46783 0.47075 0.0
C1417 C 0.94972 0.47864 0.48833 0.0
C1418 C 0.97716 0.50878 -0.00103 0.0
C1419 C 0.01894 0.49973 0.00024 0.0
C1420 C 0.95462 0.49964 0.98186 0.0
C1421 C 0.97292 0.48099 0.96533 0.0
H1422 H 0.9616 0.52327 0.01132 0.0
H1423 H 0.92245 0.5064 0.98181 0.0
S1424 S 0.08189 0.45296 0.96056 0.0
N1425 N 0.07799 0.47238 0.9832 0.0
N1426 N 0.03582 0.45503 0.95094 0.0
C1427 C 0.01483 0.47209 0.96629 0.0
C1428 C 0.03774 0.48132 0.98378 0.0
C1429 C 0.50725 0.47621 0.49967 0.0
C1430 C 0.46615 0.48756 0.50176 0.0
C1431 C 0.52964 0.48638 0.48266 0.0
C1432 C 0.51191 0.50845 0.46705 0.0
H1433 H 0.52243 0.45912 0.51129 0.0
H1434 H 0.5613 0.47762 0.48198 0.0
S1435 S 0.40485 0.54413 0.46465 0.0
N1436 N 0.40837 0.52115 0.48647 0.0
N1437 N 0.45026 0.54042 0.45441 0.0
C1438 C 0.4707 0.51979 0.46883 0.0
C1439 C 0.44792 0.50946 0.48622 0.0
C1440 C 0.29629 0.06681 0.35117 0.0
C1441 C 0.25886 0.05205 0.344 0.0
C1442 C 0.31738 0.04652 0.36668 0.0
C1443 C 0.30162 0.01091 0.37543 0.0
H1444 H 0.30881 0.0946 0.34514 0.0
H1445 H 0.34654 0.05813 0.37147 0.0
S1446 S 0.20497 0.96009 0.36195 0.0
N1447 N 0.20728 -0.00027 0.34695 0.0
N1448 N 0.24655 0.96202 0.37564 0.0
C1449 C 0.26436 -0.00388 0.36829 0.0
C1450 C 0.24311 0.01654 0.35272 0.0
C1451 C 0.19088 0.03617 0.62933 0.0
C1452 C 0.21732 0.0669 0.62299 0.0
C1453 C 0.16931 0.01263 0.6154 0.0
C1454 C 0.1728 0.01916 0.59457 0.0
H1455 H 0.18873 0.02857 0.64503 0.0
H1456 H 0.15075 0.98801 0.62102 0.0
S1457 S 0.23363 0.09995 0.57047 0.0
N1458 N 0.24259 0.10558 0.59458 0.0
N1459 N 0.20169 0.0615 0.56858 0.0
C1460 C 0.19672 0.05181 0.58815 0.0
C1461 C 0.21909 0.07553 0.60231 0.0
C1462 C 0.19679 0.93992 0.88002 0.0
C1463 C 0.16934 0.96939 0.8733 0.0
C1464 C 0.21941 0.91656 0.86639 0.0
C1465 C 0.21512 0.92127 0.84547 0.0
H1466 H 0.20261 0.9365 0.89585 0.0
H1467 H 0.24161 0.89558 0.87234 0.0
S1468 S 0.14278 0.99034 0.8203 0.0
N1469 N 0.13586 -0.00093 0.84435 0.0
N1470 N 0.17814 0.95495 0.81892 0.0
C1471 C 0.18557 0.94848 0.83861 0.0
C1472 C 0.16284 0.97261 0.85247 0.0
C1473 C 0.29856 0.94928 0.13102 0.0
C1474 C 0.27487 0.91645 0.12462 0.0
C1475 C 0.31908 0.9739 0.11714 0.0
C1476 C 0.3171 0.96652 0.09632 0.0
H1477 H 0.29915 0.95759 0.14667 0.0
H1478 H 0.33556 -9e-05 0.12282 0.0
S1479 S 0.26373 0.88052 0.07225 0.0
N1480 N 0.25398 0.87508 0.0963 0.0
N1481 N 0.2928 0.92117 0.07039 0.0
C1482 C 0.29601 0.93193 0.08991 0.0
C1483 C 0.27482 0.90705 0.10401 0.0
C1484 C 0.7253 0.92422 0.6022 0.0
C1485 C 0.71778 0.92647 0.62301 0.0
C1486 C 0.70144 0.94545 0.58826 0.0
C1487 C 0.66936 0.97024 0.59458 0.0
H1488 H 0.75087 0.90694 0.59662 0.0
H1489 H 0.70984 0.94451 0.57262 0.0
S1490 S 0.63359 0.98297 0.64689 0.0
N1491 N 0.67317 0.95247 0.64884 0.0
N1492 N 0.62861 0.99274 0.62283 0.0
C1493 C 0.65985 0.97073 0.61518 0.0
C1494 C 0.68389 0.94874 0.62934 0.0
C1495 C 0.81799 0.96831 0.35406 0.0
C1496 C 0.81314 0.96299 0.37493 0.0
C1497 C 0.7952 0.94593 0.34012 0.0
C1498 C 0.76622 0.91762 0.34648 0.0
H1499 H 0.83859 0.99119 0.34839 0.0
H1500 H 0.79859 0.95265 0.32438 0.0
S1501 S 0.74556 0.8879 0.39912 0.0
N1502 N 0.78014 0.92398 0.40099 0.0
N1503 N 0.73714 0.882 0.37498 0.0
C1504 C 0.76305 0.90996 0.36722 0.0
C1505 C 0.78657 0.93251 0.38139 0.0
C1506 C 0.78978 0.04462 0.08934 0.0
C1507 C 0.82027 0.01806 0.0958 0.0
C1508 C 0.76621 0.0665 0.10317 0.0
C1509 C 0.77239 0.06316 0.12404 0.0
H1510 H 0.78238 0.04666 0.07361 0.0
H1511 H 0.74181 0.08515 0.09742 0.0
S1512 S 0.85262 0.0022 0.14846 0.0
N1513 N 0.85848 0.99296 0.12438 0.0
N1514 N 0.81431 0.03432 0.15018 0.0
C1515 C 0.80484 0.03912 0.13059 0.0
C1516 C 0.82863 0.01649 0.11653 0.0
C1517 C 0.66298 0.0168 0.85465 0.0
C1518 C 0.66816 0.02134 0.87553 0.0
C1519 C 0.68545 0.03981 0.84083 0.0
C1520 C 0.71443 0.06798 0.84733 0.0
H1521 H 0.64244 -0.00602 0.84886 0.0
H1522 H 0.68187 0.03366 0.82503 0.0
S1523 S 0.7359 0.09576 0.90015 0.0
N1524 N 0.70146 0.05949 0.90182 0.0
N1525 N 0.74388 0.10262 0.87604 0.0
C1526 C 0.7179 0.07489 0.86813 0.0
C1527 C 0.6947 0.05171 0.88218 0.0
C1528 C 0.77086 0.57486 0.86454 0.0
C1529 C 0.7755 0.56891 0.84369 0.0
C1530 C 0.79266 0.55184 0.87862 0.0
C1531 C 0.81972 0.52152 0.87244 0.0
H1532 H 0.74873 0.59639 0.8701 0.0
H1533 H 0.78627 0.55603 0.89435 0.0
S1534 S 0.84765 0.49767 0.81986 0.0
N1535 N 0.81283 0.53347 0.81781 0.0
N1536 N 0.85373 0.49007 0.84406 0.0
C1537 C 0.82693 0.51733 0.85169 0.0
C1538 C 0.80496 0.54107 0.83737 0.0
C1539 C 0.69884 0.54675 0.0907 0.0
C1540 C 0.6704 0.51781 0.09697 0.0
C1541 C 0.72146 0.56916 0.1047 0.0
C1542 C 0.71628 0.56396 0.12556 0.0
H1543 H 0.70548 0.55034 0.07495 0.0
H1544 H 0.74444 0.58971 0.09908 0.0
S1545 S 0.64103 0.49627 0.14958 0.0
N1546 N 0.63489 0.48836 0.12542 0.0
N1547 N 0.67729 0.53066 0.15154 0.0
C1548 C 0.68569 0.53744 0.13196 0.0
C1549 C 0.6629 0.5143 0.11772 0.0
C1550 C 0.71608 0.41372 0.3666 0.0
C1551 C 0.71111 0.41893 0.34573 0.0
C1552 C 0.69392 0.4367 0.38056 0.0
C1553 C 0.66617 0.46621 0.37423 0.0
H1554 H 0.73861 0.39275 0.37226 0.0
H1555 H 0.7005 0.43314 0.39631 0.0
S1556 S 0.63731 0.488 0.3216 0.0
N1557 N 0.67283 0.45284 0.3197 0.0
N1558 N 0.63131 0.49619 0.34576 0.0
C1559 C 0.65873 0.46969 0.35348 0.0
C1560 C 0.68106 0.446 0.33929 0.0
C1561 C 0.79707 0.41894 0.61724 0.0
C1562 C 0.7645 0.43564 0.62817 0.0
C1563 C 0.8161 0.44101 0.60168 0.0
C1564 C 0.80297 0.48038 0.59651 0.0
H1565 H 0.80692 0.38821 0.62026 0.0
H1566 H 0.84141 0.4274 0.59383 0.0
S1567 S 0.71773 0.53658 0.6202 0.0
N1568 N 0.7196 0.49318 0.63243 0.0
N1569 N 0.75451 0.53429 0.60351 0.0
C1570 C 0.77032 0.49701 0.60742 0.0
C1571 C 0.75134 0.47478 0.62312 0.0
C1572 C 0.22589 0.41657 0.10364 0.0
C1573 C 0.21825 0.41949 0.12443 0.0
C1574 C 0.20215 0.43733 0.08947 0.0
C1575 C 0.16995 0.46228 0.09549 0.0
H1576 H 0.25147 0.39909 0.09822 0.0
H1577 H 0.21068 0.43582 0.07386 0.0
S1578 S 0.13363 0.47647 0.14765 0.0
N1579 N 0.1733 0.4462 0.14993 0.0
N1580 N 0.12887 0.48549 0.1235 0.0
C1581 C 0.16028 0.4634 0.11608 0.0
C1582 C 0.18426 0.44192 0.13049 0.0
C1583 C 0.32273 0.46511 0.85313 0.0
C1584 C 0.31687 0.46113 0.874 0.0
C1585 C 0.2991 0.44339 0.83926 0.0
C1586 C 0.26819 0.41727 0.8457 0.0
H1587 H 0.34482 0.4865 0.8474 0.0
H1588 H 0.30342 0.44901 0.82346 0.0
S1589 S 0.24368 0.39185 0.89847 0.0
N1590 N 0.28048 0.4257 0.90021 0.0
N1591 N 0.23578 0.38519 0.87433 0.0
C1592 C 0.26376 0.41098 0.86649 0.0
C1593 C 0.28819 0.43272 0.88059 0.0
C1594 C 0.31719 0.5192 0.61666 0.0
C1595 C 0.31169 0.52398 0.59581 0.0
C1596 C 0.29407 0.54115 0.63064 0.0
C1597 C 0.26407 0.56841 0.62434 0.0
H1598 H 0.33857 0.497 0.62229 0.0
H1599 H 0.29801 0.53486 0.6464 0.0
S1600 S 0.24112 0.59636 0.57172 0.0
N1601 N 0.27682 0.5614 0.56979 0.0
N1602 N 0.23312 0.60248 0.59588 0.0
C1603 C 0.26013 0.57555 0.60359 0.0
C1604 C 0.28402 0.55349 0.58938 0.0
C1605 C 0.19702 0.54456 0.38106 0.0
C1606 C 0.16603 0.51861 0.37458 0.0
C1607 C 0.22079 0.56617 0.36723 0.0
C1608 C 0.21425 0.56311 0.34638 0.0
H1609 H 0.20472 0.54618 0.39677 0.0
H1610 H 0.24562 0.58433 0.37295 0.0
S1611 S 0.13266 0.50375 0.32204 0.0
N1612 N 0.127 0.49435 0.34611 0.0
N1613 N 0.17145 0.53529 0.32028 0.0
C1614 C 0.18127 0.53976 0.33986 0.0
C1615 C 0.15731 0.51739 0.35391 0.0
C1616 C 0.12924 0.00752 0.23969 0.0
C1617 C 0.16529 0.02542 0.24671 0.0
C1618 C 0.13008 0.97384 0.22704 0.0
C1619 C 0.167 0.95673 0.22069 0.0
H1620 H 0.09991 0.01917 0.2442 0.0
H1621 H 0.10137 0.96143 0.22206 0.0
S1622 S 0.27018 0.99242 0.23452 0.0
N1623 N 0.23915 0.02375 0.24621 0.0
N1624 N 0.24075 0.96032 0.22234 0.0
C1625 C 0.2034 0.97441 0.22747 0.0
C1626 C 0.20254 0.00873 0.24048 0.0
C1627 C 0.22323 0.94959 0.48815 0.0
C1628 C 0.2144 0.91508 0.49966 0.0
C1629 C 0.2568 0.95022 0.47527 0.0
C1630 C 0.28297 0.91654 0.47367 0.0
H1631 H 0.20354 0.97589 0.48875 0.0
H1632 H 0.26173 0.97703 0.46624 0.0
S1633 S 0.27559 0.82083 0.50289 0.0
N1634 N 0.2361 0.84787 0.51007 0.0
N1635 N 0.29934 0.84901 0.48623 0.0
C1636 C 0.27529 0.88254 0.48588 0.0
C1637 C 0.24095 0.8818 0.49875 0.0
C1638 C 0.35668 0.00919 0.72847 0.0
C1639 C 0.32016 0.02583 0.72134 0.0
C1640 C 0.35674 0.97622 0.74154 0.0
C1641 C 0.32028 0.9586 0.74819 0.0
H1642 H 0.38568 0.02141 0.7238 0.0
H1643 H 0.38578 0.96484 0.74663 0.0
S1644 S 0.21616 0.99074 0.73403 0.0
N1645 N 0.24634 0.02223 0.72192 0.0
N1646 N 0.24646 0.96009 0.74656 0.0
C1647 C 0.28342 0.97488 0.74121 0.0
C1648 C 0.28335 0.00848 0.72778 0.0
C1649 C 0.22515 0.1069 0.97889 0.0
C1650 C 0.20781 0.07053 0.97195 0.0
C1651 C 0.25848 0.1067 -0.00827 0.0
C1652 C 0.27579 0.07013 -0.00161 0.0
H1653 H 0.21331 0.13601 0.97418 0.0
H1654 H 0.27041 0.13567 -0.00337 0.0
S1655 S 0.24164 0.96632 0.98485 0.0
N1656 N 0.21031 -0.00328 0.97278 0.0
N1657 N 0.27306 -0.00365 -0.0029 0.0
C1658 C 0.25871 0.0334 -0.00831 0.0
C1659 C 0.22476 0.0336 0.97844 0.0
C1660 C 0.85496 0.98109 0.72873 0.0
C1661 C 0.81873 0.96374 0.72161 0.0
C1662 C 0.85446 0.01406 0.74185 0.0
C1663 C 0.81772 0.03093 0.74858 0.0
H1664 H 0.88416 0.96946 0.724 0.0
H1665 H 0.88329 0.02604 0.74692 0.0
S1666 S 0.71419 -0.00313 0.73447 0.0
N1667 N 0.74487 0.96598 0.72228 0.0
N1668 N 0.74397 0.02802 0.74704 0.0
C1669 C 0.78115 0.01392 0.74164 0.0
C1670 C 0.78165 0.98038 0.72813 0.0
C1671 C 0.7233 0.03971 0.49037 0.0
C1672 C 0.70914 0.0768 0.49809 0.0
C1673 C 0.75681 0.03828 0.4775 0.0
C1674 C 0.77771 0.07385 0.47207 0.0
H1675 H 0.70824 0.01153 0.49417 0.0
H1676 H 0.76634 0.00904 0.47179 0.0
S1677 S 0.75344 0.17873 0.48884 0.0
N1678 N 0.71911 0.14991 0.49977 0.0
N1679 N 0.78188 0.14739 0.47571 0.0
C1680 C 0.76404 0.11115 0.4799 0.0
C1681 C 0.72979 0.1126 0.49284 0.0
C1682 C 0.69823 0.97923 0.24377 0.0
C1683 C 0.66293 0.95562 0.24642 0.0
C1684 C 0.69878 0.01228 0.23058 0.0
C1685 C 0.66393 0.02323 0.21979 0.0
H1686 H 0.72555 0.97255 0.25213 0.0
H1687 H 0.72641 0.02987 0.22915 0.0
S1688 S 0.56494 0.9694 0.21968 0.0
N1689 N 0.59301 0.9442 0.23585 0.0
N1690 N 0.59416 0.00633 0.21137 0.0
C1691 C 0.62884 -0.00067 0.22184 0.0
C1692 C 0.62832 0.96552 0.23505 0.0
C1693 C 0.7577 0.87728 -0.00682 0.0
C1694 C 0.77795 0.91334 -0.00168 0.0
C1695 C 0.7243 0.87762 0.98036 0.0
C1696 C 0.70984 0.914 0.97197 0.0
H1697 H 0.76735 0.84843 -0.0007 0.0
H1698 H 0.71 0.84887 0.97691 0.0
S1699 S 0.75293 0.01685 0.98033 0.0
N1700 N 0.78167 0.98649 -0.00612 0.0
N1701 N 0.71884 0.98726 0.96965 0.0
C1702 C 0.72993 0.9504 0.97693 0.0
C1703 C 0.76395 0.95003 -0.00988 0.0
C1704 C 0.6998 0.51384 0.73921 0.0
C1705 C 0.66418 0.52714 0.74872 0.0
C1706 C 0.69946 0.47986 0.72662 0.0
C1707 C 0.66356 0.45764 0.72325 0.0
H1708 H 0.72804 0.53014 0.74127 0.0
H1709 H 0.72751 0.47133 0.71931 0.0
S1710 S 0.5628 0.47811 0.74623 0.0
N1711 N 0.59257 0.51421 0.75495 0.0
N1712 N 0.59181 0.4504 0.73151 0.0
C1713 C 0.62795 0.47005 0.73321 0.0
C1714 C 0.62827 0.5048 0.74585 0.0
C1715 C 0.76398 0.45118 0.98108 0.0
C1716 C 0.77404 0.41659 0.96987 0.0
C1717 C 0.73084 0.45083 -0.00574 0.0
C1718 C 0.70629 0.41604 -0.00355 0.0
H1719 H 0.78242 0.47831 0.98003 0.0
H1720 H 0.72493 0.47781 0.00303 0.0
S1721 S 0.71728 0.31939 0.96822 0.0
N1722 N 0.75516 0.34795 0.9604 0.0
N1723 N 0.69278 0.3472 0.98478 0.0
C1724 C 0.71519 0.38187 0.98455 0.0
C1725 C 0.74909 0.38216 0.97138 0.0
C1726 C 0.78655 0.4766 0.24332 0.0
C1727 C 0.82242 0.45603 0.24861 0.0
C1728 C 0.78735 0.50984 0.23028 0.0
C1729 C 0.8241 0.52407 0.22219 0.0
H1730 H 0.75753 0.46704 0.2493 0.0
H1731 H 0.75896 0.52465 0.22664 0.0
S1732 S 0.92658 0.48039 0.23082 0.0
N1733 N 0.89582 0.45211 0.24436 0.0
N1734 N 0.89722 0.51434 0.21997 0.0
C1735 C 0.86018 0.50367 0.22726 0.0
C1736 C 0.85936 0.46971 0.2404 0.0
C1737 C 0.72712 0.60531 0.4789 0.0
C1738 C 0.70991 0.56885 0.47198 0.0
C1739 C 0.76067 0.60532 0.49158 0.0
C1740 C 0.77838 0.56887 0.4981 0.0
H1741 H 0.71496 0.63439 0.47434 0.0
H1742 H 0.77241 0.63435 0.49649 0.0
S1743 S 0.74523 0.46488 0.4844 0.0
N1744 N 0.71328 0.49504 0.47257 0.0
N1745 N 0.77649 0.49512 0.49664 0.0
C1746 C 0.76156 0.53205 0.4914 0.0
C1747 C 0.72736 0.53202 0.47829 0.0
C1748 C 0.28589 0.51035 0.24087 0.0
C1749 C 0.32181 0.52435 0.24984 0.0
C1750 C 0.28629 0.47692 0.2279 0.0
C1751 C 0.32255 0.45595 0.22366 0.0
H1752 H 0.25735 0.52567 0.24364 0.0
H1753 H 0.25796 0.4677 0.22107 0.0
S1754 S 0.42447 0.47894 0.24475 0.0
N1755 N 0.39425 0.51355 0.25448 0.0
N1756 N 0.39516 0.45091 0.23033 0.0
C1757 C 0.35854 0.46916 0.23302 0.0
C1758 C 0.35813 0.50332 0.24602 0.0
C1759 C 0.26223 0.60291 0.97788 0.0
C1760 C 0.27949 0.56636 0.97112 0.0
C1761 C 0.22884 0.60303 -0.00924 0.0
C1762 C 0.21141 0.56661 -0.0024 0.0
H1763 H 0.27424 0.63187 0.97303 0.0
H1764 H 0.21693 0.63208 -0.00445 0.0
S1765 S 0.24529 0.46245 0.9845 0.0
N1766 N 0.27675 0.49257 0.97233 0.0
N1767 N 0.21393 0.4928 -0.00341 0.0
C1768 C 0.2284 0.52974 -0.00897 0.0
C1769 C 0.26239 0.52961 0.9778 0.0
C1770 C 0.12861 0.50692 0.72891 0.0
C1771 C 0.16462 0.52587 0.72258 0.0
C1772 C 0.12947 0.47281 0.74123 0.0
C1773 C 0.16637 0.45626 0.74797 0.0
H1774 H 0.09929 0.51811 0.72411 0.0
H1775 H 0.10071 0.45969 0.74568 0.0
S1776 S 0.26945 0.49464 0.73592 0.0
N1777 N 0.23845 0.5257 0.72404 0.0
N1778 N 0.24004 0.46149 0.74742 0.0
C1779 C 0.20273 0.47494 0.74187 0.0
C1780 C 0.20187 0.50969 0.72913 0.0
C1781 C 0.22501 0.38019 0.47895 0.0
C1782 C 0.20735 0.4162 0.4718 0.0
C1783 C 0.25806 0.38106 0.49196 0.0
C1784 C 0.27477 0.41799 0.49854 0.0
H1785 H 0.21356 0.35084 0.47433 0.0
H1786 H 0.27025 0.35235 0.49705 0.0
S1787 S 0.23983 0.52112 0.48433 0.0
N1788 N 0.20904 0.49009 0.4723 0.0
N1789 N 0.27132 0.49169 0.49686 0.0
C1790 C 0.25745 0.45436 0.49158 0.0
C1791 C 0.22376 0.45348 0.47819 0.0
loop_
_geom_bond_atom_site_label_1
_geom_bond_atom_site_label_2
_geom_bond_distance
_geom_bond_site_symmetry_2
_ccdc_geom_bond_type
O0 Zn1 1.953 . S
O0 C16 1.225 . S
Zn1 O0 1.953 . S
Zn1 O2 1.949 . S
Zn1 O8 1.919 . S
Zn1 O13 1.924 . S
O2 Zn1 1.949 . S
O2 Zn3 1.923 . S
O2 Zn4 1.950 . S
O2 Zn5 1.945 . S
Zn3 O2 1.923 . S
Zn3 O6 1.933 . S
Zn3 O9 1.941 . S
Zn3 O10 1.965 . S
Zn4 O2 1.950 . S
Zn4 O11 1.938 . S
Zn4 O12 1.906 . S
Zn4 O22 1.953 . S
Zn5 O2 1.945 . S
Zn5 O7 1.932 . S
Zn5 O14 1.977 . S
Zn5 O15 1.910 . S
O6 Zn3 1.933 . S
O6 C17 1.226 . S
O7 Zn5 1.932 . S
O7 C17 1.307 . S
O8 Zn1 1.919 . S
O8 C19 1.253 . S
O9 Zn3 1.941 . S
O9 C19 1.283 . S
O10 Zn3 1.965 . S
O10 C18 1.303 . S
O11 Zn4 1.938 . S
O11 C18 1.247 . S
O12 Zn4 1.906 . S
O12 C20 1.304 . S
O13 Zn1 1.924 . S
O13 C21 1.311 . S
O14 Zn5 1.977 . S
O14 C20 1.272 . S
O15 Zn5 1.910 . S
O15 C21 1.231 . S
C16 O0 1.225 . S
C16 O22 1.298 . S
C17 O6 1.226 . S
C17 O7 1.307 . S
C18 O10 1.303 . S
C18 O11 1.247 . S
C19 O8 1.253 . S
C19 O9 1.283 . S
C20 O12 1.304 . S
C20 O14 1.272 . S
C21 O13 1.311 . S
C21 O15 1.231 . S
O22 Zn4 1.953 . S
O22 C16 1.298 . S
O23 Zn24 1.953 . S
O23 C39 1.225 . S
Zn24 O23 1.953 . S
Zn24 O25 1.949 . S
Zn24 O31 1.919 . S
Zn24 O36 1.924 . S
O25 Zn24 1.949 . S
O25 Zn26 1.923 . S
O25 Zn27 1.950 . S
O25 Zn28 1.945 . S
Zn26 O25 1.923 . S
Zn26 O29 1.933 . S
Zn26 O32 1.941 . S
Zn26 O33 1.965 . S
Zn27 O25 1.950 . S
Zn27 O34 1.938 . S
Zn27 O35 1.906 . S
Zn27 O45 1.953 . S
Zn28 O25 1.945 . S
Zn28 O30 1.932 . S
Zn28 O37 1.977 . S
Zn28 O38 1.910 . S
O29 Zn26 1.933 . S
O29 C40 1.226 . S
O30 Zn28 1.932 . S
O30 C40 1.307 . S
O31 Zn24 1.919 . S
O31 C42 1.253 . S
O32 Zn26 1.941 . S
O32 C42 1.283 . S
O33 Zn26 1.965 . S
O33 C41 1.303 . S
O34 Zn27 1.938 . S
O34 C41 1.247 . S
O35 Zn27 1.906 . S
O35 C43 1.304 . S
O36 Zn24 1.924 . S
O36 C44 1.311 . S
O37 Zn28 1.977 . S
O37 C43 1.272 . S
O38 Zn28 1.910 . S
O38 C44 1.231 . S
C39 O23 1.225 . S
C39 O45 1.298 . S
C40 O29 1.226 . S
C40 O30 1.307 . S
C41 O33 1.303 . S
C41 O34 1.247 . S
C42 O31 1.253 . S
C42 O32 1.283 . S
C43 O35 1.304 . S
C43 O37 1.272 . S
C44 O36 1.311 . S
C44 O38 1.231 . S
O45 Zn27 1.953 . S
O45 C39 1.298 . S
O46 Zn47 1.953 . S
O46 C62 1.225 . S
Zn47 O46 1.953 . S
Zn47 O48 1.949 . S
Zn47 O54 1.919 . S
Zn47 O59 1.924 . S
O48 Zn47 1.949 . S
O48 Zn49 1.923 . S
O48 Zn50 1.950 . S
O48 Zn51 1.945 . S
Zn49 O48 1.923 . S
Zn49 O52 1.933 . S
Zn49 O55 1.941 . S
Zn49 O56 1.965 . S
Zn50 O48 1.950 . S
Zn50 O57 1.938 . S
Zn50 O58 1.906 . S
Zn50 O68 1.953 . S
Zn51 O48 1.945 . S
Zn51 O53 1.932 . S
Zn51 O60 1.977 . S
Zn51 O61 1.910 . S
O52 Zn49 1.933 . S
O52 C63 1.226 . S
O53 Zn51 1.932 . S
O53 C63 1.307 . S
O54 Zn47 1.919 . S
O54 C65 1.253 . S
O55 Zn49 1.941 . S
O55 C65 1.283 . S
O56 Zn49 1.965 . S
O56 C64 1.303 . S
O57 Zn50 1.938 . S
O57 C64 1.247 . S
O58 Zn50 1.906 . S
O58 C66 1.304 . S
O59 Zn47 1.924 . S
O59 C67 1.311 . S
O60 Zn51 1.977 . S
O60 C66 1.272 . S
O61 Zn51 1.910 . S
O61 C67 1.231 . S
C62 O46 1.225 . S
C62 O68 1.298 . S
C63 O52 1.226 . S
C63 O53 1.307 . S
C64 O56 1.303 . S
C64 O57 1.247 . S
C65 O54 1.253 . S
C65 O55 1.283 . S
C66 O58 1.304 . S
C66 O60 1.272 . S
C67 O59 1.311 . S
C67 O61 1.231 . S
O68 Zn50 1.953 . S
O68 C62 1.298 . S
O69 Zn70 1.953 . S
O69 C85 1.225 . S
Zn70 O69 1.953 . S
Zn70 O71 1.949 . S
Zn70 O77 1.919 . S
Zn70 O82 1.924 . S
O71 Zn70 1.949 . S
O71 Zn72 1.923 . S
O71 Zn73 1.950 . S
O71 Zn74 1.945 . S
Zn72 O71 1.923 . S
Zn72 O75 1.933 . S
Zn72 O78 1.941 . S
Zn72 O79 1.965 . S
Zn73 O71 1.950 . S
Zn73 O80 1.938 . S
Zn73 O81 1.906 . S
Zn73 O91 1.953 . S
Zn74 O71 1.945 . S
Zn74 O76 1.932 . S
Zn74 O83 1.977 . S
Zn74 O84 1.910 . S
O75 Zn72 1.933 . S
O75 C86 1.226 . S
O76 Zn74 1.932 . S
O76 C86 1.307 . S
O77 Zn70 1.919 . S
O77 C88 1.253 . S
O78 Zn72 1.941 . S
O78 C88 1.283 . S
O79 Zn72 1.965 . S
O79 C87 1.303 . S
O80 Zn73 1.938 . S
O80 C87 1.247 . S
O81 Zn73 1.906 . S
O81 C89 1.304 . S
O82 Zn70 1.924 . S
O82 C90 1.311 . S
O83 Zn74 1.977 . S
O83 C89 1.272 . S
O84 Zn74 1.910 . S
O84 C90 1.231 . S
C85 O69 1.225 . S
C85 O91 1.298 . S
C86 O75 1.226 . S
C86 O76 1.307 . S
C87 O79 1.303 . S
C87 O80 1.247 . S
C88 O77 1.253 . S
C88 O78 1.283 . S
C89 O81 1.304 . S
C89 O83 1.272 . S
C90 O82 1.311 . S
C90 O84 1.231 . S
O91 Zn73 1.953 . S
O91 C85 1.298 . S
O92 Zn93 1.953 . S
O92 C108 1.225 . S
Zn93 O92 1.953 . S
Zn93 O94 1.949 . S
Zn93 O100 1.919 . S
Zn93 O105 1.924 . S
O94 Zn93 1.949 . S
O94 Zn95 1.923 . S
O94 Zn96 1.950 . S
O94 Zn97 1.945 . S
Zn95 O94 1.923 . S
Zn95 O98 1.933 . S
Zn95 O101 1.941 . S
Zn95 O102 1.965 . S
Zn96 O94 1.950 . S
Zn96 O103 1.938 . S
Zn96 O104 1.906 . S
Zn96 O114 1.953 . S
Zn97 O94 1.945 . S
Zn97 O99 1.932 . S
Zn97 O106 1.977 . S
Zn97 O107 1.910 . S
O98 Zn95 1.933 . S
O98 C109 1.226 . S
O99 Zn97 1.932 . S
O99 C109 1.307 . S
O100 Zn93 1.919 . S
O100 C111 1.253 . S
O101 Zn95 1.941 . S
O101 C111 1.283 . S
O102 Zn95 1.965 . S
O102 C110 1.303 . S
O103 Zn96 1.938 . S
O103 C110 1.247 . S
O104 Zn96 1.906 . S
O104 C112 1.304 . S
O105 Zn93 1.924 . S
O105 C113 1.311 . S
O106 Zn97 1.977 . S
O106 C112 1.272 . S
O107 Zn97 1.910 . S
O107 C113 1.231 . S
C108 O92 1.225 . S
C108 O114 1.298 . S
C109 O98 1.226 . S
C109 O99 1.307 . S
C110 O102 1.303 . S
C110 O103 1.247 . S
C111 O100 1.253 . S
C111 O101 1.283 . S
C112 O104 1.304 . S
C112 O106 1.272 . S
C113 O105 1.311 . S
C113 O107 1.231 . S
O114 Zn96 1.953 . S
O114 C108 1.298 . S
O115 Zn116 1.953 . S
O115 C131 1.225 . S
Zn116 O115 1.953 . S
Zn116 O117 1.949 . S
Zn116 O123 1.919 . S
Zn116 O128 1.924 . S
O117 Zn116 1.949 . S
O117 Zn118 1.923 . S
O117 Zn119 1.950 . S
O117 Zn120 1.945 . S
Zn118 O117 1.923 . S
Zn118 O121 1.933 . S
Zn118 O124 1.941 . S
Zn118 O125 1.965 . S
Zn119 O117 1.950 . S
Zn119 O126 1.938 . S
Zn119 O127 1.906 . S
Zn119 O137 1.953 . S
Zn120 O117 1.945 . S
Zn120 O122 1.932 . S
Zn120 O129 1.977 . S
Zn120 O130 1.910 . S
O121 Zn118 1.933 . S
O121 C132 1.226 . S
O122 Zn120 1.932 . S
O122 C132 1.307 . S
O123 Zn116 1.919 . S
O123 C134 1.253 . S
O124 Zn118 1.941 . S
O124 C134 1.283 . S
O125 Zn118 1.965 . S
O125 C133 1.303 . S
O126 Zn119 1.938 . S
O126 C133 1.247 . S
O127 Zn119 1.906 . S
O127 C135 1.304 . S
O128 Zn116 1.924 . S
O128 C136 1.311 . S
O129 Zn120 1.977 . S
O129 C135 1.272 . S
O130 Zn120 1.910 . S
O130 C136 1.231 . S
C131 O115 1.225 . S
C131 O137 1.298 . S
C132 O121 1.226 . S
C132 O122 1.307 . S
C133 O125 1.303 . S
C133 O126 1.247 . S
C134 O123 1.253 . S
C134 O124 1.283 . S
C135 O127 1.304 . S
C135 O129 1.272 . S
C136 O128 1.311 . S
C136 O130 1.231 . S
O137 Zn119 1.953 . S
O137 C131 1.298 . S
O138 Zn139 1.953 . S
O138 C154 1.225 . S
Zn139 O138 1.953 . S
Zn139 O140 1.949 . S
Zn139 O146 1.919 . S
Zn139 O151 1.924 . S
O140 Zn139 1.949 . S
O140 Zn141 1.923 . S
O140 Zn142 1.950 . S
O140 Zn143 1.945 . S
Zn141 O140 1.923 . S
Zn141 O144 1.933 . S
Zn141 O147 1.941 . S
Zn141 O148 1.965 . S
Zn142 O140 1.950 . S
Zn142 O149 1.938 . S
Zn142 O150 1.906 . S
Zn142 O160 1.953 . S
Zn143 O140 1.945 . S
Zn143 O145 1.932 . S
Zn143 O152 1.977 . S
Zn143 O153 1.910 . S
O144 Zn141 1.933 . S
O144 C155 1.226 . S
O145 Zn143 1.932 . S
O145 C155 1.307 . S
O146 Zn139 1.919 . S
O146 C157 1.253 . S
O147 Zn141 1.941 . S
O147 C157 1.283 . S
O148 Zn141 1.965 . S
O148 C156 1.303 . S
O149 Zn142 1.938 . S
O149 C156 1.247 . S
O150 Zn142 1.906 . S
O150 C158 1.304 . S
O151 Zn139 1.924 . S
O151 C159 1.311 . S
O152 Zn143 1.977 . S
O152 C158 1.272 . S
O153 Zn143 1.910 . S
O153 C159 1.231 . S
C154 O138 1.225 . S
C154 O160 1.298 . S
C155 O144 1.226 . S
C155 O145 1.307 . S
C156 O148 1.303 . S
C156 O149 1.247 . S
C157 O146 1.253 . S
C157 O147 1.283 . S
C158 O150 1.304 . S
C158 O152 1.272 . S
C159 O151 1.311 . S
C159 O153 1.231 . S
O160 Zn142 1.953 . S
O160 C154 1.298 . S
O161 Zn162 1.953 . S
O161 C177 1.225 . S
Zn162 O161 1.953 . S
Zn162 O163 1.949 . S
Zn162 O169 1.919 . S
Zn162 O174 1.924 . S
O163 Zn162 1.949 . S
O163 Zn164 1.923 . S
O163 Zn165 1.950 . S
O163 Zn166 1.945 . S
Zn164 O163 1.923 . S
Zn164 O167 1.933 . S
Zn164 O170 1.941 . S
Zn164 O171 1.965 . S
Zn165 O163 1.950 . S
Zn165 O172 1.938 . S
Zn165 O173 1.906 . S
Zn165 O183 1.953 . S
Zn166 O163 1.945 . S
Zn166 O168 1.932 . S
Zn166 O175 1.977 . S
Zn166 O176 1.910 . S
O167 Zn164 1.933 . S
O167 C178 1.226 . S
O168 Zn166 1.932 . S
O168 C178 1.307 . S
O169 Zn162 1.919 . S
O169 C180 1.253 . S
O170 Zn164 1.941 . S
O170 C180 1.283 . S
O171 Zn164 1.965 . S
O171 C179 1.303 . S
O172 Zn165 1.938 . S
O172 C179 1.247 . S
O173 Zn165 1.906 . S
O173 C181 1.304 . S
O174 Zn162 1.924 . S
O174 C182 1.311 . S
O175 Zn166 1.977 . S
O175 C181 1.272 . S
O176 Zn166 1.910 . S
O176 C182 1.231 . S
C177 O161 1.225 . S
C177 O183 1.298 . S
C178 O167 1.226 . S
C178 O168 1.307 . S
C179 O171 1.303 . S
C179 O172 1.247 . S
C180 O169 1.253 . S
C180 O170 1.283 . S
C181 O173 1.304 . S
C181 O175 1.272 . S
C182 O174 1.311 . S
C182 O176 1.231 . S
O183 Zn165 1.953 . S
O183 C177 1.298 . S
O184 Zn185 1.953 . S
O184 C200 1.225 . S
Zn185 O184 1.953 . S
Zn185 O186 1.949 . S
Zn185 O192 1.919 . S
Zn185 O197 1.924 . S
O186 Zn185 1.949 . S
O186 Zn187 1.923 . S
O186 Zn188 1.950 . S
O186 Zn189 1.945 . S
Zn187 O186 1.923 . S
Zn187 O190 1.933 . S
Zn187 O193 1.941 . S
Zn187 O194 1.965 . S
Zn188 O186 1.950 . S
Zn188 O195 1.938 . S
Zn188 O196 1.906 . S
Zn188 O206 1.953 . S
Zn189 O186 1.945 . S
Zn189 O191 1.932 . S
Zn189 O198 1.977 . S
Zn189 O199 1.910 . S
O190 Zn187 1.933 . S
O190 C201 1.226 . S
O191 Zn189 1.932 . S
O191 C201 1.307 . S
O192 Zn185 1.919 . S
O192 C203 1.253 . S
O193 Zn187 1.941 . S
O193 C203 1.283 . S
O194 Zn187 1.965 . S
O194 C202 1.303 . S
O195 Zn188 1.938 . S
O195 C202 1.247 . S
O196 Zn188 1.906 . S
O196 C204 1.304 . S
O197 Zn185 1.924 . S
O197 C205 1.311 . S
O198 Zn189 1.977 . S
O198 C204 1.272 . S
O199 Zn189 1.910 . S
O199 C205 1.231 . S
C200 O184 1.225 . S
C200 O206 1.298 . S
C201 O190 1.226 . S
C201 O191 1.307 . S
C202 O194 1.303 . S
C202 O195 1.247 . S
C203 O192 1.253 . S
C203 O193 1.283 . S
C204 O196 1.304 . S
C204 O198 1.272 . S
C205 O197 1.311 . S
C205 O199 1.231 . S
O206 Zn188 1.953 . S
O206 C200 1.298 . S
O207 Zn208 1.953 . S
O207 C223 1.225 . S
Zn208 O207 1.953 . S
Zn208 O209 1.949 . S
Zn208 O215 1.919 . S
Zn208 O220 1.924 . S
O209 Zn208 1.949 . S
O209 Zn210 1.923 . S
O209 Zn211 1.950 . S
O209 Zn212 1.945 . S
Zn210 O209 1.923 . S
Zn210 O213 1.933 . S
Zn210 O216 1.941 . S
Zn210 O217 1.965 . S
Zn211 O209 1.950 . S
Zn211 O218 1.938 . S
Zn211 O219 1.906 . S
Zn211 O229 1.953 . S
Zn212 O209 1.945 . S
Zn212 O214 1.932 . S
Zn212 O221 1.977 . S
Zn212 O222 1.910 . S
O213 Zn210 1.933 . S
O213 C224 1.226 . S
O214 Zn212 1.932 . S
O214 C224 1.307 . S
O215 Zn208 1.919 . S
O215 C226 1.253 . S
O216 Zn210 1.941 . S
O216 C226 1.283 . S
O217 Zn210 1.965 . S
O217 C225 1.303 . S
O218 Zn211 1.938 . S
O218 C225 1.247 . S
O219 Zn211 1.906 . S
O219 C227 1.304 . S
O220 Zn208 1.924 . S
O220 C228 1.311 . S
O221 Zn212 1.977 . S
O221 C227 1.272 . S
O222 Zn212 1.910 . S
O222 C228 1.231 . S
C223 O207 1.225 . S
C223 O229 1.298 . S
C224 O213 1.226 . S
C224 O214 1.307 . S
C225 O217 1.303 . S
C225 O218 1.247 . S
C226 O215 1.253 . S
C226 O216 1.283 . S
C227 O219 1.304 . S
C227 O221 1.272 . S
C228 O220 1.311 . S
C228 O222 1.231 . S
O229 Zn211 1.953 . S
O229 C223 1.298 . S
O230 Zn231 1.953 . S
O230 C246 1.225 . S
Zn231 O230 1.953 . S
Zn231 O232 1.949 . S
Zn231 O238 1.919 . S
Zn231 O243 1.924 . S
O232 Zn231 1.949 . S
O232 Zn233 1.923 . S
O232 Zn234 1.950 . S
O232 Zn235 1.945 . S
Zn233 O232 1.923 . S
Zn233 O236 1.933 . S
Zn233 O239 1.941 . S
Zn233 O240 1.965 . S
Zn234 O232 1.950 . S
Zn234 O241 1.938 . S
Zn234 O242 1.906 . S
Zn234 O252 1.953 . S
Zn235 O232 1.945 . S
Zn235 O237 1.932 . S
Zn235 O244 1.977 . S
Zn235 O245 1.910 . S
O236 Zn233 1.933 . S
O236 C247 1.226 . S
O237 Zn235 1.932 . S
O237 C247 1.307 . S
O238 Zn231 1.919 . S
O238 C249 1.253 . S
O239 Zn233 1.941 . S
O239 C249 1.283 . S
O240 Zn233 1.965 . S
O240 C248 1.303 . S
O241 Zn234 1.938 . S
O241 C248 1.247 . S
O242 Zn234 1.906 . S
O242 C250 1.304 . S
O243 Zn231 1.924 . S
O243 C251 1.311 . S
O244 Zn235 1.977 . S
O244 C250 1.272 . S
O245 Zn235 1.910 . S
O245 C251 1.231 . S
C246 O230 1.225 . S
C246 O252 1.298 . S
C247 O236 1.226 . S
C247 O237 1.307 . S
C248 O240 1.303 . S
C248 O241 1.247 . S
C249 O238 1.253 . S
C249 O239 1.283 . S
C250 O242 1.304 . S
C250 O244 1.272 . S
C251 O243 1.311 . S
C251 O245 1.231 . S
O252 Zn234 1.953 . S
O252 C246 1.298 . S
O253 Zn254 1.953 . S
O253 C269 1.225 . S
Zn254 O253 1.953 . S
Zn254 O255 1.949 . S
Zn254 O261 1.919 . S
Zn254 O266 1.924 . S
O255 Zn254 1.949 . S
O255 Zn256 1.923 . S
O255 Zn257 1.950 . S
O255 Zn258 1.945 . S
Zn256 O255 1.923 . S
Zn256 O259 1.933 . S
Zn256 O262 1.941 . S
Zn256 O263 1.965 . S
Zn257 O255 1.950 . S
Zn257 O264 1.938 . S
Zn257 O265 1.906 . S
Zn257 O275 1.953 . S
Zn258 O255 1.945 . S
Zn258 O260 1.932 . S
Zn258 O267 1.977 . S
Zn258 O268 1.910 . S
O259 Zn256 1.933 . S
O259 C270 1.226 . S
O260 Zn258 1.932 . S
O260 C270 1.307 . S
O261 Zn254 1.919 . S
O261 C272 1.253 . S
O262 Zn256 1.941 . S
O262 C272 1.283 . S
O263 Zn256 1.965 . S
O263 C271 1.303 . S
O264 Zn257 1.938 . S
O264 C271 1.247 . S
O265 Zn257 1.906 . S
O265 C273 1.304 . S
O266 Zn254 1.924 . S
O266 C274 1.311 . S
O267 Zn258 1.977 . S
O267 C273 1.272 . S
O268 Zn258 1.910 . S
O268 C274 1.231 . S
C269 O253 1.225 . S
C269 O275 1.298 . S
C270 O259 1.226 . S
C270 O260 1.307 . S
C271 O263 1.303 . S
C271 O264 1.247 . S
C272 O261 1.253 . S
C272 O262 1.283 . S
C273 O265 1.304 . S
C273 O267 1.272 . S
C274 O266 1.311 . S
C274 O268 1.231 . S
O275 Zn257 1.953 . S
O275 C269 1.298 . S
O276 Zn277 1.953 . S
O276 C292 1.225 . S
Zn277 O276 1.953 . S
Zn277 O278 1.949 . S
Zn277 O284 1.919 . S
Zn277 O289 1.924 . S
O278 Zn277 1.949 . S
O278 Zn279 1.923 . S
O278 Zn280 1.950 . S
O278 Zn281 1.945 . S
Zn279 O278 1.923 . S
Zn279 O282 1.933 . S
Zn279 O285 1.941 . S
Zn279 O286 1.965 . S
Zn280 O278 1.950 . S
Zn280 O287 1.938 . S
Zn280 O288 1.906 . S
Zn280 O298 1.953 . S
Zn281 O278 1.945 . S
Zn281 O283 1.932 . S
Zn281 O290 1.977 . S
Zn281 O291 1.910 . S
O282 Zn279 1.933 . S
O282 C293 1.226 . S
O283 Zn281 1.932 . S
O283 C293 1.307 . S
O284 Zn277 1.919 . S
O284 C295 1.253 . S
O285 Zn279 1.941 . S
O285 C295 1.283 . S
O286 Zn279 1.965 . S
O286 C294 1.303 . S
O287 Zn280 1.938 . S
O287 C294 1.247 . S
O288 Zn280 1.906 . S
O288 C296 1.304 . S
O289 Zn277 1.924 . S
O289 C297 1.311 . S
O290 Zn281 1.977 . S
O290 C296 1.272 . S
O291 Zn281 1.910 . S
O291 C297 1.231 . S
C292 O276 1.225 . S
C292 O298 1.298 . S
C293 O282 1.226 . S
C293 O283 1.307 . S
C294 O286 1.303 . S
C294 O287 1.247 . S
C295 O284 1.253 . S
C295 O285 1.283 . S
C296 O288 1.304 . S
C296 O290 1.272 . S
C297 O289 1.311 . S
C297 O291 1.231 . S
O298 Zn280 1.953 . S
O298 C292 1.298 . S
O299 Zn300 1.953 . S
O299 C315 1.225 . S
Zn300 O299 1.953 . S
Zn300 O301 1.949 . S
Zn300 O307 1.919 . S
Zn300 O312 1.924 . S
O301 Zn300 1.949 . S
O301 Zn302 1.923 . S
O301 Zn303 1.950 . S
O301 Zn304 1.945 . S
Zn302 O301 1.923 . S
Zn302 O305 1.933 . S
Zn302 O308 1.941 . S
Zn302 O309 1.965 . S
Zn303 O301 1.950 . S
Zn303 O310 1.938 . S
Zn303 O311 1.906 . S
Zn303 O321 1.953 . S
Zn304 O301 1.945 . S
Zn304 O306 1.932 . S
Zn304 O313 1.977 . S
Zn304 O314 1.910 . S
O305 Zn302 1.933 . S
O305 C316 1.226 . S
O306 Zn304 1.932 . S
O306 C316 1.307 . S
O307 Zn300 1.919 . S
O307 C318 1.253 . S
O308 Zn302 1.941 . S
O308 C318 1.283 . S
O309 Zn302 1.965 . S
O309 C317 1.303 . S
O310 Zn303 1.938 . S
O310 C317 1.247 . S
O311 Zn303 1.906 . S
O311 C319 1.304 . S
O312 Zn300 1.924 . S
O312 C320 1.311 . S
O313 Zn304 1.977 . S
O313 C319 1.272 . S
O314 Zn304 1.910 . S
O314 C320 1.231 . S
C315 O299 1.225 . S
C315 O321 1.298 . S
C316 O305 1.226 . S
C316 O306 1.307 . S
C317 O309 1.303 . S
C317 O310 1.247 . S
C318 O307 1.253 . S
C318 O308 1.283 . S
C319 O311 1.304 . S
C319 O313 1.272 . S
C320 O312 1.311 . S
C320 O314 1.231 . S
O321 Zn303 1.953 . S
O321 C315 1.298 . S
O322 Zn323 1.953 . S
O322 C338 1.225 . S
Zn323 O322 1.953 . S
Zn323 O324 1.949 . S
Zn323 O330 1.919 . S
Zn323 O335 1.924 . S
O324 Zn323 1.949 . S
O324 Zn325 1.923 . S
O324 Zn326 1.950 . S
O324 Zn327 1.945 . S
Zn325 O324 1.923 . S
Zn325 O328 1.933 . S
Zn325 O331 1.941 . S
Zn325 O332 1.965 . S
Zn326 O324 1.950 . S
Zn326 O333 1.938 . S
Zn326 O334 1.906 . S
Zn326 O344 1.953 . S
Zn327 O324 1.945 . S
Zn327 O329 1.932 . S
Zn327 O336 1.977 . S
Zn327 O337 1.910 . S
O328 Zn325 1.933 . S
O328 C339 1.226 . S
O329 Zn327 1.932 . S
O329 C339 1.307 . S
O330 Zn323 1.919 . S
O330 C341 1.253 . S
O331 Zn325 1.941 . S
O331 C341 1.283 . S
O332 Zn325 1.965 . S
O332 C340 1.303 . S
O333 Zn326 1.938 . S
O333 C340 1.247 . S
O334 Zn326 1.906 . S
O334 C342 1.304 . S
O335 Zn323 1.924 . S
O335 C343 1.311 . S
O336 Zn327 1.977 . S
O336 C342 1.272 . S
O337 Zn327 1.910 . S
O337 C343 1.231 . S
C338 O322 1.225 . S
C338 O344 1.298 . S
C339 O328 1.226 . S
C339 O329 1.307 . S
C340 O332 1.303 . S
C340 O333 1.247 . S
C341 O330 1.253 . S
C341 O331 1.283 . S
C342 O334 1.304 . S
C342 O336 1.272 . S
C343 O335 1.311 . S
C343 O337 1.231 . S
O344 Zn326 1.953 . S
O344 C338 1.298 . S
O345 Zn346 1.953 . S
O345 C361 1.225 . S
Zn346 O345 1.953 . S
Zn346 O347 1.949 . S
Zn346 O353 1.919 . S
Zn346 O358 1.924 . S
O347 Zn346 1.949 . S
O347 Zn348 1.923 . S
O347 Zn349 1.950 . S
O347 Zn350 1.945 . S
Zn348 O347 1.923 . S
Zn348 O351 1.933 . S
Zn348 O354 1.941 . S
Zn348 O355 1.965 . S
Zn349 O347 1.950 . S
Zn349 O356 1.938 . S
Zn349 O357 1.906 . S
Zn349 O367 1.953 . S
Zn350 O347 1.945 . S
Zn350 O352 1.932 . S
Zn350 O359 1.977 . S
Zn350 O360 1.910 . S
O351 Zn348 1.933 . S
O351 C362 1.226 . S
O352 Zn350 1.932 . S
O352 C362 1.307 . S
O353 Zn346 1.919 . S
O353 C364 1.253 . S
O354 Zn348 1.941 . S
O354 C364 1.283 . S
O355 Zn348 1.965 . S
O355 C363 1.303 . S
O356 Zn349 1.938 . S
O356 C363 1.247 . S
O357 Zn349 1.906 . S
O357 C365 1.304 . S
O358 Zn346 1.924 . S
O358 C366 1.311 . S
O359 Zn350 1.977 . S
O359 C365 1.272 . S
O360 Zn350 1.910 . S
O360 C366 1.231 . S
C361 O345 1.225 . S
C361 O367 1.298 . S
C362 O351 1.226 . S
C362 O352 1.307 . S
C363 O355 1.303 . S
C363 O356 1.247 . S
C364 O353 1.253 . S
C364 O354 1.283 . S
C365 O357 1.304 . S
C365 O359 1.272 . S
C366 O358 1.311 . S
C366 O360 1.231 . S
O367 Zn349 1.953 . S
O367 C361 1.298 . S
O368 Zn369 1.953 . S
O368 C384 1.225 . S
Zn369 O368 1.953 . S
Zn369 O370 1.949 . S
Zn369 O376 1.919 . S
Zn369 O381 1.924 . S
O370 Zn369 1.949 . S
O370 Zn371 1.923 . S
O370 Zn372 1.950 . S
O370 Zn373 1.945 . S
Zn371 O370 1.923 . S
Zn371 O374 1.933 . S
Zn371 O377 1.941 . S
Zn371 O378 1.965 . S
Zn372 O370 1.950 . S
Zn372 O379 1.938 . S
Zn372 O380 1.906 . S
Zn372 O390 1.953 . S
Zn373 O370 1.945 . S
Zn373 O375 1.932 . S
Zn373 O382 1.977 . S
Zn373 O383 1.910 . S
O374 Zn371 1.933 . S
O374 C385 1.226 . S
O375 Zn373 1.932 . S
O375 C385 1.307 . S
O376 Zn369 1.919 . S
O376 C387 1.253 . S
O377 Zn371 1.941 . S
O377 C387 1.283 . S
O378 Zn371 1.965 . S
O378 C386 1.303 . S
O379 Zn372 1.938 . S
O379 C386 1.247 . S
O380 Zn372 1.906 . S
O380 C388 1.304 . S
O381 Zn369 1.924 . S
O381 C389 1.311 . S
O382 Zn373 1.977 . S
O382 C388 1.272 . S
O383 Zn373 1.910 . S
O383 C389 1.231 . S
C384 O368 1.225 . S
C384 O390 1.298 . S
C385 O374 1.226 . S
C385 O375 1.307 . S
C386 O378 1.303 . S
C386 O379 1.247 . S
C387 O376 1.253 . S
C387 O377 1.283 . S
C388 O380 1.304 . S
C388 O382 1.272 . S
C389 O381 1.311 . S
C389 O383 1.231 . S
O390 Zn372 1.953 . S
O390 C384 1.298 . S
O391 Zn392 1.953 . S
O391 C407 1.225 . S
Zn392 O391 1.953 . S
Zn392 O393 1.949 . S
Zn392 O399 1.919 . S
Zn392 O404 1.924 . S
O393 Zn392 1.949 . S
O393 Zn394 1.923 . S
O393 Zn395 1.950 . S
O393 Zn396 1.945 . S
Zn394 O393 1.923 . S
Zn394 O397 1.933 . S
Zn394 O400 1.941 . S
Zn394 O401 1.965 . S
Zn395 O393 1.950 . S
Zn395 O402 1.938 . S
Zn395 O403 1.906 . S
Zn395 O413 1.953 . S
Zn396 O393 1.945 . S
Zn396 O398 1.932 . S
Zn396 O405 1.977 . S
Zn396 O406 1.910 . S
O397 Zn394 1.933 . S
O397 C408 1.226 . S
O398 Zn396 1.932 . S
O398 C408 1.307 . S
O399 Zn392 1.919 . S
O399 C410 1.253 . S
O400 Zn394 1.941 . S
O400 C410 1.283 . S
O401 Zn394 1.965 . S
O401 C409 1.303 . S
O402 Zn395 1.938 . S
O402 C409 1.247 . S
O403 Zn395 1.906 . S
O403 C411 1.304 . S
O404 Zn392 1.924 . S
O404 C412 1.311 . S
O405 Zn396 1.977 . S
O405 C411 1.272 . S
O406 Zn396 1.910 . S
O406 C412 1.231 . S
C407 O391 1.225 . S
C407 O413 1.298 . S
C408 O397 1.226 . S
C408 O398 1.307 . S
C409 O401 1.303 . S
C409 O402 1.247 . S
C410 O399 1.253 . S
C410 O400 1.283 . S
C411 O403 1.304 . S
C411 O405 1.272 . S
C412 O404 1.311 . S
C412 O406 1.231 . S
O413 Zn395 1.953 . S
O413 C407 1.298 . S
O414 Zn415 1.953 . S
O414 C430 1.225 . S
Zn415 O414 1.953 . S
Zn415 O416 1.949 . S
Zn415 O422 1.919 . S
Zn415 O427 1.924 . S
O416 Zn415 1.949 . S
O416 Zn417 1.923 . S
O416 Zn418 1.950 . S
O416 Zn419 1.945 . S
Zn417 O416 1.923 . S
Zn417 O420 1.933 . S
Zn417 O423 1.941 . S
Zn417 O424 1.965 . S
Zn418 O416 1.950 . S
Zn418 O425 1.938 . S
Zn418 O426 1.906 . S
Zn418 O436 1.953 . S
Zn419 O416 1.945 . S
Zn419 O421 1.932 . S
Zn419 O428 1.977 . S
Zn419 O429 1.910 . S
O420 Zn417 1.933 . S
O420 C431 1.226 . S
O421 Zn419 1.932 . S
O421 C431 1.307 . S
O422 Zn415 1.919 . S
O422 C433 1.253 . S
O423 Zn417 1.941 . S
O423 C433 1.283 . S
O424 Zn417 1.965 . S
O424 C432 1.303 . S
O425 Zn418 1.938 . S
O425 C432 1.247 . S
O426 Zn418 1.906 . S
O426 C434 1.304 . S
O427 Zn415 1.924 . S
O427 C435 1.311 . S
O428 Zn419 1.977 . S
O428 C434 1.272 . S
O429 Zn419 1.910 . S
O429 C435 1.231 . S
C430 O414 1.225 . S
C430 O436 1.298 . S
C431 O420 1.226 . S
C431 O421 1.307 . S
C432 O424 1.303 . S
C432 O425 1.247 . S
C433 O422 1.253 . S
C433 O423 1.283 . S
C434 O426 1.304 . S
C434 O428 1.272 . S
C435 O427 1.311 . S
C435 O429 1.231 . S
O436 Zn418 1.953 . S
O436 C430 1.298 . S
O437 Zn438 1.953 . S
O437 C453 1.225 . S
Zn438 O437 1.953 . S
Zn438 O439 1.949 . S
Zn438 O445 1.919 . S
Zn438 O450 1.924 . S
O439 Zn438 1.949 . S
O439 Zn440 1.923 . S
O439 Zn441 1.950 . S
O439 Zn442 1.945 . S
Zn440 O439 1.923 . S
Zn440 O443 1.933 . S
Zn440 O446 1.941 . S
Zn440 O447 1.965 . S
Zn441 O439 1.950 . S
Zn441 O448 1.938 . S
Zn441 O449 1.906 . S
Zn441 O459 1.953 . S
Zn442 O439 1.945 . S
Zn442 O444 1.932 . S
Zn442 O451 1.977 . S
Zn442 O452 1.910 . S
O443 Zn440 1.933 . S
O443 C454 1.226 . S
O444 Zn442 1.932 . S
O444 C454 1.307 . S
O445 Zn438 1.919 . S
O445 C456 1.253 . S
O446 Zn440 1.941 . S
O446 C456 1.283 . S
O447 Zn440 1.965 . S
O447 C455 1.303 . S
O448 Zn441 1.938 . S
O448 C455 1.247 . S
O449 Zn441 1.906 . S
O449 C457 1.304 . S
O450 Zn438 1.924 . S
O450 C458 1.311 . S
O451 Zn442 1.977 . S
O451 C457 1.272 . S
O452 Zn442 1.910 . S
O452 C458 1.231 . S
C453 O437 1.225 . S
C453 O459 1.298 . S
C454 O443 1.226 . S
C454 O444 1.307 . S
C455 O447 1.303 . S
C455 O448 1.247 . S
C456 O445 1.253 . S
C456 O446 1.283 . S
C457 O449 1.304 . S
C457 O451 1.272 . S
C458 O450 1.311 . S
C458 O452 1.231 . S
O459 Zn441 1.953 . S
O459 C453 1.298 . S
O460 Zn461 1.953 . S
O460 C476 1.225 . S
Zn461 O460 1.953 . S
Zn461 O462 1.949 . S
Zn461 O468 1.919 . S
Zn461 O473 1.924 . S
O462 Zn461 1.949 . S
O462 Zn463 1.923 . S
O462 Zn464 1.950 . S
O462 Zn465 1.945 . S
Zn463 O462 1.923 . S
Zn463 O466 1.933 . S
Zn463 O469 1.941 . S
Zn463 O470 1.965 . S
Zn464 O462 1.950 . S
Zn464 O471 1.938 . S
Zn464 O472 1.906 . S
Zn464 O482 1.953 . S
Zn465 O462 1.945 . S
Zn465 O467 1.932 . S
Zn465 O474 1.977 . S
Zn465 O475 1.910 . S
O466 Zn463 1.933 . S
O466 C477 1.226 . S
O467 Zn465 1.932 . S
O467 C477 1.307 . S
O468 Zn461 1.919 . S
O468 C479 1.253 . S
O469 Zn463 1.941 . S
O469 C479 1.283 . S
O470 Zn463 1.965 . S
O470 C478 1.303 . S
O471 Zn464 1.938 . S
O471 C478 1.247 . S
O472 Zn464 1.906 . S
O472 C480 1.304 . S
O473 Zn461 1.924 . S
O473 C481 1.311 . S
O474 Zn465 1.977 . S
O474 C480 1.272 . S
O475 Zn465 1.910 . S
O475 C481 1.231 . S
C476 O460 1.225 . S
C476 O482 1.298 . S
C477 O466 1.226 . S
C477 O467 1.307 . S
C478 O470 1.303 . S
C478 O471 1.247 . S
C479 O468 1.253 . S
C479 O469 1.283 . S
C480 O472 1.304 . S
C480 O474 1.272 . S
C481 O473 1.311 . S
C481 O475 1.231 . S
O482 Zn464 1.953 . S
O482 C476 1.298 . S
O483 Zn484 1.953 . S
O483 C499 1.225 . S
Zn484 O483 1.953 . S
Zn484 O485 1.949 . S
Zn484 O491 1.919 . S
Zn484 O496 1.924 . S
O485 Zn484 1.949 . S
O485 Zn486 1.923 . S
O485 Zn487 1.950 . S
O485 Zn488 1.945 . S
Zn486 O485 1.923 . S
Zn486 O489 1.933 . S
Zn486 O492 1.941 . S
Zn486 O493 1.965 . S
Zn487 O485 1.950 . S
Zn487 O494 1.938 . S
Zn487 O495 1.906 . S
Zn487 O505 1.953 . S
Zn488 O485 1.945 . S
Zn488 O490 1.932 . S
Zn488 O497 1.977 . S
Zn488 O498 1.910 . S
O489 Zn486 1.933 . S
O489 C500 1.226 . S
O490 Zn488 1.932 . S
O490 C500 1.307 . S
O491 Zn484 1.919 . S
O491 C502 1.253 . S
O492 Zn486 1.941 . S
O492 C502 1.283 . S
O493 Zn486 1.965 . S
O493 C501 1.303 . S
O494 Zn487 1.938 . S
O494 C501 1.247 . S
O495 Zn487 1.906 . S
O495 C503 1.304 . S
O496 Zn484 1.924 . S
O496 C504 1.311 . S
O497 Zn488 1.977 . S
O497 C503 1.272 . S
O498 Zn488 1.910 . S
O498 C504 1.231 . S
C499 O483 1.225 . S
C499 O505 1.298 . S
C500 O489 1.226 . S
C500 O490 1.307 . S
C501 O493 1.303 . S
C501 O494 1.247 . S
C502 O491 1.253 . S
C502 O492 1.283 . S
C503 O495 1.304 . S
C503 O497 1.272 . S
C504 O496 1.311 . S
C504 O498 1.231 . S
O505 Zn487 1.953 . S
O505 C499 1.298 . S
O506 Zn507 1.953 . S
O506 C522 1.225 . S
Zn507 O506 1.953 . S
Zn507 O508 1.949 . S
Zn507 O514 1.919 . S
Zn507 O519 1.924 . S
O508 Zn507 1.949 . S
O508 Zn509 1.923 . S
O508 Zn510 1.950 . S
O508 Zn511 1.945 . S
Zn509 O508 1.923 . S
Zn509 O512 1.933 . S
Zn509 O515 1.941 . S
Zn509 O516 1.965 . S
Zn510 O508 1.950 . S
Zn510 O517 1.938 . S
Zn510 O518 1.906 . S
Zn510 O528 1.953 . S
Zn511 O508 1.945 . S
Zn511 O513 1.932 . S
Zn511 O520 1.977 . S
Zn511 O521 1.910 . S
O512 Zn509 1.933 . S
O512 C523 1.226 . S
O513 Zn511 1.932 . S
O513 C523 1.307 . S
O514 Zn507 1.919 . S
O514 C525 1.253 . S
O515 Zn509 1.941 . S
O515 C525 1.283 . S
O516 Zn509 1.965 . S
O516 C524 1.303 . S
O517 Zn510 1.938 . S
O517 C524 1.247 . S
O518 Zn510 1.906 . S
O518 C526 1.304 . S
O519 Zn507 1.924 . S
O519 C527 1.311 . S
O520 Zn511 1.977 . S
O520 C526 1.272 . S
O521 Zn511 1.910 . S
O521 C527 1.231 . S
C522 O506 1.225 . S
C522 O528 1.298 . S
C523 O512 1.226 . S
C523 O513 1.307 . S
C524 O516 1.303 . S
C524 O517 1.247 . S
C525 O514 1.253 . S
C525 O515 1.283 . S
C526 O518 1.304 . S
C526 O520 1.272 . S
C527 O519 1.311 . S
C527 O521 1.231 . S
O528 Zn510 1.953 . S
O528 C522 1.298 . S
O529 Zn530 1.953 . S
O529 C545 1.225 . S
Zn530 O529 1.953 . S
Zn530 O531 1.949 . S
Zn530 O537 1.919 . S
Zn530 O542 1.924 . S
O531 Zn530 1.949 . S
O531 Zn532 1.923 . S
O531 Zn533 1.950 . S
O531 Zn534 1.945 . S
Zn532 O531 1.923 . S
Zn532 O535 1.933 . S
Zn532 O538 1.941 . S
Zn532 O539 1.965 . S
Zn533 O531 1.950 . S
Zn533 O540 1.938 . S
Zn533 O541 1.906 . S
Zn533 O551 1.953 . S
Zn534 O531 1.945 . S
Zn534 O536 1.932 . S
Zn534 O543 1.977 . S
Zn534 O544 1.910 . S
O535 Zn532 1.933 . S
O535 C546 1.226 . S
O536 Zn534 1.932 . S
O536 C546 1.307 . S
O537 Zn530 1.919 . S
O537 C548 1.253 . S
O538 Zn532 1.941 . S
O538 C548 1.283 . S
O539 Zn532 1.965 . S
O539 C547 1.303 . S
O540 Zn533 1.938 . S
O540 C547 1.247 . S
O541 Zn533 1.906 . S
O541 C549 1.304 . S
O542 Zn530 1.924 . S
O542 C550 1.311 . S
O543 Zn534 1.977 . S
O543 C549 1.272 . S
O544 Zn534 1.910 . S
O544 C550 1.231 . S
C545 O529 1.225 . S
C545 O551 1.298 . S
C546 O535 1.226 . S
C546 O536 1.307 . S
C547 O539 1.303 . S
C547 O540 1.247 . S
C548 O537 1.253 . S
C548 O538 1.283 . S
C549 O541 1.304 . S
C549 O543 1.272 . S
C550 O542 1.311 . S
C550 O544 1.231 . S
O551 Zn533 1.953 . S
O551 C545 1.298 . S
O552 Zn553 1.953 . S
O552 C568 1.225 . S
Zn553 O552 1.953 . S
Zn553 O554 1.949 . S
Zn553 O560 1.919 . S
Zn553 O565 1.924 . S
O554 Zn553 1.949 . S
O554 Zn555 1.923 . S
O554 Zn556 1.950 . S
O554 Zn557 1.945 . S
Zn555 O554 1.923 . S
Zn555 O558 1.933 . S
Zn555 O561 1.941 . S
Zn555 O562 1.965 . S
Zn556 O554 1.950 . S
Zn556 O563 1.938 . S
Zn556 O564 1.906 . S
Zn556 O574 1.953 . S
Zn557 O554 1.945 . S
Zn557 O559 1.932 . S
Zn557 O566 1.977 . S
Zn557 O567 1.910 . S
O558 Zn555 1.933 . S
O558 C569 1.226 . S
O559 Zn557 1.932 . S
O559 C569 1.307 . S
O560 Zn553 1.919 . S
O560 C571 1.253 . S
O561 Zn555 1.941 . S
O561 C571 1.283 . S
O562 Zn555 1.965 . S
O562 C570 1.303 . S
O563 Zn556 1.938 . S
O563 C570 1.247 . S
O564 Zn556 1.906 . S
O564 C572 1.304 . S
O565 Zn553 1.924 . S
O565 C573 1.311 . S
O566 Zn557 1.977 . S
O566 C572 1.272 . S
O567 Zn557 1.910 . S
O567 C573 1.231 . S
C568 O552 1.225 . S
C568 O574 1.298 . S
C569 O558 1.226 . S
C569 O559 1.307 . S
C570 O562 1.303 . S
C570 O563 1.247 . S
C571 O560 1.253 . S
C571 O561 1.283 . S
C572 O564 1.304 . S
C572 O566 1.272 . S
C573 O565 1.311 . S
C573 O567 1.231 . S
O574 Zn556 1.953 . S
O574 C568 1.298 . S
O575 Zn576 1.953 . S
O575 C591 1.225 . S
Zn576 O575 1.953 . S
Zn576 O577 1.949 . S
Zn576 O583 1.919 . S
Zn576 O588 1.924 . S
O577 Zn576 1.949 . S
O577 Zn578 1.923 . S
O577 Zn579 1.950 . S
O577 Zn580 1.945 . S
Zn578 O577 1.923 . S
Zn578 O581 1.933 . S
Zn578 O584 1.941 . S
Zn578 O585 1.965 . S
Zn579 O577 1.950 . S
Zn579 O586 1.938 . S
Zn579 O587 1.906 . S
Zn579 O597 1.953 . S
Zn580 O577 1.945 . S
Zn580 O582 1.932 . S
Zn580 O589 1.977 . S
Zn580 O590 1.910 . S
O581 Zn578 1.933 . S
O581 C592 1.226 . S
O582 Zn580 1.932 . S
O582 C592 1.307 . S
O583 Zn576 1.919 . S
O583 C594 1.253 . S
O584 Zn578 1.941 . S
O584 C594 1.283 . S
O585 Zn578 1.965 . S
O585 C593 1.303 . S
O586 Zn579 1.938 . S
O586 C593 1.247 . S
O587 Zn579 1.906 . S
O587 C595 1.304 . S
O588 Zn576 1.924 . S
O588 C596 1.311 . S
O589 Zn580 1.977 . S
O589 C595 1.272 . S
O590 Zn580 1.910 . S
O590 C596 1.231 . S
C591 O575 1.225 . S
C591 O597 1.298 . S
C592 O581 1.226 . S
C592 O582 1.307 . S
C593 O585 1.303 . S
C593 O586 1.247 . S
C594 O583 1.253 . S
C594 O584 1.283 . S
C595 O587 1.304 . S
C595 O589 1.272 . S
C596 O588 1.311 . S
C596 O590 1.231 . S
O597 Zn579 1.953 . S
O597 C591 1.298 . S
O598 Zn599 1.953 . S
O598 C614 1.225 . S
Zn599 O598 1.953 . S
Zn599 O600 1.949 . S
Zn599 O606 1.919 . S
Zn599 O611 1.924 . S
O600 Zn599 1.949 . S
O600 Zn601 1.923 . S
O600 Zn602 1.950 . S
O600 Zn603 1.945 . S
Zn601 O600 1.923 . S
Zn601 O604 1.933 . S
Zn601 O607 1.941 . S
Zn601 O608 1.965 . S
Zn602 O600 1.950 . S
Zn602 O609 1.938 . S
Zn602 O610 1.906 . S
Zn602 O620 1.953 . S
Zn603 O600 1.945 . S
Zn603 O605 1.932 . S
Zn603 O612 1.977 . S
Zn603 O613 1.910 . S
O604 Zn601 1.933 . S
O604 C615 1.226 . S
O605 Zn603 1.932 . S
O605 C615 1.307 . S
O606 Zn599 1.919 . S
O606 C617 1.253 . S
O607 Zn601 1.941 . S
O607 C617 1.283 . S
O608 Zn601 1.965 . S
O608 C616 1.303 . S
O609 Zn602 1.938 . S
O609 C616 1.247 . S
O610 Zn602 1.906 . S
O610 C618 1.304 . S
O611 Zn599 1.924 . S
O611 C619 1.311 . S
O612 Zn603 1.977 . S
O612 C618 1.272 . S
O613 Zn603 1.910 . S
O613 C619 1.231 . S
C614 O598 1.225 . S
C614 O620 1.298 . S
C615 O604 1.226 . S
C615 O605 1.307 . S
C616 O608 1.303 . S
C616 O609 1.247 . S
C617 O606 1.253 . S
C617 O607 1.283 . S
C618 O610 1.304 . S
C618 O612 1.272 . S
C619 O611 1.311 . S
C619 O613 1.231 . S
O620 Zn602 1.953 . S
O620 C614 1.298 . S
O621 Zn622 1.953 . S
O621 C637 1.225 . S
Zn622 O621 1.953 . S
Zn622 O623 1.949 . S
Zn622 O629 1.919 . S
Zn622 O634 1.924 . S
O623 Zn622 1.949 . S
O623 Zn624 1.923 . S
O623 Zn625 1.950 . S
O623 Zn626 1.945 . S
Zn624 O623 1.923 . S
Zn624 O627 1.933 . S
Zn624 O630 1.941 . S
Zn624 O631 1.965 . S
Zn625 O623 1.950 . S
Zn625 O632 1.938 . S
Zn625 O633 1.906 . S
Zn625 O643 1.953 . S
Zn626 O623 1.945 . S
Zn626 O628 1.932 . S
Zn626 O635 1.977 . S
Zn626 O636 1.910 . S
O627 Zn624 1.933 . S
O627 C638 1.226 . S
O628 Zn626 1.932 . S
O628 C638 1.307 . S
O629 Zn622 1.919 . S
O629 C640 1.253 . S
O630 Zn624 1.941 . S
O630 C640 1.283 . S
O631 Zn624 1.965 . S
O631 C639 1.303 . S
O632 Zn625 1.938 . S
O632 C639 1.247 . S
O633 Zn625 1.906 . S
O633 C641 1.304 . S
O634 Zn622 1.924 . S
O634 C642 1.311 . S
O635 Zn626 1.977 . S
O635 C641 1.272 . S
O636 Zn626 1.910 . S
O636 C642 1.231 . S
C637 O621 1.225 . S
C637 O643 1.298 . S
C638 O627 1.226 . S
C638 O628 1.307 . S
C639 O631 1.303 . S
C639 O632 1.247 . S
C640 O629 1.253 . S
C640 O630 1.283 . S
C641 O633 1.304 . S
C641 O635 1.272 . S
C642 O634 1.311 . S
C642 O636 1.231 . S
O643 Zn625 1.953 . S
O643 C637 1.298 . S
O644 Zn645 1.953 . S
O644 C660 1.225 . S
Zn645 O644 1.953 . S
Zn645 O646 1.949 . S
Zn645 O652 1.919 . S
Zn645 O657 1.924 . S
O646 Zn645 1.949 . S
O646 Zn647 1.923 . S
O646 Zn648 1.950 . S
O646 Zn649 1.945 . S
Zn647 O646 1.923 . S
Zn647 O650 1.933 . S
Zn647 O653 1.941 . S
Zn647 O654 1.965 . S
Zn648 O646 1.950 . S
Zn648 O655 1.938 . S
Zn648 O656 1.906 . S
Zn648 O666 1.953 . S
Zn649 O646 1.945 . S
Zn649 O651 1.932 . S
Zn649 O658 1.977 . S
Zn649 O659 1.910 . S
O650 Zn647 1.933 . S
O650 C661 1.226 . S
O651 Zn649 1.932 . S
O651 C661 1.307 . S
O652 Zn645 1.919 . S
O652 C663 1.253 . S
O653 Zn647 1.941 . S
O653 C663 1.283 . S
O654 Zn647 1.965 . S
O654 C662 1.303 . S
O655 Zn648 1.938 . S
O655 C662 1.247 . S
O656 Zn648 1.906 . S
O656 C664 1.304 . S
O657 Zn645 1.924 . S
O657 C665 1.311 . S
O658 Zn649 1.977 . S
O658 C664 1.272 . S
O659 Zn649 1.910 . S
O659 C665 1.231 . S
C660 O644 1.225 . S
C660 O666 1.298 . S
C661 O650 1.226 . S
C661 O651 1.307 . S
C662 O654 1.303 . S
C662 O655 1.247 . S
C663 O652 1.253 . S
C663 O653 1.283 . S
C664 O656 1.304 . S
C664 O658 1.272 . S
C665 O657 1.311 . S
C665 O659 1.231 . S
O666 Zn648 1.953 . S
O666 C660 1.298 . S
O667 Zn668 1.953 . S
O667 C683 1.225 . S
Zn668 O667 1.953 . S
Zn668 O669 1.949 . S
Zn668 O675 1.919 . S
Zn668 O680 1.924 . S
O669 Zn668 1.949 . S
O669 Zn670 1.923 . S
O669 Zn671 1.950 . S
O669 Zn672 1.945 . S
Zn670 O669 1.923 . S
Zn670 O673 1.933 . S
Zn670 O676 1.941 . S
Zn670 O677 1.965 . S
Zn671 O669 1.950 . S
Zn671 O678 1.938 . S
Zn671 O679 1.906 . S
Zn671 O689 1.953 . S
Zn672 O669 1.945 . S
Zn672 O674 1.932 . S
Zn672 O681 1.977 . S
Zn672 O682 1.910 . S
O673 Zn670 1.933 . S
O673 C684 1.226 . S
O674 Zn672 1.932 . S
O674 C684 1.307 . S
O675 Zn668 1.919 . S
O675 C686 1.253 . S
O676 Zn670 1.941 . S
O676 C686 1.283 . S
O677 Zn670 1.965 . S
O677 C685 1.303 . S
O678 Zn671 1.938 . S
O678 C685 1.247 . S
O679 Zn671 1.906 . S
O679 C687 1.304 . S
O680 Zn668 1.924 . S
O680 C688 1.311 . S
O681 Zn672 1.977 . S
O681 C687 1.272 . S
O682 Zn672 1.910 . S
O682 C688 1.231 . S
C683 O667 1.225 . S
C683 O689 1.298 . S
C684 O673 1.226 . S
C684 O674 1.307 . S
C685 O677 1.303 . S
C685 O678 1.247 . S
C686 O675 1.253 . S
C686 O676 1.283 . S
C687 O679 1.304 . S
C687 O681 1.272 . S
C688 O680 1.311 . S
C688 O682 1.231 . S
O689 Zn671 1.953 . S
O689 C683 1.298 . S
O690 Zn691 1.953 . S
O690 C706 1.225 . S
Zn691 O690 1.953 . S
Zn691 O692 1.949 . S
Zn691 O698 1.919 . S
Zn691 O703 1.924 . S
O692 Zn691 1.949 . S
O692 Zn693 1.923 . S
O692 Zn694 1.950 . S
O692 Zn695 1.945 . S
Zn693 O692 1.923 . S
Zn693 O696 1.933 . S
Zn693 O699 1.941 . S
Zn693 O700 1.965 . S
Zn694 O692 1.950 . S
Zn694 O701 1.938 . S
Zn694 O702 1.906 . S
Zn694 O712 1.953 . S
Zn695 O692 1.945 . S
Zn695 O697 1.932 . S
Zn695 O704 1.977 . S
Zn695 O705 1.910 . S
O696 Zn693 1.933 . S
O696 C707 1.226 . S
O697 Zn695 1.932 . S
O697 C707 1.307 . S
O698 Zn691 1.919 . S
O698 C709 1.253 . S
O699 Zn693 1.941 . S
O699 C709 1.283 . S
O700 Zn693 1.965 . S
O700 C708 1.303 . S
O701 Zn694 1.938 . S
O701 C708 1.247 . S
O702 Zn694 1.906 . S
O702 C710 1.304 . S
O703 Zn691 1.924 . S
O703 C711 1.311 . S
O704 Zn695 1.977 . S
O704 C710 1.272 . S
O705 Zn695 1.910 . S
O705 C711 1.231 . S
C706 O690 1.225 . S
C706 O712 1.298 . S
C707 O696 1.226 . S
C707 O697 1.307 . S
C708 O700 1.303 . S
C708 O701 1.247 . S
C709 O698 1.253 . S
C709 O699 1.283 . S
C710 O702 1.304 . S
C710 O704 1.272 . S
C711 O703 1.311 . S
C711 O705 1.231 . S
O712 Zn694 1.953 . S
O712 C706 1.298 . S
O713 Zn714 1.953 . S
O713 C729 1.225 . S
Zn714 O713 1.953 . S
Zn714 O715 1.949 . S
Zn714 O721 1.919 . S
Zn714 O726 1.924 . S
O715 Zn714 1.949 . S
O715 Zn716 1.923 . S
O715 Zn717 1.950 . S
O715 Zn718 1.945 . S
Zn716 O715 1.923 . S
Zn716 O719 1.933 . S
Zn716 O722 1.941 . S
Zn716 O723 1.965 . S
Zn717 O715 1.950 . S
Zn717 O724 1.938 . S
Zn717 O725 1.906 . S
Zn717 O735 1.953 . S
Zn718 O715 1.945 . S
Zn718 O720 1.932 . S
Zn718 O727 1.977 . S
Zn718 O728 1.910 . S
O719 Zn716 1.933 . S
O719 C730 1.226 . S
O720 Zn718 1.932 . S
O720 C730 1.307 . S
O721 Zn714 1.919 . S
O721 C732 1.253 . S
O722 Zn716 1.941 . S
O722 C732 1.283 . S
O723 Zn716 1.965 . S
O723 C731 1.303 . S
O724 Zn717 1.938 . S
O724 C731 1.247 . S
O725 Zn717 1.906 . S
O725 C733 1.304 . S
O726 Zn714 1.924 . S
O726 C734 1.311 . S
O727 Zn718 1.977 . S
O727 C733 1.272 . S
O728 Zn718 1.910 . S
O728 C734 1.231 . S
C729 O713 1.225 . S
C729 O735 1.298 . S
C730 O719 1.226 . S
C730 O720 1.307 . S
C731 O723 1.303 . S
C731 O724 1.247 . S
C732 O721 1.253 . S
C732 O722 1.283 . S
C733 O725 1.304 . S
C733 O727 1.272 . S
C734 O726 1.311 . S
C734 O728 1.231 . S
O735 Zn717 1.953 . S
O735 C729 1.298 . S
C736 C737 1.369 . S
C736 C738 1.419 . S
C736 H740 0.930 . S
C737 C736 1.369 . S
C737 C746 1.429 . S
C738 C736 1.419 . S
C738 C739 1.363 . S
C738 H741 0.929 . S
C739 C738 1.363 . S
C739 C745 1.428 . S
H740 C736 0.930 . S
H741 C738 0.929 . S
S742 N743 1.613 . S
S742 N744 1.610 . S
N743 S742 1.613 . S
N743 C746 1.350 . S
N744 S742 1.610 . S
N744 C745 1.351 . S
C745 C739 1.428 . S
C745 N744 1.351 . S
C745 C746 1.434 . S
C746 C737 1.429 . S
C746 N743 1.350 . S
C746 C745 1.434 . S
C747 C748 1.387 . S
C747 C749 1.419 . S
C747 H751 0.930 . S
C748 C747 1.387 . S
C748 C757 1.430 . S
C749 C747 1.419 . S
C749 C750 1.363 . S
C749 H752 0.929 . S
C750 C749 1.363 . S
C750 C756 1.428 . S
H751 C747 0.930 . S
H752 C749 0.929 . S
S753 N754 1.613 1_545 S
S753 N755 1.610 1_445 S
N754 S753 1.613 1_565 S
N754 C757 1.350 1_455 S
N755 S753 1.610 1_665 S
N755 C756 1.351 . S
C756 C750 1.428 . S
C756 N755 1.351 . S
C756 C757 1.434 . S
C757 C748 1.430 . S
C757 N754 1.350 1_655 S
C757 C756 1.434 . S
C758 C759 1.369 . S
C758 C760 1.419 . S
C758 H762 0.930 . S
C759 C758 1.369 . S
C759 C768 1.429 . S
C760 C758 1.419 . S
C760 C761 1.363 . S
C760 H763 0.929 . S
C761 C760 1.363 . S
C761 C767 1.428 . S
H762 C758 0.930 . S
H763 C760 0.929 . S
S764 N765 1.613 . S
S764 N766 1.610 . S
N765 S764 1.613 . S
N765 C768 1.350 . S
N766 S764 1.610 . S
N766 C767 1.351 . S
C767 C761 1.428 . S
C767 N766 1.351 . S
C767 C768 1.434 . S
C768 C759 1.429 . S
C768 N765 1.350 . S
C768 C767 1.434 . S
C769 C770 1.369 . S
C769 C771 1.419 . S
C769 H773 0.930 . S
C770 C769 1.369 . S
C770 C779 1.429 . S
C771 C769 1.419 . S
C771 C772 1.363 . S
C771 H774 0.929 . S
C772 C771 1.363 . S
C772 C778 1.428 . S
H773 C769 0.930 . S
H774 C771 0.929 . S
S775 N776 1.613 1_565 S
S775 N777 1.610 1_565 S
N776 S775 1.613 1_545 S
N776 C779 1.350 . S
N777 S775 1.610 1_545 S
N777 C778 1.351 . S
C778 C772 1.428 . S
C778 N777 1.351 . S
C778 C779 1.434 . S
C779 C770 1.429 . S
C779 N776 1.350 . S
C779 C778 1.434 . S
C780 C781 1.369 . S
C780 C782 1.419 . S
C780 H784 0.930 . S
C781 C780 1.369 . S
C781 C790 1.429 . S
C782 C780 1.419 . S
C782 C783 1.363 . S
C782 H785 0.929 . S
C783 C782 1.363 . S
C783 C789 1.428 . S
H784 C780 0.930 . S
H785 C782 0.929 . S
S786 N787 1.613 . S
S786 N788 1.610 . S
N787 S786 1.613 . S
N787 C790 1.350 . S
N788 S786 1.610 . S
N788 C789 1.351 . S
C789 C783 1.428 . S
C789 N788 1.351 . S
C789 C790 1.434 . S
C790 C781 1.429 . S
C790 N787 1.350 . S
C790 C789 1.434 . S
C791 C792 1.369 . S
C791 C793 1.419 . S
C791 H795 0.930 . S
C792 C791 1.369 . S
C792 C801 1.429 . S
C793 C791 1.419 . S
C793 C794 1.363 . S
C793 H796 0.929 . S
C794 C793 1.363 . S
C794 C800 1.428 . S
H795 C791 0.930 . S
H796 C793 0.929 . S
S797 N798 1.619 . S
S797 N799 1.614 . S
N798 S797 1.619 . S
N798 C801 1.350 . S
N799 S797 1.614 . S
N799 C800 1.351 . S
C800 C794 1.428 . S
C800 N799 1.351 . S
C800 C801 1.434 . S
C801 C792 1.429 . S
C801 N798 1.350 . S
C801 C800 1.434 . S
C802 C803 1.369 . S
C802 C804 1.419 . S
C802 H806 0.930 . S
C803 C802 1.369 . S
C803 C812 1.429 . S
C804 C802 1.419 . S
C804 C805 1.363 . S
C804 H807 0.929 . S
C805 C804 1.363 . S
C805 C811 1.428 . S
H806 C802 0.930 . S
H807 C804 0.929 . S
S808 N809 1.613 . S
S808 N810 1.610 . S
N809 S808 1.613 . S
N809 C812 1.350 . S
N810 S808 1.610 . S
N810 C811 1.351 . S
C811 C805 1.428 . S
C811 N810 1.351 . S
C811 C812 1.434 . S
C812 C803 1.429 . S
C812 N809 1.350 . S
C812 C811 1.434 . S
C813 C814 1.369 1_455 S
C813 C815 1.419 1_455 S
C813 H817 0.930 . S
C814 C813 1.369 1_655 S
C814 C823 1.429 . S
C815 C813 1.419 1_655 S
C815 C816 1.363 . S
C815 H818 0.929 . S
C816 C815 1.363 . S
C816 C822 1.428 . S
H817 C813 0.930 . S
H818 C815 0.929 . S
S819 N820 1.613 1_565 S
S819 N821 1.610 1_565 S
N820 S819 1.613 1_545 S
N820 C823 1.350 . S
N821 S819 1.610 1_545 S
N821 C822 1.351 . S
C822 C816 1.428 . S
C822 N821 1.351 . S
C822 C823 1.434 . S
C823 C814 1.429 . S
C823 N820 1.350 . S
C823 C822 1.434 . S
C824 C825 1.369 . S
C824 C826 1.419 . S
C824 H828 0.930 . S
C825 C824 1.369 . S
C825 C834 1.429 . S
C826 C824 1.419 . S
C826 C827 1.363 . S
C826 H829 0.929 . S
C827 C826 1.363 . S
C827 C833 1.428 . S
H828 C824 0.930 . S
H829 C826 0.929 . S
S830 N831 1.613 . S
S830 N832 1.610 . S
N831 S830 1.613 . S
N831 C834 1.350 . S
N832 S830 1.610 . S
N832 C833 1.351 . S
C833 C827 1.428 . S
C833 N832 1.351 . S
C833 C834 1.434 . S
C834 C825 1.429 . S
C834 N831 1.350 . S
C834 C833 1.434 . S
C835 C836 1.369 . S
C835 C837 1.419 . S
C835 H839 0.930 1_455 S
C836 C835 1.369 . S
C836 C845 1.429 . S
C837 C835 1.419 . S
C837 C838 1.363 . S
C837 H840 0.929 . S
C838 C837 1.363 . S
C838 C844 1.428 . S
H839 C835 0.930 1_655 S
H840 C837 0.929 . S
S841 N842 1.613 . S
S841 N843 1.610 1_565 S
N842 S841 1.613 . S
N842 C845 1.350 1_565 S
N843 S841 1.610 1_545 S
N843 C844 1.351 . S
C844 C838 1.428 . S
C844 N843 1.351 . S
C844 C845 1.434 . S
C845 C836 1.429 . S
C845 N842 1.350 1_545 S
C845 C844 1.434 . S
C846 C847 1.369 . S
C846 C848 1.419 . S
C846 H850 0.930 . S
C847 C846 1.369 . S
C847 C856 1.429 . S
C848 C846 1.419 . S
C848 C849 1.363 . S
C848 H851 0.929 . S
C849 C848 1.363 . S
C849 C855 1.428 . S
H850 C846 0.930 . S
H851 C848 0.929 . S
S852 N853 1.613 . S
S852 N854 1.610 . S
N853 S852 1.613 . S
N853 C856 1.350 . S
N854 S852 1.610 . S
N854 C855 1.351 . S
C855 C849 1.428 . S
C855 N854 1.351 . S
C855 C856 1.434 . S
C856 C847 1.429 . S
C856 N853 1.350 . S
C856 C855 1.434 . S
C857 C858 1.369 . S
C857 C859 1.419 . S
C857 H861 0.930 . S
C858 C857 1.369 . S
C858 C867 1.429 . S
C859 C857 1.419 . S
C859 C860 1.363 . S
C859 H862 0.929 . S
C860 C859 1.363 . S
C860 C866 1.428 . S
H861 C857 0.930 . S
H862 C859 0.929 . S
S863 N864 1.613 1_545 S
S863 N865 1.610 1_545 S
N864 S863 1.613 1_565 S
N864 C867 1.350 . S
N865 S863 1.610 1_565 S
N865 C866 1.351 . S
C866 C860 1.428 . S
C866 N865 1.351 . S
C866 C867 1.434 . S
C867 C858 1.429 . S
C867 N864 1.350 . S
C867 C866 1.434 . S
C868 C869 1.369 . S
C868 C870 1.419 . S
C868 H872 0.930 . S
C869 C868 1.369 . S
C869 C878 1.429 . S
C870 C868 1.419 . S
C870 C871 1.363 . S
C870 H873 0.929 . S
C871 C870 1.363 . S
C871 C877 1.428 . S
H872 C868 0.930 . S
H873 C870 0.929 . S
S874 N875 1.613 . S
S874 N876 1.610 . S
N875 S874 1.613 . S
N875 C878 1.350 . S
N876 S874 1.610 . S
N876 C877 1.351 . S
C877 C871 1.428 . S
C877 N876 1.351 . S
C877 C878 1.434 . S
C878 C869 1.429 . S
C878 N875 1.350 . S
C878 C877 1.434 . S
C879 C880 1.369 . S
C879 C881 1.419 . S
C879 H883 0.930 . S
C880 C879 1.369 . S
C880 C889 1.429 . S
C881 C879 1.419 . S
C881 C882 1.363 . S
C881 H884 0.929 . S
C882 C881 1.363 . S
C882 C888 1.428 . S
H883 C879 0.930 . S
H884 C881 0.929 . S
S885 N886 1.613 . S
S885 N887 1.610 . S
N886 S885 1.613 . S
N886 C889 1.350 . S
N887 S885 1.610 . S
N887 C888 1.351 . S
C888 C882 1.428 . S
C888 N887 1.351 . S
C888 C889 1.434 . S
C889 C880 1.429 . S
C889 N886 1.350 . S
C889 C888 1.434 . S
C890 C891 1.369 . S
C890 C892 1.419 . S
C890 H894 0.930 . S
C891 C890 1.369 . S
C891 C900 1.429 . S
C892 C890 1.419 . S
C892 C893 1.363 . S
C892 H895 0.929 . S
C893 C892 1.363 . S
C893 C899 1.428 . S
H894 C890 0.930 . S
H895 C892 0.929 . S
S896 N897 1.613 . S
S896 N898 1.610 . S
N897 S896 1.613 . S
N897 C900 1.350 . S
N898 S896 1.610 . S
N898 C899 1.351 . S
C899 C893 1.428 . S
C899 N898 1.351 . S
C899 C900 1.434 . S
C900 C891 1.429 . S
C900 N897 1.350 . S
C900 C899 1.434 . S
C901 C902 1.369 . S
C901 C903 1.419 . S
C901 H905 0.930 . S
C902 C901 1.369 . S
C902 C911 1.429 . S
C903 C901 1.419 . S
C903 C904 1.363 . S
C903 H906 0.929 . S
C904 C903 1.363 . S
C904 C910 1.428 . S
H905 C901 0.930 . S
H906 C903 0.929 . S
S907 N908 1.613 . S
S907 N909 1.610 . S
N908 S907 1.613 . S
N908 C911 1.350 . S
N909 S907 1.610 . S
N909 C910 1.351 . S
C910 C904 1.428 . S
C910 N909 1.351 . S
C910 C911 1.434 . S
C911 C902 1.429 . S
C911 N908 1.350 . S
C911 C910 1.434 . S
C912 C913 1.369 . S
C912 C914 1.419 . S
C912 H916 0.930 . S
C913 C912 1.369 . S
C913 C922 1.429 . S
C914 C912 1.419 . S
C914 C915 1.363 . S
C914 H917 0.929 . S
C915 C914 1.363 . S
C915 C921 1.428 . S
H916 C912 0.930 . S
H917 C914 0.929 . S
S918 N919 1.613 . S
S918 N920 1.610 . S
N919 S918 1.613 . S
N919 C922 1.350 . S
N920 S918 1.610 . S
N920 C921 1.351 . S
C921 C915 1.428 . S
C921 N920 1.351 . S
C921 C922 1.434 . S
C922 C913 1.429 . S
C922 N919 1.350 . S
C922 C921 1.434 . S
C923 C924 1.369 . S
C923 C925 1.419 . S
C923 H927 0.930 . S
C924 C923 1.369 . S
C924 C933 1.429 . S
C925 C923 1.419 . S
C925 C926 1.363 . S
C925 H928 0.929 . S
C926 C925 1.363 . S
C926 C932 1.428 . S
H927 C923 0.930 . S
H928 C925 0.929 . S
S929 N930 1.613 . S
S929 N931 1.610 . S
N930 S929 1.613 . S
N930 C933 1.350 . S
N931 S929 1.610 . S
N931 C932 1.351 . S
C932 C926 1.428 . S
C932 N931 1.351 . S
C932 C933 1.434 . S
C933 C924 1.429 . S
C933 N930 1.350 . S
C933 C932 1.434 . S
C934 C935 1.369 . S
C934 C936 1.419 . S
C934 H938 0.930 . S
C935 C934 1.369 . S
C935 C944 1.429 . S
C936 C934 1.419 . S
C936 C937 1.363 . S
C936 H939 0.929 . S
C937 C936 1.363 . S
C937 C943 1.428 . S
H938 C934 0.930 . S
H939 C936 0.929 . S
S940 N941 1.613 . S
S940 N942 1.610 . S
N941 S940 1.613 . S
N941 C944 1.350 . S
N942 S940 1.610 . S
N942 C943 1.351 . S
C943 C937 1.428 . S
C943 N942 1.351 . S
C943 C944 1.434 . S
C944 C935 1.429 . S
C944 N941 1.350 . S
C944 C943 1.434 . S
C945 C946 1.394 . S
C945 C947 1.419 . S
C945 H949 0.930 . S
C946 C945 1.394 . S
C946 C955 1.422 1_455 S
C947 C945 1.419 . S
C947 C948 1.363 . S
C947 H950 0.929 . S
C948 C947 1.363 . S
C948 C954 1.428 . S
H949 C945 0.930 . S
H950 C947 0.929 . S
S951 N952 1.613 . S
S951 N953 1.610 1_655 S
N952 S951 1.613 . S
N952 C955 1.350 . S
N953 S951 1.610 1_455 S
N953 C954 1.351 . S
C954 C948 1.428 . S
C954 N953 1.351 . S
C954 C955 1.434 1_455 S
C955 C946 1.422 1_655 S
C955 N952 1.350 . S
C955 C954 1.434 1_655 S
C956 C957 1.369 . S
C956 C958 1.419 . S
C956 H960 0.930 . S
C957 C956 1.369 . S
C957 C966 1.429 . S
C958 C956 1.419 . S
C958 C959 1.363 . S
C958 H961 0.929 . S
C959 C958 1.363 . S
C959 C965 1.428 . S
H960 C956 0.930 . S
H961 C958 0.929 . S
S962 N963 1.613 . S
S962 N964 1.610 . S
N963 S962 1.613 . S
N963 C966 1.350 . S
N964 S962 1.610 . S
N964 C965 1.351 . S
C965 C959 1.428 . S
C965 N964 1.351 . S
C965 C966 1.434 . S
C966 C957 1.429 . S
C966 N963 1.350 . S
C966 C965 1.434 . S
C967 C968 1.369 . S
C967 C969 1.419 . S
C967 H971 0.930 . S
C968 C967 1.369 . S
C968 C977 1.429 . S
C969 C967 1.419 . S
C969 C970 1.391 . S
C969 H972 0.929 . S
C970 C969 1.391 . S
C970 C976 1.422 1_455 S
H971 C967 0.930 . S
H972 C969 0.929 . S
S973 N974 1.613 1_655 S
S973 N975 1.610 . S
N974 S973 1.613 1_455 S
N974 C977 1.350 . S
N975 S973 1.610 . S
N975 C976 1.351 . S
C976 C970 1.422 1_655 S
C976 N975 1.351 . S
C976 C977 1.434 1_655 S
C977 C968 1.429 . S
C977 N974 1.350 . S
C977 C976 1.434 1_455 S
C978 C979 1.369 . S
C978 C980 1.419 . S
C978 H982 0.930 . S
C979 C978 1.369 . S
C979 C988 1.429 . S
C980 C978 1.419 . S
C980 C981 1.363 . S
C980 H983 0.929 . S
C981 C980 1.363 . S
C981 C987 1.428 . S
H982 C978 0.930 . S
H983 C980 0.929 . S
S984 N985 1.613 . S
S984 N986 1.610 . S
N985 S984 1.613 . S
N985 C988 1.350 . S
N986 S984 1.610 . S
N986 C987 1.351 . S
C987 C981 1.428 . S
C987 N986 1.351 . S
C987 C988 1.434 . S
C988 C979 1.429 . S
C988 N985 1.350 . S
C988 C987 1.434 . S
C989 C990 1.369 . S
C989 C991 1.419 . S
C989 H993 0.930 . S
C990 C989 1.369 . S
C990 C999 1.429 . S
C991 C989 1.419 . S
C991 C992 1.363 . S
C991 H994 0.929 . S
C992 C991 1.363 . S
C992 C998 1.428 . S
H993 C989 0.930 . S
H994 C991 0.929 . S
S995 N996 1.613 . S
S995 N997 1.610 . S
N996 S995 1.613 . S
N996 C999 1.350 . S
N997 S995 1.610 . S
N997 C998 1.351 . S
C998 C992 1.428 . S
C998 N997 1.351 . S
C998 C999 1.434 . S
C999 C990 1.429 . S
C999 N996 1.350 . S
C999 C998 1.434 . S
C1000 C1001 1.369 . S
C1000 C1002 1.419 . S
C1000 H1004 0.930 . S
C1001 C1000 1.369 . S
C1001 C1010 1.429 . S
C1002 C1000 1.419 . S
C1002 C1003 1.363 . S
C1002 H1005 0.929 . S
C1003 C1002 1.363 . S
C1003 C1009 1.428 . S
H1004 C1000 0.930 . S
H1005 C1002 0.929 . S
S1006 N1007 1.613 . S
S1006 N1008 1.610 . S
N1007 S1006 1.613 . S
N1007 C1010 1.350 . S
N1008 S1006 1.610 . S
N1008 C1009 1.351 . S
C1009 C1003 1.428 . S
C1009 N1008 1.351 . S
C1009 C1010 1.434 . S
C1010 C1001 1.429 . S
C1010 N1007 1.350 . S
C1010 C1009 1.434 . S
C1011 C1012 1.369 . S
C1011 C1013 1.419 . S
C1011 H1015 0.930 . S
C1012 C1011 1.369 . S
C1012 C1021 1.429 . S
C1013 C1011 1.419 . S
C1013 C1014 1.363 . S
C1013 H1016 0.929 . S
C1014 C1013 1.363 . S
C1014 C1020 1.428 . S
H1015 C1011 0.930 . S
H1016 C1013 0.929 . S
S1017 N1018 1.613 . S
S1017 N1019 1.610 . S
N1018 S1017 1.613 . S
N1018 C1021 1.350 . S
N1019 S1017 1.610 . S
N1019 C1020 1.351 . S
C1020 C1014 1.428 . S
C1020 N1019 1.351 . S
C1020 C1021 1.434 . S
C1021 C1012 1.429 . S
C1021 N1018 1.350 . S
C1021 C1020 1.434 . S
C1022 C1023 1.369 . S
C1022 C1024 1.419 . S
C1022 H1026 0.930 . S
C1023 C1022 1.369 . S
C1023 C1032 1.429 . S
C1024 C1022 1.419 . S
C1024 C1025 1.363 . S
C1024 H1027 0.929 . S
C1025 C1024 1.363 . S
C1025 C1031 1.428 . S
H1026 C1022 0.930 . S
H1027 C1024 0.929 . S
S1028 N1029 1.613 . S
S1028 N1030 1.610 . S
N1029 S1028 1.613 . S
N1029 C1032 1.350 . S
N1030 S1028 1.610 . S
N1030 C1031 1.351 . S
C1031 C1025 1.428 . S
C1031 N1030 1.351 . S
C1031 C1032 1.434 . S
C1032 C1023 1.429 . S
C1032 N1029 1.350 . S
C1032 C1031 1.434 . S
C1033 C1034 1.369 1_455 S
C1033 C1035 1.419 1_455 S
C1033 H1037 0.930 . S
C1034 C1033 1.369 1_655 S
C1034 C1043 1.429 . S
C1035 C1033 1.419 1_655 S
C1035 C1036 1.363 . S
C1035 H1038 0.929 . S
C1036 C1035 1.363 . S
C1036 C1042 1.428 . S
H1037 C1033 0.930 . S
H1038 C1035 0.929 . S
S1039 N1040 1.613 . S
S1039 N1041 1.610 . S
N1040 S1039 1.613 . S
N1040 C1043 1.350 . S
N1041 S1039 1.610 . S
N1041 C1042 1.351 . S
C1042 C1036 1.428 . S
C1042 N1041 1.351 . S
C1042 C1043 1.434 . S
C1043 C1034 1.429 . S
C1043 N1040 1.350 . S
C1043 C1042 1.434 . S
C1044 C1045 1.369 . S
C1044 C1046 1.419 . S
C1044 H1048 0.930 . S
C1045 C1044 1.369 . S
C1045 C1054 1.429 . S
C1046 C1044 1.419 . S
C1046 C1047 1.363 . S
C1046 H1049 0.929 . S
C1047 C1046 1.363 . S
C1047 C1053 1.428 . S
H1048 C1044 0.930 . S
H1049 C1046 0.929 . S
S1050 N1051 1.613 . S
S1050 N1052 1.610 . S
N1051 S1050 1.613 . S
N1051 C1054 1.350 . S
N1052 S1050 1.610 . S
N1052 C1053 1.351 . S
C1053 C1047 1.428 . S
C1053 N1052 1.351 . S
C1053 C1054 1.434 . S
C1054 C1045 1.429 . S
C1054 N1051 1.350 . S
C1054 C1053 1.434 . S
C1055 C1056 1.369 . S
C1055 C1057 1.419 1_655 S
C1055 H1059 0.930 . S
C1056 C1055 1.369 . S
C1056 C1065 1.429 . S
C1057 C1055 1.419 1_455 S
C1057 C1058 1.363 1_455 S
C1057 H1060 0.929 . S
C1058 C1057 1.363 1_655 S
C1058 C1064 1.428 . S
H1059 C1055 0.930 . S
H1060 C1057 0.929 . S
S1061 N1062 1.613 . S
S1061 N1063 1.610 . S
N1062 S1061 1.613 . S
N1062 C1065 1.350 . S
N1063 S1061 1.610 . S
N1063 C1064 1.351 . S
C1064 C1058 1.428 . S
C1064 N1063 1.351 . S
C1064 C1065 1.434 . S
C1065 C1056 1.429 . S
C1065 N1062 1.350 . S
C1065 C1064 1.434 . S
C1066 C1067 1.369 . S
C1066 C1068 1.419 . S
C1066 H1070 0.930 . S
C1067 C1066 1.369 . S
C1067 C1076 1.429 . S
C1068 C1066 1.419 . S
C1068 C1069 1.363 . S
C1068 H1071 0.929 . S
C1069 C1068 1.363 . S
C1069 C1075 1.428 . S
H1070 C1066 0.930 . S
H1071 C1068 0.929 . S
S1072 N1073 1.613 . S
S1072 N1074 1.610 . S
N1073 S1072 1.613 . S
N1073 C1076 1.350 . S
N1074 S1072 1.610 . S
N1074 C1075 1.351 . S
C1075 C1069 1.428 . S
C1075 N1074 1.351 . S
C1075 C1076 1.434 . S
C1076 C1067 1.429 . S
C1076 N1073 1.350 . S
C1076 C1075 1.434 . S
C1077 C1078 1.369 . S
C1077 C1079 1.419 . S
C1077 H1081 0.930 . S
C1078 C1077 1.369 . S
C1078 C1087 1.429 . S
C1079 C1077 1.419 . S
C1079 C1080 1.363 . S
C1079 H1082 0.929 . S
C1080 C1079 1.363 . S
C1080 C1086 1.428 . S
H1081 C1077 0.930 . S
H1082 C1079 0.929 . S
S1083 N1084 1.613 . S
S1083 N1085 1.610 . S
N1084 S1083 1.613 . S
N1084 C1087 1.350 . S
N1085 S1083 1.610 . S
N1085 C1086 1.351 . S
C1086 C1080 1.428 . S
C1086 N1085 1.351 . S
C1086 C1087 1.434 . S
C1087 C1078 1.429 . S
C1087 N1084 1.350 . S
C1087 C1086 1.434 . S
C1088 C1089 1.369 . S
C1088 C1090 1.419 . S
C1088 H1092 0.930 . S
C1089 C1088 1.369 . S
C1089 C1098 1.429 1_455 S
C1090 C1088 1.419 . S
C1090 C1091 1.363 1_455 S
C1090 H1093 0.929 . S
C1091 C1090 1.363 1_655 S
C1091 C1097 1.428 . S
H1092 C1088 0.930 . S
H1093 C1090 0.929 . S
S1094 N1095 1.613 . S
S1094 N1096 1.610 . S
N1095 S1094 1.613 . S
N1095 C1098 1.350 . S
N1096 S1094 1.610 . S
N1096 C1097 1.351 . S
C1097 C1091 1.428 . S
C1097 N1096 1.351 . S
C1097 C1098 1.434 . S
C1098 C1089 1.429 1_655 S
C1098 N1095 1.350 . S
C1098 C1097 1.434 . S
C1099 C1100 1.369 . S
C1099 C1101 1.419 1_655 S
C1099 H1103 0.930 . S
C1100 C1099 1.369 . S
C1100 C1109 1.429 . S
C1101 C1099 1.419 1_455 S
C1101 C1102 1.363 . S
C1101 H1104 0.929 . S
C1102 C1101 1.363 . S
C1102 C1108 1.428 . S
H1103 C1099 0.930 . S
H1104 C1101 0.929 . S
S1105 N1106 1.613 . S
S1105 N1107 1.610 1_655 S
N1106 S1105 1.613 . S
N1106 C1109 1.350 . S
N1107 S1105 1.610 1_455 S
N1107 C1108 1.351 . S
C1108 C1102 1.428 . S
C1108 N1107 1.351 . S
C1108 C1109 1.434 1_455 S
C1109 C1100 1.429 . S
C1109 N1106 1.350 . S
C1109 C1108 1.434 1_655 S
C1110 C1111 1.369 . S
C1110 C1112 1.419 . S
C1110 H1114 0.930 . S
C1111 C1110 1.369 . S
C1111 C1120 1.429 . S
C1112 C1110 1.419 . S
C1112 C1113 1.363 . S
C1112 H1115 0.929 . S
C1113 C1112 1.363 . S
C1113 C1119 1.428 . S
H1114 C1110 0.930 . S
H1115 C1112 0.929 . S
S1116 N1117 1.613 . S
S1116 N1118 1.610 . S
N1117 S1116 1.613 . S
N1117 C1120 1.350 . S
N1118 S1116 1.610 . S
N1118 C1119 1.351 . S
C1119 C1113 1.428 . S
C1119 N1118 1.351 . S
C1119 C1120 1.434 . S
C1120 C1111 1.429 . S
C1120 N1117 1.350 . S
C1120 C1119 1.434 . S
C1121 C1122 1.369 . S
C1121 C1123 1.419 . S
C1121 H1125 0.930 . S
C1122 C1121 1.369 . S
C1122 C1131 1.429 . S
C1123 C1121 1.419 . S
C1123 C1124 1.363 . S
C1123 H1126 0.929 . S
C1124 C1123 1.363 . S
C1124 C1130 1.428 . S
H1125 C1121 0.930 . S
H1126 C1123 0.929 . S
S1127 N1128 1.613 . S
S1127 N1129 1.610 . S
N1128 S1127 1.613 . S
N1128 C1131 1.350 . S
N1129 S1127 1.610 . S
N1129 C1130 1.351 . S
C1130 C1124 1.428 . S
C1130 N1129 1.351 . S
C1130 C1131 1.434 . S
C1131 C1122 1.429 . S
C1131 N1128 1.350 . S
C1131 C1130 1.434 . S
C1132 C1133 1.369 . S
C1132 C1134 1.419 1_655 S
C1132 H1136 0.930 . S
C1133 C1132 1.369 . S
C1133 C1142 1.429 . S
C1134 C1132 1.419 1_455 S
C1134 C1135 1.363 . S
C1134 H1137 0.929 . S
C1135 C1134 1.363 . S
C1135 C1141 1.428 . S
H1136 C1132 0.930 . S
H1137 C1134 0.929 . S
S1138 N1139 1.613 1_455 S
S1138 N1140 1.610 . S
N1139 S1138 1.613 1_655 S
N1139 C1142 1.350 . S
N1140 S1138 1.610 . S
N1140 C1141 1.351 . S
C1141 C1135 1.428 . S
C1141 N1140 1.351 . S
C1141 C1142 1.434 1_455 S
C1142 C1133 1.429 . S
C1142 N1139 1.350 . S
C1142 C1141 1.434 1_655 S
C1143 C1144 1.369 . S
C1143 C1145 1.419 . S
C1143 H1147 0.930 . S
C1144 C1143 1.369 . S
C1144 C1153 1.429 . S
C1145 C1143 1.419 . S
C1145 C1146 1.363 . S
C1145 H1148 0.929 . S
C1146 C1145 1.363 . S
C1146 C1152 1.428 . S
H1147 C1143 0.930 . S
H1148 C1145 0.929 . S
S1149 N1150 1.613 . S
S1149 N1151 1.610 . S
N1150 S1149 1.613 . S
N1150 C1153 1.350 . S
N1151 S1149 1.610 . S
N1151 C1152 1.351 . S
C1152 C1146 1.428 . S
C1152 N1151 1.351 . S
C1152 C1153 1.434 . S
C1153 C1144 1.429 . S
C1153 N1150 1.350 . S
C1153 C1152 1.434 . S
C1154 C1155 1.369 . S
C1154 C1156 1.419 . S
C1154 H1158 0.930 . S
C1155 C1154 1.369 . S
C1155 C1164 1.429 . S
C1156 C1154 1.419 . S
C1156 C1157 1.363 . S
C1156 H1159 0.929 . S
C1157 C1156 1.363 . S
C1157 C1163 1.428 . S
H1158 C1154 0.930 . S
H1159 C1156 0.929 . S
S1160 N1161 1.613 . S
S1160 N1162 1.610 . S
N1161 S1160 1.613 . S
N1161 C1164 1.350 . S
N1162 S1160 1.610 . S
N1162 C1163 1.351 . S
C1163 C1157 1.428 . S
C1163 N1162 1.351 . S
C1163 C1164 1.434 . S
C1164 C1155 1.429 . S
C1164 N1161 1.350 . S
C1164 C1163 1.434 . S
C1165 C1166 1.369 . S
C1165 C1167 1.419 . S
C1165 H1169 0.930 . S
C1166 C1165 1.369 . S
C1166 C1175 1.429 1_455 S
C1167 C1165 1.419 . S
C1167 C1168 1.363 1_455 S
C1167 H1170 0.929 . S
C1168 C1167 1.363 1_655 S
C1168 C1174 1.428 . S
H1169 C1165 0.930 . S
H1170 C1167 0.929 . S
S1171 N1172 1.613 . S
S1171 N1173 1.610 . S
N1172 S1171 1.613 . S
N1172 C1175 1.350 . S
N1173 S1171 1.610 . S
N1173 C1174 1.351 . S
C1174 C1168 1.428 . S
C1174 N1173 1.351 . S
C1174 C1175 1.434 . S
C1175 C1166 1.429 1_655 S
C1175 N1172 1.350 . S
C1175 C1174 1.434 . S
C1176 C1177 1.369 1_655 S
C1176 C1178 1.419 . S
C1176 H1180 0.930 . S
C1177 C1176 1.369 1_455 S
C1177 C1186 1.429 . S
C1178 C1176 1.419 . S
C1178 C1179 1.363 . S
C1178 H1181 0.929 . S
C1179 C1178 1.363 . S
C1179 C1185 1.428 1_655 S
H1180 C1176 0.930 . S
H1181 C1178 0.929 . S
S1182 N1183 1.613 . S
S1182 N1184 1.610 . S
N1183 S1182 1.613 . S
N1183 C1186 1.350 . S
N1184 S1182 1.610 . S
N1184 C1185 1.351 . S
C1185 C1179 1.428 1_455 S
C1185 N1184 1.351 . S
C1185 C1186 1.434 . S
C1186 C1177 1.429 . S
C1186 N1183 1.350 . S
C1186 C1185 1.434 . S
C1187 C1188 1.369 1_455 S
C1187 C1189 1.419 . S
C1187 H1191 0.930 . S
C1188 C1187 1.369 1_655 S
C1188 C1197 1.429 . S
C1189 C1187 1.419 . S
C1189 C1190 1.363 . S
C1189 H1192 0.929 . S
C1190 C1189 1.363 . S
C1190 C1196 1.428 1_455 S
H1191 C1187 0.930 . S
H1192 C1189 0.929 . S
S1193 N1194 1.613 . S
S1193 N1195 1.610 . S
N1194 S1193 1.613 . S
N1194 C1197 1.350 . S
N1195 S1193 1.610 . S
N1195 C1196 1.351 . S
C1196 C1190 1.428 1_655 S
C1196 N1195 1.351 . S
C1196 C1197 1.434 . S
C1197 C1188 1.429 . S
C1197 N1194 1.350 . S
C1197 C1196 1.434 . S
C1198 C1199 1.369 . S
C1198 C1200 1.419 . S
C1198 H1202 0.930 . S
C1199 C1198 1.369 . S
C1199 C1208 1.429 . S
C1200 C1198 1.419 . S
C1200 C1201 1.363 . S
C1200 H1203 0.929 . S
C1201 C1200 1.363 . S
C1201 C1207 1.428 . S
H1202 C1198 0.930 . S
H1203 C1200 0.929 . S
S1204 N1205 1.613 . S
S1204 N1206 1.610 . S
N1205 S1204 1.613 . S
N1205 C1208 1.350 . S
N1206 S1204 1.610 . S
N1206 C1207 1.351 . S
C1207 C1201 1.428 . S
C1207 N1206 1.351 . S
C1207 C1208 1.434 . S
C1208 C1199 1.429 . S
C1208 N1205 1.350 . S
C1208 C1207 1.434 . S
C1209 C1210 1.369 . S
C1209 C1211 1.419 . S
C1209 H1213 0.930 . S
C1210 C1209 1.369 . S
C1210 C1219 1.429 . S
C1211 C1209 1.419 . S
C1211 C1212 1.363 . S
C1211 H1214 0.929 . S
C1212 C1211 1.363 . S
C1212 C1218 1.428 . S
H1213 C1209 0.930 . S
H1214 C1211 0.929 . S
S1215 N1216 1.613 . S
S1215 N1217 1.610 . S
N1216 S1215 1.613 . S
N1216 C1219 1.350 . S
N1217 S1215 1.610 . S
N1217 C1218 1.351 . S
C1218 C1212 1.428 . S
C1218 N1217 1.351 . S
C1218 C1219 1.434 . S
C1219 C1210 1.429 . S
C1219 N1216 1.350 . S
C1219 C1218 1.434 . S
C1220 C1221 1.369 . S
C1220 C1222 1.419 . S
C1220 H1224 0.930 . S
C1221 C1220 1.369 . S
C1221 C1230 1.429 1_455 S
C1222 C1220 1.419 . S
C1222 C1223 1.363 1_455 S
C1222 H1225 0.929 . S
C1223 C1222 1.363 1_655 S
C1223 C1229 1.428 . S
H1224 C1220 0.930 . S
H1225 C1222 0.929 . S
S1226 N1227 1.613 . S
S1226 N1228 1.610 . S
N1227 S1226 1.613 . S
N1227 C1230 1.350 . S
N1228 S1226 1.610 . S
N1228 C1229 1.351 . S
C1229 C1223 1.428 . S
C1229 N1228 1.351 . S
C1229 C1230 1.434 . S
C1230 C1221 1.429 1_655 S
C1230 N1227 1.350 . S
C1230 C1229 1.434 . S
C1231 C1232 1.369 . S
C1231 C1233 1.419 . S
C1231 H1235 0.930 . S
C1232 C1231 1.369 . S
C1232 C1241 1.429 . S
C1233 C1231 1.419 . S
C1233 C1234 1.363 . S
C1233 H1236 0.929 . S
C1234 C1233 1.363 . S
C1234 C1240 1.428 . S
H1235 C1231 0.930 . S
H1236 C1233 0.929 . S
S1237 N1238 1.613 . S
S1237 N1239 1.610 . S
N1238 S1237 1.613 . S
N1238 C1241 1.350 . S
N1239 S1237 1.610 . S
N1239 C1240 1.351 . S
C1240 C1234 1.428 . S
C1240 N1239 1.351 . S
C1240 C1241 1.434 . S
C1241 C1232 1.429 . S
C1241 N1238 1.350 . S
C1241 C1240 1.434 . S
C1242 C1243 1.369 . S
C1242 C1244 1.419 . S
C1242 H1246 0.930 . S
C1243 C1242 1.369 . S
C1243 C1252 1.429 . S
C1244 C1242 1.419 . S
C1244 C1245 1.363 . S
C1244 H1247 0.929 . S
C1245 C1244 1.363 . S
C1245 C1251 1.428 . S
H1246 C1242 0.930 . S
H1247 C1244 0.929 . S
S1248 N1249 1.613 . S
S1248 N1250 1.610 . S
N1249 S1248 1.613 . S
N1249 C1252 1.350 . S
N1250 S1248 1.610 . S
N1250 C1251 1.351 . S
C1251 C1245 1.428 . S
C1251 N1250 1.351 . S
C1251 C1252 1.434 . S
C1252 C1243 1.429 . S
C1252 N1249 1.350 . S
C1252 C1251 1.434 . S
C1253 C1254 1.369 . S
C1253 C1255 1.419 1_655 S
C1253 H1257 0.930 . S
C1254 C1253 1.369 . S
C1254 C1263 1.429 . S
C1255 C1253 1.419 1_455 S
C1255 C1256 1.363 . S
C1255 H1258 0.929 . S
C1256 C1255 1.363 . S
C1256 C1262 1.450 . S
H1257 C1253 0.930 . S
H1258 C1255 0.929 . S
S1259 N1260 1.613 . S
S1259 N1261 1.610 . S
N1260 S1259 1.613 . S
N1260 C1263 1.350 . S
N1261 S1259 1.610 . S
N1261 C1262 1.349 1_655 S
C1262 C1256 1.450 . S
C1262 N1261 1.349 1_455 S
C1262 C1263 1.412 1_455 S
C1263 C1254 1.429 . S
C1263 N1260 1.350 . S
C1263 C1262 1.412 1_655 S
C1264 C1265 1.369 . S
C1264 C1266 1.419 . S
C1264 H1268 0.930 . S
C1265 C1264 1.369 . S
C1265 C1274 1.429 . S
C1266 C1264 1.419 . S
C1266 C1267 1.363 . S
C1266 H1269 0.929 . S
C1267 C1266 1.363 . S
C1267 C1273 1.428 . S
H1268 C1264 0.930 . S
H1269 C1266 0.929 . S
S1270 N1271 1.613 . S
S1270 N1272 1.610 . S
N1271 S1270 1.613 . S
N1271 C1274 1.350 . S
N1272 S1270 1.610 . S
N1272 C1273 1.351 . S
C1273 C1267 1.428 . S
C1273 N1272 1.351 . S
C1273 C1274 1.434 . S
C1274 C1265 1.429 . S
C1274 N1271 1.350 . S
C1274 C1273 1.434 . S
C1275 C1276 1.369 1_455 S
C1275 C1277 1.419 1_545 S
C1275 H1279 0.930 . S
C1276 C1275 1.369 1_655 S
C1276 C1285 1.429 . S
C1277 C1275 1.419 1_565 S
C1277 C1278 1.363 . S
C1277 H1280 0.929 . S
C1278 C1277 1.363 . S
C1278 C1284 1.428 1_455 S
H1279 C1275 0.930 . S
H1280 C1277 0.929 . S
S1281 N1282 1.615 . S
S1281 N1283 1.609 1_545 S
N1282 S1281 1.615 . S
N1282 C1285 1.350 . S
N1283 S1281 1.609 1_565 S
N1283 C1284 1.351 . S
C1284 C1278 1.428 1_655 S
C1284 N1283 1.351 . S
C1284 C1285 1.434 1_565 S
C1285 C1276 1.429 . S
C1285 N1282 1.350 . S
C1285 C1284 1.434 1_545 S
C1286 C1287 1.369 . S
C1286 C1288 1.419 . S
C1286 H1290 0.930 . S
C1287 C1286 1.369 . S
C1287 C1296 1.429 . S
C1288 C1286 1.419 . S
C1288 C1289 1.363 . S
C1288 H1291 0.929 . S
C1289 C1288 1.363 . S
C1289 C1295 1.428 . S
H1290 C1286 0.930 . S
H1291 C1288 0.929 . S
S1292 N1293 1.613 . S
S1292 N1294 1.610 . S
N1293 S1292 1.613 . S
N1293 C1296 1.350 . S
N1294 S1292 1.610 . S
N1294 C1295 1.351 . S
C1295 C1289 1.428 . S
C1295 N1294 1.351 . S
C1295 C1296 1.434 . S
C1296 C1287 1.429 . S
C1296 N1293 1.350 . S
C1296 C1295 1.434 . S
C1297 C1298 1.369 . S
C1297 C1299 1.419 1_554 S
C1297 H1301 0.930 . S
C1298 C1297 1.369 . S
C1298 C1307 1.429 1_545 S
C1299 C1297 1.419 1_556 S
C1299 C1300 1.363 1_545 S
C1299 H1302 0.929 . S
C1300 C1299 1.363 1_565 S
C1300 C1306 1.428 . S
H1301 C1297 0.930 . S
H1302 C1299 0.929 . S
S1303 N1304 1.613 1_556 S
S1303 N1305 1.610 . S
N1304 S1303 1.613 1_554 S
N1304 C1307 1.350 . S
N1305 S1303 1.610 . S
N1305 C1306 1.351 . S
C1306 C1300 1.428 . S
C1306 N1305 1.351 . S
C1306 C1307 1.434 1_556 S
C1307 C1298 1.429 1_565 S
C1307 N1304 1.350 . S
C1307 C1306 1.434 1_554 S
C1308 C1309 1.369 . S
C1308 C1310 1.419 . S
C1308 H1312 0.930 . S
C1309 C1308 1.369 . S
C1309 C1318 1.429 . S
C1310 C1308 1.419 . S
C1310 C1311 1.363 . S
C1310 H1313 0.929 . S
C1311 C1310 1.363 . S
C1311 C1317 1.428 . S
H1312 C1308 0.930 . S
H1313 C1310 0.929 . S
S1314 N1315 1.613 . S
S1314 N1316 1.610 . S
N1315 S1314 1.613 . S
N1315 C1318 1.350 . S
N1316 S1314 1.610 . S
N1316 C1317 1.351 . S
C1317 C1311 1.428 . S
C1317 N1316 1.351 . S
C1317 C1318 1.434 . S
C1318 C1309 1.429 . S
C1318 N1315 1.350 . S
C1318 C1317 1.434 . S
C1319 C1320 1.369 1_565 S
C1319 C1321 1.419 . S
C1319 H1323 0.930 . S
C1320 C1319 1.369 1_545 S
C1320 C1329 1.429 . S
C1321 C1319 1.419 . S
C1321 C1322 1.363 . S
C1321 H1324 0.929 . S
C1322 C1321 1.363 . S
C1322 C1328 1.428 1_565 S
H1323 C1319 0.930 . S
H1324 C1321 0.929 . S
S1325 N1326 1.613 . S
S1325 N1327 1.610 . S
N1326 S1325 1.613 . S
N1326 C1329 1.350 . S
N1327 S1325 1.610 . S
N1327 C1328 1.351 . S
C1328 C1322 1.428 1_545 S
C1328 N1327 1.351 . S
C1328 C1329 1.434 . S
C1329 C1320 1.429 . S
C1329 N1326 1.350 . S
C1329 C1328 1.434 . S
C1330 C1331 1.369 . S
C1330 C1332 1.419 . S
C1330 H1334 0.930 . S
C1331 C1330 1.369 . S
C1331 C1340 1.429 . S
C1332 C1330 1.419 . S
C1332 C1333 1.363 . S
C1332 H1335 0.929 . S
C1333 C1332 1.363 . S
C1333 C1339 1.428 . S
H1334 C1330 0.930 . S
H1335 C1332 0.929 . S
S1336 N1337 1.613 . S
S1336 N1338 1.610 . S
N1337 S1336 1.613 . S
N1337 C1340 1.350 . S
N1338 S1336 1.610 . S
N1338 C1339 1.351 . S
C1339 C1333 1.428 . S
C1339 N1338 1.351 . S
C1339 C1340 1.434 . S
C1340 C1331 1.429 . S
C1340 N1337 1.350 . S
C1340 C1339 1.434 . S
C1341 C1342 1.369 1_554 S
C1341 C1343 1.419 . S
C1341 H1345 0.930 . S
C1342 C1341 1.369 1_556 S
C1342 C1351 1.429 1_445 S
C1343 C1341 1.419 . S
C1343 C1344 1.363 1_445 S
C1343 H1346 0.929 . S
C1344 C1343 1.363 1_665 S
C1344 C1350 1.428 1_554 S
H1345 C1341 0.930 . S
H1346 C1343 0.929 . S
S1347 N1348 1.613 . S
S1347 N1349 1.610 . S
N1348 S1347 1.613 . S
N1348 C1351 1.350 . S
N1349 S1347 1.610 . S
N1349 C1350 1.351 . S
C1350 C1344 1.428 1_556 S
C1350 N1349 1.351 . S
C1350 C1351 1.434 . S
C1351 C1342 1.429 1_665 S
C1351 N1348 1.350 . S
C1351 C1350 1.434 . S
C1352 C1353 1.369 . S
C1352 C1354 1.419 . S
C1352 H1356 0.930 . S
C1353 C1352 1.369 . S
C1353 C1362 1.429 . S
C1354 C1352 1.419 . S
C1354 C1355 1.363 . S
C1354 H1357 0.929 . S
C1355 C1354 1.363 . S
C1355 C1361 1.428 . S
H1356 C1352 0.930 . S
H1357 C1354 0.929 . S
S1358 N1359 1.613 . S
S1358 N1360 1.610 . S
N1359 S1358 1.613 . S
N1359 C1362 1.350 . S
N1360 S1358 1.610 . S
N1360 C1361 1.351 . S
C1361 C1355 1.428 . S
C1361 N1360 1.351 . S
C1361 C1362 1.434 . S
C1362 C1353 1.429 . S
C1362 N1359 1.350 . S
C1362 C1361 1.434 . S
C1363 C1364 1.369 . S
C1363 C1365 1.419 . S
C1363 H1367 0.930 . S
C1364 C1363 1.369 . S
C1364 C1373 1.429 . S
C1365 C1363 1.419 . S
C1365 C1366 1.363 . S
C1365 H1368 0.929 . S
C1366 C1365 1.363 . S
C1366 C1372 1.428 . S
H1367 C1363 0.930 . S
H1368 C1365 0.929 . S
S1369 N1370 1.613 . S
S1369 N1371 1.610 . S
N1370 S1369 1.613 . S
N1370 C1373 1.350 . S
N1371 S1369 1.610 . S
N1371 C1372 1.351 . S
C1372 C1366 1.428 . S
C1372 N1371 1.351 . S
C1372 C1373 1.434 . S
C1373 C1364 1.429 . S
C1373 N1370 1.350 . S
C1373 C1372 1.434 . S
C1374 C1375 1.369 . S
C1374 C1376 1.419 . S
C1374 H1378 0.930 . S
C1375 C1374 1.369 . S
C1375 C1384 1.429 . S
C1376 C1374 1.419 . S
C1376 C1377 1.363 . S
C1376 H1379 0.929 . S
C1377 C1376 1.363 . S
C1377 C1383 1.428 . S
H1378 C1374 0.930 . S
H1379 C1376 0.929 . S
S1380 N1381 1.613 . S
S1380 N1382 1.610 . S
N1381 S1380 1.613 . S
N1381 C1384 1.350 . S
N1382 S1380 1.610 . S
N1382 C1383 1.351 . S
C1383 C1377 1.428 . S
C1383 N1382 1.351 . S
C1383 C1384 1.434 . S
C1384 C1375 1.429 . S
C1384 N1381 1.350 . S
C1384 C1383 1.434 . S
C1385 C1386 1.369 . S
C1385 C1387 1.419 . S
C1385 H1389 0.930 . S
C1386 C1385 1.369 . S
C1386 C1395 1.429 . S
C1387 C1385 1.419 . S
C1387 C1388 1.363 . S
C1387 H1390 0.929 . S
C1388 C1387 1.363 . S
C1388 C1394 1.428 . S
H1389 C1385 0.930 . S
H1390 C1387 0.929 . S
S1391 N1392 1.613 . S
S1391 N1393 1.610 . S
N1392 S1391 1.613 . S
N1392 C1395 1.350 . S
N1393 S1391 1.610 . S
N1393 C1394 1.351 . S
C1394 C1388 1.428 . S
C1394 N1393 1.351 . S
C1394 C1395 1.434 . S
C1395 C1386 1.429 . S
C1395 N1392 1.350 . S
C1395 C1394 1.434 . S
C1396 C1397 1.369 . S
C1396 C1398 1.419 1_554 S
C1396 H1400 0.930 . S
C1397 C1396 1.369 . S
C1397 C1406 1.429 . S
C1398 C1396 1.419 1_556 S
C1398 C1399 1.363 . S
C1398 H1401 0.929 . S
C1399 C1398 1.363 . S
C1399 C1405 1.428 . S
H1400 C1396 0.930 . S
H1401 C1398 0.929 . S
S1402 N1403 1.613 1_556 S
S1402 N1404 1.610 . S
N1403 S1402 1.613 1_554 S
N1403 C1406 1.350 . S
N1404 S1402 1.610 . S
N1404 C1405 1.351 . S
C1405 C1399 1.428 . S
C1405 N1404 1.351 . S
C1405 C1406 1.434 1_556 S
C1406 C1397 1.429 . S
C1406 N1403 1.350 . S
C1406 C1405 1.434 1_554 S
C1407 C1408 1.369 . S
C1407 C1409 1.419 . S
C1407 H1411 0.930 . S
C1408 C1407 1.369 . S
C1408 C1417 1.429 1_655 S
C1409 C1407 1.419 . S
C1409 C1410 1.363 1_655 S
C1409 H1412 0.929 . S
C1410 C1409 1.363 1_455 S
C1410 C1416 1.428 . S
H1411 C1407 0.930 . S
H1412 C1409 0.929 . S
S1413 N1414 1.613 . S
S1413 N1415 1.610 . S
N1414 S1413 1.613 . S
N1414 C1417 1.350 . S
N1415 S1413 1.610 . S
N1415 C1416 1.351 . S
C1416 C1410 1.428 . S
C1416 N1415 1.351 . S
C1416 C1417 1.434 . S
C1417 C1408 1.429 1_455 S
C1417 N1414 1.350 . S
C1417 C1416 1.434 . S
C1418 C1419 1.369 1_655 S
C1418 C1420 1.419 1_554 S
C1418 H1422 0.930 . S
C1419 C1418 1.369 1_455 S
C1419 C1428 1.429 . S
C1420 C1418 1.419 1_556 S
C1420 C1421 1.363 . S
C1420 H1423 0.929 . S
C1421 C1420 1.363 . S
C1421 C1427 1.428 1_655 S
H1422 C1418 0.930 . S
H1423 C1420 0.929 . S
S1424 N1425 1.592 1_556 S
S1424 N1426 1.610 . S
N1425 S1424 1.592 1_554 S
N1425 C1428 1.351 . S
N1426 S1424 1.610 . S
N1426 C1427 1.351 . S
C1427 C1421 1.428 1_455 S
C1427 N1426 1.351 . S
C1427 C1428 1.434 1_556 S
C1428 C1419 1.429 . S
C1428 N1425 1.351 . S
C1428 C1427 1.434 1_554 S
C1429 C1430 1.369 . S
C1429 C1431 1.419 . S
C1429 H1433 0.930 . S
C1430 C1429 1.369 . S
C1430 C1439 1.429 . S
C1431 C1429 1.419 . S
C1431 C1432 1.363 . S
C1431 H1434 0.929 . S
C1432 C1431 1.363 . S
C1432 C1438 1.428 . S
H1433 C1429 0.930 . S
H1434 C1431 0.929 . S
S1435 N1436 1.613 . S
S1435 N1437 1.610 . S
N1436 S1435 1.613 . S
N1436 C1439 1.350 . S
N1437 S1435 1.610 . S
N1437 C1438 1.351 . S
C1438 C1432 1.428 . S
C1438 N1437 1.351 . S
C1438 C1439 1.434 . S
C1439 C1430 1.429 . S
C1439 N1436 1.350 . S
C1439 C1438 1.434 . S
C1440 C1441 1.369 . S
C1440 C1442 1.419 . S
C1440 H1444 0.930 . S
C1441 C1440 1.369 . S
C1441 C1450 1.429 . S
C1442 C1440 1.419 . S
C1442 C1443 1.363 1_545 S
C1442 H1445 0.929 . S
C1443 C1442 1.363 1_565 S
C1443 C1449 1.428 . S
H1444 C1440 0.930 . S
H1445 C1442 0.929 . S
S1446 N1447 1.613 . S
S1446 N1448 1.610 . S
N1447 S1446 1.613 . S
N1447 C1450 1.350 1_565 S
N1448 S1446 1.610 . S
N1448 C1449 1.351 . S
C1449 C1443 1.428 . S
C1449 N1448 1.351 . S
C1449 C1450 1.434 1_565 S
C1450 C1441 1.429 . S
C1450 N1447 1.350 1_545 S
C1450 C1449 1.434 1_545 S
C1451 C1452 1.369 . S
C1451 C1453 1.419 . S
C1451 H1455 0.930 . S
C1452 C1451 1.369 . S
C1452 C1461 1.429 . S
C1453 C1451 1.419 . S
C1453 C1454 1.363 1_545 S
C1453 H1456 0.929 . S
C1454 C1453 1.363 1_565 S
C1454 C1460 1.428 . S
H1455 C1451 0.930 . S
H1456 C1453 0.929 . S
S1457 N1458 1.613 . S
S1457 N1459 1.610 . S
N1458 S1457 1.613 . S
N1458 C1461 1.350 1_565 S
N1459 S1457 1.610 . S
N1459 C1460 1.351 . S
C1460 C1454 1.428 . S
C1460 N1459 1.351 . S
C1460 C1461 1.434 1_565 S
C1461 C1452 1.429 . S
C1461 N1458 1.350 1_545 S
C1461 C1460 1.434 1_545 S
C1462 C1463 1.369 1_565 S
C1462 C1464 1.419 . S
C1462 H1466 0.930 . S
C1463 C1462 1.369 1_545 S
C1463 C1472 1.429 . S
C1464 C1462 1.419 . S
C1464 C1465 1.363 . S
C1464 H1467 0.929 . S
C1465 C1464 1.363 . S
C1465 C1471 1.428 . S
H1466 C1462 0.930 . S
H1467 C1464 0.929 . S
S1468 N1469 1.613 . S
S1468 N1470 1.610 . S
N1469 S1468 1.613 . S
N1469 C1472 1.350 . S
N1470 S1468 1.610 . S
N1470 C1471 1.351 1_545 S
C1471 C1465 1.428 . S
C1471 N1470 1.351 1_565 S
C1471 C1472 1.434 1_565 S
C1472 C1463 1.429 . S
C1472 N1469 1.350 . S
C1472 C1471 1.434 1_545 S
C1473 C1474 1.369 . S
C1473 C1475 1.419 . S
C1473 H1477 0.930 . S
C1474 C1473 1.369 . S
C1474 C1483 1.429 . S
C1475 C1473 1.419 . S
C1475 C1476 1.363 1_565 S
C1475 H1478 0.929 . S
C1476 C1475 1.363 1_545 S
C1476 C1482 1.428 1_545 S
H1477 C1473 0.930 . S
H1478 C1475 0.929 . S
S1479 N1480 1.602 1_545 S
S1479 N1481 1.616 . S
N1480 S1479 1.602 1_565 S
N1480 C1483 1.350 . S
N1481 S1479 1.616 . S
N1481 C1482 1.351 1_545 S
C1482 C1476 1.428 1_565 S
C1482 N1481 1.351 1_565 S
C1482 C1483 1.434 . S
C1483 C1474 1.429 . S
C1483 N1480 1.350 . S
C1483 C1482 1.434 . S
C1484 C1485 1.369 . S
C1484 C1486 1.419 . S
C1484 H1488 0.930 . S
C1485 C1484 1.369 . S
C1485 C1494 1.429 . S
C1486 C1484 1.419 . S
C1486 C1487 1.363 1_565 S
C1486 H1489 0.929 . S
C1487 C1486 1.363 1_545 S
C1487 C1493 1.428 . S
H1488 C1484 0.930 . S
H1489 C1486 0.929 . S
S1490 N1491 1.613 . S
S1490 N1492 1.610 . S
N1491 S1490 1.613 . S
N1491 C1494 1.350 1_545 S
N1492 S1490 1.610 . S
N1492 C1493 1.351 . S
C1493 C1487 1.428 . S
C1493 N1492 1.351 . S
C1493 C1494 1.434 1_545 S
C1494 C1485 1.429 . S
C1494 N1491 1.350 1_565 S
C1494 C1493 1.434 1_565 S
C1495 C1496 1.368 1_565 S
C1495 C1497 1.419 . S
C1495 H1499 0.930 1_565 S
C1496 C1495 1.368 1_545 S
C1496 C1505 1.418 1_545 S
C1497 C1495 1.419 . S
C1497 C1498 1.363 . S
C1497 H1500 0.929 . S
C1498 C1497 1.363 . S
C1498 C1504 1.428 . S
H1499 C1495 0.930 1_545 S
H1500 C1497 0.929 . S
S1501 N1502 1.613 . S
S1501 N1503 1.610 . S
N1502 S1501 1.613 . S
N1502 C1505 1.350 . S
N1503 S1501 1.610 . S
N1503 C1504 1.351 . S
C1504 C1498 1.428 . S
C1504 N1503 1.351 . S
C1504 C1505 1.434 . S
C1505 C1496 1.418 1_565 S
C1505 N1502 1.350 . S
C1505 C1504 1.434 . S
C1506 C1507 1.369 1_545 S
C1506 C1508 1.419 . S
C1506 H1510 0.930 . S
C1507 C1506 1.369 1_565 S
C1507 C1516 1.429 . S
C1508 C1506 1.419 . S
C1508 C1509 1.363 . S
C1508 H1511 0.929 . S
C1509 C1508 1.363 . S
C1509 C1515 1.428 . S
H1510 C1506 0.930 . S
H1511 C1508 0.929 . S
S1512 N1513 1.613 . S
S1512 N1514 1.610 . S
N1513 S1512 1.613 . S
N1513 C1516 1.350 . S
N1514 S1512 1.610 . S
N1514 C1515 1.351 1_565 S
C1515 C1509 1.428 . S
C1515 N1514 1.351 1_545 S
C1515 C1516 1.434 1_545 S
C1516 C1507 1.429 . S
C1516 N1513 1.350 . S
C1516 C1515 1.434 1_565 S
C1517 C1518 1.369 . S
C1517 C1519 1.405 1_565 S
C1517 H1521 0.945 . S
C1518 C1517 1.369 . S
C1518 C1527 1.417 1_565 S
C1519 C1517 1.405 1_545 S
C1519 C1520 1.363 . S
C1519 H1522 0.929 . S
C1520 C1519 1.363 . S
C1520 C1526 1.428 . S
H1521 C1517 0.945 . S
H1522 C1519 0.929 . S
S1523 N1524 1.613 . S
S1523 N1525 1.610 . S
N1524 S1523 1.613 . S
N1524 C1527 1.350 . S
N1525 S1523 1.610 . S
N1525 C1526 1.351 . S
C1526 C1520 1.428 . S
C1526 N1525 1.351 . S
C1526 C1527 1.434 . S
C1527 C1518 1.417 1_545 S
C1527 N1524 1.350 . S
C1527 C1526 1.434 . S
C1528 C1529 1.369 . S
C1528 C1530 1.419 . S
C1528 H1532 0.930 . S
C1529 C1528 1.369 . S
C1529 C1538 1.429 . S
C1530 C1528 1.419 . S
C1530 C1531 1.363 . S
C1530 H1533 0.929 . S
C1531 C1530 1.363 . S
C1531 C1537 1.428 . S
H1532 C1528 0.930 . S
H1533 C1530 0.929 . S
S1534 N1535 1.613 . S
S1534 N1536 1.610 . S
N1535 S1534 1.613 . S
N1535 C1538 1.350 . S
N1536 S1534 1.610 . S
N1536 C1537 1.351 . S
C1537 C1531 1.428 . S
C1537 N1536 1.351 . S
C1537 C1538 1.434 . S
C1538 C1529 1.429 . S
C1538 N1535 1.350 . S
C1538 C1537 1.434 . S
C1539 C1540 1.369 . S
C1539 C1541 1.419 . S
C1539 H1543 0.930 . S
C1540 C1539 1.369 . S
C1540 C1549 1.429 . S
C1541 C1539 1.419 . S
C1541 C1542 1.363 . S
C1541 H1544 0.929 . S
C1542 C1541 1.363 . S
C1542 C1548 1.428 . S
H1543 C1539 0.930 . S
H1544 C1541 0.929 . S
S1545 N1546 1.613 . S
S1545 N1547 1.610 . S
N1546 S1545 1.613 . S
N1546 C1549 1.350 . S
N1547 S1545 1.610 . S
N1547 C1548 1.351 . S
C1548 C1542 1.428 . S
C1548 N1547 1.351 . S
C1548 C1549 1.434 . S
C1549 C1540 1.429 . S
C1549 N1546 1.350 . S
C1549 C1548 1.434 . S
C1550 C1551 1.369 . S
C1550 C1552 1.419 . S
C1550 H1554 0.930 . S
C1551 C1550 1.369 . S
C1551 C1560 1.429 . S
C1552 C1550 1.419 . S
C1552 C1553 1.363 . S
C1552 H1555 0.929 . S
C1553 C1552 1.363 . S
C1553 C1559 1.428 . S
H1554 C1550 0.930 . S
H1555 C1552 0.929 . S
S1556 N1557 1.613 . S
S1556 N1558 1.610 . S
N1557 S1556 1.613 . S
N1557 C1560 1.350 . S
N1558 S1556 1.610 . S
N1558 C1559 1.351 . S
C1559 C1553 1.428 . S
C1559 N1558 1.351 . S
C1559 C1560 1.434 . S
C1560 C1551 1.429 . S
C1560 N1557 1.350 . S
C1560 C1559 1.434 . S
C1561 C1562 1.369 . S
C1561 C1563 1.419 . S
C1561 H1565 0.930 . S
C1562 C1561 1.369 . S
C1562 C1571 1.429 . S
C1563 C1561 1.419 . S
C1563 C1564 1.363 . S
C1563 H1566 0.929 . S
C1564 C1563 1.363 . S
C1564 C1570 1.428 . S
H1565 C1561 0.930 . S
H1566 C1563 0.929 . S
S1567 N1568 1.613 . S
S1567 N1569 1.610 . S
N1568 S1567 1.613 . S
N1568 C1571 1.350 . S
N1569 S1567 1.610 . S
N1569 C1570 1.351 . S
C1570 C1564 1.428 . S
C1570 N1569 1.351 . S
C1570 C1571 1.434 . S
C1571 C1562 1.429 . S
C1571 N1568 1.350 . S
C1571 C1570 1.434 . S
C1572 C1573 1.369 . S
C1572 C1574 1.419 . S
C1572 H1576 0.930 . S
C1573 C1572 1.369 . S
C1573 C1582 1.429 . S
C1574 C1572 1.419 . S
C1574 C1575 1.363 . S
C1574 H1577 0.929 . S
C1575 C1574 1.363 . S
C1575 C1581 1.428 . S
H1576 C1572 0.930 . S
H1577 C1574 0.929 . S
S1578 N1579 1.613 . S
S1578 N1580 1.610 . S
N1579 S1578 1.613 . S
N1579 C1582 1.350 . S
N1580 S1578 1.610 . S
N1580 C1581 1.351 . S
C1581 C1575 1.428 . S
C1581 N1580 1.351 . S
C1581 C1582 1.434 . S
C1582 C1573 1.429 . S
C1582 N1579 1.350 . S
C1582 C1581 1.434 . S
C1583 C1584 1.369 . S
C1583 C1585 1.419 . S
C1583 H1587 0.930 . S
C1584 C1583 1.369 . S
C1584 C1593 1.429 . S
C1585 C1583 1.419 . S
C1585 C1586 1.363 . S
C1585 H1588 0.929 . S
C1586 C1585 1.363 . S
C1586 C1592 1.428 . S
H1587 C1583 0.930 . S
H1588 C1585 0.929 . S
S1589 N1590 1.613 . S
S1589 N1591 1.610 . S
N1590 S1589 1.613 . S
N1590 C1593 1.350 . S
N1591 S1589 1.610 . S
N1591 C1592 1.351 . S
C1592 C1586 1.428 . S
C1592 N1591 1.351 . S
C1592 C1593 1.434 . S
C1593 C1584 1.429 . S
C1593 N1590 1.350 . S
C1593 C1592 1.434 . S
C1594 C1595 1.369 . S
C1594 C1596 1.419 . S
C1594 H1598 0.930 . S
C1595 C1594 1.369 . S
C1595 C1604 1.429 . S
C1596 C1594 1.419 . S
C1596 C1597 1.363 . S
C1596 H1599 0.929 . S
C1597 C1596 1.363 . S
C1597 C1603 1.428 . S
H1598 C1594 0.930 . S
H1599 C1596 0.929 . S
S1600 N1601 1.613 . S
S1600 N1602 1.610 . S
N1601 S1600 1.613 . S
N1601 C1604 1.350 . S
N1602 S1600 1.610 . S
N1602 C1603 1.351 . S
C1603 C1597 1.428 . S
C1603 N1602 1.351 . S
C1603 C1604 1.434 . S
C1604 C1595 1.429 . S
C1604 N1601 1.350 . S
C1604 C1603 1.434 . S
C1605 C1606 1.369 . S
C1605 C1607 1.419 . S
C1605 H1609 0.930 . S
C1606 C1605 1.369 . S
C1606 C1615 1.429 . S
C1607 C1605 1.419 . S
C1607 C1608 1.363 . S
C1607 H1610 0.929 . S
C1608 C1607 1.363 . S
C1608 C1614 1.428 . S
H1609 C1605 0.930 . S
H1610 C1607 0.929 . S
S1611 N1612 1.613 . S
S1611 N1613 1.610 . S
N1612 S1611 1.613 . S
N1612 C1615 1.350 . S
N1613 S1611 1.610 . S
N1613 C1614 1.351 . S
C1614 C1608 1.428 . S
C1614 N1613 1.351 . S
C1614 C1615 1.434 . S
C1615 C1606 1.429 . S
C1615 N1612 1.350 . S
C1615 C1614 1.434 . S
C1616 C1617 1.369 . S
C1616 C1618 1.419 1_545 S
C1616 H1620 0.930 . S
C1617 C1616 1.369 . S
C1617 C1626 1.429 . S
C1618 C1616 1.419 1_565 S
C1618 C1619 1.363 . S
C1618 H1621 0.929 . S
C1619 C1618 1.363 . S
C1619 C1625 1.428 . S
H1620 C1616 0.930 . S
H1621 C1618 0.929 . S
S1622 N1623 1.613 . S
S1622 N1624 1.610 1_545 S
N1623 S1622 1.613 . S
N1623 C1626 1.350 . S
N1624 S1622 1.610 1_565 S
N1624 C1625 1.351 . S
C1625 C1619 1.428 . S
C1625 N1624 1.351 . S
C1625 C1626 1.434 1_565 S
C1626 C1617 1.429 . S
C1626 N1623 1.350 . S
C1626 C1625 1.434 1_545 S
C1627 C1628 1.369 . S
C1627 C1629 1.419 . S
C1627 H1631 0.930 . S
C1628 C1627 1.369 . S
C1628 C1637 1.429 . S
C1629 C1627 1.419 . S
C1629 C1630 1.363 . S
C1629 H1632 0.929 . S
C1630 C1629 1.363 . S
C1630 C1636 1.428 . S
H1631 C1627 0.930 . S
H1632 C1629 0.929 . S
S1633 N1634 1.613 . S
S1633 N1635 1.610 . S
N1634 S1633 1.613 . S
N1634 C1637 1.350 . S
N1635 S1633 1.610 . S
N1635 C1636 1.351 . S
C1636 C1630 1.428 . S
C1636 N1635 1.351 . S
C1636 C1637 1.434 . S
C1637 C1628 1.429 . S
C1637 N1634 1.350 . S
C1637 C1636 1.434 . S
C1638 C1639 1.369 . S
C1638 C1640 1.419 . S
C1638 H1642 0.930 . S
C1639 C1638 1.369 . S
C1639 C1648 1.429 1_545 S
C1640 C1638 1.419 . S
C1640 C1641 1.363 1_545 S
C1640 H1643 0.929 . S
C1641 C1640 1.363 1_565 S
C1641 C1647 1.428 . S
H1642 C1638 0.930 . S
H1643 C1640 0.929 . S
S1644 N1645 1.613 . S
S1644 N1646 1.610 . S
N1645 S1644 1.613 . S
N1645 C1648 1.350 . S
N1646 S1644 1.610 . S
N1646 C1647 1.351 . S
C1647 C1641 1.428 . S
C1647 N1646 1.351 . S
C1647 C1648 1.434 . S
C1648 C1639 1.429 1_565 S
C1648 N1645 1.350 . S
C1648 C1647 1.434 . S
C1649 C1650 1.369 . S
C1649 C1651 1.419 . S
C1649 H1653 0.930 . S
C1650 C1649 1.369 . S
C1650 C1659 1.429 1_556 S
C1651 C1649 1.419 . S
C1651 C1652 1.363 1_556 S
C1651 H1654 0.929 . S
C1652 C1651 1.363 1_554 S
C1652 C1658 1.428 . S
H1653 C1649 0.930 . S
H1654 C1651 0.929 . S
S1655 N1656 1.613 . S
S1655 N1657 1.610 . S
N1656 S1655 1.613 . S
N1656 C1659 1.350 . S
N1657 S1655 1.610 . S
N1657 C1658 1.351 . S
C1658 C1652 1.428 . S
C1658 N1657 1.351 . S
C1658 C1659 1.434 . S
C1659 C1650 1.429 1_554 S
C1659 N1656 1.350 . S
C1659 C1658 1.434 . S
C1660 C1661 1.369 . S
C1660 C1662 1.419 1_565 S
C1660 H1664 0.930 . S
C1661 C1660 1.369 . S
C1661 C1670 1.429 . S
C1662 C1660 1.419 1_545 S
C1662 C1663 1.363 . S
C1662 H1665 0.929 . S
C1663 C1662 1.363 . S
C1663 C1669 1.428 . S
H1664 C1660 0.930 . S
H1665 C1662 0.929 . S
S1666 N1667 1.613 . S
S1666 N1668 1.610 . S
N1667 S1666 1.613 . S
N1667 C1670 1.350 . S
N1668 S1666 1.610 . S
N1668 C1669 1.351 1_565 S
C1669 C1663 1.428 . S
C1669 N1668 1.351 1_545 S
C1669 C1670 1.434 1_545 S
C1670 C1661 1.429 . S
C1670 N1667 1.350 . S
C1670 C1669 1.434 1_565 S
C1671 C1672 1.369 . S
C1671 C1673 1.419 . S
C1671 H1675 0.930 . S
C1672 C1671 1.369 . S
C1672 C1681 1.429 . S
C1673 C1671 1.419 . S
C1673 C1674 1.363 . S
C1673 H1676 0.929 . S
C1674 C1673 1.363 . S
C1674 C1680 1.428 . S
H1675 C1671 0.930 . S
H1676 C1673 0.929 . S
S1677 N1678 1.613 . S
S1677 N1679 1.610 . S
N1678 S1677 1.613 . S
N1678 C1681 1.350 . S
N1679 S1677 1.610 . S
N1679 C1680 1.351 . S
C1680 C1674 1.428 . S
C1680 N1679 1.351 . S
C1680 C1681 1.434 . S
C1681 C1672 1.429 . S
C1681 N1678 1.350 . S
C1681 C1680 1.434 . S
C1682 C1683 1.369 . S
C1682 C1684 1.419 1_565 S
C1682 H1686 0.931 . S
C1683 C1682 1.369 . S
C1683 C1692 1.429 . S
C1684 C1682 1.419 1_545 S
C1684 C1685 1.363 . S
C1684 H1687 0.929 . S
C1685 C1684 1.363 . S
C1685 C1691 1.427 1_545 S
H1686 C1682 0.931 . S
H1687 C1684 0.929 . S
S1688 N1689 1.613 . S
S1688 N1690 1.610 . S
N1689 S1688 1.613 . S
N1689 C1692 1.350 . S
N1690 S1688 1.610 . S
N1690 C1691 1.351 . S
C1691 C1685 1.427 1_565 S
C1691 N1690 1.351 . S
C1691 C1692 1.436 . S
C1692 C1683 1.429 . S
C1692 N1689 1.350 . S
C1692 C1691 1.436 . S
C1693 C1694 1.369 . S
C1693 C1695 1.419 1_554 S
C1693 H1697 0.930 . S
C1694 C1693 1.369 . S
C1694 C1703 1.429 . S
C1695 C1693 1.419 1_556 S
C1695 C1696 1.363 . S
C1695 H1698 0.929 . S
C1696 C1695 1.363 . S
C1696 C1702 1.428 . S
H1697 C1693 0.930 . S
H1698 C1695 0.929 . S
S1699 N1700 1.613 1_546 S
S1699 N1701 1.610 1_545 S
N1700 S1699 1.613 1_564 S
N1700 C1703 1.350 . S
N1701 S1699 1.610 1_565 S
N1701 C1702 1.351 . S
C1702 C1696 1.428 . S
C1702 N1701 1.351 . S
C1702 C1703 1.434 1_556 S
C1703 C1694 1.429 . S
C1703 N1700 1.350 . S
C1703 C1702 1.434 1_554 S
C1704 C1705 1.369 . S
C1704 C1706 1.419 . S
C1704 H1708 0.930 . S
C1705 C1704 1.369 . S
C1705 C1714 1.429 . S
C1706 C1704 1.419 . S
C1706 C1707 1.363 . S
C1706 H1709 0.929 . S
C1707 C1706 1.363 . S
C1707 C1713 1.428 . S
H1708 C1704 0.930 . S
H1709 C1706 0.929 . S
S1710 N1711 1.613 . S
S1710 N1712 1.610 . S
N1711 S1710 1.613 . S
N1711 C1714 1.350 . S
N1712 S1710 1.610 . S
N1712 C1713 1.351 . S
C1713 C1707 1.428 . S
C1713 N1712 1.351 . S
C1713 C1714 1.434 . S
C1714 C1705 1.429 . S
C1714 N1711 1.350 . S
C1714 C1713 1.434 . S
C1715 C1716 1.369 1_554 S
C1715 C1717 1.419 . S
C1715 H1719 0.930 . S
C1716 C1715 1.369 1_556 S
C1716 C1725 1.429 . S
C1717 C1715 1.419 . S
C1717 C1718 1.363 . S
C1717 H1720 0.929 . S
C1718 C1717 1.363 . S
C1718 C1724 1.428 1_554 S
H1719 C1715 0.930 . S
H1720 C1717 0.929 . S
S1721 N1722 1.613 . S
S1721 N1723 1.610 . S
N1722 S1721 1.613 . S
N1722 C1725 1.350 . S
N1723 S1721 1.610 . S
N1723 C1724 1.351 . S
C1724 C1718 1.428 1_556 S
C1724 N1723 1.351 . S
C1724 C1725 1.434 . S
C1725 C1716 1.429 . S
C1725 N1722 1.350 . S
C1725 C1724 1.434 . S
C1726 C1727 1.369 . S
C1726 C1728 1.419 . S
C1726 H1730 0.930 . S
C1727 C1726 1.369 . S
C1727 C1736 1.429 . S
C1728 C1726 1.419 . S
C1728 C1729 1.363 . S
C1728 H1731 0.929 . S
C1729 C1728 1.363 . S
C1729 C1735 1.428 . S
H1730 C1726 0.930 . S
H1731 C1728 0.929 . S
S1732 N1733 1.613 . S
S1732 N1734 1.610 . S
N1733 S1732 1.613 . S
N1733 C1736 1.350 . S
N1734 S1732 1.610 . S
N1734 C1735 1.351 . S
C1735 C1729 1.428 . S
C1735 N1734 1.351 . S
C1735 C1736 1.434 . S
C1736 C1727 1.429 . S
C1736 N1733 1.350 . S
C1736 C1735 1.434 . S
C1737 C1738 1.369 . S
C1737 C1739 1.419 . S
C1737 H1741 0.930 . S
C1738 C1737 1.369 . S
C1738 C1747 1.429 . S
C1739 C1737 1.419 . S
C1739 C1740 1.363 . S
C1739 H1742 0.929 . S
C1740 C1739 1.363 . S
C1740 C1746 1.428 . S
H1741 C1737 0.930 . S
H1742 C1739 0.929 . S
S1743 N1744 1.613 . S
S1743 N1745 1.610 . S
N1744 S1743 1.613 . S
N1744 C1747 1.350 . S
N1745 S1743 1.610 . S
N1745 C1746 1.351 . S
C1746 C1740 1.428 . S
C1746 N1745 1.351 . S
C1746 C1747 1.434 . S
C1747 C1738 1.429 . S
C1747 N1744 1.350 . S
C1747 C1746 1.434 . S
C1748 C1749 1.369 . S
C1748 C1750 1.419 . S
C1748 H1752 0.930 . S
C1749 C1748 1.369 . S
C1749 C1758 1.429 . S
C1750 C1748 1.419 . S
C1750 C1751 1.363 . S
C1750 H1753 0.929 . S
C1751 C1750 1.363 . S
C1751 C1757 1.428 . S
H1752 C1748 0.930 . S
H1753 C1750 0.929 . S
S1754 N1755 1.613 . S
S1754 N1756 1.610 . S
N1755 S1754 1.613 . S
N1755 C1758 1.350 . S
N1756 S1754 1.610 . S
N1756 C1757 1.351 . S
C1757 C1751 1.428 . S
C1757 N1756 1.351 . S
C1757 C1758 1.434 . S
C1758 C1749 1.429 . S
C1758 N1755 1.350 . S
C1758 C1757 1.434 . S
C1759 C1760 1.369 1_554 S
C1759 C1761 1.419 . S
C1759 H1763 0.930 . S
C1760 C1759 1.369 1_556 S
C1760 C1769 1.429 . S
C1761 C1759 1.419 . S
C1761 C1762 1.363 . S
C1761 H1764 0.929 . S
C1762 C1761 1.363 . S
C1762 C1768 1.428 1_554 S
H1763 C1759 0.930 . S
H1764 C1761 0.929 . S
S1765 N1766 1.613 . S
S1765 N1767 1.610 . S
N1766 S1765 1.613 . S
N1766 C1769 1.350 . S
N1767 S1765 1.610 . S
N1767 C1768 1.351 . S
C1768 C1762 1.428 1_556 S
C1768 N1767 1.351 . S
C1768 C1769 1.434 . S
C1769 C1760 1.429 . S
C1769 N1766 1.350 . S
C1769 C1768 1.434 . S
C1770 C1771 1.369 . S
C1770 C1772 1.419 . S
C1770 H1774 0.930 . S
C1771 C1770 1.369 . S
C1771 C1780 1.429 . S
C1772 C1770 1.419 . S
C1772 C1773 1.363 . S
C1772 H1775 0.929 . S
C1773 C1772 1.363 . S
C1773 C1779 1.428 . S
H1774 C1770 0.930 . S
H1775 C1772 0.929 . S
S1776 N1777 1.613 . S
S1776 N1778 1.610 . S
N1777 S1776 1.613 . S
N1777 C1780 1.350 . S
N1778 S1776 1.610 . S
N1778 C1779 1.351 . S
C1779 C1773 1.428 . S
C1779 N1778 1.351 . S
C1779 C1780 1.434 . S
C1780 C1771 1.429 . S
C1780 N1777 1.350 . S
C1780 C1779 1.434 . S
C1781 C1782 1.369 . S
C1781 C1783 1.419 . S
C1781 H1785 0.930 . S
C1782 C1781 1.369 . S
C1782 C1791 1.429 . S
C1783 C1781 1.419 . S
C1783 C1784 1.363 . S
C1783 H1786 0.929 . S
C1784 C1783 1.363 . S
C1784 C1790 1.428 . S
H1785 C1781 0.930 . S
H1786 C1783 0.929 . S
S1787 N1788 1.613 . S
S1787 N1789 1.610 . S
N1788 S1787 1.613 . S
N1788 C1791 1.350 . S
N1789 S1787 1.610 . S
N1789 C1790 1.351 . S
C1790 C1784 1.428 . S
C1790 N1789 1.351 . S
C1790 C1791 1.434 . S
C1791 C1782 1.429 . S
C1791 N1788 1.350 . S
C1791 C1790 1.434 . S
C737 C20 0.916 . S
C739 C637 0.958 . S
C748 C43 0.906 1_655 S
C750 C200 0.962 . S
C759 C66 0.932 . S
C761 C591 0.964 . S
C770 C246 0.965 . S
C772 C89 0.930 . S
C781 C112 0.927 . S
C783 C683 0.961 . S
C792 C338 0.963 . S
C794 C135 0.929 . S
C803 C729 0.962 . S
C805 C158 0.923 . S
C814 C181 0.933 1_655 S
C816 C292 0.964 . S
C825 C204 0.918 . S
C827 C453 0.960 . S
C836 C227 0.933 1_455 S
C838 C16 0.964 . S
C847 C407 0.962 . S
C849 C250 0.924 . S
C858 C62 0.963 . S
C860 C273 0.927 . S
C869 C296 0.919 . S
C871 C499 0.960 . S
C880 C319 0.919 . S
C882 C154 0.959 . S
C891 C342 0.920 . S
C893 C545 0.960 . S
C902 C108 0.958 . S
C904 C365 0.919 1_455 S
C913 C269 0.958 . S
C915 C388 0.917 . S
C924 C568 0.962 . S
C926 C411 0.923 . S
C935 C223 0.964 . S
C937 C434 0.927 . S
C946 C457 0.897 1_455 S
C948 C614 0.960 . S
C957 C315 0.963 . S
C959 C480 0.929 . S
C968 C706 0.963 . S
C970 C503 0.904 1_455 S
C979 C361 0.964 . S
C981 C526 0.927 . S
C990 C549 0.931 . S
C992 C660 0.964 . S
C1001 C572 0.933 . S
C1003 C85 0.964 . S
C1012 C595 0.918 . S
C1014 C384 0.959 . S
C1023 C618 0.933 . S
C1025 C39 0.964 . S
C1034 C641 0.922 1_655 S
C1036 C430 0.960 . S
C1045 C131 0.959 . S
C1047 C664 0.920 . S
C1056 C522 0.964 . S
C1058 C687 0.930 1_655 S
C1067 C710 0.933 . S
C1069 C177 0.964 . S
C1078 C733 0.931 . S
C1080 C476 0.964 . S
C1089 C21 1.400 . S
C1091 C435 1.393 . S
C1100 C458 1.399 . S
C1102 C44 1.393 . S
C1111 C67 1.399 . S
C1113 C389 1.393 . S
C1122 C90 1.400 . S
C1124 C412 1.393 . S
C1133 C527 1.396 . S
C1135 C113 1.396 . S
C1144 C136 1.400 . S
C1146 C550 1.392 . S
C1155 C481 1.400 . S
C1157 C159 1.392 . S
C1166 C182 1.391 . S
C1168 C504 1.399 . S
C1177 C619 1.395 . S
C1179 C205 1.397 . S
C1188 C228 1.400 . S
C1190 C642 1.392 . S
C1199 C251 1.397 . S
C1201 C573 1.394 . S
C1210 C274 1.400 . S
C1212 C596 1.392 . S
C1221 C711 1.397 . S
C1223 C297 1.394 . S
C1232 C734 1.400 . S
C1234 C320 1.392 . S
C1243 C343 1.400 . S
C1245 C665 1.392 . S
C1254 C366 1.397 . S
C1256 C688 1.394 . S
C1265 C17 1.585 . S
C1267 C569 1.581 . S
C1276 C224 1.583 . S
C1278 C40 1.583 . S
C1287 C63 1.582 . S
C1289 C615 1.583 . S
C1298 C86 1.586 . S
C1300 C270 1.580 . S
C1309 C661 1.580 . S
C1311 C109 1.585 . S
C1320 C316 1.580 . S
C1322 C132 1.585 . S
C1331 C155 1.582 . S
C1333 C707 1.583 . S
C1342 C178 1.582 . S
C1344 C362 1.583 . S
C1353 C385 1.579 . S
C1355 C201 1.585 . S
C1364 C431 1.586 . S
C1366 C247 1.580 . S
C1375 C477 1.580 . S
C1377 C293 1.585 . S
C1386 C339 1.585 . S
C1388 C523 1.580 . S
C1397 C408 1.580 . S
C1399 C592 1.585 . S
C1408 C454 1.581 . S
C1410 C638 1.583 . S
C1419 C684 1.585 . S
C1421 C500 1.580 . S
C1430 C730 1.586 . S
C1432 C546 1.580 . S
C1441 C18 1.718 . S
C1443 C133 1.719 . S
C1452 C156 1.718 . S
C1454 C41 1.719 . S
C1463 C179 1.716 . S
C1465 C64 1.719 . S
C1474 C110 1.716 . S
C1476 C87 1.719 . S
C1485 C202 1.720 . S
C1487 C317 1.717 . S
C1496 C225 1.729 . S
C1498 C340 1.715 . S
C1507 C363 1.718 . S
C1509 C248 1.719 . S
C1518 C271 1.728 . S
C1520 C294 1.715 . S
C1529 C386 1.717 . S
C1531 C501 1.714 . S
C1540 C409 1.713 . S
C1542 C524 1.716 . S
C1551 C432 1.715 . S
C1553 C547 1.714 . S
C1562 C478 1.718 . S
C1564 C455 1.719 . S
C1573 C570 1.715 . S
C1575 C685 1.714 . S
C1584 C593 1.718 . S
C1586 C708 1.714 . S
C1595 C731 1.719 . S
C1597 C616 1.716 . S
C1606 C639 1.718 . S
C1608 C662 1.719 . S
C1617 C19 1.480 . S
C1619 C111 1.476 . S
C1628 C42 1.473 . S
C1630 C134 1.481 . S
C1639 C157 1.474 . S
C1641 C65 1.481 . S
C1650 C180 1.482 . S
C1652 C88 1.474 . S
C1661 C203 1.480 . S
C1663 C295 1.476 . S
C1672 C318 1.473 . S
C1674 C226 1.481 . S
C1683 C341 1.482 . S
C1685 C249 1.474 . S
C1694 C364 1.477 . S
C1696 C272 1.478 . S
C1705 C387 1.473 . S
C1707 C479 1.481 . S
C1716 C502 1.473 . S
C1718 C410 1.481 . S
C1727 C433 1.476 . S
C1729 C525 1.478 . S
C1738 C548 1.477 . S
C1740 C456 1.479 . S
C1749 C663 1.473 . S
C1751 C571 1.481 . S
C1760 C594 1.473 . S
C1762 C686 1.481 . S
C1771 C617 1.478 . S
C1773 C709 1.478 . S
C1782 C640 1.475 . S
C1784 C732 1.480 . S
