# Generated by pormake.
# Topology vbm, (6)-cn, num edge types: 1
# Building blocks:
#     Node 0, Type 0, BuildingBlock: CUWYAW_clean_sbu_0, # of connection points: 6
#     Node 1, Type 0, BuildingBlock: CUWYAW_clean_sbu_0, # of connection points: 6
#     Node 2, Type 0, BuildingBlock: CUWYAW_clean_sbu_0, # of connection points: 6
#     Node 3, Type 0, BuildingBlock: CUWYAW_clean_sbu_0, # of connection points: 6
#     Node 4, Type 0, BuildingBlock: CUWYAW_clean_sbu_0, # of connection points: 6
#     Node 5, Type 0, BuildingBlock: CUWYAW_clean_sbu_0, # of connection points: 6
#     Node 6, Type 0, BuildingBlock: CUWYAW_clean_sbu_0, # of connection points: 6
#     Node 7, Type 0, BuildingBlock: CUWYAW_clean_sbu_0, # of connection points: 6
#     Node 8, Type 0, BuildingBlock: CUWYAW_clean_sbu_0, # of connection points: 6
#     Node 9, Type 0, BuildingBlock: CUWYAW_clean_sbu_0, # of connection points: 6
#     Node 10, Type 0, BuildingBlock: CUWYAW_clean_sbu_0, # of connection points: 6
#     Node 11, Type 0, BuildingBlock: CUWYAW_clean_sbu_0, # of connection points: 6
#     Node 12, Type 0, BuildingBlock: CUWYAW_clean_sbu_0, # of connection points: 6
#     Node 13, Type 0, BuildingBlock: CUWYAW_clean_sbu_0, # of connection points: 6
#     Node 14, Type 0, BuildingBlock: CUWYAW_clean_sbu_0, # of connection points: 6
#     Node 15, Type 0, BuildingBlock: CUWYAW_clean_sbu_0, # of connection points: 6
#     Edge 16, Type (0, 0), BuildingBlock: XIVTED_clean_linker_0, # of connection points: 2
#     Edge 17, Type (0, 0), BuildingBlock: XIVTED_clean_linker_0, # of connection points: 2
#     Edge 18, Type (0, 0), BuildingBlock: XIVTED_clean_linker_0, # of connection points: 2
#     Edge 19, Type (0, 0), BuildingBlock: XIVTED_clean_linker_0, # of connection points: 2
#     Edge 20, Type (0, 0), BuildingBlock: XIVTED_clean_linker_0, # of connection points: 2
#     Edge 21, Type (0, 0), BuildingBlock: XIVTED_clean_linker_0, # of connection points: 2
#     Edge 22, Type (0, 0), BuildingBlock: XIVTED_clean_linker_0, # of connection points: 2
#     Edge 23, Type (0, 0), BuildingBlock: XIVTED_clean_linker_0, # of connection points: 2
#     Edge 24, Type (0, 0), BuildingBlock: XIVTED_clean_linker_0, # of connection points: 2
#     Edge 25, Type (0, 0), BuildingBlock: XIVTED_clean_linker_0, # of connection points: 2
#     Edge 26, Type (0, 0), BuildingBlock: XIVTED_clean_linker_0, # of connection points: 2
#     Edge 27, Type (0, 0), BuildingBlock: XIVTED_clean_linker_0, # of connection points: 2
#     Edge 28, Type (0, 0), BuildingBlock: XIVTED_clean_linker_0, # of connection points: 2
#     Edge 29, Type (0, 0), BuildingBlock: XIVTED_clean_linker_0, # of connection points: 2
#     Edge 30, Type (0, 0), BuildingBlock: XIVTED_clean_linker_0, # of connection points: 2
#     Edge 31, Type (0, 0), BuildingBlock: XIVTED_clean_linker_0, # of connection points: 2
#     Edge 32, Type (0, 0), BuildingBlock: XIVTED_clean_linker_0, # of connection points: 2
#     Edge 33, Type (0, 0), BuildingBlock: XIVTED_clean_linker_0, # of connection points: 2
#     Edge 34, Type (0, 0), BuildingBlock: XIVTED_clean_linker_0, # of connection points: 2
#     Edge 35, Type (0, 0), BuildingBlock: XIVTED_clean_linker_0, # of connection points: 2
#     Edge 36, Type (0, 0), BuildingBlock: XIVTED_clean_linker_0, # of connection points: 2
#     Edge 37, Type (0, 0), BuildingBlock: XIVTED_clean_linker_0, # of connection points: 2
#     Edge 38, Type (0, 0), BuildingBlock: XIVTED_clean_linker_0, # of connection points: 2
#     Edge 39, Type (0, 0), BuildingBlock: XIVTED_clean_linker_0, # of connection points: 2
#     Edge 40, Type (0, 0), BuildingBlock: XIVTED_clean_linker_0, # of connection points: 2
#     Edge 41, Type (0, 0), BuildingBlock: XIVTED_clean_linker_0, # of connection points: 2
#     Edge 42, Type (0, 0), BuildingBlock: XIVTED_clean_linker_0, # of connection points: 2
#     Edge 43, Type (0, 0), BuildingBlock: XIVTED_clean_linker_0, # of connection points: 2
#     Edge 44, Type (0, 0), BuildingBlock: XIVTED_clean_linker_0, # of connection points: 2
#     Edge 45, Type (0, 0), BuildingBlock: XIVTED_clean_linker_0, # of connection points: 2
#     Edge 46, Type (0, 0), BuildingBlock: XIVTED_clean_linker_0, # of connection points: 2
#     Edge 47, Type (0, 0), BuildingBlock: XIVTED_clean_linker_0, # of connection points: 2
#     Edge 48, Type (0, 0), BuildingBlock: XIVTED_clean_linker_0, # of connection points: 2
#     Edge 49, Type (0, 0), BuildingBlock: XIVTED_clean_linker_0, # of connection points: 2
#     Edge 50, Type (0, 0), BuildingBlock: XIVTED_clean_linker_0, # of connection points: 2
#     Edge 51, Type (0, 0), BuildingBlock: XIVTED_clean_linker_0, # of connection points: 2
#     Edge 52, Type (0, 0), BuildingBlock: XIVTED_clean_linker_0, # of connection points: 2
#     Edge 53, Type (0, 0), BuildingBlock: XIVTED_clean_linker_0, # of connection points: 2
#     Edge 54, Type (0, 0), BuildingBlock: XIVTED_clean_linker_0, # of connection points: 2
#     Edge 55, Type (0, 0), BuildingBlock: XIVTED_clean_linker_0, # of connection points: 2
#     Edge 56, Type (0, 0), BuildingBlock: XIVTED_clean_linker_0, # of connection points: 2
#     Edge 57, Type (0, 0), BuildingBlock: XIVTED_clean_linker_0, # of connection points: 2
#     Edge 58, Type (0, 0), BuildingBlock: XIVTED_clean_linker_0, # of connection points: 2
#     Edge 59, Type (0, 0), BuildingBlock: XIVTED_clean_linker_0, # of connection points: 2
#     Edge 60, Type (0, 0), BuildingBlock: XIVTED_clean_linker_0, # of connection points: 2
#     Edge 61, Type (0, 0), BuildingBlock: XIVTED_clean_linker_0, # of connection points: 2
#     Edge 62, Type (0, 0), BuildingBlock: XIVTED_clean_linker_0, # of connection points: 2
#     Edge 63, Type (0, 0), BuildingBlock: XIVTED_clean_linker_0, # of connection points: 2
# Relax obj value: 0.058
# Max RMSD: 0.137
# Mean RMSD: 0.137
data_MOF--net-vbm--node1-CUWYAW_clean_sbu_0--edge1-XIVTED_clean_linker_0
_symmetry_space_group_name_H-M    P1
_symmetry_Int_Tables_number       1
_symmetry_cell_setting            triclinic
loop_
_symmetry_equiv_pos_as_xyz
'x, y, z'
_cell_length_a     55.884475
_cell_length_b     26.015612
_cell_length_c     56.103738
_cell_angle_alpha  90.014237
_cell_angle_beta   90.053895
_cell_angle_gamma 90.048394
loop_
_atom_site_label
_atom_site_type_symbol
_atom_site_fract_x
_atom_site_fract_y
_atom_site_fract_z
_atom_type_partial_charge
C0 C 0.09175 0.27321 0.15182 0.0
Eu1 Eu 0.10644 0.1783 0.15642 0.0
C2 C 0.09924 0.32765 0.1546 0.0
C3 C 0.0928 0.35544 0.17511 0.0
C4 C 0.0973 0.40827 0.17667 0.0
C5 C 0.10819 0.43475 0.15769 0.0
C6 C 0.11514 0.40667 0.13741 0.0
C7 C 0.11066 0.35383 0.13586 0.0
C8 C 0.10514 0.12354 0.1979 0.0
C9 C 0.16366 0.17408 0.16478 0.0
C10 C 0.14495 0.98186 0.16128 0.0
Eu11 Eu 0.13087 0.07672 0.15483 0.0
C12 C 0.13745 0.92727 0.15929 0.0
C13 C 0.14305 0.89866 0.13878 0.0
C14 C 0.13869 0.84574 0.13792 0.0
C15 C 0.12876 0.81995 0.15761 0.0
C16 C 0.1226 0.8488 0.17791 0.0
C17 C 0.12698 0.90177 0.17878 0.0
C18 C 0.13255 0.12822 0.11263 0.0
C19 C 0.07345 0.0853 0.1439 0.0
O20 O 0.10135 0.24658 0.13452 0.0
O21 O 0.08856 0.24587 0.17112 0.0
O22 O 0.08703 0.14885 0.18945 0.0
O23 O 0.12302 0.12907 0.18448 0.0
O24 O 0.14513 0.20154 0.15789 0.0
O25 O 0.1621 0.12391 0.16796 0.0
O26 O 0.13521 1.00998 0.17798 0.0
O27 O 0.14846 1.00758 0.14157 0.0
O28 O 0.15022 0.10247 0.12169 0.0
O29 O 0.11448 0.1252 0.12615 0.0
O30 O 0.09109 0.05574 0.15177 0.0
O31 O 0.07659 0.13466 0.14034 0.0
H32 H 0.08374 0.33661 0.18977 0.0
H33 H 0.09201 0.42846 0.1927 0.0
H34 H 0.12327 0.42581 0.12231 0.0
H35 H 0.11554 0.33387 0.11963 0.0
H36 H 0.15138 0.91691 0.12354 0.0
H37 H 0.14334 0.8249 0.12187 0.0
H38 H 0.1152 0.83017 0.19352 0.0
H39 H 0.12279 0.92242 0.19502 0.0
C40 C 0.88536 0.77057 0.13602 0.0
Eu41 Eu 0.87299 0.86478 0.14618 0.0
C42 C 0.8772 0.71656 0.13835 0.0
C43 C 0.87362 0.6935 0.16073 0.0
C44 C 0.86804 0.6411 0.16243 0.0
C45 C 0.86592 0.61052 0.14181 0.0
C46 C 0.8689 0.63414 0.11944 0.0
C47 C 0.87454 0.68644 0.11776 0.0
C48 C 0.87484 0.9139 0.18914 0.0
C49 C 0.8157 0.87257 0.15668 0.0
C50 C 0.836 0.06375 0.16815 0.0
Eu51 Eu 0.84828 0.97521 0.15026 0.0
C52 C 0.83874 0.11944 0.1639 0.0
C53 C 0.83995 0.14004 0.1408 0.0
C54 C 0.84235 0.19323 0.13746 0.0
C55 C 0.84364 0.2268 0.15715 0.0
C56 C 0.84262 0.20567 0.18023 0.0
C57 C 0.84019 0.15264 0.18353 0.0
C58 C 0.851 0.9466 0.10345 0.0
C59 C 0.90494 0.96179 0.13641 0.0
O60 O 0.87359 0.80024 0.12124 0.0
O61 O 0.89209 0.79466 0.15542 0.0
O62 O 0.89228 0.88613 0.18082 0.0
O63 O 0.85739 0.91256 0.17497 0.0
O64 O 0.83441 0.84381 0.15129 0.0
O65 O 0.8168 0.92335 0.1588 0.0
O66 O 0.85536 0.03885 0.17455 0.0
O67 O 0.82253 0.03769 0.15324 0.0
O68 O 0.84129 0.98913 0.11075 0.0
O69 O 0.85839 0.92222 0.12143 0.0
O70 O 0.88836 0.99045 0.14695 0.0
O71 O 0.90112 0.91373 0.13006 0.0
H72 H 0.87562 0.71558 0.17698 0.0
H73 H 0.86613 0.62425 0.17998 0.0
H74 H 0.86701 0.61215 0.10315 0.0
H75 H 0.87725 0.70321 0.10028 0.0
H76 H 0.83895 0.1151 0.12536 0.0
H77 H 0.84285 0.20809 0.11944 0.0
H78 H 0.84401 0.23004 0.19581 0.0
H79 H 0.83947 0.13747 0.2015 0.0
C80 C 0.09194 0.76643 0.39834 0.0
Eu81 Eu 0.10621 0.86105 0.39149 0.0
C82 C 0.09953 0.71195 0.39644 0.0
C83 C 0.10328 0.68808 0.37426 0.0
C84 C 0.10815 0.63529 0.37296 0.0
C85 C 0.1094 0.60519 0.39378 0.0
C86 C 0.10615 0.62948 0.41595 0.0
C87 C 0.10121 0.68212 0.41724 0.0
C88 C 0.10552 0.91238 0.34902 0.0
C89 C 0.16323 0.86495 0.38177 0.0
C90 C 0.14502 0.05778 0.38351 0.0
Eu91 Eu 0.13101 0.96329 0.39139 0.0
C92 C 0.13762 0.11243 0.38508 0.0
C93 C 0.13433 0.13715 0.40713 0.0
C94 C 0.12979 0.1901 0.40812 0.0
C95 C 0.12845 0.21956 0.3871 0.0
C96 C 0.13121 0.19443 0.36507 0.0
C97 C 0.1358 0.1416 0.36409 0.0
C98 C 0.13232 0.91457 0.43429 0.0
C99 C 0.07333 0.95545 0.40128 0.0
O100 O 0.10213 0.79448 0.41484 0.0
O101 O 0.08799 0.79213 0.37869 0.0
O102 O 0.08736 0.88707 0.35739 0.0
O103 O 0.1231 0.90808 0.36291 0.0
O104 O 0.14499 0.83818 0.38998 0.0
O105 O 0.16151 0.91483 0.3777 0.0
O106 O 0.13454 0.02912 0.36744 0.0
O107 O 0.14924 0.03287 0.40331 0.0
O108 O 0.1501 0.93973 0.42507 0.0
O109 O 0.11432 0.91693 0.42063 0.0
O110 O 0.09125 0.98403 0.39326 0.0
O111 O 0.07615 0.90646 0.40606 0.0
H112 H 0.10205 0.7099 0.35787 0.0
H113 H 0.11085 0.61801 0.35561 0.0
H114 H 0.10665 0.60752 0.43234 0.0
H115 H 0.09811 0.69932 0.43455 0.0
H116 H 0.13568 0.11588 0.42367 0.0
H117 H 0.12744 0.208 0.42539 0.0
H118 H 0.13062 0.21585 0.34853 0.0
H119 H 0.13855 0.12372 0.34686 0.0
C120 C 0.88795 0.27465 0.38594 0.0
Eu121 Eu 0.8732 0.17962 0.38181 0.0
C122 C 0.88045 0.32896 0.3831 0.0
C123 C 0.89313 0.36081 0.36734 0.0
C124 C 0.88818 0.41345 0.36603 0.0
C125 C 0.87052 0.43565 0.38061 0.0
C126 C 0.85742 0.40348 0.39601 0.0
C127 C 0.8623 0.35071 0.39723 0.0
C128 C 0.87418 0.1241 0.34052 0.0
C129 C 0.81604 0.17527 0.37324 0.0
C130 C 0.83412 0.98301 0.37798 0.0
Eu131 Eu 0.84852 0.07794 0.38383 0.0
C132 C 0.84122 0.92832 0.3804 0.0
C133 C 0.82897 0.89685 0.39667 0.0
C134 C 0.83343 0.84398 0.39764 0.0
C135 C 0.85017 0.8211 0.38222 0.0
C136 C 0.86279 0.85282 0.36623 0.0
C137 C 0.85836 0.90582 0.36531 0.0
C138 C 0.84717 0.13031 0.42584 0.0
C139 C 0.90608 0.08647 0.39413 0.0
O140 O 0.87864 0.24816 0.40346 0.0
O141 O 0.89076 0.24727 0.3666 0.0
O142 O 0.89236 0.14962 0.34872 0.0
O143 O 0.85641 0.12991 0.35404 0.0
O144 O 0.83448 0.20268 0.38046 0.0
O145 O 0.81762 0.1251 0.37005 0.0
O146 O 0.84414 1.01044 0.36118 0.0
O147 O 0.83063 1.00928 0.39752 0.0
O148 O 0.82938 0.10463 0.41692 0.0
O149 O 0.86517 0.12689 0.41224 0.0
O150 O 0.88825 0.05696 0.3866 0.0
O151 O 0.90319 0.13595 0.39757 0.0
H152 H 0.90737 0.34519 0.35644 0.0
H153 H 0.89882 0.43705 0.35418 0.0
H154 H 0.84348 0.41916 0.40725 0.0
H155 H 0.85218 0.32724 0.40958 0.0
H156 H 0.81542 0.91296 0.40826 0.0
H157 H 0.82313 0.8208 0.40995 0.0
H158 H 0.87602 0.83665 0.35431 0.0
H159 H 0.86805 0.92889 0.35246 0.0
C160 C 0.83548 0.06092 0.87613 0.0
Eu161 Eu 0.84937 0.96624 0.8836 0.0
C162 C 0.84292 0.11556 0.87822 0.0
C163 C 0.83698 0.14432 0.8986 0.0
C164 C 0.84146 0.19723 0.8995 0.0
C165 C 0.85185 0.22283 0.87999 0.0
C166 C 0.85827 0.19383 0.85982 0.0
C167 C 0.85378 0.14091 0.85891 0.0
C168 C 0.84753 0.91699 0.92632 0.0
C169 C 0.9068 0.95808 0.89462 0.0
C170 C 0.88832 0.76975 0.88807 0.0
Eu171 Eu 0.87385 0.86472 0.88294 0.0
C172 C 0.88067 0.71539 0.88527 0.0
C173 C 0.88735 0.68725 0.86495 0.0
C174 C 0.88258 0.63452 0.86338 0.0
C175 C 0.87117 0.60846 0.88218 0.0
C176 C 0.864 0.6369 0.90229 0.0
C177 C 0.86875 0.68963 0.90385 0.0
C178 C 0.87455 0.9178 0.84087 0.0
C179 C 0.81676 0.86852 0.87419 0.0
O180 O 0.84602 0.03252 0.86001 0.0
O181 O 0.83106 0.03551 0.89574 0.0
O182 O 0.82996 0.94236 0.91684 0.0
O183 O 0.86571 0.9189 0.91286 0.0
O184 O 0.88911 0.98725 0.8866 0.0
O185 O 0.90377 0.90882 0.89855 0.0
O186 O 0.87852 0.79673 0.90514 0.0
O187 O 0.89191 0.79684 0.86877 0.0
O188 O 0.89288 0.89328 0.84937 0.0
O189 O 0.85694 0.91229 0.85457 0.0
O190 O 0.83514 0.84154 0.88183 0.0
O191 O 0.81845 0.91844 0.87029 0.0
H192 H 0.82834 0.12621 0.9137 0.0
H193 H 0.83657 0.21818 0.91545 0.0
H194 H 0.86602 0.2123 0.84434 0.0
H195 H 0.85821 0.12015 0.84276 0.0
H196 H 0.89678 0.70574 0.85042 0.0
H197 H 0.88806 0.61408 0.84748 0.0
H198 H 0.85547 0.61809 0.91726 0.0
H199 H 0.86366 0.70985 0.91993 0.0
C200 C 0.14503 0.9858 0.88235 0.0
Eu201 Eu 0.13157 0.08028 0.89102 0.0
C202 C 0.13768 0.9312 0.88457 0.0
C203 C 0.13773 0.90577 0.90669 0.0
C204 C 0.13322 0.85286 0.908 0.0
C205 C 0.1286 0.82411 0.88723 0.0
C206 C 0.12803 0.8499 0.8652 0.0
C207 C 0.13259 0.90272 0.8639 0.0
C208 C 0.13354 0.12747 0.93426 0.0
C209 C 0.07415 0.08834 0.90203 0.0
C210 C 0.09318 0.27718 0.89954 0.0
Eu211 Eu 0.10709 0.18263 0.89201 0.0
C212 C 0.10064 0.33168 0.89708 0.0
C213 C 0.10081 0.35655 0.87482 0.0
C214 C 0.10554 0.40935 0.87326 0.0
C215 C 0.11016 0.43852 0.8939 0.0
C216 C 0.11048 0.41328 0.91607 0.0
C217 C 0.10569 0.3606 0.91763 0.0
C218 C 0.10554 0.13209 0.84932 0.0
C219 C 0.16389 0.17833 0.88105 0.0
O220 O 0.13346 1.01431 0.86699 0.0
O221 O 0.15066 1.01093 0.90175 0.0
O222 O 0.15107 0.10217 0.92471 0.0
O223 O 0.1154 0.12608 0.92075 0.0
O224 O 0.09183 0.05978 0.89357 0.0
O225 O 0.07722 0.13718 0.90704 0.0
O226 O 0.10435 0.2493 0.91546 0.0
O227 O 0.08807 0.25128 0.8802 0.0
O228 O 0.0876 0.1574 0.85812 0.0
O229 O 0.12336 0.13618 0.86291 0.0
O230 O 0.1459 0.20526 0.88964 0.0
O231 O 0.16192 0.12854 0.87689 0.0
H232 H 0.1417 0.92645 0.92298 0.0
H233 H 0.13349 0.83441 0.9253 0.0
H234 H 0.12486 0.82899 0.84881 0.0
H235 H 0.13276 0.92108 0.84656 0.0
H236 H 0.09687 0.33552 0.85862 0.0
H237 H 0.10544 0.42739 0.85586 0.0
H238 H 0.11362 0.43454 0.93237 0.0
H239 H 0.10534 0.34271 0.93506 0.0
C240 C 0.83373 0.98464 0.65306 0.0
Eu241 Eu 0.84786 0.07957 0.64659 0.0
C242 C 0.84105 0.93004 0.65061 0.0
C243 C 0.83052 0.89939 0.63284 0.0
C244 C 0.83512 0.84659 0.63173 0.0
C245 C 0.85027 0.82294 0.6485 0.0
C246 C 0.86117 0.85382 0.66604 0.0
C247 C 0.8566 0.90673 0.66711 0.0
C248 C 0.84623 0.13003 0.60413 0.0
C249 C 0.90538 0.08759 0.63629 0.0
C250 C 0.88715 0.27616 0.64234 0.0
Eu251 Eu 0.87257 0.18126 0.64752 0.0
C252 C 0.87971 0.33056 0.64521 0.0
C253 C 0.8909 0.36124 0.66257 0.0
C254 C 0.88613 0.41395 0.66399 0.0
C255 C 0.87017 0.43742 0.64793 0.0
C256 C 0.85856 0.40648 0.63089 0.0
C257 C 0.86327 0.35367 0.62953 0.0
C258 C 0.87398 0.12733 0.68928 0.0
C259 C 0.81552 0.17703 0.65708 0.0
O260 O 0.844 1.01247 0.66959 0.0
O261 O 0.82973 1.01065 0.63354 0.0
O262 O 0.82849 0.10483 0.61337 0.0
O263 O 0.86435 0.12731 0.61764 0.0
O264 O 0.88756 0.05872 0.64428 0.0
O265 O 0.90246 0.13676 0.63198 0.0
O266 O 0.87718 0.24923 0.6253 0.0
O267 O 0.89077 0.24917 0.66166 0.0
O268 O 0.89203 0.15271 0.68074 0.0
O269 O 0.85607 0.13276 0.67588 0.0
O270 O 0.83381 0.20427 0.64934 0.0
O271 O 0.81723 0.127 0.66061 0.0
H272 H 0.81815 0.91602 0.62012 0.0
H273 H 0.82613 0.82402 0.61819 0.0
H274 H 0.87316 0.83704 0.67906 0.0
H275 H 0.8649 0.92907 0.68116 0.0
H276 H 0.9039 0.3447 0.67468 0.0
H277 H 0.89562 0.43661 0.67715 0.0
H278 H 0.84594 0.42315 0.61844 0.0
H279 H 0.85438 0.33126 0.61586 0.0
C280 C 0.14476 0.06112 0.65966 0.0
Eu281 Eu 0.13024 0.96615 0.65421 0.0
C282 C 0.13759 0.11583 0.65757 0.0
C283 C 0.14947 0.14751 0.64112 0.0
C284 C 0.14496 0.20037 0.64037 0.0
C285 C 0.12853 0.22305 0.65617 0.0
C286 C 0.11628 0.19111 0.67236 0.0
C287 C 0.12076 0.1381 0.67306 0.0
C288 C 0.13131 0.91306 0.61247 0.0
C289 C 0.0726 0.95738 0.64434 0.0
C290 C 0.09051 0.76953 0.65413 0.0
Eu291 Eu 0.10556 0.86457 0.6571 0.0
C292 C 0.09807 0.71521 0.65668 0.0
C293 C 0.08563 0.68319 0.67255 0.0
C294 C 0.09061 0.63055 0.67368 0.0
C295 C 0.10808 0.60852 0.65881 0.0
C296 C 0.12095 0.64088 0.6433 0.0
C297 C 0.11603 0.69366 0.64226 0.0
C298 C 0.10516 0.92154 0.69802 0.0
C299 C 0.1629 0.86874 0.66402 0.0
O300 O 0.13539 0.03356 0.67678 0.0
O301 O 0.14752 0.03498 0.63996 0.0
O302 O 0.14909 0.93918 0.6211 0.0
O303 O 0.11338 0.9163 0.62622 0.0
O304 O 0.09049 0.98714 0.6515 0.0
O305 O 0.07541 0.90773 0.64139 0.0
O306 O 0.09882 0.79571 0.63602 0.0
O307 O 0.08889 0.79718 0.67351 0.0
O308 O 0.08679 0.8962 0.69011 0.0
O309 O 0.12276 0.91487 0.68437 0.0
O310 O 0.14422 0.8413 0.65751 0.0
O311 O 0.1615 0.91897 0.66712 0.0
H312 H 0.16279 0.13157 0.6292 0.0
H313 H 0.155 0.22372 0.6279 0.0
H314 H 0.10328 0.2071 0.68459 0.0
H315 H 0.11136 0.11485 0.68605 0.0
H316 H 0.07154 0.69869 0.68369 0.0
H317 H 0.08015 0.60682 0.68563 0.0
H318 H 0.13474 0.62534 0.63183 0.0
H319 H 0.12597 0.71731 0.62984 0.0
C320 C 0.59049 0.78166 0.1477 0.0
Eu321 Eu 0.6044 0.68623 0.15157 0.0
C322 C 0.5989 0.83519 0.14437 0.0
C323 C 0.61711 0.85653 0.15859 0.0
C324 C 0.62246 0.90913 0.1572 0.0
C325 C 0.60971 0.94153 0.14158 0.0
C326 C 0.59221 0.91943 0.12669 0.0
C327 C 0.58684 0.86696 0.12814 0.0
C328 C 0.6021 0.62927 0.1924 0.0
C329 C 0.66183 0.6788 0.15813 0.0
C330 C 0.64276 0.48682 0.1671 0.0
Eu331 Eu 0.62949 0.57701 0.15173 0.0
C332 C 0.64075 0.4317 0.16133 0.0
C333 C 0.62459 0.41369 0.14408 0.0
C334 C 0.62215 0.36075 0.13992 0.0
C335 C 0.63583 0.32488 0.15294 0.0
C336 C 0.6522 0.34349 0.16998 0.0
C337 C 0.65461 0.39628 0.1741 0.0
C338 C 0.62789 0.61252 0.10603 0.0
C339 C 0.57278 0.59055 0.1375 0.0
O340 O 0.59175 0.7502 0.1295 0.0
O341 O 0.5954 0.75929 0.16803 0.0
O342 O 0.58434 0.65628 0.18429 0.0
O343 O 0.61992 0.6343 0.17891 0.0
O344 O 0.6433 0.70659 0.15136 0.0
O345 O 0.66047 0.62862 0.16199 0.0
O346 O 0.62303 0.50982 0.17386 0.0
O347 O 0.65593 0.51526 0.15293 0.0
O348 O 0.63754 0.5692 0.11228 0.0
O349 O 0.61991 0.63482 0.12439 0.0
O350 O 0.58974 0.56012 0.14627 0.0
O351 O 0.57577 0.64034 0.13454 0.0
H352 H 0.62671 0.83297 0.17131 0.0
H353 H 0.63594 0.9247 0.16906 0.0
H354 H 0.58235 0.94283 0.11411 0.0
H355 H 0.57273 0.85145 0.11699 0.0
H356 H 0.61371 0.4405 0.13403 0.0
H357 H 0.60957 0.34796 0.12647 0.0
H358 H 0.66276 0.31721 0.18063 0.0
H359 H 0.66706 0.40944 0.18762 0.0
C360 C 0.38771 0.27066 0.13461 0.0
Eu361 Eu 0.37318 0.3652 0.14106 0.0
C362 C 0.38016 0.21603 0.13619 0.0
C363 C 0.37878 0.19029 0.1582 0.0
C364 C 0.37418 0.13735 0.15907 0.0
C365 C 0.37098 0.10883 0.13796 0.0
C366 C 0.37177 0.13498 0.11603 0.0
C367 C 0.37638 0.1878 0.11516 0.0
C368 C 0.37464 0.41799 0.18312 0.0
C369 C 0.31624 0.36858 0.15137 0.0
C370 C 0.33403 0.56147 0.14851 0.0
Eu371 Eu 0.34819 0.46703 0.14091 0.0
C372 C 0.3414 0.61621 0.14702 0.0
C373 C 0.34274 0.64208 0.12504 0.0
C374 C 0.34713 0.6951 0.12425 0.0
C375 C 0.35015 0.72357 0.14539 0.0
C376 C 0.34937 0.69731 0.1673 0.0
C377 C 0.34498 0.64437 0.16809 0.0
C378 C 0.3463 0.41715 0.09828 0.0
C379 C 0.40571 0.45986 0.13007 0.0
O380 O 0.37806 0.29876 0.11782 0.0
O381 O 0.391 0.29631 0.1544 0.0
O382 O 0.39272 0.39279 0.17452 0.0
O383 O 0.35677 0.41293 0.16964 0.0
O384 O 0.33445 0.34176 0.14318 0.0
O385 O 0.31788 0.4186 0.15505 0.0
O386 O 0.3443 0.53291 0.16474 0.0
O387 O 0.33008 0.53645 0.12868 0.0
O388 O 0.32861 0.44226 0.10767 0.0
O389 O 0.36449 0.42006 0.11169 0.0
O390 O 0.38786 0.48846 0.13817 0.0
O391 O 0.40296 0.41059 0.12584 0.0
H392 H 0.38184 0.21069 0.17475 0.0
H393 H 0.37396 0.11848 0.17627 0.0
H394 H 0.36901 0.11454 0.09943 0.0
H395 H 0.37752 0.2064 0.09792 0.0
H396 H 0.33982 0.62172 0.10846 0.0
H397 H 0.34734 0.71404 0.10706 0.0
H398 H 0.35198 0.71772 0.18393 0.0
H399 H 0.34386 0.62562 0.1853 0.0
C400 C 0.59111 0.27004 0.3911 0.0
Eu401 Eu 0.60572 0.36485 0.38553 0.0
C402 C 0.59882 0.21554 0.3893 0.0
C403 C 0.59569 0.18775 0.36801 0.0
C404 C 0.60038 0.13489 0.36717 0.0
C405 C 0.60814 0.10842 0.38763 0.0
C406 C 0.6118 0.13651 0.40876 0.0
C407 C 0.60714 0.18932 0.4096 0.0
C408 C 0.60433 0.41836 0.34366 0.0
C409 C 0.66278 0.36865 0.37612 0.0
C410 C 0.64474 0.56123 0.37957 0.0
Eu411 Eu 0.63051 0.46646 0.38631 0.0
C412 C 0.63711 0.61581 0.38107 0.0
C413 C 0.63972 0.64374 0.40239 0.0
C414 C 0.63516 0.69664 0.40302 0.0
C415 C 0.62804 0.72305 0.3823 0.0
C416 C 0.62493 0.69484 0.36112 0.0
C417 C 0.62948 0.64196 0.36049 0.0
C418 C 0.63232 0.41587 0.42875 0.0
C419 C 0.57298 0.45869 0.39667 0.0
O420 O 0.60028 0.2979 0.40825 0.0
O421 O 0.58826 0.29615 0.37138 0.0
O422 O 0.58624 0.39315 0.35223 0.0
O423 O 0.62222 0.41317 0.35712 0.0
O424 O 0.64444 0.34162 0.38389 0.0
O425 O 0.66117 0.41869 0.37254 0.0
O426 O 0.63527 0.53263 0.36285 0.0
O427 O 0.64796 0.53597 0.39946 0.0
O428 O 0.65005 0.44095 0.41941 0.0
O429 O 0.61414 0.41893 0.41534 0.0
O430 O 0.59078 0.48752 0.3886 0.0
O431 O 0.57589 0.40952 0.40095 0.0
H432 H 0.58895 0.20649 0.35213 0.0
H433 H 0.59707 0.11446 0.35067 0.0
H434 H 0.61808 0.11758 0.42477 0.0
H435 H 0.60951 0.20935 0.42636 0.0
H436 H 0.64593 0.62507 0.4185 0.0
H437 H 0.63806 0.71712 0.41957 0.0
H438 H 0.61916 0.71372 0.3449 0.0
H439 H 0.62756 0.62178 0.34371 0.0
C440 C 0.38614 0.77432 0.38571 0.0
Eu441 Eu 0.37303 0.6798 0.37688 0.0
C442 C 0.37789 0.82819 0.38444 0.0
C443 C 0.36329 0.8459 0.36578 0.0
C444 C 0.35751 0.89823 0.36402 0.0
C445 C 0.36613 0.9338 0.38094 0.0
C446 C 0.38019 0.91543 0.39994 0.0
C447 C 0.386 0.86326 0.40163 0.0
C448 C 0.37547 0.62848 0.33451 0.0
C449 C 0.31572 0.67109 0.36729 0.0
C450 C 0.33622 0.4807 0.35574 0.0
Eu451 Eu 0.3487 0.56927 0.37363 0.0
C452 C 0.33858 0.42501 0.35988 0.0
C453 C 0.35071 0.40546 0.37982 0.0
C454 C 0.35325 0.35218 0.38285 0.0
C455 C 0.34379 0.3176 0.36592 0.0
C456 C 0.33151 0.33772 0.34609 0.0
C457 C 0.32897 0.3908 0.34313 0.0
C458 C 0.35064 0.59912 0.42024 0.0
C459 C 0.40499 0.58353 0.38867 0.0
O460 O 0.37612 0.7445 0.40164 0.0
O461 O 0.39025 0.7507 0.36552 0.0
O462 O 0.39297 0.65589 0.34302 0.0
O463 O 0.35779 0.63074 0.34833 0.0
O464 O 0.33437 0.70027 0.37244 0.0
O465 O 0.31697 0.62035 0.36523 0.0
O466 O 0.3558 0.50523 0.34969 0.0
O467 O 0.32287 0.50667 0.37072 0.0
O468 O 0.34133 0.55611 0.41295 0.0
O469 O 0.35821 0.62368 0.40234 0.0
O470 O 0.38864 0.55383 0.37833 0.0
O471 O 0.40115 0.63222 0.39376 0.0
H472 H 0.35669 0.81949 0.35236 0.0
H473 H 0.34637 0.91085 0.34935 0.0
H474 H 0.38739 0.94161 0.41313 0.0
H475 H 0.39736 0.85044 0.41612 0.0
H476 H 0.35837 0.43137 0.39289 0.0
H477 H 0.36302 0.33815 0.3982 0.0
H478 H 0.32366 0.31242 0.33289 0.0
H479 H 0.31954 0.40521 0.32762 0.0
C480 C 0.33532 0.5634 0.87109 0.0
Eu481 Eu 0.34926 0.46855 0.87783 0.0
C482 C 0.34296 0.61791 0.87301 0.0
C483 C 0.33841 0.64625 0.89387 0.0
C484 C 0.343 0.69911 0.89471 0.0
C485 C 0.35213 0.72504 0.87468 0.0
C486 C 0.35719 0.69646 0.854 0.0
C487 C 0.35257 0.6436 0.85315 0.0
C488 C 0.3474 0.41696 0.91994 0.0
C489 C 0.40662 0.45987 0.88918 0.0
C490 C 0.38846 0.27188 0.8803 0.0
Eu491 Eu 0.37377 0.36687 0.87607 0.0
C492 C 0.38064 0.21753 0.8781 0.0
C493 C 0.3858 0.18936 0.85735 0.0
C494 C 0.381 0.13662 0.85619 0.0
C495 C 0.37107 0.11059 0.87582 0.0
C496 C 0.3654 0.13905 0.89638 0.0
C497 C 0.37019 0.19181 0.89754 0.0
C498 C 0.37505 0.42241 0.83476 0.0
C499 C 0.31659 0.37124 0.86779 0.0
O500 O 0.34519 0.53509 0.85452 0.0
O501 O 0.33158 0.53784 0.89081 0.0
O502 O 0.32983 0.44312 0.91093 0.0
O503 O 0.36551 0.41959 0.90642 0.0
O504 O 0.38896 0.48958 0.88147 0.0
O505 O 0.40365 0.41028 0.89217 0.0
O506 O 0.37984 0.29895 0.89796 0.0
O507 O 0.39074 0.29884 0.86076 0.0
O508 O 0.39323 0.39725 0.84316 0.0
O509 O 0.35721 0.41626 0.84815 0.0
O510 O 0.33506 0.34381 0.87487 0.0
O511 O 0.31818 0.42136 0.86451 0.0
H512 H 0.33076 0.62786 0.90941 0.0
H513 H 0.33919 0.71976 0.91103 0.0
H514 H 0.36392 0.71522 0.83813 0.0
H515 H 0.35591 0.62317 0.83665 0.0
H516 H 0.39409 0.20783 0.84215 0.0
H517 H 0.38529 0.11611 0.83995 0.0
H518 H 0.35804 0.12026 0.91196 0.0
H519 H 0.36631 0.21207 0.91395 0.0
C520 C 0.64418 0.48328 0.86895 0.0
Eu521 Eu 0.63089 0.57343 0.88431 0.0
C522 C 0.64201 0.42821 0.87481 0.0
C523 C 0.62456 0.41019 0.89073 0.0
C524 C 0.62196 0.35729 0.89485 0.0
C525 C 0.63677 0.32145 0.88313 0.0
C526 C 0.65446 0.34006 0.86748 0.0
C527 C 0.65702 0.39283 0.86339 0.0
C528 C 0.62884 0.60809 0.93022 0.0
C529 C 0.57402 0.58691 0.89751 0.0
C530 C 0.5916 0.77803 0.8897 0.0
Eu531 Eu 0.60582 0.68301 0.88494 0.0
C532 C 0.59974 0.83178 0.89269 0.0
C533 C 0.61855 0.85244 0.87909 0.0
C534 C 0.62379 0.90514 0.88016 0.0
C535 C 0.6103 0.93825 0.8948 0.0
C536 C 0.59213 0.91684 0.90907 0.0
C537 C 0.58692 0.86429 0.90797 0.0
C538 C 0.60376 0.62678 0.8438 0.0
C539 C 0.66318 0.67533 0.87763 0.0
O540 O 0.62452 0.50641 0.86204 0.0
O541 O 0.65735 0.51169 0.88316 0.0
O542 O 0.63849 0.56484 0.92387 0.0
O543 O 0.62108 0.63062 0.91183 0.0
O544 O 0.59104 0.55691 0.8886 0.0
O545 O 0.57711 0.63638 0.90136 0.0
O546 O 0.59409 0.74654 0.90776 0.0
O547 O 0.59564 0.756 0.86911 0.0
O548 O 0.58598 0.65391 0.8518 0.0
O549 O 0.62143 0.63162 0.85751 0.0
O550 O 0.64476 0.70338 0.88448 0.0
O551 O 0.66175 0.62508 0.87396 0.0
H552 H 0.61279 0.43695 0.89974 0.0
H553 H 0.60836 0.34451 0.90724 0.0
H554 H 0.66595 0.31379 0.85786 0.0
H555 H 0.67049 0.406 0.85091 0.0
H556 H 0.62872 0.82821 0.86711 0.0
H557 H 0.6378 0.92021 0.86882 0.0
H558 H 0.58168 0.94084 0.92089 0.0
H559 H 0.57234 0.84924 0.91863 0.0
C560 C 0.33576 0.48335 0.65993 0.0
Eu561 Eu 0.34804 0.57299 0.64316 0.0
C562 C 0.33827 0.42756 0.6554 0.0
C563 C 0.33476 0.40595 0.63269 0.0
C564 C 0.33659 0.35261 0.62935 0.0
C565 C 0.34197 0.31981 0.64863 0.0
C566 C 0.34578 0.34196 0.67122 0.0
C567 C 0.3439 0.39508 0.67453 0.0
C568 C 0.34951 0.60465 0.59678 0.0
C569 C 0.40477 0.58642 0.62905 0.0
C570 C 0.38695 0.77782 0.63401 0.0
Eu571 Eu 0.37297 0.68298 0.64056 0.0
C572 C 0.37838 0.83137 0.6322 0.0
C573 C 0.35762 0.84801 0.64397 0.0
C574 C 0.35121 0.90014 0.64376 0.0
C575 C 0.36552 0.93675 0.63188 0.0
C576 C 0.386 0.91942 0.61968 0.0
C577 C 0.3923 0.86737 0.61984 0.0
C578 C 0.37557 0.62964 0.68245 0.0
C579 C 0.31569 0.67502 0.64963 0.0
O580 O 0.35517 0.50788 0.66656 0.0
O581 O 0.32222 0.5103 0.64545 0.0
O582 O 0.33986 0.56188 0.60384 0.0
O583 O 0.3575 0.62832 0.61477 0.0
O584 O 0.38789 0.55696 0.63864 0.0
O585 O 0.40154 0.63551 0.62436 0.0
O586 O 0.38195 0.74638 0.61645 0.0
O587 O 0.3854 0.75586 0.65493 0.0
O588 O 0.39322 0.65642 0.67388 0.0
O589 O 0.35774 0.63331 0.66887 0.0
O590 O 0.33401 0.70306 0.64238 0.0
O591 O 0.31721 0.62482 0.65348 0.0
H592 H 0.33044 0.43015 0.61759 0.0
H593 H 0.33335 0.33702 0.61174 0.0
H594 H 0.35043 0.3183 0.6864 0.0
H595 H 0.34679 0.41088 0.69218 0.0
H596 H 0.34666 0.8209 0.65373 0.0
H597 H 0.33513 0.91177 0.65306 0.0
H598 H 0.3977 0.94627 0.61066 0.0
H599 H 0.40851 0.85542 0.61081 0.0
C600 C 0.643 0.56059 0.65814 0.0
Eu601 Eu 0.62921 0.46619 0.64985 0.0
C602 C 0.63583 0.61525 0.65638 0.0
C603 C 0.63146 0.63907 0.6343 0.0
C604 C 0.62713 0.69207 0.63308 0.0
C605 C 0.62714 0.72239 0.65389 0.0
C606 C 0.63087 0.69807 0.67597 0.0
C607 C 0.63522 0.64521 0.67717 0.0
C608 C 0.63127 0.41673 0.60717 0.0
C609 C 0.5719 0.45765 0.63797 0.0
C610 C 0.5902 0.26909 0.64421 0.0
Eu611 Eu 0.60471 0.3638 0.65019 0.0
C612 C 0.59787 0.21462 0.64548 0.0
C613 C 0.60291 0.19043 0.66733 0.0
C614 C 0.60768 0.13758 0.66819 0.0
C615 C 0.60744 0.1077 0.64725 0.0
C616 C 0.60302 0.13238 0.62538 0.0
C617 C 0.59822 0.18509 0.62453 0.0
C618 C 0.60297 0.4173 0.69206 0.0
C619 C 0.66174 0.36844 0.65962 0.0
O620 O 0.63193 0.53211 0.67386 0.0
O621 O 0.64778 0.53569 0.63846 0.0
O622 O 0.64873 0.44297 0.6164 0.0
O623 O 0.61316 0.41848 0.62069 0.0
O624 O 0.58956 0.48719 0.64586 0.0
O625 O 0.57481 0.40812 0.63464 0.0
O626 O 0.5992 0.29726 0.62711 0.0
O627 O 0.58764 0.29463 0.66414 0.0
O628 O 0.58496 0.39197 0.68333 0.0
O629 O 0.62092 0.41212 0.67873 0.0
O630 O 0.64349 0.34116 0.6518 0.0
O631 O 0.65996 0.41838 0.66341 0.0
H632 H 0.63193 0.61708 0.61791 0.0
H633 H 0.62453 0.70951 0.61575 0.0
H634 H 0.63059 0.71995 0.6924 0.0
H635 H 0.63861 0.62786 0.69441 0.0
H636 H 0.60262 0.21198 0.68385 0.0
H637 H 0.61077 0.11986 0.68538 0.0
H638 H 0.60309 0.11088 0.60885 0.0
H639 H 0.59427 0.20262 0.60746 0.0
H640 H 0.20879 0.13272 0.16771 0.0
H641 H 0.27257 0.40858 0.16404 0.0
H642 H 0.17077 0.27716 0.16906 0.0
H643 H 0.30926 0.26484 0.15189 0.0
H644 H 0.23572 0.36052 0.17181 0.0
H645 H 0.24665 0.18026 0.16824 0.0
C646 C 0.20841 0.17432 0.16843 0.0
C647 C 0.18665 0.20103 0.16802 0.0
C648 C 0.2519 0.33958 0.16755 0.0
C649 C 0.22969 0.25551 0.1685 0.0
C650 C 0.27291 0.36701 0.1631 0.0
C651 C 0.29394 0.34078 0.15703 0.0
C652 C 0.252 0.28563 0.16599 0.0
C653 C 0.29339 0.2868 0.15621 0.0
C654 C 0.22998 0.20145 0.16862 0.0
C655 C 0.18716 0.25497 0.169 0.0
N656 N 0.27275 0.26105 0.16054 0.0
N657 N 0.20832 0.28043 0.16903 0.0
H658 H 0.77069 0.91386 0.1616 0.0
H659 H 0.70673 0.63811 0.16517 0.0
H660 H 0.8087 0.76927 0.16116 0.0
H661 H 0.66896 0.78239 0.15903 0.0
H662 H 0.74437 0.68592 0.16841 0.0
H663 H 0.73304 0.86646 0.16544 0.0
C664 C 0.77115 0.87228 0.16248 0.0
C665 C 0.79284 0.84556 0.16076 0.0
C666 C 0.72778 0.70701 0.16646 0.0
C667 C 0.74997 0.79115 0.16511 0.0
C668 C 0.70632 0.67972 0.16464 0.0
C669 C 0.68471 0.70619 0.16153 0.0
C670 C 0.72753 0.76102 0.16524 0.0
C671 C 0.68521 0.76021 0.16108 0.0
C672 C 0.74967 0.84522 0.16463 0.0
C673 C 0.79239 0.79159 0.16209 0.0
N674 N 0.70627 0.78577 0.16279 0.0
N675 N 0.7713 0.76621 0.16405 0.0
H676 H 0.2706 0.62912 0.36754 0.0
H677 H 0.20658 0.9045 0.36765 0.0
H678 H 0.30821 0.77343 0.3603 0.0
H679 H 0.17043 0.7614 0.38299 0.0
H680 H 0.24328 0.85618 0.35969 0.0
H681 H 0.23269 0.67621 0.36745 0.0
C682 C 0.27087 0.67055 0.36563 0.0
C683 C 0.29257 0.69741 0.36428 0.0
C684 C 0.22725 0.83544 0.36471 0.0
C685 C 0.24946 0.75144 0.36432 0.0
C686 C 0.20633 0.86302 0.36928 0.0
C687 C 0.1855 0.83706 0.37625 0.0
C688 C 0.22724 0.78162 0.36708 0.0
C689 C 0.18614 0.78318 0.37793 0.0
C690 C 0.24927 0.69745 0.36569 0.0
C691 C 0.2919 0.75114 0.36178 0.0
N692 N 0.20669 0.75731 0.37347 0.0
N693 N 0.27071 0.77639 0.36207 0.0
H694 H 0.77125 0.13398 0.36661 0.0
H695 H 0.70719 0.4094 0.36695 0.0
H696 H 0.80909 0.27864 0.37028 0.0
H697 H 0.66966 0.26507 0.37443 0.0
H698 H 0.74462 0.36176 0.36196 0.0
H699 H 0.73355 0.18138 0.36319 0.0
C700 C 0.77165 0.17561 0.36647 0.0
C701 C 0.79327 0.20237 0.36904 0.0
C702 C 0.72813 0.34061 0.36455 0.0
C703 C 0.7504 0.2567 0.36517 0.0
C704 C 0.70679 0.36778 0.36737 0.0
C705 C 0.68536 0.34122 0.37142 0.0
C706 C 0.72794 0.2866 0.36571 0.0
C707 C 0.68583 0.28723 0.37169 0.0
C708 C 0.75016 0.20265 0.36458 0.0
C709 C 0.79279 0.25636 0.36867 0.0
N710 N 0.70679 0.26173 0.36901 0.0
N711 N 0.77169 0.28172 0.36693 0.0
H712 H 0.70777 0.63408 0.86981 0.0
H713 H 0.77202 0.90943 0.86718 0.0
H714 H 0.6704 0.77886 0.87579 0.0
H715 H 0.80982 0.76506 0.87224 0.0
H716 H 0.73431 0.86181 0.86428 0.0
H717 H 0.74532 0.68143 0.86489 0.0
C718 C 0.70743 0.6757 0.86998 0.0
C719 C 0.68598 0.70248 0.87352 0.0
C720 C 0.75091 0.84064 0.86587 0.0
C721 C 0.72869 0.75675 0.86783 0.0
C722 C 0.7724 0.86781 0.86745 0.0
C723 C 0.794 0.84121 0.87027 0.0
C724 C 0.75115 0.78664 0.86701 0.0
C725 C 0.79353 0.78722 0.87044 0.0
C726 C 0.72884 0.70271 0.86718 0.0
C727 C 0.68655 0.75649 0.87344 0.0
N728 N 0.77243 0.76173 0.86899 0.0
N729 N 0.70757 0.7818 0.87075 0.0
H730 H 0.27161 0.41289 0.86426 0.0
H731 H 0.20731 0.13777 0.86802 0.0
H732 H 0.30941 0.26815 0.86374 0.0
H733 H 0.17109 0.28192 0.88054 0.0
H734 H 0.24424 0.18542 0.86006 0.0
H735 H 0.23369 0.36566 0.86344 0.0
C736 C 0.27193 0.37128 0.86367 0.0
C737 C 0.29363 0.34439 0.86441 0.0
C738 C 0.22814 0.20653 0.86444 0.0
C739 C 0.25054 0.29028 0.86359 0.0
C740 C 0.2071 0.17935 0.86899 0.0
C741 C 0.1862 0.20584 0.87524 0.0
C742 C 0.22818 0.26046 0.86607 0.0
C743 C 0.18687 0.25979 0.8761 0.0
C744 C 0.25033 0.34434 0.86331 0.0
C745 C 0.29306 0.29045 0.86356 0.0
N746 N 0.20754 0.28529 0.87167 0.0
N747 N 0.27186 0.26517 0.86336 0.0
H748 H 0.70633 0.4101 0.66692 0.0
H749 H 0.77123 0.13564 0.66619 0.0
H750 H 0.66895 0.26506 0.66208 0.0
H751 H 0.80832 0.28053 0.65882 0.0
H752 H 0.73363 0.18271 0.67112 0.0
H753 H 0.74412 0.36314 0.67048 0.0
C754 C 0.70605 0.36847 0.66683 0.0
C755 C 0.68453 0.34148 0.66388 0.0
C756 C 0.75006 0.20411 0.66857 0.0
C757 C 0.72752 0.28766 0.66792 0.0
C758 C 0.7715 0.17727 0.66579 0.0
C759 C 0.79286 0.20415 0.6618 0.0
C760 C 0.75009 0.25811 0.66744 0.0
C761 C 0.79221 0.25813 0.66155 0.0
C762 C 0.72759 0.34169 0.6688 0.0
C763 C 0.68516 0.2875 0.66397 0.0
N764 N 0.77116 0.2833 0.66419 0.0
N765 N 0.70632 0.26239 0.6658 0.0
H766 H 0.20809 0.91 0.66576 0.0
H767 H 0.27225 0.63468 0.66335 0.0
H768 H 0.16993 0.76566 0.66836 0.0
H769 H 0.30766 0.77824 0.6472 0.0
H770 H 0.23528 0.68247 0.67096 0.0
H771 H 0.24586 0.8624 0.66543 0.0
C772 C 0.20767 0.86841 0.66657 0.0
C773 C 0.18589 0.84174 0.66678 0.0
C774 C 0.25123 0.70336 0.66584 0.0
C775 C 0.22882 0.78717 0.66627 0.0
C776 C 0.2723 0.67611 0.66145 0.0
C777 C 0.29307 0.70237 0.65449 0.0
C778 C 0.25105 0.75715 0.66335 0.0
C779 C 0.29211 0.75618 0.65243 0.0
C780 C 0.22919 0.84124 0.66626 0.0
C781 C 0.18634 0.78779 0.66785 0.0
N782 N 0.27147 0.7817 0.6568 0.0
N783 N 0.20746 0.76227 0.6674 0.0
H784 H 0.14397 0.9557 0.32643 0.0
H785 H 0.06648 0.09617 0.22511 0.0
H786 H 0.06745 0.93893 0.32059 0.0
H787 H 0.14311 0.07956 0.22127 0.0
H788 H 0.06635 0.04433 0.26166 0.0
H789 H 0.14395 1.00669 0.28968 0.0
C790 C 0.12715 0.96272 0.31739 0.0
C791 C 0.10567 0.94289 0.32658 0.0
C792 C 0.0832 0.05195 0.25283 0.0
C793 C 0.10549 1.00169 0.28447 0.0
C794 C 0.08329 0.08169 0.23199 0.0
C795 C 0.10484 0.09228 0.22011 0.0
C796 C 0.10486 0.03303 0.2621 0.0
C797 C 0.12608 0.07234 0.22982 0.0
C798 C 0.12715 0.99178 0.29637 0.0
C799 C 0.08442 0.95329 0.3141 0.0
N800 N 0.12556 0.04394 0.25024 0.0
N801 N 0.08484 0.9821 0.29378 0.0
H802 H 0.83582 0.08084 0.31764 0.0
H803 H 0.91352 0.9373 0.21745 0.0
H804 H 0.91249 0.09579 0.31291 0.0
H805 H 0.83732 0.96 0.21191 0.0
H806 H 0.91366 0.98839 0.25434 0.0
H807 H 0.83608 0.02956 0.28096 0.0
C808 C 0.85272 0.0733 0.30888 0.0
C809 C 0.87416 0.09281 0.31832 0.0
C810 C 0.89691 0.98221 0.24504 0.0
C811 C 0.87464 0.03366 0.27631 0.0
C812 C 0.89682 0.95292 0.22403 0.0
C813 C 0.87538 0.94438 0.21158 0.0
C814 C 0.87535 1.00259 0.25387 0.0
C815 C 0.85427 0.96566 0.22091 0.0
C816 C 0.85286 0.04409 0.2879 0.0
C817 C 0.89553 0.08172 0.3062 0.0
N818 N 0.85477 0.99352 0.24147 0.0
N819 N 0.89525 0.05277 0.28592 0.0
H820 H 0.91275 0.10076 0.71651 0.0
H821 H 0.83588 0.96012 0.81822 0.0
H822 H 0.83613 0.08323 0.71281 0.0
H823 H 0.91248 0.94527 0.8125 0.0
H824 H 0.83564 1.01076 0.78136 0.0
H825 H 0.91309 0.04948 0.75321 0.0
C826 C 0.89598 0.0862 0.72345 0.0
C827 C 0.87437 0.09638 0.71158 0.0
C828 C 0.85251 0.99636 0.7881 0.0
C829 C 0.8746 0.03773 0.75374 0.0
C830 C 0.85267 0.9675 0.80919 0.0
C831 C 0.87424 0.94829 0.81844 0.0
C832 C 0.87412 1.00668 0.7762 0.0
C833 C 0.89543 0.95915 0.80597 0.0
C834 C 0.89619 0.05678 0.74438 0.0
C835 C 0.8532 0.07633 0.72137 0.0
N836 N 0.89486 0.98772 0.78558 0.0
N837 N 0.85383 0.04823 0.74188 0.0
H838 H 0.0668 0.10651 0.82173 0.0
H839 H 0.14386 0.96535 0.72024 0.0
H840 H 0.14338 0.08875 0.82565 0.0
H841 H 0.06729 0.94997 0.7261 0.0
H842 H 0.14404 1.01698 0.75685 0.0
H843 H 0.06655 0.05566 0.78485 0.0
C844 C 0.08357 0.09205 0.81478 0.0
C845 C 0.10514 0.10193 0.82679 0.0
C846 C 0.12719 1.00229 0.75017 0.0
C847 C 0.10504 0.04382 0.78446 0.0
C848 C 0.12707 0.97289 0.72922 0.0
C849 C 0.10553 0.95316 0.72012 0.0
C850 C 0.10556 1.01262 0.76205 0.0
C851 C 0.08432 0.96422 0.73252 0.0
C852 C 0.08342 0.06287 0.79376 0.0
C853 C 0.12633 0.08204 0.817 0.0
N854 N 0.08485 0.99327 0.75276 0.0
N855 N 0.12576 0.05416 0.79642 0.0
H856 H 0.64243 0.46139 0.32032 0.0
H857 H 0.56359 0.60288 0.22026 0.0
H858 H 0.56577 0.4456 0.31605 0.0
H859 H 0.63997 0.58329 0.21485 0.0
H860 H 0.56384 0.55115 0.25692 0.0
H861 H 0.6418 0.51207 0.28348 0.0
C862 C 0.62545 0.46859 0.31162 0.0
C863 C 0.60413 0.44906 0.32127 0.0
C864 C 0.58054 0.55809 0.2477 0.0
C865 C 0.60322 0.50752 0.27904 0.0
C866 C 0.58041 0.58771 0.22679 0.0
C867 C 0.60179 0.59745 0.21446 0.0
C868 C 0.60226 0.53852 0.25656 0.0
C869 C 0.62306 0.57673 0.22375 0.0
C870 C 0.6251 0.49746 0.29054 0.0
C871 C 0.58264 0.45971 0.3092 0.0
N872 N 0.62277 0.54855 0.24423 0.0
N873 N 0.58272 0.48833 0.28882 0.0
H874 H 0.41431 0.60411 0.30662 0.0
H875 H 0.33644 0.46033 0.20637 0.0
H876 H 0.33801 0.58242 0.31154 0.0
H877 H 0.41316 0.44616 0.21073 0.0
H878 H 0.33684 0.51141 0.24306 0.0
H879 H 0.41453 0.55261 0.26984 0.0
C880 C 0.39761 0.5886 0.29994 0.0
C881 C 0.37612 0.59758 0.31219 0.0
C882 C 0.35361 0.49709 0.23606 0.0
C883 C 0.37617 0.53889 0.27 0.0
C884 C 0.3534 0.46798 0.21507 0.0
C885 C 0.3748 0.44878 0.20549 0.0
C886 C 0.37543 0.50774 0.24757 0.0
C887 C 0.39623 0.45999 0.21754 0.0
C888 C 0.39775 0.55908 0.27898 0.0
C889 C 0.355 0.57644 0.30272 0.0
N890 N 0.39603 0.48886 0.23787 0.0
N891 N 0.35555 0.54836 0.28222 0.0
H892 H 0.33666 0.4649 0.81164 0.0
H893 H 0.4144 0.60442 0.71015 0.0
H894 H 0.4133 0.44978 0.80684 0.0
H895 H 0.33795 0.58457 0.70563 0.0
H896 H 0.41456 0.55381 0.74715 0.0
H897 H 0.33688 0.51492 0.7746 0.0
C898 C 0.35355 0.47214 0.80279 0.0
C899 C 0.37499 0.45298 0.81233 0.0
C900 C 0.39775 0.56047 0.73805 0.0
C901 C 0.37542 0.51064 0.76988 0.0
C902 C 0.39765 0.58946 0.71696 0.0
C903 C 0.37614 0.59876 0.70478 0.0
C904 C 0.37613 0.5411 0.74724 0.0
C905 C 0.35496 0.57832 0.71441 0.0
C906 C 0.35366 0.50062 0.78159 0.0
C907 C 0.39635 0.46363 0.80008 0.0
N908 N 0.35548 0.55074 0.73506 0.0
N909 N 0.39604 0.49185 0.77958 0.0
H910 H 0.64176 0.58035 0.82195 0.0
H911 H 0.56418 0.44439 0.71922 0.0
H912 H 0.56552 0.60086 0.81531 0.0
H913 H 0.64092 0.45963 0.71612 0.0
H914 H 0.56402 0.49501 0.75619 0.0
H915 H 0.64156 0.52931 0.78523 0.0
C916 C 0.62495 0.57404 0.81277 0.0
C917 C 0.60363 0.59505 0.82171 0.0
C918 C 0.5809 0.48732 0.74742 0.0
C919 C 0.60323 0.53625 0.77957 0.0
C920 C 0.581 0.45829 0.72635 0.0
C921 C 0.6026 0.44772 0.71454 0.0
C922 C 0.60258 0.50549 0.75701 0.0
C923 C 0.62385 0.46688 0.72459 0.0
C924 C 0.62486 0.54498 0.79175 0.0
C925 C 0.58238 0.58554 0.80904 0.0
N926 N 0.62332 0.49455 0.74523 0.0
N927 N 0.5827 0.55675 0.78869 0.0
H928 H 0.17138 0.13396 0.96443 0.0
H929 H 0.09309 0.1473 0.08414 0.0
H930 H 0.09447 0.14643 0.96324 0.0
H931 H 0.16999 0.1352 0.08202 0.0
H932 H 0.09268 0.1555 0.04038 0.0
H933 H 0.17078 0.14298 1.00766 0.0
C934 C 0.15433 0.13907 0.97329 0.0
C935 C 0.13295 0.13909 0.96019 0.0
C936 C 0.10964 0.1516 0.04955 0.0
C937 C 0.13203 0.14892 1.01009 0.0
C938 C 0.10988 0.14713 0.07452 0.0
C939 C 0.13161 0.14018 0.08674 0.0
C940 C 0.13129 0.14922 0.03676 0.0
C941 C 0.15281 0.14009 0.07337 0.0
C942 C 0.15397 0.14416 0.99806 0.0
C943 C 0.11139 0.14614 0.97267 0.0
N944 N 0.1521 0.14416 0.04922 0.0
N945 N 0.11144 0.15025 0.99695 0.0
H946 H 0.80994 0.91687 0.95671 0.0
H947 H 0.8833 0.88519 0.07873 0.0
H948 H 0.88644 0.89536 0.95556 0.0
H949 H 0.81801 0.9715 0.07055 0.0
H950 H 0.88306 0.86823 0.03522 0.0
H951 H 0.81077 0.91421 1.00009 0.0
C952 C 0.82694 0.91096 0.96559 0.0
C953 C 0.84819 0.90708 0.95243 0.0
C954 C 0.86873 0.89041 0.04312 0.0
C955 C 0.84928 0.90414 1.00248 0.0
C956 C 0.86877 0.89975 0.06788 0.0
C957 C 0.85065 0.92983 0.07819 0.0
C958 C 0.85011 0.91027 0.02892 0.0
C959 C 0.83238 0.9483 0.06336 0.0
C960 C 0.8274 0.9096 0.99042 0.0
C961 C 0.86965 0.89885 0.96502 0.0
N962 N 0.83254 0.93812 0.03964 0.0
N963 N 0.86971 0.89811 0.98942 0.0
H964 H 0.16994 0.90436 0.46444 0.0
H965 H 0.09147 0.89623 0.58411 0.0
H966 H 0.09288 0.89785 0.46313 0.0
H967 H 0.16852 0.90262 0.58189 0.0
H968 H 0.09088 0.88785 0.54034 0.0
H969 H 0.16915 0.89464 0.50762 0.0
C970 C 0.15281 0.90039 0.47326 0.0
C971 C 0.13146 0.90227 0.46015 0.0
C972 C 0.10791 0.8905 0.54949 0.0
C973 C 0.13031 0.89171 0.51001 0.0
C974 C 0.10825 0.89503 0.57447 0.0
C975 C 0.13009 0.90049 0.58666 0.0
C976 C 0.12957 0.89128 0.53668 0.0
C977 C 0.15127 0.89892 0.57326 0.0
C978 C 0.15234 0.89491 0.498 0.0
C979 C 0.10977 0.89664 0.47257 0.0
N980 N 0.15046 0.89482 0.54912 0.0
N981 N 0.10973 0.89217 0.49685 0.0
H982 H 0.8085 0.13972 0.57404 0.0
H983 H 0.88684 0.14822 0.45424 0.0
H984 H 0.88556 0.1468 0.57516 0.0
H985 H 0.80985 0.13907 0.45648 0.0
H986 H 0.88738 0.15679 0.49799 0.0
H987 H 0.80919 0.1488 0.53082 0.0
C988 C 0.82561 0.14371 0.56517 0.0
C989 C 0.84699 0.14216 0.57825 0.0
C990 C 0.87037 0.15346 0.48885 0.0
C991 C 0.84802 0.15199 0.52834 0.0
C992 C 0.87006 0.1488 0.46388 0.0
C993 C 0.84825 0.14257 0.4517 0.0
C994 C 0.84873 0.15205 0.50167 0.0
C995 C 0.82707 0.1434 0.4651 0.0
C996 C 0.82602 0.1488 0.5404 0.0
C997 C 0.86864 0.14777 0.56575 0.0
N998 N 0.82786 0.14768 0.48924 0.0
N999 N 0.86863 0.1519 0.54146 0.0
H1000 H 0.66611 0.61057 0.0773 0.0
H1001 H 0.59425 0.66228 0.95565 0.0
H1002 H 0.59195 0.65529 0.07803 0.0
H1003 H 0.66413 0.59381 0.9619 0.0
H1004 H 0.5942 0.6769 0.99934 0.0
H1005 H 0.66718 0.62333 0.03442 0.0
C1006 C 0.65011 0.62414 0.06839 0.0
C1007 C 0.62897 0.63199 0.08123 0.0
C1008 C 0.60966 0.6595 0.991 0.0
C1009 C 0.62966 0.64488 0.03151 0.0
C1010 C 0.60977 0.65156 0.9661 0.0
C1011 C 0.62924 0.62676 0.95521 0.0
C1012 C 0.62933 0.64311 1.00481 0.0
C1013 C 0.64872 0.61286 0.96955 0.0
C1014 C 0.65064 0.6311 0.04379 0.0
C1015 C 0.60869 0.64933 0.06874 0.0
N1016 N 0.64822 0.62107 0.99342 0.0
N1017 N 0.6094 0.65442 0.04444 0.0
H1018 H 0.38683 0.39743 0.9484 0.0
H1019 H 0.30849 0.40852 0.06818 0.0
H1020 H 0.30995 0.41002 0.95056 0.0
H1021 H 0.3855 0.39957 0.06927 0.0
H1022 H 0.30913 0.39953 0.02494 0.0
H1023 H 0.38724 0.38889 0.99214 0.0
C1024 C 0.37004 0.39763 0.95802 0.0
C1025 C 0.34832 0.4048 0.94582 0.0
C1026 C 0.32595 0.39911 0.03453 0.0
C1027 C 0.34865 0.39535 0.99579 0.0
C1028 C 0.32557 0.40416 0.0593 0.0
C1029 C 0.34697 0.40516 0.07238 0.0
C1030 C 0.34792 0.3954 0.02247 0.0
C1031 C 0.36858 0.39906 0.05987 0.0
C1032 C 0.37028 0.39298 0.98299 0.0
C1033 C 0.32712 0.40495 0.9592 0.0
N1034 N 0.36853 0.39496 0.03558 0.0
N1035 N 0.32784 0.40065 0.98335 0.0
H1036 H 0.67014 0.40714 0.45881 0.0
H1037 H 0.59199 0.39568 0.57875 0.0
H1038 H 0.59311 0.39865 0.45785 0.0
H1039 H 0.66873 0.41186 0.57643 0.0
H1040 H 0.59156 0.38694 0.53502 0.0
H1041 H 0.66955 0.39866 0.50206 0.0
C1042 C 0.65306 0.40298 0.46772 0.0
C1043 C 0.63165 0.40399 0.45467 0.0
C1044 C 0.6085 0.3919 0.54413 0.0
C1045 C 0.63076 0.3948 0.50461 0.0
C1046 C 0.60875 0.39667 0.56909 0.0
C1047 C 0.63043 0.40486 0.58125 0.0
C1048 C 0.63008 0.3951 0.53129 0.0
C1049 C 0.65159 0.40597 0.56782 0.0
C1050 C 0.65272 0.39824 0.4925 0.0
C1051 C 0.61005 0.39813 0.46722 0.0
N1052 N 0.65086 0.40146 0.54369 0.0
N1053 N 0.61013 0.3943 0.49152 0.0
H1054 H 0.31233 0.59336 0.56714 0.0
H1055 H 0.38265 0.65981 0.44617 0.0
H1056 H 0.38425 0.6529 0.56903 0.0
H1057 H 0.31687 0.57426 0.45208 0.0
H1058 H 0.38194 0.67359 0.48995 0.0
H1059 H 0.31157 0.60446 0.52421 0.0
C1060 C 0.3279 0.60964 0.55845 0.0
C1061 C 0.34836 0.62212 0.57166 0.0
C1062 C 0.36756 0.65245 0.4815 0.0
C1063 C 0.34805 0.6334 0.52186 0.0
C1064 C 0.36788 0.6449 0.45657 0.0
C1065 C 0.34981 0.61569 0.44554 0.0
C1066 C 0.34883 0.63129 0.49519 0.0
C1067 C 0.33124 0.59672 0.45981 0.0
C1068 C 0.32755 0.61572 0.53382 0.0
C1069 C 0.36805 0.64313 0.55945 0.0
N1070 N 0.33128 0.60475 0.48368 0.0
N1071 N 0.36758 0.64739 0.53509 0.0
H1072 H 0.92069 0.06108 0.14151 0.0
H1073 H 0.05812 0.98457 0.1458 0.0
H1074 H 0.9452 0.90717 0.12598 0.0
H1075 H 0.03349 0.13953 0.13279 0.0
H1076 H 0.01672 0.9542 0.14123 0.0
H1077 H 0.96229 0.09043 0.141 0.0
C1078 C 0.93476 0.03362 0.13778 0.0
C1079 C 0.92947 0.98169 0.13382 0.0
C1080 C 0.02057 0.99477 0.1392 0.0
C1081 C 0.97693 1.01464 0.13359 0.0
C1082 C 0.04412 1.01204 0.14184 0.0
C1083 C 0.04926 0.06458 0.13977 0.0
C1084 C 0.00221 0.03049 0.13482 0.0
C1085 C 0.03043 0.09863 0.13461 0.0
C1086 C 0.95846 0.05032 0.13748 0.0
C1087 C 0.94843 0.94765 0.12908 0.0
N1088 N 0.00774 0.08104 0.13253 0.0
N1089 N 0.97136 0.96463 0.12936 0.0
H1090 H 0.9205 0.98536 0.39298 0.0
H1091 H 0.05898 0.05583 0.3961 0.0
H1092 H 0.94674 0.14001 0.40369 0.0
H1093 H 0.03229 0.90325 0.4111 0.0
H1094 H 0.01774 0.0876 0.39647 0.0
H1095 H 0.96162 0.95364 0.39712 0.0
C1096 C 0.93482 1.01251 0.39634 0.0
C1097 C 0.9302 0.0653 0.39794 0.0
C1098 C 0.02103 0.04725 0.39988 0.0
C1099 C 0.97699 0.02965 0.40243 0.0
C1100 C 0.04452 0.02917 0.39966 0.0
C1101 C 0.04907 0.9769 0.4035 0.0
C1102 C 0.00208 1.01259 0.40363 0.0
C1103 C 0.02965 0.94393 0.40802 0.0
C1104 C 0.95822 0.99447 0.39874 0.0
C1105 C 0.94942 0.09891 0.40231 0.0
N1106 N 0.00698 0.96225 0.40774 0.0
N1107 N 0.97198 0.08055 0.40421 0.0
H1108 H 0.05959 0.9881 0.89702 0.0
H1109 H 0.92138 0.05913 0.89304 0.0
H1110 H 0.03328 0.14091 0.91198 0.0
H1111 H 0.94727 0.90467 0.90481 0.0
H1112 H 0.96252 0.0908 0.89741 0.0
H1113 H 0.01829 0.95664 0.89741 0.0
C1114 C 0.04519 1.01487 0.9006 0.0
C1115 C 0.04986 0.06711 0.90441 0.0
C1116 C 0.95903 0.05004 0.89921 0.0
C1117 C 0.00281 0.03179 0.90454 0.0
C1118 C 0.93563 0.03203 0.89667 0.0
C1119 C 0.9309 0.97929 0.89851 0.0
C1120 C 0.9777 1.01487 0.90325 0.0
C1121 C 0.95002 0.94572 0.90324 0.0
C1122 C 0.02167 0.99697 0.90082 0.0
C1123 C 0.03053 0.10024 0.90894 0.0
N1124 N 0.97259 0.96404 0.90525 0.0
N1125 N 0.00782 0.0821 0.90864 0.0
H1126 H 0.91984 0.98732 0.64123 0.0
H1127 H 0.05816 0.05856 0.64486 0.0
H1128 H 0.94629 0.14002 0.6261 0.0
H1129 H 0.03204 0.90365 0.63467 0.0
H1130 H 0.01707 0.09015 0.64014 0.0
H1131 H 0.96109 0.95582 0.64086 0.0
C1132 C 0.93425 1.01405 0.63761 0.0
C1133 C 0.92963 0.0663 0.63378 0.0
C1134 C 0.02049 0.04929 0.63877 0.0
C1135 C 0.97667 0.03091 0.63366 0.0
C1136 C 0.04388 0.03133 0.6415 0.0
C1137 C 0.04852 0.9785 0.64023 0.0
C1138 C 0.00177 1.014 0.63507 0.0
C1139 C 0.02935 0.94478 0.63583 0.0
C1140 C 0.95776 0.99614 0.6374 0.0
C1141 C 0.949 0.09937 0.62919 0.0
N1142 N 0.00681 0.96308 0.6336 0.0
N1143 N 0.9717 0.0812 0.62949 0.0
H1144 H 0.42009 0.56047 0.13481 0.0
H1145 H 0.55811 0.48962 0.13736 0.0
H1146 H 0.44649 0.40821 0.11882 0.0
H1147 H 0.53255 0.64467 0.12651 0.0
H1148 H 0.51706 0.45836 0.1323 0.0
H1149 H 0.46131 0.59252 0.13348 0.0
C1150 C 0.43447 0.53395 0.13081 0.0
C1151 C 0.42986 0.48163 0.12707 0.0
C1152 C 0.52058 0.49917 0.13081 0.0
C1153 C 0.47682 0.51765 0.12583 0.0
C1154 C 0.54396 0.51698 0.13374 0.0
C1155 C 0.54876 0.56977 0.13249 0.0
C1156 C 0.50196 0.53455 0.12698 0.0
C1157 C 0.52973 0.60358 0.12769 0.0
C1158 C 0.45795 0.55219 0.13003 0.0
C1159 C 0.44917 0.44888 0.12192 0.0
N1160 N 0.50714 0.58543 0.12536 0.0
N1161 N 0.47183 0.46733 0.12171 0.0
H1162 H 0.42059 0.48343 0.38722 0.0
H1163 H 0.55807 0.5588 0.39136 0.0
H1164 H 0.44474 0.63891 0.4 0.0
H1165 H 0.53243 0.40602 0.40771 0.0
H1166 H 0.51659 0.58948 0.39205 0.0
H1167 H 0.46191 0.45371 0.39206 0.0
C1168 C 0.4345 0.51118 0.39119 0.0
C1169 C 0.42923 0.56362 0.39316 0.0
C1170 C 0.5202 0.54935 0.39571 0.0
C1171 C 0.47629 0.53022 0.39841 0.0
C1172 C 0.54381 0.5319 0.39531 0.0
C1173 C 0.5487 0.47982 0.39935 0.0
C1174 C 0.50151 0.51423 0.39982 0.0
C1175 C 0.52954 0.44652 0.4044 0.0
C1176 C 0.45802 0.49426 0.394 0.0
C1177 C 0.44794 0.59803 0.39836 0.0
N1178 N 0.50677 0.46419 0.40422 0.0
N1179 N 0.47068 0.58078 0.40057 0.0
H1180 H 0.42156 0.56078 0.88778 0.0
H1181 H 0.55898 0.48663 0.89468 0.0
H1182 H 0.44641 0.40629 0.90157 0.0
H1183 H 0.53353 0.64097 0.90772 0.0
H1184 H 0.51758 0.45622 0.89575 0.0
H1185 H 0.46265 0.59188 0.89344 0.0
C1186 C 0.43555 0.53356 0.89214 0.0
C1187 C 0.43058 0.48094 0.89404 0.0
C1188 C 0.52116 0.49666 0.89863 0.0
C1189 C 0.4773 0.51587 0.9003 0.0
C1190 C 0.54476 0.51398 0.89802 0.0
C1191 C 0.54971 0.56638 0.90094 0.0
C1192 C 0.50249 0.53217 0.90184 0.0
C1193 C 0.53058 0.60019 0.90528 0.0
C1194 C 0.45893 0.55125 0.89543 0.0
C1195 C 0.44937 0.44723 0.89979 0.0
N1196 N 0.50777 0.58258 0.9053 0.0
N1197 N 0.47191 0.46522 0.90249 0.0
H1198 H 0.41958 0.48618 0.63222 0.0
H1199 H 0.55729 0.55876 0.63926 0.0
H1200 H 0.44547 0.64018 0.61908 0.0
H1201 H 0.53184 0.40446 0.62588 0.0
H1202 H 0.5163 0.59038 0.63359 0.0
H1203 H 0.46089 0.4554 0.63144 0.0
C1204 C 0.43388 0.51338 0.62893 0.0
C1205 C 0.42907 0.56578 0.62584 0.0
C1206 C 0.51987 0.54967 0.6317 0.0
C1207 C 0.47622 0.53114 0.62528 0.0
C1208 C 0.54319 0.53168 0.635 0.0
C1209 C 0.54797 0.47896 0.63319 0.0
C1210 C 0.50136 0.51451 0.6269 0.0
C1211 C 0.52904 0.44546 0.62756 0.0
C1212 C 0.45743 0.49585 0.62847 0.0
C1213 C 0.44832 0.5994 0.62159 0.0
N1214 N 0.50656 0.46375 0.62484 0.0
N1215 N 0.47109 0.58158 0.62172 0.0
H1216 H 0.15938 0.74747 0.13941 0.0
H1217 H 0.07732 0.50717 0.17567 0.0
H1218 H 0.09152 0.76222 0.17542 0.0
H1219 H 0.14615 0.49253 0.14149 0.0
H1220 H 0.08229 0.60041 0.17598 0.0
H1221 H 0.15459 0.6542 0.13961 0.0
C1222 C 0.14335 0.73118 0.14719 0.0
C1223 C 0.12578 0.76298 0.15733 0.0
C1224 C 0.09634 0.57683 0.16845 0.0
C1225 C 0.12034 0.6557 0.15793 0.0
C1226 C 0.0936 0.52344 0.16843 0.0
C1227 C 0.11137 0.49167 0.15858 0.0
C1228 C 0.11699 0.59893 0.15853 0.0
C1229 C 0.13184 0.51533 0.14902 0.0
C1230 C 0.14072 0.67779 0.14745 0.0
C1231 C 0.10565 0.73936 0.16759 0.0
N1232 N 0.13407 0.56742 0.14923 0.0
N1233 N 0.10347 0.68725 0.1676 0.0
H1234 H 0.8705 0.27878 0.1238 0.0
H1235 H 0.83648 0.55892 0.17313 0.0
H1236 H 0.82251 0.30461 0.18283 0.0
H1237 H 0.88523 0.5328 0.11473 0.0
H1238 H 0.83047 0.46609 0.17642 0.0
H1239 H 0.875 0.37175 0.11932 0.0
C1240 C 0.86076 0.3039 0.13572 0.0
C1241 C 0.84615 0.28352 0.15378 0.0
C1242 C 0.84243 0.48068 0.16283 0.0
C1243 C 0.85147 0.39046 0.14891 0.0
C1244 C 0.84598 0.53377 0.16102 0.0
C1245 C 0.86142 0.55403 0.14362 0.0
C1246 C 0.8544 0.44729 0.14717 0.0
C1247 C 0.8729 0.51927 0.12821 0.0
C1248 C 0.86346 0.35709 0.13324 0.0
C1249 C 0.83427 0.3183 0.16889 0.0
N1250 N 0.86921 0.46778 0.13039 0.0
N1251 N 0.83721 0.36988 0.16613 0.0
H1252 H 0.10113 0.28064 0.35769 0.0
H1253 H 0.1369 0.54419 0.42302 0.0
H1254 H 0.14813 0.28864 0.41867 0.0
H1255 H 0.09038 0.53643 0.36168 0.0
H1256 H 0.14129 0.45076 0.42165 0.0
H1257 H 0.09706 0.37417 0.3588 0.0
C1258 C 0.11066 0.302 0.37129 0.0
C1259 C 0.12502 0.27646 0.38811 0.0
C1260 C 0.13015 0.46947 0.40845 0.0
C1261 C 0.1203 0.38397 0.38956 0.0
C1262 C 0.12756 0.52289 0.40928 0.0
C1263 C 0.1132 0.54845 0.39247 0.0
C1264 C 0.11826 0.44105 0.39072 0.0
C1265 C 0.10186 0.51865 0.37485 0.0
C1266 C 0.10825 0.35548 0.37196 0.0
C1267 C 0.13661 0.30637 0.40552 0.0
N1268 N 0.10457 0.46666 0.37449 0.0
N1269 N 0.13404 0.35839 0.40576 0.0
H1270 H 0.8695 0.50096 0.34206 0.0
H1271 H 0.85185 0.75569 0.42073 0.0
H1272 H 0.8627 0.49998 0.41867 0.0
H1273 H 0.85644 0.75641 0.34394 0.0
H1274 H 0.85602 0.66219 0.42033 0.0
H1275 H 0.86493 0.59444 0.34238 0.0
C1276 C 0.86708 0.52036 0.35897 0.0
C1277 C 0.86652 0.49237 0.38038 0.0
C1278 C 0.85614 0.68278 0.40356 0.0
C1279 C 0.86119 0.59973 0.38086 0.0
C1280 C 0.85367 0.73625 0.40376 0.0
C1281 C 0.85376 0.76422 0.38233 0.0
C1282 C 0.8587 0.65674 0.38176 0.0
C1283 C 0.85658 0.73673 0.36094 0.0
C1284 C 0.86438 0.57379 0.35912 0.0
C1285 C 0.86296 0.51972 0.40169 0.0
N1286 N 0.85888 0.68465 0.3612 0.0
N1287 N 0.86052 0.57176 0.40139 0.0
H1288 H 0.88974 0.27943 0.86283 0.0
H1289 H 0.83251 0.55199 0.89773 0.0
H1290 H 0.8214 0.29633 0.89772 0.0
H1291 H 0.90184 0.53491 0.86481 0.0
H1292 H 0.82789 0.45855 0.8974 0.0
H1293 H 0.89417 0.37295 0.86272 0.0
C1294 C 0.87562 0.30274 0.87042 0.0
C1295 C 0.85517 0.27974 0.88034 0.0
C1296 C 0.8441 0.47524 0.8902 0.0
C1297 C 0.86021 0.38717 0.8804 0.0
C1298 C 0.8468 0.52867 0.89047 0.0
C1299 C 0.86761 0.55162 0.88128 0.0
C1300 C 0.86233 0.44424 0.8807 0.0
C1301 C 0.88533 0.51921 0.87178 0.0
C1302 C 0.87821 0.35621 0.87044 0.0
C1303 C 0.83764 0.31212 0.89019 0.0
N1304 N 0.8823 0.46731 0.87178 0.0
N1305 N 0.84054 0.36404 0.88993 0.0
H1306 H 0.14208 0.49844 0.9189 0.0
H1307 H 0.09684 0.76412 0.86204 0.0
H1308 H 0.08625 0.50838 0.86591 0.0
H1309 H 0.15285 0.75408 0.91485 0.0
H1310 H 0.09277 0.67059 0.86313 0.0
H1311 H 0.14633 0.59192 0.91761 0.0
C1312 C 0.13067 0.52023 0.90702 0.0
C1313 C 0.11375 0.49529 0.89251 0.0
C1314 C 0.10593 0.68883 0.87451 0.0
C1315 C 0.11862 0.6027 0.89085 0.0
C1316 C 0.10833 0.7423 0.87383 0.0
C1317 C 0.12523 0.76725 0.88837 0.0
C1318 C 0.12056 0.65977 0.8898 0.0
C1319 C 0.13936 0.73678 0.90355 0.0
C1320 C 0.13317 0.57367 0.90622 0.0
C1321 C 0.09974 0.5257 0.8772 0.0
N1322 N 0.13674 0.68478 0.90382 0.0
N1323 N 0.10244 0.57768 0.87683 0.0
H1324 H 0.85594 0.7595 0.60966 0.0
H1325 H 0.86554 0.50082 0.68692 0.0
H1326 H 0.8527 0.75638 0.68651 0.0
H1327 H 0.86657 0.5038 0.61002 0.0
H1328 H 0.86118 0.59436 0.68718 0.0
H1329 H 0.86018 0.66601 0.60948 0.0
C1330 C 0.85606 0.73921 0.62651 0.0
C1331 C 0.85392 0.7661 0.64814 0.0
C1332 C 0.86231 0.57456 0.67024 0.0
C1333 C 0.85894 0.65865 0.64805 0.0
C1334 C 0.86489 0.52111 0.67008 0.0
C1335 C 0.86644 0.4942 0.64841 0.0
C1336 C 0.86135 0.60162 0.64858 0.0
C1337 C 0.86514 0.52267 0.62715 0.0
C1338 C 0.85857 0.68576 0.62639 0.0
C1339 C 0.8546 0.73756 0.66941 0.0
N1340 N 0.86275 0.5747 0.62778 0.0
N1341 N 0.85699 0.68551 0.66882 0.0
H1342 H 0.12609 0.2888 0.61782 0.0
H1343 H 0.10962 0.54286 0.69722 0.0
H1344 H 0.12289 0.28743 0.69468 0.0
H1345 H 0.11544 0.54452 0.62054 0.0
H1346 H 0.11419 0.44938 0.69667 0.0
H1347 H 0.1219 0.38228 0.61847 0.0
C1348 C 0.12457 0.30809 0.63486 0.0
C1349 C 0.12489 0.27993 0.65624 0.0
C1350 C 0.11453 0.47017 0.67996 0.0
C1351 C 0.11991 0.38741 0.65709 0.0
C1352 C 0.11183 0.52361 0.68025 0.0
C1353 C 0.1121 0.5518 0.65889 0.0
C1354 C 0.11743 0.44442 0.65813 0.0
C1355 C 0.11539 0.52463 0.63748 0.0
C1356 C 0.12209 0.36156 0.63521 0.0
C1357 C 0.12243 0.30724 0.67773 0.0
N1358 N 0.11783 0.47258 0.63765 0.0
N1359 N 0.12011 0.35932 0.6776 0.0
H1360 H 0.57628 1.01839 0.13746 0.0
H1361 H 0.67025 0.24911 0.15286 0.0
H1362 H 0.65225 0.99485 0.14613 0.0
H1363 H 0.59411 0.27115 0.14503 0.0
H1364 H 0.66431 0.15634 0.14916 0.0
H1365 H 0.58283 0.11103 0.13853 0.0
C1366 C 0.59441 0.03258 0.13934 0.0
C1367 C 0.61374 0.99837 0.14162 0.0
C1368 C 0.6489 0.18147 0.14816 0.0
C1369 C 0.62133 0.1052 0.14327 0.0
C1370 C 0.65226 0.23455 0.1504 0.0
C1371 C 0.63265 0.26833 0.14937 0.0
C1372 C 0.62574 0.16166 0.14489 0.0
C1373 C 0.60983 0.24693 0.14569 0.0
C1374 C 0.59811 0.08568 0.14012 0.0
C1375 C 0.63674 1.0195 0.14455 0.0
N1376 N 0.60702 0.19513 0.14368 0.0
N1377 N 0.63987 0.07142 0.1453 0.0
H1378 H 0.33092 0.79609 0.17543 0.0
H1379 H 0.38999 0.03619 0.10789 0.0
H1380 H 0.37633 0.78149 0.1136 0.0
H1381 H 0.34478 0.05108 0.16985 0.0
H1382 H 0.38485 0.9431 0.10951 0.0
H1383 H 0.33594 0.88927 0.17381 0.0
C1384 C 0.34212 0.81235 0.16161 0.0
C1385 C 0.3533 0.78057 0.14467 0.0
C1386 C 0.37602 0.96668 0.12275 0.0
C1387 C 0.35883 0.88785 0.14252 0.0
C1388 C 0.3788 1.02001 0.12175 0.0
C1389 C 0.36773 0.05186 0.13871 0.0
C1390 C 0.36206 0.94462 0.14087 0.0
C1391 C 0.35388 0.02824 0.15653 0.0
C1392 C 0.34483 0.86572 0.1606 0.0
C1393 C 0.36716 0.80427 0.1269 0.0
N1394 N 0.35143 0.97618 0.15712 0.0
N1395 N 0.36955 0.85634 0.12631 0.0
H1396 H 0.59586 0.03823 0.42208 0.0
H1397 H 0.64103 0.79325 0.34806 0.0
H1398 H 0.6277 0.04844 0.35218 0.0
H1399 H 0.60782 0.78313 0.41733 0.0
H1400 H 0.63627 0.88653 0.3492 0.0
H1401 H 0.60068 0.94501 0.42088 0.0
C1402 C 0.60406 1.02098 0.40654 0.0
C1403 C 0.61145 0.0515 0.38723 0.0
C1404 C 0.62998 0.86393 0.36414 0.0
C1405 C 0.61671 0.94419 0.3856 0.0
C1406 C 0.63253 0.81051 0.36344 0.0
C1407 C 0.62476 0.77999 0.3826 0.0
C1408 C 0.61957 0.88734 0.38417 0.0
C1409 C 0.61434 0.80494 0.40225 0.0
C1410 C 0.60665 0.96759 0.4058 0.0
C1411 C 0.62151 0.02659 0.36739 0.0
N1412 N 0.61205 0.85702 0.40251 0.0
N1413 N 0.62386 0.97451 0.36711 0.0
H1414 H 0.36601 0.99185 0.34002 0.0
H1415 H 0.34115 0.25936 0.40688 0.0
H1416 H 0.3557 1.00443 0.41602 0.0
H1417 H 0.35341 0.24602 0.33119 0.0
H1418 H 0.34582 0.16616 0.41064 0.0
H1419 H 0.36007 0.08454 0.33638 0.0
C1420 C 0.36225 1.01395 0.35594 0.0
C1421 C 0.36138 0.99003 0.37837 0.0
C1422 C 0.34747 0.18364 0.3932 0.0
C1423 C 0.35487 0.09682 0.37436 0.0
C1424 C 0.34496 0.23697 0.39106 0.0
C1425 C 0.34683 0.26084 0.36866 0.0
C1426 C 0.35196 0.1537 0.37282 0.0
C1427 C 0.35144 0.22946 0.34877 0.0
C1428 C 0.35904 0.06706 0.35386 0.0
C1429 C 0.35685 1.02111 0.39839 0.0
N1430 N 0.35384 0.17772 0.35132 0.0
N1431 N 0.35379 0.07276 0.39591 0.0
H1432 H 0.38888 0.78184 0.85539 0.0
H1433 H 0.33373 0.05392 0.89412 0.0
H1434 H 0.32287 0.79821 0.89454 0.0
H1435 H 0.4006 0.03729 0.85645 0.0
H1436 H 0.32927 0.96044 0.89418 0.0
H1437 H 0.39323 0.87536 0.85517 0.0
C1438 C 0.37526 0.80504 0.8639 0.0
C1439 C 0.35548 0.78192 0.87502 0.0
C1440 C 0.3449 0.97724 0.88586 0.0
C1441 C 0.36043 0.88931 0.87495 0.0
C1442 C 0.34752 0.03069 0.8859 0.0
C1443 C 0.36758 0.05375 0.87525 0.0
C1444 C 0.36249 0.94637 0.87512 0.0
C1445 C 0.38466 1.02147 0.86457 0.0
C1446 C 0.37781 0.8585 0.86385 0.0
C1447 C 0.33859 0.81412 0.88603 0.0
N1448 N 0.38174 0.96956 0.86482 0.0
N1449 N 0.34143 0.86605 0.88567 0.0
H1450 H 0.67121 0.24597 0.8863 0.0
H1451 H 0.57663 1.01498 0.89604 0.0
H1452 H 0.59464 0.26746 0.88763 0.0
H1453 H 0.65298 0.99155 0.89231 0.0
H1454 H 0.58315 0.10762 0.8947 0.0
H1455 H 0.66513 0.15321 0.88986 0.0
C1456 C 0.6531 0.2313 0.8873 0.0
C1457 C 0.63342 0.26491 0.88656 0.0
C1458 C 0.59852 0.0823 0.89424 0.0
C1459 C 0.62633 0.15828 0.89088 0.0
C1460 C 0.59482 0.02923 0.89518 0.0
C1461 C 0.61428 0.99507 0.8944 0.0
C1462 C 0.62188 0.10184 0.89248 0.0
C1463 C 0.6374 1.01619 0.89274 0.0
C1464 C 0.64966 0.17822 0.88945 0.0
C1465 C 0.61041 0.24338 0.88839 0.0
N1466 N 0.64054 0.0681 0.89184 0.0
N1467 N 0.60753 0.1916 0.89037 0.0
H1468 H 0.37096 1.01035 0.59687 0.0
H1469 H 0.32694 0.24373 0.67922 0.0
H1470 H 0.34728 0.99204 0.66961 0.0
H1471 H 0.36049 0.26527 0.61066 0.0
H1472 H 0.33122 0.15096 0.67456 0.0
H1473 H 0.36416 0.10288 0.60019 0.0
C1474 C 0.36435 0.02562 0.61356 0.0
C1475 C 0.35984 0.99293 0.63303 0.0
C1476 C 0.33763 0.17593 0.66051 0.0
C1477 C 0.35172 0.09935 0.63682 0.0
C1478 C 0.33532 0.2291 0.6632 0.0
C1479 C 0.34356 0.26281 0.64541 0.0
C1480 C 0.34819 0.15582 0.63981 0.0
C1481 C 0.3537 0.24105 0.6248 0.0
C1482 C 0.36037 0.07857 0.61539 0.0
C1483 C 0.35079 1.01526 0.654 0.0
N1484 N 0.35579 0.18908 0.62261 0.0
N1485 N 0.34712 0.06691 0.65534 0.0
H1486 H 0.59667 0.77782 0.62511 0.0
H1487 H 0.63869 0.05242 0.67528 0.0
H1488 H 0.65055 0.79705 0.67956 0.0
H1489 H 0.58404 0.03298 0.62159 0.0
H1490 H 0.64344 0.95905 0.67697 0.0
H1491 H 0.59223 0.87123 0.62312 0.0
C1492 C 0.60764 0.80161 0.63659 0.0
C1493 C 0.62397 0.77928 0.65258 0.0
C1494 C 0.63044 0.97522 0.66479 0.0
C1495 C 0.61883 0.88659 0.65053 0.0
C1496 C 0.62763 0.02861 0.66389 0.0
C1497 C 0.61096 0.05086 0.64824 0.0
C1498 C 0.61646 0.9436 0.64995 0.0
C1499 C 0.59738 1.01782 0.63368 0.0
C1500 C 0.60501 0.85501 0.63554 0.0
C1501 C 0.63746 0.81229 0.66723 0.0
N1502 N 0.60041 0.96602 0.63492 0.0
N1503 N 0.6346 0.86412 0.66583 0.0
loop_
_geom_bond_atom_site_label_1
_geom_bond_atom_site_label_2
_geom_bond_distance
_geom_bond_site_symmetry_2
_ccdc_geom_bond_type
C0 Eu1 2.835 . S
C0 C2 1.500 . S
C0 O20 1.257 . S
C0 O21 1.260 . S
Eu1 C0 2.835 . S
Eu1 O20 2.473 . S
Eu1 O21 2.480 . S
Eu1 O22 2.430 . S
Eu1 O23 2.670 . S
Eu1 O24 2.394 . S
Eu1 O29 2.355 . S
Eu1 O31 2.374 . S
C2 C0 1.500 . S
C2 C3 1.377 . S
C2 C7 1.377 . S
C3 C2 1.377 . S
C3 C4 1.395 . S
C3 H32 0.931 . S
C4 C3 1.395 . S
C4 C5 1.383 . S
C4 H33 0.931 . S
C5 C4 1.383 . S
C5 C6 1.394 . S
C6 C5 1.394 . S
C6 C7 1.378 . S
C6 H34 0.931 . S
C7 C2 1.377 . S
C7 C6 1.378 . S
C7 H35 0.931 . S
C8 O22 1.259 . S
C8 O23 1.270 . S
C9 O24 1.251 . S
C9 O25 1.251 . S
C10 Eu11 2.835 1_565 S
C10 C12 1.500 . S
C10 O26 1.257 . S
C10 O27 1.260 . S
Eu11 C10 2.835 1_545 S
Eu11 O23 2.355 . S
Eu11 O25 2.374 . S
Eu11 O26 2.473 1_545 S
Eu11 O27 2.480 1_545 S
Eu11 O28 2.430 . S
Eu11 O29 2.670 . S
Eu11 O30 2.394 . S
C12 C10 1.500 . S
C12 C13 1.377 . S
C12 C17 1.377 . S
C13 C12 1.377 . S
C13 C14 1.395 . S
C13 H36 0.931 . S
C14 C13 1.395 . S
C14 C15 1.383 . S
C14 H37 0.931 . S
C15 C14 1.383 . S
C15 C16 1.394 . S
C16 C15 1.394 . S
C16 C17 1.378 . S
C16 H38 0.931 . S
C17 C12 1.377 . S
C17 C16 1.378 . S
C17 H39 0.931 . S
C18 O28 1.259 . S
C18 O29 1.270 . S
C19 O30 1.251 . S
C19 O31 1.251 . S
O20 C0 1.257 . S
O20 Eu1 2.473 . S
O21 C0 1.260 . S
O21 Eu1 2.480 . S
O22 Eu1 2.430 . S
O22 C8 1.259 . S
O23 Eu1 2.670 . S
O23 C8 1.270 . S
O23 Eu11 2.355 . S
O24 Eu1 2.394 . S
O24 C9 1.251 . S
O25 C9 1.251 . S
O25 Eu11 2.374 . S
O26 C10 1.257 . S
O26 Eu11 2.473 1_565 S
O27 C10 1.260 . S
O27 Eu11 2.480 1_565 S
O28 Eu11 2.430 . S
O28 C18 1.259 . S
O29 Eu1 2.355 . S
O29 Eu11 2.670 . S
O29 C18 1.270 . S
O30 Eu11 2.394 . S
O30 C19 1.251 . S
O31 Eu1 2.374 . S
O31 C19 1.251 . S
H32 C3 0.931 . S
H33 C4 0.931 . S
H34 C6 0.931 . S
H35 C7 0.931 . S
H36 C13 0.931 . S
H37 C14 0.931 . S
H38 C16 0.931 . S
H39 C17 0.931 . S
C40 Eu41 2.835 . S
C40 C42 1.500 . S
C40 O60 1.257 . S
C40 O61 1.260 . S
Eu41 C40 2.835 . S
Eu41 O60 2.473 . S
Eu41 O61 2.480 . S
Eu41 O62 2.430 . S
Eu41 O63 2.670 . S
Eu41 O64 2.394 . S
Eu41 O69 2.355 . S
Eu41 O71 2.374 . S
C42 C40 1.500 . S
C42 C43 1.377 . S
C42 C47 1.377 . S
C43 C42 1.377 . S
C43 C44 1.395 . S
C43 H72 0.931 . S
C44 C43 1.395 . S
C44 C45 1.383 . S
C44 H73 0.931 . S
C45 C44 1.383 . S
C45 C46 1.394 . S
C46 C45 1.394 . S
C46 C47 1.378 . S
C46 H74 0.931 . S
C47 C42 1.377 . S
C47 C46 1.378 . S
C47 H75 0.931 . S
C48 O62 1.259 . S
C48 O63 1.270 . S
C49 O64 1.251 . S
C49 O65 1.251 . S
C50 Eu51 2.835 1_545 S
C50 C52 1.500 . S
C50 O66 1.257 . S
C50 O67 1.260 . S
Eu51 C50 2.835 1_565 S
Eu51 O63 2.355 . S
Eu51 O65 2.374 . S
Eu51 O66 2.473 1_565 S
Eu51 O67 2.480 1_565 S
Eu51 O68 2.430 . S
Eu51 O69 2.670 . S
Eu51 O70 2.394 . S
C52 C50 1.500 . S
C52 C53 1.377 . S
C52 C57 1.377 . S
C53 C52 1.377 . S
C53 C54 1.395 . S
C53 H76 0.931 . S
C54 C53 1.395 . S
C54 C55 1.383 . S
C54 H77 0.931 . S
C55 C54 1.383 . S
C55 C56 1.394 . S
C56 C55 1.394 . S
C56 C57 1.378 . S
C56 H78 0.931 . S
C57 C52 1.377 . S
C57 C56 1.378 . S
C57 H79 0.931 . S
C58 O68 1.259 . S
C58 O69 1.270 . S
C59 O70 1.251 . S
C59 O71 1.251 . S
O60 C40 1.257 . S
O60 Eu41 2.473 . S
O61 C40 1.260 . S
O61 Eu41 2.480 . S
O62 Eu41 2.430 . S
O62 C48 1.259 . S
O63 Eu41 2.670 . S
O63 C48 1.270 . S
O63 Eu51 2.355 . S
O64 Eu41 2.394 . S
O64 C49 1.251 . S
O65 C49 1.251 . S
O65 Eu51 2.374 . S
O66 C50 1.257 . S
O66 Eu51 2.473 1_545 S
O67 C50 1.260 . S
O67 Eu51 2.480 1_545 S
O68 Eu51 2.430 . S
O68 C58 1.259 . S
O69 Eu41 2.355 . S
O69 Eu51 2.670 . S
O69 C58 1.270 . S
O70 Eu51 2.394 . S
O70 C59 1.251 . S
O71 Eu41 2.374 . S
O71 C59 1.251 . S
H72 C43 0.931 . S
H73 C44 0.931 . S
H74 C46 0.931 . S
H75 C47 0.931 . S
H76 C53 0.931 . S
H77 C54 0.931 . S
H78 C56 0.931 . S
H79 C57 0.931 . S
C80 Eu81 2.835 . S
C80 C82 1.500 . S
C80 O100 1.257 . S
C80 O101 1.260 . S
Eu81 C80 2.835 . S
Eu81 O100 2.473 . S
Eu81 O101 2.480 . S
Eu81 O102 2.430 . S
Eu81 O103 2.670 . S
Eu81 O104 2.394 . S
Eu81 O109 2.355 . S
Eu81 O111 2.374 . S
C82 C80 1.500 . S
C82 C83 1.377 . S
C82 C87 1.377 . S
C83 C82 1.377 . S
C83 C84 1.395 . S
C83 H112 0.931 . S
C84 C83 1.395 . S
C84 C85 1.383 . S
C84 H113 0.931 . S
C85 C84 1.383 . S
C85 C86 1.394 . S
C86 C85 1.394 . S
C86 C87 1.378 . S
C86 H114 0.931 . S
C87 C82 1.377 . S
C87 C86 1.378 . S
C87 H115 0.931 . S
C88 O102 1.259 . S
C88 O103 1.270 . S
C89 O104 1.251 . S
C89 O105 1.251 . S
C90 Eu91 2.835 1_545 S
C90 C92 1.500 . S
C90 O106 1.257 . S
C90 O107 1.260 . S
Eu91 C90 2.835 1_565 S
Eu91 O103 2.355 . S
Eu91 O105 2.374 . S
Eu91 O106 2.473 1_565 S
Eu91 O107 2.480 1_565 S
Eu91 O108 2.430 . S
Eu91 O109 2.670 . S
Eu91 O110 2.394 . S
C92 C90 1.500 . S
C92 C93 1.377 . S
C92 C97 1.377 . S
C93 C92 1.377 . S
C93 C94 1.395 . S
C93 H116 0.931 . S
C94 C93 1.395 . S
C94 C95 1.383 . S
C94 H117 0.931 . S
C95 C94 1.383 . S
C95 C96 1.394 . S
C96 C95 1.394 . S
C96 C97 1.378 . S
C96 H118 0.931 . S
C97 C92 1.377 . S
C97 C96 1.378 . S
C97 H119 0.931 . S
C98 O108 1.259 . S
C98 O109 1.270 . S
C99 O110 1.251 . S
C99 O111 1.251 . S
O100 C80 1.257 . S
O100 Eu81 2.473 . S
O101 C80 1.260 . S
O101 Eu81 2.480 . S
O102 Eu81 2.430 . S
O102 C88 1.259 . S
O103 Eu81 2.670 . S
O103 C88 1.270 . S
O103 Eu91 2.355 . S
O104 Eu81 2.394 . S
O104 C89 1.251 . S
O105 C89 1.251 . S
O105 Eu91 2.374 . S
O106 C90 1.257 . S
O106 Eu91 2.473 1_545 S
O107 C90 1.260 . S
O107 Eu91 2.480 1_545 S
O108 Eu91 2.430 . S
O108 C98 1.259 . S
O109 Eu81 2.355 . S
O109 Eu91 2.670 . S
O109 C98 1.270 . S
O110 Eu91 2.394 . S
O110 C99 1.251 . S
O111 Eu81 2.374 . S
O111 C99 1.251 . S
H112 C83 0.931 . S
H113 C84 0.931 . S
H114 C86 0.931 . S
H115 C87 0.931 . S
H116 C93 0.931 . S
H117 C94 0.931 . S
H118 C96 0.931 . S
H119 C97 0.931 . S
C120 Eu121 2.835 . S
C120 C122 1.500 . S
C120 O140 1.257 . S
C120 O141 1.260 . S
Eu121 C120 2.835 . S
Eu121 O140 2.473 . S
Eu121 O141 2.480 . S
Eu121 O142 2.430 . S
Eu121 O143 2.670 . S
Eu121 O144 2.394 . S
Eu121 O149 2.355 . S
Eu121 O151 2.374 . S
C122 C120 1.500 . S
C122 C123 1.377 . S
C122 C127 1.377 . S
C123 C122 1.377 . S
C123 C124 1.395 . S
C123 H152 0.931 . S
C124 C123 1.395 . S
C124 C125 1.383 . S
C124 H153 0.931 . S
C125 C124 1.383 . S
C125 C126 1.394 . S
C126 C125 1.394 . S
C126 C127 1.378 . S
C126 H154 0.931 . S
C127 C122 1.377 . S
C127 C126 1.378 . S
C127 H155 0.931 . S
C128 O142 1.259 . S
C128 O143 1.270 . S
C129 O144 1.251 . S
C129 O145 1.251 . S
C130 Eu131 2.835 1_565 S
C130 C132 1.500 . S
C130 O146 1.257 . S
C130 O147 1.260 . S
Eu131 C130 2.835 1_545 S
Eu131 O143 2.355 . S
Eu131 O145 2.374 . S
Eu131 O146 2.473 1_545 S
Eu131 O147 2.480 1_545 S
Eu131 O148 2.430 . S
Eu131 O149 2.670 . S
Eu131 O150 2.394 . S
C132 C130 1.500 . S
C132 C133 1.377 . S
C132 C137 1.377 . S
C133 C132 1.377 . S
C133 C134 1.395 . S
C133 H156 0.931 . S
C134 C133 1.395 . S
C134 C135 1.383 . S
C134 H157 0.931 . S
C135 C134 1.383 . S
C135 C136 1.394 . S
C136 C135 1.394 . S
C136 C137 1.378 . S
C136 H158 0.931 . S
C137 C132 1.377 . S
C137 C136 1.378 . S
C137 H159 0.931 . S
C138 O148 1.259 . S
C138 O149 1.270 . S
C139 O150 1.251 . S
C139 O151 1.251 . S
O140 C120 1.257 . S
O140 Eu121 2.473 . S
O141 C120 1.260 . S
O141 Eu121 2.480 . S
O142 Eu121 2.430 . S
O142 C128 1.259 . S
O143 Eu121 2.670 . S
O143 C128 1.270 . S
O143 Eu131 2.355 . S
O144 Eu121 2.394 . S
O144 C129 1.251 . S
O145 C129 1.251 . S
O145 Eu131 2.374 . S
O146 C130 1.257 . S
O146 Eu131 2.473 1_565 S
O147 C130 1.260 . S
O147 Eu131 2.480 1_565 S
O148 Eu131 2.430 . S
O148 C138 1.259 . S
O149 Eu121 2.355 . S
O149 Eu131 2.670 . S
O149 C138 1.270 . S
O150 Eu131 2.394 . S
O150 C139 1.251 . S
O151 Eu121 2.374 . S
O151 C139 1.251 . S
H152 C123 0.931 . S
H153 C124 0.931 . S
H154 C126 0.931 . S
H155 C127 0.931 . S
H156 C133 0.931 . S
H157 C134 0.931 . S
H158 C136 0.931 . S
H159 C137 0.931 . S
C160 Eu161 2.835 1_545 S
C160 C162 1.500 . S
C160 O180 1.257 . S
C160 O181 1.260 . S
Eu161 C160 2.835 1_565 S
Eu161 O180 2.473 1_565 S
Eu161 O181 2.480 1_565 S
Eu161 O182 2.430 . S
Eu161 O183 2.670 . S
Eu161 O184 2.394 . S
Eu161 O189 2.355 . S
Eu161 O191 2.374 . S
C162 C160 1.500 . S
C162 C163 1.377 . S
C162 C167 1.377 . S
C163 C162 1.377 . S
C163 C164 1.395 . S
C163 H192 0.931 . S
C164 C163 1.395 . S
C164 C165 1.383 . S
C164 H193 0.931 . S
C165 C164 1.383 . S
C165 C166 1.394 . S
C166 C165 1.394 . S
C166 C167 1.378 . S
C166 H194 0.931 . S
C167 C162 1.377 . S
C167 C166 1.378 . S
C167 H195 0.931 . S
C168 O182 1.259 . S
C168 O183 1.270 . S
C169 O184 1.251 . S
C169 O185 1.251 . S
C170 Eu171 2.835 . S
C170 C172 1.500 . S
C170 O186 1.257 . S
C170 O187 1.260 . S
Eu171 C170 2.835 . S
Eu171 O183 2.355 . S
Eu171 O185 2.374 . S
Eu171 O186 2.473 . S
Eu171 O187 2.480 . S
Eu171 O188 2.430 . S
Eu171 O189 2.670 . S
Eu171 O190 2.394 . S
C172 C170 1.500 . S
C172 C173 1.377 . S
C172 C177 1.377 . S
C173 C172 1.377 . S
C173 C174 1.395 . S
C173 H196 0.931 . S
C174 C173 1.395 . S
C174 C175 1.383 . S
C174 H197 0.931 . S
C175 C174 1.383 . S
C175 C176 1.394 . S
C176 C175 1.394 . S
C176 C177 1.378 . S
C176 H198 0.931 . S
C177 C172 1.377 . S
C177 C176 1.378 . S
C177 H199 0.931 . S
C178 O188 1.259 . S
C178 O189 1.270 . S
C179 O190 1.251 . S
C179 O191 1.251 . S
O180 C160 1.257 . S
O180 Eu161 2.473 1_545 S
O181 C160 1.260 . S
O181 Eu161 2.480 1_545 S
O182 Eu161 2.430 . S
O182 C168 1.259 . S
O183 Eu161 2.670 . S
O183 C168 1.270 . S
O183 Eu171 2.355 . S
O184 Eu161 2.394 . S
O184 C169 1.251 . S
O185 C169 1.251 . S
O185 Eu171 2.374 . S
O186 C170 1.257 . S
O186 Eu171 2.473 . S
O187 C170 1.260 . S
O187 Eu171 2.480 . S
O188 Eu171 2.430 . S
O188 C178 1.259 . S
O189 Eu161 2.355 . S
O189 Eu171 2.670 . S
O189 C178 1.270 . S
O190 Eu171 2.394 . S
O190 C179 1.251 . S
O191 Eu161 2.374 . S
O191 C179 1.251 . S
H192 C163 0.931 . S
H193 C164 0.931 . S
H194 C166 0.931 . S
H195 C167 0.931 . S
H196 C173 0.931 . S
H197 C174 0.931 . S
H198 C176 0.931 . S
H199 C177 0.931 . S
C200 Eu201 2.835 1_565 S
C200 C202 1.500 . S
C200 O220 1.257 . S
C200 O221 1.260 . S
Eu201 C200 2.835 1_545 S
Eu201 O220 2.473 1_545 S
Eu201 O221 2.480 1_545 S
Eu201 O222 2.430 . S
Eu201 O223 2.670 . S
Eu201 O224 2.394 . S
Eu201 O229 2.355 . S
Eu201 O231 2.374 . S
C202 C200 1.500 . S
C202 C203 1.377 . S
C202 C207 1.377 . S
C203 C202 1.377 . S
C203 C204 1.395 . S
C203 H232 0.931 . S
C204 C203 1.395 . S
C204 C205 1.383 . S
C204 H233 0.931 . S
C205 C204 1.383 . S
C205 C206 1.394 . S
C206 C205 1.394 . S
C206 C207 1.378 . S
C206 H234 0.931 . S
C207 C202 1.377 . S
C207 C206 1.378 . S
C207 H235 0.931 . S
C208 O222 1.259 . S
C208 O223 1.270 . S
C209 O224 1.251 . S
C209 O225 1.251 . S
C210 Eu211 2.835 . S
C210 C212 1.500 . S
C210 O226 1.257 . S
C210 O227 1.260 . S
Eu211 C210 2.835 . S
Eu211 O223 2.355 . S
Eu211 O225 2.374 . S
Eu211 O226 2.473 . S
Eu211 O227 2.480 . S
Eu211 O228 2.430 . S
Eu211 O229 2.670 . S
Eu211 O230 2.394 . S
C212 C210 1.500 . S
C212 C213 1.377 . S
C212 C217 1.377 . S
C213 C212 1.377 . S
C213 C214 1.395 . S
C213 H236 0.931 . S
C214 C213 1.395 . S
C214 C215 1.383 . S
C214 H237 0.931 . S
C215 C214 1.383 . S
C215 C216 1.394 . S
C216 C215 1.394 . S
C216 C217 1.378 . S
C216 H238 0.931 . S
C217 C212 1.377 . S
C217 C216 1.378 . S
C217 H239 0.931 . S
C218 O228 1.259 . S
C218 O229 1.270 . S
C219 O230 1.251 . S
C219 O231 1.251 . S
O220 C200 1.257 . S
O220 Eu201 2.473 1_565 S
O221 C200 1.260 . S
O221 Eu201 2.480 1_565 S
O222 Eu201 2.430 . S
O222 C208 1.259 . S
O223 Eu201 2.670 . S
O223 C208 1.270 . S
O223 Eu211 2.355 . S
O224 Eu201 2.394 . S
O224 C209 1.251 . S
O225 C209 1.251 . S
O225 Eu211 2.374 . S
O226 C210 1.257 . S
O226 Eu211 2.473 . S
O227 C210 1.260 . S
O227 Eu211 2.480 . S
O228 Eu211 2.430 . S
O228 C218 1.259 . S
O229 Eu201 2.355 . S
O229 Eu211 2.670 . S
O229 C218 1.270 . S
O230 Eu211 2.394 . S
O230 C219 1.251 . S
O231 Eu201 2.374 . S
O231 C219 1.251 . S
H232 C203 0.931 . S
H233 C204 0.931 . S
H234 C206 0.931 . S
H235 C207 0.931 . S
H236 C213 0.931 . S
H237 C214 0.931 . S
H238 C216 0.931 . S
H239 C217 0.931 . S
C240 Eu241 2.835 1_565 S
C240 C242 1.500 . S
C240 O260 1.257 . S
C240 O261 1.260 . S
Eu241 C240 2.835 1_545 S
Eu241 O260 2.473 1_545 S
Eu241 O261 2.480 1_545 S
Eu241 O262 2.430 . S
Eu241 O263 2.670 . S
Eu241 O264 2.394 . S
Eu241 O269 2.355 . S
Eu241 O271 2.374 . S
C242 C240 1.500 . S
C242 C243 1.377 . S
C242 C247 1.377 . S
C243 C242 1.377 . S
C243 C244 1.395 . S
C243 H272 0.931 . S
C244 C243 1.395 . S
C244 C245 1.383 . S
C244 H273 0.931 . S
C245 C244 1.383 . S
C245 C246 1.394 . S
C246 C245 1.394 . S
C246 C247 1.378 . S
C246 H274 0.931 . S
C247 C242 1.377 . S
C247 C246 1.378 . S
C247 H275 0.931 . S
C248 O262 1.259 . S
C248 O263 1.270 . S
C249 O264 1.251 . S
C249 O265 1.251 . S
C250 Eu251 2.835 . S
C250 C252 1.500 . S
C250 O266 1.257 . S
C250 O267 1.260 . S
Eu251 C250 2.835 . S
Eu251 O263 2.355 . S
Eu251 O265 2.374 . S
Eu251 O266 2.473 . S
Eu251 O267 2.480 . S
Eu251 O268 2.430 . S
Eu251 O269 2.670 . S
Eu251 O270 2.394 . S
C252 C250 1.500 . S
C252 C253 1.377 . S
C252 C257 1.377 . S
C253 C252 1.377 . S
C253 C254 1.395 . S
C253 H276 0.931 . S
C254 C253 1.395 . S
C254 C255 1.383 . S
C254 H277 0.931 . S
C255 C254 1.383 . S
C255 C256 1.394 . S
C256 C255 1.394 . S
C256 C257 1.378 . S
C256 H278 0.931 . S
C257 C252 1.377 . S
C257 C256 1.378 . S
C257 H279 0.931 . S
C258 O268 1.259 . S
C258 O269 1.270 . S
C259 O270 1.251 . S
C259 O271 1.251 . S
O260 C240 1.257 . S
O260 Eu241 2.473 1_565 S
O261 C240 1.260 . S
O261 Eu241 2.480 1_565 S
O262 Eu241 2.430 . S
O262 C248 1.259 . S
O263 Eu241 2.670 . S
O263 C248 1.270 . S
O263 Eu251 2.355 . S
O264 Eu241 2.394 . S
O264 C249 1.251 . S
O265 C249 1.251 . S
O265 Eu251 2.374 . S
O266 C250 1.257 . S
O266 Eu251 2.473 . S
O267 C250 1.260 . S
O267 Eu251 2.480 . S
O268 Eu251 2.430 . S
O268 C258 1.259 . S
O269 Eu241 2.355 . S
O269 Eu251 2.670 . S
O269 C258 1.270 . S
O270 Eu251 2.394 . S
O270 C259 1.251 . S
O271 Eu241 2.374 . S
O271 C259 1.251 . S
H272 C243 0.931 . S
H273 C244 0.931 . S
H274 C246 0.931 . S
H275 C247 0.931 . S
H276 C253 0.931 . S
H277 C254 0.931 . S
H278 C256 0.931 . S
H279 C257 0.931 . S
C280 Eu281 2.835 1_545 S
C280 C282 1.500 . S
C280 O300 1.257 . S
C280 O301 1.260 . S
Eu281 C280 2.835 1_565 S
Eu281 O300 2.473 1_565 S
Eu281 O301 2.480 1_565 S
Eu281 O302 2.430 . S
Eu281 O303 2.670 . S
Eu281 O304 2.394 . S
Eu281 O309 2.355 . S
Eu281 O311 2.374 . S
C282 C280 1.500 . S
C282 C283 1.377 . S
C282 C287 1.377 . S
C283 C282 1.377 . S
C283 C284 1.395 . S
C283 H312 0.931 . S
C284 C283 1.395 . S
C284 C285 1.383 . S
C284 H313 0.931 . S
C285 C284 1.383 . S
C285 C286 1.394 . S
C286 C285 1.394 . S
C286 C287 1.378 . S
C286 H314 0.931 . S
C287 C282 1.377 . S
C287 C286 1.378 . S
C287 H315 0.931 . S
C288 O302 1.259 . S
C288 O303 1.270 . S
C289 O304 1.251 . S
C289 O305 1.251 . S
C290 Eu291 2.835 . S
C290 C292 1.500 . S
C290 O306 1.257 . S
C290 O307 1.260 . S
Eu291 C290 2.835 . S
Eu291 O303 2.355 . S
Eu291 O305 2.374 . S
Eu291 O306 2.473 . S
Eu291 O307 2.480 . S
Eu291 O308 2.430 . S
Eu291 O309 2.670 . S
Eu291 O310 2.394 . S
C292 C290 1.500 . S
C292 C293 1.377 . S
C292 C297 1.377 . S
C293 C292 1.377 . S
C293 C294 1.395 . S
C293 H316 0.931 . S
C294 C293 1.395 . S
C294 C295 1.383 . S
C294 H317 0.931 . S
C295 C294 1.383 . S
C295 C296 1.394 . S
C296 C295 1.394 . S
C296 C297 1.378 . S
C296 H318 0.931 . S
C297 C292 1.377 . S
C297 C296 1.378 . S
C297 H319 0.931 . S
C298 O308 1.259 . S
C298 O309 1.270 . S
C299 O310 1.251 . S
C299 O311 1.251 . S
O300 C280 1.257 . S
O300 Eu281 2.473 1_545 S
O301 C280 1.260 . S
O301 Eu281 2.480 1_545 S
O302 Eu281 2.430 . S
O302 C288 1.259 . S
O303 Eu281 2.670 . S
O303 C288 1.270 . S
O303 Eu291 2.355 . S
O304 Eu281 2.394 . S
O304 C289 1.251 . S
O305 C289 1.251 . S
O305 Eu291 2.374 . S
O306 C290 1.257 . S
O306 Eu291 2.473 . S
O307 C290 1.260 . S
O307 Eu291 2.480 . S
O308 Eu291 2.430 . S
O308 C298 1.259 . S
O309 Eu281 2.355 . S
O309 Eu291 2.670 . S
O309 C298 1.270 . S
O310 Eu291 2.394 . S
O310 C299 1.251 . S
O311 Eu281 2.374 . S
O311 C299 1.251 . S
H312 C283 0.931 . S
H313 C284 0.931 . S
H314 C286 0.931 . S
H315 C287 0.931 . S
H316 C293 0.931 . S
H317 C294 0.931 . S
H318 C296 0.931 . S
H319 C297 0.931 . S
C320 Eu321 2.835 . S
C320 C322 1.500 . S
C320 O340 1.257 . S
C320 O341 1.260 . S
Eu321 C320 2.835 . S
Eu321 O340 2.473 . S
Eu321 O341 2.480 . S
Eu321 O342 2.430 . S
Eu321 O343 2.670 . S
Eu321 O344 2.394 . S
Eu321 O349 2.355 . S
Eu321 O351 2.374 . S
C322 C320 1.500 . S
C322 C323 1.377 . S
C322 C327 1.377 . S
C323 C322 1.377 . S
C323 C324 1.395 . S
C323 H352 0.931 . S
C324 C323 1.395 . S
C324 C325 1.383 . S
C324 H353 0.931 . S
C325 C324 1.383 . S
C325 C326 1.394 . S
C326 C325 1.394 . S
C326 C327 1.378 . S
C326 H354 0.931 . S
C327 C322 1.377 . S
C327 C326 1.378 . S
C327 H355 0.931 . S
C328 O342 1.259 . S
C328 O343 1.270 . S
C329 O344 1.251 . S
C329 O345 1.251 . S
C330 Eu331 2.835 . S
C330 C332 1.500 . S
C330 O346 1.257 . S
C330 O347 1.260 . S
Eu331 C330 2.835 . S
Eu331 O343 2.355 . S
Eu331 O345 2.374 . S
Eu331 O346 2.473 . S
Eu331 O347 2.480 . S
Eu331 O348 2.430 . S
Eu331 O349 2.670 . S
Eu331 O350 2.394 . S
C332 C330 1.500 . S
C332 C333 1.377 . S
C332 C337 1.377 . S
C333 C332 1.377 . S
C333 C334 1.395 . S
C333 H356 0.931 . S
C334 C333 1.395 . S
C334 C335 1.383 . S
C334 H357 0.931 . S
C335 C334 1.383 . S
C335 C336 1.394 . S
C336 C335 1.394 . S
C336 C337 1.378 . S
C336 H358 0.931 . S
C337 C332 1.377 . S
C337 C336 1.378 . S
C337 H359 0.931 . S
C338 O348 1.259 . S
C338 O349 1.270 . S
C339 O350 1.251 . S
C339 O351 1.251 . S
O340 C320 1.257 . S
O340 Eu321 2.473 . S
O341 C320 1.260 . S
O341 Eu321 2.480 . S
O342 Eu321 2.430 . S
O342 C328 1.259 . S
O343 Eu321 2.670 . S
O343 C328 1.270 . S
O343 Eu331 2.355 . S
O344 Eu321 2.394 . S
O344 C329 1.251 . S
O345 C329 1.251 . S
O345 Eu331 2.374 . S
O346 C330 1.257 . S
O346 Eu331 2.473 . S
O347 C330 1.260 . S
O347 Eu331 2.480 . S
O348 Eu331 2.430 . S
O348 C338 1.259 . S
O349 Eu321 2.355 . S
O349 Eu331 2.670 . S
O349 C338 1.270 . S
O350 Eu331 2.394 . S
O350 C339 1.251 . S
O351 Eu321 2.374 . S
O351 C339 1.251 . S
H352 C323 0.931 . S
H353 C324 0.931 . S
H354 C326 0.931 . S
H355 C327 0.931 . S
H356 C333 0.931 . S
H357 C334 0.931 . S
H358 C336 0.931 . S
H359 C337 0.931 . S
C360 Eu361 2.835 . S
C360 C362 1.500 . S
C360 O380 1.257 . S
C360 O381 1.260 . S
Eu361 C360 2.835 . S
Eu361 O380 2.473 . S
Eu361 O381 2.480 . S
Eu361 O382 2.430 . S
Eu361 O383 2.670 . S
Eu361 O384 2.394 . S
Eu361 O389 2.355 . S
Eu361 O391 2.374 . S
C362 C360 1.500 . S
C362 C363 1.377 . S
C362 C367 1.377 . S
C363 C362 1.377 . S
C363 C364 1.395 . S
C363 H392 0.931 . S
C364 C363 1.395 . S
C364 C365 1.383 . S
C364 H393 0.931 . S
C365 C364 1.383 . S
C365 C366 1.394 . S
C366 C365 1.394 . S
C366 C367 1.378 . S
C366 H394 0.931 . S
C367 C362 1.377 . S
C367 C366 1.378 . S
C367 H395 0.931 . S
C368 O382 1.259 . S
C368 O383 1.270 . S
C369 O384 1.251 . S
C369 O385 1.251 . S
C370 Eu371 2.835 . S
C370 C372 1.500 . S
C370 O386 1.257 . S
C370 O387 1.260 . S
Eu371 C370 2.835 . S
Eu371 O383 2.355 . S
Eu371 O385 2.374 . S
Eu371 O386 2.473 . S
Eu371 O387 2.480 . S
Eu371 O388 2.430 . S
Eu371 O389 2.670 . S
Eu371 O390 2.394 . S
C372 C370 1.500 . S
C372 C373 1.377 . S
C372 C377 1.377 . S
C373 C372 1.377 . S
C373 C374 1.395 . S
C373 H396 0.931 . S
C374 C373 1.395 . S
C374 C375 1.383 . S
C374 H397 0.931 . S
C375 C374 1.383 . S
C375 C376 1.394 . S
C376 C375 1.394 . S
C376 C377 1.378 . S
C376 H398 0.931 . S
C377 C372 1.377 . S
C377 C376 1.378 . S
C377 H399 0.931 . S
C378 O388 1.259 . S
C378 O389 1.270 . S
C379 O390 1.251 . S
C379 O391 1.251 . S
O380 C360 1.257 . S
O380 Eu361 2.473 . S
O381 C360 1.260 . S
O381 Eu361 2.480 . S
O382 Eu361 2.430 . S
O382 C368 1.259 . S
O383 Eu361 2.670 . S
O383 C368 1.270 . S
O383 Eu371 2.355 . S
O384 Eu361 2.394 . S
O384 C369 1.251 . S
O385 C369 1.251 . S
O385 Eu371 2.374 . S
O386 C370 1.257 . S
O386 Eu371 2.473 . S
O387 C370 1.260 . S
O387 Eu371 2.480 . S
O388 Eu371 2.430 . S
O388 C378 1.259 . S
O389 Eu361 2.355 . S
O389 Eu371 2.670 . S
O389 C378 1.270 . S
O390 Eu371 2.394 . S
O390 C379 1.251 . S
O391 Eu361 2.374 . S
O391 C379 1.251 . S
H392 C363 0.931 . S
H393 C364 0.931 . S
H394 C366 0.931 . S
H395 C367 0.931 . S
H396 C373 0.931 . S
H397 C374 0.931 . S
H398 C376 0.931 . S
H399 C377 0.931 . S
C400 Eu401 2.835 . S
C400 C402 1.500 . S
C400 O420 1.257 . S
C400 O421 1.260 . S
Eu401 C400 2.835 . S
Eu401 O420 2.473 . S
Eu401 O421 2.480 . S
Eu401 O422 2.430 . S
Eu401 O423 2.670 . S
Eu401 O424 2.394 . S
Eu401 O429 2.355 . S
Eu401 O431 2.374 . S
C402 C400 1.500 . S
C402 C403 1.377 . S
C402 C407 1.377 . S
C403 C402 1.377 . S
C403 C404 1.395 . S
C403 H432 0.931 . S
C404 C403 1.395 . S
C404 C405 1.383 . S
C404 H433 0.931 . S
C405 C404 1.383 . S
C405 C406 1.394 . S
C406 C405 1.394 . S
C406 C407 1.378 . S
C406 H434 0.931 . S
C407 C402 1.377 . S
C407 C406 1.378 . S
C407 H435 0.931 . S
C408 O422 1.259 . S
C408 O423 1.270 . S
C409 O424 1.251 . S
C409 O425 1.251 . S
C410 Eu411 2.835 . S
C410 C412 1.500 . S
C410 O426 1.257 . S
C410 O427 1.260 . S
Eu411 C410 2.835 . S
Eu411 O423 2.355 . S
Eu411 O425 2.374 . S
Eu411 O426 2.473 . S
Eu411 O427 2.480 . S
Eu411 O428 2.430 . S
Eu411 O429 2.670 . S
Eu411 O430 2.394 . S
C412 C410 1.500 . S
C412 C413 1.377 . S
C412 C417 1.377 . S
C413 C412 1.377 . S
C413 C414 1.395 . S
C413 H436 0.931 . S
C414 C413 1.395 . S
C414 C415 1.383 . S
C414 H437 0.931 . S
C415 C414 1.383 . S
C415 C416 1.394 . S
C416 C415 1.394 . S
C416 C417 1.378 . S
C416 H438 0.931 . S
C417 C412 1.377 . S
C417 C416 1.378 . S
C417 H439 0.931 . S
C418 O428 1.259 . S
C418 O429 1.270 . S
C419 O430 1.251 . S
C419 O431 1.251 . S
O420 C400 1.257 . S
O420 Eu401 2.473 . S
O421 C400 1.260 . S
O421 Eu401 2.480 . S
O422 Eu401 2.430 . S
O422 C408 1.259 . S
O423 Eu401 2.670 . S
O423 C408 1.270 . S
O423 Eu411 2.355 . S
O424 Eu401 2.394 . S
O424 C409 1.251 . S
O425 C409 1.251 . S
O425 Eu411 2.374 . S
O426 C410 1.257 . S
O426 Eu411 2.473 . S
O427 C410 1.260 . S
O427 Eu411 2.480 . S
O428 Eu411 2.430 . S
O428 C418 1.259 . S
O429 Eu401 2.355 . S
O429 Eu411 2.670 . S
O429 C418 1.270 . S
O430 Eu411 2.394 . S
O430 C419 1.251 . S
O431 Eu401 2.374 . S
O431 C419 1.251 . S
H432 C403 0.931 . S
H433 C404 0.931 . S
H434 C406 0.931 . S
H435 C407 0.931 . S
H436 C413 0.931 . S
H437 C414 0.931 . S
H438 C416 0.931 . S
H439 C417 0.931 . S
C440 Eu441 2.835 . S
C440 C442 1.500 . S
C440 O460 1.257 . S
C440 O461 1.260 . S
Eu441 C440 2.835 . S
Eu441 O460 2.473 . S
Eu441 O461 2.480 . S
Eu441 O462 2.430 . S
Eu441 O463 2.670 . S
Eu441 O464 2.394 . S
Eu441 O469 2.355 . S
Eu441 O471 2.374 . S
C442 C440 1.500 . S
C442 C443 1.377 . S
C442 C447 1.377 . S
C443 C442 1.377 . S
C443 C444 1.395 . S
C443 H472 0.931 . S
C444 C443 1.395 . S
C444 C445 1.383 . S
C444 H473 0.931 . S
C445 C444 1.383 . S
C445 C446 1.394 . S
C446 C445 1.394 . S
C446 C447 1.378 . S
C446 H474 0.931 . S
C447 C442 1.377 . S
C447 C446 1.378 . S
C447 H475 0.931 . S
C448 O462 1.259 . S
C448 O463 1.270 . S
C449 O464 1.251 . S
C449 O465 1.251 . S
C450 Eu451 2.835 . S
C450 C452 1.500 . S
C450 O466 1.257 . S
C450 O467 1.260 . S
Eu451 C450 2.835 . S
Eu451 O463 2.355 . S
Eu451 O465 2.374 . S
Eu451 O466 2.473 . S
Eu451 O467 2.480 . S
Eu451 O468 2.430 . S
Eu451 O469 2.670 . S
Eu451 O470 2.394 . S
C452 C450 1.500 . S
C452 C453 1.377 . S
C452 C457 1.377 . S
C453 C452 1.377 . S
C453 C454 1.395 . S
C453 H476 0.931 . S
C454 C453 1.395 . S
C454 C455 1.383 . S
C454 H477 0.931 . S
C455 C454 1.383 . S
C455 C456 1.394 . S
C456 C455 1.394 . S
C456 C457 1.378 . S
C456 H478 0.931 . S
C457 C452 1.377 . S
C457 C456 1.378 . S
C457 H479 0.931 . S
C458 O468 1.259 . S
C458 O469 1.270 . S
C459 O470 1.251 . S
C459 O471 1.251 . S
O460 C440 1.257 . S
O460 Eu441 2.473 . S
O461 C440 1.260 . S
O461 Eu441 2.480 . S
O462 Eu441 2.430 . S
O462 C448 1.259 . S
O463 Eu441 2.670 . S
O463 C448 1.270 . S
O463 Eu451 2.355 . S
O464 Eu441 2.394 . S
O464 C449 1.251 . S
O465 C449 1.251 . S
O465 Eu451 2.374 . S
O466 C450 1.257 . S
O466 Eu451 2.473 . S
O467 C450 1.260 . S
O467 Eu451 2.480 . S
O468 Eu451 2.430 . S
O468 C458 1.259 . S
O469 Eu441 2.355 . S
O469 Eu451 2.670 . S
O469 C458 1.270 . S
O470 Eu451 2.394 . S
O470 C459 1.251 . S
O471 Eu441 2.374 . S
O471 C459 1.251 . S
H472 C443 0.931 . S
H473 C444 0.931 . S
H474 C446 0.931 . S
H475 C447 0.931 . S
H476 C453 0.931 . S
H477 C454 0.931 . S
H478 C456 0.931 . S
H479 C457 0.931 . S
C480 Eu481 2.835 . S
C480 C482 1.500 . S
C480 O500 1.257 . S
C480 O501 1.260 . S
Eu481 C480 2.835 . S
Eu481 O500 2.473 . S
Eu481 O501 2.480 . S
Eu481 O502 2.430 . S
Eu481 O503 2.670 . S
Eu481 O504 2.394 . S
Eu481 O509 2.355 . S
Eu481 O511 2.374 . S
C482 C480 1.500 . S
C482 C483 1.377 . S
C482 C487 1.377 . S
C483 C482 1.377 . S
C483 C484 1.395 . S
C483 H512 0.931 . S
C484 C483 1.395 . S
C484 C485 1.383 . S
C484 H513 0.931 . S
C485 C484 1.383 . S
C485 C486 1.394 . S
C486 C485 1.394 . S
C486 C487 1.378 . S
C486 H514 0.931 . S
C487 C482 1.377 . S
C487 C486 1.378 . S
C487 H515 0.931 . S
C488 O502 1.259 . S
C488 O503 1.270 . S
C489 O504 1.251 . S
C489 O505 1.251 . S
C490 Eu491 2.835 . S
C490 C492 1.500 . S
C490 O506 1.257 . S
C490 O507 1.260 . S
Eu491 C490 2.835 . S
Eu491 O503 2.355 . S
Eu491 O505 2.374 . S
Eu491 O506 2.473 . S
Eu491 O507 2.480 . S
Eu491 O508 2.430 . S
Eu491 O509 2.670 . S
Eu491 O510 2.394 . S
C492 C490 1.500 . S
C492 C493 1.377 . S
C492 C497 1.377 . S
C493 C492 1.377 . S
C493 C494 1.395 . S
C493 H516 0.931 . S
C494 C493 1.395 . S
C494 C495 1.383 . S
C494 H517 0.931 . S
C495 C494 1.383 . S
C495 C496 1.394 . S
C496 C495 1.394 . S
C496 C497 1.378 . S
C496 H518 0.931 . S
C497 C492 1.377 . S
C497 C496 1.378 . S
C497 H519 0.931 . S
C498 O508 1.259 . S
C498 O509 1.270 . S
C499 O510 1.251 . S
C499 O511 1.251 . S
O500 C480 1.257 . S
O500 Eu481 2.473 . S
O501 C480 1.260 . S
O501 Eu481 2.480 . S
O502 Eu481 2.430 . S
O502 C488 1.259 . S
O503 Eu481 2.670 . S
O503 C488 1.270 . S
O503 Eu491 2.355 . S
O504 Eu481 2.394 . S
O504 C489 1.251 . S
O505 C489 1.251 . S
O505 Eu491 2.374 . S
O506 C490 1.257 . S
O506 Eu491 2.473 . S
O507 C490 1.260 . S
O507 Eu491 2.480 . S
O508 Eu491 2.430 . S
O508 C498 1.259 . S
O509 Eu481 2.355 . S
O509 Eu491 2.670 . S
O509 C498 1.270 . S
O510 Eu491 2.394 . S
O510 C499 1.251 . S
O511 Eu481 2.374 . S
O511 C499 1.251 . S
H512 C483 0.931 . S
H513 C484 0.931 . S
H514 C486 0.931 . S
H515 C487 0.931 . S
H516 C493 0.931 . S
H517 C494 0.931 . S
H518 C496 0.931 . S
H519 C497 0.931 . S
C520 Eu521 2.835 . S
C520 C522 1.500 . S
C520 O540 1.257 . S
C520 O541 1.260 . S
Eu521 C520 2.835 . S
Eu521 O540 2.473 . S
Eu521 O541 2.480 . S
Eu521 O542 2.430 . S
Eu521 O543 2.670 . S
Eu521 O544 2.394 . S
Eu521 O549 2.355 . S
Eu521 O551 2.374 . S
C522 C520 1.500 . S
C522 C523 1.377 . S
C522 C527 1.377 . S
C523 C522 1.377 . S
C523 C524 1.395 . S
C523 H552 0.931 . S
C524 C523 1.395 . S
C524 C525 1.383 . S
C524 H553 0.931 . S
C525 C524 1.383 . S
C525 C526 1.394 . S
C526 C525 1.394 . S
C526 C527 1.378 . S
C526 H554 0.931 . S
C527 C522 1.377 . S
C527 C526 1.378 . S
C527 H555 0.931 . S
C528 O542 1.259 . S
C528 O543 1.270 . S
C529 O544 1.251 . S
C529 O545 1.251 . S
C530 Eu531 2.835 . S
C530 C532 1.500 . S
C530 O546 1.257 . S
C530 O547 1.260 . S
Eu531 C530 2.835 . S
Eu531 O543 2.355 . S
Eu531 O545 2.374 . S
Eu531 O546 2.473 . S
Eu531 O547 2.480 . S
Eu531 O548 2.430 . S
Eu531 O549 2.670 . S
Eu531 O550 2.394 . S
C532 C530 1.500 . S
C532 C533 1.377 . S
C532 C537 1.377 . S
C533 C532 1.377 . S
C533 C534 1.395 . S
C533 H556 0.931 . S
C534 C533 1.395 . S
C534 C535 1.383 . S
C534 H557 0.931 . S
C535 C534 1.383 . S
C535 C536 1.394 . S
C536 C535 1.394 . S
C536 C537 1.378 . S
C536 H558 0.931 . S
C537 C532 1.377 . S
C537 C536 1.378 . S
C537 H559 0.931 . S
C538 O548 1.259 . S
C538 O549 1.270 . S
C539 O550 1.251 . S
C539 O551 1.251 . S
O540 C520 1.257 . S
O540 Eu521 2.473 . S
O541 C520 1.260 . S
O541 Eu521 2.480 . S
O542 Eu521 2.430 . S
O542 C528 1.259 . S
O543 Eu521 2.670 . S
O543 C528 1.270 . S
O543 Eu531 2.355 . S
O544 Eu521 2.394 . S
O544 C529 1.251 . S
O545 C529 1.251 . S
O545 Eu531 2.374 . S
O546 C530 1.257 . S
O546 Eu531 2.473 . S
O547 C530 1.260 . S
O547 Eu531 2.480 . S
O548 Eu531 2.430 . S
O548 C538 1.259 . S
O549 Eu521 2.355 . S
O549 Eu531 2.670 . S
O549 C538 1.270 . S
O550 Eu531 2.394 . S
O550 C539 1.251 . S
O551 Eu521 2.374 . S
O551 C539 1.251 . S
H552 C523 0.931 . S
H553 C524 0.931 . S
H554 C526 0.931 . S
H555 C527 0.931 . S
H556 C533 0.931 . S
H557 C534 0.931 . S
H558 C536 0.931 . S
H559 C537 0.931 . S
C560 Eu561 2.835 . S
C560 C562 1.500 . S
C560 O580 1.257 . S
C560 O581 1.260 . S
Eu561 C560 2.835 . S
Eu561 O580 2.473 . S
Eu561 O581 2.480 . S
Eu561 O582 2.430 . S
Eu561 O583 2.670 . S
Eu561 O584 2.394 . S
Eu561 O589 2.355 . S
Eu561 O591 2.374 . S
C562 C560 1.500 . S
C562 C563 1.377 . S
C562 C567 1.377 . S
C563 C562 1.377 . S
C563 C564 1.395 . S
C563 H592 0.931 . S
C564 C563 1.395 . S
C564 C565 1.383 . S
C564 H593 0.931 . S
C565 C564 1.383 . S
C565 C566 1.394 . S
C566 C565 1.394 . S
C566 C567 1.378 . S
C566 H594 0.931 . S
C567 C562 1.377 . S
C567 C566 1.378 . S
C567 H595 0.931 . S
C568 O582 1.259 . S
C568 O583 1.270 . S
C569 O584 1.251 . S
C569 O585 1.251 . S
C570 Eu571 2.835 . S
C570 C572 1.500 . S
C570 O586 1.257 . S
C570 O587 1.260 . S
Eu571 C570 2.835 . S
Eu571 O583 2.355 . S
Eu571 O585 2.374 . S
Eu571 O586 2.473 . S
Eu571 O587 2.480 . S
Eu571 O588 2.430 . S
Eu571 O589 2.670 . S
Eu571 O590 2.394 . S
C572 C570 1.500 . S
C572 C573 1.377 . S
C572 C577 1.377 . S
C573 C572 1.377 . S
C573 C574 1.395 . S
C573 H596 0.931 . S
C574 C573 1.395 . S
C574 C575 1.383 . S
C574 H597 0.931 . S
C575 C574 1.383 . S
C575 C576 1.394 . S
C576 C575 1.394 . S
C576 C577 1.378 . S
C576 H598 0.931 . S
C577 C572 1.377 . S
C577 C576 1.378 . S
C577 H599 0.931 . S
C578 O588 1.259 . S
C578 O589 1.270 . S
C579 O590 1.251 . S
C579 O591 1.251 . S
O580 C560 1.257 . S
O580 Eu561 2.473 . S
O581 C560 1.260 . S
O581 Eu561 2.480 . S
O582 Eu561 2.430 . S
O582 C568 1.259 . S
O583 Eu561 2.670 . S
O583 C568 1.270 . S
O583 Eu571 2.355 . S
O584 Eu561 2.394 . S
O584 C569 1.251 . S
O585 C569 1.251 . S
O585 Eu571 2.374 . S
O586 C570 1.257 . S
O586 Eu571 2.473 . S
O587 C570 1.260 . S
O587 Eu571 2.480 . S
O588 Eu571 2.430 . S
O588 C578 1.259 . S
O589 Eu561 2.355 . S
O589 Eu571 2.670 . S
O589 C578 1.270 . S
O590 Eu571 2.394 . S
O590 C579 1.251 . S
O591 Eu561 2.374 . S
O591 C579 1.251 . S
H592 C563 0.931 . S
H593 C564 0.931 . S
H594 C566 0.931 . S
H595 C567 0.931 . S
H596 C573 0.931 . S
H597 C574 0.931 . S
H598 C576 0.931 . S
H599 C577 0.931 . S
C600 Eu601 2.835 . S
C600 C602 1.500 . S
C600 O620 1.257 . S
C600 O621 1.260 . S
Eu601 C600 2.835 . S
Eu601 O620 2.473 . S
Eu601 O621 2.480 . S
Eu601 O622 2.430 . S
Eu601 O623 2.670 . S
Eu601 O624 2.394 . S
Eu601 O629 2.355 . S
Eu601 O631 2.374 . S
C602 C600 1.500 . S
C602 C603 1.377 . S
C602 C607 1.377 . S
C603 C602 1.377 . S
C603 C604 1.395 . S
C603 H632 0.931 . S
C604 C603 1.395 . S
C604 C605 1.383 . S
C604 H633 0.931 . S
C605 C604 1.383 . S
C605 C606 1.394 . S
C606 C605 1.394 . S
C606 C607 1.378 . S
C606 H634 0.931 . S
C607 C602 1.377 . S
C607 C606 1.378 . S
C607 H635 0.931 . S
C608 O622 1.259 . S
C608 O623 1.270 . S
C609 O624 1.251 . S
C609 O625 1.251 . S
C610 Eu611 2.835 . S
C610 C612 1.500 . S
C610 O626 1.257 . S
C610 O627 1.260 . S
Eu611 C610 2.835 . S
Eu611 O623 2.355 . S
Eu611 O625 2.374 . S
Eu611 O626 2.473 . S
Eu611 O627 2.480 . S
Eu611 O628 2.430 . S
Eu611 O629 2.670 . S
Eu611 O630 2.394 . S
C612 C610 1.500 . S
C612 C613 1.377 . S
C612 C617 1.377 . S
C613 C612 1.377 . S
C613 C614 1.395 . S
C613 H636 0.931 . S
C614 C613 1.395 . S
C614 C615 1.383 . S
C614 H637 0.931 . S
C615 C614 1.383 . S
C615 C616 1.394 . S
C616 C615 1.394 . S
C616 C617 1.378 . S
C616 H638 0.931 . S
C617 C612 1.377 . S
C617 C616 1.378 . S
C617 H639 0.931 . S
C618 O628 1.259 . S
C618 O629 1.270 . S
C619 O630 1.251 . S
C619 O631 1.251 . S
O620 C600 1.257 . S
O620 Eu601 2.473 . S
O621 C600 1.260 . S
O621 Eu601 2.480 . S
O622 Eu601 2.430 . S
O622 C608 1.259 . S
O623 Eu601 2.670 . S
O623 C608 1.270 . S
O623 Eu611 2.355 . S
O624 Eu601 2.394 . S
O624 C609 1.251 . S
O625 C609 1.251 . S
O625 Eu611 2.374 . S
O626 C610 1.257 . S
O626 Eu611 2.473 . S
O627 C610 1.260 . S
O627 Eu611 2.480 . S
O628 Eu611 2.430 . S
O628 C618 1.259 . S
O629 Eu601 2.355 . S
O629 Eu611 2.670 . S
O629 C618 1.270 . S
O630 Eu611 2.394 . S
O630 C619 1.251 . S
O631 Eu601 2.374 . S
O631 C619 1.251 . S
H632 C603 0.931 . S
H633 C604 0.931 . S
H634 C606 0.931 . S
H635 C607 0.931 . S
H636 C613 0.931 . S
H637 C614 0.931 . S
H638 C616 0.931 . S
H639 C617 0.931 . S
H640 C646 0.930 . S
H641 C650 0.930 . S
H642 C655 0.929 . S
H643 C653 0.929 . S
H644 C648 0.929 . S
H645 C654 0.929 . S
C646 H640 0.930 . S
C646 C647 1.367 . S
C646 C654 1.378 . S
C647 C646 1.367 . S
C647 C655 1.433 . S
C648 H644 0.929 . S
C648 C650 1.378 . S
C648 C652 1.350 . S
C649 C652 1.463 . S
C649 C654 1.350 . S
C649 N657 1.427 . S
C650 H641 0.930 . S
C650 C648 1.378 . S
C650 C651 1.367 . S
C651 C650 1.367 . S
C651 C653 1.433 . S
C652 C648 1.350 . S
C652 C649 1.463 . S
C652 N656 1.427 . S
C653 H643 0.929 . S
C653 C651 1.433 . S
C653 N656 1.384 . S
C654 H645 0.929 . S
C654 C646 1.378 . S
C654 C649 1.350 . S
C655 H642 0.929 . S
C655 C647 1.433 . S
C655 N657 1.384 . S
N656 C652 1.427 . S
N656 C653 1.384 . S
N657 C649 1.427 . S
N657 C655 1.384 . S
H658 C664 0.930 . S
H659 C668 0.930 . S
H660 C673 0.929 . S
H661 C671 0.929 . S
H662 C666 0.929 . S
H663 C672 0.929 . S
C664 H658 0.930 . S
C664 C665 1.367 . S
C664 C672 1.378 . S
C665 C664 1.367 . S
C665 C673 1.433 . S
C666 H662 0.929 . S
C666 C668 1.378 . S
C666 C670 1.350 . S
C667 C670 1.463 . S
C667 C672 1.350 . S
C667 N675 1.427 . S
C668 H659 0.930 . S
C668 C666 1.378 . S
C668 C669 1.367 . S
C669 C668 1.367 . S
C669 C671 1.433 . S
C670 C666 1.350 . S
C670 C667 1.463 . S
C670 N674 1.427 . S
C671 H661 0.929 . S
C671 C669 1.433 . S
C671 N674 1.384 . S
C672 H663 0.929 . S
C672 C664 1.378 . S
C672 C667 1.350 . S
C673 H660 0.929 . S
C673 C665 1.433 . S
C673 N675 1.384 . S
N674 C670 1.427 . S
N674 C671 1.384 . S
N675 C667 1.427 . S
N675 C673 1.384 . S
H676 C682 0.930 . S
H677 C686 0.930 . S
H678 C691 0.929 . S
H679 C689 0.929 . S
H680 C684 0.929 . S
H681 C690 0.929 . S
C682 H676 0.930 . S
C682 C683 1.367 . S
C682 C690 1.378 . S
C683 C682 1.367 . S
C683 C691 1.433 . S
C684 H680 0.929 . S
C684 C686 1.378 . S
C684 C688 1.350 . S
C685 C688 1.463 . S
C685 C690 1.350 . S
C685 N693 1.427 . S
C686 H677 0.930 . S
C686 C684 1.378 . S
C686 C687 1.367 . S
C687 C686 1.367 . S
C687 C689 1.433 . S
C688 C684 1.350 . S
C688 C685 1.463 . S
C688 N692 1.427 . S
C689 H679 0.929 . S
C689 C687 1.433 . S
C689 N692 1.384 . S
C690 H681 0.929 . S
C690 C682 1.378 . S
C690 C685 1.350 . S
C691 H678 0.929 . S
C691 C683 1.433 . S
C691 N693 1.384 . S
N692 C688 1.427 . S
N692 C689 1.384 . S
N693 C685 1.427 . S
N693 C691 1.384 . S
H694 C700 0.930 . S
H695 C704 0.930 . S
H696 C709 0.929 . S
H697 C707 0.929 . S
H698 C702 0.929 . S
H699 C708 0.929 . S
C700 H694 0.930 . S
C700 C701 1.367 . S
C700 C708 1.378 . S
C701 C700 1.367 . S
C701 C709 1.433 . S
C702 H698 0.929 . S
C702 C704 1.378 . S
C702 C706 1.350 . S
C703 C706 1.463 . S
C703 C708 1.350 . S
C703 N711 1.427 . S
C704 H695 0.930 . S
C704 C702 1.378 . S
C704 C705 1.367 . S
C705 C704 1.367 . S
C705 C707 1.433 . S
C706 C702 1.350 . S
C706 C703 1.463 . S
C706 N710 1.427 . S
C707 H697 0.929 . S
C707 C705 1.433 . S
C707 N710 1.384 . S
C708 H699 0.929 . S
C708 C700 1.378 . S
C708 C703 1.350 . S
C709 H696 0.929 . S
C709 C701 1.433 . S
C709 N711 1.384 . S
N710 C706 1.427 . S
N710 C707 1.384 . S
N711 C703 1.427 . S
N711 C709 1.384 . S
H712 C718 0.930 . S
H713 C722 0.930 . S
H714 C727 0.929 . S
H715 C725 0.929 . S
H716 C720 0.929 . S
H717 C726 0.929 . S
C718 H712 0.930 . S
C718 C719 1.367 . S
C718 C726 1.378 . S
C719 C718 1.367 . S
C719 C727 1.433 . S
C720 H716 0.929 . S
C720 C722 1.378 . S
C720 C724 1.350 . S
C721 C724 1.463 . S
C721 C726 1.350 . S
C721 N729 1.427 . S
C722 H713 0.930 . S
C722 C720 1.378 . S
C722 C723 1.367 . S
C723 C722 1.367 . S
C723 C725 1.433 . S
C724 C720 1.350 . S
C724 C721 1.463 . S
C724 N728 1.427 . S
C725 H715 0.929 . S
C725 C723 1.433 . S
C725 N728 1.384 . S
C726 H717 0.929 . S
C726 C718 1.378 . S
C726 C721 1.350 . S
C727 H714 0.929 . S
C727 C719 1.433 . S
C727 N729 1.384 . S
N728 C724 1.427 . S
N728 C725 1.384 . S
N729 C721 1.427 . S
N729 C727 1.384 . S
H730 C736 0.930 . S
H731 C740 0.930 . S
H732 C745 0.929 . S
H733 C743 0.929 . S
H734 C738 0.929 . S
H735 C744 0.929 . S
C736 H730 0.930 . S
C736 C737 1.367 . S
C736 C744 1.378 . S
C737 C736 1.367 . S
C737 C745 1.433 . S
C738 H734 0.929 . S
C738 C740 1.378 . S
C738 C742 1.350 . S
C739 C742 1.463 . S
C739 C744 1.350 . S
C739 N747 1.427 . S
C740 H731 0.930 . S
C740 C738 1.378 . S
C740 C741 1.367 . S
C741 C740 1.367 . S
C741 C743 1.433 . S
C742 C738 1.350 . S
C742 C739 1.463 . S
C742 N746 1.427 . S
C743 H733 0.929 . S
C743 C741 1.433 . S
C743 N746 1.384 . S
C744 H735 0.929 . S
C744 C736 1.378 . S
C744 C739 1.350 . S
C745 H732 0.929 . S
C745 C737 1.433 . S
C745 N747 1.384 . S
N746 C742 1.427 . S
N746 C743 1.384 . S
N747 C739 1.427 . S
N747 C745 1.384 . S
H748 C754 0.930 . S
H749 C758 0.930 . S
H750 C763 0.929 . S
H751 C761 0.929 . S
H752 C756 0.929 . S
H753 C762 0.929 . S
C754 H748 0.930 . S
C754 C755 1.367 . S
C754 C762 1.378 . S
C755 C754 1.367 . S
C755 C763 1.433 . S
C756 H752 0.929 . S
C756 C758 1.378 . S
C756 C760 1.350 . S
C757 C760 1.463 . S
C757 C762 1.350 . S
C757 N765 1.427 . S
C758 H749 0.930 . S
C758 C756 1.378 . S
C758 C759 1.367 . S
C759 C758 1.367 . S
C759 C761 1.433 . S
C760 C756 1.350 . S
C760 C757 1.463 . S
C760 N764 1.427 . S
C761 H751 0.929 . S
C761 C759 1.433 . S
C761 N764 1.384 . S
C762 H753 0.929 . S
C762 C754 1.378 . S
C762 C757 1.350 . S
C763 H750 0.929 . S
C763 C755 1.433 . S
C763 N765 1.384 . S
N764 C760 1.427 . S
N764 C761 1.384 . S
N765 C757 1.427 . S
N765 C763 1.384 . S
H766 C772 0.930 . S
H767 C776 0.930 . S
H768 C781 0.929 . S
H769 C779 0.929 . S
H770 C774 0.929 . S
H771 C780 0.929 . S
C772 H766 0.930 . S
C772 C773 1.367 . S
C772 C780 1.378 . S
C773 C772 1.367 . S
C773 C781 1.433 . S
C774 H770 0.929 . S
C774 C776 1.378 . S
C774 C778 1.350 . S
C775 C778 1.463 . S
C775 C780 1.350 . S
C775 N783 1.427 . S
C776 H767 0.930 . S
C776 C774 1.378 . S
C776 C777 1.367 . S
C777 C776 1.367 . S
C777 C779 1.433 . S
C778 C774 1.350 . S
C778 C775 1.463 . S
C778 N782 1.427 . S
C779 H769 0.929 . S
C779 C777 1.433 . S
C779 N782 1.384 . S
C780 H771 0.929 . S
C780 C772 1.378 . S
C780 C775 1.350 . S
C781 H768 0.929 . S
C781 C773 1.433 . S
C781 N783 1.384 . S
N782 C778 1.427 . S
N782 C779 1.384 . S
N783 C775 1.427 . S
N783 C781 1.384 . S
H784 C790 0.930 . S
H785 C794 0.930 . S
H786 C799 0.929 . S
H787 C797 0.929 . S
H788 C792 0.929 . S
H789 C798 0.929 . S
C790 H784 0.930 . S
C790 C791 1.367 . S
C790 C798 1.378 1_565 S
C791 C790 1.367 . S
C791 C799 1.433 . S
C792 H788 0.929 . S
C792 C794 1.378 1_565 S
C792 C796 1.350 1_565 S
C793 C796 1.463 1_565 S
C793 C798 1.350 1_565 S
C793 N801 1.427 . S
C794 H785 0.930 . S
C794 C792 1.378 1_545 S
C794 C795 1.367 . S
C795 C794 1.367 . S
C795 C797 1.433 . S
C796 C792 1.350 1_545 S
C796 C793 1.463 1_545 S
C796 N800 1.427 . S
C797 H787 0.929 . S
C797 C795 1.433 . S
C797 N800 1.384 . S
C798 H789 0.929 . S
C798 C790 1.378 1_545 S
C798 C793 1.350 1_545 S
C799 H786 0.929 . S
C799 C791 1.433 . S
C799 N801 1.384 . S
N800 C796 1.427 . S
N800 C797 1.384 . S
N801 C793 1.427 . S
N801 C799 1.384 . S
H802 C808 0.930 . S
H803 C812 0.930 . S
H804 C817 0.929 . S
H805 C815 0.929 . S
H806 C810 0.929 . S
H807 C816 0.929 . S
C808 H802 0.930 . S
C808 C809 1.367 . S
C808 C816 1.378 1_545 S
C809 C808 1.367 . S
C809 C817 1.433 . S
C810 H806 0.929 . S
C810 C812 1.378 1_545 S
C810 C814 1.350 1_545 S
C811 C814 1.463 1_545 S
C811 C816 1.350 1_545 S
C811 N819 1.427 . S
C812 H803 0.930 . S
C812 C810 1.378 1_565 S
C812 C813 1.367 . S
C813 C812 1.367 . S
C813 C815 1.433 . S
C814 C810 1.350 1_565 S
C814 C811 1.463 1_565 S
C814 N818 1.427 . S
C815 H805 0.929 . S
C815 C813 1.433 . S
C815 N818 1.384 . S
C816 H807 0.929 . S
C816 C808 1.378 1_565 S
C816 C811 1.350 1_565 S
C817 H804 0.929 . S
C817 C809 1.433 . S
C817 N819 1.384 . S
N818 C814 1.427 . S
N818 C815 1.384 . S
N819 C811 1.427 . S
N819 C817 1.384 . S
H820 C826 0.930 . S
H821 C830 0.930 . S
H822 C835 0.929 . S
H823 C833 0.929 . S
H824 C828 0.929 1_545 S
H825 C834 0.929 1_565 S
C826 H820 0.930 . S
C826 C827 1.367 . S
C826 C834 1.378 . S
C827 C826 1.367 . S
C827 C835 1.433 . S
C828 H824 0.929 1_565 S
C828 C830 1.378 . S
C828 C832 1.350 . S
C829 C832 1.463 1_545 S
C829 C834 1.350 . S
C829 N837 1.427 . S
C830 H821 0.930 . S
C830 C828 1.378 . S
C830 C831 1.367 . S
C831 C830 1.367 . S
C831 C833 1.433 . S
C832 C828 1.350 . S
C832 C829 1.463 1_565 S
C832 N836 1.427 . S
C833 H823 0.929 . S
C833 C831 1.433 . S
C833 N836 1.384 . S
C834 H825 0.929 1_545 S
C834 C826 1.378 . S
C834 C829 1.350 . S
C835 H822 0.929 . S
C835 C827 1.433 . S
C835 N837 1.384 . S
N836 C832 1.427 . S
N836 C833 1.384 . S
N837 C829 1.427 . S
N837 C835 1.384 . S
H838 C844 0.930 . S
H839 C848 0.930 . S
H840 C853 0.929 . S
H841 C851 0.929 . S
H842 C846 0.929 1_545 S
H843 C852 0.929 1_565 S
C844 H838 0.930 . S
C844 C845 1.367 . S
C844 C852 1.378 . S
C845 C844 1.367 . S
C845 C853 1.433 . S
C846 H842 0.929 1_565 S
C846 C848 1.378 . S
C846 C850 1.350 . S
C847 C850 1.463 1_545 S
C847 C852 1.350 . S
C847 N855 1.427 . S
C848 H839 0.930 . S
C848 C846 1.378 . S
C848 C849 1.367 . S
C849 C848 1.367 . S
C849 C851 1.433 . S
C850 C846 1.350 . S
C850 C847 1.463 1_565 S
C850 N854 1.427 . S
C851 H841 0.929 . S
C851 C849 1.433 . S
C851 N854 1.384 . S
C852 H843 0.929 1_545 S
C852 C844 1.378 . S
C852 C847 1.350 . S
C853 H840 0.929 . S
C853 C845 1.433 . S
C853 N855 1.384 . S
N854 C850 1.427 . S
N854 C851 1.384 . S
N855 C847 1.427 . S
N855 C853 1.384 . S
H856 C862 0.930 . S
H857 C866 0.930 . S
H858 C871 0.929 . S
H859 C869 0.929 . S
H860 C864 0.929 . S
H861 C870 0.929 . S
C862 H856 0.930 . S
C862 C863 1.367 . S
C862 C870 1.378 . S
C863 C862 1.367 . S
C863 C871 1.433 . S
C864 H860 0.929 . S
C864 C866 1.378 . S
C864 C868 1.350 . S
C865 C868 1.463 . S
C865 C870 1.350 . S
C865 N873 1.427 . S
C866 H857 0.930 . S
C866 C864 1.378 . S
C866 C867 1.367 . S
C867 C866 1.367 . S
C867 C869 1.433 . S
C868 C864 1.350 . S
C868 C865 1.463 . S
C868 N872 1.427 . S
C869 H859 0.929 . S
C869 C867 1.433 . S
C869 N872 1.384 . S
C870 H861 0.929 . S
C870 C862 1.378 . S
C870 C865 1.350 . S
C871 H858 0.929 . S
C871 C863 1.433 . S
C871 N873 1.384 . S
N872 C868 1.427 . S
N872 C869 1.384 . S
N873 C865 1.427 . S
N873 C871 1.384 . S
H874 C880 0.930 . S
H875 C884 0.930 . S
H876 C889 0.929 . S
H877 C887 0.929 . S
H878 C882 0.929 . S
H879 C888 0.929 . S
C880 H874 0.930 . S
C880 C881 1.367 . S
C880 C888 1.378 . S
C881 C880 1.367 . S
C881 C889 1.433 . S
C882 H878 0.929 . S
C882 C884 1.378 . S
C882 C886 1.350 . S
C883 C886 1.463 . S
C883 C888 1.350 . S
C883 N891 1.427 . S
C884 H875 0.930 . S
C884 C882 1.378 . S
C884 C885 1.367 . S
C885 C884 1.367 . S
C885 C887 1.433 . S
C886 C882 1.350 . S
C886 C883 1.463 . S
C886 N890 1.427 . S
C887 H877 0.929 . S
C887 C885 1.433 . S
C887 N890 1.384 . S
C888 H879 0.929 . S
C888 C880 1.378 . S
C888 C883 1.350 . S
C889 H876 0.929 . S
C889 C881 1.433 . S
C889 N891 1.384 . S
N890 C886 1.427 . S
N890 C887 1.384 . S
N891 C883 1.427 . S
N891 C889 1.384 . S
H892 C898 0.930 . S
H893 C902 0.930 . S
H894 C907 0.929 . S
H895 C905 0.929 . S
H896 C900 0.929 . S
H897 C906 0.929 . S
C898 H892 0.930 . S
C898 C899 1.367 . S
C898 C906 1.378 . S
C899 C898 1.367 . S
C899 C907 1.433 . S
C900 H896 0.929 . S
C900 C902 1.378 . S
C900 C904 1.350 . S
C901 C904 1.463 . S
C901 C906 1.350 . S
C901 N909 1.427 . S
C902 H893 0.930 . S
C902 C900 1.378 . S
C902 C903 1.367 . S
C903 C902 1.367 . S
C903 C905 1.433 . S
C904 C900 1.350 . S
C904 C901 1.463 . S
C904 N908 1.427 . S
C905 H895 0.929 . S
C905 C903 1.433 . S
C905 N908 1.384 . S
C906 H897 0.929 . S
C906 C898 1.378 . S
C906 C901 1.350 . S
C907 H894 0.929 . S
C907 C899 1.433 . S
C907 N909 1.384 . S
N908 C904 1.427 . S
N908 C905 1.384 . S
N909 C901 1.427 . S
N909 C907 1.384 . S
H910 C916 0.930 . S
H911 C920 0.930 . S
H912 C925 0.929 . S
H913 C923 0.929 . S
H914 C918 0.929 . S
H915 C924 0.929 . S
C916 H910 0.930 . S
C916 C917 1.367 . S
C916 C924 1.378 . S
C917 C916 1.367 . S
C917 C925 1.433 . S
C918 H914 0.929 . S
C918 C920 1.378 . S
C918 C922 1.350 . S
C919 C922 1.463 . S
C919 C924 1.350 . S
C919 N927 1.427 . S
C920 H911 0.930 . S
C920 C918 1.378 . S
C920 C921 1.367 . S
C921 C920 1.367 . S
C921 C923 1.433 . S
C922 C918 1.350 . S
C922 C919 1.463 . S
C922 N926 1.427 . S
C923 H913 0.929 . S
C923 C921 1.433 . S
C923 N926 1.384 . S
C924 H915 0.929 . S
C924 C916 1.378 . S
C924 C919 1.350 . S
C925 H912 0.929 . S
C925 C917 1.433 . S
C925 N927 1.384 . S
N926 C922 1.427 . S
N926 C923 1.384 . S
N927 C919 1.427 . S
N927 C925 1.384 . S
H928 C934 0.930 . S
H929 C938 0.930 . S
H930 C943 0.929 . S
H931 C941 0.929 . S
H932 C936 0.929 . S
H933 C942 0.929 . S
C934 H928 0.930 . S
C934 C935 1.367 . S
C934 C942 1.378 . S
C935 C934 1.367 . S
C935 C943 1.433 . S
C936 H932 0.929 . S
C936 C938 1.378 . S
C936 C940 1.350 . S
C937 C940 1.463 1_556 S
C937 C942 1.350 . S
C937 N945 1.427 . S
C938 H929 0.930 . S
C938 C936 1.378 . S
C938 C939 1.367 . S
C939 C938 1.367 . S
C939 C941 1.433 . S
C940 C936 1.350 . S
C940 C937 1.463 1_554 S
C940 N944 1.427 . S
C941 H931 0.929 . S
C941 C939 1.433 . S
C941 N944 1.384 . S
C942 H933 0.929 . S
C942 C934 1.378 . S
C942 C937 1.350 . S
C943 H930 0.929 . S
C943 C935 1.433 . S
C943 N945 1.384 . S
N944 C940 1.427 . S
N944 C941 1.384 . S
N945 C937 1.427 . S
N945 C943 1.384 . S
H946 C952 0.930 . S
H947 C956 0.930 . S
H948 C961 0.929 . S
H949 C959 0.929 . S
H950 C954 0.929 . S
H951 C960 0.929 . S
C952 H946 0.930 . S
C952 C953 1.367 . S
C952 C960 1.378 . S
C953 C952 1.367 . S
C953 C961 1.433 . S
C954 H950 0.929 . S
C954 C956 1.378 . S
C954 C958 1.350 . S
C955 C958 1.463 1_556 S
C955 C960 1.350 . S
C955 N963 1.427 . S
C956 H947 0.930 . S
C956 C954 1.378 . S
C956 C957 1.367 . S
C957 C956 1.367 . S
C957 C959 1.433 . S
C958 C954 1.350 . S
C958 C955 1.463 1_554 S
C958 N962 1.427 . S
C959 H949 0.929 . S
C959 C957 1.433 . S
C959 N962 1.384 . S
C960 H951 0.929 . S
C960 C952 1.378 . S
C960 C955 1.350 . S
C961 H948 0.929 . S
C961 C953 1.433 . S
C961 N963 1.384 . S
N962 C958 1.427 . S
N962 C959 1.384 . S
N963 C955 1.427 . S
N963 C961 1.384 . S
H964 C970 0.930 . S
H965 C974 0.930 . S
H966 C979 0.929 . S
H967 C977 0.929 . S
H968 C972 0.929 . S
H969 C978 0.929 . S
C970 H964 0.930 . S
C970 C971 1.367 . S
C970 C978 1.378 . S
C971 C970 1.367 . S
C971 C979 1.433 . S
C972 H968 0.929 . S
C972 C974 1.378 . S
C972 C976 1.350 . S
C973 C976 1.463 . S
C973 C978 1.350 . S
C973 N981 1.427 . S
C974 H965 0.930 . S
C974 C972 1.378 . S
C974 C975 1.367 . S
C975 C974 1.367 . S
C975 C977 1.433 . S
C976 C972 1.350 . S
C976 C973 1.463 . S
C976 N980 1.427 . S
C977 H967 0.929 . S
C977 C975 1.433 . S
C977 N980 1.384 . S
C978 H969 0.929 . S
C978 C970 1.378 . S
C978 C973 1.350 . S
C979 H966 0.929 . S
C979 C971 1.433 . S
C979 N981 1.384 . S
N980 C976 1.427 . S
N980 C977 1.384 . S
N981 C973 1.427 . S
N981 C979 1.384 . S
H982 C988 0.930 . S
H983 C992 0.930 . S
H984 C997 0.929 . S
H985 C995 0.929 . S
H986 C990 0.929 . S
H987 C996 0.929 . S
C988 H982 0.930 . S
C988 C989 1.367 . S
C988 C996 1.378 . S
C989 C988 1.367 . S
C989 C997 1.433 . S
C990 H986 0.929 . S
C990 C992 1.378 . S
C990 C994 1.350 . S
C991 C994 1.463 . S
C991 C996 1.350 . S
C991 N999 1.427 . S
C992 H983 0.930 . S
C992 C990 1.378 . S
C992 C993 1.367 . S
C993 C992 1.367 . S
C993 C995 1.433 . S
C994 C990 1.350 . S
C994 C991 1.463 . S
C994 N998 1.427 . S
C995 H985 0.929 . S
C995 C993 1.433 . S
C995 N998 1.384 . S
C996 H987 0.929 . S
C996 C988 1.378 . S
C996 C991 1.350 . S
C997 H984 0.929 . S
C997 C989 1.433 . S
C997 N999 1.384 . S
N998 C994 1.427 . S
N998 C995 1.384 . S
N999 C991 1.427 . S
N999 C997 1.384 . S
H1000 C1006 0.930 . S
H1001 C1010 0.930 . S
H1002 C1015 0.929 . S
H1003 C1013 0.929 . S
H1004 C1008 0.929 . S
H1005 C1014 0.929 . S
C1006 H1000 0.930 . S
C1006 C1007 1.367 . S
C1006 C1014 1.378 . S
C1007 C1006 1.367 . S
C1007 C1015 1.433 . S
C1008 H1004 0.929 . S
C1008 C1010 1.378 . S
C1008 C1012 1.350 . S
C1009 C1012 1.463 1_554 S
C1009 C1014 1.350 . S
C1009 N1017 1.427 . S
C1010 H1001 0.930 . S
C1010 C1008 1.378 . S
C1010 C1011 1.367 . S
C1011 C1010 1.367 . S
C1011 C1013 1.433 . S
C1012 C1008 1.350 . S
C1012 C1009 1.463 1_556 S
C1012 N1016 1.427 . S
C1013 H1003 0.929 . S
C1013 C1011 1.433 . S
C1013 N1016 1.384 . S
C1014 H1005 0.929 . S
C1014 C1006 1.378 . S
C1014 C1009 1.350 . S
C1015 H1002 0.929 . S
C1015 C1007 1.433 . S
C1015 N1017 1.384 . S
N1016 C1012 1.427 . S
N1016 C1013 1.384 . S
N1017 C1009 1.427 . S
N1017 C1015 1.384 . S
H1018 C1024 0.930 . S
H1019 C1028 0.930 . S
H1020 C1033 0.929 . S
H1021 C1031 0.929 . S
H1022 C1026 0.929 . S
H1023 C1032 0.929 . S
C1024 H1018 0.930 . S
C1024 C1025 1.367 . S
C1024 C1032 1.378 . S
C1025 C1024 1.367 . S
C1025 C1033 1.433 . S
C1026 H1022 0.929 . S
C1026 C1028 1.378 . S
C1026 C1030 1.350 . S
C1027 C1030 1.463 1_556 S
C1027 C1032 1.350 . S
C1027 N1035 1.427 . S
C1028 H1019 0.930 . S
C1028 C1026 1.378 . S
C1028 C1029 1.367 . S
C1029 C1028 1.367 . S
C1029 C1031 1.433 . S
C1030 C1026 1.350 . S
C1030 C1027 1.463 1_554 S
C1030 N1034 1.427 . S
C1031 H1021 0.929 . S
C1031 C1029 1.433 . S
C1031 N1034 1.384 . S
C1032 H1023 0.929 . S
C1032 C1024 1.378 . S
C1032 C1027 1.350 . S
C1033 H1020 0.929 . S
C1033 C1025 1.433 . S
C1033 N1035 1.384 . S
N1034 C1030 1.427 . S
N1034 C1031 1.384 . S
N1035 C1027 1.427 . S
N1035 C1033 1.384 . S
H1036 C1042 0.930 . S
H1037 C1046 0.930 . S
H1038 C1051 0.929 . S
H1039 C1049 0.929 . S
H1040 C1044 0.929 . S
H1041 C1050 0.929 . S
C1042 H1036 0.930 . S
C1042 C1043 1.367 . S
C1042 C1050 1.378 . S
C1043 C1042 1.367 . S
C1043 C1051 1.433 . S
C1044 H1040 0.929 . S
C1044 C1046 1.378 . S
C1044 C1048 1.350 . S
C1045 C1048 1.463 . S
C1045 C1050 1.350 . S
C1045 N1053 1.427 . S
C1046 H1037 0.930 . S
C1046 C1044 1.378 . S
C1046 C1047 1.367 . S
C1047 C1046 1.367 . S
C1047 C1049 1.433 . S
C1048 C1044 1.350 . S
C1048 C1045 1.463 . S
C1048 N1052 1.427 . S
C1049 H1039 0.929 . S
C1049 C1047 1.433 . S
C1049 N1052 1.384 . S
C1050 H1041 0.929 . S
C1050 C1042 1.378 . S
C1050 C1045 1.350 . S
C1051 H1038 0.929 . S
C1051 C1043 1.433 . S
C1051 N1053 1.384 . S
N1052 C1048 1.427 . S
N1052 C1049 1.384 . S
N1053 C1045 1.427 . S
N1053 C1051 1.384 . S
H1054 C1060 0.930 . S
H1055 C1064 0.930 . S
H1056 C1069 0.929 . S
H1057 C1067 0.929 . S
H1058 C1062 0.929 . S
H1059 C1068 0.929 . S
C1060 H1054 0.930 . S
C1060 C1061 1.367 . S
C1060 C1068 1.378 . S
C1061 C1060 1.367 . S
C1061 C1069 1.433 . S
C1062 H1058 0.929 . S
C1062 C1064 1.378 . S
C1062 C1066 1.350 . S
C1063 C1066 1.463 . S
C1063 C1068 1.350 . S
C1063 N1071 1.427 . S
C1064 H1055 0.930 . S
C1064 C1062 1.378 . S
C1064 C1065 1.367 . S
C1065 C1064 1.367 . S
C1065 C1067 1.433 . S
C1066 C1062 1.350 . S
C1066 C1063 1.463 . S
C1066 N1070 1.427 . S
C1067 H1057 0.929 . S
C1067 C1065 1.433 . S
C1067 N1070 1.384 . S
C1068 H1059 0.929 . S
C1068 C1060 1.378 . S
C1068 C1063 1.350 . S
C1069 H1056 0.929 . S
C1069 C1061 1.433 . S
C1069 N1071 1.384 . S
N1070 C1066 1.427 . S
N1070 C1067 1.384 . S
N1071 C1063 1.427 . S
N1071 C1069 1.384 . S
H1072 C1078 0.930 . S
H1073 C1082 0.930 . S
H1074 C1087 0.929 . S
H1075 C1085 0.929 . S
H1076 C1080 0.929 . S
H1077 C1086 0.929 . S
C1078 H1072 0.930 . S
C1078 C1079 1.367 1_545 S
C1078 C1086 1.378 . S
C1079 C1078 1.367 1_565 S
C1079 C1087 1.433 . S
C1080 H1076 0.929 . S
C1080 C1082 1.378 . S
C1080 C1084 1.350 1_565 S
C1081 C1084 1.463 1_665 S
C1081 C1086 1.350 1_565 S
C1081 N1089 1.427 . S
C1082 H1073 0.930 . S
C1082 C1080 1.378 . S
C1082 C1083 1.367 1_565 S
C1083 C1082 1.367 1_545 S
C1083 C1085 1.433 . S
C1084 C1080 1.350 1_545 S
C1084 C1081 1.463 1_445 S
C1084 N1088 1.427 . S
C1085 H1075 0.929 . S
C1085 C1083 1.433 . S
C1085 N1088 1.384 . S
C1086 H1077 0.929 . S
C1086 C1078 1.378 . S
C1086 C1081 1.350 1_545 S
C1087 H1074 0.929 . S
C1087 C1079 1.433 . S
C1087 N1089 1.384 . S
N1088 C1084 1.427 . S
N1088 C1085 1.384 . S
N1089 C1081 1.427 . S
N1089 C1087 1.384 . S
H1090 C1096 0.930 . S
H1091 C1100 0.930 . S
H1092 C1105 0.929 . S
H1093 C1103 0.929 . S
H1094 C1098 0.929 . S
H1095 C1104 0.929 . S
C1096 H1090 0.930 . S
C1096 C1097 1.367 1_565 S
C1096 C1104 1.378 . S
C1097 C1096 1.367 1_545 S
C1097 C1105 1.433 . S
C1098 H1094 0.929 . S
C1098 C1100 1.378 . S
C1098 C1102 1.350 1_545 S
C1099 C1102 1.463 1_645 S
C1099 C1104 1.350 1_545 S
C1099 N1107 1.427 . S
C1100 H1091 0.930 . S
C1100 C1098 1.378 . S
C1100 C1101 1.367 1_545 S
C1101 C1100 1.367 1_565 S
C1101 C1103 1.433 . S
C1102 C1098 1.350 1_565 S
C1102 C1099 1.463 1_465 S
C1102 N1106 1.427 . S
C1103 H1093 0.929 . S
C1103 C1101 1.433 . S
C1103 N1106 1.384 . S
C1104 H1095 0.929 . S
C1104 C1096 1.378 . S
C1104 C1099 1.350 1_565 S
C1105 H1092 0.929 . S
C1105 C1097 1.433 . S
C1105 N1107 1.384 . S
N1106 C1102 1.427 . S
N1106 C1103 1.384 . S
N1107 C1099 1.427 . S
N1107 C1105 1.384 . S
H1108 C1114 0.930 . S
H1109 C1118 0.930 . S
H1110 C1123 0.929 . S
H1111 C1121 0.929 . S
H1112 C1116 0.929 . S
H1113 C1122 0.929 . S
C1114 H1108 0.930 . S
C1114 C1115 1.367 1_565 S
C1114 C1122 1.378 . S
C1115 C1114 1.367 1_545 S
C1115 C1123 1.433 . S
C1116 H1112 0.929 . S
C1116 C1118 1.378 . S
C1116 C1120 1.350 1_545 S
C1117 C1120 1.463 1_445 S
C1117 C1122 1.350 1_545 S
C1117 N1125 1.427 . S
C1118 H1109 0.930 . S
C1118 C1116 1.378 . S
C1118 C1119 1.367 1_545 S
C1119 C1118 1.367 1_565 S
C1119 C1121 1.433 . S
C1120 C1116 1.350 1_565 S
C1120 C1117 1.463 1_665 S
C1120 N1124 1.427 . S
C1121 H1111 0.929 . S
C1121 C1119 1.433 . S
C1121 N1124 1.384 . S
C1122 H1113 0.929 . S
C1122 C1114 1.378 . S
C1122 C1117 1.350 1_565 S
C1123 H1110 0.929 . S
C1123 C1115 1.433 . S
C1123 N1125 1.384 . S
N1124 C1120 1.427 . S
N1124 C1121 1.384 . S
N1125 C1117 1.427 . S
N1125 C1123 1.384 . S
H1126 C1132 0.930 1_565 S
H1127 C1136 0.930 1_545 S
H1128 C1141 0.929 . S
H1129 C1139 0.929 . S
H1130 C1134 0.929 . S
H1131 C1140 0.929 . S
C1132 H1126 0.930 1_545 S
C1132 C1133 1.367 . S
C1132 C1140 1.378 1_545 S
C1133 C1132 1.367 . S
C1133 C1141 1.433 . S
C1134 H1130 0.929 . S
C1134 C1136 1.378 1_545 S
C1134 C1138 1.350 1_545 S
C1135 C1138 1.463 1_645 S
C1135 C1140 1.350 1_545 S
C1135 N1143 1.427 . S
C1136 H1127 0.930 1_565 S
C1136 C1134 1.378 1_565 S
C1136 C1137 1.367 . S
C1137 C1136 1.367 . S
C1137 C1139 1.433 . S
C1138 C1134 1.350 1_565 S
C1138 C1135 1.463 1_465 S
C1138 N1142 1.427 . S
C1139 H1129 0.929 . S
C1139 C1137 1.433 . S
C1139 N1142 1.384 . S
C1140 H1131 0.929 . S
C1140 C1132 1.378 1_565 S
C1140 C1135 1.350 1_565 S
C1141 H1128 0.929 . S
C1141 C1133 1.433 . S
C1141 N1143 1.384 . S
N1142 C1138 1.427 . S
N1142 C1139 1.384 . S
N1143 C1135 1.427 . S
N1143 C1141 1.384 . S
H1144 C1150 0.930 . S
H1145 C1154 0.930 . S
H1146 C1159 0.929 . S
H1147 C1157 0.929 . S
H1148 C1152 0.929 . S
H1149 C1158 0.929 . S
C1150 H1144 0.930 . S
C1150 C1151 1.367 . S
C1150 C1158 1.378 . S
C1151 C1150 1.367 . S
C1151 C1159 1.433 . S
C1152 H1148 0.929 . S
C1152 C1154 1.378 . S
C1152 C1156 1.350 . S
C1153 C1156 1.463 . S
C1153 C1158 1.350 . S
C1153 N1161 1.427 . S
C1154 H1145 0.930 . S
C1154 C1152 1.378 . S
C1154 C1155 1.367 . S
C1155 C1154 1.367 . S
C1155 C1157 1.433 . S
C1156 C1152 1.350 . S
C1156 C1153 1.463 . S
C1156 N1160 1.427 . S
C1157 H1147 0.929 . S
C1157 C1155 1.433 . S
C1157 N1160 1.384 . S
C1158 H1149 0.929 . S
C1158 C1150 1.378 . S
C1158 C1153 1.350 . S
C1159 H1146 0.929 . S
C1159 C1151 1.433 . S
C1159 N1161 1.384 . S
N1160 C1156 1.427 . S
N1160 C1157 1.384 . S
N1161 C1153 1.427 . S
N1161 C1159 1.384 . S
H1162 C1168 0.930 . S
H1163 C1172 0.930 . S
H1164 C1177 0.929 . S
H1165 C1175 0.929 . S
H1166 C1170 0.929 . S
H1167 C1176 0.929 . S
C1168 H1162 0.930 . S
C1168 C1169 1.367 . S
C1168 C1176 1.378 . S
C1169 C1168 1.367 . S
C1169 C1177 1.433 . S
C1170 H1166 0.929 . S
C1170 C1172 1.378 . S
C1170 C1174 1.350 . S
C1171 C1174 1.463 . S
C1171 C1176 1.350 . S
C1171 N1179 1.427 . S
C1172 H1163 0.930 . S
C1172 C1170 1.378 . S
C1172 C1173 1.367 . S
C1173 C1172 1.367 . S
C1173 C1175 1.433 . S
C1174 C1170 1.350 . S
C1174 C1171 1.463 . S
C1174 N1178 1.427 . S
C1175 H1165 0.929 . S
C1175 C1173 1.433 . S
C1175 N1178 1.384 . S
C1176 H1167 0.929 . S
C1176 C1168 1.378 . S
C1176 C1171 1.350 . S
C1177 H1164 0.929 . S
C1177 C1169 1.433 . S
C1177 N1179 1.384 . S
N1178 C1174 1.427 . S
N1178 C1175 1.384 . S
N1179 C1171 1.427 . S
N1179 C1177 1.384 . S
H1180 C1186 0.930 . S
H1181 C1190 0.930 . S
H1182 C1195 0.929 . S
H1183 C1193 0.929 . S
H1184 C1188 0.929 . S
H1185 C1194 0.929 . S
C1186 H1180 0.930 . S
C1186 C1187 1.367 . S
C1186 C1194 1.378 . S
C1187 C1186 1.367 . S
C1187 C1195 1.433 . S
C1188 H1184 0.929 . S
C1188 C1190 1.378 . S
C1188 C1192 1.350 . S
C1189 C1192 1.463 . S
C1189 C1194 1.350 . S
C1189 N1197 1.427 . S
C1190 H1181 0.930 . S
C1190 C1188 1.378 . S
C1190 C1191 1.367 . S
C1191 C1190 1.367 . S
C1191 C1193 1.433 . S
C1192 C1188 1.350 . S
C1192 C1189 1.463 . S
C1192 N1196 1.427 . S
C1193 H1183 0.929 . S
C1193 C1191 1.433 . S
C1193 N1196 1.384 . S
C1194 H1185 0.929 . S
C1194 C1186 1.378 . S
C1194 C1189 1.350 . S
C1195 H1182 0.929 . S
C1195 C1187 1.433 . S
C1195 N1197 1.384 . S
N1196 C1192 1.427 . S
N1196 C1193 1.384 . S
N1197 C1189 1.427 . S
N1197 C1195 1.384 . S
H1198 C1204 0.930 . S
H1199 C1208 0.930 . S
H1200 C1213 0.929 . S
H1201 C1211 0.929 . S
H1202 C1206 0.929 . S
H1203 C1212 0.929 . S
C1204 H1198 0.930 . S
C1204 C1205 1.367 . S
C1204 C1212 1.378 . S
C1205 C1204 1.367 . S
C1205 C1213 1.433 . S
C1206 H1202 0.929 . S
C1206 C1208 1.378 . S
C1206 C1210 1.350 . S
C1207 C1210 1.463 . S
C1207 C1212 1.350 . S
C1207 N1215 1.427 . S
C1208 H1199 0.930 . S
C1208 C1206 1.378 . S
C1208 C1209 1.367 . S
C1209 C1208 1.367 . S
C1209 C1211 1.433 . S
C1210 C1206 1.350 . S
C1210 C1207 1.463 . S
C1210 N1214 1.427 . S
C1211 H1201 0.929 . S
C1211 C1209 1.433 . S
C1211 N1214 1.384 . S
C1212 H1203 0.929 . S
C1212 C1204 1.378 . S
C1212 C1207 1.350 . S
C1213 H1200 0.929 . S
C1213 C1205 1.433 . S
C1213 N1215 1.384 . S
N1214 C1210 1.427 . S
N1214 C1211 1.384 . S
N1215 C1207 1.427 . S
N1215 C1213 1.384 . S
H1216 C1222 0.930 . S
H1217 C1226 0.930 . S
H1218 C1231 0.929 . S
H1219 C1229 0.929 . S
H1220 C1224 0.929 . S
H1221 C1230 0.929 . S
C1222 H1216 0.930 . S
C1222 C1223 1.367 . S
C1222 C1230 1.378 . S
C1223 C1222 1.367 . S
C1223 C1231 1.433 . S
C1224 H1220 0.929 . S
C1224 C1226 1.378 . S
C1224 C1228 1.350 . S
C1225 C1228 1.463 . S
C1225 C1230 1.350 . S
C1225 N1233 1.427 . S
C1226 H1217 0.930 . S
C1226 C1224 1.378 . S
C1226 C1227 1.367 . S
C1227 C1226 1.367 . S
C1227 C1229 1.433 . S
C1228 C1224 1.350 . S
C1228 C1225 1.463 . S
C1228 N1232 1.427 . S
C1229 H1219 0.929 . S
C1229 C1227 1.433 . S
C1229 N1232 1.384 . S
C1230 H1221 0.929 . S
C1230 C1222 1.378 . S
C1230 C1225 1.350 . S
C1231 H1218 0.929 . S
C1231 C1223 1.433 . S
C1231 N1233 1.384 . S
N1232 C1228 1.427 . S
N1232 C1229 1.384 . S
N1233 C1225 1.427 . S
N1233 C1231 1.384 . S
H1234 C1240 0.930 . S
H1235 C1244 0.930 . S
H1236 C1249 0.929 . S
H1237 C1247 0.929 . S
H1238 C1242 0.929 . S
H1239 C1248 0.929 . S
C1240 H1234 0.930 . S
C1240 C1241 1.367 . S
C1240 C1248 1.378 . S
C1241 C1240 1.367 . S
C1241 C1249 1.433 . S
C1242 H1238 0.929 . S
C1242 C1244 1.378 . S
C1242 C1246 1.350 . S
C1243 C1246 1.463 . S
C1243 C1248 1.350 . S
C1243 N1251 1.427 . S
C1244 H1235 0.930 . S
C1244 C1242 1.378 . S
C1244 C1245 1.367 . S
C1245 C1244 1.367 . S
C1245 C1247 1.433 . S
C1246 C1242 1.350 . S
C1246 C1243 1.463 . S
C1246 N1250 1.427 . S
C1247 H1237 0.929 . S
C1247 C1245 1.433 . S
C1247 N1250 1.384 . S
C1248 H1239 0.929 . S
C1248 C1240 1.378 . S
C1248 C1243 1.350 . S
C1249 H1236 0.929 . S
C1249 C1241 1.433 . S
C1249 N1251 1.384 . S
N1250 C1246 1.427 . S
N1250 C1247 1.384 . S
N1251 C1243 1.427 . S
N1251 C1249 1.384 . S
H1252 C1258 0.930 . S
H1253 C1262 0.930 . S
H1254 C1267 0.929 . S
H1255 C1265 0.929 . S
H1256 C1260 0.929 . S
H1257 C1266 0.929 . S
C1258 H1252 0.930 . S
C1258 C1259 1.367 . S
C1258 C1266 1.378 . S
C1259 C1258 1.367 . S
C1259 C1267 1.433 . S
C1260 H1256 0.929 . S
C1260 C1262 1.378 . S
C1260 C1264 1.350 . S
C1261 C1264 1.463 . S
C1261 C1266 1.350 . S
C1261 N1269 1.427 . S
C1262 H1253 0.930 . S
C1262 C1260 1.378 . S
C1262 C1263 1.367 . S
C1263 C1262 1.367 . S
C1263 C1265 1.433 . S
C1264 C1260 1.350 . S
C1264 C1261 1.463 . S
C1264 N1268 1.427 . S
C1265 H1255 0.929 . S
C1265 C1263 1.433 . S
C1265 N1268 1.384 . S
C1266 H1257 0.929 . S
C1266 C1258 1.378 . S
C1266 C1261 1.350 . S
C1267 H1254 0.929 . S
C1267 C1259 1.433 . S
C1267 N1269 1.384 . S
N1268 C1264 1.427 . S
N1268 C1265 1.384 . S
N1269 C1261 1.427 . S
N1269 C1267 1.384 . S
H1270 C1276 0.930 . S
H1271 C1280 0.930 . S
H1272 C1285 0.929 . S
H1273 C1283 0.929 . S
H1274 C1278 0.929 . S
H1275 C1284 0.929 . S
C1276 H1270 0.930 . S
C1276 C1277 1.367 . S
C1276 C1284 1.378 . S
C1277 C1276 1.367 . S
C1277 C1285 1.433 . S
C1278 H1274 0.929 . S
C1278 C1280 1.378 . S
C1278 C1282 1.350 . S
C1279 C1282 1.463 . S
C1279 C1284 1.350 . S
C1279 N1287 1.427 . S
C1280 H1271 0.930 . S
C1280 C1278 1.378 . S
C1280 C1281 1.367 . S
C1281 C1280 1.367 . S
C1281 C1283 1.433 . S
C1282 C1278 1.350 . S
C1282 C1279 1.463 . S
C1282 N1286 1.427 . S
C1283 H1273 0.929 . S
C1283 C1281 1.433 . S
C1283 N1286 1.384 . S
C1284 H1275 0.929 . S
C1284 C1276 1.378 . S
C1284 C1279 1.350 . S
C1285 H1272 0.929 . S
C1285 C1277 1.433 . S
C1285 N1287 1.384 . S
N1286 C1282 1.427 . S
N1286 C1283 1.384 . S
N1287 C1279 1.427 . S
N1287 C1285 1.384 . S
H1288 C1294 0.930 . S
H1289 C1298 0.930 . S
H1290 C1303 0.929 . S
H1291 C1301 0.929 . S
H1292 C1296 0.929 . S
H1293 C1302 0.929 . S
C1294 H1288 0.930 . S
C1294 C1295 1.367 . S
C1294 C1302 1.378 . S
C1295 C1294 1.367 . S
C1295 C1303 1.433 . S
C1296 H1292 0.929 . S
C1296 C1298 1.378 . S
C1296 C1300 1.350 . S
C1297 C1300 1.463 . S
C1297 C1302 1.350 . S
C1297 N1305 1.427 . S
C1298 H1289 0.930 . S
C1298 C1296 1.378 . S
C1298 C1299 1.367 . S
C1299 C1298 1.367 . S
C1299 C1301 1.433 . S
C1300 C1296 1.350 . S
C1300 C1297 1.463 . S
C1300 N1304 1.427 . S
C1301 H1291 0.929 . S
C1301 C1299 1.433 . S
C1301 N1304 1.384 . S
C1302 H1293 0.929 . S
C1302 C1294 1.378 . S
C1302 C1297 1.350 . S
C1303 H1290 0.929 . S
C1303 C1295 1.433 . S
C1303 N1305 1.384 . S
N1304 C1300 1.427 . S
N1304 C1301 1.384 . S
N1305 C1297 1.427 . S
N1305 C1303 1.384 . S
H1306 C1312 0.930 . S
H1307 C1316 0.930 . S
H1308 C1321 0.929 . S
H1309 C1319 0.929 . S
H1310 C1314 0.929 . S
H1311 C1320 0.929 . S
C1312 H1306 0.930 . S
C1312 C1313 1.367 . S
C1312 C1320 1.378 . S
C1313 C1312 1.367 . S
C1313 C1321 1.433 . S
C1314 H1310 0.929 . S
C1314 C1316 1.378 . S
C1314 C1318 1.350 . S
C1315 C1318 1.463 . S
C1315 C1320 1.350 . S
C1315 N1323 1.427 . S
C1316 H1307 0.930 . S
C1316 C1314 1.378 . S
C1316 C1317 1.367 . S
C1317 C1316 1.367 . S
C1317 C1319 1.433 . S
C1318 C1314 1.350 . S
C1318 C1315 1.463 . S
C1318 N1322 1.427 . S
C1319 H1309 0.929 . S
C1319 C1317 1.433 . S
C1319 N1322 1.384 . S
C1320 H1311 0.929 . S
C1320 C1312 1.378 . S
C1320 C1315 1.350 . S
C1321 H1308 0.929 . S
C1321 C1313 1.433 . S
C1321 N1323 1.384 . S
N1322 C1318 1.427 . S
N1322 C1319 1.384 . S
N1323 C1315 1.427 . S
N1323 C1321 1.384 . S
H1324 C1330 0.930 . S
H1325 C1334 0.930 . S
H1326 C1339 0.929 . S
H1327 C1337 0.929 . S
H1328 C1332 0.929 . S
H1329 C1338 0.929 . S
C1330 H1324 0.930 . S
C1330 C1331 1.367 . S
C1330 C1338 1.378 . S
C1331 C1330 1.367 . S
C1331 C1339 1.433 . S
C1332 H1328 0.929 . S
C1332 C1334 1.378 . S
C1332 C1336 1.350 . S
C1333 C1336 1.463 . S
C1333 C1338 1.350 . S
C1333 N1341 1.427 . S
C1334 H1325 0.930 . S
C1334 C1332 1.378 . S
C1334 C1335 1.367 . S
C1335 C1334 1.367 . S
C1335 C1337 1.433 . S
C1336 C1332 1.350 . S
C1336 C1333 1.463 . S
C1336 N1340 1.427 . S
C1337 H1327 0.929 . S
C1337 C1335 1.433 . S
C1337 N1340 1.384 . S
C1338 H1329 0.929 . S
C1338 C1330 1.378 . S
C1338 C1333 1.350 . S
C1339 H1326 0.929 . S
C1339 C1331 1.433 . S
C1339 N1341 1.384 . S
N1340 C1336 1.427 . S
N1340 C1337 1.384 . S
N1341 C1333 1.427 . S
N1341 C1339 1.384 . S
H1342 C1348 0.930 . S
H1343 C1352 0.930 . S
H1344 C1357 0.929 . S
H1345 C1355 0.929 . S
H1346 C1350 0.929 . S
H1347 C1356 0.929 . S
C1348 H1342 0.930 . S
C1348 C1349 1.367 . S
C1348 C1356 1.378 . S
C1349 C1348 1.367 . S
C1349 C1357 1.433 . S
C1350 H1346 0.929 . S
C1350 C1352 1.378 . S
C1350 C1354 1.350 . S
C1351 C1354 1.463 . S
C1351 C1356 1.350 . S
C1351 N1359 1.427 . S
C1352 H1343 0.930 . S
C1352 C1350 1.378 . S
C1352 C1353 1.367 . S
C1353 C1352 1.367 . S
C1353 C1355 1.433 . S
C1354 C1350 1.350 . S
C1354 C1351 1.463 . S
C1354 N1358 1.427 . S
C1355 H1345 0.929 . S
C1355 C1353 1.433 . S
C1355 N1358 1.384 . S
C1356 H1347 0.929 . S
C1356 C1348 1.378 . S
C1356 C1351 1.350 . S
C1357 H1344 0.929 . S
C1357 C1349 1.433 . S
C1357 N1359 1.384 . S
N1358 C1354 1.427 . S
N1358 C1355 1.384 . S
N1359 C1351 1.427 . S
N1359 C1357 1.384 . S
H1360 C1366 0.930 . S
H1361 C1370 0.930 . S
H1362 C1375 0.929 . S
H1363 C1373 0.929 . S
H1364 C1368 0.929 . S
H1365 C1374 0.929 . S
C1366 H1360 0.930 . S
C1366 C1367 1.367 . S
C1366 C1374 1.378 1_565 S
C1367 C1366 1.367 . S
C1367 C1375 1.433 . S
C1368 H1364 0.929 . S
C1368 C1370 1.378 . S
C1368 C1372 1.350 . S
C1369 C1372 1.463 . S
C1369 C1374 1.350 . S
C1369 N1377 1.427 . S
C1370 H1361 0.930 . S
C1370 C1368 1.378 . S
C1370 C1371 1.367 . S
C1371 C1370 1.367 . S
C1371 C1373 1.433 . S
C1372 C1368 1.350 . S
C1372 C1369 1.463 . S
C1372 N1376 1.427 . S
C1373 H1363 0.929 . S
C1373 C1371 1.433 . S
C1373 N1376 1.384 . S
C1374 H1365 0.929 . S
C1374 C1366 1.378 1_545 S
C1374 C1369 1.350 . S
C1375 H1362 0.929 . S
C1375 C1367 1.433 . S
C1375 N1377 1.384 1_565 S
N1376 C1372 1.427 . S
N1376 C1373 1.384 . S
N1377 C1369 1.427 . S
N1377 C1375 1.384 1_545 S
H1378 C1384 0.930 . S
H1379 C1388 0.930 . S
H1380 C1393 0.929 . S
H1381 C1391 0.929 . S
H1382 C1386 0.929 . S
H1383 C1392 0.929 . S
C1384 H1378 0.930 . S
C1384 C1385 1.367 . S
C1384 C1392 1.378 . S
C1385 C1384 1.367 . S
C1385 C1393 1.433 . S
C1386 H1382 0.929 . S
C1386 C1388 1.378 1_565 S
C1386 C1390 1.350 . S
C1387 C1390 1.463 . S
C1387 C1392 1.350 . S
C1387 N1395 1.427 . S
C1388 H1379 0.930 . S
C1388 C1386 1.378 1_545 S
C1388 C1389 1.367 . S
C1389 C1388 1.367 . S
C1389 C1391 1.433 . S
C1390 C1386 1.350 . S
C1390 C1387 1.463 . S
C1390 N1394 1.427 . S
C1391 H1381 0.929 . S
C1391 C1389 1.433 . S
C1391 N1394 1.384 1_545 S
C1392 H1383 0.929 . S
C1392 C1384 1.378 . S
C1392 C1387 1.350 . S
C1393 H1380 0.929 . S
C1393 C1385 1.433 . S
C1393 N1395 1.384 . S
N1394 C1390 1.427 . S
N1394 C1391 1.384 1_565 S
N1395 C1387 1.427 . S
N1395 C1393 1.384 . S
H1396 C1402 0.930 . S
H1397 C1406 0.930 . S
H1398 C1411 0.929 . S
H1399 C1409 0.929 . S
H1400 C1404 0.929 . S
H1401 C1410 0.929 . S
C1402 H1396 0.930 . S
C1402 C1403 1.367 . S
C1402 C1410 1.378 1_545 S
C1403 C1402 1.367 . S
C1403 C1411 1.433 . S
C1404 H1400 0.929 . S
C1404 C1406 1.378 . S
C1404 C1408 1.350 . S
C1405 C1408 1.463 . S
C1405 C1410 1.350 . S
C1405 N1413 1.427 . S
C1406 H1397 0.930 . S
C1406 C1404 1.378 . S
C1406 C1407 1.367 . S
C1407 C1406 1.367 . S
C1407 C1409 1.433 . S
C1408 C1404 1.350 . S
C1408 C1405 1.463 . S
C1408 N1412 1.427 . S
C1409 H1399 0.929 . S
C1409 C1407 1.433 . S
C1409 N1412 1.384 . S
C1410 H1401 0.929 . S
C1410 C1402 1.378 1_565 S
C1410 C1405 1.350 . S
C1411 H1398 0.929 . S
C1411 C1403 1.433 . S
C1411 N1413 1.384 1_545 S
N1412 C1408 1.427 . S
N1412 C1409 1.384 . S
N1413 C1405 1.427 . S
N1413 C1411 1.384 1_565 S
H1414 C1420 0.930 . S
H1415 C1424 0.930 . S
H1416 C1429 0.929 . S
H1417 C1427 0.929 . S
H1418 C1422 0.929 . S
H1419 C1428 0.929 . S
C1420 H1414 0.930 . S
C1420 C1421 1.367 . S
C1420 C1428 1.378 1_565 S
C1421 C1420 1.367 . S
C1421 C1429 1.433 . S
C1422 H1418 0.929 . S
C1422 C1424 1.378 . S
C1422 C1426 1.350 . S
C1423 C1426 1.463 . S
C1423 C1428 1.350 . S
C1423 N1431 1.427 . S
C1424 H1415 0.930 . S
C1424 C1422 1.378 . S
C1424 C1425 1.367 . S
C1425 C1424 1.367 . S
C1425 C1427 1.433 . S
C1426 C1422 1.350 . S
C1426 C1423 1.463 . S
C1426 N1430 1.427 . S
C1427 H1417 0.929 . S
C1427 C1425 1.433 . S
C1427 N1430 1.384 . S
C1428 H1419 0.929 . S
C1428 C1420 1.378 1_545 S
C1428 C1423 1.350 . S
C1429 H1416 0.929 . S
C1429 C1421 1.433 . S
C1429 N1431 1.384 1_565 S
N1430 C1426 1.427 . S
N1430 C1427 1.384 . S
N1431 C1423 1.427 . S
N1431 C1429 1.384 1_545 S
H1432 C1438 0.930 . S
H1433 C1442 0.930 . S
H1434 C1447 0.929 . S
H1435 C1445 0.929 . S
H1436 C1440 0.929 . S
H1437 C1446 0.929 . S
C1438 H1432 0.930 . S
C1438 C1439 1.367 . S
C1438 C1446 1.378 . S
C1439 C1438 1.367 . S
C1439 C1447 1.433 . S
C1440 H1436 0.929 . S
C1440 C1442 1.378 1_565 S
C1440 C1444 1.350 . S
C1441 C1444 1.463 . S
C1441 C1446 1.350 . S
C1441 N1449 1.427 . S
C1442 H1433 0.930 . S
C1442 C1440 1.378 1_545 S
C1442 C1443 1.367 . S
C1443 C1442 1.367 . S
C1443 C1445 1.433 . S
C1444 C1440 1.350 . S
C1444 C1441 1.463 . S
C1444 N1448 1.427 . S
C1445 H1435 0.929 . S
C1445 C1443 1.433 . S
C1445 N1448 1.384 1_545 S
C1446 H1437 0.929 . S
C1446 C1438 1.378 . S
C1446 C1441 1.350 . S
C1447 H1434 0.929 . S
C1447 C1439 1.433 . S
C1447 N1449 1.384 . S
N1448 C1444 1.427 . S
N1448 C1445 1.384 1_565 S
N1449 C1441 1.427 . S
N1449 C1447 1.384 . S
H1450 C1456 0.930 . S
H1451 C1460 0.930 . S
H1452 C1465 0.929 . S
H1453 C1463 0.929 . S
H1454 C1458 0.929 . S
H1455 C1464 0.929 . S
C1456 H1450 0.930 . S
C1456 C1457 1.367 . S
C1456 C1464 1.378 . S
C1457 C1456 1.367 . S
C1457 C1465 1.433 . S
C1458 H1454 0.929 . S
C1458 C1460 1.378 1_545 S
C1458 C1462 1.350 . S
C1459 C1462 1.463 . S
C1459 C1464 1.350 . S
C1459 N1467 1.427 . S
C1460 H1451 0.930 . S
C1460 C1458 1.378 1_565 S
C1460 C1461 1.367 . S
C1461 C1460 1.367 . S
C1461 C1463 1.433 . S
C1462 C1458 1.350 . S
C1462 C1459 1.463 . S
C1462 N1466 1.427 . S
C1463 H1453 0.929 . S
C1463 C1461 1.433 . S
C1463 N1466 1.384 1_565 S
C1464 H1455 0.929 . S
C1464 C1456 1.378 . S
C1464 C1459 1.350 . S
C1465 H1452 0.929 . S
C1465 C1457 1.433 . S
C1465 N1467 1.384 . S
N1466 C1462 1.427 . S
N1466 C1463 1.384 1_545 S
N1467 C1459 1.427 . S
N1467 C1465 1.384 . S
H1468 C1474 0.930 . S
H1469 C1478 0.930 . S
H1470 C1483 0.929 . S
H1471 C1481 0.929 . S
H1472 C1476 0.929 . S
H1473 C1482 0.929 . S
C1474 H1468 0.930 . S
C1474 C1475 1.367 . S
C1474 C1482 1.378 1_565 S
C1475 C1474 1.367 . S
C1475 C1483 1.433 . S
C1476 H1472 0.929 . S
C1476 C1478 1.378 . S
C1476 C1480 1.350 . S
C1477 C1480 1.463 . S
C1477 C1482 1.350 . S
C1477 N1485 1.427 . S
C1478 H1469 0.930 . S
C1478 C1476 1.378 . S
C1478 C1479 1.367 . S
C1479 C1478 1.367 . S
C1479 C1481 1.433 . S
C1480 C1476 1.350 . S
C1480 C1477 1.463 . S
C1480 N1484 1.427 . S
C1481 H1471 0.929 . S
C1481 C1479 1.433 . S
C1481 N1484 1.384 . S
C1482 H1473 0.929 . S
C1482 C1474 1.378 1_545 S
C1482 C1477 1.350 . S
C1483 H1470 0.929 . S
C1483 C1475 1.433 . S
C1483 N1485 1.384 1_565 S
N1484 C1480 1.427 . S
N1484 C1481 1.384 . S
N1485 C1477 1.427 . S
N1485 C1483 1.384 1_545 S
H1486 C1492 0.930 . S
H1487 C1496 0.930 . S
H1488 C1501 0.929 . S
H1489 C1499 0.929 . S
H1490 C1494 0.929 . S
H1491 C1500 0.929 . S
C1492 H1486 0.930 . S
C1492 C1493 1.367 . S
C1492 C1500 1.378 . S
C1493 C1492 1.367 . S
C1493 C1501 1.433 . S
C1494 H1490 0.929 . S
C1494 C1496 1.378 1_565 S
C1494 C1498 1.350 . S
C1495 C1498 1.463 . S
C1495 C1500 1.350 . S
C1495 N1503 1.427 . S
C1496 H1487 0.930 . S
C1496 C1494 1.378 1_545 S
C1496 C1497 1.367 . S
C1497 C1496 1.367 . S
C1497 C1499 1.433 . S
C1498 C1494 1.350 . S
C1498 C1495 1.463 . S
C1498 N1502 1.427 . S
C1499 H1489 0.929 . S
C1499 C1497 1.433 . S
C1499 N1502 1.384 1_545 S
C1500 H1491 0.929 . S
C1500 C1492 1.378 . S
C1500 C1495 1.350 . S
C1501 H1488 0.929 . S
C1501 C1493 1.433 . S
C1501 N1503 1.384 . S
N1502 C1498 1.427 . S
N1502 C1499 1.384 1_565 S
N1503 C1495 1.427 . S
N1503 C1501 1.384 . S
C647 C9 1.558 . S
C651 C369 1.554 . S
C665 C49 1.558 . S
C669 C329 1.554 . S
C683 C449 1.557 . S
C687 C89 1.555 . S
C701 C129 1.558 . S
C705 C409 1.554 . S
C719 C539 1.555 . S
C723 C179 1.557 . S
C737 C499 1.558 . S
C741 C219 1.555 . S
C755 C619 1.555 . S
C759 C259 1.557 . S
C773 C299 1.558 . S
C777 C579 1.555 . S
C791 C88 1.671 . S
C795 C8 1.666 . S
C809 C128 1.671 . S
C813 C48 1.666 . S
C827 C258 1.665 . S
C831 C178 1.673 . S
C845 C218 1.665 . S
C849 C298 1.672 . S
C863 C408 1.672 . S
C867 C328 1.666 . S
C881 C448 1.664 . S
C885 C368 1.673 . S
C899 C498 1.673 . S
C903 C578 1.664 . S
C917 C538 1.670 . S
C921 C618 1.666 . S
C935 C208 1.516 . S
C939 C18 1.532 . S
C953 C168 1.526 . S
C957 C58 1.522 . S
C971 C98 1.529 . S
C975 C288 1.519 . S
C989 C248 1.524 . S
C993 C138 1.523 . S
C1007 C338 1.516 . S
C1011 C528 1.532 . S
C1025 C488 1.521 . S
C1029 C378 1.526 . S
C1043 C418 1.528 . S
C1047 C608 1.519 . S
C1061 C568 1.515 . S
C1065 C458 1.532 . S
C1079 C59 1.600 . S
C1083 C19 1.603 . S
C1097 C139 1.603 . S
C1101 C99 1.602 . S
C1115 C209 1.603 . S
C1119 C169 1.601 . S
C1133 C249 1.597 . S
C1137 C289 1.601 . S
C1151 C379 1.602 . S
C1155 C339 1.598 . S
C1169 C459 1.602 . S
C1173 C419 1.603 . S
C1187 C489 1.602 . S
C1191 C529 1.603 . S
C1205 C569 1.601 . S
C1209 C609 1.596 . S
C1223 C15 1.556 . S
C1227 C5 1.556 . S
C1241 C55 1.560 . S
C1245 C45 1.560 . S
C1259 C95 1.561 . S
C1263 C85 1.561 . S
C1277 C125 1.561 . S
C1281 C135 1.561 . S
C1295 C165 1.562 . S
C1299 C175 1.562 . S
C1313 C215 1.562 . S
C1317 C205 1.562 . S
C1331 C245 1.560 . S
C1335 C255 1.560 . S
C1349 C285 1.559 . S
C1353 C295 1.559 . S
C1367 C325 1.559 . S
C1371 C335 1.559 . S
C1385 C375 1.557 . S
C1389 C365 1.557 . S
C1403 C405 1.559 . S
C1407 C415 1.559 . S
C1421 C445 1.558 . S
C1425 C455 1.558 . S
C1439 C485 1.562 . S
C1443 C495 1.562 . S
C1457 C525 1.558 . S
C1461 C535 1.558 . S
C1475 C575 1.561 . S
C1479 C565 1.561 . S
C1493 C605 1.561 . S
C1497 C615 1.561 . S
