# Generated by pormake.
# Topology sne, (6)-cn, num edge types: 1
# Building blocks:
#     Node 0, Type 0, BuildingBlock: KUMBUR_clean_sbu_1, # of connection points: 6
#     Node 1, Type 0, BuildingBlock: KUMBUR_clean_sbu_1, # of connection points: 6
#     Node 2, Type 0, BuildingBlock: KUMBUR_clean_sbu_1, # of connection points: 6
#     Node 3, Type 0, BuildingBlock: KUMBUR_clean_sbu_1, # of connection points: 6
#     Node 4, Type 0, BuildingBlock: KUMBUR_clean_sbu_1, # of connection points: 6
#     Node 5, Type 0, BuildingBlock: KUMBUR_clean_sbu_1, # of connection points: 6
#     Node 6, Type 0, BuildingBlock: KUMBUR_clean_sbu_1, # of connection points: 6
#     Node 7, Type 0, BuildingBlock: KUMBUR_clean_sbu_1, # of connection points: 6
#     Edge 8, Type (0, 0), BuildingBlock: XUDNAN_clean_linker_2, # of connection points: 2
#     Edge 9, Type (0, 0), BuildingBlock: XUDNAN_clean_linker_2, # of connection points: 2
#     Edge 10, Type (0, 0), BuildingBlock: XUDNAN_clean_linker_2, # of connection points: 2
#     Edge 11, Type (0, 0), BuildingBlock: XUDNAN_clean_linker_2, # of connection points: 2
#     Edge 12, Type (0, 0), BuildingBlock: XUDNAN_clean_linker_2, # of connection points: 2
#     Edge 13, Type (0, 0), BuildingBlock: XUDNAN_clean_linker_2, # of connection points: 2
#     Edge 14, Type (0, 0), BuildingBlock: XUDNAN_clean_linker_2, # of connection points: 2
#     Edge 15, Type (0, 0), BuildingBlock: XUDNAN_clean_linker_2, # of connection points: 2
#     Edge 16, Type (0, 0), BuildingBlock: XUDNAN_clean_linker_2, # of connection points: 2
#     Edge 17, Type (0, 0), BuildingBlock: XUDNAN_clean_linker_2, # of connection points: 2
#     Edge 18, Type (0, 0), BuildingBlock: XUDNAN_clean_linker_2, # of connection points: 2
#     Edge 19, Type (0, 0), BuildingBlock: XUDNAN_clean_linker_2, # of connection points: 2
#     Edge 20, Type (0, 0), BuildingBlock: XUDNAN_clean_linker_2, # of connection points: 2
#     Edge 21, Type (0, 0), BuildingBlock: XUDNAN_clean_linker_2, # of connection points: 2
#     Edge 22, Type (0, 0), BuildingBlock: XUDNAN_clean_linker_2, # of connection points: 2
#     Edge 23, Type (0, 0), BuildingBlock: XUDNAN_clean_linker_2, # of connection points: 2
#     Edge 24, Type (0, 0), BuildingBlock: XUDNAN_clean_linker_2, # of connection points: 2
#     Edge 25, Type (0, 0), BuildingBlock: XUDNAN_clean_linker_2, # of connection points: 2
#     Edge 26, Type (0, 0), BuildingBlock: XUDNAN_clean_linker_2, # of connection points: 2
#     Edge 27, Type (0, 0), BuildingBlock: XUDNAN_clean_linker_2, # of connection points: 2
#     Edge 28, Type (0, 0), BuildingBlock: XUDNAN_clean_linker_2, # of connection points: 2
#     Edge 29, Type (0, 0), BuildingBlock: XUDNAN_clean_linker_2, # of connection points: 2
#     Edge 30, Type (0, 0), BuildingBlock: XUDNAN_clean_linker_2, # of connection points: 2
#     Edge 31, Type (0, 0), BuildingBlock: XUDNAN_clean_linker_2, # of connection points: 2
# Relax obj value: 0.231
# Max RMSD: 0.299
# Mean RMSD: 0.298
data_MOF--net-sne--node1-KUMBUR_clean_sbu_1--edge1-XUDNAN_clean_linker_2
_symmetry_space_group_name_H-M    P1
_symmetry_Int_Tables_number       1
_symmetry_cell_setting            triclinic
loop_
_symmetry_equiv_pos_as_xyz
'x, y, z'
_cell_length_a     42.04078
_cell_length_b     41.881512
_cell_length_c     28.145261
_cell_angle_alpha  89.961448
_cell_angle_beta   90.360016
_cell_angle_gamma 90.635792
loop_
_atom_site_label
_atom_site_type_symbol
_atom_site_fract_x
_atom_site_fract_y
_atom_site_fract_z
_atom_type_partial_charge
Tb0 Tb 0.3169 0.20593 0.43844 0.0
C1 C 0.18836 0.24469 0.34954 0.0
N2 N 0.20808 0.24795 0.3879 0.0
C3 C 0.20238 0.30488 0.38451 0.0
C4 C 0.17585 0.2716 0.32614 0.0
C5 C 0.21407 0.27749 0.40672 0.0
C6 C 0.18338 0.30196 0.34386 0.0
C7 C 0.16256 0.20983 0.29176 0.0
C8 C 0.18169 0.21414 0.33261 0.0
C9 C 0.14979 0.23658 0.26868 0.0
C10 C 0.15645 0.26737 0.28577 0.0
Tb11 Tb 0.2223 0.20102 0.4233 0.0
N12 N 0.19455 0.18876 0.35569 0.0
C13 C 0.15693 0.17877 0.27523 0.0
C14 C 0.18854 0.15832 0.34029 0.0
C15 C 0.16995 0.15292 0.29964 0.0
H16 H 0.22728 0.28029 0.43935 0.0
H17 H 0.16533 0.12879 0.28749 0.0
H18 H 0.35487 0.16982 0.52429 0.0
H19 H 0.27906 0.32988 0.4169 0.0
H20 H 0.19737 0.13801 0.35982 0.0
H21 H 0.14243 0.17447 0.24386 0.0
H22 H 0.27847 0.27354 0.39755 0.0
H23 H 0.20765 0.32824 0.39921 0.0
H24 H 0.13501 0.23374 0.23725 0.0
H25 H 0.14668 0.28777 0.26729 0.0
H26 H 0.38724 0.18572 0.59453 0.0
H27 H 0.17433 0.32325 0.32682 0.0
H28 H 0.31147 0.35009 0.48406 0.0
N29 N 0.34245 0.21745 0.50705 0.0
C30 C 0.34499 0.24888 0.51804 0.0
C31 C 0.37551 0.20369 0.57329 0.0
C32 C 0.36325 0.25905 0.55745 0.0
C33 C 0.35713 0.19475 0.53382 0.0
C34 C 0.37886 0.236 0.58489 0.0
N35 N 0.3108 0.25988 0.45262 0.0
C36 C 0.2932 0.281 0.42659 0.0
C37 C 0.32931 0.30343 0.50269 0.0
C38 C 0.32836 0.27074 0.49045 0.0
C39 C 0.31149 0.32484 0.47568 0.0
C40 C 0.29323 0.31352 0.43773 0.0
H41 H 0.39311 0.24287 0.6155 0.0
H42 H 0.37887 0.29998 0.59882 0.0
H43 H 0.34889 0.33879 0.55127 0.0
O44 O 0.3614 0.22468 0.41798 0.0
O45 O 0.29043 0.20838 0.50485 0.0
O46 O 0.24802 0.23271 0.47232 0.0
O47 O 0.35569 0.17472 0.43052 0.0
O48 O 0.30121 0.22563 0.37066 0.0
O49 O 0.24667 0.21728 0.3575 0.0
O50 O 0.17953 0.17571 0.43848 0.0
O51 O 0.24558 0.1582 0.39674 0.0
O52 O 0.29874 0.17312 0.38315 0.0
O53 O 0.18759 0.22291 0.46516 0.0
O54 O 0.24178 0.16309 0.47129 0.0
O55 O 0.29802 0.16169 0.47002 0.0
C56 C 0.26349 0.2232 0.51023 0.0
C57 C 0.39183 0.19119 0.37049 0.0
C58 C 0.43902 0.19942 0.32064 0.0
C59 C 0.42202 0.18567 0.28229 0.0
C60 C 0.37586 0.17722 0.3318 0.0
C61 C 0.39089 0.17446 0.28805 0.0
C62 C 0.42347 0.20202 0.36494 0.0
C63 C 0.27547 0.22627 0.34359 0.0
C64 C 0.37479 0.19706 0.41533 0.0
C65 C 0.36492 0.29167 0.56868 0.0
C66 C 0.34781 0.31375 0.54161 0.0
C67 C 0.27357 0.15431 0.37661 0.0
C68 C 0.14776 0.19267 0.50403 0.0
C69 C 0.09674 0.19929 0.54551 0.0
C70 C 0.11045 0.18454 0.58566 0.0
C71 C 0.16063 0.17816 0.54446 0.0
C72 C 0.11587 0.20299 0.50457 0.0
C73 C 0.14195 0.17398 0.58493 0.0
C74 C 0.26974 0.14993 0.48242 0.0
C75 C 0.16741 0.19938 0.46179 0.0
H76 H 0.43243 0.18405 0.24732 0.0
H77 H 0.35153 0.16906 0.33516 0.0
H78 H 0.37815 0.16407 0.2582 0.0
H79 H 0.43575 0.21255 0.39513 0.0
H80 H 0.09716 0.18174 0.61823 0.0
H81 H 0.18516 0.17048 0.5449 0.0
H82 H 0.10612 0.214 0.47292 0.0
H83 H 0.15209 0.16293 0.61624 0.0
Tb84 Tb 0.17905 0.80744 0.65 0.0
C85 C 0.23298 0.69487 0.55423 0.0
N86 N 0.20373 0.70044 0.57314 0.0
C87 C 0.17939 0.68692 0.49806 0.0
C88 C 0.23647 0.68633 0.50603 0.0
C89 C 0.17701 0.69459 0.54624 0.0
C90 C 0.20923 0.68318 0.47769 0.0
C91 C 0.29022 0.6908 0.5656 0.0
C92 C 0.2597 0.69724 0.58348 0.0
C93 C 0.29368 0.68258 0.51758 0.0
C94 C 0.26691 0.68061 0.4878 0.0
Tb95 Tb 0.2049 0.71291 0.65296 0.0
N96 N 0.25585 0.7067 0.62923 0.0
C97 C 0.31642 0.6934 0.5964 0.0
C98 C 0.28109 0.70833 0.65988 0.0
C99 C 0.3118 0.70203 0.64379 0.0
H100 H 0.15358 0.69448 0.56126 0.0
H101 H 0.33186 0.70369 0.66799 0.0
H102 H 0.17487 0.83843 0.75672 0.0
H103 H 0.1074 0.83015 0.49429 0.0
H104 H 0.27754 0.71439 0.69675 0.0
H105 H 0.34026 0.6887 0.58399 0.0
H106 H 0.15558 0.81395 0.53825 0.0
H107 H 0.15809 0.68305 0.47692 0.0
H108 H 0.31697 0.6779 0.50304 0.0
H109 H 0.26998 0.67427 0.45081 0.0
H110 H 0.13486 0.86492 0.80692 0.0
H111 H 0.21092 0.67675 0.44051 0.0
H112 H 0.06072 0.85036 0.53794 0.0
N113 N 0.14406 0.83399 0.69716 0.0
C114 C 0.11571 0.84187 0.67783 0.0
C115 C 0.129 0.8583 0.77072 0.0
C116 C 0.09211 0.85711 0.70454 0.0
C117 C 0.15159 0.84321 0.74236 0.0
C118 C 0.09885 0.86474 0.75199 0.0
N119 N 0.13616 0.82402 0.60619 0.0
C120 C 0.13531 0.82255 0.55769 0.0
C121 C 0.08365 0.84652 0.6068 0.0
C122 C 0.11162 0.83678 0.63017 0.0
C123 C 0.08181 0.84325 0.55738 0.0
C124 C 0.10805 0.83177 0.53264 0.0
H125 H 0.08142 0.87652 0.77386 0.0
H126 H 0.04458 0.8767 0.70232 0.0
H127 H 0.03708 0.86724 0.6164 0.0
O128 O 0.18607 0.85348 0.62279 0.0
O129 O 0.15478 0.78054 0.70713 0.0
O130 O 0.16318 0.7251 0.69741 0.0
O131 O 0.22449 0.82945 0.65797 0.0
O132 O 0.16528 0.77004 0.59981 0.0
O133 O 0.15487 0.72197 0.63256 0.0
O134 O 0.21592 0.68098 0.70908 0.0
O135 O 0.23531 0.75255 0.62431 0.0
O136 O 0.19916 0.7839 0.5881 0.0
O137 O 0.20166 0.66349 0.64106 0.0
O138 O 0.2243 0.73859 0.71489 0.0
O139 O 0.20425 0.79108 0.71532 0.0
C140 C 0.14889 0.75 0.71739 0.0
C141 C 0.22372 0.88697 0.65914 0.0
C142 C 0.23527 0.94415 0.64861 0.0
C143 C 0.23187 0.94847 0.69777 0.0
C144 C 0.22124 0.8918 0.70824 0.0
C145 C 0.22524 0.9224 0.72734 0.0
C146 C 0.23126 0.9132 0.62951 0.0
C147 C 0.14479 0.74753 0.61011 0.0
C148 C 0.21533 0.85582 0.63734 0.0
C149 C 0.06326 0.86532 0.68237 0.0
C150 C 0.05902 0.86 0.63346 0.0
C151 C 0.22699 0.7703 0.58758 0.0
C152 C 0.18845 0.63109 0.70631 0.0
C153 C 0.18155 0.58099 0.75066 0.0
C154 C 0.14853 0.58296 0.74255 0.0
C155 C 0.15539 0.63249 0.69956 0.0
C156 C 0.20158 0.60511 0.73171 0.0
C157 C 0.13567 0.60839 0.71719 0.0
C158 C 0.22004 0.76683 0.73485 0.0
C159 C 0.20912 0.65566 0.68425 0.0
H160 H 0.23502 0.97193 0.71341 0.0
H161 H 0.21586 0.87206 0.73171 0.0
H162 H 0.22305 0.92597 0.76526 0.0
H163 H 0.23324 0.90968 0.59148 0.0
H164 H 0.13251 0.56462 0.7558 0.0
H165 H 0.14489 0.65195 0.67977 0.0
H166 H 0.22708 0.60391 0.73714 0.0
H167 H 0.11027 0.60934 0.71097 0.0
Tb168 Tb 0.70831 0.82324 0.41189 0.0
C169 C 0.83571 0.77748 0.31823 0.0
N170 N 0.81336 0.77299 0.35249 0.0
C171 C 0.81224 0.71674 0.33619 0.0
C172 C 0.84694 0.75168 0.29121 0.0
C173 C 0.80166 0.74307 0.36197 0.0
C174 C 0.8351 0.72101 0.3009 0.0
C175 C 0.86739 0.8144 0.2712 0.0
C176 C 0.84591 0.80844 0.30847 0.0
C177 C 0.87897 0.78872 0.24455 0.0
C178 C 0.86887 0.75743 0.25465 0.0
Tb179 Tb 0.80214 0.8175 0.396 0.0
N180 N 0.83441 0.83271 0.33518 0.0
C181 C 0.87647 0.84603 0.26176 0.0
C182 C 0.84333 0.86362 0.3264 0.0
C183 C 0.86435 0.87073 0.28943 0.0
H184 H 0.78517 0.73911 0.39051 0.0
H185 H 0.87146 0.89521 0.28262 0.0
H186 H 0.67529 0.86495 0.49537 0.0
H187 H 0.72391 0.69421 0.38921 0.0
H188 H 0.835 0.88276 0.34867 0.0
H189 H 0.89288 0.85162 0.23333 0.0
H190 H 0.73252 0.74958 0.3685 0.0
H191 H 0.80306 0.69309 0.34402 0.0
H192 H 0.89554 0.79281 0.2158 0.0
H193 H 0.8777 0.73792 0.23339 0.0
H194 H 0.64227 0.85449 0.56649 0.0
H195 H 0.84317 0.70054 0.28099 0.0
H196 H 0.69125 0.6796 0.45857 0.0
N197 N 0.68097 0.8158 0.47964 0.0
C198 C 0.67438 0.78509 0.49164 0.0
C199 C 0.65118 0.83479 0.54579 0.0
C200 C 0.65584 0.77801 0.5319 0.0
C201 C 0.66993 0.84064 0.50581 0.0
C202 C 0.64387 0.80334 0.55867 0.0
N203 N 0.70436 0.76864 0.4247 0.0
C204 C 0.7177 0.74482 0.39837 0.0
C205 C 0.68129 0.72863 0.47689 0.0
C206 C 0.68667 0.76079 0.46374 0.0
C207 C 0.69471 0.70455 0.44952 0.0
C208 C 0.71309 0.71271 0.41031 0.0
H209 H 0.6294 0.79886 0.58974 0.0
H210 H 0.63603 0.7401 0.57537 0.0
H211 H 0.65859 0.69688 0.5276 0.0
O212 O 0.6603 0.81294 0.39768 0.0
O213 O 0.73598 0.8144 0.47585 0.0
O214 O 0.77273 0.78472 0.43891 0.0
O215 O 0.67703 0.86149 0.39849 0.0
O216 O 0.72099 0.80138 0.34355 0.0
O217 O 0.77606 0.8018 0.33136 0.0
O218 O 0.82341 0.7989 0.45784 0.0
O219 O 0.78243 0.86435 0.37509 0.0
O220 O 0.73037 0.85167 0.35486 0.0
O221 O 0.85112 0.82665 0.40959 0.0
O222 O 0.78822 0.85902 0.43961 0.0
O223 O 0.73316 0.86021 0.45546 0.0
C224 C 0.75873 0.79358 0.4784 0.0
C225 C 0.63557 0.84682 0.34399 0.0
C226 C 0.58688 0.83696 0.29773 0.0
C227 C 0.60287 0.84723 0.25664 0.0
C228 C 0.65106 0.85701 0.30255 0.0
C229 C 0.63467 0.85732 0.25919 0.0
C230 C 0.60349 0.83702 0.34139 0.0
C231 C 0.74645 0.79633 0.31709 0.0
C232 C 0.65315 0.84236 0.38896 0.0
C233 C 0.65008 0.74604 0.54439 0.0
C234 C 0.66294 0.72144 0.51715 0.0
C235 C 0.75452 0.87185 0.35619 0.0
C236 C 0.87718 0.78421 0.44928 0.0
C237 C 0.93102 0.76743 0.47135 0.0
C238 C 0.92438 0.73714 0.452 0.0
C239 C 0.87096 0.75319 0.43262 0.0
C240 C 0.90731 0.79116 0.46943 0.0
C241 C 0.89449 0.73009 0.43304 0.0
C242 C 0.76296 0.87071 0.46169 0.0
C243 C 0.8519 0.80865 0.4471 0.0
H244 H 0.59071 0.8478 0.22262 0.0
H245 H 0.6759 0.86409 0.30345 0.0
H246 H 0.64677 0.86512 0.22731 0.0
H247 H 0.5918 0.82836 0.37321 0.0
H248 H 0.94187 0.71835 0.45348 0.0
H249 H 0.84768 0.74646 0.42036 0.0
H250 H 0.91213 0.81468 0.484 0.0
H251 H 0.88926 0.70636 0.41969 0.0
Tb252 Tb 0.83088 0.31104 0.6562 0.0
C253 C 0.78192 0.19319 0.76842 0.0
N254 N 0.81227 0.20101 0.75605 0.0
C255 C 0.83118 0.1831 0.83202 0.0
C256 C 0.77522 0.17888 0.8126 0.0
C257 C 0.8369 0.19612 0.78704 0.0
C258 C 0.80028 0.17414 0.8447 0.0
C259 C 0.72559 0.19238 0.74847 0.0
C260 C 0.75731 0.20006 0.73684 0.0
C261 C 0.71907 0.17656 0.79137 0.0
C262 C 0.74382 0.16976 0.82328 0.0
Tb263 Tb 0.81741 0.21679 0.67889 0.0
N264 N 0.76451 0.21509 0.69529 0.0
C265 C 0.70143 0.20068 0.71647 0.0
C266 C 0.7411 0.22261 0.66345 0.0
C267 C 0.70922 0.21599 0.67392 0.0
H268 H 0.8611 0.20122 0.77708 0.0
H269 H 0.69071 0.22218 0.64876 0.0
H270 H 0.83152 0.31724 0.53839 0.0
H271 H 0.88554 0.38639 0.78882 0.0
H272 H 0.74682 0.23338 0.6298 0.0
H273 H 0.67673 0.19526 0.72418 0.0
H274 H 0.84723 0.3464 0.75774 0.0
H275 H 0.85073 0.17929 0.85649 0.0
H276 H 0.69488 0.17 0.80063 0.0
H277 H 0.73832 0.15803 0.85661 0.0
H278 H 0.86382 0.34386 0.47702 0.0
H279 H 0.79605 0.16356 0.87926 0.0
H280 H 0.92517 0.41119 0.73507 0.0
N281 N 0.85852 0.33587 0.59625 0.0
C282 C 0.88254 0.3558 0.60962 0.0
C283 C 0.86946 0.34737 0.51425 0.0
C284 C 0.90158 0.37183 0.57593 0.0
C285 C 0.85105 0.33237 0.54919 0.0
C286 C 0.89516 0.36684 0.52766 0.0
N287 N 0.86559 0.34775 0.68746 0.0
C288 C 0.86458 0.3568 0.73405 0.0
C289 C 0.90832 0.38523 0.67315 0.0
C290 C 0.88609 0.36216 0.65721 0.0
C291 C 0.90849 0.39353 0.72131 0.0
C292 C 0.88615 0.3796 0.75174 0.0
H293 H 0.90923 0.37865 0.50058 0.0
H294 H 0.94049 0.40561 0.56634 0.0
H295 H 0.94629 0.41752 0.65176 0.0
O296 O 0.81396 0.35801 0.6501 0.0
O297 O 0.85713 0.27988 0.60682 0.0
O298 O 0.86151 0.2292 0.64124 0.0
O299 O 0.78287 0.31968 0.6732 0.0
O300 O 0.86559 0.29026 0.70621 0.0
O301 O 0.86389 0.23386 0.7079 0.0
O302 O 0.80067 0.18009 0.6337 0.0
O303 O 0.79053 0.25473 0.71444 0.0
O304 O 0.82512 0.29471 0.72966 0.0
O305 O 0.83141 0.16938 0.69234 0.0
O306 O 0.80466 0.23184 0.60703 0.0
O307 O 0.80145 0.28731 0.60001 0.0
C308 C 0.87213 0.25255 0.61352 0.0
C309 C 0.77903 0.37062 0.71251 0.0
C310 C 0.772 0.423 0.75063 0.0
C311 C 0.76993 0.40768 0.79484 0.0
C312 C 0.77582 0.35618 0.75736 0.0
C313 C 0.77168 0.37455 0.79808 0.0
C314 C 0.7767 0.40437 0.70929 0.0
C315 C 0.87746 0.262 0.71812 0.0
C316 C 0.78698 0.35078 0.67014 0.0
C317 C 0.92537 0.39328 0.5916 0.0
C318 C 0.92867 0.40006 0.64021 0.0
C319 C 0.80435 0.27382 0.74526 0.0
C320 C 0.83187 0.13376 0.62668 0.0
C321 C 0.83105 0.0812 0.58744 0.0
C322 C 0.86253 0.08716 0.57253 0.0
C323 C 0.86295 0.13908 0.61068 0.0
C324 C 0.81591 0.10499 0.61468 0.0
C325 C 0.87813 0.11586 0.58379 0.0
C326 C 0.79678 0.25791 0.5836 0.0
C327 C 0.81574 0.15774 0.65621 0.0
H328 H 0.76595 0.42139 0.82687 0.0
H329 H 0.7767 0.33064 0.76129 0.0
H330 H 0.76951 0.36297 0.83234 0.0
H331 H 0.7784 0.416 0.67499 0.0
H332 H 0.87552 0.06945 0.55277 0.0
H333 H 0.87551 0.16107 0.61926 0.0
H334 H 0.79164 0.1014 0.62639 0.0
H335 H 0.90227 0.11999 0.57191 0.0
Tb336 Tb 0.21491 0.318 0.9384 0.0
C337 C 0.34444 0.2799 0.85595 0.0
N338 N 0.32708 0.27926 0.89672 0.0
C339 C 0.34093 0.22418 0.90831 0.0
C340 C 0.36 0.25242 0.83932 0.0
C341 C 0.32634 0.25208 0.92387 0.0
C342 C 0.35766 0.22426 0.86575 0.0
C343 C 0.36405 0.3098 0.78791 0.0
C344 C 0.34665 0.3083 0.83052 0.0
C345 C 0.37997 0.28261 0.77184 0.0
C346 C 0.37776 0.25396 0.79727 0.0
Tb347 Tb 0.3081 0.32814 0.91966 0.0
N348 N 0.33101 0.33423 0.84703 0.0
C349 C 0.36468 0.33851 0.76245 0.0
C350 C 0.33182 0.36244 0.82259 0.0
C351 C 0.34839 0.36488 0.77979 0.0
H352 H 0.31508 0.25129 0.95804 0.0
H353 H 0.349 0.38728 0.76058 0.0
H354 H 0.17231 0.34625 1.02513 0.0
H355 H 0.26811 0.2005 0.91238 0.0
H356 H 0.32061 0.38345 0.83653 0.0
H357 H 0.37765 0.34055 0.72943 0.0
H358 H 0.26362 0.25753 0.89893 0.0
H359 H 0.33972 0.20271 0.9297 0.0
H360 H 0.3936 0.28336 0.73929 0.0
H361 H 0.38991 0.23309 0.78411 0.0
H362 H 0.13973 0.3242 0.09077 0.0
H363 H 0.3692 0.20265 0.85412 0.0
H364 H 0.23512 0.17381 0.97317 0.0
N365 N 0.1893 0.3009 1.004 0.0
C366 C 0.18967 0.26902 1.01206 0.0
C367 C 0.1536 0.30843 0.06883 0.0
C368 C 0.17156 0.25541 0.04898 0.0
C369 C 0.17209 0.32084 1.0319 0.0
C370 C 0.15297 0.27551 0.07698 0.0
N371 N 0.2265 0.26456 0.94904 0.0
C372 C 0.24797 0.24689 0.92423 0.0
C373 C 0.21145 0.21727 0.99359 0.0
C374 C 0.2091 0.25027 0.98408 0.0
C375 C 0.23253 0.19918 0.96686 0.0
C376 C 0.2511 0.21415 0.93244 0.0
H377 H 0.13866 0.26595 0.10566 0.0
H378 H 0.15934 0.21148 0.08559 0.0
H379 H 0.19452 0.17812 0.03745 0.0
O380 O 0.17084 0.29789 0.91795 0.0
O381 O 0.24162 0.31675 1.00474 0.0
O382 O 0.28675 0.29633 0.97364 0.0
O383 O 0.17502 0.34786 0.933 0.0
O384 O 0.22982 0.30001 0.86921 0.0
O385 O 0.28358 0.31121 0.85459 0.0
O386 O 0.34625 0.36073 0.9257 0.0
O387 O 0.28129 0.37023 0.89507 0.0
O388 O 0.22924 0.35208 0.88275 0.0
O389 O 0.34711 0.31693 0.96461 0.0
O390 O 0.28726 0.36445 0.96634 0.0
O391 O 0.23154 0.3618 0.97493 0.0
C392 C 0.26958 0.30396 1.01084 0.0
C393 C 0.13934 0.33164 0.87184 0.0
C394 C 0.09426 0.32003 0.81924 0.0
C395 C 0.10678 0.34179 0.78598 0.0
C396 C 0.15147 0.3532 0.83805 0.0
C397 C 0.13524 0.35814 0.79534 0.0
C398 C 0.11085 0.3149 0.86207 0.0
C399 C 0.25501 0.301 0.84142 0.0
C400 C 0.15674 0.32521 0.91634 0.0
C401 C 0.17306 0.22242 0.05735 0.0
C402 C 0.1931 0.20344 1.02992 0.0
C403 C 0.25188 0.37397 0.87894 0.0
C404 C 0.39689 0.3369 0.93622 0.0
C405 C 0.45145 0.31954 0.953 0.0
C406 C 0.46073 0.33106 0.90824 0.0
C407 C 0.40722 0.3485 0.8919 0.0
C408 C 0.41924 0.32207 0.96664 0.0
C409 C 0.43873 0.34524 0.87793 0.0
C410 C 0.25988 0.37513 0.98289 0.0
C411 C 0.36349 0.34189 0.95162 0.0
H412 H 0.09457 0.34607 0.7526 0.0
H413 H 0.1735 0.36613 0.84444 0.0
H414 H 0.14474 0.37475 0.76942 0.0
H415 H 0.10139 0.29827 0.88809 0.0
H416 H 0.48516 0.32906 0.89665 0.0
H417 H 0.39115 0.36058 0.86802 0.0
H418 H 0.41185 0.31344 1.0012 0.0
H419 H 0.44624 0.35416 0.84363 0.0
Tb420 Tb 0.31152 0.81491 0.16013 0.0
C421 C 0.27257 0.70125 0.24867 0.0
N422 N 0.30386 0.70035 0.23716 0.0
C423 C 0.31595 0.67417 0.31082 0.0
C424 C 0.26192 0.68953 0.29287 0.0
C425 C 0.32547 0.68611 0.26668 0.0
C426 C 0.2841 0.67616 0.32418 0.0
C427 C 0.21862 0.71466 0.2269 0.0
C428 C 0.25147 0.71463 0.21631 0.0
C429 C 0.20799 0.70385 0.2714 0.0
C430 C 0.2296 0.69142 0.30435 0.0
Tb431 Tb 0.31759 0.72188 0.16569 0.0
N432 N 0.26272 0.72557 0.17364 0.0
C433 C 0.19716 0.72399 0.19171 0.0
C434 C 0.24113 0.73142 0.13796 0.0
C435 C 0.20842 0.73134 0.14664 0.0
H436 H 0.35024 0.68516 0.25679 0.0
H437 H 0.19185 0.73675 0.11823 0.0
H438 H 0.24128 0.78538 0.20793 0.0
H439 H 0.33439 0.88168 1.00057 0.0
H440 H 0.24779 0.73493 0.1019 0.0
H441 H 0.17179 0.72406 0.19824 0.0
H442 H 0.34899 0.84927 0.07077 0.0
H443 H 0.33322 0.66363 0.33464 0.0
H444 H 0.18293 0.70422 0.28019 0.0
H445 H 0.22097 0.68269 0.33821 0.0
H446 H 0.18517 0.79562 0.19623 0.0
H447 H 0.27683 0.66704 0.35851 0.0
H448 H 0.27784 0.89343 0.98398 0.0
N449 N 0.25701 0.81502 0.15018 0.0
C450 C 0.24718 0.83478 0.1143 0.0
C451 C 0.2024 0.8067 0.17283 0.0
C452 C 0.21457 0.84035 0.10578 0.0
C453 C 0.23487 0.80116 0.17944 0.0
C454 C 0.19219 0.82618 0.13581 0.0
N455 N 0.30109 0.84217 0.09245 0.0
C456 C 0.32423 0.85393 0.06331 0.0
C457 C 0.26054 0.86715 0.04507 0.0
C458 C 0.26988 0.84861 0.08443 0.0
C459 C 0.28409 0.87912 1.01467 0.0
C460 C 0.31605 0.87243 1.0238 0.0
H461 H 0.16696 0.82999 0.13057 0.0
H462 H 0.1803 0.86394 0.06028 0.0
H463 H 0.22047 0.88704 1.00691 0.0
O464 O 0.34118 0.85586 0.16673 0.0
O465 O 0.35397 0.79866 0.12122 0.0
O466 O 0.35185 0.74264 0.11492 0.0
O467 O 0.29333 0.85627 0.19124 0.0
O468 O 0.35218 0.79836 0.20302 0.0
O469 O 0.36214 0.74343 0.19438 0.0
O470 O 0.30153 0.67623 0.14443 0.0
O471 O 0.31741 0.74627 0.23521 0.0
O472 O 0.29289 0.79491 0.22691 0.0
O473 O 0.34995 0.6838 0.16488 0.0
O474 O 0.30239 0.7361 0.09321 0.0
O475 O 0.29719 0.79132 0.09358 0.0
C476 C 0.36464 0.771 0.1049 0.0
C477 C 0.32893 0.88908 0.23208 0.0
C478 C 0.32742 0.93791 0.27916 0.0
C479 C 0.33823 0.92072 0.3189 0.0
C480 C 0.33972 0.87223 0.27201 0.0
C481 C 0.3446 0.88811 0.31513 0.0
C482 C 0.32314 0.92192 0.23565 0.0
C483 C 0.37009 0.77276 0.20868 0.0
C484 C 0.31968 0.87229 0.18832 0.0
C485 C 0.20524 0.85952 0.06726 0.0
C486 C 0.22812 0.87274 0.03688 0.0
C487 C 0.30156 0.77036 0.25277 0.0
C488 C 0.33874 0.64137 0.11101 0.0
C489 C 0.33123 0.5897 0.07146 0.0
C490 C 0.35815 0.59662 0.04343 0.0
C491 C 0.36513 0.64784 0.08227 0.0
C492 C 0.32167 0.61259 0.10502 0.0
C493 C 0.37467 0.62556 0.04855 0.0
C494 C 0.29549 0.76346 0.0722 0.0
C495 C 0.32916 0.66331 0.14907 0.0
H496 H 0.34184 0.93255 0.35276 0.0
H497 H 0.34353 0.84676 0.27008 0.0
H498 H 0.3528 0.875 0.34593 0.0
H499 H 0.31402 0.93474 0.20506 0.0
H500 H 0.36697 0.5795 1.01807 0.0
H501 H 0.37856 0.66984 0.08636 0.0
H502 H 0.30091 0.60819 0.12678 0.0
H503 H 0.39527 0.63052 1.02676 0.0
Tb504 Tb 0.8011 0.69725 0.90649 0.0
C505 C 0.68168 0.76457 0.844 0.0
N506 N 0.69754 0.75741 0.88505 0.0
C507 C 0.69476 0.81274 0.90842 0.0
C508 C 0.67298 0.79625 0.833 0.0
C509 C 0.70235 0.78103 0.91833 0.0
C510 C 0.68047 0.82049 0.86531 0.0
C511 C 0.65583 0.7463 0.77125 0.0
C512 C 0.6729 0.73993 0.81345 0.0
C513 C 0.64739 0.77779 0.7603 0.0
C514 C 0.65615 0.80271 0.79089 0.0
Tb515 Tb 0.70644 0.70344 0.8963 0.0
N516 N 0.68151 0.7097 0.82479 0.0
C517 C 0.64792 0.72085 0.74107 0.0
C518 C 0.67344 0.6847 0.79576 0.0
C519 C 0.65684 0.68992 0.75335 0.0
H520 H 0.71133 0.77622 0.95343 0.0
H521 H 0.65059 0.67004 0.73045 0.0
H522 H 0.84086 0.66708 0.99616 0.0
H523 H 0.76251 0.81933 0.86822 0.0
H524 H 0.67931 0.66068 0.80567 0.0
H525 H 0.63494 0.72482 0.70824 0.0
H526 H 0.76068 0.76203 0.85855 0.0
H527 H 0.69938 0.83115 0.93463 0.0
H528 H 0.63423 0.78314 0.72809 0.0
H529 H 0.64934 0.82688 0.78201 0.0
H530 H 0.8736 0.68773 0.0632 0.0
H531 H 0.67424 0.84507 0.85811 0.0
H532 H 0.79571 0.84381 0.93117 0.0
N533 N 0.82743 0.71326 0.97269 0.0
C534 C 0.82982 0.74531 0.97904 0.0
C535 C 0.86142 0.70414 0.0398 0.0
C536 C 0.84813 0.75808 1.01675 0.0
C537 C 0.84288 0.69254 1.00205 0.0
C538 C 0.86422 0.73705 0.04702 0.0
N539 N 0.79468 0.75191 0.91311 0.0
C540 C 0.77651 0.77126 0.88492 0.0
C541 C 0.81364 0.79856 0.95626 0.0
C542 C 0.81275 0.76521 0.94873 0.0
C543 C 0.79567 0.81812 0.92652 0.0
C544 C 0.77697 0.80439 0.8909 0.0
H545 H 0.87853 0.74597 0.0764 0.0
H546 H 0.86335 0.80152 0.05234 0.0
H547 H 0.83314 0.83694 0.99955 0.0
O548 O 0.84559 0.71364 0.88211 0.0
O549 O 0.77842 0.70243 0.9763 0.0
O550 O 0.73713 0.72951 0.9464 0.0
O551 O 0.83969 0.66516 0.90353 0.0
O552 O 0.78618 0.71168 0.83515 0.0
O553 O 0.73056 0.71179 0.82744 0.0
O554 O 0.66546 0.67443 0.90342 0.0
O555 O 0.72426 0.65913 0.86392 0.0
O556 O 0.78036 0.65877 0.8611 0.0
O557 O 0.6684 0.71893 0.93958 0.0
O558 O 0.72288 0.66503 0.94466 0.0
O559 O 0.77826 0.65565 0.94036 0.0
C560 C 0.75218 0.71817 0.98353 0.0
C561 C 0.88053 0.67731 0.84723 0.0
C562 C 0.93245 0.68292 0.80772 0.0
C563 C 0.92068 0.66329 0.77078 0.0
C564 C 0.86955 0.65799 0.80985 0.0
C565 C 0.88963 0.65092 0.77203 0.0
C566 C 0.91195 0.68961 0.84609 0.0
C567 C 0.75969 0.71406 0.80999 0.0
C568 C 0.85939 0.68637 0.88668 0.0
C569 C 0.84942 0.79125 1.02354 0.0
C570 C 0.83218 0.8114 0.99347 0.0
C571 C 0.75177 0.64647 0.85078 0.0
C572 C 0.61646 0.70166 0.91504 0.0
C573 C 0.56239 0.71919 0.93523 0.0
C574 C 0.55208 0.70985 0.8897 0.0
C575 C 0.60492 0.69224 0.87013 0.0
C576 C 0.59492 0.71553 0.94759 0.0
C577 C 0.57321 0.69669 0.85747 0.0
C578 C 0.74886 0.64827 0.95419 0.0
C579 C 0.65009 0.69488 0.92892 0.0
H580 H 0.93517 0.65802 0.74018 0.0
H581 H 0.84541 0.64865 0.80968 0.0
H582 H 0.88094 0.63611 0.74313 0.0
H583 H 0.92031 0.70443 0.87524 0.0
H584 H 0.52746 0.71267 0.87905 0.0
H585 H 0.62013 0.68071 0.84486 0.0
H586 H 0.60315 0.7224 0.98272 0.0
H587 H 0.56481 0.68935 0.82267 0.0
Tb588 Tb 0.70714 0.30297 0.16491 0.0
C589 C 0.75581 0.19465 0.06724 0.0
N590 N 0.72399 0.19294 0.07467 0.0
C591 C 0.71557 0.17321 0.99558 0.0
C592 C 0.76874 0.18662 1.02278 0.0
C593 C 0.70378 0.1819 0.04004 0.0
C594 C 0.74819 0.17568 0.98685 0.0
C595 C 0.80839 0.20816 0.09701 0.0
C596 C 0.7752 0.20573 0.1039 0.0
C597 C 0.82135 0.20082 0.05247 0.0
C598 C 0.80158 0.19007 1.01545 0.0
Tb599 Tb 0.7067 0.20876 0.14734 0.0
N600 N 0.76169 0.21321 0.14645 0.0
C601 C 0.82769 0.21708 0.1354 0.0
C602 C 0.78111 0.21782 0.18512 0.0
C603 C 0.81405 0.22109 0.17993 0.0
H604 H 0.67847 0.1806 0.04646 0.0
H605 H 0.82901 0.22565 0.21067 0.0
H606 H 0.78672 0.30351 0.15606 0.0
H607 H 0.62724 0.36639 0.28004 0.0
H608 H 0.77229 0.21714 0.22061 0.0
H609 H 0.85326 0.21924 0.13163 0.0
H610 H 0.64116 0.33278 0.21125 0.0
H611 H 0.6995 0.16489 0.96795 0.0
H612 H 0.84673 0.20292 0.04652 0.0
H613 H 0.81192 0.18435 0.98137 0.0
H614 H 0.83187 0.32733 0.19975 0.0
H615 H 0.75724 0.16914 0.95229 0.0
H616 H 0.66973 0.3887 0.33185 0.0
N617 N 0.75162 0.32265 0.20217 0.0
C618 C 0.74595 0.34174 0.24027 0.0
C619 C 0.80782 0.33147 0.21158 0.0
C620 C 0.7712 0.35589 0.26617 0.0
C621 C 0.78205 0.31801 0.18682 0.0
C622 C 0.80241 0.35032 0.25158 0.0
N623 N 0.69085 0.33405 0.22636 0.0
C624 C 0.65981 0.34158 0.23458 0.0
C625 C 0.7078 0.36715 0.29202 0.0
C626 C 0.71461 0.34711 0.25327 0.0
C627 C 0.67595 0.37348 0.3023 0.0
C628 C 0.65188 0.36091 0.27314 0.0
H629 H 0.82246 0.3607 0.27064 0.0
H630 H 0.78361 0.38619 0.32604 0.0
H631 H 0.72815 0.39619 0.34847 0.0
O632 O 0.70154 0.35266 0.15439 0.0
O633 O 0.66611 0.28005 0.20087 0.0
O634 O 0.66989 0.2239 0.19791 0.0
O635 O 0.70814 0.32158 0.09535 0.0
O636 O 0.66366 0.28418 0.12923 0.0
O637 O 0.66346 0.22858 0.11457 0.0
O638 O 0.72236 0.16388 0.172 0.0
O639 O 0.7102 0.24062 0.08526 0.0
O640 O 0.74134 0.27763 0.12042 0.0
O641 O 0.67754 0.16819 0.13689 0.0
O642 O 0.71561 0.22503 0.22091 0.0
O643 O 0.7351 0.27677 0.21852 0.0
C644 C 0.65653 0.25073 0.21262 0.0
C645 C 0.73199 0.3727 0.09086 0.0
C646 C 0.74906 0.42582 0.06425 0.0
C647 C 0.77973 0.41377 0.05647 0.0
C648 C 0.76272 0.36131 0.08239 0.0
C649 C 0.78641 0.38178 0.06543 0.0
C650 C 0.72525 0.405 0.08183 0.0
C651 C 0.65093 0.25755 0.11102 0.0
C652 C 0.70703 0.35106 0.10927 0.0
C653 C 0.76451 0.37525 0.30553 0.0
C654 C 0.73292 0.38088 0.31839 0.0
C655 C 0.73171 0.26318 0.08153 0.0
C656 C 0.68154 0.1285 0.19682 0.0
C657 C 0.6843 0.08277 0.25112 0.0
C658 C 0.6532 0.08949 0.26606 0.0
C659 C 0.65075 0.13483 0.21327 0.0
C660 C 0.69826 0.10218 0.21572 0.0
C661 C 0.63673 0.1153 0.24745 0.0
C662 C 0.72726 0.2508 0.24236 0.0
C663 C 0.69623 0.14919 0.1601 0.0
H664 H 0.79876 0.42918 0.04393 0.0
H665 H 0.76844 0.33658 0.08884 0.0
H666 H 0.81007 0.37281 0.05926 0.0
H667 H 0.70144 0.4137 0.08787 0.0
H668 H 0.64155 0.07475 0.29255 0.0
H669 H 0.6374 0.15483 0.19967 0.0
H670 H 0.72218 0.09733 0.20379 0.0
H671 H 0.61301 0.12016 0.25991 0.0
H672 H 0.25454 0.09357 0.39874 0.0
H673 H 0.30552 0.14924 0.29337 0.0
H674 H 0.3221 0.09952 0.25365 0.0
H675 H 0.31007 0.03566 0.41376 0.0
H676 H 0.28362 1.00166 0.41903 0.0
H677 H 0.27007 0.04065 0.4353 0.0
H678 H 0.2228 0.03747 0.37785 0.0
H679 H 0.23435 0.99753 0.36217 0.0
H680 H 0.22921 0.02724 0.31647 0.0
H681 H 0.33645 0.04399 0.22914 0.0
H682 H 0.34814 0.98641 0.22201 0.0
H683 H 0.28959 0.96676 0.34512 0.0
C684 C 0.26835 0.09519 0.36644 0.0
C685 C 0.27879 0.12507 0.34887 0.0
C686 C 0.29756 0.12644 0.30738 0.0
C687 C 0.3069 0.09838 0.2845 0.0
C688 C 0.29717 0.06917 0.30357 0.0
C689 C 0.2781 0.06734 0.3434 0.0
C690 C 0.27296 0.03295 0.35867 0.0
C691 C 0.28497 0.02742 0.4097 0.0
C692 C 0.23774 0.02322 0.35346 0.0
C693 C 0.29327 0.01589 0.32257 0.0
C694 C 0.30638 0.03715 0.29042 0.0
C695 C 0.32615 0.02709 0.2539 0.0
C696 C 0.33268 0.99441 0.25013 0.0
C697 C 0.31992 0.9723 0.28315 0.0
C698 C 0.2999 0.98325 0.31971 0.0
H699 H 0.11354 0.69423 0.72106 0.0
H700 H 0.11724 0.79049 0.77749 0.0
H701 H 0.06351 0.78299 0.81064 0.0
H702 H 0.03573 0.6948 0.68388 0.0
H703 H 0.026 0.65419 0.69998 0.0
H704 H 0.06644 0.66512 0.68633 0.0
H705 H 0.08612 0.64484 0.76892 0.0
H706 H 0.04587 0.63201 0.78077 0.0
H707 H 0.06644 0.65823 0.82172 0.0
H708 H 1.00661 0.76664 0.83034 0.0
H709 H 0.95311 0.74246 0.83773 0.0
H710 H 0.98706 0.65601 0.77067 0.0
C711 C 0.10366 0.71341 0.74181 0.0
C712 C 0.11996 0.74307 0.74654 0.0
C713 C 0.10544 0.76766 0.77305 0.0
C714 C 0.07481 0.76357 0.79212 0.0
C715 C 0.05893 0.73451 0.78505 0.0
C716 C 0.0731 0.70967 0.76118 0.0
C717 C 0.05035 0.68145 0.75612 0.0
C718 C 0.04427 0.67344 0.70345 0.0
C719 C 0.06293 0.65239 0.7835 0.0
C720 C 0.02081 0.69461 0.77949 0.0
C721 C 0.02633 0.72514 0.79641 0.0
C722 C 1.00225 0.74254 0.8179 0.0
C723 C 0.97184 0.72843 0.82222 0.0
C724 C 0.96547 0.69709 0.80514 0.0
C725 C 0.99068 0.68006 0.78384 0.0
H726 H 0.76161 0.90801 0.27352 0.0
H727 H 0.72601 0.91213 0.41736 0.0
H728 H 0.71574 0.96873 0.40895 0.0
H729 H 0.7917 0.9918 0.26211 0.0
H730 H 0.77518 0.99722 0.20344 0.0
H731 H 0.78732 0.95809 0.22272 0.0
H732 H 0.73103 0.93559 0.20391 0.0
H733 H 0.71881 0.97451 0.18427 0.0
H734 H 0.69687 0.95409 0.23021 0.0
H735 H 0.70727 0.02387 0.38643 0.0
H736 H 0.68852 0.07203 0.34572 0.0
H737 H 0.71878 0.03325 0.21049 0.0
C738 C 0.75244 0.92123 0.30342 0.0
C739 C 0.74736 0.90603 0.34779 0.0
C740 C 0.73312 0.92347 0.38483 0.0
C741 C 0.72663 0.95586 0.38008 0.0
C742 C 0.73269 0.97048 0.3368 0.0
C743 C 0.74411 0.95368 0.29836 0.0
C744 C 0.74267 0.97427 0.2537 0.0
C745 C 0.77622 0.98073 0.23434 0.0
C746 C 0.72105 0.95869 0.21579 0.0
C747 C 0.72812 1.00474 0.27328 0.0
C748 C 0.72376 1.00208 0.3217 0.0
C749 C 0.7103 0.02627 0.34844 0.0
C750 C 0.69962 0.05351 0.32492 0.0
C751 C 0.70165 0.05624 0.27486 0.0
C752 C 0.71706 0.03192 0.24881 0.0
H753 H 0.03953 0.34792 0.79034 0.0
H754 H 0.07911 0.25598 0.82681 0.0
H755 H 0.0272 0.22982 0.80765 0.0
H756 H 0.96261 0.3335 0.83941 0.0
H757 H 0.94195 0.35494 0.79352 0.0
H758 H 0.98203 0.36628 0.80928 0.0
H759 H 0.99994 0.35963 0.72257 0.0
H760 H 0.96038 0.34797 0.70459 0.0
H761 H 0.99319 0.32212 0.6925 0.0
H762 H 0.97015 0.21411 0.77874 0.0
H763 H 0.91481 0.21123 0.74786 0.0
H764 H 0.91467 0.3145 0.73553 0.0
C765 C 0.03732 0.32226 0.79424 0.0
C766 C 0.06327 0.30392 0.80969 0.0
C767 C 0.05936 0.27045 0.81509 0.0
C768 C 0.03004 0.25543 0.80416 0.0
C769 C 1.00489 0.27434 0.78857 0.0
C770 C 1.00838 0.30708 0.78411 0.0
C771 C 0.97816 0.32242 0.76705 0.0
C772 C 0.96545 0.34566 0.80453 0.0
C773 C 0.98324 0.33902 0.71885 0.0
C774 C 0.95694 0.29331 0.76215 0.0
C775 C 0.97254 0.26564 0.77434 0.0
C776 C 0.95762 0.23579 0.76997 0.0
C777 C 0.92607 0.23438 0.75259 0.0
C778 C 0.90973 0.26269 0.74025 0.0
C779 C 0.9257 0.29235 0.74555 0.0
H780 H 0.3228 0.55321 0.99057 0.0
H781 H 0.3005 0.5545 0.14114 0.0
H782 H 0.27348 0.50232 0.13291 0.0
H783 H 0.25217 0.5096 0.94784 0.0
H784 H 0.27497 0.48694 0.90596 0.0
H785 H 0.28759 0.52676 0.92194 0.0
H786 H 0.34292 0.50485 0.94654 0.0
H787 H 0.33005 0.46523 0.93037 0.0
H788 H 0.3451 0.47293 0.98942 0.0
H789 H 0.25093 0.44755 0.10858 0.0
H790 H 0.24073 0.39423 0.07187 0.0
H791 H 0.284 0.42775 0.94155 0.0
C792 C 0.31232 0.54275 1.02204 0.0
C793 C 0.31372 0.55854 0.06643 0.0
C794 C 0.29918 0.54364 0.1063 0.0
C795 C 0.28383 0.51379 0.1021 0.0
C796 C 0.28336 0.49881 0.05792 0.0
C797 C 0.29753 0.51277 1.01872 0.0
C798 C 0.29683 0.49055 0.97642 0.0
C799 C 0.27667 0.50433 0.93566 0.0
C800 C 0.33073 0.48294 0.95975 0.0
C801 C 0.28077 0.46167 0.99822 0.0
C802 C 0.2723 0.46698 0.04485 0.0
C803 C 0.25738 0.44321 0.07201 0.0
C804 C 0.2516 0.41313 0.05104 0.0
C805 C 0.26151 0.40718 1.00406 0.0
C806 C 0.27596 0.43183 0.97747 0.0
H807 H 0.50732 0.68996 0.9635 0.0
H808 H 0.56197 0.77748 0.98063 0.0
H809 H 0.51704 0.80134 1.02486 0.0
H810 H 0.43227 0.72341 0.94405 0.0
H811 H 0.41059 0.69394 0.97797 0.0
H812 H 0.44758 0.68358 0.9504 0.0
H813 H 0.47023 0.66552 1.03179 0.0
H814 H 0.43324 0.67553 0.0596 0.0
H815 H 0.46992 0.6928 0.08133 0.0
H816 H 0.46296 0.81678 0.06164 0.0
H817 H 0.40918 0.81972 0.09661 0.0
H818 H 0.39106 0.7214 0.05529 0.0
C819 C 0.51003 0.71399 0.97727 0.0
C820 C 0.53819 0.73188 0.96876 0.0
C821 C 0.54079 0.76325 0.98723 0.0
C822 C 0.51525 0.77704 1.01199 0.0
C823 C 0.48737 0.75902 1.01842 0.0
C824 C 0.485 0.7279 1.00234 0.0
C825 C 0.45286 0.71325 1.01417 0.0
C826 C 0.43477 0.70295 0.96894 0.0
C827 C 0.45681 0.68512 0.04878 0.0
C828 C 0.43695 0.74124 0.03803 0.0
C829 C 0.4571 0.7675 0.04022 0.0
C830 C 0.44717 0.79622 0.06024 0.0
C831 C 0.41638 0.79775 0.07973 0.0
C832 C 0.39562 0.77079 0.07896 0.0
C833 C 0.4062 0.74241 0.05703 0.0
H834 H 0.76981 0.46155 0.98858 0.0
H835 H 0.71346 0.4677 0.11685 0.0
H836 H 0.70553 0.52533 0.10191 0.0
H837 H 0.81123 0.53345 1.00144 0.0
H838 H 0.81068 0.54446 0.9396 0.0
H839 H 0.80937 0.50296 0.95628 0.0
H840 H 0.75835 0.49465 0.90762 0.0
H841 H 0.75651 0.5362 0.89089 0.0
H842 H 0.72351 0.51769 0.92066 0.0
H843 H 0.70492 0.58337 0.07279 0.0
H844 H 0.71318 0.63595 1.03344 0.0
H845 H 0.77322 0.59129 0.92873 0.0
C846 C 0.75583 0.47494 1.01367 0.0
C847 C 0.74237 0.46003 0.05403 0.0
C848 C 0.72373 0.47845 0.0854 0.0
C849 C 0.71922 0.51125 0.07733 0.0
C850 C 0.73341 0.52526 0.03766 0.0
C851 C 0.75123 0.50757 1.0063 0.0
C852 C 0.76456 0.52821 0.96689 0.0
C853 C 0.80113 0.52719 0.96601 0.0
C854 C 0.74991 0.51856 0.91867 0.0
C855 C 0.75288 0.56057 0.98215 0.0
C856 C 0.73419 0.55842 1.02228 0.0
C857 C 0.71972 0.58528 0.04157 0.0
C858 C 0.72454 0.61498 1.01916 0.0
C859 C 0.74431 0.61754 0.97882 0.0
C860 C 0.75861 0.59001 0.96026 0.0
H861 H 0.6246 0.31012 0.06907 0.0
H862 H 0.60411 0.2113 0.10489 0.0
H863 H 0.54932 0.21721 0.07349 0.0
H864 H 0.5479 0.34226 0.09652 0.0
H865 H 0.54788 0.36952 0.04693 0.0
H866 H 0.58498 0.35771 0.07369 0.0
H867 H 0.60509 0.33815 0.99199 0.0
H868 H 0.56822 0.35019 0.96488 0.0
H869 H 0.58153 0.30966 0.95864 0.0
H870 H 0.49566 0.23487 0.03903 0.0
H871 H 0.45097 0.26056 0.99591 0.0
H872 H 0.50806 0.34662 0.98001 0.0
C873 C 0.60858 0.28971 0.07045 0.0
C874 C 0.61864 0.26028 0.08969 0.0
C875 C 0.59703 0.23406 0.09018 0.0
C876 C 0.56576 0.23726 0.07274 0.0
C877 C 0.55652 0.26675 0.05445 0.0
C878 C 0.57753 0.29235 0.05257 0.0
C879 C 0.56245 0.32099 1.02896 0.0
C880 C 0.5607 0.34929 0.06361 0.0
C881 C 0.58038 0.33028 0.98342 0.0
C882 C 0.52963 0.3076 1.01775 0.0
C883 C 0.5264 0.27643 1.03328 0.0
C884 C 0.49802 0.25925 1.02666 0.0
C885 C 0.47269 0.27405 1.00249 0.0
C886 C 0.47609 0.30551 0.98469 0.0
C887 C 0.50481 0.32251 0.99321 0.0
H888 H 0.80128 0.60586 0.82512 0.0
H889 H 0.69823 0.61239 0.82554 0.0
H890 H 0.69395 0.55958 0.78917 0.0
H891 H 0.80638 0.55928 0.71281 0.0
H892 H 0.83841 0.53472 0.73401 0.0
H893 H 0.83463 0.57509 0.75539 0.0
H894 H 0.83217 0.55513 0.84376 0.0
H895 H 0.83923 0.51594 0.82008 0.0
H896 H 0.80561 0.52236 0.85755 0.0
H897 H 0.69942 0.50515 0.75652 0.0
H898 H 0.71454 0.44961 0.73897 0.0
H899 H 0.81357 0.47418 0.76403 0.0
C900 C 0.77783 0.59646 0.81674 0.0
C901 C 0.7501 0.61439 0.8269 0.0
C902 C 0.71996 0.60034 0.81665 0.0
C903 C 0.7172 0.56998 0.7961 0.0
C904 C 0.74475 0.55321 0.78624 0.0
C905 C 0.77456 0.56562 0.79675 0.0
C906 C 0.80012 0.54122 0.78536 0.0
C907 C 0.82113 0.5533 0.74446 0.0
C908 C 0.82044 0.53326 0.82934 0.0
C909 C 0.77974 0.5127 0.76963 0.0
C910 C 0.74794 0.52073 0.76889 0.0
C911 C 0.72425 0.49863 0.75657 0.0
C912 C 0.73304 0.46718 0.74628 0.0
C913 C 0.76518 0.45779 0.749 0.0
C914 C 0.78891 0.48099 0.7603 0.0
H915 H 0.61017 0.20577 0.1978 0.0
H916 H 0.63322 0.28872 0.28376 0.0
H917 H 0.58039 0.28464 0.3221 0.0
H918 H 0.52883 0.22561 0.17827 0.0
H919 H 0.51443 0.18492 0.18025 0.0
H920 H 0.55432 0.19341 0.16076 0.0
H921 H 0.57646 0.15551 0.22301 0.0
H922 H 0.53738 0.14631 0.24505 0.0
H923 H 0.56771 0.16116 0.28517 0.0
H924 H 0.52366 0.27164 0.34941 0.0
H925 H 0.46915 0.25136 0.36314 0.0
H926 H 0.48514 0.17529 0.2614 0.0
C927 C 0.60438 0.2227 0.22536 0.0
C928 C 0.62591 0.24743 0.23813 0.0
C929 C 0.617 0.26975 0.27325 0.0
C930 C 0.5871 0.26749 0.29532 0.0
C931 C 0.5663 0.24289 0.28162 0.0
C932 C 0.57463 0.22094 0.24735 0.0
C933 C 0.54774 0.19741 0.23767 0.0
C934 C 0.5356 0.20056 0.1862 0.0
C935 C 0.55795 0.16305 0.24848 0.0
C936 C 0.52325 0.20892 0.27273 0.0
C937 C 0.53415 0.23538 0.29743 0.0
C938 C 0.51508 0.25071 0.33055 0.0
C939 C 0.48412 0.23876 0.33844 0.0
C940 C 0.47244 0.21148 0.31364 0.0
C941 C 0.49273 0.1964 0.28069 0.0
H942 H 0.23117 0.53885 0.73231 0.0
H943 H 0.15893 0.56176 0.83598 0.0
H944 H 0.17165 0.51306 0.88067 0.0
H945 H 0.21759 0.45602 0.72971 0.0
H946 H 0.25861 0.44424 0.72606 0.0
H947 H 0.24666 0.48259 0.70362 0.0
H948 H 0.28844 0.51043 0.75754 0.0
H949 H 0.30067 0.47221 0.78039 0.0
H950 H 0.28818 0.50304 0.82061 0.0
H951 H 0.18559 0.45947 0.9077 0.0
H952 H 0.20537 0.40561 0.92286 0.0
H953 H 0.2728 0.41606 0.80769 0.0
C954 C 0.21871 0.53396 0.7651 0.0
C955 C 0.19379 0.5541 0.78041 0.0
C956 C 0.17777 0.54661 0.8232 0.0
C957 C 0.18488 0.519 0.84895 0.0
C958 C 0.2085 0.49903 0.83207 0.0
C959 C 0.22575 0.50627 0.79179 0.0
C960 C 0.24923 0.47965 0.7813 0.0
C961 C 0.24261 0.46475 0.73225 0.0
C962 C 0.28368 0.49207 0.78521 0.0
C963 C 0.24162 0.45608 0.82109 0.0
C964 C 0.21787 0.46799 0.84959 0.0
C965 C 0.20466 0.45015 0.88631 0.0
C966 C 0.21601 0.41941 0.89451 0.0
C967 C 0.24095 0.40668 0.86705 0.0
C968 C 0.25415 0.4254 0.82988 0.0
H969 H 0.55772 0.79807 0.23077 0.0
H970 H 0.53913 0.85236 0.35874 0.0
H971 H 0.48247 0.83669 0.35395 0.0
H972 H 0.48671 0.81739 0.16831 0.0
H973 H 0.48195 0.77816 0.14266 0.0
H974 H 0.52097 0.79276 0.15832 0.0
H975 H 0.52851 0.74173 0.20974 0.0
H976 H 0.48881 0.72829 0.19477 0.0
H977 H 0.50045 0.73275 0.25618 0.0
H978 H 0.42751 0.81993 0.33156 0.0
H979 H 0.37738 0.80246 0.29318 0.0
H980 H 0.43051 0.75711 0.18089 0.0
C981 C 0.54171 0.80655 0.25786 0.0
C982 C 0.55292 0.82643 0.29525 0.0
C983 C 0.53124 0.83681 0.33017 0.0
C984 C 0.49898 0.82808 0.32769 0.0
C985 C 0.48872 0.80862 0.29036 0.0
C986 C 0.50939 0.79778 0.25616 0.0
C987 C 0.49184 0.7779 0.21898 0.0
C988 C 0.49559 0.79248 0.16914 0.0
C989 C 0.50308 0.7431 0.22 0.0
C990 C 0.45789 0.78042 0.23657 0.0
C991 C 0.45679 0.79801 0.27812 0.0
C992 C 0.4281 0.80563 0.29957 0.0
C993 C 0.39976 0.79562 0.27756 0.0
C994 C 0.40021 0.77794 0.23479 0.0
C995 C 0.42965 0.76972 0.21444 0.0
H996 H 0.83789 0.04397 0.50668 0.0
H997 H 0.78715 0.04686 0.6406 0.0
H998 H 0.76228 0.9947 0.62195 0.0
H999 H 0.77619 1.0031 0.4375 0.0
H1000 H 0.80428 0.97961 0.40492 0.0
H1001 H 0.8156 0.01867 0.4264 0.0
H1002 H 0.86382 0.99437 0.47091 0.0
H1003 H 0.85271 0.95529 0.44954 0.0
H1004 H 0.85732 0.96219 0.51244 0.0
H1005 H 0.74291 0.94076 0.58798 0.0
H1006 H 0.73422 0.88972 0.54447 0.0
H1007 H 0.80232 0.92035 0.43839 0.0
C1008 C 0.82172 0.03378 0.53246 0.0
C1009 C 0.81465 0.05006 0.57528 0.0
C1010 C 0.79272 0.03558 0.60713 0.0
C1011 C 0.77854 1.00569 0.59698 0.0
C1012 C 0.78653 0.99022 0.5549 0.0
C1013 C 0.80773 1.00381 0.52325 0.0
C1014 C 0.81363 0.98174 0.48158 0.0
C1015 C 0.80172 0.99668 0.43485 0.0
C1016 C 0.84897 0.97288 0.47847 0.0
C1017 C 0.79324 0.95321 0.49539 0.0
C1018 C 0.77708 0.95875 0.53712 0.0
C1019 C 0.75573 0.93615 0.55553 0.0
C1020 C 0.75095 0.90723 0.53071 0.0
C1021 C 0.76809 0.90082 0.48873 0.0
C1022 C 0.78949 0.92421 0.47112 0.0
H1023 H 0.04476 0.17446 0.59459 0.0
H1024 H 0.07187 0.25251 0.50091 0.0
H1025 H 0.01724 0.27307 0.50457 0.0
H1026 H 0.96495 0.16226 0.55124 0.0
H1027 H 0.94862 0.15496 0.60935 0.0
H1028 H 0.9895 0.14548 0.59749 0.0
H1029 H 1.00759 0.1813 0.66831 0.0
H1030 H 0.96664 0.1904 0.6801 0.0
H1031 H 0.99499 0.22228 0.67039 0.0
H1032 H 0.95894 0.28633 0.52056 0.0
H1033 H 0.90355 0.29095 0.54836 0.0
H1034 H 0.9155 0.20557 0.63373 0.0
C1035 C 0.0395 0.196 0.57496 0.0
C1036 C 0.06312 0.21152 0.54706 0.0
C1037 C 0.05446 0.23949 0.52168 0.0
C1038 C 0.02338 0.25162 0.52385 0.0
C1039 C 1.00091 0.23577 0.55179 0.0
C1040 C 1.00867 0.20863 0.57708 0.0
C1041 C 0.98045 0.1966 0.60569 0.0
C1042 C 0.97029 0.16282 0.58998 0.0
C1043 C 0.98787 0.19773 0.65929 0.0
C1044 C 0.95553 0.22099 0.59221 0.0
C1045 C 0.96772 0.24346 0.56115 0.0
C1046 C 0.9492 0.26871 0.54472 0.0
C1047 C 0.9176 0.27115 0.56071 0.0
C1048 C 0.9046 0.24851 0.59285 0.0
C1049 C 0.92411 0.22305 0.60841 0.0
H1050 H 0.20298 1.00051 0.63488 0.0
H1051 H 0.28816 0.95032 0.59407 0.0
H1052 H 0.3063 0.99775 0.54869 0.0
H1053 H 0.19223 0.04068 0.51959 0.0
H1054 H 0.17727 0.07676 0.54576 0.0
H1055 H 0.171 0.03894 0.57502 0.0
H1056 H 0.19763 0.06163 0.65129 0.0
H1057 H 0.20421 0.09937 0.622 0.0
H1058 H 0.23723 0.07843 0.64811 0.0
H1059 H 0.31723 0.05177 0.51364 0.0
H1060 H 0.3169 0.10583 0.47973 0.0
H1061 H 0.22255 0.12085 0.53703 0.0
C1062 C 0.22532 0.99954 0.61603 0.0
C1063 C 0.24431 0.9718 0.61802 0.0
C1064 C 0.27328 0.97126 0.59276 0.0
C1065 C 0.28381 0.99814 0.56717 0.0
C1066 C 0.26483 0.02527 0.56644 0.0
C1067 C 0.23585 0.02599 0.58926 0.0
C1068 C 0.21963 0.05789 0.58117 0.0
C1069 C 0.18817 0.05328 0.55375 0.0
C1070 C 0.21437 0.07536 0.62847 0.0
C1071 C 0.24428 0.07515 0.55101 0.0
C1072 C 0.27033 0.05596 0.54365 0.0
C1073 C 0.29682 0.06687 0.51878 0.0
C1074 C 0.29643 0.09784 0.49984 0.0
C1075 C 0.26969 0.11785 0.50556 0.0
C1076 C 0.24326 0.10619 0.53167 0.0
H1077 H 0.11569 0.73726 0.52394 0.0
H1078 H 0.09755 0.76887 0.66749 0.0
H1079 H 0.04219 0.78015 0.64647 0.0
H1080 H 0.06567 0.79494 0.46319 0.0
H1081 H 0.05254 0.76638 0.41941 0.0
H1082 H 0.09097 0.76215 0.44731 0.0
H1083 H 0.0739 0.70427 0.47205 0.0
H1084 H 0.03531 0.70988 0.44538 0.0
H1085 H 0.03849 0.69863 0.50704 0.0
H1086 H 0.9893 0.7913 0.60861 0.0
H1087 H 0.93999 0.79234 0.56018 0.0
H1088 H 0.99107 0.75228 0.44122 0.0
C1089 C 0.09985 0.74615 0.55095 0.0
C1090 C 0.11081 0.75144 0.59784 0.0
C1091 C 0.08956 0.76337 0.6321 0.0
C1092 C 0.05805 0.77047 0.62013 0.0
C1093 C 0.04804 0.76557 0.57349 0.0
C1094 C 0.06808 0.75314 0.53956 0.0
C1095 C 0.05073 0.74874 0.49257 0.0
C1096 C 0.06593 0.76927 0.45333 0.0
C1097 C 0.04953 0.71327 0.47844 0.0
C1098 C 0.018 0.7609 0.50541 0.0
C1099 C 0.01715 0.77103 0.55204 0.0
C1100 C 0.9896 0.78332 0.57205 0.0
C1101 C 0.9618 0.78417 0.54416 0.0
C1102 C 0.9617 0.77247 0.49699 0.0
C1103 C 0.99044 0.76137 0.47721 0.0
H1104 H 0.2292 0.29636 0.08719 0.0
H1105 H 0.32667 0.28078 0.04375 0.0
H1106 H 0.33896 0.25957 0.12392 0.0
H1107 H 0.24344 0.31991 0.20602 0.0
H1108 H 0.20992 0.29842 0.23032 0.0
H1109 H 0.20863 0.31233 0.1698 0.0
H1110 H 0.19571 0.25558 0.14299 0.0
H1111 H 0.19894 0.2393 0.20166 0.0
H1112 H 0.22293 0.22358 0.15456 0.0
H1113 H 0.34069 0.24168 0.21088 0.0
H1114 H 0.33121 0.22574 0.2939 0.0
H1115 H 0.23166 0.24981 0.27828 0.0
C1116 C 0.25314 0.28835 0.09412 0.0
C1117 C 0.27702 0.29039 0.05874 0.0
C1118 C 0.30796 0.27954 0.06997 0.0
C1119 C 0.31516 0.26747 0.11551 0.0
C1120 C 0.29103 0.26588 0.14941 0.0
C1121 C 0.26051 0.27562 0.13895 0.0
C1122 C 0.23861 0.27049 0.18109 0.0
C1123 C 0.22431 0.30218 0.19779 0.0
C1124 C 0.21253 0.24573 0.16933 0.0
C1125 C 0.26165 0.25727 0.21745 0.0
C1126 C 0.29178 0.25474 0.19854 0.0
C1127 C 0.31709 0.24347 0.22572 0.0
C1128 C 0.31141 0.23452 0.27311 0.0
C1129 C 0.28054 0.23645 0.29321 0.0
C1130 C 0.25541 0.24787 0.26451 0.0
H1131 H 0.31647 0.73862 0.98435 0.0
H1132 H 0.23831 0.78777 0.05074 0.0
H1133 H 0.21291 0.79552 0.97295 0.0
H1134 H 0.31926 0.78584 0.87679 0.0
H1135 H 0.32654 0.75293 0.83722 0.0
H1136 H 0.3395 0.75091 0.89831 0.0
H1137 H 0.30789 0.69817 0.90948 0.0
H1138 H 0.29503 0.69987 0.84831 0.0
H1139 H 0.26605 0.69682 0.89507 0.0
H1140 H 0.19579 0.79933 0.88895 0.0
H1141 H 0.18562 0.79566 0.80324 0.0
H1142 H 0.27256 0.74233 0.78544 0.0
C1143 C 0.29385 0.75066 0.98235 0.0
C1144 C 0.27981 0.76347 1.02404 0.0
C1145 C 0.25019 0.77897 1.0196 0.0
C1146 C 0.23534 0.78317 0.97536 0.0
C1147 C 0.24997 0.77124 0.93497 0.0
C1148 C 0.27829 0.75484 0.93774 0.0
C1149 C 0.28818 0.74419 0.88797 0.0
C1150 C 0.32028 0.75937 0.87427 0.0
C1151 C 0.28936 0.70758 0.88504 0.0
C1152 C 0.26111 0.75735 0.85724 0.0
C1153 C 0.23958 0.77301 0.88554 0.0
C1154 C 0.21266 0.78739 0.86638 0.0
C1155 C 0.20734 0.78569 0.81717 0.0
C1156 C 0.22871 0.76985 0.78667 0.0
C1157 C 0.25593 0.75513 0.80739 0.0
H1158 H 0.79001 0.77275 0.25217 0.0
H1159 H 0.68991 0.79404 0.26722 0.0
H1160 H 0.68047 0.77682 0.18446 0.0
H1161 H 0.79812 0.7981 0.13082 0.0
H1162 H 0.82534 0.76667 0.11671 0.0
H1163 H 0.82324 0.7815 0.17648 0.0
H1164 H 0.81267 0.72334 0.20496 0.0
H1165 H 0.8136 0.70906 0.14476 0.0
H1166 H 0.77922 0.70125 0.18116 0.0
H1167 H 0.68237 0.75872 0.09767 0.0
H1168 H 0.69488 0.73851 1.01758 0.0
H1169 H 0.79295 0.72536 0.06089 0.0
C1170 C 0.76608 0.77352 0.2386 0.0
C1171 C 0.74084 0.78469 0.26713 0.0
C1172 C 0.70982 0.78546 0.24681 0.0
C1173 C 0.70418 0.77576 0.19954 0.0
C1174 C 0.72965 0.76489 0.17264 0.0
C1175 C 0.75995 0.76337 0.1917 0.0
C1176 C 0.78322 0.75055 0.15544 0.0
C1177 C 0.80899 0.77572 0.14419 0.0
C1178 C 0.79803 0.71918 0.17262 0.0
C1179 C 0.76132 0.7449 0.11303 0.0
C1180 C 0.73057 0.75372 0.12347 0.0
C1181 C 0.70637 0.75159 0.08939 0.0
C1182 C 0.71373 0.74011 0.04376 0.0
C1183 C 0.74494 0.73037 1.03231 0.0
C1184 C 0.76889 0.73263 0.06795 0.0
H1185 H 0.74769 0.26134 0.79487 0.0
H1186 H 0.84785 0.28336 0.8154 0.0
H1187 H 0.84018 0.28423 0.90217 0.0
H1188 H 0.72213 0.31402 0.89094 0.0
H1189 H 0.68944 0.28866 0.90895 0.0
H1190 H 0.70244 0.28858 0.84803 0.0
H1191 H 0.70996 0.22795 0.8525 0.0
H1192 H 0.69742 0.22745 0.91346 0.0
H1193 H 0.73548 0.21135 0.89805 0.0
H1194 H 0.82166 0.28425 0.98797 0.0
H1195 H 0.79394 0.28033 0.06519 0.0
H1196 H 0.7058 0.25768 0.9914 0.0
C1197 C 0.76806 0.26581 0.81773 0.0
C1198 C 0.79859 0.27184 0.79793 0.0
C1199 C 0.82433 0.27851 0.82933 0.0
C1200 C 0.82019 0.2791 0.87889 0.0
C1201 C 0.78994 0.27347 0.89732 0.0
C1202 C 0.76422 0.26699 0.86778 0.0
C1203 C 0.73399 0.26332 0.8972 0.0
C1204 C 0.71061 0.29025 0.88559 0.0
C1205 C 0.71829 0.2305 0.8898 0.0
C1206 C 0.74708 0.2668 0.94759 0.0
C1207 C 0.77929 0.27349 0.94679 0.0
C1208 C 0.79644 0.27884 0.98884 0.0
C1209 C 0.78046 0.27673 1.03268 0.0
C1210 C 0.74771 0.26859 1.03462 0.0
C1211 C 0.7309 0.26376 0.99123 0.0
H1212 H 0.7277 0.80339 0.56272 0.0
H1213 H 0.80086 0.74505 0.49945 0.0
H1214 H 0.80928 0.71841 0.57712 0.0
H1215 H 0.76357 0.814 0.67762 0.0
H1216 H 0.72629 0.81094 0.70873 0.0
H1217 H 0.72716 0.82576 0.64866 0.0
H1218 H 0.68601 0.78312 0.62537 0.0
H1219 H 0.68569 0.76646 0.68389 0.0
H1220 H 0.6943 0.74129 0.63392 0.0
H1221 H 0.81082 0.69964 0.66437 0.0
H1222 H 0.80284 0.68806 0.74983 0.0
H1223 H 0.72614 0.75622 0.75373 0.0
C1224 C 0.74556 0.78501 0.56488 0.0
C1225 C 0.76387 0.77666 0.52466 0.0
C1226 C 0.78675 0.75224 0.52958 0.0
C1227 C 0.79165 0.73691 0.57366 0.0
C1228 C 0.77324 0.74591 0.61255 0.0
C1229 C 0.75047 0.76925 0.6083 0.0
C1230 C 0.73306 0.77397 0.65481 0.0
C1231 C 0.73783 0.8082 0.67355 0.0
C1232 C 0.69764 0.76563 0.64907 0.0
C1233 C 0.74965 0.74992 0.68633 0.0
C1234 C 0.77299 0.73411 0.66147 0.0
C1235 C 0.79235 0.71169 0.68379 0.0
C1236 C 0.78768 0.70531 0.73241 0.0
C1237 C 0.76351 0.72083 0.75833 0.0
C1238 C 0.74422 0.74335 0.7347 0.0
H1239 H 0.78307 0.30231 0.50995 0.0
H1240 H 0.77876 0.20101 0.5436 0.0
H1241 H 0.76071 0.18947 0.46261 0.0
H1242 H 0.71458 0.30302 0.43 0.0
H1243 H 0.73199 0.33029 0.38782 0.0
H1244 H 0.74364 0.33227 0.44948 0.0
H1245 H 0.80248 0.32567 0.42679 0.0
H1246 H 0.7916 0.3238 0.3648 0.0
H1247 H 0.81408 0.29198 0.39128 0.0
H1248 H 0.7441 0.18748 0.37757 0.0
H1249 H 0.72982 0.19541 0.29382 0.0
H1250 H 0.74636 0.29736 0.30969 0.0
C1251 C 0.77864 0.27767 0.5004 0.0
C1252 C 0.7832 0.25265 0.53414 0.0
C1253 C 0.77604 0.22088 0.51936 0.0
C1254 C 0.76566 0.21391 0.47298 0.0
C1255 C 0.76238 0.23879 0.44058 0.0
C1256 C 0.76858 0.27009 0.4534 0.0
C1257 C 0.76364 0.29201 0.41052 0.0
C1258 C 0.73688 0.31582 0.42005 0.0
C1259 C 0.7948 0.30941 0.3976 0.0
C1260 C 0.75387 0.26806 0.37193 0.0
C1261 C 0.75317 0.23756 0.3905 0.0
C1262 C 0.74462 0.2113 0.36265 0.0
C1263 C 0.73648 0.21616 0.31471 0.0
C1264 C 0.73701 0.2471 0.29394 0.0
C1265 C 0.74596 0.27338 0.3235 0.0
H1266 H 0.29794 0.27283 0.78092 0.0
H1267 H 0.2005 0.30518 0.7887 0.0
H1268 H 0.1916 0.28877 0.70532 0.0
H1269 H 0.31162 0.29681 0.65601 0.0
H1270 H 0.33697 0.26266 0.64953 0.0
H1271 H 0.33241 0.28084 0.70651 0.0
H1272 H 0.31734 0.22265 0.73552 0.0
H1273 H 0.31835 0.2075 0.67568 0.0
H1274 H 0.28257 0.2034 0.71022 0.0
H1275 H 0.19449 0.2713 0.61868 0.0
H1276 H 0.20759 0.25055 0.53922 0.0
H1277 H 0.30167 0.22553 0.59029 0.0
C1278 C 0.27482 0.27666 0.76507 0.0
C1279 C 0.25004 0.29051 0.79141 0.0
C1280 C 0.21988 0.29451 0.76937 0.0
C1281 C 0.2146 0.28536 0.7219 0.0
C1282 C 0.23958 0.27182 0.69689 0.0
C1283 C 0.26898 0.2672 0.71791 0.0
C1284 C 0.29172 0.25181 0.68351 0.0
C1285 C 0.31982 0.27442 0.67321 0.0
C1286 C 0.30316 0.21941 0.70237 0.0
C1287 C 0.2705 0.24797 0.64006 0.0
C1288 C 0.24068 0.26026 0.64814 0.0
C1289 C 0.21766 0.26123 0.61224 0.0
C1290 C 0.22533 0.24931 0.56705 0.0
C1291 C 0.25554 0.23597 0.55814 0.0
C1292 C 0.27826 0.23527 0.59557 0.0
H1293 H 0.24638 0.78343 0.30281 0.0
H1294 H 0.34461 0.75576 0.32173 0.0
H1295 H 0.33727 0.75445 0.40882 0.0
H1296 H 0.23801 0.83205 0.40814 0.0
H1297 H 0.19861 0.81745 0.42178 0.0
H1298 H 0.21203 0.81816 0.36111 0.0
H1299 H 0.19954 0.75768 0.35344 0.0
H1300 H 0.18609 0.75674 0.41413 0.0
H1301 H 0.21703 0.73029 0.39524 0.0
H1302 H 0.31958 0.75892 0.49574 0.0
H1303 H 0.29129 0.7616 0.57275 0.0
H1304 H 0.20316 0.77992 0.49732 0.0
C1305 C 0.26644 0.77767 0.32543 0.0
C1306 C 0.29644 0.77074 0.30538 0.0
C1307 C 0.32167 0.76192 0.33619 0.0
C1308 C 0.31769 0.76103 0.38582 0.0
C1309 C 0.28796 0.76815 0.40461 0.0
C1310 C 0.26257 0.77567 0.37526 0.0
C1311 C 0.23254 0.78 0.40441 0.0
C1312 C 0.21954 0.81394 0.3985 0.0
C1313 C 0.20729 0.75468 0.39099 0.0
C1314 C 0.24516 0.77457 0.45459 0.0
C1315 C 0.27726 0.76807 0.45405 0.0
C1316 C 0.2943 0.76344 0.49634 0.0
C1317 C 0.27803 0.76484 0.54004 0.0
C1318 C 0.24484 0.77002 0.54146 0.0
C1319 C 0.22848 0.77545 0.49784 0.0
loop_
_geom_bond_atom_site_label_1
_geom_bond_atom_site_label_2
_geom_bond_distance
_geom_bond_site_symmetry_2
_ccdc_geom_bond_type
Tb0 N29 2.617 . S
Tb0 N35 2.572 . S
Tb0 O44 2.465 . S
Tb0 O45 2.387 . S
Tb0 O47 2.428 . S
Tb0 O48 2.308 . S
Tb0 O52 2.349 . S
Tb0 O55 2.393 . S
Tb0 C64 2.802 . S
C1 N2 1.379 . S
C1 C4 1.416 . S
C1 C8 1.424 . S
N2 C1 1.379 . S
N2 C5 1.334 . S
N2 Tb11 2.617 . S
C3 C5 1.390 . S
C3 C6 1.339 . S
C3 H23 0.930 . S
C4 C1 1.416 . S
C4 C6 1.416 . S
C4 C10 1.448 . S
C5 N2 1.334 . S
C5 C3 1.390 . S
C5 H16 0.930 . S
C6 C3 1.339 . S
C6 C4 1.416 . S
C6 H27 0.930 . S
C7 C8 1.413 . S
C7 C9 1.427 . S
C7 C13 1.416 . S
C8 C1 1.424 . S
C8 C7 1.413 . S
C8 N12 1.361 . S
C9 C7 1.427 . S
C9 C10 1.328 . S
C9 H24 0.929 . S
C10 C4 1.448 . S
C10 C9 1.328 . S
C10 H25 0.930 . S
Tb11 N2 2.617 . S
Tb11 N12 2.572 . S
Tb11 O46 2.349 . S
Tb11 O49 2.393 . S
Tb11 O50 2.465 . S
Tb11 O51 2.387 . S
Tb11 O53 2.428 . S
Tb11 O54 2.308 . S
Tb11 C75 2.802 . S
N12 C8 1.361 . S
N12 Tb11 2.572 . S
N12 C14 1.340 . S
C13 C7 1.416 . S
C13 C15 1.332 . S
C13 H21 0.931 . S
C14 N12 1.340 . S
C14 C15 1.407 . S
C14 H20 0.930 . S
C15 C13 1.332 . S
C15 C14 1.407 . S
C15 H17 0.929 . S
H16 C5 0.930 . S
H17 C15 0.929 . S
H18 C33 0.930 . S
H19 C40 0.929 . S
H20 C14 0.930 . S
H21 C13 0.931 . S
H22 C36 0.930 . S
H23 C3 0.930 . S
H24 C9 0.929 . S
H25 C10 0.930 . S
H26 C31 0.930 . S
H27 C6 0.930 . S
H28 C39 0.931 . S
N29 Tb0 2.617 . S
N29 C30 1.379 . S
N29 C33 1.334 . S
C30 N29 1.379 . S
C30 C32 1.416 . S
C30 C38 1.424 . S
C31 H26 0.930 . S
C31 C33 1.390 . S
C31 C34 1.339 . S
C32 C30 1.416 . S
C32 C34 1.416 . S
C32 C65 1.448 . S
C33 H18 0.930 . S
C33 N29 1.334 . S
C33 C31 1.390 . S
C34 C31 1.339 . S
C34 C32 1.416 . S
C34 H41 0.930 . S
N35 Tb0 2.572 . S
N35 C36 1.340 . S
N35 C38 1.361 . S
C36 H22 0.930 . S
C36 N35 1.340 . S
C36 C40 1.407 . S
C37 C38 1.413 . S
C37 C39 1.416 . S
C37 C66 1.427 . S
C38 C30 1.424 . S
C38 N35 1.361 . S
C38 C37 1.413 . S
C39 H28 0.931 . S
C39 C37 1.416 . S
C39 C40 1.332 . S
C40 H19 0.929 . S
C40 C36 1.407 . S
C40 C39 1.332 . S
H41 C34 0.930 . S
H42 C65 0.930 . S
H43 C66 0.929 . S
O44 Tb0 2.465 . S
O44 C64 1.264 . S
O45 Tb0 2.387 . S
O45 C56 1.264 . S
O46 Tb11 2.349 . S
O46 C56 1.243 . S
O47 Tb0 2.428 . S
O47 C64 1.256 . S
O48 Tb0 2.308 . S
O48 C63 1.266 . S
O49 Tb11 2.393 . S
O49 C63 1.248 . S
O50 Tb11 2.465 . S
O50 C75 1.264 . S
O51 Tb11 2.387 . S
O51 C67 1.264 . S
O52 Tb0 2.349 . S
O52 C67 1.243 . S
O53 Tb11 2.428 . S
O53 C75 1.256 . S
O54 Tb11 2.308 . S
O54 C74 1.266 . S
O55 Tb0 2.393 . S
O55 C74 1.248 . S
C56 O45 1.264 . S
C56 O46 1.243 . S
C57 C60 1.399 . S
C57 C62 1.383 . S
C57 C64 1.496 . S
C58 C59 1.399 . S
C58 C62 1.389 . S
C59 C58 1.399 . S
C59 C61 1.380 . S
C59 H76 0.929 . S
C60 C57 1.399 . S
C60 C61 1.392 . S
C60 H77 0.929 . S
C61 C59 1.380 . S
C61 C60 1.392 . S
C61 H78 0.929 . S
C62 C57 1.383 . S
C62 C58 1.389 . S
C62 H79 0.931 . S
C63 O48 1.266 . S
C63 O49 1.248 . S
C64 Tb0 2.802 . S
C64 O44 1.264 . S
C64 O47 1.256 . S
C64 C57 1.496 . S
C65 C32 1.448 . S
C65 H42 0.930 . S
C65 C66 1.328 . S
C66 C37 1.427 . S
C66 H43 0.929 . S
C66 C65 1.328 . S
C67 O51 1.264 . S
C67 O52 1.243 . S
C68 C71 1.399 . S
C68 C72 1.383 . S
C68 C75 1.496 . S
C69 C70 1.399 . S
C69 C72 1.389 . S
C70 C69 1.399 . S
C70 C73 1.380 . S
C70 H80 0.929 . S
C71 C68 1.399 . S
C71 C73 1.392 . S
C71 H81 0.929 . S
C72 C68 1.383 . S
C72 C69 1.389 . S
C72 H82 0.931 . S
C73 C70 1.380 . S
C73 C71 1.392 . S
C73 H83 0.929 . S
C74 O54 1.266 . S
C74 O55 1.248 . S
C75 Tb11 2.802 . S
C75 O50 1.264 . S
C75 O53 1.256 . S
C75 C68 1.496 . S
H76 C59 0.929 . S
H77 C60 0.929 . S
H78 C61 0.929 . S
H79 C62 0.931 . S
H80 C70 0.929 . S
H81 C71 0.929 . S
H82 C72 0.931 . S
H83 C73 0.929 . S
Tb84 N113 2.617 . S
Tb84 N119 2.572 . S
Tb84 O128 2.465 . S
Tb84 O129 2.387 . S
Tb84 O131 2.428 . S
Tb84 O132 2.308 . S
Tb84 O136 2.349 . S
Tb84 O139 2.393 . S
Tb84 C148 2.802 . S
C85 N86 1.379 . S
C85 C88 1.416 . S
C85 C92 1.424 . S
N86 C85 1.379 . S
N86 C89 1.334 . S
N86 Tb95 2.617 . S
C87 C89 1.390 . S
C87 C90 1.339 . S
C87 H107 0.930 . S
C88 C85 1.416 . S
C88 C90 1.416 . S
C88 C94 1.448 . S
C89 N86 1.334 . S
C89 C87 1.390 . S
C89 H100 0.930 . S
C90 C87 1.339 . S
C90 C88 1.416 . S
C90 H111 0.930 . S
C91 C92 1.413 . S
C91 C93 1.427 . S
C91 C97 1.416 . S
C92 C85 1.424 . S
C92 C91 1.413 . S
C92 N96 1.361 . S
C93 C91 1.427 . S
C93 C94 1.328 . S
C93 H108 0.929 . S
C94 C88 1.448 . S
C94 C93 1.328 . S
C94 H109 0.930 . S
Tb95 N86 2.617 . S
Tb95 N96 2.572 . S
Tb95 O130 2.349 . S
Tb95 O133 2.393 . S
Tb95 O134 2.465 . S
Tb95 O135 2.387 . S
Tb95 O137 2.428 . S
Tb95 O138 2.308 . S
Tb95 C159 2.802 . S
N96 C92 1.361 . S
N96 Tb95 2.572 . S
N96 C98 1.340 . S
C97 C91 1.416 . S
C97 C99 1.332 . S
C97 H105 0.931 . S
C98 N96 1.340 . S
C98 C99 1.407 . S
C98 H104 0.930 . S
C99 C97 1.332 . S
C99 C98 1.407 . S
C99 H101 0.929 . S
H100 C89 0.930 . S
H101 C99 0.929 . S
H102 C117 0.930 . S
H103 C124 0.929 . S
H104 C98 0.930 . S
H105 C97 0.931 . S
H106 C120 0.930 . S
H107 C87 0.930 . S
H108 C93 0.929 . S
H109 C94 0.930 . S
H110 C115 0.930 . S
H111 C90 0.930 . S
H112 C123 0.931 . S
N113 Tb84 2.617 . S
N113 C114 1.379 . S
N113 C117 1.334 . S
C114 N113 1.379 . S
C114 C116 1.416 . S
C114 C122 1.424 . S
C115 H110 0.930 . S
C115 C117 1.390 . S
C115 C118 1.339 . S
C116 C114 1.416 . S
C116 C118 1.416 . S
C116 C149 1.448 . S
C117 H102 0.930 . S
C117 N113 1.334 . S
C117 C115 1.390 . S
C118 C115 1.339 . S
C118 C116 1.416 . S
C118 H125 0.930 . S
N119 Tb84 2.572 . S
N119 C120 1.340 . S
N119 C122 1.361 . S
C120 H106 0.930 . S
C120 N119 1.340 . S
C120 C124 1.407 . S
C121 C122 1.413 . S
C121 C123 1.416 . S
C121 C150 1.427 . S
C122 C114 1.424 . S
C122 N119 1.361 . S
C122 C121 1.413 . S
C123 H112 0.931 . S
C123 C121 1.416 . S
C123 C124 1.332 . S
C124 H103 0.929 . S
C124 C120 1.407 . S
C124 C123 1.332 . S
H125 C118 0.930 . S
H126 C149 0.930 . S
H127 C150 0.929 . S
O128 Tb84 2.465 . S
O128 C148 1.264 . S
O129 Tb84 2.387 . S
O129 C140 1.264 . S
O130 Tb95 2.349 . S
O130 C140 1.243 . S
O131 Tb84 2.428 . S
O131 C148 1.256 . S
O132 Tb84 2.308 . S
O132 C147 1.266 . S
O133 Tb95 2.393 . S
O133 C147 1.248 . S
O134 Tb95 2.465 . S
O134 C159 1.264 . S
O135 Tb95 2.387 . S
O135 C151 1.264 . S
O136 Tb84 2.349 . S
O136 C151 1.243 . S
O137 Tb95 2.428 . S
O137 C159 1.256 . S
O138 Tb95 2.308 . S
O138 C158 1.266 . S
O139 Tb84 2.393 . S
O139 C158 1.248 . S
C140 O129 1.264 . S
C140 O130 1.243 . S
C141 C144 1.399 . S
C141 C146 1.383 . S
C141 C148 1.496 . S
C142 C143 1.399 . S
C142 C146 1.389 . S
C143 C142 1.399 . S
C143 C145 1.380 . S
C143 H160 0.929 . S
C144 C141 1.399 . S
C144 C145 1.392 . S
C144 H161 0.929 . S
C145 C143 1.380 . S
C145 C144 1.392 . S
C145 H162 0.929 . S
C146 C141 1.383 . S
C146 C142 1.389 . S
C146 H163 0.931 . S
C147 O132 1.266 . S
C147 O133 1.248 . S
C148 Tb84 2.802 . S
C148 O128 1.264 . S
C148 O131 1.256 . S
C148 C141 1.496 . S
C149 C116 1.448 . S
C149 H126 0.930 . S
C149 C150 1.328 . S
C150 C121 1.427 . S
C150 H127 0.929 . S
C150 C149 1.328 . S
C151 O135 1.264 . S
C151 O136 1.243 . S
C152 C155 1.399 . S
C152 C156 1.383 . S
C152 C159 1.496 . S
C153 C154 1.399 . S
C153 C156 1.389 . S
C154 C153 1.399 . S
C154 C157 1.380 . S
C154 H164 0.929 . S
C155 C152 1.399 . S
C155 C157 1.392 . S
C155 H165 0.929 . S
C156 C152 1.383 . S
C156 C153 1.389 . S
C156 H166 0.931 . S
C157 C154 1.380 . S
C157 C155 1.392 . S
C157 H167 0.929 . S
C158 O138 1.266 . S
C158 O139 1.248 . S
C159 Tb95 2.802 . S
C159 O134 1.264 . S
C159 O137 1.256 . S
C159 C152 1.496 . S
H160 C143 0.929 . S
H161 C144 0.929 . S
H162 C145 0.929 . S
H163 C146 0.931 . S
H164 C154 0.929 . S
H165 C155 0.929 . S
H166 C156 0.931 . S
H167 C157 0.929 . S
Tb168 N197 2.617 . S
Tb168 N203 2.572 . S
Tb168 O212 2.465 . S
Tb168 O213 2.387 . S
Tb168 O215 2.428 . S
Tb168 O216 2.308 . S
Tb168 O220 2.349 . S
Tb168 O223 2.393 . S
Tb168 C232 2.802 . S
C169 N170 1.379 . S
C169 C172 1.416 . S
C169 C176 1.424 . S
N170 C169 1.379 . S
N170 C173 1.334 . S
N170 Tb179 2.617 . S
C171 C173 1.390 . S
C171 C174 1.339 . S
C171 H191 0.930 . S
C172 C169 1.416 . S
C172 C174 1.416 . S
C172 C178 1.448 . S
C173 N170 1.334 . S
C173 C171 1.390 . S
C173 H184 0.930 . S
C174 C171 1.339 . S
C174 C172 1.416 . S
C174 H195 0.930 . S
C175 C176 1.413 . S
C175 C177 1.427 . S
C175 C181 1.416 . S
C176 C169 1.424 . S
C176 C175 1.413 . S
C176 N180 1.361 . S
C177 C175 1.427 . S
C177 C178 1.328 . S
C177 H192 0.929 . S
C178 C172 1.448 . S
C178 C177 1.328 . S
C178 H193 0.930 . S
Tb179 N170 2.617 . S
Tb179 N180 2.572 . S
Tb179 O214 2.349 . S
Tb179 O217 2.393 . S
Tb179 O218 2.465 . S
Tb179 O219 2.387 . S
Tb179 O221 2.428 . S
Tb179 O222 2.308 . S
Tb179 C243 2.802 . S
N180 C176 1.361 . S
N180 Tb179 2.572 . S
N180 C182 1.340 . S
C181 C175 1.416 . S
C181 C183 1.332 . S
C181 H189 0.931 . S
C182 N180 1.340 . S
C182 C183 1.407 . S
C182 H188 0.930 . S
C183 C181 1.332 . S
C183 C182 1.407 . S
C183 H185 0.929 . S
H184 C173 0.930 . S
H185 C183 0.929 . S
H186 C201 0.930 . S
H187 C208 0.929 . S
H188 C182 0.930 . S
H189 C181 0.931 . S
H190 C204 0.930 . S
H191 C171 0.930 . S
H192 C177 0.929 . S
H193 C178 0.930 . S
H194 C199 0.930 . S
H195 C174 0.930 . S
H196 C207 0.931 . S
N197 Tb168 2.617 . S
N197 C198 1.379 . S
N197 C201 1.334 . S
C198 N197 1.379 . S
C198 C200 1.416 . S
C198 C206 1.424 . S
C199 H194 0.930 . S
C199 C201 1.390 . S
C199 C202 1.339 . S
C200 C198 1.416 . S
C200 C202 1.416 . S
C200 C233 1.448 . S
C201 H186 0.930 . S
C201 N197 1.334 . S
C201 C199 1.390 . S
C202 C199 1.339 . S
C202 C200 1.416 . S
C202 H209 0.930 . S
N203 Tb168 2.572 . S
N203 C204 1.340 . S
N203 C206 1.361 . S
C204 H190 0.930 . S
C204 N203 1.340 . S
C204 C208 1.407 . S
C205 C206 1.413 . S
C205 C207 1.416 . S
C205 C234 1.427 . S
C206 C198 1.424 . S
C206 N203 1.361 . S
C206 C205 1.413 . S
C207 H196 0.931 . S
C207 C205 1.416 . S
C207 C208 1.332 . S
C208 H187 0.929 . S
C208 C204 1.407 . S
C208 C207 1.332 . S
H209 C202 0.930 . S
H210 C233 0.930 . S
H211 C234 0.929 . S
O212 Tb168 2.465 . S
O212 C232 1.264 . S
O213 Tb168 2.387 . S
O213 C224 1.264 . S
O214 Tb179 2.349 . S
O214 C224 1.243 . S
O215 Tb168 2.428 . S
O215 C232 1.256 . S
O216 Tb168 2.308 . S
O216 C231 1.266 . S
O217 Tb179 2.393 . S
O217 C231 1.248 . S
O218 Tb179 2.465 . S
O218 C243 1.264 . S
O219 Tb179 2.387 . S
O219 C235 1.264 . S
O220 Tb168 2.349 . S
O220 C235 1.243 . S
O221 Tb179 2.428 . S
O221 C243 1.256 . S
O222 Tb179 2.308 . S
O222 C242 1.266 . S
O223 Tb168 2.393 . S
O223 C242 1.248 . S
C224 O213 1.264 . S
C224 O214 1.243 . S
C225 C228 1.399 . S
C225 C230 1.383 . S
C225 C232 1.496 . S
C226 C227 1.399 . S
C226 C230 1.389 . S
C227 C226 1.399 . S
C227 C229 1.380 . S
C227 H244 0.929 . S
C228 C225 1.399 . S
C228 C229 1.392 . S
C228 H245 0.929 . S
C229 C227 1.380 . S
C229 C228 1.392 . S
C229 H246 0.929 . S
C230 C225 1.383 . S
C230 C226 1.389 . S
C230 H247 0.931 . S
C231 O216 1.266 . S
C231 O217 1.248 . S
C232 Tb168 2.802 . S
C232 O212 1.264 . S
C232 O215 1.256 . S
C232 C225 1.496 . S
C233 C200 1.448 . S
C233 H210 0.930 . S
C233 C234 1.328 . S
C234 C205 1.427 . S
C234 H211 0.929 . S
C234 C233 1.328 . S
C235 O219 1.264 . S
C235 O220 1.243 . S
C236 C239 1.399 . S
C236 C240 1.383 . S
C236 C243 1.496 . S
C237 C238 1.399 . S
C237 C240 1.389 . S
C238 C237 1.399 . S
C238 C241 1.380 . S
C238 H248 0.929 . S
C239 C236 1.399 . S
C239 C241 1.392 . S
C239 H249 0.929 . S
C240 C236 1.383 . S
C240 C237 1.389 . S
C240 H250 0.931 . S
C241 C238 1.380 . S
C241 C239 1.392 . S
C241 H251 0.929 . S
C242 O222 1.266 . S
C242 O223 1.248 . S
C243 Tb179 2.802 . S
C243 O218 1.264 . S
C243 O221 1.256 . S
C243 C236 1.496 . S
H244 C227 0.929 . S
H245 C228 0.929 . S
H246 C229 0.929 . S
H247 C230 0.931 . S
H248 C238 0.929 . S
H249 C239 0.929 . S
H250 C240 0.931 . S
H251 C241 0.929 . S
Tb252 N281 2.617 . S
Tb252 N287 2.572 . S
Tb252 O296 2.465 . S
Tb252 O297 2.387 . S
Tb252 O299 2.428 . S
Tb252 O300 2.308 . S
Tb252 O304 2.349 . S
Tb252 O307 2.393 . S
Tb252 C316 2.802 . S
C253 N254 1.379 . S
C253 C256 1.416 . S
C253 C260 1.424 . S
N254 C253 1.379 . S
N254 C257 1.334 . S
N254 Tb263 2.617 . S
C255 C257 1.390 . S
C255 C258 1.339 . S
C255 H275 0.930 . S
C256 C253 1.416 . S
C256 C258 1.416 . S
C256 C262 1.448 . S
C257 N254 1.334 . S
C257 C255 1.390 . S
C257 H268 0.930 . S
C258 C255 1.339 . S
C258 C256 1.416 . S
C258 H279 0.930 . S
C259 C260 1.413 . S
C259 C261 1.427 . S
C259 C265 1.416 . S
C260 C253 1.424 . S
C260 C259 1.413 . S
C260 N264 1.361 . S
C261 C259 1.427 . S
C261 C262 1.328 . S
C261 H276 0.929 . S
C262 C256 1.448 . S
C262 C261 1.328 . S
C262 H277 0.930 . S
Tb263 N254 2.617 . S
Tb263 N264 2.572 . S
Tb263 O298 2.349 . S
Tb263 O301 2.393 . S
Tb263 O302 2.465 . S
Tb263 O303 2.387 . S
Tb263 O305 2.428 . S
Tb263 O306 2.308 . S
Tb263 C327 2.802 . S
N264 C260 1.361 . S
N264 Tb263 2.572 . S
N264 C266 1.340 . S
C265 C259 1.416 . S
C265 C267 1.332 . S
C265 H273 0.931 . S
C266 N264 1.340 . S
C266 C267 1.407 . S
C266 H272 0.930 . S
C267 C265 1.332 . S
C267 C266 1.407 . S
C267 H269 0.929 . S
H268 C257 0.930 . S
H269 C267 0.929 . S
H270 C285 0.930 . S
H271 C292 0.929 . S
H272 C266 0.930 . S
H273 C265 0.931 . S
H274 C288 0.930 . S
H275 C255 0.930 . S
H276 C261 0.929 . S
H277 C262 0.930 . S
H278 C283 0.930 . S
H279 C258 0.930 . S
H280 C291 0.931 . S
N281 Tb252 2.617 . S
N281 C282 1.379 . S
N281 C285 1.334 . S
C282 N281 1.379 . S
C282 C284 1.416 . S
C282 C290 1.424 . S
C283 H278 0.930 . S
C283 C285 1.390 . S
C283 C286 1.339 . S
C284 C282 1.416 . S
C284 C286 1.416 . S
C284 C317 1.448 . S
C285 H270 0.930 . S
C285 N281 1.334 . S
C285 C283 1.390 . S
C286 C283 1.339 . S
C286 C284 1.416 . S
C286 H293 0.930 . S
N287 Tb252 2.572 . S
N287 C288 1.340 . S
N287 C290 1.361 . S
C288 H274 0.930 . S
C288 N287 1.340 . S
C288 C292 1.407 . S
C289 C290 1.413 . S
C289 C291 1.416 . S
C289 C318 1.427 . S
C290 C282 1.424 . S
C290 N287 1.361 . S
C290 C289 1.413 . S
C291 H280 0.931 . S
C291 C289 1.416 . S
C291 C292 1.332 . S
C292 H271 0.929 . S
C292 C288 1.407 . S
C292 C291 1.332 . S
H293 C286 0.930 . S
H294 C317 0.930 . S
H295 C318 0.929 . S
O296 Tb252 2.465 . S
O296 C316 1.264 . S
O297 Tb252 2.387 . S
O297 C308 1.264 . S
O298 Tb263 2.349 . S
O298 C308 1.243 . S
O299 Tb252 2.428 . S
O299 C316 1.256 . S
O300 Tb252 2.308 . S
O300 C315 1.266 . S
O301 Tb263 2.393 . S
O301 C315 1.248 . S
O302 Tb263 2.465 . S
O302 C327 1.264 . S
O303 Tb263 2.387 . S
O303 C319 1.264 . S
O304 Tb252 2.349 . S
O304 C319 1.243 . S
O305 Tb263 2.428 . S
O305 C327 1.256 . S
O306 Tb263 2.308 . S
O306 C326 1.266 . S
O307 Tb252 2.393 . S
O307 C326 1.248 . S
C308 O297 1.264 . S
C308 O298 1.243 . S
C309 C312 1.399 . S
C309 C314 1.383 . S
C309 C316 1.496 . S
C310 C311 1.399 . S
C310 C314 1.389 . S
C311 C310 1.399 . S
C311 C313 1.380 . S
C311 H328 0.929 . S
C312 C309 1.399 . S
C312 C313 1.392 . S
C312 H329 0.929 . S
C313 C311 1.380 . S
C313 C312 1.392 . S
C313 H330 0.929 . S
C314 C309 1.383 . S
C314 C310 1.389 . S
C314 H331 0.931 . S
C315 O300 1.266 . S
C315 O301 1.248 . S
C316 Tb252 2.802 . S
C316 O296 1.264 . S
C316 O299 1.256 . S
C316 C309 1.496 . S
C317 C284 1.448 . S
C317 H294 0.930 . S
C317 C318 1.328 . S
C318 C289 1.427 . S
C318 H295 0.929 . S
C318 C317 1.328 . S
C319 O303 1.264 . S
C319 O304 1.243 . S
C320 C323 1.399 . S
C320 C324 1.383 . S
C320 C327 1.496 . S
C321 C322 1.399 . S
C321 C324 1.389 . S
C322 C321 1.399 . S
C322 C325 1.380 . S
C322 H332 0.929 . S
C323 C320 1.399 . S
C323 C325 1.392 . S
C323 H333 0.929 . S
C324 C320 1.383 . S
C324 C321 1.389 . S
C324 H334 0.931 . S
C325 C322 1.380 . S
C325 C323 1.392 . S
C325 H335 0.929 . S
C326 O306 1.266 . S
C326 O307 1.248 . S
C327 Tb263 2.802 . S
C327 O302 1.264 . S
C327 O305 1.256 . S
C327 C320 1.496 . S
H328 C311 0.929 . S
H329 C312 0.929 . S
H330 C313 0.929 . S
H331 C314 0.931 . S
H332 C322 0.929 . S
H333 C323 0.929 . S
H334 C324 0.931 . S
H335 C325 0.929 . S
Tb336 N365 2.617 . S
Tb336 N371 2.572 . S
Tb336 O380 2.465 . S
Tb336 O381 2.387 . S
Tb336 O383 2.428 . S
Tb336 O384 2.308 . S
Tb336 O388 2.349 . S
Tb336 O391 2.393 . S
Tb336 C400 2.802 . S
C337 N338 1.379 . S
C337 C340 1.416 . S
C337 C344 1.424 . S
N338 C337 1.379 . S
N338 C341 1.334 . S
N338 Tb347 2.617 . S
C339 C341 1.390 . S
C339 C342 1.339 . S
C339 H359 0.930 . S
C340 C337 1.416 . S
C340 C342 1.416 . S
C340 C346 1.448 . S
C341 N338 1.334 . S
C341 C339 1.390 . S
C341 H352 0.930 . S
C342 C339 1.339 . S
C342 C340 1.416 . S
C342 H363 0.930 . S
C343 C344 1.413 . S
C343 C345 1.427 . S
C343 C349 1.416 . S
C344 C337 1.424 . S
C344 C343 1.413 . S
C344 N348 1.361 . S
C345 C343 1.427 . S
C345 C346 1.328 . S
C345 H360 0.929 . S
C346 C340 1.448 . S
C346 C345 1.328 . S
C346 H361 0.930 . S
Tb347 N338 2.617 . S
Tb347 N348 2.572 . S
Tb347 O382 2.349 . S
Tb347 O385 2.393 . S
Tb347 O386 2.465 . S
Tb347 O387 2.387 . S
Tb347 O389 2.428 . S
Tb347 O390 2.308 . S
Tb347 C411 2.802 . S
N348 C344 1.361 . S
N348 Tb347 2.572 . S
N348 C350 1.340 . S
C349 C343 1.416 . S
C349 C351 1.332 . S
C349 H357 0.931 . S
C350 N348 1.340 . S
C350 C351 1.407 . S
C350 H356 0.930 . S
C351 C349 1.332 . S
C351 C350 1.407 . S
C351 H353 0.929 . S
H352 C341 0.930 . S
H353 C351 0.929 . S
H354 C369 0.930 . S
H355 C376 0.929 . S
H356 C350 0.930 . S
H357 C349 0.931 . S
H358 C372 0.930 . S
H359 C339 0.930 . S
H360 C345 0.929 . S
H361 C346 0.930 . S
H362 C367 0.930 . S
H363 C342 0.930 . S
H364 C375 0.931 . S
N365 Tb336 2.617 . S
N365 C366 1.379 . S
N365 C369 1.334 . S
C366 N365 1.379 . S
C366 C368 1.416 1_556 S
C366 C374 1.424 . S
C367 H362 0.930 . S
C367 C369 1.390 1_554 S
C367 C370 1.339 . S
C368 C366 1.416 1_554 S
C368 C370 1.416 . S
C368 C401 1.448 . S
C369 H354 0.930 . S
C369 N365 1.334 . S
C369 C367 1.390 1_556 S
C370 C367 1.339 . S
C370 C368 1.416 . S
C370 H377 0.930 . S
N371 Tb336 2.572 . S
N371 C372 1.340 . S
N371 C374 1.361 . S
C372 H358 0.930 . S
C372 N371 1.340 . S
C372 C376 1.407 . S
C373 C374 1.413 . S
C373 C375 1.416 . S
C373 C402 1.427 1_556 S
C374 C366 1.424 . S
C374 N371 1.361 . S
C374 C373 1.413 . S
C375 H364 0.931 . S
C375 C373 1.416 . S
C375 C376 1.332 . S
C376 H355 0.929 . S
C376 C372 1.407 . S
C376 C375 1.332 . S
H377 C370 0.930 . S
H378 C401 0.930 . S
H379 C402 0.929 . S
O380 Tb336 2.465 . S
O380 C400 1.264 . S
O381 Tb336 2.387 . S
O381 C392 1.264 . S
O382 Tb347 2.349 . S
O382 C392 1.243 . S
O383 Tb336 2.428 . S
O383 C400 1.256 . S
O384 Tb336 2.308 . S
O384 C399 1.266 . S
O385 Tb347 2.393 . S
O385 C399 1.248 . S
O386 Tb347 2.465 . S
O386 C411 1.264 . S
O387 Tb347 2.387 . S
O387 C403 1.264 . S
O388 Tb336 2.349 . S
O388 C403 1.243 . S
O389 Tb347 2.428 . S
O389 C411 1.256 . S
O390 Tb347 2.308 . S
O390 C410 1.266 . S
O391 Tb336 2.393 . S
O391 C410 1.248 . S
C392 O381 1.264 . S
C392 O382 1.243 . S
C393 C396 1.399 . S
C393 C398 1.383 . S
C393 C400 1.496 . S
C394 C395 1.399 . S
C394 C398 1.389 . S
C395 C394 1.399 . S
C395 C397 1.380 . S
C395 H412 0.929 . S
C396 C393 1.399 . S
C396 C397 1.392 . S
C396 H413 0.929 . S
C397 C395 1.380 . S
C397 C396 1.392 . S
C397 H414 0.929 . S
C398 C393 1.383 . S
C398 C394 1.389 . S
C398 H415 0.931 . S
C399 O384 1.266 . S
C399 O385 1.248 . S
C400 Tb336 2.802 . S
C400 O380 1.264 . S
C400 O383 1.256 . S
C400 C393 1.496 . S
C401 C368 1.448 . S
C401 H378 0.930 . S
C401 C402 1.328 . S
C402 C373 1.427 1_554 S
C402 H379 0.929 . S
C402 C401 1.328 . S
C403 O387 1.264 . S
C403 O388 1.243 . S
C404 C407 1.399 . S
C404 C408 1.383 . S
C404 C411 1.496 . S
C405 C406 1.399 . S
C405 C408 1.389 . S
C406 C405 1.399 . S
C406 C409 1.380 . S
C406 H416 0.929 . S
C407 C404 1.399 . S
C407 C409 1.392 . S
C407 H417 0.929 . S
C408 C404 1.383 . S
C408 C405 1.389 . S
C408 H418 0.931 . S
C409 C406 1.380 . S
C409 C407 1.392 . S
C409 H419 0.929 . S
C410 O390 1.266 . S
C410 O391 1.248 . S
C411 Tb347 2.802 . S
C411 O386 1.264 . S
C411 O389 1.256 . S
C411 C404 1.496 . S
H412 C395 0.929 . S
H413 C396 0.929 . S
H414 C397 0.929 . S
H415 C398 0.931 . S
H416 C406 0.929 . S
H417 C407 0.929 . S
H418 C408 0.931 . S
H419 C409 0.929 . S
Tb420 N449 2.617 . S
Tb420 N455 2.572 . S
Tb420 O464 2.465 . S
Tb420 O465 2.387 . S
Tb420 O467 2.428 . S
Tb420 O468 2.308 . S
Tb420 O472 2.349 . S
Tb420 O475 2.393 . S
Tb420 C484 2.802 . S
C421 N422 1.379 . S
C421 C424 1.416 . S
C421 C428 1.424 . S
N422 C421 1.379 . S
N422 C425 1.334 . S
N422 Tb431 2.617 . S
C423 C425 1.390 . S
C423 C426 1.339 . S
C423 H443 0.930 . S
C424 C421 1.416 . S
C424 C426 1.416 . S
C424 C430 1.448 . S
C425 N422 1.334 . S
C425 C423 1.390 . S
C425 H436 0.930 . S
C426 C423 1.339 . S
C426 C424 1.416 . S
C426 H447 0.930 . S
C427 C428 1.413 . S
C427 C429 1.427 . S
C427 C433 1.416 . S
C428 C421 1.424 . S
C428 C427 1.413 . S
C428 N432 1.361 . S
C429 C427 1.427 . S
C429 C430 1.328 . S
C429 H444 0.929 . S
C430 C424 1.448 . S
C430 C429 1.328 . S
C430 H445 0.930 . S
Tb431 N422 2.617 . S
Tb431 N432 2.572 . S
Tb431 O466 2.349 . S
Tb431 O469 2.393 . S
Tb431 O470 2.465 . S
Tb431 O471 2.387 . S
Tb431 O473 2.428 . S
Tb431 O474 2.308 . S
Tb431 C495 2.802 . S
N432 C428 1.361 . S
N432 Tb431 2.572 . S
N432 C434 1.340 . S
C433 C427 1.416 . S
C433 C435 1.332 . S
C433 H441 0.931 . S
C434 N432 1.340 . S
C434 C435 1.407 . S
C434 H440 0.930 . S
C435 C433 1.332 . S
C435 C434 1.407 . S
C435 H437 0.929 . S
H436 C425 0.930 . S
H437 C435 0.929 . S
H438 C453 0.930 . S
H439 C460 0.929 . S
H440 C434 0.930 . S
H441 C433 0.931 . S
H442 C456 0.930 . S
H443 C423 0.930 . S
H444 C429 0.929 . S
H445 C430 0.930 . S
H446 C451 0.930 . S
H447 C426 0.930 . S
H448 C459 0.931 . S
N449 Tb420 2.617 . S
N449 C450 1.379 . S
N449 C453 1.334 . S
C450 N449 1.379 . S
C450 C452 1.416 1_554 S
C450 C458 1.424 . S
C451 H446 0.930 . S
C451 C453 1.390 1_556 S
C451 C454 1.339 . S
C452 C450 1.416 1_556 S
C452 C454 1.416 . S
C452 C485 1.448 . S
C453 H438 0.930 . S
C453 N449 1.334 . S
C453 C451 1.390 1_554 S
C454 C451 1.339 . S
C454 C452 1.416 . S
C454 H461 0.930 . S
N455 Tb420 2.572 . S
N455 C456 1.340 . S
N455 C458 1.361 . S
C456 H442 0.930 . S
C456 N455 1.340 . S
C456 C460 1.407 . S
C457 C458 1.413 . S
C457 C459 1.416 . S
C457 C486 1.427 1_554 S
C458 C450 1.424 . S
C458 N455 1.361 . S
C458 C457 1.413 . S
C459 H448 0.931 . S
C459 C457 1.416 . S
C459 C460 1.332 . S
C460 H439 0.929 . S
C460 C456 1.407 . S
C460 C459 1.332 . S
H461 C454 0.930 . S
H462 C485 0.930 . S
H463 C486 0.929 . S
O464 Tb420 2.465 . S
O464 C484 1.264 . S
O465 Tb420 2.387 . S
O465 C476 1.264 . S
O466 Tb431 2.349 . S
O466 C476 1.243 . S
O467 Tb420 2.428 . S
O467 C484 1.256 . S
O468 Tb420 2.308 . S
O468 C483 1.266 . S
O469 Tb431 2.393 . S
O469 C483 1.248 . S
O470 Tb431 2.465 . S
O470 C495 1.264 . S
O471 Tb431 2.387 . S
O471 C487 1.264 . S
O472 Tb420 2.349 . S
O472 C487 1.243 . S
O473 Tb431 2.428 . S
O473 C495 1.256 . S
O474 Tb431 2.308 . S
O474 C494 1.266 . S
O475 Tb420 2.393 . S
O475 C494 1.248 . S
C476 O465 1.264 . S
C476 O466 1.243 . S
C477 C480 1.399 . S
C477 C482 1.383 . S
C477 C484 1.496 . S
C478 C479 1.399 . S
C478 C482 1.389 . S
C479 C478 1.399 . S
C479 C481 1.380 . S
C479 H496 0.929 . S
C480 C477 1.399 . S
C480 C481 1.392 . S
C480 H497 0.929 . S
C481 C479 1.380 . S
C481 C480 1.392 . S
C481 H498 0.929 . S
C482 C477 1.383 . S
C482 C478 1.389 . S
C482 H499 0.931 . S
C483 O468 1.266 . S
C483 O469 1.248 . S
C484 Tb420 2.802 . S
C484 O464 1.264 . S
C484 O467 1.256 . S
C484 C477 1.496 . S
C485 C452 1.448 . S
C485 H462 0.930 . S
C485 C486 1.328 . S
C486 C457 1.427 1_556 S
C486 H463 0.929 . S
C486 C485 1.328 . S
C487 O471 1.264 . S
C487 O472 1.243 . S
C488 C491 1.399 . S
C488 C492 1.383 . S
C488 C495 1.496 . S
C489 C490 1.399 . S
C489 C492 1.389 . S
C490 C489 1.399 . S
C490 C493 1.380 . S
C490 H500 0.929 . S
C491 C488 1.399 . S
C491 C493 1.392 . S
C491 H501 0.929 . S
C492 C488 1.383 . S
C492 C489 1.389 . S
C492 H502 0.931 . S
C493 C490 1.380 . S
C493 C491 1.392 . S
C493 H503 0.929 . S
C494 O474 1.266 . S
C494 O475 1.248 . S
C495 Tb431 2.802 . S
C495 O470 1.264 . S
C495 O473 1.256 . S
C495 C488 1.496 . S
H496 C479 0.929 . S
H497 C480 0.929 . S
H498 C481 0.929 . S
H499 C482 0.931 . S
H500 C490 0.929 . S
H501 C491 0.929 . S
H502 C492 0.931 . S
H503 C493 0.929 . S
Tb504 N533 2.617 . S
Tb504 N539 2.572 . S
Tb504 O548 2.465 . S
Tb504 O549 2.387 . S
Tb504 O551 2.428 . S
Tb504 O552 2.308 . S
Tb504 O556 2.349 . S
Tb504 O559 2.393 . S
Tb504 C568 2.802 . S
C505 N506 1.379 . S
C505 C508 1.416 . S
C505 C512 1.424 . S
N506 C505 1.379 . S
N506 C509 1.334 . S
N506 Tb515 2.617 . S
C507 C509 1.390 . S
C507 C510 1.339 . S
C507 H527 0.930 . S
C508 C505 1.416 . S
C508 C510 1.416 . S
C508 C514 1.448 . S
C509 N506 1.334 . S
C509 C507 1.390 . S
C509 H520 0.930 . S
C510 C507 1.339 . S
C510 C508 1.416 . S
C510 H531 0.930 . S
C511 C512 1.413 . S
C511 C513 1.427 . S
C511 C517 1.416 . S
C512 C505 1.424 . S
C512 C511 1.413 . S
C512 N516 1.361 . S
C513 C511 1.427 . S
C513 C514 1.328 . S
C513 H528 0.929 . S
C514 C508 1.448 . S
C514 C513 1.328 . S
C514 H529 0.930 . S
Tb515 N506 2.617 . S
Tb515 N516 2.572 . S
Tb515 O550 2.349 . S
Tb515 O553 2.393 . S
Tb515 O554 2.465 . S
Tb515 O555 2.387 . S
Tb515 O557 2.428 . S
Tb515 O558 2.308 . S
Tb515 C579 2.802 . S
N516 C512 1.361 . S
N516 Tb515 2.572 . S
N516 C518 1.340 . S
C517 C511 1.416 . S
C517 C519 1.332 . S
C517 H525 0.931 . S
C518 N516 1.340 . S
C518 C519 1.407 . S
C518 H524 0.930 . S
C519 C517 1.332 . S
C519 C518 1.407 . S
C519 H521 0.929 . S
H520 C509 0.930 . S
H521 C519 0.929 . S
H522 C537 0.930 . S
H523 C544 0.929 . S
H524 C518 0.930 . S
H525 C517 0.931 . S
H526 C540 0.930 . S
H527 C507 0.930 . S
H528 C513 0.929 . S
H529 C514 0.930 . S
H530 C535 0.930 . S
H531 C510 0.930 . S
H532 C543 0.931 . S
N533 Tb504 2.617 . S
N533 C534 1.379 . S
N533 C537 1.334 . S
C534 N533 1.379 . S
C534 C536 1.416 1_556 S
C534 C542 1.424 . S
C535 H530 0.930 . S
C535 C537 1.390 1_554 S
C535 C538 1.339 . S
C536 C534 1.416 1_554 S
C536 C538 1.416 . S
C536 C569 1.448 . S
C537 H522 0.930 . S
C537 N533 1.334 . S
C537 C535 1.390 1_556 S
C538 C535 1.339 . S
C538 C536 1.416 . S
C538 H545 0.930 . S
N539 Tb504 2.572 . S
N539 C540 1.340 . S
N539 C542 1.361 . S
C540 H526 0.930 . S
C540 N539 1.340 . S
C540 C544 1.407 . S
C541 C542 1.413 . S
C541 C543 1.416 . S
C541 C570 1.427 1_556 S
C542 C534 1.424 . S
C542 N539 1.361 . S
C542 C541 1.413 . S
C543 H532 0.931 . S
C543 C541 1.416 . S
C543 C544 1.332 . S
C544 H523 0.929 . S
C544 C540 1.407 . S
C544 C543 1.332 . S
H545 C538 0.930 . S
H546 C569 0.930 . S
H547 C570 0.929 . S
O548 Tb504 2.465 . S
O548 C568 1.264 . S
O549 Tb504 2.387 . S
O549 C560 1.264 . S
O550 Tb515 2.349 . S
O550 C560 1.243 . S
O551 Tb504 2.428 . S
O551 C568 1.256 . S
O552 Tb504 2.308 . S
O552 C567 1.266 . S
O553 Tb515 2.393 . S
O553 C567 1.248 . S
O554 Tb515 2.465 . S
O554 C579 1.264 . S
O555 Tb515 2.387 . S
O555 C571 1.264 . S
O556 Tb504 2.349 . S
O556 C571 1.243 . S
O557 Tb515 2.428 . S
O557 C579 1.256 . S
O558 Tb515 2.308 . S
O558 C578 1.266 . S
O559 Tb504 2.393 . S
O559 C578 1.248 . S
C560 O549 1.264 . S
C560 O550 1.243 . S
C561 C564 1.399 . S
C561 C566 1.383 . S
C561 C568 1.496 . S
C562 C563 1.399 . S
C562 C566 1.389 . S
C563 C562 1.399 . S
C563 C565 1.380 . S
C563 H580 0.929 . S
C564 C561 1.399 . S
C564 C565 1.392 . S
C564 H581 0.929 . S
C565 C563 1.380 . S
C565 C564 1.392 . S
C565 H582 0.929 . S
C566 C561 1.383 . S
C566 C562 1.389 . S
C566 H583 0.931 . S
C567 O552 1.266 . S
C567 O553 1.248 . S
C568 Tb504 2.802 . S
C568 O548 1.264 . S
C568 O551 1.256 . S
C568 C561 1.496 . S
C569 C536 1.448 . S
C569 H546 0.930 . S
C569 C570 1.328 . S
C570 C541 1.427 1_554 S
C570 H547 0.929 . S
C570 C569 1.328 . S
C571 O555 1.264 . S
C571 O556 1.243 . S
C572 C575 1.399 . S
C572 C576 1.383 . S
C572 C579 1.496 . S
C573 C574 1.399 . S
C573 C576 1.389 . S
C574 C573 1.399 . S
C574 C577 1.380 . S
C574 H584 0.929 . S
C575 C572 1.399 . S
C575 C577 1.392 . S
C575 H585 0.929 . S
C576 C572 1.383 . S
C576 C573 1.389 . S
C576 H586 0.931 . S
C577 C574 1.380 . S
C577 C575 1.392 . S
C577 H587 0.929 . S
C578 O558 1.266 . S
C578 O559 1.248 . S
C579 Tb515 2.802 . S
C579 O554 1.264 . S
C579 O557 1.256 . S
C579 C572 1.496 . S
H580 C563 0.929 . S
H581 C564 0.929 . S
H582 C565 0.929 . S
H583 C566 0.931 . S
H584 C574 0.929 . S
H585 C575 0.929 . S
H586 C576 0.931 . S
H587 C577 0.929 . S
Tb588 N617 2.617 . S
Tb588 N623 2.572 . S
Tb588 O632 2.465 . S
Tb588 O633 2.387 . S
Tb588 O635 2.428 . S
Tb588 O636 2.308 . S
Tb588 O640 2.349 . S
Tb588 O643 2.393 . S
Tb588 C652 2.802 . S
C589 N590 1.379 . S
C589 C592 1.416 1_554 S
C589 C596 1.424 . S
N590 C589 1.379 . S
N590 C593 1.334 . S
N590 Tb599 2.617 . S
C591 C593 1.390 1_556 S
C591 C594 1.339 . S
C591 H611 0.930 . S
C592 C589 1.416 1_556 S
C592 C594 1.416 . S
C592 C598 1.448 . S
C593 N590 1.334 . S
C593 C591 1.390 1_554 S
C593 H604 0.930 . S
C594 C591 1.339 . S
C594 C592 1.416 . S
C594 H615 0.930 . S
C595 C596 1.413 . S
C595 C597 1.427 1_554 S
C595 C601 1.416 . S
C596 C589 1.424 . S
C596 C595 1.413 . S
C596 N600 1.361 . S
C597 C595 1.427 1_556 S
C597 C598 1.328 . S
C597 H612 0.929 . S
C598 C592 1.448 . S
C598 C597 1.328 . S
C598 H613 0.930 . S
Tb599 N590 2.617 . S
Tb599 N600 2.572 . S
Tb599 O634 2.349 . S
Tb599 O637 2.393 . S
Tb599 O638 2.465 . S
Tb599 O639 2.387 . S
Tb599 O641 2.428 . S
Tb599 O642 2.308 . S
Tb599 C663 2.802 . S
N600 C596 1.361 . S
N600 Tb599 2.572 . S
N600 C602 1.340 . S
C601 C595 1.416 . S
C601 C603 1.332 . S
C601 H609 0.931 . S
C602 N600 1.340 . S
C602 C603 1.407 . S
C602 H608 0.930 . S
C603 C601 1.332 . S
C603 C602 1.407 . S
C603 H605 0.929 . S
H604 C593 0.930 . S
H605 C603 0.929 . S
H606 C621 0.930 . S
H607 C628 0.929 . S
H608 C602 0.930 . S
H609 C601 0.931 . S
H610 C624 0.930 . S
H611 C591 0.930 . S
H612 C597 0.929 . S
H613 C598 0.930 . S
H614 C619 0.930 . S
H615 C594 0.930 . S
H616 C627 0.931 . S
N617 Tb588 2.617 . S
N617 C618 1.379 . S
N617 C621 1.334 . S
C618 N617 1.379 . S
C618 C620 1.416 . S
C618 C626 1.424 . S
C619 H614 0.930 . S
C619 C621 1.390 . S
C619 C622 1.339 . S
C620 C618 1.416 . S
C620 C622 1.416 . S
C620 C653 1.448 . S
C621 H606 0.930 . S
C621 N617 1.334 . S
C621 C619 1.390 . S
C622 C619 1.339 . S
C622 C620 1.416 . S
C622 H629 0.930 . S
N623 Tb588 2.572 . S
N623 C624 1.340 . S
N623 C626 1.361 . S
C624 H610 0.930 . S
C624 N623 1.340 . S
C624 C628 1.407 . S
C625 C626 1.413 . S
C625 C627 1.416 . S
C625 C654 1.427 . S
C626 C618 1.424 . S
C626 N623 1.361 . S
C626 C625 1.413 . S
C627 H616 0.931 . S
C627 C625 1.416 . S
C627 C628 1.332 . S
C628 H607 0.929 . S
C628 C624 1.407 . S
C628 C627 1.332 . S
H629 C622 0.930 . S
H630 C653 0.930 . S
H631 C654 0.929 . S
O632 Tb588 2.465 . S
O632 C652 1.264 . S
O633 Tb588 2.387 . S
O633 C644 1.264 . S
O634 Tb599 2.349 . S
O634 C644 1.243 . S
O635 Tb588 2.428 . S
O635 C652 1.256 . S
O636 Tb588 2.308 . S
O636 C651 1.266 . S
O637 Tb599 2.393 . S
O637 C651 1.248 . S
O638 Tb599 2.465 . S
O638 C663 1.264 . S
O639 Tb599 2.387 . S
O639 C655 1.264 . S
O640 Tb588 2.349 . S
O640 C655 1.243 . S
O641 Tb599 2.428 . S
O641 C663 1.256 . S
O642 Tb599 2.308 . S
O642 C662 1.266 . S
O643 Tb588 2.393 . S
O643 C662 1.248 . S
C644 O633 1.264 . S
C644 O634 1.243 . S
C645 C648 1.399 . S
C645 C650 1.383 . S
C645 C652 1.496 . S
C646 C647 1.399 . S
C646 C650 1.389 . S
C647 C646 1.399 . S
C647 C649 1.380 . S
C647 H664 0.929 . S
C648 C645 1.399 . S
C648 C649 1.392 . S
C648 H665 0.929 . S
C649 C647 1.380 . S
C649 C648 1.392 . S
C649 H666 0.929 . S
C650 C645 1.383 . S
C650 C646 1.389 . S
C650 H667 0.931 . S
C651 O636 1.266 . S
C651 O637 1.248 . S
C652 Tb588 2.802 . S
C652 O632 1.264 . S
C652 O635 1.256 . S
C652 C645 1.496 . S
C653 C620 1.448 . S
C653 H630 0.930 . S
C653 C654 1.328 . S
C654 C625 1.427 . S
C654 H631 0.929 . S
C654 C653 1.328 . S
C655 O639 1.264 . S
C655 O640 1.243 . S
C656 C659 1.399 . S
C656 C660 1.383 . S
C656 C663 1.496 . S
C657 C658 1.399 . S
C657 C660 1.389 . S
C658 C657 1.399 . S
C658 C661 1.380 . S
C658 H668 0.929 . S
C659 C656 1.399 . S
C659 C661 1.392 . S
C659 H669 0.929 . S
C660 C656 1.383 . S
C660 C657 1.389 . S
C660 H670 0.931 . S
C661 C658 1.380 . S
C661 C659 1.392 . S
C661 H671 0.929 . S
C662 O642 1.266 . S
C662 O643 1.248 . S
C663 Tb599 2.802 . S
C663 O638 1.264 . S
C663 O641 1.256 . S
C663 C656 1.496 . S
H664 C647 0.929 . S
H665 C648 0.929 . S
H666 C649 0.929 . S
H667 C650 0.931 . S
H668 C658 0.929 . S
H669 C659 0.929 . S
H670 C660 0.931 . S
H671 C661 0.929 . S
H672 C684 0.930 . S
H673 C686 0.930 . S
H674 C687 0.930 . S
H675 C691 0.959 1_565 S
H676 C691 0.959 1_565 S
H677 C691 0.961 . S
H678 C692 0.960 . S
H679 C692 0.961 . S
H680 C692 0.959 . S
H681 C695 0.929 . S
H682 C696 0.931 . S
H683 C698 0.930 . S
C684 H672 0.930 . S
C684 C685 1.399 . S
C684 C689 1.399 . S
C685 C684 1.399 . S
C685 C686 1.376 . S
C686 H673 0.930 . S
C686 C685 1.376 . S
C686 C687 1.388 . S
C687 H674 0.930 . S
C687 C686 1.388 . S
C687 C688 1.390 . S
C688 C687 1.390 . S
C688 C689 1.394 . S
C688 C694 1.474 . S
C689 C684 1.399 . S
C689 C688 1.394 . S
C689 C690 1.516 . S
C690 C689 1.516 . S
C690 C691 1.502 . S
C690 C692 1.561 . S
C690 C693 1.526 1_545 S
C691 H675 0.959 1_545 S
C691 H676 0.959 1_545 S
C691 H677 0.961 . S
C691 C690 1.502 . S
C692 H678 0.960 . S
C692 H679 0.961 . S
C692 H680 0.959 . S
C692 C690 1.561 . S
C693 C690 1.526 1_565 S
C693 C694 1.394 1_565 S
C693 C698 1.390 . S
C694 C688 1.474 . S
C694 C693 1.394 1_545 S
C694 C695 1.392 1_545 S
C695 H681 0.929 . S
C695 C694 1.392 1_565 S
C695 C696 1.385 . S
C696 H682 0.931 . S
C696 C695 1.385 . S
C696 C697 1.389 . S
C697 C696 1.389 . S
C697 C698 1.387 . S
C698 H683 0.930 . S
C698 C693 1.390 . S
C698 C697 1.387 . S
H699 C711 0.930 . S
H700 C713 0.930 . S
H701 C714 0.930 . S
H702 C718 0.970 . S
H703 C718 0.974 . S
H704 C718 0.945 1_455 S
H705 C719 0.960 . S
H706 C719 0.961 . S
H707 C719 0.959 . S
H708 C722 0.929 . S
H709 C723 0.931 . S
H710 C725 0.930 . S
C711 H699 0.930 . S
C711 C712 1.399 . S
C711 C716 1.399 . S
C712 C711 1.399 . S
C712 C713 1.376 . S
C713 H700 0.930 . S
C713 C712 1.376 . S
C713 C714 1.388 . S
C714 H701 0.930 . S
C714 C713 1.388 . S
C714 C715 1.390 . S
C715 C714 1.390 . S
C715 C716 1.394 . S
C715 C721 1.465 . S
C716 C711 1.399 . S
C716 C715 1.394 . S
C716 C717 1.516 . S
C717 C716 1.516 . S
C717 C718 1.493 1_455 S
C717 C719 1.561 . S
C717 C720 1.526 1_455 S
C718 H702 0.970 . S
C718 H703 0.974 . S
C718 H704 0.945 1_655 S
C718 C717 1.493 1_655 S
C719 H705 0.960 . S
C719 H706 0.961 . S
C719 H707 0.959 . S
C719 C717 1.561 . S
C720 C717 1.526 1_655 S
C720 C721 1.396 1_655 S
C720 C725 1.390 . S
C721 C715 1.465 . S
C721 C720 1.396 1_455 S
C721 C722 1.399 1_455 S
C722 H708 0.929 . S
C722 C721 1.399 1_655 S
C722 C723 1.385 . S
C723 H709 0.931 . S
C723 C722 1.385 . S
C723 C724 1.389 . S
C724 C723 1.389 . S
C724 C725 1.387 . S
C725 H710 0.930 . S
C725 C720 1.390 . S
C725 C724 1.387 . S
H726 C738 0.930 . S
H727 C740 0.930 . S
H728 C741 0.930 . S
H729 C745 0.959 1_545 S
H730 C745 0.959 1_545 S
H731 C745 0.961 . S
H732 C746 0.960 . S
H733 C746 0.961 . S
H734 C746 0.959 . S
H735 C749 0.929 . S
H736 C750 0.931 . S
H737 C752 0.930 . S
C738 H726 0.930 . S
C738 C739 1.399 . S
C738 C743 1.399 . S
C739 C738 1.399 . S
C739 C740 1.376 . S
C740 H727 0.930 . S
C740 C739 1.376 . S
C740 C741 1.388 . S
C741 H728 0.930 . S
C741 C740 1.388 . S
C741 C742 1.390 . S
C742 C741 1.390 . S
C742 C743 1.394 . S
C742 C748 1.487 . S
C743 C738 1.399 . S
C743 C742 1.394 . S
C743 C744 1.516 . S
C744 C743 1.516 . S
C744 C745 1.502 . S
C744 C746 1.561 . S
C744 C747 1.526 1_565 S
C745 H729 0.959 1_565 S
C745 H730 0.959 1_565 S
C745 H731 0.961 . S
C745 C744 1.502 . S
C746 H732 0.960 . S
C746 H733 0.961 . S
C746 H734 0.959 . S
C746 C744 1.561 . S
C747 C744 1.526 1_545 S
C747 C748 1.390 1_545 S
C747 C752 1.390 . S
C748 C742 1.487 . S
C748 C747 1.390 1_565 S
C748 C749 1.384 1_565 S
C749 H735 0.929 . S
C749 C748 1.384 1_545 S
C749 C750 1.385 . S
C750 H736 0.931 . S
C750 C749 1.385 . S
C750 C751 1.389 . S
C751 C750 1.389 . S
C751 C752 1.387 . S
C752 H737 0.930 . S
C752 C747 1.390 . S
C752 C751 1.387 . S
H753 C765 0.930 . S
H754 C767 0.930 . S
H755 C768 0.930 . S
H756 C772 0.959 . S
H757 C772 0.959 . S
H758 C772 0.961 1_455 S
H759 C773 0.960 . S
H760 C773 0.961 . S
H761 C773 0.959 . S
H762 C776 0.929 . S
H763 C777 0.931 . S
H764 C779 0.930 . S
C765 H753 0.930 . S
C765 C766 1.399 . S
C765 C770 1.399 . S
C766 C765 1.399 . S
C766 C767 1.376 . S
C767 H754 0.930 . S
C767 C766 1.376 . S
C767 C768 1.388 . S
C768 H755 0.930 . S
C768 C767 1.388 . S
C768 C769 1.390 . S
C769 C768 1.390 . S
C769 C770 1.394 . S
C769 C775 1.465 1_455 S
C770 C765 1.399 . S
C770 C769 1.394 . S
C770 C771 1.516 1_455 S
C771 C770 1.516 1_655 S
C771 C772 1.502 . S
C771 C773 1.561 . S
C771 C774 1.526 . S
C772 H756 0.959 . S
C772 H757 0.959 . S
C772 H758 0.961 1_655 S
C772 C771 1.502 . S
C773 H759 0.960 . S
C773 H760 0.961 . S
C773 H761 0.959 . S
C773 C771 1.561 . S
C774 C771 1.526 . S
C774 C775 1.396 . S
C774 C779 1.390 . S
C775 C769 1.465 1_655 S
C775 C774 1.396 . S
C775 C776 1.399 . S
C776 H762 0.929 . S
C776 C775 1.399 . S
C776 C777 1.385 . S
C777 H763 0.931 . S
C777 C776 1.385 . S
C777 C778 1.389 . S
C778 C777 1.389 . S
C778 C779 1.387 . S
C779 H764 0.930 . S
C779 C774 1.390 . S
C779 C778 1.387 . S
H780 C792 0.930 . S
H781 C794 0.930 . S
H782 C795 0.930 . S
H783 C799 0.959 . S
H784 C799 0.959 . S
H785 C799 0.961 . S
H786 C800 0.960 . S
H787 C800 0.961 . S
H788 C800 0.959 . S
H789 C803 0.929 . S
H790 C804 0.931 . S
H791 C806 0.930 . S
C792 H780 0.930 . S
C792 C793 1.399 1_556 S
C792 C797 1.399 . S
C793 C792 1.399 1_554 S
C793 C794 1.376 . S
C794 H781 0.930 . S
C794 C793 1.376 . S
C794 C795 1.388 . S
C795 H782 0.930 . S
C795 C794 1.388 . S
C795 C796 1.390 . S
C796 C795 1.390 . S
C796 C797 1.394 1_554 S
C796 C802 1.465 1_554 S
C797 C792 1.399 . S
C797 C796 1.394 1_556 S
C797 C798 1.516 . S
C798 C797 1.516 . S
C798 C799 1.502 . S
C798 C800 1.561 . S
C798 C801 1.526 . S
C799 H783 0.959 . S
C799 H784 0.959 . S
C799 H785 0.961 . S
C799 C798 1.502 . S
C800 H786 0.960 . S
C800 H787 0.961 . S
C800 H788 0.959 . S
C800 C798 1.561 . S
C801 C798 1.526 . S
C801 C802 1.396 . S
C801 C806 1.390 . S
C802 C796 1.465 1_556 S
C802 C801 1.396 . S
C802 C803 1.399 1_556 S
C803 H789 0.929 . S
C803 C802 1.399 1_554 S
C803 C804 1.385 . S
C804 H790 0.931 . S
C804 C803 1.385 . S
C804 C805 1.389 1_554 S
C805 C804 1.389 1_556 S
C805 C806 1.387 . S
C806 H791 0.930 . S
C806 C801 1.390 . S
C806 C805 1.387 . S
H807 C819 0.930 . S
H808 C821 0.930 . S
H809 C822 0.930 . S
H810 C826 0.959 1_556 S
H811 C826 0.959 . S
H812 C826 0.961 . S
H813 C827 0.960 . S
H814 C827 0.961 . S
H815 C827 0.959 . S
H816 C830 0.929 . S
H817 C831 0.931 . S
H818 C833 0.930 . S
C819 H807 0.930 . S
C819 C820 1.403 . S
C819 C824 1.399 . S
C820 C819 1.403 . S
C820 C821 1.374 1_554 S
C821 H808 0.930 . S
C821 C820 1.374 1_556 S
C821 C822 1.388 . S
C822 H809 0.930 . S
C822 C821 1.388 . S
C822 C823 1.390 1_556 S
C823 C822 1.390 1_554 S
C823 C824 1.394 . S
C823 C829 1.465 . S
C824 C819 1.399 . S
C824 C823 1.394 . S
C824 C825 1.516 . S
C825 C824 1.516 . S
C825 C826 1.502 . S
C825 C827 1.561 . S
C825 C828 1.526 . S
C826 H810 0.959 1_554 S
C826 H811 0.959 . S
C826 H812 0.961 . S
C826 C825 1.502 . S
C827 H813 0.960 . S
C827 H814 0.961 . S
C827 H815 0.959 . S
C827 C825 1.561 . S
C828 C825 1.526 . S
C828 C829 1.396 . S
C828 C833 1.390 . S
C829 C823 1.465 . S
C829 C828 1.396 . S
C829 C830 1.399 . S
C830 H816 0.929 . S
C830 C829 1.399 . S
C830 C831 1.385 . S
C831 H817 0.931 . S
C831 C830 1.385 . S
C831 C832 1.389 . S
C832 C831 1.389 . S
C832 C833 1.387 . S
C833 H818 0.930 . S
C833 C828 1.390 . S
C833 C832 1.387 . S
H834 C846 0.930 . S
H835 C848 0.930 . S
H836 C849 0.930 . S
H837 C853 0.959 . S
H838 C853 0.959 . S
H839 C853 0.961 . S
H840 C854 0.960 . S
H841 C854 0.961 . S
H842 C854 0.959 . S
H843 C857 0.929 . S
H844 C858 0.931 . S
H845 C860 0.930 . S
C846 H834 0.930 . S
C846 C847 1.399 1_556 S
C846 C851 1.399 . S
C847 C846 1.399 1_554 S
C847 C848 1.376 . S
C848 H835 0.930 . S
C848 C847 1.376 . S
C848 C849 1.388 . S
C849 H836 0.930 . S
C849 C848 1.388 . S
C849 C850 1.390 . S
C850 C849 1.390 . S
C850 C851 1.394 1_554 S
C850 C856 1.465 1_554 S
C851 C846 1.399 . S
C851 C850 1.394 1_556 S
C851 C852 1.516 . S
C852 C851 1.516 . S
C852 C853 1.502 . S
C852 C854 1.561 . S
C852 C855 1.526 . S
C853 H837 0.959 . S
C853 H838 0.959 . S
C853 H839 0.961 . S
C853 C852 1.502 . S
C854 H840 0.960 . S
C854 H841 0.961 . S
C854 H842 0.959 . S
C854 C852 1.561 . S
C855 C852 1.526 . S
C855 C856 1.396 . S
C855 C860 1.390 . S
C856 C850 1.465 1_556 S
C856 C855 1.396 . S
C856 C857 1.399 1_556 S
C857 H843 0.929 . S
C857 C856 1.399 1_554 S
C857 C858 1.385 . S
C858 H844 0.931 . S
C858 C857 1.385 . S
C858 C859 1.389 1_554 S
C859 C858 1.389 1_556 S
C859 C860 1.387 . S
C860 H845 0.930 . S
C860 C855 1.390 . S
C860 C859 1.387 . S
H861 C873 0.930 . S
H862 C875 0.930 . S
H863 C876 0.930 1_556 S
H864 C880 0.959 . S
H865 C880 0.959 . S
H866 C880 0.961 . S
H867 C881 0.960 . S
H868 C881 0.961 . S
H869 C881 0.959 1_556 S
H870 C884 0.929 . S
H871 C885 0.931 . S
H872 C887 0.930 . S
C873 H861 0.930 . S
C873 C874 1.399 . S
C873 C878 1.399 . S
C874 C873 1.399 . S
C874 C875 1.376 . S
C875 H862 0.930 . S
C875 C874 1.376 . S
C875 C876 1.388 . S
C876 H863 0.930 1_554 S
C876 C875 1.388 . S
C876 C877 1.390 . S
C877 C876 1.390 . S
C877 C878 1.394 . S
C877 C883 1.465 . S
C878 C873 1.399 . S
C878 C877 1.394 . S
C878 C879 1.516 . S
C879 C878 1.516 . S
C879 C880 1.502 . S
C879 C881 1.561 . S
C879 C882 1.526 . S
C880 H864 0.959 . S
C880 H865 0.959 . S
C880 H866 0.961 . S
C880 C879 1.502 . S
C881 H867 0.960 . S
C881 H868 0.961 . S
C881 H869 0.959 1_554 S
C881 C879 1.561 . S
C882 C879 1.526 . S
C882 C883 1.396 . S
C882 C887 1.390 . S
C883 C877 1.465 . S
C883 C882 1.396 . S
C883 C884 1.399 1_554 S
C884 H870 0.929 . S
C884 C883 1.399 1_556 S
C884 C885 1.385 . S
C885 H871 0.931 . S
C885 C884 1.385 . S
C885 C886 1.388 1_556 S
C886 C885 1.388 1_554 S
C886 C887 1.388 . S
C887 H872 0.930 . S
C887 C882 1.390 . S
C887 C886 1.388 . S
H888 C900 0.930 . S
H889 C902 0.930 . S
H890 C903 0.930 . S
H891 C907 0.959 . S
H892 C907 0.959 . S
H893 C907 0.961 . S
H894 C908 0.960 . S
H895 C908 0.961 . S
H896 C908 0.959 . S
H897 C911 0.929 . S
H898 C912 0.931 . S
H899 C914 0.930 . S
C900 H888 0.930 . S
C900 C901 1.399 . S
C900 C905 1.399 . S
C901 C900 1.399 . S
C901 C902 1.376 . S
C902 H889 0.930 . S
C902 C901 1.376 . S
C902 C903 1.388 . S
C903 H890 0.930 . S
C903 C902 1.388 . S
C903 C904 1.390 . S
C904 C903 1.390 . S
C904 C905 1.394 . S
C904 C910 1.465 . S
C905 C900 1.399 . S
C905 C904 1.394 . S
C905 C906 1.516 . S
C906 C905 1.516 . S
C906 C907 1.502 . S
C906 C908 1.561 . S
C906 C909 1.526 . S
C907 H891 0.959 . S
C907 H892 0.959 . S
C907 H893 0.961 . S
C907 C906 1.502 . S
C908 H894 0.960 . S
C908 H895 0.961 . S
C908 H896 0.959 . S
C908 C906 1.561 . S
C909 C906 1.526 . S
C909 C910 1.396 . S
C909 C914 1.390 . S
C910 C904 1.465 . S
C910 C909 1.396 . S
C910 C911 1.399 . S
C911 H897 0.929 . S
C911 C910 1.399 . S
C911 C912 1.385 . S
C912 H898 0.931 . S
C912 C911 1.385 . S
C912 C913 1.389 . S
C913 C912 1.389 . S
C913 C914 1.387 . S
C914 H899 0.930 . S
C914 C909 1.390 . S
C914 C913 1.387 . S
H915 C927 0.930 . S
H916 C929 0.930 . S
H917 C930 0.930 . S
H918 C934 0.959 . S
H919 C934 0.959 . S
H920 C934 0.961 . S
H921 C935 0.960 . S
H922 C935 0.961 . S
H923 C935 0.959 . S
H924 C938 0.929 . S
H925 C939 0.931 . S
H926 C941 0.930 . S
C927 H915 0.930 . S
C927 C928 1.399 . S
C927 C932 1.399 . S
C928 C927 1.399 . S
C928 C929 1.376 . S
C929 H916 0.930 . S
C929 C928 1.376 . S
C929 C930 1.388 . S
C930 H917 0.930 . S
C930 C929 1.388 . S
C930 C931 1.390 . S
C931 C930 1.390 . S
C931 C932 1.394 . S
C931 C937 1.465 . S
C932 C927 1.399 . S
C932 C931 1.394 . S
C932 C933 1.516 . S
C933 C932 1.516 . S
C933 C934 1.502 . S
C933 C935 1.561 . S
C933 C936 1.526 . S
C934 H918 0.959 . S
C934 H919 0.959 . S
C934 H920 0.961 . S
C934 C933 1.502 . S
C935 H921 0.960 . S
C935 H922 0.961 . S
C935 H923 0.959 . S
C935 C933 1.561 . S
C936 C933 1.526 . S
C936 C937 1.396 . S
C936 C941 1.390 . S
C937 C931 1.465 . S
C937 C936 1.396 . S
C937 C938 1.399 . S
C938 H924 0.929 . S
C938 C937 1.399 . S
C938 C939 1.385 . S
C939 H925 0.931 . S
C939 C938 1.385 . S
C939 C940 1.389 . S
C940 C939 1.389 . S
C940 C941 1.387 . S
C941 H926 0.930 . S
C941 C936 1.390 . S
C941 C940 1.387 . S
H942 C954 0.930 . S
H943 C956 0.930 . S
H944 C957 0.930 . S
H945 C961 0.959 . S
H946 C961 0.959 . S
H947 C961 0.961 . S
H948 C962 0.960 . S
H949 C962 0.961 . S
H950 C962 0.959 . S
H951 C965 0.929 . S
H952 C966 0.931 . S
H953 C968 0.930 . S
C954 H942 0.930 . S
C954 C955 1.399 . S
C954 C959 1.399 . S
C955 C954 1.399 . S
C955 C956 1.376 . S
C956 H943 0.930 . S
C956 C955 1.376 . S
C956 C957 1.388 . S
C957 H944 0.930 . S
C957 C956 1.388 . S
C957 C958 1.390 . S
C958 C957 1.390 . S
C958 C959 1.394 . S
C958 C964 1.465 . S
C959 C954 1.399 . S
C959 C958 1.394 . S
C959 C960 1.516 . S
C960 C959 1.516 . S
C960 C961 1.502 . S
C960 C962 1.561 . S
C960 C963 1.526 . S
C961 H945 0.959 . S
C961 H946 0.959 . S
C961 H947 0.961 . S
C961 C960 1.502 . S
C962 H948 0.960 . S
C962 H949 0.961 . S
C962 H950 0.959 . S
C962 C960 1.561 . S
C963 C960 1.526 . S
C963 C964 1.396 . S
C963 C968 1.390 . S
C964 C958 1.465 . S
C964 C963 1.396 . S
C964 C965 1.399 . S
C965 H951 0.929 . S
C965 C964 1.399 . S
C965 C966 1.385 . S
C966 H952 0.931 . S
C966 C965 1.385 . S
C966 C967 1.389 . S
C967 C966 1.389 . S
C967 C968 1.387 . S
C968 H953 0.930 . S
C968 C963 1.390 . S
C968 C967 1.387 . S
H969 C981 0.930 . S
H970 C983 0.930 . S
H971 C984 0.930 . S
H972 C988 0.959 . S
H973 C988 0.959 . S
H974 C988 0.961 . S
H975 C989 0.960 . S
H976 C989 0.961 . S
H977 C989 0.959 . S
H978 C992 0.929 . S
H979 C993 0.931 . S
H980 C995 0.930 . S
C981 H969 0.930 . S
C981 C982 1.399 . S
C981 C986 1.399 . S
C982 C981 1.399 . S
C982 C983 1.376 . S
C983 H970 0.930 . S
C983 C982 1.376 . S
C983 C984 1.388 . S
C984 H971 0.930 . S
C984 C983 1.388 . S
C984 C985 1.390 . S
C985 C984 1.390 . S
C985 C986 1.394 . S
C985 C991 1.465 . S
C986 C981 1.399 . S
C986 C985 1.394 . S
C986 C987 1.516 . S
C987 C986 1.516 . S
C987 C988 1.502 . S
C987 C989 1.561 . S
C987 C990 1.526 . S
C988 H972 0.959 . S
C988 H973 0.959 . S
C988 H974 0.961 . S
C988 C987 1.502 . S
C989 H975 0.960 . S
C989 H976 0.961 . S
C989 H977 0.959 . S
C989 C987 1.561 . S
C990 C987 1.526 . S
C990 C991 1.396 . S
C990 C995 1.390 . S
C991 C985 1.465 . S
C991 C990 1.396 . S
C991 C992 1.399 . S
C992 H978 0.929 . S
C992 C991 1.399 . S
C992 C993 1.385 . S
C993 H979 0.931 . S
C993 C992 1.385 . S
C993 C994 1.389 . S
C994 C993 1.389 . S
C994 C995 1.387 . S
C995 H980 0.930 . S
C995 C990 1.390 . S
C995 C994 1.387 . S
H996 C1008 0.930 . S
H997 C1010 0.930 . S
H998 C1011 0.930 1_565 S
H999 C1015 0.959 . S
H1000 C1015 0.959 . S
H1001 C1015 0.961 . S
H1002 C1016 0.960 1_545 S
H1003 C1016 0.961 . S
H1004 C1016 0.959 . S
H1005 C1019 0.929 . S
H1006 C1020 0.931 . S
H1007 C1022 0.930 . S
C1008 H996 0.930 . S
C1008 C1009 1.399 . S
C1008 C1013 1.399 . S
C1009 C1008 1.399 . S
C1009 C1010 1.376 . S
C1010 H997 0.930 . S
C1010 C1009 1.376 . S
C1010 C1011 1.388 . S
C1011 H998 0.930 1_545 S
C1011 C1010 1.388 . S
C1011 C1012 1.390 1_545 S
C1012 C1011 1.390 1_565 S
C1012 C1013 1.394 1_565 S
C1012 C1018 1.465 . S
C1013 C1008 1.399 . S
C1013 C1012 1.394 1_545 S
C1013 C1014 1.516 1_545 S
C1014 C1013 1.516 1_565 S
C1014 C1015 1.502 1_565 S
C1014 C1016 1.561 . S
C1014 C1017 1.526 . S
C1015 H999 0.959 . S
C1015 H1000 0.959 . S
C1015 H1001 0.961 . S
C1015 C1014 1.502 1_545 S
C1016 H1002 0.960 1_565 S
C1016 H1003 0.961 . S
C1016 H1004 0.959 . S
C1016 C1014 1.561 . S
C1017 C1014 1.526 . S
C1017 C1018 1.396 . S
C1017 C1022 1.390 . S
C1018 C1012 1.465 . S
C1018 C1017 1.396 . S
C1018 C1019 1.399 . S
C1019 H1005 0.929 . S
C1019 C1018 1.399 . S
C1019 C1020 1.385 . S
C1020 H1006 0.931 . S
C1020 C1019 1.385 . S
C1020 C1021 1.389 . S
C1021 C1020 1.389 . S
C1021 C1022 1.387 . S
C1022 H1007 0.930 . S
C1022 C1017 1.390 . S
C1022 C1021 1.387 . S
H1023 C1035 0.930 . S
H1024 C1037 0.930 . S
H1025 C1038 0.930 . S
H1026 C1042 0.959 . S
H1027 C1042 0.959 . S
H1028 C1042 0.961 . S
H1029 C1043 0.960 . S
H1030 C1043 0.961 1_655 S
H1031 C1043 0.959 . S
H1032 C1046 0.929 . S
H1033 C1047 0.931 . S
H1034 C1049 0.930 . S
C1035 H1023 0.930 . S
C1035 C1036 1.399 . S
C1035 C1040 1.399 . S
C1036 C1035 1.399 . S
C1036 C1037 1.376 . S
C1037 H1024 0.930 . S
C1037 C1036 1.376 . S
C1037 C1038 1.388 . S
C1038 H1025 0.930 . S
C1038 C1037 1.388 . S
C1038 C1039 1.390 . S
C1039 C1038 1.390 . S
C1039 C1040 1.394 . S
C1039 C1045 1.465 1_455 S
C1040 C1035 1.399 . S
C1040 C1039 1.394 . S
C1040 C1041 1.516 1_455 S
C1041 C1040 1.516 1_655 S
C1041 C1042 1.502 . S
C1041 C1043 1.561 1_655 S
C1041 C1044 1.526 . S
C1042 H1026 0.959 . S
C1042 H1027 0.959 . S
C1042 H1028 0.961 . S
C1042 C1041 1.502 . S
C1043 H1029 0.960 . S
C1043 H1030 0.961 1_455 S
C1043 H1031 0.959 . S
C1043 C1041 1.561 1_455 S
C1044 C1041 1.526 . S
C1044 C1045 1.396 . S
C1044 C1049 1.390 . S
C1045 C1039 1.465 1_655 S
C1045 C1044 1.396 . S
C1045 C1046 1.399 . S
C1046 H1032 0.929 . S
C1046 C1045 1.399 . S
C1046 C1047 1.385 . S
C1047 H1033 0.931 . S
C1047 C1046 1.385 . S
C1047 C1048 1.389 . S
C1048 C1047 1.389 . S
C1048 C1049 1.387 . S
C1049 H1034 0.930 . S
C1049 C1044 1.390 . S
C1049 C1048 1.387 . S
H1050 C1062 0.930 . S
H1051 C1064 0.930 . S
H1052 C1065 0.930 . S
H1053 C1069 0.959 . S
H1054 C1069 0.959 . S
H1055 C1069 0.961 . S
H1056 C1070 0.960 . S
H1057 C1070 0.961 . S
H1058 C1070 0.959 . S
H1059 C1073 0.929 . S
H1060 C1074 0.931 . S
H1061 C1076 0.930 . S
C1062 H1050 0.930 . S
C1062 C1063 1.399 . S
C1062 C1067 1.399 . S
C1063 C1062 1.399 . S
C1063 C1064 1.376 . S
C1064 H1051 0.930 . S
C1064 C1063 1.376 . S
C1064 C1065 1.388 . S
C1065 H1052 0.930 . S
C1065 C1064 1.388 . S
C1065 C1066 1.390 . S
C1066 C1065 1.390 . S
C1066 C1067 1.394 . S
C1066 C1072 1.465 1_565 S
C1067 C1062 1.399 . S
C1067 C1066 1.394 . S
C1067 C1068 1.516 1_565 S
C1068 C1067 1.516 1_545 S
C1068 C1069 1.502 . S
C1068 C1070 1.561 . S
C1068 C1071 1.526 . S
C1069 H1053 0.959 . S
C1069 H1054 0.959 . S
C1069 H1055 0.961 . S
C1069 C1068 1.502 . S
C1070 H1056 0.960 . S
C1070 H1057 0.961 . S
C1070 H1058 0.959 . S
C1070 C1068 1.561 . S
C1071 C1068 1.526 . S
C1071 C1072 1.396 . S
C1071 C1076 1.390 . S
C1072 C1066 1.465 1_545 S
C1072 C1071 1.396 . S
C1072 C1073 1.399 . S
C1073 H1059 0.929 . S
C1073 C1072 1.399 . S
C1073 C1074 1.385 . S
C1074 H1060 0.931 . S
C1074 C1073 1.385 . S
C1074 C1075 1.389 . S
C1075 C1074 1.389 . S
C1075 C1076 1.387 . S
C1076 H1061 0.930 . S
C1076 C1071 1.390 . S
C1076 C1075 1.387 . S
H1077 C1089 0.930 . S
H1078 C1091 0.930 . S
H1079 C1092 0.930 . S
H1080 C1096 0.959 . S
H1081 C1096 0.959 . S
H1082 C1096 0.961 . S
H1083 C1097 0.960 . S
H1084 C1097 0.966 . S
H1085 C1097 0.960 . S
H1086 C1100 0.929 . S
H1087 C1101 0.931 . S
H1088 C1103 0.930 . S
C1089 H1077 0.930 . S
C1089 C1090 1.399 . S
C1089 C1094 1.399 . S
C1090 C1089 1.399 . S
C1090 C1091 1.376 . S
C1091 H1078 0.930 . S
C1091 C1090 1.376 . S
C1091 C1092 1.388 . S
C1092 H1079 0.930 . S
C1092 C1091 1.388 . S
C1092 C1093 1.390 . S
C1093 C1092 1.390 . S
C1093 C1094 1.394 . S
C1093 C1099 1.465 1_455 S
C1094 C1089 1.399 . S
C1094 C1093 1.394 . S
C1094 C1095 1.516 . S
C1095 C1094 1.516 . S
C1095 C1096 1.502 . S
C1095 C1097 1.561 . S
C1095 C1098 1.526 1_455 S
C1096 H1080 0.959 . S
C1096 H1081 0.959 . S
C1096 H1082 0.961 . S
C1096 C1095 1.502 . S
C1097 H1083 0.960 . S
C1097 H1084 0.966 . S
C1097 H1085 0.960 . S
C1097 C1095 1.561 . S
C1098 C1095 1.526 1_655 S
C1098 C1099 1.396 . S
C1098 C1103 1.390 . S
C1099 C1093 1.465 1_655 S
C1099 C1098 1.396 . S
C1099 C1100 1.399 . S
C1100 H1086 0.929 . S
C1100 C1099 1.399 . S
C1100 C1101 1.385 . S
C1101 H1087 0.931 . S
C1101 C1100 1.385 . S
C1101 C1102 1.389 . S
C1102 C1101 1.389 . S
C1102 C1103 1.387 . S
C1103 H1088 0.930 . S
C1103 C1098 1.390 . S
C1103 C1102 1.387 . S
H1104 C1116 0.930 . S
H1105 C1118 0.930 . S
H1106 C1119 0.930 . S
H1107 C1123 0.959 . S
H1108 C1123 0.959 . S
H1109 C1123 0.961 . S
H1110 C1124 0.960 . S
H1111 C1124 0.961 . S
H1112 C1124 0.959 . S
H1113 C1127 0.929 . S
H1114 C1128 0.931 . S
H1115 C1130 0.930 . S
C1116 H1104 0.930 . S
C1116 C1117 1.399 . S
C1116 C1121 1.399 . S
C1117 C1116 1.399 . S
C1117 C1118 1.376 . S
C1118 H1105 0.930 . S
C1118 C1117 1.376 . S
C1118 C1119 1.388 . S
C1119 H1106 0.930 . S
C1119 C1118 1.388 . S
C1119 C1120 1.390 . S
C1120 C1119 1.390 . S
C1120 C1121 1.394 . S
C1120 C1126 1.465 . S
C1121 C1116 1.399 . S
C1121 C1120 1.394 . S
C1121 C1122 1.516 . S
C1122 C1121 1.516 . S
C1122 C1123 1.502 . S
C1122 C1124 1.561 . S
C1122 C1125 1.526 . S
C1123 H1107 0.959 . S
C1123 H1108 0.959 . S
C1123 H1109 0.961 . S
C1123 C1122 1.502 . S
C1124 H1110 0.960 . S
C1124 H1111 0.961 . S
C1124 H1112 0.959 . S
C1124 C1122 1.561 . S
C1125 C1122 1.526 . S
C1125 C1126 1.396 . S
C1125 C1130 1.390 . S
C1126 C1120 1.465 . S
C1126 C1125 1.396 . S
C1126 C1127 1.399 . S
C1127 H1113 0.929 . S
C1127 C1126 1.399 . S
C1127 C1128 1.385 . S
C1128 H1114 0.931 . S
C1128 C1127 1.385 . S
C1128 C1129 1.389 . S
C1129 C1128 1.389 . S
C1129 C1130 1.387 . S
C1130 H1115 0.930 . S
C1130 C1125 1.390 . S
C1130 C1129 1.387 . S
H1131 C1143 0.930 . S
H1132 C1145 0.930 . S
H1133 C1146 0.930 . S
H1134 C1150 0.959 . S
H1135 C1150 0.959 . S
H1136 C1150 0.961 . S
H1137 C1151 0.960 . S
H1138 C1151 0.961 . S
H1139 C1151 0.959 . S
H1140 C1154 0.929 . S
H1141 C1155 0.931 . S
H1142 C1157 0.930 . S
C1143 H1131 0.930 . S
C1143 C1144 1.399 . S
C1143 C1148 1.399 . S
C1144 C1143 1.399 . S
C1144 C1145 1.376 . S
C1145 H1132 0.930 . S
C1145 C1144 1.376 . S
C1145 C1146 1.388 . S
C1146 H1133 0.930 . S
C1146 C1145 1.388 . S
C1146 C1147 1.390 . S
C1147 C1146 1.390 . S
C1147 C1148 1.394 . S
C1147 C1153 1.465 . S
C1148 C1143 1.399 . S
C1148 C1147 1.394 . S
C1148 C1149 1.516 . S
C1149 C1148 1.516 . S
C1149 C1150 1.502 . S
C1149 C1151 1.561 . S
C1149 C1152 1.526 . S
C1150 H1134 0.959 . S
C1150 H1135 0.959 . S
C1150 H1136 0.961 . S
C1150 C1149 1.502 . S
C1151 H1137 0.960 . S
C1151 H1138 0.961 . S
C1151 H1139 0.959 . S
C1151 C1149 1.561 . S
C1152 C1149 1.526 . S
C1152 C1153 1.396 . S
C1152 C1157 1.390 . S
C1153 C1147 1.465 . S
C1153 C1152 1.396 . S
C1153 C1154 1.399 . S
C1154 H1140 0.929 . S
C1154 C1153 1.399 . S
C1154 C1155 1.385 . S
C1155 H1141 0.931 . S
C1155 C1154 1.385 . S
C1155 C1156 1.389 . S
C1156 C1155 1.389 . S
C1156 C1157 1.387 . S
C1157 H1142 0.930 . S
C1157 C1152 1.390 . S
C1157 C1156 1.387 . S
H1158 C1170 0.930 . S
H1159 C1172 0.930 . S
H1160 C1173 0.930 . S
H1161 C1177 0.959 . S
H1162 C1177 0.959 . S
H1163 C1177 0.961 . S
H1164 C1178 0.960 . S
H1165 C1178 0.961 . S
H1166 C1178 0.959 . S
H1167 C1181 0.929 . S
H1168 C1182 0.931 1_556 S
H1169 C1184 0.930 . S
C1170 H1158 0.930 . S
C1170 C1171 1.399 . S
C1170 C1175 1.399 . S
C1171 C1170 1.399 . S
C1171 C1172 1.376 . S
C1172 H1159 0.930 . S
C1172 C1171 1.376 . S
C1172 C1173 1.388 . S
C1173 H1160 0.930 . S
C1173 C1172 1.388 . S
C1173 C1174 1.390 . S
C1174 C1173 1.390 . S
C1174 C1175 1.394 . S
C1174 C1180 1.465 . S
C1175 C1170 1.399 . S
C1175 C1174 1.394 . S
C1175 C1176 1.516 . S
C1176 C1175 1.516 . S
C1176 C1177 1.502 . S
C1176 C1178 1.561 . S
C1176 C1179 1.526 . S
C1177 H1161 0.959 . S
C1177 H1162 0.959 . S
C1177 H1163 0.961 . S
C1177 C1176 1.502 . S
C1178 H1164 0.960 . S
C1178 H1165 0.961 . S
C1178 H1166 0.959 . S
C1178 C1176 1.561 . S
C1179 C1176 1.526 . S
C1179 C1180 1.396 . S
C1179 C1184 1.390 . S
C1180 C1174 1.465 . S
C1180 C1179 1.396 . S
C1180 C1181 1.399 . S
C1181 H1167 0.929 . S
C1181 C1180 1.399 . S
C1181 C1182 1.385 . S
C1182 H1168 0.931 1_554 S
C1182 C1181 1.385 . S
C1182 C1183 1.389 . S
C1183 C1182 1.389 . S
C1183 C1184 1.387 . S
C1184 H1169 0.930 . S
C1184 C1179 1.390 . S
C1184 C1183 1.387 . S
H1185 C1197 0.930 . S
H1186 C1199 0.930 . S
H1187 C1200 0.930 . S
H1188 C1204 0.959 . S
H1189 C1204 0.959 . S
H1190 C1204 0.961 . S
H1191 C1205 0.960 . S
H1192 C1205 0.961 . S
H1193 C1205 0.959 . S
H1194 C1208 0.929 . S
H1195 C1209 0.931 . S
H1196 C1211 0.930 . S
C1197 H1185 0.930 . S
C1197 C1198 1.399 . S
C1197 C1202 1.399 . S
C1198 C1197 1.399 . S
C1198 C1199 1.376 . S
C1199 H1186 0.930 . S
C1199 C1198 1.376 . S
C1199 C1200 1.388 . S
C1200 H1187 0.930 . S
C1200 C1199 1.388 . S
C1200 C1201 1.390 . S
C1201 C1200 1.390 . S
C1201 C1202 1.394 . S
C1201 C1207 1.465 . S
C1202 C1197 1.399 . S
C1202 C1201 1.394 . S
C1202 C1203 1.516 . S
C1203 C1202 1.516 . S
C1203 C1204 1.502 . S
C1203 C1205 1.561 . S
C1203 C1206 1.526 . S
C1204 H1188 0.959 . S
C1204 H1189 0.959 . S
C1204 H1190 0.961 . S
C1204 C1203 1.502 . S
C1205 H1191 0.960 . S
C1205 H1192 0.961 . S
C1205 H1193 0.959 . S
C1205 C1203 1.561 . S
C1206 C1203 1.526 . S
C1206 C1207 1.396 . S
C1206 C1211 1.390 . S
C1207 C1201 1.465 . S
C1207 C1206 1.396 . S
C1207 C1208 1.399 . S
C1208 H1194 0.929 . S
C1208 C1207 1.399 . S
C1208 C1209 1.385 . S
C1209 H1195 0.931 . S
C1209 C1208 1.385 . S
C1209 C1210 1.389 . S
C1210 C1209 1.389 . S
C1210 C1211 1.387 . S
C1211 H1196 0.930 . S
C1211 C1206 1.390 . S
C1211 C1210 1.387 . S
H1212 C1224 0.930 . S
H1213 C1226 0.930 . S
H1214 C1227 0.930 . S
H1215 C1231 0.959 . S
H1216 C1231 0.959 . S
H1217 C1231 0.961 . S
H1218 C1232 0.960 . S
H1219 C1232 0.961 . S
H1220 C1232 0.959 . S
H1221 C1235 0.929 . S
H1222 C1236 0.931 . S
H1223 C1238 0.930 . S
C1224 H1212 0.930 . S
C1224 C1225 1.399 . S
C1224 C1229 1.399 . S
C1225 C1224 1.399 . S
C1225 C1226 1.376 . S
C1226 H1213 0.930 . S
C1226 C1225 1.376 . S
C1226 C1227 1.388 . S
C1227 H1214 0.930 . S
C1227 C1226 1.388 . S
C1227 C1228 1.390 . S
C1228 C1227 1.390 . S
C1228 C1229 1.394 . S
C1228 C1234 1.465 . S
C1229 C1224 1.399 . S
C1229 C1228 1.394 . S
C1229 C1230 1.516 . S
C1230 C1229 1.516 . S
C1230 C1231 1.502 . S
C1230 C1232 1.561 . S
C1230 C1233 1.526 . S
C1231 H1215 0.959 . S
C1231 H1216 0.959 . S
C1231 H1217 0.961 . S
C1231 C1230 1.502 . S
C1232 H1218 0.960 . S
C1232 H1219 0.961 . S
C1232 H1220 0.959 . S
C1232 C1230 1.561 . S
C1233 C1230 1.526 . S
C1233 C1234 1.396 . S
C1233 C1238 1.390 . S
C1234 C1228 1.465 . S
C1234 C1233 1.396 . S
C1234 C1235 1.399 . S
C1235 H1221 0.929 . S
C1235 C1234 1.399 . S
C1235 C1236 1.385 . S
C1236 H1222 0.931 . S
C1236 C1235 1.385 . S
C1236 C1237 1.389 . S
C1237 C1236 1.389 . S
C1237 C1238 1.387 . S
C1238 H1223 0.930 . S
C1238 C1233 1.390 . S
C1238 C1237 1.387 . S
H1239 C1251 0.930 . S
H1240 C1253 0.930 . S
H1241 C1254 0.930 . S
H1242 C1258 0.959 . S
H1243 C1258 0.959 . S
H1244 C1258 0.961 . S
H1245 C1259 0.960 . S
H1246 C1259 0.961 . S
H1247 C1259 0.959 . S
H1248 C1262 0.929 . S
H1249 C1263 0.931 . S
H1250 C1265 0.930 . S
C1251 H1239 0.930 . S
C1251 C1252 1.399 . S
C1251 C1256 1.399 . S
C1252 C1251 1.399 . S
C1252 C1253 1.376 . S
C1253 H1240 0.930 . S
C1253 C1252 1.376 . S
C1253 C1254 1.388 . S
C1254 H1241 0.930 . S
C1254 C1253 1.388 . S
C1254 C1255 1.390 . S
C1255 C1254 1.390 . S
C1255 C1256 1.394 . S
C1255 C1261 1.465 . S
C1256 C1251 1.399 . S
C1256 C1255 1.394 . S
C1256 C1257 1.516 . S
C1257 C1256 1.516 . S
C1257 C1258 1.502 . S
C1257 C1259 1.561 . S
C1257 C1260 1.526 . S
C1258 H1242 0.959 . S
C1258 H1243 0.959 . S
C1258 H1244 0.961 . S
C1258 C1257 1.502 . S
C1259 H1245 0.960 . S
C1259 H1246 0.961 . S
C1259 H1247 0.959 . S
C1259 C1257 1.561 . S
C1260 C1257 1.526 . S
C1260 C1261 1.396 . S
C1260 C1265 1.390 . S
C1261 C1255 1.465 . S
C1261 C1260 1.396 . S
C1261 C1262 1.399 . S
C1262 H1248 0.929 . S
C1262 C1261 1.399 . S
C1262 C1263 1.385 . S
C1263 H1249 0.931 . S
C1263 C1262 1.385 . S
C1263 C1264 1.389 . S
C1264 C1263 1.389 . S
C1264 C1265 1.387 . S
C1265 H1250 0.930 . S
C1265 C1260 1.390 . S
C1265 C1264 1.387 . S
H1266 C1278 0.930 . S
H1267 C1280 0.930 . S
H1268 C1281 0.930 . S
H1269 C1285 0.959 . S
H1270 C1285 0.959 . S
H1271 C1285 0.961 . S
H1272 C1286 0.960 . S
H1273 C1286 0.961 . S
H1274 C1286 0.959 . S
H1275 C1289 0.929 . S
H1276 C1290 0.931 . S
H1277 C1292 0.930 . S
C1278 H1266 0.930 . S
C1278 C1279 1.399 . S
C1278 C1283 1.399 . S
C1279 C1278 1.399 . S
C1279 C1280 1.376 . S
C1280 H1267 0.930 . S
C1280 C1279 1.376 . S
C1280 C1281 1.388 . S
C1281 H1268 0.930 . S
C1281 C1280 1.388 . S
C1281 C1282 1.390 . S
C1282 C1281 1.390 . S
C1282 C1283 1.394 . S
C1282 C1288 1.465 . S
C1283 C1278 1.399 . S
C1283 C1282 1.394 . S
C1283 C1284 1.516 . S
C1284 C1283 1.516 . S
C1284 C1285 1.502 . S
C1284 C1286 1.561 . S
C1284 C1287 1.526 . S
C1285 H1269 0.959 . S
C1285 H1270 0.959 . S
C1285 H1271 0.961 . S
C1285 C1284 1.502 . S
C1286 H1272 0.960 . S
C1286 H1273 0.961 . S
C1286 H1274 0.959 . S
C1286 C1284 1.561 . S
C1287 C1284 1.526 . S
C1287 C1288 1.396 . S
C1287 C1292 1.390 . S
C1288 C1282 1.465 . S
C1288 C1287 1.396 . S
C1288 C1289 1.399 . S
C1289 H1275 0.929 . S
C1289 C1288 1.399 . S
C1289 C1290 1.385 . S
C1290 H1276 0.931 . S
C1290 C1289 1.385 . S
C1290 C1291 1.389 . S
C1291 C1290 1.389 . S
C1291 C1292 1.387 . S
C1292 H1277 0.930 . S
C1292 C1287 1.390 . S
C1292 C1291 1.387 . S
H1293 C1305 0.930 . S
H1294 C1307 0.930 . S
H1295 C1308 0.930 . S
H1296 C1312 0.959 . S
H1297 C1312 0.959 . S
H1298 C1312 0.961 . S
H1299 C1313 0.960 . S
H1300 C1313 0.961 . S
H1301 C1313 0.959 . S
H1302 C1316 0.929 . S
H1303 C1317 0.931 . S
H1304 C1319 0.930 . S
C1305 H1293 0.930 . S
C1305 C1306 1.399 . S
C1305 C1310 1.399 . S
C1306 C1305 1.399 . S
C1306 C1307 1.376 . S
C1307 H1294 0.930 . S
C1307 C1306 1.376 . S
C1307 C1308 1.388 . S
C1308 H1295 0.930 . S
C1308 C1307 1.388 . S
C1308 C1309 1.390 . S
C1309 C1308 1.390 . S
C1309 C1310 1.394 . S
C1309 C1315 1.465 . S
C1310 C1305 1.399 . S
C1310 C1309 1.394 . S
C1310 C1311 1.516 . S
C1311 C1310 1.516 . S
C1311 C1312 1.502 . S
C1311 C1313 1.561 . S
C1311 C1314 1.526 . S
C1312 H1296 0.959 . S
C1312 H1297 0.959 . S
C1312 H1298 0.961 . S
C1312 C1311 1.502 . S
C1313 H1299 0.960 . S
C1313 H1300 0.961 . S
C1313 H1301 0.959 . S
C1313 C1311 1.561 . S
C1314 C1311 1.526 . S
C1314 C1315 1.396 . S
C1314 C1319 1.390 . S
C1315 C1309 1.465 . S
C1315 C1314 1.396 . S
C1315 C1316 1.399 . S
C1316 H1302 0.929 . S
C1316 C1315 1.399 . S
C1316 C1317 1.385 . S
C1317 H1303 0.931 . S
C1317 C1316 1.385 . S
C1317 C1318 1.389 . S
C1318 C1317 1.389 . S
C1318 C1319 1.387 . S
C1319 H1304 0.930 . S
C1319 C1314 1.390 . S
C1319 C1318 1.387 . S
C685 C67 1.275 . S
C697 C478 1.164 . S
C712 C140 1.370 . S
C724 C562 1.220 . S
C739 C235 1.339 . S
C751 C657 1.352 . S
C766 C394 1.292 . S
C778 C315 1.240 . S
C793 C489 1.245 . S
C805 C410 1.395 . S
C820 C573 1.052 1_554 S
C832 C476 1.400 . S
C847 C646 1.071 . S
C859 C578 1.332 . S
C874 C651 1.351 . S
C886 C405 1.006 1_554 S
C901 C571 1.356 . S
C913 C310 0.993 . S
C928 C644 1.352 . S
C940 C58 1.211 . S
C955 C153 1.364 . S
C967 C403 1.362 . S
C982 C226 1.249 . S
C994 C483 1.321 . S
C1009 C321 1.255 . S
C1021 C242 1.389 . S
C1036 C69 1.011 . S
C1048 C308 1.413 . S
C1063 C142 1.051 . S
C1075 C74 1.238 . S
C1090 C147 1.270 . S
C1102 C237 1.149 . S
C1117 C392 2.703 1_554 S
C1129 C63 2.765 . S
C1144 C494 2.732 1_556 S
C1156 C158 2.716 . S
C1171 C231 2.753 . S
C1183 C560 2.727 1_554 S
C1198 C319 2.706 . S
C1210 C655 2.733 1_556 S
C1225 C224 2.724 . S
C1237 C567 2.737 . S
C1252 C326 2.738 . S
C1264 C662 2.752 . S
C1279 C399 2.760 . S
C1291 C56 2.720 . S
C1306 C487 2.704 . S
C1318 C151 2.731 . S
