# Generated by pormake.
# Topology vcc, (6)-cn, num edge types: 1
# Building blocks:
#     Node 0, Type 0, BuildingBlock: CUKXOW_clean_sbu_0, # of connection points: 6
#     Node 1, Type 0, BuildingBlock: CUKXOW_clean_sbu_0, # of connection points: 6
#     Node 2, Type 0, BuildingBlock: CUKXOW_clean_sbu_0, # of connection points: 6
#     Node 3, Type 0, BuildingBlock: CUKXOW_clean_sbu_0, # of connection points: 6
#     Node 4, Type 0, BuildingBlock: CUKXOW_clean_sbu_0, # of connection points: 6
#     Node 5, Type 0, BuildingBlock: CUKXOW_clean_sbu_0, # of connection points: 6
#     Node 6, Type 0, BuildingBlock: CUKXOW_clean_sbu_0, # of connection points: 6
#     Node 7, Type 0, BuildingBlock: CUKXOW_clean_sbu_0, # of connection points: 6
#     Node 8, Type 0, BuildingBlock: CUKXOW_clean_sbu_0, # of connection points: 6
#     Node 9, Type 0, BuildingBlock: CUKXOW_clean_sbu_0, # of connection points: 6
#     Node 10, Type 0, BuildingBlock: CUKXOW_clean_sbu_0, # of connection points: 6
#     Node 11, Type 0, BuildingBlock: CUKXOW_clean_sbu_0, # of connection points: 6
#     Node 12, Type 0, BuildingBlock: CUKXOW_clean_sbu_0, # of connection points: 6
#     Node 13, Type 0, BuildingBlock: CUKXOW_clean_sbu_0, # of connection points: 6
#     Node 14, Type 0, BuildingBlock: CUKXOW_clean_sbu_0, # of connection points: 6
#     Node 15, Type 0, BuildingBlock: CUKXOW_clean_sbu_0, # of connection points: 6
#     Node 16, Type 0, BuildingBlock: CUKXOW_clean_sbu_0, # of connection points: 6
#     Node 17, Type 0, BuildingBlock: CUKXOW_clean_sbu_0, # of connection points: 6
#     Node 18, Type 0, BuildingBlock: CUKXOW_clean_sbu_0, # of connection points: 6
#     Node 19, Type 0, BuildingBlock: CUKXOW_clean_sbu_0, # of connection points: 6
#     Node 20, Type 0, BuildingBlock: CUKXOW_clean_sbu_0, # of connection points: 6
#     Node 21, Type 0, BuildingBlock: CUKXOW_clean_sbu_0, # of connection points: 6
#     Node 22, Type 0, BuildingBlock: CUKXOW_clean_sbu_0, # of connection points: 6
#     Node 23, Type 0, BuildingBlock: CUKXOW_clean_sbu_0, # of connection points: 6
#     Node 24, Type 0, BuildingBlock: CUKXOW_clean_sbu_0, # of connection points: 6
#     Node 25, Type 0, BuildingBlock: CUKXOW_clean_sbu_0, # of connection points: 6
#     Node 26, Type 0, BuildingBlock: CUKXOW_clean_sbu_0, # of connection points: 6
#     Node 27, Type 0, BuildingBlock: CUKXOW_clean_sbu_0, # of connection points: 6
#     Node 28, Type 0, BuildingBlock: CUKXOW_clean_sbu_0, # of connection points: 6
#     Node 29, Type 0, BuildingBlock: CUKXOW_clean_sbu_0, # of connection points: 6
#     Node 30, Type 0, BuildingBlock: CUKXOW_clean_sbu_0, # of connection points: 6
#     Node 31, Type 0, BuildingBlock: CUKXOW_clean_sbu_0, # of connection points: 6
#     Edge 32, Type (0, 0), None
#     Edge 33, Type (0, 0), None
#     Edge 34, Type (0, 0), None
#     Edge 35, Type (0, 0), None
#     Edge 36, Type (0, 0), None
#     Edge 37, Type (0, 0), None
#     Edge 38, Type (0, 0), None
#     Edge 39, Type (0, 0), None
#     Edge 40, Type (0, 0), None
#     Edge 41, Type (0, 0), None
#     Edge 42, Type (0, 0), None
#     Edge 43, Type (0, 0), None
#     Edge 44, Type (0, 0), None
#     Edge 45, Type (0, 0), None
#     Edge 46, Type (0, 0), None
#     Edge 47, Type (0, 0), None
#     Edge 48, Type (0, 0), None
#     Edge 49, Type (0, 0), None
#     Edge 50, Type (0, 0), None
#     Edge 51, Type (0, 0), None
#     Edge 52, Type (0, 0), None
#     Edge 53, Type (0, 0), None
#     Edge 54, Type (0, 0), None
#     Edge 55, Type (0, 0), None
#     Edge 56, Type (0, 0), None
#     Edge 57, Type (0, 0), None
#     Edge 58, Type (0, 0), None
#     Edge 59, Type (0, 0), None
#     Edge 60, Type (0, 0), None
#     Edge 61, Type (0, 0), None
#     Edge 62, Type (0, 0), None
#     Edge 63, Type (0, 0), None
#     Edge 64, Type (0, 0), None
#     Edge 65, Type (0, 0), None
#     Edge 66, Type (0, 0), None
#     Edge 67, Type (0, 0), None
#     Edge 68, Type (0, 0), None
#     Edge 69, Type (0, 0), None
#     Edge 70, Type (0, 0), None
#     Edge 71, Type (0, 0), None
#     Edge 72, Type (0, 0), None
#     Edge 73, Type (0, 0), None
#     Edge 74, Type (0, 0), None
#     Edge 75, Type (0, 0), None
#     Edge 76, Type (0, 0), None
#     Edge 77, Type (0, 0), None
#     Edge 78, Type (0, 0), None
#     Edge 79, Type (0, 0), None
#     Edge 80, Type (0, 0), None
#     Edge 81, Type (0, 0), None
#     Edge 82, Type (0, 0), None
#     Edge 83, Type (0, 0), None
#     Edge 84, Type (0, 0), None
#     Edge 85, Type (0, 0), None
#     Edge 86, Type (0, 0), None
#     Edge 87, Type (0, 0), None
#     Edge 88, Type (0, 0), None
#     Edge 89, Type (0, 0), None
#     Edge 90, Type (0, 0), None
#     Edge 91, Type (0, 0), None
#     Edge 92, Type (0, 0), None
#     Edge 93, Type (0, 0), None
#     Edge 94, Type (0, 0), None
#     Edge 95, Type (0, 0), None
#     Edge 96, Type (0, 0), None
#     Edge 97, Type (0, 0), None
#     Edge 98, Type (0, 0), None
#     Edge 99, Type (0, 0), None
#     Edge 100, Type (0, 0), None
#     Edge 101, Type (0, 0), None
#     Edge 102, Type (0, 0), None
#     Edge 103, Type (0, 0), None
#     Edge 104, Type (0, 0), None
#     Edge 105, Type (0, 0), None
#     Edge 106, Type (0, 0), None
#     Edge 107, Type (0, 0), None
#     Edge 108, Type (0, 0), None
#     Edge 109, Type (0, 0), None
#     Edge 110, Type (0, 0), None
#     Edge 111, Type (0, 0), None
#     Edge 112, Type (0, 0), None
#     Edge 113, Type (0, 0), None
#     Edge 114, Type (0, 0), None
#     Edge 115, Type (0, 0), None
#     Edge 116, Type (0, 0), None
#     Edge 117, Type (0, 0), None
#     Edge 118, Type (0, 0), None
#     Edge 119, Type (0, 0), None
#     Edge 120, Type (0, 0), None
#     Edge 121, Type (0, 0), None
#     Edge 122, Type (0, 0), None
#     Edge 123, Type (0, 0), None
#     Edge 124, Type (0, 0), None
#     Edge 125, Type (0, 0), None
#     Edge 126, Type (0, 0), None
#     Edge 127, Type (0, 0), None
# Relax obj value: 0.383
# Max RMSD: 0.211
# Mean RMSD: 0.211
data_MOF--net-vcc--node1-CUKXOW_clean_sbu_0--edge1-none
_symmetry_space_group_name_H-M    P1
_symmetry_Int_Tables_number       1
_symmetry_cell_setting            triclinic
loop_
_symmetry_equiv_pos_as_xyz
'x, y, z'
_cell_length_a     29.857382
_cell_length_b     26.665998
_cell_length_c     15.245771
_cell_angle_alpha  89.727345
_cell_angle_beta   91.092891
_cell_angle_gamma 90.192293
loop_
_atom_site_label
_atom_site_type_symbol
_atom_site_fract_x
_atom_site_fract_y
_atom_site_fract_z
_atom_type_partial_charge
Tb0 Tb 0.23949 0.98411 0.19798 0.0
C1 C 0.24833 0.0945 0.2625 0.0
Tb2 Tb 0.2947 0.0016 0.25806 0.0
O3 O 0.23432 0.97597 0.33664 0.0
O4 O 0.23424 0.97676 0.33409 0.0
O5 O 0.23399 0.06848 0.19355 0.0
C6 C 0.36462 0.02447 0.35449 0.0
O7 O 0.27548 0.07095 0.31403 0.0
C8 C 0.31227 0.0071 1.08191 0.0
C9 C 0.30661 0.89517 0.22564 0.0
O10 O 0.35244 0.04998 0.28583 0.0
O11 O 0.33756 0.98787 0.36858 0.0
O12 O 0.3338 0.98056 1.13933 0.0
O13 O 0.28102 0.02757 1.12094 0.0
O14 O 0.32053 0.92773 0.28188 0.0
O15 O 0.27341 0.91013 0.1728 0.0
C16 C 0.15794 0.97056 1.13724 0.0
O17 O 0.19056 0.94111 1.1184 0.0
O18 O 0.17175 0.00707 0.18408 0.0
C19 C 0.2036 0.00462 0.36872 0.0
Tb20 Tb 0.89375 0.25569 0.20646 0.0
C21 C 0.88454 0.1495 0.29342 0.0
Tb22 Tb 0.83462 0.24002 0.25858 0.0
O23 O -0.04987 0.23647 0.29107 0.0
O24 O 0.89049 0.26612 0.34647 0.0
O25 O 0.903 0.17297 0.22653 0.0
C26 C 0.7526 0.216 0.30053 0.0
O27 O 0.85198 0.17309 0.32901 0.0
C28 C 0.81958 0.23564 1.08053 0.0
C29 C 0.82916 0.34505 0.25632 0.0
O30 O 0.78614 0.1857 0.30926 0.0
O31 O 0.76582 0.25937 0.27496 0.0
O32 O 0.80176 0.26634 1.13372 0.0
O33 O 0.84942 0.21278 1.12479 0.0
O34 O 0.82062 0.31159 0.31485 0.0
O35 O 0.85649 0.3299 0.19444 0.0
C36 C -0.04364 0.28479 1.09602 0.0
O37 O -0.05023 0.30457 0.1714 0.0
O38 O 0.92714 0.25009 1.08251 0.0
C39 C 0.93095 0.25017 0.36218 0.0
Tb40 Tb 0.24043 0.25573 0.35163 0.0
C41 C 0.24911 0.1494 0.26927 0.0
Tb42 Tb 0.29901 0.2409 0.30304 0.0
O43 O 0.18436 0.23599 0.2663 0.0
O44 O 0.244 0.26558 0.21082 0.0
O45 O 0.22963 0.17334 0.33371 0.0
C46 C 0.3818 0.21732 0.26564 0.0
O47 O 0.2827 0.17265 0.23546 0.0
C48 C 0.31229 0.23517 0.48214 0.0
C49 C 0.30504 0.34654 0.30453 0.0
O50 O 0.34803 0.1876 0.25268 0.0
O51 O 0.36842 0.26015 0.29233 0.0
O52 O 0.33011 0.2669 0.42999 0.0
O53 O 0.28319 0.21233 0.43613 0.0
O54 O 0.31446 0.31307 0.24709 0.0
O55 O 0.27708 0.33063 0.36514 0.0
C56 C 0.17736 0.28543 0.46054 0.0
O57 O 0.18667 0.30677 0.38724 0.0
O58 O 0.2041 0.24827 0.47208 0.0
C59 C 0.20362 0.2491 0.19467 0.0
Tb60 Tb 0.89128 0.98493 0.37193 0.0
C61 C 0.88467 0.09467 0.30251 0.0
Tb62 Tb 0.83808 0.00255 0.3134 0.0
O63 O 0.89779 0.97772 0.23313 0.0
O64 O 0.89791 0.97854 0.23564 0.0
O65 O 0.89772 0.06932 0.3735 0.0
C66 C 0.76484 0.0246 0.22679 0.0
O67 O 0.85771 0.07062 0.25135 0.0
C68 C 0.81925 0.00866 0.48933 0.0
C69 C 0.82614 0.89568 0.34036 0.0
O70 O 0.78247 0.05414 0.28488 0.0
O71 O 0.78845 0.98494 0.21711 0.0
O72 O 0.79827 0.98163 0.43204 0.0
O73 O 0.85127 0.02844 0.45081 0.0
O74 O 0.81762 0.92751 0.27873 0.0
O75 O 0.85506 0.91198 0.40065 0.0
C76 C -0.02759 0.9693 0.43356 0.0
O77 O 0.93944 0.93939 0.44917 0.0
O78 O -0.04089 0.00754 0.3902 0.0
C79 C 0.92882 0.00669 0.20166 0.0
Tb80 Tb 0.58901 0.99434 1.06392 0.0
C81 C 0.57429 0.10041 1.09166 0.0
Tb82 Tb 0.64041 0.0125 1.12482 0.0
O83 O 0.54844 0.01257 0.18279 0.0
O84 O 0.60114 0.96591 0.20046 0.0
O85 O 0.56762 0.06903 1.02903 0.0
C86 C 0.72109 0.02579 0.19026 0.0
O87 O 0.60263 0.0843 1.15336 0.0
C88 C 0.68145 0.99337 0.95711 0.0
C89 C 0.63445 0.90276 1.05501 0.0
O90 O 0.68891 0.05686 0.20372 0.0
O91 O 0.7072 0.98814 1.14658 0.0
O92 O 0.64942 0.02115 0.98684 0.0
O93 O 0.64951 0.0203 0.98932 0.0
O94 O 0.6457 0.9279 1.127 0.0
O95 O 0.60938 0.92731 1.00093 0.0
C96 C 0.51653 0.97249 0.97479 0.0
O97 O 0.53387 0.94249 1.03276 0.0
O98 O 0.54007 0.0125 0.96632 0.0
C99 C 0.56883 0.9842 0.23912 0.0
Tb100 Tb 0.054 0.7626 1.05036 0.0
C101 C 0.06074 0.65504 1.06867 0.0
Tb102 Tb -0.00921 0.7427 1.11201 0.0
O103 O 0.08934 0.73553 0.17294 0.0
O104 O 0.0384 0.78497 0.18631 0.0
O105 O 0.07439 0.68888 1.01491 0.0
C106 C 0.92854 0.714 0.22324 0.0
O107 O 0.02851 0.66869 1.12263 0.0
C108 C -0.04431 0.75062 0.95479 0.0
C109 C -0.0028 0.8501 1.02721 0.0
O110 O 0.93471 0.69423 1.14765 0.0
O111 O -0.04188 0.7484 0.2367 0.0
O112 O 0.93551 0.76298 1.02551 0.0
O113 O -0.0043 0.73388 0.97221 0.0
O114 O -0.01789 0.82585 1.09682 0.0
O115 O 0.02783 0.82741 0.9841 0.0
C116 C 0.12993 0.79202 0.98243 0.0
O117 O 0.10906 0.81688 1.04143 0.0
O118 O 0.10767 0.75245 0.96112 0.0
C119 C 0.06913 0.76283 0.22906 0.0
Tb120 Tb 0.58644 0.7545 1.01398 0.0
C121 C 0.58319 0.64891 1.01476 0.0
Tb122 Tb 0.64568 0.74171 0.96661 0.0
O123 O 0.55607 0.72498 0.88889 0.0
O124 O 0.60104 0.78143 0.87958 0.0
O125 O 0.57005 0.68264 1.06859 0.0
C126 C 0.70948 0.71343 0.85861 0.0
O127 O 0.61274 0.66487 0.95713 0.0
C128 C 0.68147 0.74942 1.12416 0.0
C129 C 0.63394 0.84789 1.04679 0.0
O130 O 0.70012 0.69156 0.93135 0.0
O131 O 0.6826 0.75046 0.84724 0.0
O132 O 0.70064 0.76366 1.05306 0.0
O133 O 0.64169 0.73147 1.10703 0.0
O134 O 0.65443 0.82438 0.98323 0.0
O135 O 0.6009 0.82365 1.08061 0.0
C136 C 0.50379 0.77719 1.0527 0.0
O137 O 0.53695 0.8082 1.06089 0.0
O138 O 0.51769 0.73396 1.02924 0.0
C139 C 0.5728 0.75642 0.83495 0.0
Tb140 Tb 0.04288 0.99702 1.00916 0.0
C141 C 0.05636 0.10362 0.98187 0.0
Tb142 Tb -0.0092 0.01495 0.95051 0.0
O143 O 0.0835 0.01735 0.89107 0.0
O144 O 0.03031 0.971 0.87138 0.0
O145 O 0.06441 0.07177 1.04371 0.0
C146 C 0.90997 0.03122 0.88881 0.0
O147 O 0.02748 0.0875 0.92141 0.0
C148 C -0.04813 0.99374 1.11993 0.0
C149 C -0.00382 0.90505 1.01944 0.0
O150 O -0.05691 0.06085 0.87296 0.0
O151 O 0.92303 0.99278 0.93186 0.0
O152 O -0.01663 0.02235 1.08912 0.0
O153 O -0.01677 0.02153 1.08662 0.0
O154 O -0.01562 0.93051 0.94779 0.0
O155 O 0.02232 0.92927 1.07187 0.0
C156 C 0.11482 0.97331 1.09834 0.0
O157 O 0.09745 0.94443 1.03896 0.0
O158 O 0.09191 0.01354 1.10732 0.0
C159 C 0.0626 0.99055 0.83329 0.0
Tb160 Tb 0.23979 0.48268 0.71476 0.0
C161 C 0.24942 0.59161 0.78157 0.0
Tb162 Tb 0.30192 0.50531 0.75943 0.0
O163 O 0.1836 0.50064 0.79561 0.0
O164 O 0.24756 0.48656 0.85653 0.0
O165 O 0.23812 0.56701 0.70955 0.0
C166 C 0.38426 0.5258 0.81009 0.0
O167 O 0.27665 0.56727 0.83195 0.0
C168 C 0.30888 0.5095 0.5805 0.0
C169 C 0.30701 0.39515 0.76493 0.0
O170 O 0.35414 0.55974 0.79652 0.0
O171 O 0.36751 0.48162 0.80084 0.0
O172 O 0.31631 0.54649 0.63342 0.0
O173 O 0.2933 0.47442 0.6266 0.0
O174 O 0.33071 0.43333 0.78966 0.0
O175 O 0.26617 0.40455 0.73353 0.0
C176 C 0.17675 0.4633 0.59774 0.0
O177 O 0.18407 0.43659 0.66763 0.0
O178 O 0.20471 0.5002 0.59472 0.0
C179 C 0.20562 0.49849 0.86904 0.0
Tb180 Tb 0.89969 0.76118 0.70856 0.0
C181 C 0.88919 0.65134 0.78141 0.0
Tb182 Tb 0.83282 0.73621 0.76382 0.0
O183 O -0.04597 0.74224 0.79621 0.0
O184 O 0.89054 0.76239 0.84919 0.0
O185 O 0.89968 0.67643 0.70917 0.0
C186 C 0.75433 0.71843 0.83033 0.0
O187 O 0.86389 0.67555 0.83385 0.0
C188 C 0.82718 0.72718 0.58684 0.0
C189 C 0.8276 0.84735 0.73566 0.0
O190 O 0.77854 0.68422 0.79538 0.0
O191 O 0.77463 0.76111 0.83128 0.0
O192 O 0.81731 0.69192 0.64157 0.0
O193 O 0.84153 0.76343 0.63075 0.0
O194 O 0.80358 0.80998 0.76327 0.0
O195 O 0.86997 0.83836 0.71551 0.0
C196 C -0.04014 0.78214 0.59078 0.0
O197 O -0.04616 0.80829 0.66086 0.0
O198 O 0.93252 0.74459 0.5882 0.0
C199 C 0.93165 0.74857 0.86662 0.0
Tb200 Tb 0.24044 0.75398 0.86909 0.0
C201 C 0.24972 0.64648 0.78901 0.0
Tb202 Tb 0.30164 0.73706 0.81003 0.0
O203 O 0.18519 0.7335 0.78283 0.0
O204 O 0.24458 0.76489 0.72836 0.0
O205 O 0.23285 0.67056 0.85679 0.0
C206 C 0.38203 0.71627 0.75294 0.0
O207 O 0.28 0.6702 0.74568 0.0
C208 C 0.31702 0.72697 0.986 0.0
C209 C 0.30707 0.84245 0.83732 0.0
O210 O 0.34869 0.68529 0.74833 0.0
O211 O 0.36934 0.75859 0.78303 0.0
O212 O 0.33858 0.75511 0.93342 0.0
O213 O 0.28484 0.70825 0.94297 0.0
O214 O 0.312 0.81371 0.77009 0.0
O215 O 0.28138 0.8235 0.89828 0.0
C216 C 0.17682 0.79363 0.96768 0.0
O217 O 0.19094 0.8116 0.89495 0.0
O218 O 0.19958 0.75353 0.98491 0.0
C219 C 0.20458 0.74748 0.71188 0.0
Tb220 Tb 0.89525 0.48552 0.85341 0.0
C221 C 0.8877 0.59594 0.7871 0.0
Tb222 Tb 0.83257 0.51026 0.80667 0.0
O223 O -0.04713 0.49537 0.77393 0.0
O224 O 0.88742 0.49261 0.71198 0.0
O225 O 0.89868 0.57 0.8583 0.0
C226 C 0.75215 0.53112 0.74611 0.0
O227 O 0.86002 0.57272 0.73599 0.0
C228 C 0.82606 0.51134 0.98513 0.0
C229 C 0.82528 0.39957 0.80655 0.0
O230 O 0.77855 0.56429 0.78089 0.0
O231 O 0.77123 0.488 0.74258 0.0
O232 O 0.81891 0.54938 0.93382 0.0
O233 O 0.84066 0.47669 0.93795 0.0
O234 O 0.80167 0.43829 0.78431 0.0
O235 O 0.86692 0.40804 0.8349 0.0
C236 C -0.04095 0.46884 0.97011 0.0
O237 O -0.04936 0.44011 0.90357 0.0
O238 O 0.93084 0.5054 0.97174 0.0
C239 C 0.93047 0.49827 0.70125 0.0
Tb240 Tb 0.58381 0.48771 0.55284 0.0
C241 C 0.57928 0.59356 0.5511 0.0
Tb242 Tb 0.64435 0.50351 0.60391 0.0
O243 O 0.55434 0.51746 0.67657 0.0
O244 O 0.60064 0.46285 0.68868 0.0
O245 O 0.56606 0.55922 0.49714 0.0
C246 C 0.70735 0.53776 0.71511 0.0
O247 O 0.60991 0.57899 0.60952 0.0
C248 C 0.67903 0.49322 0.44795 0.0
C249 C 0.63427 0.39543 0.53003 0.0
O250 O 0.69965 0.55433 0.63694 0.0
O251 O 0.67915 0.5023 0.72962 0.0
O252 O 0.69882 0.48116 0.52112 0.0
O253 O 0.63898 0.51072 0.46226 0.0
O254 O 0.65474 0.42082 0.59329 0.0
O255 O 0.6005 0.41775 0.49281 0.0
C256 C 0.50123 0.46042 0.50954 0.0
O257 O 0.53576 0.43192 0.50088 0.0
O258 O 0.51374 0.50397 0.53572 0.0
C259 C 0.57261 0.48744 0.73221 0.0
Tb260 Tb 0.05371 0.26288 0.55508 0.0
C261 C 0.059 0.15188 0.58532 0.0
Tb262 Tb -0.01314 0.23813 0.60836 0.0
O263 O 0.06889 0.30719 0.67751 0.0
O264 O 0.04423 0.23588 0.68841 0.0
O265 O 0.08331 0.18917 0.55834 0.0
C266 C 0.92504 0.21646 0.7219 0.0
O267 O 0.01634 0.16093 0.60279 0.0
C268 C -0.0446 0.25187 0.45013 0.0
C269 C -0.00257 0.34788 0.53708 0.0
O270 O 0.93219 0.19061 0.65201 0.0
O271 O -0.04756 0.25388 0.72706 0.0
O272 O 0.9331 0.25856 0.52047 0.0
O273 O -0.00373 0.23714 0.46798 0.0
O274 O -0.01333 0.32276 0.60903 0.0
O275 O 0.0232 0.32391 0.4852 0.0
C276 C 0.13242 0.28054 0.48878 0.0
O277 O 0.10848 0.31459 0.52492 0.0
O278 O 0.11176 0.23806 0.48679 0.0
C279 C 0.05861 0.2721 0.73231 0.0
Tb280 Tb 0.58028 0.25566 0.50423 0.0
C281 C 0.57584 0.14481 0.47565 0.0
Tb282 Tb 0.64764 0.23164 0.44963 0.0
O283 O 0.56416 0.30155 0.38403 0.0
O284 O 0.5899 0.23088 0.37045 0.0
O285 O 0.55152 0.18163 0.50271 0.0
C286 C 0.70966 0.21034 0.33731 0.0
O287 O 0.61835 0.15425 0.45717 0.0
C288 C 0.67954 0.2463 0.60617 0.0
C289 C 0.63642 0.34053 0.52294 0.0
O290 O 0.70289 0.185 0.40834 0.0
O291 O 0.68131 0.24659 0.32959 0.0
O292 O 0.70198 0.25232 0.53565 0.0
O293 O 0.63857 0.23114 0.58969 0.0
O294 O 0.64745 0.31635 0.45056 0.0
O295 O 0.61076 0.31582 0.5746 0.0
C296 C 0.5016 0.26989 0.57171 0.0
O297 O 0.52627 0.30585 0.54241 0.0
O298 O 0.52167 0.22738 0.56716 0.0
C299 C 0.57515 0.26772 0.32818 0.0
Tb300 Tb 0.05124 0.48952 0.50788 0.0
C301 C 0.05755 0.5994 0.51276 0.0
Tb302 Tb -0.01055 0.51288 0.4619 0.0
O303 O 0.06491 0.44943 0.38164 0.0
O304 O 0.04327 0.52212 0.37585 0.0
O305 O 0.07988 0.56107 0.54136 0.0
C306 C 0.92606 0.52926 0.34462 0.0
O307 O 0.01742 0.5905 0.47753 0.0
C308 C -0.04584 0.50133 0.61429 0.0
C309 C -0.00203 0.40316 0.53066 0.0
O310 O 0.93397 0.55791 0.41146 0.0
O311 O -0.04579 0.49266 0.34341 0.0
O312 O 0.93182 0.50252 0.54136 0.0
O313 O -0.00295 0.50819 0.60341 0.0
O314 O -0.0134 0.4284 0.45896 0.0
O315 O 0.02548 0.42714 0.58094 0.0
C316 C 0.13351 0.46934 0.55906 0.0
O317 O 0.10299 0.4354 0.54804 0.0
O318 O 0.11727 0.51339 0.54642 0.0
C319 C 0.05834 0.48732 0.3298 0.0
Tb320 Tb 0.74001 0.98679 0.70586 0.0
C321 C 0.74636 0.0976 0.76976 0.0
Tb322 Tb 0.7953 0.00576 0.76296 0.0
O323 O 0.73633 0.9796 0.84495 0.0
O324 O 0.73618 0.98037 0.84232 0.0
O325 O 0.73147 0.07091 0.70186 0.0
C326 C 0.86593 0.03205 0.85403 0.0
O327 O 0.77528 0.07511 0.81906 0.0
C328 C 0.81206 0.00898 0.58648 0.0
C329 C 0.80764 0.89855 0.73437 0.0
O330 O 0.85215 0.05643 0.78529 0.0
O331 O 0.83996 0.99489 0.87112 0.0
O332 O 0.83425 0.98379 0.64483 0.0
O333 O 0.78048 0.02947 0.62493 0.0
O334 O 0.82184 0.93198 0.78902 0.0
O335 O 0.77421 0.91295 0.68186 0.0
C336 C 0.65931 0.96602 0.64697 0.0
O337 O 0.69386 0.93973 0.62776 0.0
O338 O 0.67069 0.00418 0.69245 0.0
C339 C 0.70567 0.00819 0.87743 0.0
Tb340 Tb 0.39355 0.25642 0.71634 0.0
C341 C 0.38333 0.14764 0.78892 0.0
Tb342 Tb 0.33055 0.23419 0.75811 0.0
O343 O 0.44906 0.24034 0.80253 0.0
O344 O 0.38475 0.25599 0.85676 0.0
O345 O 0.39549 0.17197 0.71747 0.0
C346 C 0.24649 0.21645 0.79664 0.0
O347 O 0.35472 0.17166 0.83434 0.0
C348 C 0.32525 0.22939 0.579 0.0
C349 C 0.32726 0.34413 0.76513 0.0
O350 O 0.2781 0.18376 0.80593 0.0
O351 O 0.26265 0.25866 0.77138 0.0
O352 O 0.31807 0.19214 0.6317 0.0
O353 O 0.34001 0.26462 0.62568 0.0
O354 O 0.3046 0.30617 0.79346 0.0
O355 O 0.36665 0.33447 0.73019 0.0
C356 C 0.45803 0.2739 0.60651 0.0
O357 O 0.44856 0.30301 0.67117 0.0
O358 O 0.43121 0.23591 0.60375 0.0
C359 C 0.42663 0.24464 0.87323 0.0
Tb360 Tb 0.7361 0.26123 0.85027 0.0
C361 C 0.74526 0.15271 0.77626 0.0
Tb362 Tb 0.79976 0.2381 0.80601 0.0
O363 O 0.68025 0.2442 0.76557 0.0
O364 O 0.74466 0.2601 0.71016 0.0
O365 O 0.73407 0.17664 0.84853 0.0
C366 C 0.88234 0.22024 0.76033 0.0
O367 O 0.77326 0.17725 0.72938 0.0
C368 C 0.80589 0.231 0.98424 0.0
C369 C 0.80441 0.34865 0.80507 0.0
O370 O 0.85136 0.18632 0.7614 0.0
O371 O 0.86636 0.26338 0.77951 0.0
O372 O 0.81346 0.19471 0.93063 0.0
O373 O 0.79085 0.26684 0.93894 0.0
O374 O 0.82706 0.31086 0.77721 0.0
O375 O 0.76419 0.33908 0.83688 0.0
C376 C 0.67176 0.28009 0.95886 0.0
O377 O 0.68003 0.30721 0.89049 0.0
O378 O 0.70003 0.24376 0.96659 0.0
C379 C 0.70274 0.24825 0.69479 0.0
Tb380 Tb 0.3922 0.98322 0.87248 0.0
C381 C 0.38463 0.09254 0.79809 0.0
Tb382 Tb 0.33973 -0.0002 0.80979 0.0
O383 O 0.40043 0.97315 0.735 0.0
O384 O 0.40053 0.97401 0.73738 0.0
O385 O 0.3962 0.068 0.87096 0.0
C386 C 0.2679 0.02143 0.71858 0.0
O387 O 0.36012 0.06699 0.74465 0.0
C388 C 0.31898 0.00748 0.98481 0.0
C389 C 0.32836 0.89314 0.84051 0.0
O390 O 0.285 0.05143 0.7765 0.0
O391 O 0.29098 0.98115 0.71206 0.0
O392 O 0.29887 0.97961 0.9276 0.0
O393 O 0.35095 0.02744 0.94672 0.0
O394 O 0.32054 0.92415 0.77722 0.0
O395 O 0.35594 0.91047 0.90237 0.0
C396 C 0.4729 0.97115 0.93786 0.0
O397 O 0.44081 0.93982 0.95226 0.0
O398 O 0.4589 0.00872 0.89354 0.0
C399 C 0.43199 0.00107 0.70309 0.0
Tb400 Tb 0.08799 0.99295 0.55959 0.0
C401 C 0.07851 0.10049 0.58703 0.0
Tb402 Tb 0.14334 0.01007 0.61831 0.0
O403 O 0.04926 0.01645 0.67743 0.0
O404 O 0.10119 0.96853 0.69787 0.0
O405 O 0.06414 0.06749 0.53178 0.0
C406 C 0.22479 0.02347 0.67951 0.0
O407 O 0.11084 0.08506 0.64148 0.0
C408 C 0.17886 0.98941 0.44749 0.0
C409 C 0.13551 0.90027 0.5508 0.0
O410 O 0.19245 0.05373 0.69608 0.0
O411 O 0.21084 0.98632 0.63437 0.0
O412 O 0.14815 0.01802 0.47961 0.0
O413 O 0.14824 0.01729 0.48217 0.0
O414 O 0.15 0.92587 0.62011 0.0
O415 O 0.10726 0.92376 0.50137 0.0
C416 C 0.0164 0.96885 0.46911 0.0
O417 O 0.03081 0.94286 0.53555 0.0
O418 O 0.04224 0.00639 0.45381 0.0
C419 C 0.07021 0.99023 0.7361 0.0
Tb420 Tb 0.55262 0.75427 0.55979 0.0
C421 C 0.55738 0.64388 0.55317 0.0
Tb422 Tb 0.48922 0.72949 0.60489 0.0
O423 O 0.56496 0.79759 0.68454 0.0
O424 O 0.5443 0.72462 0.69318 0.0
O425 O 0.57818 0.68246 0.52164 0.0
C426 C 0.42498 0.71108 0.71499 0.0
O427 O 0.51882 0.6524 0.59239 0.0
C428 C 0.45578 0.74238 0.44889 0.0
C429 C 0.4971 0.83861 0.52893 0.0
O430 O 0.43295 0.68361 0.64732 0.0
O431 O 0.4537 0.74721 0.72151 0.0
O432 O 0.4332 0.74529 0.51964 0.0
O433 O 0.4977 0.73109 0.46464 0.0
O434 O 0.48604 0.81418 0.60133 0.0
O435 O 0.52586 0.81508 0.48305 0.0
C436 C 0.63594 0.77493 0.52024 0.0
O437 O 0.60344 0.80653 0.51151 0.0
O438 O 0.62107 0.73197 0.54498 0.0
C439 C 0.55874 0.76073 0.7384 0.0
Tb440 Tb 0.08497 0.75928 0.50692 0.0
C441 C 0.07854 0.65003 0.51347 0.0
Tb442 Tb 0.14649 0.7374 0.46767 0.0
O443 O 0.07365 0.80258 0.38073 0.0
O444 O 0.09457 0.73015 0.37332 0.0
O445 O 0.05578 0.68814 0.53871 0.0
C446 C 0.21154 0.71697 0.36136 0.0
O447 O 0.11883 0.65938 0.48209 0.0
C448 C 0.18019 0.74857 0.62379 0.0
C449 C 0.1368 0.84529 0.54219 0.0
O450 O 0.20053 0.68891 0.42686 0.0
O451 O 0.18612 0.75593 0.35635 0.0
O452 O 0.20234 0.75411 0.55286 0.0
O453 O 0.13833 0.73676 0.60753 0.0
O454 O 0.14869 0.82204 0.46988 0.0
O455 O 0.10886 0.81985 0.58735 0.0
C456 C 0.00176 0.77871 0.54859 0.0
O457 O 0.03361 0.81165 0.55081 0.0
O458 O 0.01709 0.73565 0.52687 0.0
C459 C 0.08105 0.76624 0.32693 0.0
Tb460 Tb 0.54618 0.98643 0.51254 0.0
C461 C 0.55648 0.09342 0.47653 0.0
Tb462 Tb 0.48905 0.00416 0.45193 0.0
O463 O 0.58509 0.00814 0.39394 0.0
O464 O 0.53122 0.96197 0.37541 0.0
O465 O 0.57118 0.06115 0.53314 0.0
C466 C 0.40808 0.02287 0.39241 0.0
O467 O 0.52314 0.07796 0.42464 0.0
C468 C 0.45641 0.98479 0.62538 0.0
C469 C 0.49716 0.8938 0.52127 0.0
O470 O 0.44242 0.04956 0.3719 0.0
O471 O 0.41976 0.98538 0.43983 0.0
O472 O 0.4866 0.01329 0.59042 0.0
O473 O 0.48643 0.01249 0.58785 0.0
O474 O 0.48166 0.91979 0.45261 0.0
O475 O 0.52608 0.91697 0.56963 0.0
C476 C 0.61593 0.96367 0.60907 0.0
O477 O 0.60418 0.93869 0.53986 0.0
O478 O 0.58859 -0.00034 0.6235 0.0
C479 C 0.56244 0.98311 0.33627 0.0
Tb480 Tb 0.74118 0.48479 0.20627 0.0
C481 C 0.75296 0.5919 0.28292 0.0
Tb482 Tb 0.80022 0.49927 0.25906 0.0
O483 O 0.68542 0.50622 0.28739 0.0
O484 O 0.74457 0.47651 0.34803 0.0
O485 O 0.73291 0.56777 0.21781 0.0
C486 C 0.88274 0.52287 0.30602 0.0
O487 O 0.78498 0.56799 0.32251 0.0
C488 C 0.81323 0.5048 1.08087 0.0
C489 C 0.80546 0.39436 0.25663 0.0
O490 O 0.84939 0.55341 0.31082 0.0
O491 O 0.86918 0.47942 0.28121 0.0
O492 O 0.83134 0.47337 1.13432 0.0
O493 O 0.78447 0.52773 1.12497 0.0
O494 O 0.81473 0.42726 0.31579 0.0
O495 O 0.77735 0.41019 0.19457 0.0
C496 C 0.67842 0.45528 1.09136 0.0
O497 O 0.68463 0.43666 0.16865 0.0
O498 O 0.70828 0.48922 1.07928 0.0
C499 C 0.70439 0.49367 0.36107 0.0
Tb500 Tb 0.39984 0.75884 0.20383 0.0
C501 C 0.38925 0.64898 0.27548 0.0
Tb502 Tb 0.33322 0.73392 0.25838 0.0
O503 O 0.45481 0.73921 0.28938 0.0
O504 O 0.39129 0.75837 0.3442 0.0
O505 O 0.40004 0.67404 0.20339 0.0
C506 C 0.25579 0.71977 0.33013 0.0
O507 O 0.36366 0.67301 0.32748 0.0
C508 C 0.32725 0.72377 1.08241 0.0
C509 C 0.32672 0.84426 0.22627 0.0
O510 O 0.27773 0.68445 0.29267 0.0
O511 O 0.27769 0.76143 0.33035 0.0
O512 O 0.31675 0.68902 1.13778 0.0
O513 O 0.34211 0.76025 1.12503 0.0
O514 O 0.30253 0.80673 0.25191 0.0
O515 O 0.36972 0.83579 0.21092 0.0
C516 C 0.46096 0.78186 1.09002 0.0
O517 O 0.45434 0.80675 0.16115 0.0
O518 O 0.4331 0.74491 1.08333 0.0
C519 C 0.43251 0.74428 0.36017 0.0
Tb520 Tb 0.74113 0.75293 0.37117 0.0
C521 C 0.7531 0.6465 0.29124 0.0
Tb522 Tb 0.80382 0.73911 0.31303 0.0
O523 O 0.68722 0.73193 0.2822 0.0
O524 O 0.7461 0.76567 0.23049 0.0
O525 O 0.73364 0.67014 0.35616 0.0
C526 C 0.88543 0.71816 0.26121 0.0
O527 O 0.78478 0.67033 0.25192 0.0
C528 C 0.81753 0.73054 0.48983 0.0
C529 C 0.80527 0.84473 0.33624 0.0
O530 O 0.85111 0.68951 0.24699 0.0
O531 O 0.87317 0.75896 0.2976 0.0
O532 O 0.83749 0.7609 0.43851 0.0
O533 O 0.78759 0.70913 0.44443 0.0
O534 O 0.81326 0.81529 0.27118 0.0
O535 O 0.77825 0.8259 0.39557 0.0
C536 C 0.67913 0.77925 0.4834 0.0
O537 O 0.68591 0.80121 0.40946 0.0
O538 O 0.70733 0.74335 0.49378 0.0
C539 C 0.7067 0.74697 0.21197 0.0
Tb540 Tb 0.39506 0.48535 0.35838 0.0
C541 C 0.38718 0.59387 0.28209 0.0
Tb542 Tb 0.33585 0.50248 0.30562 0.0
O543 O 0.45156 0.50578 0.27804 0.0
O544 O 0.39103 0.48 0.21616 0.0
O545 O 0.40579 0.56836 0.34767 0.0
C546 C 0.25424 0.53073 0.26025 0.0
O547 O 0.35423 0.57143 0.24234 0.0
C548 C 0.32268 0.5042 0.48448 0.0
C549 C 0.32874 0.39644 0.30568 0.0
O550 O 0.28869 0.56009 0.25778 0.0
O551 O 0.26634 0.48601 0.28083 0.0
O552 O 0.30406 0.47442 0.42903 0.0
O553 O 0.35214 0.52746 0.44144 0.0
O554 O 0.31886 0.43088 0.24889 0.0
O555 O 0.358 0.41073 0.36692 0.0
C556 C 0.45757 0.45335 0.47193 0.0
O557 O 0.45166 0.43668 0.39347 0.0
O558 O 0.42752 0.48653 0.48619 0.0
C559 C 0.43191 0.49579 0.20392 0.0
Tb560 Tb 0.0851 0.49855 1.05709 0.0
C561 C 0.08209 0.6044 1.06768 0.0
Tb562 Tb 0.14611 0.51292 1.11264 0.0
O563 O 0.05323 0.52433 0.18052 0.0
O564 O 0.10096 0.47079 0.1915 0.0
O565 O 0.07176 0.57249 1.00725 0.0
C566 C 0.21046 0.54009 0.2254 0.0
O567 O 0.1111 0.58778 1.12745 0.0
C568 C 0.18151 0.5018 0.95697 0.0
C569 C 0.13326 0.4061 1.03524 0.0
O570 O 0.20421 0.55922 1.14849 0.0
O571 O 0.17968 0.50732 0.23879 0.0
O572 O 0.201 0.49027 1.03058 0.0
O573 O 0.14176 0.5202 0.97041 0.0
O574 O 0.15238 0.42977 1.10199 0.0
O575 O 0.10213 0.43041 0.99342 0.0
C576 C 0.00287 0.4759 1.00642 0.0
O577 O 0.03525 0.44389 1.00903 0.0
O578 O 0.01741 0.51992 1.02533 0.0
C579 C 0.07177 0.49366 0.23462 0.0
Tb580 Tb 0.54868 0.25628 1.05602 0.0
C581 C 0.55218 0.15064 1.08646 0.0
Tb582 Tb 0.48707 0.24073 1.11886 0.0
O583 O 0.58551 0.23674 0.17917 0.0
O584 O 0.53385 0.28579 0.18816 0.0
O585 O 0.55797 0.17937 1.01887 0.0
C586 C 0.4253 0.2124 0.23078 0.0
O587 O 0.52602 0.16951 1.14657 0.0
C588 C 0.45093 0.24598 0.96138 0.0
C589 C 0.49789 0.3479 1.0351 0.0
O590 O 0.43206 0.19145 1.15644 0.0
O591 O 0.45375 0.24817 0.24213 0.0
O592 O 0.43189 0.26086 1.03183 0.0
O593 O 0.49047 0.22785 0.97873 0.0
O594 O 0.48101 0.32405 1.10349 0.0
O595 O 0.52749 0.32369 0.99137 0.0
C596 C 0.62885 0.27555 0.99677 0.0
O597 O 0.59606 0.307 0.99146 0.0
O598 O 0.61573 0.2336 1.02859 0.0
C599 C 0.56521 0.26569 0.23155 0.0
Tb600 Tb 0.08111 0.25975 1.00667 0.0
C601 C 0.07803 0.15414 0.98528 0.0
Tb602 Tb 0.14327 0.24454 0.94834 0.0
O603 O 0.04745 0.23857 0.88067 0.0
O604 O 0.0978 0.28968 0.87531 0.0
O605 O 0.0709 0.18395 1.05018 0.0
C606 C 0.20367 0.21459 0.83545 0.0
O607 O 0.10479 0.17238 0.92507 0.0
C608 C 0.17827 0.25122 1.10695 0.0
C609 C 0.13252 0.35154 1.02727 0.0
O610 O 0.19704 0.19409 0.91069 0.0
O611 O 0.17662 0.25156 0.82471 0.0
O612 O 0.19777 0.26538 1.03615 0.0
O613 O 0.13873 0.23268 1.08904 0.0
O614 O 0.15159 0.32737 0.96237 0.0
O615 O 0.10072 0.32833 1.06721 0.0
C616 C -0.00049 0.28101 1.05809 0.0
O617 O 0.03404 0.30914 1.07388 0.0
O618 O 0.01154 0.24062 1.0201 0.0
C619 C 0.06771 0.26882 0.82957 0.0
Tb620 Tb 0.55274 0.4883 1.00787 0.0
C621 C 0.56136 0.59833 1.01134 0.0
Tb622 Tb 0.49161 0.51269 0.96178 0.0
O623 O 0.56613 0.44646 0.88276 0.0
O624 O 0.54533 0.51916 0.87392 0.0
O625 O 0.58254 0.55949 1.04162 0.0
C626 C 0.42813 0.5324 0.84576 0.0
O627 O 0.52119 0.59007 0.97554 0.0
C628 C 0.4566 0.49802 1.11636 0.0
C629 C 0.49856 0.40292 1.02806 0.0
O630 O 0.43648 0.55949 0.91445 0.0
O631 O 0.45576 0.49543 0.84269 0.0
O632 O 0.43485 0.49616 1.04272 0.0
O633 O 0.4988 0.50904 1.10389 0.0
O634 O 0.48815 0.42833 0.95611 0.0
O635 O 0.52549 0.42663 1.07987 0.0
C636 C 0.63454 0.46398 1.05693 0.0
O637 O 0.6025 0.43174 1.0475 0.0
O638 O 0.61994 0.50889 1.04515 0.0
C639 C 0.55987 0.48344 0.82892 0.0
loop_
_geom_bond_atom_site_label_1
_geom_bond_atom_site_label_2
_geom_bond_distance
_geom_bond_site_symmetry_2
_ccdc_geom_bond_type
Tb0 O3 2.453 . S
Tb0 O4 2.597 . S
Tb0 O5 2.374 1_565 S
Tb0 O13 2.341 1_564 S
Tb0 O15 2.353 . S
Tb0 O17 2.427 1_554 S
Tb0 O18 2.513 1_564 S
C1 O5 1.251 . S
C1 O7 1.263 . S
Tb2 O4 2.342 1_545 S
Tb2 O7 2.353 . S
Tb2 O10 2.427 . S
Tb2 O11 2.513 1_545 S
Tb2 O12 2.453 1_554 S
Tb2 O13 2.598 1_554 S
Tb2 O14 2.374 1_545 S
O3 Tb0 2.453 . S
O3 C19 1.245 . S
O4 Tb0 2.597 . S
O4 Tb2 2.342 1_565 S
O4 C19 1.260 . S
O5 Tb0 2.374 1_545 S
O5 C1 1.251 . S
C6 O10 1.275 . S
C6 O11 1.246 1_545 S
O7 C1 1.263 . S
O7 Tb2 2.353 . S
C8 O12 1.245 . S
C8 O13 1.261 . S
C9 O14 1.250 . S
C9 O15 1.263 . S
O10 Tb2 2.427 . S
O10 C6 1.275 . S
O11 Tb2 2.513 1_565 S
O11 C6 1.246 1_565 S
O12 Tb2 2.453 1_556 S
O12 C8 1.245 . S
O13 Tb0 2.341 1_546 S
O13 Tb2 2.598 1_556 S
O13 C8 1.261 . S
O14 Tb2 2.374 1_565 S
O14 C9 1.250 . S
O15 Tb0 2.353 . S
O15 C9 1.263 . S
C16 O17 1.275 . S
C16 O18 1.246 1_565 S
O17 Tb0 2.427 1_556 S
O17 C16 1.275 . S
O18 Tb0 2.513 1_546 S
O18 C16 1.246 1_545 S
C19 O3 1.245 . S
C19 O4 1.260 . S
Tb20 O23 2.453 . S
Tb20 O24 2.596 . S
Tb20 O25 2.374 . S
Tb20 O33 2.343 1_554 S
Tb20 O35 2.353 . S
Tb20 O37 2.427 1_654 S
Tb20 O38 2.513 1_654 S
C21 O25 1.251 . S
C21 O27 1.263 . S
Tb22 O24 2.343 . S
Tb22 O27 2.353 . S
Tb22 O30 2.427 . S
Tb22 O31 2.513 . S
Tb22 O32 2.453 1_554 S
Tb22 O33 2.596 1_554 S
Tb22 O34 2.374 . S
O23 Tb20 2.453 . S
O23 C39 1.245 . S
O24 Tb20 2.596 . S
O24 Tb22 2.343 . S
O24 C39 1.259 . S
O25 Tb20 2.374 . S
O25 C21 1.251 . S
C26 O30 1.275 . S
C26 O31 1.246 . S
O27 C21 1.263 . S
O27 Tb22 2.353 . S
C28 O32 1.245 . S
C28 O33 1.259 . S
C29 O34 1.250 . S
C29 O35 1.263 . S
O30 Tb22 2.427 . S
O30 C26 1.275 . S
O31 Tb22 2.513 . S
O31 C26 1.246 . S
O32 Tb22 2.453 1_556 S
O32 C28 1.245 . S
O33 Tb20 2.343 1_556 S
O33 Tb22 2.596 1_556 S
O33 C28 1.259 . S
O34 Tb22 2.374 . S
O34 C29 1.250 . S
O35 Tb20 2.353 . S
O35 C29 1.263 . S
C36 O37 1.275 . S
C36 O38 1.246 . S
O37 Tb20 2.427 1_456 S
O37 C36 1.275 . S
O38 Tb20 2.513 1_456 S
O38 C36 1.246 . S
C39 O23 1.245 . S
C39 O24 1.259 . S
Tb40 O43 2.453 . S
Tb40 O44 2.596 . S
Tb40 O45 2.374 . S
Tb40 O53 2.343 . S
Tb40 O55 2.353 . S
Tb40 O57 2.427 . S
Tb40 O58 2.513 . S
C41 O45 1.251 . S
C41 O47 1.263 . S
Tb42 O44 2.343 . S
Tb42 O47 2.353 . S
Tb42 O50 2.427 . S
Tb42 O51 2.513 . S
Tb42 O52 2.453 . S
Tb42 O53 2.596 . S
Tb42 O54 2.374 . S
O43 Tb40 2.453 . S
O43 C59 1.245 . S
O44 Tb40 2.596 . S
O44 Tb42 2.343 . S
O44 C59 1.259 . S
O45 Tb40 2.374 . S
O45 C41 1.251 . S
C46 O50 1.275 . S
C46 O51 1.246 . S
O47 C41 1.263 . S
O47 Tb42 2.353 . S
C48 O52 1.245 . S
C48 O53 1.259 . S
C49 O54 1.250 . S
C49 O55 1.263 . S
O50 Tb42 2.427 . S
O50 C46 1.275 . S
O51 Tb42 2.513 . S
O51 C46 1.246 . S
O52 Tb42 2.453 . S
O52 C48 1.245 . S
O53 Tb40 2.343 . S
O53 Tb42 2.596 . S
O53 C48 1.259 . S
O54 Tb42 2.374 . S
O54 C49 1.250 . S
O55 Tb40 2.353 . S
O55 C49 1.263 . S
C56 O57 1.275 . S
C56 O58 1.246 . S
O57 Tb40 2.427 . S
O57 C56 1.275 . S
O58 Tb40 2.513 . S
O58 C56 1.246 . S
C59 O43 1.245 . S
C59 O44 1.259 . S
Tb60 O63 2.453 . S
Tb60 O64 2.597 . S
Tb60 O65 2.374 1_565 S
Tb60 O73 2.341 1_565 S
Tb60 O75 2.353 . S
Tb60 O77 2.427 1_655 S
Tb60 O78 2.513 1_665 S
C61 O65 1.251 . S
C61 O67 1.263 . S
Tb62 O64 2.342 1_545 S
Tb62 O67 2.353 . S
Tb62 O70 2.427 . S
Tb62 O71 2.513 1_545 S
Tb62 O72 2.453 . S
Tb62 O73 2.598 . S
Tb62 O74 2.374 1_545 S
O63 Tb60 2.453 . S
O63 C79 1.245 . S
O64 Tb60 2.597 . S
O64 Tb62 2.342 1_565 S
O64 C79 1.260 . S
O65 Tb60 2.374 1_545 S
O65 C61 1.251 . S
C66 O70 1.275 . S
C66 O71 1.246 1_545 S
O67 C61 1.263 . S
O67 Tb62 2.353 . S
C68 O72 1.245 . S
C68 O73 1.261 . S
C69 O74 1.250 . S
C69 O75 1.263 . S
O70 Tb62 2.427 . S
O70 C66 1.275 . S
O71 Tb62 2.513 1_565 S
O71 C66 1.246 1_565 S
O72 Tb62 2.453 . S
O72 C68 1.245 . S
O73 Tb60 2.341 1_545 S
O73 Tb62 2.598 . S
O73 C68 1.261 . S
O74 Tb62 2.374 1_565 S
O74 C69 1.250 . S
O75 Tb60 2.353 . S
O75 C69 1.263 . S
C76 O77 1.275 . S
C76 O78 1.246 1_565 S
O77 Tb60 2.427 1_455 S
O77 C76 1.275 . S
O78 Tb60 2.513 1_445 S
O78 C76 1.246 1_545 S
C79 O63 1.245 . S
C79 O64 1.260 . S
Tb80 O83 2.453 1_556 S
Tb80 O84 2.598 1_556 S
Tb80 O85 2.374 1_565 S
Tb80 O93 2.342 1_565 S
Tb80 O95 2.353 . S
Tb80 O97 2.427 . S
Tb80 O98 2.513 1_565 S
C81 O85 1.251 . S
C81 O87 1.263 . S
Tb82 O84 2.341 1_546 S
Tb82 O87 2.353 . S
Tb82 O90 2.427 1_556 S
Tb82 O91 2.513 1_546 S
Tb82 O92 2.453 . S
Tb82 O93 2.597 . S
Tb82 O94 2.374 1_545 S
O83 Tb80 2.453 1_554 S
O83 C99 1.245 . S
O84 Tb80 2.598 1_554 S
O84 Tb82 2.341 1_564 S
O84 C99 1.261 . S
O85 Tb80 2.374 1_545 S
O85 C81 1.251 . S
C86 O90 1.275 . S
C86 O91 1.246 1_545 S
O87 C81 1.263 . S
O87 Tb82 2.353 . S
C88 O92 1.245 . S
C88 O93 1.260 . S
C89 O94 1.250 . S
C89 O95 1.263 . S
O90 Tb82 2.427 1_554 S
O90 C86 1.275 . S
O91 Tb82 2.513 1_564 S
O91 C86 1.246 1_565 S
O92 Tb82 2.453 . S
O92 C88 1.245 . S
O93 Tb80 2.342 1_545 S
O93 Tb82 2.597 . S
O93 C88 1.260 . S
O94 Tb82 2.374 1_565 S
O94 C89 1.250 . S
O95 Tb80 2.353 . S
O95 C89 1.263 . S
C96 O97 1.275 . S
C96 O98 1.246 1_565 S
O97 Tb80 2.427 . S
O97 C96 1.275 . S
O98 Tb80 2.513 1_545 S
O98 C96 1.246 1_545 S
C99 O83 1.245 . S
C99 O84 1.261 . S
Tb100 O103 2.453 1_556 S
Tb100 O104 2.596 1_556 S
Tb100 O105 2.374 . S
Tb100 O113 2.343 . S
Tb100 O115 2.353 . S
Tb100 O117 2.427 . S
Tb100 O118 2.513 . S
C101 O105 1.251 . S
C101 O107 1.263 . S
Tb102 O104 2.343 1_556 S
Tb102 O107 2.353 . S
Tb102 O110 2.427 1_456 S
Tb102 O111 2.513 1_456 S
Tb102 O112 2.453 . S
Tb102 O113 2.596 . S
Tb102 O114 2.374 . S
O103 Tb100 2.453 1_554 S
O103 C119 1.245 . S
O104 Tb100 2.596 1_554 S
O104 Tb102 2.343 1_554 S
O104 C119 1.259 . S
O105 Tb100 2.374 . S
O105 C101 1.251 . S
C106 O110 1.275 . S
C106 O111 1.246 . S
O107 C101 1.263 . S
O107 Tb102 2.353 . S
C108 O112 1.245 . S
C108 O113 1.259 . S
C109 O114 1.250 . S
C109 O115 1.263 . S
O110 Tb102 2.427 1_654 S
O110 C106 1.275 . S
O111 Tb102 2.513 1_654 S
O111 C106 1.246 . S
O112 Tb102 2.453 . S
O112 C108 1.245 . S
O113 Tb100 2.343 . S
O113 Tb102 2.596 . S
O113 C108 1.259 . S
O114 Tb102 2.374 . S
O114 C109 1.250 . S
O115 Tb100 2.353 . S
O115 C109 1.263 . S
C116 O117 1.275 . S
C116 O118 1.246 . S
O117 Tb100 2.427 . S
O117 C116 1.275 . S
O118 Tb100 2.513 . S
O118 C116 1.246 . S
C119 O103 1.245 . S
C119 O104 1.259 . S
Tb120 O123 2.453 . S
Tb120 O124 2.596 . S
Tb120 O125 2.374 . S
Tb120 O133 2.343 . S
Tb120 O135 2.353 . S
Tb120 O137 2.427 . S
Tb120 O138 2.513 . S
C121 O125 1.251 . S
C121 O127 1.263 . S
Tb122 O124 2.343 . S
Tb122 O127 2.353 . S
Tb122 O130 2.427 . S
Tb122 O131 2.513 . S
Tb122 O132 2.453 . S
Tb122 O133 2.596 . S
Tb122 O134 2.374 . S
O123 Tb120 2.453 . S
O123 C139 1.245 . S
O124 Tb120 2.596 . S
O124 Tb122 2.343 . S
O124 C139 1.259 . S
O125 Tb120 2.374 . S
O125 C121 1.251 . S
C126 O130 1.275 . S
C126 O131 1.246 . S
O127 C121 1.263 . S
O127 Tb122 2.353 . S
C128 O132 1.245 . S
C128 O133 1.259 . S
C129 O134 1.250 . S
C129 O135 1.263 . S
O130 Tb122 2.427 . S
O130 C126 1.275 . S
O131 Tb122 2.513 . S
O131 C126 1.246 . S
O132 Tb122 2.453 . S
O132 C128 1.245 . S
O133 Tb120 2.343 . S
O133 Tb122 2.596 . S
O133 C128 1.259 . S
O134 Tb122 2.374 . S
O134 C129 1.250 . S
O135 Tb120 2.353 . S
O135 C129 1.263 . S
C136 O137 1.275 . S
C136 O138 1.246 . S
O137 Tb120 2.427 . S
O137 C136 1.275 . S
O138 Tb120 2.513 . S
O138 C136 1.246 . S
C139 O123 1.245 . S
C139 O124 1.259 . S
Tb140 O143 2.453 . S
Tb140 O144 2.598 . S
Tb140 O145 2.374 1_565 S
Tb140 O153 2.342 1_565 S
Tb140 O155 2.353 . S
Tb140 O157 2.427 . S
Tb140 O158 2.513 1_565 S
C141 O145 1.251 . S
C141 O147 1.263 . S
Tb142 O144 2.341 1_545 S
Tb142 O147 2.353 . S
Tb142 O150 2.427 1_455 S
Tb142 O151 2.513 1_445 S
Tb142 O152 2.453 . S
Tb142 O153 2.597 . S
Tb142 O154 2.374 1_545 S
O143 Tb140 2.453 . S
O143 C159 1.245 . S
O144 Tb140 2.598 . S
O144 Tb142 2.341 1_565 S
O144 C159 1.261 . S
O145 Tb140 2.374 1_545 S
O145 C141 1.251 . S
C146 O150 1.275 . S
C146 O151 1.246 1_545 S
O147 C141 1.263 . S
O147 Tb142 2.353 . S
C148 O152 1.245 . S
C148 O153 1.260 . S
C149 O154 1.250 . S
C149 O155 1.263 . S
O150 Tb142 2.427 1_655 S
O150 C146 1.275 . S
O151 Tb142 2.513 1_665 S
O151 C146 1.246 1_565 S
O152 Tb142 2.453 . S
O152 C148 1.245 . S
O153 Tb140 2.342 1_545 S
O153 Tb142 2.597 . S
O153 C148 1.260 . S
O154 Tb142 2.374 1_565 S
O154 C149 1.250 . S
O155 Tb140 2.353 . S
O155 C149 1.263 . S
C156 O157 1.275 . S
C156 O158 1.246 1_565 S
O157 Tb140 2.427 . S
O157 C156 1.275 . S
O158 Tb140 2.513 1_545 S
O158 C156 1.246 1_545 S
C159 O143 1.245 . S
C159 O144 1.261 . S
Tb160 O163 2.453 . S
Tb160 O164 2.596 . S
Tb160 O165 2.374 . S
Tb160 O173 2.343 . S
Tb160 O175 2.353 . S
Tb160 O177 2.427 . S
Tb160 O178 2.513 . S
C161 O165 1.251 . S
C161 O167 1.263 . S
Tb162 O164 2.343 . S
Tb162 O167 2.353 . S
Tb162 O170 2.427 . S
Tb162 O171 2.513 . S
Tb162 O172 2.453 . S
Tb162 O173 2.596 . S
Tb162 O174 2.374 . S
O163 Tb160 2.453 . S
O163 C179 1.245 . S
O164 Tb160 2.596 . S
O164 Tb162 2.343 . S
O164 C179 1.259 . S
O165 Tb160 2.374 . S
O165 C161 1.251 . S
C166 O170 1.275 . S
C166 O171 1.246 . S
O167 C161 1.263 . S
O167 Tb162 2.353 . S
C168 O172 1.245 . S
C168 O173 1.259 . S
C169 O174 1.250 . S
C169 O175 1.263 . S
O170 Tb162 2.427 . S
O170 C166 1.275 . S
O171 Tb162 2.513 . S
O171 C166 1.246 . S
O172 Tb162 2.453 . S
O172 C168 1.245 . S
O173 Tb160 2.343 . S
O173 Tb162 2.596 . S
O173 C168 1.259 . S
O174 Tb162 2.374 . S
O174 C169 1.250 . S
O175 Tb160 2.353 . S
O175 C169 1.263 . S
C176 O177 1.275 . S
C176 O178 1.246 . S
O177 Tb160 2.427 . S
O177 C176 1.275 . S
O178 Tb160 2.513 . S
O178 C176 1.246 . S
C179 O163 1.245 . S
C179 O164 1.259 . S
Tb180 O183 2.453 . S
Tb180 O184 2.596 . S
Tb180 O185 2.374 . S
Tb180 O193 2.343 . S
Tb180 O195 2.353 . S
Tb180 O197 2.427 1_655 S
Tb180 O198 2.513 1_655 S
C181 O185 1.251 . S
C181 O187 1.263 . S
Tb182 O184 2.343 . S
Tb182 O187 2.353 . S
Tb182 O190 2.427 . S
Tb182 O191 2.513 . S
Tb182 O192 2.453 . S
Tb182 O193 2.596 . S
Tb182 O194 2.374 . S
O183 Tb180 2.453 . S
O183 C199 1.245 . S
O184 Tb180 2.596 . S
O184 Tb182 2.343 . S
O184 C199 1.259 . S
O185 Tb180 2.374 . S
O185 C181 1.251 . S
C186 O190 1.275 . S
C186 O191 1.246 . S
O187 C181 1.263 . S
O187 Tb182 2.353 . S
C188 O192 1.245 . S
C188 O193 1.259 . S
C189 O194 1.250 . S
C189 O195 1.263 . S
O190 Tb182 2.427 . S
O190 C186 1.275 . S
O191 Tb182 2.513 . S
O191 C186 1.246 . S
O192 Tb182 2.453 . S
O192 C188 1.245 . S
O193 Tb180 2.343 . S
O193 Tb182 2.596 . S
O193 C188 1.259 . S
O194 Tb182 2.374 . S
O194 C189 1.250 . S
O195 Tb180 2.353 . S
O195 C189 1.263 . S
C196 O197 1.275 . S
C196 O198 1.246 . S
O197 Tb180 2.427 1_455 S
O197 C196 1.275 . S
O198 Tb180 2.513 1_455 S
O198 C196 1.246 . S
C199 O183 1.245 . S
C199 O184 1.259 . S
Tb200 O203 2.453 . S
Tb200 O204 2.596 . S
Tb200 O205 2.374 . S
Tb200 O213 2.343 . S
Tb200 O215 2.353 . S
Tb200 O217 2.427 . S
Tb200 O218 2.513 . S
C201 O205 1.251 . S
C201 O207 1.263 . S
Tb202 O204 2.343 . S
Tb202 O207 2.353 . S
Tb202 O210 2.427 . S
Tb202 O211 2.513 . S
Tb202 O212 2.453 . S
Tb202 O213 2.596 . S
Tb202 O214 2.374 . S
O203 Tb200 2.453 . S
O203 C219 1.245 . S
O204 Tb200 2.596 . S
O204 Tb202 2.343 . S
O204 C219 1.259 . S
O205 Tb200 2.374 . S
O205 C201 1.251 . S
C206 O210 1.275 . S
C206 O211 1.246 . S
O207 C201 1.263 . S
O207 Tb202 2.353 . S
C208 O212 1.245 . S
C208 O213 1.259 . S
C209 O214 1.250 . S
C209 O215 1.263 . S
O210 Tb202 2.427 . S
O210 C206 1.275 . S
O211 Tb202 2.513 . S
O211 C206 1.246 . S
O212 Tb202 2.453 . S
O212 C208 1.245 . S
O213 Tb200 2.343 . S
O213 Tb202 2.596 . S
O213 C208 1.259 . S
O214 Tb202 2.374 . S
O214 C209 1.250 . S
O215 Tb200 2.353 . S
O215 C209 1.263 . S
C216 O217 1.275 . S
C216 O218 1.246 . S
O217 Tb200 2.427 . S
O217 C216 1.275 . S
O218 Tb200 2.513 . S
O218 C216 1.246 . S
C219 O203 1.245 . S
C219 O204 1.259 . S
Tb220 O223 2.453 . S
Tb220 O224 2.596 . S
Tb220 O225 2.374 . S
Tb220 O233 2.343 . S
Tb220 O235 2.353 . S
Tb220 O237 2.427 1_655 S
Tb220 O238 2.513 1_655 S
C221 O225 1.251 . S
C221 O227 1.263 . S
Tb222 O224 2.343 . S
Tb222 O227 2.353 . S
Tb222 O230 2.427 . S
Tb222 O231 2.513 . S
Tb222 O232 2.453 . S
Tb222 O233 2.596 . S
Tb222 O234 2.374 . S
O223 Tb220 2.453 . S
O223 C239 1.245 . S
O224 Tb220 2.596 . S
O224 Tb222 2.343 . S
O224 C239 1.259 . S
O225 Tb220 2.374 . S
O225 C221 1.251 . S
C226 O230 1.275 . S
C226 O231 1.246 . S
O227 C221 1.263 . S
O227 Tb222 2.353 . S
C228 O232 1.245 . S
C228 O233 1.259 . S
C229 O234 1.250 . S
C229 O235 1.263 . S
O230 Tb222 2.427 . S
O230 C226 1.275 . S
O231 Tb222 2.513 . S
O231 C226 1.246 . S
O232 Tb222 2.453 . S
O232 C228 1.245 . S
O233 Tb220 2.343 . S
O233 Tb222 2.596 . S
O233 C228 1.259 . S
O234 Tb222 2.374 . S
O234 C229 1.250 . S
O235 Tb220 2.353 . S
O235 C229 1.263 . S
C236 O237 1.275 . S
C236 O238 1.246 . S
O237 Tb220 2.427 1_455 S
O237 C236 1.275 . S
O238 Tb220 2.513 1_455 S
O238 C236 1.246 . S
C239 O223 1.245 . S
C239 O224 1.259 . S
Tb240 O243 2.453 . S
Tb240 O244 2.596 . S
Tb240 O245 2.374 . S
Tb240 O253 2.343 . S
Tb240 O255 2.353 . S
Tb240 O257 2.427 . S
Tb240 O258 2.513 . S
C241 O245 1.251 . S
C241 O247 1.263 . S
Tb242 O244 2.343 . S
Tb242 O247 2.353 . S
Tb242 O250 2.427 . S
Tb242 O251 2.513 . S
Tb242 O252 2.453 . S
Tb242 O253 2.596 . S
Tb242 O254 2.374 . S
O243 Tb240 2.453 . S
O243 C259 1.245 . S
O244 Tb240 2.596 . S
O244 Tb242 2.343 . S
O244 C259 1.259 . S
O245 Tb240 2.374 . S
O245 C241 1.251 . S
C246 O250 1.275 . S
C246 O251 1.246 . S
O247 C241 1.263 . S
O247 Tb242 2.353 . S
C248 O252 1.245 . S
C248 O253 1.259 . S
C249 O254 1.250 . S
C249 O255 1.263 . S
O250 Tb242 2.427 . S
O250 C246 1.275 . S
O251 Tb242 2.513 . S
O251 C246 1.246 . S
O252 Tb242 2.453 . S
O252 C248 1.245 . S
O253 Tb240 2.343 . S
O253 Tb242 2.596 . S
O253 C248 1.259 . S
O254 Tb242 2.374 . S
O254 C249 1.250 . S
O255 Tb240 2.353 . S
O255 C249 1.263 . S
C256 O257 1.275 . S
C256 O258 1.246 . S
O257 Tb240 2.427 . S
O257 C256 1.275 . S
O258 Tb240 2.513 . S
O258 C256 1.246 . S
C259 O243 1.245 . S
C259 O244 1.259 . S
Tb260 O263 2.453 . S
Tb260 O264 2.596 . S
Tb260 O265 2.374 . S
Tb260 O273 2.343 . S
Tb260 O275 2.353 . S
Tb260 O277 2.427 . S
Tb260 O278 2.513 . S
C261 O265 1.251 . S
C261 O267 1.263 . S
Tb262 O264 2.343 . S
Tb262 O267 2.353 . S
Tb262 O270 2.427 1_455 S
Tb262 O271 2.513 1_455 S
Tb262 O272 2.453 . S
Tb262 O273 2.596 . S
Tb262 O274 2.374 . S
O263 Tb260 2.453 . S
O263 C279 1.245 . S
O264 Tb260 2.596 . S
O264 Tb262 2.343 . S
O264 C279 1.259 . S
O265 Tb260 2.374 . S
O265 C261 1.251 . S
C266 O270 1.275 . S
C266 O271 1.246 . S
O267 C261 1.263 . S
O267 Tb262 2.353 . S
C268 O272 1.245 . S
C268 O273 1.259 . S
C269 O274 1.250 . S
C269 O275 1.263 . S
O270 Tb262 2.427 1_655 S
O270 C266 1.275 . S
O271 Tb262 2.513 1_655 S
O271 C266 1.246 . S
O272 Tb262 2.453 . S
O272 C268 1.245 . S
O273 Tb260 2.343 . S
O273 Tb262 2.596 . S
O273 C268 1.259 . S
O274 Tb262 2.374 . S
O274 C269 1.250 . S
O275 Tb260 2.353 . S
O275 C269 1.263 . S
C276 O277 1.275 . S
C276 O278 1.246 . S
O277 Tb260 2.427 . S
O277 C276 1.275 . S
O278 Tb260 2.513 . S
O278 C276 1.246 . S
C279 O263 1.245 . S
C279 O264 1.259 . S
Tb280 O283 2.453 . S
Tb280 O284 2.596 . S
Tb280 O285 2.374 . S
Tb280 O293 2.343 . S
Tb280 O295 2.353 . S
Tb280 O297 2.427 . S
Tb280 O298 2.513 . S
C281 O285 1.251 . S
C281 O287 1.263 . S
Tb282 O284 2.343 . S
Tb282 O287 2.353 . S
Tb282 O290 2.427 . S
Tb282 O291 2.513 . S
Tb282 O292 2.453 . S
Tb282 O293 2.596 . S
Tb282 O294 2.374 . S
O283 Tb280 2.453 . S
O283 C299 1.245 . S
O284 Tb280 2.596 . S
O284 Tb282 2.343 . S
O284 C299 1.259 . S
O285 Tb280 2.374 . S
O285 C281 1.251 . S
C286 O290 1.275 . S
C286 O291 1.246 . S
O287 C281 1.263 . S
O287 Tb282 2.353 . S
C288 O292 1.245 . S
C288 O293 1.259 . S
C289 O294 1.250 . S
C289 O295 1.263 . S
O290 Tb282 2.427 . S
O290 C286 1.275 . S
O291 Tb282 2.513 . S
O291 C286 1.246 . S
O292 Tb282 2.453 . S
O292 C288 1.245 . S
O293 Tb280 2.343 . S
O293 Tb282 2.596 . S
O293 C288 1.259 . S
O294 Tb282 2.374 . S
O294 C289 1.250 . S
O295 Tb280 2.353 . S
O295 C289 1.263 . S
C296 O297 1.275 . S
C296 O298 1.246 . S
O297 Tb280 2.427 . S
O297 C296 1.275 . S
O298 Tb280 2.513 . S
O298 C296 1.246 . S
C299 O283 1.245 . S
C299 O284 1.259 . S
Tb300 O303 2.453 . S
Tb300 O304 2.596 . S
Tb300 O305 2.374 . S
Tb300 O313 2.343 . S
Tb300 O315 2.353 . S
Tb300 O317 2.427 . S
Tb300 O318 2.513 . S
C301 O305 1.251 . S
C301 O307 1.263 . S
Tb302 O304 2.343 . S
Tb302 O307 2.353 . S
Tb302 O310 2.427 1_455 S
Tb302 O311 2.513 1_455 S
Tb302 O312 2.453 . S
Tb302 O313 2.596 . S
Tb302 O314 2.374 . S
O303 Tb300 2.453 . S
O303 C319 1.245 . S
O304 Tb300 2.596 . S
O304 Tb302 2.343 . S
O304 C319 1.259 . S
O305 Tb300 2.374 . S
O305 C301 1.251 . S
C306 O310 1.275 . S
C306 O311 1.246 . S
O307 C301 1.263 . S
O307 Tb302 2.353 . S
C308 O312 1.245 . S
C308 O313 1.259 . S
C309 O314 1.250 . S
C309 O315 1.263 . S
O310 Tb302 2.427 1_655 S
O310 C306 1.275 . S
O311 Tb302 2.513 1_655 S
O311 C306 1.246 . S
O312 Tb302 2.453 . S
O312 C308 1.245 . S
O313 Tb300 2.343 . S
O313 Tb302 2.596 . S
O313 C308 1.259 . S
O314 Tb302 2.374 . S
O314 C309 1.250 . S
O315 Tb300 2.353 . S
O315 C309 1.263 . S
C316 O317 1.275 . S
C316 O318 1.246 . S
O317 Tb300 2.427 . S
O317 C316 1.275 . S
O318 Tb300 2.513 . S
O318 C316 1.246 . S
C319 O303 1.245 . S
C319 O304 1.259 . S
Tb320 O323 2.453 . S
Tb320 O324 2.597 . S
Tb320 O325 2.374 1_565 S
Tb320 O333 2.341 1_565 S
Tb320 O335 2.353 . S
Tb320 O337 2.427 . S
Tb320 O338 2.513 1_565 S
C321 O325 1.251 . S
C321 O327 1.263 . S
Tb322 O324 2.342 1_545 S
Tb322 O327 2.353 . S
Tb322 O330 2.427 . S
Tb322 O331 2.513 1_545 S
Tb322 O332 2.453 . S
Tb322 O333 2.598 . S
Tb322 O334 2.374 1_545 S
O323 Tb320 2.453 . S
O323 C339 1.245 . S
O324 Tb320 2.597 . S
O324 Tb322 2.342 1_565 S
O324 C339 1.260 . S
O325 Tb320 2.374 1_545 S
O325 C321 1.251 . S
C326 O330 1.275 . S
C326 O331 1.246 1_545 S
O327 C321 1.263 . S
O327 Tb322 2.353 . S
C328 O332 1.245 . S
C328 O333 1.261 . S
C329 O334 1.250 . S
C329 O335 1.263 . S
O330 Tb322 2.427 . S
O330 C326 1.275 . S
O331 Tb322 2.513 1_565 S
O331 C326 1.246 1_565 S
O332 Tb322 2.453 . S
O332 C328 1.245 . S
O333 Tb320 2.341 1_545 S
O333 Tb322 2.598 . S
O333 C328 1.261 . S
O334 Tb322 2.374 1_565 S
O334 C329 1.250 . S
O335 Tb320 2.353 . S
O335 C329 1.263 . S
C336 O337 1.275 . S
C336 O338 1.246 1_565 S
O337 Tb320 2.427 . S
O337 C336 1.275 . S
O338 Tb320 2.513 1_545 S
O338 C336 1.246 1_545 S
C339 O323 1.245 . S
C339 O324 1.260 . S
Tb340 O343 2.453 . S
Tb340 O344 2.596 . S
Tb340 O345 2.374 . S
Tb340 O353 2.343 . S
Tb340 O355 2.353 . S
Tb340 O357 2.427 . S
Tb340 O358 2.513 . S
C341 O345 1.251 . S
C341 O347 1.263 . S
Tb342 O344 2.343 . S
Tb342 O347 2.353 . S
Tb342 O350 2.427 . S
Tb342 O351 2.513 . S
Tb342 O352 2.453 . S
Tb342 O353 2.596 . S
Tb342 O354 2.374 . S
O343 Tb340 2.453 . S
O343 C359 1.245 . S
O344 Tb340 2.596 . S
O344 Tb342 2.343 . S
O344 C359 1.259 . S
O345 Tb340 2.374 . S
O345 C341 1.251 . S
C346 O350 1.275 . S
C346 O351 1.246 . S
O347 C341 1.263 . S
O347 Tb342 2.353 . S
C348 O352 1.245 . S
C348 O353 1.259 . S
C349 O354 1.250 . S
C349 O355 1.263 . S
O350 Tb342 2.427 . S
O350 C346 1.275 . S
O351 Tb342 2.513 . S
O351 C346 1.246 . S
O352 Tb342 2.453 . S
O352 C348 1.245 . S
O353 Tb340 2.343 . S
O353 Tb342 2.596 . S
O353 C348 1.259 . S
O354 Tb342 2.374 . S
O354 C349 1.250 . S
O355 Tb340 2.353 . S
O355 C349 1.263 . S
C356 O357 1.275 . S
C356 O358 1.246 . S
O357 Tb340 2.427 . S
O357 C356 1.275 . S
O358 Tb340 2.513 . S
O358 C356 1.246 . S
C359 O343 1.245 . S
C359 O344 1.259 . S
Tb360 O363 2.453 . S
Tb360 O364 2.596 . S
Tb360 O365 2.374 . S
Tb360 O373 2.343 . S
Tb360 O375 2.353 . S
Tb360 O377 2.427 . S
Tb360 O378 2.513 . S
C361 O365 1.251 . S
C361 O367 1.263 . S
Tb362 O364 2.343 . S
Tb362 O367 2.353 . S
Tb362 O370 2.427 . S
Tb362 O371 2.513 . S
Tb362 O372 2.453 . S
Tb362 O373 2.596 . S
Tb362 O374 2.374 . S
O363 Tb360 2.453 . S
O363 C379 1.245 . S
O364 Tb360 2.596 . S
O364 Tb362 2.343 . S
O364 C379 1.259 . S
O365 Tb360 2.374 . S
O365 C361 1.251 . S
C366 O370 1.275 . S
C366 O371 1.246 . S
O367 C361 1.263 . S
O367 Tb362 2.353 . S
C368 O372 1.245 . S
C368 O373 1.259 . S
C369 O374 1.250 . S
C369 O375 1.263 . S
O370 Tb362 2.427 . S
O370 C366 1.275 . S
O371 Tb362 2.513 . S
O371 C366 1.246 . S
O372 Tb362 2.453 . S
O372 C368 1.245 . S
O373 Tb360 2.343 . S
O373 Tb362 2.596 . S
O373 C368 1.259 . S
O374 Tb362 2.374 . S
O374 C369 1.250 . S
O375 Tb360 2.353 . S
O375 C369 1.263 . S
C376 O377 1.275 . S
C376 O378 1.246 . S
O377 Tb360 2.427 . S
O377 C376 1.275 . S
O378 Tb360 2.513 . S
O378 C376 1.246 . S
C379 O363 1.245 . S
C379 O364 1.259 . S
Tb380 O383 2.453 . S
Tb380 O384 2.597 . S
Tb380 O385 2.374 1_565 S
Tb380 O393 2.341 1_565 S
Tb380 O395 2.353 . S
Tb380 O397 2.427 . S
Tb380 O398 2.513 1_565 S
C381 O385 1.251 . S
C381 O387 1.263 . S
Tb382 O384 2.342 1_545 S
Tb382 O387 2.353 . S
Tb382 O390 2.427 . S
Tb382 O391 2.513 1_545 S
Tb382 O392 2.453 . S
Tb382 O393 2.598 . S
Tb382 O394 2.374 1_545 S
O383 Tb380 2.453 . S
O383 C399 1.245 . S
O384 Tb380 2.597 . S
O384 Tb382 2.342 1_565 S
O384 C399 1.260 . S
O385 Tb380 2.374 1_545 S
O385 C381 1.251 . S
C386 O390 1.275 . S
C386 O391 1.246 1_545 S
O387 C381 1.263 . S
O387 Tb382 2.353 . S
C388 O392 1.245 . S
C388 O393 1.261 . S
C389 O394 1.250 . S
C389 O395 1.263 . S
O390 Tb382 2.427 . S
O390 C386 1.275 . S
O391 Tb382 2.513 1_565 S
O391 C386 1.246 1_565 S
O392 Tb382 2.453 . S
O392 C388 1.245 . S
O393 Tb380 2.341 1_545 S
O393 Tb382 2.598 . S
O393 C388 1.261 . S
O394 Tb382 2.374 1_565 S
O394 C389 1.250 . S
O395 Tb380 2.353 . S
O395 C389 1.263 . S
C396 O397 1.275 . S
C396 O398 1.246 1_565 S
O397 Tb380 2.427 . S
O397 C396 1.275 . S
O398 Tb380 2.513 1_545 S
O398 C396 1.246 1_545 S
C399 O383 1.245 . S
C399 O384 1.260 . S
Tb400 O403 2.453 . S
Tb400 O404 2.598 . S
Tb400 O405 2.374 1_565 S
Tb400 O413 2.342 1_565 S
Tb400 O415 2.353 . S
Tb400 O417 2.427 . S
Tb400 O418 2.513 1_565 S
C401 O405 1.251 . S
C401 O407 1.263 . S
Tb402 O404 2.341 1_545 S
Tb402 O407 2.353 . S
Tb402 O410 2.427 . S
Tb402 O411 2.513 1_545 S
Tb402 O412 2.453 . S
Tb402 O413 2.597 . S
Tb402 O414 2.374 1_545 S
O403 Tb400 2.453 . S
O403 C419 1.245 . S
O404 Tb400 2.598 . S
O404 Tb402 2.341 1_565 S
O404 C419 1.261 . S
O405 Tb400 2.374 1_545 S
O405 C401 1.251 . S
C406 O410 1.275 . S
C406 O411 1.246 1_545 S
O407 C401 1.263 . S
O407 Tb402 2.353 . S
C408 O412 1.245 . S
C408 O413 1.260 . S
C409 O414 1.250 . S
C409 O415 1.263 . S
O410 Tb402 2.427 . S
O410 C406 1.275 . S
O411 Tb402 2.513 1_565 S
O411 C406 1.246 1_565 S
O412 Tb402 2.453 . S
O412 C408 1.245 . S
O413 Tb400 2.342 1_545 S
O413 Tb402 2.597 . S
O413 C408 1.260 . S
O414 Tb402 2.374 1_565 S
O414 C409 1.250 . S
O415 Tb400 2.353 . S
O415 C409 1.263 . S
C416 O417 1.275 . S
C416 O418 1.246 1_565 S
O417 Tb400 2.427 . S
O417 C416 1.275 . S
O418 Tb400 2.513 1_545 S
O418 C416 1.246 1_545 S
C419 O403 1.245 . S
C419 O404 1.261 . S
Tb420 O423 2.453 . S
Tb420 O424 2.596 . S
Tb420 O425 2.374 . S
Tb420 O433 2.343 . S
Tb420 O435 2.353 . S
Tb420 O437 2.427 . S
Tb420 O438 2.513 . S
C421 O425 1.251 . S
C421 O427 1.263 . S
Tb422 O424 2.343 . S
Tb422 O427 2.353 . S
Tb422 O430 2.427 . S
Tb422 O431 2.513 . S
Tb422 O432 2.453 . S
Tb422 O433 2.596 . S
Tb422 O434 2.374 . S
O423 Tb420 2.453 . S
O423 C439 1.245 . S
O424 Tb420 2.596 . S
O424 Tb422 2.343 . S
O424 C439 1.259 . S
O425 Tb420 2.374 . S
O425 C421 1.251 . S
C426 O430 1.275 . S
C426 O431 1.246 . S
O427 C421 1.263 . S
O427 Tb422 2.353 . S
C428 O432 1.245 . S
C428 O433 1.259 . S
C429 O434 1.250 . S
C429 O435 1.263 . S
O430 Tb422 2.427 . S
O430 C426 1.275 . S
O431 Tb422 2.513 . S
O431 C426 1.246 . S
O432 Tb422 2.453 . S
O432 C428 1.245 . S
O433 Tb420 2.343 . S
O433 Tb422 2.596 . S
O433 C428 1.259 . S
O434 Tb422 2.374 . S
O434 C429 1.250 . S
O435 Tb420 2.353 . S
O435 C429 1.263 . S
C436 O437 1.275 . S
C436 O438 1.246 . S
O437 Tb420 2.427 . S
O437 C436 1.275 . S
O438 Tb420 2.513 . S
O438 C436 1.246 . S
C439 O423 1.245 . S
C439 O424 1.259 . S
Tb440 O443 2.453 . S
Tb440 O444 2.596 . S
Tb440 O445 2.374 . S
Tb440 O453 2.343 . S
Tb440 O455 2.353 . S
Tb440 O457 2.427 . S
Tb440 O458 2.513 . S
C441 O445 1.251 . S
C441 O447 1.263 . S
Tb442 O444 2.343 . S
Tb442 O447 2.353 . S
Tb442 O450 2.427 . S
Tb442 O451 2.513 . S
Tb442 O452 2.453 . S
Tb442 O453 2.596 . S
Tb442 O454 2.374 . S
O443 Tb440 2.453 . S
O443 C459 1.245 . S
O444 Tb440 2.596 . S
O444 Tb442 2.343 . S
O444 C459 1.259 . S
O445 Tb440 2.374 . S
O445 C441 1.251 . S
C446 O450 1.275 . S
C446 O451 1.246 . S
O447 C441 1.263 . S
O447 Tb442 2.353 . S
C448 O452 1.245 . S
C448 O453 1.259 . S
C449 O454 1.250 . S
C449 O455 1.263 . S
O450 Tb442 2.427 . S
O450 C446 1.275 . S
O451 Tb442 2.513 . S
O451 C446 1.246 . S
O452 Tb442 2.453 . S
O452 C448 1.245 . S
O453 Tb440 2.343 . S
O453 Tb442 2.596 . S
O453 C448 1.259 . S
O454 Tb442 2.374 . S
O454 C449 1.250 . S
O455 Tb440 2.353 . S
O455 C449 1.263 . S
C456 O457 1.275 . S
C456 O458 1.246 . S
O457 Tb440 2.427 . S
O457 C456 1.275 . S
O458 Tb440 2.513 . S
O458 C456 1.246 . S
C459 O443 1.245 . S
C459 O444 1.259 . S
Tb460 O463 2.453 . S
Tb460 O464 2.598 . S
Tb460 O465 2.374 1_565 S
Tb460 O473 2.342 1_565 S
Tb460 O475 2.353 . S
Tb460 O477 2.427 . S
Tb460 O478 2.513 1_565 S
C461 O465 1.251 . S
C461 O467 1.263 . S
Tb462 O464 2.341 1_545 S
Tb462 O467 2.353 . S
Tb462 O470 2.427 . S
Tb462 O471 2.513 1_545 S
Tb462 O472 2.453 . S
Tb462 O473 2.597 . S
Tb462 O474 2.374 1_545 S
O463 Tb460 2.453 . S
O463 C479 1.245 . S
O464 Tb460 2.598 . S
O464 Tb462 2.341 1_565 S
O464 C479 1.261 . S
O465 Tb460 2.374 1_545 S
O465 C461 1.251 . S
C466 O470 1.275 . S
C466 O471 1.246 1_545 S
O467 C461 1.263 . S
O467 Tb462 2.353 . S
C468 O472 1.245 . S
C468 O473 1.260 . S
C469 O474 1.250 . S
C469 O475 1.263 . S
O470 Tb462 2.427 . S
O470 C466 1.275 . S
O471 Tb462 2.513 1_565 S
O471 C466 1.246 1_565 S
O472 Tb462 2.453 . S
O472 C468 1.245 . S
O473 Tb460 2.342 1_545 S
O473 Tb462 2.597 . S
O473 C468 1.260 . S
O474 Tb462 2.374 1_565 S
O474 C469 1.250 . S
O475 Tb460 2.353 . S
O475 C469 1.263 . S
C476 O477 1.275 . S
C476 O478 1.246 1_565 S
O477 Tb460 2.427 . S
O477 C476 1.275 . S
O478 Tb460 2.513 1_545 S
O478 C476 1.246 1_545 S
C479 O463 1.245 . S
C479 O464 1.261 . S
Tb480 O483 2.453 . S
Tb480 O484 2.596 . S
Tb480 O485 2.374 . S
Tb480 O493 2.343 1_554 S
Tb480 O495 2.353 . S
Tb480 O497 2.427 1_554 S
Tb480 O498 2.513 1_554 S
C481 O485 1.251 . S
C481 O487 1.263 . S
Tb482 O484 2.343 . S
Tb482 O487 2.353 . S
Tb482 O490 2.427 . S
Tb482 O491 2.513 . S
Tb482 O492 2.453 1_554 S
Tb482 O493 2.596 1_554 S
Tb482 O494 2.374 . S
O483 Tb480 2.453 . S
O483 C499 1.245 . S
O484 Tb480 2.596 . S
O484 Tb482 2.343 . S
O484 C499 1.259 . S
O485 Tb480 2.374 . S
O485 C481 1.251 . S
C486 O490 1.275 . S
C486 O491 1.246 . S
O487 C481 1.263 . S
O487 Tb482 2.353 . S
C488 O492 1.245 . S
C488 O493 1.259 . S
C489 O494 1.250 . S
C489 O495 1.263 . S
O490 Tb482 2.427 . S
O490 C486 1.275 . S
O491 Tb482 2.513 . S
O491 C486 1.246 . S
O492 Tb482 2.453 1_556 S
O492 C488 1.245 . S
O493 Tb480 2.343 1_556 S
O493 Tb482 2.596 1_556 S
O493 C488 1.259 . S
O494 Tb482 2.374 . S
O494 C489 1.250 . S
O495 Tb480 2.353 . S
O495 C489 1.263 . S
C496 O497 1.275 . S
C496 O498 1.246 . S
O497 Tb480 2.427 1_556 S
O497 C496 1.275 . S
O498 Tb480 2.513 1_556 S
O498 C496 1.246 . S
C499 O483 1.245 . S
C499 O484 1.259 . S
Tb500 O503 2.453 . S
Tb500 O504 2.596 . S
Tb500 O505 2.374 . S
Tb500 O513 2.343 1_554 S
Tb500 O515 2.353 . S
Tb500 O517 2.427 1_554 S
Tb500 O518 2.513 1_554 S
C501 O505 1.251 . S
C501 O507 1.263 . S
Tb502 O504 2.343 . S
Tb502 O507 2.353 . S
Tb502 O510 2.427 . S
Tb502 O511 2.513 . S
Tb502 O512 2.453 1_554 S
Tb502 O513 2.596 1_554 S
Tb502 O514 2.374 . S
O503 Tb500 2.453 . S
O503 C519 1.245 . S
O504 Tb500 2.596 . S
O504 Tb502 2.343 . S
O504 C519 1.259 . S
O505 Tb500 2.374 . S
O505 C501 1.251 . S
C506 O510 1.275 . S
C506 O511 1.246 . S
O507 C501 1.263 . S
O507 Tb502 2.353 . S
C508 O512 1.245 . S
C508 O513 1.259 . S
C509 O514 1.250 . S
C509 O515 1.263 . S
O510 Tb502 2.427 . S
O510 C506 1.275 . S
O511 Tb502 2.513 . S
O511 C506 1.246 . S
O512 Tb502 2.453 1_556 S
O512 C508 1.245 . S
O513 Tb500 2.343 1_556 S
O513 Tb502 2.596 1_556 S
O513 C508 1.259 . S
O514 Tb502 2.374 . S
O514 C509 1.250 . S
O515 Tb500 2.353 . S
O515 C509 1.263 . S
C516 O517 1.275 . S
C516 O518 1.246 . S
O517 Tb500 2.427 1_556 S
O517 C516 1.275 . S
O518 Tb500 2.513 1_556 S
O518 C516 1.246 . S
C519 O503 1.245 . S
C519 O504 1.259 . S
Tb520 O523 2.453 . S
Tb520 O524 2.596 . S
Tb520 O525 2.374 . S
Tb520 O533 2.343 . S
Tb520 O535 2.353 . S
Tb520 O537 2.427 . S
Tb520 O538 2.513 . S
C521 O525 1.251 . S
C521 O527 1.263 . S
Tb522 O524 2.343 . S
Tb522 O527 2.353 . S
Tb522 O530 2.427 . S
Tb522 O531 2.513 . S
Tb522 O532 2.453 . S
Tb522 O533 2.596 . S
Tb522 O534 2.374 . S
O523 Tb520 2.453 . S
O523 C539 1.245 . S
O524 Tb520 2.596 . S
O524 Tb522 2.343 . S
O524 C539 1.259 . S
O525 Tb520 2.374 . S
O525 C521 1.251 . S
C526 O530 1.275 . S
C526 O531 1.246 . S
O527 C521 1.263 . S
O527 Tb522 2.353 . S
C528 O532 1.245 . S
C528 O533 1.259 . S
C529 O534 1.250 . S
C529 O535 1.263 . S
O530 Tb522 2.427 . S
O530 C526 1.275 . S
O531 Tb522 2.513 . S
O531 C526 1.246 . S
O532 Tb522 2.453 . S
O532 C528 1.245 . S
O533 Tb520 2.343 . S
O533 Tb522 2.596 . S
O533 C528 1.259 . S
O534 Tb522 2.374 . S
O534 C529 1.250 . S
O535 Tb520 2.353 . S
O535 C529 1.263 . S
C536 O537 1.275 . S
C536 O538 1.246 . S
O537 Tb520 2.427 . S
O537 C536 1.275 . S
O538 Tb520 2.513 . S
O538 C536 1.246 . S
C539 O523 1.245 . S
C539 O524 1.259 . S
Tb540 O543 2.453 . S
Tb540 O544 2.596 . S
Tb540 O545 2.374 . S
Tb540 O553 2.343 . S
Tb540 O555 2.353 . S
Tb540 O557 2.427 . S
Tb540 O558 2.513 . S
C541 O545 1.251 . S
C541 O547 1.263 . S
Tb542 O544 2.343 . S
Tb542 O547 2.353 . S
Tb542 O550 2.427 . S
Tb542 O551 2.513 . S
Tb542 O552 2.453 . S
Tb542 O553 2.596 . S
Tb542 O554 2.374 . S
O543 Tb540 2.453 . S
O543 C559 1.245 . S
O544 Tb540 2.596 . S
O544 Tb542 2.343 . S
O544 C559 1.259 . S
O545 Tb540 2.374 . S
O545 C541 1.251 . S
C546 O550 1.275 . S
C546 O551 1.246 . S
O547 C541 1.263 . S
O547 Tb542 2.353 . S
C548 O552 1.245 . S
C548 O553 1.259 . S
C549 O554 1.250 . S
C549 O555 1.263 . S
O550 Tb542 2.427 . S
O550 C546 1.275 . S
O551 Tb542 2.513 . S
O551 C546 1.246 . S
O552 Tb542 2.453 . S
O552 C548 1.245 . S
O553 Tb540 2.343 . S
O553 Tb542 2.596 . S
O553 C548 1.259 . S
O554 Tb542 2.374 . S
O554 C549 1.250 . S
O555 Tb540 2.353 . S
O555 C549 1.263 . S
C556 O557 1.275 . S
C556 O558 1.246 . S
O557 Tb540 2.427 . S
O557 C556 1.275 . S
O558 Tb540 2.513 . S
O558 C556 1.246 . S
C559 O543 1.245 . S
C559 O544 1.259 . S
Tb560 O563 2.453 1_556 S
Tb560 O564 2.596 1_556 S
Tb560 O565 2.374 . S
Tb560 O573 2.343 . S
Tb560 O575 2.353 . S
Tb560 O577 2.427 . S
Tb560 O578 2.513 . S
C561 O565 1.251 . S
C561 O567 1.263 . S
Tb562 O564 2.343 1_556 S
Tb562 O567 2.353 . S
Tb562 O570 2.427 1_556 S
Tb562 O571 2.513 1_556 S
Tb562 O572 2.453 . S
Tb562 O573 2.596 . S
Tb562 O574 2.374 . S
O563 Tb560 2.453 1_554 S
O563 C579 1.245 . S
O564 Tb560 2.596 1_554 S
O564 Tb562 2.343 1_554 S
O564 C579 1.259 . S
O565 Tb560 2.374 . S
O565 C561 1.251 . S
C566 O570 1.275 . S
C566 O571 1.246 . S
O567 C561 1.263 . S
O567 Tb562 2.353 . S
C568 O572 1.245 . S
C568 O573 1.259 . S
C569 O574 1.250 . S
C569 O575 1.263 . S
O570 Tb562 2.427 1_554 S
O570 C566 1.275 . S
O571 Tb562 2.513 1_554 S
O571 C566 1.246 . S
O572 Tb562 2.453 . S
O572 C568 1.245 . S
O573 Tb560 2.343 . S
O573 Tb562 2.596 . S
O573 C568 1.259 . S
O574 Tb562 2.374 . S
O574 C569 1.250 . S
O575 Tb560 2.353 . S
O575 C569 1.263 . S
C576 O577 1.275 . S
C576 O578 1.246 . S
O577 Tb560 2.427 . S
O577 C576 1.275 . S
O578 Tb560 2.513 . S
O578 C576 1.246 . S
C579 O563 1.245 . S
C579 O564 1.259 . S
Tb580 O583 2.453 1_556 S
Tb580 O584 2.596 1_556 S
Tb580 O585 2.374 . S
Tb580 O593 2.343 . S
Tb580 O595 2.353 . S
Tb580 O597 2.427 . S
Tb580 O598 2.513 . S
C581 O585 1.251 . S
C581 O587 1.263 . S
Tb582 O584 2.343 1_556 S
Tb582 O587 2.353 . S
Tb582 O590 2.427 1_556 S
Tb582 O591 2.513 1_556 S
Tb582 O592 2.453 . S
Tb582 O593 2.596 . S
Tb582 O594 2.374 . S
O583 Tb580 2.453 1_554 S
O583 C599 1.245 . S
O584 Tb580 2.596 1_554 S
O584 Tb582 2.343 1_554 S
O584 C599 1.259 . S
O585 Tb580 2.374 . S
O585 C581 1.251 . S
C586 O590 1.275 . S
C586 O591 1.246 . S
O587 C581 1.263 . S
O587 Tb582 2.353 . S
C588 O592 1.245 . S
C588 O593 1.259 . S
C589 O594 1.250 . S
C589 O595 1.263 . S
O590 Tb582 2.427 1_554 S
O590 C586 1.275 . S
O591 Tb582 2.513 1_554 S
O591 C586 1.246 . S
O592 Tb582 2.453 . S
O592 C588 1.245 . S
O593 Tb580 2.343 . S
O593 Tb582 2.596 . S
O593 C588 1.259 . S
O594 Tb582 2.374 . S
O594 C589 1.250 . S
O595 Tb580 2.353 . S
O595 C589 1.263 . S
C596 O597 1.275 . S
C596 O598 1.246 . S
O597 Tb580 2.427 . S
O597 C596 1.275 . S
O598 Tb580 2.513 . S
O598 C596 1.246 . S
C599 O583 1.245 . S
C599 O584 1.259 . S
Tb600 O603 2.453 . S
Tb600 O604 2.596 . S
Tb600 O605 2.374 . S
Tb600 O613 2.343 . S
Tb600 O615 2.353 . S
Tb600 O617 2.427 . S
Tb600 O618 2.513 . S
C601 O605 1.251 . S
C601 O607 1.263 . S
Tb602 O604 2.343 . S
Tb602 O607 2.353 . S
Tb602 O610 2.427 . S
Tb602 O611 2.513 . S
Tb602 O612 2.453 . S
Tb602 O613 2.596 . S
Tb602 O614 2.374 . S
O603 Tb600 2.453 . S
O603 C619 1.245 . S
O604 Tb600 2.596 . S
O604 Tb602 2.343 . S
O604 C619 1.259 . S
O605 Tb600 2.374 . S
O605 C601 1.251 . S
C606 O610 1.275 . S
C606 O611 1.246 . S
O607 C601 1.263 . S
O607 Tb602 2.353 . S
C608 O612 1.245 . S
C608 O613 1.259 . S
C609 O614 1.250 . S
C609 O615 1.263 . S
O610 Tb602 2.427 . S
O610 C606 1.275 . S
O611 Tb602 2.513 . S
O611 C606 1.246 . S
O612 Tb602 2.453 . S
O612 C608 1.245 . S
O613 Tb600 2.343 . S
O613 Tb602 2.596 . S
O613 C608 1.259 . S
O614 Tb602 2.374 . S
O614 C609 1.250 . S
O615 Tb600 2.353 . S
O615 C609 1.263 . S
C616 O617 1.275 . S
C616 O618 1.246 . S
O617 Tb600 2.427 . S
O617 C616 1.275 . S
O618 Tb600 2.513 . S
O618 C616 1.246 . S
C619 O603 1.245 . S
C619 O604 1.259 . S
Tb620 O623 2.453 . S
Tb620 O624 2.596 . S
Tb620 O625 2.374 . S
Tb620 O633 2.343 . S
Tb620 O635 2.353 . S
Tb620 O637 2.427 . S
Tb620 O638 2.513 . S
C621 O625 1.251 . S
C621 O627 1.263 . S
Tb622 O624 2.343 . S
Tb622 O627 2.353 . S
Tb622 O630 2.427 . S
Tb622 O631 2.513 . S
Tb622 O632 2.453 . S
Tb622 O633 2.596 . S
Tb622 O634 2.374 . S
O623 Tb620 2.453 . S
O623 C639 1.245 . S
O624 Tb620 2.596 . S
O624 Tb622 2.343 . S
O624 C639 1.259 . S
O625 Tb620 2.374 . S
O625 C621 1.251 . S
C626 O630 1.275 . S
C626 O631 1.246 . S
O627 C621 1.263 . S
O627 Tb622 2.353 . S
C628 O632 1.245 . S
C628 O633 1.259 . S
C629 O634 1.250 . S
C629 O635 1.263 . S
O630 Tb622 2.427 . S
O630 C626 1.275 . S
O631 Tb622 2.513 . S
O631 C626 1.246 . S
O632 Tb622 2.453 . S
O632 C628 1.245 . S
O633 Tb620 2.343 . S
O633 Tb622 2.596 . S
O633 C628 1.259 . S
O634 Tb622 2.374 . S
O634 C629 1.250 . S
O635 Tb620 2.353 . S
O635 C629 1.263 . S
C636 O637 1.275 . S
C636 O638 1.246 . S
O637 Tb620 2.427 . S
O637 C636 1.275 . S
O638 Tb620 2.513 . S
O638 C636 1.246 . S
C639 O623 1.245 . S
C639 O624 1.259 . S
C509 C9 2.043 . S
C489 C29 2.043 . S
C549 C49 2.043 . S
C529 C69 2.043 . S
C81 C581 2.043 . S
C101 C561 2.043 . S
C121 C621 2.043 . S
C601 C141 2.043 . S
C349 C169 2.043 . S
C329 C189 2.043 . S
C389 C209 2.043 . S
C369 C229 2.043 . S
C241 C421 2.043 . S
C401 C261 2.043 . S
C281 C461 2.043 . S
C441 C301 2.043 . S
C19 C408 3.398 1_565 S
C268 C39 3.398 1_455 S
C608 C59 3.398 1_556 S
C79 C148 3.398 1_664 S
C88 C339 3.398 1_545 S
C108 C199 3.398 1_455 S
C128 C539 3.398 1_556 S
C568 C179 3.398 . S
C448 C219 3.398 . S
C308 C239 3.398 1_455 S
C499 C248 3.398 . S
C288 C379 3.398 . S
C588 C359 3.398 . S
C399 C468 3.398 1_565 S
C519 C428 3.398 . S
C559 C628 3.398 1_554 S
C8 C388 3.078 . S
C28 C368 3.078 . S
C48 C348 3.078 . S
C68 C328 3.078 . S
C99 C479 3.078 . S
C119 C459 3.078 . S
C139 C439 3.078 . S
C159 C419 3.078 . S
C168 C548 3.078 . S
C188 C528 3.078 . S
C208 C508 3.078 . S
C228 C488 3.078 . S
C639 C259 3.078 . S
C619 C279 3.078 . S
C599 C299 3.078 . S
C579 C319 3.078 . S
C41 C1 1.917 . S
C61 C21 1.917 . S
C129 C89 1.917 . S
C109 C149 1.917 . S
C201 C161 1.917 . S
C181 C221 1.917 . S
C289 C249 1.917 . S
C269 C309 1.917 . S
C321 C361 1.917 . S
C341 C381 1.917 . S
C449 C409 1.917 . S
C429 C469 1.917 . S
C481 C521 1.917 . S
C541 C501 1.917 . S
C569 C609 1.917 . S
C589 C629 1.917 . S
C16 C156 1.078 . S
C616 C36 1.078 . S
C56 C276 1.078 . S
C76 C416 1.078 . S
C66 C86 1.078 . S
C106 C526 1.078 . S
C186 C126 1.078 . S
C326 C146 1.078 . S
C176 C316 1.078 . S
C456 C196 1.078 . S
C216 C116 1.078 . S
C576 C236 1.078 . S
C246 C226 1.078 . S
C266 C366 1.078 . S
C286 C26 1.078 . S
C486 C306 1.078 . S
C336 C476 1.078 . S
C356 C296 1.078 . S
C376 C596 1.078 . S
C396 C96 1.078 . S
C406 C386 1.078 . S
C206 C426 1.078 . S
C506 C446 1.078 . S
C466 C6 1.078 . S
C636 C496 1.078 . S
C136 C516 1.078 . S
C436 C536 1.078 . S
C556 C256 1.078 . S
C546 C566 1.078 . S
C46 C586 1.078 . S
C346 C606 1.078 . S
C626 C166 1.078 . S
