# Generated by pormake.
# Topology wjh, (4)-cn, num edge types: 1
# Building blocks:
#     Node 0, Type 0, BuildingBlock: ESEHIV_clean_sbu_0, # of connection points: 4
#     Node 1, Type 0, BuildingBlock: ESEHIV_clean_sbu_0, # of connection points: 4
#     Node 2, Type 0, BuildingBlock: ESEHIV_clean_sbu_0, # of connection points: 4
#     Node 3, Type 0, BuildingBlock: ESEHIV_clean_sbu_0, # of connection points: 4
#     Node 4, Type 0, BuildingBlock: ESEHIV_clean_sbu_0, # of connection points: 4
#     Node 5, Type 0, BuildingBlock: ESEHIV_clean_sbu_0, # of connection points: 4
#     Node 6, Type 0, BuildingBlock: ESEHIV_clean_sbu_0, # of connection points: 4
#     Node 7, Type 0, BuildingBlock: ESEHIV_clean_sbu_0, # of connection points: 4
#     Node 8, Type 0, BuildingBlock: ESEHIV_clean_sbu_0, # of connection points: 4
#     Node 9, Type 0, BuildingBlock: ESEHIV_clean_sbu_0, # of connection points: 4
#     Node 10, Type 0, BuildingBlock: ESEHIV_clean_sbu_0, # of connection points: 4
#     Node 11, Type 0, BuildingBlock: ESEHIV_clean_sbu_0, # of connection points: 4
#     Edge 12, Type (0, 0), BuildingBlock: EZIPEK_clean_linker_0, # of connection points: 2
#     Edge 13, Type (0, 0), BuildingBlock: EZIPEK_clean_linker_0, # of connection points: 2
#     Edge 14, Type (0, 0), BuildingBlock: EZIPEK_clean_linker_0, # of connection points: 2
#     Edge 15, Type (0, 0), BuildingBlock: EZIPEK_clean_linker_0, # of connection points: 2
#     Edge 16, Type (0, 0), BuildingBlock: EZIPEK_clean_linker_0, # of connection points: 2
#     Edge 17, Type (0, 0), BuildingBlock: EZIPEK_clean_linker_0, # of connection points: 2
#     Edge 18, Type (0, 0), BuildingBlock: EZIPEK_clean_linker_0, # of connection points: 2
#     Edge 19, Type (0, 0), BuildingBlock: EZIPEK_clean_linker_0, # of connection points: 2
#     Edge 20, Type (0, 0), BuildingBlock: EZIPEK_clean_linker_0, # of connection points: 2
#     Edge 21, Type (0, 0), BuildingBlock: EZIPEK_clean_linker_0, # of connection points: 2
#     Edge 22, Type (0, 0), BuildingBlock: EZIPEK_clean_linker_0, # of connection points: 2
#     Edge 23, Type (0, 0), BuildingBlock: EZIPEK_clean_linker_0, # of connection points: 2
#     Edge 24, Type (0, 0), BuildingBlock: EZIPEK_clean_linker_0, # of connection points: 2
#     Edge 25, Type (0, 0), BuildingBlock: EZIPEK_clean_linker_0, # of connection points: 2
#     Edge 26, Type (0, 0), BuildingBlock: EZIPEK_clean_linker_0, # of connection points: 2
#     Edge 27, Type (0, 0), BuildingBlock: EZIPEK_clean_linker_0, # of connection points: 2
#     Edge 28, Type (0, 0), BuildingBlock: EZIPEK_clean_linker_0, # of connection points: 2
#     Edge 29, Type (0, 0), BuildingBlock: EZIPEK_clean_linker_0, # of connection points: 2
#     Edge 30, Type (0, 0), BuildingBlock: EZIPEK_clean_linker_0, # of connection points: 2
#     Edge 31, Type (0, 0), BuildingBlock: EZIPEK_clean_linker_0, # of connection points: 2
#     Edge 32, Type (0, 0), BuildingBlock: EZIPEK_clean_linker_0, # of connection points: 2
#     Edge 33, Type (0, 0), BuildingBlock: EZIPEK_clean_linker_0, # of connection points: 2
#     Edge 34, Type (0, 0), BuildingBlock: EZIPEK_clean_linker_0, # of connection points: 2
#     Edge 35, Type (0, 0), BuildingBlock: EZIPEK_clean_linker_0, # of connection points: 2
# Relax obj value: 0.035
# Max RMSD: 0.094
# Mean RMSD: 0.094
data_MOF--net-wjh--node1-ESEHIV_clean_sbu_0--edge1-EZIPEK_clean_linker_0
_symmetry_space_group_name_H-M    P1
_symmetry_Int_Tables_number       1
_symmetry_cell_setting            triclinic
loop_
_symmetry_equiv_pos_as_xyz
'x, y, z'
_cell_length_a     50.15124
_cell_length_b     50.401518
_cell_length_c     20.458501
_cell_angle_alpha  89.631729
_cell_angle_beta   90.296282
_cell_angle_gamma 118.9953
loop_
_atom_site_label
_atom_site_type_symbol
_atom_site_fract_x
_atom_site_fract_y
_atom_site_fract_z
_atom_type_partial_charge
Cu0 Cu 0.57568 0.15522 0.13056 0.0
N1 N 0.54547 0.11458 0.13602 0.0
N2 N 0.52308 0.06409 0.13351 0.0
C3 C 0.54918 0.09027 0.12446 0.0
C4 C 0.50213 0.07202 0.15167 0.0
C5 C 0.51606 0.10331 0.15321 0.0
O6 O 0.60111 0.16006 0.05447 0.0
C7 C 0.60008 0.14881 0.25378 0.0
O8 O 0.59644 0.1227 0.23272 0.0
H9 H 0.57058 0.0917 0.11004 0.0
H10 H 0.50557 0.11691 0.16615 0.0
N11 N 0.55873 0.18089 0.11922 0.0
N12 N 0.55195 0.22125 0.13172 0.0
C13 C 0.56624 0.20619 0.15409 0.0
C14 C 0.53893 0.17996 0.07332 0.0
C15 C 0.53474 0.20493 0.08086 0.0
C16 C 0.58712 0.148 1.00133 0.0
O17 O 0.55723 0.13236 1.00125 0.0
H18 H 0.58233 0.21377 0.19429 0.0
H19 H 0.5286 0.16264 1.03636 0.0
O20 O 0.59627 0.16651 0.21487 0.0
H21 H 0.47856 0.0563 0.16306 0.0
H22 H 0.52043 0.21082 0.05119 0.0
Cu23 Cu 0.40519 0.54732 0.26585 0.0
N24 N 0.40637 0.51092 0.2599 0.0
N25 N 0.42541 0.47913 0.25507 0.0
C26 C 0.43138 0.50814 0.24881 0.0
C27 C 0.39569 0.463 0.27084 0.0
C28 C 0.38398 0.48272 0.27398 0.0
O29 O 0.42619 0.57175 0.18831 0.0
C30 C 0.42836 0.58886 0.37628 0.0
O31 O 0.42317 0.60802 0.34201 0.0
H32 H 0.45374 0.52711 0.23903 0.0
H33 H 0.36112 0.47706 0.28836 0.0
N34 N 0.36446 0.53951 0.2672 0.0
N35 N 0.32254 0.5422 0.29255 0.0
C36 C 0.35283 0.55423 0.30185 0.0
C37 C 0.34045 0.51746 0.23509 0.0
C38 C 0.31453 0.51906 0.25068 0.0
C39 C 0.41504 0.56073 0.13227 0.0
O40 O 0.3901 0.53435 0.12962 0.0
H41 H 0.366 0.57306 0.334 0.0
H42 H 0.34158 0.50104 0.20313 0.0
O43 O 0.42401 0.56412 0.35064 0.0
H44 H 0.38371 0.43894 0.28165 0.0
H45 H 0.2916 0.50431 0.23331 0.0
Cu46 Cu 0.88872 0.39474 0.4424 0.0
N47 N 0.91726 0.43579 0.43526 0.0
N48 N 0.96393 0.47562 0.4324 0.0
C49 C 0.9472 0.44569 0.4436 0.0
C50 C 0.94393 0.48526 0.41632 0.0
C51 C 0.91492 0.46043 0.41788 0.0
O52 O 0.89142 0.37637 0.36202 0.0
C53 C 0.89731 0.39537 0.57013 0.0
O54 O 0.89117 0.41759 0.55972 0.0
H55 H 0.95664 0.43103 0.45632 0.0
H56 H 0.89388 0.46029 0.40555 0.0
N57 N 0.84824 0.38548 0.45391 0.0
N58 N 0.79973 0.35538 0.48113 0.0
C59 C 0.82653 0.35694 0.46667 0.0
C60 C 0.83462 0.40274 0.46038 0.0
C61 C 0.80438 0.38402 0.47703 0.0
C62 C 0.8815 0.38491 0.31343 0.0
O63 O 0.86963 0.40272 0.32318 0.0
H64 H 0.83065 0.33775 0.46797 0.0
H65 H 0.84601 0.42716 0.45608 0.0
O66 O 0.89867 0.38036 0.52172 0.0
H67 H 0.94996 0.50831 0.40304 0.0
H68 H 0.78751 0.39092 0.4876 0.0
Cu69 Cu 0.46325 0.86844 0.59263 0.0
N70 N 0.49976 0.90499 0.59734 0.0
N71 N 0.53344 0.95437 0.59178 0.0
C72 C 0.50366 0.93327 0.58989 0.0
C73 C 0.54882 0.93891 0.60109 0.0
C74 C 0.52795 0.90842 0.60452 0.0
O75 O 0.44359 0.86902 0.51072 0.0
C76 C 0.42872 0.88079 0.68753 0.0
O77 O 0.42916 0.9009 0.64575 0.0
H78 H 0.48522 0.93826 0.58161 0.0
H79 H 0.53299 0.88997 0.61055 0.0
N80 N 0.47208 0.83636 0.58848 0.0
N81 N 0.48299 0.79961 0.61499 0.0
C82 C 0.4775 0.82162 0.63774 0.0
C83 C 0.47428 0.82318 0.53322 0.0
C84 C 0.48103 0.8005 0.54942 0.0
C85 C 0.41526 0.85543 0.49731 0.0
O86 O 0.3952 0.84066 0.54327 0.0
H87 H 0.47741 0.82683 0.68895 0.0
H88 H 0.47115 0.82967 0.48446 0.0
O89 O 0.44002 0.86395 0.67166 0.0
H90 H 0.57337 0.949 0.60423 0.0
H91 H 0.48422 0.78575 0.51589 0.0
Cu92 Cu 0.64854 0.47007 0.76882 0.0
N93 N 0.64087 0.50091 0.79818 0.0
N94 N 0.62397 0.53449 0.80593 0.0
C95 C 0.62147 0.50998 0.7739 0.0
C96 C 0.6455 0.54093 0.85207 0.0
C97 C 0.65583 0.52019 0.84724 0.0
O98 O 0.639 0.46255 0.67493 0.0
C99 C 0.61411 0.41893 0.86859 0.0
O100 O 0.5946 0.38977 0.87116 0.0
H101 H 0.6063 0.49929 0.73301 0.0
H102 H 0.67338 0.51942 0.87684 0.0
N103 N 0.68993 0.48197 0.78217 0.0
N104 N 0.73344 0.48262 0.80999 0.0
C105 C 0.70276 0.46579 0.80638 0.0
C106 C 0.71341 0.5098 0.76981 0.0
C107 C 0.74027 0.51028 0.78693 0.0
C108 C 0.65075 0.48194 0.62878 0.0
O109 O 0.67068 0.51014 0.64261 0.0
H110 H 0.69001 0.44231 0.82115 0.0
H111 H 0.71107 0.52859 0.75052 0.0
O112 O 0.62206 0.43124 0.81203 0.0
H113 H 0.6533 0.55949 0.88641 0.0
H114 H 0.763 0.52951 0.78386 0.0
Cu115 Cu 0.18733 0.64229 0.94722 0.0
N116 N 0.15421 0.60283 0.9444 0.0
N117 N 0.10532 0.56704 0.94233 0.0
C118 C 0.12501 0.59701 0.94239 0.0
C119 C 0.12253 0.55323 0.94448 0.0
C120 C 0.15283 0.57544 0.94591 0.0
O121 O 0.18656 0.66187 0.86668 0.0
C122 C 0.18275 0.64601 0.07513 0.0
O123 O 0.18585 0.62179 0.06752 0.0
H124 H 0.11831 0.61445 0.94161 0.0
H125 H 0.17226 0.57173 0.94891 0.0
N126 N 0.22605 0.64549 0.95536 0.0
N127 N 0.27581 0.6684 0.97807 0.0
C128 C 0.25046 0.67114 0.97576 0.0
C129 C 0.23653 0.62585 0.94383 0.0
C130 C 0.26739 0.64001 0.95805 0.0
C131 C 0.19093 0.64929 0.81738 0.0
O132 O 0.19559 0.62603 0.82608 0.0
H133 H 0.2497 0.69159 0.98829 0.0
H134 H 0.22297 0.60307 0.92564 0.0
O135 O 0.18214 0.66071 1.02499 0.0
H136 H 0.11379 0.52893 0.94577 0.0
H137 H 0.28248 0.63039 0.95374 0.0
Cu138 Cu 0.89285 0.43896 0.94868 0.0
N139 N 0.92668 0.47765 0.94396 0.0
N140 N 0.97571 0.51297 0.94072 0.0
C141 C 0.95577 0.48327 0.94843 0.0
C142 C 0.95872 0.52674 0.93103 0.0
C143 C 0.92833 0.5048 0.93311 0.0
O144 O 0.89469 0.42188 1.03217 0.0
C145 C 0.88283 0.4097 0.82618 0.0
O146 O 0.86095 0.41666 0.81916 0.0
H147 H 0.96222 0.46587 0.95627 0.0
H148 H 0.90889 0.50837 0.92652 0.0
N149 N 0.85535 0.43908 0.94483 0.0
N150 N 0.8162 0.44677 0.91912 0.0
C151 C 0.84553 0.45451 0.90618 0.0
C152 C 0.83142 0.42136 0.98318 0.0
C153 C 0.80731 0.42606 0.96753 0.0
C154 C 0.88768 0.39429 1.04121 0.0
O155 O 0.87969 0.37552 0.99164 0.0
H156 H 0.85928 0.47064 0.86893 0.0
H157 H 0.83148 0.40584 1.01987 0.0
O158 O 0.89761 0.4155 0.87946 0.0
H159 H 0.96769 0.5508 0.92258 0.0
H160 H 0.7849 0.41504 0.98958 0.0
Cu161 Cu 0.41612 0.8597 0.09007 0.0
N162 N 0.45594 0.89169 0.09585 0.0
N163 N 0.4911 0.94031 0.10513 0.0
C164 C 0.46121 0.92039 0.10124 0.0
C165 C 0.50557 0.92373 0.10205 0.0
C166 C 0.48365 0.89348 0.09616 0.0
O167 O 0.39725 0.86006 0.17291 0.0
C168 C 0.41487 0.86625 0.95994 0.0
O169 O 0.43731 0.86019 0.96894 0.0
H170 H 0.44334 0.92658 0.10253 0.0
H171 H 0.48769 0.87435 0.0924 0.0
N172 N 0.41108 0.82069 0.08018 0.0
N173 N 0.38518 0.77137 0.05709 0.0
C174 C 0.3843 0.79753 0.06061 0.0
C175 C 0.42968 0.80867 0.08963 0.0
C176 C 0.41361 0.77799 0.07528 0.0
C177 C 0.41031 0.85497 0.22136 0.0
O178 O 0.43298 0.84954 0.21037 0.0
H179 H 0.36439 0.79982 0.04933 0.0
H180 H 0.45304 0.82111 0.10619 0.0
O181 O 0.40015 0.86751 1.00949 0.0
H182 H 0.53003 0.93283 0.10396 0.0
H183 H 0.42198 0.76185 0.07808 0.0
Cu184 Cu 0.57788 0.41648 0.24894 0.0
N185 N 0.53909 0.413 0.24822 0.0
N186 N 0.50129 0.42435 0.2478 0.0
C187 C 0.53172 0.43538 0.25178 0.0
C188 C 0.48902 0.3941 0.24152 0.0
C189 C 0.51243 0.38714 0.24177 0.0
O190 O 0.60006 0.44268 0.32358 0.0
C191 C 0.6218 0.44296 0.14113 0.0
O192 O 0.64419 0.45193 0.18367 0.0
H193 H 0.54822 0.45918 0.25672 0.0
H194 H 0.51023 0.3648 0.23708 0.0
N195 N 0.57267 0.37737 0.26193 0.0
N196 N 0.56602 0.33091 0.24305 0.0
C197 C 0.57199 0.35782 0.21628 0.0
C198 C 0.56652 0.36209 0.31902 0.0
C199 C 0.56262 0.3335 0.30759 0.0
C200 C 0.61795 0.43819 0.36111 0.0
O201 O 0.6266 0.41845 0.34413 0.0
H202 H 0.57526 0.36295 0.16453 0.0
H203 H 0.56454 0.37098 0.3656 0.0
O204 O 0.59429 0.42989 0.16081 0.0
H205 H 0.46491 0.37829 0.23689 0.0
H206 H 0.55705 0.31571 0.34348 0.0
Cu207 Cu 0.17841 0.60011 0.4538 0.0
N208 N 0.14275 0.56308 0.44813 0.0
N209 N 0.09306 0.53049 0.44173 0.0
C210 C 0.11443 0.55967 0.44953 0.0
C211 C 0.10829 0.51479 0.43516 0.0
C212 C 0.13912 0.53506 0.43921 0.0
O213 O 0.17828 0.61758 0.53702 0.0
C214 C 0.19283 0.63221 0.33364 0.0
O215 O 0.21514 0.62571 0.33066 0.0
H216 H 0.10957 0.57825 0.45526 0.0
H217 H 0.15753 0.52977 0.43531 0.0
N218 N 0.21335 0.59553 0.45002 0.0
N219 N 0.24882 0.58328 0.42069 0.0
C220 C 0.22075 0.57955 0.40803 0.0
C221 C 0.23748 0.60944 0.49044 0.0
C222 C 0.2594 0.60193 0.47246 0.0
C223 C 0.18797 0.6457 0.54606 0.0
O224 O 0.19795 0.66483 0.49673 0.0
H225 H 0.2063 0.56614 0.36821 0.0
H226 H 0.23915 0.62441 0.52978 0.0
O227 O 0.17638 0.62539 0.38441 0.0
H228 H 0.09784 0.49056 0.42757 0.0
H229 H 0.28159 0.60988 0.4948 0.0
Cu230 Cu 0.62379 0.17041 0.6027 0.0
N231 N 0.61356 0.1327 0.56631 0.0
N232 N 0.59397 0.08271 0.55323 0.0
C233 C 0.59329 0.10492 0.58865 0.0
C234 C 0.61529 0.09699 0.50687 0.0
C235 C 0.62725 0.12781 0.5149 0.0
O236 O 0.61651 0.16649 0.69654 0.0
C237 C 0.59183 0.18941 0.50802 0.0
O238 O 0.57558 0.20302 0.49701 0.0
H239 H 0.57905 0.10103 0.63112 0.0
H240 H 0.64518 0.14549 0.48617 0.0
N241 N 0.66483 0.19748 0.5878 0.0
N242 N 0.70754 0.23981 0.56341 0.0
C243 C 0.67733 0.22728 0.57387 0.0
C244 C 0.68801 0.19115 0.5867 0.0
C245 C 0.71449 0.21732 0.57145 0.0
C246 C 0.62893 0.15622 0.73628 0.0
O247 O 0.64771 0.14709 0.71445 0.0
H248 H 0.6646 0.23948 0.57094 0.0
H249 H 0.68568 0.16892 0.59526 0.0
O250 O 0.59954 0.18761 0.56664 0.0
H251 H 0.62202 0.08585 0.47058 0.0
H252 H 0.73693 0.21961 0.56528 0.0
Cu253 Cu 0.50012 0.62986 0.7629 0.0
N254 N 0.53673 0.62847 0.76413 0.0
N255 N 0.5691 0.60989 0.77032 0.0
C256 C 0.53958 0.60322 0.76822 0.0
C257 C 0.58546 0.6404 0.76718 0.0
C258 C 0.56541 0.65182 0.76328 0.0
O259 O 0.47847 0.60828 0.84235 0.0
C260 C 0.45849 0.61379 0.65275 0.0
O261 O 0.44414 0.62528 0.68577 0.0
H262 H 0.52045 0.58046 0.77076 0.0
H263 H 0.57129 0.67548 0.7608 0.0
N264 N 0.50825 0.67041 0.76735 0.0
N265 N 0.50844 0.7141 0.74629 0.0
C266 C 0.50154 0.68645 0.72341 0.0
C267 C 0.52008 0.68888 0.81925 0.0
C268 C 0.52017 0.71585 0.80645 0.0
C269 C 0.46003 0.61377 0.87473 0.0
O270 O 0.45137 0.63258 0.8504 0.0
H271 H 0.49124 0.67802 0.67622 0.0
H272 H 0.52733 0.68275 0.86406 0.0
O273 O 0.48047 0.61178 0.67939 0.0
H274 H 0.6101 0.65341 0.7684 0.0
H275 H 0.52751 0.73494 0.83918 0.0
C276 C 0.62636 0.1833 0.34784 0.0
C277 C 0.6023 0.15544 0.32497 0.0
C278 C 0.5782 0.1459 0.43326 0.0
C279 C 0.59939 0.1759 0.45178 0.0
N280 N 0.64211 0.22454 0.42487 0.0
N281 N 0.55324 0.11112 0.34409 0.0
C282 C 0.62337 0.19487 0.40897 0.0
C283 C 0.57793 0.13657 0.36759 0.0
N284 N 0.65201 0.19872 0.31078 0.0
N285 N 0.5576 0.12675 0.47803 0.0
H286 H 0.55127 0.10386 0.29596 0.0
H287 H 0.53335 0.0984 0.37068 0.0
H288 H 0.55693 0.13327 0.52603 0.0
H289 H 0.54306 0.1038 0.46968 0.0
H290 H 0.67149 0.21785 0.32715 0.0
H291 H 0.65479 0.19059 0.26596 0.0
H292 H 0.65758 0.24048 0.39234 0.0
H293 H 0.6406 0.23376 0.46923 0.0
C294 C 0.46523 0.61896 0.46587 0.0
C295 C 0.43648 0.59466 0.44707 0.0
C296 C 0.42209 0.58281 0.56312 0.0
C297 C 0.4513 0.6064 0.58197 0.0
N298 N 0.50188 0.64547 0.55218 0.0
N299 N 0.38809 0.55185 0.47644 0.0
C300 C 0.47324 0.62398 0.53354 0.0
C301 C 0.41511 0.57608 0.4954 0.0
N302 N 0.48471 0.63761 0.41881 0.0
N303 N 0.40086 0.56709 0.61023 0.0
H304 H 0.38103 0.54737 0.42788 0.0
H305 H 0.37303 0.53518 0.5082 0.0
H306 H 0.40577 0.56981 0.66011 0.0
H307 H 0.37799 0.55227 0.60065 0.0
H308 H 0.50428 0.658 0.42855 0.0
H309 H 0.48056 0.63358 0.36889 0.0
H310 H 0.52012 0.65635 0.52016 0.0
H311 H 0.50824 0.6516 0.60061 0.0
C312 C 0.87044 0.3713 0.7387 0.0
C313 C 0.89227 0.39852 0.76893 0.0
C314 C 0.92531 0.41061 0.67332 0.0
C315 C 0.90044 0.38807 0.63843 0.0
N316 N 0.85161 0.34323 0.63713 0.0
N317 N 0.94194 0.4435 0.76767 0.0
C318 C 0.87397 0.36664 0.6715 0.0
C319 C 0.92067 0.41753 0.73799 0.0
N320 N 0.84622 0.35053 0.77426 0.0
N321 N 0.9528 0.42621 0.64263 0.0
H322 H 0.93966 0.44953 0.81503 0.0
H323 H 0.96136 0.46 0.74434 0.0
H324 H 0.95584 0.42125 0.59462 0.0
H325 H 0.9728 0.44172 0.66589 0.0
H326 H 0.83004 0.32946 0.75669 0.0
H327 H 0.84367 0.35366 0.82378 0.0
H328 H 0.83035 0.32804 0.656 0.0
H329 H 0.8546 0.33922 0.58843 0.0
C330 C 0.39489 0.85195 0.78133 0.0
C331 C 0.41845 0.8797 0.75605 0.0
C332 C 0.42781 0.90162 0.86617 0.0
C333 C 0.40878 0.8724 0.89226 0.0
N334 N 0.37303 0.81964 0.8767 0.0
N335 N 0.45864 0.93107 0.77473 0.0
C336 C 0.39147 0.84762 0.85028 0.0
C337 C 0.43479 0.90489 0.79826 0.0
N338 N 0.37585 0.82987 0.73918 0.0
N339 N 0.43984 0.92602 0.9071 0.0
H340 H 0.46502 0.93446 0.72574 0.0
H341 H 0.47363 0.94876 0.8045 0.0
H342 H 0.4351 0.92383 0.95709 0.0
H343 H 0.45189 0.94841 0.89093 0.0
H344 H 0.35668 0.81004 0.75402 0.0
H345 H 0.37777 0.83269 0.68851 0.0
H346 H 0.36266 0.79973 0.84958 0.0
H347 H 0.36904 0.81633 0.92688 0.0
C348 C 0.64042 0.42676 1.04238 0.0
C349 C 0.6277 0.44408 0.0693 0.0
C350 C 0.61321 0.45225 0.95884 0.0
C351 C 0.62579 0.43486 0.93205 0.0
N352 N 0.6575 0.41163 0.94579 0.0
N353 N 0.60946 0.47983 0.05213 0.0
C354 C 0.64182 0.42458 0.97318 0.0
C355 C 0.61667 0.45907 1.02699 0.0
N356 N 0.64869 0.41015 0.08251 0.0
N357 N 0.59585 0.46017 0.92035 0.0
H358 H 0.61185 0.48528 0.10173 0.0
H359 H 0.60397 0.49359 1.02318 0.0
H360 H 0.59322 0.45598 0.87023 0.0
H361 H 0.5825 0.46901 0.93885 0.0
H362 H 0.65442 0.39414 0.06552 0.0
H363 H 0.64753 0.41038 0.1333 0.0
H364 H 0.67241 0.40664 0.97193 0.0
H365 H 0.65748 0.40821 0.89558 0.0
C366 C 0.20948 0.67022 0.24387 0.0
C367 C 0.18544 0.64461 0.27481 0.0
C368 C 0.15401 0.63511 0.17681 0.0
C369 C 0.18049 0.65496 0.14212 0.0
N370 N 0.23234 0.69497 0.14101 0.0
N371 N 0.13336 0.60311 0.27206 0.0
C372 C 0.20771 0.67433 0.1756 0.0
C373 C 0.15681 0.62776 0.24263 0.0
N374 N 0.23403 0.69005 0.27992 0.0
N375 N 0.1266 0.62225 0.14503 0.0
H376 H 0.13396 0.59662 0.32012 0.0
H377 H 0.11359 0.58791 0.24763 0.0
H378 H 0.12485 0.62736 0.09613 0.0
H379 H 0.10576 0.60914 0.16814 0.0
H380 H 0.25156 0.71025 0.26139 0.0
H381 H 0.23534 0.68742 0.33031 0.0
H382 H 0.25418 0.70726 0.1605 0.0
H383 H 0.23067 0.69915 0.09155 0.0
C384 C 0.53301 0.27774 0.20956 0.0
C385 C 0.56207 0.30402 0.20999 0.0
C386 C 0.58321 0.27655 0.1497 0.0
C387 C 0.55507 0.2494 0.15636 0.0
N388 N 0.5043 0.22295 0.20006 0.0
N389 N 0.61579 0.32798 0.1876 0.0
C390 C 0.53017 0.24969 0.18806 0.0
C391 C 0.58746 0.30337 0.1816 0.0
N392 N 0.50804 0.27992 0.22816 0.0
N393 N 0.6055 0.27675 0.11133 0.0
H394 H 0.61957 0.34779 0.21122 0.0
H395 H 0.63573 0.32796 0.1738 0.0
H396 H 0.60268 0.25751 0.08661 0.0
H397 H 0.62551 0.29639 0.09936 0.0
H398 H 0.48578 0.26229 0.22342 0.0
H399 H 0.50949 0.30041 0.24258 0.0
H400 H 0.48643 0.22125 0.22871 0.0
H401 H 0.50182 0.20202 0.18595 0.0
C402 C 0.28647 0.53659 0.38013 0.0
C403 C 0.30266 0.55161 0.32291 0.0
C404 C 0.2824 0.5871 0.32903 0.0
C405 C 0.26534 0.5714 0.38492 0.0
N406 N 0.24753 0.5294 0.45951 0.0
N407 N 0.31366 0.58821 0.23738 0.0
C408 C 0.2663 0.54551 0.40916 0.0
C409 C 0.29986 0.57603 0.29567 0.0
N410 N 0.29128 0.51447 0.40751 0.0
N411 N 0.28261 0.61318 0.3096 0.0
H412 H 0.32693 0.58067 0.21284 0.0
H413 H 0.3105 0.60425 0.21126 0.0
H414 H 0.26972 0.62147 0.33297 0.0
H415 H 0.29671 0.62753 0.27314 0.0
H416 H 0.28254 0.50436 0.45254 0.0
H417 H 0.30577 0.50747 0.38664 0.0
H418 H 0.24492 0.50879 0.47651 0.0
H419 H 0.23281 0.53582 0.48157 0.0
C420 C 0.73395 0.27653 0.4748 0.0
C421 C 0.72795 0.2703 0.54232 0.0
C422 C 0.76681 0.32216 0.5693 0.0
C423 C 0.77289 0.32834 0.50171 0.0
N424 N 0.75992 0.31425 0.38969 0.0
N425 N 0.73445 0.28717 0.65348 0.0
C426 C 0.75553 0.30631 0.45429 0.0
C427 C 0.74299 0.29329 0.58948 0.0
N428 N 0.71964 0.25354 0.43087 0.0
N429 N 0.78496 0.34342 0.61387 0.0
H430 H 0.71766 0.26584 0.66923 0.0
H431 H 0.74247 0.30341 0.69021 0.0
H432 H 0.8025 0.36471 0.60019 0.0
H433 H 0.7839 0.33961 0.66405 0.0
H434 H 0.72489 0.25546 0.38136 0.0
H435 H 0.70317 0.23175 0.4448 0.0
H436 H 0.74668 0.30026 0.35196 0.0
H437 H 0.77575 0.33604 0.37417 0.0
C438 C 0.52002 0.78422 0.65521 0.0
C439 C 0.48965 0.77907 0.65207 0.0
C440 C 0.47224 0.73236 0.71654 0.0
C441 C 0.50218 0.73625 0.71512 0.0
N442 N 0.55409 0.76373 0.6791 0.0
N443 N 0.43627 0.74735 0.67303 0.0
C444 C 0.52601 0.76172 0.68351 0.0
C445 C 0.46558 0.75292 0.68126 0.0
N446 N 0.54305 0.81098 0.63206 0.0
N447 N 0.45047 0.7093 0.75296 0.0
H448 H 0.43093 0.76224 0.64787 0.0
H449 H 0.41723 0.72728 0.68722 0.0
H450 H 0.45483 0.69387 0.77877 0.0
H451 H 0.42888 0.70664 0.76147 0.0
H452 H 0.56607 0.81762 0.63754 0.0
H453 H 0.53904 0.82769 0.61123 0.0
H454 H 0.57195 0.78011 0.65162 0.0
H455 H 0.55892 0.74756 0.69992 0.0
C456 C 0.76851 0.48525 0.89825 0.0
C457 C 0.75469 0.47378 0.83676 0.0
C458 C 0.78225 0.4448 0.82875 0.0
C459 C 0.79736 0.45767 0.8884 0.0
N460 N 0.80863 0.49312 0.97562 0.0
N461 N 0.7511 0.44629 0.73878 0.0
C462 C 0.79158 0.47887 0.9218 0.0
C463 C 0.76234 0.45453 0.80063 0.0
N464 N 0.75857 0.50124 0.93505 0.0
N465 N 0.78626 0.42253 0.80042 0.0
H466 H 0.73646 0.45313 0.71741 0.0
H467 H 0.75789 0.43463 0.70707 0.0
H468 H 0.80103 0.41538 0.81973 0.0
H469 H 0.77367 0.40987 0.76051 0.0
H470 H 0.76555 0.50796 0.98295 0.0
H471 H 0.74131 0.50571 0.91933 0.0
H472 H 0.80774 0.51089 0.99926 0.0
H473 H 0.82558 0.48864 0.99358 0.0
C474 C 0.32647 0.71085 0.95015 0.0
C475 C 0.30558 0.69166 0.99794 0.0
C476 C 0.33923 0.72348 0.08553 0.0
C477 C 0.36017 0.74261 1.03775 0.0
N478 N 0.37662 0.75336 0.92627 0.0
N479 N 0.29285 0.67644 0.10979 0.0
C480 C 0.3547 0.73574 0.97041 0.0
C481 C 0.31235 0.69696 0.06542 0.0
N482 N 0.31847 0.70591 0.88564 0.0
N483 N 0.34466 0.7316 0.14981 0.0
H484 H 0.27288 0.65711 0.09571 0.0
H485 H 0.29714 0.67738 0.15975 0.0
H486 H 0.36457 0.75058 0.16549 0.0
H487 H 0.32914 0.72058 0.18722 0.0
H488 H 0.33109 0.72051 0.84799 0.0
H489 H 0.29804 0.68761 0.86989 0.0
H490 H 0.37548 0.74865 0.8766 0.0
H491 H 0.39716 0.772 0.94041 0.0
C492 C 0.60611 0.12592 0.8389 0.0
C493 C 0.622 0.15454 0.80723 0.0
C494 C 0.61862 0.17986 0.90667 0.0
C495 C 0.60341 0.15129 0.93881 0.0
N496 N 0.58894 0.09824 0.94127 0.0
N497 N 0.64961 0.20908 0.81477 0.0
C498 C 0.59923 0.12467 0.90662 0.0
C499 C 0.63022 0.18164 0.8424 0.0
N500 N 0.59607 0.09986 0.80353 0.0
N501 N 0.62048 0.20503 0.9359 0.0
H502 H 0.65864 0.21119 0.76798 0.0
H503 H 0.65894 0.22947 0.84022 0.0
H504 H 0.61263 0.20481 0.98309 0.0
H505 H 0.62788 0.22567 0.9118 0.0
H506 H 0.58141 0.07836 0.82208 0.0
H507 H 0.60035 0.09979 0.75376 0.0
H508 H 0.58807 0.07868 0.92249 0.0
H509 H 0.58405 0.09674 0.99109 0.0
C510 C 0.45178 0.6198 0.99485 0.0
C511 C 0.45018 0.60076 0.94206 0.0
C512 C 0.43372 0.55834 1.01974 0.0
C513 C 0.43014 0.57593 0.06948 0.0
N514 N 0.43149 0.6228 0.10004 0.0
N515 N 0.43405 0.54995 0.90356 0.0
C516 C 0.43812 0.60658 0.05604 0.0
C517 C 0.43975 0.56949 0.95434 0.0
N518 N 0.46751 0.65063 0.98786 0.0
N519 N 0.43235 0.53129 1.03526 0.0
H520 H 0.43666 0.55673 0.85471 0.0
H521 H 0.42358 0.5265 0.90973 0.0
H522 H 0.42954 0.52307 0.08309 0.0
H523 H 0.43756 0.51888 1.00208 0.0
H524 H 0.47178 0.66545 1.02671 0.0
H525 H 0.47933 0.66141 0.94547 0.0
H526 H 0.43384 0.64408 0.08938 0.0
H527 H 0.42099 0.61399 0.14478 0.0
C528 C 0.91512 0.39718 0.14485 0.0
C529 C 0.88751 0.38365 0.10875 0.0
C530 C 0.85914 0.35964 0.20862 0.0
C531 C 0.88559 0.37814 0.24547 0.0
N532 N 0.93927 0.41392 0.25084 0.0
N533 N 0.83287 0.35153 0.10485 0.0
C534 C 0.91397 0.39619 0.21423 0.0
C535 C 0.85944 0.36405 0.1399 0.0
N536 N 0.94232 0.41108 0.1124 0.0
N537 N 0.83367 0.33836 0.24004 0.0
H538 H 0.8321 0.35397 0.05438 0.0
H539 H 0.81136 0.34013 0.12609 0.0
H540 H 0.83323 0.33502 0.29055 0.0
H541 H 0.8142 0.32232 0.21597 0.0
H542 H 0.9634 0.41929 0.13538 0.0
H543 H 0.94361 0.41189 0.06145 0.0
H544 H 0.95974 0.43051 0.23112 0.0
H545 H 0.93938 0.41292 0.30177 0.0
C546 C 0.3911 0.82701 0.39313 0.0
C547 C 0.40574 0.85485 0.42799 0.0
C548 C 0.41523 0.88327 0.32483 0.0
C549 C 0.40161 0.85549 0.29024 0.0
N550 N 0.36914 0.80156 0.29037 0.0
N551 N 0.42419 0.90874 0.42956 0.0
C552 C 0.3868 0.82757 0.32438 0.0
C553 C 0.41524 0.88278 0.39449 0.0
N554 N 0.38356 0.80024 0.4244 0.0
N555 N 0.42964 0.91001 0.29098 0.0
H556 H 0.42406 0.90889 0.48058 0.0
H557 H 0.42903 0.92946 0.40855 0.0
H558 H 0.42887 0.91104 0.24008 0.0
H559 H 0.44336 0.93091 0.31285 0.0
H560 H 0.37625 0.77977 0.40013 0.0
H561 H 0.38667 0.79863 0.47434 0.0
H562 H 0.35546 0.78063 0.31254 0.0
H563 H 0.36594 0.80165 0.2399 0.0
C564 C 0.66529 0.47565 0.51382 0.0
C565 C 0.64247 0.47246 0.55906 0.0
C566 C 0.60326 0.4471 0.47422 0.0
C567 C 0.62632 0.45225 0.42764 0.0
N568 N 0.67967 0.47701 0.40019 0.0
N569 N 0.59062 0.46113 0.57812 0.0
C570 C 0.65746 0.46822 0.44668 0.0
C571 C 0.61171 0.45996 0.53795 0.0
N572 N 0.69419 0.48434 0.53545 0.0
N573 N 0.57324 0.4285 0.45922 0.0
H574 H 0.59592 0.47054 0.62477 0.0
H575 H 0.56865 0.45548 0.5629 0.0
H576 H 0.56578 0.41814 0.41393 0.0
H577 H 0.55584 0.42111 0.49366 0.0
H578 H 0.7109 0.48382 0.50635 0.0
H579 H 0.70079 0.48944 0.58419 0.0
H580 H 0.70269 0.49137 0.40979 0.0
H581 H 0.67478 0.47241 0.3506 0.0
C582 C 0.1607 0.64499 0.6475 0.0
C583 C 0.18865 0.65628 0.6134 0.0
C584 C 0.21685 0.67557 0.71564 0.0
C585 C 0.18926 0.65876 0.75011 0.0
N586 N 0.13458 0.62887 0.7517 0.0
N587 N 0.24369 0.68325 0.61309 0.0
C588 C 0.16094 0.64447 0.71687 0.0
C589 C 0.21691 0.67263 0.64664 0.0
N590 N 0.13407 0.63455 0.61313 0.0
N591 N 0.24296 0.69364 0.74953 0.0
H592 H 0.24466 0.68188 0.56244 0.0
H593 H 0.26495 0.69207 0.63552 0.0
H594 H 0.24313 0.69578 0.8003 0.0
H595 H 0.2636 0.70843 0.72743 0.0
H596 H 0.11303 0.62805 0.63466 0.0
H597 H 0.13355 0.63496 0.56211 0.0
H598 H 0.11347 0.61473 0.73059 0.0
H599 H 0.13411 0.62925 0.80268 0.0
C600 C 0.51408 0.02107 0.06246 0.0
C601 C 0.51841 0.03375 0.1258 0.0
C602 C 0.50821 0.98529 0.17518 0.0
C603 C 0.5039 0.9726 0.11194 0.0
N604 N 0.50633 0.97813 0.99535 0.0
N605 N 0.52502 0.03059 0.24127 0.0
C606 C 0.50817 0.99058 0.05544 0.0
C607 C 0.51717 0.01659 0.1819 0.0
N608 N 0.51446 0.03797 1.00963 0.0
N609 N 0.5025 0.96692 0.22858 0.0
H610 H 0.53152 0.05348 0.24696 0.0
H611 H 0.52722 0.02035 0.28377 0.0
H612 H 0.49663 0.94409 0.22462 0.0
H613 H 0.50205 0.97367 0.27632 0.0
H614 H 0.50907 0.02968 0.96224 0.0
H615 H 0.51881 0.06034 1.01383 0.0
H616 H 0.51121 0.99019 0.9516 0.0
H617 H 0.5016 0.9557 0.98964 0.0
C618 C 0.47539 0.44863 0.19018 0.0
C619 C 0.48479 0.44106 0.24954 0.0
C620 C 0.45872 0.46304 0.31199 0.0
C621 C 0.44691 0.46794 0.25285 0.0
N622 N 0.44216 0.46464 0.1361 0.0
N623 N 0.48464 0.43895 0.36672 0.0
C624 C 0.45497 0.46075 0.19188 0.0
C625 C 0.47642 0.44792 0.31051 0.0
N626 N 0.48635 0.44437 0.13252 0.0
N627 N 0.45324 0.47335 0.36921 0.0
H628 H 0.4981 0.42837 0.36664 0.0
H629 H 0.47691 0.4404 0.41294 0.0
H630 H 0.44021 0.48436 0.37122 0.0
H631 H 0.46321 0.47302 0.41371 0.0
H632 H 0.4826 0.45155 0.0873 0.0
H633 H 0.50109 0.43524 0.13055 0.0
H634 H 0.44469 0.45747 0.09013 0.0
H635 H 0.42743 0.4738 0.13649 0.0
C636 C 0.04586 0.51429 0.3781 0.0
C637 C 0.06059 0.51862 0.43937 0.0
C638 C 1.01166 0.49958 0.49572 0.0
C639 C 0.99667 0.4927 0.43436 0.0
N640 N 0.99826 0.49029 0.31729 0.0
N641 N 0.05862 0.51434 0.55631 0.0
C642 C 1.01347 0.49945 0.37542 0.0
C643 C 0.04377 0.51113 0.4983 0.0
N644 N 0.06307 0.52477 0.32278 0.0
N645 N 0.99493 0.49521 0.55116 0.0
H646 H 0.08219 0.52317 0.55911 0.0
H647 H 0.04769 0.50687 0.6011 0.0
H648 H 0.97137 0.48678 0.54992 0.0
H649 H 1.00432 0.50171 0.5976 0.0
H650 H 0.05415 0.5251 0.27695 0.0
H651 H 0.08684 0.53518 0.32371 0.0
H652 H 1.00886 0.49161 0.27285 0.0
H653 H 0.97454 0.47946 0.31406 0.0
C654 C 0.56311 1.00622 0.63557 0.0
C655 C 0.54664 0.98675 0.58339 0.0
C656 C 0.55756 0.03101 0.51505 0.0
C657 C 0.57707 0.05037 0.56455 0.0
N658 N 0.6031 0.056 0.66705 0.0
N659 N 0.53191 0.98022 0.46999 0.0
C660 C 0.581 0.03789 0.6238 0.0
C661 C 0.5447 0.99903 0.52215 0.0
N662 N 0.56111 0.99436 0.69666 0.0
N663 N 0.55085 0.04325 0.46194 0.0
H664 H 0.52301 0.95679 0.47322 0.0
H665 H 0.53253 0.98802 0.42245 0.0
H666 H 0.55971 0.06657 0.45586 0.0
H667 H 0.53452 0.03035 0.42714 0.0
H668 H 0.57028 1.00768 0.73811 0.0
H669 H 0.54768 0.97126 0.70665 0.0
H670 H 0.6089 0.04767 0.70833 0.0
H671 H 0.61776 0.07896 0.65828 0.0
C672 C 0.58851 0.55228 0.84301 0.0
C673 C 0.60776 0.5512 0.79383 0.0
C674 C 0.59717 0.58515 0.72507 0.0
C675 C 0.58095 0.58901 0.77734 0.0
N676 N 0.56449 0.57963 0.8893 0.0
N677 N 0.63391 0.56968 0.69148 0.0
C678 C 0.57733 0.57332 0.83716 0.0
C679 C 0.61287 0.5683 0.73542 0.0
N680 N 0.58046 0.53264 0.89464 0.0
N681 N 0.59696 0.59718 0.66522 0.0
H682 H 0.64629 0.55819 0.69836 0.0
H683 H 0.64096 0.58413 0.6511 0.0
H684 H 0.58539 0.60937 0.65651 0.0
H685 H 0.60586 0.59286 0.62327 0.0
H686 H 0.56427 0.53019 0.92927 0.0
H687 H 0.58799 0.51673 0.8993 0.0
H688 H 0.56394 0.57129 0.93624 0.0
H689 H 0.55663 0.59535 0.88683 0.0
C690 C 0.05668 0.54539 0.88164 0.0
C691 C 0.07255 0.55293 0.94198 0.0
C692 C 1.02446 0.53564 1.00122 0.0
C693 C 1.00848 0.52684 0.94106 0.0
N694 N 1.00789 0.52006 0.82499 0.0
N695 N 0.07269 0.55373 0.05921 0.0
C696 C 1.02423 0.53086 0.88141 0.0
C697 C 0.0567 0.54762 1.00191 0.0
N698 N 0.07293 0.55288 0.82476 0.0
N699 N 1.0086 0.53293 0.05723 0.0
H700 H 0.09635 0.563 0.06049 0.0
H701 H 0.06274 0.54838 0.10527 0.0
H702 H 0.98495 0.52381 0.05759 0.0
H703 H 1.01866 0.54097 0.10257 0.0
H704 H 0.0633 0.55076 0.77862 0.0
H705 H 0.09667 0.56295 0.82404 0.0
H706 H 1.01744 0.5195 0.78035 0.0
H707 H 0.98416 0.50994 0.82371 0.0
loop_
_geom_bond_atom_site_label_1
_geom_bond_atom_site_label_2
_geom_bond_distance
_geom_bond_site_symmetry_2
_ccdc_geom_bond_type
Cu0 N1 1.999 . S
Cu0 O6 1.974 1_554 S
Cu0 N11 1.985 . S
Cu0 O20 1.959 . S
N1 Cu0 1.999 . S
N1 C3 1.263 . S
N1 C5 1.389 . S
N2 C3 1.358 . S
N2 C4 1.400 . S
C3 N1 1.263 . S
C3 N2 1.358 . S
C3 H9 0.930 . S
C4 N2 1.400 . S
C4 C5 1.351 . S
C4 H21 0.930 . S
C5 N1 1.389 . S
C5 C4 1.351 . S
C5 H10 0.930 . S
O6 Cu0 1.974 1_556 S
O6 C16 1.282 . S
C7 O8 1.261 . S
C7 O20 1.251 . S
O8 C7 1.261 . S
H9 C3 0.930 . S
H10 C5 0.930 . S
N11 Cu0 1.985 . S
N11 C13 1.335 . S
N11 C14 1.390 . S
N12 C13 1.345 . S
N12 C15 1.336 . S
C13 N11 1.335 . S
C13 N12 1.345 . S
C13 H18 0.930 . S
C14 N11 1.390 . S
C14 C15 1.346 . S
C14 H19 0.930 1_554 S
C15 N12 1.336 . S
C15 C14 1.346 . S
C15 H22 0.929 . S
C16 O6 1.282 . S
C16 O17 1.216 . S
O17 C16 1.216 . S
H18 C13 0.930 . S
H19 C14 0.930 1_556 S
O20 Cu0 1.959 . S
O20 C7 1.251 . S
H21 C4 0.930 . S
H22 C15 0.929 . S
Cu23 N24 1.999 . S
Cu23 O29 1.974 . S
Cu23 N34 1.985 . S
Cu23 O43 1.959 . S
N24 Cu23 1.999 . S
N24 C26 1.263 . S
N24 C28 1.389 . S
N25 C26 1.358 . S
N25 C27 1.400 . S
C26 N24 1.263 . S
C26 N25 1.358 . S
C26 H32 0.930 . S
C27 N25 1.400 . S
C27 C28 1.351 . S
C27 H44 0.930 . S
C28 N24 1.389 . S
C28 C27 1.351 . S
C28 H33 0.930 . S
O29 Cu23 1.974 . S
O29 C39 1.282 . S
C30 O31 1.261 . S
C30 O43 1.251 . S
O31 C30 1.261 . S
H32 C26 0.930 . S
H33 C28 0.930 . S
N34 Cu23 1.985 . S
N34 C36 1.335 . S
N34 C37 1.390 . S
N35 C36 1.345 . S
N35 C38 1.336 . S
C36 N34 1.335 . S
C36 N35 1.345 . S
C36 H41 0.930 . S
C37 N34 1.390 . S
C37 C38 1.346 . S
C37 H42 0.930 . S
C38 N35 1.336 . S
C38 C37 1.346 . S
C38 H45 0.929 . S
C39 O29 1.282 . S
C39 O40 1.216 . S
O40 C39 1.216 . S
H41 C36 0.930 . S
H42 C37 0.930 . S
O43 Cu23 1.959 . S
O43 C30 1.251 . S
H44 C27 0.930 . S
H45 C38 0.929 . S
Cu46 N47 1.999 . S
Cu46 O52 1.974 . S
Cu46 N57 1.985 . S
Cu46 O66 1.959 . S
N47 Cu46 1.999 . S
N47 C49 1.263 . S
N47 C51 1.389 . S
N48 C49 1.358 . S
N48 C50 1.400 . S
C49 N47 1.263 . S
C49 N48 1.358 . S
C49 H55 0.930 . S
C50 N48 1.400 . S
C50 C51 1.351 . S
C50 H67 0.930 . S
C51 N47 1.389 . S
C51 C50 1.351 . S
C51 H56 0.930 . S
O52 Cu46 1.974 . S
O52 C62 1.282 . S
C53 O54 1.261 . S
C53 O66 1.251 . S
O54 C53 1.261 . S
H55 C49 0.930 . S
H56 C51 0.930 . S
N57 Cu46 1.985 . S
N57 C59 1.335 . S
N57 C60 1.390 . S
N58 C59 1.345 . S
N58 C61 1.336 . S
C59 N57 1.335 . S
C59 N58 1.345 . S
C59 H64 0.930 . S
C60 N57 1.390 . S
C60 C61 1.346 . S
C60 H65 0.930 . S
C61 N58 1.336 . S
C61 C60 1.346 . S
C61 H68 0.929 . S
C62 O52 1.282 . S
C62 O63 1.216 . S
O63 C62 1.216 . S
H64 C59 0.930 . S
H65 C60 0.930 . S
O66 Cu46 1.959 . S
O66 C53 1.251 . S
H67 C50 0.930 . S
H68 C61 0.929 . S
Cu69 N70 1.999 . S
Cu69 O75 1.974 . S
Cu69 N80 1.985 . S
Cu69 O89 1.959 . S
N70 Cu69 1.999 . S
N70 C72 1.263 . S
N70 C74 1.389 . S
N71 C72 1.358 . S
N71 C73 1.400 . S
C72 N70 1.263 . S
C72 N71 1.358 . S
C72 H78 0.930 . S
C73 N71 1.400 . S
C73 C74 1.351 . S
C73 H90 0.930 . S
C74 N70 1.389 . S
C74 C73 1.351 . S
C74 H79 0.930 . S
O75 Cu69 1.974 . S
O75 C85 1.282 . S
C76 O77 1.261 . S
C76 O89 1.251 . S
O77 C76 1.261 . S
H78 C72 0.930 . S
H79 C74 0.930 . S
N80 Cu69 1.985 . S
N80 C82 1.335 . S
N80 C83 1.390 . S
N81 C82 1.345 . S
N81 C84 1.336 . S
C82 N80 1.335 . S
C82 N81 1.345 . S
C82 H87 0.930 . S
C83 N80 1.390 . S
C83 C84 1.346 . S
C83 H88 0.930 . S
C84 N81 1.336 . S
C84 C83 1.346 . S
C84 H91 0.929 . S
C85 O75 1.282 . S
C85 O86 1.216 . S
O86 C85 1.216 . S
H87 C82 0.930 . S
H88 C83 0.930 . S
O89 Cu69 1.959 . S
O89 C76 1.251 . S
H90 C73 0.930 . S
H91 C84 0.929 . S
Cu92 N93 1.999 . S
Cu92 O98 1.974 . S
Cu92 N103 1.985 . S
Cu92 O112 1.959 . S
N93 Cu92 1.999 . S
N93 C95 1.263 . S
N93 C97 1.389 . S
N94 C95 1.358 . S
N94 C96 1.400 . S
C95 N93 1.263 . S
C95 N94 1.358 . S
C95 H101 0.930 . S
C96 N94 1.400 . S
C96 C97 1.351 . S
C96 H113 0.930 . S
C97 N93 1.389 . S
C97 C96 1.351 . S
C97 H102 0.930 . S
O98 Cu92 1.974 . S
O98 C108 1.282 . S
C99 O100 1.261 . S
C99 O112 1.251 . S
O100 C99 1.261 . S
H101 C95 0.930 . S
H102 C97 0.930 . S
N103 Cu92 1.985 . S
N103 C105 1.335 . S
N103 C106 1.390 . S
N104 C105 1.345 . S
N104 C107 1.336 . S
C105 N103 1.335 . S
C105 N104 1.345 . S
C105 H110 0.930 . S
C106 N103 1.390 . S
C106 C107 1.346 . S
C106 H111 0.930 . S
C107 N104 1.336 . S
C107 C106 1.346 . S
C107 H114 0.929 . S
C108 O98 1.282 . S
C108 O109 1.216 . S
O109 C108 1.216 . S
H110 C105 0.930 . S
H111 C106 0.930 . S
O112 Cu92 1.959 . S
O112 C99 1.251 . S
H113 C96 0.930 . S
H114 C107 0.929 . S
Cu115 N116 1.999 . S
Cu115 O121 1.974 . S
Cu115 N126 1.985 . S
Cu115 O135 1.959 . S
N116 Cu115 1.999 . S
N116 C118 1.263 . S
N116 C120 1.389 . S
N117 C118 1.358 . S
N117 C119 1.400 . S
C118 N116 1.263 . S
C118 N117 1.358 . S
C118 H124 0.930 . S
C119 N117 1.400 . S
C119 C120 1.351 . S
C119 H136 0.930 . S
C120 N116 1.389 . S
C120 C119 1.351 . S
C120 H125 0.930 . S
O121 Cu115 1.974 . S
O121 C131 1.282 . S
C122 O123 1.261 1_554 S
C122 O135 1.251 1_554 S
O123 C122 1.261 1_556 S
H124 C118 0.930 . S
H125 C120 0.930 . S
N126 Cu115 1.985 . S
N126 C128 1.335 . S
N126 C129 1.390 . S
N127 C128 1.345 . S
N127 C130 1.336 . S
C128 N126 1.335 . S
C128 N127 1.345 . S
C128 H133 0.930 . S
C129 N126 1.390 . S
C129 C130 1.346 . S
C129 H134 0.930 . S
C130 N127 1.336 . S
C130 C129 1.346 . S
C130 H137 0.929 . S
C131 O121 1.282 . S
C131 O132 1.216 . S
O132 C131 1.216 . S
H133 C128 0.930 . S
H134 C129 0.930 . S
O135 Cu115 1.959 . S
O135 C122 1.251 1_556 S
H136 C119 0.930 . S
H137 C130 0.929 . S
Cu138 N139 1.999 . S
Cu138 O144 1.974 . S
Cu138 N149 1.985 . S
Cu138 O158 1.959 . S
N139 Cu138 1.999 . S
N139 C141 1.263 . S
N139 C143 1.389 . S
N140 C141 1.358 . S
N140 C142 1.400 . S
C141 N139 1.263 . S
C141 N140 1.358 . S
C141 H147 0.930 . S
C142 N140 1.400 . S
C142 C143 1.351 . S
C142 H159 0.930 . S
C143 N139 1.389 . S
C143 C142 1.351 . S
C143 H148 0.930 . S
O144 Cu138 1.974 . S
O144 C154 1.288 . S
C145 O146 1.261 . S
C145 O158 1.251 . S
O146 C145 1.261 . S
H147 C141 0.930 . S
H148 C143 0.930 . S
N149 Cu138 1.985 . S
N149 C151 1.335 . S
N149 C152 1.390 . S
N150 C151 1.345 . S
N150 C153 1.336 . S
C151 N149 1.335 . S
C151 N150 1.345 . S
C151 H156 0.930 . S
C152 N149 1.390 . S
C152 C153 1.346 . S
C152 H157 0.930 . S
C153 N150 1.336 . S
C153 C152 1.346 . S
C153 H160 0.929 . S
C154 O144 1.288 . S
C154 O155 1.220 . S
O155 C154 1.220 . S
H156 C151 0.930 . S
H157 C152 0.930 . S
O158 Cu138 1.959 . S
O158 C145 1.251 . S
H159 C142 0.930 . S
H160 C153 0.929 . S
Cu161 N162 1.999 . S
Cu161 O167 1.974 . S
Cu161 N172 1.985 . S
Cu161 O181 1.959 1_554 S
N162 Cu161 1.999 . S
N162 C164 1.263 . S
N162 C166 1.389 . S
N163 C164 1.358 . S
N163 C165 1.400 . S
C164 N162 1.263 . S
C164 N163 1.358 . S
C164 H170 0.930 . S
C165 N163 1.400 . S
C165 C166 1.351 . S
C165 H182 0.930 1_554 S
C166 N162 1.389 . S
C166 C165 1.351 . S
C166 H171 0.930 1_554 S
O167 Cu161 1.974 . S
O167 C177 1.282 . S
C168 O169 1.261 . S
C168 O181 1.251 . S
O169 C168 1.261 . S
H170 C164 0.930 . S
H171 C166 0.930 1_556 S
N172 Cu161 1.985 . S
N172 C174 1.335 . S
N172 C175 1.390 . S
N173 C174 1.345 . S
N173 C176 1.336 . S
C174 N172 1.335 . S
C174 N173 1.345 . S
C174 H179 0.930 1_554 S
C175 N172 1.390 . S
C175 C176 1.346 . S
C175 H180 0.930 . S
C176 N173 1.336 . S
C176 C175 1.346 . S
C176 H183 0.929 . S
C177 O167 1.282 . S
C177 O178 1.216 . S
O178 C177 1.216 . S
H179 C174 0.930 1_556 S
H180 C175 0.930 . S
O181 Cu161 1.959 1_556 S
O181 C168 1.251 . S
H182 C165 0.930 1_556 S
H183 C176 0.929 . S
Cu184 N185 1.999 . S
Cu184 O190 1.974 . S
Cu184 N195 1.985 . S
Cu184 O204 1.959 . S
N185 Cu184 1.999 . S
N185 C187 1.263 . S
N185 C189 1.389 . S
N186 C187 1.358 . S
N186 C188 1.400 . S
C187 N185 1.263 . S
C187 N186 1.358 . S
C187 H193 0.930 . S
C188 N186 1.400 . S
C188 C189 1.351 . S
C188 H205 0.930 . S
C189 N185 1.389 . S
C189 C188 1.351 . S
C189 H194 0.930 . S
O190 Cu184 1.974 . S
O190 C200 1.282 . S
C191 O192 1.261 . S
C191 O204 1.251 . S
O192 C191 1.261 . S
H193 C187 0.930 . S
H194 C189 0.930 . S
N195 Cu184 1.985 . S
N195 C197 1.335 . S
N195 C198 1.390 . S
N196 C197 1.345 . S
N196 C199 1.336 . S
C197 N195 1.335 . S
C197 N196 1.345 . S
C197 H202 0.930 . S
C198 N195 1.390 . S
C198 C199 1.346 . S
C198 H203 0.930 . S
C199 N196 1.336 . S
C199 C198 1.346 . S
C199 H206 0.929 . S
C200 O190 1.282 . S
C200 O201 1.216 . S
O201 C200 1.216 . S
H202 C197 0.930 . S
H203 C198 0.930 . S
O204 Cu184 1.959 . S
O204 C191 1.251 . S
H205 C188 0.930 . S
H206 C199 0.929 . S
Cu207 N208 1.999 . S
Cu207 O213 1.974 . S
Cu207 N218 1.985 . S
Cu207 O227 1.959 . S
N208 Cu207 1.999 . S
N208 C210 1.263 . S
N208 C212 1.389 . S
N209 C210 1.358 . S
N209 C211 1.400 . S
C210 N208 1.263 . S
C210 N209 1.358 . S
C210 H216 0.930 . S
C211 N209 1.400 . S
C211 C212 1.351 . S
C211 H228 0.930 . S
C212 N208 1.389 . S
C212 C211 1.351 . S
C212 H217 0.930 . S
O213 Cu207 1.974 . S
O213 C223 1.282 . S
C214 O215 1.261 . S
C214 O227 1.251 . S
O215 C214 1.261 . S
H216 C210 0.930 . S
H217 C212 0.930 . S
N218 Cu207 1.985 . S
N218 C220 1.335 . S
N218 C221 1.390 . S
N219 C220 1.345 . S
N219 C222 1.336 . S
C220 N218 1.335 . S
C220 N219 1.345 . S
C220 H225 0.930 . S
C221 N218 1.390 . S
C221 C222 1.346 . S
C221 H226 0.930 . S
C222 N219 1.336 . S
C222 C221 1.346 . S
C222 H229 0.929 . S
C223 O213 1.282 . S
C223 O224 1.216 . S
O224 C223 1.216 . S
H225 C220 0.930 . S
H226 C221 0.930 . S
O227 Cu207 1.959 . S
O227 C214 1.251 . S
H228 C211 0.930 . S
H229 C222 0.929 . S
Cu230 N231 1.999 . S
Cu230 O236 1.974 . S
Cu230 N241 1.985 . S
Cu230 O250 1.959 . S
N231 Cu230 1.999 . S
N231 C233 1.263 . S
N231 C235 1.389 . S
N232 C233 1.358 . S
N232 C234 1.400 . S
C233 N231 1.263 . S
C233 N232 1.358 . S
C233 H239 0.930 . S
C234 N232 1.400 . S
C234 C235 1.351 . S
C234 H251 0.930 . S
C235 N231 1.389 . S
C235 C234 1.351 . S
C235 H240 0.930 . S
O236 Cu230 1.974 . S
O236 C246 1.282 . S
C237 O238 1.261 . S
C237 O250 1.251 . S
O238 C237 1.261 . S
H239 C233 0.930 . S
H240 C235 0.930 . S
N241 Cu230 1.985 . S
N241 C243 1.335 . S
N241 C244 1.390 . S
N242 C243 1.345 . S
N242 C245 1.336 . S
C243 N241 1.335 . S
C243 N242 1.345 . S
C243 H248 0.930 . S
C244 N241 1.390 . S
C244 C245 1.346 . S
C244 H249 0.930 . S
C245 N242 1.336 . S
C245 C244 1.346 . S
C245 H252 0.929 . S
C246 O236 1.282 . S
C246 O247 1.216 . S
O247 C246 1.216 . S
H248 C243 0.930 . S
H249 C244 0.930 . S
O250 Cu230 1.959 . S
O250 C237 1.251 . S
H251 C234 0.930 . S
H252 C245 0.929 . S
Cu253 N254 1.999 . S
Cu253 O259 1.974 . S
Cu253 N264 1.985 . S
Cu253 O273 1.959 . S
N254 Cu253 1.999 . S
N254 C256 1.263 . S
N254 C258 1.389 . S
N255 C256 1.358 . S
N255 C257 1.400 . S
C256 N254 1.263 . S
C256 N255 1.358 . S
C256 H262 0.930 . S
C257 N255 1.400 . S
C257 C258 1.351 . S
C257 H274 0.930 . S
C258 N254 1.389 . S
C258 C257 1.351 . S
C258 H263 0.930 . S
O259 Cu253 1.974 . S
O259 C269 1.282 . S
C260 O261 1.261 . S
C260 O273 1.251 . S
O261 C260 1.261 . S
H262 C256 0.930 . S
H263 C258 0.930 . S
N264 Cu253 1.985 . S
N264 C266 1.335 . S
N264 C267 1.390 . S
N265 C266 1.345 . S
N265 C268 1.336 . S
C266 N264 1.335 . S
C266 N265 1.345 . S
C266 H271 0.930 . S
C267 N264 1.390 . S
C267 C268 1.346 . S
C267 H272 0.930 . S
C268 N265 1.336 . S
C268 C267 1.346 . S
C268 H275 0.929 . S
C269 O259 1.282 . S
C269 O270 1.216 . S
O270 C269 1.216 . S
H271 C266 0.930 . S
H272 C267 0.930 . S
O273 Cu253 1.959 . S
O273 C260 1.251 . S
H274 C257 0.930 . S
H275 C268 0.929 . S
C276 C277 1.363 . S
C276 C282 1.379 . S
C276 N284 1.356 . S
C277 C276 1.363 . S
C277 C283 1.363 . S
C278 C279 1.363 . S
C278 C283 1.379 . S
C278 N285 1.356 . S
C279 C278 1.363 . S
C279 C282 1.363 . S
N280 C282 1.356 . S
N280 H292 0.984 . S
N280 H293 0.985 . S
N281 C283 1.356 . S
N281 H286 0.984 . S
N281 H287 0.985 . S
C282 C276 1.379 . S
C282 C279 1.363 . S
C282 N280 1.356 . S
C283 C277 1.363 . S
C283 C278 1.379 . S
C283 N281 1.356 . S
N284 C276 1.356 . S
N284 H290 0.984 . S
N284 H291 0.984 . S
N285 C278 1.356 . S
N285 H288 0.984 . S
N285 H289 0.985 . S
H286 N281 0.984 . S
H287 N281 0.985 . S
H288 N285 0.984 . S
H289 N285 0.985 . S
H290 N284 0.984 . S
H291 N284 0.984 . S
H292 N280 0.984 . S
H293 N280 0.985 . S
C294 C295 1.363 . S
C294 C300 1.379 . S
C294 N302 1.356 . S
C295 C294 1.363 . S
C295 C301 1.363 . S
C296 C297 1.363 . S
C296 C301 1.379 . S
C296 N303 1.356 . S
C297 C296 1.363 . S
C297 C300 1.363 . S
N298 C300 1.356 . S
N298 H310 0.984 . S
N298 H311 0.985 . S
N299 C301 1.356 . S
N299 H304 0.984 . S
N299 H305 0.985 . S
C300 C294 1.379 . S
C300 C297 1.363 . S
C300 N298 1.356 . S
C301 C295 1.363 . S
C301 C296 1.379 . S
C301 N299 1.356 . S
N302 C294 1.356 . S
N302 H308 0.984 . S
N302 H309 0.984 . S
N303 C296 1.356 . S
N303 H306 0.984 . S
N303 H307 0.985 . S
H304 N299 0.984 . S
H305 N299 0.985 . S
H306 N303 0.984 . S
H307 N303 0.985 . S
H308 N302 0.984 . S
H309 N302 0.984 . S
H310 N298 0.984 . S
H311 N298 0.985 . S
C312 C313 1.363 . S
C312 C318 1.379 . S
C312 N320 1.356 . S
C313 C312 1.363 . S
C313 C319 1.363 . S
C314 C315 1.363 . S
C314 C319 1.379 . S
C314 N321 1.356 . S
C315 C314 1.363 . S
C315 C318 1.363 . S
N316 C318 1.356 . S
N316 H328 0.984 . S
N316 H329 0.985 . S
N317 C319 1.356 . S
N317 H322 0.984 . S
N317 H323 0.985 . S
C318 C312 1.379 . S
C318 C315 1.363 . S
C318 N316 1.356 . S
C319 C313 1.363 . S
C319 C314 1.379 . S
C319 N317 1.356 . S
N320 C312 1.356 . S
N320 H326 0.984 . S
N320 H327 0.984 . S
N321 C314 1.356 . S
N321 H324 0.984 . S
N321 H325 0.985 . S
H322 N317 0.984 . S
H323 N317 0.985 . S
H324 N321 0.984 . S
H325 N321 0.985 . S
H326 N320 0.984 . S
H327 N320 0.984 . S
H328 N316 0.984 . S
H329 N316 0.985 . S
C330 C331 1.363 . S
C330 C336 1.379 . S
C330 N338 1.356 . S
C331 C330 1.363 . S
C331 C337 1.363 . S
C332 C333 1.363 . S
C332 C337 1.379 . S
C332 N339 1.356 . S
C333 C332 1.363 . S
C333 C336 1.363 . S
N334 C336 1.356 . S
N334 H346 0.984 . S
N334 H347 0.985 . S
N335 C337 1.356 . S
N335 H340 0.984 . S
N335 H341 0.985 . S
C336 C330 1.379 . S
C336 C333 1.363 . S
C336 N334 1.356 . S
C337 C331 1.363 . S
C337 C332 1.379 . S
C337 N335 1.356 . S
N338 C330 1.356 . S
N338 H344 0.984 . S
N338 H345 0.984 . S
N339 C332 1.356 . S
N339 H342 0.984 . S
N339 H343 0.985 . S
H340 N335 0.984 . S
H341 N335 0.985 . S
H342 N339 0.984 . S
H343 N339 0.985 . S
H344 N338 0.984 . S
H345 N338 0.984 . S
H346 N334 0.984 . S
H347 N334 0.985 . S
C348 C349 1.363 . S
C348 C354 1.379 1_554 S
C348 N356 1.356 . S
C349 C348 1.363 . S
C349 C355 1.363 . S
C350 C351 1.363 . S
C350 C355 1.379 1_556 S
C350 N357 1.356 . S
C351 C350 1.363 . S
C351 C354 1.363 . S
N352 C354 1.356 . S
N352 H364 0.984 . S
N352 H365 0.985 . S
N353 C355 1.356 . S
N353 H358 0.984 . S
N353 H359 0.985 . S
C354 C348 1.379 1_556 S
C354 C351 1.363 . S
C354 N352 1.356 . S
C355 C349 1.363 . S
C355 C350 1.379 1_554 S
C355 N353 1.356 . S
N356 C348 1.356 . S
N356 H362 0.984 . S
N356 H363 0.984 . S
N357 C350 1.356 . S
N357 H360 0.984 . S
N357 H361 0.985 . S
H358 N353 0.984 . S
H359 N353 0.985 . S
H360 N357 0.984 . S
H361 N357 0.985 . S
H362 N356 0.984 . S
H363 N356 0.984 . S
H364 N352 0.984 . S
H365 N352 0.985 . S
C366 C367 1.363 . S
C366 C372 1.379 . S
C366 N374 1.356 . S
C367 C366 1.363 . S
C367 C373 1.363 . S
C368 C369 1.363 . S
C368 C373 1.379 . S
C368 N375 1.356 . S
C369 C368 1.363 . S
C369 C372 1.363 . S
N370 C372 1.356 . S
N370 H382 0.984 . S
N370 H383 0.985 . S
N371 C373 1.356 . S
N371 H376 0.984 . S
N371 H377 0.985 . S
C372 C366 1.379 . S
C372 C369 1.363 . S
C372 N370 1.356 . S
C373 C367 1.363 . S
C373 C368 1.379 . S
C373 N371 1.356 . S
N374 C366 1.356 . S
N374 H380 0.984 . S
N374 H381 0.984 . S
N375 C368 1.356 . S
N375 H378 0.984 . S
N375 H379 0.985 . S
H376 N371 0.984 . S
H377 N371 0.985 . S
H378 N375 0.984 . S
H379 N375 0.985 . S
H380 N374 0.984 . S
H381 N374 0.984 . S
H382 N370 0.984 . S
H383 N370 0.985 . S
C384 C385 1.363 . S
C384 C390 1.379 . S
C384 N392 1.356 . S
C385 C384 1.363 . S
C385 C391 1.363 . S
C386 C387 1.363 . S
C386 C391 1.379 . S
C386 N393 1.356 . S
C387 C386 1.363 . S
C387 C390 1.363 . S
N388 C390 1.356 . S
N388 H400 0.984 . S
N388 H401 0.985 . S
N389 C391 1.356 . S
N389 H394 0.984 . S
N389 H395 0.985 . S
C390 C384 1.379 . S
C390 C387 1.363 . S
C390 N388 1.356 . S
C391 C385 1.363 . S
C391 C386 1.379 . S
C391 N389 1.356 . S
N392 C384 1.356 . S
N392 H398 0.984 . S
N392 H399 0.984 . S
N393 C386 1.356 . S
N393 H396 0.984 . S
N393 H397 0.985 . S
H394 N389 0.984 . S
H395 N389 0.985 . S
H396 N393 0.984 . S
H397 N393 0.985 . S
H398 N392 0.984 . S
H399 N392 0.984 . S
H400 N388 0.984 . S
H401 N388 0.985 . S
C402 C403 1.363 . S
C402 C408 1.379 . S
C402 N410 1.356 . S
C403 C402 1.363 . S
C403 C409 1.363 . S
C404 C405 1.363 . S
C404 C409 1.379 . S
C404 N411 1.356 . S
C405 C404 1.363 . S
C405 C408 1.363 . S
N406 C408 1.356 . S
N406 H418 0.984 . S
N406 H419 0.985 . S
N407 C409 1.356 . S
N407 H412 0.984 . S
N407 H413 0.985 . S
C408 C402 1.379 . S
C408 C405 1.363 . S
C408 N406 1.356 . S
C409 C403 1.363 . S
C409 C404 1.379 . S
C409 N407 1.356 . S
N410 C402 1.356 . S
N410 H416 0.984 . S
N410 H417 0.984 . S
N411 C404 1.356 . S
N411 H414 0.984 . S
N411 H415 0.985 . S
H412 N407 0.984 . S
H413 N407 0.985 . S
H414 N411 0.984 . S
H415 N411 0.985 . S
H416 N410 0.984 . S
H417 N410 0.984 . S
H418 N406 0.984 . S
H419 N406 0.985 . S
C420 C421 1.363 . S
C420 C426 1.379 . S
C420 N428 1.356 . S
C421 C420 1.363 . S
C421 C427 1.363 . S
C422 C423 1.363 . S
C422 C427 1.379 . S
C422 N429 1.356 . S
C423 C422 1.363 . S
C423 C426 1.363 . S
N424 C426 1.356 . S
N424 H436 0.984 . S
N424 H437 0.985 . S
N425 C427 1.356 . S
N425 H430 0.984 . S
N425 H431 0.985 . S
C426 C420 1.379 . S
C426 C423 1.363 . S
C426 N424 1.356 . S
C427 C421 1.363 . S
C427 C422 1.379 . S
C427 N425 1.356 . S
N428 C420 1.356 . S
N428 H434 0.984 . S
N428 H435 0.984 . S
N429 C422 1.356 . S
N429 H432 0.984 . S
N429 H433 0.985 . S
H430 N425 0.984 . S
H431 N425 0.985 . S
H432 N429 0.984 . S
H433 N429 0.985 . S
H434 N428 0.984 . S
H435 N428 0.984 . S
H436 N424 0.984 . S
H437 N424 0.985 . S
C438 C439 1.363 . S
C438 C444 1.379 . S
C438 N446 1.356 . S
C439 C438 1.363 . S
C439 C445 1.363 . S
C440 C441 1.363 . S
C440 C445 1.379 . S
C440 N447 1.356 . S
C441 C440 1.363 . S
C441 C444 1.363 . S
N442 C444 1.356 . S
N442 H454 0.984 . S
N442 H455 0.985 . S
N443 C445 1.356 . S
N443 H448 0.984 . S
N443 H449 0.985 . S
C444 C438 1.379 . S
C444 C441 1.363 . S
C444 N442 1.356 . S
C445 C439 1.363 . S
C445 C440 1.379 . S
C445 N443 1.356 . S
N446 C438 1.356 . S
N446 H452 0.984 . S
N446 H453 0.984 . S
N447 C440 1.356 . S
N447 H450 0.984 . S
N447 H451 0.985 . S
H448 N443 0.984 . S
H449 N443 0.985 . S
H450 N447 0.984 . S
H451 N447 0.985 . S
H452 N446 0.984 . S
H453 N446 0.984 . S
H454 N442 0.984 . S
H455 N442 0.985 . S
C456 C457 1.363 . S
C456 C462 1.379 . S
C456 N464 1.356 . S
C457 C456 1.363 . S
C457 C463 1.363 . S
C458 C459 1.363 . S
C458 C463 1.379 . S
C458 N465 1.356 . S
C459 C458 1.363 . S
C459 C462 1.363 . S
N460 C462 1.356 . S
N460 H472 0.984 . S
N460 H473 0.985 . S
N461 C463 1.356 . S
N461 H466 0.984 . S
N461 H467 0.985 . S
C462 C456 1.379 . S
C462 C459 1.363 . S
C462 N460 1.356 . S
C463 C457 1.363 . S
C463 C458 1.379 . S
C463 N461 1.356 . S
N464 C456 1.356 . S
N464 H470 0.984 . S
N464 H471 0.984 . S
N465 C458 1.356 . S
N465 H468 0.984 . S
N465 H469 0.985 . S
H466 N461 0.984 . S
H467 N461 0.985 . S
H468 N465 0.984 . S
H469 N465 0.985 . S
H470 N464 0.984 . S
H471 N464 0.984 . S
H472 N460 0.984 . S
H473 N460 0.985 . S
C474 C475 1.363 . S
C474 C480 1.379 . S
C474 N482 1.356 . S
C475 C474 1.363 . S
C475 C481 1.363 1_556 S
C476 C477 1.363 1_554 S
C476 C481 1.379 . S
C476 N483 1.356 . S
C477 C476 1.363 1_556 S
C477 C480 1.363 . S
N478 C480 1.356 . S
N478 H490 0.984 . S
N478 H491 0.985 . S
N479 C481 1.356 . S
N479 H484 0.984 . S
N479 H485 0.985 . S
C480 C474 1.379 . S
C480 C477 1.363 . S
C480 N478 1.356 . S
C481 C475 1.363 1_554 S
C481 C476 1.379 . S
C481 N479 1.356 . S
N482 C474 1.356 . S
N482 H488 0.984 . S
N482 H489 0.984 . S
N483 C476 1.356 . S
N483 H486 0.984 . S
N483 H487 0.985 . S
H484 N479 0.984 . S
H485 N479 0.985 . S
H486 N483 0.984 . S
H487 N483 0.985 . S
H488 N482 0.984 . S
H489 N482 0.984 . S
H490 N478 0.984 . S
H491 N478 0.985 . S
C492 C493 1.363 . S
C492 C498 1.379 . S
C492 N500 1.356 . S
C493 C492 1.363 . S
C493 C499 1.363 . S
C494 C495 1.363 . S
C494 C499 1.379 . S
C494 N501 1.356 . S
C495 C494 1.363 . S
C495 C498 1.363 . S
N496 C498 1.356 . S
N496 H508 0.984 . S
N496 H509 0.985 . S
N497 C499 1.356 . S
N497 H502 0.984 . S
N497 H503 0.985 . S
C498 C492 1.379 . S
C498 C495 1.363 . S
C498 N496 1.356 . S
C499 C493 1.363 . S
C499 C494 1.379 . S
C499 N497 1.356 . S
N500 C492 1.356 . S
N500 H506 0.984 . S
N500 H507 0.984 . S
N501 C494 1.356 . S
N501 H504 0.984 . S
N501 H505 0.985 . S
H502 N497 0.984 . S
H503 N497 0.985 . S
H504 N501 0.984 . S
H505 N501 0.985 . S
H506 N500 0.984 . S
H507 N500 0.984 . S
H508 N496 0.984 . S
H509 N496 0.985 . S
C510 C511 1.363 . S
C510 C516 1.379 1_556 S
C510 N518 1.356 . S
C511 C510 1.363 . S
C511 C517 1.363 . S
C512 C513 1.363 . S
C512 C517 1.379 1_554 S
C512 N519 1.356 . S
C513 C512 1.363 . S
C513 C516 1.363 . S
N514 C516 1.356 . S
N514 H526 0.984 . S
N514 H527 0.985 . S
N515 C517 1.356 . S
N515 H520 0.984 . S
N515 H521 0.985 . S
C516 C510 1.379 1_554 S
C516 C513 1.363 . S
C516 N514 1.356 . S
C517 C511 1.363 . S
C517 C512 1.379 1_556 S
C517 N515 1.356 . S
N518 C510 1.356 . S
N518 H524 0.984 . S
N518 H525 0.984 . S
N519 C512 1.356 . S
N519 H522 0.984 . S
N519 H523 0.985 . S
H520 N515 0.984 . S
H521 N515 0.985 . S
H522 N519 0.984 . S
H523 N519 0.985 . S
H524 N518 0.984 . S
H525 N518 0.984 . S
H526 N514 0.984 . S
H527 N514 0.985 . S
C528 C529 1.363 . S
C528 C534 1.379 . S
C528 N536 1.356 . S
C529 C528 1.363 . S
C529 C535 1.363 . S
C530 C531 1.363 . S
C530 C535 1.379 . S
C530 N537 1.356 . S
C531 C530 1.363 . S
C531 C534 1.363 . S
N532 C534 1.356 . S
N532 H544 0.984 . S
N532 H545 0.985 . S
N533 C535 1.356 . S
N533 H538 0.984 . S
N533 H539 0.985 . S
C534 C528 1.379 . S
C534 C531 1.363 . S
C534 N532 1.356 . S
C535 C529 1.363 . S
C535 C530 1.379 . S
C535 N533 1.356 . S
N536 C528 1.356 . S
N536 H542 0.984 . S
N536 H543 0.984 . S
N537 C530 1.356 . S
N537 H540 0.984 . S
N537 H541 0.985 . S
H538 N533 0.984 . S
H539 N533 0.985 . S
H540 N537 0.984 . S
H541 N537 0.985 . S
H542 N536 0.984 . S
H543 N536 0.984 . S
H544 N532 0.984 . S
H545 N532 0.985 . S
C546 C547 1.363 . S
C546 C552 1.379 . S
C546 N554 1.356 . S
C547 C546 1.363 . S
C547 C553 1.363 . S
C548 C549 1.363 . S
C548 C553 1.379 . S
C548 N555 1.356 . S
C549 C548 1.363 . S
C549 C552 1.363 . S
N550 C552 1.356 . S
N550 H562 0.984 . S
N550 H563 0.985 . S
N551 C553 1.356 . S
N551 H556 0.984 . S
N551 H557 0.985 . S
C552 C546 1.379 . S
C552 C549 1.363 . S
C552 N550 1.356 . S
C553 C547 1.363 . S
C553 C548 1.379 . S
C553 N551 1.356 . S
N554 C546 1.356 . S
N554 H560 0.984 . S
N554 H561 0.984 . S
N555 C548 1.356 . S
N555 H558 0.984 . S
N555 H559 0.985 . S
H556 N551 0.984 . S
H557 N551 0.985 . S
H558 N555 0.984 . S
H559 N555 0.985 . S
H560 N554 0.984 . S
H561 N554 0.984 . S
H562 N550 0.984 . S
H563 N550 0.985 . S
C564 C565 1.363 . S
C564 C570 1.379 . S
C564 N572 1.356 . S
C565 C564 1.363 . S
C565 C571 1.363 . S
C566 C567 1.363 . S
C566 C571 1.379 . S
C566 N573 1.356 . S
C567 C566 1.363 . S
C567 C570 1.363 . S
N568 C570 1.356 . S
N568 H580 0.984 . S
N568 H581 0.985 . S
N569 C571 1.356 . S
N569 H574 0.984 . S
N569 H575 0.985 . S
C570 C564 1.379 . S
C570 C567 1.363 . S
C570 N568 1.356 . S
C571 C565 1.363 . S
C571 C566 1.379 . S
C571 N569 1.356 . S
N572 C564 1.356 . S
N572 H578 0.984 . S
N572 H579 0.984 . S
N573 C566 1.356 . S
N573 H576 0.984 . S
N573 H577 0.985 . S
H574 N569 0.984 . S
H575 N569 0.985 . S
H576 N573 0.984 . S
H577 N573 0.985 . S
H578 N572 0.984 . S
H579 N572 0.984 . S
H580 N568 0.984 . S
H581 N568 0.985 . S
C582 C583 1.363 . S
C582 C588 1.379 . S
C582 N590 1.356 . S
C583 C582 1.363 . S
C583 C589 1.363 . S
C584 C585 1.363 . S
C584 C589 1.379 . S
C584 N591 1.356 . S
C585 C584 1.363 . S
C585 C588 1.363 . S
N586 C588 1.356 . S
N586 H598 0.984 . S
N586 H599 0.985 . S
N587 C589 1.356 . S
N587 H592 0.984 . S
N587 H593 0.985 . S
C588 C582 1.379 . S
C588 C585 1.363 . S
C588 N586 1.356 . S
C589 C583 1.363 . S
C589 C584 1.379 . S
C589 N587 1.356 . S
N590 C582 1.356 . S
N590 H596 0.984 . S
N590 H597 0.984 . S
N591 C584 1.356 . S
N591 H594 0.984 . S
N591 H595 0.985 . S
H592 N587 0.984 . S
H593 N587 0.985 . S
H594 N591 0.984 . S
H595 N591 0.985 . S
H596 N590 0.984 . S
H597 N590 0.984 . S
H598 N586 0.984 . S
H599 N586 0.985 . S
C600 C601 1.363 . S
C600 C606 1.379 1_545 S
C600 N608 1.356 1_554 S
C601 C600 1.363 . S
C601 C607 1.363 . S
C602 C603 1.363 . S
C602 C607 1.379 1_565 S
C602 N609 1.356 . S
C603 C602 1.363 . S
C603 C606 1.363 . S
N604 C606 1.356 . S
N604 H616 0.984 . S
N604 H617 0.985 . S
N605 C607 1.356 . S
N605 H610 0.984 . S
N605 H611 0.985 . S
C606 C600 1.379 1_565 S
C606 C603 1.363 . S
C606 N604 1.356 . S
C607 C601 1.363 . S
C607 C602 1.379 1_545 S
C607 N605 1.356 . S
N608 C600 1.356 1_556 S
N608 H614 0.984 . S
N608 H615 0.984 . S
N609 C602 1.356 . S
N609 H612 0.984 . S
N609 H613 0.985 . S
H610 N605 0.984 . S
H611 N605 0.985 . S
H612 N609 0.984 . S
H613 N609 0.985 . S
H614 N608 0.984 . S
H615 N608 0.984 . S
H616 N604 0.984 . S
H617 N604 0.985 . S
C618 C619 1.363 . S
C618 C624 1.379 . S
C618 N626 1.356 . S
C619 C618 1.363 . S
C619 C625 1.363 . S
C620 C621 1.363 . S
C620 C625 1.379 . S
C620 N627 1.356 . S
C621 C620 1.363 . S
C621 C624 1.363 . S
N622 C624 1.356 . S
N622 H634 0.984 . S
N622 H635 0.985 . S
N623 C625 1.356 . S
N623 H628 0.984 . S
N623 H629 0.985 . S
C624 C618 1.379 . S
C624 C621 1.363 . S
C624 N622 1.356 . S
C625 C619 1.363 . S
C625 C620 1.379 . S
C625 N623 1.356 . S
N626 C618 1.356 . S
N626 H632 0.984 . S
N626 H633 0.984 . S
N627 C620 1.356 . S
N627 H630 0.984 . S
N627 H631 0.985 . S
H628 N623 0.984 . S
H629 N623 0.985 . S
H630 N627 0.984 . S
H631 N627 0.985 . S
H632 N626 0.984 . S
H633 N626 0.984 . S
H634 N622 0.984 . S
H635 N622 0.985 . S
C636 C637 1.363 . S
C636 C642 1.379 1_455 S
C636 N644 1.356 . S
C637 C636 1.363 . S
C637 C643 1.363 . S
C638 C639 1.363 . S
C638 C643 1.379 1_655 S
C638 N645 1.356 . S
C639 C638 1.363 . S
C639 C642 1.363 . S
N640 C642 1.356 . S
N640 H652 0.984 . S
N640 H653 0.985 . S
N641 C643 1.356 . S
N641 H646 0.984 . S
N641 H647 0.985 . S
C642 C636 1.379 1_655 S
C642 C639 1.363 . S
C642 N640 1.356 . S
C643 C637 1.363 . S
C643 C638 1.379 1_455 S
C643 N641 1.356 . S
N644 C636 1.356 . S
N644 H650 0.984 . S
N644 H651 0.984 . S
N645 C638 1.356 . S
N645 H648 0.984 . S
N645 H649 0.985 . S
H646 N641 0.984 . S
H647 N641 0.985 . S
H648 N645 0.984 . S
H649 N645 0.985 . S
H650 N644 0.984 . S
H651 N644 0.984 . S
H652 N640 0.984 . S
H653 N640 0.985 . S
C654 C655 1.363 . S
C654 C660 1.379 1_565 S
C654 N662 1.356 . S
C655 C654 1.363 . S
C655 C661 1.363 . S
C656 C657 1.363 . S
C656 C661 1.379 1_545 S
C656 N663 1.356 . S
C657 C656 1.363 . S
C657 C660 1.363 . S
N658 C660 1.356 . S
N658 H670 0.984 . S
N658 H671 0.985 . S
N659 C661 1.356 . S
N659 H664 0.984 . S
N659 H665 0.985 . S
C660 C654 1.379 1_545 S
C660 C657 1.363 . S
C660 N658 1.356 . S
C661 C655 1.363 . S
C661 C656 1.379 1_565 S
C661 N659 1.356 . S
N662 C654 1.356 . S
N662 H668 0.984 . S
N662 H669 0.984 . S
N663 C656 1.356 . S
N663 H666 0.984 . S
N663 H667 0.985 . S
H664 N659 0.984 . S
H665 N659 0.985 . S
H666 N663 0.984 . S
H667 N663 0.985 . S
H668 N662 0.984 . S
H669 N662 0.984 . S
H670 N658 0.984 . S
H671 N658 0.985 . S
C672 C673 1.363 . S
C672 C678 1.379 . S
C672 N680 1.356 . S
C673 C672 1.363 . S
C673 C679 1.363 . S
C674 C675 1.363 . S
C674 C679 1.379 . S
C674 N681 1.356 . S
C675 C674 1.363 . S
C675 C678 1.363 . S
N676 C678 1.356 . S
N676 H688 0.984 . S
N676 H689 0.985 . S
N677 C679 1.356 . S
N677 H682 0.984 . S
N677 H683 0.985 . S
C678 C672 1.379 . S
C678 C675 1.363 . S
C678 N676 1.356 . S
C679 C673 1.363 . S
C679 C674 1.379 . S
C679 N677 1.356 . S
N680 C672 1.356 . S
N680 H686 0.984 . S
N680 H687 0.984 . S
N681 C674 1.356 . S
N681 H684 0.984 . S
N681 H685 0.985 . S
H682 N677 0.984 . S
H683 N677 0.985 . S
H684 N681 0.984 . S
H685 N681 0.985 . S
H686 N680 0.984 . S
H687 N680 0.984 . S
H688 N676 0.984 . S
H689 N676 0.985 . S
C690 C691 1.363 . S
C690 C696 1.379 1_455 S
C690 N698 1.356 . S
C691 C690 1.363 . S
C691 C697 1.363 . S
C692 C693 1.363 . S
C692 C697 1.379 1_655 S
C692 N699 1.356 . S
C693 C692 1.363 . S
C693 C696 1.363 . S
N694 C696 1.356 . S
N694 H706 0.984 . S
N694 H707 0.985 . S
N695 C697 1.356 . S
N695 H700 0.984 . S
N695 H701 0.985 . S
C696 C690 1.379 1_655 S
C696 C693 1.363 . S
C696 N694 1.356 . S
C697 C691 1.363 . S
C697 C692 1.379 1_455 S
C697 N695 1.356 . S
N698 C690 1.356 . S
N698 H704 0.984 . S
N698 H705 0.984 . S
N699 C692 1.356 . S
N699 H702 0.984 . S
N699 H703 0.985 . S
H700 N695 0.984 . S
H701 N695 0.985 . S
H702 N699 0.984 . S
H703 N699 0.985 . S
H704 N698 0.984 . S
H705 N698 0.984 . S
H706 N694 0.984 . S
H707 N694 0.985 . S
C277 C7 1.259 . S
C279 C237 1.259 . S
C295 C30 1.259 . S
C297 C260 1.259 . S
C313 C145 1.259 . S
C315 C53 1.259 . S
C331 C76 1.259 . S
C333 C168 1.259 . S
C349 C191 1.259 . S
C351 C99 1.259 . S
C367 C214 1.259 . S
C369 C122 1.259 . S
C385 N196 1.690 . S
C387 N12 1.690 . S
C403 N35 1.690 . S
C405 N219 1.690 . S
C421 N242 1.690 . S
C423 N58 1.690 . S
C439 N81 1.690 . S
C441 N265 1.690 . S
C457 N104 1.690 . S
C459 N150 1.690 . S
C475 N127 1.690 . S
C477 N173 1.690 1_556 S
C493 C246 1.828 . S
C495 C16 1.829 . S
C511 C269 1.829 . S
C513 C39 1.829 . S
C529 C154 1.818 1_554 S
C531 C62 1.829 . S
C547 C85 1.829 . S
C549 C177 1.829 . S
C565 C108 1.829 . S
C567 C200 1.829 . S
C583 C223 1.829 . S
C585 C131 1.829 . S
C601 N2 1.662 . S
C603 N163 1.662 . S
C619 N186 1.662 . S
C621 N25 1.662 . S
C637 N209 1.662 . S
C639 N48 1.662 . S
C655 N71 1.662 . S
C657 N232 1.662 . S
C673 N94 1.662 . S
C675 N255 1.662 . S
C691 N117 1.662 . S
C693 N140 1.662 . S
