# Generated by pormake.
# Topology snk, (6)-cn, num edge types: 1
# Building blocks:
#     Node 0, Type 0, BuildingBlock: VOLQOD_clean_sbu_1, # of connection points: 6
#     Node 1, Type 0, BuildingBlock: VOLQOD_clean_sbu_1, # of connection points: 6
#     Node 2, Type 0, BuildingBlock: VOLQOD_clean_sbu_1, # of connection points: 6
#     Node 3, Type 0, BuildingBlock: VOLQOD_clean_sbu_1, # of connection points: 6
#     Node 4, Type 0, BuildingBlock: VOLQOD_clean_sbu_1, # of connection points: 6
#     Node 5, Type 0, BuildingBlock: VOLQOD_clean_sbu_1, # of connection points: 6
#     Node 6, Type 0, BuildingBlock: VOLQOD_clean_sbu_1, # of connection points: 6
#     Node 7, Type 0, BuildingBlock: VOLQOD_clean_sbu_1, # of connection points: 6
#     Edge 8, Type (0, 0), BuildingBlock: KIFKEQ_clean_linker_1, # of connection points: 2
#     Edge 9, Type (0, 0), BuildingBlock: KIFKEQ_clean_linker_1, # of connection points: 2
#     Edge 10, Type (0, 0), BuildingBlock: KIFKEQ_clean_linker_1, # of connection points: 2
#     Edge 11, Type (0, 0), BuildingBlock: KIFKEQ_clean_linker_1, # of connection points: 2
#     Edge 12, Type (0, 0), BuildingBlock: KIFKEQ_clean_linker_1, # of connection points: 2
#     Edge 13, Type (0, 0), BuildingBlock: KIFKEQ_clean_linker_1, # of connection points: 2
#     Edge 14, Type (0, 0), BuildingBlock: KIFKEQ_clean_linker_1, # of connection points: 2
#     Edge 15, Type (0, 0), BuildingBlock: KIFKEQ_clean_linker_1, # of connection points: 2
#     Edge 16, Type (0, 0), BuildingBlock: KIFKEQ_clean_linker_1, # of connection points: 2
#     Edge 17, Type (0, 0), BuildingBlock: KIFKEQ_clean_linker_1, # of connection points: 2
#     Edge 18, Type (0, 0), BuildingBlock: KIFKEQ_clean_linker_1, # of connection points: 2
#     Edge 19, Type (0, 0), BuildingBlock: KIFKEQ_clean_linker_1, # of connection points: 2
#     Edge 20, Type (0, 0), BuildingBlock: KIFKEQ_clean_linker_1, # of connection points: 2
#     Edge 21, Type (0, 0), BuildingBlock: KIFKEQ_clean_linker_1, # of connection points: 2
#     Edge 22, Type (0, 0), BuildingBlock: KIFKEQ_clean_linker_1, # of connection points: 2
#     Edge 23, Type (0, 0), BuildingBlock: KIFKEQ_clean_linker_1, # of connection points: 2
#     Edge 24, Type (0, 0), BuildingBlock: KIFKEQ_clean_linker_1, # of connection points: 2
#     Edge 25, Type (0, 0), BuildingBlock: KIFKEQ_clean_linker_1, # of connection points: 2
#     Edge 26, Type (0, 0), BuildingBlock: KIFKEQ_clean_linker_1, # of connection points: 2
#     Edge 27, Type (0, 0), BuildingBlock: KIFKEQ_clean_linker_1, # of connection points: 2
#     Edge 28, Type (0, 0), BuildingBlock: KIFKEQ_clean_linker_1, # of connection points: 2
#     Edge 29, Type (0, 0), BuildingBlock: KIFKEQ_clean_linker_1, # of connection points: 2
#     Edge 30, Type (0, 0), BuildingBlock: KIFKEQ_clean_linker_1, # of connection points: 2
#     Edge 31, Type (0, 0), BuildingBlock: KIFKEQ_clean_linker_1, # of connection points: 2
# Relax obj value: 0.177
# Max RMSD: 0.167
# Mean RMSD: 0.167
data_MOF--net-snk--node1-VOLQOD_clean_sbu_1--edge1-KIFKEQ_clean_linker_1
_symmetry_space_group_name_H-M    P1
_symmetry_Int_Tables_number       1
_symmetry_cell_setting            triclinic
loop_
_symmetry_equiv_pos_as_xyz
'x, y, z'
_cell_length_a     47.539912
_cell_length_b     47.546675
_cell_length_c     16.529596
_cell_angle_alpha  89.929387
_cell_angle_beta   89.804967
_cell_angle_gamma 89.881222
loop_
_atom_site_label
_atom_site_type_symbol
_atom_site_fract_x
_atom_site_fract_y
_atom_site_fract_z
_atom_type_partial_charge
O0 O 0.02815 -0.00367 0.50625 0.0
Zn1 Zn 0.99315 0.015 0.46306 0.0
O2 O 0.99333 0.05508 0.48861 0.0
Zn3 Zn 0.95997 0.06462 0.55054 0.0
Zn4 Zn 0.02657 0.06434 0.54914 0.0
Zn5 Zn 0.9944 0.07752 0.39337 0.0
O6 O 0.94091 0.09983 0.50873 0.0
O7 O 0.96158 0.10331 0.38849 0.0
O8 O 0.95858 -0.00362 0.50957 0.0
O9 O 0.93221 0.03311 0.54493 0.0
O10 O 0.96984 0.06656 0.66859 0.0
O11 O 0.01657 0.06572 0.66498 0.0
O12 O 0.04587 0.09983 0.51171 0.0
O13 O 0.99297 0.00901 0.34179 0.0
O14 O 0.02834 0.102 0.38773 0.0
O15 O -0.00537 0.05329 0.2977 0.0
C16 C 0.05124 0.00653 0.53185 0.0
C17 C 0.94309 0.11133 0.43924 0.0
C18 C 0.99354 0.06555 0.7042 0.0
C19 C 0.93538 0.00677 0.53444 0.0
C20 C 0.04558 0.11043 0.44096 0.0
C21 C 0.9939 0.02701 0.28482 0.0
O22 O 0.05419 0.03279 0.54367 0.0
O23 O 0.32845 0.86169 0.75023 0.0
Zn24 Zn 0.30876 0.82777 0.70437 0.0
O25 O 0.26879 0.82859 0.73223 0.0
Zn26 Zn 0.25905 0.79622 0.79736 0.0
Zn27 Zn 0.26043 0.86298 0.78932 0.0
Zn28 Zn 0.24574 0.82769 0.6386 0.0
O29 O 0.22408 0.77643 0.75797 0.0
O30 O 0.22312 0.79269 0.63215 0.0
O31 O 0.327 0.79233 0.74629 0.0
O32 O 0.29033 0.7682 0.7931 0.0
O33 O 0.25693 0.80764 0.91387 0.0
O34 O 0.25825 0.85428 0.90607 0.0
O35 O 0.22529 0.88252 0.75051 0.0
O36 O 0.31399 0.82949 0.58298 0.0
O37 O 0.21787 0.85887 0.63728 0.0
O38 O 0.26939 0.83149 0.54209 0.0
C39 C 0.31894 0.88541 0.77375 0.0
C40 C 0.2143 0.77583 0.68625 0.0
C41 C 0.25794 0.83172 0.94736 0.0
C42 C 0.31638 0.77001 0.77618 0.0
C43 C 0.2114 0.87854 0.68581 0.0
C44 C 0.29562 0.83167 0.52754 0.0
O45 O 0.29267 0.88966 0.78266 0.0
O46 O 0.46657 0.15788 0.00212 0.0
Zn47 Zn 0.5006 0.13832 0.95522 0.0
O48 O 0.50023 0.09836 -0.01714 0.0
Zn49 Zn 0.53279 0.08883 0.04736 0.0
Zn50 Zn 0.46593 0.08979 0.04042 0.0
Zn51 Zn 0.50125 0.07528 0.8891 0.0
O52 O 0.55284 0.05391 0.00735 0.0
O53 O 0.53644 0.05287 0.88191 0.0
O54 O 0.53588 0.15675 -0.00342 0.0
O55 O 0.5605 0.12033 0.04306 0.0
O56 O 0.52138 0.08661 0.16406 0.0
O57 O 0.4747 0.08751 0.15695 0.0
O58 O 0.44653 0.05471 0.0014 0.0
O59 O 0.49873 0.14354 0.83387 0.0
O60 O 0.47026 0.04727 0.88793 0.0
O61 O 0.49722 0.09893 0.79283 0.0
C62 C 0.44298 0.14821 0.02607 0.0
C63 C 0.55344 0.04413 0.93556 0.0
C64 C 0.49728 0.08737 0.19791 0.0
C65 C 0.55833 0.14637 0.02625 0.0
C66 C 0.45059 0.04082 0.93662 0.0
C67 C 0.49674 0.12514 0.77839 0.0
O68 O 0.439 0.12193 0.03474 0.0
O69 O 0.16628 0.29152 0.26664 0.0
Zn70 Zn 0.18613 0.32491 0.217 0.0
O71 O 0.22595 0.32378 0.24345 0.0
Zn72 Zn 0.23636 0.35495 0.31092 0.0
Zn73 Zn 0.23387 0.28867 0.29644 0.0
Zn74 Zn 0.24888 0.32642 0.14993 0.0
O75 O 0.27195 0.37418 0.27242 0.0
O76 O 0.26818 0.3635 0.14215 0.0
O77 O 0.16874 0.36102 0.25741 0.0
O78 O 0.20564 0.38367 0.30811 0.0
O79 O 0.23783 0.34215 0.42623 0.0
O80 O 0.23448 0.29569 0.41492 0.0
O81 O 0.26997 0.27082 0.25771 0.0
O82 O 0.18092 0.32186 0.09547 0.0
O83 O 0.27902 0.29728 0.15025 0.0
O84 O 0.22559 0.32009 0.05418 0.0
C85 C 0.17575 0.26691 0.28098 0.0
C86 C 0.27891 0.37804 0.19867 0.0
C87 C 0.23551 0.31783 0.45795 0.0
C88 C 0.17973 0.38278 0.28927 0.0
C89 C 0.28515 0.2768 0.19643 0.0
C90 C 0.19939 0.31906 0.04005 0.0
O91 O 0.20203 0.26175 0.28191 0.0
O92 O 0.82921 0.36066 0.24032 0.0
Zn93 Zn 0.80865 0.32749 0.19322 0.0
O94 O 0.76902 0.32905 0.22327 0.0
Zn95 Zn 0.75888 0.29803 0.29259 0.0
Zn96 Zn 0.76141 0.3644 0.27598 0.0
Zn97 Zn 0.74563 0.32641 0.13079 0.0
O98 O 0.72405 0.27775 0.2544 0.0
O99 O 0.72596 0.28953 0.12441 0.0
O100 O 0.82616 0.29151 0.23335 0.0
O101 O 0.79036 0.27015 0.29449 0.0
O102 O 0.7558 0.31128 0.4067 0.0
O103 O 0.75904 0.35767 0.39419 0.0
O104 O 0.72625 0.38332 0.23525 0.0
O105 O 0.81336 0.33038 0.07192 0.0
O106 O 0.71587 0.35591 0.13124 0.0
O107 O 0.7685 0.3325 0.03364 0.0
C108 C 0.82032 0.38503 0.26008 0.0
C109 C 0.7162 0.27439 0.1814 0.0
C110 C 0.7575 0.33569 0.43778 0.0
C111 C 0.81593 0.27055 0.27155 0.0
C112 C 0.7106 0.37711 0.17555 0.0
C113 C 0.79462 0.33335 0.0178 0.0
O114 O 0.79414 0.39038 0.26557 0.0
O115 O 0.6648 0.79213 0.7569 0.0
Zn116 Zn 0.68581 0.82481 0.70736 0.0
O117 O 0.72536 0.82277 0.73606 0.0
Zn118 Zn 0.73592 0.85324 0.80599 0.0
Zn119 Zn 0.73212 0.78702 0.78693 0.0
Zn120 Zn 0.74885 0.82551 0.64362 0.0
O121 O 0.77116 0.87312 0.76762 0.0
O122 O 0.76822 0.8626 0.63702 0.0
O123 O 0.66902 0.8614 0.74555 0.0
O124 O 0.70496 0.88175 0.80805 0.0
O125 O 0.73831 0.8393 0.91964 0.0
O126 O 0.73292 0.79312 0.90583 0.0
O127 O 0.76793 0.76862 0.74829 0.0
O128 O 0.68121 0.8212 0.58614 0.0
O129 O 0.77892 0.79631 0.64499 0.0
O130 O 0.72608 0.81895 0.54689 0.0
C131 C 0.67346 0.76713 0.76975 0.0
C132 C 0.77853 0.87712 0.69426 0.0
C133 C 0.73518 0.81488 0.95004 0.0
C134 C 0.67955 0.88206 0.78407 0.0
C135 C 0.78404 0.7751 0.68946 0.0
C136 C 0.69994 0.81795 0.53171 0.0
O137 O 0.69957 0.7611 0.77013 0.0
O138 O 0.52741 0.4951 -0.0043 0.0
Zn139 Zn 0.49271 0.51396 0.95142 0.0
O140 O 0.49309 0.55397 -0.02277 0.0
Zn141 Zn 0.46086 0.56366 0.04293 0.0
Zn142 Zn 0.52717 0.56305 0.03419 0.0
Zn143 Zn 0.49176 0.57651 0.88217 0.0
O144 O 0.44171 0.59916 0.00452 0.0
O145 O 0.45657 0.59926 0.87686 0.0
O146 O 0.45786 0.49564 -0.00281 0.0
O147 O 0.43277 0.53241 0.03942 0.0
O148 O 0.47223 0.56539 0.15934 0.0
O149 O 0.51887 0.56425 0.15166 0.0
O150 O 0.54541 0.59885 -0.00501 0.0
O151 O 0.49358 0.50803 0.83007 0.0
O152 O 0.52358 0.60375 0.87735 0.0
O153 O 0.49464 0.55239 0.78654 0.0
C154 C 0.5511 0.50516 0.01694 0.0
C155 C 0.44042 0.6085 0.93232 0.0
C156 C 0.49626 0.56427 0.19292 0.0
C157 C 0.43524 0.50617 0.02576 0.0
C158 C 0.54235 0.6113 0.92735 0.0
C159 C 0.49495 0.52612 0.77339 0.0
O160 O 0.55476 0.53152 0.02506 0.0
O161 O 0.9665 0.65562 0.50657 0.0
Zn162 Zn 0.00026 0.6358 0.45895 0.0
O163 O -0.00012 0.59612 0.48867 0.0
Zn164 Zn 0.03124 0.58682 0.55739 0.0
Zn165 Zn 0.96481 0.58763 0.54208 0.0
Zn166 Zn 0.00316 0.57274 0.39597 0.0
O167 O 0.05215 0.55217 0.51951 0.0
O168 O 0.04035 0.55349 0.38964 0.0
O169 O 0.0359 0.65411 0.49776 0.0
O170 O 0.05841 0.61885 0.55799 0.0
O171 O 0.01813 0.58375 0.67171 0.0
O172 O 0.97161 0.58521 0.66017 0.0
O173 O 0.94657 0.55235 0.5005 0.0
O174 O -0.00284 0.6404 0.33779 0.0
O175 O 0.97408 0.54264 0.39565 0.0
O176 O -0.00312 0.59554 0.29894 0.0
C177 C 0.94244 0.64605 0.52674 0.0
C178 C 0.05562 0.5441 0.44664 0.0
C179 C 0.99369 0.58453 0.70329 0.0
C180 C 0.05727 0.64438 0.53499 0.0
C181 C 0.95297 0.53699 0.44011 0.0
C182 C -0.0049 0.62162 0.28341 0.0
O183 O 0.93798 0.61974 0.5326 0.0
H184 H 0.06624 0.12205 0.29156 0.0
H185 H 0.06941 0.14958 0.54046 0.0
H186 H 0.09797 0.16013 0.25273 0.0
H187 H 0.10074 0.18825 0.50065 0.0
H188 H 0.12388 0.27151 0.3508 0.0
H189 H 0.09275 0.23309 0.39289 0.0
H190 H 0.15218 0.17257 0.29909 0.0
H191 H 0.18367 0.21077 0.25877 0.0
C192 C 0.07369 0.13629 0.33789 0.0
C193 C 0.06542 0.13293 0.41903 0.0
C194 C 0.09184 0.15795 0.31563 0.0
C195 C 0.10154 0.17698 0.37379 0.0
C196 C 0.0933 0.17378 0.45492 0.0
C197 C 0.0756 0.15166 0.47762 0.0
C198 C 0.13019 0.25001 0.3388 0.0
C199 C 0.15611 0.24405 0.3014 0.0
C200 C 0.11254 0.22814 0.36345 0.0
C201 C 0.1203 0.20008 0.34935 0.0
C202 C 0.14588 0.19412 0.3105 0.0
C203 C 0.1638 0.21592 0.28752 0.0
H204 H 0.05272 0.94906 0.52179 0.0
H205 H 0.10296 0.02098 0.58968 0.0
H206 H 0.09091 0.91784 0.56231 0.0
H207 H 0.14116 0.98976 0.62872 0.0
H208 H 0.19139 0.92404 0.77035 0.0
H209 H 0.15211 0.95465 0.73368 0.0
H210 H 0.13849 0.90559 0.51754 0.0
H211 H 0.17717 0.87481 0.55443 0.0
C212 C 0.07194 0.95823 0.54474 0.0
C213 C 0.07478 0.98751 0.5524 0.0
C214 C 0.09382 0.94035 0.5678 0.0
C215 C 0.11896 0.95139 0.59897 0.0
C216 C 0.12187 0.98064 0.60609 0.0
C217 C 0.10004 -0.00148 0.58302 0.0
C218 C 0.17994 0.91975 0.7152 0.0
C219 C 0.18744 0.89702 0.66534 0.0
C220 C 0.15756 0.93735 0.69401 0.0
C221 C 0.14227 0.93248 0.62272 0.0
C222 C 0.14965 0.90964 0.57334 0.0
C223 C 0.17196 0.89212 0.59437 0.0
H224 H 0.30602 0.93786 0.83 0.0
H225 H 0.37651 0.88422 0.76849 0.0
H226 H 0.33835 0.97458 0.87187 0.0
H227 H 0.40884 0.92095 0.81178 0.0
H228 H 0.45513 0.00571 0.80698 0.0
H229 H 0.42362 0.96797 0.76821 0.0
H230 H 0.3726 0.98388 -0.01988 0.0
H231 H 0.40395 0.02219 0.01864 0.0
C232 C 0.32841 0.93387 0.8253 0.0
C233 C 0.33868 0.90809 0.79569 0.0
C234 C 0.34691 0.95486 0.85003 0.0
C235 C 0.37609 0.95056 0.84557 0.0
C236 C 0.38642 0.92492 0.8153 0.0
C237 C 0.3679 0.90388 0.79063 0.0
C238 C 0.43726 0.00118 0.84563 0.0
C239 C 0.43198 0.01707 0.91582 0.0
C240 C 0.41931 0.9794 0.82355 0.0
C241 C 0.39565 0.97301 0.87104 0.0
C242 C 0.39053 0.9886 0.94184 0.0
C243 C 0.40855 0.01041 0.96412 0.0
H244 H 0.44422 0.20582 0.0277 0.0
H245 H 0.3901 0.13484 0.07785 0.0
H246 H 0.40723 0.23769 0.07368 0.0
H247 H 0.35313 0.1667 0.12221 0.0
H248 H 0.30382 0.22932 0.27389 0.0
H249 H 0.34294 0.19898 0.23401 0.0
H250 H 0.36068 0.25372 0.03144 0.0
H251 H 0.32215 0.28429 0.07184 0.0
C252 C 0.4244 0.19702 0.04785 0.0
C253 C 0.42013 0.16778 0.04908 0.0
C254 C 0.40321 0.21528 0.07409 0.0
C255 C 0.37737 0.20466 0.10205 0.0
C256 C 0.37301 0.17547 0.1024 0.0
C257 C 0.39414 0.15724 0.07623 0.0
C258 C 0.31622 0.23499 0.22125 0.0
C259 C 0.30977 0.25915 0.17589 0.0
C260 C 0.33849 0.21753 0.19814 0.0
C261 C 0.35475 0.22391 0.12932 0.0
C262 C 0.34872 0.2484 0.08518 0.0
C263 C 0.32649 0.26583 0.10818 0.0
H264 H 0.87945 0.01917 0.53447 0.0
H265 H 0.93849 0.9521 0.58372 0.0
H266 H 0.84061 0.98862 0.57588 0.0
H267 H 0.89956 0.92185 0.62693 0.0
H268 H 0.82198 0.89484 0.789 0.0
H269 H 0.86025 0.92669 0.74981 0.0
H270 H 0.82195 0.93848 0.51587 0.0
H271 H 0.78415 0.90624 0.55383 0.0
C272 C 0.88409 -0.00207 0.55412 0.0
C273 C 0.91192 0.98793 0.55566 0.0
C274 C 0.86193 0.98053 0.57772 0.0
C275 C 0.8673 0.95311 0.60495 0.0
C276 C 0.89506 0.94306 0.60669 0.0
C277 C 0.91721 0.96025 0.58138 0.0
C278 C 0.82165 0.90445 0.72956 0.0
C279 C 0.80022 0.89809 0.67432 0.0
C280 C 0.84355 0.92244 0.70709 0.0
C281 C 0.84389 0.93479 0.62991 0.0
C282 C 0.822 0.92917 0.57574 0.0
C283 C 0.8005 0.91073 0.59744 0.0
H284 H 0.90109 0.13594 0.52935 0.0
H285 H 0.9421 0.13929 0.29546 0.0
H286 H 0.8703 0.17464 0.48862 0.0
H287 H 0.91115 0.1773 0.25486 0.0
H288 H 0.87242 0.26495 0.24332 0.0
H289 H 0.90304 0.22669 0.2865 0.0
H290 H 0.83181 0.18395 0.39281 0.0
H291 H 0.8012 0.22236 0.35113 0.0
C292 C 0.9035 0.14483 0.46936 0.0
C293 C 0.92409 0.13456 0.41583 0.0
C294 C 0.88579 0.16687 0.44592 0.0
C295 C 0.88841 0.17902 0.36863 0.0
C296 C 0.90892 0.16867 0.31522 0.0
C297 C 0.92656 0.14673 0.3385 0.0
C298 C 0.86324 0.24735 0.27558 0.0
C299 C 0.83436 0.24672 0.29367 0.0
C300 C 0.88078 0.22541 0.30016 0.0
C301 C 0.8698 0.20238 0.34321 0.0
C302 C 0.84092 0.20163 0.36079 0.0
C303 C 0.82337 0.22355 0.33625 0.0
H304 H 0.71041 0.24572 0.04065 0.0
H305 H 0.6729 0.25654 0.27712 0.0
H306 H 0.67236 0.21378 0.00314 0.0
H307 H 0.63436 0.2251 0.23828 0.0
H308 H 0.55613 0.20182 0.06731 0.0
H309 H 0.59544 0.23171 0.10914 0.0
H310 H 0.65311 0.16282 0.07042 0.0
H311 H 0.61386 0.13261 0.0307 0.0
C312 C 0.69409 0.24115 0.08461 0.0
C313 C 0.69451 0.25352 0.16175 0.0
C314 C 0.67244 0.22292 0.06316 0.0
C315 C 0.65058 0.21731 0.11784 0.0
C316 C 0.65106 0.22936 0.19527 0.0
C317 C 0.67311 0.2471 0.2175 0.0
C318 C 0.57722 0.19314 0.06731 0.0
C319 C 0.58204 0.16497 0.04575 0.0
C320 C 0.59955 0.21011 0.09181 0.0
C321 C 0.62702 0.19932 0.09322 0.0
C322 C 0.63198 0.17142 0.06983 0.0
C323 C 0.6096 0.15426 0.04718 0.0
H324 H 0.69416 0.92849 0.87161 0.0
H325 H 0.62449 0.89097 0.74353 0.0
H326 H 0.66445 0.96825 0.90861 0.0
H327 H 0.59476 0.93061 0.78172 0.0
H328 H 0.55998 0.01953 0.78801 0.0
H329 H 0.59107 0.98108 0.75128 0.0
H330 H 0.62295 0.97839 -0.00442 0.0
H331 H 0.59193 0.01741 0.03272 0.0
C332 C 0.67253 0.9287 0.85124 0.0
C333 C 0.66171 0.90656 0.80438 0.0
C334 C 0.65549 0.9514 0.87302 0.0
C335 C 0.62733 0.95249 0.84815 0.0
C336 C 0.61652 0.93046 0.80098 0.0
C337 C 0.63352 0.90771 0.77935 0.0
C338 C 0.57364 0.01088 0.83411 0.0
C339 C 0.57337 0.02149 0.91354 0.0
C340 C 0.59134 0.98871 0.813 0.0
C341 C 0.60924 0.97661 0.87068 0.0
C342 C 0.60946 0.98748 0.94976 0.0
C343 C 0.59165 0.00972 0.97106 0.0
H344 H 0.55727 0.62731 0.77557 0.0
H345 H 0.56987 0.6477 0.02762 0.0
H346 H 0.58867 0.66564 0.73636 0.0
H347 H 0.60079 0.68669 -0.01243 0.0
H348 H 0.62237 0.77281 0.84344 0.0
H349 H 0.59016 0.73503 0.88399 0.0
H350 H 0.64636 0.67361 0.77932 0.0
H351 H 0.67899 0.71112 0.74076 0.0
C352 C 0.56659 0.64011 0.82251 0.0
C353 C 0.56119 0.63458 0.90467 0.0
C354 C 0.58454 0.66191 0.79998 0.0
C355 C 0.59687 0.67893 0.85911 0.0
C356 C 0.59128 0.67376 0.9412 0.0
C357 C 0.5738 0.65148 0.96395 0.0
C358 C 0.62772 0.75125 0.8287 0.0
C359 C 0.65309 0.74481 0.78893 0.0
C360 C 0.60946 0.72975 0.85237 0.0
C361 C 0.61604 0.70166 0.8348 0.0
C362 C 0.64101 0.69523 0.79337 0.0
C363 C 0.65957 0.71662 0.77144 0.0
H364 H 0.67339 0.36992 0.05211 0.0
H365 H 0.6929 0.42515 0.25192 0.0
H366 H 0.63482 0.40063 0.01328 0.0
H367 H 0.65377 0.45562 0.21365 0.0
H368 H 0.60438 0.51925 0.06257 0.0
H369 H 0.64226 0.4878 0.10257 0.0
H370 H 0.58856 0.41617 0.05989 0.0
H371 H 0.55069 0.44759 0.01828 0.0
C372 C 0.66933 0.3885 0.08823 0.0
C373 C 0.68631 0.39515 0.15502 0.0
C374 C 0.6471 0.406 0.06612 0.0
C375 C 0.64133 0.43054 0.11027 0.0
C376 C 0.658 0.43702 0.17781 0.0
C377 C 0.68028 0.41948 0.20001 0.0
C378 C 0.60063 0.49679 0.06128 0.0
C379 C 0.57448 0.48593 0.03716 0.0
C380 C 0.62229 0.4788 0.0849 0.0
C381 C 0.6183 0.44956 0.08493 0.0
C382 C 0.59231 0.43863 0.05985 0.0
C383 C 0.57061 0.45664 0.03616 0.0
H384 H 0.96114 0.49951 0.31731 0.0
H385 H 0.90381 0.52026 0.51219 0.0
H386 H 0.92961 0.46241 0.2733 0.0
H387 H 0.87251 0.48266 0.4687 0.0
H388 H 0.80877 0.43896 0.30591 0.0
H389 H 0.84171 0.47447 0.35201 0.0
H390 H 0.91068 0.41658 0.31452 0.0
H391 H 0.87776 0.38101 0.26694 0.0
C392 C 0.94195 0.49599 0.35134 0.0
C393 C 0.93489 0.51299 0.41801 0.0
C394 C 0.92397 0.47461 0.32625 0.0
C395 C 0.89854 0.46977 0.36722 0.0
C396 C 0.8918 0.48623 0.4352 0.0
C397 C 0.90981 0.50763 0.46042 0.0
C398 C 0.83096 0.43378 0.30697 0.0
C399 C 0.84063 0.40711 0.28277 0.0
C400 C 0.8498 0.45408 0.33413 0.0
C401 C 0.87871 0.44819 0.33766 0.0
C402 C 0.8885 0.42174 0.31204 0.0
C403 C 0.86963 0.40138 0.28487 0.0
H404 H 0.82269 0.78332 0.56942 0.0
H405 H 0.80095 0.72651 0.76436 0.0
H406 H 0.86133 0.75261 0.53055 0.0
H407 H 0.84013 0.69603 0.72609 0.0
H408 H 0.88865 0.6329 0.57046 0.0
H409 H 0.85143 0.66481 0.61263 0.0
H410 H 0.90708 0.73551 0.57699 0.0
H411 H 0.94436 0.7036 0.53322 0.0
C412 C 0.82629 0.76441 0.60454 0.0
C413 C 0.80861 0.75727 0.66979 0.0
C414 C 0.84857 0.7469 0.58243 0.0
C415 C 0.85367 0.72188 0.62504 0.0
C416 C 0.83641 0.71501 0.6914 0.0
C417 C 0.8141 0.73254 0.71361 0.0
C418 C 0.89299 0.65525 0.57122 0.0
C419 C 0.91951 0.6657 0.5484 0.0
C420 C 0.8717 0.67351 0.59611 0.0
C421 C 0.87642 0.70262 0.59877 0.0
C422 C 0.90279 0.71316 0.57501 0.0
C423 C 0.92414 0.69487 0.55006 0.0
H424 H 0.32369 0.39502 0.28936 0.0
H425 H 0.28298 0.4076 0.05877 0.0
H426 H 0.36186 0.42651 0.24677 0.0
H427 H 0.32066 0.4395 0.0175 0.0
H428 H 0.37957 0.51948 0.03289 0.0
H429 H 0.34086 0.48934 0.07781 0.0
H430 H 0.39934 0.42127 0.11797 0.0
H431 H 0.4381 0.4511 0.07118 0.0
C432 C 0.32272 0.40484 0.23027 0.0
C433 C 0.30051 0.3989 0.17721 0.0
C434 C 0.34455 0.42262 0.20584 0.0
C435 C 0.34403 0.43518 0.12895 0.0
C436 C 0.32137 0.43002 0.0771 0.0
C437 C 0.29994 0.41178 0.10068 0.0
C438 C 0.38413 0.49802 0.05082 0.0
C439 C 0.41177 0.48754 0.0483 0.0
C440 C 0.36204 0.48088 0.07647 0.0
C441 C 0.36735 0.45322 0.10176 0.0
C442 C 0.39492 0.44267 0.09931 0.0
C443 C 0.41695 0.45961 0.07191 0.0
H444 H 0.4214 0.65078 0.02991 0.0
H445 H 0.41509 0.61725 0.78776 0.0
H446 H 0.39123 0.69048 -0.00944 0.0
H447 H 0.38439 0.65641 0.7497 0.0
H448 H 0.302 0.71475 0.77873 0.0
H449 H 0.33157 0.67485 0.81829 0.0
H450 H 0.40097 0.73119 0.86059 0.0
H451 H 0.37172 0.77119 0.8188 0.0
C452 C 0.41325 0.65172 0.96884 0.0
C453 C 0.42053 0.63109 0.91175 0.0
C454 C 0.39625 0.67441 0.94637 0.0
C455 C 0.3858 0.67627 0.86727 0.0
C456 C 0.39233 0.65525 0.81098 0.0
C457 C 0.40984 0.63298 0.83277 0.0
C458 C 0.32362 0.71858 0.79595 0.0
C459 C 0.33467 0.74597 0.79553 0.0
C460 C 0.34042 0.69583 0.81853 0.0
C461 C 0.36826 0.70025 0.84284 0.0
C462 C 0.3794 0.72753 0.84246 0.0
C463 C 0.3628 0.75024 0.81802 0.0
H464 H 0.18838 0.77044 0.54042 0.0
H465 H 0.18932 0.73594 0.78273 0.0
H466 H 0.15092 0.73835 0.50386 0.0
H467 H 0.15129 0.70394 0.74585 0.0
H468 H 0.10493 0.63147 0.61932 0.0
H469 H 0.14308 0.6629 0.6566 0.0
H470 H 0.10089 0.73163 0.53602 0.0
H471 H 0.06283 0.70018 0.49751 0.0
C472 C 0.18059 0.75604 0.58605 0.0
C473 C 0.19184 0.75579 0.66467 0.0
C474 C 0.15897 0.73777 0.56508 0.0
C475 C 0.1481 0.71878 0.62208 0.0
C476 C 0.15946 0.71825 0.7005 0.0
C477 C 0.18112 0.73663 0.72168 0.0
C478 C 0.10379 0.65325 0.6004 0.0
C479 C 0.08083 0.6633 0.55521 0.0
C480 C 0.12557 0.67128 0.62237 0.0
C481 C 0.12491 0.69969 0.5994 0.0
C482 C 0.10208 0.70973 0.55384 0.0
C483 C 0.08025 0.69173 0.532 0.0
H484 H 0.12393 0.38282 0.32754 0.0
H485 H 0.19564 0.43761 0.29713 0.0
H486 H 0.09536 0.42317 0.37038 0.0
H487 H 0.16674 0.47794 0.33778 0.0
H488 H 0.08486 0.53809 0.30649 0.0
H489 H 0.11613 0.4993 0.26855 0.0
H490 H 0.10353 0.46137 0.50307 0.0
H491 H 0.0728 0.50064 0.54237 0.0
C492 C 0.13344 0.4035 0.32908 0.0
C493 C 0.16192 0.40719 0.30902 0.0
C494 C 0.11721 0.42641 0.35416 0.0
C495 C 0.1291 0.45336 0.35764 0.0
C496 C 0.15732 0.45722 0.33565 0.0
C497 C 0.17372 0.43423 0.31244 0.0
C498 C 0.08908 0.52165 0.35029 0.0
C499 C 0.07651 0.52226 0.42732 0.0
C500 C 0.10691 0.49959 0.32858 0.0
C501 C 0.11188 0.47752 0.38291 0.0
C502 C 0.09975 0.47825 0.46037 0.0
C503 C 0.08243 0.50071 0.48287 0.0
H504 H 0.03626 0.03917 0.78109 0.0
H505 H 0.95249 0.07223 0.81954 0.0
H506 H 0.0362 0.01953 0.91595 0.0
H507 H 0.9531 0.05396 0.95768 0.0
H508 H 0.95197 0.00822 0.18834 0.0
H509 H 0.95197 0.01287 0.04071 0.0
H510 H 0.04007 0.03559 0.04781 0.0
H511 H 0.03997 0.02967 0.19324 0.0
C512 C 0.01806 0.0429 0.81922 0.0
C513 C 0.99452 0.0577 0.79023 0.0
C514 C 0.01797 0.03143 0.89654 0.0
C515 C -0.00535 0.03506 0.94771 0.0
C516 C 0.97118 0.0502 0.91917 0.0
C517 C 0.97101 0.06118 0.84074 0.0
C518 C 0.97155 0.01263 0.15713 0.0
C519 C -0.00394 0.0183 0.20083 0.0
C520 C 0.97148 0.01592 0.07314 0.0
C521 C -0.00416 0.02526 0.03267 0.0
C522 C 0.02096 0.02817 0.07648 0.0
C523 C 0.02104 0.02465 0.15988 0.0
H524 H 0.28705 0.87801 0.44038 0.0
H525 H 0.31954 0.79343 0.42676 0.0
H526 H 0.2814 0.87909 0.29483 0.0
H527 H 0.31486 0.79454 0.27916 0.0
H528 H 0.27936 0.87686 0.02624 0.0
H529 H 0.29861 0.8781 0.16149 0.0
H530 H 0.27235 0.79207 0.19985 0.0
H531 H 0.25424 0.79032 0.06212 0.0
C532 C 0.29441 0.86021 0.40517 0.0
C533 C 0.30378 0.83571 0.44359 0.0
C534 C 0.29108 0.86072 0.32179 0.0
C535 C 0.29711 0.83664 0.27568 0.0
C536 C 0.30944 0.81315 0.31361 0.0
C537 C 0.31267 0.81266 0.39754 0.0
C538 C 0.27732 0.85826 0.06369 0.0
C539 C 0.26497 0.83353 0.03378 0.0
C540 C 0.2886 0.85894 0.14112 0.0
C541 C 0.2873 0.83512 0.19109 0.0
C542 C 0.27437 0.81056 0.16198 0.0
C543 C 0.26347 0.80971 0.08377 0.0
H544 H 0.45053 0.11609 0.69177 0.0
H545 H 0.53466 0.14939 0.67722 0.0
H546 H 0.44956 0.11033 0.54624 0.0
H547 H 0.53365 0.14462 0.52962 0.0
H548 H 0.53875 0.0841 0.31208 0.0
H549 H 0.53674 0.10217 0.44998 0.0
H550 H 0.4503 0.12747 0.41301 0.0
H551 H 0.45181 0.10824 0.27764 0.0
C552 C 0.46823 0.1236 0.65636 0.0
C553 C 0.49259 0.13324 0.69452 0.0
C554 C 0.46779 0.12021 0.57299 0.0
C555 C 0.49179 0.12645 0.5266 0.0
C556 C 0.51511 0.13903 0.56427 0.0
C557 C 0.51554 0.14232 0.64821 0.0
C558 C 0.51922 0.0931 0.33408 0.0
C559 C 0.49537 0.09435 0.28443 0.0
C560 C 0.51822 0.10398 0.41238 0.0
C561 C 0.49346 0.11664 0.44194 0.0
C562 C 0.46961 0.11768 0.39231 0.0
C563 C 0.47045 0.10641 0.31481 0.0
H564 H 0.21089 0.27267 0.95538 0.0
H565 H 0.17269 0.35475 0.93737 0.0
H566 H 0.21578 0.27065 0.80933 0.0
H567 H 0.17689 0.35269 0.78963 0.0
H568 H 0.21583 0.27178 0.53829 0.0
H569 H 0.19724 0.2699 0.67518 0.0
H570 H 0.22013 0.35696 0.71056 0.0
H571 H 0.2379 0.35919 0.57243 0.0
C572 C 0.20222 0.28964 0.91931 0.0
C573 C 0.19139 0.31381 0.95654 0.0
C574 C 0.20509 0.28858 0.8357 0.0
C575 C 0.19728 0.3118 0.78822 0.0
C576 C 0.18362 0.33476 0.82516 0.0
C577 C 0.18073 0.33578 0.90924 0.0
C578 C 0.21722 0.29047 0.57546 0.0
C579 C 0.22855 0.31562 0.54465 0.0
C580 C 0.20632 0.28942 0.65371 0.0
C581 C 0.20681 0.31339 0.70315 0.0
C582 C 0.21872 0.33835 0.67307 0.0
C583 C 0.22941 0.33949 0.59449 0.0
H584 H 0.7828 0.38006 0.93511 0.0
H585 H 0.82092 0.29805 0.91305 0.0
H586 H 0.77731 0.38265 0.78938 0.0
H587 H 0.81611 0.30068 0.76562 0.0
H588 H 0.75408 0.29461 0.55298 0.0
H589 H 0.77202 0.29675 0.6905 0.0
H590 H 0.79536 0.38367 0.65393 0.0
H591 H 0.77662 0.38191 0.51759 0.0
C592 C 0.79131 0.36323 0.89814 0.0
C593 C 0.80223 0.33889 0.9341 0.0
C594 C 0.78811 0.36463 0.81478 0.0
C595 C 0.79569 0.34157 0.76645 0.0
C596 C 0.80955 0.31848 0.80198 0.0
C597 C 0.81277 0.31712 0.8858 0.0
C598 C 0.76265 0.31429 0.57472 0.0
C599 C 0.76374 0.33812 0.52459 0.0
C600 C 0.77345 0.31535 0.65286 0.0
C601 C 0.78568 0.3402 0.68218 0.0
C602 C 0.78611 0.36422 0.63283 0.0
C603 C 0.77511 0.36325 0.55498 0.0
H604 H 0.67238 0.85233 0.42734 0.0
H605 H 0.7127 0.77137 0.4493 0.0
H606 H 0.67632 0.84932 0.27965 0.0
H607 H 0.71715 0.76836 0.30311 0.0
H608 H 0.73836 0.85595 0.06484 0.0
H609 H 0.72069 0.85378 0.20289 0.0
H610 H 0.69756 0.76679 0.16806 0.0
H611 H 0.71585 0.76863 0.03057 0.0
C612 C 0.68084 0.83338 0.40014 0.0
C613 C 0.69226 0.81206 0.44839 0.0
C614 C 0.68352 0.8318 0.31613 0.0
C615 C 0.69764 0.80891 0.28033 0.0
C616 C 0.70614 0.78622 0.32884 0.0
C617 C 0.70355 0.78787 0.41242 0.0
C618 C 0.72983 0.83626 0.08687 0.0
C619 C 0.72868 0.81243 0.03689 0.0
C620 C 0.7192 0.83518 0.1654 0.0
C621 C 0.70716 0.81029 0.19543 0.0
C622 C 0.70662 0.78627 0.14624 0.0
C623 C 0.71736 0.7873 0.0678 0.0
H624 H 0.45571 0.50412 0.67312 0.0
H625 H 0.54174 0.53213 0.68601 0.0
H626 H 0.45705 0.50877 0.52553 0.0
H627 H 0.54308 0.53788 0.54037 0.0
H628 H 0.54069 0.54095 0.27125 0.0
H629 H 0.54137 0.52151 0.40677 0.0
H630 H 0.45627 0.551 0.44579 0.0
H631 H 0.45509 0.56926 0.30801 0.0
C632 C 0.47525 0.50998 0.64375 0.0
C633 C 0.4987 0.51758 0.68965 0.0
C634 C 0.47591 0.51322 0.55976 0.0
C635 C 0.49993 0.52439 0.52153 0.0
C636 C 0.52428 0.52911 0.56749 0.0
C637 C 0.52362 0.5257 0.65095 0.0
C638 C 0.52221 0.54364 0.30899 0.0
C639 C 0.4979 0.55694 0.27928 0.0
C640 C 0.52255 0.53227 0.38656 0.0
C641 C 0.49879 0.53441 0.43683 0.0
C642 C 0.47468 0.5483 0.4078 0.0
C643 C 0.47416 0.55928 0.32952 0.0
H644 H 0.94694 0.60252 0.78385 0.0
H645 H 0.03486 0.58209 0.81782 0.0
H646 H 0.94468 0.62122 0.92034 0.0
H647 H 0.03225 0.59997 0.95549 0.0
H648 H 0.02967 0.64871 0.17837 0.0
H649 H 0.02712 0.6439 0.03095 0.0
H650 H 0.94621 0.60326 0.05564 0.0
H651 H 0.94869 0.60876 0.20138 0.0
C652 C 0.96565 0.60146 0.82097 0.0
C653 C 0.99109 0.5907 0.79016 0.0
C654 C 0.96438 0.61244 0.89891 0.0
C655 C 0.98841 0.61259 0.94789 0.0
C656 C 0.0136 0.60096 0.91813 0.0
C657 C 0.01495 0.59019 0.83991 0.0
C658 C 0.01081 0.64014 0.15135 0.0
C659 C 0.98934 0.62911 0.19988 0.0
C660 C 0.00951 0.63692 0.06752 0.0
C661 C 0.98679 0.62256 0.03223 0.0
C662 C 0.96395 0.61445 0.08085 0.0
C663 C 0.96528 0.61766 0.16422 0.0
loop_
_geom_bond_atom_site_label_1
_geom_bond_atom_site_label_2
_geom_bond_distance
_geom_bond_site_symmetry_2
_ccdc_geom_bond_type
O0 Zn1 1.953 1_465 S
O0 C16 1.225 1_565 S
Zn1 O0 1.953 1_645 S
Zn1 O2 1.949 1_655 S
Zn1 O8 1.919 . S
Zn1 O13 1.924 1_655 S
O2 Zn1 1.949 1_455 S
O2 Zn3 1.923 1_455 S
O2 Zn4 1.950 . S
O2 Zn5 1.945 1_455 S
Zn3 O2 1.923 1_655 S
Zn3 O6 1.933 . S
Zn3 O9 1.941 . S
Zn3 O10 1.965 . S
Zn4 O2 1.950 . S
Zn4 O11 1.938 . S
Zn4 O12 1.906 . S
Zn4 O22 1.953 . S
Zn5 O2 1.945 1_655 S
Zn5 O7 1.932 . S
Zn5 O14 1.977 1_655 S
Zn5 O15 1.910 1_655 S
O6 Zn3 1.933 . S
O6 C17 1.226 . S
O7 Zn5 1.932 . S
O7 C17 1.307 . S
O8 Zn1 1.919 . S
O8 C19 1.253 . S
O9 Zn3 1.941 . S
O9 C19 1.283 . S
O10 Zn3 1.965 . S
O10 C18 1.303 1_655 S
O11 Zn4 1.938 . S
O11 C18 1.247 . S
O12 Zn4 1.906 . S
O12 C20 1.304 . S
O13 Zn1 1.924 1_455 S
O13 C21 1.311 . S
O14 Zn5 1.977 1_455 S
O14 C20 1.272 . S
O15 Zn5 1.910 1_455 S
O15 C21 1.231 . S
C16 O0 1.225 1_545 S
C16 O22 1.298 . S
C17 O6 1.226 . S
C17 O7 1.307 . S
C18 O10 1.303 1_455 S
C18 O11 1.247 . S
C19 O8 1.253 . S
C19 O9 1.283 . S
C20 O12 1.304 . S
C20 O14 1.272 . S
C21 O13 1.311 . S
C21 O15 1.231 . S
O22 Zn4 1.953 . S
O22 C16 1.298 . S
O23 Zn24 1.953 . S
O23 C39 1.225 . S
Zn24 O23 1.953 . S
Zn24 O25 1.949 . S
Zn24 O31 1.919 . S
Zn24 O36 1.924 . S
O25 Zn24 1.949 . S
O25 Zn26 1.923 . S
O25 Zn27 1.950 . S
O25 Zn28 1.945 . S
Zn26 O25 1.923 . S
Zn26 O29 1.933 . S
Zn26 O32 1.941 . S
Zn26 O33 1.965 . S
Zn27 O25 1.950 . S
Zn27 O34 1.938 . S
Zn27 O35 1.906 . S
Zn27 O45 1.953 . S
Zn28 O25 1.945 . S
Zn28 O30 1.932 . S
Zn28 O37 1.977 . S
Zn28 O38 1.910 . S
O29 Zn26 1.933 . S
O29 C40 1.226 . S
O30 Zn28 1.932 . S
O30 C40 1.307 . S
O31 Zn24 1.919 . S
O31 C42 1.253 . S
O32 Zn26 1.941 . S
O32 C42 1.283 . S
O33 Zn26 1.965 . S
O33 C41 1.303 . S
O34 Zn27 1.938 . S
O34 C41 1.247 . S
O35 Zn27 1.906 . S
O35 C43 1.304 . S
O36 Zn24 1.924 . S
O36 C44 1.311 . S
O37 Zn28 1.977 . S
O37 C43 1.272 . S
O38 Zn28 1.910 . S
O38 C44 1.231 . S
C39 O23 1.225 . S
C39 O45 1.298 . S
C40 O29 1.226 . S
C40 O30 1.307 . S
C41 O33 1.303 . S
C41 O34 1.247 . S
C42 O31 1.253 . S
C42 O32 1.283 . S
C43 O35 1.304 . S
C43 O37 1.272 . S
C44 O36 1.311 . S
C44 O38 1.231 . S
O45 Zn27 1.953 . S
O45 C39 1.298 . S
O46 Zn47 1.953 1_554 S
O46 C62 1.225 . S
Zn47 O46 1.953 1_556 S
Zn47 O48 1.949 1_556 S
Zn47 O54 1.919 1_556 S
Zn47 O59 1.924 . S
O48 Zn47 1.949 1_554 S
O48 Zn49 1.923 . S
O48 Zn50 1.950 . S
O48 Zn51 1.945 1_554 S
Zn49 O48 1.923 . S
Zn49 O52 1.933 . S
Zn49 O55 1.941 . S
Zn49 O56 1.965 . S
Zn50 O48 1.950 . S
Zn50 O57 1.938 . S
Zn50 O58 1.906 . S
Zn50 O68 1.953 . S
Zn51 O48 1.945 1_556 S
Zn51 O53 1.932 . S
Zn51 O60 1.977 . S
Zn51 O61 1.910 . S
O52 Zn49 1.933 . S
O52 C63 1.226 1_554 S
O53 Zn51 1.932 . S
O53 C63 1.307 . S
O54 Zn47 1.919 1_554 S
O54 C65 1.253 . S
O55 Zn49 1.941 . S
O55 C65 1.283 . S
O56 Zn49 1.965 . S
O56 C64 1.303 . S
O57 Zn50 1.938 . S
O57 C64 1.247 . S
O58 Zn50 1.906 . S
O58 C66 1.304 1_554 S
O59 Zn47 1.924 . S
O59 C67 1.311 . S
O60 Zn51 1.977 . S
O60 C66 1.272 . S
O61 Zn51 1.910 . S
O61 C67 1.231 . S
C62 O46 1.225 . S
C62 O68 1.298 . S
C63 O52 1.226 1_556 S
C63 O53 1.307 . S
C64 O56 1.303 . S
C64 O57 1.247 . S
C65 O54 1.253 . S
C65 O55 1.283 . S
C66 O58 1.304 1_556 S
C66 O60 1.272 . S
C67 O59 1.311 . S
C67 O61 1.231 . S
O68 Zn50 1.953 . S
O68 C62 1.298 . S
O69 Zn70 1.953 . S
O69 C85 1.225 . S
Zn70 O69 1.953 . S
Zn70 O71 1.949 . S
Zn70 O77 1.919 . S
Zn70 O82 1.924 . S
O71 Zn70 1.949 . S
O71 Zn72 1.923 . S
O71 Zn73 1.950 . S
O71 Zn74 1.945 . S
Zn72 O71 1.923 . S
Zn72 O75 1.933 . S
Zn72 O78 1.941 . S
Zn72 O79 1.965 . S
Zn73 O71 1.950 . S
Zn73 O80 1.938 . S
Zn73 O81 1.906 . S
Zn73 O91 1.953 . S
Zn74 O71 1.945 . S
Zn74 O76 1.932 . S
Zn74 O83 1.977 . S
Zn74 O84 1.910 . S
O75 Zn72 1.933 . S
O75 C86 1.226 . S
O76 Zn74 1.932 . S
O76 C86 1.307 . S
O77 Zn70 1.919 . S
O77 C88 1.253 . S
O78 Zn72 1.941 . S
O78 C88 1.283 . S
O79 Zn72 1.965 . S
O79 C87 1.303 . S
O80 Zn73 1.938 . S
O80 C87 1.247 . S
O81 Zn73 1.906 . S
O81 C89 1.304 . S
O82 Zn70 1.924 . S
O82 C90 1.311 . S
O83 Zn74 1.977 . S
O83 C89 1.272 . S
O84 Zn74 1.910 . S
O84 C90 1.231 . S
C85 O69 1.225 . S
C85 O91 1.298 . S
C86 O75 1.226 . S
C86 O76 1.307 . S
C87 O79 1.303 . S
C87 O80 1.247 . S
C88 O77 1.253 . S
C88 O78 1.283 . S
C89 O81 1.304 . S
C89 O83 1.272 . S
C90 O82 1.311 . S
C90 O84 1.231 . S
O91 Zn73 1.953 . S
O91 C85 1.298 . S
O92 Zn93 1.953 . S
O92 C108 1.225 . S
Zn93 O92 1.953 . S
Zn93 O94 1.949 . S
Zn93 O100 1.919 . S
Zn93 O105 1.924 . S
O94 Zn93 1.949 . S
O94 Zn95 1.923 . S
O94 Zn96 1.950 . S
O94 Zn97 1.945 . S
Zn95 O94 1.923 . S
Zn95 O98 1.933 . S
Zn95 O101 1.941 . S
Zn95 O102 1.965 . S
Zn96 O94 1.950 . S
Zn96 O103 1.938 . S
Zn96 O104 1.906 . S
Zn96 O114 1.953 . S
Zn97 O94 1.945 . S
Zn97 O99 1.932 . S
Zn97 O106 1.977 . S
Zn97 O107 1.910 . S
O98 Zn95 1.933 . S
O98 C109 1.226 . S
O99 Zn97 1.932 . S
O99 C109 1.307 . S
O100 Zn93 1.919 . S
O100 C111 1.253 . S
O101 Zn95 1.941 . S
O101 C111 1.283 . S
O102 Zn95 1.965 . S
O102 C110 1.303 . S
O103 Zn96 1.938 . S
O103 C110 1.247 . S
O104 Zn96 1.906 . S
O104 C112 1.304 . S
O105 Zn93 1.924 . S
O105 C113 1.311 . S
O106 Zn97 1.977 . S
O106 C112 1.272 . S
O107 Zn97 1.910 . S
O107 C113 1.231 . S
C108 O92 1.225 . S
C108 O114 1.298 . S
C109 O98 1.226 . S
C109 O99 1.307 . S
C110 O102 1.303 . S
C110 O103 1.247 . S
C111 O100 1.253 . S
C111 O101 1.283 . S
C112 O104 1.304 . S
C112 O106 1.272 . S
C113 O105 1.311 . S
C113 O107 1.231 . S
O114 Zn96 1.953 . S
O114 C108 1.298 . S
O115 Zn116 1.953 . S
O115 C131 1.225 . S
Zn116 O115 1.953 . S
Zn116 O117 1.949 . S
Zn116 O123 1.919 . S
Zn116 O128 1.924 . S
O117 Zn116 1.949 . S
O117 Zn118 1.923 . S
O117 Zn119 1.950 . S
O117 Zn120 1.945 . S
Zn118 O117 1.923 . S
Zn118 O121 1.933 . S
Zn118 O124 1.941 . S
Zn118 O125 1.965 . S
Zn119 O117 1.950 . S
Zn119 O126 1.938 . S
Zn119 O127 1.906 . S
Zn119 O137 1.953 . S
Zn120 O117 1.945 . S
Zn120 O122 1.932 . S
Zn120 O129 1.977 . S
Zn120 O130 1.910 . S
O121 Zn118 1.933 . S
O121 C132 1.226 . S
O122 Zn120 1.932 . S
O122 C132 1.307 . S
O123 Zn116 1.919 . S
O123 C134 1.253 . S
O124 Zn118 1.941 . S
O124 C134 1.283 . S
O125 Zn118 1.965 . S
O125 C133 1.303 . S
O126 Zn119 1.938 . S
O126 C133 1.247 . S
O127 Zn119 1.906 . S
O127 C135 1.304 . S
O128 Zn116 1.924 . S
O128 C136 1.311 . S
O129 Zn120 1.977 . S
O129 C135 1.272 . S
O130 Zn120 1.910 . S
O130 C136 1.231 . S
C131 O115 1.225 . S
C131 O137 1.298 . S
C132 O121 1.226 . S
C132 O122 1.307 . S
C133 O125 1.303 . S
C133 O126 1.247 . S
C134 O123 1.253 . S
C134 O124 1.283 . S
C135 O127 1.304 . S
C135 O129 1.272 . S
C136 O128 1.311 . S
C136 O130 1.231 . S
O137 Zn119 1.953 . S
O137 C131 1.298 . S
O138 Zn139 1.953 1_554 S
O138 C154 1.225 . S
Zn139 O138 1.953 1_556 S
Zn139 O140 1.949 1_556 S
Zn139 O146 1.919 1_556 S
Zn139 O151 1.924 . S
O140 Zn139 1.949 1_554 S
O140 Zn141 1.923 . S
O140 Zn142 1.950 . S
O140 Zn143 1.945 1_554 S
Zn141 O140 1.923 . S
Zn141 O144 1.933 . S
Zn141 O147 1.941 . S
Zn141 O148 1.965 . S
Zn142 O140 1.950 . S
Zn142 O149 1.938 . S
Zn142 O150 1.906 . S
Zn142 O160 1.953 . S
Zn143 O140 1.945 1_556 S
Zn143 O145 1.932 . S
Zn143 O152 1.977 . S
Zn143 O153 1.910 . S
O144 Zn141 1.933 . S
O144 C155 1.226 1_554 S
O145 Zn143 1.932 . S
O145 C155 1.307 . S
O146 Zn139 1.919 1_554 S
O146 C157 1.253 . S
O147 Zn141 1.941 . S
O147 C157 1.283 . S
O148 Zn141 1.965 . S
O148 C156 1.303 . S
O149 Zn142 1.938 . S
O149 C156 1.247 . S
O150 Zn142 1.906 . S
O150 C158 1.304 1_554 S
O151 Zn139 1.924 . S
O151 C159 1.311 . S
O152 Zn143 1.977 . S
O152 C158 1.272 . S
O153 Zn143 1.910 . S
O153 C159 1.231 . S
C154 O138 1.225 . S
C154 O160 1.298 . S
C155 O144 1.226 1_556 S
C155 O145 1.307 . S
C156 O148 1.303 . S
C156 O149 1.247 . S
C157 O146 1.253 . S
C157 O147 1.283 . S
C158 O150 1.304 1_556 S
C158 O152 1.272 . S
C159 O151 1.311 . S
C159 O153 1.231 . S
O160 Zn142 1.953 . S
O160 C154 1.298 . S
O161 Zn162 1.953 1_655 S
O161 C177 1.225 . S
Zn162 O161 1.953 1_455 S
Zn162 O163 1.949 . S
Zn162 O169 1.919 . S
Zn162 O174 1.924 . S
O163 Zn162 1.949 . S
O163 Zn164 1.923 . S
O163 Zn165 1.950 1_455 S
O163 Zn166 1.945 . S
Zn164 O163 1.923 . S
Zn164 O167 1.933 . S
Zn164 O170 1.941 . S
Zn164 O171 1.965 . S
Zn165 O163 1.950 1_655 S
Zn165 O172 1.938 . S
Zn165 O173 1.906 . S
Zn165 O183 1.953 . S
Zn166 O163 1.945 . S
Zn166 O168 1.932 . S
Zn166 O175 1.977 1_455 S
Zn166 O176 1.910 . S
O167 Zn164 1.933 . S
O167 C178 1.226 . S
O168 Zn166 1.932 . S
O168 C178 1.307 . S
O169 Zn162 1.919 . S
O169 C180 1.253 . S
O170 Zn164 1.941 . S
O170 C180 1.283 . S
O171 Zn164 1.965 . S
O171 C179 1.303 1_455 S
O172 Zn165 1.938 . S
O172 C179 1.247 . S
O173 Zn165 1.906 . S
O173 C181 1.304 . S
O174 Zn162 1.924 . S
O174 C182 1.311 1_455 S
O175 Zn166 1.977 1_655 S
O175 C181 1.272 . S
O176 Zn166 1.910 . S
O176 C182 1.231 1_455 S
C177 O161 1.225 . S
C177 O183 1.298 . S
C178 O167 1.226 . S
C178 O168 1.307 . S
C179 O171 1.303 1_655 S
C179 O172 1.247 . S
C180 O169 1.253 . S
C180 O170 1.283 . S
C181 O173 1.304 . S
C181 O175 1.272 . S
C182 O174 1.311 1_655 S
C182 O176 1.231 1_655 S
O183 Zn165 1.953 . S
O183 C177 1.298 . S
H184 C192 0.950 . S
H185 C197 0.950 . S
H186 C194 0.950 . S
H187 C196 0.950 . S
H188 C198 0.950 . S
H189 C200 0.950 . S
H190 C202 0.950 . S
H191 C203 0.950 . S
C192 H184 0.950 . S
C192 C193 1.386 . S
C192 C194 1.391 . S
C193 C192 1.386 . S
C193 C197 1.393 . S
C194 H186 0.950 . S
C194 C192 1.391 . S
C194 C195 1.400 . S
C195 C194 1.400 . S
C195 C196 1.398 . S
C195 C201 1.491 . S
C196 H187 0.950 . S
C196 C195 1.398 . S
C196 C197 1.391 . S
C197 H185 0.950 . S
C197 C193 1.393 . S
C197 C196 1.391 . S
C198 H188 0.950 . S
C198 C199 1.386 . S
C198 C200 1.391 . S
C199 C198 1.386 . S
C199 C203 1.393 . S
C200 H189 0.950 . S
C200 C198 1.391 . S
C200 C201 1.400 . S
C201 C195 1.491 . S
C201 C200 1.400 . S
C201 C202 1.398 . S
C202 H190 0.950 . S
C202 C201 1.398 . S
C202 C203 1.391 . S
C203 H191 0.950 . S
C203 C199 1.393 . S
C203 C202 1.391 . S
H204 C212 0.950 . S
H205 C217 0.950 1_545 S
H206 C214 0.950 . S
H207 C216 0.950 . S
H208 C218 0.950 . S
H209 C220 0.950 . S
H210 C222 0.950 . S
H211 C223 0.950 . S
C212 H204 0.950 . S
C212 C213 1.386 . S
C212 C214 1.391 . S
C213 C212 1.386 . S
C213 C217 1.393 . S
C214 H206 0.950 . S
C214 C212 1.391 . S
C214 C215 1.400 . S
C215 C214 1.400 . S
C215 C216 1.398 . S
C215 C221 1.491 . S
C216 H207 0.950 . S
C216 C215 1.398 . S
C216 C217 1.391 . S
C217 H205 0.950 1_565 S
C217 C213 1.393 . S
C217 C216 1.391 . S
C218 H208 0.950 . S
C218 C219 1.386 . S
C218 C220 1.391 . S
C219 C218 1.386 . S
C219 C223 1.393 . S
C220 H209 0.950 . S
C220 C218 1.391 . S
C220 C221 1.400 . S
C221 C215 1.491 . S
C221 C220 1.400 . S
C221 C222 1.398 . S
C222 H210 0.950 . S
C222 C221 1.398 . S
C222 C223 1.391 . S
C223 H211 0.950 . S
C223 C219 1.393 . S
C223 C222 1.391 . S
H224 C232 0.950 . S
H225 C237 0.950 . S
H226 C234 0.950 . S
H227 C236 0.950 . S
H228 C238 0.950 . S
H229 C240 0.950 . S
H230 C242 0.950 . S
H231 C243 0.950 . S
C232 H224 0.950 . S
C232 C233 1.386 . S
C232 C234 1.391 . S
C233 C232 1.386 . S
C233 C237 1.393 . S
C234 H226 0.950 . S
C234 C232 1.391 . S
C234 C235 1.400 . S
C235 C234 1.400 . S
C235 C236 1.398 . S
C235 C241 1.491 . S
C236 H227 0.950 . S
C236 C235 1.398 . S
C236 C237 1.391 . S
C237 H225 0.950 . S
C237 C233 1.393 . S
C237 C236 1.391 . S
C238 H228 0.950 . S
C238 C239 1.386 1_565 S
C238 C240 1.391 . S
C239 C238 1.386 1_545 S
C239 C243 1.393 . S
C240 H229 0.950 . S
C240 C238 1.391 . S
C240 C241 1.400 . S
C241 C235 1.491 . S
C241 C240 1.400 . S
C241 C242 1.398 1_565 S
C242 H230 0.950 . S
C242 C241 1.398 1_545 S
C242 C243 1.391 . S
C243 H231 0.950 . S
C243 C239 1.393 . S
C243 C242 1.391 . S
H244 C252 0.950 . S
H245 C257 0.950 . S
H246 C254 0.950 . S
H247 C256 0.950 . S
H248 C258 0.950 . S
H249 C260 0.950 . S
H250 C262 0.950 . S
H251 C263 0.950 . S
C252 H244 0.950 . S
C252 C253 1.386 . S
C252 C254 1.391 . S
C253 C252 1.386 . S
C253 C257 1.393 . S
C254 H246 0.950 . S
C254 C252 1.391 . S
C254 C255 1.400 . S
C255 C254 1.400 . S
C255 C256 1.398 . S
C255 C261 1.491 . S
C256 H247 0.950 . S
C256 C255 1.398 . S
C256 C257 1.391 . S
C257 H245 0.950 . S
C257 C253 1.393 . S
C257 C256 1.391 . S
C258 H248 0.950 . S
C258 C259 1.386 . S
C258 C260 1.391 . S
C259 C258 1.386 . S
C259 C263 1.393 . S
C260 H249 0.950 . S
C260 C258 1.391 . S
C260 C261 1.400 . S
C261 C255 1.491 . S
C261 C260 1.400 . S
C261 C262 1.398 . S
C262 H250 0.950 . S
C262 C261 1.398 . S
C262 C263 1.391 . S
C263 H251 0.950 . S
C263 C259 1.393 . S
C263 C262 1.391 . S
H264 C272 0.950 . S
H265 C277 0.950 . S
H266 C274 0.936 1_545 S
H267 C276 0.950 . S
H268 C278 0.950 . S
H269 C280 0.950 . S
H270 C282 0.950 . S
H271 C283 0.950 . S
C272 H264 0.950 . S
C272 C273 1.378 1_545 S
C272 C274 1.391 1_545 S
C273 C272 1.378 1_565 S
C273 C277 1.412 . S
C274 H266 0.936 1_565 S
C274 C272 1.391 1_565 S
C274 C275 1.400 . S
C275 C274 1.400 . S
C275 C276 1.398 . S
C275 C281 1.491 . S
C276 H267 0.950 . S
C276 C275 1.398 . S
C276 C277 1.391 . S
C277 H265 0.950 . S
C277 C273 1.412 . S
C277 C276 1.391 . S
C278 H268 0.950 . S
C278 C279 1.386 . S
C278 C280 1.391 . S
C279 C278 1.386 . S
C279 C283 1.393 . S
C280 H269 0.950 . S
C280 C278 1.391 . S
C280 C281 1.400 . S
C281 C275 1.491 . S
C281 C280 1.400 . S
C281 C282 1.398 . S
C282 H270 0.950 . S
C282 C281 1.398 . S
C282 C283 1.391 . S
C283 H271 0.950 . S
C283 C279 1.393 . S
C283 C282 1.391 . S
H284 C292 0.950 . S
H285 C297 0.950 . S
H286 C294 0.950 . S
H287 C296 0.950 . S
H288 C298 0.950 . S
H289 C300 0.950 . S
H290 C302 0.950 . S
H291 C303 0.950 . S
C292 H284 0.950 . S
C292 C293 1.386 . S
C292 C294 1.391 . S
C293 C292 1.386 . S
C293 C297 1.393 . S
C294 H286 0.950 . S
C294 C292 1.391 . S
C294 C295 1.400 . S
C295 C294 1.400 . S
C295 C296 1.398 . S
C295 C301 1.491 . S
C296 H287 0.950 . S
C296 C295 1.398 . S
C296 C297 1.391 . S
C297 H285 0.950 . S
C297 C293 1.393 . S
C297 C296 1.391 . S
C298 H288 0.950 . S
C298 C299 1.386 . S
C298 C300 1.391 . S
C299 C298 1.386 . S
C299 C303 1.393 . S
C300 H289 0.950 . S
C300 C298 1.391 . S
C300 C301 1.400 . S
C301 C295 1.491 . S
C301 C300 1.400 . S
C301 C302 1.398 . S
C302 H290 0.950 . S
C302 C301 1.398 . S
C302 C303 1.391 . S
C303 H291 0.950 . S
C303 C299 1.393 . S
C303 C302 1.391 . S
H304 C312 0.950 . S
H305 C317 0.950 . S
H306 C314 0.950 . S
H307 C316 0.950 . S
H308 C318 0.950 . S
H309 C320 0.950 . S
H310 C322 0.950 . S
H311 C323 0.950 1_556 S
C312 H304 0.950 . S
C312 C313 1.386 . S
C312 C314 1.391 . S
C313 C312 1.386 . S
C313 C317 1.393 . S
C314 H306 0.950 . S
C314 C312 1.391 . S
C314 C315 1.400 . S
C315 C314 1.400 . S
C315 C316 1.398 . S
C315 C321 1.491 . S
C316 H307 0.950 . S
C316 C315 1.398 . S
C316 C317 1.391 . S
C317 H305 0.950 . S
C317 C313 1.393 . S
C317 C316 1.391 . S
C318 H308 0.950 . S
C318 C319 1.386 . S
C318 C320 1.391 . S
C319 C318 1.386 . S
C319 C323 1.393 . S
C320 H309 0.950 . S
C320 C318 1.391 . S
C320 C321 1.400 . S
C321 C315 1.491 . S
C321 C320 1.400 . S
C321 C322 1.398 . S
C322 H310 0.950 . S
C322 C321 1.398 . S
C322 C323 1.391 . S
C323 H311 0.950 1_554 S
C323 C319 1.393 . S
C323 C322 1.391 . S
H324 C332 0.950 . S
H325 C337 0.950 . S
H326 C334 0.950 . S
H327 C336 0.950 . S
H328 C338 0.950 . S
H329 C340 0.950 . S
H330 C342 0.950 1_554 S
H331 C343 0.950 . S
C332 H324 0.950 . S
C332 C333 1.386 . S
C332 C334 1.391 . S
C333 C332 1.386 . S
C333 C337 1.393 . S
C334 H326 0.950 . S
C334 C332 1.391 . S
C334 C335 1.400 . S
C335 C334 1.400 . S
C335 C336 1.398 . S
C335 C341 1.491 . S
C336 H327 0.950 . S
C336 C335 1.398 . S
C336 C337 1.391 . S
C337 H325 0.950 . S
C337 C333 1.393 . S
C337 C336 1.391 . S
C338 H328 0.950 . S
C338 C339 1.386 . S
C338 C340 1.391 1_545 S
C339 C338 1.386 . S
C339 C343 1.393 1_556 S
C340 H329 0.950 . S
C340 C338 1.391 1_565 S
C340 C341 1.400 . S
C341 C335 1.491 . S
C341 C340 1.400 . S
C341 C342 1.398 . S
C342 H330 0.950 1_556 S
C342 C341 1.398 . S
C342 C343 1.391 1_566 S
C343 H331 0.950 . S
C343 C339 1.393 1_554 S
C343 C342 1.391 1_544 S
H344 C352 0.950 . S
H345 C357 0.950 . S
H346 C354 0.950 . S
H347 C356 0.950 1_554 S
H348 C358 0.950 . S
H349 C360 0.950 . S
H350 C362 0.950 . S
H351 C363 0.950 . S
C352 H344 0.950 . S
C352 C353 1.386 . S
C352 C354 1.391 . S
C353 C352 1.386 . S
C353 C357 1.393 1_556 S
C354 H346 0.950 . S
C354 C352 1.391 . S
C354 C355 1.400 . S
C355 C354 1.400 . S
C355 C356 1.398 . S
C355 C361 1.491 . S
C356 H347 0.950 1_556 S
C356 C355 1.398 . S
C356 C357 1.391 1_556 S
C357 H345 0.950 . S
C357 C353 1.393 1_554 S
C357 C356 1.391 1_554 S
C358 H348 0.950 . S
C358 C359 1.386 . S
C358 C360 1.391 . S
C359 C358 1.386 . S
C359 C363 1.393 . S
C360 H349 0.950 . S
C360 C358 1.391 . S
C360 C361 1.400 . S
C361 C355 1.491 . S
C361 C360 1.400 . S
C361 C362 1.398 . S
C362 H350 0.950 . S
C362 C361 1.398 . S
C362 C363 1.391 . S
C363 H351 0.950 . S
C363 C359 1.393 . S
C363 C362 1.391 . S
H364 C372 0.950 . S
H365 C377 0.950 . S
H366 C374 0.950 . S
H367 C376 0.950 . S
H368 C378 0.950 1_556 S
H369 C380 0.950 . S
H370 C382 0.950 . S
H371 C383 0.950 . S
C372 H364 0.950 . S
C372 C373 1.386 . S
C372 C374 1.391 . S
C373 C372 1.386 . S
C373 C377 1.393 . S
C374 H366 0.950 . S
C374 C372 1.391 . S
C374 C375 1.400 . S
C375 C374 1.400 . S
C375 C376 1.398 . S
C375 C381 1.491 . S
C376 H367 0.950 . S
C376 C375 1.398 . S
C376 C377 1.391 . S
C377 H365 0.950 . S
C377 C373 1.393 . S
C377 C376 1.391 . S
C378 H368 0.950 1_554 S
C378 C379 1.386 . S
C378 C380 1.391 . S
C379 C378 1.386 . S
C379 C383 1.393 . S
C380 H369 0.950 . S
C380 C378 1.391 . S
C380 C381 1.400 . S
C381 C375 1.491 . S
C381 C380 1.400 . S
C381 C382 1.398 . S
C382 H370 0.950 . S
C382 C381 1.398 . S
C382 C383 1.391 . S
C383 H371 0.950 . S
C383 C379 1.393 . S
C383 C382 1.391 . S
H384 C392 0.950 . S
H385 C397 0.950 . S
H386 C394 0.950 . S
H387 C396 0.950 . S
H388 C398 0.950 . S
H389 C400 0.950 . S
H390 C402 0.950 . S
H391 C403 0.950 . S
C392 H384 0.950 . S
C392 C393 1.386 . S
C392 C394 1.391 . S
C393 C392 1.386 . S
C393 C397 1.393 . S
C394 H386 0.950 . S
C394 C392 1.391 . S
C394 C395 1.400 . S
C395 C394 1.400 . S
C395 C396 1.398 . S
C395 C401 1.491 . S
C396 H387 0.950 . S
C396 C395 1.398 . S
C396 C397 1.391 . S
C397 H385 0.950 . S
C397 C393 1.393 . S
C397 C396 1.391 . S
C398 H388 0.950 . S
C398 C399 1.386 . S
C398 C400 1.391 . S
C399 C398 1.386 . S
C399 C403 1.393 . S
C400 H389 0.950 . S
C400 C398 1.391 . S
C400 C401 1.400 . S
C401 C395 1.491 . S
C401 C400 1.400 . S
C401 C402 1.398 . S
C402 H390 0.950 . S
C402 C401 1.398 . S
C402 C403 1.391 . S
C403 H391 0.950 . S
C403 C399 1.393 . S
C403 C402 1.391 . S
H404 C412 0.950 . S
H405 C417 0.950 . S
H406 C414 0.950 . S
H407 C416 0.950 . S
H408 C418 0.950 . S
H409 C420 0.950 . S
H410 C422 0.950 . S
H411 C423 0.950 . S
C412 H404 0.950 . S
C412 C413 1.386 . S
C412 C414 1.391 . S
C413 C412 1.386 . S
C413 C417 1.393 . S
C414 H406 0.950 . S
C414 C412 1.391 . S
C414 C415 1.400 . S
C415 C414 1.400 . S
C415 C416 1.398 . S
C415 C421 1.491 . S
C416 H407 0.950 . S
C416 C415 1.398 . S
C416 C417 1.391 . S
C417 H405 0.950 . S
C417 C413 1.393 . S
C417 C416 1.391 . S
C418 H408 0.950 . S
C418 C419 1.386 . S
C418 C420 1.391 . S
C419 C418 1.386 . S
C419 C423 1.393 . S
C420 H409 0.950 . S
C420 C418 1.391 . S
C420 C421 1.400 . S
C421 C415 1.491 . S
C421 C420 1.400 . S
C421 C422 1.398 . S
C422 H410 0.950 . S
C422 C421 1.398 . S
C422 C423 1.391 . S
C423 H411 0.950 . S
C423 C419 1.393 . S
C423 C422 1.391 . S
H424 C432 0.950 . S
H425 C437 0.950 . S
H426 C434 0.950 . S
H427 C436 0.950 . S
H428 C438 0.950 1_556 S
H429 C440 0.950 . S
H430 C442 0.950 . S
H431 C443 0.950 . S
C432 H424 0.950 . S
C432 C433 1.386 . S
C432 C434 1.391 . S
C433 C432 1.386 . S
C433 C437 1.393 . S
C434 H426 0.950 . S
C434 C432 1.391 . S
C434 C435 1.400 . S
C435 C434 1.400 . S
C435 C436 1.398 . S
C435 C441 1.491 . S
C436 H427 0.950 . S
C436 C435 1.398 . S
C436 C437 1.391 . S
C437 H425 0.950 . S
C437 C433 1.393 . S
C437 C436 1.391 . S
C438 H428 0.950 1_554 S
C438 C439 1.386 . S
C438 C440 1.391 . S
C439 C438 1.386 . S
C439 C443 1.393 . S
C440 H429 0.950 . S
C440 C438 1.391 . S
C440 C441 1.400 . S
C441 C435 1.491 . S
C441 C440 1.400 . S
C441 C442 1.398 . S
C442 H430 0.950 . S
C442 C441 1.398 . S
C442 C443 1.391 . S
C443 H431 0.950 . S
C443 C439 1.393 . S
C443 C442 1.391 . S
H444 C452 0.950 . S
H445 C457 0.950 . S
H446 C454 0.950 1_554 S
H447 C456 0.950 . S
H448 C458 0.950 . S
H449 C460 0.950 . S
H450 C462 0.950 . S
H451 C463 0.950 . S
C452 H444 0.950 . S
C452 C453 1.386 1_554 S
C452 C454 1.391 1_554 S
C453 C452 1.386 1_556 S
C453 C457 1.393 . S
C454 H446 0.950 1_556 S
C454 C452 1.391 1_556 S
C454 C455 1.400 . S
C455 C454 1.400 . S
C455 C456 1.398 . S
C455 C461 1.491 . S
C456 H447 0.950 . S
C456 C455 1.398 . S
C456 C457 1.391 . S
C457 H445 0.950 . S
C457 C453 1.393 . S
C457 C456 1.391 . S
C458 H448 0.950 . S
C458 C459 1.386 . S
C458 C460 1.391 . S
C459 C458 1.386 . S
C459 C463 1.393 . S
C460 H449 0.950 . S
C460 C458 1.391 . S
C460 C461 1.400 . S
C461 C455 1.491 . S
C461 C460 1.400 . S
C461 C462 1.398 . S
C462 H450 0.950 . S
C462 C461 1.398 . S
C462 C463 1.391 . S
C463 H451 0.950 . S
C463 C459 1.393 . S
C463 C462 1.391 . S
H464 C472 0.950 . S
H465 C477 0.950 . S
H466 C474 0.950 . S
H467 C476 0.950 . S
H468 C478 0.950 . S
H469 C480 0.950 . S
H470 C482 0.950 . S
H471 C483 0.950 . S
C472 H464 0.950 . S
C472 C473 1.386 . S
C472 C474 1.391 . S
C473 C472 1.386 . S
C473 C477 1.393 . S
C474 H466 0.950 . S
C474 C472 1.391 . S
C474 C475 1.400 . S
C475 C474 1.400 . S
C475 C476 1.398 . S
C475 C481 1.491 . S
C476 H467 0.950 . S
C476 C475 1.398 . S
C476 C477 1.391 . S
C477 H465 0.950 . S
C477 C473 1.393 . S
C477 C476 1.391 . S
C478 H468 0.950 . S
C478 C479 1.386 . S
C478 C480 1.391 . S
C479 C478 1.386 . S
C479 C483 1.393 . S
C480 H469 0.950 . S
C480 C478 1.391 . S
C480 C481 1.400 . S
C481 C475 1.491 . S
C481 C480 1.400 . S
C481 C482 1.398 . S
C482 H470 0.950 . S
C482 C481 1.398 . S
C482 C483 1.391 . S
C483 H471 0.950 . S
C483 C479 1.393 . S
C483 C482 1.391 . S
H484 C492 0.950 . S
H485 C497 0.950 . S
H486 C494 0.950 . S
H487 C496 0.950 . S
H488 C498 0.950 . S
H489 C500 0.950 . S
H490 C502 0.950 . S
H491 C503 0.950 . S
C492 H484 0.950 . S
C492 C493 1.386 . S
C492 C494 1.391 . S
C493 C492 1.386 . S
C493 C497 1.393 . S
C494 H486 0.950 . S
C494 C492 1.391 . S
C494 C495 1.400 . S
C495 C494 1.400 . S
C495 C496 1.398 . S
C495 C501 1.491 . S
C496 H487 0.950 . S
C496 C495 1.398 . S
C496 C497 1.391 . S
C497 H485 0.950 . S
C497 C493 1.393 . S
C497 C496 1.391 . S
C498 H488 0.950 . S
C498 C499 1.386 . S
C498 C500 1.391 . S
C499 C498 1.386 . S
C499 C503 1.393 . S
C500 H489 0.950 . S
C500 C498 1.391 . S
C500 C501 1.400 . S
C501 C495 1.491 . S
C501 C500 1.400 . S
C501 C502 1.398 . S
C502 H490 0.950 . S
C502 C501 1.398 . S
C502 C503 1.391 . S
C503 H491 0.950 . S
C503 C499 1.393 . S
C503 C502 1.391 . S
H504 C512 0.950 . S
H505 C517 0.950 . S
H506 C514 0.950 . S
H507 C516 0.950 . S
H508 C518 0.950 . S
H509 C520 0.950 . S
H510 C522 0.950 . S
H511 C523 0.950 . S
C512 H504 0.950 . S
C512 C513 1.386 . S
C512 C514 1.391 . S
C513 C512 1.386 . S
C513 C517 1.393 1_455 S
C514 H506 0.950 . S
C514 C512 1.391 . S
C514 C515 1.400 . S
C515 C514 1.400 . S
C515 C516 1.398 1_455 S
C515 C521 1.491 1_556 S
C516 H507 0.950 . S
C516 C515 1.398 1_655 S
C516 C517 1.391 . S
C517 H505 0.950 . S
C517 C513 1.393 1_655 S
C517 C516 1.391 . S
C518 H508 0.950 . S
C518 C519 1.386 1_655 S
C518 C520 1.391 . S
C519 C518 1.386 1_455 S
C519 C523 1.393 . S
C520 H509 0.950 . S
C520 C518 1.391 . S
C520 C521 1.400 1_655 S
C521 C515 1.491 1_554 S
C521 C520 1.400 1_455 S
C521 C522 1.398 . S
C522 H510 0.950 . S
C522 C521 1.398 . S
C522 C523 1.391 . S
C523 H511 0.950 . S
C523 C519 1.393 . S
C523 C522 1.391 . S
H524 C532 0.950 . S
H525 C537 0.950 . S
H526 C534 0.950 . S
H527 C536 0.950 . S
H528 C538 0.950 . S
H529 C540 0.950 . S
H530 C542 0.950 . S
H531 C543 0.950 . S
C532 H524 0.950 . S
C532 C533 1.386 . S
C532 C534 1.391 . S
C533 C532 1.386 . S
C533 C537 1.393 . S
C534 H526 0.950 . S
C534 C532 1.391 . S
C534 C535 1.400 . S
C535 C534 1.400 . S
C535 C536 1.398 . S
C535 C541 1.491 . S
C536 H527 0.950 . S
C536 C535 1.398 . S
C536 C537 1.391 . S
C537 H525 0.950 . S
C537 C533 1.393 . S
C537 C536 1.391 . S
C538 H528 0.950 . S
C538 C539 1.386 . S
C538 C540 1.391 . S
C539 C538 1.386 . S
C539 C543 1.393 . S
C540 H529 0.950 . S
C540 C538 1.391 . S
C540 C541 1.400 . S
C541 C535 1.491 . S
C541 C540 1.400 . S
C541 C542 1.398 . S
C542 H530 0.950 . S
C542 C541 1.398 . S
C542 C543 1.391 . S
C543 H531 0.950 . S
C543 C539 1.393 . S
C543 C542 1.391 . S
H544 C552 0.950 . S
H545 C557 0.950 . S
H546 C554 0.950 . S
H547 C556 0.950 . S
H548 C558 0.950 . S
H549 C560 0.950 . S
H550 C562 0.950 . S
H551 C563 0.950 . S
C552 H544 0.950 . S
C552 C553 1.386 . S
C552 C554 1.391 . S
C553 C552 1.386 . S
C553 C557 1.393 . S
C554 H546 0.950 . S
C554 C552 1.391 . S
C554 C555 1.400 . S
C555 C554 1.400 . S
C555 C556 1.398 . S
C555 C561 1.491 . S
C556 H547 0.950 . S
C556 C555 1.398 . S
C556 C557 1.391 . S
C557 H545 0.950 . S
C557 C553 1.393 . S
C557 C556 1.391 . S
C558 H548 0.950 . S
C558 C559 1.386 . S
C558 C560 1.391 . S
C559 C558 1.386 . S
C559 C563 1.393 . S
C560 H549 0.950 . S
C560 C558 1.391 . S
C560 C561 1.400 . S
C561 C555 1.491 . S
C561 C560 1.400 . S
C561 C562 1.398 . S
C562 H550 0.950 . S
C562 C561 1.398 . S
C562 C563 1.391 . S
C563 H551 0.950 . S
C563 C559 1.393 . S
C563 C562 1.391 . S
H564 C572 0.950 . S
H565 C577 0.950 . S
H566 C574 0.950 . S
H567 C576 0.950 . S
H568 C578 0.950 . S
H569 C580 0.950 . S
H570 C582 0.950 . S
H571 C583 0.950 . S
C572 H564 0.950 . S
C572 C573 1.386 . S
C572 C574 1.391 . S
C573 C572 1.386 . S
C573 C577 1.393 . S
C574 H566 0.950 . S
C574 C572 1.391 . S
C574 C575 1.400 . S
C575 C574 1.400 . S
C575 C576 1.398 . S
C575 C581 1.491 . S
C576 H567 0.950 . S
C576 C575 1.398 . S
C576 C577 1.391 . S
C577 H565 0.950 . S
C577 C573 1.393 . S
C577 C576 1.391 . S
C578 H568 0.950 . S
C578 C579 1.386 . S
C578 C580 1.391 . S
C579 C578 1.386 . S
C579 C583 1.393 . S
C580 H569 0.950 . S
C580 C578 1.391 . S
C580 C581 1.400 . S
C581 C575 1.491 . S
C581 C580 1.400 . S
C581 C582 1.398 . S
C582 H570 0.950 . S
C582 C581 1.398 . S
C582 C583 1.391 . S
C583 H571 0.950 . S
C583 C579 1.393 . S
C583 C582 1.391 . S
H584 C592 0.950 . S
H585 C597 0.950 . S
H586 C594 0.950 . S
H587 C596 0.950 . S
H588 C598 0.950 . S
H589 C600 0.950 . S
H590 C602 0.950 . S
H591 C603 0.950 . S
C592 H584 0.950 . S
C592 C593 1.386 . S
C592 C594 1.391 . S
C593 C592 1.386 . S
C593 C597 1.393 . S
C594 H586 0.950 . S
C594 C592 1.391 . S
C594 C595 1.400 . S
C595 C594 1.400 . S
C595 C596 1.398 . S
C595 C601 1.491 . S
C596 H587 0.950 . S
C596 C595 1.398 . S
C596 C597 1.391 . S
C597 H585 0.950 . S
C597 C593 1.393 . S
C597 C596 1.391 . S
C598 H588 0.950 . S
C598 C599 1.386 . S
C598 C600 1.391 . S
C599 C598 1.386 . S
C599 C603 1.393 . S
C600 H589 0.950 . S
C600 C598 1.391 . S
C600 C601 1.400 . S
C601 C595 1.491 . S
C601 C600 1.400 . S
C601 C602 1.398 . S
C602 H590 0.950 . S
C602 C601 1.398 . S
C602 C603 1.391 . S
C603 H591 0.950 . S
C603 C599 1.393 . S
C603 C602 1.391 . S
H604 C612 0.950 . S
H605 C617 0.950 . S
H606 C614 0.950 . S
H607 C616 0.950 . S
H608 C618 0.950 . S
H609 C620 0.950 . S
H610 C622 0.950 . S
H611 C623 0.950 . S
C612 H604 0.950 . S
C612 C613 1.386 . S
C612 C614 1.391 . S
C613 C612 1.386 . S
C613 C617 1.393 . S
C614 H606 0.950 . S
C614 C612 1.391 . S
C614 C615 1.400 . S
C615 C614 1.400 . S
C615 C616 1.398 . S
C615 C621 1.491 . S
C616 H607 0.950 . S
C616 C615 1.398 . S
C616 C617 1.391 . S
C617 H605 0.950 . S
C617 C613 1.393 . S
C617 C616 1.391 . S
C618 H608 0.950 . S
C618 C619 1.386 . S
C618 C620 1.391 . S
C619 C618 1.386 . S
C619 C623 1.393 . S
C620 H609 0.950 . S
C620 C618 1.391 . S
C620 C621 1.400 . S
C621 C615 1.491 . S
C621 C620 1.400 . S
C621 C622 1.398 . S
C622 H610 0.950 . S
C622 C621 1.398 . S
C622 C623 1.391 . S
C623 H611 0.950 . S
C623 C619 1.393 . S
C623 C622 1.391 . S
H624 C632 0.950 . S
H625 C637 0.950 . S
H626 C634 0.950 . S
H627 C636 0.950 . S
H628 C638 0.950 . S
H629 C640 0.950 . S
H630 C642 0.950 . S
H631 C643 0.950 . S
C632 H624 0.950 . S
C632 C633 1.386 . S
C632 C634 1.391 . S
C633 C632 1.386 . S
C633 C637 1.393 . S
C634 H626 0.950 . S
C634 C632 1.391 . S
C634 C635 1.400 . S
C635 C634 1.400 . S
C635 C636 1.398 . S
C635 C641 1.491 . S
C636 H627 0.950 . S
C636 C635 1.398 . S
C636 C637 1.391 . S
C637 H625 0.950 . S
C637 C633 1.393 . S
C637 C636 1.391 . S
C638 H628 0.950 . S
C638 C639 1.386 . S
C638 C640 1.391 . S
C639 C638 1.386 . S
C639 C643 1.393 . S
C640 H629 0.950 . S
C640 C638 1.391 . S
C640 C641 1.400 . S
C641 C635 1.491 . S
C641 C640 1.400 . S
C641 C642 1.398 . S
C642 H630 0.950 . S
C642 C641 1.398 . S
C642 C643 1.391 . S
C643 H631 0.950 . S
C643 C639 1.393 . S
C643 C642 1.391 . S
H644 C652 0.950 . S
H645 C657 0.950 . S
H646 C654 0.950 . S
H647 C656 0.950 . S
H648 C658 0.950 . S
H649 C660 0.950 . S
H650 C662 0.950 . S
H651 C663 0.950 . S
C652 H644 0.950 . S
C652 C653 1.386 . S
C652 C654 1.391 . S
C653 C652 1.386 . S
C653 C657 1.393 1_655 S
C654 H646 0.950 . S
C654 C652 1.391 . S
C654 C655 1.400 . S
C655 C654 1.400 . S
C655 C656 1.398 1_655 S
C655 C661 1.491 1_556 S
C656 H647 0.950 . S
C656 C655 1.398 1_455 S
C656 C657 1.391 . S
C657 H645 0.950 . S
C657 C653 1.393 1_455 S
C657 C656 1.391 . S
C658 H648 0.950 . S
C658 C659 1.386 1_455 S
C658 C660 1.391 . S
C659 C658 1.386 1_655 S
C659 C663 1.393 . S
C660 H649 0.950 . S
C660 C658 1.391 . S
C660 C661 1.400 1_455 S
C661 C655 1.491 1_554 S
C661 C660 1.400 1_655 S
C661 C662 1.398 . S
C662 H650 0.950 . S
C662 C661 1.398 . S
C662 C663 1.391 . S
C663 H651 0.950 . S
C663 C659 1.393 . S
C663 C662 1.391 . S
C193 C20 1.500 . S
C199 C85 1.528 . S
C213 C16 1.534 1_565 S
C219 C43 1.510 . S
C233 C39 1.527 . S
C239 C66 1.493 . S
C253 C62 1.536 . S
C259 C89 1.510 . S
C273 C19 1.487 1_565 S
C279 C132 1.537 . S
C293 C17 1.533 . S
C299 C111 1.499 . S
C313 C109 1.539 . S
C319 C65 1.489 . S
C333 C134 1.497 . S
C339 C63 1.531 . S
C353 C158 1.506 . S
C359 C131 1.531 . S
C373 C112 1.500 . S
C379 C154 1.536 . S
C393 C181 1.511 . S
C399 C108 1.536 . S
C413 C135 1.506 . S
C419 C177 1.537 . S
C433 C86 1.529 . S
C439 C157 1.483 . S
C453 C155 1.529 . S
C459 C42 1.488 . S
C473 C40 1.539 . S
C479 C180 1.484 . S
C493 C88 1.488 . S
C499 C178 1.529 . S
C513 C18 0.978 . S
C519 C21 0.972 . S
C533 C44 0.962 . S
C539 C41 0.985 1_554 S
C553 C67 0.959 . S
C559 C64 0.979 . S
C573 C90 0.964 1_556 S
C579 C87 0.984 . S
C593 C113 0.945 1_556 S
C599 C110 0.983 . S
C613 C136 0.929 . S
C619 C133 0.988 1_554 S
C633 C159 0.949 . S
C639 C156 0.988 . S
C653 C179 0.980 . S
C659 C182 0.958 . S
