# Generated by pormake.
# Topology son, (6)-cn, num edge types: 1
# Building blocks:
#     Node 0, Type 0, BuildingBlock: CUKXOW_clean_sbu_0, # of connection points: 6
#     Node 1, Type 0, BuildingBlock: CUKXOW_clean_sbu_0, # of connection points: 6
#     Node 2, Type 0, BuildingBlock: CUKXOW_clean_sbu_0, # of connection points: 6
#     Node 3, Type 0, BuildingBlock: CUKXOW_clean_sbu_0, # of connection points: 6
#     Node 4, Type 0, BuildingBlock: CUKXOW_clean_sbu_0, # of connection points: 6
#     Node 5, Type 0, BuildingBlock: CUKXOW_clean_sbu_0, # of connection points: 6
#     Node 6, Type 0, BuildingBlock: CUKXOW_clean_sbu_0, # of connection points: 6
#     Node 7, Type 0, BuildingBlock: CUKXOW_clean_sbu_0, # of connection points: 6
#     Node 8, Type 0, BuildingBlock: CUKXOW_clean_sbu_0, # of connection points: 6
#     Node 9, Type 0, BuildingBlock: CUKXOW_clean_sbu_0, # of connection points: 6
#     Node 10, Type 0, BuildingBlock: CUKXOW_clean_sbu_0, # of connection points: 6
#     Node 11, Type 0, BuildingBlock: CUKXOW_clean_sbu_0, # of connection points: 6
#     Node 12, Type 0, BuildingBlock: CUKXOW_clean_sbu_0, # of connection points: 6
#     Node 13, Type 0, BuildingBlock: CUKXOW_clean_sbu_0, # of connection points: 6
#     Node 14, Type 0, BuildingBlock: CUKXOW_clean_sbu_0, # of connection points: 6
#     Node 15, Type 0, BuildingBlock: CUKXOW_clean_sbu_0, # of connection points: 6
#     Node 16, Type 0, BuildingBlock: CUKXOW_clean_sbu_0, # of connection points: 6
#     Node 17, Type 0, BuildingBlock: CUKXOW_clean_sbu_0, # of connection points: 6
#     Node 18, Type 0, BuildingBlock: CUKXOW_clean_sbu_0, # of connection points: 6
#     Node 19, Type 0, BuildingBlock: CUKXOW_clean_sbu_0, # of connection points: 6
#     Node 20, Type 0, BuildingBlock: CUKXOW_clean_sbu_0, # of connection points: 6
#     Node 21, Type 0, BuildingBlock: CUKXOW_clean_sbu_0, # of connection points: 6
#     Node 22, Type 0, BuildingBlock: CUKXOW_clean_sbu_0, # of connection points: 6
#     Node 23, Type 0, BuildingBlock: CUKXOW_clean_sbu_0, # of connection points: 6
#     Node 24, Type 0, BuildingBlock: CUKXOW_clean_sbu_0, # of connection points: 6
#     Node 25, Type 0, BuildingBlock: CUKXOW_clean_sbu_0, # of connection points: 6
#     Node 26, Type 0, BuildingBlock: CUKXOW_clean_sbu_0, # of connection points: 6
#     Node 27, Type 0, BuildingBlock: CUKXOW_clean_sbu_0, # of connection points: 6
#     Node 28, Type 0, BuildingBlock: CUKXOW_clean_sbu_0, # of connection points: 6
#     Node 29, Type 0, BuildingBlock: CUKXOW_clean_sbu_0, # of connection points: 6
#     Node 30, Type 0, BuildingBlock: CUKXOW_clean_sbu_0, # of connection points: 6
#     Node 31, Type 0, BuildingBlock: CUKXOW_clean_sbu_0, # of connection points: 6
#     Edge 32, Type (0, 0), None
#     Edge 33, Type (0, 0), None
#     Edge 34, Type (0, 0), None
#     Edge 35, Type (0, 0), None
#     Edge 36, Type (0, 0), None
#     Edge 37, Type (0, 0), None
#     Edge 38, Type (0, 0), None
#     Edge 39, Type (0, 0), None
#     Edge 40, Type (0, 0), None
#     Edge 41, Type (0, 0), None
#     Edge 42, Type (0, 0), None
#     Edge 43, Type (0, 0), None
#     Edge 44, Type (0, 0), None
#     Edge 45, Type (0, 0), None
#     Edge 46, Type (0, 0), None
#     Edge 47, Type (0, 0), None
#     Edge 48, Type (0, 0), None
#     Edge 49, Type (0, 0), None
#     Edge 50, Type (0, 0), None
#     Edge 51, Type (0, 0), None
#     Edge 52, Type (0, 0), None
#     Edge 53, Type (0, 0), None
#     Edge 54, Type (0, 0), None
#     Edge 55, Type (0, 0), None
#     Edge 56, Type (0, 0), None
#     Edge 57, Type (0, 0), None
#     Edge 58, Type (0, 0), None
#     Edge 59, Type (0, 0), None
#     Edge 60, Type (0, 0), None
#     Edge 61, Type (0, 0), None
#     Edge 62, Type (0, 0), None
#     Edge 63, Type (0, 0), None
#     Edge 64, Type (0, 0), None
#     Edge 65, Type (0, 0), None
#     Edge 66, Type (0, 0), None
#     Edge 67, Type (0, 0), None
#     Edge 68, Type (0, 0), None
#     Edge 69, Type (0, 0), None
#     Edge 70, Type (0, 0), None
#     Edge 71, Type (0, 0), None
#     Edge 72, Type (0, 0), None
#     Edge 73, Type (0, 0), None
#     Edge 74, Type (0, 0), None
#     Edge 75, Type (0, 0), None
#     Edge 76, Type (0, 0), None
#     Edge 77, Type (0, 0), None
#     Edge 78, Type (0, 0), None
#     Edge 79, Type (0, 0), None
#     Edge 80, Type (0, 0), None
#     Edge 81, Type (0, 0), None
#     Edge 82, Type (0, 0), None
#     Edge 83, Type (0, 0), None
#     Edge 84, Type (0, 0), None
#     Edge 85, Type (0, 0), None
#     Edge 86, Type (0, 0), None
#     Edge 87, Type (0, 0), None
#     Edge 88, Type (0, 0), None
#     Edge 89, Type (0, 0), None
#     Edge 90, Type (0, 0), None
#     Edge 91, Type (0, 0), None
#     Edge 92, Type (0, 0), None
#     Edge 93, Type (0, 0), None
#     Edge 94, Type (0, 0), None
#     Edge 95, Type (0, 0), None
#     Edge 96, Type (0, 0), None
#     Edge 97, Type (0, 0), None
#     Edge 98, Type (0, 0), None
#     Edge 99, Type (0, 0), None
#     Edge 100, Type (0, 0), None
#     Edge 101, Type (0, 0), None
#     Edge 102, Type (0, 0), None
#     Edge 103, Type (0, 0), None
#     Edge 104, Type (0, 0), None
#     Edge 105, Type (0, 0), None
#     Edge 106, Type (0, 0), None
#     Edge 107, Type (0, 0), None
#     Edge 108, Type (0, 0), None
#     Edge 109, Type (0, 0), None
#     Edge 110, Type (0, 0), None
#     Edge 111, Type (0, 0), None
#     Edge 112, Type (0, 0), None
#     Edge 113, Type (0, 0), None
#     Edge 114, Type (0, 0), None
#     Edge 115, Type (0, 0), None
#     Edge 116, Type (0, 0), None
#     Edge 117, Type (0, 0), None
#     Edge 118, Type (0, 0), None
#     Edge 119, Type (0, 0), None
#     Edge 120, Type (0, 0), None
#     Edge 121, Type (0, 0), None
#     Edge 122, Type (0, 0), None
#     Edge 123, Type (0, 0), None
#     Edge 124, Type (0, 0), None
#     Edge 125, Type (0, 0), None
#     Edge 126, Type (0, 0), None
#     Edge 127, Type (0, 0), None
# Relax obj value: 0.079
# Max RMSD: 0.146
# Mean RMSD: 0.146
data_MOF--net-son--node1-CUKXOW_clean_sbu_0--edge1-none
_symmetry_space_group_name_H-M    P1
_symmetry_Int_Tables_number       1
_symmetry_cell_setting            triclinic
loop_
_symmetry_equiv_pos_as_xyz
'x, y, z'
_cell_length_a     75.991387
_cell_length_b     27.237018
_cell_length_c     5.9468965
_cell_angle_alpha  90.00202
_cell_angle_beta   89.998002
_cell_angle_gamma 89.998963
loop_
_atom_site_label
_atom_site_type_symbol
_atom_site_fract_x
_atom_site_fract_y
_atom_site_fract_z
_atom_type_partial_charge
Tb0 Tb 0.28547 0.2421 0.3053 0.0
C1 C 0.30518 0.33925 0.42491 0.0
Tb2 Tb 0.3265 0.24145 0.29919 0.0
O3 O 0.2848 0.25608 0.66999 0.0
O4 O 0.3062 0.22044 0.51994 0.0
O5 O 0.29011 0.31997 0.3543 0.0
C6 C 0.36011 0.24335 0.42655 0.0
O7 O 0.32021 0.31428 0.43638 0.0
C8 C 0.31119 0.24494 0.90562 0.0
C9 C 0.30624 0.14151 0.23125 0.0
O10 O 0.35172 0.28004 0.33798 0.0
O11 O 0.34979 0.20571 0.43958 0.0
O12 O 0.32729 0.22993 0.93222 0.0
O13 O 0.3059 0.26339 1.08676 0.0
O14 O 0.32144 0.1629 0.2815 0.0
O15 O 0.29104 0.16549 0.21867 0.0
C16 C 0.2531 0.24076 0.13573 0.0
O17 O 0.25743 0.22414 0.33328 0.0
O18 O 0.26683 0.25866 1.03593 0.0
C19 C 0.30076 0.23964 0.69946 0.0
Tb20 Tb 0.95314 0.98782 0.30674 0.0
C21 C 0.93345 0.89062 0.42623 0.0
Tb22 Tb 0.91211 0.98837 0.30067 0.0
O23 O 0.95382 0.97386 0.67144 0.0
O24 O 0.9324 0.00943 0.52142 0.0
O25 O 0.94852 0.90993 0.35583 0.0
C26 C 0.87849 0.98648 0.4277 0.0
O27 O 0.91841 0.91556 0.43774 0.0
C28 C 0.92742 0.98492 0.9071 0.0
C29 C 0.93232 0.08834 0.23219 0.0
O30 O 0.88687 0.94985 0.33834 0.0
O31 O 0.88884 0.02406 0.44185 0.0
O32 O 0.91132 -8e-05 0.93372 0.0
O33 O 0.93272 0.96648 0.08823 0.0
O34 O 0.91713 0.06691 0.28241 0.0
O35 O 0.94754 0.06442 0.21997 0.0
C36 C 0.98548 0.98917 0.13647 0.0
O37 O 0.98117 0.00585 0.33402 0.0
O38 O 0.97175 0.97121 1.03711 0.0
C39 C 0.93785 -0.00975 0.70093 0.0
Tb40 Tb 0.2854 0.98781 0.11834 0.0
C41 C 0.30508 0.8906 0.99877 0.0
Tb42 Tb 0.32643 0.98833 0.12443 0.0
O43 O 0.28472 0.97384 0.75365 0.0
O44 O 0.30614 0.0094 0.90368 0.0
O45 O 0.29001 0.90992 1.06921 0.0
C46 C 0.36004 0.98643 0.99721 0.0
O47 O 0.32013 0.91553 0.9873 0.0
C48 C 0.31112 0.98489 0.518 0.0
C49 C 0.30622 0.08834 0.19245 0.0
O50 O 0.35165 0.94976 1.08597 0.0
O51 O 0.34971 0.02406 0.98384 0.0
O52 O 0.32722 -0.00014 0.4914 0.0
O53 O 0.30582 0.96646 0.33686 0.0
O54 O 0.32141 0.06689 0.14225 0.0
O55 O 0.29101 0.06442 0.2049 0.0
C56 C 0.25305 0.98917 0.28838 0.0
O57 O 0.25737 0.00583 0.09083 0.0
O58 O 0.26678 0.97124 0.3879 0.0
C59 C 0.30069 -0.00978 0.72417 0.0
Tb60 Tb 0.95307 0.24208 0.11865 0.0
C61 C 0.93335 0.33921 0.99909 0.0
Tb62 Tb 0.91204 0.2414 0.12473 0.0
O63 O 0.95374 0.25603 0.75393 0.0
O64 O 0.93233 0.2204 0.90398 0.0
O65 O 0.94842 0.31994 1.06966 0.0
C66 C 0.87842 0.2433 0.99759 0.0
O67 O 0.91832 0.31423 0.98757 0.0
C68 C 0.92735 0.24491 0.51831 0.0
C69 C 0.9323 0.1415 0.19301 0.0
O70 O 0.88682 0.28 1.08596 0.0
O71 O 0.88874 0.20565 0.98457 0.0
O72 O 0.91125 0.22989 0.49171 0.0
O73 O 0.93264 0.26335 0.33716 0.0
O74 O 0.91711 0.16287 0.14255 0.0
O75 O 0.94751 0.16547 0.20551 0.0
C76 C 0.98543 0.24075 0.2885 0.0
O77 O 0.9811 0.22409 0.09097 0.0
O78 O 0.9717 0.25869 0.38808 0.0
C79 C 0.93778 0.2396 0.72446 0.0
Tb80 Tb 0.66205 0.73838 0.87501 0.0
C81 C 0.68229 0.83834 0.94283 0.0
Tb82 Tb 0.70309 0.73778 0.86886 0.0
O83 O 0.66123 0.74987 0.24182 0.0
O84 O 0.68268 0.71641 0.08775 0.0
O85 O 0.66711 0.81693 0.89238 0.0
C86 C 0.73547 0.73914 1.03821 0.0
O87 O 0.6975 0.81439 0.95558 0.0
C88 C 0.68775 0.74019 0.47478 0.0
C89 C 0.68338 0.64061 0.74925 0.0
O90 O 0.73112 0.75577 0.84069 0.0
O91 O 0.72175 0.72123 0.13806 0.0
O92 O 0.70372 0.72381 0.50397 0.0
O93 O 0.68236 0.75934 0.6546 0.0
O94 O 0.69845 0.6599 0.81976 0.0
O95 O 0.66834 0.66557 0.73785 0.0
C96 C 0.62844 0.7365 0.74771 0.0
O97 O 0.63685 0.69976 0.83556 0.0
O98 O 0.63875 0.77417 0.73523 0.0
C99 C 0.67732 0.73487 0.26863 0.0
Tb100 Tb 0.07646 -0.00854 0.87451 0.0
C101 C 0.05622 0.8915 0.94257 0.0
Tb102 Tb 0.03544 -0.00794 0.86844 0.0
O103 O 0.07728 0.97993 0.24128 0.0
O104 O 0.05584 0.01345 0.08732 0.0
O105 O 0.07141 0.91291 0.89224 0.0
C106 C 0.00309 -0.00923 1.03853 0.0
O107 O 0.04101 0.91545 0.95511 0.0
C108 C 0.05076 0.98965 0.47431 0.0
C109 C 0.05513 0.08923 0.74879 0.0
O110 O 0.0074 0.97409 0.84096 0.0
O111 O 0.01682 0.00869 0.13799 0.0
O112 O 0.0348 0.00603 0.50356 0.0
O113 O 0.05616 0.97049 0.6541 0.0
O114 O 0.04006 0.06993 0.81921 0.0
O115 O 0.07017 0.06429 0.73742 0.0
C116 C 0.11006 -0.00661 0.74721 0.0
O117 O 0.10167 0.03007 0.83579 0.0
O118 O 0.09974 0.95574 0.734 0.0
C119 C 0.06119 -0.00504 0.26815 0.0
Tb120 Tb 0.66205 -0.00855 1.04963 0.0
C121 C 0.68229 0.89151 0.98164 0.0
Tb122 Tb 0.70309 -0.00793 1.05569 0.0
O123 O 0.66123 0.97993 0.68284 0.0
O124 O 0.68267 0.01343 0.83686 0.0
O125 O 0.6671 0.91292 1.03188 0.0
C126 C 0.73545 -0.0093 0.88591 0.0
O127 O 0.6975 0.91546 0.96912 0.0
C128 C 0.68775 0.98965 0.44981 0.0
C129 C 0.68337 0.08923 0.1754 0.0
O130 O 0.73112 0.97407 1.08349 0.0
O131 O 0.72173 0.00862 0.78628 0.0
O132 O 0.70372 0.00603 0.42061 0.0
O133 O 0.68236 0.97051 0.26997 0.0
O134 O 0.69845 0.06994 0.10491 0.0
O135 O 0.66833 0.06428 0.18677 0.0
C136 C 0.62843 -0.00665 0.17701 0.0
O137 O 0.63681 0.03 0.08794 0.0
O138 O 0.63877 0.95575 0.19067 0.0
C139 C 0.67732 -0.00505 0.656 0.0
Tb140 Tb 0.07644 0.73837 1.05003 0.0
C141 C 0.05622 0.83833 0.98158 0.0
Tb142 Tb 0.03542 0.73779 1.05615 0.0
O143 O 0.07727 0.74993 0.6833 0.0
O144 O 0.05582 0.71639 0.83724 0.0
O145 O 0.07141 0.81691 1.03167 0.0
C146 C 0.00307 0.73906 0.88639 0.0
O147 O 0.04101 0.8144 0.9694 0.0
C148 C 0.05075 0.7402 0.45026 0.0
C149 C 0.05511 0.64061 0.17574 0.0
O150 O 0.00739 0.75574 1.0839 0.0
O151 O 0.0168 0.72116 0.78677 0.0
O152 O 0.03478 0.72382 0.42103 0.0
O153 O 0.05614 0.75936 0.27045 0.0
O154 O 0.04004 0.65992 0.10536 0.0
O155 O 0.07015 0.66554 0.18708 0.0
C156 C 0.11004 0.73645 0.17747 0.0
O157 O 0.10169 0.69986 0.08754 0.0
O158 O 0.09969 0.77401 0.19196 0.0
C159 C 0.06118 0.73489 0.65643 0.0
Tb160 Tb 0.28539 0.74201 0.80598 0.0
C161 C 0.30508 0.8392 0.92551 0.0
Tb162 Tb 0.32643 0.74145 0.79988 0.0
O163 O 0.28472 0.75596 0.17069 0.0
O164 O 0.30614 0.7204 1.02063 0.0
O165 O 0.29001 0.81989 0.85507 0.0
C166 C 0.36004 0.74332 0.92712 0.0
O167 O 0.32012 0.81426 0.93698 0.0
C168 C 0.31112 0.74492 0.40629 0.0
C169 C 0.3062 0.64148 0.7316 0.0
O170 O 0.35164 0.78005 0.83907 0.0
O171 O 0.34972 0.70566 0.93978 0.0
O172 O 0.32722 0.72997 0.43286 0.0
O173 O 0.30581 0.76334 0.58748 0.0
O174 O 0.32139 0.6629 0.78201 0.0
O175 O 0.29099 0.66541 0.71914 0.0
C176 C 0.25304 0.74066 0.63609 0.0
O177 O 0.25736 0.72398 0.83358 0.0
O178 O 0.26676 0.75862 0.53656 0.0
C179 C 0.30068 0.73958 0.20016 0.0
Tb180 Tb 0.95306 0.48773 0.80607 0.0
C181 C 0.93335 0.39058 0.92563 0.0
Tb182 Tb 0.91203 0.48837 0.80001 0.0
O183 O 0.95373 0.47376 0.17076 0.0
O184 O 0.93232 0.50938 1.02076 0.0
O185 O 0.94842 0.40986 0.85508 0.0
C186 C 0.87842 0.48644 0.92711 0.0
O187 O 0.91831 0.41555 0.93717 0.0
C188 C 0.92734 0.48489 0.40643 0.0
C189 C 0.93228 0.58831 0.73202 0.0
O190 O 0.88681 0.44978 0.83835 0.0
O191 O 0.88874 0.52407 0.94054 0.0
O192 O 0.91124 0.49991 0.43305 0.0
O193 O 0.93263 0.46644 0.58755 0.0
O194 O 0.91708 0.56691 0.78231 0.0
O195 O 0.94748 0.56434 0.71945 0.0
C196 C 0.98541 0.48908 0.63612 0.0
O197 O 0.98109 0.50572 0.8337 0.0
O198 O 0.97168 0.47116 0.53654 0.0
C199 C 0.93777 0.49019 0.20026 0.0
Tb200 Tb 0.28545 0.48773 0.61839 0.0
C201 C 0.30517 0.39061 0.49854 0.0
Tb202 Tb 0.32648 0.4884 0.62447 0.0
O203 O 0.28478 0.47378 0.25367 0.0
O204 O 0.30618 0.50941 0.40372 0.0
O205 O 0.2901 0.40987 0.56919 0.0
C206 C 0.3601 0.4865 0.49778 0.0
O207 O 0.32021 0.4156 0.48706 0.0
C208 C 0.31117 0.4849 1.01805 0.0
C209 C 0.30622 0.58832 0.69253 0.0
O210 O 0.35169 0.44977 0.58559 0.0
O211 O 0.3498 0.52418 0.48502 0.0
O212 O 0.32726 0.49991 0.99146 0.0
O213 O 0.30587 0.46646 0.8369 0.0
O214 O 0.32141 0.56694 0.64199 0.0
O215 O 0.29101 0.56434 0.70519 0.0
C216 C 0.25308 0.48906 0.78821 0.0
O217 O 0.25741 0.50573 0.59071 0.0
O218 O 0.26681 0.47112 0.88777 0.0
C219 C 0.30073 0.49021 0.22419 0.0
Tb220 Tb 0.95311 0.74199 0.61857 0.0
C221 C 0.93344 0.83922 0.49931 0.0
Tb222 Tb 0.91208 0.74147 0.62464 0.0
O223 O 0.95378 0.75596 0.25388 0.0
O224 O 0.93237 0.7204 0.40391 0.0
O225 O 0.94851 0.81988 0.56963 0.0
C226 C 0.87849 0.74337 0.49689 0.0
O227 O 0.9184 0.8143 0.48781 0.0
C228 C 0.92739 0.7449 1.01822 0.0
C229 C 0.93229 0.64148 0.69309 0.0
O230 O 0.88684 0.77996 0.5869 0.0
O231 O 0.88884 0.70582 0.48261 0.0
O232 O 0.91129 0.72992 0.9916 0.0
O233 O 0.93269 0.76334 0.83708 0.0
O234 O 0.9171 0.66292 0.64311 0.0
O235 O 0.94751 0.66539 0.7052 0.0
C236 C 0.98545 0.74062 0.78865 0.0
O237 O 0.98114 0.72397 0.59107 0.0
O238 O 0.97172 0.75856 0.88818 0.0
C239 C 0.93782 0.73958 0.2244 0.0
Tb240 Tb 0.66203 0.23837 0.37484 0.0
C241 C 0.68227 0.33834 0.44288 0.0
Tb242 Tb 0.70306 0.23778 0.36871 0.0
O243 O 0.66121 0.24989 0.74161 0.0
O244 O 0.68265 0.21639 0.58761 0.0
O245 O 0.66708 0.31692 0.39262 0.0
C246 C 0.73542 0.23907 0.53844 0.0
O247 O 0.69748 0.31439 0.45538 0.0
C248 C 0.68773 0.24019 0.97461 0.0
C249 C 0.68337 0.14061 0.24895 0.0
O250 O 0.73109 0.25574 0.34093 0.0
O251 O 0.72169 0.22116 0.63807 0.0
O252 O 0.7037 0.22381 1.00382 0.0
O253 O 0.68233 0.25934 0.15442 0.0
O254 O 0.69844 0.15991 0.31941 0.0
O255 O 0.66832 0.16555 0.23765 0.0
C256 C 0.62843 0.23645 0.24756 0.0
O257 O 0.63682 0.19978 0.33622 0.0
O258 O 0.63875 0.27409 0.23425 0.0
C259 C 0.6773 0.23487 0.76845 0.0
Tb260 Tb 0.07644 0.49145 0.37468 0.0
C261 C 0.0562 0.39151 0.44285 0.0
Tb262 Tb 0.0354 0.49205 0.36861 0.0
O263 O 0.07725 0.47993 0.74145 0.0
O264 O 0.05581 0.51343 0.58745 0.0
O265 O 0.07139 0.41292 0.39261 0.0
C266 C 0.00304 0.4907 0.53838 0.0
O267 O 0.04099 0.41545 0.45529 0.0
C268 C 0.05073 0.48964 0.97449 0.0
C269 C 0.0551 0.58923 0.24911 0.0
O270 O 0.00736 0.47406 0.3408 0.0
O271 O 0.01676 0.50862 0.63802 0.0
O272 O 0.03476 0.50602 1.00371 0.0
O273 O 0.05612 0.4705 0.15432 0.0
O274 O 0.04003 0.56993 0.31953 0.0
O275 O 0.07014 0.56428 0.23766 0.0
C276 C 0.11004 0.49336 0.2472 0.0
O277 O 0.10167 0.52999 0.33648 0.0
O278 O 0.0997 0.45576 0.23338 0.0
C279 C 0.06116 0.49495 0.76831 0.0
Tb280 Tb 0.66204 0.49149 0.54979 0.0
C281 C 0.68227 0.39151 0.48175 0.0
Tb282 Tb 0.70307 0.49206 0.5559 0.0
O283 O 0.66122 0.47997 0.18302 0.0
O284 O 0.68266 0.51346 0.33701 0.0
O285 O 0.66708 0.41293 0.53208 0.0
C286 C 0.73543 0.49076 0.38615 0.0
O287 O 0.69748 0.41545 0.46921 0.0
C288 C 0.68774 0.48965 0.95002 0.0
C289 C 0.68338 0.58924 0.67572 0.0
O290 O 0.7311 0.47408 0.58365 0.0
O291 O 0.7217 0.50868 0.28654 0.0
O292 O 0.70371 0.50603 0.92079 0.0
O293 O 0.68234 0.4705 0.77021 0.0
O294 O 0.69845 0.56993 0.60526 0.0
O295 O 0.66834 0.5643 0.68703 0.0
C296 C 0.62844 0.4934 0.67702 0.0
O297 O 0.63683 0.53009 0.5886 0.0
O298 O 0.63876 0.45575 0.69014 0.0
C299 C 0.67731 0.49498 0.15617 0.0
Tb300 Tb 0.07645 0.2384 0.54987 0.0
C301 C 0.0562 0.33834 0.4818 0.0
Tb302 Tb 0.03541 0.23778 0.55597 0.0
O303 O 0.07727 0.24992 0.18309 0.0
O304 O 0.05583 0.21642 0.33711 0.0
O305 O 0.0714 0.31694 0.5321 0.0
C306 C 0.00305 0.23914 0.38622 0.0
O307 O 0.041 0.31439 0.46929 0.0
C308 C 0.05075 0.2402 0.95007 0.0
C309 C 0.05512 0.14061 0.6754 0.0
O310 O 0.00738 0.25577 0.58381 0.0
O311 O 0.01678 0.22122 0.28656 0.0
O312 O 0.03478 0.22381 0.92087 0.0
O313 O 0.05614 0.25935 0.77025 0.0
O314 O 0.04005 0.15991 0.60499 0.0
O315 O 0.07016 0.16557 0.68686 0.0
C316 C 0.11006 0.2365 0.67735 0.0
O317 O 0.10168 0.19984 0.58845 0.0
O318 O 0.09973 0.27412 0.69077 0.0
C319 C 0.06118 0.2349 0.15625 0.0
Tb320 Tb 0.78539 0.242 0.80607 0.0
C321 C 0.80508 0.3392 0.92561 0.0
Tb322 Tb 0.82643 0.24145 0.79998 0.0
O323 O 0.78472 0.25595 0.17079 0.0
O324 O 0.80613 0.22039 1.02072 0.0
O325 O 0.79001 0.31989 0.85518 0.0
C326 C 0.86004 0.24332 0.92724 0.0
O327 O 0.82012 0.31426 0.93707 0.0
C328 C 0.81111 0.24491 0.40641 0.0
C329 C 0.80621 0.14148 0.73153 0.0
O330 O 0.85166 0.27997 0.83812 0.0
O331 O 0.84969 0.20573 0.941 0.0
O332 O 0.82721 0.22993 0.433 0.0
O333 O 0.80581 0.26333 0.58757 0.0
O334 O 0.8214 0.16291 0.78174 0.0
O335 O 0.79099 0.1654 0.71928 0.0
C336 C 0.75304 0.24065 0.63614 0.0
O337 O 0.75736 0.22398 0.83365 0.0
O338 O 0.76677 0.2586 0.53662 0.0
C339 C 0.80068 0.23957 0.20025 0.0
Tb340 Tb 0.45306 0.98773 0.80599 0.0
C341 C 0.43335 0.89058 0.92557 0.0
Tb342 Tb 0.41203 0.98837 0.79991 0.0
O343 O 0.45373 0.97376 0.17068 0.0
O344 O 0.43232 0.00939 1.02067 0.0
O345 O 0.44842 0.90986 0.855 0.0
C346 C 0.37842 0.98644 0.92695 0.0
O347 O 0.41831 0.91555 0.9371 0.0
C348 C 0.42734 0.98489 0.40634 0.0
C349 C 0.43228 0.08831 0.73191 0.0
O350 O 0.38681 0.94977 0.83834 0.0
O351 O 0.38874 0.02408 0.94031 0.0
O352 O 0.41124 -9e-05 0.43296 0.0
O353 O 0.43263 0.96644 0.58746 0.0
O354 O 0.41709 0.06691 0.78222 0.0
O355 O 0.44748 0.06434 0.71935 0.0
C356 C 0.48541 0.98908 0.63606 0.0
O357 O 0.48109 0.00572 0.83363 0.0
O358 O 0.47169 0.97115 0.53647 0.0
C359 C 0.43777 -0.00981 0.20017 0.0
Tb360 Tb 0.78545 0.98773 0.61831 0.0
C361 C 0.80517 0.89061 0.49844 0.0
Tb362 Tb 0.82648 0.9884 0.62438 0.0
O363 O 0.78478 0.97378 0.25359 0.0
O364 O 0.80618 0.0094 0.40364 0.0
O365 O 0.7901 0.90987 0.56911 0.0
C366 C 0.86011 0.98649 0.49775 0.0
O367 O 0.82021 0.91559 0.48697 0.0
C368 C 0.81117 0.9849 1.01796 0.0
C369 C 0.80622 0.08832 0.69244 0.0
O370 O 0.8517 0.94979 0.58578 0.0
O371 O 0.84979 0.02416 0.48469 0.0
O372 O 0.82726 -8e-05 0.99136 0.0
O373 O 0.80588 0.96646 0.83681 0.0
O374 O 0.82141 0.06694 0.64194 0.0
O375 O 0.79102 0.06434 0.70509 0.0
C376 C 0.75308 0.98907 0.78818 0.0
O377 O 0.75741 0.00573 0.59066 0.0
O378 O 0.76681 0.97112 0.88772 0.0
C379 C 0.80074 -0.00979 0.22411 0.0
Tb380 Tb 0.45311 0.24199 0.61864 0.0
C381 C 0.43344 0.33922 0.49937 0.0
Tb382 Tb 0.41208 0.24147 0.62473 0.0
O383 O 0.45378 0.25596 0.25395 0.0
O384 O 0.43237 0.2204 0.40397 0.0
O385 O 0.44851 0.31988 0.56972 0.0
C386 C 0.37848 0.24337 0.49712 0.0
O387 O 0.41839 0.3143 0.48785 0.0
C388 C 0.42739 0.24492 1.01831 0.0
C389 C 0.43229 0.14148 0.693 0.0
O390 O 0.38686 0.28003 0.58608 0.0
O391 O 0.38882 0.20575 0.48377 0.0
O392 O 0.41129 0.22996 0.99171 0.0
O393 O 0.43269 0.26334 0.83716 0.0
O394 O 0.4171 0.16292 0.64283 0.0
O395 O 0.44751 0.16539 0.7053 0.0
C396 C 0.48545 0.24063 0.78868 0.0
O397 O 0.48114 0.22397 0.59111 0.0
O398 O 0.47172 0.25856 0.88822 0.0
C399 C 0.43782 0.23959 0.22447 0.0
Tb400 Tb 0.16203 0.73838 0.37483 0.0
C401 C 0.18227 0.83834 0.44271 0.0
Tb402 Tb 0.20306 0.73778 0.36869 0.0
O403 O 0.1612 0.74988 0.74162 0.0
O404 O 0.18265 0.71639 0.5876 0.0
O405 O 0.16708 0.81693 0.39231 0.0
C406 C 0.23542 0.73908 0.53841 0.0
O407 O 0.19747 0.81439 0.45539 0.0
C408 C 0.18773 0.74019 0.97459 0.0
C409 C 0.18336 0.64061 0.24892 0.0
O410 O 0.23109 0.75575 0.3409 0.0
O411 O 0.22169 0.72116 0.63803 0.0
O412 O 0.20369 0.72381 1.00381 0.0
O413 O 0.18233 0.75935 0.1544 0.0
O414 O 0.19843 0.65991 0.3194 0.0
O415 O 0.16832 0.66555 0.23761 0.0
C416 C 0.12842 0.73646 0.24769 0.0
O417 O 0.13683 0.69973 0.33561 0.0
O418 O 0.13873 0.77414 0.235 0.0
C419 C 0.1773 0.73487 0.76845 0.0
Tb420 Tb 0.57644 -0.00855 0.37467 0.0
C421 C 0.5562 0.8915 0.44269 0.0
Tb422 Tb 0.5354 -0.00795 0.36859 0.0
O423 O 0.57726 0.97995 0.74147 0.0
O424 O 0.55581 0.01343 0.58744 0.0
O425 O 0.57139 0.91291 0.39228 0.0
C426 C 0.50304 -0.0093 0.53833 0.0
O427 O 0.54099 0.91545 0.45531 0.0
C428 C 0.55073 0.98964 0.97448 0.0
C429 C 0.55511 0.08922 0.24908 0.0
O430 O 0.50737 0.97406 0.34077 0.0
O431 O 0.51676 0.00863 0.63798 0.0
O432 O 0.53477 0.00602 1.0037 0.0
O433 O 0.55613 0.97049 0.15429 0.0
O434 O 0.54003 0.06993 0.31953 0.0
O435 O 0.57015 0.06427 0.23762 0.0
C436 C 0.61005 -0.00665 0.24733 0.0
O437 O 0.60166 0.03004 0.33577 0.0
O438 O 0.59973 0.95571 0.23423 0.0
C439 C 0.56117 -0.00505 0.7683 0.0
Tb440 Tb 0.16205 -0.00851 0.54981 0.0
C441 C 0.18227 0.89152 0.48159 0.0
Tb442 Tb 0.20307 -0.00794 0.55591 0.0
O443 O 0.16123 0.97995 0.18306 0.0
O444 O 0.18267 0.01347 0.33702 0.0
O445 O 0.16708 0.91294 0.53174 0.0
C446 C 0.23543 -0.00924 0.38611 0.0
O447 O 0.19748 0.91545 0.46925 0.0
C448 C 0.18775 0.98965 0.95003 0.0
C449 C 0.18338 0.08924 0.67574 0.0
O450 O 0.23111 0.97408 0.58363 0.0
O451 O 0.2217 0.00868 0.28652 0.0
O452 O 0.20371 0.00602 0.9208 0.0
O453 O 0.18235 0.9705 0.77021 0.0
O454 O 0.19845 0.06993 0.60528 0.0
O455 O 0.16834 0.0643 0.68702 0.0
C456 C 0.12844 -0.0066 0.67704 0.0
O457 O 0.13682 0.03003 0.5877 0.0
O458 O 0.13879 0.95581 0.69112 0.0
C459 C 0.17732 -0.00503 0.15619 0.0
Tb460 Tb 0.57645 0.7384 0.54988 0.0
C461 C 0.5562 0.83834 0.48165 0.0
Tb462 Tb 0.53541 0.73778 0.55597 0.0
O463 O 0.57727 0.74995 0.18312 0.0
O464 O 0.55583 0.71642 0.33711 0.0
O465 O 0.5714 0.81694 0.53182 0.0
C466 C 0.50305 0.73913 0.38621 0.0
O467 O 0.54099 0.81439 0.46931 0.0
C468 C 0.55075 0.7402 0.95008 0.0
C469 C 0.55512 0.64061 0.67543 0.0
O470 O 0.50738 0.75576 0.58379 0.0
O471 O 0.51678 0.72122 0.28655 0.0
O472 O 0.53478 0.72382 0.92087 0.0
O473 O 0.55614 0.75935 0.77025 0.0
O474 O 0.54005 0.65991 0.60501 0.0
O475 O 0.57016 0.66557 0.68686 0.0
C476 C 0.61006 0.7365 0.67735 0.0
O477 O 0.60169 0.69989 0.58775 0.0
O478 O 0.5997 0.77407 0.69152 0.0
C479 C 0.56118 0.73491 0.15626 0.0
Tb480 Tb 0.78547 0.7421 0.30522 0.0
C481 C 0.80518 0.83924 0.42482 0.0
Tb482 Tb 0.8265 0.74145 0.2991 0.0
O483 O 0.78481 0.75608 0.66991 0.0
O484 O 0.80621 0.72044 0.51988 0.0
O485 O 0.79011 0.81997 0.3542 0.0
C486 C 0.86011 0.74335 0.42632 0.0
O487 O 0.82022 0.81427 0.43632 0.0
C488 C 0.81119 0.74495 0.90552 0.0
C489 C 0.80624 0.64151 0.23134 0.0
O490 O 0.8517 0.78011 0.33883 0.0
O491 O 0.84981 0.70564 0.4384 0.0
O492 O 0.82729 0.72996 0.9321 0.0
O493 O 0.8059 0.76338 1.08668 0.0
O494 O 0.82143 0.6629 0.28178 0.0
O495 O 0.79103 0.66549 0.21856 0.0
C496 C 0.7531 0.74075 0.13567 0.0
O497 O 0.75744 0.72413 0.33322 0.0
O498 O 0.76682 0.75866 1.03588 0.0
C499 C 0.80076 0.73964 0.69938 0.0
Tb500 Tb 0.45313 0.48782 0.30682 0.0
C501 C 0.43345 0.39062 0.42629 0.0
Tb502 Tb 0.41211 0.48837 0.30076 0.0
O503 O 0.45381 0.47387 0.67153 0.0
O504 O 0.4324 0.50943 0.52151 0.0
O505 O 0.44852 0.40994 0.3559 0.0
C506 C 0.37849 0.48648 0.42774 0.0
O507 O 0.4184 0.41556 0.43782 0.0
C508 C 0.42742 0.48493 0.90719 0.0
C509 C 0.43232 0.58834 0.23229 0.0
O510 O 0.38686 0.44987 0.33816 0.0
O511 O 0.38884 0.52404 0.44218 0.0
O512 O 0.41132 0.49993 0.93382 0.0
O513 O 0.43272 0.46648 0.08832 0.0
O514 O 0.41713 0.56691 0.28247 0.0
O515 O 0.44753 0.56442 0.22008 0.0
C516 C 0.48547 0.48917 0.13653 0.0
O517 O 0.48117 0.50585 0.33409 0.0
O518 O 0.47174 0.47121 1.03718 0.0
C519 C 0.43785 0.49025 0.70102 0.0
Tb520 Tb 0.7854 0.48781 0.11843 0.0
C521 C 0.80508 0.39059 0.99887 0.0
Tb522 Tb 0.82643 0.48833 0.12452 0.0
O523 O 0.78472 0.47384 0.75374 0.0
O524 O 0.80614 0.5094 0.90376 0.0
O525 O 0.79001 0.40992 1.06931 0.0
C526 C 0.86004 0.48643 0.99737 0.0
O527 O 0.82012 0.41553 0.98739 0.0
C528 C 0.81111 0.48489 0.51809 0.0
C529 C 0.80622 0.58833 0.19255 0.0
O530 O 0.85165 0.44975 1.08598 0.0
O531 O 0.84971 0.52406 0.98406 0.0
O532 O 0.82722 0.49985 0.49149 0.0
O533 O 0.80581 0.46646 0.33695 0.0
O534 O 0.82141 0.56689 0.14234 0.0
O535 O 0.791 0.56442 0.205 0.0
C536 C 0.75305 0.48918 0.28844 0.0
O537 O 0.75737 0.50584 0.09089 0.0
O538 O 0.76678 0.47124 0.38797 0.0
C539 C 0.80069 0.49022 0.72426 0.0
Tb540 Tb 0.45307 0.74207 0.11856 0.0
C541 C 0.43335 0.83921 0.99903 0.0
Tb542 Tb 0.41204 0.74141 0.12463 0.0
O543 O 0.45374 0.75603 0.75385 0.0
O544 O 0.43234 0.7204 0.9039 0.0
O545 O 0.44843 0.81994 1.06957 0.0
C546 C 0.37842 0.74331 0.99748 0.0
O547 O 0.41832 0.81423 0.98751 0.0
C548 C 0.42735 0.74489 0.51821 0.0
C549 C 0.4323 0.6415 0.19309 0.0
O550 O 0.38679 0.77992 1.08691 0.0
O551 O 0.38877 0.70573 0.98337 0.0
O552 O 0.41125 0.72986 0.49159 0.0
O553 O 0.43264 0.76335 0.33707 0.0
O554 O 0.4171 0.66287 0.14282 0.0
O555 O 0.4475 0.66547 0.20539 0.0
C556 C 0.48543 0.74075 0.28847 0.0
O557 O 0.4811 0.72409 0.09092 0.0
O558 O 0.4717 0.75868 0.38803 0.0
C559 C 0.43778 0.73959 0.72437 0.0
Tb560 Tb 0.16205 0.23838 0.87501 0.0
C561 C 0.18229 0.33834 0.94297 0.0
Tb562 Tb 0.20309 0.23779 0.86886 0.0
O563 O 0.16123 0.24989 0.2418 0.0
O564 O 0.18268 0.21641 0.08775 0.0
O565 O 0.1671 0.31692 0.89267 0.0
C566 C 0.23547 0.23915 1.03825 0.0
O567 O 0.1975 0.31439 0.95555 0.0
C568 C 0.18776 0.24019 0.47478 0.0
C569 C 0.18339 0.14061 0.74927 0.0
O570 O 0.23113 0.25577 0.84071 0.0
O571 O 0.22175 0.22125 0.13809 0.0
O572 O 0.20373 0.22382 0.50397 0.0
O573 O 0.18236 0.25934 0.65461 0.0
O574 O 0.19846 0.15991 0.81975 0.0
O575 O 0.16835 0.16557 0.73786 0.0
C576 C 0.12844 0.2365 0.74771 0.0
O577 O 0.13683 0.19981 0.83626 0.0
O578 O 0.13877 0.27413 0.73447 0.0
C579 C 0.17733 0.23488 0.26861 0.0
Tb580 Tb 0.57645 0.49146 0.87452 0.0
C581 C 0.55622 0.3915 0.94274 0.0
Tb582 Tb 0.53543 0.49206 0.86845 0.0
O583 O 0.57728 0.4799 0.24126 0.0
O584 O 0.55584 0.51345 0.08733 0.0
O585 O 0.57142 0.41291 0.89259 0.0
C586 C 0.50309 0.49077 1.03858 0.0
O587 O 0.54101 0.41545 0.95508 0.0
C588 C 0.55076 0.48965 0.47432 0.0
C589 C 0.55512 0.58923 0.74882 0.0
O590 O 0.5074 0.4741 0.84099 0.0
O591 O 0.51682 0.50868 0.13804 0.0
O592 O 0.53479 0.50603 0.50357 0.0
O593 O 0.55615 0.47049 0.65412 0.0
O594 O 0.54005 0.56993 0.81922 0.0
O595 O 0.57017 0.56429 0.73745 0.0
C596 C 0.61006 0.49339 0.74721 0.0
O597 O 0.60169 0.53001 0.83669 0.0
O598 O 0.59971 0.45581 0.73305 0.0
C599 C 0.56119 0.49495 0.26814 0.0
Tb600 Tb 0.16204 0.49146 1.04961 0.0
C601 C 0.18229 0.39151 0.98178 0.0
Tb602 Tb 0.20308 0.49207 1.05568 0.0
O603 O 0.16122 0.47995 0.6828 0.0
O604 O 0.18267 0.51343 0.83685 0.0
O605 O 0.1671 0.41292 1.03218 0.0
C606 C 0.23545 0.49069 0.88592 0.0
O607 O 0.1975 0.41546 0.96908 0.0
C608 C 0.18775 0.48966 0.4498 0.0
C609 C 0.18337 0.58923 0.17537 0.0
O610 O 0.23112 0.47407 1.0835 0.0
O611 O 0.22173 0.50863 0.78629 0.0
O612 O 0.20372 0.50603 0.42059 0.0
O613 O 0.18236 0.47051 0.26996 0.0
O614 O 0.19844 0.56995 0.10488 0.0
O615 O 0.16833 0.56428 0.18677 0.0
C616 C 0.12843 0.49335 0.17687 0.0
O617 O 0.13683 0.53006 0.08864 0.0
O618 O 0.13875 0.4557 0.1898 0.0
C619 C 0.17732 0.49496 0.65597 0.0
Tb620 Tb 0.57645 0.23837 1.05002 0.0
C621 C 0.55622 0.33833 0.98175 0.0
Tb622 Tb 0.53542 0.23779 1.05616 0.0
O623 O 0.57727 0.24991 0.68328 0.0
O624 O 0.55583 0.21639 0.83724 0.0
O625 O 0.57141 0.31691 1.03197 0.0
C626 C 0.50307 0.23906 0.8864 0.0
O627 O 0.54101 0.3144 0.96939 0.0
C628 C 0.55075 0.24019 0.45026 0.0
C629 C 0.55511 0.14061 0.17572 0.0
O630 O 0.50739 0.25575 1.08392 0.0
O631 O 0.5168 0.22116 0.78678 0.0
O632 O 0.53478 0.22381 0.42103 0.0
O633 O 0.55615 0.25935 0.27046 0.0
O634 O 0.54004 0.15992 0.10533 0.0
O635 O 0.57015 0.16554 0.18709 0.0
C636 C 0.61005 0.23645 0.17734 0.0
O637 O 0.60167 0.19981 0.08815 0.0
O638 O 0.59971 0.27405 0.1912 0.0
C639 C 0.56118 0.23488 0.65642 0.0
loop_
_geom_bond_atom_site_label_1
_geom_bond_atom_site_label_2
_geom_bond_distance
_geom_bond_site_symmetry_2
_ccdc_geom_bond_type
Tb0 O3 2.453 . S
Tb0 O4 2.596 . S
Tb0 O5 2.374 . S
Tb0 O13 2.343 . S
Tb0 O15 2.353 . S
Tb0 O17 2.427 . S
Tb0 O18 2.513 . S
C1 O5 1.251 . S
C1 O7 1.263 . S
Tb2 O4 2.343 . S
Tb2 O7 2.353 . S
Tb2 O10 2.427 . S
Tb2 O11 2.513 . S
Tb2 O12 2.453 1_554 S
Tb2 O13 2.596 . S
Tb2 O14 2.374 . S
O3 Tb0 2.453 . S
O3 C19 1.245 . S
O4 Tb0 2.596 . S
O4 Tb2 2.343 . S
O4 C19 1.259 . S
O5 Tb0 2.374 . S
O5 C1 1.251 . S
C6 O10 1.275 . S
C6 O11 1.246 . S
O7 C1 1.263 . S
O7 Tb2 2.353 . S
C8 O12 1.245 . S
C8 O13 1.259 1_556 S
C9 O14 1.250 . S
C9 O15 1.263 . S
O10 Tb2 2.427 . S
O10 C6 1.275 . S
O11 Tb2 2.513 . S
O11 C6 1.246 . S
O12 Tb2 2.453 1_556 S
O12 C8 1.245 . S
O13 Tb0 2.343 . S
O13 Tb2 2.596 . S
O13 C8 1.259 1_554 S
O14 Tb2 2.374 . S
O14 C9 1.250 . S
O15 Tb0 2.353 . S
O15 C9 1.263 . S
C16 O17 1.275 1_556 S
C16 O18 1.246 1_556 S
O17 Tb0 2.427 . S
O17 C16 1.275 1_554 S
O18 Tb0 2.513 . S
O18 C16 1.246 1_554 S
C19 O3 1.245 . S
C19 O4 1.259 . S
Tb20 O23 2.453 . S
Tb20 O24 2.595 1_545 S
Tb20 O25 2.374 1_545 S
Tb20 O33 2.343 1_545 S
Tb20 O35 2.353 . S
Tb20 O37 2.427 . S
Tb20 O38 2.513 1_545 S
C21 O25 1.251 . S
C21 O27 1.263 . S
Tb22 O24 2.344 . S
Tb22 O27 2.353 . S
Tb22 O30 2.427 . S
Tb22 O31 2.513 1_565 S
Tb22 O32 2.453 1_554 S
Tb22 O33 2.596 . S
Tb22 O34 2.374 1_565 S
O23 Tb20 2.453 . S
O23 C39 1.245 . S
O24 Tb20 2.595 1_565 S
O24 Tb22 2.344 . S
O24 C39 1.259 1_565 S
O25 Tb20 2.374 1_565 S
O25 C21 1.251 . S
C26 O30 1.275 . S
C26 O31 1.246 1_565 S
O27 C21 1.263 . S
O27 Tb22 2.353 . S
C28 O32 1.245 . S
C28 O33 1.259 1_556 S
C29 O34 1.250 . S
C29 O35 1.263 . S
O30 Tb22 2.427 . S
O30 C26 1.275 . S
O31 Tb22 2.513 1_545 S
O31 C26 1.246 1_545 S
O32 Tb22 2.453 1_556 S
O32 C28 1.245 . S
O33 Tb20 2.343 1_565 S
O33 Tb22 2.596 . S
O33 C28 1.259 1_554 S
O34 Tb22 2.374 1_545 S
O34 C29 1.250 . S
O35 Tb20 2.353 . S
O35 C29 1.263 . S
C36 O37 1.275 1_566 S
C36 O38 1.246 1_556 S
O37 Tb20 2.427 . S
O37 C36 1.275 1_544 S
O38 Tb20 2.513 1_565 S
O38 C36 1.246 1_554 S
C39 O23 1.245 . S
C39 O24 1.259 1_545 S
Tb40 O43 2.453 . S
Tb40 O44 2.595 1_545 S
Tb40 O45 2.374 1_545 S
Tb40 O53 2.343 1_546 S
Tb40 O55 2.353 1_556 S
Tb40 O57 2.427 1_556 S
Tb40 O58 2.513 1_546 S
C41 O45 1.251 . S
C41 O47 1.263 1_556 S
Tb42 O44 2.344 1_554 S
Tb42 O47 2.353 . S
Tb42 O50 2.427 1_554 S
Tb42 O51 2.513 1_564 S
Tb42 O52 2.453 . S
Tb42 O53 2.596 . S
Tb42 O54 2.374 1_565 S
O43 Tb40 2.453 . S
O43 C59 1.245 . S
O44 Tb40 2.595 1_565 S
O44 Tb42 2.344 1_556 S
O44 C59 1.259 1_565 S
O45 Tb40 2.374 1_565 S
O45 C41 1.251 . S
C46 O50 1.275 . S
C46 O51 1.246 1_565 S
O47 C41 1.263 1_554 S
O47 Tb42 2.353 . S
C48 O52 1.245 . S
C48 O53 1.259 . S
C49 O54 1.250 . S
C49 O55 1.263 . S
O50 Tb42 2.427 1_556 S
O50 C46 1.275 . S
O51 Tb42 2.513 1_546 S
O51 C46 1.246 1_545 S
O52 Tb42 2.453 . S
O52 C48 1.245 . S
O53 Tb40 2.343 1_564 S
O53 Tb42 2.596 . S
O53 C48 1.259 . S
O54 Tb42 2.374 1_545 S
O54 C49 1.250 . S
O55 Tb40 2.353 1_554 S
O55 C49 1.263 . S
C56 O57 1.275 1_565 S
C56 O58 1.246 . S
O57 Tb40 2.427 1_554 S
O57 C56 1.275 1_545 S
O58 Tb40 2.513 1_564 S
O58 C56 1.246 . S
C59 O43 1.245 . S
C59 O44 1.259 1_545 S
Tb60 O63 2.453 . S
Tb60 O64 2.596 . S
Tb60 O65 2.374 . S
Tb60 O73 2.343 1_556 S
Tb60 O75 2.353 1_556 S
Tb60 O77 2.427 1_556 S
Tb60 O78 2.513 1_556 S
C61 O65 1.251 . S
C61 O67 1.263 1_556 S
Tb62 O64 2.343 1_554 S
Tb62 O67 2.353 . S
Tb62 O70 2.427 1_554 S
Tb62 O71 2.513 1_554 S
Tb62 O72 2.453 . S
Tb62 O73 2.596 . S
Tb62 O74 2.374 . S
O63 Tb60 2.453 . S
O63 C79 1.245 . S
O64 Tb60 2.596 . S
O64 Tb62 2.343 1_556 S
O64 C79 1.259 . S
O65 Tb60 2.374 . S
O65 C61 1.251 . S
C66 O70 1.275 . S
C66 O71 1.246 . S
O67 C61 1.263 1_554 S
O67 Tb62 2.353 . S
C68 O72 1.245 . S
C68 O73 1.259 . S
C69 O74 1.250 . S
C69 O75 1.263 . S
O70 Tb62 2.427 1_556 S
O70 C66 1.275 . S
O71 Tb62 2.513 1_556 S
O71 C66 1.246 . S
O72 Tb62 2.453 . S
O72 C68 1.245 . S
O73 Tb60 2.343 1_554 S
O73 Tb62 2.596 . S
O73 C68 1.259 . S
O74 Tb62 2.374 . S
O74 C69 1.250 . S
O75 Tb60 2.353 1_554 S
O75 C69 1.263 . S
C76 O77 1.275 . S
C76 O78 1.246 . S
O77 Tb60 2.427 1_554 S
O77 C76 1.275 . S
O78 Tb60 2.513 1_554 S
O78 C76 1.246 . S
C79 O63 1.245 . S
C79 O64 1.259 . S
Tb80 O83 2.453 1_556 S
Tb80 O84 2.596 . S
Tb80 O85 2.374 . S
Tb80 O93 2.343 . S
Tb80 O95 2.353 . S
Tb80 O97 2.427 . S
Tb80 O98 2.513 . S
C81 O85 1.251 . S
C81 O87 1.263 . S
Tb82 O84 2.343 . S
Tb82 O87 2.353 . S
Tb82 O90 2.427 . S
Tb82 O91 2.513 . S
Tb82 O92 2.453 . S
Tb82 O93 2.596 . S
Tb82 O94 2.374 . S
O83 Tb80 2.453 1_554 S
O83 C99 1.245 . S
O84 Tb80 2.596 . S
O84 Tb82 2.343 . S
O84 C99 1.259 1_556 S
O85 Tb80 2.374 . S
O85 C81 1.251 . S
C86 O90 1.275 1_554 S
C86 O91 1.246 1_554 S
O87 C81 1.263 . S
O87 Tb82 2.353 . S
C88 O92 1.245 . S
C88 O93 1.259 . S
C89 O94 1.250 . S
C89 O95 1.263 . S
O90 Tb82 2.427 . S
O90 C86 1.275 1_556 S
O91 Tb82 2.513 . S
O91 C86 1.246 1_556 S
O92 Tb82 2.453 . S
O92 C88 1.245 . S
O93 Tb80 2.343 . S
O93 Tb82 2.596 . S
O93 C88 1.259 . S
O94 Tb82 2.374 . S
O94 C89 1.250 . S
O95 Tb80 2.353 . S
O95 C89 1.263 . S
C96 O97 1.275 . S
C96 O98 1.246 . S
O97 Tb80 2.427 . S
O97 C96 1.275 . S
O98 Tb80 2.513 . S
O98 C96 1.246 . S
C99 O83 1.245 . S
C99 O84 1.259 1_554 S
Tb100 O103 2.453 1_556 S
Tb100 O104 2.596 . S
Tb100 O105 2.374 1_545 S
Tb100 O113 2.344 . S
Tb100 O115 2.353 . S
Tb100 O117 2.427 . S
Tb100 O118 2.513 1_545 S
C101 O105 1.251 . S
C101 O107 1.263 . S
Tb102 O104 2.343 1_565 S
Tb102 O107 2.353 . S
Tb102 O110 2.427 . S
Tb102 O111 2.513 1_565 S
Tb102 O112 2.453 . S
Tb102 O113 2.595 1_565 S
Tb102 O114 2.374 1_565 S
O103 Tb100 2.453 1_554 S
O103 C119 1.245 . S
O104 Tb100 2.596 . S
O104 Tb102 2.343 1_545 S
O104 C119 1.259 1_556 S
O105 Tb100 2.374 1_565 S
O105 C101 1.251 . S
C106 O110 1.275 1_544 S
C106 O111 1.246 1_554 S
O107 C101 1.263 . S
O107 Tb102 2.353 . S
C108 O112 1.245 . S
C108 O113 1.259 1_565 S
C109 O114 1.250 . S
C109 O115 1.263 . S
O110 Tb102 2.427 . S
O110 C106 1.275 1_566 S
O111 Tb102 2.513 1_545 S
O111 C106 1.246 1_556 S
O112 Tb102 2.453 . S
O112 C108 1.245 . S
O113 Tb100 2.344 . S
O113 Tb102 2.595 1_545 S
O113 C108 1.259 1_545 S
O114 Tb102 2.374 1_545 S
O114 C109 1.250 . S
O115 Tb100 2.353 . S
O115 C109 1.263 . S
C116 O117 1.275 . S
C116 O118 1.246 1_545 S
O117 Tb100 2.427 . S
O117 C116 1.275 . S
O118 Tb100 2.513 1_565 S
O118 C116 1.246 1_565 S
C119 O103 1.245 . S
C119 O104 1.259 1_554 S
Tb120 O123 2.453 . S
Tb120 O124 2.596 . S
Tb120 O125 2.374 1_545 S
Tb120 O133 2.344 1_556 S
Tb120 O135 2.353 . S
Tb120 O137 2.427 1_556 S
Tb120 O138 2.513 1_546 S
C121 O125 1.251 . S
C121 O127 1.263 . S
Tb122 O124 2.343 1_564 S
Tb122 O127 2.353 1_554 S
Tb122 O130 2.427 1_554 S
Tb122 O131 2.513 1_564 S
Tb122 O132 2.453 . S
Tb122 O133 2.595 1_565 S
Tb122 O134 2.374 1_565 S
O123 Tb120 2.453 . S
O123 C139 1.245 . S
O124 Tb120 2.596 . S
O124 Tb122 2.343 1_546 S
O124 C139 1.259 . S
O125 Tb120 2.374 1_565 S
O125 C121 1.251 . S
C126 O130 1.275 1_545 S
C126 O131 1.246 . S
O127 C121 1.263 . S
O127 Tb122 2.353 1_556 S
C128 O132 1.245 . S
C128 O133 1.259 1_565 S
C129 O134 1.250 . S
C129 O135 1.263 1_554 S
O130 Tb122 2.427 1_556 S
O130 C126 1.275 1_565 S
O131 Tb122 2.513 1_546 S
O131 C126 1.246 . S
O132 Tb122 2.453 . S
O132 C128 1.245 . S
O133 Tb120 2.344 1_554 S
O133 Tb122 2.595 1_545 S
O133 C128 1.259 1_545 S
O134 Tb122 2.374 1_545 S
O134 C129 1.250 . S
O135 Tb120 2.353 . S
O135 C129 1.263 1_556 S
C136 O137 1.275 . S
C136 O138 1.246 1_545 S
O137 Tb120 2.427 1_554 S
O137 C136 1.275 . S
O138 Tb120 2.513 1_564 S
O138 C136 1.246 1_565 S
C139 O123 1.245 . S
C139 O124 1.259 . S
Tb140 O143 2.453 . S
Tb140 O144 2.596 . S
Tb140 O145 2.374 . S
Tb140 O153 2.343 1_556 S
Tb140 O155 2.353 . S
Tb140 O157 2.427 1_556 S
Tb140 O158 2.513 1_556 S
C141 O145 1.251 . S
C141 O147 1.263 . S
Tb142 O144 2.343 1_554 S
Tb142 O147 2.353 1_554 S
Tb142 O150 2.427 1_554 S
Tb142 O151 2.513 1_554 S
Tb142 O152 2.453 . S
Tb142 O153 2.596 . S
Tb142 O154 2.374 . S
O143 Tb140 2.453 . S
O143 C159 1.245 . S
O144 Tb140 2.596 . S
O144 Tb142 2.343 1_556 S
O144 C159 1.259 . S
O145 Tb140 2.374 . S
O145 C141 1.251 . S
C146 O150 1.275 . S
C146 O151 1.246 . S
O147 C141 1.263 . S
O147 Tb142 2.353 1_556 S
C148 O152 1.245 . S
C148 O153 1.259 . S
C149 O154 1.250 . S
C149 O155 1.263 1_554 S
O150 Tb142 2.427 1_556 S
O150 C146 1.275 . S
O151 Tb142 2.513 1_556 S
O151 C146 1.246 . S
O152 Tb142 2.453 . S
O152 C148 1.245 . S
O153 Tb140 2.343 1_554 S
O153 Tb142 2.596 . S
O153 C148 1.259 . S
O154 Tb142 2.374 . S
O154 C149 1.250 . S
O155 Tb140 2.353 . S
O155 C149 1.263 1_556 S
C156 O157 1.275 . S
C156 O158 1.246 . S
O157 Tb140 2.427 1_554 S
O157 C156 1.275 . S
O158 Tb140 2.513 1_554 S
O158 C156 1.246 . S
C159 O143 1.245 . S
C159 O144 1.259 . S
Tb160 O163 2.453 1_556 S
Tb160 O164 2.596 . S
Tb160 O165 2.374 . S
Tb160 O173 2.343 . S
Tb160 O175 2.353 . S
Tb160 O177 2.427 . S
Tb160 O178 2.513 . S
C161 O165 1.251 . S
C161 O167 1.263 . S
Tb162 O164 2.343 . S
Tb162 O167 2.353 . S
Tb162 O170 2.427 . S
Tb162 O171 2.513 . S
Tb162 O172 2.453 . S
Tb162 O173 2.596 . S
Tb162 O174 2.374 . S
O163 Tb160 2.453 1_554 S
O163 C179 1.245 . S
O164 Tb160 2.596 . S
O164 Tb162 2.343 . S
O164 C179 1.259 1_556 S
O165 Tb160 2.374 . S
O165 C161 1.251 . S
C166 O170 1.275 . S
C166 O171 1.246 . S
O167 C161 1.263 . S
O167 Tb162 2.353 . S
C168 O172 1.245 . S
C168 O173 1.259 . S
C169 O174 1.250 . S
C169 O175 1.263 . S
O170 Tb162 2.427 . S
O170 C166 1.275 . S
O171 Tb162 2.513 . S
O171 C166 1.246 . S
O172 Tb162 2.453 . S
O172 C168 1.245 . S
O173 Tb160 2.343 . S
O173 Tb162 2.596 . S
O173 C168 1.259 . S
O174 Tb162 2.374 . S
O174 C169 1.250 . S
O175 Tb160 2.353 . S
O175 C169 1.263 . S
C176 O177 1.275 . S
C176 O178 1.246 . S
O177 Tb160 2.427 . S
O177 C176 1.275 . S
O178 Tb160 2.513 . S
O178 C176 1.246 . S
C179 O163 1.245 . S
C179 O164 1.259 1_554 S
Tb180 O183 2.453 1_556 S
Tb180 O184 2.596 . S
Tb180 O185 2.374 . S
Tb180 O193 2.343 . S
Tb180 O195 2.353 . S
Tb180 O197 2.427 . S
Tb180 O198 2.513 . S
C181 O185 1.251 . S
C181 O187 1.263 . S
Tb182 O184 2.343 . S
Tb182 O187 2.353 . S
Tb182 O190 2.427 . S
Tb182 O191 2.513 . S
Tb182 O192 2.453 . S
Tb182 O193 2.596 . S
Tb182 O194 2.374 . S
O183 Tb180 2.453 1_554 S
O183 C199 1.245 . S
O184 Tb180 2.596 . S
O184 Tb182 2.343 . S
O184 C199 1.259 1_556 S
O185 Tb180 2.374 . S
O185 C181 1.251 . S
C186 O190 1.275 . S
C186 O191 1.246 . S
O187 C181 1.263 . S
O187 Tb182 2.353 . S
C188 O192 1.245 . S
C188 O193 1.259 . S
C189 O194 1.250 . S
C189 O195 1.263 . S
O190 Tb182 2.427 . S
O190 C186 1.275 . S
O191 Tb182 2.513 . S
O191 C186 1.246 . S
O192 Tb182 2.453 . S
O192 C188 1.245 . S
O193 Tb180 2.343 . S
O193 Tb182 2.596 . S
O193 C188 1.259 . S
O194 Tb182 2.374 . S
O194 C189 1.250 . S
O195 Tb180 2.353 . S
O195 C189 1.263 . S
C196 O197 1.275 . S
C196 O198 1.246 . S
O197 Tb180 2.427 . S
O197 C196 1.275 . S
O198 Tb180 2.513 . S
O198 C196 1.246 . S
C199 O183 1.245 . S
C199 O184 1.259 1_554 S
Tb200 O203 2.453 . S
Tb200 O204 2.596 . S
Tb200 O205 2.374 . S
Tb200 O213 2.343 . S
Tb200 O215 2.353 . S
Tb200 O217 2.427 . S
Tb200 O218 2.513 . S
C201 O205 1.251 . S
C201 O207 1.263 . S
Tb202 O204 2.343 . S
Tb202 O207 2.353 . S
Tb202 O210 2.427 . S
Tb202 O211 2.513 . S
Tb202 O212 2.453 . S
Tb202 O213 2.596 . S
Tb202 O214 2.374 . S
O203 Tb200 2.453 . S
O203 C219 1.245 . S
O204 Tb200 2.596 . S
O204 Tb202 2.343 . S
O204 C219 1.259 . S
O205 Tb200 2.374 . S
O205 C201 1.251 . S
C206 O210 1.275 . S
C206 O211 1.246 . S
O207 C201 1.263 . S
O207 Tb202 2.353 . S
C208 O212 1.245 . S
C208 O213 1.259 . S
C209 O214 1.250 . S
C209 O215 1.263 . S
O210 Tb202 2.427 . S
O210 C206 1.275 . S
O211 Tb202 2.513 . S
O211 C206 1.246 . S
O212 Tb202 2.453 . S
O212 C208 1.245 . S
O213 Tb200 2.343 . S
O213 Tb202 2.596 . S
O213 C208 1.259 . S
O214 Tb202 2.374 . S
O214 C209 1.250 . S
O215 Tb200 2.353 . S
O215 C209 1.263 . S
C216 O217 1.275 . S
C216 O218 1.246 . S
O217 Tb200 2.427 . S
O217 C216 1.275 . S
O218 Tb200 2.513 . S
O218 C216 1.246 . S
C219 O203 1.245 . S
C219 O204 1.259 . S
Tb220 O223 2.453 . S
Tb220 O224 2.596 . S
Tb220 O225 2.374 . S
Tb220 O233 2.343 . S
Tb220 O235 2.353 . S
Tb220 O237 2.427 . S
Tb220 O238 2.513 . S
C221 O225 1.251 . S
C221 O227 1.263 . S
Tb222 O224 2.343 . S
Tb222 O227 2.353 . S
Tb222 O230 2.427 . S
Tb222 O231 2.513 . S
Tb222 O232 2.453 . S
Tb222 O233 2.596 . S
Tb222 O234 2.374 . S
O223 Tb220 2.453 . S
O223 C239 1.245 . S
O224 Tb220 2.596 . S
O224 Tb222 2.343 . S
O224 C239 1.259 . S
O225 Tb220 2.374 . S
O225 C221 1.251 . S
C226 O230 1.275 . S
C226 O231 1.246 . S
O227 C221 1.263 . S
O227 Tb222 2.353 . S
C228 O232 1.245 . S
C228 O233 1.259 . S
C229 O234 1.250 . S
C229 O235 1.263 . S
O230 Tb222 2.427 . S
O230 C226 1.275 . S
O231 Tb222 2.513 . S
O231 C226 1.246 . S
O232 Tb222 2.453 . S
O232 C228 1.245 . S
O233 Tb220 2.343 . S
O233 Tb222 2.596 . S
O233 C228 1.259 . S
O234 Tb222 2.374 . S
O234 C229 1.250 . S
O235 Tb220 2.353 . S
O235 C229 1.263 . S
C236 O237 1.275 . S
C236 O238 1.246 . S
O237 Tb220 2.427 . S
O237 C236 1.275 . S
O238 Tb220 2.513 . S
O238 C236 1.246 . S
C239 O223 1.245 . S
C239 O224 1.259 . S
Tb240 O243 2.453 . S
Tb240 O244 2.596 . S
Tb240 O245 2.374 . S
Tb240 O253 2.343 . S
Tb240 O255 2.353 . S
Tb240 O257 2.427 . S
Tb240 O258 2.513 . S
C241 O245 1.251 . S
C241 O247 1.263 . S
Tb242 O244 2.343 . S
Tb242 O247 2.353 . S
Tb242 O250 2.427 . S
Tb242 O251 2.513 . S
Tb242 O252 2.453 1_554 S
Tb242 O253 2.596 . S
Tb242 O254 2.374 . S
O243 Tb240 2.453 . S
O243 C259 1.245 . S
O244 Tb240 2.596 . S
O244 Tb242 2.343 . S
O244 C259 1.259 . S
O245 Tb240 2.374 . S
O245 C241 1.251 . S
C246 O250 1.275 . S
C246 O251 1.246 . S
O247 C241 1.263 . S
O247 Tb242 2.353 . S
C248 O252 1.245 . S
C248 O253 1.259 1_556 S
C249 O254 1.250 . S
C249 O255 1.263 . S
O250 Tb242 2.427 . S
O250 C246 1.275 . S
O251 Tb242 2.513 . S
O251 C246 1.246 . S
O252 Tb242 2.453 1_556 S
O252 C248 1.245 . S
O253 Tb240 2.343 . S
O253 Tb242 2.596 . S
O253 C248 1.259 1_554 S
O254 Tb242 2.374 . S
O254 C249 1.250 . S
O255 Tb240 2.353 . S
O255 C249 1.263 . S
C256 O257 1.275 . S
C256 O258 1.246 . S
O257 Tb240 2.427 . S
O257 C256 1.275 . S
O258 Tb240 2.513 . S
O258 C256 1.246 . S
C259 O243 1.245 . S
C259 O244 1.259 . S
Tb260 O263 2.453 . S
Tb260 O264 2.596 . S
Tb260 O265 2.374 . S
Tb260 O273 2.343 . S
Tb260 O275 2.353 . S
Tb260 O277 2.427 . S
Tb260 O278 2.513 . S
C261 O265 1.251 . S
C261 O267 1.263 . S
Tb262 O264 2.343 . S
Tb262 O267 2.353 . S
Tb262 O270 2.427 . S
Tb262 O271 2.513 . S
Tb262 O272 2.453 1_554 S
Tb262 O273 2.596 . S
Tb262 O274 2.374 . S
O263 Tb260 2.453 . S
O263 C279 1.245 . S
O264 Tb260 2.596 . S
O264 Tb262 2.343 . S
O264 C279 1.259 . S
O265 Tb260 2.374 . S
O265 C261 1.251 . S
C266 O270 1.275 . S
C266 O271 1.246 . S
O267 C261 1.263 . S
O267 Tb262 2.353 . S
C268 O272 1.245 . S
C268 O273 1.259 1_556 S
C269 O274 1.250 . S
C269 O275 1.263 . S
O270 Tb262 2.427 . S
O270 C266 1.275 . S
O271 Tb262 2.513 . S
O271 C266 1.246 . S
O272 Tb262 2.453 1_556 S
O272 C268 1.245 . S
O273 Tb260 2.343 . S
O273 Tb262 2.596 . S
O273 C268 1.259 1_554 S
O274 Tb262 2.374 . S
O274 C269 1.250 . S
O275 Tb260 2.353 . S
O275 C269 1.263 . S
C276 O277 1.275 . S
C276 O278 1.246 . S
O277 Tb260 2.427 . S
O277 C276 1.275 . S
O278 Tb260 2.513 . S
O278 C276 1.246 . S
C279 O263 1.245 . S
C279 O264 1.259 . S
Tb280 O283 2.453 . S
Tb280 O284 2.596 . S
Tb280 O285 2.374 . S
Tb280 O293 2.343 . S
Tb280 O295 2.353 . S
Tb280 O297 2.427 . S
Tb280 O298 2.513 . S
C281 O285 1.251 . S
C281 O287 1.263 . S
Tb282 O284 2.343 . S
Tb282 O287 2.353 . S
Tb282 O290 2.427 . S
Tb282 O291 2.513 . S
Tb282 O292 2.453 . S
Tb282 O293 2.596 . S
Tb282 O294 2.374 . S
O283 Tb280 2.453 . S
O283 C299 1.245 . S
O284 Tb280 2.596 . S
O284 Tb282 2.343 . S
O284 C299 1.259 . S
O285 Tb280 2.374 . S
O285 C281 1.251 . S
C286 O290 1.275 . S
C286 O291 1.246 . S
O287 C281 1.263 . S
O287 Tb282 2.353 . S
C288 O292 1.245 . S
C288 O293 1.259 . S
C289 O294 1.250 . S
C289 O295 1.263 . S
O290 Tb282 2.427 . S
O290 C286 1.275 . S
O291 Tb282 2.513 . S
O291 C286 1.246 . S
O292 Tb282 2.453 . S
O292 C288 1.245 . S
O293 Tb280 2.343 . S
O293 Tb282 2.596 . S
O293 C288 1.259 . S
O294 Tb282 2.374 . S
O294 C289 1.250 . S
O295 Tb280 2.353 . S
O295 C289 1.263 . S
C296 O297 1.275 . S
C296 O298 1.246 . S
O297 Tb280 2.427 . S
O297 C296 1.275 . S
O298 Tb280 2.513 . S
O298 C296 1.246 . S
C299 O283 1.245 . S
C299 O284 1.259 . S
Tb300 O303 2.453 . S
Tb300 O304 2.596 . S
Tb300 O305 2.374 . S
Tb300 O313 2.343 . S
Tb300 O315 2.353 . S
Tb300 O317 2.427 . S
Tb300 O318 2.513 . S
C301 O305 1.251 . S
C301 O307 1.263 . S
Tb302 O304 2.343 . S
Tb302 O307 2.353 . S
Tb302 O310 2.427 . S
Tb302 O311 2.513 . S
Tb302 O312 2.453 . S
Tb302 O313 2.596 . S
Tb302 O314 2.374 . S
O303 Tb300 2.453 . S
O303 C319 1.245 . S
O304 Tb300 2.596 . S
O304 Tb302 2.343 . S
O304 C319 1.259 . S
O305 Tb300 2.374 . S
O305 C301 1.251 . S
C306 O310 1.275 . S
C306 O311 1.246 . S
O307 C301 1.263 . S
O307 Tb302 2.353 . S
C308 O312 1.245 . S
C308 O313 1.259 . S
C309 O314 1.250 . S
C309 O315 1.263 . S
O310 Tb302 2.427 . S
O310 C306 1.275 . S
O311 Tb302 2.513 . S
O311 C306 1.246 . S
O312 Tb302 2.453 . S
O312 C308 1.245 . S
O313 Tb300 2.343 . S
O313 Tb302 2.596 . S
O313 C308 1.259 . S
O314 Tb302 2.374 . S
O314 C309 1.250 . S
O315 Tb300 2.353 . S
O315 C309 1.263 . S
C316 O317 1.275 . S
C316 O318 1.246 . S
O317 Tb300 2.427 . S
O317 C316 1.275 . S
O318 Tb300 2.513 . S
O318 C316 1.246 . S
C319 O303 1.245 . S
C319 O304 1.259 . S
Tb320 O323 2.453 1_556 S
Tb320 O324 2.596 . S
Tb320 O325 2.374 . S
Tb320 O333 2.343 . S
Tb320 O335 2.353 . S
Tb320 O337 2.427 . S
Tb320 O338 2.513 . S
C321 O325 1.251 . S
C321 O327 1.263 . S
Tb322 O324 2.343 . S
Tb322 O327 2.353 . S
Tb322 O330 2.427 . S
Tb322 O331 2.513 . S
Tb322 O332 2.453 . S
Tb322 O333 2.596 . S
Tb322 O334 2.374 . S
O323 Tb320 2.453 1_554 S
O323 C339 1.245 . S
O324 Tb320 2.596 . S
O324 Tb322 2.343 . S
O324 C339 1.259 1_556 S
O325 Tb320 2.374 . S
O325 C321 1.251 . S
C326 O330 1.275 . S
C326 O331 1.246 . S
O327 C321 1.263 . S
O327 Tb322 2.353 . S
C328 O332 1.245 . S
C328 O333 1.259 . S
C329 O334 1.250 . S
C329 O335 1.263 . S
O330 Tb322 2.427 . S
O330 C326 1.275 . S
O331 Tb322 2.513 . S
O331 C326 1.246 . S
O332 Tb322 2.453 . S
O332 C328 1.245 . S
O333 Tb320 2.343 . S
O333 Tb322 2.596 . S
O333 C328 1.259 . S
O334 Tb322 2.374 . S
O334 C329 1.250 . S
O335 Tb320 2.353 . S
O335 C329 1.263 . S
C336 O337 1.275 . S
C336 O338 1.246 . S
O337 Tb320 2.427 . S
O337 C336 1.275 . S
O338 Tb320 2.513 . S
O338 C336 1.246 . S
C339 O323 1.245 . S
C339 O324 1.259 1_554 S
Tb340 O343 2.453 1_556 S
Tb340 O344 2.595 1_545 S
Tb340 O345 2.374 1_545 S
Tb340 O353 2.343 1_545 S
Tb340 O355 2.353 . S
Tb340 O357 2.427 . S
Tb340 O358 2.513 1_545 S
C341 O345 1.251 . S
C341 O347 1.263 . S
Tb342 O344 2.344 . S
Tb342 O347 2.353 . S
Tb342 O350 2.427 . S
Tb342 O351 2.513 1_565 S
Tb342 O352 2.453 . S
Tb342 O353 2.596 . S
Tb342 O354 2.374 1_565 S
O343 Tb340 2.453 1_554 S
O343 C359 1.245 . S
O344 Tb340 2.595 1_565 S
O344 Tb342 2.344 . S
O344 C359 1.259 1_566 S
O345 Tb340 2.374 1_565 S
O345 C341 1.251 . S
C346 O350 1.275 . S
C346 O351 1.246 1_565 S
O347 C341 1.263 . S
O347 Tb342 2.353 . S
C348 O352 1.245 . S
C348 O353 1.259 . S
C349 O354 1.250 . S
C349 O355 1.263 . S
O350 Tb342 2.427 . S
O350 C346 1.275 . S
O351 Tb342 2.513 1_545 S
O351 C346 1.246 1_545 S
O352 Tb342 2.453 . S
O352 C348 1.245 . S
O353 Tb340 2.343 1_565 S
O353 Tb342 2.596 . S
O353 C348 1.259 . S
O354 Tb342 2.374 1_545 S
O354 C349 1.250 . S
O355 Tb340 2.353 . S
O355 C349 1.263 . S
C356 O357 1.275 1_565 S
C356 O358 1.246 . S
O357 Tb340 2.427 . S
O357 C356 1.275 1_545 S
O358 Tb340 2.513 1_565 S
O358 C356 1.246 . S
C359 O343 1.245 . S
C359 O344 1.259 1_544 S
Tb360 O363 2.453 . S
Tb360 O364 2.595 1_545 S
Tb360 O365 2.374 1_545 S
Tb360 O373 2.343 1_545 S
Tb360 O375 2.353 . S
Tb360 O377 2.427 . S
Tb360 O378 2.513 1_545 S
C361 O365 1.251 . S
C361 O367 1.263 . S
Tb362 O364 2.344 . S
Tb362 O367 2.353 . S
Tb362 O370 2.427 . S
Tb362 O371 2.513 1_565 S
Tb362 O372 2.453 . S
Tb362 O373 2.596 . S
Tb362 O374 2.374 1_565 S
O363 Tb360 2.453 . S
O363 C379 1.245 . S
O364 Tb360 2.595 1_565 S
O364 Tb362 2.344 . S
O364 C379 1.259 1_565 S
O365 Tb360 2.374 1_565 S
O365 C361 1.251 . S
C366 O370 1.275 . S
C366 O371 1.246 1_565 S
O367 C361 1.263 . S
O367 Tb362 2.353 . S
C368 O372 1.245 . S
C368 O373 1.259 . S
C369 O374 1.250 . S
C369 O375 1.263 . S
O370 Tb362 2.427 . S
O370 C366 1.275 . S
O371 Tb362 2.513 1_545 S
O371 C366 1.246 1_545 S
O372 Tb362 2.453 . S
O372 C368 1.245 . S
O373 Tb360 2.343 1_565 S
O373 Tb362 2.596 . S
O373 C368 1.259 . S
O374 Tb362 2.374 1_545 S
O374 C369 1.250 . S
O375 Tb360 2.353 . S
O375 C369 1.263 . S
C376 O377 1.275 1_565 S
C376 O378 1.246 . S
O377 Tb360 2.427 . S
O377 C376 1.275 1_545 S
O378 Tb360 2.513 1_565 S
O378 C376 1.246 . S
C379 O363 1.245 . S
C379 O364 1.259 1_545 S
Tb380 O383 2.453 . S
Tb380 O384 2.596 . S
Tb380 O385 2.374 . S
Tb380 O393 2.343 . S
Tb380 O395 2.353 . S
Tb380 O397 2.427 . S
Tb380 O398 2.513 . S
C381 O385 1.251 . S
C381 O387 1.263 . S
Tb382 O384 2.343 . S
Tb382 O387 2.353 . S
Tb382 O390 2.427 . S
Tb382 O391 2.513 . S
Tb382 O392 2.453 . S
Tb382 O393 2.596 . S
Tb382 O394 2.374 . S
O383 Tb380 2.453 . S
O383 C399 1.245 . S
O384 Tb380 2.596 . S
O384 Tb382 2.343 . S
O384 C399 1.259 . S
O385 Tb380 2.374 . S
O385 C381 1.251 . S
C386 O390 1.275 . S
C386 O391 1.246 . S
O387 C381 1.263 . S
O387 Tb382 2.353 . S
C388 O392 1.245 . S
C388 O393 1.259 . S
C389 O394 1.250 . S
C389 O395 1.263 . S
O390 Tb382 2.427 . S
O390 C386 1.275 . S
O391 Tb382 2.513 . S
O391 C386 1.246 . S
O392 Tb382 2.453 . S
O392 C388 1.245 . S
O393 Tb380 2.343 . S
O393 Tb382 2.596 . S
O393 C388 1.259 . S
O394 Tb382 2.374 . S
O394 C389 1.250 . S
O395 Tb380 2.353 . S
O395 C389 1.263 . S
C396 O397 1.275 . S
C396 O398 1.246 . S
O397 Tb380 2.427 . S
O397 C396 1.275 . S
O398 Tb380 2.513 . S
O398 C396 1.246 . S
C399 O383 1.245 . S
C399 O384 1.259 . S
Tb400 O403 2.453 . S
Tb400 O404 2.596 . S
Tb400 O405 2.374 . S
Tb400 O413 2.343 . S
Tb400 O415 2.353 . S
Tb400 O417 2.427 . S
Tb400 O418 2.513 . S
C401 O405 1.251 . S
C401 O407 1.263 . S
Tb402 O404 2.343 . S
Tb402 O407 2.353 . S
Tb402 O410 2.427 . S
Tb402 O411 2.513 . S
Tb402 O412 2.453 1_554 S
Tb402 O413 2.596 . S
Tb402 O414 2.374 . S
O403 Tb400 2.453 . S
O403 C419 1.245 . S
O404 Tb400 2.596 . S
O404 Tb402 2.343 . S
O404 C419 1.259 . S
O405 Tb400 2.374 . S
O405 C401 1.251 . S
C406 O410 1.275 . S
C406 O411 1.246 . S
O407 C401 1.263 . S
O407 Tb402 2.353 . S
C408 O412 1.245 . S
C408 O413 1.259 1_556 S
C409 O414 1.250 . S
C409 O415 1.263 . S
O410 Tb402 2.427 . S
O410 C406 1.275 . S
O411 Tb402 2.513 . S
O411 C406 1.246 . S
O412 Tb402 2.453 1_556 S
O412 C408 1.245 . S
O413 Tb400 2.343 . S
O413 Tb402 2.596 . S
O413 C408 1.259 1_554 S
O414 Tb402 2.374 . S
O414 C409 1.250 . S
O415 Tb400 2.353 . S
O415 C409 1.263 . S
C416 O417 1.275 . S
C416 O418 1.246 . S
O417 Tb400 2.427 . S
O417 C416 1.275 . S
O418 Tb400 2.513 . S
O418 C416 1.246 . S
C419 O403 1.245 . S
C419 O404 1.259 . S
Tb420 O423 2.453 . S
Tb420 O424 2.596 . S
Tb420 O425 2.374 1_545 S
Tb420 O433 2.344 . S
Tb420 O435 2.353 . S
Tb420 O437 2.427 . S
Tb420 O438 2.513 1_545 S
C421 O425 1.251 . S
C421 O427 1.263 . S
Tb422 O424 2.343 1_565 S
Tb422 O427 2.353 . S
Tb422 O430 2.427 . S
Tb422 O431 2.513 1_565 S
Tb422 O432 2.453 1_554 S
Tb422 O433 2.595 1_565 S
Tb422 O434 2.374 1_565 S
O423 Tb420 2.453 . S
O423 C439 1.245 . S
O424 Tb420 2.596 . S
O424 Tb422 2.343 1_545 S
O424 C439 1.259 . S
O425 Tb420 2.374 1_565 S
O425 C421 1.251 . S
C426 O430 1.275 1_545 S
C426 O431 1.246 . S
O427 C421 1.263 . S
O427 Tb422 2.353 . S
C428 O432 1.245 . S
C428 O433 1.259 1_566 S
C429 O434 1.250 . S
C429 O435 1.263 . S
O430 Tb422 2.427 . S
O430 C426 1.275 1_565 S
O431 Tb422 2.513 1_545 S
O431 C426 1.246 . S
O432 Tb422 2.453 1_556 S
O432 C428 1.245 . S
O433 Tb420 2.344 . S
O433 Tb422 2.595 1_545 S
O433 C428 1.259 1_544 S
O434 Tb422 2.374 1_545 S
O434 C429 1.250 . S
O435 Tb420 2.353 . S
O435 C429 1.263 . S
C436 O437 1.275 . S
C436 O438 1.246 1_545 S
O437 Tb420 2.427 . S
O437 C436 1.275 . S
O438 Tb420 2.513 1_565 S
O438 C436 1.246 1_565 S
C439 O423 1.245 . S
C439 O424 1.259 . S
Tb440 O443 2.453 . S
Tb440 O444 2.596 . S
Tb440 O445 2.374 1_545 S
Tb440 O453 2.344 . S
Tb440 O455 2.353 . S
Tb440 O457 2.427 . S
Tb440 O458 2.513 1_545 S
C441 O445 1.251 . S
C441 O447 1.263 . S
Tb442 O444 2.343 1_565 S
Tb442 O447 2.353 . S
Tb442 O450 2.427 . S
Tb442 O451 2.513 1_565 S
Tb442 O452 2.453 . S
Tb442 O453 2.595 1_565 S
Tb442 O454 2.374 1_565 S
O443 Tb440 2.453 . S
O443 C459 1.245 . S
O444 Tb440 2.596 . S
O444 Tb442 2.343 1_545 S
O444 C459 1.259 . S
O445 Tb440 2.374 1_565 S
O445 C441 1.251 . S
C446 O450 1.275 1_545 S
C446 O451 1.246 . S
O447 C441 1.263 . S
O447 Tb442 2.353 . S
C448 O452 1.245 . S
C448 O453 1.259 1_565 S
C449 O454 1.250 . S
C449 O455 1.263 . S
O450 Tb442 2.427 . S
O450 C446 1.275 1_565 S
O451 Tb442 2.513 1_545 S
O451 C446 1.246 . S
O452 Tb442 2.453 . S
O452 C448 1.245 . S
O453 Tb440 2.344 . S
O453 Tb442 2.595 1_545 S
O453 C448 1.259 1_545 S
O454 Tb442 2.374 1_545 S
O454 C449 1.250 . S
O455 Tb440 2.353 . S
O455 C449 1.263 . S
C456 O457 1.275 . S
C456 O458 1.246 1_545 S
O457 Tb440 2.427 . S
O457 C456 1.275 . S
O458 Tb440 2.513 1_565 S
O458 C456 1.246 1_565 S
C459 O443 1.245 . S
C459 O444 1.259 . S
Tb460 O463 2.453 . S
Tb460 O464 2.596 . S
Tb460 O465 2.374 . S
Tb460 O473 2.343 . S
Tb460 O475 2.353 . S
Tb460 O477 2.427 . S
Tb460 O478 2.513 . S
C461 O465 1.251 . S
C461 O467 1.263 . S
Tb462 O464 2.343 . S
Tb462 O467 2.353 . S
Tb462 O470 2.427 . S
Tb462 O471 2.513 . S
Tb462 O472 2.453 . S
Tb462 O473 2.596 . S
Tb462 O474 2.374 . S
O463 Tb460 2.453 . S
O463 C479 1.245 . S
O464 Tb460 2.596 . S
O464 Tb462 2.343 . S
O464 C479 1.259 . S
O465 Tb460 2.374 . S
O465 C461 1.251 . S
C466 O470 1.275 . S
C466 O471 1.246 . S
O467 C461 1.263 . S
O467 Tb462 2.353 . S
C468 O472 1.245 . S
C468 O473 1.259 . S
C469 O474 1.250 . S
C469 O475 1.263 . S
O470 Tb462 2.427 . S
O470 C466 1.275 . S
O471 Tb462 2.513 . S
O471 C466 1.246 . S
O472 Tb462 2.453 . S
O472 C468 1.245 . S
O473 Tb460 2.343 . S
O473 Tb462 2.596 . S
O473 C468 1.259 . S
O474 Tb462 2.374 . S
O474 C469 1.250 . S
O475 Tb460 2.353 . S
O475 C469 1.263 . S
C476 O477 1.275 . S
C476 O478 1.246 . S
O477 Tb460 2.427 . S
O477 C476 1.275 . S
O478 Tb460 2.513 . S
O478 C476 1.246 . S
C479 O463 1.245 . S
C479 O464 1.259 . S
Tb480 O483 2.453 . S
Tb480 O484 2.596 . S
Tb480 O485 2.374 . S
Tb480 O493 2.343 . S
Tb480 O495 2.353 . S
Tb480 O497 2.427 . S
Tb480 O498 2.513 . S
C481 O485 1.251 . S
C481 O487 1.263 . S
Tb482 O484 2.343 . S
Tb482 O487 2.353 . S
Tb482 O490 2.427 . S
Tb482 O491 2.513 . S
Tb482 O492 2.453 1_554 S
Tb482 O493 2.596 . S
Tb482 O494 2.374 . S
O483 Tb480 2.453 . S
O483 C499 1.245 . S
O484 Tb480 2.596 . S
O484 Tb482 2.343 . S
O484 C499 1.259 . S
O485 Tb480 2.374 . S
O485 C481 1.251 . S
C486 O490 1.275 . S
C486 O491 1.246 . S
O487 C481 1.263 . S
O487 Tb482 2.353 . S
C488 O492 1.245 . S
C488 O493 1.259 1_556 S
C489 O494 1.250 . S
C489 O495 1.263 . S
O490 Tb482 2.427 . S
O490 C486 1.275 . S
O491 Tb482 2.513 . S
O491 C486 1.246 . S
O492 Tb482 2.453 1_556 S
O492 C488 1.245 . S
O493 Tb480 2.343 . S
O493 Tb482 2.596 . S
O493 C488 1.259 1_554 S
O494 Tb482 2.374 . S
O494 C489 1.250 . S
O495 Tb480 2.353 . S
O495 C489 1.263 . S
C496 O497 1.275 1_556 S
C496 O498 1.246 1_556 S
O497 Tb480 2.427 . S
O497 C496 1.275 1_554 S
O498 Tb480 2.513 . S
O498 C496 1.246 1_554 S
C499 O483 1.245 . S
C499 O484 1.259 . S
Tb500 O503 2.453 . S
Tb500 O504 2.596 . S
Tb500 O505 2.374 . S
Tb500 O513 2.343 . S
Tb500 O515 2.353 . S
Tb500 O517 2.427 . S
Tb500 O518 2.513 . S
C501 O505 1.251 . S
C501 O507 1.263 . S
Tb502 O504 2.343 . S
Tb502 O507 2.353 . S
Tb502 O510 2.427 . S
Tb502 O511 2.513 . S
Tb502 O512 2.453 1_554 S
Tb502 O513 2.596 . S
Tb502 O514 2.374 . S
O503 Tb500 2.453 . S
O503 C519 1.245 . S
O504 Tb500 2.596 . S
O504 Tb502 2.343 . S
O504 C519 1.259 . S
O505 Tb500 2.374 . S
O505 C501 1.251 . S
C506 O510 1.275 . S
C506 O511 1.246 . S
O507 C501 1.263 . S
O507 Tb502 2.353 . S
C508 O512 1.245 . S
C508 O513 1.259 1_556 S
C509 O514 1.250 . S
C509 O515 1.263 . S
O510 Tb502 2.427 . S
O510 C506 1.275 . S
O511 Tb502 2.513 . S
O511 C506 1.246 . S
O512 Tb502 2.453 1_556 S
O512 C508 1.245 . S
O513 Tb500 2.343 . S
O513 Tb502 2.596 . S
O513 C508 1.259 1_554 S
O514 Tb502 2.374 . S
O514 C509 1.250 . S
O515 Tb500 2.353 . S
O515 C509 1.263 . S
C516 O517 1.275 1_556 S
C516 O518 1.246 1_556 S
O517 Tb500 2.427 . S
O517 C516 1.275 1_554 S
O518 Tb500 2.513 . S
O518 C516 1.246 1_554 S
C519 O503 1.245 . S
C519 O504 1.259 . S
Tb520 O523 2.453 . S
Tb520 O524 2.596 . S
Tb520 O525 2.374 . S
Tb520 O533 2.343 1_556 S
Tb520 O535 2.353 1_556 S
Tb520 O537 2.427 1_556 S
Tb520 O538 2.513 1_556 S
C521 O525 1.251 . S
C521 O527 1.263 1_556 S
Tb522 O524 2.343 1_554 S
Tb522 O527 2.353 . S
Tb522 O530 2.427 1_554 S
Tb522 O531 2.513 1_554 S
Tb522 O532 2.453 . S
Tb522 O533 2.596 . S
Tb522 O534 2.374 . S
O523 Tb520 2.453 . S
O523 C539 1.245 . S
O524 Tb520 2.596 . S
O524 Tb522 2.343 1_556 S
O524 C539 1.259 . S
O525 Tb520 2.374 . S
O525 C521 1.251 . S
C526 O530 1.275 . S
C526 O531 1.246 . S
O527 C521 1.263 1_554 S
O527 Tb522 2.353 . S
C528 O532 1.245 . S
C528 O533 1.259 . S
C529 O534 1.250 . S
C529 O535 1.263 . S
O530 Tb522 2.427 1_556 S
O530 C526 1.275 . S
O531 Tb522 2.513 1_556 S
O531 C526 1.246 . S
O532 Tb522 2.453 . S
O532 C528 1.245 . S
O533 Tb520 2.343 1_554 S
O533 Tb522 2.596 . S
O533 C528 1.259 . S
O534 Tb522 2.374 . S
O534 C529 1.250 . S
O535 Tb520 2.353 1_554 S
O535 C529 1.263 . S
C536 O537 1.275 . S
C536 O538 1.246 . S
O537 Tb520 2.427 1_554 S
O537 C536 1.275 . S
O538 Tb520 2.513 1_554 S
O538 C536 1.246 . S
C539 O523 1.245 . S
C539 O524 1.259 . S
Tb540 O543 2.453 . S
Tb540 O544 2.596 . S
Tb540 O545 2.374 . S
Tb540 O553 2.343 1_556 S
Tb540 O555 2.353 1_556 S
Tb540 O557 2.427 1_556 S
Tb540 O558 2.513 1_556 S
C541 O545 1.251 . S
C541 O547 1.263 1_556 S
Tb542 O544 2.343 1_554 S
Tb542 O547 2.353 . S
Tb542 O550 2.427 1_554 S
Tb542 O551 2.513 1_554 S
Tb542 O552 2.453 . S
Tb542 O553 2.596 . S
Tb542 O554 2.374 . S
O543 Tb540 2.453 . S
O543 C559 1.245 . S
O544 Tb540 2.596 . S
O544 Tb542 2.343 1_556 S
O544 C559 1.259 . S
O545 Tb540 2.374 . S
O545 C541 1.251 . S
C546 O550 1.275 . S
C546 O551 1.246 . S
O547 C541 1.263 1_554 S
O547 Tb542 2.353 . S
C548 O552 1.245 . S
C548 O553 1.259 . S
C549 O554 1.250 . S
C549 O555 1.263 . S
O550 Tb542 2.427 1_556 S
O550 C546 1.275 . S
O551 Tb542 2.513 1_556 S
O551 C546 1.246 . S
O552 Tb542 2.453 . S
O552 C548 1.245 . S
O553 Tb540 2.343 1_554 S
O553 Tb542 2.596 . S
O553 C548 1.259 . S
O554 Tb542 2.374 . S
O554 C549 1.250 . S
O555 Tb540 2.353 1_554 S
O555 C549 1.263 . S
C556 O557 1.275 . S
C556 O558 1.246 . S
O557 Tb540 2.427 1_554 S
O557 C556 1.275 . S
O558 Tb540 2.513 1_554 S
O558 C556 1.246 . S
C559 O543 1.245 . S
C559 O544 1.259 . S
Tb560 O563 2.453 1_556 S
Tb560 O564 2.596 . S
Tb560 O565 2.374 . S
Tb560 O573 2.343 . S
Tb560 O575 2.353 . S
Tb560 O577 2.427 . S
Tb560 O578 2.513 . S
C561 O565 1.251 . S
C561 O567 1.263 . S
Tb562 O564 2.343 . S
Tb562 O567 2.353 . S
Tb562 O570 2.427 . S
Tb562 O571 2.513 . S
Tb562 O572 2.453 . S
Tb562 O573 2.596 . S
Tb562 O574 2.374 . S
O563 Tb560 2.453 1_554 S
O563 C579 1.245 . S
O564 Tb560 2.596 . S
O564 Tb562 2.343 . S
O564 C579 1.259 1_556 S
O565 Tb560 2.374 . S
O565 C561 1.251 . S
C566 O570 1.275 1_554 S
C566 O571 1.246 1_554 S
O567 C561 1.263 . S
O567 Tb562 2.353 . S
C568 O572 1.245 . S
C568 O573 1.259 . S
C569 O574 1.250 . S
C569 O575 1.263 . S
O570 Tb562 2.427 . S
O570 C566 1.275 1_556 S
O571 Tb562 2.513 . S
O571 C566 1.246 1_556 S
O572 Tb562 2.453 . S
O572 C568 1.245 . S
O573 Tb560 2.343 . S
O573 Tb562 2.596 . S
O573 C568 1.259 . S
O574 Tb562 2.374 . S
O574 C569 1.250 . S
O575 Tb560 2.353 . S
O575 C569 1.263 . S
C576 O577 1.275 . S
C576 O578 1.246 . S
O577 Tb560 2.427 . S
O577 C576 1.275 . S
O578 Tb560 2.513 . S
O578 C576 1.246 . S
C579 O563 1.245 . S
C579 O564 1.259 1_554 S
Tb580 O583 2.453 1_556 S
Tb580 O584 2.596 . S
Tb580 O585 2.374 . S
Tb580 O593 2.343 . S
Tb580 O595 2.353 . S
Tb580 O597 2.427 . S
Tb580 O598 2.513 . S
C581 O585 1.251 . S
C581 O587 1.263 . S
Tb582 O584 2.343 . S
Tb582 O587 2.353 . S
Tb582 O590 2.427 . S
Tb582 O591 2.513 . S
Tb582 O592 2.453 . S
Tb582 O593 2.596 . S
Tb582 O594 2.374 . S
O583 Tb580 2.453 1_554 S
O583 C599 1.245 . S
O584 Tb580 2.596 . S
O584 Tb582 2.343 . S
O584 C599 1.259 1_556 S
O585 Tb580 2.374 . S
O585 C581 1.251 . S
C586 O590 1.275 1_554 S
C586 O591 1.246 1_554 S
O587 C581 1.263 . S
O587 Tb582 2.353 . S
C588 O592 1.245 . S
C588 O593 1.259 . S
C589 O594 1.250 . S
C589 O595 1.263 . S
O590 Tb582 2.427 . S
O590 C586 1.275 1_556 S
O591 Tb582 2.513 . S
O591 C586 1.246 1_556 S
O592 Tb582 2.453 . S
O592 C588 1.245 . S
O593 Tb580 2.343 . S
O593 Tb582 2.596 . S
O593 C588 1.259 . S
O594 Tb582 2.374 . S
O594 C589 1.250 . S
O595 Tb580 2.353 . S
O595 C589 1.263 . S
C596 O597 1.275 . S
C596 O598 1.246 . S
O597 Tb580 2.427 . S
O597 C596 1.275 . S
O598 Tb580 2.513 . S
O598 C596 1.246 . S
C599 O583 1.245 . S
C599 O584 1.259 1_554 S
Tb600 O603 2.453 . S
Tb600 O604 2.596 . S
Tb600 O605 2.374 . S
Tb600 O613 2.343 1_556 S
Tb600 O615 2.353 . S
Tb600 O617 2.427 1_556 S
Tb600 O618 2.513 1_556 S
C601 O605 1.251 . S
C601 O607 1.263 . S
Tb602 O604 2.343 1_554 S
Tb602 O607 2.353 1_554 S
Tb602 O610 2.427 1_554 S
Tb602 O611 2.513 1_554 S
Tb602 O612 2.453 . S
Tb602 O613 2.596 . S
Tb602 O614 2.374 . S
O603 Tb600 2.453 . S
O603 C619 1.245 . S
O604 Tb600 2.596 . S
O604 Tb602 2.343 1_556 S
O604 C619 1.259 . S
O605 Tb600 2.374 . S
O605 C601 1.251 . S
C606 O610 1.275 . S
C606 O611 1.246 . S
O607 C601 1.263 . S
O607 Tb602 2.353 1_556 S
C608 O612 1.245 . S
C608 O613 1.259 . S
C609 O614 1.250 . S
C609 O615 1.263 1_554 S
O610 Tb602 2.427 1_556 S
O610 C606 1.275 . S
O611 Tb602 2.513 1_556 S
O611 C606 1.246 . S
O612 Tb602 2.453 . S
O612 C608 1.245 . S
O613 Tb600 2.343 1_554 S
O613 Tb602 2.596 . S
O613 C608 1.259 . S
O614 Tb602 2.374 . S
O614 C609 1.250 . S
O615 Tb600 2.353 . S
O615 C609 1.263 1_556 S
C616 O617 1.275 . S
C616 O618 1.246 . S
O617 Tb600 2.427 1_554 S
O617 C616 1.275 . S
O618 Tb600 2.513 1_554 S
O618 C616 1.246 . S
C619 O603 1.245 . S
C619 O604 1.259 . S
Tb620 O623 2.453 . S
Tb620 O624 2.596 . S
Tb620 O625 2.374 . S
Tb620 O633 2.343 1_556 S
Tb620 O635 2.353 . S
Tb620 O637 2.427 1_556 S
Tb620 O638 2.513 1_556 S
C621 O625 1.251 . S
C621 O627 1.263 . S
Tb622 O624 2.343 1_554 S
Tb622 O627 2.353 1_554 S
Tb622 O630 2.427 1_554 S
Tb622 O631 2.513 1_554 S
Tb622 O632 2.453 . S
Tb622 O633 2.596 . S
Tb622 O634 2.374 . S
O623 Tb620 2.453 . S
O623 C639 1.245 . S
O624 Tb620 2.596 . S
O624 Tb622 2.343 1_556 S
O624 C639 1.259 . S
O625 Tb620 2.374 . S
O625 C621 1.251 . S
C626 O630 1.275 . S
C626 O631 1.246 . S
O627 C621 1.263 . S
O627 Tb622 2.353 1_556 S
C628 O632 1.245 . S
C628 O633 1.259 . S
C629 O634 1.250 . S
C629 O635 1.263 1_554 S
O630 Tb622 2.427 1_556 S
O630 C626 1.275 . S
O631 Tb622 2.513 1_556 S
O631 C626 1.246 . S
O632 Tb622 2.453 . S
O632 C628 1.245 . S
O633 Tb620 2.343 1_554 S
O633 Tb622 2.596 . S
O633 C628 1.259 . S
O634 Tb622 2.374 . S
O634 C629 1.250 . S
O635 Tb620 2.353 . S
O635 C629 1.263 1_556 S
C636 O637 1.275 . S
C636 O638 1.246 . S
O637 Tb620 2.427 1_554 S
O637 C636 1.275 . S
O638 Tb620 2.513 1_554 S
O638 C636 1.246 . S
C639 O623 1.245 . S
C639 O624 1.259 . S
C566 C16 1.510 1_554 S
C106 C36 1.510 1_444 S
C446 C56 1.510 1_545 S
C306 C76 1.510 1_455 S
C86 C496 1.510 1_554 S
C376 C126 1.510 1_565 S
C236 C146 1.510 1_655 S
C406 C176 1.510 . S
C196 C266 1.510 1_655 S
C216 C606 1.510 . S
C336 C246 1.510 . S
C286 C536 1.510 . S
C356 C426 1.510 1_565 S
C396 C626 1.510 . S
C556 C466 1.510 . S
C586 C516 1.510 1_554 S
C386 C6 1.969 . S
C366 C26 1.969 . S
C346 C46 1.969 . S
C326 C66 1.969 . S
C476 C96 1.969 . S
C116 C456 1.969 . S
C136 C436 1.969 . S
C156 C416 1.969 . S
C166 C546 1.969 . S
C186 C526 1.969 . S
C206 C506 1.969 . S
C486 C226 1.969 . S
C256 C636 1.969 . S
C276 C616 1.969 . S
C296 C596 1.969 . S
C576 C316 1.969 . S
C19 C8 1.874 . S
C39 C28 1.874 1_545 S
C48 C59 1.874 1_565 S
C68 C79 1.874 . S
C99 C88 1.874 . S
C119 C108 1.874 1_545 S
C139 C128 1.874 1_545 S
C148 C159 1.874 . S
C179 C168 1.874 . S
C188 C199 1.874 . S
C208 C219 1.874 1_556 S
C228 C239 1.874 1_556 S
C259 C248 1.874 . S
C268 C279 1.874 . S
C299 C288 1.874 1_554 S
C308 C319 1.874 1_556 S
C339 C328 1.874 . S
C348 C359 1.874 1_565 S
C368 C379 1.874 1_566 S
C388 C399 1.874 1_556 S
C408 C419 1.874 . S
C439 C428 1.874 1_545 S
C448 C459 1.874 1_566 S
C468 C479 1.874 1_556 S
C499 C488 1.874 . S
C508 C519 1.874 . S
C528 C539 1.874 . S
C559 C548 1.874 . S
C579 C568 1.874 . S
C588 C599 1.874 . S
C608 C619 1.874 . S
C628 C639 1.874 . S
C201 C1 1.616 . S
C221 C21 1.616 . S
C41 C161 1.616 . S
C181 C61 1.617 . S
C89 C289 1.616 . S
C109 C309 1.616 . S
C129 C249 1.616 . S
C149 C269 1.617 . S
C521 C321 1.616 . S
C341 C541 1.617 . S
C481 C361 1.616 . S
C381 C501 1.617 . S
C609 C409 1.616 . S
C429 C629 1.617 . S
C449 C569 1.616 . S
C589 C469 1.617 . S
C9 C49 1.468 . S
C69 C29 1.468 . S
C121 C81 1.468 . S
C101 C141 1.468 . S
C169 C209 1.468 . S
C229 C189 1.468 . S
C281 C241 1.468 . S
C301 C261 1.468 . S
C369 C329 1.467 . S
C389 C349 1.468 . S
C441 C401 1.467 . S
C461 C421 1.468 . S
C489 C529 1.468 . S
C509 C549 1.468 . S
C561 C601 1.468 . S
C621 C581 1.468 . S
