# Generated by pormake.
# Topology lcs, (4)-cn, num edge types: 1
# Building blocks:
#     Node 0, Type 0, BuildingBlock: GALJAG_clean_sbu_0, # of connection points: 4
#     Node 1, Type 0, BuildingBlock: GALJAG_clean_sbu_0, # of connection points: 4
#     Node 2, Type 0, BuildingBlock: GALJAG_clean_sbu_0, # of connection points: 4
#     Node 3, Type 0, BuildingBlock: GALJAG_clean_sbu_0, # of connection points: 4
#     Node 4, Type 0, BuildingBlock: GALJAG_clean_sbu_0, # of connection points: 4
#     Node 5, Type 0, BuildingBlock: GALJAG_clean_sbu_0, # of connection points: 4
#     Node 6, Type 0, BuildingBlock: GALJAG_clean_sbu_0, # of connection points: 4
#     Node 7, Type 0, BuildingBlock: GALJAG_clean_sbu_0, # of connection points: 4
#     Node 8, Type 0, BuildingBlock: GALJAG_clean_sbu_0, # of connection points: 4
#     Node 9, Type 0, BuildingBlock: GALJAG_clean_sbu_0, # of connection points: 4
#     Node 10, Type 0, BuildingBlock: GALJAG_clean_sbu_0, # of connection points: 4
#     Node 11, Type 0, BuildingBlock: GALJAG_clean_sbu_0, # of connection points: 4
#     Node 12, Type 0, BuildingBlock: GALJAG_clean_sbu_0, # of connection points: 4
#     Node 13, Type 0, BuildingBlock: GALJAG_clean_sbu_0, # of connection points: 4
#     Node 14, Type 0, BuildingBlock: GALJAG_clean_sbu_0, # of connection points: 4
#     Node 15, Type 0, BuildingBlock: GALJAG_clean_sbu_0, # of connection points: 4
#     Node 16, Type 0, BuildingBlock: GALJAG_clean_sbu_0, # of connection points: 4
#     Node 17, Type 0, BuildingBlock: GALJAG_clean_sbu_0, # of connection points: 4
#     Node 18, Type 0, BuildingBlock: GALJAG_clean_sbu_0, # of connection points: 4
#     Node 19, Type 0, BuildingBlock: GALJAG_clean_sbu_0, # of connection points: 4
#     Node 20, Type 0, BuildingBlock: GALJAG_clean_sbu_0, # of connection points: 4
#     Node 21, Type 0, BuildingBlock: GALJAG_clean_sbu_0, # of connection points: 4
#     Node 22, Type 0, BuildingBlock: GALJAG_clean_sbu_0, # of connection points: 4
#     Node 23, Type 0, BuildingBlock: GALJAG_clean_sbu_0, # of connection points: 4
#     Edge 24, Type (0, 0), BuildingBlock: AJUNOK_clean_linker_0, # of connection points: 2
#     Edge 25, Type (0, 0), BuildingBlock: AJUNOK_clean_linker_0, # of connection points: 2
#     Edge 26, Type (0, 0), BuildingBlock: AJUNOK_clean_linker_0, # of connection points: 2
#     Edge 27, Type (0, 0), BuildingBlock: AJUNOK_clean_linker_0, # of connection points: 2
#     Edge 28, Type (0, 0), BuildingBlock: AJUNOK_clean_linker_0, # of connection points: 2
#     Edge 29, Type (0, 0), BuildingBlock: AJUNOK_clean_linker_0, # of connection points: 2
#     Edge 30, Type (0, 0), BuildingBlock: AJUNOK_clean_linker_0, # of connection points: 2
#     Edge 31, Type (0, 0), BuildingBlock: AJUNOK_clean_linker_0, # of connection points: 2
#     Edge 32, Type (0, 0), BuildingBlock: AJUNOK_clean_linker_0, # of connection points: 2
#     Edge 33, Type (0, 0), BuildingBlock: AJUNOK_clean_linker_0, # of connection points: 2
#     Edge 34, Type (0, 0), BuildingBlock: AJUNOK_clean_linker_0, # of connection points: 2
#     Edge 35, Type (0, 0), BuildingBlock: AJUNOK_clean_linker_0, # of connection points: 2
#     Edge 36, Type (0, 0), BuildingBlock: AJUNOK_clean_linker_0, # of connection points: 2
#     Edge 37, Type (0, 0), BuildingBlock: AJUNOK_clean_linker_0, # of connection points: 2
#     Edge 38, Type (0, 0), BuildingBlock: AJUNOK_clean_linker_0, # of connection points: 2
#     Edge 39, Type (0, 0), BuildingBlock: AJUNOK_clean_linker_0, # of connection points: 2
#     Edge 40, Type (0, 0), BuildingBlock: AJUNOK_clean_linker_0, # of connection points: 2
#     Edge 41, Type (0, 0), BuildingBlock: AJUNOK_clean_linker_0, # of connection points: 2
#     Edge 42, Type (0, 0), BuildingBlock: AJUNOK_clean_linker_0, # of connection points: 2
#     Edge 43, Type (0, 0), BuildingBlock: AJUNOK_clean_linker_0, # of connection points: 2
#     Edge 44, Type (0, 0), BuildingBlock: AJUNOK_clean_linker_0, # of connection points: 2
#     Edge 45, Type (0, 0), BuildingBlock: AJUNOK_clean_linker_0, # of connection points: 2
#     Edge 46, Type (0, 0), BuildingBlock: AJUNOK_clean_linker_0, # of connection points: 2
#     Edge 47, Type (0, 0), BuildingBlock: AJUNOK_clean_linker_0, # of connection points: 2
#     Edge 48, Type (0, 0), BuildingBlock: AJUNOK_clean_linker_0, # of connection points: 2
#     Edge 49, Type (0, 0), BuildingBlock: AJUNOK_clean_linker_0, # of connection points: 2
#     Edge 50, Type (0, 0), BuildingBlock: AJUNOK_clean_linker_0, # of connection points: 2
#     Edge 51, Type (0, 0), BuildingBlock: AJUNOK_clean_linker_0, # of connection points: 2
#     Edge 52, Type (0, 0), BuildingBlock: AJUNOK_clean_linker_0, # of connection points: 2
#     Edge 53, Type (0, 0), BuildingBlock: AJUNOK_clean_linker_0, # of connection points: 2
#     Edge 54, Type (0, 0), BuildingBlock: AJUNOK_clean_linker_0, # of connection points: 2
#     Edge 55, Type (0, 0), BuildingBlock: AJUNOK_clean_linker_0, # of connection points: 2
#     Edge 56, Type (0, 0), BuildingBlock: AJUNOK_clean_linker_0, # of connection points: 2
#     Edge 57, Type (0, 0), BuildingBlock: AJUNOK_clean_linker_0, # of connection points: 2
#     Edge 58, Type (0, 0), BuildingBlock: AJUNOK_clean_linker_0, # of connection points: 2
#     Edge 59, Type (0, 0), BuildingBlock: AJUNOK_clean_linker_0, # of connection points: 2
#     Edge 60, Type (0, 0), BuildingBlock: AJUNOK_clean_linker_0, # of connection points: 2
#     Edge 61, Type (0, 0), BuildingBlock: AJUNOK_clean_linker_0, # of connection points: 2
#     Edge 62, Type (0, 0), BuildingBlock: AJUNOK_clean_linker_0, # of connection points: 2
#     Edge 63, Type (0, 0), BuildingBlock: AJUNOK_clean_linker_0, # of connection points: 2
#     Edge 64, Type (0, 0), BuildingBlock: AJUNOK_clean_linker_0, # of connection points: 2
#     Edge 65, Type (0, 0), BuildingBlock: AJUNOK_clean_linker_0, # of connection points: 2
#     Edge 66, Type (0, 0), BuildingBlock: AJUNOK_clean_linker_0, # of connection points: 2
#     Edge 67, Type (0, 0), BuildingBlock: AJUNOK_clean_linker_0, # of connection points: 2
#     Edge 68, Type (0, 0), BuildingBlock: AJUNOK_clean_linker_0, # of connection points: 2
#     Edge 69, Type (0, 0), BuildingBlock: AJUNOK_clean_linker_0, # of connection points: 2
#     Edge 70, Type (0, 0), BuildingBlock: AJUNOK_clean_linker_0, # of connection points: 2
#     Edge 71, Type (0, 0), BuildingBlock: AJUNOK_clean_linker_0, # of connection points: 2
# Relax obj value: 0.033
# Max RMSD: 0.061
# Mean RMSD: 0.060
data_MOF--net-lcs--node1-GALJAG_clean_sbu_0--edge1-AJUNOK_clean_linker_0
_symmetry_space_group_name_H-M    P1
_symmetry_Int_Tables_number       1
_symmetry_cell_setting            triclinic
loop_
_symmetry_equiv_pos_as_xyz
'x, y, z'
_cell_length_a     36.524595
_cell_length_b     36.508516
_cell_length_c     36.553537
_cell_angle_alpha  90.06628
_cell_angle_beta   90.027479
_cell_angle_gamma 90.154541
loop_
_atom_site_label
_atom_site_type_symbol
_atom_site_fract_x
_atom_site_fract_y
_atom_site_fract_z
_atom_type_partial_charge
In0 In 0.00376 0.2579 0.37534 0.0
O1 O 0.03397 0.24215 0.42753 0.0
O2 O 0.06338 0.2404 0.37713 0.0
C3 C 0.94405 0.28424 0.41099 0.0
C4 C 0.03498 0.31664 0.34321 0.0
C5 C 0.98104 0.19699 0.33867 0.0
O6 O 0.96337 0.25879 0.42385 0.0
O7 O 0.95487 0.29616 0.3806 0.0
O8 O 0.97586 0.22884 0.32646 0.0
O9 O 0.99754 0.19612 0.36879 0.0
C10 C 0.06379 0.23534 0.41132 0.0
O11 O 0.01784 0.29267 0.32492 0.0
O12 O 0.0361 0.31097 0.37724 0.0
In13 In 1.00303 0.75563 0.63194 0.0
O14 O 0.03108 0.7299 0.58217 0.0
O15 O 0.06237 0.73685 0.6307 0.0
C16 C 0.94481 0.785 0.59742 0.0
C17 C 0.97618 0.69539 0.66516 0.0
C18 C 0.02778 0.81701 0.66497 0.0
O19 O 0.97546 0.78121 0.58187 0.0
O20 O 0.94375 0.77428 0.63016 0.0
O21 O 0.00809 0.79397 0.68172 0.0
O22 O 0.03452 0.80899 0.63214 0.0
C23 C 0.06163 0.72618 0.5979 0.0
O24 O 0.99786 0.71698 0.68145 0.0
O25 O 0.96912 0.70384 0.63252 0.0
In26 In 0.50196 0.75396 0.87873 0.0
O27 O 0.53952 0.74669 0.92826 0.0
O28 O 0.5552 0.72207 0.87782 0.0
C29 C 0.44143 0.78227 0.91083 0.0
C30 C 0.53217 0.81304 0.84588 0.0
C31 C 0.47497 0.69372 0.84508 0.0
O32 O 0.46253 0.76076 0.92766 0.0
O33 O 0.45076 0.7888 0.87838 0.0
O34 O 0.48286 0.72265 0.82786 0.0
O35 O 0.48057 0.69525 0.87908 0.0
C36 C 0.56273 0.72764 0.91108 0.0
O37 O 0.51502 0.78869 0.82817 0.0
O38 O 0.53466 0.80709 0.87977 0.0
In39 In 0.50131 0.25177 0.12745 0.0
O40 O 0.53606 0.23732 0.0772 0.0
O41 O 0.55312 0.21775 0.12923 0.0
C42 C 0.44138 0.27957 0.09477 0.0
C43 C 0.47336 0.19165 0.15956 0.0
C44 C 0.53029 0.31208 0.15952 0.0
O45 O 0.46994 0.27167 0.07695 0.0
O46 O 0.44338 0.27388 0.12872 0.0
O47 O 0.50918 0.29064 0.17656 0.0
O48 O 0.53629 0.30307 0.12685 0.0
C49 C 0.55937 0.21938 0.09537 0.0
O50 O 0.49391 0.21386 0.17651 0.0
O51 O 0.46693 0.1999 0.12665 0.0
In52 In 1.00241 0.75415 0.13189 0.0
O53 O 0.02853 0.72712 0.18212 0.0
O54 O 0.02137 0.6948 0.13434 0.0
C55 C 0.97224 0.81339 0.16429 0.0
C56 C 0.06218 0.78115 0.09764 0.0
C57 C 0.94113 0.7273 0.10025 0.0
O58 O 0.97747 0.78371 0.18122 0.0
O59 O 0.9821 0.81305 0.13124 0.0
O60 O 0.9649 0.74479 0.08211 0.0
O61 O 0.94827 0.72409 0.13381 0.0
C62 C 0.03224 0.69621 0.16704 0.0
O63 O 0.0401 0.75973 0.08166 0.0
O64 O 0.05443 0.7879 0.13055 0.0
In65 In 0.5039 0.75322 0.37821 0.0
O66 O 0.47835 0.72423 0.42776 0.0
O67 O 0.44261 0.74907 0.38947 0.0
C68 C 0.56437 0.7754 0.4152 0.0
C69 C 0.52591 0.69479 0.33852 0.0
C70 C 0.48055 0.81118 0.33862 0.0
O71 O 0.5324 0.7836 0.42543 0.0
O72 O 0.56559 0.75562 0.387 0.0
O73 O 0.47486 0.77847 0.32891 0.0
O74 O 0.49872 0.81457 0.36776 0.0
C75 C 0.44571 0.73058 0.41837 0.0
O76 O 0.53245 0.72736 0.32896 0.0
O77 O 0.50733 0.69177 0.36742 0.0
In78 In 0.50389 0.25262 0.62689 0.0
O79 O 0.51706 0.21831 0.67759 0.0
O80 O 0.53676 0.19986 0.62604 0.0
C81 C 0.47635 0.31222 0.66103 0.0
C82 C 0.56441 0.2791 0.59395 0.0
C83 C 0.44364 0.22389 0.59442 0.0
O84 O 0.48338 0.28288 0.67785 0.0
O85 O 0.48318 0.31145 0.62725 0.0
O86 O 0.46346 0.24743 0.57866 0.0
O87 O 0.4541 0.21543 0.62605 0.0
C88 C 0.53415 0.19396 0.65993 0.0
O89 O 0.54121 0.25964 0.57707 0.0
O90 O 0.55707 0.28488 0.62721 0.0
In91 In 1.00318 0.25657 0.87966 0.0
O92 O 0.97302 0.21185 0.91147 0.0
O93 O 0.94994 0.26477 0.91223 0.0
C94 C 0.06108 0.28186 0.91785 0.0
C95 C 0.0296 0.19918 0.84118 0.0
C96 C 0.9827 0.31363 0.83693 0.0
O97 O 0.02949 0.27968 0.93191 0.0
O98 O 0.06306 0.27142 0.88503 0.0
O99 O 0.96892 0.28206 0.8335 0.0
O100 O 0.00722 0.31589 0.861 0.0
C101 C 0.94704 0.23183 0.92196 0.0
O102 O 0.00389 0.21879 0.82894 0.0
O103 O 0.04141 0.20866 0.87214 0.0
In104 In 0.37746 1.00079 0.25204 0.0
O105 O 0.32744 0.0121 0.28892 0.0
O106 O 0.37935 0.03121 0.3063 0.0
C107 C 0.34314 0.97603 0.19157 0.0
C108 C 0.40908 0.061 0.22342 0.0
C109 C 0.41293 0.9397 0.27467 0.0
O110 O 0.32673 0.98062 0.22166 0.0
O111 O 0.37672 0.98432 0.19189 0.0
O112 O 0.42887 0.97016 0.27126 0.0
O113 O 0.37936 0.94019 0.26701 0.0
C114 C 0.34562 0.02918 0.31283 0.0
O115 O 0.42744 0.03536 0.23752 0.0
O116 O 0.37484 0.05603 0.22333 0.0
In117 In 0.2517 0.13183 0.50005 0.0
O118 O 0.23008 0.08229 0.53162 0.0
O119 O 0.23711 0.13262 0.56046 0.0
C120 C 0.27924 0.09793 0.44004 0.0
C121 C 0.19214 0.16915 0.47646 0.0
C122 C 0.31243 0.16127 0.52967 0.0
O123 O 0.25926 0.08122 0.46273 0.0
O124 O 0.28437 0.1312 0.44733 0.0
O125 O 0.28692 0.18087 0.51695 0.0
O126 O 0.30715 0.12715 0.52736 0.0
C127 C 0.22761 0.09937 0.56166 0.0
O128 O 0.224 0.18236 0.4748 0.0
O129 O 0.19043 0.13745 0.48975 0.0
In130 In 0.1281 0.00872 0.75149 0.0
O131 O 0.0776 0.04574 0.75725 0.0
O132 O 0.12838 0.06422 0.77896 0.0
C133 C 0.09355 0.94786 0.72756 0.0
C134 C 0.16291 0.03652 0.69244 0.0
C135 C 0.16138 0.97957 0.81086 0.0
O136 O 0.07739 0.97155 0.7469 0.0
O137 O 0.1266 0.95506 0.72065 0.0
O138 O 0.17655 0.98074 0.77986 0.0
O139 O 0.12979 0.99328 0.81188 0.0
C140 C 0.09485 0.0707 0.77404 0.0
O141 O 0.17799 0.03459 0.72348 0.0
O142 O 0.13053 0.02452 0.69132 0.0
In143 In 0.25021 0.87946 1.00121 0.0
O144 O 0.21323 0.82929 0.01127 0.0
O145 O 0.19506 0.88168 0.02899 0.0
C146 C 0.31155 0.84748 0.97558 0.0
C147 C 0.22268 0.91205 0.94095 0.0
C148 C 0.27818 0.91233 0.06127 0.0
O149 O 0.28727 0.82928 0.99233 0.0
O150 O 0.30499 0.88122 0.97278 0.0
O151 O 0.276 0.92859 0.03088 0.0
O152 O 0.26688 0.87969 0.0611 0.0
C153 C 0.18874 0.84776 0.02733 0.0
O154 O 0.22583 0.92872 0.9711 0.0
O155 O 0.23264 0.87902 0.94151 0.0
In156 In 0.2533 0.38098 0.00414 0.0
O157 O 0.2349 0.43327 0.03339 0.0
O158 O 0.24714 0.38644 0.06564 0.0
C159 C 0.2777 0.41426 0.94283 0.0
C160 C 0.31237 0.34552 0.03021 0.0
C161 C 0.19136 0.34559 0.98288 0.0
O162 O 0.26309 0.43198 0.96864 0.0
O163 O 0.27961 0.38021 0.94797 0.0
O164 O 0.22287 0.33265 0.97774 0.0
O165 O 0.1911 0.37614 0.99877 0.0
C166 C 0.23671 0.4193 0.06496 0.0
O167 O 0.28047 0.3321 0.0316 0.0
O168 O 0.31449 0.37671 0.01547 0.0
In169 In 0.75393 0.13036 0.00445 0.0
O170 O 0.77335 0.0792 0.03469 0.0
O171 O 0.77042 0.12939 0.06433 0.0
C172 C 0.72675 0.1005 0.94238 0.0
C173 C 0.6915 0.15819 0.03187 0.0
C174 C 0.81571 0.16586 0.98345 0.0
O175 O 0.74246 0.08147 0.9665 0.0
O176 O 0.72522 0.13421 0.9495 0.0
O177 O 0.78818 0.18264 0.99579 0.0
O178 O 0.81189 0.13162 0.98189 0.0
C179 C 0.77757 0.09559 0.06488 0.0
O180 O 0.71451 0.17783 0.01499 0.0
O181 O 0.6999 0.12479 0.03452 0.0
In182 In 0.13564 0.50739 0.25419 0.0
O183 O 0.18622 0.48241 0.22681 0.0
O184 O 0.14274 0.49925 0.19261 0.0
C185 C 0.16985 0.53473 0.31347 0.0
C186 C 0.09762 0.56743 0.23344 0.0
C187 C 0.10288 0.44582 0.27966 0.0
O188 O 0.18364 0.53621 0.2818 0.0
O189 O 0.13875 0.51959 0.31519 0.0
O190 O 0.08466 0.47203 0.26645 0.0
O191 O 0.13702 0.4506 0.27939 0.0
C192 C 0.17397 0.48498 0.19473 0.0
O193 O 0.0854 0.53532 0.22891 0.0
O194 O 0.12843 0.56909 0.24888 0.0
In195 In 0.75408 0.87889 0.50365 0.0
O196 O 0.74714 0.92894 0.54118 0.0
O197 O 0.72684 0.87748 0.55925 0.0
C198 C 0.7777 0.91323 0.4427 0.0
C199 C 0.81494 0.84727 0.53082 0.0
C200 C 0.69514 0.84307 0.4763 0.0
O201 O 0.75692 0.92884 0.46552 0.0
O202 O 0.78583 0.88062 0.45047 0.0
O203 O 0.72612 0.82808 0.4793 0.0
O204 O 0.69416 0.87598 0.48669 0.0
C205 C 0.73104 0.91106 0.56605 0.0
O206 O 0.78483 0.83031 0.52849 0.0
O207 O 0.81415 0.87996 0.51981 0.0
In208 In 0.87686 0.00603 0.25388 0.0
O209 O 0.82604 0.02995 0.22643 0.0
O210 O 0.87059 0.01438 0.19247 0.0
C211 C 0.84334 0.98179 0.31523 0.0
C212 C 0.90808 0.94459 0.22729 0.0
C213 C 0.91527 0.06592 0.27626 0.0
O214 O 0.82563 0.99506 0.28872 0.0
O215 O 0.87755 0.98126 0.31086 0.0
O216 O 0.92796 0.03391 0.27818 0.0
O217 O 0.88366 0.06765 0.26279 0.0
C218 C 0.83904 0.02816 0.19447 0.0
O219 O 0.92346 0.97559 0.22529 0.0
O220 O 0.87693 0.94474 0.24221 0.0
In221 In 0.25401 0.63183 0.50675 0.0
O222 O 0.26218 0.57947 0.54058 0.0
O223 O 0.2814 0.62998 0.56234 0.0
C224 C 0.23402 0.59844 0.44408 0.0
C225 C 0.19247 0.66534 0.53131 0.0
C226 C 0.31537 0.66533 0.48257 0.0
O227 O 0.23641 0.58142 0.47407 0.0
O228 O 0.24214 0.63201 0.44574 0.0
O229 O 0.2849 0.68164 0.48429 0.0
O230 O 0.31458 0.63225 0.49255 0.0
C231 C 0.27815 0.59588 0.56651 0.0
O232 O 0.22387 0.67926 0.5352 0.0
O233 O 0.19223 0.63503 0.51499 0.0
In234 In 0.37883 0.50229 0.75322 0.0
O235 O 0.32844 0.50734 0.71597 0.0
O236 O 0.37857 0.5318 0.69895 0.0
C237 C 0.34464 0.4789 0.81421 0.0
C238 C 0.41213 0.4424 0.72551 0.0
C239 C 0.41233 0.56237 0.78076 0.0
O240 O 0.32851 0.49848 0.79072 0.0
O241 O 0.37759 0.47177 0.80699 0.0
O242 O 0.42752 0.53131 0.78087 0.0
O243 O 0.38055 0.56279 0.76741 0.0
C244 C 0.34522 0.52599 0.69212 0.0
O245 O 0.42796 0.47319 0.72695 0.0
O246 O 0.37977 0.44213 0.7374 0.0
In247 In 0.63009 0.00381 0.75373 0.0
O248 O 0.68076 0.99903 0.71694 0.0
O249 O 0.63531 0.9641 0.70629 0.0
C250 C 0.66304 0.03585 0.81164 0.0
C251 C 0.59527 0.06121 0.72272 0.0
C252 C 0.59552 0.94519 0.78306 0.0
O253 O 0.67896 0.01182 0.79252 0.0
O254 O 0.63098 0.04337 0.80146 0.0
O255 O 0.58106 0.96465 0.75843 0.0
O256 O 0.6268 0.95581 0.79319 0.0
C257 C 0.66703 0.97417 0.6971 0.0
O258 O 0.58033 0.04149 0.74689 0.0
O259 O 0.62701 0.05126 0.71366 0.0
In260 In 0.75203 0.62944 0.00377 0.0
O261 O 0.73906 0.57944 0.03949 0.0
O262 O 0.71493 0.63048 0.05361 0.0
C263 C 0.77913 0.59503 0.94418 0.0
C264 C 0.6925 0.66266 0.97593 0.0
C265 C 0.81159 0.66219 0.03383 0.0
O266 O 0.77116 0.57793 0.97313 0.0
O267 O 0.77408 0.62913 0.94567 0.0
O268 O 0.79208 0.67806 0.01021 0.0
O269 O 0.8012 0.6303 0.04165 0.0
C270 C 0.71862 0.59701 0.06115 0.0
O271 O 0.71518 0.67936 0.99616 0.0
O272 O 0.69999 0.62946 0.96985 0.0
In273 In 0.87845 0.50385 0.7547 0.0
O274 O 0.92867 0.5406 0.74415 0.0
O275 O 0.87591 0.5607 0.73043 0.0
C276 C 0.91613 0.44352 0.77445 0.0
C277 C 0.84204 0.5277 0.81484 0.0
C278 C 0.84655 0.47783 0.69331 0.0
O279 O 0.93118 0.47459 0.77138 0.0
O280 O 0.88233 0.44305 0.76733 0.0
O281 O 0.83148 0.47551 0.72433 0.0
O282 O 0.87768 0.49284 0.6934 0.0
C283 C 0.90994 0.56641 0.73081 0.0
O284 O 0.82858 0.52895 0.78314 0.0
O285 O 0.87343 0.51365 0.81643 0.0
In286 In 0.75348 0.38068 0.50307 0.0
O287 O 0.71606 0.33023 0.50827 0.0
O288 O 0.70004 0.37958 0.53457 0.0
C289 C 0.81503 0.34802 0.47874 0.0
C290 C 0.72577 0.41425 0.44328 0.0
C291 C 0.7826 0.41424 0.56224 0.0
O292 O 0.79053 0.33043 0.49578 0.0
O293 O 0.80845 0.38164 0.47458 0.0
O294 O 0.77807 0.43065 0.53217 0.0
O295 O 0.77252 0.38119 0.5623 0.0
C296 C 0.69276 0.34646 0.52799 0.0
O297 O 0.72634 0.42953 0.4743 0.0
O298 O 0.73843 0.3822 0.44276 0.0
In299 In 0.62597 0.50356 0.25301 0.0
O300 O 0.57512 0.53529 0.2705 0.0
O301 O 0.62655 0.56307 0.27096 0.0
C302 C 0.59456 0.44242 0.22501 0.0
C303 C 0.65524 0.53328 0.19222 0.0
C304 C 0.6616 0.47936 0.31343 0.0
O305 O 0.57679 0.4647 0.24449 0.0
O306 O 0.62764 0.4508 0.22042 0.0
O307 O 0.67724 0.48306 0.28291 0.0
O308 O 0.62836 0.48833 0.31359 0.0
C309 C 0.59244 0.56476 0.27638 0.0
O310 O 0.6748 0.5193 0.21708 0.0
O311 O 0.6212 0.5322 0.1981 0.0
C312 C 0.05245 0.39905 0.28213 0.0
C313 C 0.08592 0.41266 0.29563 0.0
C314 C 0.03647 0.36725 0.29693 0.0
C315 C 0.05289 0.34881 0.32643 0.0
H316 H 0.03877 0.41279 0.25973 0.0
H317 H 0.01071 0.35755 0.28581 0.0
S318 S 0.14038 0.37346 0.3718 0.0
N319 N 0.13507 0.40493 0.33984 0.0
N320 N 0.1044 0.34619 0.36838 0.0
C321 C 0.08618 0.36229 0.34026 0.0
C322 C 0.10287 0.39397 0.32466 0.0
C323 C 0.87709 0.78943 0.59015 0.0
C324 C 0.91233 0.80031 0.57893 0.0
C325 C 0.84566 0.80397 0.57368 0.0
C326 C 0.84839 0.83064 0.54614 0.0
H327 H 0.87376 0.76937 0.61173 0.0
H328 H 0.81905 0.79497 0.58325 0.0
S329 S 0.93422 0.86802 0.50662 0.0
N330 N 0.94813 0.83855 0.5379 0.0
N331 N 0.88903 0.86685 0.50778 0.0
C332 C 0.88344 0.84166 0.53456 0.0
C333 C 0.91544 0.82621 0.55072 0.0
C334 C 0.45236 0.59388 0.82654 0.0
C335 C 0.42981 0.59578 0.79546 0.0
C336 C 0.46688 0.62579 0.84244 0.0
C337 C 0.46021 0.66051 0.82715 0.0
H338 H 0.45791 0.5677 0.83929 0.0
H339 H 0.48351 0.62323 0.86684 0.0
S340 S 0.40456 0.67986 0.74457 0.0
N341 N 0.40218 0.63494 0.7494 0.0
N342 N 0.43058 0.69472 0.77848 0.0
C343 C 0.43865 0.66261 0.7954 0.0
C344 C 0.42313 0.63027 0.77978 0.0
C345 C 0.60717 0.21702 0.04636 0.0
C346 C 0.59223 0.2026 0.07878 0.0
C347 C 0.63961 0.2028 0.03147 0.0
C348 C 0.6576 0.1731 0.04799 0.0
H349 H 0.59418 0.23996 0.03284 0.0
H350 H 0.65047 0.21489 0.00668 0.0
S351 S 0.62943 0.12519 0.1329 0.0
N352 N 0.59795 0.15701 0.12691 0.0
N353 N 0.65819 0.1297 0.09835 0.0
C354 C 0.64264 0.15809 0.08006 0.0
C355 C 0.61013 0.17302 0.09562 0.0
C356 C 0.05492 0.59729 0.18924 0.0
C357 C 0.07903 0.6004 0.21907 0.0
C358 C 0.03984 0.62847 0.17274 0.0
C359 C 0.04771 0.66388 0.18592 0.0
H360 H 0.04853 0.57065 0.17778 0.0
H361 H 0.02195 0.62478 0.14937 0.0
S362 S 0.10761 0.68672 0.26474 0.0
N363 N 0.10922 0.6416 0.26191 0.0
N364 N 0.08011 0.70012 0.23149 0.0
C365 C 0.07083 0.6673 0.21649 0.0
C366 C 0.08671 0.63559 0.23289 0.0
C367 C 0.59563 0.82169 0.45489 0.0
C368 C 0.59783 0.79025 0.43277 0.0
C369 C 0.62727 0.83838 0.46897 0.0
C370 C 0.66229 0.82393 0.46199 0.0
H371 H 0.56936 0.83418 0.46053 0.0
H372 H 0.62423 0.86294 0.48534 0.0
S373 S 0.68282 0.74087 0.40725 0.0
N374 N 0.63781 0.74457 0.40547 0.0
N375 N 0.69717 0.77556 0.43255 0.0
C376 C 0.66481 0.79186 0.44085 0.0
C377 C 0.63262 0.77514 0.42606 0.0
C378 C 0.46942 0.38012 0.66549 0.0
C379 C 0.46106 0.34502 0.67908 0.0
C380 C 0.45442 0.4117 0.68141 0.0
C381 C 0.42968 0.40913 0.71073 0.0
H382 H 0.4878 0.38322 0.64243 0.0
H383 H 0.4614 0.4382 0.67003 0.0
S384 S 0.39919 0.32375 0.7566 0.0
N385 N 0.42733 0.30965 0.72419 0.0
N386 N 0.39802 0.36884 0.75322 0.0
C387 C 0.42121 0.37423 0.72465 0.0
C388 C 0.43723 0.34219 0.70907 0.0
C389 C 0.91214 0.17885 0.94738 0.0
C390 C 0.91446 0.21677 0.94101 0.0
C391 C 0.88037 0.16295 0.96182 0.0
C392 C 0.84961 0.18429 0.97071 0.0
H393 H 0.93471 0.16102 0.9403 0.0
H394 H 0.87981 0.13352 0.96549 0.0
S395 S 0.8422 0.2852 0.96125 0.0
N396 N 0.88368 0.27559 0.94612 0.0
N397 N 0.82397 0.24564 0.97355 0.0
C398 C 0.85191 0.22243 0.96568 0.0
C399 C 0.88431 0.23867 0.95076 0.0
C400 C 0.28022 0.04941 0.39129 0.0
C401 C 0.29644 0.08018 0.40798 0.0
C402 C 0.29596 0.03318 0.36014 0.0
C403 C 0.32893 0.04662 0.34533 0.0
H404 H 0.25491 0.0382 0.40197 0.0
H405 H 0.28249 0.00973 0.34786 0.0
S406 S 0.38266 0.12603 0.3795 0.0
N407 N 0.34734 0.12327 0.40751 0.0
N408 N 0.37728 0.09232 0.34984 0.0
C409 C 0.3456 0.07704 0.36213 0.0
C410 C 0.32926 0.09394 0.39324 0.0
C411 C 0.1704 0.04 0.62467 0.0
C412 C 0.1813 0.05169 0.65974 0.0
C413 C 0.18642 0.05471 0.59304 0.0
C414 C 0.21319 0.08232 0.59536 0.0
H415 H 0.14932 0.01929 0.62161 0.0
H416 H 0.17699 0.04514 0.56659 0.0
S417 S 0.25185 0.12193 0.68057 0.0
N418 N 0.2214 0.09166 0.69491 0.0
N419 N 0.25065 0.12017 0.63543 0.0
C420 C 0.22456 0.09407 0.63022 0.0
C421 C 0.20886 0.07849 0.66244 0.0
C422 C 0.16757 0.97401 0.87868 0.0
C423 C 0.17863 0.96297 0.84347 0.0
C424 C 0.18258 0.95799 0.91015 0.0
C425 C 0.20844 0.92969 0.9075 0.0
H426 H 0.14721 0.99528 0.88197 0.0
H427 H 0.17323 0.96725 0.93671 0.0
S428 S 0.24704 0.89124 0.82185 0.0
N429 N 0.21781 0.92271 0.80788 0.0
N430 N 0.24519 0.89184 0.86699 0.0
C431 C 0.21987 0.9185 0.8725 0.0
C432 C 0.2052 0.93537 0.84049 0.0
C433 C 0.32219 0.95486 0.09206 0.0
C434 C 0.29307 0.92977 0.09456 0.0
C435 C 0.33821 0.96983 0.12365 0.0
C436 C 0.3249 0.96102 0.1587 0.0
H437 H 0.33336 0.96216 0.06559 0.0
H438 H 0.36114 0.98846 0.12061 0.0
S439 S 0.24773 0.89824 0.17969 0.0
N440 N 0.2509 0.89746 0.13463 0.0
N441 N 0.28012 0.92653 0.1939 0.0
C442 C 0.29504 0.93683 0.16144 0.0
C443 C 0.27936 0.92092 0.12937 0.0
C444 C 0.37974 0.33395 0.03161 0.0
C445 C 0.34463 0.32697 0.04589 0.0
C446 C 0.41093 0.3176 0.04687 0.0
C447 C 0.40812 0.2946 0.07754 0.0
H448 H 0.38312 0.35213 0.00845 0.0
H449 H 0.4375 0.32382 0.03521 0.0
S450 S 0.32252 0.26727 0.12491 0.0
N451 N 0.30882 0.29475 0.09179 0.0
N452 N 0.36752 0.26499 0.12118 0.0
C453 C 0.37319 0.28726 0.09194 0.0
C454 C 0.3414 0.30319 0.0759 0.0
C455 C 0.96446 0.88123 0.16751 0.0
C456 C 0.9562 0.8463 0.18156 0.0
C457 C 0.9494 0.91296 0.18299 0.0
C458 C 0.9248 0.91084 0.21248 0.0
H459 H 0.98294 0.88412 0.14451 0.0
H460 H 0.9565 0.93929 0.17128 0.0
S461 S 0.89439 0.82601 0.25945 0.0
N462 N 0.92243 0.8115 0.22712 0.0
N463 N 0.89321 0.87106 0.25551 0.0
C464 C 0.91629 0.87609 0.22679 0.0
C465 C 0.93226 0.84384 0.21154 0.0
C466 C 0.16114 0.70649 0.57599 0.0
C467 C 0.15882 0.682 0.54638 0.0
C468 C 0.1295 0.72054 0.59249 0.0
C469 C 0.0944 0.71125 0.57948 0.0
H470 H 0.18757 0.71416 0.58713 0.0
H471 H 0.13258 0.73894 0.61558 0.0
S472 S 0.07346 0.64934 0.5017 0.0
N473 N 0.11861 0.64954 0.50423 0.0
N474 N 0.05919 0.67676 0.53467 0.0
C475 C 0.0917 0.68751 0.54932 0.0
C476 C 0.1239 0.67265 0.53294 0.0
C477 C 0.97767 0.6429 0.70942 0.0
C478 C 0.95886 0.66341 0.68287 0.0
C479 C 0.96181 0.61135 0.72486 0.0
C480 C 0.92631 0.59995 0.71493 0.0
H481 H 0.00508 0.65077 0.71763 0.0
H482 H 0.97738 0.5959 0.74477 0.0
S483 S 0.86513 0.64557 0.6479 0.0
N484 N 0.90271 0.67076 0.64801 0.0
N485 N 0.87262 0.61232 0.6775 0.0
C486 C 0.907 0.62085 0.68903 0.0
C487 C 0.92337 0.65237 0.67287 0.0
C488 C 0.16264 0.21197 0.43224 0.0
C489 C 0.15951 0.18827 0.46235 0.0
C490 C 0.13148 0.22756 0.41617 0.0
C491 C 0.0963 0.22079 0.43033 0.0
H492 H 0.18918 0.21744 0.42016 0.0
H493 H 0.13493 0.24484 0.39233 0.0
S494 S 0.07378 0.16262 0.51036 0.0
N495 N 0.11873 0.15976 0.50654 0.0
N496 N 0.06031 0.19005 0.47711 0.0
C497 C 0.09298 0.19831 0.46133 0.0
C498 C 0.12458 0.18175 0.47713 0.0
C499 C 0.54701 0.39275 0.22339 0.0
C500 C 0.57817 0.40944 0.20807 0.0
C501 C 0.53187 0.36087 0.2079 0.0
C502 C 0.54696 0.34513 0.17616 0.0
H503 H 0.53454 0.40409 0.24777 0.0
H504 H 0.50796 0.34875 0.22063 0.0
S505 S 0.62804 0.37904 0.125 0.0
N506 N 0.62336 0.40813 0.15924 0.0
N507 N 0.59465 0.34889 0.12984 0.0
C508 C 0.57789 0.36186 0.16042 0.0
C509 C 0.59357 0.39385 0.17646 0.0
C510 C 0.35962 0.79845 0.97328 0.0
C511 C 0.34453 0.83086 0.95905 0.0
C512 C 0.39141 0.78306 0.958 0.0
C513 C 0.40858 0.79914 0.92749 0.0
H514 H 0.34709 0.78517 0.99663 0.0
H515 H 0.4023 0.75817 0.96984 0.0
S516 S 0.37918 0.8837 0.87951 0.0
N517 N 0.34894 0.8783 0.9126 0.0
N518 N 0.40794 0.84916 0.88357 0.0
C519 C 0.39346 0.83135 0.91287 0.0
C520 C 0.36162 0.84727 0.92873 0.0
C521 C 0.91873 0.37584 0.78418 0.0
C522 C 0.93571 0.41038 0.78716 0.0
C523 C 0.93497 0.34434 0.79882 0.0
C524 C 0.96866 0.34623 0.81735 0.0
H525 H 0.89225 0.37316 0.77107 0.0
H526 H 0.92032 0.31859 0.79673 0.0
S527 S 0.02564 0.42964 0.83047 0.0
N528 N 0.98918 0.44423 0.80818 0.0
N529 N 0.01956 0.38517 0.83602 0.0
C530 C 0.98662 0.38037 0.81935 0.0
C531 C 0.9702 0.4124 0.80415 0.0
C532 C 0.35911 0.21129 0.53511 0.0
C533 C 0.34584 0.17688 0.54633 0.0
C534 C 0.39128 0.2261 0.55019 0.0
C535 C 0.41069 0.20737 0.57762 0.0
H536 H 0.34481 0.22666 0.51421 0.0
H537 H 0.40065 0.25264 0.54078 0.0
S538 S 0.38685 0.11666 0.61689 0.0
N539 N 0.35447 0.12453 0.5864 0.0
N540 N 0.41427 0.15264 0.61536 0.0
C541 C 0.39748 0.17307 0.58922 0.0
C542 C 0.36522 0.15774 0.5734 0.0
C543 C 0.52616 0.62761 0.32543 0.0
C544 C 0.54135 0.66257 0.31948 0.0
C545 C 0.54217 0.59616 0.31035 0.0
C546 C 0.57442 0.59848 0.28951 0.0
H547 H 0.50195 0.62445 0.34226 0.0
H548 H 0.52987 0.56974 0.31608 0.0
S549 S 0.62412 0.68355 0.26441 0.0
N550 N 0.58954 0.69775 0.28978 0.0
N551 N 0.62007 0.63855 0.26219 0.0
C552 C 0.58945 0.63329 0.28267 0.0
C553 C 0.57278 0.66537 0.29743 0.0
C554 C 0.11203 0.78071 0.05029 0.0
C555 C 0.09391 0.79842 0.07928 0.0
C556 C 0.14293 0.79662 0.03361 0.0
C557 C 0.15607 0.83116 0.04477 0.0
H558 H 0.10271 0.75412 0.04091 0.0
H559 H 0.15642 0.78192 0.0117 0.0
S560 S 0.11739 0.88923 0.11867 0.0
N561 N 0.09098 0.85249 0.11802 0.0
N562 N 0.1482 0.88265 0.08634 0.0
C563 C 0.13772 0.84932 0.07332 0.0
C564 C 0.10686 0.83288 0.09067 0.0
C565 C 0.69052 0.90843 0.6207 0.0
C566 C 0.71663 0.92779 0.60001 0.0
C567 C 0.6751 0.92359 0.65227 0.0
C568 C 0.68565 0.95843 0.66485 0.0
H569 H 0.68129 0.88154 0.61209 0.0
H570 H 0.65463 0.90784 0.6669 0.0
S571 S 0.75374 0.02007 0.62134 0.0
N572 N 0.7528 0.98355 0.59462 0.0
N573 N 0.72427 0.01179 0.65461 0.0
C574 C 0.71233 0.97785 0.64497 0.0
C575 C 0.72765 0.96262 0.61235 0.0
C576 C 0.84341 0.93691 0.36631 0.0
C577 C 0.82573 0.9656 0.34783 0.0
C578 C 0.82734 0.92005 0.39669 0.0
C579 C 0.79336 0.93181 0.41036 0.0
H580 H 0.86967 0.92692 0.35685 0.0
H581 H 0.84191 0.89785 0.40984 0.0
S582 S 0.7362 0.00645 0.37239 0.0
N583 N 0.77237 0.00516 0.34529 0.0
N584 N 0.74264 0.9742 0.40341 0.0
C585 C 0.77556 0.96085 0.39254 0.0
C586 C 0.7916 0.97751 0.36096 0.0
C587 C 0.81509 0.04747 0.09544 0.0
C588 C 0.79061 0.07696 0.09821 0.0
C589 C 0.83006 0.0313 0.12683 0.0
C590 C 0.82032 0.04344 0.16206 0.0
H591 H 0.82372 0.03764 0.06884 0.0
H592 H 0.84973 0.00939 0.12346 0.0
S593 S 0.75489 0.11789 0.18392 0.0
N594 N 0.75588 0.11658 0.13877 0.0
N595 N 0.78318 0.08554 0.19781 0.0
C596 C 0.79465 0.0719 0.16516 0.0
C597 C 0.78004 0.08887 0.1332 0.0
C598 C 0.70852 0.03575 0.86295 0.0
C599 C 0.67991 0.05326 0.84409 0.0
C600 C 0.72342 0.05103 0.89496 0.0
C601 C 0.71076 0.08471 0.90869 0.0
H602 H 0.71896 0.00971 0.85336 0.0
H603 H 0.74517 0.0365 0.90887 0.0
S604 S 0.6369 0.14186 0.86895 0.0
N605 N 0.63971 0.10619 0.84132 0.0
N606 N 0.66818 0.13519 0.90084 0.0
C607 C 0.68258 0.10273 0.88974 0.0
C608 C 0.66702 0.08692 0.8576 0.0
C609 C 0.61271 0.68136 0.91252 0.0
C610 C 0.59585 0.71211 0.92837 0.0
C611 C 0.64381 0.66554 0.92829 0.0
C612 C 0.65974 0.68031 0.96009 0.0
H613 H 0.60151 0.66905 0.88794 0.0
H614 H 0.65567 0.64171 0.91521 0.0
S615 S 0.62657 0.76104 0.01197 0.0
N616 N 0.59737 0.75684 0.97769 0.0
N617 N 0.6565 0.72759 0.00687 0.0
C618 C 0.64346 0.71132 0.97604 0.0
C619 C 0.61131 0.72706 0.96033 0.0
C620 C 0.09695 0.12565 0.8142 0.0
C621 C 0.07744 0.1042 0.78881 0.0
C622 C 0.08122 0.1565 0.8304 0.0
C623 C 0.04551 0.16762 0.8215 0.0
H624 H 0.12447 0.1182 0.82232 0.0
H625 H 0.09725 0.17171 0.85025 0.0
S626 S 0.98306 0.12186 0.75568 0.0
N627 N 0.02056 0.09665 0.7549 0.0
N628 N 0.99118 0.15538 0.78502 0.0
C629 C 0.02587 0.1471 0.79547 0.0
C630 C 0.04177 0.11517 0.77926 0.0
C631 C 0.89808 0.33385 0.41857 0.0
C632 C 0.91157 0.29959 0.42969 0.0
C633 C 0.86721 0.34929 0.43505 0.0
C634 C 0.84813 0.33086 0.46295 0.0
H635 H 0.91157 0.34906 0.39697 0.0
H636 H 0.85792 0.37572 0.42537 0.0
S637 S 0.87219 0.24043 0.50224 0.0
N638 N 0.90377 0.24776 0.47073 0.0
N639 N 0.84507 0.27656 0.50129 0.0
C640 C 0.86122 0.29654 0.47441 0.0
C641 C 0.89314 0.281 0.45793 0.0
C642 C 0.59065 0.89784 0.83199 0.0
C643 C 0.57809 0.91192 0.79846 0.0
C644 C 0.57554 0.86593 0.84703 0.0
C645 C 0.54774 0.84639 0.82881 0.0
H646 H 0.61226 0.9117 0.84693 0.0
H647 H 0.58601 0.85631 0.87303 0.0
S648 S 0.50523 0.8715 0.74013 0.0
N649 N 0.53595 0.90397 0.74751 0.0
N650 N 0.50804 0.84348 0.77546 0.0
C651 C 0.535 0.85999 0.79515 0.0
C652 C 0.55 0.89291 0.78009 0.0
C653 C 0.93875 0.16565 0.29468 0.0
C654 C 0.96707 0.16337 0.32063 0.0
C655 C 0.92268 0.13394 0.27995 0.0
C656 C 0.93473 0.09878 0.29015 0.0
H657 H 0.92808 0.19207 0.28655 0.0
H658 H 0.9003 0.13703 0.26076 0.0
S659 S 0.00979 0.07796 0.35524 0.0
N660 N 0.00765 0.12312 0.35471 0.0
N661 N 0.97786 0.06366 0.32657 0.0
C662 C 0.96397 0.09615 0.31502 0.0
C663 C 0.98 0.12841 0.33039 0.0
C664 C 0.59147 0.10877 0.67398 0.0
C665 C 0.57814 0.09441 0.7071 0.0
C666 C 0.57701 0.14094 0.65903 0.0
C667 C 0.54916 0.16046 0.67699 0.0
H668 H 0.61323 0.09497 0.65932 0.0
H669 H 0.58805 0.15078 0.63334 0.0
S670 S 0.50474 0.13459 0.76453 0.0
N671 N 0.53521 0.10202 0.75735 0.0
N672 N 0.50849 0.16299 0.72958 0.0
C673 C 0.53562 0.14654 0.71022 0.0
C674 C 0.54994 0.11336 0.72516 0.0
C675 C 0.16017 0.30124 0.94129 0.0
C676 C 0.15768 0.32765 0.96917 0.0
C677 C 0.12866 0.28613 0.92543 0.0
C678 C 0.0935 0.2963 0.93733 0.0
H679 H 0.18662 0.29299 0.93078 0.0
H680 H 0.13191 0.26656 0.90336 0.0
S681 S 0.07204 0.36266 0.01104 0.0
N682 N 0.11722 0.36239 0.00903 0.0
N683 N 0.05796 0.33325 0.97965 0.0
C684 C 0.09057 0.32163 0.96611 0.0
C685 C 0.12269 0.33753 0.98189 0.0
C686 C 0.3783 0.72949 0.43029 0.0
C687 C 0.41339 0.71545 0.43775 0.0
C688 C 0.34681 0.71382 0.44578 0.0
C689 C 0.34916 0.68308 0.46878 0.0
H690 H 0.37504 0.75253 0.41193 0.0
H691 H 0.32037 0.72523 0.43879 0.0
S692 S 0.43456 0.63683 0.49836 0.0
N693 N 0.44867 0.66998 0.47106 0.0
N694 N 0.3895 0.64012 0.4996 0.0
C695 C 0.3841 0.66923 0.47711 0.0
C696 C 0.41621 0.68555 0.46179 0.0
C697 C 0.83146 0.52998 0.88244 0.0
C698 C 0.82375 0.54356 0.84725 0.0
C699 C 0.81597 0.54601 0.91374 0.0
C700 C 0.79318 0.57685 0.91093 0.0
H701 H 0.84967 0.50685 0.88581 0.0
H702 H 0.82278 0.5349 0.94035 0.0
S703 S 0.76397 0.6225 0.82518 0.0
N704 N 0.79085 0.58889 0.81144 0.0
N705 N 0.76283 0.61975 0.87025 0.0
C706 C 0.78502 0.59047 0.87592 0.0
C707 C 0.80001 0.57362 0.84406 0.0
C708 C 0.70351 0.53589 0.14377 0.0
C709 C 0.67082 0.54962 0.15869 0.0
C710 C 0.71831 0.55067 0.11153 0.0
C711 C 0.70142 0.5803 0.09373 0.0
H712 H 0.71752 0.5133 0.15684 0.0
H713 H 0.74357 0.53935 0.10094 0.0
S714 S 0.61565 0.62649 0.12216 0.0
N715 N 0.62192 0.59431 0.15322 0.0
N716 N 0.6503 0.62282 0.09339 0.0
C717 C 0.66886 0.5944 0.10855 0.0
C718 C 0.65339 0.57885 0.14084 0.0
C719 C 0.68268 0.45772 0.41277 0.0
C720 C 0.71123 0.43212 0.41007 0.0
C721 C 0.66699 0.47315 0.38132 0.0
C722 C 0.67998 0.46429 0.34616 0.0
H723 H 0.67168 0.46508 0.4393 0.0
H724 H 0.64444 0.49209 0.38456 0.0
S725 S 0.75565 0.40029 0.32453 0.0
N726 N 0.75259 0.39935 0.36959 0.0
N727 N 0.72389 0.42922 0.31062 0.0
C728 C 0.70931 0.43964 0.3432 0.0
C729 C 0.7247 0.4233 0.37513 0.0
C730 C 0.80517 0.43343 0.6617 0.0
C731 C 0.8296 0.46315 0.65962 0.0
C732 C 0.79015 0.41784 0.62999 0.0
C733 C 0.7983 0.43197 0.59511 0.0
H734 H 0.79825 0.42157 0.68797 0.0
H735 H 0.77188 0.39458 0.63285 0.0
S736 S 0.85944 0.51068 0.57502 0.0
N737 N 0.86074 0.50668 0.62001 0.0
N738 N 0.83164 0.47802 0.56045 0.0
C739 C 0.82198 0.46227 0.59271 0.0
C740 C 0.83789 0.47767 0.62496 0.0
C741 C 0.40827 0.11334 0.1797 0.0
C742 C 0.42616 0.0942 0.20783 0.0
C743 C 0.42396 0.1447 0.16408 0.0
C744 C 0.45762 0.15859 0.1767 0.0
H745 H 0.38218 0.10372 0.16928 0.0
H746 H 0.40938 0.15842 0.14223 0.0
S747 S 0.51514 0.11901 0.25024 0.0
N748 N 0.47937 0.09133 0.24772 0.0
N749 N 0.50832 0.15101 0.21908 0.0
C750 C 0.47558 0.14002 0.20514 0.0
C751 C 0.46001 0.10759 0.22049 0.0
C752 C 0.07502 0.86599 0.66689 0.0
C753 C 0.0434 0.85022 0.68218 0.0
C754 C 0.09095 0.89737 0.68205 0.0
C755 C 0.07553 0.91472 0.71271 0.0
H756 H 0.08791 0.85378 0.64315 0.0
H757 H 0.11542 0.90832 0.66931 0.0
S758 S 0.99241 0.88474 0.7628 0.0
N759 N 0.99711 0.85417 0.72978 0.0
N760 N 0.02666 0.91398 0.75788 0.0
C761 C 0.04368 0.89952 0.72817 0.0
C762 C 0.02776 0.86701 0.71305 0.0
C763 C 0.47863 0.87848 0.32642 0.0
C764 C 0.46498 0.84311 0.3192 0.0
C765 C 0.46245 0.90957 0.31082 0.0
C766 C 0.43155 0.90643 0.28808 0.0
H767 H 0.50173 0.88227 0.34466 0.0
H768 H 0.47347 0.9363 0.31764 0.0
S769 S 0.38637 0.82005 0.25899 0.0
N770 N 0.41987 0.80671 0.28619 0.0
N771 N 0.38898 0.86519 0.2576 0.0
C772 C 0.41815 0.87122 0.27993 0.0
C773 C 0.43502 0.83953 0.29527 0.0
C774 C 0.86297 0.708 0.034 0.0
C775 C 0.84401 0.67922 0.05128 0.0
C776 C 0.89462 0.72333 0.04977 0.0
C777 C 0.90789 0.71089 0.0837 0.0
H778 H 0.85367 0.71832 0.00783 0.0
H779 H 0.9086 0.74522 0.03543 0.0
S780 S 0.86752 0.6368 0.14047 0.0
N781 N 0.84056 0.63922 0.10432 0.0
N782 N 0.89936 0.66831 0.13416 0.0
C783 C 0.88882 0.68248 0.10143 0.0
C784 C 0.85706 0.66656 0.08517 0.0
C785 C 0.61319 0.32677 0.59139 0.0
C786 C 0.59712 0.29518 0.57624 0.0
C787 C 0.64385 0.34319 0.57527 0.0
C788 C 0.66016 0.32825 0.54378 0.0
H789 H 0.60172 0.33926 0.61571 0.0
H790 H 0.65509 0.36761 0.5879 0.0
S791 S 0.62907 0.24537 0.49376 0.0
N792 N 0.59974 0.24945 0.52791 0.0
N793 N 0.65815 0.27984 0.49809 0.0
C794 C 0.64467 0.29642 0.52851 0.0
C795 C 0.61291 0.28004 0.54458 0.0
C796 C 0.19863 0.4669 0.09567 0.0
C797 C 0.22446 0.43856 0.0983 0.0
C798 C 0.18307 0.48239 0.12711 0.0
C799 C 0.19334 0.47059 0.16228 0.0
H800 H 0.18922 0.47616 0.06914 0.0
H801 H 0.16238 0.50334 0.12381 0.0
S802 S 0.26219 0.39927 0.18391 0.0
N803 N 0.26113 0.40063 0.13878 0.0
N804 N 0.2325 0.43031 0.19789 0.0
C805 C 0.22041 0.44347 0.16529 0.0
C806 C 0.2358 0.42728 0.13328 0.0
C807 C 0.33884 0.42999 0.86096 0.0
C808 C 0.32638 0.46347 0.84675 0.0
C809 C 0.32244 0.4142 0.8917 0.0
C810 C 0.29351 0.4317 0.90999 0.0
H811 H 0.36126 0.41559 0.84796 0.0
H812 H 0.33296 0.38829 0.90155 0.0
S813 S 0.25092 0.52003 0.88402 0.0
N814 N 0.28313 0.51358 0.85296 0.0
N815 N 0.25296 0.48438 0.91176 0.0
C816 C 0.28088 0.46536 0.89631 0.0
C817 C 0.2971 0.48109 0.86437 0.0
C818 C 0.32529 0.59203 0.61523 0.0
C819 C 0.29418 0.5769 0.59831 0.0
C820 C 0.34174 0.5749 0.64518 0.0
C821 C 0.32721 0.54243 0.65994 0.0
H822 H 0.33737 0.61713 0.60496 0.0
H823 H 0.36576 0.58758 0.6572 0.0
S824 S 0.24572 0.49201 0.62604 0.0
N825 N 0.24944 0.52749 0.59823 0.0
N826 N 0.27976 0.49581 0.65561 0.0
C827 C 0.29587 0.52713 0.64358 0.0
C828 C 0.27954 0.5442 0.61242 0.0
C829 C 0.18064 0.5357 0.38085 0.0
C830 C 0.18815 0.55022 0.34603 0.0
C831 C 0.19672 0.55063 0.41236 0.0
C832 C 0.22017 0.58116 0.41021 0.0
H833 H 0.16216 0.51262 0.38379 0.0
H834 H 0.18985 0.53885 0.43867 0.0
S835 S 0.24893 0.62907 0.32546 0.0
N836 N 0.22129 0.59619 0.31109 0.0
N837 N 0.25073 0.62494 0.37041 0.0
C838 C 0.22816 0.59574 0.37552 0.0
C839 C 0.21237 0.58006 0.34338 0.0
loop_
_geom_bond_atom_site_label_1
_geom_bond_atom_site_label_2
_geom_bond_distance
_geom_bond_site_symmetry_2
_ccdc_geom_bond_type
In0 O1 2.307 . S
In0 O2 2.345 . S
In0 O6 2.253 1_455 S
In0 O7 2.307 1_455 S
In0 O8 2.258 1_455 S
In0 O9 2.315 1_455 S
In0 O11 2.302 . S
In0 O12 2.337 . S
O1 In0 2.307 . S
O1 C10 1.240 . S
O2 In0 2.345 . S
O2 C10 1.252 . S
C3 O6 1.252 . S
C3 O7 1.260 . S
C4 O11 1.240 . S
C4 O12 1.252 . S
C5 O8 1.252 . S
C5 O9 1.260 . S
O6 In0 2.253 1_655 S
O6 C3 1.252 . S
O7 In0 2.307 1_655 S
O7 C3 1.260 . S
O8 In0 2.258 1_655 S
O8 C5 1.252 . S
O9 In0 2.315 1_655 S
O9 C5 1.260 . S
C10 O1 1.240 . S
C10 O2 1.252 . S
O11 In0 2.302 . S
O11 C4 1.240 . S
O12 In0 2.337 . S
O12 C4 1.252 . S
In13 O14 2.308 . S
In13 O15 2.348 . S
In13 O19 2.253 1_455 S
In13 O20 2.303 1_455 S
In13 O21 2.271 . S
In13 O22 2.336 . S
In13 O24 2.289 1_455 S
In13 O25 2.317 1_455 S
O14 In13 2.308 . S
O14 C23 1.240 . S
O15 In13 2.348 . S
O15 C23 1.252 . S
C16 O19 1.252 . S
C16 O20 1.260 . S
C17 O24 1.240 . S
C17 O25 1.252 . S
C18 O21 1.252 . S
C18 O22 1.260 . S
O19 In13 2.253 1_655 S
O19 C16 1.252 . S
O20 In13 2.303 1_655 S
O20 C16 1.260 . S
O21 In13 2.271 . S
O21 C18 1.252 . S
O22 In13 2.336 . S
O22 C18 1.260 . S
C23 O14 1.240 . S
C23 O15 1.252 . S
O24 In13 2.289 1_655 S
O24 C17 1.240 . S
O25 In13 2.317 1_655 S
O25 C17 1.252 . S
In26 O27 2.294 . S
In26 O28 2.326 . S
In26 O32 2.266 . S
In26 O33 2.326 . S
In26 O34 2.266 . S
In26 O35 2.326 . S
In26 O37 2.294 . S
In26 O38 2.326 . S
O27 In26 2.294 . S
O27 C36 1.240 . S
O28 In26 2.326 . S
O28 C36 1.252 . S
C29 O32 1.252 . S
C29 O33 1.260 . S
C30 O37 1.240 . S
C30 O38 1.252 . S
C31 O34 1.252 . S
C31 O35 1.260 . S
O32 In26 2.266 . S
O32 C29 1.252 . S
O33 In26 2.326 . S
O33 C29 1.260 . S
O34 In26 2.266 . S
O34 C31 1.252 . S
O35 In26 2.326 . S
O35 C31 1.260 . S
C36 O27 1.240 . S
C36 O28 1.252 . S
O37 In26 2.294 . S
O37 C30 1.240 . S
O38 In26 2.326 . S
O38 C30 1.252 . S
In39 O40 2.294 . S
In39 O41 2.326 . S
In39 O45 2.266 . S
In39 O46 2.326 . S
In39 O47 2.266 . S
In39 O48 2.326 . S
In39 O50 2.294 . S
In39 O51 2.326 . S
O40 In39 2.294 . S
O40 C49 1.240 . S
O41 In39 2.326 . S
O41 C49 1.252 . S
C42 O45 1.252 . S
C42 O46 1.260 . S
C43 O50 1.240 . S
C43 O51 1.252 . S
C44 O47 1.252 . S
C44 O48 1.260 . S
O45 In39 2.266 . S
O45 C42 1.252 . S
O46 In39 2.326 . S
O46 C42 1.260 . S
O47 In39 2.266 . S
O47 C44 1.252 . S
O48 In39 2.326 . S
O48 C44 1.260 . S
C49 O40 1.240 . S
C49 O41 1.252 . S
O50 In39 2.294 . S
O50 C43 1.240 . S
O51 In39 2.326 . S
O51 C43 1.252 . S
In52 O53 2.302 . S
In52 O54 2.337 . S
In52 O58 2.258 1_455 S
In52 O59 2.315 1_455 S
In52 O60 2.253 1_455 S
In52 O61 2.306 1_455 S
In52 O63 2.307 . S
In52 O64 2.346 . S
O53 In52 2.302 . S
O53 C62 1.240 . S
O54 In52 2.337 . S
O54 C62 1.252 . S
C55 O58 1.252 . S
C55 O59 1.260 . S
C56 O63 1.240 . S
C56 O64 1.252 . S
C57 O60 1.252 . S
C57 O61 1.260 . S
O58 In52 2.258 1_655 S
O58 C55 1.252 . S
O59 In52 2.315 1_655 S
O59 C55 1.260 . S
O60 In52 2.253 1_655 S
O60 C57 1.252 . S
O61 In52 2.306 1_655 S
O61 C57 1.260 . S
C62 O53 1.240 . S
C62 O54 1.252 . S
O63 In52 2.307 . S
O63 C56 1.240 . S
O64 In52 2.346 . S
O64 C56 1.252 . S
In65 O66 2.294 . S
In65 O67 2.326 . S
In65 O71 2.266 . S
In65 O72 2.326 . S
In65 O73 2.266 . S
In65 O74 2.326 . S
In65 O76 2.294 . S
In65 O77 2.326 . S
O66 In65 2.294 . S
O66 C75 1.240 . S
O67 In65 2.326 . S
O67 C75 1.252 . S
C68 O71 1.252 . S
C68 O72 1.260 . S
C69 O76 1.240 . S
C69 O77 1.252 . S
C70 O73 1.252 . S
C70 O74 1.260 . S
O71 In65 2.266 . S
O71 C68 1.252 . S
O72 In65 2.326 . S
O72 C68 1.260 . S
O73 In65 2.266 . S
O73 C70 1.252 . S
O74 In65 2.326 . S
O74 C70 1.260 . S
C75 O66 1.240 . S
C75 O67 1.252 . S
O76 In65 2.294 . S
O76 C69 1.240 . S
O77 In65 2.326 . S
O77 C69 1.252 . S
In78 O79 2.294 . S
In78 O80 2.326 . S
In78 O84 2.266 . S
In78 O85 2.326 . S
In78 O86 2.266 . S
In78 O87 2.326 . S
In78 O89 2.294 . S
In78 O90 2.326 . S
O79 In78 2.294 . S
O79 C88 1.240 . S
O80 In78 2.326 . S
O80 C88 1.252 . S
C81 O84 1.252 . S
C81 O85 1.260 . S
C82 O89 1.240 . S
C82 O90 1.252 . S
C83 O86 1.252 . S
C83 O87 1.260 . S
O84 In78 2.266 . S
O84 C81 1.252 . S
O85 In78 2.326 . S
O85 C81 1.260 . S
O86 In78 2.266 . S
O86 C83 1.252 . S
O87 In78 2.326 . S
O87 C83 1.260 . S
C88 O79 1.240 . S
C88 O80 1.252 . S
O89 In78 2.294 . S
O89 C82 1.240 . S
O90 In78 2.326 . S
O90 C82 1.252 . S
In91 O92 2.289 1_455 S
In91 O93 2.318 1_455 S
In91 O97 2.271 . S
In91 O98 2.334 . S
In91 O99 2.265 1_455 S
In91 O100 2.322 1_455 S
In91 O102 2.296 . S
In91 O103 2.330 . S
O92 In91 2.289 1_655 S
O92 C101 1.240 . S
O93 In91 2.318 1_655 S
O93 C101 1.252 . S
C94 O97 1.252 . S
C94 O98 1.260 . S
C95 O102 1.240 . S
C95 O103 1.252 . S
C96 O99 1.252 . S
C96 O100 1.260 . S
O97 In91 2.271 . S
O97 C94 1.252 . S
O98 In91 2.334 . S
O98 C94 1.260 . S
O99 In91 2.265 1_655 S
O99 C96 1.252 . S
O100 In91 2.322 1_655 S
O100 C96 1.260 . S
C101 O92 1.240 . S
C101 O93 1.252 . S
O102 In91 2.296 . S
O102 C95 1.240 . S
O103 In91 2.330 . S
O103 C95 1.252 . S
In104 O105 2.302 . S
In104 O106 2.337 . S
In104 O110 2.258 1_545 S
In104 O111 2.315 1_545 S
In104 O112 2.253 1_545 S
In104 O113 2.307 1_545 S
In104 O115 2.307 . S
In104 O116 2.345 . S
O105 In104 2.302 . S
O105 C114 1.240 . S
O106 In104 2.337 . S
O106 C114 1.252 . S
C107 O110 1.252 . S
C107 O111 1.260 . S
C108 O115 1.240 . S
C108 O116 1.252 . S
C109 O112 1.252 . S
C109 O113 1.260 . S
O110 In104 2.258 1_565 S
O110 C107 1.252 . S
O111 In104 2.315 1_565 S
O111 C107 1.260 . S
O112 In104 2.253 1_565 S
O112 C109 1.252 . S
O113 In104 2.307 1_565 S
O113 C109 1.260 . S
C114 O105 1.240 . S
C114 O106 1.252 . S
O115 In104 2.307 . S
O115 C108 1.240 . S
O116 In104 2.345 . S
O116 C108 1.252 . S
In117 O118 2.294 . S
In117 O119 2.326 . S
In117 O123 2.266 . S
In117 O124 2.326 . S
In117 O125 2.266 . S
In117 O126 2.326 . S
In117 O128 2.294 . S
In117 O129 2.326 . S
O118 In117 2.294 . S
O118 C127 1.240 . S
O119 In117 2.326 . S
O119 C127 1.252 . S
C120 O123 1.252 . S
C120 O124 1.260 . S
C121 O128 1.240 . S
C121 O129 1.252 . S
C122 O125 1.252 . S
C122 O126 1.260 . S
O123 In117 2.266 . S
O123 C120 1.252 . S
O124 In117 2.326 . S
O124 C120 1.260 . S
O125 In117 2.266 . S
O125 C122 1.252 . S
O126 In117 2.326 . S
O126 C122 1.260 . S
C127 O118 1.240 . S
C127 O119 1.252 . S
O128 In117 2.294 . S
O128 C121 1.240 . S
O129 In117 2.326 . S
O129 C121 1.252 . S
In130 O131 2.307 . S
In130 O132 2.346 . S
In130 O136 2.253 1_545 S
In130 O137 2.306 1_545 S
In130 O138 2.258 1_545 S
In130 O139 2.315 1_545 S
In130 O141 2.302 . S
In130 O142 2.337 . S
O131 In130 2.307 . S
O131 C140 1.240 . S
O132 In130 2.346 . S
O132 C140 1.252 . S
C133 O136 1.252 . S
C133 O137 1.260 . S
C134 O141 1.240 . S
C134 O142 1.252 . S
C135 O138 1.252 . S
C135 O139 1.260 . S
O136 In130 2.253 1_565 S
O136 C133 1.252 . S
O137 In130 2.306 1_565 S
O137 C133 1.260 . S
O138 In130 2.258 1_565 S
O138 C135 1.252 . S
O139 In130 2.315 1_565 S
O139 C135 1.260 . S
C140 O131 1.240 . S
C140 O132 1.252 . S
O141 In130 2.302 . S
O141 C134 1.240 . S
O142 In130 2.337 . S
O142 C134 1.252 . S
In143 O144 2.296 . S
In143 O145 2.330 . S
In143 O149 2.265 1_554 S
In143 O150 2.322 1_554 S
In143 O151 2.271 . S
In143 O152 2.334 . S
In143 O154 2.289 1_554 S
In143 O155 2.318 1_554 S
O144 In143 2.296 . S
O144 C153 1.240 . S
O145 In143 2.330 . S
O145 C153 1.252 . S
C146 O149 1.252 . S
C146 O150 1.260 . S
C147 O154 1.240 . S
C147 O155 1.252 . S
C148 O151 1.252 . S
C148 O152 1.260 . S
O149 In143 2.265 1_556 S
O149 C146 1.252 . S
O150 In143 2.322 1_556 S
O150 C146 1.260 . S
O151 In143 2.271 . S
O151 C148 1.252 . S
O152 In143 2.334 . S
O152 C148 1.260 . S
C153 O144 1.240 . S
C153 O145 1.252 . S
O154 In143 2.289 1_556 S
O154 C147 1.240 . S
O155 In143 2.318 1_556 S
O155 C147 1.252 . S
In156 O157 2.307 . S
In156 O158 2.345 . S
In156 O162 2.253 1_554 S
In156 O163 2.307 1_554 S
In156 O164 2.258 1_554 S
In156 O165 2.315 1_554 S
In156 O167 2.302 . S
In156 O168 2.337 . S
O157 In156 2.307 . S
O157 C166 1.240 . S
O158 In156 2.345 . S
O158 C166 1.252 . S
C159 O162 1.252 . S
C159 O163 1.260 . S
C160 O167 1.240 . S
C160 O168 1.252 . S
C161 O164 1.252 . S
C161 O165 1.260 . S
O162 In156 2.253 1_556 S
O162 C159 1.252 . S
O163 In156 2.307 1_556 S
O163 C159 1.260 . S
O164 In156 2.258 1_556 S
O164 C161 1.252 . S
O165 In156 2.315 1_556 S
O165 C161 1.260 . S
C166 O157 1.240 . S
C166 O158 1.252 . S
O167 In156 2.302 . S
O167 C160 1.240 . S
O168 In156 2.337 . S
O168 C160 1.252 . S
In169 O170 2.307 . S
In169 O171 2.346 . S
In169 O175 2.253 1_554 S
In169 O176 2.306 1_554 S
In169 O177 2.258 1_554 S
In169 O178 2.315 1_554 S
In169 O180 2.302 . S
In169 O181 2.337 . S
O170 In169 2.307 . S
O170 C179 1.240 . S
O171 In169 2.346 . S
O171 C179 1.252 . S
C172 O175 1.252 . S
C172 O176 1.260 . S
C173 O180 1.240 . S
C173 O181 1.252 . S
C174 O177 1.252 . S
C174 O178 1.260 . S
O175 In169 2.253 1_556 S
O175 C172 1.252 . S
O176 In169 2.306 1_556 S
O176 C172 1.260 . S
O177 In169 2.258 1_556 S
O177 C174 1.252 . S
O178 In169 2.315 1_556 S
O178 C174 1.260 . S
C179 O170 1.240 . S
C179 O171 1.252 . S
O180 In169 2.302 . S
O180 C173 1.240 . S
O181 In169 2.337 . S
O181 C173 1.252 . S
In182 O183 2.294 . S
In182 O184 2.326 . S
In182 O188 2.266 . S
In182 O189 2.326 . S
In182 O190 2.266 . S
In182 O191 2.326 . S
In182 O193 2.294 . S
In182 O194 2.326 . S
O183 In182 2.294 . S
O183 C192 1.240 . S
O184 In182 2.326 . S
O184 C192 1.252 . S
C185 O188 1.252 . S
C185 O189 1.260 . S
C186 O193 1.240 . S
C186 O194 1.252 . S
C187 O190 1.252 . S
C187 O191 1.260 . S
O188 In182 2.266 . S
O188 C185 1.252 . S
O189 In182 2.326 . S
O189 C185 1.260 . S
O190 In182 2.266 . S
O190 C187 1.252 . S
O191 In182 2.326 . S
O191 C187 1.260 . S
C192 O183 1.240 . S
C192 O184 1.252 . S
O193 In182 2.294 . S
O193 C186 1.240 . S
O194 In182 2.326 . S
O194 C186 1.252 . S
In195 O196 2.294 . S
In195 O197 2.326 . S
In195 O201 2.266 . S
In195 O202 2.326 . S
In195 O203 2.266 . S
In195 O204 2.326 . S
In195 O206 2.294 . S
In195 O207 2.326 . S
O196 In195 2.294 . S
O196 C205 1.240 . S
O197 In195 2.326 . S
O197 C205 1.252 . S
C198 O201 1.252 . S
C198 O202 1.260 . S
C199 O206 1.240 . S
C199 O207 1.252 . S
C200 O203 1.252 . S
C200 O204 1.260 . S
O201 In195 2.266 . S
O201 C198 1.252 . S
O202 In195 2.326 . S
O202 C198 1.260 . S
O203 In195 2.266 . S
O203 C200 1.252 . S
O204 In195 2.326 . S
O204 C200 1.260 . S
C205 O196 1.240 . S
C205 O197 1.252 . S
O206 In195 2.294 . S
O206 C199 1.240 . S
O207 In195 2.326 . S
O207 C199 1.252 . S
In208 O209 2.296 . S
In208 O210 2.330 . S
In208 O214 2.265 1_545 S
In208 O215 2.322 1_545 S
In208 O216 2.271 . S
In208 O217 2.334 . S
In208 O219 2.289 1_545 S
In208 O220 2.318 1_545 S
O209 In208 2.296 . S
O209 C218 1.240 . S
O210 In208 2.330 . S
O210 C218 1.252 . S
C211 O214 1.252 . S
C211 O215 1.260 . S
C212 O219 1.240 . S
C212 O220 1.252 . S
C213 O216 1.252 . S
C213 O217 1.260 . S
O214 In208 2.265 1_565 S
O214 C211 1.252 . S
O215 In208 2.322 1_565 S
O215 C211 1.260 . S
O216 In208 2.271 . S
O216 C213 1.252 . S
O217 In208 2.334 . S
O217 C213 1.260 . S
C218 O209 1.240 . S
C218 O210 1.252 . S
O219 In208 2.289 1_565 S
O219 C212 1.240 . S
O220 In208 2.318 1_565 S
O220 C212 1.252 . S
In221 O222 2.294 . S
In221 O223 2.326 . S
In221 O227 2.266 . S
In221 O228 2.326 . S
In221 O229 2.266 . S
In221 O230 2.326 . S
In221 O232 2.294 . S
In221 O233 2.326 . S
O222 In221 2.294 . S
O222 C231 1.240 . S
O223 In221 2.326 . S
O223 C231 1.252 . S
C224 O227 1.252 . S
C224 O228 1.260 . S
C225 O232 1.240 . S
C225 O233 1.252 . S
C226 O229 1.252 . S
C226 O230 1.260 . S
O227 In221 2.266 . S
O227 C224 1.252 . S
O228 In221 2.326 . S
O228 C224 1.260 . S
O229 In221 2.266 . S
O229 C226 1.252 . S
O230 In221 2.326 . S
O230 C226 1.260 . S
C231 O222 1.240 . S
C231 O223 1.252 . S
O232 In221 2.294 . S
O232 C225 1.240 . S
O233 In221 2.326 . S
O233 C225 1.252 . S
In234 O235 2.294 . S
In234 O236 2.326 . S
In234 O240 2.266 . S
In234 O241 2.326 . S
In234 O242 2.266 . S
In234 O243 2.326 . S
In234 O245 2.294 . S
In234 O246 2.326 . S
O235 In234 2.294 . S
O235 C244 1.240 . S
O236 In234 2.326 . S
O236 C244 1.252 . S
C237 O240 1.252 . S
C237 O241 1.260 . S
C238 O245 1.240 . S
C238 O246 1.252 . S
C239 O242 1.252 . S
C239 O243 1.260 . S
O240 In234 2.266 . S
O240 C237 1.252 . S
O241 In234 2.326 . S
O241 C237 1.260 . S
O242 In234 2.266 . S
O242 C239 1.252 . S
O243 In234 2.326 . S
O243 C239 1.260 . S
C244 O235 1.240 . S
C244 O236 1.252 . S
O245 In234 2.294 . S
O245 C238 1.240 . S
O246 In234 2.326 . S
O246 C238 1.252 . S
In247 O248 2.289 1_545 S
In247 O249 2.317 1_545 S
In247 O253 2.271 . S
In247 O254 2.336 . S
In247 O255 2.253 1_545 S
In247 O256 2.303 1_545 S
In247 O258 2.308 . S
In247 O259 2.348 . S
O248 In247 2.289 1_565 S
O248 C257 1.240 . S
O249 In247 2.317 1_565 S
O249 C257 1.252 . S
C250 O253 1.252 . S
C250 O254 1.260 . S
C251 O258 1.240 . S
C251 O259 1.252 . S
C252 O255 1.252 . S
C252 O256 1.260 . S
O253 In247 2.271 . S
O253 C250 1.252 . S
O254 In247 2.336 . S
O254 C250 1.260 . S
O255 In247 2.253 1_565 S
O255 C252 1.252 . S
O256 In247 2.303 1_565 S
O256 C252 1.260 . S
C257 O248 1.240 . S
C257 O249 1.252 . S
O258 In247 2.308 . S
O258 C251 1.240 . S
O259 In247 2.348 . S
O259 C251 1.252 . S
In260 O261 2.308 . S
In260 O262 2.348 . S
In260 O266 2.253 1_554 S
In260 O267 2.303 1_554 S
In260 O268 2.271 . S
In260 O269 2.336 . S
In260 O271 2.289 1_554 S
In260 O272 2.317 1_554 S
O261 In260 2.308 . S
O261 C270 1.240 . S
O262 In260 2.348 . S
O262 C270 1.252 . S
C263 O266 1.252 . S
C263 O267 1.260 . S
C264 O271 1.240 . S
C264 O272 1.252 . S
C265 O268 1.252 . S
C265 O269 1.260 . S
O266 In260 2.253 1_556 S
O266 C263 1.252 . S
O267 In260 2.303 1_556 S
O267 C263 1.260 . S
O268 In260 2.271 . S
O268 C265 1.252 . S
O269 In260 2.336 . S
O269 C265 1.260 . S
C270 O261 1.240 . S
C270 O262 1.252 . S
O271 In260 2.289 1_556 S
O271 C264 1.240 . S
O272 In260 2.317 1_556 S
O272 C264 1.252 . S
In273 O274 2.294 . S
In273 O275 2.326 . S
In273 O279 2.266 . S
In273 O280 2.326 . S
In273 O281 2.266 . S
In273 O282 2.326 . S
In273 O284 2.294 . S
In273 O285 2.326 . S
O274 In273 2.294 . S
O274 C283 1.240 . S
O275 In273 2.326 . S
O275 C283 1.252 . S
C276 O279 1.252 . S
C276 O280 1.260 . S
C277 O284 1.240 . S
C277 O285 1.252 . S
C278 O281 1.252 . S
C278 O282 1.260 . S
O279 In273 2.266 . S
O279 C276 1.252 . S
O280 In273 2.326 . S
O280 C276 1.260 . S
O281 In273 2.266 . S
O281 C278 1.252 . S
O282 In273 2.326 . S
O282 C278 1.260 . S
C283 O274 1.240 . S
C283 O275 1.252 . S
O284 In273 2.294 . S
O284 C277 1.240 . S
O285 In273 2.326 . S
O285 C277 1.252 . S
In286 O287 2.294 . S
In286 O288 2.326 . S
In286 O292 2.266 . S
In286 O293 2.326 . S
In286 O294 2.266 . S
In286 O295 2.326 . S
In286 O297 2.294 . S
In286 O298 2.326 . S
O287 In286 2.294 . S
O287 C296 1.240 . S
O288 In286 2.326 . S
O288 C296 1.252 . S
C289 O292 1.252 . S
C289 O293 1.260 . S
C290 O297 1.240 . S
C290 O298 1.252 . S
C291 O294 1.252 . S
C291 O295 1.260 . S
O292 In286 2.266 . S
O292 C289 1.252 . S
O293 In286 2.326 . S
O293 C289 1.260 . S
O294 In286 2.266 . S
O294 C291 1.252 . S
O295 In286 2.326 . S
O295 C291 1.260 . S
C296 O287 1.240 . S
C296 O288 1.252 . S
O297 In286 2.294 . S
O297 C290 1.240 . S
O298 In286 2.326 . S
O298 C290 1.252 . S
In299 O300 2.294 . S
In299 O301 2.326 . S
In299 O305 2.266 . S
In299 O306 2.326 . S
In299 O307 2.266 . S
In299 O308 2.326 . S
In299 O310 2.294 . S
In299 O311 2.326 . S
O300 In299 2.294 . S
O300 C309 1.240 . S
O301 In299 2.326 . S
O301 C309 1.252 . S
C302 O305 1.252 . S
C302 O306 1.260 . S
C303 O310 1.240 . S
C303 O311 1.252 . S
C304 O307 1.252 . S
C304 O308 1.260 . S
O305 In299 2.266 . S
O305 C302 1.252 . S
O306 In299 2.326 . S
O306 C302 1.260 . S
O307 In299 2.266 . S
O307 C304 1.252 . S
O308 In299 2.326 . S
O308 C304 1.260 . S
C309 O300 1.240 . S
C309 O301 1.252 . S
O310 In299 2.294 . S
O310 C303 1.240 . S
O311 In299 2.326 . S
O311 C303 1.252 . S
C312 C313 1.369 . S
C312 C314 1.419 . S
C312 H316 0.930 . S
C313 C312 1.369 . S
C313 C322 1.429 . S
C314 C312 1.419 . S
C314 C315 1.363 . S
C314 H317 0.929 . S
C315 C314 1.363 . S
C315 C321 1.428 . S
H316 C312 0.930 . S
H317 C314 0.929 . S
S318 N319 1.613 . S
S318 N320 1.610 . S
N319 S318 1.613 . S
N319 C322 1.350 . S
N320 S318 1.610 . S
N320 C321 1.351 . S
C321 C315 1.428 . S
C321 N320 1.351 . S
C321 C322 1.434 . S
C322 C313 1.429 . S
C322 N319 1.350 . S
C322 C321 1.434 . S
C323 C324 1.369 . S
C323 C325 1.419 . S
C323 H327 0.930 . S
C324 C323 1.369 . S
C324 C333 1.429 . S
C325 C323 1.419 . S
C325 C326 1.363 . S
C325 H328 0.929 . S
C326 C325 1.363 . S
C326 C332 1.428 . S
H327 C323 0.930 . S
H328 C325 0.929 . S
S329 N330 1.613 . S
S329 N331 1.610 . S
N330 S329 1.613 . S
N330 C333 1.350 . S
N331 S329 1.610 . S
N331 C332 1.351 . S
C332 C326 1.428 . S
C332 N331 1.351 . S
C332 C333 1.434 . S
C333 C324 1.429 . S
C333 N330 1.350 . S
C333 C332 1.434 . S
C334 C335 1.369 . S
C334 C336 1.419 . S
C334 H338 0.930 . S
C335 C334 1.369 . S
C335 C344 1.429 . S
C336 C334 1.419 . S
C336 C337 1.363 . S
C336 H339 0.929 . S
C337 C336 1.363 . S
C337 C343 1.428 . S
H338 C334 0.930 . S
H339 C336 0.929 . S
S340 N341 1.613 . S
S340 N342 1.610 . S
N341 S340 1.613 . S
N341 C344 1.350 . S
N342 S340 1.610 . S
N342 C343 1.351 . S
C343 C337 1.428 . S
C343 N342 1.351 . S
C343 C344 1.434 . S
C344 C335 1.429 . S
C344 N341 1.350 . S
C344 C343 1.434 . S
C345 C346 1.369 . S
C345 C347 1.419 . S
C345 H349 0.930 . S
C346 C345 1.369 . S
C346 C355 1.429 . S
C347 C345 1.419 . S
C347 C348 1.363 . S
C347 H350 0.929 . S
C348 C347 1.363 . S
C348 C354 1.428 . S
H349 C345 0.930 . S
H350 C347 0.929 . S
S351 N352 1.613 . S
S351 N353 1.610 . S
N352 S351 1.613 . S
N352 C355 1.350 . S
N353 S351 1.610 . S
N353 C354 1.351 . S
C354 C348 1.428 . S
C354 N353 1.351 . S
C354 C355 1.434 . S
C355 C346 1.429 . S
C355 N352 1.350 . S
C355 C354 1.434 . S
C356 C357 1.369 . S
C356 C358 1.419 . S
C356 H360 0.930 . S
C357 C356 1.369 . S
C357 C366 1.429 . S
C358 C356 1.419 . S
C358 C359 1.363 . S
C358 H361 0.929 . S
C359 C358 1.363 . S
C359 C365 1.428 . S
H360 C356 0.930 . S
H361 C358 0.929 . S
S362 N363 1.613 . S
S362 N364 1.610 . S
N363 S362 1.613 . S
N363 C366 1.350 . S
N364 S362 1.610 . S
N364 C365 1.351 . S
C365 C359 1.428 . S
C365 N364 1.351 . S
C365 C366 1.434 . S
C366 C357 1.429 . S
C366 N363 1.350 . S
C366 C365 1.434 . S
C367 C368 1.369 . S
C367 C369 1.419 . S
C367 H371 0.930 . S
C368 C367 1.369 . S
C368 C377 1.429 . S
C369 C367 1.419 . S
C369 C370 1.363 . S
C369 H372 0.929 . S
C370 C369 1.363 . S
C370 C376 1.428 . S
H371 C367 0.930 . S
H372 C369 0.929 . S
S373 N374 1.613 . S
S373 N375 1.610 . S
N374 S373 1.613 . S
N374 C377 1.350 . S
N375 S373 1.610 . S
N375 C376 1.351 . S
C376 C370 1.428 . S
C376 N375 1.351 . S
C376 C377 1.434 . S
C377 C368 1.429 . S
C377 N374 1.350 . S
C377 C376 1.434 . S
C378 C379 1.369 . S
C378 C380 1.419 . S
C378 H382 0.930 . S
C379 C378 1.369 . S
C379 C388 1.429 . S
C380 C378 1.419 . S
C380 C381 1.363 . S
C380 H383 0.929 . S
C381 C380 1.363 . S
C381 C387 1.428 . S
H382 C378 0.930 . S
H383 C380 0.929 . S
S384 N385 1.613 . S
S384 N386 1.610 . S
N385 S384 1.613 . S
N385 C388 1.350 . S
N386 S384 1.610 . S
N386 C387 1.351 . S
C387 C381 1.428 . S
C387 N386 1.351 . S
C387 C388 1.434 . S
C388 C379 1.429 . S
C388 N385 1.350 . S
C388 C387 1.434 . S
C389 C390 1.369 . S
C389 C391 1.419 . S
C389 H393 0.930 . S
C390 C389 1.369 . S
C390 C399 1.429 . S
C391 C389 1.419 . S
C391 C392 1.363 . S
C391 H394 0.929 . S
C392 C391 1.363 . S
C392 C398 1.428 . S
H393 C389 0.930 . S
H394 C391 0.929 . S
S395 N396 1.613 . S
S395 N397 1.610 . S
N396 S395 1.613 . S
N396 C399 1.350 . S
N397 S395 1.610 . S
N397 C398 1.351 . S
C398 C392 1.428 . S
C398 N397 1.351 . S
C398 C399 1.434 . S
C399 C390 1.429 . S
C399 N396 1.350 . S
C399 C398 1.434 . S
C400 C401 1.369 . S
C400 C402 1.419 . S
C400 H404 0.930 . S
C401 C400 1.369 . S
C401 C410 1.429 . S
C402 C400 1.419 . S
C402 C403 1.363 . S
C402 H405 0.929 . S
C403 C402 1.363 . S
C403 C409 1.428 . S
H404 C400 0.930 . S
H405 C402 0.929 . S
S406 N407 1.613 . S
S406 N408 1.610 . S
N407 S406 1.613 . S
N407 C410 1.350 . S
N408 S406 1.610 . S
N408 C409 1.351 . S
C409 C403 1.428 . S
C409 N408 1.351 . S
C409 C410 1.434 . S
C410 C401 1.429 . S
C410 N407 1.350 . S
C410 C409 1.434 . S
C411 C412 1.369 . S
C411 C413 1.419 . S
C411 H415 0.930 . S
C412 C411 1.369 . S
C412 C421 1.429 . S
C413 C411 1.419 . S
C413 C414 1.363 . S
C413 H416 0.929 . S
C414 C413 1.363 . S
C414 C420 1.428 . S
H415 C411 0.930 . S
H416 C413 0.929 . S
S417 N418 1.613 . S
S417 N419 1.610 . S
N418 S417 1.613 . S
N418 C421 1.350 . S
N419 S417 1.610 . S
N419 C420 1.351 . S
C420 C414 1.428 . S
C420 N419 1.351 . S
C420 C421 1.434 . S
C421 C412 1.429 . S
C421 N418 1.350 . S
C421 C420 1.434 . S
C422 C423 1.369 . S
C422 C424 1.419 . S
C422 H426 0.930 . S
C423 C422 1.369 . S
C423 C432 1.429 . S
C424 C422 1.419 . S
C424 C425 1.363 . S
C424 H427 0.929 . S
C425 C424 1.363 . S
C425 C431 1.428 . S
H426 C422 0.930 . S
H427 C424 0.929 . S
S428 N429 1.613 . S
S428 N430 1.610 . S
N429 S428 1.613 . S
N429 C432 1.350 . S
N430 S428 1.610 . S
N430 C431 1.351 . S
C431 C425 1.428 . S
C431 N430 1.351 . S
C431 C432 1.434 . S
C432 C423 1.429 . S
C432 N429 1.350 . S
C432 C431 1.434 . S
C433 C434 1.369 . S
C433 C435 1.419 . S
C433 H437 0.930 . S
C434 C433 1.369 . S
C434 C443 1.429 . S
C435 C433 1.419 . S
C435 C436 1.363 . S
C435 H438 0.929 . S
C436 C435 1.363 . S
C436 C442 1.428 . S
H437 C433 0.930 . S
H438 C435 0.929 . S
S439 N440 1.613 . S
S439 N441 1.610 . S
N440 S439 1.613 . S
N440 C443 1.350 . S
N441 S439 1.610 . S
N441 C442 1.351 . S
C442 C436 1.428 . S
C442 N441 1.351 . S
C442 C443 1.434 . S
C443 C434 1.429 . S
C443 N440 1.350 . S
C443 C442 1.434 . S
C444 C445 1.369 . S
C444 C446 1.419 . S
C444 H448 0.930 . S
C445 C444 1.369 . S
C445 C454 1.429 . S
C446 C444 1.419 . S
C446 C447 1.363 . S
C446 H449 0.929 . S
C447 C446 1.363 . S
C447 C453 1.428 . S
H448 C444 0.930 . S
H449 C446 0.929 . S
S450 N451 1.613 . S
S450 N452 1.610 . S
N451 S450 1.613 . S
N451 C454 1.350 . S
N452 S450 1.610 . S
N452 C453 1.351 . S
C453 C447 1.428 . S
C453 N452 1.351 . S
C453 C454 1.434 . S
C454 C445 1.429 . S
C454 N451 1.350 . S
C454 C453 1.434 . S
C455 C456 1.369 . S
C455 C457 1.419 . S
C455 H459 0.930 . S
C456 C455 1.369 . S
C456 C465 1.429 . S
C457 C455 1.419 . S
C457 C458 1.363 . S
C457 H460 0.929 . S
C458 C457 1.363 . S
C458 C464 1.428 . S
H459 C455 0.930 . S
H460 C457 0.929 . S
S461 N462 1.613 . S
S461 N463 1.610 . S
N462 S461 1.613 . S
N462 C465 1.350 . S
N463 S461 1.610 . S
N463 C464 1.351 . S
C464 C458 1.428 . S
C464 N463 1.351 . S
C464 C465 1.434 . S
C465 C456 1.429 . S
C465 N462 1.350 . S
C465 C464 1.434 . S
C466 C467 1.369 . S
C466 C468 1.419 . S
C466 H470 0.930 . S
C467 C466 1.369 . S
C467 C476 1.429 . S
C468 C466 1.419 . S
C468 C469 1.363 . S
C468 H471 0.929 . S
C469 C468 1.363 . S
C469 C475 1.428 . S
H470 C466 0.930 . S
H471 C468 0.929 . S
S472 N473 1.613 . S
S472 N474 1.610 . S
N473 S472 1.613 . S
N473 C476 1.350 . S
N474 S472 1.610 . S
N474 C475 1.351 . S
C475 C469 1.428 . S
C475 N474 1.351 . S
C475 C476 1.434 . S
C476 C467 1.429 . S
C476 N473 1.350 . S
C476 C475 1.434 . S
C477 C478 1.369 . S
C477 C479 1.419 . S
C477 H481 0.930 1_655 S
C478 C477 1.369 . S
C478 C487 1.429 . S
C479 C477 1.419 . S
C479 C480 1.363 . S
C479 H482 0.929 . S
C480 C479 1.363 . S
C480 C486 1.428 . S
H481 C477 0.930 1_455 S
H482 C479 0.929 . S
S483 N484 1.613 . S
S483 N485 1.610 . S
N484 S483 1.613 . S
N484 C487 1.350 . S
N485 S483 1.610 . S
N485 C486 1.351 . S
C486 C480 1.428 . S
C486 N485 1.351 . S
C486 C487 1.434 . S
C487 C478 1.429 . S
C487 N484 1.350 . S
C487 C486 1.434 . S
C488 C489 1.369 . S
C488 C490 1.419 . S
C488 H492 0.930 . S
C489 C488 1.369 . S
C489 C498 1.429 . S
C490 C488 1.419 . S
C490 C491 1.363 . S
C490 H493 0.929 . S
C491 C490 1.363 . S
C491 C497 1.428 . S
H492 C488 0.930 . S
H493 C490 0.929 . S
S494 N495 1.613 . S
S494 N496 1.610 . S
N495 S494 1.613 . S
N495 C498 1.350 . S
N496 S494 1.610 . S
N496 C497 1.351 . S
C497 C491 1.428 . S
C497 N496 1.351 . S
C497 C498 1.434 . S
C498 C489 1.429 . S
C498 N495 1.350 . S
C498 C497 1.434 . S
C499 C500 1.369 . S
C499 C501 1.419 . S
C499 H503 0.930 . S
C500 C499 1.369 . S
C500 C509 1.429 . S
C501 C499 1.419 . S
C501 C502 1.363 . S
C501 H504 0.929 . S
C502 C501 1.363 . S
C502 C508 1.428 . S
H503 C499 0.930 . S
H504 C501 0.929 . S
S505 N506 1.613 . S
S505 N507 1.610 . S
N506 S505 1.613 . S
N506 C509 1.350 . S
N507 S505 1.610 . S
N507 C508 1.351 . S
C508 C502 1.428 . S
C508 N507 1.351 . S
C508 C509 1.434 . S
C509 C500 1.429 . S
C509 N506 1.350 . S
C509 C508 1.434 . S
C510 C511 1.369 . S
C510 C512 1.419 . S
C510 H514 0.930 . S
C511 C510 1.369 . S
C511 C520 1.429 . S
C512 C510 1.419 . S
C512 C513 1.363 . S
C512 H515 0.929 . S
C513 C512 1.363 . S
C513 C519 1.428 . S
H514 C510 0.930 . S
H515 C512 0.929 . S
S516 N517 1.613 . S
S516 N518 1.610 . S
N517 S516 1.613 . S
N517 C520 1.350 . S
N518 S516 1.610 . S
N518 C519 1.351 . S
C519 C513 1.428 . S
C519 N518 1.351 . S
C519 C520 1.434 . S
C520 C511 1.429 . S
C520 N517 1.350 . S
C520 C519 1.434 . S
C521 C522 1.369 . S
C521 C523 1.419 . S
C521 H525 0.930 . S
C522 C521 1.369 . S
C522 C531 1.429 . S
C523 C521 1.419 . S
C523 C524 1.363 . S
C523 H526 0.929 . S
C524 C523 1.363 . S
C524 C530 1.428 . S
H525 C521 0.930 . S
H526 C523 0.929 . S
S527 N528 1.613 1_455 S
S527 N529 1.610 . S
N528 S527 1.613 1_655 S
N528 C531 1.350 . S
N529 S527 1.610 . S
N529 C530 1.351 1_455 S
C530 C524 1.428 . S
C530 N529 1.351 1_655 S
C530 C531 1.434 . S
C531 C522 1.429 . S
C531 N528 1.350 . S
C531 C530 1.434 . S
C532 C533 1.369 . S
C532 C534 1.419 . S
C532 H536 0.930 . S
C533 C532 1.369 . S
C533 C542 1.429 . S
C534 C532 1.419 . S
C534 C535 1.363 . S
C534 H537 0.929 . S
C535 C534 1.363 . S
C535 C541 1.428 . S
H536 C532 0.930 . S
H537 C534 0.929 . S
S538 N539 1.613 . S
S538 N540 1.610 . S
N539 S538 1.613 . S
N539 C542 1.350 . S
N540 S538 1.610 . S
N540 C541 1.351 . S
C541 C535 1.428 . S
C541 N540 1.351 . S
C541 C542 1.434 . S
C542 C533 1.429 . S
C542 N539 1.350 . S
C542 C541 1.434 . S
C543 C544 1.369 . S
C543 C545 1.419 . S
C543 H547 0.930 . S
C544 C543 1.369 . S
C544 C553 1.429 . S
C545 C543 1.419 . S
C545 C546 1.363 . S
C545 H548 0.929 . S
C546 C545 1.363 . S
C546 C552 1.428 . S
H547 C543 0.930 . S
H548 C545 0.929 . S
S549 N550 1.613 . S
S549 N551 1.610 . S
N550 S549 1.613 . S
N550 C553 1.350 . S
N551 S549 1.610 . S
N551 C552 1.351 . S
C552 C546 1.428 . S
C552 N551 1.351 . S
C552 C553 1.434 . S
C553 C544 1.429 . S
C553 N550 1.350 . S
C553 C552 1.434 . S
C554 C555 1.369 . S
C554 C556 1.419 . S
C554 H558 0.930 . S
C555 C554 1.369 . S
C555 C564 1.429 . S
C556 C554 1.419 . S
C556 C557 1.363 . S
C556 H559 0.929 . S
C557 C556 1.363 . S
C557 C563 1.428 . S
H558 C554 0.930 . S
H559 C556 0.929 . S
S560 N561 1.613 . S
S560 N562 1.610 . S
N561 S560 1.613 . S
N561 C564 1.350 . S
N562 S560 1.610 . S
N562 C563 1.351 . S
C563 C557 1.428 . S
C563 N562 1.351 . S
C563 C564 1.434 . S
C564 C555 1.429 . S
C564 N561 1.350 . S
C564 C563 1.434 . S
C565 C566 1.369 . S
C565 C567 1.419 . S
C565 H569 0.930 . S
C566 C565 1.369 . S
C566 C575 1.429 . S
C567 C565 1.419 . S
C567 C568 1.363 . S
C567 H570 0.929 . S
C568 C567 1.363 . S
C568 C574 1.428 . S
H569 C565 0.930 . S
H570 C567 0.929 . S
S571 N572 1.613 1_545 S
S571 N573 1.610 . S
N572 S571 1.613 1_565 S
N572 C575 1.350 . S
N573 S571 1.610 . S
N573 C574 1.351 1_545 S
C574 C568 1.428 . S
C574 N573 1.351 1_565 S
C574 C575 1.434 . S
C575 C566 1.429 . S
C575 N572 1.350 . S
C575 C574 1.434 . S
C576 C577 1.369 . S
C576 C578 1.419 . S
C576 H580 0.930 . S
C577 C576 1.369 . S
C577 C586 1.429 . S
C578 C576 1.419 . S
C578 C579 1.363 . S
C578 H581 0.929 . S
C579 C578 1.363 . S
C579 C585 1.428 . S
H580 C576 0.930 . S
H581 C578 0.929 . S
S582 N583 1.613 . S
S582 N584 1.610 1_545 S
N583 S582 1.613 . S
N583 C586 1.350 1_545 S
N584 S582 1.610 1_565 S
N584 C585 1.351 . S
C585 C579 1.428 . S
C585 N584 1.351 . S
C585 C586 1.434 . S
C586 C577 1.429 . S
C586 N583 1.350 1_565 S
C586 C585 1.434 . S
C587 C588 1.369 . S
C587 C589 1.419 . S
C587 H591 0.930 . S
C588 C587 1.369 . S
C588 C597 1.429 . S
C589 C587 1.419 . S
C589 C590 1.363 . S
C589 H592 0.929 . S
C590 C589 1.363 . S
C590 C596 1.428 . S
H591 C587 0.930 . S
H592 C589 0.929 . S
S593 N594 1.613 . S
S593 N595 1.610 . S
N594 S593 1.613 . S
N594 C597 1.350 . S
N595 S593 1.610 . S
N595 C596 1.351 . S
C596 C590 1.428 . S
C596 N595 1.351 . S
C596 C597 1.434 . S
C597 C588 1.429 . S
C597 N594 1.350 . S
C597 C596 1.434 . S
C598 C599 1.369 . S
C598 C600 1.419 . S
C598 H602 0.930 . S
C599 C598 1.369 . S
C599 C608 1.429 . S
C600 C598 1.419 . S
C600 C601 1.363 . S
C600 H603 0.929 . S
C601 C600 1.363 . S
C601 C607 1.428 . S
H602 C598 0.930 . S
H603 C600 0.929 . S
S604 N605 1.613 . S
S604 N606 1.610 . S
N605 S604 1.613 . S
N605 C608 1.350 . S
N606 S604 1.610 . S
N606 C607 1.351 . S
C607 C601 1.428 . S
C607 N606 1.351 . S
C607 C608 1.434 . S
C608 C599 1.429 . S
C608 N605 1.350 . S
C608 C607 1.434 . S
C609 C610 1.369 . S
C609 C611 1.419 . S
C609 H613 0.930 . S
C610 C609 1.369 . S
C610 C619 1.429 . S
C611 C609 1.419 . S
C611 C612 1.363 . S
C611 H614 0.929 . S
C612 C611 1.363 . S
C612 C618 1.428 . S
H613 C609 0.930 . S
H614 C611 0.929 . S
S615 N616 1.613 . S
S615 N617 1.610 . S
N616 S615 1.613 . S
N616 C619 1.350 . S
N617 S615 1.610 . S
N617 C618 1.351 . S
C618 C612 1.428 . S
C618 N617 1.351 . S
C618 C619 1.434 . S
C619 C610 1.429 . S
C619 N616 1.350 . S
C619 C618 1.434 . S
C620 C621 1.369 . S
C620 C622 1.419 . S
C620 H624 0.930 . S
C621 C620 1.369 . S
C621 C630 1.429 . S
C622 C620 1.419 . S
C622 C623 1.363 . S
C622 H625 0.929 . S
C623 C622 1.363 . S
C623 C629 1.428 . S
H624 C620 0.930 . S
H625 C622 0.929 . S
S626 N627 1.613 1_655 S
S626 N628 1.610 . S
N627 S626 1.613 1_455 S
N627 C630 1.350 . S
N628 S626 1.610 . S
N628 C629 1.351 1_655 S
C629 C623 1.428 . S
C629 N628 1.351 1_455 S
C629 C630 1.434 . S
C630 C621 1.429 . S
C630 N627 1.350 . S
C630 C629 1.434 . S
C631 C632 1.369 . S
C631 C633 1.419 . S
C631 H635 0.930 . S
C632 C631 1.369 . S
C632 C641 1.429 . S
C633 C631 1.419 . S
C633 C634 1.363 . S
C633 H636 0.929 . S
C634 C633 1.363 . S
C634 C640 1.428 . S
H635 C631 0.930 . S
H636 C633 0.929 . S
S637 N638 1.613 . S
S637 N639 1.610 . S
N638 S637 1.613 . S
N638 C641 1.350 . S
N639 S637 1.610 . S
N639 C640 1.351 . S
C640 C634 1.428 . S
C640 N639 1.351 . S
C640 C641 1.434 . S
C641 C632 1.429 . S
C641 N638 1.350 . S
C641 C640 1.434 . S
C642 C643 1.369 . S
C642 C644 1.419 . S
C642 H646 0.930 . S
C643 C642 1.369 . S
C643 C652 1.429 . S
C644 C642 1.419 . S
C644 C645 1.363 . S
C644 H647 0.929 . S
C645 C644 1.363 . S
C645 C651 1.428 . S
H646 C642 0.930 . S
H647 C644 0.929 . S
S648 N649 1.613 . S
S648 N650 1.610 . S
N649 S648 1.613 . S
N649 C652 1.350 . S
N650 S648 1.610 . S
N650 C651 1.351 . S
C651 C645 1.428 . S
C651 N650 1.351 . S
C651 C652 1.434 . S
C652 C643 1.429 . S
C652 N649 1.350 . S
C652 C651 1.434 . S
C653 C654 1.369 . S
C653 C655 1.419 . S
C653 H657 0.930 . S
C654 C653 1.369 . S
C654 C663 1.429 . S
C655 C653 1.419 . S
C655 C656 1.363 . S
C655 H658 0.929 . S
C656 C655 1.363 . S
C656 C662 1.428 . S
H657 C653 0.930 . S
H658 C655 0.929 . S
S659 N660 1.613 . S
S659 N661 1.610 . S
N660 S659 1.613 . S
N660 C663 1.350 . S
N661 S659 1.610 . S
N661 C662 1.351 . S
C662 C656 1.428 . S
C662 N661 1.351 . S
C662 C663 1.434 . S
C663 C654 1.429 . S
C663 N660 1.350 . S
C663 C662 1.434 . S
C664 C665 1.369 . S
C664 C666 1.419 . S
C664 H668 0.930 . S
C665 C664 1.369 . S
C665 C674 1.429 . S
C666 C664 1.419 . S
C666 C667 1.363 . S
C666 H669 0.929 . S
C667 C666 1.363 . S
C667 C673 1.428 . S
H668 C664 0.930 . S
H669 C666 0.929 . S
S670 N671 1.613 . S
S670 N672 1.610 . S
N671 S670 1.613 . S
N671 C674 1.350 . S
N672 S670 1.610 . S
N672 C673 1.351 . S
C673 C667 1.428 . S
C673 N672 1.351 . S
C673 C674 1.434 . S
C674 C665 1.429 . S
C674 N671 1.350 . S
C674 C673 1.434 . S
C675 C676 1.369 . S
C675 C677 1.419 . S
C675 H679 0.930 . S
C676 C675 1.369 . S
C676 C685 1.429 . S
C677 C675 1.419 . S
C677 C678 1.363 . S
C677 H680 0.929 . S
C678 C677 1.363 . S
C678 C684 1.428 . S
H679 C675 0.930 . S
H680 C677 0.929 . S
S681 N682 1.613 . S
S681 N683 1.610 . S
N682 S681 1.613 . S
N682 C685 1.350 . S
N683 S681 1.610 . S
N683 C684 1.351 . S
C684 C678 1.428 . S
C684 N683 1.351 . S
C684 C685 1.434 . S
C685 C676 1.429 . S
C685 N682 1.350 . S
C685 C684 1.434 . S
C686 C687 1.369 . S
C686 C688 1.419 . S
C686 H690 0.930 . S
C687 C686 1.369 . S
C687 C696 1.429 . S
C688 C686 1.419 . S
C688 C689 1.363 . S
C688 H691 0.929 . S
C689 C688 1.363 . S
C689 C695 1.428 . S
H690 C686 0.930 . S
H691 C688 0.929 . S
S692 N693 1.613 . S
S692 N694 1.610 . S
N693 S692 1.613 . S
N693 C696 1.350 . S
N694 S692 1.610 . S
N694 C695 1.351 . S
C695 C689 1.428 . S
C695 N694 1.351 . S
C695 C696 1.434 . S
C696 C687 1.429 . S
C696 N693 1.350 . S
C696 C695 1.434 . S
C697 C698 1.369 . S
C697 C699 1.419 . S
C697 H701 0.930 . S
C698 C697 1.369 . S
C698 C707 1.429 . S
C699 C697 1.419 . S
C699 C700 1.363 . S
C699 H702 0.929 . S
C700 C699 1.363 . S
C700 C706 1.428 . S
H701 C697 0.930 . S
H702 C699 0.929 . S
S703 N704 1.613 . S
S703 N705 1.610 . S
N704 S703 1.613 . S
N704 C707 1.350 . S
N705 S703 1.610 . S
N705 C706 1.351 . S
C706 C700 1.428 . S
C706 N705 1.351 . S
C706 C707 1.434 . S
C707 C698 1.429 . S
C707 N704 1.350 . S
C707 C706 1.434 . S
C708 C709 1.369 . S
C708 C710 1.419 . S
C708 H712 0.930 . S
C709 C708 1.369 . S
C709 C718 1.429 . S
C710 C708 1.419 . S
C710 C711 1.363 . S
C710 H713 0.929 . S
C711 C710 1.363 . S
C711 C717 1.428 . S
H712 C708 0.930 . S
H713 C710 0.929 . S
S714 N715 1.613 . S
S714 N716 1.610 . S
N715 S714 1.613 . S
N715 C718 1.350 . S
N716 S714 1.610 . S
N716 C717 1.351 . S
C717 C711 1.428 . S
C717 N716 1.351 . S
C717 C718 1.434 . S
C718 C709 1.429 . S
C718 N715 1.350 . S
C718 C717 1.434 . S
C719 C720 1.369 . S
C719 C721 1.419 . S
C719 H723 0.930 . S
C720 C719 1.369 . S
C720 C729 1.429 . S
C721 C719 1.419 . S
C721 C722 1.363 . S
C721 H724 0.929 . S
C722 C721 1.363 . S
C722 C728 1.428 . S
H723 C719 0.930 . S
H724 C721 0.929 . S
S725 N726 1.613 . S
S725 N727 1.610 . S
N726 S725 1.613 . S
N726 C729 1.350 . S
N727 S725 1.610 . S
N727 C728 1.351 . S
C728 C722 1.428 . S
C728 N727 1.351 . S
C728 C729 1.434 . S
C729 C720 1.429 . S
C729 N726 1.350 . S
C729 C728 1.434 . S
C730 C731 1.369 . S
C730 C732 1.419 . S
C730 H734 0.930 . S
C731 C730 1.369 . S
C731 C740 1.429 . S
C732 C730 1.419 . S
C732 C733 1.363 . S
C732 H735 0.929 . S
C733 C732 1.363 . S
C733 C739 1.428 . S
H734 C730 0.930 . S
H735 C732 0.929 . S
S736 N737 1.613 . S
S736 N738 1.610 . S
N737 S736 1.613 . S
N737 C740 1.350 . S
N738 S736 1.610 . S
N738 C739 1.351 . S
C739 C733 1.428 . S
C739 N738 1.351 . S
C739 C740 1.434 . S
C740 C731 1.429 . S
C740 N737 1.350 . S
C740 C739 1.434 . S
C741 C742 1.369 . S
C741 C743 1.419 . S
C741 H745 0.930 . S
C742 C741 1.369 . S
C742 C751 1.429 . S
C743 C741 1.419 . S
C743 C744 1.363 . S
C743 H746 0.929 . S
C744 C743 1.363 . S
C744 C750 1.428 . S
H745 C741 0.930 . S
H746 C743 0.929 . S
S747 N748 1.613 . S
S747 N749 1.610 . S
N748 S747 1.613 . S
N748 C751 1.350 . S
N749 S747 1.610 . S
N749 C750 1.351 . S
C750 C744 1.428 . S
C750 N749 1.351 . S
C750 C751 1.434 . S
C751 C742 1.429 . S
C751 N748 1.350 . S
C751 C750 1.434 . S
C752 C753 1.369 . S
C752 C754 1.419 . S
C752 H756 0.930 . S
C753 C752 1.369 . S
C753 C762 1.429 . S
C754 C752 1.419 . S
C754 C755 1.363 . S
C754 H757 0.929 . S
C755 C754 1.363 . S
C755 C761 1.428 . S
H756 C752 0.930 . S
H757 C754 0.929 . S
S758 N759 1.613 . S
S758 N760 1.610 1_655 S
N759 S758 1.613 . S
N759 C762 1.350 1_655 S
N760 S758 1.610 1_455 S
N760 C761 1.351 . S
C761 C755 1.428 . S
C761 N760 1.351 . S
C761 C762 1.434 . S
C762 C753 1.429 . S
C762 N759 1.350 1_455 S
C762 C761 1.434 . S
C763 C764 1.369 . S
C763 C765 1.419 . S
C763 H767 0.930 . S
C764 C763 1.369 . S
C764 C773 1.429 . S
C765 C763 1.419 . S
C765 C766 1.363 . S
C765 H768 0.929 . S
C766 C765 1.363 . S
C766 C772 1.428 . S
H767 C763 0.930 . S
H768 C765 0.929 . S
S769 N770 1.613 . S
S769 N771 1.610 . S
N770 S769 1.613 . S
N770 C773 1.350 . S
N771 S769 1.610 . S
N771 C772 1.351 . S
C772 C766 1.428 . S
C772 N771 1.351 . S
C772 C773 1.434 . S
C773 C764 1.429 . S
C773 N770 1.350 . S
C773 C772 1.434 . S
C774 C775 1.369 . S
C774 C776 1.419 . S
C774 H778 0.930 1_554 S
C775 C774 1.369 . S
C775 C784 1.429 . S
C776 C774 1.419 . S
C776 C777 1.363 . S
C776 H779 0.929 . S
C777 C776 1.363 . S
C777 C783 1.428 . S
H778 C774 0.930 1_556 S
H779 C776 0.929 . S
S780 N781 1.613 . S
S780 N782 1.610 . S
N781 S780 1.613 . S
N781 C784 1.350 . S
N782 S780 1.610 . S
N782 C783 1.351 . S
C783 C777 1.428 . S
C783 N782 1.351 . S
C783 C784 1.434 . S
C784 C775 1.429 . S
C784 N781 1.350 . S
C784 C783 1.434 . S
C785 C786 1.369 . S
C785 C787 1.419 . S
C785 H789 0.930 . S
C786 C785 1.369 . S
C786 C795 1.429 . S
C787 C785 1.419 . S
C787 C788 1.363 . S
C787 H790 0.929 . S
C788 C787 1.363 . S
C788 C794 1.428 . S
H789 C785 0.930 . S
H790 C787 0.929 . S
S791 N792 1.613 . S
S791 N793 1.610 . S
N792 S791 1.613 . S
N792 C795 1.350 . S
N793 S791 1.610 . S
N793 C794 1.351 . S
C794 C788 1.428 . S
C794 N793 1.351 . S
C794 C795 1.434 . S
C795 C786 1.429 . S
C795 N792 1.350 . S
C795 C794 1.434 . S
C796 C797 1.369 . S
C796 C798 1.419 . S
C796 H800 0.930 . S
C797 C796 1.369 . S
C797 C806 1.429 . S
C798 C796 1.419 . S
C798 C799 1.363 . S
C798 H801 0.929 . S
C799 C798 1.363 . S
C799 C805 1.428 . S
H800 C796 0.930 . S
H801 C798 0.929 . S
S802 N803 1.613 . S
S802 N804 1.610 . S
N803 S802 1.613 . S
N803 C806 1.350 . S
N804 S802 1.610 . S
N804 C805 1.351 . S
C805 C799 1.428 . S
C805 N804 1.351 . S
C805 C806 1.434 . S
C806 C797 1.429 . S
C806 N803 1.350 . S
C806 C805 1.434 . S
C807 C808 1.369 . S
C807 C809 1.419 . S
C807 H811 0.930 . S
C808 C807 1.369 . S
C808 C817 1.429 . S
C809 C807 1.419 . S
C809 C810 1.363 . S
C809 H812 0.929 . S
C810 C809 1.363 . S
C810 C816 1.428 . S
H811 C807 0.930 . S
H812 C809 0.929 . S
S813 N814 1.613 . S
S813 N815 1.610 . S
N814 S813 1.613 . S
N814 C817 1.350 . S
N815 S813 1.610 . S
N815 C816 1.351 . S
C816 C810 1.428 . S
C816 N815 1.351 . S
C816 C817 1.434 . S
C817 C808 1.429 . S
C817 N814 1.350 . S
C817 C816 1.434 . S
C818 C819 1.369 . S
C818 C820 1.419 . S
C818 H822 0.930 . S
C819 C818 1.369 . S
C819 C828 1.429 . S
C820 C818 1.419 . S
C820 C821 1.363 . S
C820 H823 0.929 . S
C821 C820 1.363 . S
C821 C827 1.428 . S
H822 C818 0.930 . S
H823 C820 0.929 . S
S824 N825 1.613 . S
S824 N826 1.610 . S
N825 S824 1.613 . S
N825 C828 1.350 . S
N826 S824 1.610 . S
N826 C827 1.351 . S
C827 C821 1.428 . S
C827 N826 1.351 . S
C827 C828 1.434 . S
C828 C819 1.429 . S
C828 N825 1.350 . S
C828 C827 1.434 . S
C829 C830 1.369 . S
C829 C831 1.419 . S
C829 H833 0.930 . S
C830 C829 1.369 . S
C830 C839 1.429 . S
C831 C829 1.419 . S
C831 C832 1.363 . S
C831 H834 0.929 . S
C832 C831 1.363 . S
C832 C838 1.428 . S
H833 C829 0.930 . S
H834 C831 0.929 . S
S835 N836 1.613 . S
S835 N837 1.610 . S
N836 S835 1.613 . S
N836 C839 1.350 . S
N837 S835 1.610 . S
N837 C838 1.351 . S
C838 C832 1.428 . S
C838 N837 1.351 . S
C838 C839 1.434 . S
C839 C830 1.429 . S
C839 N836 1.350 . S
C839 C838 1.434 . S
C313 C187 1.790 . S
C315 C4 1.789 . S
C324 C16 1.790 . S
C326 C199 1.790 . S
C335 C239 1.794 . S
C337 C31 1.794 . S
C346 C49 1.777 . S
C348 C173 1.776 . S
C357 C186 1.776 . S
C359 C62 1.776 . S
C368 C68 1.794 . S
C370 C200 1.794 . S
C379 C81 1.790 . S
C381 C238 1.790 . S
C390 C101 1.789 . S
C392 C174 1.789 . S
C401 C120 1.790 . S
C403 C114 1.789 . S
C412 C134 1.776 . S
C414 C127 1.777 . S
C423 C135 1.790 . S
C425 C147 1.790 . S
C434 C148 1.794 . S
C436 C107 1.794 . S
C445 C160 1.789 . S
C447 C42 1.790 . S
C456 C55 1.790 . S
C458 C212 1.790 . S
C467 C225 1.777 . S
C469 C23 1.776 . S
C478 C17 1.286 . S
C480 C283 1.286 . S
C489 C121 1.286 . S
C491 C10 1.286 . S
C500 C302 1.288 . S
C502 C44 1.289 . S
C511 C146 1.297 . S
C513 C29 1.298 . S
C522 C276 1.298 . S
C524 C96 1.299 . S
C533 C122 1.288 . S
C535 C83 1.289 . S
C544 C69 1.286 . S
C546 C309 1.286 . S
C555 C56 1.286 . S
C557 C153 1.286 . S
C566 C205 1.286 . S
C568 C257 1.286 . S
C577 C211 1.299 . S
C579 C198 1.298 . S
C588 C179 1.286 . S
C590 C218 1.286 . S
C599 C250 1.288 . S
C601 C172 1.289 . S
C610 C36 1.286 . S
C612 C264 1.286 . S
C621 C140 1.286 . S
C623 C95 1.286 . S
C632 C3 1.299 . S
C634 C289 1.298 . S
C643 C252 1.789 . S
C645 C30 1.789 . S
C654 C5 1.794 . S
C656 C213 1.794 . S
C665 C251 1.776 . S
C667 C88 1.777 . S
C676 C161 1.794 . S
C678 C94 1.794 . S
C687 C75 1.789 . S
C689 C226 1.790 . S
C698 C277 1.789 . S
C700 C263 1.790 . S
C709 C303 1.777 . S
C711 C270 1.776 . S
C720 C290 1.789 . S
C722 C304 1.789 . S
C731 C278 1.794 . S
C733 C291 1.794 . S
C742 C108 1.286 . S
C744 C43 1.286 . S
C753 C18 1.290 . S
C755 C133 1.289 . S
C764 C70 1.298 . S
C766 C109 1.299 . S
C775 C265 1.288 . S
C777 C57 1.289 . S
C786 C82 1.286 . S
C788 C296 1.286 . S
C797 C166 1.286 . S
C799 C192 1.286 . S
C808 C237 1.299 . S
C810 C159 1.299 . S
C819 C231 1.286 . S
C821 C244 1.286 . S
C830 C185 1.289 . S
C832 C224 1.290 . S
