# Generated by pormake.
# Topology osc, (6)-cn, num edge types: 1
# Building blocks:
#     Node 0, Type 0, BuildingBlock: IZENUY_clean_sbu_0, # of connection points: 6
#     Node 1, Type 0, BuildingBlock: IZENUY_clean_sbu_0, # of connection points: 6
#     Node 2, Type 0, BuildingBlock: IZENUY_clean_sbu_0, # of connection points: 6
#     Node 3, Type 0, BuildingBlock: IZENUY_clean_sbu_0, # of connection points: 6
#     Node 4, Type 0, BuildingBlock: IZENUY_clean_sbu_0, # of connection points: 6
#     Node 5, Type 0, BuildingBlock: IZENUY_clean_sbu_0, # of connection points: 6
#     Node 6, Type 0, BuildingBlock: IZENUY_clean_sbu_0, # of connection points: 6
#     Node 7, Type 0, BuildingBlock: IZENUY_clean_sbu_0, # of connection points: 6
#     Edge 8, Type (0, 0), BuildingBlock: CIFDUS_clean_linker_0, # of connection points: 2
#     Edge 9, Type (0, 0), BuildingBlock: CIFDUS_clean_linker_0, # of connection points: 2
#     Edge 10, Type (0, 0), BuildingBlock: CIFDUS_clean_linker_0, # of connection points: 2
#     Edge 11, Type (0, 0), BuildingBlock: CIFDUS_clean_linker_0, # of connection points: 2
#     Edge 12, Type (0, 0), BuildingBlock: CIFDUS_clean_linker_0, # of connection points: 2
#     Edge 13, Type (0, 0), BuildingBlock: CIFDUS_clean_linker_0, # of connection points: 2
#     Edge 14, Type (0, 0), BuildingBlock: CIFDUS_clean_linker_0, # of connection points: 2
#     Edge 15, Type (0, 0), BuildingBlock: CIFDUS_clean_linker_0, # of connection points: 2
#     Edge 16, Type (0, 0), BuildingBlock: CIFDUS_clean_linker_0, # of connection points: 2
#     Edge 17, Type (0, 0), BuildingBlock: CIFDUS_clean_linker_0, # of connection points: 2
#     Edge 18, Type (0, 0), BuildingBlock: CIFDUS_clean_linker_0, # of connection points: 2
#     Edge 19, Type (0, 0), BuildingBlock: CIFDUS_clean_linker_0, # of connection points: 2
#     Edge 20, Type (0, 0), BuildingBlock: CIFDUS_clean_linker_0, # of connection points: 2
#     Edge 21, Type (0, 0), BuildingBlock: CIFDUS_clean_linker_0, # of connection points: 2
#     Edge 22, Type (0, 0), BuildingBlock: CIFDUS_clean_linker_0, # of connection points: 2
#     Edge 23, Type (0, 0), BuildingBlock: CIFDUS_clean_linker_0, # of connection points: 2
#     Edge 24, Type (0, 0), BuildingBlock: CIFDUS_clean_linker_0, # of connection points: 2
#     Edge 25, Type (0, 0), BuildingBlock: CIFDUS_clean_linker_0, # of connection points: 2
#     Edge 26, Type (0, 0), BuildingBlock: CIFDUS_clean_linker_0, # of connection points: 2
#     Edge 27, Type (0, 0), BuildingBlock: CIFDUS_clean_linker_0, # of connection points: 2
#     Edge 28, Type (0, 0), BuildingBlock: CIFDUS_clean_linker_0, # of connection points: 2
#     Edge 29, Type (0, 0), BuildingBlock: CIFDUS_clean_linker_0, # of connection points: 2
#     Edge 30, Type (0, 0), BuildingBlock: CIFDUS_clean_linker_0, # of connection points: 2
#     Edge 31, Type (0, 0), BuildingBlock: CIFDUS_clean_linker_0, # of connection points: 2
# Relax obj value: 0.251
# Max RMSD: 0.250
# Mean RMSD: 0.249
data_MOF--net-osc--node1-IZENUY_clean_sbu_0--edge1-CIFDUS_clean_linker_0
_symmetry_space_group_name_H-M    P1
_symmetry_Int_Tables_number       1
_symmetry_cell_setting            triclinic
loop_
_symmetry_equiv_pos_as_xyz
'x, y, z'
_cell_length_a     25.143069
_cell_length_b     40.981695
_cell_length_c     23.107646
_cell_angle_alpha  90.573493
_cell_angle_beta   90.309682
_cell_angle_gamma 89.847905
loop_
_atom_site_label
_atom_site_type_symbol
_atom_site_fract_x
_atom_site_fract_y
_atom_site_fract_z
_atom_type_partial_charge
Fe0 Fe 0.26742 0.06486 0.40296 0.0
Fe1 Fe 0.2893 0.12035 0.31822 0.0
O2 O 0.29968 0.10185 0.38612 0.0
Fe3 Fe 0.34295 0.12101 0.43649 0.0
O4 O 0.38647 0.08639 0.43617 0.0
O5 O 0.32532 0.04818 0.44407 0.0
O6 O 0.29369 0.04376 0.33977 0.0
C7 C 0.2862 0.05284 0.28856 0.0
C8 C 0.26359 0.09388 0.50964 0.0
O9 O 0.27497 0.08227 0.27804 0.0
C10 C 0.29299 0.17443 0.39533 0.0
O11 O 0.20486 0.07637 0.36465 0.0
O12 O 0.22023 0.12647 0.33403 0.0
O13 O 0.30894 0.10636 0.50171 0.0
O14 O 0.23779 0.08217 0.46757 0.0
C15 C 0.39585 0.12669 0.33055 0.0
O16 O 0.3 0.16238 0.3451 0.0
O17 O 0.3015 0.15723 0.43936 0.0
C18 C 0.18838 0.10425 0.34796 0.0
O19 O 0.35877 0.11471 0.30019 0.0
O20 O 0.38649 0.1382 0.38065 0.0
C21 C 0.37367 0.05752 0.44753 0.0
Fe22 Fe 0.23216 0.97883 0.89578 0.0
Fe23 Fe 0.21488 0.923 0.80885 0.0
O24 O 0.20533 0.94 0.87862 0.0
Fe25 Fe 0.16844 0.91771 0.93029 0.0
O26 O 0.11998 0.94979 0.93642 0.0
O27 O 0.17524 0.99141 0.9418 0.0
O28 O 0.19817 0.99874 0.83587 0.0
C29 C 0.20231 0.98983 0.78381 0.0
C30 C 0.24831 0.94955 0.99969 0.0
O31 O 0.21954 0.96179 0.77097 0.0
C32 C 0.2233 0.86762 0.88044 0.0
O33 O 0.29335 0.97201 0.85318 0.0
O34 O 0.28568 0.92147 0.82 0.0
O35 O 0.20509 0.93379 0.9945 0.0
O36 O 0.26889 0.96272 0.95641 0.0
C37 C 0.11016 0.91099 0.82677 0.0
O38 O 0.2124 0.88054 0.83232 0.0
O39 O 0.21452 0.88311 0.92706 0.0
C40 C 0.31405 0.94575 0.83362 0.0
O41 O 0.14432 0.92438 0.79523 0.0
O42 O 0.12338 0.89929 0.87557 0.0
C43 C 0.12912 0.97924 0.94839 0.0
Fe44 Fe 0.77384 0.47225 0.13363 0.0
Fe45 Fe 0.79555 0.41675 0.21728 0.0
O46 O 0.80473 0.43491 0.14932 0.0
Fe47 Fe 0.84377 0.41489 0.09575 0.0
O48 O 0.89013 0.44808 0.09488 0.0
O49 O 0.82999 0.48696 0.08773 0.0
O50 O 0.80549 0.49355 0.19322 0.0
C51 C 0.80007 0.48505 0.24504 0.0
C52 C 0.76214 0.44577 0.02909 0.0
O53 O 0.78846 0.45576 0.25727 0.0
C54 C 0.79207 0.3626 0.13869 0.0
O55 O 0.71367 0.46411 0.17636 0.0
O56 O 0.7244 0.4137 0.20658 0.0
O57 O 0.80759 0.4323 0.03197 0.0
O58 O 0.73894 0.45252 0.07519 0.0
C59 C 0.90117 0.40705 0.19907 0.0
O60 O 0.80046 0.37444 0.18907 0.0
O61 O 0.79956 0.37988 0.09442 0.0
C62 C 0.69454 0.43759 0.19506 0.0
O63 O 0.86605 0.41938 0.23133 0.0
O64 O 0.88885 0.39582 0.14929 0.0
C65 C 0.878 0.47701 0.08283 0.0
Fe66 Fe 0.71268 0.62012 0.72083 0.0
Fe67 Fe 0.66656 0.62091 0.59814 0.0
O68 O 0.70562 0.60162 0.65214 0.0
Fe69 Fe 0.73799 0.56464 0.63622 0.0
O70 O 0.70673 0.54322 0.69456 0.0
O71 O 0.72044 0.58143 0.76019 0.0
O72 O 0.64184 0.61668 0.73244 0.0
C73 C 0.60716 0.62908 0.69973 0.0
C74 C 0.81496 0.60081 0.70118 0.0
O75 O 0.62038 0.64021 0.6507 0.0
C76 C 0.74921 0.59046 0.5321 0.0
O77 O 0.7072 0.66216 0.69296 0.0
O78 O 0.71023 0.65601 0.59824 0.0
O79 O 0.79768 0.57403 0.68023 0.0
O80 O 0.78377 0.62406 0.71293 0.0
C81 C 0.63397 0.55838 0.58553 0.0
O82 O 0.70328 0.6033 0.53469 0.0
O83 O 0.77254 0.58424 0.57842 0.0
C84 C 0.71697 0.67353 0.64302 0.0
O85 O 0.62134 0.58743 0.59665 0.0
O86 O 0.68236 0.54897 0.58946 0.0
C87 C 0.7107 0.55192 0.74669 0.0
Fe88 Fe 0.73604 0.97618 0.64422 0.0
Fe89 Fe 0.66502 0.91639 0.61943 0.0
O90 O 0.70571 0.93968 0.66732 0.0
Fe91 Fe 0.71541 0.92569 0.73883 0.0
O92 O 0.72505 0.96603 0.77212 0.0
O93 O 0.70805 1.0006 0.70278 0.0
O94 O 0.67788 0.98885 0.59969 0.0
C95 C 0.63034 0.97812 0.5962 0.0
C96 C 0.81635 0.94316 0.70965 0.0
O97 O 0.6189 0.94963 0.61175 0.0
C98 C 0.71788 0.86725 0.67233 0.0
O99 O 0.76779 0.9558 0.58381 0.0
O100 O 0.6992 0.9282 0.5524 0.0
O101 O 0.78571 0.92112 0.72742 0.0
O102 O 0.79838 0.96862 0.68495 0.0
C103 C 0.60975 0.91538 0.72438 0.0
O104 O 0.70912 0.88126 0.62475 0.0
O105 O 0.70896 0.8822 0.71964 0.0
C106 C 0.74336 0.94184 0.54304 0.0
O107 O 0.62134 0.9013 0.67698 0.0
O108 O 0.64505 0.93012 0.75334 0.0
C109 C 0.71369 0.99447 0.7557 0.0
Fe110 Fe 0.78861 0.1127 0.24141 0.0
Fe111 Fe 0.7685 0.05734 0.15422 0.0
O112 O 0.79779 0.09547 0.1716 0.0
Fe113 Fe 0.83682 0.1167 0.12049 0.0
O114 O 0.8836 0.13273 0.17602 0.0
O115 O 0.85856 0.1087 0.25621 0.0
O116 O 0.7799 0.07398 0.27891 0.0
C117 C 0.79644 0.04572 0.26642 0.0
C118 C 0.78692 0.16868 0.17043 0.0
O119 O 0.80089 0.03674 0.21443 0.0
C120 C 0.75422 0.08794 0.05067 0.0
O121 O 0.71821 0.11652 0.22876 0.0
O122 O 0.70754 0.06599 0.19636 0.0
O123 O 0.79414 0.15278 0.12405 0.0
O124 O 0.79557 0.15523 0.21864 0.0
C125 C 0.87139 0.05408 0.10173 0.0
O126 O 0.73339 0.07429 0.09337 0.0
O127 O 0.79851 0.10258 0.056 0.0
C128 C 0.68835 0.0929 0.21509 0.0
O129 O 0.8246 0.04297 0.10839 0.0
O130 O 0.88222 0.08326 0.11363 0.0
C131 C 0.89449 0.12027 0.2249 0.0
Fe132 Fe 0.21301 0.62368 0.80288 0.0
Fe133 Fe 0.2331 0.56288 0.87621 0.0
O134 O 0.20438 0.60202 0.86807 0.0
Fe135 Fe 0.16632 0.61983 0.92476 0.0
O136 O 0.12021 0.64132 0.87535 0.0
O137 O 0.14231 0.62259 0.78944 0.0
O138 O 0.21797 0.58728 0.75593 0.0
C139 C 0.20352 0.55802 0.76287 0.0
C140 C 0.21826 0.67383 0.88925 0.0
O141 O 0.19953 0.54631 0.8128 0.0
C142 C 0.24943 0.58642 0.98538 0.0
O143 O 0.28428 0.62508 0.81278 0.0
O144 O 0.29355 0.57297 0.83457 0.0
O145 O 0.21058 0.65456 0.93053 0.0
O146 O 0.20979 0.66452 0.83741 0.0
C147 C 0.13019 0.55727 0.92887 0.0
O148 O 0.26974 0.57603 0.93924 0.0
O149 O 0.20437 0.60049 0.9845 0.0
C150 C 0.31332 0.6002 0.81954 0.0
O151 O 0.17719 0.54655 0.92012 0.0
O152 O 0.11943 0.58695 0.92249 0.0
C153 C 0.10751 0.63302 0.82402 0.0
Fe154 Fe 0.2717 0.4767 0.38775 0.0
Fe155 Fe 0.3419 0.41739 0.41714 0.0
O156 O 0.3026 0.43963 0.36696 0.0
Fe157 Fe 0.29487 0.42404 0.29581 0.0
O158 O 0.28684 0.46371 0.2608 0.0
O159 O 0.30144 0.49969 0.32977 0.0
O160 O 0.32882 0.49013 0.43375 0.0
C161 C 0.37641 0.47939 0.43798 0.0
C162 C 0.19307 0.44274 0.32051 0.0
O163 O 0.38793 0.45048 0.42403 0.0
C164 C 0.28976 0.36742 0.36494 0.0
O165 O 0.23813 0.45755 0.44714 0.0
O166 O 0.30619 0.43146 0.48284 0.0
O167 O 0.22415 0.42019 0.30464 0.0
O168 O 0.21043 0.4686 0.34513 0.0
C169 C 0.40014 0.4132 0.314 0.0
O170 O 0.29765 0.38247 0.41221 0.0
O171 O 0.30014 0.38106 0.31725 0.0
C172 C 0.26177 0.44558 0.48987 0.0
O173 O 0.38717 0.40043 0.36169 0.0
O174 O 0.36567 0.42755 0.28361 0.0
C175 C 0.29728 0.49252 0.27695 0.0
H176 H 0.52594 0.96182 0.58315 0.0
H177 H 0.6393 0.03723 0.54261 0.0
H178 H 0.57024 0.0669 0.48996 0.0
H179 H 0.47867 0.07147 0.45603 0.0
H180 H 0.36407 0.99705 0.49772 0.0
H181 H 0.43368 0.96633 0.54835 0.0
C182 C 0.53573 0.9848 0.56295 0.0
C183 C 0.58799 0.99729 0.56703 0.0
C184 C 0.49592 1.00162 0.53247 0.0
C185 C 0.59957 0.02711 0.54053 0.0
C186 C 0.56014 0.04399 0.51015 0.0
C187 C 0.46858 0.04846 0.47595 0.0
C188 C 0.41588 0.03666 0.47315 0.0
C189 C 0.50833 0.03142 0.50581 0.0
C190 C 0.40414 1.00667 0.49896 0.0
C191 C 0.44388 0.98924 0.52824 0.0
H192 H 0.97425 0.07162 0.0877 0.0
H193 H 0.86479 0.99271 0.05228 0.0
H194 H 0.935 0.96317 1.00024 0.0
H195 H 0.02644 0.96053 0.9636 0.0
H196 H 0.1349 0.04004 0.99868 0.0
H197 H 0.06496 0.06906 0.05141 0.0
C198 C 0.96541 0.04791 0.06876 0.0
C199 C 0.914 0.03444 0.07385 0.0
C200 C 0.00551 0.03143 0.03838 0.0
C201 C 0.90386 1.00361 0.04925 0.0
C202 C 0.94393 0.98683 0.01923 0.0
C203 C 0.03495 0.98427 0.98261 0.0
C204 C 0.08608 0.9981 0.97707 0.0
C205 C 0.99472 1.00067 1.0132 0.0
C206 C 0.09603 0.02889 1.00191 0.0
C207 C 0.05612 0.0454 0.03234 0.0
H208 H 0.02641 0.57343 0.94589 0.0
H209 H 0.13906 0.49508 0.97197 0.0
H210 H 0.07111 0.46415 0.02336 0.0
H211 H 0.98109 0.46012 0.06279 0.0
H212 H 0.86833 0.5384 0.03658 0.0
H213 H 0.93594 0.56904 0.98413 0.0
C214 C 0.03633 0.5495 0.96254 0.0
C215 C 0.08816 0.53666 0.95504 0.0
C216 C 0.99733 0.53211 0.99263 0.0
C217 C 0.09971 0.50554 0.97675 0.0
C218 C 0.06091 0.48796 1.00649 0.0
C219 C 0.97102 0.48394 0.04583 0.0
C220 C 0.91939 0.49695 0.05397 0.0
C221 C 0.00982 0.50117 1.01514 0.0
C222 C 0.90758 0.52785 0.03144 0.0
C223 C 0.9462 0.54528 1.00115 0.0
H224 H 0.52886 0.57203 0.58037 0.0
H225 H 0.64412 0.49882 0.53006 0.0
H226 H 0.5741 0.46852 0.47854 0.0
H227 H 0.48134 0.46404 0.44594 0.0
H228 H 0.36708 0.53813 0.49515 0.0
H229 H 0.43677 0.56764 0.54801 0.0
C230 C 0.539 0.5494 0.55825 0.0
C231 C 0.59194 0.53775 0.55893 0.0
C232 C 0.49904 0.53266 0.52795 0.0
C233 C 0.60383 0.50824 0.53049 0.0
C234 C 0.56388 0.4911 0.5007 0.0
C235 C 0.47146 0.48669 0.46811 0.0
C236 C 0.41882 0.49887 0.46655 0.0
C237 C 0.51154 0.50331 0.49872 0.0
C238 C 0.40712 0.52831 0.49531 0.0
C239 C 0.44689 0.54505 0.52583 0.0
H240 H 0.3518 0.03086 0.203 0.0
H241 H 0.19483 0.01965 0.27345 0.0
H242 H 0.17074 0.98232 0.19415 0.0
H243 H 0.19164 0.95725 0.0995 0.0
H244 H 0.34858 0.96899 0.02835 0.0
H245 H 0.3758 1.0007 0.11342 0.0
C246 C 0.3127 0.01976 0.2012 0.0
C247 C 0.27502 0.02787 0.24364 0.0
C248 C 0.29919 0.99824 0.15539 0.0
C249 C 0.22438 1.01357 0.24109 0.0
C250 C 0.21062 0.99227 0.19577 0.0
C251 C 0.23228 0.96582 0.10345 0.0
C252 C 0.26796 0.96065 0.05746 0.0
C253 C 0.24736 0.98486 0.15202 0.0
C254 C 0.32027 0.97254 0.06306 0.0
C255 C 0.33579 0.99096 0.11154 0.0
H256 H 0.25398 0.04713 0.76783 0.0
H257 H 0.13685 0.98301 0.6919 0.0
H258 H 0.13855 1.01401 0.6021 0.0
H259 H 0.18314 0.05357 0.54096 0.0
H260 H 0.30738 0.11438 0.61285 0.0
H261 H 0.29255 0.09106 0.70839 0.0
C262 C 0.22769 0.04075 0.73213 0.0
C263 C 0.19486 1.01316 0.73635 0.0
C264 C 0.23082 0.05781 0.67958 0.0
C265 C 0.16196 1.0044 0.68953 0.0
C266 C 0.16324 0.02198 0.63812 0.0
C267 C 0.20626 0.06236 0.57766 0.0
C268 C 0.24678 0.08551 0.56934 0.0
C269 C 0.19898 0.04792 0.63193 0.0
C270 C 0.27618 0.09647 0.61772 0.0
C271 C 0.26789 0.083 0.67242 0.0
H272 H 0.74588 0.60315 0.41437 0.0
H273 H 0.78475 0.52876 0.539 0.0
H274 H 0.80666 0.49075 0.46222 0.0
H275 H 0.81197 0.47702 0.36007 0.0
H276 H 0.77749 0.55022 0.23251 0.0
H277 H 0.75807 0.59006 0.3093 0.0
C278 C 0.75944 0.57871 0.42439 0.0
C279 C 0.76379 0.56907 0.48246 0.0
C280 C 0.77318 0.55658 0.37946 0.0
C281 C 0.78157 0.53719 0.49481 0.0
C282 C 0.79405 0.5152 0.45088 0.0
C283 C 0.80077 0.50179 0.34903 0.0
C284 C 0.79598 0.51051 0.29079 0.0
C285 C 0.78977 0.52449 0.39315 0.0
C286 C 0.7818 0.54284 0.27718 0.0
C287 C 0.77022 0.56561 0.32109 0.0
H288 H 0.76186 0.43283 0.91112 0.0
H289 H 0.73314 0.50862 0.03861 0.0
H290 H 0.71183 0.54706 0.96352 0.0
H291 H 0.70346 0.56054 0.86218 0.0
H292 H 0.72864 0.48622 0.73173 0.0
H293 H 0.74775 0.44609 0.80682 0.0
C294 C 0.75077 0.4577 0.92209 0.0
C295 C 0.74897 0.46761 0.98042 0.0
C296 C 0.7374 0.48011 0.8782 0.0
C297 C 0.73436 0.50003 0.99413 0.0
C298 C 0.72217 0.52226 0.9512 0.0
C299 C 0.71263 0.53549 0.8501 0.0
C300 C 0.71486 0.52652 0.79158 0.0
C301 C 0.72367 0.51267 0.89321 0.0
C302 C 0.72641 0.49383 0.77667 0.0
C303 C 0.73779 0.47087 0.81958 0.0
H304 H 0.80284 0.09069 0.94447 0.0
H305 H 0.65525 0.06464 0.02652 0.0
H306 H 0.62665 0.03577 0.93936 0.0
H307 H 0.64958 1.01035 0.84557 0.0
H308 H 0.795 0.03737 0.76139 0.0
H309 H 0.81823 0.07341 0.84295 0.0
C310 C 0.76373 0.07963 0.94268 0.0
C311 C 0.73184 0.0794 0.99264 0.0
C312 C 0.7474 0.06267 0.89215 0.0
C313 C 0.68114 0.06488 0.98919 0.0
C314 C 0.66471 0.04814 0.93933 0.0
C315 C 0.68549 0.02495 0.84452 0.0
C316 C 0.72048 0.02145 0.79778 0.0
C317 C 0.69844 0.04567 0.89148 0.0
C318 C 0.76723 0.04011 0.79683 0.0
C319 C 0.78069 0.0605 0.84364 0.0
H320 H 0.82311 0.98181 0.50861 0.0
H321 H 0.69735 0.92056 0.44125 0.0
H322 H 0.70889 0.94406 0.34527 0.0
H323 H 0.74494 0.98839 0.28457 0.0
H324 H 0.86371 0.05283 0.35649 0.0
H325 H 0.86506 0.0217 0.4462 0.0
C326 C 0.79892 0.97295 0.47279 0.0
C327 C 0.75893 0.94964 0.48262 0.0
C328 C 0.80418 0.98757 0.4184 0.0
C329 C 0.72826 0.93855 0.43527 0.0
C330 C 0.73458 0.95218 0.38033 0.0
C331 C 0.77213 0.99487 0.3194 0.0
C332 C 0.80452 0.02261 0.31414 0.0
C333 C 0.77095 0.97764 0.37192 0.0
C334 C 0.83874 0.03141 0.35978 0.0
C335 C 0.8393 1.01372 0.41108 0.0
H336 H 0.24803 0.49792 0.74748 0.0
H337 H 0.15184 0.5705 0.66253 0.0
H338 H 0.15421 0.53864 0.57249 0.0
H339 H 0.19147 0.49384 0.51571 0.0
H340 H 0.29697 0.42429 0.5962 0.0
H341 H 0.28238 0.4508 0.6904 0.0
C342 C 0.22674 0.5063 0.70945 0.0
C343 C 0.19945 0.53637 0.71149 0.0
C344 C 0.23028 0.48848 0.65705 0.0
C345 C 0.17296 0.54741 0.66181 0.0
C346 C 0.17442 0.52923 0.6104 0.0
C347 C 0.21056 0.4839 0.55389 0.0
C348 C 0.24534 0.45695 0.5486 0.0
C349 C 0.20407 0.50019 0.60714 0.0
C350 C 0.26995 0.44487 0.59884 0.0
C351 C 0.26187 0.46019 0.65269 0.0
H352 H 0.21108 0.59296 0.09633 0.0
H353 H 0.34243 0.55302 0.9985 0.0
H354 H 0.37184 0.52233 0.08204 0.0
H355 H 0.35321 0.50053 0.17859 0.0
H356 H 0.22613 0.54218 0.27948 0.0
H357 H 0.20247 0.5785 0.19967 0.0
C358 C 0.24685 0.5782 0.09368 0.0
C359 C 0.27349 0.57481 0.04049 0.0
C360 C 0.26409 0.56049 0.14238 0.0
C361 C 0.32028 0.55578 0.03835 0.0
C362 C 0.33726 0.53802 0.08618 0.0
C363 C 0.32129 0.51821 0.18342 0.0
C364 C 0.29136 0.51879 0.23438 0.0
C365 C 0.30834 0.53919 0.13767 0.0
C366 C 0.24997 0.54164 0.24055 0.0
C367 C 0.2362 0.5622 0.1948 0.0
H368 H 0.44025 0.08456 0.25359 0.0
H369 H 0.47436 0.16938 0.35944 0.0
H370 H 0.56754 0.16716 0.33044 0.0
H371 H 0.63971 0.13959 0.27962 0.0
H372 H 0.60785 0.0527 0.17817 0.0
H373 H 0.51314 0.05722 0.20099 0.0
C374 C 0.46801 0.10283 0.26951 0.0
C375 C 0.45058 0.12722 0.30825 0.0
C376 C 0.52185 0.10081 0.25402 0.0
C377 C 0.48697 0.1504 0.32952 0.0
C378 C 0.5402 0.1491 0.31308 0.0
C379 C 0.61213 0.12168 0.26212 0.0
C380 C 0.63087 0.09577 0.22737 0.0
C381 C 0.55817 0.12413 0.27611 0.0
C382 C 0.59449 0.07274 0.20537 0.0
C383 C 0.54035 0.07537 0.21826 0.0
H384 H 0.86334 0.90084 0.78373 0.0
H385 H 0.89841 0.97872 0.66538 0.0
H386 H 0.9931 0.97384 0.68863 0.0
H387 H 0.06498 0.94873 0.74473 0.0
H388 H 0.02925 0.8729 0.8668 0.0
H389 H 0.93523 0.87557 0.8394 0.0
C390 C 0.89162 0.91669 0.76269 0.0
C391 C 0.87378 0.94014 0.7228 0.0
C392 C 0.94571 0.91405 0.77683 0.0
C393 C 0.91104 0.96058 0.69638 0.0
C394 C 0.96515 0.95775 0.70956 0.0
C395 C 0.03678 0.93244 0.76483 0.0
C396 C 0.05412 0.91041 0.80738 0.0
C397 C 0.98281 0.93469 0.74993 0.0
C398 C 0.01692 0.88995 0.83378 0.0
C399 C 0.9632 0.89153 0.81824 0.0
H400 H 0.14824 0.39989 0.24448 0.0
H401 H 0.10945 0.47837 0.36315 0.0
H402 H 0.01518 0.47261 0.3384 0.0
H403 H 0.94447 0.44618 0.28153 0.0
H404 H 0.98398 0.3698 0.15903 0.0
H405 H 0.07771 0.37369 0.18733 0.0
C406 C 0.11923 0.4157 0.26521 0.0
C407 C 0.13592 0.43953 0.30575 0.0
C408 C 0.06536 0.41254 0.25022 0.0
C409 C 0.09774 0.45995 0.33168 0.0
C410 C 0.04385 0.45659 0.31767 0.0
C411 C 0.97347 0.43007 0.2615 0.0
C412 C 0.95724 0.40746 0.21864 0.0
C413 C 0.02729 0.43304 0.27689 0.0
C414 C 0.99544 0.38726 0.19229 0.0
C415 C 0.04899 0.38955 0.20836 0.0
H416 H 0.36067 0.6435 0.74758 0.0
H417 H 0.39426 0.56118 0.85704 0.0
H418 H 0.48846 0.56414 0.83185 0.0
H419 H 0.56084 0.58934 0.7774 0.0
H420 H 0.52674 0.66923 0.66272 0.0
H421 H 0.43309 0.66808 0.69142 0.0
C422 C 0.38865 0.6263 0.76617 0.0
C423 C 0.37046 0.6022 0.80437 0.0
C424 C 0.4426 0.62774 0.75055 0.0
C425 C 0.40716 0.57986 0.82743 0.0
C426 C 0.46104 0.5816 0.81314 0.0
C427 C 0.53303 0.60675 0.75909 0.0
C428 C 0.55086 0.62962 0.71847 0.0
C429 C 0.47915 0.60536 0.77464 0.0
C430 C 0.51409 0.65151 0.69424 0.0
C431 C 0.46056 0.65082 0.71061 0.0
H432 H 0.56174 0.95883 0.7964 0.0
H433 H 0.53377 0.87052 0.69762 0.0
H434 H 0.44011 0.87169 0.7248 0.0
H435 H 0.36591 0.89894 0.7725 0.0
H436 H 0.39173 0.98885 0.86747 0.0
H437 H 0.48679 0.98595 0.84569 0.0
C438 C 0.53522 0.93961 0.78156 0.0
C439 C 0.55456 0.91452 0.74535 0.0
C440 C 0.48113 0.94092 0.79609 0.0
C441 C 0.51973 0.89007 0.72555 0.0
C442 C 0.46621 0.89076 0.74096 0.0
C443 C 0.39222 0.91791 0.78873 0.0
C444 C 0.37167 0.94415 0.82142 0.0
C445 C 0.44641 0.91629 0.7755 0.0
C446 C 0.40646 0.9685 0.84188 0.0
C447 C 0.46081 0.96681 0.82958 0.0
H448 H 0.11766 0.0634 0.29575 0.0
H449 H 0.13409 0.1598 0.36982 0.0
H450 H 0.0448 0.17431 0.33639 0.0
H451 H 0.9627 0.1601 0.28293 0.0
H452 H 0.9472 0.06424 0.20691 0.0
H453 H 0.03546 0.04909 0.24286 0.0
C454 C 0.10107 0.08728 0.30549 0.0
C455 C 0.13178 0.11037 0.33575 0.0
C456 C 0.05041 0.09581 0.28444 0.0
C457 C 0.11065 0.14158 0.34696 0.0
C458 C 0.05988 0.14998 0.32749 0.0
C459 C 0.97929 0.13615 0.27374 0.0
C460 C 0.9497 0.11353 0.24133 0.0
C461 C 0.0297 0.1275 0.29534 0.0
C462 C 0.97037 0.08222 0.23065 0.0
C463 C 0.02044 0.07344 0.25174 0.0
H464 H 0.06339 0.5965 0.7388 0.0
H465 H 0.02508 0.66932 0.86824 0.0
H466 H 0.93108 0.66662 0.83992 0.0
H467 H 0.85972 0.64221 0.78028 0.0
H468 H 0.89821 0.56659 0.6559 0.0
H469 H 0.99249 0.57171 0.6805 0.0
C470 C 0.03461 0.61213 0.76037 0.0
C471 C 0.05123 0.63341 0.80507 0.0
C472 C 0.98071 0.60972 0.74507 0.0
C473 C 0.01327 0.6529 0.83348 0.0
C474 C 0.95958 0.65129 0.81738 0.0
C475 C 0.88879 0.62696 0.75836 0.0
C476 C 0.87201 0.60409 0.71618 0.0
C477 C 0.94282 0.62959 0.77354 0.0
C478 C 0.91007 0.58426 0.68867 0.0
C479 C 0.96397 0.58724 0.70259 0.0
H480 H 0.44738 0.45153 0.23456 0.0
H481 H 0.47824 0.37124 0.34952 0.0
H482 H 0.57167 0.3707 0.32069 0.0
H483 H 0.64521 0.39446 0.2657 0.0
H484 H 0.61497 0.47679 0.15505 0.0
H485 H 0.52062 0.47506 0.17931 0.0
C486 C 0.47441 0.43365 0.25282 0.0
C487 C 0.45582 0.41131 0.29384 0.0
C488 C 0.52825 0.43399 0.23711 0.0
C489 C 0.49154 0.38867 0.3178 0.0
C490 C 0.54497 0.38837 0.30139 0.0
C491 C 0.61794 0.4119 0.24659 0.0
C492 C 0.63715 0.43574 0.20863 0.0
C493 C 0.56387 0.41114 0.26152 0.0
C494 C 0.6013 0.45831 0.18463 0.0
C495 C 0.54731 0.4573 0.19839 0.0
H496 H 0.26604 0.21748 0.31181 0.0
H497 H 0.30192 0.21166 0.49429 0.0
H498 H 0.29909 0.27113 0.50245 0.0
H499 H 0.29469 0.32495 0.45568 0.0
H500 H 0.2601 0.32997 0.2727 0.0
H501 H 0.25375 0.27077 0.26715 0.0
C502 C 0.27283 0.22917 0.35352 0.0
C503 C 0.28495 0.21011 0.40211 0.0
C504 C 0.27165 0.26333 0.35783 0.0
C505 C 0.29282 0.2257 0.45601 0.0
C506 C 0.29137 0.25975 0.46072 0.0
C507 C 0.28499 0.31312 0.4148 0.0
C508 C 0.27867 0.33192 0.36454 0.0
C509 C 0.28204 0.27886 0.41162 0.0
C510 C 0.2659 0.31613 0.31195 0.0
C511 C 0.26227 0.28223 0.30865 0.0
H512 H 0.2094 0.82225 0.96643 0.0
H513 H 0.26734 0.83342 0.79225 0.0
H514 H 0.27499 0.77454 0.78116 0.0
H515 H 0.2561 0.7197 0.81638 0.0
H516 H 0.19893 0.70736 0.99039 0.0
H517 H 0.20071 0.76645 1.00612 0.0
C518 C 0.22476 0.81179 0.92658 0.0
C519 C 0.23695 0.83231 0.87997 0.0
C520 C 0.22862 0.77755 0.92005 0.0
C521 C 0.25685 0.81826 0.82859 0.0
C522 C 0.26121 0.78451 0.82206 0.0
C523 C 0.24463 0.7299 0.85801 0.0
C524 C 0.22677 0.7091 0.90176 0.0
C525 C 0.24562 0.76389 0.86676 0.0
C526 C 0.21275 0.72274 0.95576 0.0
C527 C 0.21353 0.75662 0.96476 0.0
H528 H 0.79394 0.21131 0.07913 0.0
H529 H 0.75771 0.20701 0.26137 0.0
H530 H 0.75221 0.26619 0.26648 0.0
H531 H 0.76484 0.31944 0.22191 0.0
H532 H 0.80128 0.32493 0.04004 0.0
H533 H 0.79885 0.26539 0.03216 0.0
C534 C 0.78411 0.2233 0.11974 0.0
C535 C 0.777 0.20454 0.16993 0.0
C536 C 0.78137 0.25772 0.12269 0.0
C537 C 0.76412 0.22066 0.22213 0.0
C538 C 0.76094 0.25462 0.22521 0.0
C539 C 0.77178 0.30769 0.18035 0.0
C540 C 0.78381 0.32678 0.13187 0.0
C541 C 0.77071 0.27344 0.17616 0.0
C542 C 0.79204 0.31098 0.07824 0.0
C543 C 0.79088 0.27684 0.07371 0.0
H544 H 0.71747 0.82335 0.5819 0.0
H545 H 0.74214 0.83081 0.76669 0.0
H546 H 0.74844 0.7717 0.77304 0.0
H547 H 0.73913 0.71775 0.72803 0.0
H548 H 0.71376 0.70956 0.54357 0.0
H549 H 0.71626 0.76891 0.53533 0.0
C550 C 0.72489 0.81208 0.62344 0.0
C551 C 0.72848 0.83161 0.67382 0.0
C552 C 0.72804 0.77785 0.62704 0.0
C553 C 0.73848 0.81648 0.72723 0.0
C554 C 0.74209 0.7826 0.73101 0.0
C555 C 0.73463 0.72888 0.68589 0.0
C556 C 0.72554 0.70915 0.63669 0.0
C557 C 0.73562 0.76302 0.68147 0.0
C558 C 0.72055 0.72408 0.58232 0.0
C559 C 0.72177 0.75808 0.57755 0.0
loop_
_geom_bond_atom_site_label_1
_geom_bond_atom_site_label_2
_geom_bond_distance
_geom_bond_site_symmetry_2
_ccdc_geom_bond_type
Fe0 O2 1.918 . S
Fe0 O5 1.997 . S
Fe0 O6 2.002 . S
Fe0 O11 1.976 . S
Fe0 O14 1.996 . S
Fe1 O2 1.918 . S
Fe1 O9 1.997 . S
Fe1 O12 1.996 . S
Fe1 O16 1.976 . S
Fe1 O19 2.002 . S
O2 Fe0 1.918 . S
O2 Fe1 1.918 . S
O2 Fe3 1.918 . S
Fe3 O2 1.918 . S
Fe3 O4 2.002 . S
Fe3 O13 1.976 . S
Fe3 O17 1.996 . S
Fe3 O20 1.997 . S
O4 Fe3 2.002 . S
O4 C21 1.295 . S
O5 Fe0 1.997 . S
O5 C21 1.235 . S
O6 Fe0 2.002 . S
O6 C7 1.295 . S
C7 O6 1.295 . S
C7 O9 1.235 . S
C8 O13 1.287 . S
C8 O14 1.255 . S
O9 Fe1 1.997 . S
O9 C7 1.235 . S
C10 O16 1.287 . S
C10 O17 1.255 . S
O11 Fe0 1.976 . S
O11 C18 1.287 . S
O12 Fe1 1.996 . S
O12 C18 1.255 . S
O13 Fe3 1.976 . S
O13 C8 1.287 . S
O14 Fe0 1.996 . S
O14 C8 1.255 . S
C15 O19 1.295 . S
C15 O20 1.235 . S
O16 Fe1 1.976 . S
O16 C10 1.287 . S
O17 Fe3 1.996 . S
O17 C10 1.255 . S
C18 O11 1.287 . S
C18 O12 1.255 . S
O19 Fe1 2.002 . S
O19 C15 1.295 . S
O20 Fe3 1.997 . S
O20 C15 1.235 . S
C21 O4 1.295 . S
C21 O5 1.235 . S
Fe22 O24 1.918 . S
Fe22 O27 1.997 . S
Fe22 O28 2.002 . S
Fe22 O33 1.976 . S
Fe22 O36 1.996 . S
Fe23 O24 1.918 . S
Fe23 O31 1.997 . S
Fe23 O34 1.996 . S
Fe23 O38 1.976 . S
Fe23 O41 2.002 . S
O24 Fe22 1.918 . S
O24 Fe23 1.918 . S
O24 Fe25 1.918 . S
Fe25 O24 1.918 . S
Fe25 O26 2.002 . S
Fe25 O35 1.976 . S
Fe25 O39 1.996 . S
Fe25 O42 1.997 . S
O26 Fe25 2.002 . S
O26 C43 1.295 . S
O27 Fe22 1.997 . S
O27 C43 1.235 . S
O28 Fe22 2.002 . S
O28 C29 1.295 . S
C29 O28 1.295 . S
C29 O31 1.235 . S
C30 O35 1.287 1_554 S
C30 O36 1.255 1_554 S
O31 Fe23 1.997 . S
O31 C29 1.235 . S
C32 O38 1.287 . S
C32 O39 1.255 . S
O33 Fe22 1.976 . S
O33 C40 1.287 . S
O34 Fe23 1.996 . S
O34 C40 1.255 . S
O35 Fe25 1.976 . S
O35 C30 1.287 1_556 S
O36 Fe22 1.996 . S
O36 C30 1.255 1_556 S
C37 O41 1.295 . S
C37 O42 1.235 . S
O38 Fe23 1.976 . S
O38 C32 1.287 . S
O39 Fe25 1.996 . S
O39 C32 1.255 . S
C40 O33 1.287 . S
C40 O34 1.255 . S
O41 Fe23 2.002 . S
O41 C37 1.295 . S
O42 Fe25 1.997 . S
O42 C37 1.235 . S
C43 O26 1.295 . S
C43 O27 1.235 . S
Fe44 O46 1.918 . S
Fe44 O49 1.997 . S
Fe44 O50 2.002 . S
Fe44 O55 1.976 . S
Fe44 O58 1.996 . S
Fe45 O46 1.918 . S
Fe45 O53 1.997 . S
Fe45 O56 1.996 . S
Fe45 O60 1.976 . S
Fe45 O63 2.002 . S
O46 Fe44 1.918 . S
O46 Fe45 1.918 . S
O46 Fe47 1.918 . S
Fe47 O46 1.918 . S
Fe47 O48 2.002 . S
Fe47 O57 1.976 . S
Fe47 O61 1.996 . S
Fe47 O64 1.997 . S
O48 Fe47 2.002 . S
O48 C65 1.295 . S
O49 Fe44 1.997 . S
O49 C65 1.235 . S
O50 Fe44 2.002 . S
O50 C51 1.295 . S
C51 O50 1.295 . S
C51 O53 1.235 . S
C52 O57 1.287 1_556 S
C52 O58 1.255 1_556 S
O53 Fe45 1.997 . S
O53 C51 1.235 . S
C54 O60 1.287 . S
C54 O61 1.255 . S
O55 Fe44 1.976 . S
O55 C62 1.287 . S
O56 Fe45 1.996 . S
O56 C62 1.255 . S
O57 Fe47 1.976 . S
O57 C52 1.287 1_554 S
O58 Fe44 1.996 . S
O58 C52 1.255 1_554 S
C59 O63 1.295 . S
C59 O64 1.235 . S
O60 Fe45 1.976 . S
O60 C54 1.287 . S
O61 Fe47 1.996 . S
O61 C54 1.255 . S
C62 O55 1.287 . S
C62 O56 1.255 . S
O63 Fe45 2.002 . S
O63 C59 1.295 . S
O64 Fe47 1.997 . S
O64 C59 1.235 . S
C65 O48 1.295 . S
C65 O49 1.235 . S
Fe66 O68 1.918 . S
Fe66 O71 1.997 . S
Fe66 O72 2.002 . S
Fe66 O77 1.976 . S
Fe66 O80 1.996 . S
Fe67 O68 1.918 . S
Fe67 O75 1.997 . S
Fe67 O78 1.996 . S
Fe67 O82 1.976 . S
Fe67 O85 2.002 . S
O68 Fe66 1.918 . S
O68 Fe67 1.918 . S
O68 Fe69 1.918 . S
Fe69 O68 1.918 . S
Fe69 O70 2.002 . S
Fe69 O79 1.976 . S
Fe69 O83 1.996 . S
Fe69 O86 1.997 . S
O70 Fe69 2.002 . S
O70 C87 1.295 . S
O71 Fe66 1.997 . S
O71 C87 1.235 . S
O72 Fe66 2.002 . S
O72 C73 1.295 . S
C73 O72 1.295 . S
C73 O75 1.235 . S
C74 O79 1.287 . S
C74 O80 1.255 . S
O75 Fe67 1.997 . S
O75 C73 1.235 . S
C76 O82 1.287 . S
C76 O83 1.255 . S
O77 Fe66 1.976 . S
O77 C84 1.287 . S
O78 Fe67 1.996 . S
O78 C84 1.255 . S
O79 Fe69 1.976 . S
O79 C74 1.287 . S
O80 Fe66 1.996 . S
O80 C74 1.255 . S
C81 O85 1.295 . S
C81 O86 1.235 . S
O82 Fe67 1.976 . S
O82 C76 1.287 . S
O83 Fe69 1.996 . S
O83 C76 1.255 . S
C84 O77 1.287 . S
C84 O78 1.255 . S
O85 Fe67 2.002 . S
O85 C81 1.295 . S
O86 Fe69 1.997 . S
O86 C81 1.235 . S
C87 O70 1.295 . S
C87 O71 1.235 . S
Fe88 O90 1.918 . S
Fe88 O93 1.997 . S
Fe88 O94 2.002 . S
Fe88 O99 1.976 . S
Fe88 O102 1.996 . S
Fe89 O90 1.918 . S
Fe89 O97 1.997 . S
Fe89 O100 1.996 . S
Fe89 O104 1.976 . S
Fe89 O107 2.002 . S
O90 Fe88 1.918 . S
O90 Fe89 1.918 . S
O90 Fe91 1.918 . S
Fe91 O90 1.918 . S
Fe91 O92 2.002 . S
Fe91 O101 1.976 . S
Fe91 O105 1.996 . S
Fe91 O108 1.997 . S
O92 Fe91 2.002 . S
O92 C109 1.295 . S
O93 Fe88 1.997 . S
O93 C109 1.235 . S
O94 Fe88 2.002 . S
O94 C95 1.295 . S
C95 O94 1.295 . S
C95 O97 1.235 . S
C96 O101 1.287 . S
C96 O102 1.255 . S
O97 Fe89 1.997 . S
O97 C95 1.235 . S
C98 O104 1.287 . S
C98 O105 1.255 . S
O99 Fe88 1.976 . S
O99 C106 1.287 . S
O100 Fe89 1.996 . S
O100 C106 1.255 . S
O101 Fe91 1.976 . S
O101 C96 1.287 . S
O102 Fe88 1.996 . S
O102 C96 1.255 . S
C103 O107 1.295 . S
C103 O108 1.235 . S
O104 Fe89 1.976 . S
O104 C98 1.287 . S
O105 Fe91 1.996 . S
O105 C98 1.255 . S
C106 O99 1.287 . S
C106 O100 1.255 . S
O107 Fe89 2.002 . S
O107 C103 1.295 . S
O108 Fe91 1.997 . S
O108 C103 1.235 . S
C109 O92 1.295 . S
C109 O93 1.235 . S
Fe110 O112 1.918 . S
Fe110 O115 1.997 . S
Fe110 O116 2.002 . S
Fe110 O121 1.976 . S
Fe110 O124 1.996 . S
Fe111 O112 1.918 . S
Fe111 O119 1.997 . S
Fe111 O122 1.996 . S
Fe111 O126 1.976 . S
Fe111 O129 2.002 . S
O112 Fe110 1.918 . S
O112 Fe111 1.918 . S
O112 Fe113 1.918 . S
Fe113 O112 1.918 . S
Fe113 O114 2.002 . S
Fe113 O123 1.976 . S
Fe113 O127 1.996 . S
Fe113 O130 1.997 . S
O114 Fe113 2.002 . S
O114 C131 1.295 . S
O115 Fe110 1.997 . S
O115 C131 1.235 . S
O116 Fe110 2.002 . S
O116 C117 1.295 . S
C117 O116 1.295 . S
C117 O119 1.235 . S
C118 O123 1.287 . S
C118 O124 1.255 . S
O119 Fe111 1.997 . S
O119 C117 1.235 . S
C120 O126 1.287 1_556 S
C120 O127 1.255 1_556 S
O121 Fe110 1.976 . S
O121 C128 1.287 . S
O122 Fe111 1.996 . S
O122 C128 1.255 . S
O123 Fe113 1.976 . S
O123 C118 1.287 . S
O124 Fe110 1.996 . S
O124 C118 1.255 . S
C125 O129 1.295 . S
C125 O130 1.235 . S
O126 Fe111 1.976 . S
O126 C120 1.287 1_554 S
O127 Fe113 1.996 . S
O127 C120 1.255 1_554 S
C128 O121 1.287 . S
C128 O122 1.255 . S
O129 Fe111 2.002 . S
O129 C125 1.295 . S
O130 Fe113 1.997 . S
O130 C125 1.235 . S
C131 O114 1.295 . S
C131 O115 1.235 . S
Fe132 O134 1.918 . S
Fe132 O137 1.997 . S
Fe132 O138 2.002 . S
Fe132 O143 1.976 . S
Fe132 O146 1.996 . S
Fe133 O134 1.918 . S
Fe133 O141 1.997 . S
Fe133 O144 1.996 . S
Fe133 O148 1.976 . S
Fe133 O151 2.002 . S
O134 Fe132 1.918 . S
O134 Fe133 1.918 . S
O134 Fe135 1.918 . S
Fe135 O134 1.918 . S
Fe135 O136 2.002 . S
Fe135 O145 1.976 . S
Fe135 O149 1.996 . S
Fe135 O152 1.997 . S
O136 Fe135 2.002 . S
O136 C153 1.295 . S
O137 Fe132 1.997 . S
O137 C153 1.235 . S
O138 Fe132 2.002 . S
O138 C139 1.295 . S
C139 O138 1.295 . S
C139 O141 1.235 . S
C140 O145 1.287 . S
C140 O146 1.255 . S
O141 Fe133 1.997 . S
O141 C139 1.235 . S
C142 O148 1.287 1_554 S
C142 O149 1.255 1_554 S
O143 Fe132 1.976 . S
O143 C150 1.287 . S
O144 Fe133 1.996 . S
O144 C150 1.255 . S
O145 Fe135 1.976 . S
O145 C140 1.287 . S
O146 Fe132 1.996 . S
O146 C140 1.255 . S
C147 O151 1.295 . S
C147 O152 1.235 . S
O148 Fe133 1.976 . S
O148 C142 1.287 1_556 S
O149 Fe135 1.996 . S
O149 C142 1.255 1_556 S
C150 O143 1.287 . S
C150 O144 1.255 . S
O151 Fe133 2.002 . S
O151 C147 1.295 . S
O152 Fe135 1.997 . S
O152 C147 1.235 . S
C153 O136 1.295 . S
C153 O137 1.235 . S
Fe154 O156 1.918 . S
Fe154 O159 1.997 . S
Fe154 O160 2.002 . S
Fe154 O165 1.976 . S
Fe154 O168 1.996 . S
Fe155 O156 1.918 . S
Fe155 O163 1.997 . S
Fe155 O166 1.996 . S
Fe155 O170 1.976 . S
Fe155 O173 2.002 . S
O156 Fe154 1.918 . S
O156 Fe155 1.918 . S
O156 Fe157 1.918 . S
Fe157 O156 1.918 . S
Fe157 O158 2.002 . S
Fe157 O167 1.976 . S
Fe157 O171 1.996 . S
Fe157 O174 1.997 . S
O158 Fe157 2.002 . S
O158 C175 1.295 . S
O159 Fe154 1.997 . S
O159 C175 1.235 . S
O160 Fe154 2.002 . S
O160 C161 1.295 . S
C161 O160 1.295 . S
C161 O163 1.235 . S
C162 O167 1.287 . S
C162 O168 1.255 . S
O163 Fe155 1.997 . S
O163 C161 1.235 . S
C164 O170 1.287 . S
C164 O171 1.255 . S
O165 Fe154 1.976 . S
O165 C172 1.287 . S
O166 Fe155 1.996 . S
O166 C172 1.255 . S
O167 Fe157 1.976 . S
O167 C162 1.287 . S
O168 Fe154 1.996 . S
O168 C162 1.255 . S
C169 O173 1.295 . S
C169 O174 1.235 . S
O170 Fe155 1.976 . S
O170 C164 1.287 . S
O171 Fe157 1.996 . S
O171 C164 1.255 . S
C172 O165 1.287 . S
C172 O166 1.255 . S
O173 Fe155 2.002 . S
O173 C169 1.295 . S
O174 Fe157 1.997 . S
O174 C169 1.235 . S
C175 O158 1.295 . S
C175 O159 1.235 . S
H176 C182 0.930 . S
H177 C185 0.930 . S
H178 C186 0.930 . S
H179 C187 0.930 . S
H180 C190 0.930 . S
H181 C191 0.930 . S
C182 H176 0.930 . S
C182 C183 1.355 . S
C182 C184 1.415 . S
C183 C182 1.355 . S
C183 C185 1.419 1_565 S
C184 C182 1.415 . S
C184 C189 1.425 1_565 S
C184 C191 1.409 . S
C185 H177 0.930 . S
C185 C183 1.419 1_545 S
C185 C186 1.362 . S
C186 H178 0.930 . S
C186 C185 1.362 . S
C186 C189 1.409 . S
C187 H179 0.930 . S
C187 C188 1.355 . S
C187 C189 1.415 . S
C188 C187 1.355 . S
C188 C190 1.419 1_545 S
C189 C184 1.425 1_545 S
C189 C186 1.409 . S
C189 C187 1.415 . S
C190 H180 0.930 . S
C190 C188 1.419 1_565 S
C190 C191 1.362 . S
C191 H181 0.930 . S
C191 C184 1.409 . S
C191 C190 1.362 . S
H192 C198 0.930 1_556 S
H193 C201 0.930 . S
H194 C202 0.930 . S
H195 C203 0.930 1_554 S
H196 C206 0.930 . S
H197 C207 0.930 . S
C198 H192 0.930 1_554 S
C198 C199 1.355 1_565 S
C198 C200 1.415 1_554 S
C199 C198 1.355 1_545 S
C199 C201 1.419 . S
C200 C198 1.415 1_556 S
C200 C205 1.425 1_666 S
C200 C207 1.409 . S
C201 H193 0.930 . S
C201 C199 1.419 . S
C201 C202 1.362 1_655 S
C202 H194 0.930 . S
C202 C201 1.362 1_455 S
C202 C205 1.409 . S
C203 H195 0.930 1_556 S
C203 C204 1.355 1_545 S
C203 C205 1.415 1_556 S
C204 C203 1.355 1_565 S
C204 C206 1.419 . S
C205 C200 1.425 1_444 S
C205 C202 1.409 . S
C205 C203 1.415 1_554 S
C206 H196 0.930 . S
C206 C204 1.419 . S
C206 C207 1.362 1_455 S
C207 H197 0.930 . S
C207 C200 1.409 . S
C207 C206 1.362 1_655 S
H208 C214 0.930 1_554 S
H209 C217 0.930 . S
H210 C218 0.930 . S
H211 C219 0.930 1_556 S
H212 C222 0.930 . S
H213 C223 0.930 . S
C214 H208 0.930 1_556 S
C214 C215 1.355 . S
C214 C216 1.415 1_556 S
C215 C214 1.355 . S
C215 C217 1.419 . S
C216 C214 1.415 1_554 S
C216 C221 1.425 1_454 S
C216 C223 1.409 . S
C217 H209 0.930 . S
C217 C215 1.419 . S
C217 C218 1.362 1_455 S
C218 H210 0.930 . S
C218 C217 1.362 1_655 S
C218 C221 1.409 . S
C219 H211 0.930 1_554 S
C219 C220 1.355 . S
C219 C221 1.415 1_554 S
C220 C219 1.355 . S
C220 C222 1.419 . S
C221 C216 1.425 1_656 S
C221 C218 1.409 . S
C221 C219 1.415 1_556 S
C222 H212 0.930 . S
C222 C220 1.419 . S
C222 C223 1.362 1_655 S
C223 H213 0.930 . S
C223 C216 1.409 . S
C223 C222 1.362 1_455 S
H224 C230 0.930 . S
H225 C233 0.930 . S
H226 C234 0.930 . S
H227 C235 0.930 . S
H228 C238 0.930 . S
H229 C239 0.930 . S
C230 H224 0.930 . S
C230 C231 1.355 . S
C230 C232 1.415 . S
C231 C230 1.355 . S
C231 C233 1.419 . S
C232 C230 1.415 . S
C232 C237 1.425 . S
C232 C239 1.409 . S
C233 H225 0.930 . S
C233 C231 1.419 . S
C233 C234 1.362 . S
C234 H226 0.930 . S
C234 C233 1.362 . S
C234 C237 1.409 . S
C235 H227 0.930 . S
C235 C236 1.355 . S
C235 C237 1.415 . S
C236 C235 1.355 . S
C236 C238 1.419 . S
C237 C232 1.425 . S
C237 C234 1.409 . S
C237 C235 1.415 . S
C238 H228 0.930 . S
C238 C236 1.419 . S
C238 C239 1.362 . S
C239 H229 0.930 . S
C239 C232 1.409 . S
C239 C238 1.362 . S
H240 C246 0.930 . S
H241 C249 0.930 . S
H242 C250 0.930 . S
H243 C251 0.930 . S
H244 C254 0.930 . S
H245 C255 0.930 . S
C246 H240 0.930 . S
C246 C247 1.355 . S
C246 C248 1.415 1_545 S
C247 C246 1.355 . S
C247 C249 1.419 . S
C248 C246 1.415 1_565 S
C248 C253 1.425 . S
C248 C255 1.409 . S
C249 H241 0.930 . S
C249 C247 1.419 . S
C249 C250 1.362 1_545 S
C250 H242 0.930 . S
C250 C249 1.362 1_565 S
C250 C253 1.409 . S
C251 H243 0.930 . S
C251 C252 1.355 . S
C251 C253 1.415 . S
C252 C251 1.355 . S
C252 C254 1.419 . S
C253 C248 1.425 . S
C253 C250 1.409 . S
C253 C251 1.415 . S
C254 H244 0.930 . S
C254 C252 1.419 . S
C254 C255 1.362 . S
C255 H245 0.930 . S
C255 C248 1.409 . S
C255 C254 1.362 . S
H256 C262 0.930 . S
H257 C265 0.930 . S
H258 C266 0.930 . S
H259 C267 0.930 . S
H260 C270 0.930 . S
H261 C271 0.930 . S
C262 H256 0.930 . S
C262 C263 1.355 1_545 S
C262 C264 1.415 . S
C263 C262 1.355 1_565 S
C263 C265 1.419 . S
C264 C262 1.415 . S
C264 C269 1.425 . S
C264 C271 1.409 . S
C265 H257 0.930 . S
C265 C263 1.419 . S
C265 C266 1.362 . S
C266 H258 0.930 . S
C266 C265 1.362 . S
C266 C269 1.409 1_565 S
C267 H259 0.930 . S
C267 C268 1.355 . S
C267 C269 1.415 . S
C268 C267 1.355 . S
C268 C270 1.419 . S
C269 C264 1.425 . S
C269 C266 1.409 1_545 S
C269 C267 1.415 . S
C270 H260 0.930 . S
C270 C268 1.419 . S
C270 C271 1.362 . S
C271 H261 0.930 . S
C271 C264 1.409 . S
C271 C270 1.362 . S
H272 C278 0.930 . S
H273 C281 0.930 . S
H274 C282 0.930 . S
H275 C283 0.930 . S
H276 C286 0.930 . S
H277 C287 0.930 . S
C278 H272 0.930 . S
C278 C279 1.355 . S
C278 C280 1.415 . S
C279 C278 1.355 . S
C279 C281 1.419 . S
C280 C278 1.415 . S
C280 C285 1.425 . S
C280 C287 1.409 . S
C281 H273 0.930 . S
C281 C279 1.419 . S
C281 C282 1.362 . S
C282 H274 0.930 . S
C282 C281 1.362 . S
C282 C285 1.409 . S
C283 H275 0.930 . S
C283 C284 1.355 . S
C283 C285 1.415 . S
C284 C283 1.355 . S
C284 C286 1.419 . S
C285 C280 1.425 . S
C285 C282 1.409 . S
C285 C283 1.415 . S
C286 H276 0.930 . S
C286 C284 1.419 . S
C286 C287 1.362 . S
C287 H277 0.930 . S
C287 C280 1.409 . S
C287 C286 1.362 . S
H288 C294 0.930 . S
H289 C297 0.930 1_554 S
H290 C298 0.930 . S
H291 C299 0.930 . S
H292 C302 0.930 . S
H293 C303 0.930 . S
C294 H288 0.930 . S
C294 C295 1.355 . S
C294 C296 1.415 . S
C295 C294 1.355 . S
C295 C297 1.419 . S
C296 C294 1.415 . S
C296 C301 1.425 . S
C296 C303 1.409 . S
C297 H289 0.930 1_556 S
C297 C295 1.419 . S
C297 C298 1.362 . S
C298 H290 0.930 . S
C298 C297 1.362 . S
C298 C301 1.409 . S
C299 H291 0.930 . S
C299 C300 1.355 . S
C299 C301 1.415 . S
C300 C299 1.355 . S
C300 C302 1.419 . S
C301 C296 1.425 . S
C301 C298 1.409 . S
C301 C299 1.415 . S
C302 H292 0.930 . S
C302 C300 1.419 . S
C302 C303 1.362 . S
C303 H293 0.930 . S
C303 C296 1.409 . S
C303 C302 1.362 . S
H304 C310 0.930 . S
H305 C313 0.930 . S
H306 C314 0.899 1_565 S
H307 C315 0.930 . S
H308 C318 0.930 . S
H309 C319 0.930 . S
C310 H304 0.930 . S
C310 C311 1.355 . S
C310 C312 1.415 . S
C311 C310 1.355 . S
C311 C313 1.419 . S
C312 C310 1.415 . S
C312 C317 1.425 . S
C312 C319 1.409 . S
C313 H305 0.930 . S
C313 C311 1.419 . S
C313 C314 1.388 . S
C314 H306 0.899 1_545 S
C314 C313 1.388 . S
C314 C317 1.415 . S
C315 H307 0.930 . S
C315 C316 1.355 . S
C315 C317 1.415 1_565 S
C316 C315 1.355 . S
C316 C318 1.419 1_565 S
C317 C312 1.425 . S
C317 C314 1.415 . S
C317 C315 1.415 1_545 S
C318 H308 0.930 . S
C318 C316 1.419 1_545 S
C318 C319 1.362 . S
C319 H309 0.930 . S
C319 C312 1.409 . S
C319 C318 1.362 . S
H320 C326 0.930 . S
H321 C329 0.930 . S
H322 C330 0.930 . S
H323 C331 0.927 1_545 S
H324 C334 0.930 . S
H325 C335 0.930 . S
C326 H320 0.930 . S
C326 C327 1.355 . S
C326 C328 1.415 . S
C327 C326 1.355 . S
C327 C329 1.419 . S
C328 C326 1.415 . S
C328 C333 1.425 . S
C328 C335 1.409 . S
C329 H321 0.930 . S
C329 C327 1.419 . S
C329 C330 1.362 . S
C330 H322 0.930 . S
C330 C329 1.362 . S
C330 C333 1.409 . S
C331 H323 0.927 1_565 S
C331 C332 1.342 1_565 S
C331 C333 1.431 . S
C332 C331 1.342 1_545 S
C332 C334 1.419 . S
C333 C328 1.425 . S
C333 C330 1.409 . S
C333 C331 1.431 . S
C334 H324 0.930 . S
C334 C332 1.419 . S
C334 C335 1.362 1_545 S
C335 H325 0.930 . S
C335 C328 1.409 . S
C335 C334 1.362 1_565 S
H336 C342 0.930 . S
H337 C345 0.930 . S
H338 C346 0.930 . S
H339 C347 0.930 . S
H340 C350 0.930 . S
H341 C351 0.930 . S
C342 H336 0.930 . S
C342 C343 1.355 . S
C342 C344 1.415 . S
C343 C342 1.355 . S
C343 C345 1.419 . S
C344 C342 1.415 . S
C344 C349 1.425 . S
C344 C351 1.409 . S
C345 H337 0.930 . S
C345 C343 1.419 . S
C345 C346 1.362 . S
C346 H338 0.930 . S
C346 C345 1.362 . S
C346 C349 1.409 . S
C347 H339 0.930 . S
C347 C348 1.355 . S
C347 C349 1.415 . S
C348 C347 1.355 . S
C348 C350 1.419 . S
C349 C344 1.425 . S
C349 C346 1.409 . S
C349 C347 1.415 . S
C350 H340 0.930 . S
C350 C348 1.419 . S
C350 C351 1.362 . S
C351 H341 0.930 . S
C351 C344 1.409 . S
C351 C350 1.362 . S
H352 C358 0.930 . S
H353 C361 0.930 . S
H354 C362 0.930 . S
H355 C363 0.930 . S
H356 C366 0.930 . S
H357 C367 0.930 . S
C358 H352 0.930 . S
C358 C359 1.355 . S
C358 C360 1.415 . S
C359 C358 1.355 . S
C359 C361 1.419 . S
C360 C358 1.415 . S
C360 C365 1.425 . S
C360 C367 1.409 . S
C361 H353 0.930 . S
C361 C359 1.419 . S
C361 C362 1.362 . S
C362 H354 0.930 . S
C362 C361 1.362 . S
C362 C365 1.409 . S
C363 H355 0.930 . S
C363 C364 1.355 . S
C363 C365 1.415 . S
C364 C363 1.355 . S
C364 C366 1.419 . S
C365 C360 1.425 . S
C365 C362 1.409 . S
C365 C363 1.415 . S
C366 H356 0.930 . S
C366 C364 1.419 . S
C366 C367 1.362 . S
C367 H357 0.930 . S
C367 C360 1.409 . S
C367 C366 1.362 . S
H368 C374 0.930 . S
H369 C377 0.930 . S
H370 C378 0.930 . S
H371 C379 0.930 . S
H372 C382 0.930 . S
H373 C383 0.930 . S
C374 H368 0.930 . S
C374 C375 1.355 . S
C374 C376 1.415 . S
C375 C374 1.355 . S
C375 C377 1.419 . S
C376 C374 1.415 . S
C376 C381 1.425 . S
C376 C383 1.409 . S
C377 H369 0.930 . S
C377 C375 1.419 . S
C377 C378 1.362 . S
C378 H370 0.930 . S
C378 C377 1.362 . S
C378 C381 1.409 . S
C379 H371 0.930 . S
C379 C380 1.355 . S
C379 C381 1.415 . S
C380 C379 1.355 . S
C380 C382 1.419 . S
C381 C376 1.425 . S
C381 C378 1.409 . S
C381 C379 1.415 . S
C382 H372 0.930 . S
C382 C380 1.419 . S
C382 C383 1.362 . S
C383 H373 0.930 . S
C383 C376 1.409 . S
C383 C382 1.362 . S
H384 C390 0.930 . S
H385 C393 0.930 . S
H386 C394 0.930 . S
H387 C395 0.930 . S
H388 C398 0.930 . S
H389 C399 0.930 . S
C390 H384 0.930 . S
C390 C391 1.355 . S
C390 C392 1.415 . S
C391 C390 1.355 . S
C391 C393 1.419 . S
C392 C390 1.415 . S
C392 C397 1.425 . S
C392 C399 1.409 . S
C393 H385 0.930 . S
C393 C391 1.419 . S
C393 C394 1.362 . S
C394 H386 0.930 . S
C394 C393 1.362 . S
C394 C397 1.409 . S
C395 H387 0.930 . S
C395 C396 1.355 . S
C395 C397 1.415 1_455 S
C396 C395 1.355 . S
C396 C398 1.419 1_455 S
C397 C392 1.425 . S
C397 C394 1.409 . S
C397 C395 1.415 1_655 S
C398 H388 0.930 . S
C398 C396 1.419 1_655 S
C398 C399 1.362 . S
C399 H389 0.930 . S
C399 C392 1.409 . S
C399 C398 1.362 . S
H400 C406 0.930 . S
H401 C409 0.930 . S
H402 C410 0.930 . S
H403 C411 0.930 . S
H404 C414 0.930 . S
H405 C415 0.930 . S
C406 H400 0.930 . S
C406 C407 1.355 . S
C406 C408 1.415 . S
C407 C406 1.355 . S
C407 C409 1.419 . S
C408 C406 1.415 . S
C408 C413 1.425 . S
C408 C415 1.409 . S
C409 H401 0.930 . S
C409 C407 1.419 . S
C409 C410 1.362 . S
C410 H402 0.930 . S
C410 C409 1.362 . S
C410 C413 1.409 . S
C411 H403 0.930 . S
C411 C412 1.355 . S
C411 C413 1.415 1_655 S
C412 C411 1.355 . S
C412 C414 1.419 1_655 S
C413 C408 1.425 . S
C413 C410 1.409 . S
C413 C411 1.415 1_455 S
C414 H404 0.930 . S
C414 C412 1.419 1_455 S
C414 C415 1.362 . S
C415 H405 0.930 . S
C415 C408 1.409 . S
C415 C414 1.362 . S
H416 C422 0.930 . S
H417 C425 0.930 . S
H418 C426 0.930 . S
H419 C427 0.930 . S
H420 C430 0.930 . S
H421 C431 0.930 . S
C422 H416 0.930 . S
C422 C423 1.355 . S
C422 C424 1.415 . S
C423 C422 1.355 . S
C423 C425 1.419 . S
C424 C422 1.415 . S
C424 C429 1.425 . S
C424 C431 1.409 . S
C425 H417 0.930 . S
C425 C423 1.419 . S
C425 C426 1.362 . S
C426 H418 0.930 . S
C426 C425 1.362 . S
C426 C429 1.409 . S
C427 H419 0.930 . S
C427 C428 1.355 . S
C427 C429 1.415 . S
C428 C427 1.355 . S
C428 C430 1.419 . S
C429 C424 1.425 . S
C429 C426 1.409 . S
C429 C427 1.415 . S
C430 H420 0.930 . S
C430 C428 1.419 . S
C430 C431 1.362 . S
C431 H421 0.930 . S
C431 C424 1.409 . S
C431 C430 1.362 . S
H432 C438 0.930 . S
H433 C441 0.930 . S
H434 C442 0.930 . S
H435 C443 0.930 . S
H436 C446 0.930 . S
H437 C447 0.930 . S
C438 H432 0.930 . S
C438 C439 1.355 . S
C438 C440 1.415 . S
C439 C438 1.355 . S
C439 C441 1.419 . S
C440 C438 1.415 . S
C440 C445 1.425 . S
C440 C447 1.409 . S
C441 H433 0.930 . S
C441 C439 1.419 . S
C441 C442 1.362 . S
C442 H434 0.930 . S
C442 C441 1.362 . S
C442 C445 1.409 . S
C443 H435 0.930 . S
C443 C444 1.355 . S
C443 C445 1.415 . S
C444 C443 1.355 . S
C444 C446 1.419 . S
C445 C440 1.425 . S
C445 C442 1.409 . S
C445 C443 1.415 . S
C446 H436 0.930 . S
C446 C444 1.419 . S
C446 C447 1.362 . S
C447 H437 0.930 . S
C447 C440 1.409 . S
C447 C446 1.362 . S
H448 C454 0.930 . S
H449 C457 0.930 . S
H450 C458 0.930 . S
H451 C459 0.930 . S
H452 C462 0.930 . S
H453 C463 0.930 1_655 S
C454 H448 0.930 . S
C454 C455 1.355 . S
C454 C456 1.415 . S
C455 C454 1.355 . S
C455 C457 1.419 . S
C456 C454 1.415 . S
C456 C461 1.425 . S
C456 C463 1.409 . S
C457 H449 0.930 . S
C457 C455 1.419 . S
C457 C458 1.362 . S
C458 H450 0.930 . S
C458 C457 1.362 . S
C458 C461 1.409 . S
C459 H451 0.930 . S
C459 C460 1.355 1_455 S
C459 C461 1.415 . S
C460 C459 1.355 1_655 S
C460 C462 1.419 . S
C461 C456 1.425 . S
C461 C458 1.409 . S
C461 C459 1.415 . S
C462 H452 0.930 . S
C462 C460 1.419 . S
C462 C463 1.362 1_655 S
C463 H453 0.930 1_455 S
C463 C456 1.409 . S
C463 C462 1.362 1_455 S
H464 C470 0.930 . S
H465 C473 0.930 . S
H466 C474 0.930 . S
H467 C475 0.930 . S
H468 C478 0.930 . S
H469 C479 0.930 . S
C470 H464 0.930 . S
C470 C471 1.355 . S
C470 C472 1.415 1_455 S
C471 C470 1.355 . S
C471 C473 1.419 1_455 S
C472 C470 1.415 1_655 S
C472 C477 1.425 . S
C472 C479 1.409 . S
C473 H465 0.930 . S
C473 C471 1.419 1_655 S
C473 C474 1.362 . S
C474 H466 0.930 . S
C474 C473 1.362 . S
C474 C477 1.409 . S
C475 H467 0.930 . S
C475 C476 1.355 . S
C475 C477 1.415 . S
C476 C475 1.355 . S
C476 C478 1.419 . S
C477 C472 1.425 . S
C477 C474 1.409 . S
C477 C475 1.415 . S
C478 H468 0.930 . S
C478 C476 1.419 . S
C478 C479 1.362 . S
C479 H469 0.930 . S
C479 C472 1.409 . S
C479 C478 1.362 . S
H480 C486 0.930 . S
H481 C489 0.930 . S
H482 C490 0.930 . S
H483 C491 0.930 . S
H484 C494 0.930 . S
H485 C495 0.930 . S
C486 H480 0.930 . S
C486 C487 1.355 . S
C486 C488 1.415 . S
C487 C486 1.355 . S
C487 C489 1.419 . S
C488 C486 1.415 . S
C488 C493 1.425 . S
C488 C495 1.409 . S
C489 H481 0.930 . S
C489 C487 1.419 . S
C489 C490 1.362 . S
C490 H482 0.930 . S
C490 C489 1.362 . S
C490 C493 1.409 . S
C491 H483 0.930 . S
C491 C492 1.355 . S
C491 C493 1.415 . S
C492 C491 1.355 . S
C492 C494 1.419 . S
C493 C488 1.425 . S
C493 C490 1.409 . S
C493 C491 1.415 . S
C494 H484 0.930 . S
C494 C492 1.419 . S
C494 C495 1.362 . S
C495 H485 0.930 . S
C495 C488 1.409 . S
C495 C494 1.362 . S
H496 C502 0.930 . S
H497 C505 0.930 . S
H498 C506 0.930 . S
H499 C507 0.930 . S
H500 C510 0.930 . S
H501 C511 0.930 . S
C502 H496 0.930 . S
C502 C503 1.355 . S
C502 C504 1.415 . S
C503 C502 1.355 . S
C503 C505 1.419 . S
C504 C502 1.415 . S
C504 C509 1.425 . S
C504 C511 1.409 . S
C505 H497 0.930 . S
C505 C503 1.419 . S
C505 C506 1.362 . S
C506 H498 0.930 . S
C506 C505 1.362 . S
C506 C509 1.409 . S
C507 H499 0.930 . S
C507 C508 1.355 . S
C507 C509 1.415 . S
C508 C507 1.355 . S
C508 C510 1.419 . S
C509 C504 1.425 . S
C509 C506 1.409 . S
C509 C507 1.415 . S
C510 H500 0.930 . S
C510 C508 1.419 . S
C510 C511 1.362 . S
C511 H501 0.930 . S
C511 C504 1.409 . S
C511 C510 1.362 . S
H512 C518 0.930 . S
H513 C521 0.930 . S
H514 C522 0.930 . S
H515 C523 0.930 . S
H516 C526 0.930 . S
H517 C527 0.930 . S
C518 H512 0.930 . S
C518 C519 1.355 . S
C518 C520 1.415 . S
C519 C518 1.355 . S
C519 C521 1.419 . S
C520 C518 1.415 . S
C520 C525 1.425 . S
C520 C527 1.409 . S
C521 H513 0.930 . S
C521 C519 1.419 . S
C521 C522 1.362 . S
C522 H514 0.930 . S
C522 C521 1.362 . S
C522 C525 1.409 . S
C523 H515 0.930 . S
C523 C524 1.355 . S
C523 C525 1.415 . S
C524 C523 1.355 . S
C524 C526 1.419 . S
C525 C520 1.425 . S
C525 C522 1.409 . S
C525 C523 1.415 . S
C526 H516 0.930 . S
C526 C524 1.419 . S
C526 C527 1.362 . S
C527 H517 0.930 . S
C527 C520 1.409 . S
C527 C526 1.362 . S
H528 C534 0.930 . S
H529 C537 0.930 . S
H530 C538 0.930 . S
H531 C539 0.930 . S
H532 C542 0.930 . S
H533 C543 0.930 1_556 S
C534 H528 0.930 . S
C534 C535 1.355 . S
C534 C536 1.415 . S
C535 C534 1.355 . S
C535 C537 1.419 . S
C536 C534 1.415 . S
C536 C541 1.425 . S
C536 C543 1.409 . S
C537 H529 0.930 . S
C537 C535 1.419 . S
C537 C538 1.362 . S
C538 H530 0.930 . S
C538 C537 1.362 . S
C538 C541 1.409 . S
C539 H531 0.930 . S
C539 C540 1.355 . S
C539 C541 1.415 . S
C540 C539 1.355 . S
C540 C542 1.419 . S
C541 C536 1.425 . S
C541 C538 1.409 . S
C541 C539 1.415 . S
C542 H532 0.930 . S
C542 C540 1.419 . S
C542 C543 1.362 . S
C543 H533 0.930 1_554 S
C543 C536 1.409 . S
C543 C542 1.362 . S
H544 C550 0.930 . S
H545 C553 0.930 . S
H546 C554 0.930 . S
H547 C555 0.930 . S
H548 C558 0.930 . S
H549 C559 0.930 . S
C550 H544 0.930 . S
C550 C551 1.355 . S
C550 C552 1.415 . S
C551 C550 1.355 . S
C551 C553 1.419 . S
C552 C550 1.415 . S
C552 C557 1.425 . S
C552 C559 1.409 . S
C553 H545 0.930 . S
C553 C551 1.419 . S
C553 C554 1.362 . S
C554 H546 0.930 . S
C554 C553 1.362 . S
C554 C557 1.409 . S
C555 H547 0.930 . S
C555 C556 1.355 . S
C555 C557 1.415 . S
C556 C555 1.355 . S
C556 C558 1.419 . S
C557 C552 1.425 . S
C557 C554 1.409 . S
C557 C555 1.415 . S
C558 H548 0.930 . S
C558 C556 1.419 . S
C558 C559 1.362 . S
C559 H549 0.930 . S
C559 C552 1.409 . S
C559 C558 1.362 . S
C183 C95 1.194 . S
C188 C21 1.188 . S
C199 C125 1.156 . S
C204 C43 1.145 . S
C215 C147 1.160 . S
C220 C65 1.150 . S
C231 C81 1.073 . S
C236 C161 1.088 . S
C247 C7 1.588 . S
C252 C30 1.567 . S
C263 C29 1.619 . S
C268 C8 1.599 . S
C279 C76 1.529 . S
C284 C51 1.634 . S
C295 C52 1.522 . S
C300 C87 1.607 . S
C311 C120 1.537 . S
C316 C109 1.620 . S
C327 C106 1.562 . S
C332 C117 1.647 . S
C343 C139 1.645 . S
C348 C172 1.548 . S
C359 C142 1.593 . S
C364 C175 1.597 . S
C375 C15 1.444 . S
C380 C128 1.461 . S
C391 C96 1.465 . S
C396 C37 1.457 . S
C407 C162 1.459 . S
C412 C59 1.465 . S
C423 C150 1.429 . S
C428 C73 1.460 . S
C439 C103 1.465 . S
C444 C40 1.456 . S
C455 C18 1.413 . S
C460 C131 1.441 . S
C471 C153 1.462 . S
C476 C74 1.459 . S
C487 C169 1.458 . S
C492 C62 1.462 . S
C503 C10 1.429 . S
C508 C164 1.453 . S
C519 C32 1.429 . S
C524 C140 1.453 . S
C535 C118 1.422 . S
C540 C54 1.456 . S
C551 C98 1.422 . S
C556 C84 1.456 . S
