# Generated by pormake.
# Topology wlp, (5)-cn, num edge types: 1
# Building blocks:
#     Node 0, Type 0, BuildingBlock: XOMCOT_clean_sbu_1, # of connection points: 5
#     Node 1, Type 0, BuildingBlock: XOMCOT_clean_sbu_1, # of connection points: 5
#     Node 2, Type 0, BuildingBlock: XOMCOT_clean_sbu_1, # of connection points: 5
#     Node 3, Type 0, BuildingBlock: XOMCOT_clean_sbu_1, # of connection points: 5
#     Node 4, Type 0, BuildingBlock: XOMCOT_clean_sbu_1, # of connection points: 5
#     Node 5, Type 0, BuildingBlock: XOMCOT_clean_sbu_1, # of connection points: 5
#     Node 6, Type 0, BuildingBlock: XOMCOT_clean_sbu_1, # of connection points: 5
#     Node 7, Type 0, BuildingBlock: XOMCOT_clean_sbu_1, # of connection points: 5
#     Node 8, Type 0, BuildingBlock: XOMCOT_clean_sbu_1, # of connection points: 5
#     Node 9, Type 0, BuildingBlock: XOMCOT_clean_sbu_1, # of connection points: 5
#     Node 10, Type 0, BuildingBlock: XOMCOT_clean_sbu_1, # of connection points: 5
#     Node 11, Type 0, BuildingBlock: XOMCOT_clean_sbu_1, # of connection points: 5
#     Node 12, Type 0, BuildingBlock: XOMCOT_clean_sbu_1, # of connection points: 5
#     Node 13, Type 0, BuildingBlock: XOMCOT_clean_sbu_1, # of connection points: 5
#     Node 14, Type 0, BuildingBlock: XOMCOT_clean_sbu_1, # of connection points: 5
#     Node 15, Type 0, BuildingBlock: XOMCOT_clean_sbu_1, # of connection points: 5
#     Node 16, Type 0, BuildingBlock: XOMCOT_clean_sbu_1, # of connection points: 5
#     Node 17, Type 0, BuildingBlock: XOMCOT_clean_sbu_1, # of connection points: 5
#     Node 18, Type 0, BuildingBlock: XOMCOT_clean_sbu_1, # of connection points: 5
#     Node 19, Type 0, BuildingBlock: XOMCOT_clean_sbu_1, # of connection points: 5
#     Node 20, Type 0, BuildingBlock: XOMCOT_clean_sbu_1, # of connection points: 5
#     Node 21, Type 0, BuildingBlock: XOMCOT_clean_sbu_1, # of connection points: 5
#     Node 22, Type 0, BuildingBlock: XOMCOT_clean_sbu_1, # of connection points: 5
#     Node 23, Type 0, BuildingBlock: XOMCOT_clean_sbu_1, # of connection points: 5
#     Node 24, Type 0, BuildingBlock: XOMCOT_clean_sbu_1, # of connection points: 5
#     Node 25, Type 0, BuildingBlock: XOMCOT_clean_sbu_1, # of connection points: 5
#     Node 26, Type 0, BuildingBlock: XOMCOT_clean_sbu_1, # of connection points: 5
#     Node 27, Type 0, BuildingBlock: XOMCOT_clean_sbu_1, # of connection points: 5
#     Node 28, Type 0, BuildingBlock: XOMCOT_clean_sbu_1, # of connection points: 5
#     Node 29, Type 0, BuildingBlock: XOMCOT_clean_sbu_1, # of connection points: 5
#     Node 30, Type 0, BuildingBlock: XOMCOT_clean_sbu_1, # of connection points: 5
#     Node 31, Type 0, BuildingBlock: XOMCOT_clean_sbu_1, # of connection points: 5
#     Node 32, Type 0, BuildingBlock: XOMCOT_clean_sbu_1, # of connection points: 5
#     Node 33, Type 0, BuildingBlock: XOMCOT_clean_sbu_1, # of connection points: 5
#     Node 34, Type 0, BuildingBlock: XOMCOT_clean_sbu_1, # of connection points: 5
#     Node 35, Type 0, BuildingBlock: XOMCOT_clean_sbu_1, # of connection points: 5
#     Edge 36, Type (0, 0), BuildingBlock: AJUNOK_clean_linker_0, # of connection points: 2
#     Edge 37, Type (0, 0), BuildingBlock: AJUNOK_clean_linker_0, # of connection points: 2
#     Edge 38, Type (0, 0), BuildingBlock: AJUNOK_clean_linker_0, # of connection points: 2
#     Edge 39, Type (0, 0), BuildingBlock: AJUNOK_clean_linker_0, # of connection points: 2
#     Edge 40, Type (0, 0), BuildingBlock: AJUNOK_clean_linker_0, # of connection points: 2
#     Edge 41, Type (0, 0), BuildingBlock: AJUNOK_clean_linker_0, # of connection points: 2
#     Edge 42, Type (0, 0), BuildingBlock: AJUNOK_clean_linker_0, # of connection points: 2
#     Edge 43, Type (0, 0), BuildingBlock: AJUNOK_clean_linker_0, # of connection points: 2
#     Edge 44, Type (0, 0), BuildingBlock: AJUNOK_clean_linker_0, # of connection points: 2
#     Edge 45, Type (0, 0), BuildingBlock: AJUNOK_clean_linker_0, # of connection points: 2
#     Edge 46, Type (0, 0), BuildingBlock: AJUNOK_clean_linker_0, # of connection points: 2
#     Edge 47, Type (0, 0), BuildingBlock: AJUNOK_clean_linker_0, # of connection points: 2
#     Edge 48, Type (0, 0), BuildingBlock: AJUNOK_clean_linker_0, # of connection points: 2
#     Edge 49, Type (0, 0), BuildingBlock: AJUNOK_clean_linker_0, # of connection points: 2
#     Edge 50, Type (0, 0), BuildingBlock: AJUNOK_clean_linker_0, # of connection points: 2
#     Edge 51, Type (0, 0), BuildingBlock: AJUNOK_clean_linker_0, # of connection points: 2
#     Edge 52, Type (0, 0), BuildingBlock: AJUNOK_clean_linker_0, # of connection points: 2
#     Edge 53, Type (0, 0), BuildingBlock: AJUNOK_clean_linker_0, # of connection points: 2
#     Edge 54, Type (0, 0), BuildingBlock: AJUNOK_clean_linker_0, # of connection points: 2
#     Edge 55, Type (0, 0), BuildingBlock: AJUNOK_clean_linker_0, # of connection points: 2
#     Edge 56, Type (0, 0), BuildingBlock: AJUNOK_clean_linker_0, # of connection points: 2
#     Edge 57, Type (0, 0), BuildingBlock: AJUNOK_clean_linker_0, # of connection points: 2
#     Edge 58, Type (0, 0), BuildingBlock: AJUNOK_clean_linker_0, # of connection points: 2
#     Edge 59, Type (0, 0), BuildingBlock: AJUNOK_clean_linker_0, # of connection points: 2
#     Edge 60, Type (0, 0), BuildingBlock: AJUNOK_clean_linker_0, # of connection points: 2
#     Edge 61, Type (0, 0), BuildingBlock: AJUNOK_clean_linker_0, # of connection points: 2
#     Edge 62, Type (0, 0), BuildingBlock: AJUNOK_clean_linker_0, # of connection points: 2
#     Edge 63, Type (0, 0), BuildingBlock: AJUNOK_clean_linker_0, # of connection points: 2
#     Edge 64, Type (0, 0), BuildingBlock: AJUNOK_clean_linker_0, # of connection points: 2
#     Edge 65, Type (0, 0), BuildingBlock: AJUNOK_clean_linker_0, # of connection points: 2
#     Edge 66, Type (0, 0), BuildingBlock: AJUNOK_clean_linker_0, # of connection points: 2
#     Edge 67, Type (0, 0), BuildingBlock: AJUNOK_clean_linker_0, # of connection points: 2
#     Edge 68, Type (0, 0), BuildingBlock: AJUNOK_clean_linker_0, # of connection points: 2
#     Edge 69, Type (0, 0), BuildingBlock: AJUNOK_clean_linker_0, # of connection points: 2
#     Edge 70, Type (0, 0), BuildingBlock: AJUNOK_clean_linker_0, # of connection points: 2
#     Edge 71, Type (0, 0), BuildingBlock: AJUNOK_clean_linker_0, # of connection points: 2
#     Edge 72, Type (0, 0), BuildingBlock: AJUNOK_clean_linker_0, # of connection points: 2
#     Edge 73, Type (0, 0), BuildingBlock: AJUNOK_clean_linker_0, # of connection points: 2
#     Edge 74, Type (0, 0), BuildingBlock: AJUNOK_clean_linker_0, # of connection points: 2
#     Edge 75, Type (0, 0), BuildingBlock: AJUNOK_clean_linker_0, # of connection points: 2
#     Edge 76, Type (0, 0), BuildingBlock: AJUNOK_clean_linker_0, # of connection points: 2
#     Edge 77, Type (0, 0), BuildingBlock: AJUNOK_clean_linker_0, # of connection points: 2
#     Edge 78, Type (0, 0), BuildingBlock: AJUNOK_clean_linker_0, # of connection points: 2
#     Edge 79, Type (0, 0), BuildingBlock: AJUNOK_clean_linker_0, # of connection points: 2
#     Edge 80, Type (0, 0), BuildingBlock: AJUNOK_clean_linker_0, # of connection points: 2
#     Edge 81, Type (0, 0), BuildingBlock: AJUNOK_clean_linker_0, # of connection points: 2
#     Edge 82, Type (0, 0), BuildingBlock: AJUNOK_clean_linker_0, # of connection points: 2
#     Edge 83, Type (0, 0), BuildingBlock: AJUNOK_clean_linker_0, # of connection points: 2
#     Edge 84, Type (0, 0), BuildingBlock: AJUNOK_clean_linker_0, # of connection points: 2
#     Edge 85, Type (0, 0), BuildingBlock: AJUNOK_clean_linker_0, # of connection points: 2
#     Edge 86, Type (0, 0), BuildingBlock: AJUNOK_clean_linker_0, # of connection points: 2
#     Edge 87, Type (0, 0), BuildingBlock: AJUNOK_clean_linker_0, # of connection points: 2
#     Edge 88, Type (0, 0), BuildingBlock: AJUNOK_clean_linker_0, # of connection points: 2
#     Edge 89, Type (0, 0), BuildingBlock: AJUNOK_clean_linker_0, # of connection points: 2
#     Edge 90, Type (0, 0), BuildingBlock: AJUNOK_clean_linker_0, # of connection points: 2
#     Edge 91, Type (0, 0), BuildingBlock: AJUNOK_clean_linker_0, # of connection points: 2
#     Edge 92, Type (0, 0), BuildingBlock: AJUNOK_clean_linker_0, # of connection points: 2
#     Edge 93, Type (0, 0), BuildingBlock: AJUNOK_clean_linker_0, # of connection points: 2
#     Edge 94, Type (0, 0), BuildingBlock: AJUNOK_clean_linker_0, # of connection points: 2
#     Edge 95, Type (0, 0), BuildingBlock: AJUNOK_clean_linker_0, # of connection points: 2
#     Edge 96, Type (0, 0), BuildingBlock: AJUNOK_clean_linker_0, # of connection points: 2
#     Edge 97, Type (0, 0), BuildingBlock: AJUNOK_clean_linker_0, # of connection points: 2
#     Edge 98, Type (0, 0), BuildingBlock: AJUNOK_clean_linker_0, # of connection points: 2
#     Edge 99, Type (0, 0), BuildingBlock: AJUNOK_clean_linker_0, # of connection points: 2
#     Edge 100, Type (0, 0), BuildingBlock: AJUNOK_clean_linker_0, # of connection points: 2
#     Edge 101, Type (0, 0), BuildingBlock: AJUNOK_clean_linker_0, # of connection points: 2
#     Edge 102, Type (0, 0), BuildingBlock: AJUNOK_clean_linker_0, # of connection points: 2
#     Edge 103, Type (0, 0), BuildingBlock: AJUNOK_clean_linker_0, # of connection points: 2
#     Edge 104, Type (0, 0), BuildingBlock: AJUNOK_clean_linker_0, # of connection points: 2
#     Edge 105, Type (0, 0), BuildingBlock: AJUNOK_clean_linker_0, # of connection points: 2
#     Edge 106, Type (0, 0), BuildingBlock: AJUNOK_clean_linker_0, # of connection points: 2
#     Edge 107, Type (0, 0), BuildingBlock: AJUNOK_clean_linker_0, # of connection points: 2
#     Edge 108, Type (0, 0), BuildingBlock: AJUNOK_clean_linker_0, # of connection points: 2
#     Edge 109, Type (0, 0), BuildingBlock: AJUNOK_clean_linker_0, # of connection points: 2
#     Edge 110, Type (0, 0), BuildingBlock: AJUNOK_clean_linker_0, # of connection points: 2
#     Edge 111, Type (0, 0), BuildingBlock: AJUNOK_clean_linker_0, # of connection points: 2
#     Edge 112, Type (0, 0), BuildingBlock: AJUNOK_clean_linker_0, # of connection points: 2
#     Edge 113, Type (0, 0), BuildingBlock: AJUNOK_clean_linker_0, # of connection points: 2
#     Edge 114, Type (0, 0), BuildingBlock: AJUNOK_clean_linker_0, # of connection points: 2
#     Edge 115, Type (0, 0), BuildingBlock: AJUNOK_clean_linker_0, # of connection points: 2
#     Edge 116, Type (0, 0), BuildingBlock: AJUNOK_clean_linker_0, # of connection points: 2
#     Edge 117, Type (0, 0), BuildingBlock: AJUNOK_clean_linker_0, # of connection points: 2
#     Edge 118, Type (0, 0), BuildingBlock: AJUNOK_clean_linker_0, # of connection points: 2
#     Edge 119, Type (0, 0), BuildingBlock: AJUNOK_clean_linker_0, # of connection points: 2
#     Edge 120, Type (0, 0), BuildingBlock: AJUNOK_clean_linker_0, # of connection points: 2
#     Edge 121, Type (0, 0), BuildingBlock: AJUNOK_clean_linker_0, # of connection points: 2
#     Edge 122, Type (0, 0), BuildingBlock: AJUNOK_clean_linker_0, # of connection points: 2
#     Edge 123, Type (0, 0), BuildingBlock: AJUNOK_clean_linker_0, # of connection points: 2
#     Edge 124, Type (0, 0), BuildingBlock: AJUNOK_clean_linker_0, # of connection points: 2
#     Edge 125, Type (0, 0), BuildingBlock: AJUNOK_clean_linker_0, # of connection points: 2
# Relax obj value: 0.247
# Max RMSD: 0.193
# Mean RMSD: 0.190
data_MOF--net-wlp--node1-XOMCOT_clean_sbu_1--edge1-AJUNOK_clean_linker_0
_symmetry_space_group_name_H-M    P1
_symmetry_Int_Tables_number       1
_symmetry_cell_setting            triclinic
loop_
_symmetry_equiv_pos_as_xyz
'x, y, z'
_cell_length_a     86.540522
_cell_length_b     86.480368
_cell_length_c     15.335445
_cell_angle_alpha  90.048909
_cell_angle_beta   90.040269
_cell_angle_gamma 119.99101
loop_
_atom_site_label
_atom_site_type_symbol
_atom_site_fract_x
_atom_site_fract_y
_atom_site_fract_z
_atom_type_partial_charge
C0 C 0.25097 0.17376 0.20144 0.0
C1 C 0.24372 0.15741 0.24087 0.0
N2 N 0.23704 0.14475 0.17845 0.0
N3 N 0.24878 0.17129 0.11465 0.0
C4 C 0.23979 0.15355 0.1029 0.0
H5 H 0.25864 0.18656 0.23335 0.0
Co6 Co 0.2574 0.18829 0.03096 0.0
C7 C 0.25248 0.16336 0.86183 0.0
O8 O 0.24404 0.17044 0.82222 0.0
N9 N 0.26641 0.20558 0.94615 0.0
C10 C 0.28541 0.22453 0.84856 0.0
C11 C 0.27972 0.20856 0.89026 0.0
C12 C 0.26394 0.21955 0.9359 0.0
N13 N 0.27556 0.23146 0.87833 0.0
O14 O 0.25213 0.2049 0.12545 0.0
H15 H 0.28551 0.20008 0.88307 0.0
H16 H 0.25358 0.22082 0.96874 0.0
O17 O 0.25895 0.16952 0.93984 0.0
C18 C 0.25449 0.22005 0.15879 0.0
O19 O 0.26652 0.23485 0.12129 0.0
N20 N 0.28229 0.19741 0.06783 0.0
C21 C 0.32012 0.2144 0.04794 0.0
C22 C 0.3091 0.19571 0.04159 0.0
C23 C 0.2904 0.18755 0.05174 0.0
C24 C 0.29292 0.2153 0.08358 0.0
C25 C 0.31159 0.22402 0.07223 0.0
H26 H 0.28242 0.17345 0.03917 0.0
H27 H 0.28694 0.22343 0.09427 0.0
H28 H 0.23714 0.14714 0.03979 0.0
H29 H 0.24558 0.1551 0.3085 0.0
H30 H 0.29586 0.23052 0.80013 0.0
H31 H 0.31476 0.1874 1.02505 0.0
H32 H 0.31897 0.23843 0.07623 0.0
C33 C 0.85745 0.08191 0.19392 0.0
C34 C 0.87231 0.08906 0.24549 0.0
N35 N 0.88649 0.09271 0.19511 0.0
N36 N 0.86219 0.08075 0.11169 0.0
C37 C 0.87964 0.08622 0.1158 0.0
H38 H 0.8442 0.07871 0.214 0.0
Co39 Co 0.8466 0.07143 1.02206 0.0
C40 C 0.88147 0.10582 0.919 0.0
O41 O 0.88975 0.11366 0.99119 0.0
N42 N 0.83026 0.06175 0.93296 0.0
C43 C 0.81223 0.06077 0.82725 0.0
C44 C 0.82819 0.07127 0.86866 0.0
C45 C 0.81566 0.04553 0.92846 0.0
N46 N 0.80425 0.04472 0.86621 0.0
O47 O 0.82989 0.04982 0.1165 0.0
H48 H 0.83711 0.08528 0.85604 0.0
H49 H 0.81348 0.03449 0.96973 0.0
O50 O 0.8657 0.09118 0.92558 0.0
C51 C 0.81531 0.03793 0.15751 0.0
O52 O 0.80021 0.03682 0.13385 0.0
N53 N 0.83606 0.08658 0.04796 0.0
C54 C 0.81971 0.10793 1.02302 0.0
C55 C 0.8384 0.11558 0.02939 0.0
C56 C 0.84621 0.10475 0.04087 0.0
C57 C 0.8179 0.07916 0.05226 0.0
C58 C 0.80955 0.08942 0.03865 0.0
H59 H 0.86049 0.11098 0.03932 0.0
H60 H 0.80955 0.06492 0.05692 0.0
H61 H 0.8876 0.08709 0.05969 0.0
H62 H 0.87309 0.09404 0.31114 0.0
H63 H 0.80691 0.06458 0.77268 0.0
H64 H 0.84712 0.12984 1.02344 0.0
H65 H 0.79513 0.08256 0.03541 0.0
C66 C 0.95136 0.78722 0.18414 0.0
C67 C 0.94238 0.79556 0.21302 0.0
N68 N 0.93851 0.80261 0.14368 0.0
N69 N 0.95303 0.78902 0.09703 0.0
C70 C 0.94566 0.79892 0.07473 0.0
H71 H 0.95521 0.77927 0.22305 0.0
Co72 Co 0.96218 0.7792 1.02353 0.0
C73 C 0.94462 0.78674 0.85675 0.0
O74 O 0.96054 0.80046 0.8419 0.0
N75 N 0.97124 0.76911 0.948 0.0
C76 C 0.97206 0.74973 0.85547 0.0
C77 C 0.9615 0.75575 0.89107 0.0
C78 C 0.98766 0.77122 0.94451 0.0
N79 N 0.98842 0.75928 0.89055 0.0
O80 O 0.98279 0.7851 0.12638 0.0
H81 H 0.94744 0.75034 0.87812 0.0
H82 H 0.99903 0.7818 0.97817 0.0
O83 O 0.94311 0.77666 0.92369 0.0
C84 C 0.99466 0.78202 0.16498 0.0
O85 O 0.99635 0.7688 0.13418 0.0
N86 N 0.94551 0.75481 0.0639 0.0
C87 C 0.92359 0.71715 0.04188 0.0
C88 C 0.91653 0.72874 0.03607 0.0
C89 C 0.92764 0.74739 0.04704 0.0
C90 C 0.95192 0.74356 0.08252 0.0
C91 C 0.94142 0.72495 0.07033 0.0
H92 H 0.92207 0.75593 0.03516 0.0
H93 H 0.96586 0.74896 0.09551 0.0
H94 H 0.94398 0.80201 1.00846 0.0
H95 H 0.93711 0.79454 0.27813 0.0
H96 H 0.96823 0.73953 0.80588 0.0
H97 H 0.90263 0.72362 1.02016 0.0
H98 H 0.9478 0.71699 0.0772 0.0
C99 C 0.18752 0.25331 0.42213 0.0
C100 C 0.17301 0.25192 0.37912 0.0
N101 N 0.15861 0.24258 0.43006 0.0
N102 N 0.18206 0.24511 0.49987 0.0
C103 C 0.16437 0.23828 0.50183 0.0
H104 H 0.20128 0.26122 0.40192 0.0
Co105 Co 0.19592 0.24659 0.59019 0.0
C106 C 0.17513 0.25129 0.76237 0.0
O107 O 0.19037 0.26151 0.80213 0.0
N108 N 0.20996 0.24779 0.68145 0.0
C109 C 0.21872 0.24223 0.80714 0.0
C110 C 0.20426 0.23813 0.75522 0.0
C111 C 0.22782 0.25718 0.68855 0.0
N112 N 0.2335 0.25422 0.76463 0.0
O113 O 0.21411 0.24452 0.49614 0.0
H114 H 0.19054 0.22824 0.7688 0.0
H115 H 0.23673 0.2649 0.63696 0.0
O116 O 0.17584 0.24551 0.6838 0.0
C117 C 0.21092 0.2301 0.45196 0.0
O118 O 0.19564 0.21562 0.46819 0.0
N119 N 0.20786 0.27303 0.58478 0.0
C120 C 0.22542 0.31094 0.60499 0.0
C121 C 0.2071 0.29997 0.62211 0.0
C122 C 0.19864 0.28133 0.61059 0.0
C123 C 0.2251 0.28364 0.55733 0.0
C124 C 0.23424 0.30235 0.56985 0.0
H125 H 0.18449 0.27371 0.62228 0.0
H126 H 0.23221 0.27775 0.52731 0.0
H127 H 0.15611 0.23194 0.55814 0.0
H128 H 0.17327 0.25885 0.31987 0.0
H129 H 0.21854 0.23571 0.86771 0.0
H130 H 0.19919 0.30572 0.64442 0.0
H131 H 0.24828 0.30981 0.55406 0.0
C132 C 0.78823 0.93773 0.41093 0.0
C133 C 0.79561 0.92906 0.36777 0.0
N134 N 0.80724 0.92785 0.42202 0.0
N135 N 0.79511 0.94157 0.4919 0.0
C136 C 0.80694 0.93593 0.49593 0.0
H137 H 0.77789 0.94018 0.38696 0.0
Co138 Co 0.79076 0.95208 0.5815 0.0
C139 C 0.78434 0.92365 0.74366 0.0
O140 O 0.77102 0.92509 0.77537 0.0
N141 N 0.78701 0.96329 0.67402 0.0
C142 C 0.78785 0.97383 0.80652 0.0
C143 C 0.79332 0.96447 0.7555 0.0
C144 C 0.77844 0.97266 0.67623 0.0
N145 N 0.77836 0.9789 0.75642 0.0
O146 O 0.79251 0.97243 0.48847 0.0
H147 H 0.80219 0.95974 0.77568 0.0
H148 H 0.77367 0.97625 0.61919 0.0
O149 O 0.79206 0.93281 0.67258 0.0
C150 C 0.80697 0.98381 0.44529 0.0
O151 O 0.82138 0.98294 0.46241 0.0
N152 N 0.76467 0.93648 0.56753 0.0
C153 C 0.72733 0.91615 0.59792 0.0
C154 C 0.73821 0.90842 0.60471 0.0
C155 C 0.75672 0.91871 0.58823 0.0
C156 C 0.75379 0.94327 0.5475 0.0
C157 C 0.73532 0.93365 0.56537 0.0
H158 H 0.76468 0.91238 0.59526 0.0
H159 H 0.75933 0.95649 0.52065 0.0
H160 H 0.81405 0.93626 0.55461 0.0
H161 H 0.79133 0.92241 0.30524 0.0
H162 H 0.79216 0.97819 0.87279 0.0
H163 H 0.73262 0.89472 0.62611 0.0
H164 H 0.72737 0.93995 0.55454 0.0
C165 C 0.09225 0.85356 0.42953 0.0
C166 C 0.10229 0.86959 0.38792 0.0
N167 N 0.10538 0.88279 0.44442 0.0
N168 N 0.08933 0.85691 0.51172 0.0
C169 C 0.09701 0.87469 0.51813 0.0
H170 H 0.08838 0.84047 0.40381 0.0
Co171 Co 0.07834 0.84166 0.59988 0.0
C172 C 0.10499 0.8624 0.76788 0.0
O173 O 0.10225 0.84723 0.80107 0.0
N174 N 0.0667 0.82641 0.69051 0.0
C175 C 0.05551 0.81687 0.82206 0.0
C176 C 0.06419 0.83156 0.76962 0.0
C177 C 0.0586 0.80849 0.69498 0.0
N178 N 0.05216 0.80236 0.77497 0.0
O179 O 0.05858 0.82337 0.50487 0.0
H180 H 0.0679 0.84509 0.78727 0.0
H181 H 0.05612 0.79988 0.63971 0.0
O182 O 0.09707 0.86168 0.6936 0.0
C183 C 0.0471 0.8262 0.46102 0.0
O184 O 0.04718 0.84108 0.47907 0.0
N185 N 0.09423 0.83147 0.58701 0.0
C186 C 0.11562 0.81544 0.6173 0.0
C187 C 0.12264 0.834 0.62512 0.0
C188 C 0.11187 0.84167 0.60922 0.0
C189 C 0.08814 0.81403 0.56447 0.0
C190 C 0.0983 0.80567 0.58169 0.0
H191 H 0.1178 0.8559 0.61705 0.0
H192 H 0.07507 0.80615 0.5361 0.0
H193 H 0.09803 0.88173 0.5781 0.0
H194 H 0.10865 0.87147 0.32495 0.0
H195 H 0.05058 0.81671 0.88713 0.0
H196 H 0.13638 0.84268 0.64422 0.0
H197 H 0.09227 0.79148 0.56966 0.0
C198 C 0.78153 0.83747 0.26452 0.0
C199 C 0.78854 0.84765 0.33802 0.0
N200 N 0.79917 0.86474 0.31304 0.0
N201 N 0.78787 0.84809 0.19407 0.0
C202 C 0.79851 0.86452 0.2251 0.0
H203 H 0.77324 0.82309 0.26217 0.0
Co204 Co 0.78742 0.8397 0.0863 0.0
C205 C 0.80034 0.87188 0.94621 0.0
O206 O 0.80869 0.86519 0.90246 0.0
N207 N 0.78652 0.83014 0.97742 0.0
C208 C 0.77794 0.81937 0.84353 0.0
C209 C 0.77613 0.82912 0.90922 0.0
C210 C 0.79448 0.82098 0.95185 0.0
N211 N 0.78954 0.81432 0.87066 0.0
O212 O 0.81285 0.8433 0.1162 0.0
H213 H 0.76755 0.83489 0.9077 0.0
H214 H 0.8038 0.81924 0.99175 0.0
O215 O 0.79369 0.86468 1.02235 0.0
C216 C 0.81184 0.83034 0.16549 0.0
O217 O 0.79596 0.81623 0.17477 0.0
N218 N 0.76289 0.83268 0.07783 0.0
C219 C 0.72584 0.81772 0.09822 0.0
C220 C 0.7372 0.83636 0.09469 0.0
C221 C 0.75574 0.8436 0.08481 0.0
C222 C 0.75207 0.81461 0.0818 0.0
C223 C 0.73361 0.80689 0.09141 0.0
H224 H 0.76435 0.85792 0.08684 0.0
H225 H 0.75792 0.80611 0.08073 0.0
H226 H 0.8058 0.87605 0.18358 0.0
H227 H 0.78628 0.84265 0.40408 0.0
H228 H 0.77101 0.81602 0.78162 0.0
H229 H 0.73184 0.84525 0.10099 0.0
H230 H 0.72557 0.79251 0.09692 0.0
C231 C 0.19683 0.94239 0.27177 0.0
C232 C 0.18751 0.93843 0.34865 0.0
N233 N 0.17037 0.93306 0.32924 0.0
N234 N 0.1855 0.9394 0.20527 0.0
C235 C 0.16956 0.9337 0.24176 0.0
H236 H 0.21114 0.9485 0.26511 0.0
Co237 Co 0.19247 0.94987 0.10098 0.0
C238 C 0.16361 0.92591 0.95991 0.0
O239 O 0.17755 0.93072 0.90999 0.0
N240 N 0.20049 0.96174 0.99512 0.0
C241 C 0.21426 0.97364 0.87003 0.0
C242 C 0.21099 0.96094 0.9318 0.0
C243 C 0.19749 0.97489 0.96932 0.0
N244 N 0.20584 0.98241 0.8945 0.0
O245 O 0.18935 0.9708 0.15429 0.0
H246 H 0.21623 0.95197 0.92964 0.0
H247 H 0.19012 0.97968 1.00644 0.0
O248 O 0.16643 0.93275 0.03941 0.0
C249 C 0.20351 0.98276 0.19678 0.0
O250 O 0.21789 0.98137 0.19004 0.0
N251 N 0.19907 0.93248 0.07171 0.0
C252 C 0.21259 0.90892 0.07903 0.0
C253 C 0.19414 0.9024 0.07664 0.0
C254 C 0.18763 0.91439 0.07357 0.0
C255 C 0.21702 0.93891 0.07735 0.0
C256 C 0.22406 0.92744 0.07835 0.0
H257 H 0.17343 0.90906 0.07932 0.0
H258 H 0.22597 0.95314 0.08406 0.0
H259 H 0.15776 0.93082 0.20485 0.0
H260 H 0.19311 0.94016 0.41339 0.0
H261 H 0.22326 0.97713 0.8151 0.0
H262 H 0.18484 0.88818 0.07977 0.0
H263 H 0.23837 0.93303 0.08289 0.0
C264 C 0.09386 0.26644 0.25163 0.0
C265 C 0.09955 0.26506 0.33323 0.0
N266 N 0.10321 0.25168 0.33103 0.0
N267 N 0.09464 0.25439 0.19858 0.0
C268 C 0.10021 0.24552 0.2486 0.0
H269 H 0.08916 0.27541 0.23247 0.0
Co270 Co 0.08455 0.24809 0.09224 0.0
C271 C 0.11242 0.24729 0.96158 0.0
O272 O 0.10792 0.25716 0.91487 0.0
N273 N 0.07297 0.2412 0.98693 0.0
C274 C 0.06011 0.22549 0.86736 0.0
C275 C 0.07195 0.22832 0.93307 0.0
C276 C 0.06067 0.24496 0.9564 0.0
N277 N 0.05318 0.23605 0.88254 0.0
O278 O 0.06508 0.22387 0.14859 0.0
H279 H 0.07838 0.22052 0.94385 0.0
H280 H 0.05594 0.25263 0.9914 0.0
O281 O 0.10444 0.24159 0.03833 0.0
C282 C 0.05327 0.22587 0.19388 0.0
O283 O 0.05457 0.24164 0.19053 0.0
N284 N 0.10016 0.27241 0.05593 0.0
C285 C 0.12031 0.30976 0.07851 0.0
C286 C 0.12853 0.29933 0.08094 0.0
C287 C 0.11822 0.2807 0.07099 0.0
C288 C 0.09229 0.28266 0.04807 0.0
C289 C 0.10209 0.30125 0.05821 0.0
H290 H 0.12451 0.27293 0.08565 0.0
H291 H 0.07802 0.2765 0.04513 0.0
H292 H 0.10239 0.23499 0.22448 0.0
H293 H 0.10143 0.27353 0.38895 0.0
H294 H 0.05566 0.2153 0.81734 0.0
H295 H 0.1425 0.30529 0.09825 0.0
H296 H 0.09515 0.30877 0.05653 0.0
C297 C 0.84937 0.76665 0.33588 0.0
C298 C 0.85776 0.772 0.25662 0.0
N299 N 0.87472 0.78506 0.27102 0.0
N300 N 0.86107 0.77621 0.39922 0.0
C301 C 0.87633 0.78715 0.35832 0.0
H302 H 0.83528 0.75763 0.34622 0.0
Co303 Co 0.85463 0.78024 0.5049 0.0
C304 C 0.88155 0.77927 0.64043 0.0
O305 O 0.86646 0.76815 0.67891 0.0
N306 N 0.84748 0.78507 0.61006 0.0
C307 C 0.84766 0.79846 0.73405 0.0
C308 C 0.85801 0.79631 0.67338 0.0
C309 C 0.83093 0.78166 0.6306 0.0
N310 N 0.83068 0.78923 0.70672 0.0
O311 O 0.85872 0.80469 0.45414 0.0
H312 H 0.8724 0.80379 0.67253 0.0
H313 H 0.81957 0.77513 0.58731 0.0
O314 O 0.88038 0.78692 0.56758 0.0
C315 C 0.84491 0.80255 0.40818 0.0
O316 O 0.8307 0.78658 0.40944 0.0
N317 N 0.84656 0.75574 0.53424 0.0
C318 C 0.83136 0.71833 0.52967 0.0
C319 C 0.8496 0.72963 0.51369 0.0
C320 C 0.85689 0.74822 0.51565 0.0
C321 C 0.82878 0.74483 0.55002 0.0
C322 C 0.82101 0.72621 0.54934 0.0
H323 H 0.87067 0.75655 0.49669 0.0
H324 H 0.8201 0.75029 0.5564 0.0
H325 H 0.88809 0.79714 0.39215 0.0
H326 H 0.85146 0.76739 0.19372 0.0
H327 H 0.85236 0.80751 0.78917 0.0
H328 H 0.85805 0.72416 0.49677 0.0
H329 H 0.80674 0.71805 0.55862 0.0
C330 C 0.26629 0.08194 0.35216 0.0
C331 C 0.26112 0.08597 0.27512 0.0
N332 N 0.24982 0.0919 0.29427 0.0
N333 N 0.25842 0.0856 0.41857 0.0
C334 C 0.24835 0.09149 0.38159 0.0
H335 H 0.27469 0.07605 0.35935 0.0
Co336 Co 0.25715 0.07708 0.52608 0.0
C337 C 0.25625 0.10366 0.66412 0.0
O338 O 0.26813 0.10074 0.70213 0.0
N339 N 0.25563 0.06724 0.63507 0.0
C340 C 0.25975 0.0571 0.76057 0.0
C341 C 0.26807 0.06762 0.68985 0.0
C342 C 0.23996 0.05666 0.67484 0.0
N343 N 0.24206 0.05015 0.75064 0.0
O344 O 0.23234 0.05548 0.48736 0.0
H345 H 0.28228 0.07464 0.67976 0.0
H346 H 0.22711 0.05298 0.64678 0.0
O347 O 0.2495 0.09523 0.58946 0.0
C348 C 0.23419 0.04315 0.44643 0.0
O349 O 0.25012 0.04482 0.44889 0.0
N350 N 0.28163 0.09451 0.54129 0.0
C351 C 0.31856 0.11649 0.51494 0.0
C352 C 0.30745 0.1239 0.52627 0.0
C353 C 0.28895 0.11266 0.53719 0.0
C354 C 0.29222 0.0872 0.52775 0.0
C355 C 0.31061 0.09784 0.51642 0.0
H356 H 0.28053 0.11858 0.53724 0.0
H357 H 0.28617 0.07285 0.52249 0.0
H358 H 0.24015 0.09544 0.41781 0.0
H359 H 0.26556 0.08502 0.21037 0.0
H360 H 0.26614 0.0536 0.81141 0.0
H361 H 0.3129 0.13821 0.52442 0.0
H362 H 0.31844 0.09144 0.50494 0.0
C363 C 0.95304 0.18666 0.33456 0.0
C364 C 0.94882 0.17594 0.26262 0.0
N365 N 0.94289 0.15914 0.29031 0.0
N366 N 0.94971 0.17656 0.40649 0.0
C367 C 0.94373 0.15991 0.37788 0.0
H368 H 0.95843 0.20096 0.33483 0.0
Co369 Co 0.9577 0.18628 0.51163 0.0
C370 C 0.92733 0.15748 0.64103 0.0
O371 O 0.92335 0.16993 0.65746 0.0
N372 N 0.96697 0.19746 0.61861 0.0
C373 C 0.97227 0.2125 0.74358 0.0
C374 C 0.95954 0.20238 0.68288 0.0
C375 C 0.98415 0.20469 0.64246 0.0
N376 N 0.98774 0.21413 0.7167 0.0
O377 O 0.98011 0.18352 0.48273 0.0
H378 H 0.94607 0.19997 0.68379 0.0
H379 H 0.99401 0.20317 0.60649 0.0
O380 O 0.9404 0.16119 0.58476 0.0
C381 C 0.99165 0.19644 0.43197 0.0
O382 O 0.98912 0.21004 0.41999 0.0
N383 N 0.9397 0.19287 0.51464 0.0
C384 C 0.91812 0.2078 0.47679 0.0
C385 C 0.91097 0.18921 0.47619 0.0
C386 C 0.92212 0.18202 0.49277 0.0
C387 C 0.94679 0.21097 0.51357 0.0
C388 C 0.93624 0.21865 0.49666 0.0
H389 H 0.91683 0.16781 0.48487 0.0
H390 H 0.96099 0.21963 0.52249 0.0
H391 H 0.93949 0.14849 0.42028 0.0
H392 H 0.94912 0.17994 0.19546 0.0
H393 H 0.97047 0.21865 0.80128 0.0
H394 H 0.89714 0.1804 0.45865 0.0
H395 H 0.94237 0.23306 0.49649 0.0
C396 C 0.9205 0.50767 0.53184 0.0
C397 C 0.90842 0.49294 0.57744 0.0
N398 N 0.89569 0.48155 0.52161 0.0
N399 N 0.91547 0.50539 0.44771 0.0
C400 C 0.9004 0.48951 0.44322 0.0
H401 H 0.93201 0.51937 0.55822 0.0
Co402 Co 0.9238 0.52153 0.36134 0.0
C403 C 0.91379 0.49209 0.21308 0.0
O404 O 0.89975 0.49383 0.19986 0.0
N405 N 0.93254 0.53796 0.27265 0.0
C406 C 0.9506 0.5548 0.16667 0.0
C407 C 0.94481 0.53941 0.21356 0.0
C408 C 0.93101 0.55246 0.26031 0.0
N409 N 0.9419 0.56297 0.19643 0.0
O410 O 0.92011 0.53961 0.45103 0.0
H411 H 0.94978 0.53023 0.20696 0.0
H412 H 0.92181 0.55511 0.29627 0.0
O413 O 0.92484 0.50211 0.27446 0.0
C414 C 0.90582 0.53561 0.49841 0.0
O415 O 0.89195 0.51964 0.48672 0.0
N416 N 0.94872 0.53098 0.39592 0.0
C417 C 0.98623 0.54851 0.37248 0.0
C418 C 0.97576 0.52975 0.37079 0.0
C419 C 0.95707 0.52126 0.38278 0.0
C420 C 0.959 0.54906 0.40832 0.0
C421 C 0.97759 0.55803 0.3951 0.0
H422 H 0.94924 0.50695 0.37457 0.0
H423 H 0.95272 0.55701 0.41843 0.0
H424 H 0.89313 0.4838 0.38333 0.0
H425 H 0.90958 0.49033 0.64546 0.0
H426 H 0.96015 0.55945 0.11382 0.0
H427 H 0.98175 0.52173 0.35457 0.0
H428 H 0.98506 0.57247 0.39875 0.0
C429 C 0.52635 0.41606 0.52292 0.0
C430 C 0.54247 0.42585 0.56382 0.0
N431 N 0.55545 0.4308 0.50378 0.0
N432 N 0.52928 0.4148 0.43772 0.0
C433 C 0.54708 0.4235 0.42847 0.0
H434 H 0.51338 0.41153 0.55177 0.0
Co435 Co 0.51279 0.40573 0.35127 0.0
C436 C 0.53824 0.4244 0.18413 0.0
O437 O 0.53118 0.40863 0.14688 0.0
N438 N 0.49595 0.39701 0.26405 0.0
C439 C 0.47789 0.39707 0.16114 0.0
C440 C 0.49397 0.40705 0.20227 0.0
C441 C 0.481 0.38107 0.25931 0.0
N442 N 0.46966 0.38081 0.19804 0.0
O443 O 0.49511 0.3847 0.44404 0.0
H444 H 0.50322 0.42103 0.1904 0.0
H445 H 0.47859 0.36975 0.29909 0.0
O446 O 0.53201 0.42531 0.26074 0.0
C447 C 0.4994 0.37425 0.48798 0.0
O448 O 0.51517 0.37624 0.47119 0.0
N449 N 0.50352 0.42169 0.3807 0.0
C450 C 0.48687 0.44276 0.35713 0.0
C451 C 0.50553 0.45024 0.35164 0.0
C452 C 0.51351 0.43958 0.36352 0.0
C453 C 0.48559 0.41452 0.39499 0.0
C454 C 0.47705 0.42463 0.38188 0.0
H455 H 0.52764 0.44559 0.3524 0.0
H456 H 0.47739 0.40039 0.40742 0.0
H457 H 0.55381 0.4263 0.36626 0.0
H458 H 0.54441 0.43115 0.62945 0.0
H459 H 0.4728 0.40125 0.10706 0.0
H460 H 0.51397 0.46417 0.33492 0.0
H461 H 0.46265 0.41779 0.38554 0.0
C462 C 0.6171 0.11703 0.52618 0.0
C463 C 0.61167 0.12783 0.5641 0.0
N464 N 0.61071 0.13838 0.50187 0.0
N465 N 0.61942 0.12071 0.44051 0.0
C466 C 0.61576 0.1339 0.42763 0.0
H467 H 0.6189 0.10691 0.55835 0.0
Co468 Co 0.62789 0.11169 0.36048 0.0
C469 C 0.59579 0.10331 0.21065 0.0
O470 O 0.58888 0.08593 0.21002 0.0
N471 N 0.63679 0.1025 0.27832 0.0
C472 C 0.63912 0.08424 0.18381 0.0
C473 C 0.62758 0.08842 0.22428 0.0
C474 C 0.65386 0.10675 0.2688 0.0
N475 N 0.65562 0.09577 0.21229 0.0
O476 O 0.64755 0.11442 0.45935 0.0
H477 H 0.61331 0.08079 0.21869 0.0
H478 H 0.66487 0.1179 0.30161 0.0
O479 O 0.60959 0.11263 0.26217 0.0
C480 C 0.66263 0.12892 0.48025 0.0
O481 O 0.66755 0.14297 0.43054 0.0
N482 N 0.61104 0.08697 0.39494 0.0
C483 C 0.58897 0.04934 0.377 0.0
C484 C 0.58174 0.06083 0.37774 0.0
C485 C 0.59295 0.07953 0.38743 0.0
C486 C 0.61781 0.07585 0.40915 0.0
C487 C 0.60721 0.05723 0.39829 0.0
H488 H 0.58723 0.0881 0.38184 0.0
H489 H 0.63201 0.08143 0.418 0.0
H490 H 0.61633 0.13975 0.36454 0.0
H491 H 0.60734 0.12697 0.63106 0.0
H492 H 0.63566 0.07359 0.13722 0.0
H493 H 0.5676 0.0556 0.36795 0.0
H494 H 0.6137 0.04932 0.40072 0.0
C495 C 0.84543 0.57858 0.7534 0.0
C496 C 0.8291 0.56968 0.7131 0.0
N497 N 0.81723 0.55776 0.76984 0.0
N498 N 0.84362 0.57226 0.83506 0.0
C499 C 0.82649 0.55953 0.8428 0.0
H500 H 0.85748 0.58953 0.72677 0.0
Co501 Co 0.85948 0.57704 0.92074 0.0
C502 C 0.83972 0.58522 0.08687 0.0
O503 O 0.8549 0.59854 0.1151 0.0
N504 N 0.87537 0.58095 1.00904 0.0
C505 C 0.88694 0.58012 0.13653 0.0
C506 C 0.87149 0.57585 0.09291 0.0
C507 C 0.89306 0.58751 1.0025 0.0
N508 N 0.90051 0.58745 0.07919 0.0
O509 O 0.87611 0.57253 0.82447 0.0
H510 H 0.85821 0.56834 0.11966 0.0
H511 H 0.90019 0.59097 0.94174 0.0
O512 O 0.84026 0.57704 1.01564 0.0
C513 C 0.88545 0.57794 0.75161 0.0
O514 O 0.88834 0.59318 0.71892 0.0
N515 N 0.87034 0.60321 0.90348 0.0
C516 C 0.8863 0.64063 0.93347 0.0
C517 C 0.86769 0.62937 0.93557 0.0
C518 C 0.86003 0.61085 0.91977 0.0
C519 C 0.88821 0.61444 0.88942 0.0
C520 C 0.89646 0.63293 0.90673 0.0
H521 H 0.84572 0.60256 0.92457 0.0
H522 H 0.89652 0.60931 0.86729 0.0
H523 H 0.82056 0.55259 0.90308 0.0
H524 H 0.82574 0.5731 0.65069 0.0
H525 H 0.88787 0.57647 0.20306 0.0
H526 H 0.85912 0.63467 0.95313 0.0
H527 H 0.9108 0.64113 0.90007 0.0
C528 C 0.45697 0.2715 0.74889 0.0
C529 C 0.46454 0.26259 0.70992 0.0
N530 N 0.47632 0.26219 0.76619 0.0
N531 N 0.46395 0.27642 0.82927 0.0
C532 C 0.47589 0.27095 0.83727 0.0
H533 H 0.44628 0.27314 0.7229 0.0
Co534 Co 0.45972 0.28778 0.9157 0.0
C535 C 0.45147 0.25923 0.07887 0.0
O536 O 0.43751 0.26018 0.10486 0.0
N537 N 0.45623 0.29988 1.00548 0.0
C538 C 0.45505 0.30975 0.13721 0.0
C539 C 0.46059 0.29998 0.08994 0.0
C540 C 0.4491 0.31057 1.00241 0.0
N541 N 0.44752 0.31617 0.08192 0.0
O542 O 0.46399 0.30881 0.81979 0.0
H543 H 0.46814 0.29414 0.11548 0.0
H544 H 0.4462 0.31519 0.94276 0.0
O545 O 0.45989 0.26856 1.00963 0.0
C546 C 0.45816 0.31293 0.74887 0.0
O547 O 0.44256 0.30086 0.71818 0.0
N548 N 0.43345 0.27278 0.90021 0.0
C549 C 0.39617 0.25228 0.93432 0.0
C550 C 0.40697 0.24439 0.93426 0.0
C551 C 0.42545 0.25479 0.91636 0.0
C552 C 0.42255 0.27985 0.88748 0.0
C553 C 0.40416 0.2701 0.90663 0.0
H554 H 0.43345 0.24842 0.92002 0.0
H555 H 0.42793 0.29336 0.86586 0.0
H556 H 0.48298 0.27193 0.89706 0.0
H557 H 0.46024 0.25519 0.64928 0.0
H558 H 0.45783 0.31317 0.20555 0.0
H559 H 0.40139 0.2305 0.95214 0.0
H560 H 0.39629 0.27663 0.90132 0.0
C561 C 0.76285 0.18882 0.73611 0.0
C562 C 0.77119 0.2047 0.69138 0.0
N563 N 0.77287 0.21773 0.74557 0.0
N564 N 0.75978 0.1922 0.81798 0.0
C565 C 0.76574 0.20975 0.8214 0.0
H566 H 0.75974 0.17583 0.71177 0.0
Co567 Co 0.74837 0.17753 0.90685 0.0
C568 C 0.77469 0.1989 0.0751 0.0
O569 O 0.77136 0.18383 0.11184 0.0
N570 N 0.73623 0.163 0.99831 0.0
C571 C 0.72324 0.15494 0.12737 0.0
C572 C 0.73292 0.16906 0.07286 0.0
C573 C 0.72797 0.14516 1.00767 0.0
N574 N 0.72012 0.13992 0.08594 0.0
O575 O 0.72863 0.15947 0.8112 0.0
H576 H 0.73669 0.18281 0.08534 0.0
H577 H 0.72651 0.13598 0.9567 0.0
O578 O 0.76717 0.1978 0.99916 0.0
C579 C 0.71187 0.15506 0.79847 0.0
O580 O 0.70449 0.16009 0.85854 0.0
N581 N 0.76347 0.16631 0.89745 0.0
C582 C 0.78306 0.1483 0.92419 0.0
C583 C 0.79087 0.16677 0.93804 0.0
C584 C 0.78098 0.17549 0.92349 0.0
C585 C 0.75659 0.14887 0.87223 0.0
C586 C 0.76583 0.13951 0.88799 0.0
H587 H 0.78752 0.18967 0.93503 0.0
H588 H 0.74354 0.14171 0.84285 0.0
H589 H 0.76579 0.21681 0.87981 0.0
H590 H 0.77697 0.20678 0.62684 0.0
H591 H 0.71753 0.15549 0.18933 0.0
H592 H 0.80437 0.17438 0.96283 0.0
H593 H 0.75945 0.12543 0.87226 0.0
C594 C 0.44693 0.17321 0.59886 0.0
C595 C 0.45348 0.18251 0.67519 0.0
N596 N 0.46607 0.19939 0.6552 0.0
N597 N 0.45536 0.18418 0.53155 0.0
C598 C 0.46681 0.19993 0.56722 0.0
H599 H 0.43756 0.15907 0.59279 0.0
Co600 Co 0.45617 0.17673 0.42267 0.0
C601 C 0.47001 0.21038 0.29028 0.0
O602 O 0.48011 0.2054 0.24904 0.0
N603 N 0.45662 0.1683 0.31288 0.0
C604 C 0.45101 0.16063 0.17319 0.0
C605 C 0.44847 0.16963 0.24025 0.0
C606 C 0.46358 0.15809 0.28935 0.0
N607 N 0.46032 0.15328 0.20494 0.0
O608 O 0.48138 0.18041 0.45706 0.0
H609 H 0.44102 0.17659 0.23647 0.0
H610 H 0.47092 0.15426 0.33291 0.0
O611 O 0.46247 0.20203 0.36306 0.0
C612 C 0.47988 0.16754 0.50852 0.0
O613 O 0.46379 0.1538 0.51862 0.0
N614 N 0.43174 0.16954 0.4084 0.0
C615 C 0.39484 0.15448 0.43168 0.0
C616 C 0.40622 0.17307 0.43474 0.0
C617 C 0.4247 0.18033 0.42403 0.0
C618 C 0.4208 0.15151 0.40255 0.0
C619 C 0.40236 0.14373 0.41352 0.0
H620 H 0.4334 0.1944 0.43544 0.0
H621 H 0.42652 0.14298 0.3944 0.0
H622 H 0.47575 0.21142 0.52868 0.0
H623 H 0.44964 0.17689 0.7397 0.0
H624 H 0.44624 0.15936 0.10681 0.0
H625 H 0.40104 0.18181 0.45091 0.0
H626 H 0.3941 0.12933 0.41105 0.0
C627 C 0.86145 0.2827 0.58649 0.0
C628 C 0.85101 0.27956 0.65887 0.0
N629 N 0.83422 0.27425 0.63206 0.0
N630 N 0.85124 0.27934 0.51496 0.0
C631 C 0.83482 0.27412 0.54422 0.0
H632 H 0.87572 0.28799 0.58578 0.0
Co633 Co 0.85963 0.28757 0.40759 0.0
C634 C 0.82757 0.26771 0.26664 0.0
O635 O 0.83459 0.28211 0.21792 0.0
N636 N 0.86902 0.29656 0.29857 0.0
C637 C 0.87958 0.29909 0.16424 0.0
C638 C 0.87058 0.28746 0.23062 0.0
C639 C 0.87704 0.31363 0.27173 0.0
N640 N 0.88349 0.31553 0.19004 0.0
O641 O 0.85649 0.30951 0.43986 0.0
H642 H 0.8657 0.27325 0.2295 0.0
H643 H 0.87827 0.32453 0.31134 0.0
O644 O 0.83449 0.26906 0.34449 0.0
C645 C 0.86959 0.32075 0.4907 0.0
O646 O 0.88312 0.31802 0.49994 0.0
N647 N 0.8664 0.26993 0.39659 0.0
C648 C 0.88096 0.24735 0.40726 0.0
C649 C 0.86237 0.24031 0.40596 0.0
C650 C 0.85533 0.25185 0.4011 0.0
C651 C 0.88443 0.27695 0.39936 0.0
C652 C 0.89196 0.26597 0.40404 0.0
H653 H 0.84108 0.24629 0.40469 0.0
H654 H 0.89306 0.2913 0.4003 0.0
H655 H 0.8236 0.27026 0.50116 0.0
H656 H 0.85544 0.28102 0.72591 0.0
H657 H 0.88343 0.29571 0.10321 0.0
H658 H 0.85336 0.22604 0.41 0.0
H659 H 0.90633 0.2721 0.40828 0.0
C660 C 0.75701 0.58639 0.61932 0.0
C661 C 0.75874 0.57785 0.69072 0.0
N662 N 0.76366 0.56616 0.66271 0.0
N663 N 0.76103 0.58022 0.5472 0.0
C664 C 0.76517 0.56811 0.57535 0.0
H665 H 0.75171 0.59537 0.61933 0.0
Co666 Co 0.75216 0.58038 0.44152 0.0
C667 C 0.77674 0.57767 0.29438 0.0
O668 O 0.7721 0.58734 0.24728 0.0
N669 N 0.74211 0.58027 0.33535 0.0
C670 C 0.73172 0.58607 0.21499 0.0
C671 C 0.74254 0.59346 0.28619 0.0
C672 C 0.73121 0.56514 0.29211 0.0
N673 N 0.7246 0.56826 0.21932 0.0
O674 O 0.73033 0.55543 0.47587 0.0
H675 H 0.74973 0.60753 0.30094 0.0
H676 H 0.72747 0.55192 0.31541 0.0
O677 O 0.76969 0.57281 0.37308 0.0
C678 C 0.71834 0.55695 0.52175 0.0
O679 O 0.72037 0.573 0.52791 0.0
N680 N 0.76978 0.60479 0.43023 0.0
C681 C 0.79198 0.64144 0.46231 0.0
C682 C 0.79921 0.63076 0.43645 0.0
C683 C 0.78788 0.61232 0.42255 0.0
C684 C 0.76269 0.61507 0.45532 0.0
C685 C 0.77342 0.63335 0.46996 0.0
H686 H 0.79382 0.60412 0.41107 0.0
H687 H 0.74847 0.60884 0.46639 0.0
H688 H 0.76878 0.56061 0.5318 0.0
H689 H 0.75632 0.57989 0.75782 0.0
H690 H 0.72822 0.59311 0.16771 0.0
H691 H 0.81352 0.63644 0.43151 0.0
H692 H 0.76721 0.64103 0.48919 0.0
C693 C 0.52681 0.10442 0.66911 0.0
C694 C 0.53813 0.11225 0.59996 0.0
N695 N 0.55102 0.12875 0.62434 0.0
N696 N 0.53292 0.11572 0.73731 0.0
C697 C 0.54755 0.13033 0.70839 0.0
H698 H 0.51469 0.09157 0.66904 0.0
Co699 Co 0.52141 0.115 0.83725 0.0
C700 C 0.56033 0.13064 0.95309 0.0
O701 O 0.56988 0.14753 0.93123 0.0
N702 N 0.5097 0.11453 0.93792 0.0
C703 C 0.50127 0.11164 0.07606 0.0
C704 C 0.51167 0.10904 1.01729 0.0
C705 C 0.49784 0.12008 0.94931 0.0
N706 N 0.49252 0.11852 0.03301 0.0
O707 O 0.52412 0.13974 0.80026 0.0
H708 H 0.52042 0.10388 0.03216 0.0
H709 H 0.49348 0.12551 0.8976 0.0
O710 O 0.54453 0.12139 0.91691 0.0
C711 C 0.51281 0.13714 0.73674 0.0
O712 O 0.50212 0.12048 0.71348 0.0
N713 N 0.51448 0.09068 0.85243 0.0
C714 C 0.49952 0.0537 0.83251 0.0
C715 C 0.51811 0.06489 0.83971 0.0
C716 C 0.52538 0.08346 0.84848 0.0
C717 C 0.49643 0.07989 0.84788 0.0
C718 C 0.4887 0.06145 0.8385 0.0
H719 H 0.5397 0.09208 0.84664 0.0
H720 H 0.48792 0.08573 0.84663 0.0
H721 H 0.55515 0.14213 0.74798 0.0
H722 H 0.53718 0.1059 0.53787 0.0
H723 H 0.50103 0.10958 0.14574 0.0
H724 H 0.52695 0.05947 0.83372 0.0
H725 H 0.47433 0.05334 0.83299 0.0
C726 C 0.92705 0.4314 0.65461 0.0
C727 C 0.91677 0.43436 0.59648 0.0
N728 N 0.90132 0.4306 0.63601 0.0
N729 N 0.91823 0.42616 0.73073 0.0
C730 C 0.90267 0.42571 0.71762 0.0
H731 H 0.93974 0.43229 0.64126 0.0
Co732 Co 0.92233 0.41542 0.82146 0.0
C733 C 0.92288 0.43865 0.98471 0.0
O734 O 0.93672 0.43738 1.00904 0.0
N735 N 0.92622 0.40361 0.91479 0.0
C736 C 0.93761 0.39478 1.02144 0.0
C737 C 0.94097 0.4082 0.96376 0.0
C738 C 0.91411 0.38736 0.94494 0.0
N739 N 0.92079 0.38166 1.00835 0.0
O740 O 0.89812 0.39222 0.78663 0.0
H741 H 0.9535 0.42057 0.95955 0.0
H742 H 0.90052 0.37976 0.92196 0.0
O743 O 0.91435 0.4297 0.91399 0.0
C744 C 0.90146 0.38456 0.72082 0.0
O745 O 0.9183 0.39187 0.69812 0.0
N746 N 0.94647 0.43437 0.82571 0.0
C747 C 0.98321 0.45758 0.79945 0.0
C748 C 0.97206 0.46413 0.82791 0.0
C749 C 0.95358 0.45232 0.83875 0.0
C750 C 0.95701 0.4281 0.79361 0.0
C751 C 0.97529 0.43928 0.78181 0.0
H752 H 0.94505 0.4577 0.85489 0.0
H753 H 0.95111 0.41409 0.77761 0.0
H754 H 0.89221 0.42093 0.76602 0.0
H755 H 0.92059 0.43931 0.53063 0.0
H756 H 0.94684 0.39453 0.06833 0.0
H757 H 0.97744 0.47827 0.83889 0.0
H758 H 0.98318 0.43354 0.75901 0.0
C759 C 0.61785 0.52206 0.68512 0.0
C760 C 0.61295 0.51346 0.60618 0.0
N761 N 0.6078 0.49618 0.62003 0.0
N762 N 0.61547 0.51008 0.74742 0.0
C763 C 0.60947 0.49452 0.70614 0.0
H764 H 0.62346 0.53623 0.69627 0.0
Co765 Co 0.62491 0.51596 0.85491 0.0
C766 C 0.59617 0.48733 0.98255 0.0
O767 O 0.59662 0.50142 1.01658 0.0
N768 N 0.63591 0.5228 0.96503 0.0
C769 C 0.64501 0.53331 0.09944 0.0
C770 C 0.632 0.52904 0.03806 0.0
C771 C 0.6513 0.52325 0.9852 0.0
N772 N 0.65717 0.5298 0.0652 0.0
O773 O 0.64518 0.51169 0.80519 0.0
H774 H 0.62089 0.53125 0.0466 0.0
H775 H 0.65871 0.51958 0.94175 0.0
O776 O 0.60635 0.48979 0.91349 0.0
C777 C 0.65728 0.52552 0.76139 0.0
O778 O 0.65619 0.54011 0.76442 0.0
N779 N 0.60829 0.52384 0.88044 0.0
C780 C 0.58663 0.53977 0.86793 0.0
C781 C 0.58003 0.52168 0.84616 0.0
C782 C 0.59084 0.51394 0.85487 0.0
C783 C 0.6152 0.54156 0.89808 0.0
C784 C 0.60446 0.54943 0.89733 0.0
H785 H 0.58557 0.50027 0.83386 0.0
H786 H 0.62933 0.54986 0.91073 0.0
H787 H 0.60646 0.48221 0.73862 0.0
H788 H 0.61318 0.5194 0.54373 0.0
H789 H 0.64618 0.53974 0.16165 0.0
H790 H 0.56704 0.51359 0.81717 0.0
H791 H 0.61055 0.56329 0.91636 0.0
C792 C 0.58277 0.83924 0.86341 0.0
C793 C 0.57392 0.8224 0.89832 0.0
N794 N 0.56569 0.81061 0.8331 0.0
N795 N 0.57998 0.83794 0.77675 0.0
C796 C 0.56927 0.82048 0.76057 0.0
H797 H 0.59159 0.85146 0.89782 0.0
Co798 Co 0.58939 0.85532 0.69478 0.0
C799 C 0.58253 0.82936 0.53089 0.0
O800 O 0.57129 0.8341 0.50082 0.0
N801 N 0.59922 0.87278 0.6108 0.0
C802 C 0.61793 0.89036 0.50859 0.0
C803 C 0.61207 0.8748 0.55408 0.0
C804 C 0.59741 0.88712 0.59848 0.0
N805 N 0.60867 0.89806 0.53672 0.0
O806 O 0.58561 0.87281 0.78739 0.0
H807 H 0.61725 0.86578 0.54764 0.0
H808 H 0.5876 0.88922 0.632 0.0
O809 O 0.59081 0.83677 0.60401 0.0
C810 C 0.57101 0.86879 0.83196 0.0
O811 O 0.557 0.85309 0.81622 0.0
N812 N 0.61381 0.86355 0.73372 0.0
C813 C 0.65128 0.87915 0.71054 0.0
C814 C 0.63983 0.86044 0.71108 0.0
C815 C 0.62124 0.85296 0.72245 0.0
C816 C 0.62491 0.88148 0.74691 0.0
C817 C 0.64348 0.88951 0.73384 0.0
H818 H 0.61274 0.83868 0.71563 0.0
H819 H 0.61931 0.89007 0.75644 0.0
H820 H 0.56561 0.81482 0.69584 0.0
H821 H 0.57538 0.81891 0.96442 0.0
H822 H 0.62776 0.89533 0.45696 0.0
H823 H 0.64501 0.85154 0.69969 0.0
H824 H 0.6514 0.90393 0.73602 0.0
C825 C 0.20003 0.76187 0.88806 0.0
C826 C 0.21375 0.76402 0.94075 0.0
N827 N 0.2242 0.75941 0.89525 0.0
N828 N 0.20204 0.75617 0.80953 0.0
C829 C 0.21678 0.7548 0.81561 0.0
H830 H 0.18935 0.76428 0.90607 0.0
Co831 Co 0.18681 0.74706 0.71932 0.0
C832 C 0.21677 0.76776 0.5791 0.0
O833 O 0.21662 0.75254 0.57295 0.0
N834 N 0.17135 0.73776 0.62686 0.0
C835 C 0.15358 0.73679 0.51995 0.0
C836 C 0.16921 0.74743 0.56364 0.0
C837 C 0.15721 0.72131 0.61925 0.0
N838 N 0.14592 0.72049 0.55638 0.0
O839 O 0.17006 0.72415 0.80605 0.0
H840 H 0.17771 0.76162 0.55394 0.0
H841 H 0.15511 0.71025 0.66015 0.0
O842 O 0.2056 0.76829 0.63504 0.0
C843 C 0.16174 0.72057 0.88177 0.0
O844 O 0.16033 0.73348 0.91909 0.0
N845 N 0.17475 0.76052 0.74775 0.0
C846 C 0.15582 0.77916 0.72316 0.0
C847 C 0.17457 0.78827 0.72833 0.0
C848 C 0.18375 0.77874 0.74024 0.0
C849 C 0.15647 0.75169 0.7517 0.0
C850 C 0.14684 0.76065 0.73787 0.0
H851 H 0.19815 0.78599 0.73785 0.0
H852 H 0.14909 0.73731 0.7569 0.0
H853 H 0.22209 0.7507 0.76216 0.0
H854 H 0.21646 0.76966 1.00582 0.0
H855 H 0.14806 0.7408 0.46703 0.0
H856 H 0.18215 0.80256 0.71806 0.0
H857 H 0.1324 0.75301 0.73567 0.0
C858 C 0.28074 0.44847 0.87122 0.0
C859 C 0.27139 0.45472 0.91736 0.0
N860 N 0.26893 0.46589 0.86548 0.0
N861 N 0.28372 0.45556 0.79076 0.0
C862 C 0.27691 0.46643 0.78995 0.0
H863 H 0.28422 0.4387 0.89282 0.0
Co864 Co 0.29443 0.45227 0.69881 0.0
C865 C 0.26541 0.44516 0.53863 0.0
O866 O 0.26786 0.43273 0.50302 0.0
N867 N 0.30583 0.44955 0.60439 0.0
C868 C 0.31662 0.45178 0.47133 0.0
C869 C 0.30686 0.45643 0.52442 0.0
C870 C 0.31563 0.44146 0.59938 0.0
N871 N 0.32202 0.44225 0.51878 0.0
O872 O 0.3154 0.4549 0.78819 0.0
H873 H 0.30169 0.46508 0.50684 0.0
H874 H 0.31936 0.43639 0.65474 0.0
O875 O 0.27427 0.45262 0.61085 0.0
C876 C 0.32676 0.46933 0.83148 0.0
O877 O 0.32591 0.48382 0.81615 0.0
N878 N 0.28016 0.42602 0.71214 0.0
C879 C 0.26156 0.38835 0.69075 0.0
C880 C 0.25293 0.39829 0.67924 0.0
C881 C 0.26236 0.41699 0.69119 0.0
C882 C 0.28792 0.41614 0.73529 0.0
C883 C 0.27913 0.3975 0.72234 0.0
H884 H 0.25528 0.42416 0.6816 0.0
H885 H 0.30127 0.42256 0.7613 0.0
H886 H 0.27631 0.47336 0.7325 0.0
H887 H 0.26515 0.44991 0.98029 0.0
H888 H 0.32091 0.45658 0.40563 0.0
H889 H 0.23913 0.39175 0.65831 0.0
H890 H 0.28613 0.39032 0.73601 0.0
C891 C 0.50974 0.91079 0.09061 0.0
C892 C 0.49303 0.9031 0.05409 0.0
N893 N 0.48114 0.8918 0.11272 0.0
N894 N 0.50815 0.90432 0.17179 0.0
C895 C 0.49077 0.89254 0.1826 0.0
H896 H 0.5219 0.9213 0.06253 0.0
Co897 Co 0.5243 0.9092 0.25644 0.0
C898 C 0.50473 0.9179 0.42119 0.0
O899 O 0.51974 0.93195 0.44567 0.0
N900 N 0.54042 0.91322 0.34401 0.0
C901 C 0.55235 0.91347 0.47211 0.0
C902 C 0.5368 0.90892 0.4289 0.0
C903 C 0.55806 0.91956 0.33664 0.0
N904 N 0.56574 0.9202 0.41368 0.0
O905 O 0.54076 0.90479 0.15936 0.0
H906 H 0.52363 0.90184 0.45712 0.0
H907 H 0.565 0.9226 0.27539 0.0
O908 O 0.50535 0.90924 0.35216 0.0
C909 C 0.55026 0.9104 0.0871 0.0
O910 O 0.55333 0.92578 0.0555 0.0
N911 N 0.53509 0.93537 0.23886 0.0
C912 C 0.55101 0.97281 0.2686 0.0
C913 C 0.53239 0.96154 0.26981 0.0
C914 C 0.52475 0.94302 0.25405 0.0
C915 C 0.55299 0.94659 0.22573 0.0
C916 C 0.56121 0.96508 0.24278 0.0
H917 H 0.51043 0.93471 0.25853 0.0
H918 H 0.56136 0.94145 0.2047 0.0
H919 H 0.48499 0.88591 0.24371 0.0
H920 H 0.48962 0.90718 0.99369 0.0
H921 H 0.55348 0.91053 0.53967 0.0
H922 H 0.52378 0.96682 0.28694 0.0
H923 H 0.57556 0.97326 0.23682 0.0
C924 C 0.12951 0.61601 0.10422 0.0
C925 C 0.13764 0.60739 0.06807 0.0
N926 N 0.14606 0.60376 0.13199 0.0
N927 N 0.13293 0.61779 0.19034 0.0
C928 C 0.14327 0.61056 0.20495 0.0
H929 H 0.12077 0.61968 0.0712 0.0
Co930 Co 0.12475 0.62671 0.2737 0.0
C931 C 0.13149 0.60741 0.43758 0.0
O932 O 0.14319 0.62324 0.46762 0.0
N933 N 0.11641 0.63549 0.35893 0.0
C934 C 0.09894 0.63676 0.46117 0.0
C935 C 0.10367 0.62581 0.41833 0.0
C936 C 0.11946 0.65218 0.36759 0.0
N937 N 0.10891 0.65334 0.42888 0.0
O938 O 0.12833 0.64776 0.18024 0.0
H939 H 0.09754 0.61153 0.42693 0.0
H940 H 0.12937 0.66332 0.32997 0.0
O941 O 0.12319 0.60683 0.36504 0.0
C942 C 0.14254 0.65796 0.13239 0.0
O943 O 0.15634 0.65569 0.14285 0.0
N944 N 0.0999 0.61083 0.23994 0.0
C945 C 0.06249 0.58878 0.26378 0.0
C946 C 0.07395 0.58158 0.26101 0.0
C947 C 0.0925 0.59276 0.24924 0.0
C948 C 0.08878 0.61771 0.22996 0.0
C949 C 0.07022 0.60706 0.24319 0.0
H950 H 0.10102 0.58697 0.25347 0.0
H951 H 0.09438 0.63194 0.22179 0.0
H952 H 0.14725 0.60867 0.26909 0.0
H953 H 0.13555 0.60211 1.00235 0.0
H954 H 0.08883 0.63273 0.51104 0.0
H955 H 0.0688 0.56744 0.27061 0.0
H956 H 0.06223 0.61348 0.24285 0.0
C957 C 0.42512 0.52477 0.08215 0.0
C958 C 0.43193 0.54116 0.04324 0.0
N959 N 0.43512 0.55338 0.10577 0.0
N960 N 0.42424 0.5268 0.16869 0.0
C961 C 0.43015 0.54423 0.181 0.0
H962 H 0.42154 0.51228 0.04997 0.0
Co963 Co 0.41493 0.50946 0.2504 0.0
C964 C 0.43406 0.53742 0.40472 0.0
O965 O 0.41871 0.53686 0.4139 0.0
N966 N 0.40555 0.49182 0.33381 0.0
C967 C 0.40415 0.47275 0.43484 0.0
C968 C 0.41511 0.4886 0.39354 0.0
C969 C 0.38888 0.47806 0.34107 0.0
N970 N 0.38776 0.46603 0.40032 0.0
O971 O 0.39343 0.49381 0.15353 0.0
H972 H 0.4293 0.49691 0.40434 0.0
H973 H 0.37764 0.47713 0.30565 0.0
O974 O 0.43486 0.52711 0.34422 0.0
C975 C 0.38093 0.4787 0.11886 0.0
O976 O 0.37873 0.46386 0.1533 0.0
N977 N 0.43037 0.49982 0.21563 0.0
C978 C 0.45052 0.48249 0.24336 0.0
C979 C 0.45868 0.50123 0.24448 0.0
C980 C 0.44841 0.50962 0.23032 0.0
C981 C 0.42286 0.48179 0.2031 0.0
C982 C 0.43252 0.47291 0.21815 0.0
H983 H 0.45477 0.52393 0.23848 0.0
H984 H 0.4088 0.47376 0.19243 0.0
H985 H 0.43167 0.55037 0.24421 0.0
H986 H 0.43579 0.54414 0.97547 0.0
H987 H 0.4078 0.46679 0.48719 0.0
H988 H 0.47262 0.50931 0.26209 0.0
H989 H 0.42564 0.45847 0.21469 0.0
C990 C 0.11054 0.51295 0.95515 0.0
C991 C 0.11678 0.52248 0.03131 0.0
N992 N 0.13002 0.53901 1.01096 0.0
N993 N 0.11967 0.52361 0.88788 0.0
C994 C 0.13121 0.53936 0.92333 0.0
H995 H 0.10097 0.49885 0.94951 0.0
Co996 Co 0.12255 0.51596 0.78299 0.0
C997 C 0.1225 0.54264 0.64415 0.0
O998 O 0.1107 0.52736 0.60945 0.0
N999 N 0.12636 0.50769 0.67817 0.0
C1000 C 0.13894 0.50702 0.55307 0.0
C1001 C 0.13786 0.51781 0.61492 0.0
C1002 C 0.12182 0.49081 0.65666 0.0
N1003 N 0.12878 0.49008 0.57946 0.0
O1004 O 0.14672 0.51916 0.8317 0.0
H1005 H 0.14617 0.53216 0.61639 0.0
H1006 H 0.11488 0.47948 0.69968 0.0
O1007 O 0.13015 0.54166 0.7173 0.0
C1008 C 0.14391 0.50541 0.87989 0.0
O1009 O 0.12753 0.49185 0.88121 0.0
N1010 N 0.09809 0.5088 0.75582 0.0
C1011 C 0.06092 0.49542 0.758 0.0
C1012 C 0.07297 0.51357 0.77324 0.0
C1013 C 0.09142 0.51993 0.77286 0.0
C1014 C 0.08646 0.49111 0.74083 0.0
C1015 C 0.06797 0.48426 0.73994 0.0
H1016 H 0.10031 0.5337 0.7906 0.0
H1017 H 0.09125 0.48183 0.73542 0.0
H1018 H 0.1406 0.55065 0.88501 0.0
H1019 H 0.11223 0.51753 0.09652 0.0
H1020 H 0.14788 0.51129 0.49765 0.0
H1021 H 0.06819 0.52272 0.78766 0.0
H1022 H 0.0592 0.47007 0.73007 0.0
C1023 C 0.52451 0.61384 0.9457 0.0
C1024 C 0.51348 0.61123 1.01492 0.0
N1025 N 0.49708 0.60643 0.9838 0.0
N1026 N 0.51509 0.61058 0.87146 0.0
C1027 C 0.49851 0.60598 0.89618 0.0
H1028 H 0.5387 0.61873 0.9488 0.0
Co1029 Co 0.52515 0.61851 0.76537 0.0
C1030 C 0.49603 0.58632 0.64554 0.0
O1031 O 0.507 0.58007 0.64886 0.0
N1032 N 0.53602 0.62775 0.65745 0.0
C1033 C 0.5472 0.63134 0.52358 0.0
C1034 C 0.5363 0.61916 0.58417 0.0
C1035 C 0.54663 0.64517 0.63864 0.0
N1036 N 0.55377 0.64773 0.55807 0.0
O1037 O 0.52233 0.64091 0.79251 0.0
H1038 H 0.5299 0.60497 0.57555 0.0
H1039 H 0.54872 0.65579 0.68248 0.0
O1040 O 0.5002 0.60089 0.69171 0.0
C1041 C 0.53496 0.65212 0.84571 0.0
O1042 O 0.5482 0.64918 0.8606 0.0
N1043 N 0.53219 0.60042 0.76255 0.0
C1044 C 0.54758 0.57856 0.79294 0.0
C1045 C 0.53046 0.57382 0.82432 0.0
C1046 C 0.52292 0.58459 0.80678 0.0
C1047 C 0.54917 0.60563 0.73572 0.0
C1048 C 0.55656 0.59459 0.74541 0.0
H1049 H 0.50973 0.58039 0.83185 0.0
H1050 H 0.55761 0.61879 0.70917 0.0
H1051 H 0.48787 0.60251 0.84991 0.0
H1052 H 0.5174 0.613 0.08281 0.0
H1053 H 0.55014 0.62833 0.45926 0.0
H1054 H 0.52301 0.56237 0.86574 0.0
H1055 H 0.56965 0.59918 0.71806 0.0
C1056 C 0.42642 0.926 0.94395 0.0
C1057 C 0.42832 0.91914 1.02118 0.0
N1058 N 0.43158 0.90577 1.00276 0.0
N1059 N 0.4284 0.91694 0.87764 0.0
C1060 C 0.43164 0.90488 0.91486 0.0
H1061 H 0.42233 0.93588 0.93658 0.0
Co1062 Co 0.41938 0.91547 0.76988 0.0
C1063 C 0.43818 0.90114 0.63441 0.0
O1064 O 0.42307 0.89184 0.59209 0.0
N1065 N 0.40955 0.91425 0.66142 0.0
C1066 C 0.40583 0.9199 0.52411 0.0
C1067 C 0.41814 0.92298 0.58804 0.0
C1068 C 0.39212 0.90596 0.64071 0.0
N1069 N 0.38956 0.90926 0.55793 0.0
O1070 O 0.39791 0.89071 0.8092 0.0
H1071 H 0.43245 0.93128 0.58175 0.0
H1072 H 0.38143 0.89819 0.68593 0.0
O1073 O 0.43765 0.90839 0.70883 0.0
C1074 C 0.38722 0.89304 0.8617 0.0
O1075 O 0.39016 0.90941 0.86933 0.0
N1076 N 0.43686 0.93972 0.75118 0.0
C1077 C 0.45992 0.97676 0.76494 0.0
C1078 C 0.46651 0.96486 0.76948 0.0
C1079 C 0.45472 0.94638 0.76371 0.0
C1080 C 0.43028 0.95109 0.74474 0.0
C1081 C 0.44155 0.96958 0.75058 0.0
H1082 H 0.45978 0.93745 0.77556 0.0
H1083 H 0.41603 0.94573 0.73944 0.0
H1084 H 0.43334 0.89522 0.87755 0.0
H1085 H 0.42662 0.92328 0.08521 0.0
H1086 H 0.40855 0.92507 0.45822 0.0
H1087 H 0.48057 0.9697 0.77997 0.0
H1088 H 0.43575 0.97814 0.74809 0.0
C1089 C 0.17736 0.43998 1.02537 0.0
C1090 C 0.18765 0.44589 0.95177 0.0
N1091 N 0.20475 0.45641 0.9768 0.0
N1092 N 0.18797 0.44685 0.09573 0.0
C1093 C 0.20449 0.45676 0.06465 0.0
H1094 H 0.16298 0.43194 0.02759 0.0
Co1095 Co 0.17964 0.44685 0.20293 0.0
C1096 C 0.21179 0.45965 0.34335 0.0
O1097 O 0.20514 0.46805 0.3869 0.0
N1098 N 0.17001 0.44631 0.31114 0.0
C1099 C 0.15858 0.43777 0.44378 0.0
C1100 C 0.16897 0.43623 0.38065 0.0
C1101 C 0.16019 0.45378 0.33326 0.0
N1102 N 0.15291 0.44865 0.41314 0.0
O1103 O 0.18376 0.4724 0.17196 0.0
H1104 H 0.17513 0.42802 0.38464 0.0
H1105 H 0.15858 0.46297 0.2919 0.0
O1106 O 0.20455 0.45293 0.26728 0.0
C1107 C 0.171 0.47155 0.12171 0.0
O1108 O 0.15682 0.45574 0.11146 0.0
N1109 N 0.17217 0.42222 0.21237 0.0
C1110 C 0.15664 0.38525 0.18388 0.0
C1111 C 0.17528 0.39626 0.19115 0.0
C1112 C 0.18282 0.41476 0.20503 0.0
C1113 C 0.1541 0.41171 0.20627 0.0
C1114 C 0.1461 0.39332 0.1924 0.0
H1115 H 0.19716 0.42314 0.20495 0.0
H1116 H 0.14584 0.41784 0.20758 0.0
H1117 H 0.21606 0.46416 0.10591 0.0
H1118 H 0.18278 0.44299 0.88546 0.0
H1119 H 0.15534 0.43132 0.50691 0.0
H1120 H 0.18398 0.3907 0.18401 0.0
H1121 H 0.13176 0.38563 0.18418 0.0
C1122 C 0.59913 0.75329 1.008 0.0
C1123 C 0.59297 0.75686 0.93236 0.0
N1124 N 0.58033 0.76095 0.95385 0.0
N1125 N 0.59057 0.75548 0.07606 0.0
C1126 C 0.57947 0.76037 0.04156 0.0
H1127 H 0.60816 0.7481 1.01274 0.0
Co1128 Co 0.58733 0.74492 0.18109 0.0
C1129 C 0.58927 0.77255 0.32056 0.0
O1130 O 0.60064 0.76839 0.35445 0.0
N1131 N 0.58311 0.73301 0.28682 0.0
C1132 C 0.57017 0.72087 0.41311 0.0
C1133 C 0.57149 0.73223 0.348 0.0
C1134 C 0.58753 0.72084 0.31317 0.0
N1135 N 0.58031 0.71379 0.39107 0.0
O1136 O 0.56251 0.72488 0.13383 0.0
H1137 H 0.56335 0.73842 0.34306 0.0
H1138 H 0.59439 0.7159 0.27305 0.0
O1139 O 0.58138 0.7642 0.24721 0.0
C1140 C 0.56469 0.71348 0.0859 0.0
O1141 O 0.58074 0.71545 0.08567 0.0
N1142 N 0.61217 0.7608 0.20528 0.0
C1143 C 0.64941 0.78117 0.1811 0.0
C1144 C 0.63892 0.78935 0.1822 0.0
C1145 C 0.62031 0.7789 0.19243 0.0
C1146 C 0.62239 0.75284 0.20644 0.0
C1147 C 0.64092 0.76273 0.19597 0.0
H1148 H 0.61237 0.78522 0.18298 0.0
H1149 H 0.61616 0.73854 0.20651 0.0
H1150 H 0.57054 0.76283 0.08061 0.0
H1151 H 0.59709 0.75602 0.86673 0.0
H1152 H 0.56099 0.71664 0.46758 0.0
H1153 H 0.64486 0.80349 0.16886 0.0
H1154 H 0.64845 0.7558 0.19448 0.0
C1155 C 0.27821 0.83934 1.0139 0.0
C1156 C 0.27508 0.82533 0.96059 0.0
N1157 N 0.27787 0.81363 1.0067 0.0
N1158 N 0.28261 0.83626 0.09347 0.0
C1159 C 0.28248 0.8207 0.08712 0.0
H1160 H 0.2778 0.85119 0.99531 0.0
Co1161 Co 0.29246 0.8516 0.18358 0.0
C1162 C 0.26896 0.82974 0.34614 0.0
O1163 O 0.26996 0.8449 0.36751 0.0
N1164 N 0.30328 0.86758 0.2768 0.0
C1165 C 0.31204 0.8889 0.37801 0.0
C1166 C 0.29945 0.87939 0.31559 0.0
C1167 C 0.31798 0.86993 0.31896 0.0
N1168 N 0.32362 0.88289 0.37941 0.0
O1169 O 0.3159 0.85081 0.15758 0.0
H1170 H 0.28817 0.88106 0.30143 0.0
H1171 H 0.3248 0.86262 0.30463 0.0
O1172 O 0.27809 0.82987 0.27703 0.0
C1173 C 0.32399 0.8609 0.08957 0.0
O1174 O 0.31678 0.86981 0.05634 0.0
N1175 N 0.27325 0.85639 0.18005 0.0
C1176 C 0.25019 0.86949 0.13836 0.0
C1177 C 0.24354 0.85232 0.17452 0.0
C1178 C 0.25528 0.84581 0.19301 0.0
C1179 C 0.27963 0.87269 0.14162 0.0
C1180 C 0.26856 0.87964 0.12283 0.0
H1181 H 0.24983 0.8322 0.2149 0.0
H1182 H 0.29369 0.88055 0.12654 0.0
H1183 H 0.28633 0.81507 0.14001 0.0
H1184 H 0.27045 0.82359 0.89377 0.0
H1185 H 0.3127 0.89941 0.41899 0.0
H1186 H 0.22938 0.84382 0.18581 0.0
H1187 H 0.27448 0.89301 0.09637 0.0
C1188 C 0.2507 0.13116 0.67188 0.0
C1189 C 0.25279 0.11762 0.7128 0.0
C1190 C 0.25083 0.14559 0.72007 0.0
C1191 C 0.25341 0.14791 0.81261 0.0
H1192 H 0.24946 0.13098 0.60159 0.0
H1193 H 0.24912 0.15532 0.68334 0.0
S1194 S 0.25793 0.11552 0.9539 0.0
N1195 N 0.25628 0.10729 0.85505 0.0
N1196 N 0.25695 0.13398 0.94181 0.0
C1197 C 0.25518 0.13429 0.85403 0.0
C1198 C 0.25477 0.11949 0.80556 0.0
C1199 C 0.89667 0.13238 0.69646 0.0
C1200 C 0.91565 0.13993 0.69351 0.0
C1201 C 0.88535 0.12017 0.76297 0.0
C1202 C 0.89217 0.11479 0.83355 0.0
H1203 H 0.89048 0.13682 0.64887 0.0
H1204 H 0.87128 0.11596 0.76213 0.0
S1205 S 0.94067 0.13016 0.86068 0.0
N1206 N 0.94024 0.14033 0.77034 0.0
N1207 N 0.91973 0.11813 0.89309 0.0
C1208 C 0.91105 0.12182 0.82995 0.0
C1209 C 0.92247 0.13404 0.76158 0.0
C1210 C 0.89645 0.77003 0.76055 0.0
C1211 C 0.89856 0.78157 0.6888 0.0
C1212 C 0.9109 0.77139 0.81226 0.0
C1213 C 0.92885 0.78453 0.7974 0.0
H1214 H 0.88321 0.75955 0.77833 0.0
H1215 H 0.90784 0.76205 0.86528 0.0
S1216 S 0.94282 0.8181 0.61697 0.0
N1217 N 0.92091 0.8065 0.60593 0.0
N1218 N 0.94773 0.80931 0.70072 0.0
C1219 C 0.93131 0.79606 0.72488 0.0
C1220 C 0.91647 0.79456 0.6718 0.0
C1221 C 0.14355 0.24899 0.95522 0.0
C1222 C 0.12675 0.24393 0.91725 0.0
C1223 C 0.1584 0.25062 0.90535 0.0
C1224 C 0.15778 0.24733 0.81342 0.0
H1225 H 0.14565 0.25275 1.02341 0.0
H1226 H 0.17084 0.25506 0.93981 0.0
S1227 S 0.11699 0.23332 0.68014 0.0
N1228 N 0.1107 0.23535 0.77924 0.0
N1229 N 0.13798 0.2382 0.68873 0.0
C1230 C 0.1409 0.24171 0.77531 0.0
C1231 C 0.12581 0.24016 0.82582 0.0
C1232 C 0.7844 0.8908 0.92394 0.0
C1233 C 0.79741 0.88632 0.8985 0.0
C1234 C 0.78064 0.90267 0.87424 0.0
C1235 C 0.78958 0.91119 0.79494 0.0
H1236 H 0.77664 0.88478 0.98217 0.0
H1237 H 0.7703 0.90506 0.89883 0.0
S1238 S 0.82544 0.90493 0.69807 0.0
N1239 N 0.81961 0.89223 0.78599 0.0
N1240 N 0.81275 0.91419 0.69657 0.0
C1241 C 0.80285 0.90711 0.7696 0.0
C1242 C 0.80663 0.89492 0.81971 0.0
C1243 C 0.14283 0.91135 0.82727 0.0
C1244 C 0.14577 0.91119 0.91901 0.0
C1245 C 0.12922 0.89638 0.77977 0.0
C1246 C 0.11773 0.87977 0.81987 0.0
H1247 H 0.15172 0.92316 0.79028 0.0
H1248 H 0.12835 0.89762 0.70997 0.0
S1249 S 0.11866 0.87169 0.05894 0.0
N1250 N 0.13486 0.89258 0.04738 0.0
N1251 N 0.10999 0.8648 0.96084 0.0
C1252 C 0.12013 0.87959 0.91219 0.0
C1253 C 0.1338 0.895 0.96063 0.0
C1254 C 0.82166 0.91299 0.3537 0.0
C1255 C 0.81071 0.91347 0.41909 0.0
C1256 C 0.82006 0.89674 0.32882 0.0
C1257 C 0.80672 0.8806 0.3655 0.0
H1258 H 0.83025 0.92492 0.31671 0.0
H1259 H 0.82776 0.89664 0.2735 0.0
S1260 S 0.77837 0.87609 0.55633 0.0
N1261 N 0.78931 0.89761 0.53391 0.0
N1262 N 0.78563 0.86685 0.4853 0.0
C1263 C 0.79782 0.88142 0.44055 0.0
C1264 C 0.79984 0.89801 0.46719 0.0
C1265 C 0.13975 0.92595 0.35792 0.0
C1266 C 0.1552 0.92578 0.38567 0.0
C1267 C 0.12291 0.91263 0.38451 0.0
C1268 C 0.12133 0.89958 0.44293 0.0
H1269 H 0.14055 0.9351 0.30759 0.0
H1270 H 0.11115 0.91154 0.35357 0.0
S1271 S 0.15753 0.89664 0.55616 0.0
N1272 N 0.16784 0.91377 0.48933 0.0
N1273 N 0.13605 0.88935 0.54286 0.0
C1274 C 0.13663 0.90122 0.48312 0.0
C1275 C 0.15374 0.91439 0.45419 0.0
C1276 C 0.14503 0.26125 0.4317 0.0
C1277 C 0.14315 0.24421 0.42822 0.0
C1278 C 0.13055 0.26352 0.41369 0.0
C1279 C 0.1141 0.24877 0.39027 0.0
H1280 H 0.15802 0.27291 0.44225 0.0
H1281 H 0.13284 0.27697 0.40692 0.0
S1282 S 0.10168 0.2012 0.39685 0.0
N1283 N 0.12324 0.21224 0.41973 0.0
N1284 N 0.09572 0.21648 0.38383 0.0
C1285 C 0.11154 0.23152 0.39969 0.0
C1286 C 0.12628 0.22923 0.41859 0.0
C1287 C 0.92094 0.81501 0.2016 0.0
C1288 C 0.92281 0.80405 0.14053 0.0
C1289 C 0.90413 0.81029 0.2345 0.0
C1290 C 0.88901 0.79408 0.20972 0.0
H1291 H 0.93265 0.82589 0.23188 0.0
H1292 H 0.90337 0.81817 0.28744 0.0
S1293 S 0.88659 0.76471 0.02756 0.0
N1294 N 0.90794 0.77975 0.03648 0.0
N1295 N 0.87638 0.77017 0.10192 0.0
C1296 C 0.89037 0.78508 0.13644 0.0
C1297 C 0.90741 0.79026 0.10097 0.0
C1298 C 0.22781 0.1 0.24897 0.0
C1299 C 0.24481 0.10185 0.23926 0.0
C1300 C 0.22465 0.11362 0.22221 0.0
C1301 C 0.23843 0.12914 0.18493 0.0
H1302 H 0.21749 0.08873 0.2843 0.0
H1303 H 0.21194 0.11264 0.23628 0.0
S1304 S 0.28489 0.13999 0.14269 0.0
N1305 N 0.27511 0.11982 0.18567 0.0
N1306 N 0.26918 0.14543 0.13646 0.0
C1307 C 0.25499 0.13047 0.16899 0.0
C1308 C 0.25816 0.11669 0.19544 0.0
C1309 C 0.91799 0.11098 0.23633 0.0
C1310 C 0.90229 0.10955 0.203 0.0
C1311 C 0.9324 0.1278 0.25722 0.0
C1312 C 0.93131 0.14332 0.24373 0.0
H1313 H 0.91866 0.09908 0.25091 0.0
H1314 H 0.94395 0.12868 0.28944 0.0
S1315 S 0.89291 0.14611 0.15615 0.0
N1316 N 0.88638 0.12465 0.15703 0.0
N1317 N 0.91367 0.15618 0.19183 0.0
C1318 C 0.91608 0.14197 0.20464 0.0
C1319 C 0.90143 0.12503 0.18578 0.0
C1320 C 0.93264 0.46338 0.10314 0.0
C1321 C 0.91963 0.45209 0.03987 0.0
C1322 C 0.93089 0.47593 0.15778 0.0
C1323 C 0.91589 0.47832 0.15438 0.0
H1324 H 0.94469 0.46266 0.11107 0.0
H1325 H 0.94153 0.48387 0.20324 0.0
S1326 S 0.87722 0.45211 1.00407 0.0
N1327 N 0.89081 0.44448 0.9804 0.0
N1328 N 0.88726 0.46738 0.0807 0.0
C1329 C 0.90266 0.46706 0.09165 0.0
C1330 C 0.90455 0.4543 0.03565 0.0
C1331 C 0.55558 0.43985 0.04129 0.0
C1332 C 0.55357 0.44046 0.13376 0.0
C1333 C 0.56977 0.45404 0.99203 0.0
C1334 C 0.58337 0.46976 0.032 0.0
H1335 H 0.54572 0.42832 1.00548 0.0
H1336 H 0.56964 0.45289 0.92169 0.0
S1337 S 0.58613 0.47787 0.27236 0.0
N1338 N 0.56774 0.45832 0.26187 0.0
N1339 N 0.59409 0.48413 0.17291 0.0
C1340 C 0.58184 0.47016 0.12472 0.0
C1341 C 0.56725 0.45593 0.17424 0.0
C1342 C 0.58603 0.13465 0.05806 0.0
C1343 C 0.5687 0.12332 1.02131 0.0
C1344 C 0.59455 0.12872 0.11981 0.0
C1345 C 0.58647 0.11084 0.14977 0.0
H1346 H 0.59337 0.14852 0.03837 0.0
H1347 H 0.6078 0.13824 0.14277 0.0
S1348 S 0.54072 0.07542 0.08097 0.0
N1349 N 0.54377 0.09311 0.02596 0.0
N1350 N 0.5591 0.08202 0.13842 0.0
C1351 C 0.56897 0.09946 0.11493 0.0
C1352 C 0.56035 0.10556 0.05247 0.0
C1353 C 0.80972 0.5853 0.28095 0.0
C1354 C 0.79175 0.57514 0.25301 0.0
C1355 C 0.82452 0.58777 0.2283 0.0
C1356 C 0.82271 0.58033 0.14302 0.0
H1357 H 0.81256 0.59237 0.34244 0.0
H1358 H 0.83776 0.5962 0.25469 0.0
S1359 S 0.77856 0.55191 0.03785 0.0
N1360 N 0.7733 0.55734 0.13211 0.0
N1361 N 0.80054 0.56134 0.03681 0.0
C1362 C 0.80476 0.56956 0.11563 0.0
C1363 C 0.78966 0.56726 0.16887 0.0
C1364 C 0.47369 0.23111 0.15845 0.0
C1365 C 0.46594 0.22394 0.24175 0.0
C1366 C 0.46952 0.24253 0.10746 0.0
C1367 C 0.45703 0.24758 0.13488 0.0
H1368 H 0.4831 0.22769 0.1309 0.0
H1369 H 0.47603 0.2472 0.04501 0.0
S1370 S 0.43336 0.2338 0.34952 0.0
N1371 N 0.44559 0.22405 0.34934 0.0
N1372 N 0.43752 0.24465 0.25615 0.0
C1373 C 0.44942 0.24077 0.21887 0.0
C1374 C 0.45385 0.22931 0.27097 0.0
C1375 C 0.79585 0.23377 0.08644 0.0
C1376 C 0.78735 0.21665 0.12551 0.0
C1377 C 0.80819 0.2497 0.1329 0.0
C1378 C 0.81305 0.24995 0.22247 0.0
H1379 H 0.79325 0.23494 1.01838 0.0
H1380 H 0.81425 0.2621 0.09673 0.0
S1381 S 0.79393 0.20914 0.35984 0.0
N1382 N 0.78452 0.20152 0.26377 0.0
N1383 N 0.80707 0.23088 0.34807 0.0
C1384 C 0.80432 0.233 0.26284 0.0
C1385 C 0.79181 0.21673 0.21565 0.0
C1386 C 0.48879 0.23076 0.67717 0.0
C1387 C 0.47466 0.21477 0.71126 0.0
C1388 C 0.49106 0.24723 0.70294 0.0
C1389 C 0.48016 0.24804 0.76763 0.0
H1390 H 0.49651 0.23051 0.62228 0.0
H1391 H 0.49996 0.25908 0.66623 0.0
S1392 S 0.44736 0.21111 0.90532 0.0
N1393 N 0.45381 0.20145 0.8325 0.0
N1394 N 0.45895 0.23265 0.88372 0.0
C1395 C 0.46906 0.23268 0.81584 0.0
C1396 C 0.46622 0.21585 0.78762 0.0
C1397 C 0.8024 0.24137 0.78546 0.0
C1398 C 0.78657 0.2358 0.73868 0.0
C1399 C 0.81815 0.25621 0.75835 0.0
C1400 C 0.81831 0.2657 0.68361 0.0
H1401 H 0.80299 0.23302 0.83646 0.0
H1402 H 0.8304 0.25864 0.78921 0.0
S1403 S 0.7786 0.26039 0.56467 0.0
N1404 N 0.7707 0.24317 0.63183 0.0
N1405 N 0.80025 0.27223 0.58431 0.0
C1406 C 0.80185 0.2623 0.64851 0.0
C1407 C 0.78591 0.24684 0.67457 0.0
C1408 C 0.794 0.56346 0.81802 0.0
C1409 C 0.79897 0.55291 0.76945 0.0
C1410 C 0.77972 0.56541 0.79151 0.0
C1411 C 0.77041 0.55709 0.7147 0.0
H1412 H 0.80276 0.57227 0.86838 0.0
H1413 H 0.77797 0.57559 0.82339 0.0
S1414 S 0.77379 0.52223 0.58956 0.0
N1415 N 0.79067 0.53011 0.65892 0.0
N1416 N 0.7629 0.53296 0.61096 0.0
C1417 C 0.77286 0.54355 0.67792 0.0
C1418 C 0.78763 0.54181 0.70421 0.0
C1419 C 0.58318 0.15017 0.62658 0.0
C1420 C 0.56731 0.14019 0.57863 0.0
C1421 C 0.59945 0.1536 0.59174 0.0
C1422 C 0.59998 0.14663 0.50992 0.0
H1423 H 0.58291 0.15301 0.69504 0.0
H1424 H 0.61089 0.1586 0.63485 0.0
S1425 S 0.56417 0.12972 0.34291 0.0
N1426 N 0.55464 0.13132 0.43311 0.0
N1427 N 0.58519 0.1368 0.36891 0.0
C1428 C 0.58528 0.14125 0.45396 0.0
C1429 C 0.56875 0.13807 0.4888 0.0
C1430 C 0.88772 0.43696 0.51194 0.0
C1431 C 0.88843 0.43493 0.60257 0.0
C1432 C 0.88579 0.45094 0.47905 0.0
C1433 C 0.88448 0.46283 0.53704 0.0
H1434 H 0.89179 0.42991 0.4676 0.0
H1435 H 0.88885 0.45433 0.4109 0.0
S1436 S 0.87336 0.45534 0.77073 0.0
N1437 N 0.87876 0.44015 0.74377 0.0
N1438 N 0.87463 0.46613 0.67991 0.0
C1439 C 0.87916 0.45708 0.62259 0.0
C1440 C 0.88146 0.44312 0.65674 0.0
C1441 C 0.58665 0.44951 0.54566 0.0
C1442 C 0.5712 0.44774 0.50744 0.0
C1443 C 0.60024 0.46632 0.57209 0.0
C1444 C 0.59835 0.48148 0.5623 0.0
H1445 H 0.58754 0.43777 0.56124 0.0
H1446 H 0.61142 0.46725 0.60831 0.0
S1447 S 0.56092 0.48343 0.45624 0.0
N1448 N 0.55538 0.46222 0.4524 0.0
N1449 N 0.5808 0.49384 0.50259 0.0
C1450 C 0.58378 0.47999 0.51544 0.0
C1451 C 0.57008 0.46299 0.4885 0.0
C1452 C 0.57597 0.80851 0.39517 0.0
C1453 C 0.58456 0.81501 0.47787 0.0
C1454 C 0.5771 0.795 0.34483 0.0
C1455 C 0.58685 0.7868 0.37351 0.0
H1456 H 0.56818 0.81399 0.36811 0.0
H1457 H 0.57031 0.79108 0.28255 0.0
S1458 S 0.61153 0.79817 0.587 0.0
N1459 N 0.60301 0.81149 0.58482 0.0
N1460 N 0.60505 0.7866 0.49547 0.0
C1461 C 0.59535 0.79314 0.45697 0.0
C1462 C 0.59426 0.80694 0.50724 0.0
C1463 C 0.2311 0.80032 0.51551 0.0
C1464 C 0.23011 0.7835 0.51889 0.0
C1465 C 0.24338 0.81452 0.45979 0.0
C1466 C 0.25571 0.81321 0.4021 0.0
H1467 H 0.22228 0.80264 0.55653 0.0
H1468 H 0.24308 0.82688 0.46227 0.0
S1469 S 0.25957 0.77245 0.38521 0.0
N1470 N 0.24353 0.76687 0.45769 0.0
N1471 N 0.26587 0.79311 0.35527 0.0
C1472 C 0.25488 0.79649 0.40453 0.0
C1473 C 0.24244 0.78198 0.4617 0.0
C1474 C 0.24496 0.44219 0.40665 0.0
C1475 C 0.2523 0.44987 0.48997 0.0
C1476 C 0.23258 0.44555 0.35903 0.0
C1477 C 0.2264 0.45689 0.3907 0.0
H1478 H 0.24875 0.43321 0.37702 0.0
H1479 H 0.22762 0.4389 0.297 0.0
S1480 S 0.24098 0.48071 0.60538 0.0
N1481 N 0.25199 0.46971 0.60022 0.0
N1482 N 0.2292 0.47591 0.5145 0.0
C1483 C 0.23372 0.46476 0.47398 0.0
C1484 C 0.2464 0.46136 0.52205 0.0
C1485 C 0.47006 0.90057 0.45065 0.0
C1486 C 0.48774 0.9126 0.47816 0.0
C1487 C 0.45466 0.89686 0.50198 0.0
C1488 C 0.45558 0.90457 0.58587 0.0
H1489 H 0.46797 0.89411 0.38783 0.0
H1490 H 0.44171 0.88784 0.4742 0.0
S1491 S 0.49851 0.93569 0.69478 0.0
N1492 N 0.50483 0.93146 0.60046 0.0
N1493 N 0.4765 0.92413 0.69463 0.0
C1494 C 0.47318 0.91607 0.61548 0.0
C1495 C 0.48888 0.92009 0.56287 0.0
C1496 C 0.13594 0.57752 0.62134 0.0
C1497 C 0.12556 0.55963 0.59221 0.0
C1498 C 0.1376 0.59246 0.57188 0.0
C1499 C 0.12894 0.59076 0.48978 0.0
H1500 H 0.14281 0.58008 0.68327 0.0
H1501 H 0.14585 0.60566 0.59916 0.0
S1502 S 0.10038 0.54732 0.37998 0.0
N1503 N 0.10668 0.54175 0.47055 0.0
N1504 N 0.1097 0.56923 0.38295 0.0
C1505 C 0.11861 0.57307 0.46002 0.0
C1506 C 0.11699 0.55788 0.50932 0.0
C1507 C 0.48152 0.56473 0.51543 0.0
C1508 C 0.48001 0.57564 0.58158 0.0
C1509 C 0.46718 0.55281 0.45949 0.0
C1510 C 0.44992 0.55063 0.46474 0.0
H1511 H 0.49416 0.5652 0.50661 0.0
H1512 H 0.46972 0.54508 0.41191 0.0
S1513 S 0.43789 0.57579 0.62438 0.0
N1514 N 0.45914 0.58314 0.64624 0.0
N1515 N 0.43251 0.5613 0.54369 0.0
C1516 C 0.44818 0.56167 0.52973 0.0
C1517 C 0.46294 0.5739 0.58672 0.0
C1518 C 0.12914 0.55574 0.13734 0.0
C1519 C 0.13878 0.55417 0.06765 0.0
C1520 C 0.13343 0.57252 0.16879 0.0
C1521 C 0.14734 0.58801 0.13087 0.0
H1522 H 0.11689 0.54434 0.15984 0.0
H1523 H 0.12434 0.57348 0.21397 0.0
S1524 S 0.18075 0.59052 0.97368 0.0
N1525 N 0.16636 0.56895 0.98362 0.0
N1526 N 0.1735 0.60078 0.03876 0.0
C1527 C 0.15888 0.58647 0.07289 0.0
C1528 C 0.15485 0.56936 0.04248 0.0
C1529 C 0.46389 0.57829 0.14799 0.0
C1530 C 0.44829 0.57176 0.09793 0.0
C1531 C 0.48002 0.59192 0.11596 0.0
C1532 C 0.48084 0.59938 0.03333 0.0
H1533 H 0.46419 0.5712 0.20558 0.0
H1534 H 0.49198 0.59478 0.15122 0.0
S1535 S 0.44197 0.59266 0.90154 0.0
N1536 N 0.43337 0.57736 0.97882 0.0
N1537 N 0.46363 0.60419 0.9212 0.0
C1538 C 0.46466 0.59575 0.99374 0.0
C1539 C 0.44831 0.58152 1.02539 0.0
C1540 C 0.45107 0.87794 0.05432 0.0
C1541 C 0.46343 0.88874 0.11731 0.0
C1542 C 0.43762 0.88133 0.02826 0.0
C1543 C 0.43717 0.89639 0.06047 0.0
H1544 H 0.45311 0.86833 1.01833 0.0
H1545 H 0.42925 0.87374 0.97398 0.0
S1546 S 0.46266 0.924 0.25064 0.0
N1547 N 0.4711 0.91098 0.23069 0.0
N1548 N 0.44645 0.91815 0.17887 0.0
C1549 C 0.44713 0.90476 0.13592 0.0
C1550 C 0.46036 0.90083 0.16447 0.0
C1551 C 0.23667 0.47727 0.9587 0.0
C1552 C 0.22059 0.46319 0.92511 0.0
C1553 C 0.25305 0.47931 0.93348 0.0
C1554 C 0.25368 0.46789 0.87114 0.0
H1555 H 0.23649 0.48554 1.01126 0.0
H1556 H 0.26508 0.48883 0.96731 0.0
S1557 S 0.2162 0.43239 0.74561 0.0
N1558 N 0.20681 0.44 0.81379 0.0
N1559 N 0.23782 0.44452 0.76418 0.0
C1560 C 0.23809 0.45572 0.82719 0.0
C1561 C 0.22139 0.45331 0.85414 0.0
C1562 C 0.5813 0.77847 0.82703 0.0
C1563 C 0.57174 0.76761 0.89778 0.0
C1564 C 0.57732 0.79116 0.79536 0.0
C1565 C 0.56383 0.79332 0.83425 0.0
H1566 H 0.59329 0.77888 0.80367 0.0
H1567 H 0.58642 0.80092 0.74919 0.0
S1568 S 0.53062 0.76348 0.99503 0.0
N1569 N 0.54453 0.75574 0.98433 0.0
N1570 N 0.53802 0.78079 0.92872 0.0
C1571 C 0.55229 0.78056 0.89348 0.0
C1572 C 0.55599 0.76728 0.92415 0.0
C1573 C 0.25567 0.77645 0.85918 0.0
C1574 C 0.24229 0.76497 0.91733 0.0
C1575 C 0.27064 0.79172 0.89107 0.0
C1576 C 0.27211 0.79559 0.98078 0.0
H1577 H 0.25304 0.77565 0.78981 0.0
H1578 H 0.27911 0.80195 0.84501 0.0
S1579 S 0.24619 0.76352 0.15608 0.0
N1580 N 0.23573 0.75368 0.06491 0.0
N1581 N 0.26365 0.78262 0.12636 0.0
C1582 C 0.26178 0.78144 0.03829 0.0
C1583 C 0.24676 0.76581 1.00546 0.0
C1584 C 0.21765 0.21128 0.33938 0.0
C1585 C 0.22307 0.2282 0.38033 0.0
C1586 C 0.22759 0.20843 0.27166 0.0
C1587 C 0.24392 0.2223 0.23786 0.0
H1588 H 0.20524 0.19978 0.35945 0.0
H1589 H 0.22213 0.19515 0.24447 0.0
S1590 S 0.26531 0.2693 0.32232 0.0
N1591 N 0.24685 0.25895 0.38062 0.0
N1592 N 0.2652 0.25408 0.25679 0.0
C1593 C 0.24968 0.23928 0.27933 0.0
C1594 C 0.23953 0.2421 0.34861 0.0
C1595 C 0.79691 1.01146 0.26667 0.0
C1596 C 0.81391 0.02454 0.23175 0.0
C1597 C 0.79451 0.99883 0.33453 0.0
C1598 C 0.80894 0.99805 0.3741 0.0
H1599 H 0.78497 1.01081 0.24074 0.0
H1600 H 0.78107 0.98942 0.35532 0.0
S1601 S 0.85662 0.02936 0.31195 0.0
N1602 N 0.84551 0.03558 0.24704 0.0
N1603 N 0.84148 1.01269 0.37095 0.0
C1604 C 0.82607 1.01121 0.34022 0.0
C1605 C 0.82843 0.02404 0.27111 0.0
C1606 C 1.00897 0.80873 0.27965 0.0
C1607 C 1.00761 0.79304 0.2429 0.0
C1608 C 1.02137 0.81874 0.34864 0.0
C1609 C 0.03357 0.81405 0.38777 0.0
H1610 H 1.00044 0.81353 0.25448 0.0
H1611 H 1.02138 0.83059 0.37142 0.0
S1612 S 0.03599 0.7741 0.31932 0.0
N1613 N 1.02027 0.77342 0.25553 0.0
N1614 N 0.04281 0.79195 0.3815 0.0
C1615 C 0.03228 0.79835 0.35237 0.0
C1616 C 1.01969 0.78811 0.28197 0.0
C1617 C 0.81183 0.78775 0.82763 0.0
C1618 C 0.81671 0.79167 0.74002 0.0
C1619 C 0.80165 0.79406 0.8683 0.0
C1620 C 0.79643 0.80484 0.82291 0.0
H1621 H 0.81676 0.78058 0.86577 0.0
H1622 H 0.79865 0.79128 0.93696 0.0
S1623 S 0.8052 0.81786 0.58988 0.0
N1624 N 0.81475 0.80569 0.60686 0.0
N1625 N 0.79604 0.8182 0.68373 0.0
C1626 C 0.80032 0.80788 0.73343 0.0
C1627 C 0.81044 0.80117 0.69183 0.0
C1628 C 0.20806 1.0025 0.77791 0.0
C1629 C 0.21059 0.99984 0.86548 0.0
C1630 C 0.21693 0.01961 0.74218 0.0
C1631 C 0.22883 0.03437 0.79309 0.0
H1632 H 0.20024 0.99115 0.73579 0.0
H1633 H 0.21584 0.02099 0.67261 0.0
S1634 S 0.23844 0.03434 0.02795 0.0
N1635 N 0.22434 1.01321 1.0043 0.0
N1636 N 0.24107 0.04554 0.93679 0.0
C1637 C 0.23015 0.03201 0.88251 0.0
C1638 C 0.22103 1.01464 0.91893 0.0
C1639 C 1.00532 0.22135 0.85084 0.0
C1640 C 1.00456 0.22304 0.76014 0.0
C1641 C 1.02161 0.22679 0.89211 0.0
C1642 C 0.0374 0.23396 0.84336 0.0
H1643 H 0.99319 0.21471 0.88895 0.0
H1644 H 1.02178 0.22432 0.96126 0.0
S1645 S 0.04293 0.24436 0.60819 0.0
N1646 N 1.02124 0.23501 0.62545 0.0
N1647 N 0.05188 0.24461 0.70374 0.0
C1648 C 0.03702 0.23697 0.7543 0.0
C1649 C 1.02053 0.23168 0.71236 0.0
C1650 C 0.9087 0.5657 0.56 0.0
C1651 C 0.90342 0.5474 0.57006 0.0
C1652 C 0.90331 0.57511 0.61961 0.0
C1653 C 0.89228 0.56721 0.69503 0.0
H1654 H 0.91646 0.57273 0.50326 0.0
H1655 H 0.90766 0.58891 0.60457 0.0
S1656 S 0.87557 0.51991 0.75748 0.0
N1657 N 0.88685 0.52211 0.66702 0.0
N1658 N 0.87727 0.53953 0.7759 0.0
C1659 C 0.88748 0.54912 0.70742 0.0
C1660 C 0.89281 0.53947 0.64647 0.0
C1661 C 0.48759 0.33924 0.68006 0.0
C1662 C 0.46885 0.33035 0.69195 0.0
C1663 C 0.49679 0.35329 0.61694 0.0
C1664 C 0.48823 0.35998 0.56043 0.0
H1665 H 0.49529 0.33485 0.7175 0.0
H1666 H 0.51107 0.35884 0.61174 0.0
S1667 S 0.43933 0.34261 0.56712 0.0
N1668 N 0.44219 0.3304 0.64125 0.0
N1669 N 0.4593 0.35642 0.52698 0.0
C1670 C 0.46958 0.35167 0.57384 0.0
C1671 C 0.46011 0.33715 0.63742 0.0
C1672 C 0.66896 0.12884 0.6485 0.0
C1673 C 0.67506 0.13168 0.56087 0.0
C1674 C 0.68088 0.13551 0.72256 0.0
C1675 C 0.69995 0.14535 0.71612 0.0
H1676 H 0.65474 0.12228 0.66038 0.0
H1677 H 0.67488 0.13336 0.78659 0.0
S1678 S 0.72347 0.15632 0.50267 0.0
N1679 N 0.70219 0.1452 0.47428 0.0
N1680 N 0.7239 0.1569 0.6104 0.0
C1681 C 0.70622 0.14767 0.62903 0.0
C1682 C 0.6941 0.14118 0.55342 0.0
C1683 C 0.47567 0.14996 0.07883 0.0
C1684 C 0.46651 0.14327 0.15746 0.0
C1685 C 0.48358 0.14139 0.03647 0.0
C1686 C 0.48235 0.12574 0.07109 0.0
H1687 H 0.47743 0.16235 0.05234 0.0
H1688 H 0.4914 0.14755 0.97862 0.0
S1689 S 0.457 0.10142 0.268 0.0
N1690 N 0.45489 0.11936 0.26391 0.0
N1691 N 0.46923 0.10272 0.18265 0.0
C1692 C 0.47217 0.11833 0.14688 0.0
C1693 C 0.46437 0.12724 0.19057 0.0
C1694 C 0.91328 0.36418 0.14314 0.0
C1695 C 0.91179 0.36488 0.0524 0.0
C1696 C 0.90406 0.34798 0.18759 0.0
C1697 C 0.89314 0.33194 0.14254 0.0
H1698 H 0.92139 0.3763 0.17995 0.0
H1699 H 0.90559 0.34801 0.25765 0.0
S1700 S 0.88604 0.32674 0.9032 0.0
N1701 N 0.89969 0.34832 0.91793 0.0
N1702 N 0.8818 0.31781 1.00148 0.0
C1703 C 0.89185 0.33248 0.0513 0.0
C1704 C 0.9013 0.34899 1.0062 0.0
C1705 C 0.67725 0.53368 0.18535 0.0
C1706 C 0.67479 0.53639 0.09767 0.0
C1707 C 0.69412 0.54303 0.2233 0.0
C1708 C 0.70887 0.55555 0.1747 0.0
H1709 H 0.6659 0.52502 0.2256 0.0
H1710 H 0.69534 0.54152 0.29257 0.0
S1711 S 0.70963 0.56604 0.94062 0.0
N1712 N 0.68857 0.55125 0.96119 0.0
N1713 N 0.72043 0.56884 0.03341 0.0
C1714 C 0.7068 0.55738 0.08556 0.0
C1715 C 0.68968 0.54778 0.04665 0.0
C1716 C 0.57426 0.89872 0.89731 0.0
C1717 C 0.56843 0.88025 0.90462 0.0
C1718 C 0.56879 0.908 0.95725 0.0
C1719 C 0.55715 0.89977 0.03031 0.0
H1720 H 0.58255 0.90603 0.84238 0.0
H1721 H 0.57358 0.92198 0.94438 0.0
S1722 S 0.53874 0.85184 0.08509 0.0
N1723 N 0.5506 0.85438 0.99636 0.0
N1724 N 0.5409 0.87157 0.10607 0.0
C1725 C 0.55178 0.88148 0.04007 0.0
C1726 C 0.55717 0.87196 0.97868 0.0
C1727 C 0.15807 0.67748 0.99488 0.0
C1728 C 0.14492 0.67237 0.06229 0.0
C1729 C 0.16267 0.6919 0.93427 0.0
C1730 C 0.15472 0.7028 0.93634 0.0
H1731 H 0.16536 0.67036 0.98944 0.0
H1732 H 0.1732 0.69499 0.8876 0.0
S1733 S 0.11903 0.69557 0.09637 0.0
N1734 N 0.12365 0.67981 0.12283 0.0
N1735 N 0.13214 0.70649 1.01334 0.0
C1736 C 0.14124 0.69761 1.00227 0.0
C1737 C 0.1364 0.68271 0.06317 0.0
C1738 C 0.35326 0.48809 0.93906 0.0
C1739 C 0.34094 0.47108 0.90147 0.0
C1740 C 0.3661 0.49073 1.00599 0.0
C1741 C 0.36776 0.47653 0.04199 0.0
H1742 H 0.35297 0.49982 0.91684 0.0
H1743 H 0.37467 0.50412 0.03049 0.0
S1744 S 0.33937 0.42904 0.96808 0.0
N1745 N 0.33203 0.43981 0.90759 0.0
N1746 N 0.35538 0.44428 0.02998 0.0
C1747 C 0.35562 0.45942 1.00416 0.0
C1748 C 0.34261 0.45683 0.93578 0.0
C1749 C 0.13961 0.46899 0.59138 0.0
C1750 C 0.13018 0.47557 0.54477 0.0
C1751 C 0.14596 0.45894 0.54918 0.0
C1752 C 0.14297 0.45522 0.45942 0.0
H1753 H 0.14339 0.47296 0.65859 0.0
H1754 H 0.15443 0.45532 0.58535 0.0
S1755 S 0.11568 0.46651 0.31468 0.0
N1756 N 0.11604 0.47589 0.40913 0.0
N1757 N 0.12721 0.45621 0.32979 0.0
C1758 C 0.13192 0.46019 0.41489 0.0
C1759 C 0.12571 0.4706 0.45768 0.0
C1760 C 0.56181 0.66534 0.42295 0.0
C1761 C 0.56404 0.66443 0.51345 0.0
C1762 C 0.56881 0.68177 0.38076 0.0
C1763 C 0.57812 0.69772 0.4279 0.0
H1764 H 0.55351 0.6534 0.38544 0.0
H1765 H 0.56565 0.68206 0.31261 0.0
S1766 S 0.59078 0.70283 0.66069 0.0
N1767 N 0.57904 0.68103 0.64505 0.0
N1768 N 0.59129 0.71198 0.56543 0.0
C1769 C 0.58175 0.69709 0.51617 0.0
C1770 C 0.57494 0.68039 0.55912 0.0
C1771 C 0.34367 0.87825 0.47466 0.0
C1772 C 0.33975 0.88988 0.42854 0.0
C1773 C 0.3599 0.88476 0.51865 0.0
C1774 C 0.37278 0.90297 0.51552 0.0
H1775 H 0.33411 0.86408 0.47629 0.0
H1776 H 0.36264 0.8755 0.55349 0.0
S1777 S 0.36875 0.93876 0.4043 0.0
N1778 N 0.34972 0.92034 0.38327 0.0
N1779 N 0.38049 0.93257 0.46505 0.0
C1780 C 0.36895 0.91472 0.47018 0.0
C1781 C 0.35232 0.90816 0.42687 0.0
C1782 C 0.25692 0.26062 0.86993 0.0
C1783 C 0.25104 0.25752 0.78322 0.0
C1784 C 0.26861 0.2551 0.89956 0.0
C1785 C 0.27412 0.24596 0.84331 0.0
H1786 H 0.25058 0.26499 0.91703 0.0
H1787 H 0.27093 0.2553 0.96905 0.0
S1788 S 0.26791 0.24115 0.60409 0.0
N1789 N 0.25588 0.25005 0.63634 0.0
N1790 N 0.2776 0.23929 0.69306 0.0
C1791 C 0.27151 0.24648 0.75342 0.0
C1792 C 0.25978 0.25227 0.72292 0.0
C1793 C 0.78831 0.02509 0.74479 0.0
C1794 C 0.78933 0.02866 0.83446 0.0
C1795 C 0.78151 1.00763 0.71563 0.0
C1796 C 0.77566 0.99355 0.77599 0.0
H1797 H 0.79534 0.03581 0.69846 0.0
H1798 H 0.78356 1.00572 0.64781 0.0
S1799 S 0.7674 0.99569 1.01094 0.0
N1800 N 0.7778 0.01669 0.97815 0.0
N1801 N 0.76507 0.98359 0.92321 0.0
C1802 C 0.77264 0.99667 0.86224 0.0
C1803 C 0.77951 1.01444 0.89175 0.0
C1804 C 0.02477 0.77498 0.73712 0.0
C1805 C 0.03885 0.78451 0.79625 0.0
C1806 C 1.00771 0.76315 0.76797 0.0
C1807 C 1.00459 0.76086 0.85805 0.0
H1808 H 0.02615 0.77871 0.66903 0.0
H1809 H 0.99666 0.75839 0.72264 0.0
S1810 S 0.03861 0.77588 0.03226 0.0
N1811 N 0.04992 0.78587 0.94312 0.0
N1812 N 1.01762 0.76335 1.00115 0.0
C1813 C 1.01925 0.76674 0.91421 0.0
C1814 C 0.03659 0.77882 0.88307 0.0
C1815 C 0.83492 0.82555 0.37334 0.0
C1816 C 0.84354 0.81604 0.34615 0.0
C1817 C 0.82686 0.83229 0.31355 0.0
C1818 C 0.8267 0.83009 0.22139 0.0
H1819 H 0.8331 0.8266 0.44244 0.0
H1820 H 0.81935 0.83808 0.34081 0.0
S1821 S 0.84673 0.80572 0.11313 0.0
N1822 N 0.85103 0.80488 0.21744 0.0
N1823 N 0.83608 0.8171 0.10781 0.0
C1824 C 0.83571 0.82106 0.19322 0.0
C1825 C 0.84397 0.81426 0.25407 0.0
C1826 C 0.21745 1.0097 0.41262 0.0
C1827 C 0.22008 0.02689 0.3932 0.0
C1828 C 0.21007 0.99517 0.35198 0.0
C1829 C 0.20469 0.99647 0.26606 0.0
H1830 H 0.22239 1.00773 0.47412 0.0
H1831 H 0.20979 0.98297 0.37101 0.0
S1832 S 0.208 0.03823 0.17902 0.0
N1833 N 0.21599 0.04395 0.27911 0.0
N1834 N 0.20223 0.017 0.16683 0.0
C1835 C 0.20646 1.01336 0.24645 0.0
C1836 C 0.21404 0.0283 0.30885 0.0
C1837 C 0.02531 0.20875 0.40662 0.0
C1838 C 1.00742 0.19736 0.37918 0.0
C1839 C 0.04027 0.21594 0.34798 0.0
C1840 C 0.03865 0.2124 0.2567 0.0
H1841 H 0.02771 0.21337 0.47352 0.0
H1842 H 0.05321 0.22562 0.37381 0.0
S1843 S 0.99494 0.18406 0.14728 0.0
N1844 N 0.98941 0.18323 0.25099 0.0
N1845 N 1.0169 0.19659 0.1431 0.0
C1846 C 1.02091 0.20063 0.22869 0.0
C1847 C 1.00567 0.19326 0.28856 0.0
C1848 C 0.93659 0.58795 0.20615 0.0
C1849 C 0.94005 0.57665 0.15431 0.0
C1850 C 0.92544 0.59406 0.17561 0.0
C1851 C 0.91757 0.58897 0.09277 0.0
H1852 H 0.94038 0.58986 0.27435 0.0
H1853 H 0.92106 0.60073 0.22076 0.0
S1854 S 0.92809 0.56513 0.92208 0.0
N1855 N 0.93925 0.56503 1.00907 0.0
N1856 N 0.91808 0.5763 0.95123 0.0
C1857 C 0.92394 0.58082 0.03467 0.0
C1858 C 0.9354 0.57473 0.06578 0.0
C1859 C 0.45568 0.36194 0.07214 0.0
C1860 C 0.45528 0.36492 0.16182 0.0
C1861 C 0.45028 0.34482 0.0416 0.0
C1862 C 0.44419 0.33047 0.10042 0.0
H1863 H 0.46294 0.37302 0.02795 0.0
H1864 H 0.45349 0.34352 0.97485 0.0
S1865 S 0.43194 0.33062 0.33115 0.0
N1866 N 0.44211 0.35182 0.30156 0.0
N1867 N 0.43144 0.31927 0.24344 0.0
C1868 C 0.43955 0.33278 0.18498 0.0
C1869 C 0.44517 0.35024 0.21606 0.0
C1870 C 0.70409 0.11769 0.19769 0.0
C1871 C 0.70624 0.12248 0.10935 0.0
C1872 C 0.6872 0.10603 0.23082 0.0
C1873 C 0.67218 0.09906 0.17613 0.0
H1874 H 0.71505 0.12482 0.24289 0.0
H1875 H 0.68553 0.10445 0.30085 0.0
S1876 S 0.67187 0.10285 0.93572 0.0
N1877 N 0.6929 0.11578 0.96444 0.0
N1878 N 0.66108 0.09382 0.02714 0.0
C1879 C 0.67472 0.10095 0.08562 0.0
C1880 C 0.69191 0.1128 0.05181 0.0
C1881 C 0.50295 0.15735 0.53231 0.0
C1882 C 0.49453 0.16674 0.56353 0.0
C1883 C 0.51075 0.1499 0.58896 0.0
C1884 C 0.51078 0.1511 0.68171 0.0
H1885 H 0.50223 0.1544 0.46329 0.0
H1886 H 0.5157 0.14183 0.55944 0.0
S1887 S 0.49024 0.17384 0.80018 0.0
N1888 N 0.48694 0.17662 0.69659 0.0
N1889 N 0.50125 0.16279 0.80067 0.0
C1890 C 0.503 0.161 0.71388 0.0
C1891 C 0.49503 0.16862 0.65603 0.0
C1892 C 0.89279 0.36955 0.57088 0.0
C1893 C 0.88828 0.36886 0.66073 0.0
C1894 C 0.88492 0.35446 0.51375 0.0
C1895 C 0.87157 0.33725 0.54061 0.0
H1896 H 0.90354 0.38189 0.54477 0.0
H1897 H 0.89039 0.35609 0.44868 0.0
S1898 S 0.85318 0.32736 0.76635 0.0
N1899 N 0.86818 0.34888 0.7713 0.0
N1900 N 0.85359 0.32086 0.66538 0.0
C1901 C 0.86613 0.33642 0.62909 0.0
C1902 C 0.87423 0.35195 0.68801 0.0
C1903 C 0.69003 0.53464 0.72861 0.0
C1904 C 0.672 0.52647 0.70038 0.0
C1905 C 0.70492 0.54233 0.66957 0.0
C1906 C 0.70299 0.54249 0.57745 0.0
H1907 H 0.6928 0.53639 0.79784 0.0
H1908 H 0.7182 0.54955 0.6973 0.0
S1909 S 0.6589 0.52335 0.46692 0.0
N1910 N 0.65354 0.51925 0.57108 0.0
N1911 N 0.68091 0.5335 0.46265 0.0
C1912 C 0.68503 0.53385 0.5483 0.0
C1913 C 0.66989 0.52598 0.60837 0.0
C1914 C 0.60241 0.92242 0.54311 0.0
C1915 C 0.60639 0.91131 0.49286 0.0
C1916 C 0.59083 0.92788 0.51104 0.0
C1917 C 0.58301 0.92226 0.42836 0.0
H1918 H 0.60614 0.92466 0.61134 0.0
H1919 H 0.58615 0.93446 0.55504 0.0
S1920 S 0.59472 0.89871 0.26133 0.0
N1921 N 0.60608 0.89938 0.34902 0.0
N1922 N 0.58406 0.90934 0.28845 0.0
C1923 C 0.58982 0.9143 0.3717 0.0
C1924 C 0.60175 0.90892 0.40428 0.0
C1925 C 0.12727 0.70177 0.43685 0.0
C1926 C 0.13039 0.7047 0.52671 0.0
C1927 C 0.11739 0.68445 0.40451 0.0
C1928 C 0.11083 0.66974 0.46119 0.0
H1929 H 0.13421 0.71257 0.39086 0.0
H1930 H 0.11681 0.68249 0.33456 0.0
S1931 S 0.10921 0.67134 0.70262 0.0
N1932 N 0.12108 0.69241 0.67215 0.0
N1933 N 0.10346 0.65955 0.61156 0.0
C1934 C 0.11093 0.67277 0.55126 0.0
C1935 C 0.12061 0.69046 0.58406 0.0
C1936 C 0.36843 0.45214 0.52491 0.0
C1937 C 0.37145 0.45208 0.43516 0.0
C1938 C 0.35122 0.44615 0.55574 0.0
C1939 C 0.33681 0.43998 0.49709 0.0
H1940 H 0.3795 0.45928 0.56945 0.0
H1941 H 0.34973 0.44882 0.62324 0.0
S1942 S 0.33735 0.43013 0.26293 0.0
N1943 N 0.35848 0.44001 0.29352 0.0
N1944 N 0.32589 0.42885 0.35149 0.0
C1945 C 0.33932 0.4364 0.41088 0.0
C1946 C 0.35682 0.44242 0.37975 0.0
C1947 C 0.16003 0.49389 0.0938 0.0
C1948 C 0.17085 0.48664 0.06753 0.0
C1949 C 0.15346 0.50208 0.03417 0.0
C1950 C 0.157 0.50363 0.94295 0.0
H1951 H 0.15534 0.49194 0.16053 0.0
H1952 H 0.1442 0.50598 0.05921 0.0
S1953 S 0.18385 0.48621 0.83634 0.0
N1954 N 0.18445 0.48164 0.94049 0.0
N1955 N 0.1721 0.49648 0.83064 0.0
C1956 C 0.16817 0.49687 0.916 0.0
C1957 C 0.17498 0.48862 0.97696 0.0
C1958 C 0.55603 0.70072 0.93107 0.0
C1959 C 0.55139 0.69919 1.021 0.0
C1960 C 0.54879 0.68588 0.8717 0.0
C1961 C 0.53613 0.66819 0.89679 0.0
H1962 H 0.5666 0.71344 0.90733 0.0
H1963 H 0.55433 0.68812 0.80658 0.0
S1964 S 0.51929 0.65597 0.12433 0.0
N1965 N 0.53302 0.67775 0.13087 0.0
N1966 N 0.51942 0.65044 1.02125 0.0
C1967 C 0.53084 0.66656 0.98579 0.0
C1968 C 0.53834 0.6817 0.04663 0.0
C1969 C 0.35814 0.87469 0.07026 0.0
C1970 C 0.34057 0.86313 0.0398 0.0
C1971 C 0.37336 0.88243 1.01337 0.0
C1972 C 0.3723 0.87922 0.92168 0.0
H1973 H 0.36004 0.87905 0.1376 0.0
H1974 H 0.38607 0.89222 0.04095 0.0
S1975 S 0.3296 0.8501 0.80636 0.0
N1976 N 0.32343 0.8489 0.90924 0.0
N1977 N 0.35151 0.86321 0.80503 0.0
C1978 C 0.35493 0.86714 0.89108 0.0
C1979 C 0.33941 0.85929 0.94886 0.0
C1980 C 0.34598 0.21736 0.9539 0.0
C1981 C 0.33988 0.22379 1.02329 0.0
C1982 C 0.36405 0.22633 0.92638 0.0
C1983 C 0.37699 0.24239 0.96565 0.0
H1984 H 0.33663 0.20546 0.91872 0.0
H1985 H 0.36783 0.22084 0.8724 0.0
S1986 S 0.36914 0.2642 0.15558 0.0
N1987 N 0.34934 0.24669 0.13562 0.0
N1988 N 0.3827 0.26369 0.08138 0.0
C1989 C 0.37128 0.2488 0.03591 0.0
C1990 C 0.35299 0.23954 0.06513 0.0
C1991 C 0.7939 0.11447 0.03183 0.0
C1992 C 0.81082 0.11879 0.99797 0.0
C1993 C 0.78504 0.12384 1.00708 0.0
C1994 C 0.79268 0.13828 0.94814 0.0
H1995 H 0.78738 0.10378 0.07876 0.0
H1996 H 0.77214 0.11989 0.03553 0.0
S1997 S 0.83592 0.15462 0.83447 0.0
N1998 N 0.83414 0.13817 0.89619 0.0
N1999 N 0.81792 0.15606 0.85405 0.0
C2000 C 0.8095 0.14282 0.91362 0.0
C2001 C 0.81842 0.13308 0.93737 0.0
C2002 C 0.90752 0.66649 0.03026 0.0
C2003 C 0.89513 0.66005 0.96101 0.0
C2004 C 0.91609 0.68458 0.05724 0.0
C2005 C 0.91305 0.69743 1.01546 0.0
H2006 H 0.91054 0.65738 0.06469 0.0
H2007 H 0.92521 0.68845 0.11185 0.0
S2008 S 0.88251 0.68757 0.82585 0.0
N2009 N 0.88041 0.66801 0.8501 0.0
N2010 N 0.89696 0.70192 0.89667 0.0
C2011 C 0.9007 0.69107 0.94526 0.0
C2012 C 0.8917 0.67252 0.91913 0.0
C2013 C 0.23844 0.35585 0.71897 0.0
C2014 C 0.25254 0.36875 0.66818 0.0
C2015 C 0.22996 0.33744 0.6983 0.0
C2016 C 0.23492 0.33092 0.62484 0.0
H2017 H 0.23406 0.36001 0.77595 0.0
H2018 H 0.21952 0.3282 0.7414 0.0
S2019 S 0.27028 0.35971 0.46634 0.0
N2020 N 0.27074 0.37392 0.53971 0.0
N2021 N 0.25449 0.33975 0.49819 0.0
C2022 C 0.24886 0.3439 0.57261 0.0
C2023 C 0.25766 0.36261 0.59477 0.0
C2024 C 0.70186 0.91329 0.69196 0.0
C2025 C 0.70797 0.90628 0.62606 0.0
C2026 C 0.68387 0.90432 0.72003 0.0
C2027 C 0.67083 0.88794 0.68275 0.0
H2028 H 0.71117 0.92581 0.72301 0.0
H2029 H 0.68023 0.91035 0.772 0.0
S2030 S 0.67977 0.86457 0.50227 0.0
N2031 N 0.69948 0.88217 0.5226 0.0
N2032 N 0.66574 0.86579 0.57107 0.0
C2033 C 0.67685 0.88093 0.6156 0.0
C2034 C 0.69529 0.88995 0.58841 0.0
C2035 C 0.1246 0.79148 0.59984 0.0
C2036 C 0.12619 0.80646 0.6453 0.0
C2037 C 0.13401 0.78274 0.62577 0.0
C2038 C 0.14574 0.78861 0.69786 0.0
H2039 H 0.11615 0.78648 0.54274 0.0
H2040 H 0.13228 0.77139 0.58798 0.0
S2041 S 0.15397 0.8261 0.84453 0.0
N2042 N 0.13979 0.82578 0.77144 0.0
N2043 N 0.15785 0.80991 0.81654 0.0
C2044 C 0.14746 0.80345 0.74422 0.0
C2045 C 0.13766 0.81219 0.71897 0.0
C2046 C 0.68106 0.80673 0.20112 0.0
C2047 C 0.6687 0.79125 0.15577 0.0
C2048 C 0.69942 0.81559 0.18052 0.0
C2049 C 0.70612 0.8094 0.11338 0.0
H2050 H 0.67659 0.8117 0.25457 0.0
H2051 H 0.70851 0.82703 0.2194 0.0
S2052 S 0.67885 0.7711 0.96632 0.0
N2053 N 0.66425 0.77125 0.03498 0.0
N2054 N 0.69845 0.78791 0.99576 0.0
C2055 C 0.69371 0.79446 0.06493 0.0
C2056 C 0.67512 0.78542 0.08618 0.0
C2057 C 0.22616 0.87686 0.17788 0.0
C2058 C 0.23846 0.87718 0.11662 0.0
C2059 C 0.21712 0.88645 0.1636 0.0
C2060 C 0.22011 0.89676 0.08777 0.0
H2061 H 0.22413 0.86987 0.2391 0.0
H2062 H 0.20836 0.88645 0.21401 0.0
S2063 S 0.24871 0.89988 0.90128 0.0
N2064 N 0.25125 0.88693 0.972 0.0
N2065 N 0.23481 0.90529 0.9473 0.0
C2066 C 0.23159 0.89641 1.02422 0.0
C2067 C 0.24058 0.88653 0.03802 0.0
C2068 C 0.14606 0.34158 0.06851 0.0
C2069 C 0.12999 0.32885 0.10796 0.0
C2070 C 0.15489 0.35967 0.09482 0.0
C2071 C 0.14809 0.36571 0.16225 0.0
H2072 H 0.15162 0.33763 1.01554 0.0
H2073 H 0.16685 0.36907 0.06035 0.0
S2074 S 0.10788 0.33707 0.29517 0.0
N2075 N 0.10861 0.32323 0.22331 0.0
N2076 N 0.12521 0.35687 0.27358 0.0
C2077 C 0.13246 0.35286 0.20465 0.0
C2078 C 0.12344 0.33457 0.17742 0.0
C2079 C 0.81635 0.67273 0.42575 0.0
C2080 C 0.80346 0.66077 0.48475 0.0
C2081 C 0.8258 0.69126 0.44213 0.0
C2082 C 0.82275 0.69853 0.51823 0.0
H2083 H 0.81864 0.66782 0.36493 0.0
H2084 H 0.83505 0.7 0.39317 0.0
S2085 S 0.79246 0.67267 0.69948 0.0
N2086 N 0.78963 0.65739 0.62668 0.0
N2087 N 0.80729 0.69203 0.65711 0.0
C2088 C 0.81058 0.6866 0.57963 0.0
C2089 C 0.801 0.6678 0.56305 0.0
C2090 C 0.35016 0.12355 0.53945 0.0
C2091 C 0.33818 0.12769 0.49763 0.0
C2092 C 0.36838 0.13246 0.51853 0.0
C2093 C 0.37554 0.14603 0.45512 0.0
H2094 H 0.34536 0.11312 0.5883 0.0
H2095 H 0.37696 0.12862 0.55216 0.0
S2096 S 0.35014 0.1621 0.32585 0.0
N2097 N 0.33495 0.14639 0.38898 0.0
N2098 N 0.36929 0.16335 0.35112 0.0
C2099 C 0.36388 0.15069 0.41426 0.0
C2100 C 0.34522 0.1415 0.43513 0.0
C2101 C 0.88305 0.22236 0.48197 0.0
C2102 C 0.88907 0.23565 0.41692 0.0
C2103 C 0.892 0.21279 0.49888 0.0
C2104 C 0.90733 0.21622 0.45161 0.0
H2105 H 0.87179 0.21984 0.52258 0.0
H2106 H 0.88733 0.20318 0.55161 0.0
S2107 S 0.92692 0.24759 0.26597 0.0
N2108 N 0.91014 0.25013 0.2986 0.0
N2109 N 0.92698 0.23244 0.3312 0.0
C2110 C 0.91289 0.22876 0.38357 0.0
C2111 C 0.90377 0.23839 0.36606 0.0
C2112 C 0.02981 0.58088 0.25308 0.0
C2113 C 0.04293 0.57773 0.29066 0.0
C2114 C 1.01175 0.57149 0.27996 0.0
C2115 C 1.00567 0.55822 0.3452 0.0
H2116 H 0.03345 0.59068 0.20177 0.0
H2117 H 1.00238 0.57454 0.24849 0.0
S2118 S 0.03417 0.54517 0.46932 0.0
N2119 N 0.04817 0.56067 0.40147 0.0
N2120 N 1.01436 0.54275 0.44845 0.0
C2121 C 1.01847 0.55479 0.38317 0.0
C2122 C 0.03696 0.56455 0.3569 0.0
C2123 C 0.47587 0.47542 0.23493 0.0
C2124 C 0.46005 0.47282 0.27457 0.0
C2125 C 0.48443 0.46589 0.26234 0.0
C2126 C 0.4778 0.45342 0.33189 0.0
H2127 H 0.48149 0.48462 0.18082 0.0
H2128 H 0.49618 0.46808 0.22704 0.0
S2129 S 0.43791 0.4435 0.46492 0.0
N2130 N 0.43878 0.45775 0.39085 0.0
N2131 N 0.455 0.44055 0.4445 0.0
C2132 C 0.46229 0.45126 0.37395 0.0
C2133 C 0.45346 0.46075 0.345 0.0
C2134 C 0.58183 0.01687 0.38943 0.0
C2135 C 0.57814 0.02961 0.35147 0.0
C2136 C 0.57309 0.99879 0.36231 0.0
C2137 C 0.55989 0.99223 0.29667 0.0
H2138 H 0.59164 0.02083 0.44102 0.0
H2139 H 0.57665 0.98979 0.39375 0.0
S2140 S 0.54524 0.01949 0.17258 0.0
N2141 N 0.56044 0.0339 0.2406 0.0
N2142 N 0.54367 1.00002 0.1934 0.0
C2143 C 0.55578 1.0046 0.25882 0.0
C2144 C 0.56492 0.02314 0.28521 0.0
C2145 C 0.46968 1.00858 0.72548 0.0
C2146 C 0.4717 0.99646 0.77887 0.0
C2147 C 0.47914 0.02702 0.74194 0.0
C2148 C 0.49116 0.03425 0.8123 0.0
H2149 H 0.46047 1.00375 0.67098 0.0
H2150 H 0.47684 0.03571 0.69973 0.0
S2151 S 0.50159 1.00859 0.97192 0.0
N2152 N 0.48685 0.99323 0.90552 0.0
N2153 N 0.50484 0.02794 0.93503 0.0
C2154 C 0.4938 0.02244 0.86471 0.0
C2155 C 0.48404 1.00357 0.84838 0.0
C2156 C 1.01105 0.46707 0.71086 0.0
C2157 C 1.00293 0.46933 0.78581 0.0
C2158 C 0.0297 0.47599 0.7012 0.0
C2159 C 0.04114 0.48773 0.76565 0.0
H2160 H 1.00292 0.45797 0.65976 0.0
H2161 H 0.03522 0.47342 0.64326 0.0
S2162 S 0.02684 0.49873 0.97372 0.0
N2163 N 1.00794 0.48455 0.92502 0.0
N2164 N 0.04293 0.50142 0.90663 0.0
C2165 C 0.03323 0.49067 0.83949 0.0
C2166 C 1.01419 0.48149 0.84954 0.0
C2167 C 0.58479 0.5675 0.83415 0.0
C2168 C 0.57591 0.54906 0.85272 0.0
C2169 C 0.57557 0.57668 0.81791 0.0
C2170 C 0.55676 0.56793 0.81372 0.0
H2171 H 0.59918 0.57522 0.83064 0.0
H2172 H 0.58359 0.59095 0.80889 0.0
S2173 S 0.52651 0.51951 0.85735 0.0
N2174 N 0.5467 0.52255 0.87279 0.0
N2175 N 0.52948 0.53914 0.82793 0.0
C2176 C 0.54755 0.54936 0.83076 0.0
C2177 C 0.55702 0.54013 0.85287 0.0
loop_
_geom_bond_atom_site_label_1
_geom_bond_atom_site_label_2
_geom_bond_distance
_geom_bond_site_symmetry_2
_ccdc_geom_bond_type
C0 C1 1.351 . S
C0 N3 1.368 . S
C0 H5 0.931 . S
C1 C0 1.351 . S
C1 N2 1.373 . S
C1 H29 0.930 . S
N2 C1 1.373 . S
N2 C4 1.340 . S
N3 C0 1.368 . S
N3 C4 1.321 . S
N3 Co6 2.135 . S
C4 N2 1.340 . S
C4 N3 1.321 . S
C4 H28 0.930 . S
H5 C0 0.931 . S
Co6 N3 2.135 . S
Co6 N9 2.121 1_554 S
Co6 O14 2.055 . S
Co6 O17 2.039 1_554 S
Co6 N20 2.140 . S
C7 O8 1.227 . S
C7 O17 1.265 . S
O8 C7 1.227 . S
N9 Co6 2.121 1_556 S
N9 C11 1.375 . S
N9 C12 1.313 . S
C10 C11 1.338 . S
C10 N13 1.377 . S
C10 H30 0.930 . S
C11 N9 1.375 . S
C11 C10 1.338 . S
C11 H15 0.931 . S
C12 N9 1.313 . S
C12 N13 1.344 . S
C12 H16 0.930 . S
N13 C10 1.377 . S
N13 C12 1.344 . S
O14 Co6 2.055 . S
O14 C18 1.253 . S
H15 C11 0.931 . S
H16 C12 0.930 . S
O17 Co6 2.039 1_556 S
O17 C7 1.265 . S
C18 O14 1.253 . S
C18 O19 1.227 . S
O19 C18 1.227 . S
N20 Co6 2.140 . S
N20 C23 1.346 . S
N20 C24 1.345 1_554 S
C21 C22 1.387 1_556 S
C21 C25 1.391 . S
C22 C21 1.387 1_554 S
C22 C23 1.369 . S
C22 H31 0.929 . S
C23 N20 1.346 . S
C23 C22 1.369 . S
C23 H26 0.928 . S
C24 N20 1.345 1_556 S
C24 C25 1.371 . S
C24 H27 0.931 . S
C25 C21 1.391 . S
C25 C24 1.371 . S
C25 H32 0.930 . S
H26 C23 0.928 . S
H27 C24 0.931 . S
H28 C4 0.930 . S
H29 C1 0.930 . S
H30 C10 0.930 . S
H31 C22 0.929 . S
H32 C25 0.930 . S
C33 C34 1.351 . S
C33 N36 1.368 . S
C33 H38 0.931 . S
C34 C33 1.351 . S
C34 N35 1.373 . S
C34 H62 0.930 . S
N35 C34 1.373 . S
N35 C37 1.340 . S
N36 C33 1.368 . S
N36 C37 1.321 . S
N36 Co39 2.135 . S
C37 N35 1.340 . S
C37 N36 1.321 . S
C37 H61 0.930 . S
H38 C33 0.931 . S
Co39 N36 2.135 . S
Co39 N42 2.121 1_554 S
Co39 O47 2.055 . S
Co39 O50 2.039 1_554 S
Co39 N53 2.140 . S
C40 O41 1.227 . S
C40 O50 1.265 . S
O41 C40 1.227 . S
N42 Co39 2.121 1_556 S
N42 C44 1.375 . S
N42 C45 1.313 . S
C43 C44 1.338 . S
C43 N46 1.377 . S
C43 H63 0.930 . S
C44 N42 1.375 . S
C44 C43 1.338 . S
C44 H48 0.931 . S
C45 N42 1.313 . S
C45 N46 1.344 . S
C45 H49 0.930 . S
N46 C43 1.377 . S
N46 C45 1.344 . S
O47 Co39 2.055 . S
O47 C51 1.253 . S
H48 C44 0.931 . S
H49 C45 0.930 . S
O50 Co39 2.039 1_556 S
O50 C40 1.265 . S
C51 O47 1.253 . S
C51 O52 1.227 . S
O52 C51 1.227 . S
N53 Co39 2.140 . S
N53 C56 1.346 . S
N53 C57 1.345 1_554 S
C54 C55 1.387 1_556 S
C54 C58 1.391 . S
C55 C54 1.387 1_554 S
C55 C56 1.369 . S
C55 H64 0.929 . S
C56 N53 1.346 . S
C56 C55 1.369 . S
C56 H59 0.928 . S
C57 N53 1.345 1_556 S
C57 C58 1.371 . S
C57 H60 0.931 . S
C58 C54 1.391 . S
C58 C57 1.371 . S
C58 H65 0.930 . S
H59 C56 0.928 . S
H60 C57 0.931 . S
H61 C37 0.930 . S
H62 C34 0.930 . S
H63 C43 0.930 . S
H64 C55 0.929 . S
H65 C58 0.930 . S
C66 C67 1.351 . S
C66 N69 1.368 . S
C66 H71 0.931 . S
C67 C66 1.351 . S
C67 N68 1.373 . S
C67 H95 0.930 . S
N68 C67 1.373 . S
N68 C70 1.340 . S
N69 C66 1.368 . S
N69 C70 1.321 . S
N69 Co72 2.135 . S
C70 N68 1.340 . S
C70 N69 1.321 . S
C70 H94 0.930 . S
H71 C66 0.931 . S
Co72 N69 2.135 . S
Co72 N75 2.121 1_554 S
Co72 O80 2.055 . S
Co72 O83 2.039 1_554 S
Co72 N86 2.140 . S
C73 O74 1.227 . S
C73 O83 1.265 . S
O74 C73 1.227 . S
N75 Co72 2.121 1_556 S
N75 C77 1.375 . S
N75 C78 1.313 . S
C76 C77 1.338 . S
C76 N79 1.377 . S
C76 H96 0.930 . S
C77 N75 1.375 . S
C77 C76 1.338 . S
C77 H81 0.931 . S
C78 N75 1.313 . S
C78 N79 1.344 . S
C78 H82 0.930 . S
N79 C76 1.377 . S
N79 C78 1.344 . S
O80 Co72 2.055 . S
O80 C84 1.253 . S
H81 C77 0.931 . S
H82 C78 0.930 . S
O83 Co72 2.039 1_556 S
O83 C73 1.265 . S
C84 O80 1.253 . S
C84 O85 1.227 . S
O85 C84 1.227 . S
N86 Co72 2.140 . S
N86 C89 1.346 . S
N86 C90 1.345 1_554 S
C87 C88 1.387 1_556 S
C87 C91 1.391 . S
C88 C87 1.387 1_554 S
C88 C89 1.369 . S
C88 H97 0.929 . S
C89 N86 1.346 . S
C89 C88 1.369 . S
C89 H92 0.928 . S
C90 N86 1.345 1_556 S
C90 C91 1.371 . S
C90 H93 0.931 . S
C91 C87 1.391 . S
C91 C90 1.371 . S
C91 H98 0.930 . S
H92 C89 0.928 . S
H93 C90 0.931 . S
H94 C70 0.930 . S
H95 C67 0.930 . S
H96 C76 0.930 . S
H97 C88 0.929 . S
H98 C91 0.930 . S
C99 C100 1.351 . S
C99 N102 1.368 . S
C99 H104 0.931 . S
C100 C99 1.351 . S
C100 N101 1.373 . S
C100 H128 0.930 . S
N101 C100 1.373 . S
N101 C103 1.340 . S
N102 C99 1.368 . S
N102 C103 1.321 . S
N102 Co105 2.135 . S
C103 N101 1.340 . S
C103 N102 1.321 . S
C103 H127 0.930 . S
H104 C99 0.931 . S
Co105 N102 2.135 . S
Co105 N108 2.121 . S
Co105 O113 2.055 . S
Co105 O116 2.039 . S
Co105 N119 2.140 . S
C106 O107 1.227 . S
C106 O116 1.265 . S
O107 C106 1.227 . S
N108 Co105 2.121 . S
N108 C110 1.375 . S
N108 C111 1.313 . S
C109 C110 1.338 . S
C109 N112 1.377 . S
C109 H129 0.930 . S
C110 N108 1.375 . S
C110 C109 1.338 . S
C110 H114 0.931 . S
C111 N108 1.313 . S
C111 N112 1.344 . S
C111 H115 0.930 . S
N112 C109 1.377 . S
N112 C111 1.344 . S
O113 Co105 2.055 . S
O113 C117 1.253 . S
H114 C110 0.931 . S
H115 C111 0.930 . S
O116 Co105 2.039 . S
O116 C106 1.265 . S
C117 O113 1.253 . S
C117 O118 1.227 . S
O118 C117 1.227 . S
N119 Co105 2.140 . S
N119 C122 1.346 . S
N119 C123 1.345 . S
C120 C121 1.387 . S
C120 C124 1.391 . S
C121 C120 1.387 . S
C121 C122 1.369 . S
C121 H130 0.929 . S
C122 N119 1.346 . S
C122 C121 1.369 . S
C122 H125 0.928 . S
C123 N119 1.345 . S
C123 C124 1.371 . S
C123 H126 0.931 . S
C124 C120 1.391 . S
C124 C123 1.371 . S
C124 H131 0.930 . S
H125 C122 0.928 . S
H126 C123 0.931 . S
H127 C103 0.930 . S
H128 C100 0.930 . S
H129 C109 0.930 . S
H130 C121 0.929 . S
H131 C124 0.930 . S
C132 C133 1.351 . S
C132 N135 1.368 . S
C132 H137 0.931 . S
C133 C132 1.351 . S
C133 N134 1.373 . S
C133 H161 0.930 . S
N134 C133 1.373 . S
N134 C136 1.340 . S
N135 C132 1.368 . S
N135 C136 1.321 . S
N135 Co138 2.135 . S
C136 N134 1.340 . S
C136 N135 1.321 . S
C136 H160 0.930 . S
H137 C132 0.931 . S
Co138 N135 2.135 . S
Co138 N141 2.121 . S
Co138 O146 2.055 . S
Co138 O149 2.039 . S
Co138 N152 2.140 . S
C139 O140 1.227 . S
C139 O149 1.265 . S
O140 C139 1.227 . S
N141 Co138 2.121 . S
N141 C143 1.375 . S
N141 C144 1.313 . S
C142 C143 1.338 . S
C142 N145 1.377 . S
C142 H162 0.930 . S
C143 N141 1.375 . S
C143 C142 1.338 . S
C143 H147 0.931 . S
C144 N141 1.313 . S
C144 N145 1.344 . S
C144 H148 0.930 . S
N145 C142 1.377 . S
N145 C144 1.344 . S
O146 Co138 2.055 . S
O146 C150 1.253 . S
H147 C143 0.931 . S
H148 C144 0.930 . S
O149 Co138 2.039 . S
O149 C139 1.265 . S
C150 O146 1.253 . S
C150 O151 1.227 . S
O151 C150 1.227 . S
N152 Co138 2.140 . S
N152 C155 1.346 . S
N152 C156 1.345 . S
C153 C154 1.387 . S
C153 C157 1.391 . S
C154 C153 1.387 . S
C154 C155 1.369 . S
C154 H163 0.929 . S
C155 N152 1.346 . S
C155 C154 1.369 . S
C155 H158 0.928 . S
C156 N152 1.345 . S
C156 C157 1.371 . S
C156 H159 0.931 . S
C157 C153 1.391 . S
C157 C156 1.371 . S
C157 H164 0.930 . S
H158 C155 0.928 . S
H159 C156 0.931 . S
H160 C136 0.930 . S
H161 C133 0.930 . S
H162 C142 0.930 . S
H163 C154 0.929 . S
H164 C157 0.930 . S
C165 C166 1.351 . S
C165 N168 1.368 . S
C165 H170 0.931 . S
C166 C165 1.351 . S
C166 N167 1.373 . S
C166 H194 0.930 . S
N167 C166 1.373 . S
N167 C169 1.340 . S
N168 C165 1.368 . S
N168 C169 1.321 . S
N168 Co171 2.135 . S
C169 N167 1.340 . S
C169 N168 1.321 . S
C169 H193 0.930 . S
H170 C165 0.931 . S
Co171 N168 2.135 . S
Co171 N174 2.121 . S
Co171 O179 2.055 . S
Co171 O182 2.039 . S
Co171 N185 2.140 . S
C172 O173 1.227 . S
C172 O182 1.265 . S
O173 C172 1.227 . S
N174 Co171 2.121 . S
N174 C176 1.375 . S
N174 C177 1.313 . S
C175 C176 1.338 . S
C175 N178 1.377 . S
C175 H195 0.930 . S
C176 N174 1.375 . S
C176 C175 1.338 . S
C176 H180 0.931 . S
C177 N174 1.313 . S
C177 N178 1.344 . S
C177 H181 0.930 . S
N178 C175 1.377 . S
N178 C177 1.344 . S
O179 Co171 2.055 . S
O179 C183 1.253 . S
H180 C176 0.931 . S
H181 C177 0.930 . S
O182 Co171 2.039 . S
O182 C172 1.265 . S
C183 O179 1.253 . S
C183 O184 1.227 . S
O184 C183 1.227 . S
N185 Co171 2.140 . S
N185 C188 1.346 . S
N185 C189 1.345 . S
C186 C187 1.387 . S
C186 C190 1.391 . S
C187 C186 1.387 . S
C187 C188 1.369 . S
C187 H196 0.929 . S
C188 N185 1.346 . S
C188 C187 1.369 . S
C188 H191 0.928 . S
C189 N185 1.345 . S
C189 C190 1.371 . S
C189 H192 0.931 . S
C190 C186 1.391 . S
C190 C189 1.371 . S
C190 H197 0.930 . S
H191 C188 0.928 . S
H192 C189 0.931 . S
H193 C169 0.930 . S
H194 C166 0.930 . S
H195 C175 0.930 . S
H196 C187 0.929 . S
H197 C190 0.930 . S
C198 C199 1.351 . S
C198 N201 1.368 . S
C198 H203 0.931 . S
C199 C198 1.351 . S
C199 N200 1.373 . S
C199 H227 0.930 . S
N200 C199 1.373 . S
N200 C202 1.340 . S
N201 C198 1.368 . S
N201 C202 1.321 . S
N201 Co204 2.135 . S
C202 N200 1.340 . S
C202 N201 1.321 . S
C202 H226 0.930 . S
H203 C198 0.931 . S
Co204 N201 2.135 . S
Co204 N207 2.121 1_554 S
Co204 O212 2.055 . S
Co204 O215 2.039 1_554 S
Co204 N218 2.140 . S
C205 O206 1.227 . S
C205 O215 1.265 . S
O206 C205 1.227 . S
N207 Co204 2.121 1_556 S
N207 C209 1.375 . S
N207 C210 1.313 . S
C208 C209 1.338 . S
C208 N211 1.377 . S
C208 H228 0.930 . S
C209 N207 1.375 . S
C209 C208 1.338 . S
C209 H213 0.931 . S
C210 N207 1.313 . S
C210 N211 1.344 . S
C210 H214 0.930 . S
N211 C208 1.377 . S
N211 C210 1.344 . S
O212 Co204 2.055 . S
O212 C216 1.253 . S
H213 C209 0.931 . S
H214 C210 0.930 . S
O215 Co204 2.039 1_556 S
O215 C205 1.265 . S
C216 O212 1.253 . S
C216 O217 1.227 . S
O217 C216 1.227 . S
N218 Co204 2.140 . S
N218 C221 1.346 . S
N218 C222 1.345 . S
C219 C220 1.387 . S
C219 C223 1.391 . S
C220 C219 1.387 . S
C220 C221 1.369 . S
C220 H229 0.929 . S
C221 N218 1.346 . S
C221 C220 1.369 . S
C221 H224 0.928 . S
C222 N218 1.345 . S
C222 C223 1.371 . S
C222 H225 0.931 . S
C223 C219 1.391 . S
C223 C222 1.371 . S
C223 H230 0.930 . S
H224 C221 0.928 . S
H225 C222 0.931 . S
H226 C202 0.930 . S
H227 C199 0.930 . S
H228 C208 0.930 . S
H229 C220 0.929 . S
H230 C223 0.930 . S
C231 C232 1.351 . S
C231 N234 1.368 . S
C231 H236 0.931 . S
C232 C231 1.351 . S
C232 N233 1.373 . S
C232 H260 0.930 . S
N233 C232 1.373 . S
N233 C235 1.340 . S
N234 C231 1.368 . S
N234 C235 1.321 . S
N234 Co237 2.135 . S
C235 N233 1.340 . S
C235 N234 1.321 . S
C235 H259 0.930 . S
H236 C231 0.931 . S
Co237 N234 2.135 . S
Co237 N240 2.121 1_554 S
Co237 O245 2.055 . S
Co237 O248 2.039 1_554 S
Co237 N251 2.140 . S
C238 O239 1.227 . S
C238 O248 1.265 . S
O239 C238 1.227 . S
N240 Co237 2.121 1_556 S
N240 C242 1.375 . S
N240 C243 1.313 . S
C241 C242 1.338 . S
C241 N244 1.377 . S
C241 H261 0.930 . S
C242 N240 1.375 . S
C242 C241 1.338 . S
C242 H246 0.931 . S
C243 N240 1.313 . S
C243 N244 1.344 . S
C243 H247 0.930 . S
N244 C241 1.377 . S
N244 C243 1.344 . S
O245 Co237 2.055 . S
O245 C249 1.253 . S
H246 C242 0.931 . S
H247 C243 0.930 . S
O248 Co237 2.039 1_556 S
O248 C238 1.265 . S
C249 O245 1.253 . S
C249 O250 1.227 . S
O250 C249 1.227 . S
N251 Co237 2.140 . S
N251 C254 1.346 . S
N251 C255 1.345 . S
C252 C253 1.387 . S
C252 C256 1.391 . S
C253 C252 1.387 . S
C253 C254 1.369 . S
C253 H262 0.929 . S
C254 N251 1.346 . S
C254 C253 1.369 . S
C254 H257 0.928 . S
C255 N251 1.345 . S
C255 C256 1.371 . S
C255 H258 0.931 . S
C256 C252 1.391 . S
C256 C255 1.371 . S
C256 H263 0.930 . S
H257 C254 0.928 . S
H258 C255 0.931 . S
H259 C235 0.930 . S
H260 C232 0.930 . S
H261 C241 0.930 . S
H262 C253 0.929 . S
H263 C256 0.930 . S
C264 C265 1.351 . S
C264 N267 1.368 . S
C264 H269 0.931 . S
C265 C264 1.351 . S
C265 N266 1.373 . S
C265 H293 0.930 . S
N266 C265 1.373 . S
N266 C268 1.340 . S
N267 C264 1.368 . S
N267 C268 1.321 . S
N267 Co270 2.135 . S
C268 N266 1.340 . S
C268 N267 1.321 . S
C268 H292 0.930 . S
H269 C264 0.931 . S
Co270 N267 2.135 . S
Co270 N273 2.121 1_554 S
Co270 O278 2.055 . S
Co270 O281 2.039 1_554 S
Co270 N284 2.140 . S
C271 O272 1.227 . S
C271 O281 1.265 . S
O272 C271 1.227 . S
N273 Co270 2.121 1_556 S
N273 C275 1.375 . S
N273 C276 1.313 . S
C274 C275 1.338 . S
C274 N277 1.377 . S
C274 H294 0.930 . S
C275 N273 1.375 . S
C275 C274 1.338 . S
C275 H279 0.931 . S
C276 N273 1.313 . S
C276 N277 1.344 . S
C276 H280 0.930 . S
N277 C274 1.377 . S
N277 C276 1.344 . S
O278 Co270 2.055 . S
O278 C282 1.253 . S
H279 C275 0.931 . S
H280 C276 0.930 . S
O281 Co270 2.039 1_556 S
O281 C271 1.265 . S
C282 O278 1.253 . S
C282 O283 1.227 . S
O283 C282 1.227 . S
N284 Co270 2.140 . S
N284 C287 1.346 . S
N284 C288 1.345 . S
C285 C286 1.387 . S
C285 C289 1.391 . S
C286 C285 1.387 . S
C286 C287 1.369 . S
C286 H295 0.929 . S
C287 N284 1.346 . S
C287 C286 1.369 . S
C287 H290 0.928 . S
C288 N284 1.345 . S
C288 C289 1.371 . S
C288 H291 0.931 . S
C289 C285 1.391 . S
C289 C288 1.371 . S
C289 H296 0.930 . S
H290 C287 0.928 . S
H291 C288 0.931 . S
H292 C268 0.930 . S
H293 C265 0.930 . S
H294 C274 0.930 . S
H295 C286 0.929 . S
H296 C289 0.930 . S
C297 C298 1.351 . S
C297 N300 1.368 . S
C297 H302 0.931 . S
C298 C297 1.351 . S
C298 N299 1.373 . S
C298 H326 0.930 . S
N299 C298 1.373 . S
N299 C301 1.340 . S
N300 C297 1.368 . S
N300 C301 1.321 . S
N300 Co303 2.135 . S
C301 N299 1.340 . S
C301 N300 1.321 . S
C301 H325 0.930 . S
H302 C297 0.931 . S
Co303 N300 2.135 . S
Co303 N306 2.121 . S
Co303 O311 2.055 . S
Co303 O314 2.039 . S
Co303 N317 2.140 . S
C304 O305 1.227 . S
C304 O314 1.265 . S
O305 C304 1.227 . S
N306 Co303 2.121 . S
N306 C308 1.375 . S
N306 C309 1.313 . S
C307 C308 1.338 . S
C307 N310 1.377 . S
C307 H327 0.930 . S
C308 N306 1.375 . S
C308 C307 1.338 . S
C308 H312 0.931 . S
C309 N306 1.313 . S
C309 N310 1.344 . S
C309 H313 0.930 . S
N310 C307 1.377 . S
N310 C309 1.344 . S
O311 Co303 2.055 . S
O311 C315 1.253 . S
H312 C308 0.931 . S
H313 C309 0.930 . S
O314 Co303 2.039 . S
O314 C304 1.265 . S
C315 O311 1.253 . S
C315 O316 1.227 . S
O316 C315 1.227 . S
N317 Co303 2.140 . S
N317 C320 1.346 . S
N317 C321 1.345 . S
C318 C319 1.387 . S
C318 C322 1.391 . S
C319 C318 1.387 . S
C319 C320 1.369 . S
C319 H328 0.929 . S
C320 N317 1.346 . S
C320 C319 1.369 . S
C320 H323 0.928 . S
C321 N317 1.345 . S
C321 C322 1.371 . S
C321 H324 0.931 . S
C322 C318 1.391 . S
C322 C321 1.371 . S
C322 H329 0.930 . S
H323 C320 0.928 . S
H324 C321 0.931 . S
H325 C301 0.930 . S
H326 C298 0.930 . S
H327 C307 0.930 . S
H328 C319 0.929 . S
H329 C322 0.930 . S
C330 C331 1.351 . S
C330 N333 1.368 . S
C330 H335 0.931 . S
C331 C330 1.351 . S
C331 N332 1.373 . S
C331 H359 0.930 . S
N332 C331 1.373 . S
N332 C334 1.340 . S
N333 C330 1.368 . S
N333 C334 1.321 . S
N333 Co336 2.135 . S
C334 N332 1.340 . S
C334 N333 1.321 . S
C334 H358 0.930 . S
H335 C330 0.931 . S
Co336 N333 2.135 . S
Co336 N339 2.121 . S
Co336 O344 2.055 . S
Co336 O347 2.039 . S
Co336 N350 2.140 . S
C337 O338 1.227 . S
C337 O347 1.265 . S
O338 C337 1.227 . S
N339 Co336 2.121 . S
N339 C341 1.375 . S
N339 C342 1.313 . S
C340 C341 1.338 . S
C340 N343 1.377 . S
C340 H360 0.930 . S
C341 N339 1.375 . S
C341 C340 1.338 . S
C341 H345 0.931 . S
C342 N339 1.313 . S
C342 N343 1.344 . S
C342 H346 0.930 . S
N343 C340 1.377 . S
N343 C342 1.344 . S
O344 Co336 2.055 . S
O344 C348 1.253 . S
H345 C341 0.931 . S
H346 C342 0.930 . S
O347 Co336 2.039 . S
O347 C337 1.265 . S
C348 O344 1.253 . S
C348 O349 1.227 . S
O349 C348 1.227 . S
N350 Co336 2.140 . S
N350 C353 1.346 . S
N350 C354 1.345 . S
C351 C352 1.387 . S
C351 C355 1.391 . S
C352 C351 1.387 . S
C352 C353 1.369 . S
C352 H361 0.929 . S
C353 N350 1.346 . S
C353 C352 1.369 . S
C353 H356 0.928 . S
C354 N350 1.345 . S
C354 C355 1.371 . S
C354 H357 0.931 . S
C355 C351 1.391 . S
C355 C354 1.371 . S
C355 H362 0.930 . S
H356 C353 0.928 . S
H357 C354 0.931 . S
H358 C334 0.930 . S
H359 C331 0.930 . S
H360 C340 0.930 . S
H361 C352 0.929 . S
H362 C355 0.930 . S
C363 C364 1.351 . S
C363 N366 1.368 . S
C363 H368 0.931 . S
C364 C363 1.351 . S
C364 N365 1.373 . S
C364 H392 0.930 . S
N365 C364 1.373 . S
N365 C367 1.340 . S
N366 C363 1.368 . S
N366 C367 1.321 . S
N366 Co369 2.135 . S
C367 N365 1.340 . S
C367 N366 1.321 . S
C367 H391 0.930 . S
H368 C363 0.931 . S
Co369 N366 2.135 . S
Co369 N372 2.121 . S
Co369 O377 2.055 . S
Co369 O380 2.039 . S
Co369 N383 2.140 . S
C370 O371 1.227 . S
C370 O380 1.265 . S
O371 C370 1.227 . S
N372 Co369 2.121 . S
N372 C374 1.375 . S
N372 C375 1.313 . S
C373 C374 1.338 . S
C373 N376 1.377 . S
C373 H393 0.930 . S
C374 N372 1.375 . S
C374 C373 1.338 . S
C374 H378 0.931 . S
C375 N372 1.313 . S
C375 N376 1.344 . S
C375 H379 0.930 . S
N376 C373 1.377 . S
N376 C375 1.344 . S
O377 Co369 2.055 . S
O377 C381 1.253 . S
H378 C374 0.931 . S
H379 C375 0.930 . S
O380 Co369 2.039 . S
O380 C370 1.265 . S
C381 O377 1.253 . S
C381 O382 1.227 . S
O382 C381 1.227 . S
N383 Co369 2.140 . S
N383 C386 1.346 . S
N383 C387 1.345 . S
C384 C385 1.387 . S
C384 C388 1.391 . S
C385 C384 1.387 . S
C385 C386 1.369 . S
C385 H394 0.929 . S
C386 N383 1.346 . S
C386 C385 1.369 . S
C386 H389 0.928 . S
C387 N383 1.345 . S
C387 C388 1.371 . S
C387 H390 0.931 . S
C388 C384 1.391 . S
C388 C387 1.371 . S
C388 H395 0.930 . S
H389 C386 0.928 . S
H390 C387 0.931 . S
H391 C367 0.930 . S
H392 C364 0.930 . S
H393 C373 0.930 . S
H394 C385 0.929 . S
H395 C388 0.930 . S
C396 C397 1.351 . S
C396 N399 1.368 . S
C396 H401 0.931 . S
C397 C396 1.351 . S
C397 N398 1.373 . S
C397 H425 0.930 . S
N398 C397 1.373 . S
N398 C400 1.340 . S
N399 C396 1.368 . S
N399 C400 1.321 . S
N399 Co402 2.135 . S
C400 N398 1.340 . S
C400 N399 1.321 . S
C400 H424 0.930 . S
H401 C396 0.931 . S
Co402 N399 2.135 . S
Co402 N405 2.121 . S
Co402 O410 2.055 . S
Co402 O413 2.039 . S
Co402 N416 2.140 . S
C403 O404 1.227 . S
C403 O413 1.265 . S
O404 C403 1.227 . S
N405 Co402 2.121 . S
N405 C407 1.375 . S
N405 C408 1.313 . S
C406 C407 1.338 . S
C406 N409 1.377 . S
C406 H426 0.930 . S
C407 N405 1.375 . S
C407 C406 1.338 . S
C407 H411 0.931 . S
C408 N405 1.313 . S
C408 N409 1.344 . S
C408 H412 0.930 . S
N409 C406 1.377 . S
N409 C408 1.344 . S
O410 Co402 2.055 . S
O410 C414 1.253 . S
H411 C407 0.931 . S
H412 C408 0.930 . S
O413 Co402 2.039 . S
O413 C403 1.265 . S
C414 O410 1.253 . S
C414 O415 1.227 . S
O415 C414 1.227 . S
N416 Co402 2.140 . S
N416 C419 1.346 . S
N416 C420 1.345 . S
C417 C418 1.387 . S
C417 C421 1.391 . S
C418 C417 1.387 . S
C418 C419 1.369 . S
C418 H427 0.929 . S
C419 N416 1.346 . S
C419 C418 1.369 . S
C419 H422 0.928 . S
C420 N416 1.345 . S
C420 C421 1.371 . S
C420 H423 0.931 . S
C421 C417 1.391 . S
C421 C420 1.371 . S
C421 H428 0.930 . S
H422 C419 0.928 . S
H423 C420 0.931 . S
H424 C400 0.930 . S
H425 C397 0.930 . S
H426 C406 0.930 . S
H427 C418 0.929 . S
H428 C421 0.930 . S
C429 C430 1.351 . S
C429 N432 1.368 . S
C429 H434 0.931 . S
C430 C429 1.351 . S
C430 N431 1.373 . S
C430 H458 0.930 . S
N431 C430 1.373 . S
N431 C433 1.340 . S
N432 C429 1.368 . S
N432 C433 1.321 . S
N432 Co435 2.135 . S
C433 N431 1.340 . S
C433 N432 1.321 . S
C433 H457 0.930 . S
H434 C429 0.931 . S
Co435 N432 2.135 . S
Co435 N438 2.121 . S
Co435 O443 2.055 . S
Co435 O446 2.039 . S
Co435 N449 2.140 . S
C436 O437 1.227 . S
C436 O446 1.265 . S
O437 C436 1.227 . S
N438 Co435 2.121 . S
N438 C440 1.375 . S
N438 C441 1.313 . S
C439 C440 1.338 . S
C439 N442 1.377 . S
C439 H459 0.930 . S
C440 N438 1.375 . S
C440 C439 1.338 . S
C440 H444 0.931 . S
C441 N438 1.313 . S
C441 N442 1.344 . S
C441 H445 0.930 . S
N442 C439 1.377 . S
N442 C441 1.344 . S
O443 Co435 2.055 . S
O443 C447 1.253 . S
H444 C440 0.931 . S
H445 C441 0.930 . S
O446 Co435 2.039 . S
O446 C436 1.265 . S
C447 O443 1.253 . S
C447 O448 1.227 . S
O448 C447 1.227 . S
N449 Co435 2.140 . S
N449 C452 1.346 . S
N449 C453 1.345 . S
C450 C451 1.387 . S
C450 C454 1.391 . S
C451 C450 1.387 . S
C451 C452 1.369 . S
C451 H460 0.929 . S
C452 N449 1.346 . S
C452 C451 1.369 . S
C452 H455 0.928 . S
C453 N449 1.345 . S
C453 C454 1.371 . S
C453 H456 0.931 . S
C454 C450 1.391 . S
C454 C453 1.371 . S
C454 H461 0.930 . S
H455 C452 0.928 . S
H456 C453 0.931 . S
H457 C433 0.930 . S
H458 C430 0.930 . S
H459 C439 0.930 . S
H460 C451 0.929 . S
H461 C454 0.930 . S
C462 C463 1.351 . S
C462 N465 1.368 . S
C462 H467 0.931 . S
C463 C462 1.351 . S
C463 N464 1.373 . S
C463 H491 0.930 . S
N464 C463 1.373 . S
N464 C466 1.340 . S
N465 C462 1.368 . S
N465 C466 1.321 . S
N465 Co468 2.135 . S
C466 N464 1.340 . S
C466 N465 1.321 . S
C466 H490 0.930 . S
H467 C462 0.931 . S
Co468 N465 2.135 . S
Co468 N471 2.121 . S
Co468 O476 2.055 . S
Co468 O479 2.039 . S
Co468 N482 2.140 . S
C469 O470 1.227 . S
C469 O479 1.265 . S
O470 C469 1.227 . S
N471 Co468 2.121 . S
N471 C473 1.375 . S
N471 C474 1.313 . S
C472 C473 1.338 . S
C472 N475 1.377 . S
C472 H492 0.930 . S
C473 N471 1.375 . S
C473 C472 1.338 . S
C473 H477 0.931 . S
C474 N471 1.313 . S
C474 N475 1.344 . S
C474 H478 0.930 . S
N475 C472 1.377 . S
N475 C474 1.344 . S
O476 Co468 2.055 . S
O476 C480 1.253 . S
H477 C473 0.931 . S
H478 C474 0.930 . S
O479 Co468 2.039 . S
O479 C469 1.265 . S
C480 O476 1.253 . S
C480 O481 1.227 . S
O481 C480 1.227 . S
N482 Co468 2.140 . S
N482 C485 1.346 . S
N482 C486 1.345 . S
C483 C484 1.387 . S
C483 C487 1.391 . S
C484 C483 1.387 . S
C484 C485 1.369 . S
C484 H493 0.929 . S
C485 N482 1.346 . S
C485 C484 1.369 . S
C485 H488 0.928 . S
C486 N482 1.345 . S
C486 C487 1.371 . S
C486 H489 0.931 . S
C487 C483 1.391 . S
C487 C486 1.371 . S
C487 H494 0.930 . S
H488 C485 0.928 . S
H489 C486 0.931 . S
H490 C466 0.930 . S
H491 C463 0.930 . S
H492 C472 0.930 . S
H493 C484 0.929 . S
H494 C487 0.930 . S
C495 C496 1.351 . S
C495 N498 1.368 . S
C495 H500 0.931 . S
C496 C495 1.351 . S
C496 N497 1.373 . S
C496 H524 0.930 . S
N497 C496 1.373 . S
N497 C499 1.340 . S
N498 C495 1.368 . S
N498 C499 1.321 . S
N498 Co501 2.135 . S
C499 N497 1.340 . S
C499 N498 1.321 . S
C499 H523 0.930 . S
H500 C495 0.931 . S
Co501 N498 2.135 . S
Co501 N504 2.121 . S
Co501 O509 2.055 . S
Co501 O512 2.039 . S
Co501 N515 2.140 . S
C502 O503 1.227 . S
C502 O512 1.265 . S
O503 C502 1.227 . S
N504 Co501 2.121 . S
N504 C506 1.375 1_556 S
N504 C507 1.313 . S
C505 C506 1.338 . S
C505 N508 1.377 . S
C505 H525 0.930 . S
C506 N504 1.375 1_554 S
C506 C505 1.338 . S
C506 H510 0.931 . S
C507 N504 1.313 . S
C507 N508 1.344 1_556 S
C507 H511 0.930 . S
N508 C505 1.377 . S
N508 C507 1.344 1_554 S
O509 Co501 2.055 . S
O509 C513 1.253 . S
H510 C506 0.931 . S
H511 C507 0.930 . S
O512 Co501 2.039 . S
O512 C502 1.265 . S
C513 O509 1.253 . S
C513 O514 1.227 . S
O514 C513 1.227 . S
N515 Co501 2.140 . S
N515 C518 1.346 . S
N515 C519 1.345 . S
C516 C517 1.387 . S
C516 C520 1.391 . S
C517 C516 1.387 . S
C517 C518 1.369 . S
C517 H526 0.929 . S
C518 N515 1.346 . S
C518 C517 1.369 . S
C518 H521 0.928 . S
C519 N515 1.345 . S
C519 C520 1.371 . S
C519 H522 0.931 . S
C520 C516 1.391 . S
C520 C519 1.371 . S
C520 H527 0.930 . S
H521 C518 0.928 . S
H522 C519 0.931 . S
H523 C499 0.930 . S
H524 C496 0.930 . S
H525 C505 0.930 . S
H526 C517 0.929 . S
H527 C520 0.930 . S
C528 C529 1.351 . S
C528 N531 1.368 . S
C528 H533 0.931 . S
C529 C528 1.351 . S
C529 N530 1.373 . S
C529 H557 0.930 . S
N530 C529 1.373 . S
N530 C532 1.340 . S
N531 C528 1.368 . S
N531 C532 1.321 . S
N531 Co534 2.135 . S
C532 N530 1.340 . S
C532 N531 1.321 . S
C532 H556 0.930 . S
H533 C528 0.931 . S
Co534 N531 2.135 . S
Co534 N537 2.121 . S
Co534 O542 2.055 . S
Co534 O545 2.039 . S
Co534 N548 2.140 . S
C535 O536 1.227 . S
C535 O545 1.265 . S
O536 C535 1.227 . S
N537 Co534 2.121 . S
N537 C539 1.375 1_556 S
N537 C540 1.313 . S
C538 C539 1.338 . S
C538 N541 1.377 . S
C538 H558 0.930 . S
C539 N537 1.375 1_554 S
C539 C538 1.338 . S
C539 H543 0.931 . S
C540 N537 1.313 . S
C540 N541 1.344 1_556 S
C540 H544 0.930 . S
N541 C538 1.377 . S
N541 C540 1.344 1_554 S
O542 Co534 2.055 . S
O542 C546 1.253 . S
H543 C539 0.931 . S
H544 C540 0.930 . S
O545 Co534 2.039 . S
O545 C535 1.265 . S
C546 O542 1.253 . S
C546 O547 1.227 . S
O547 C546 1.227 . S
N548 Co534 2.140 . S
N548 C551 1.346 . S
N548 C552 1.345 . S
C549 C550 1.387 . S
C549 C553 1.391 . S
C550 C549 1.387 . S
C550 C551 1.369 . S
C550 H559 0.929 . S
C551 N548 1.346 . S
C551 C550 1.369 . S
C551 H554 0.928 . S
C552 N548 1.345 . S
C552 C553 1.371 . S
C552 H555 0.931 . S
C553 C549 1.391 . S
C553 C552 1.371 . S
C553 H560 0.930 . S
H554 C551 0.928 . S
H555 C552 0.931 . S
H556 C532 0.930 . S
H557 C529 0.930 . S
H558 C538 0.930 . S
H559 C550 0.929 . S
H560 C553 0.930 . S
C561 C562 1.351 . S
C561 N564 1.368 . S
C561 H566 0.931 . S
C562 C561 1.351 . S
C562 N563 1.373 . S
C562 H590 0.930 . S
N563 C562 1.373 . S
N563 C565 1.340 . S
N564 C561 1.368 . S
N564 C565 1.321 . S
N564 Co567 2.135 . S
C565 N563 1.340 . S
C565 N564 1.321 . S
C565 H589 0.930 . S
H566 C561 0.931 . S
Co567 N564 2.135 . S
Co567 N570 2.121 . S
Co567 O575 2.055 . S
Co567 O578 2.039 . S
Co567 N581 2.140 . S
C568 O569 1.227 . S
C568 O578 1.265 . S
O569 C568 1.227 . S
N570 Co567 2.121 . S
N570 C572 1.375 1_556 S
N570 C573 1.313 . S
C571 C572 1.338 . S
C571 N574 1.377 . S
C571 H591 0.930 . S
C572 N570 1.375 1_554 S
C572 C571 1.338 . S
C572 H576 0.931 . S
C573 N570 1.313 . S
C573 N574 1.344 1_556 S
C573 H577 0.930 . S
N574 C571 1.377 . S
N574 C573 1.344 1_554 S
O575 Co567 2.055 . S
O575 C579 1.253 . S
H576 C572 0.931 . S
H577 C573 0.930 . S
O578 Co567 2.039 . S
O578 C568 1.265 . S
C579 O575 1.253 . S
C579 O580 1.227 . S
O580 C579 1.227 . S
N581 Co567 2.140 . S
N581 C584 1.346 . S
N581 C585 1.345 . S
C582 C583 1.387 . S
C582 C586 1.391 . S
C583 C582 1.387 . S
C583 C584 1.369 . S
C583 H592 0.929 . S
C584 N581 1.346 . S
C584 C583 1.369 . S
C584 H587 0.928 . S
C585 N581 1.345 . S
C585 C586 1.371 . S
C585 H588 0.931 . S
C586 C582 1.391 . S
C586 C585 1.371 . S
C586 H593 0.930 . S
H587 C584 0.928 . S
H588 C585 0.931 . S
H589 C565 0.930 . S
H590 C562 0.930 . S
H591 C571 0.930 . S
H592 C583 0.929 . S
H593 C586 0.930 . S
C594 C595 1.351 . S
C594 N597 1.368 . S
C594 H599 0.931 . S
C595 C594 1.351 . S
C595 N596 1.373 . S
C595 H623 0.930 . S
N596 C595 1.373 . S
N596 C598 1.340 . S
N597 C594 1.368 . S
N597 C598 1.321 . S
N597 Co600 2.135 . S
C598 N596 1.340 . S
C598 N597 1.321 . S
C598 H622 0.930 . S
H599 C594 0.931 . S
Co600 N597 2.135 . S
Co600 N603 2.121 . S
Co600 O608 2.055 . S
Co600 O611 2.039 . S
Co600 N614 2.140 . S
C601 O602 1.227 . S
C601 O611 1.265 . S
O602 C601 1.227 . S
N603 Co600 2.121 . S
N603 C605 1.375 . S
N603 C606 1.313 . S
C604 C605 1.338 . S
C604 N607 1.377 . S
C604 H624 0.930 . S
C605 N603 1.375 . S
C605 C604 1.338 . S
C605 H609 0.931 . S
C606 N603 1.313 . S
C606 N607 1.344 . S
C606 H610 0.930 . S
N607 C604 1.377 . S
N607 C606 1.344 . S
O608 Co600 2.055 . S
O608 C612 1.253 . S
H609 C605 0.931 . S
H610 C606 0.930 . S
O611 Co600 2.039 . S
O611 C601 1.265 . S
C612 O608 1.253 . S
C612 O613 1.227 . S
O613 C612 1.227 . S
N614 Co600 2.140 . S
N614 C617 1.346 . S
N614 C618 1.345 . S
C615 C616 1.387 . S
C615 C619 1.391 . S
C616 C615 1.387 . S
C616 C617 1.369 . S
C616 H625 0.929 . S
C617 N614 1.346 . S
C617 C616 1.369 . S
C617 H620 0.928 . S
C618 N614 1.345 . S
C618 C619 1.371 . S
C618 H621 0.931 . S
C619 C615 1.391 . S
C619 C618 1.371 . S
C619 H626 0.930 . S
H620 C617 0.928 . S
H621 C618 0.931 . S
H622 C598 0.930 . S
H623 C595 0.930 . S
H624 C604 0.930 . S
H625 C616 0.929 . S
H626 C619 0.930 . S
C627 C628 1.351 . S
C627 N630 1.368 . S
C627 H632 0.931 . S
C628 C627 1.351 . S
C628 N629 1.373 . S
C628 H656 0.930 . S
N629 C628 1.373 . S
N629 C631 1.340 . S
N630 C627 1.368 . S
N630 C631 1.321 . S
N630 Co633 2.135 . S
C631 N629 1.340 . S
C631 N630 1.321 . S
C631 H655 0.930 . S
H632 C627 0.931 . S
Co633 N630 2.135 . S
Co633 N636 2.121 . S
Co633 O641 2.055 . S
Co633 O644 2.039 . S
Co633 N647 2.140 . S
C634 O635 1.227 . S
C634 O644 1.265 . S
O635 C634 1.227 . S
N636 Co633 2.121 . S
N636 C638 1.375 . S
N636 C639 1.313 . S
C637 C638 1.338 . S
C637 N640 1.377 . S
C637 H657 0.930 . S
C638 N636 1.375 . S
C638 C637 1.338 . S
C638 H642 0.931 . S
C639 N636 1.313 . S
C639 N640 1.344 . S
C639 H643 0.930 . S
N640 C637 1.377 . S
N640 C639 1.344 . S
O641 Co633 2.055 . S
O641 C645 1.253 . S
H642 C638 0.931 . S
H643 C639 0.930 . S
O644 Co633 2.039 . S
O644 C634 1.265 . S
C645 O641 1.253 . S
C645 O646 1.227 . S
O646 C645 1.227 . S
N647 Co633 2.140 . S
N647 C650 1.346 . S
N647 C651 1.345 . S
C648 C649 1.387 . S
C648 C652 1.391 . S
C649 C648 1.387 . S
C649 C650 1.369 . S
C649 H658 0.929 . S
C650 N647 1.346 . S
C650 C649 1.369 . S
C650 H653 0.928 . S
C651 N647 1.345 . S
C651 C652 1.371 . S
C651 H654 0.931 . S
C652 C648 1.391 . S
C652 C651 1.371 . S
C652 H659 0.930 . S
H653 C650 0.928 . S
H654 C651 0.931 . S
H655 C631 0.930 . S
H656 C628 0.930 . S
H657 C637 0.930 . S
H658 C649 0.929 . S
H659 C652 0.930 . S
C660 C661 1.351 . S
C660 N663 1.368 . S
C660 H665 0.931 . S
C661 C660 1.351 . S
C661 N662 1.373 . S
C661 H689 0.930 . S
N662 C661 1.373 . S
N662 C664 1.340 . S
N663 C660 1.368 . S
N663 C664 1.321 . S
N663 Co666 2.135 . S
C664 N662 1.340 . S
C664 N663 1.321 . S
C664 H688 0.930 . S
H665 C660 0.931 . S
Co666 N663 2.135 . S
Co666 N669 2.121 . S
Co666 O674 2.055 . S
Co666 O677 2.039 . S
Co666 N680 2.140 . S
C667 O668 1.227 . S
C667 O677 1.265 . S
O668 C667 1.227 . S
N669 Co666 2.121 . S
N669 C671 1.375 . S
N669 C672 1.313 . S
C670 C671 1.338 . S
C670 N673 1.377 . S
C670 H690 0.930 . S
C671 N669 1.375 . S
C671 C670 1.338 . S
C671 H675 0.931 . S
C672 N669 1.313 . S
C672 N673 1.344 . S
C672 H676 0.930 . S
N673 C670 1.377 . S
N673 C672 1.344 . S
O674 Co666 2.055 . S
O674 C678 1.253 . S
H675 C671 0.931 . S
H676 C672 0.930 . S
O677 Co666 2.039 . S
O677 C667 1.265 . S
C678 O674 1.253 . S
C678 O679 1.227 . S
O679 C678 1.227 . S
N680 Co666 2.140 . S
N680 C683 1.346 . S
N680 C684 1.345 . S
C681 C682 1.387 . S
C681 C685 1.391 . S
C682 C681 1.387 . S
C682 C683 1.369 . S
C682 H691 0.929 . S
C683 N680 1.346 . S
C683 C682 1.369 . S
C683 H686 0.928 . S
C684 N680 1.345 . S
C684 C685 1.371 . S
C684 H687 0.931 . S
C685 C681 1.391 . S
C685 C684 1.371 . S
C685 H692 0.930 . S
H686 C683 0.928 . S
H687 C684 0.931 . S
H688 C664 0.930 . S
H689 C661 0.930 . S
H690 C670 0.930 . S
H691 C682 0.929 . S
H692 C685 0.930 . S
C693 C694 1.351 . S
C693 N696 1.368 . S
C693 H698 0.931 . S
C694 C693 1.351 . S
C694 N695 1.373 . S
C694 H722 0.930 . S
N695 C694 1.373 . S
N695 C697 1.340 . S
N696 C693 1.368 . S
N696 C697 1.321 . S
N696 Co699 2.135 . S
C697 N695 1.340 . S
C697 N696 1.321 . S
C697 H721 0.930 . S
H698 C693 0.931 . S
Co699 N696 2.135 . S
Co699 N702 2.121 . S
Co699 O707 2.055 . S
Co699 O710 2.039 . S
Co699 N713 2.140 . S
C700 O701 1.227 . S
C700 O710 1.265 . S
O701 C700 1.227 . S
N702 Co699 2.121 . S
N702 C704 1.375 1_556 S
N702 C705 1.313 . S
C703 C704 1.338 . S
C703 N706 1.377 . S
C703 H723 0.930 . S
C704 N702 1.375 1_554 S
C704 C703 1.338 . S
C704 H708 0.931 . S
C705 N702 1.313 . S
C705 N706 1.344 1_556 S
C705 H709 0.930 . S
N706 C703 1.377 . S
N706 C705 1.344 1_554 S
O707 Co699 2.055 . S
O707 C711 1.253 . S
H708 C704 0.931 . S
H709 C705 0.930 . S
O710 Co699 2.039 . S
O710 C700 1.265 . S
C711 O707 1.253 . S
C711 O712 1.227 . S
O712 C711 1.227 . S
N713 Co699 2.140 . S
N713 C716 1.346 . S
N713 C717 1.345 . S
C714 C715 1.387 . S
C714 C718 1.391 . S
C715 C714 1.387 . S
C715 C716 1.369 . S
C715 H724 0.929 . S
C716 N713 1.346 . S
C716 C715 1.369 . S
C716 H719 0.928 . S
C717 N713 1.345 . S
C717 C718 1.371 . S
C717 H720 0.931 . S
C718 C714 1.391 . S
C718 C717 1.371 . S
C718 H725 0.930 . S
H719 C716 0.928 . S
H720 C717 0.931 . S
H721 C697 0.930 . S
H722 C694 0.930 . S
H723 C703 0.930 . S
H724 C715 0.929 . S
H725 C718 0.930 . S
C726 C727 1.351 . S
C726 N729 1.368 . S
C726 H731 0.931 . S
C727 C726 1.351 . S
C727 N728 1.373 . S
C727 H755 0.930 . S
N728 C727 1.373 . S
N728 C730 1.340 . S
N729 C726 1.368 . S
N729 C730 1.321 . S
N729 Co732 2.135 . S
C730 N728 1.340 . S
C730 N729 1.321 . S
C730 H754 0.930 . S
H731 C726 0.931 . S
Co732 N729 2.135 . S
Co732 N735 2.121 . S
Co732 O740 2.055 . S
Co732 O743 2.039 . S
Co732 N746 2.140 . S
C733 O734 1.227 . S
C733 O743 1.265 . S
O734 C733 1.227 . S
N735 Co732 2.121 . S
N735 C737 1.375 1_556 S
N735 C738 1.313 . S
C736 C737 1.338 . S
C736 N739 1.377 . S
C736 H756 0.930 . S
C737 N735 1.375 1_554 S
C737 C736 1.338 . S
C737 H741 0.931 . S
C738 N735 1.313 . S
C738 N739 1.344 1_556 S
C738 H742 0.930 . S
N739 C736 1.377 . S
N739 C738 1.344 1_554 S
O740 Co732 2.055 . S
O740 C744 1.253 . S
H741 C737 0.931 . S
H742 C738 0.930 . S
O743 Co732 2.039 . S
O743 C733 1.265 . S
C744 O740 1.253 . S
C744 O745 1.227 . S
O745 C744 1.227 . S
N746 Co732 2.140 . S
N746 C749 1.346 . S
N746 C750 1.345 . S
C747 C748 1.387 . S
C747 C751 1.391 . S
C748 C747 1.387 . S
C748 C749 1.369 . S
C748 H757 0.929 . S
C749 N746 1.346 . S
C749 C748 1.369 . S
C749 H752 0.928 . S
C750 N746 1.345 . S
C750 C751 1.371 . S
C750 H753 0.931 . S
C751 C747 1.391 . S
C751 C750 1.371 . S
C751 H758 0.930 . S
H752 C749 0.928 . S
H753 C750 0.931 . S
H754 C730 0.930 . S
H755 C727 0.930 . S
H756 C736 0.930 . S
H757 C748 0.929 . S
H758 C751 0.930 . S
C759 C760 1.351 . S
C759 N762 1.368 . S
C759 H764 0.931 . S
C760 C759 1.351 . S
C760 N761 1.373 . S
C760 H788 0.930 . S
N761 C760 1.373 . S
N761 C763 1.340 . S
N762 C759 1.368 . S
N762 C763 1.321 . S
N762 Co765 2.135 . S
C763 N761 1.340 . S
C763 N762 1.321 . S
C763 H787 0.930 . S
H764 C759 0.931 . S
Co765 N762 2.135 . S
Co765 N768 2.121 . S
Co765 O773 2.055 . S
Co765 O776 2.039 . S
Co765 N779 2.140 . S
C766 O767 1.227 . S
C766 O776 1.265 . S
O767 C766 1.227 . S
N768 Co765 2.121 . S
N768 C770 1.375 1_556 S
N768 C771 1.313 . S
C769 C770 1.338 . S
C769 N772 1.377 . S
C769 H789 0.930 . S
C770 N768 1.375 1_554 S
C770 C769 1.338 . S
C770 H774 0.931 . S
C771 N768 1.313 . S
C771 N772 1.344 1_556 S
C771 H775 0.930 . S
N772 C769 1.377 . S
N772 C771 1.344 1_554 S
O773 Co765 2.055 . S
O773 C777 1.253 . S
H774 C770 0.931 . S
H775 C771 0.930 . S
O776 Co765 2.039 . S
O776 C766 1.265 . S
C777 O773 1.253 . S
C777 O778 1.227 . S
O778 C777 1.227 . S
N779 Co765 2.140 . S
N779 C782 1.346 . S
N779 C783 1.345 . S
C780 C781 1.387 . S
C780 C784 1.391 . S
C781 C780 1.387 . S
C781 C782 1.369 . S
C781 H790 0.929 . S
C782 N779 1.346 . S
C782 C781 1.369 . S
C782 H785 0.928 . S
C783 N779 1.345 . S
C783 C784 1.371 . S
C783 H786 0.931 . S
C784 C780 1.391 . S
C784 C783 1.371 . S
C784 H791 0.930 . S
H785 C782 0.928 . S
H786 C783 0.931 . S
H787 C763 0.930 . S
H788 C760 0.930 . S
H789 C769 0.930 . S
H790 C781 0.929 . S
H791 C784 0.930 . S
C792 C793 1.351 . S
C792 N795 1.368 . S
C792 H797 0.931 . S
C793 C792 1.351 . S
C793 N794 1.373 . S
C793 H821 0.930 . S
N794 C793 1.373 . S
N794 C796 1.340 . S
N795 C792 1.368 . S
N795 C796 1.321 . S
N795 Co798 2.135 . S
C796 N794 1.340 . S
C796 N795 1.321 . S
C796 H820 0.930 . S
H797 C792 0.931 . S
Co798 N795 2.135 . S
Co798 N801 2.121 . S
Co798 O806 2.055 . S
Co798 O809 2.039 . S
Co798 N812 2.140 . S
C799 O800 1.227 . S
C799 O809 1.265 . S
O800 C799 1.227 . S
N801 Co798 2.121 . S
N801 C803 1.375 . S
N801 C804 1.313 . S
C802 C803 1.338 . S
C802 N805 1.377 . S
C802 H822 0.930 . S
C803 N801 1.375 . S
C803 C802 1.338 . S
C803 H807 0.931 . S
C804 N801 1.313 . S
C804 N805 1.344 . S
C804 H808 0.930 . S
N805 C802 1.377 . S
N805 C804 1.344 . S
O806 Co798 2.055 . S
O806 C810 1.253 . S
H807 C803 0.931 . S
H808 C804 0.930 . S
O809 Co798 2.039 . S
O809 C799 1.265 . S
C810 O806 1.253 . S
C810 O811 1.227 . S
O811 C810 1.227 . S
N812 Co798 2.140 . S
N812 C815 1.346 . S
N812 C816 1.345 . S
C813 C814 1.387 . S
C813 C817 1.391 . S
C814 C813 1.387 . S
C814 C815 1.369 . S
C814 H823 0.929 . S
C815 N812 1.346 . S
C815 C814 1.369 . S
C815 H818 0.928 . S
C816 N812 1.345 . S
C816 C817 1.371 . S
C816 H819 0.931 . S
C817 C813 1.391 . S
C817 C816 1.371 . S
C817 H824 0.930 . S
H818 C815 0.928 . S
H819 C816 0.931 . S
H820 C796 0.930 . S
H821 C793 0.930 . S
H822 C802 0.930 . S
H823 C814 0.929 . S
H824 C817 0.930 . S
C825 C826 1.351 . S
C825 N828 1.368 . S
C825 H830 0.931 . S
C826 C825 1.351 . S
C826 N827 1.373 . S
C826 H854 0.930 . S
N827 C826 1.373 . S
N827 C829 1.340 . S
N828 C825 1.368 . S
N828 C829 1.321 . S
N828 Co831 2.135 . S
C829 N827 1.340 . S
C829 N828 1.321 . S
C829 H853 0.930 . S
H830 C825 0.931 . S
Co831 N828 2.135 . S
Co831 N834 2.121 . S
Co831 O839 2.055 . S
Co831 O842 2.039 . S
Co831 N845 2.140 . S
C832 O833 1.227 . S
C832 O842 1.265 . S
O833 C832 1.227 . S
N834 Co831 2.121 . S
N834 C836 1.375 . S
N834 C837 1.313 . S
C835 C836 1.338 . S
C835 N838 1.377 . S
C835 H855 0.930 . S
C836 N834 1.375 . S
C836 C835 1.338 . S
C836 H840 0.931 . S
C837 N834 1.313 . S
C837 N838 1.344 . S
C837 H841 0.930 . S
N838 C835 1.377 . S
N838 C837 1.344 . S
O839 Co831 2.055 . S
O839 C843 1.253 . S
H840 C836 0.931 . S
H841 C837 0.930 . S
O842 Co831 2.039 . S
O842 C832 1.265 . S
C843 O839 1.253 . S
C843 O844 1.227 . S
O844 C843 1.227 . S
N845 Co831 2.140 . S
N845 C848 1.346 . S
N845 C849 1.345 . S
C846 C847 1.387 . S
C846 C850 1.391 . S
C847 C846 1.387 . S
C847 C848 1.369 . S
C847 H856 0.929 . S
C848 N845 1.346 . S
C848 C847 1.369 . S
C848 H851 0.928 . S
C849 N845 1.345 . S
C849 C850 1.371 . S
C849 H852 0.931 . S
C850 C846 1.391 . S
C850 C849 1.371 . S
C850 H857 0.930 . S
H851 C848 0.928 . S
H852 C849 0.931 . S
H853 C829 0.930 . S
H854 C826 0.930 . S
H855 C835 0.930 . S
H856 C847 0.929 . S
H857 C850 0.930 . S
C858 C859 1.351 . S
C858 N861 1.368 . S
C858 H863 0.931 . S
C859 C858 1.351 . S
C859 N860 1.373 . S
C859 H887 0.930 . S
N860 C859 1.373 . S
N860 C862 1.340 . S
N861 C858 1.368 . S
N861 C862 1.321 . S
N861 Co864 2.135 . S
C862 N860 1.340 . S
C862 N861 1.321 . S
C862 H886 0.930 . S
H863 C858 0.931 . S
Co864 N861 2.135 . S
Co864 N867 2.121 . S
Co864 O872 2.055 . S
Co864 O875 2.039 . S
Co864 N878 2.140 . S
C865 O866 1.227 . S
C865 O875 1.265 . S
O866 C865 1.227 . S
N867 Co864 2.121 . S
N867 C869 1.375 . S
N867 C870 1.313 . S
C868 C869 1.338 . S
C868 N871 1.377 . S
C868 H888 0.930 . S
C869 N867 1.375 . S
C869 C868 1.338 . S
C869 H873 0.931 . S
C870 N867 1.313 . S
C870 N871 1.344 . S
C870 H874 0.930 . S
N871 C868 1.377 . S
N871 C870 1.344 . S
O872 Co864 2.055 . S
O872 C876 1.253 . S
H873 C869 0.931 . S
H874 C870 0.930 . S
O875 Co864 2.039 . S
O875 C865 1.265 . S
C876 O872 1.253 . S
C876 O877 1.227 . S
O877 C876 1.227 . S
N878 Co864 2.140 . S
N878 C881 1.346 . S
N878 C882 1.345 . S
C879 C880 1.387 . S
C879 C883 1.391 . S
C880 C879 1.387 . S
C880 C881 1.369 . S
C880 H889 0.929 . S
C881 N878 1.346 . S
C881 C880 1.369 . S
C881 H884 0.928 . S
C882 N878 1.345 . S
C882 C883 1.371 . S
C882 H885 0.931 . S
C883 C879 1.391 . S
C883 C882 1.371 . S
C883 H890 0.930 . S
H884 C881 0.928 . S
H885 C882 0.931 . S
H886 C862 0.930 . S
H887 C859 0.930 . S
H888 C868 0.930 . S
H889 C880 0.929 . S
H890 C883 0.930 . S
C891 C892 1.351 1_554 S
C891 N894 1.368 . S
C891 H896 0.931 . S
C892 C891 1.351 1_556 S
C892 N893 1.373 1_556 S
C892 H920 0.930 . S
N893 C892 1.373 1_554 S
N893 C895 1.340 . S
N894 C891 1.368 . S
N894 C895 1.321 . S
N894 Co897 2.135 . S
C895 N893 1.340 . S
C895 N894 1.321 . S
C895 H919 0.930 . S
H896 C891 0.931 . S
Co897 N894 2.135 . S
Co897 N900 2.121 . S
Co897 O905 2.055 . S
Co897 O908 2.039 . S
Co897 N911 2.140 . S
C898 O899 1.227 . S
C898 O908 1.265 . S
O899 C898 1.227 . S
N900 Co897 2.121 . S
N900 C902 1.375 . S
N900 C903 1.313 . S
C901 C902 1.338 . S
C901 N904 1.377 . S
C901 H921 0.930 . S
C902 N900 1.375 . S
C902 C901 1.338 . S
C902 H906 0.931 . S
C903 N900 1.313 . S
C903 N904 1.344 . S
C903 H907 0.930 . S
N904 C901 1.377 . S
N904 C903 1.344 . S
O905 Co897 2.055 . S
O905 C909 1.253 . S
H906 C902 0.931 . S
H907 C903 0.930 . S
O908 Co897 2.039 . S
O908 C898 1.265 . S
C909 O905 1.253 . S
C909 O910 1.227 . S
O910 C909 1.227 . S
N911 Co897 2.140 . S
N911 C914 1.346 . S
N911 C915 1.345 . S
C912 C913 1.387 . S
C912 C916 1.391 . S
C913 C912 1.387 . S
C913 C914 1.369 . S
C913 H922 0.929 . S
C914 N911 1.346 . S
C914 C913 1.369 . S
C914 H917 0.928 . S
C915 N911 1.345 . S
C915 C916 1.371 . S
C915 H918 0.931 . S
C916 C912 1.391 . S
C916 C915 1.371 . S
C916 H923 0.930 . S
H917 C914 0.928 . S
H918 C915 0.931 . S
H919 C895 0.930 . S
H920 C892 0.930 . S
H921 C901 0.930 . S
H922 C913 0.929 . S
H923 C916 0.930 . S
C924 C925 1.351 1_554 S
C924 N927 1.368 . S
C924 H929 0.931 . S
C925 C924 1.351 1_556 S
C925 N926 1.373 1_556 S
C925 H953 0.930 . S
N926 C925 1.373 1_554 S
N926 C928 1.340 . S
N927 C924 1.368 . S
N927 C928 1.321 . S
N927 Co930 2.135 . S
C928 N926 1.340 . S
C928 N927 1.321 . S
C928 H952 0.930 . S
H929 C924 0.931 . S
Co930 N927 2.135 . S
Co930 N933 2.121 . S
Co930 O938 2.055 . S
Co930 O941 2.039 . S
Co930 N944 2.140 . S
C931 O932 1.227 . S
C931 O941 1.265 . S
O932 C931 1.227 . S
N933 Co930 2.121 . S
N933 C935 1.375 . S
N933 C936 1.313 . S
C934 C935 1.338 . S
C934 N937 1.377 . S
C934 H954 0.930 . S
C935 N933 1.375 . S
C935 C934 1.338 . S
C935 H939 0.931 . S
C936 N933 1.313 . S
C936 N937 1.344 . S
C936 H940 0.930 . S
N937 C934 1.377 . S
N937 C936 1.344 . S
O938 Co930 2.055 . S
O938 C942 1.253 . S
H939 C935 0.931 . S
H940 C936 0.930 . S
O941 Co930 2.039 . S
O941 C931 1.265 . S
C942 O938 1.253 . S
C942 O943 1.227 . S
O943 C942 1.227 . S
N944 Co930 2.140 . S
N944 C947 1.346 . S
N944 C948 1.345 . S
C945 C946 1.387 . S
C945 C949 1.391 . S
C946 C945 1.387 . S
C946 C947 1.369 . S
C946 H955 0.929 . S
C947 N944 1.346 . S
C947 C946 1.369 . S
C947 H950 0.928 . S
C948 N944 1.345 . S
C948 C949 1.371 . S
C948 H951 0.931 . S
C949 C945 1.391 . S
C949 C948 1.371 . S
C949 H956 0.930 . S
H950 C947 0.928 . S
H951 C948 0.931 . S
H952 C928 0.930 . S
H953 C925 0.930 . S
H954 C934 0.930 . S
H955 C946 0.929 . S
H956 C949 0.930 . S
C957 C958 1.351 1_554 S
C957 N960 1.368 . S
C957 H962 0.931 . S
C958 C957 1.351 1_556 S
C958 N959 1.373 1_556 S
C958 H986 0.930 . S
N959 C958 1.373 1_554 S
N959 C961 1.340 . S
N960 C957 1.368 . S
N960 C961 1.321 . S
N960 Co963 2.135 . S
C961 N959 1.340 . S
C961 N960 1.321 . S
C961 H985 0.930 . S
H962 C957 0.931 . S
Co963 N960 2.135 . S
Co963 N966 2.121 . S
Co963 O971 2.055 . S
Co963 O974 2.039 . S
Co963 N977 2.140 . S
C964 O965 1.227 . S
C964 O974 1.265 . S
O965 C964 1.227 . S
N966 Co963 2.121 . S
N966 C968 1.375 . S
N966 C969 1.313 . S
C967 C968 1.338 . S
C967 N970 1.377 . S
C967 H987 0.930 . S
C968 N966 1.375 . S
C968 C967 1.338 . S
C968 H972 0.931 . S
C969 N966 1.313 . S
C969 N970 1.344 . S
C969 H973 0.930 . S
N970 C967 1.377 . S
N970 C969 1.344 . S
O971 Co963 2.055 . S
O971 C975 1.253 . S
H972 C968 0.931 . S
H973 C969 0.930 . S
O974 Co963 2.039 . S
O974 C964 1.265 . S
C975 O971 1.253 . S
C975 O976 1.227 . S
O976 C975 1.227 . S
N977 Co963 2.140 . S
N977 C980 1.346 . S
N977 C981 1.345 . S
C978 C979 1.387 . S
C978 C982 1.391 . S
C979 C978 1.387 . S
C979 C980 1.369 . S
C979 H988 0.929 . S
C980 N977 1.346 . S
C980 C979 1.369 . S
C980 H983 0.928 . S
C981 N977 1.345 . S
C981 C982 1.371 . S
C981 H984 0.931 . S
C982 C978 1.391 . S
C982 C981 1.371 . S
C982 H989 0.930 . S
H983 C980 0.928 . S
H984 C981 0.931 . S
H985 C961 0.930 . S
H986 C958 0.930 . S
H987 C967 0.930 . S
H988 C979 0.929 . S
H989 C982 0.930 . S
C990 C991 1.351 . S
C990 N993 1.368 . S
C990 H995 0.931 . S
C991 C990 1.351 . S
C991 N992 1.373 . S
C991 H1019 0.930 1_556 S
N992 C991 1.373 . S
N992 C994 1.340 . S
N993 C990 1.368 . S
N993 C994 1.321 . S
N993 Co996 2.135 . S
C994 N992 1.340 . S
C994 N993 1.321 . S
C994 H1018 0.930 . S
H995 C990 0.931 . S
Co996 N993 2.135 . S
Co996 N999 2.121 . S
Co996 O1004 2.055 . S
Co996 O1007 2.039 . S
Co996 N1010 2.140 . S
C997 O998 1.227 . S
C997 O1007 1.265 . S
O998 C997 1.227 . S
N999 Co996 2.121 . S
N999 C1001 1.375 . S
N999 C1002 1.313 . S
C1000 C1001 1.338 . S
C1000 N1003 1.377 . S
C1000 H1020 0.930 . S
C1001 N999 1.375 . S
C1001 C1000 1.338 . S
C1001 H1005 0.931 . S
C1002 N999 1.313 . S
C1002 N1003 1.344 . S
C1002 H1006 0.930 . S
N1003 C1000 1.377 . S
N1003 C1002 1.344 . S
O1004 Co996 2.055 . S
O1004 C1008 1.253 . S
H1005 C1001 0.931 . S
H1006 C1002 0.930 . S
O1007 Co996 2.039 . S
O1007 C997 1.265 . S
C1008 O1004 1.253 . S
C1008 O1009 1.227 . S
O1009 C1008 1.227 . S
N1010 Co996 2.140 . S
N1010 C1013 1.346 . S
N1010 C1014 1.345 . S
C1011 C1012 1.387 . S
C1011 C1015 1.391 . S
C1012 C1011 1.387 . S
C1012 C1013 1.369 . S
C1012 H1021 0.929 . S
C1013 N1010 1.346 . S
C1013 C1012 1.369 . S
C1013 H1016 0.928 . S
C1014 N1010 1.345 . S
C1014 C1015 1.371 . S
C1014 H1017 0.931 . S
C1015 C1011 1.391 . S
C1015 C1014 1.371 . S
C1015 H1022 0.930 . S
H1016 C1013 0.928 . S
H1017 C1014 0.931 . S
H1018 C994 0.930 . S
H1019 C991 0.930 1_554 S
H1020 C1000 0.930 . S
H1021 C1012 0.929 . S
H1022 C1015 0.930 . S
C1023 C1024 1.351 . S
C1023 N1026 1.368 . S
C1023 H1028 0.931 . S
C1024 C1023 1.351 . S
C1024 N1025 1.373 . S
C1024 H1052 0.930 1_556 S
N1025 C1024 1.373 . S
N1025 C1027 1.340 . S
N1026 C1023 1.368 . S
N1026 C1027 1.321 . S
N1026 Co1029 2.135 . S
C1027 N1025 1.340 . S
C1027 N1026 1.321 . S
C1027 H1051 0.930 . S
H1028 C1023 0.931 . S
Co1029 N1026 2.135 . S
Co1029 N1032 2.121 . S
Co1029 O1037 2.055 . S
Co1029 O1040 2.039 . S
Co1029 N1043 2.140 . S
C1030 O1031 1.227 . S
C1030 O1040 1.265 . S
O1031 C1030 1.227 . S
N1032 Co1029 2.121 . S
N1032 C1034 1.375 . S
N1032 C1035 1.313 . S
C1033 C1034 1.338 . S
C1033 N1036 1.377 . S
C1033 H1053 0.930 . S
C1034 N1032 1.375 . S
C1034 C1033 1.338 . S
C1034 H1038 0.931 . S
C1035 N1032 1.313 . S
C1035 N1036 1.344 . S
C1035 H1039 0.930 . S
N1036 C1033 1.377 . S
N1036 C1035 1.344 . S
O1037 Co1029 2.055 . S
O1037 C1041 1.253 . S
H1038 C1034 0.931 . S
H1039 C1035 0.930 . S
O1040 Co1029 2.039 . S
O1040 C1030 1.265 . S
C1041 O1037 1.253 . S
C1041 O1042 1.227 . S
O1042 C1041 1.227 . S
N1043 Co1029 2.140 . S
N1043 C1046 1.346 . S
N1043 C1047 1.345 . S
C1044 C1045 1.387 . S
C1044 C1048 1.391 . S
C1045 C1044 1.387 . S
C1045 C1046 1.369 . S
C1045 H1054 0.929 . S
C1046 N1043 1.346 . S
C1046 C1045 1.369 . S
C1046 H1049 0.928 . S
C1047 N1043 1.345 . S
C1047 C1048 1.371 . S
C1047 H1050 0.931 . S
C1048 C1044 1.391 . S
C1048 C1047 1.371 . S
C1048 H1055 0.930 . S
H1049 C1046 0.928 . S
H1050 C1047 0.931 . S
H1051 C1027 0.930 . S
H1052 C1024 0.930 1_554 S
H1053 C1033 0.930 . S
H1054 C1045 0.929 . S
H1055 C1048 0.930 . S
C1056 C1057 1.351 . S
C1056 N1059 1.368 . S
C1056 H1061 0.931 . S
C1057 C1056 1.351 . S
C1057 N1058 1.373 . S
C1057 H1085 0.930 1_556 S
N1058 C1057 1.373 . S
N1058 C1060 1.340 . S
N1059 C1056 1.368 . S
N1059 C1060 1.321 . S
N1059 Co1062 2.135 . S
C1060 N1058 1.340 . S
C1060 N1059 1.321 . S
C1060 H1084 0.930 . S
H1061 C1056 0.931 . S
Co1062 N1059 2.135 . S
Co1062 N1065 2.121 . S
Co1062 O1070 2.055 . S
Co1062 O1073 2.039 . S
Co1062 N1076 2.140 . S
C1063 O1064 1.227 . S
C1063 O1073 1.265 . S
O1064 C1063 1.227 . S
N1065 Co1062 2.121 . S
N1065 C1067 1.375 . S
N1065 C1068 1.313 . S
C1066 C1067 1.338 . S
C1066 N1069 1.377 . S
C1066 H1086 0.930 . S
C1067 N1065 1.375 . S
C1067 C1066 1.338 . S
C1067 H1071 0.931 . S
C1068 N1065 1.313 . S
C1068 N1069 1.344 . S
C1068 H1072 0.930 . S
N1069 C1066 1.377 . S
N1069 C1068 1.344 . S
O1070 Co1062 2.055 . S
O1070 C1074 1.253 . S
H1071 C1067 0.931 . S
H1072 C1068 0.930 . S
O1073 Co1062 2.039 . S
O1073 C1063 1.265 . S
C1074 O1070 1.253 . S
C1074 O1075 1.227 . S
O1075 C1074 1.227 . S
N1076 Co1062 2.140 . S
N1076 C1079 1.346 . S
N1076 C1080 1.345 . S
C1077 C1078 1.387 . S
C1077 C1081 1.391 . S
C1078 C1077 1.387 . S
C1078 C1079 1.369 . S
C1078 H1087 0.929 . S
C1079 N1076 1.346 . S
C1079 C1078 1.369 . S
C1079 H1082 0.928 . S
C1080 N1076 1.345 . S
C1080 C1081 1.371 . S
C1080 H1083 0.931 . S
C1081 C1077 1.391 . S
C1081 C1080 1.371 . S
C1081 H1088 0.930 . S
H1082 C1079 0.928 . S
H1083 C1080 0.931 . S
H1084 C1060 0.930 . S
H1085 C1057 0.930 1_554 S
H1086 C1066 0.930 . S
H1087 C1078 0.929 . S
H1088 C1081 0.930 . S
C1089 C1090 1.351 . S
C1089 N1092 1.368 1_556 S
C1089 H1094 0.931 . S
C1090 C1089 1.351 . S
C1090 N1091 1.373 . S
C1090 H1118 0.930 . S
N1091 C1090 1.373 . S
N1091 C1093 1.340 1_556 S
N1092 C1089 1.368 1_554 S
N1092 C1093 1.321 . S
N1092 Co1095 2.135 . S
C1093 N1091 1.340 1_554 S
C1093 N1092 1.321 . S
C1093 H1117 0.930 . S
H1094 C1089 0.931 . S
Co1095 N1092 2.135 . S
Co1095 N1098 2.121 . S
Co1095 O1103 2.055 . S
Co1095 O1106 2.039 . S
Co1095 N1109 2.140 . S
C1096 O1097 1.227 . S
C1096 O1106 1.265 . S
O1097 C1096 1.227 . S
N1098 Co1095 2.121 . S
N1098 C1100 1.375 . S
N1098 C1101 1.313 . S
C1099 C1100 1.338 . S
C1099 N1102 1.377 . S
C1099 H1119 0.930 . S
C1100 N1098 1.375 . S
C1100 C1099 1.338 . S
C1100 H1104 0.931 . S
C1101 N1098 1.313 . S
C1101 N1102 1.344 . S
C1101 H1105 0.930 . S
N1102 C1099 1.377 . S
N1102 C1101 1.344 . S
O1103 Co1095 2.055 . S
O1103 C1107 1.253 . S
H1104 C1100 0.931 . S
H1105 C1101 0.930 . S
O1106 Co1095 2.039 . S
O1106 C1096 1.265 . S
C1107 O1103 1.253 . S
C1107 O1108 1.227 . S
O1108 C1107 1.227 . S
N1109 Co1095 2.140 . S
N1109 C1112 1.346 . S
N1109 C1113 1.345 . S
C1110 C1111 1.387 . S
C1110 C1114 1.391 . S
C1111 C1110 1.387 . S
C1111 C1112 1.369 . S
C1111 H1120 0.929 . S
C1112 N1109 1.346 . S
C1112 C1111 1.369 . S
C1112 H1115 0.928 . S
C1113 N1109 1.345 . S
C1113 C1114 1.371 . S
C1113 H1116 0.931 . S
C1114 C1110 1.391 . S
C1114 C1113 1.371 . S
C1114 H1121 0.930 . S
H1115 C1112 0.928 . S
H1116 C1113 0.931 . S
H1117 C1093 0.930 . S
H1118 C1090 0.930 . S
H1119 C1099 0.930 . S
H1120 C1111 0.929 . S
H1121 C1114 0.930 . S
C1122 C1123 1.351 . S
C1122 N1125 1.368 1_556 S
C1122 H1127 0.931 . S
C1123 C1122 1.351 . S
C1123 N1124 1.373 . S
C1123 H1151 0.930 . S
N1124 C1123 1.373 . S
N1124 C1126 1.340 1_556 S
N1125 C1122 1.368 1_554 S
N1125 C1126 1.321 . S
N1125 Co1128 2.135 . S
C1126 N1124 1.340 1_554 S
C1126 N1125 1.321 . S
C1126 H1150 0.930 . S
H1127 C1122 0.931 . S
Co1128 N1125 2.135 . S
Co1128 N1131 2.121 . S
Co1128 O1136 2.055 . S
Co1128 O1139 2.039 . S
Co1128 N1142 2.140 . S
C1129 O1130 1.227 . S
C1129 O1139 1.265 . S
O1130 C1129 1.227 . S
N1131 Co1128 2.121 . S
N1131 C1133 1.375 . S
N1131 C1134 1.313 . S
C1132 C1133 1.338 . S
C1132 N1135 1.377 . S
C1132 H1152 0.930 . S
C1133 N1131 1.375 . S
C1133 C1132 1.338 . S
C1133 H1137 0.931 . S
C1134 N1131 1.313 . S
C1134 N1135 1.344 . S
C1134 H1138 0.930 . S
N1135 C1132 1.377 . S
N1135 C1134 1.344 . S
O1136 Co1128 2.055 . S
O1136 C1140 1.253 . S
H1137 C1133 0.931 . S
H1138 C1134 0.930 . S
O1139 Co1128 2.039 . S
O1139 C1129 1.265 . S
C1140 O1136 1.253 . S
C1140 O1141 1.227 . S
O1141 C1140 1.227 . S
N1142 Co1128 2.140 . S
N1142 C1145 1.346 . S
N1142 C1146 1.345 . S
C1143 C1144 1.387 . S
C1143 C1147 1.391 . S
C1144 C1143 1.387 . S
C1144 C1145 1.369 . S
C1144 H1153 0.929 . S
C1145 N1142 1.346 . S
C1145 C1144 1.369 . S
C1145 H1148 0.928 . S
C1146 N1142 1.345 . S
C1146 C1147 1.371 . S
C1146 H1149 0.931 . S
C1147 C1143 1.391 . S
C1147 C1146 1.371 . S
C1147 H1154 0.930 . S
H1148 C1145 0.928 . S
H1149 C1146 0.931 . S
H1150 C1126 0.930 . S
H1151 C1123 0.930 . S
H1152 C1132 0.930 . S
H1153 C1144 0.929 . S
H1154 C1147 0.930 . S
C1155 C1156 1.351 . S
C1155 N1158 1.368 1_556 S
C1155 H1160 0.931 . S
C1156 C1155 1.351 . S
C1156 N1157 1.373 . S
C1156 H1184 0.930 . S
N1157 C1156 1.373 . S
N1157 C1159 1.340 1_556 S
N1158 C1155 1.368 1_554 S
N1158 C1159 1.321 . S
N1158 Co1161 2.135 . S
C1159 N1157 1.340 1_554 S
C1159 N1158 1.321 . S
C1159 H1183 0.930 . S
H1160 C1155 0.931 . S
Co1161 N1158 2.135 . S
Co1161 N1164 2.121 . S
Co1161 O1169 2.055 . S
Co1161 O1172 2.039 . S
Co1161 N1175 2.140 . S
C1162 O1163 1.227 . S
C1162 O1172 1.265 . S
O1163 C1162 1.227 . S
N1164 Co1161 2.121 . S
N1164 C1166 1.375 . S
N1164 C1167 1.313 . S
C1165 C1166 1.338 . S
C1165 N1168 1.377 . S
C1165 H1185 0.930 . S
C1166 N1164 1.375 . S
C1166 C1165 1.338 . S
C1166 H1170 0.931 . S
C1167 N1164 1.313 . S
C1167 N1168 1.344 . S
C1167 H1171 0.930 . S
N1168 C1165 1.377 . S
N1168 C1167 1.344 . S
O1169 Co1161 2.055 . S
O1169 C1173 1.253 . S
H1170 C1166 0.931 . S
H1171 C1167 0.930 . S
O1172 Co1161 2.039 . S
O1172 C1162 1.265 . S
C1173 O1169 1.253 . S
C1173 O1174 1.227 . S
O1174 C1173 1.227 . S
N1175 Co1161 2.140 . S
N1175 C1178 1.346 . S
N1175 C1179 1.345 . S
C1176 C1177 1.387 . S
C1176 C1180 1.391 . S
C1177 C1176 1.387 . S
C1177 C1178 1.369 . S
C1177 H1186 0.929 . S
C1178 N1175 1.346 . S
C1178 C1177 1.369 . S
C1178 H1181 0.928 . S
C1179 N1175 1.345 . S
C1179 C1180 1.371 . S
C1179 H1182 0.931 . S
C1180 C1176 1.391 . S
C1180 C1179 1.371 . S
C1180 H1187 0.930 . S
H1181 C1178 0.928 . S
H1182 C1179 0.931 . S
H1183 C1159 0.930 . S
H1184 C1156 0.930 . S
H1185 C1165 0.930 . S
H1186 C1177 0.929 . S
H1187 C1180 0.930 . S
C1188 C1189 1.369 . S
C1188 C1190 1.419 . S
C1188 H1192 0.930 . S
C1189 C1188 1.369 . S
C1189 C1198 1.429 . S
C1190 C1188 1.419 . S
C1190 C1191 1.363 . S
C1190 H1193 0.929 . S
C1191 C1190 1.363 . S
C1191 C1197 1.428 . S
H1192 C1188 0.930 . S
H1193 C1190 0.929 . S
S1194 N1195 1.613 . S
S1194 N1196 1.610 . S
N1195 S1194 1.613 . S
N1195 C1198 1.350 . S
N1196 S1194 1.610 . S
N1196 C1197 1.351 . S
C1197 C1191 1.428 . S
C1197 N1196 1.351 . S
C1197 C1198 1.434 . S
C1198 C1189 1.429 . S
C1198 N1195 1.350 . S
C1198 C1197 1.434 . S
C1199 C1200 1.369 . S
C1199 C1201 1.419 . S
C1199 H1203 0.930 . S
C1200 C1199 1.369 . S
C1200 C1209 1.429 . S
C1201 C1199 1.419 . S
C1201 C1202 1.363 . S
C1201 H1204 0.929 . S
C1202 C1201 1.363 . S
C1202 C1208 1.428 . S
H1203 C1199 0.930 . S
H1204 C1201 0.929 . S
S1205 N1206 1.613 . S
S1205 N1207 1.610 . S
N1206 S1205 1.613 . S
N1206 C1209 1.350 . S
N1207 S1205 1.610 . S
N1207 C1208 1.351 . S
C1208 C1202 1.428 . S
C1208 N1207 1.351 . S
C1208 C1209 1.434 . S
C1209 C1200 1.429 . S
C1209 N1206 1.350 . S
C1209 C1208 1.434 . S
C1210 C1211 1.369 . S
C1210 C1212 1.419 . S
C1210 H1214 0.930 . S
C1211 C1210 1.369 . S
C1211 C1220 1.429 . S
C1212 C1210 1.419 . S
C1212 C1213 1.363 . S
C1212 H1215 0.929 . S
C1213 C1212 1.363 . S
C1213 C1219 1.428 . S
H1214 C1210 0.930 . S
H1215 C1212 0.929 . S
S1216 N1217 1.613 . S
S1216 N1218 1.610 . S
N1217 S1216 1.613 . S
N1217 C1220 1.350 . S
N1218 S1216 1.610 . S
N1218 C1219 1.351 . S
C1219 C1213 1.428 . S
C1219 N1218 1.351 . S
C1219 C1220 1.434 . S
C1220 C1211 1.429 . S
C1220 N1217 1.350 . S
C1220 C1219 1.434 . S
C1221 C1222 1.369 . S
C1221 C1223 1.419 . S
C1221 H1225 0.930 . S
C1222 C1221 1.369 . S
C1222 C1231 1.429 . S
C1223 C1221 1.419 . S
C1223 C1224 1.363 . S
C1223 H1226 0.929 . S
C1224 C1223 1.363 . S
C1224 C1230 1.428 . S
H1225 C1221 0.930 . S
H1226 C1223 0.929 . S
S1227 N1228 1.613 . S
S1227 N1229 1.610 . S
N1228 S1227 1.613 . S
N1228 C1231 1.350 . S
N1229 S1227 1.610 . S
N1229 C1230 1.351 . S
C1230 C1224 1.428 . S
C1230 N1229 1.351 . S
C1230 C1231 1.434 . S
C1231 C1222 1.429 . S
C1231 N1228 1.350 . S
C1231 C1230 1.434 . S
C1232 C1233 1.369 . S
C1232 C1234 1.419 . S
C1232 H1236 0.930 . S
C1233 C1232 1.369 . S
C1233 C1242 1.429 . S
C1234 C1232 1.419 . S
C1234 C1235 1.363 . S
C1234 H1237 0.929 . S
C1235 C1234 1.363 . S
C1235 C1241 1.428 . S
H1236 C1232 0.930 . S
H1237 C1234 0.929 . S
S1238 N1239 1.613 . S
S1238 N1240 1.610 . S
N1239 S1238 1.613 . S
N1239 C1242 1.350 . S
N1240 S1238 1.610 . S
N1240 C1241 1.351 . S
C1241 C1235 1.428 . S
C1241 N1240 1.351 . S
C1241 C1242 1.434 . S
C1242 C1233 1.429 . S
C1242 N1239 1.350 . S
C1242 C1241 1.434 . S
C1243 C1244 1.369 . S
C1243 C1245 1.419 . S
C1243 H1247 0.930 . S
C1244 C1243 1.369 . S
C1244 C1253 1.429 . S
C1245 C1243 1.419 . S
C1245 C1246 1.363 . S
C1245 H1248 0.929 . S
C1246 C1245 1.363 . S
C1246 C1252 1.428 . S
H1247 C1243 0.930 . S
H1248 C1245 0.929 . S
S1249 N1250 1.613 . S
S1249 N1251 1.610 . S
N1250 S1249 1.613 . S
N1250 C1253 1.350 . S
N1251 S1249 1.610 . S
N1251 C1252 1.351 . S
C1252 C1246 1.428 . S
C1252 N1251 1.351 . S
C1252 C1253 1.434 . S
C1253 C1244 1.429 . S
C1253 N1250 1.350 . S
C1253 C1252 1.434 . S
C1254 C1255 1.369 . S
C1254 C1256 1.419 . S
C1254 H1258 0.930 . S
C1255 C1254 1.369 . S
C1255 C1264 1.429 . S
C1256 C1254 1.419 . S
C1256 C1257 1.363 . S
C1256 H1259 0.929 . S
C1257 C1256 1.363 . S
C1257 C1263 1.428 . S
H1258 C1254 0.930 . S
H1259 C1256 0.929 . S
S1260 N1261 1.613 . S
S1260 N1262 1.610 . S
N1261 S1260 1.613 . S
N1261 C1264 1.350 . S
N1262 S1260 1.610 . S
N1262 C1263 1.351 . S
C1263 C1257 1.428 . S
C1263 N1262 1.351 . S
C1263 C1264 1.434 . S
C1264 C1255 1.429 . S
C1264 N1261 1.350 . S
C1264 C1263 1.434 . S
C1265 C1266 1.369 . S
C1265 C1267 1.419 . S
C1265 H1269 0.930 . S
C1266 C1265 1.369 . S
C1266 C1275 1.429 . S
C1267 C1265 1.419 . S
C1267 C1268 1.363 . S
C1267 H1270 0.929 . S
C1268 C1267 1.363 . S
C1268 C1274 1.428 . S
H1269 C1265 0.930 . S
H1270 C1267 0.929 . S
S1271 N1272 1.613 . S
S1271 N1273 1.610 . S
N1272 S1271 1.613 . S
N1272 C1275 1.350 . S
N1273 S1271 1.610 . S
N1273 C1274 1.351 . S
C1274 C1268 1.428 . S
C1274 N1273 1.351 . S
C1274 C1275 1.434 . S
C1275 C1266 1.429 . S
C1275 N1272 1.350 . S
C1275 C1274 1.434 . S
C1276 C1277 1.369 . S
C1276 C1278 1.419 . S
C1276 H1280 0.930 . S
C1277 C1276 1.369 . S
C1277 C1286 1.429 . S
C1278 C1276 1.419 . S
C1278 C1279 1.363 . S
C1278 H1281 0.929 . S
C1279 C1278 1.363 . S
C1279 C1285 1.428 . S
H1280 C1276 0.930 . S
H1281 C1278 0.929 . S
S1282 N1283 1.613 . S
S1282 N1284 1.610 . S
N1283 S1282 1.613 . S
N1283 C1286 1.350 . S
N1284 S1282 1.610 . S
N1284 C1285 1.351 . S
C1285 C1279 1.428 . S
C1285 N1284 1.351 . S
C1285 C1286 1.434 . S
C1286 C1277 1.429 . S
C1286 N1283 1.350 . S
C1286 C1285 1.434 . S
C1287 C1288 1.369 . S
C1287 C1289 1.419 . S
C1287 H1291 0.930 . S
C1288 C1287 1.369 . S
C1288 C1297 1.429 . S
C1289 C1287 1.419 . S
C1289 C1290 1.363 . S
C1289 H1292 0.929 . S
C1290 C1289 1.363 . S
C1290 C1296 1.428 . S
H1291 C1287 0.930 . S
H1292 C1289 0.929 . S
S1293 N1294 1.613 . S
S1293 N1295 1.610 . S
N1294 S1293 1.613 . S
N1294 C1297 1.350 . S
N1295 S1293 1.610 . S
N1295 C1296 1.351 . S
C1296 C1290 1.428 . S
C1296 N1295 1.351 . S
C1296 C1297 1.434 . S
C1297 C1288 1.429 . S
C1297 N1294 1.350 . S
C1297 C1296 1.434 . S
C1298 C1299 1.369 . S
C1298 C1300 1.419 . S
C1298 H1302 0.930 . S
C1299 C1298 1.369 . S
C1299 C1308 1.429 . S
C1300 C1298 1.419 . S
C1300 C1301 1.363 . S
C1300 H1303 0.929 . S
C1301 C1300 1.363 . S
C1301 C1307 1.428 . S
H1302 C1298 0.930 . S
H1303 C1300 0.929 . S
S1304 N1305 1.613 . S
S1304 N1306 1.610 . S
N1305 S1304 1.613 . S
N1305 C1308 1.350 . S
N1306 S1304 1.610 . S
N1306 C1307 1.351 . S
C1307 C1301 1.428 . S
C1307 N1306 1.351 . S
C1307 C1308 1.434 . S
C1308 C1299 1.429 . S
C1308 N1305 1.350 . S
C1308 C1307 1.434 . S
C1309 C1310 1.369 . S
C1309 C1311 1.419 . S
C1309 H1313 0.930 . S
C1310 C1309 1.369 . S
C1310 C1319 1.429 . S
C1311 C1309 1.419 . S
C1311 C1312 1.363 . S
C1311 H1314 0.929 . S
C1312 C1311 1.363 . S
C1312 C1318 1.428 . S
H1313 C1309 0.930 . S
H1314 C1311 0.929 . S
S1315 N1316 1.613 . S
S1315 N1317 1.610 . S
N1316 S1315 1.613 . S
N1316 C1319 1.350 . S
N1317 S1315 1.610 . S
N1317 C1318 1.351 . S
C1318 C1312 1.428 . S
C1318 N1317 1.351 . S
C1318 C1319 1.434 . S
C1319 C1310 1.429 . S
C1319 N1316 1.350 . S
C1319 C1318 1.434 . S
C1320 C1321 1.369 . S
C1320 C1322 1.419 . S
C1320 H1324 0.932 . S
C1321 C1320 1.369 . S
C1321 C1330 1.429 . S
C1322 C1320 1.419 . S
C1322 C1323 1.363 . S
C1322 H1325 0.929 . S
C1323 C1322 1.363 . S
C1323 C1329 1.428 . S
H1324 C1320 0.932 . S
H1325 C1322 0.929 . S
S1326 N1327 1.613 . S
S1326 N1328 1.610 . S
N1327 S1326 1.613 . S
N1327 C1330 1.350 . S
N1328 S1326 1.610 . S
N1328 C1329 1.351 . S
C1329 C1323 1.428 . S
C1329 N1328 1.351 . S
C1329 C1330 1.434 . S
C1330 C1321 1.429 . S
C1330 N1327 1.350 . S
C1330 C1329 1.434 . S
C1331 C1332 1.369 . S
C1331 C1333 1.419 . S
C1331 H1335 0.930 . S
C1332 C1331 1.369 . S
C1332 C1341 1.429 . S
C1333 C1331 1.419 . S
C1333 C1334 1.363 . S
C1333 H1336 0.929 1_554 S
C1334 C1333 1.363 . S
C1334 C1340 1.428 . S
H1335 C1331 0.930 . S
H1336 C1333 0.929 1_556 S
S1337 N1338 1.613 . S
S1337 N1339 1.610 . S
N1338 S1337 1.613 . S
N1338 C1341 1.350 . S
N1339 S1337 1.610 . S
N1339 C1340 1.351 . S
C1340 C1334 1.428 . S
C1340 N1339 1.351 . S
C1340 C1341 1.434 . S
C1341 C1332 1.429 . S
C1341 N1338 1.350 . S
C1341 C1340 1.434 . S
C1342 C1343 1.369 . S
C1342 C1344 1.419 . S
C1342 H1346 0.930 . S
C1343 C1342 1.369 . S
C1343 C1352 1.429 . S
C1344 C1342 1.419 . S
C1344 C1345 1.363 . S
C1344 H1347 0.929 . S
C1345 C1344 1.363 . S
C1345 C1351 1.428 . S
H1346 C1342 0.930 . S
H1347 C1344 0.929 . S
S1348 N1349 1.613 . S
S1348 N1350 1.610 . S
N1349 S1348 1.613 . S
N1349 C1352 1.350 . S
N1350 S1348 1.610 . S
N1350 C1351 1.351 . S
C1351 C1345 1.428 . S
C1351 N1350 1.351 . S
C1351 C1352 1.434 . S
C1352 C1343 1.429 . S
C1352 N1349 1.350 . S
C1352 C1351 1.434 . S
C1353 C1354 1.369 . S
C1353 C1355 1.419 . S
C1353 H1357 0.930 . S
C1354 C1353 1.369 . S
C1354 C1363 1.429 . S
C1355 C1353 1.419 . S
C1355 C1356 1.363 . S
C1355 H1358 0.929 . S
C1356 C1355 1.363 . S
C1356 C1362 1.428 . S
H1357 C1353 0.930 . S
H1358 C1355 0.929 . S
S1359 N1360 1.613 1_556 S
S1359 N1361 1.610 . S
N1360 S1359 1.613 1_554 S
N1360 C1363 1.350 . S
N1361 S1359 1.610 . S
N1361 C1362 1.351 1_556 S
C1362 C1356 1.428 . S
C1362 N1361 1.351 1_554 S
C1362 C1363 1.434 . S
C1363 C1354 1.429 . S
C1363 N1360 1.350 . S
C1363 C1362 1.434 . S
C1364 C1365 1.369 . S
C1364 C1366 1.419 . S
C1364 H1368 0.930 . S
C1365 C1364 1.369 . S
C1365 C1374 1.429 . S
C1366 C1364 1.419 . S
C1366 C1367 1.363 . S
C1366 H1369 0.929 1_554 S
C1367 C1366 1.363 . S
C1367 C1373 1.428 . S
H1368 C1364 0.930 . S
H1369 C1366 0.929 1_556 S
S1370 N1371 1.613 . S
S1370 N1372 1.610 . S
N1371 S1370 1.613 . S
N1371 C1374 1.350 . S
N1372 S1370 1.610 . S
N1372 C1373 1.351 . S
C1373 C1367 1.428 . S
C1373 N1372 1.351 . S
C1373 C1374 1.434 . S
C1374 C1365 1.429 . S
C1374 N1371 1.350 . S
C1374 C1373 1.434 . S
C1375 C1376 1.369 . S
C1375 C1377 1.419 . S
C1375 H1379 0.930 . S
C1376 C1375 1.369 . S
C1376 C1385 1.429 . S
C1377 C1375 1.419 . S
C1377 C1378 1.363 . S
C1377 H1380 0.929 . S
C1378 C1377 1.363 . S
C1378 C1384 1.428 . S
H1379 C1375 0.930 . S
H1380 C1377 0.929 . S
S1381 N1382 1.613 . S
S1381 N1383 1.610 . S
N1382 S1381 1.613 . S
N1382 C1385 1.350 . S
N1383 S1381 1.610 . S
N1383 C1384 1.351 . S
C1384 C1378 1.428 . S
C1384 N1383 1.351 . S
C1384 C1385 1.434 . S
C1385 C1376 1.429 . S
C1385 N1382 1.350 . S
C1385 C1384 1.434 . S
C1386 C1387 1.369 . S
C1386 C1388 1.419 . S
C1386 H1390 0.930 . S
C1387 C1386 1.369 . S
C1387 C1396 1.429 . S
C1388 C1386 1.419 . S
C1388 C1389 1.363 . S
C1388 H1391 0.929 . S
C1389 C1388 1.363 . S
C1389 C1395 1.428 . S
H1390 C1386 0.930 . S
H1391 C1388 0.929 . S
S1392 N1393 1.613 . S
S1392 N1394 1.610 . S
N1393 S1392 1.613 . S
N1393 C1396 1.350 . S
N1394 S1392 1.610 . S
N1394 C1395 1.351 . S
C1395 C1389 1.428 . S
C1395 N1394 1.351 . S
C1395 C1396 1.434 . S
C1396 C1387 1.429 . S
C1396 N1393 1.350 . S
C1396 C1395 1.434 . S
C1397 C1398 1.369 . S
C1397 C1399 1.419 . S
C1397 H1401 0.930 . S
C1398 C1397 1.369 . S
C1398 C1407 1.429 . S
C1399 C1397 1.419 . S
C1399 C1400 1.363 . S
C1399 H1402 0.929 . S
C1400 C1399 1.363 . S
C1400 C1406 1.428 . S
H1401 C1397 0.930 . S
H1402 C1399 0.929 . S
S1403 N1404 1.613 . S
S1403 N1405 1.610 . S
N1404 S1403 1.613 . S
N1404 C1407 1.350 . S
N1405 S1403 1.610 . S
N1405 C1406 1.351 . S
C1406 C1400 1.428 . S
C1406 N1405 1.351 . S
C1406 C1407 1.434 . S
C1407 C1398 1.429 . S
C1407 N1404 1.350 . S
C1407 C1406 1.434 . S
C1408 C1409 1.369 . S
C1408 C1410 1.419 . S
C1408 H1412 0.930 . S
C1409 C1408 1.369 . S
C1409 C1418 1.429 . S
C1410 C1408 1.419 . S
C1410 C1411 1.363 . S
C1410 H1413 0.929 . S
C1411 C1410 1.363 . S
C1411 C1417 1.428 . S
H1412 C1408 0.930 . S
H1413 C1410 0.929 . S
S1414 N1415 1.613 . S
S1414 N1416 1.610 . S
N1415 S1414 1.613 . S
N1415 C1418 1.350 . S
N1416 S1414 1.610 . S
N1416 C1417 1.351 . S
C1417 C1411 1.428 . S
C1417 N1416 1.351 . S
C1417 C1418 1.434 . S
C1418 C1409 1.429 . S
C1418 N1415 1.350 . S
C1418 C1417 1.434 . S
C1419 C1420 1.369 . S
C1419 C1421 1.419 . S
C1419 H1423 0.930 . S
C1420 C1419 1.369 . S
C1420 C1429 1.429 . S
C1421 C1419 1.419 . S
C1421 C1422 1.363 . S
C1421 H1424 0.929 . S
C1422 C1421 1.363 . S
C1422 C1428 1.428 . S
H1423 C1419 0.930 . S
H1424 C1421 0.929 . S
S1425 N1426 1.613 . S
S1425 N1427 1.610 . S
N1426 S1425 1.613 . S
N1426 C1429 1.350 . S
N1427 S1425 1.610 . S
N1427 C1428 1.351 . S
C1428 C1422 1.428 . S
C1428 N1427 1.351 . S
C1428 C1429 1.434 . S
C1429 C1420 1.429 . S
C1429 N1426 1.350 . S
C1429 C1428 1.434 . S
C1430 C1431 1.369 . S
C1430 C1432 1.419 . S
C1430 H1434 0.930 . S
C1431 C1430 1.369 . S
C1431 C1440 1.429 . S
C1432 C1430 1.419 . S
C1432 C1433 1.363 . S
C1432 H1435 0.929 . S
C1433 C1432 1.363 . S
C1433 C1439 1.428 . S
H1434 C1430 0.930 . S
H1435 C1432 0.929 . S
S1436 N1437 1.613 . S
S1436 N1438 1.610 . S
N1437 S1436 1.613 . S
N1437 C1440 1.350 . S
N1438 S1436 1.610 . S
N1438 C1439 1.351 . S
C1439 C1433 1.428 . S
C1439 N1438 1.351 . S
C1439 C1440 1.434 . S
C1440 C1431 1.429 . S
C1440 N1437 1.350 . S
C1440 C1439 1.434 . S
C1441 C1442 1.369 . S
C1441 C1443 1.419 . S
C1441 H1445 0.930 . S
C1442 C1441 1.369 . S
C1442 C1451 1.429 . S
C1443 C1441 1.419 . S
C1443 C1444 1.363 . S
C1443 H1446 0.929 . S
C1444 C1443 1.363 . S
C1444 C1450 1.428 . S
H1445 C1441 0.930 . S
H1446 C1443 0.929 . S
S1447 N1448 1.613 . S
S1447 N1449 1.610 . S
N1448 S1447 1.613 . S
N1448 C1451 1.350 . S
N1449 S1447 1.610 . S
N1449 C1450 1.351 . S
C1450 C1444 1.428 . S
C1450 N1449 1.351 . S
C1450 C1451 1.434 . S
C1451 C1442 1.429 . S
C1451 N1448 1.350 . S
C1451 C1450 1.434 . S
C1452 C1453 1.369 . S
C1452 C1454 1.419 . S
C1452 H1456 0.930 . S
C1453 C1452 1.369 . S
C1453 C1462 1.429 . S
C1454 C1452 1.419 . S
C1454 C1455 1.363 . S
C1454 H1457 0.929 . S
C1455 C1454 1.363 . S
C1455 C1461 1.428 . S
H1456 C1452 0.930 . S
H1457 C1454 0.929 . S
S1458 N1459 1.613 . S
S1458 N1460 1.610 . S
N1459 S1458 1.613 . S
N1459 C1462 1.350 . S
N1460 S1458 1.610 . S
N1460 C1461 1.351 . S
C1461 C1455 1.428 . S
C1461 N1460 1.351 . S
C1461 C1462 1.434 . S
C1462 C1453 1.429 . S
C1462 N1459 1.350 . S
C1462 C1461 1.434 . S
C1463 C1464 1.369 . S
C1463 C1465 1.419 . S
C1463 H1467 0.930 . S
C1464 C1463 1.369 . S
C1464 C1473 1.429 . S
C1465 C1463 1.419 . S
C1465 C1466 1.363 . S
C1465 H1468 0.929 . S
C1466 C1465 1.363 . S
C1466 C1472 1.428 . S
H1467 C1463 0.930 . S
H1468 C1465 0.929 . S
S1469 N1470 1.613 . S
S1469 N1471 1.610 . S
N1470 S1469 1.613 . S
N1470 C1473 1.350 . S
N1471 S1469 1.610 . S
N1471 C1472 1.351 . S
C1472 C1466 1.428 . S
C1472 N1471 1.351 . S
C1472 C1473 1.434 . S
C1473 C1464 1.429 . S
C1473 N1470 1.350 . S
C1473 C1472 1.434 . S
C1474 C1475 1.369 . S
C1474 C1476 1.419 . S
C1474 H1478 0.930 . S
C1475 C1474 1.369 . S
C1475 C1484 1.429 . S
C1476 C1474 1.419 . S
C1476 C1477 1.363 . S
C1476 H1479 0.929 . S
C1477 C1476 1.363 . S
C1477 C1483 1.428 . S
H1478 C1474 0.930 . S
H1479 C1476 0.929 . S
S1480 N1481 1.613 . S
S1480 N1482 1.610 . S
N1481 S1480 1.613 . S
N1481 C1484 1.350 . S
N1482 S1480 1.610 . S
N1482 C1483 1.351 . S
C1483 C1477 1.428 . S
C1483 N1482 1.351 . S
C1483 C1484 1.434 . S
C1484 C1475 1.429 . S
C1484 N1481 1.350 . S
C1484 C1483 1.434 . S
C1485 C1486 1.369 . S
C1485 C1487 1.419 . S
C1485 H1489 0.930 . S
C1486 C1485 1.369 . S
C1486 C1495 1.429 . S
C1487 C1485 1.419 . S
C1487 C1488 1.363 . S
C1487 H1490 0.929 . S
C1488 C1487 1.363 . S
C1488 C1494 1.428 . S
H1489 C1485 0.930 . S
H1490 C1487 0.929 . S
S1491 N1492 1.613 . S
S1491 N1493 1.610 . S
N1492 S1491 1.613 . S
N1492 C1495 1.350 . S
N1493 S1491 1.610 . S
N1493 C1494 1.351 . S
C1494 C1488 1.428 . S
C1494 N1493 1.351 . S
C1494 C1495 1.434 . S
C1495 C1486 1.429 . S
C1495 N1492 1.350 . S
C1495 C1494 1.434 . S
C1496 C1497 1.369 . S
C1496 C1498 1.419 . S
C1496 H1500 0.930 . S
C1497 C1496 1.369 . S
C1497 C1506 1.429 . S
C1498 C1496 1.419 . S
C1498 C1499 1.363 . S
C1498 H1501 0.929 . S
C1499 C1498 1.363 . S
C1499 C1505 1.428 . S
H1500 C1496 0.930 . S
H1501 C1498 0.929 . S
S1502 N1503 1.613 . S
S1502 N1504 1.610 . S
N1503 S1502 1.613 . S
N1503 C1506 1.350 . S
N1504 S1502 1.610 . S
N1504 C1505 1.351 . S
C1505 C1499 1.428 . S
C1505 N1504 1.351 . S
C1505 C1506 1.434 . S
C1506 C1497 1.429 . S
C1506 N1503 1.350 . S
C1506 C1505 1.434 . S
C1507 C1508 1.369 . S
C1507 C1509 1.419 . S
C1507 H1511 0.930 . S
C1508 C1507 1.369 . S
C1508 C1517 1.429 . S
C1509 C1507 1.419 . S
C1509 C1510 1.363 . S
C1509 H1512 0.929 . S
C1510 C1509 1.363 . S
C1510 C1516 1.428 . S
H1511 C1507 0.930 . S
H1512 C1509 0.929 . S
S1513 N1514 1.613 . S
S1513 N1515 1.610 . S
N1514 S1513 1.613 . S
N1514 C1517 1.350 . S
N1515 S1513 1.610 . S
N1515 C1516 1.351 . S
C1516 C1510 1.428 . S
C1516 N1515 1.351 . S
C1516 C1517 1.434 . S
C1517 C1508 1.429 . S
C1517 N1514 1.350 . S
C1517 C1516 1.434 . S
C1518 C1519 1.369 . S
C1518 C1520 1.419 . S
C1518 H1522 0.930 . S
C1519 C1518 1.369 . S
C1519 C1528 1.429 . S
C1520 C1518 1.419 . S
C1520 C1521 1.363 1_556 S
C1520 H1523 0.929 1_556 S
C1521 C1520 1.363 1_554 S
C1521 C1527 1.429 . S
H1522 C1518 0.930 . S
H1523 C1520 0.929 1_554 S
S1524 N1525 1.613 . S
S1524 N1526 1.610 1_556 S
N1525 S1524 1.613 . S
N1525 C1528 1.350 . S
N1526 S1524 1.610 1_554 S
N1526 C1527 1.351 . S
C1527 C1521 1.429 . S
C1527 N1526 1.351 . S
C1527 C1528 1.433 1_554 S
C1528 C1519 1.429 . S
C1528 N1525 1.350 . S
C1528 C1527 1.433 1_556 S
C1529 C1530 1.369 . S
C1529 C1531 1.419 1_554 S
C1529 H1533 0.930 . S
C1530 C1529 1.369 . S
C1530 C1539 1.429 1_554 S
C1531 C1529 1.419 1_556 S
C1531 C1532 1.363 . S
C1531 H1534 0.929 . S
C1532 C1531 1.363 . S
C1532 C1538 1.428 . S
H1533 C1529 0.930 . S
H1534 C1531 0.929 . S
S1535 N1536 1.613 . S
S1535 N1537 1.610 . S
N1536 S1535 1.613 . S
N1536 C1539 1.350 . S
N1537 S1535 1.610 . S
N1537 C1538 1.351 . S
C1538 C1532 1.428 . S
C1538 N1537 1.351 . S
C1538 C1539 1.434 . S
C1539 C1530 1.429 1_556 S
C1539 N1536 1.350 . S
C1539 C1538 1.434 . S
C1540 C1541 1.369 . S
C1540 C1542 1.419 1_554 S
C1540 H1544 0.930 . S
C1541 C1540 1.369 . S
C1541 C1550 1.429 1_554 S
C1542 C1540 1.419 1_556 S
C1542 C1543 1.363 . S
C1542 H1545 0.929 . S
C1543 C1542 1.363 . S
C1543 C1549 1.428 . S
H1544 C1540 0.930 . S
H1545 C1542 0.929 . S
S1546 N1547 1.613 . S
S1546 N1548 1.610 . S
N1547 S1546 1.613 . S
N1547 C1550 1.350 . S
N1548 S1546 1.610 . S
N1548 C1549 1.351 . S
C1549 C1543 1.428 . S
C1549 N1548 1.351 . S
C1549 C1550 1.434 . S
C1550 C1541 1.429 1_556 S
C1550 N1547 1.350 . S
C1550 C1549 1.434 . S
C1551 C1552 1.369 1_554 S
C1551 C1553 1.419 1_554 S
C1551 H1555 0.930 . S
C1552 C1551 1.369 1_556 S
C1552 C1561 1.429 . S
C1553 C1551 1.419 1_556 S
C1553 C1554 1.363 . S
C1553 H1556 0.929 . S
C1554 C1553 1.363 . S
C1554 C1560 1.428 . S
H1555 C1551 0.930 . S
H1556 C1553 0.929 . S
S1557 N1558 1.613 . S
S1557 N1559 1.610 . S
N1558 S1557 1.613 . S
N1558 C1561 1.350 . S
N1559 S1557 1.610 . S
N1559 C1560 1.351 . S
C1560 C1554 1.428 . S
C1560 N1559 1.351 . S
C1560 C1561 1.434 . S
C1561 C1552 1.429 . S
C1561 N1558 1.350 . S
C1561 C1560 1.434 . S
C1562 C1563 1.369 . S
C1562 C1564 1.419 . S
C1562 H1566 0.930 1_556 S
C1563 C1562 1.369 . S
C1563 C1572 1.429 . S
C1564 C1562 1.419 . S
C1564 C1565 1.363 . S
C1564 H1567 0.929 . S
C1565 C1564 1.363 . S
C1565 C1571 1.428 . S
H1566 C1562 0.930 1_554 S
H1567 C1564 0.929 . S
S1568 N1569 1.613 . S
S1568 N1570 1.610 . S
N1569 S1568 1.613 . S
N1569 C1572 1.350 . S
N1570 S1568 1.610 . S
N1570 C1571 1.351 . S
C1571 C1565 1.428 . S
C1571 N1570 1.351 . S
C1571 C1572 1.434 . S
C1572 C1563 1.429 . S
C1572 N1569 1.350 . S
C1572 C1571 1.434 . S
C1573 C1574 1.369 . S
C1573 C1575 1.419 . S
C1573 H1577 0.930 . S
C1574 C1573 1.369 . S
C1574 C1583 1.429 . S
C1575 C1573 1.419 . S
C1575 C1576 1.363 . S
C1575 H1578 0.929 . S
C1576 C1575 1.363 . S
C1576 C1582 1.428 . S
H1577 C1573 0.930 . S
H1578 C1575 0.929 . S
S1579 N1580 1.613 . S
S1579 N1581 1.610 . S
N1580 S1579 1.613 . S
N1580 C1583 1.350 . S
N1581 S1579 1.610 . S
N1581 C1582 1.351 . S
C1582 C1576 1.428 . S
C1582 N1581 1.351 . S
C1582 C1583 1.434 . S
C1583 C1574 1.429 . S
C1583 N1580 1.350 . S
C1583 C1582 1.434 . S
C1584 C1585 1.369 . S
C1584 C1586 1.419 . S
C1584 H1588 0.930 . S
C1585 C1584 1.369 . S
C1585 C1594 1.429 . S
C1586 C1584 1.419 . S
C1586 C1587 1.363 . S
C1586 H1589 0.929 . S
C1587 C1586 1.363 . S
C1587 C1593 1.428 . S
H1588 C1584 0.930 . S
H1589 C1586 0.929 . S
S1590 N1591 1.613 . S
S1590 N1592 1.610 . S
N1591 S1590 1.613 . S
N1591 C1594 1.350 . S
N1592 S1590 1.610 . S
N1592 C1593 1.351 . S
C1593 C1587 1.428 . S
C1593 N1592 1.351 . S
C1593 C1594 1.434 . S
C1594 C1585 1.429 . S
C1594 N1591 1.350 . S
C1594 C1593 1.434 . S
C1595 C1596 1.369 . S
C1595 C1597 1.405 1_545 S
C1595 H1599 0.930 . S
C1596 C1595 1.369 . S
C1596 C1605 1.395 1_545 S
C1597 C1595 1.405 1_565 S
C1597 C1598 1.386 . S
C1597 H1600 0.918 . S
C1598 C1597 1.386 . S
C1598 C1604 1.428 . S
H1599 C1595 0.930 . S
H1600 C1597 0.918 . S
S1601 N1602 1.613 . S
S1601 N1603 1.610 . S
N1602 S1601 1.613 . S
N1602 C1605 1.367 . S
N1603 S1601 1.610 . S
N1603 C1604 1.351 . S
C1604 C1598 1.428 . S
C1604 N1603 1.351 . S
C1604 C1605 1.455 . S
C1605 C1596 1.395 1_565 S
C1605 N1602 1.367 . S
C1605 C1604 1.455 . S
C1606 C1607 1.369 . S
C1606 C1608 1.419 . S
C1606 H1610 0.930 . S
C1607 C1606 1.369 . S
C1607 C1616 1.429 1_655 S
C1608 C1606 1.419 . S
C1608 C1609 1.363 1_655 S
C1608 H1611 0.929 . S
C1609 C1608 1.363 1_455 S
C1609 C1615 1.428 . S
H1610 C1606 0.930 . S
H1611 C1608 0.929 . S
S1612 N1613 1.613 . S
S1612 N1614 1.610 . S
N1613 S1612 1.613 . S
N1613 C1616 1.350 . S
N1614 S1612 1.610 . S
N1614 C1615 1.351 . S
C1615 C1609 1.428 . S
C1615 N1614 1.351 . S
C1615 C1616 1.434 . S
C1616 C1607 1.429 1_455 S
C1616 N1613 1.350 . S
C1616 C1615 1.434 . S
C1617 C1618 1.369 . S
C1617 C1619 1.419 . S
C1617 H1621 0.930 . S
C1618 C1617 1.369 . S
C1618 C1627 1.429 . S
C1619 C1617 1.419 . S
C1619 C1620 1.363 . S
C1619 H1622 0.929 . S
C1620 C1619 1.363 . S
C1620 C1626 1.428 . S
H1621 C1617 0.930 . S
H1622 C1619 0.929 . S
S1623 N1624 1.613 . S
S1623 N1625 1.610 . S
N1624 S1623 1.613 . S
N1624 C1627 1.350 . S
N1625 S1623 1.610 . S
N1625 C1626 1.351 . S
C1626 C1620 1.428 . S
C1626 N1625 1.351 . S
C1626 C1627 1.434 . S
C1627 C1618 1.429 . S
C1627 N1624 1.350 . S
C1627 C1626 1.434 . S
C1628 C1629 1.369 . S
C1628 C1630 1.419 . S
C1628 H1632 0.930 . S
C1629 C1628 1.369 . S
C1629 C1638 1.429 1_565 S
C1630 C1628 1.419 . S
C1630 C1631 1.363 1_565 S
C1630 H1633 0.929 . S
C1631 C1630 1.363 1_545 S
C1631 C1637 1.428 . S
H1632 C1628 0.930 . S
H1633 C1630 0.929 . S
S1634 N1635 1.613 . S
S1634 N1636 1.610 . S
N1635 S1634 1.613 . S
N1635 C1638 1.350 . S
N1636 S1634 1.610 . S
N1636 C1637 1.351 . S
C1637 C1631 1.428 . S
C1637 N1636 1.351 . S
C1637 C1638 1.434 . S
C1638 C1629 1.429 1_545 S
C1638 N1635 1.350 . S
C1638 C1637 1.434 . S
C1639 C1640 1.369 . S
C1639 C1641 1.419 . S
C1639 H1643 0.930 . S
C1640 C1639 1.369 . S
C1640 C1649 1.429 1_655 S
C1641 C1639 1.419 . S
C1641 C1642 1.363 1_655 S
C1641 H1644 0.929 . S
C1642 C1641 1.363 1_455 S
C1642 C1648 1.428 . S
H1643 C1639 0.930 . S
H1644 C1641 0.929 . S
S1645 N1646 1.613 . S
S1645 N1647 1.610 . S
N1646 S1645 1.613 . S
N1646 C1649 1.350 . S
N1647 S1645 1.610 . S
N1647 C1648 1.351 . S
C1648 C1642 1.428 . S
C1648 N1647 1.351 . S
C1648 C1649 1.434 . S
C1649 C1640 1.429 1_455 S
C1649 N1646 1.350 . S
C1649 C1648 1.434 . S
C1650 C1651 1.369 . S
C1650 C1652 1.419 . S
C1650 H1654 0.930 . S
C1651 C1650 1.369 . S
C1651 C1660 1.429 . S
C1652 C1650 1.419 . S
C1652 C1653 1.363 . S
C1652 H1655 0.929 . S
C1653 C1652 1.363 . S
C1653 C1659 1.428 . S
H1654 C1650 0.930 . S
H1655 C1652 0.929 . S
S1656 N1657 1.613 . S
S1656 N1658 1.610 . S
N1657 S1656 1.613 . S
N1657 C1660 1.350 . S
N1658 S1656 1.610 . S
N1658 C1659 1.351 . S
C1659 C1653 1.428 . S
C1659 N1658 1.351 . S
C1659 C1660 1.434 . S
C1660 C1651 1.429 . S
C1660 N1657 1.350 . S
C1660 C1659 1.434 . S
C1661 C1662 1.369 . S
C1661 C1663 1.419 . S
C1661 H1665 0.930 . S
C1662 C1661 1.369 . S
C1662 C1671 1.429 . S
C1663 C1661 1.419 . S
C1663 C1664 1.363 . S
C1663 H1666 0.929 . S
C1664 C1663 1.363 . S
C1664 C1670 1.428 . S
H1665 C1661 0.930 . S
H1666 C1663 0.929 . S
S1667 N1668 1.613 . S
S1667 N1669 1.610 . S
N1668 S1667 1.613 . S
N1668 C1671 1.350 . S
N1669 S1667 1.610 . S
N1669 C1670 1.351 . S
C1670 C1664 1.428 . S
C1670 N1669 1.351 . S
C1670 C1671 1.434 . S
C1671 C1662 1.429 . S
C1671 N1668 1.350 . S
C1671 C1670 1.434 . S
C1672 C1673 1.369 . S
C1672 C1674 1.419 . S
C1672 H1676 0.930 . S
C1673 C1672 1.369 . S
C1673 C1682 1.429 . S
C1674 C1672 1.419 . S
C1674 C1675 1.363 . S
C1674 H1677 0.929 . S
C1675 C1674 1.363 . S
C1675 C1681 1.428 . S
H1676 C1672 0.930 . S
H1677 C1674 0.929 . S
S1678 N1679 1.613 . S
S1678 N1680 1.610 . S
N1679 S1678 1.613 . S
N1679 C1682 1.350 . S
N1680 S1678 1.610 . S
N1680 C1681 1.351 . S
C1681 C1675 1.428 . S
C1681 N1680 1.351 . S
C1681 C1682 1.434 . S
C1682 C1673 1.429 . S
C1682 N1679 1.350 . S
C1682 C1681 1.434 . S
C1683 C1684 1.369 . S
C1683 C1685 1.419 . S
C1683 H1687 0.930 . S
C1684 C1683 1.369 . S
C1684 C1693 1.429 . S
C1685 C1683 1.419 . S
C1685 C1686 1.363 . S
C1685 H1688 0.929 1_554 S
C1686 C1685 1.363 . S
C1686 C1692 1.428 . S
H1687 C1683 0.930 . S
H1688 C1685 0.929 1_556 S
S1689 N1690 1.613 . S
S1689 N1691 1.610 . S
N1690 S1689 1.613 . S
N1690 C1693 1.350 . S
N1691 S1689 1.610 . S
N1691 C1692 1.351 . S
C1692 C1686 1.428 . S
C1692 N1691 1.351 . S
C1692 C1693 1.434 . S
C1693 C1684 1.429 . S
C1693 N1690 1.350 . S
C1693 C1692 1.434 . S
C1694 C1695 1.369 . S
C1694 C1696 1.419 . S
C1694 H1698 0.930 . S
C1695 C1694 1.369 . S
C1695 C1704 1.429 . S
C1696 C1694 1.419 . S
C1696 C1697 1.363 . S
C1696 H1699 0.929 . S
C1697 C1696 1.363 . S
C1697 C1703 1.428 . S
H1698 C1694 0.930 . S
H1699 C1696 0.929 . S
S1700 N1701 1.613 . S
S1700 N1702 1.610 1_556 S
N1701 S1700 1.613 . S
N1701 C1704 1.350 1_556 S
N1702 S1700 1.610 1_554 S
N1702 C1703 1.351 . S
C1703 C1697 1.428 . S
C1703 N1702 1.351 . S
C1703 C1704 1.434 . S
C1704 C1695 1.429 . S
C1704 N1701 1.350 1_554 S
C1704 C1703 1.434 . S
C1705 C1706 1.369 . S
C1705 C1707 1.419 . S
C1705 H1709 0.930 . S
C1706 C1705 1.369 . S
C1706 C1715 1.429 . S
C1707 C1705 1.419 . S
C1707 C1708 1.363 . S
C1707 H1710 0.929 . S
C1708 C1707 1.363 . S
C1708 C1714 1.428 . S
H1709 C1705 0.930 . S
H1710 C1707 0.929 . S
S1711 N1712 1.613 . S
S1711 N1713 1.610 1_556 S
N1712 S1711 1.613 . S
N1712 C1715 1.350 1_556 S
N1713 S1711 1.610 1_554 S
N1713 C1714 1.351 . S
C1714 C1708 1.428 . S
C1714 N1713 1.351 . S
C1714 C1715 1.434 . S
C1715 C1706 1.429 . S
C1715 N1712 1.350 1_554 S
C1715 C1714 1.434 . S
C1716 C1717 1.369 . S
C1716 C1718 1.419 . S
C1716 H1720 0.930 . S
C1717 C1716 1.369 . S
C1717 C1726 1.429 . S
C1718 C1716 1.419 . S
C1718 C1719 1.363 1_556 S
C1718 H1721 0.929 1_556 S
C1719 C1718 1.363 1_554 S
C1719 C1725 1.428 1_554 S
H1720 C1716 0.930 . S
H1721 C1718 0.929 1_554 S
S1722 N1723 1.613 . S
S1722 N1724 1.610 . S
N1723 S1722 1.613 . S
N1723 C1726 1.350 . S
N1724 S1722 1.610 . S
N1724 C1725 1.351 . S
C1725 C1719 1.428 1_556 S
C1725 N1724 1.351 . S
C1725 C1726 1.434 . S
C1726 C1717 1.429 . S
C1726 N1723 1.350 . S
C1726 C1725 1.434 . S
C1727 C1728 1.369 . S
C1727 C1729 1.419 1_554 S
C1727 H1731 0.930 . S
C1728 C1727 1.369 . S
C1728 C1737 1.429 1_554 S
C1729 C1727 1.419 1_556 S
C1729 C1730 1.363 . S
C1729 H1732 0.929 . S
C1730 C1729 1.363 . S
C1730 C1736 1.428 . S
H1731 C1727 0.930 . S
H1732 C1729 0.929 . S
S1733 N1734 1.613 . S
S1733 N1735 1.610 . S
N1734 S1733 1.613 . S
N1734 C1737 1.350 . S
N1735 S1733 1.610 . S
N1735 C1736 1.351 . S
C1736 C1730 1.428 . S
C1736 N1735 1.351 . S
C1736 C1737 1.434 . S
C1737 C1728 1.429 1_556 S
C1737 N1734 1.350 . S
C1737 C1736 1.434 . S
C1738 C1739 1.369 . S
C1738 C1740 1.419 . S
C1738 H1742 0.930 . S
C1739 C1738 1.369 . S
C1739 C1748 1.429 . S
C1740 C1738 1.419 . S
C1740 C1741 1.363 1_556 S
C1740 H1743 0.929 . S
C1741 C1740 1.363 1_554 S
C1741 C1747 1.428 . S
H1742 C1738 0.930 . S
H1743 C1740 0.929 . S
S1744 N1745 1.613 1_554 S
S1744 N1746 1.610 . S
N1745 S1744 1.613 1_556 S
N1745 C1748 1.350 . S
N1746 S1744 1.610 . S
N1746 C1747 1.351 . S
C1747 C1741 1.428 . S
C1747 N1746 1.351 . S
C1747 C1748 1.434 1_554 S
C1748 C1739 1.429 . S
C1748 N1745 1.350 . S
C1748 C1747 1.434 1_556 S
C1749 C1750 1.369 . S
C1749 C1751 1.419 . S
C1749 H1753 0.930 . S
C1750 C1749 1.369 . S
C1750 C1759 1.429 . S
C1751 C1749 1.419 . S
C1751 C1752 1.363 . S
C1751 H1754 0.929 . S
C1752 C1751 1.363 . S
C1752 C1758 1.428 . S
H1753 C1749 0.930 . S
H1754 C1751 0.929 . S
S1755 N1756 1.613 . S
S1755 N1757 1.610 . S
N1756 S1755 1.613 . S
N1756 C1759 1.350 . S
N1757 S1755 1.610 . S
N1757 C1758 1.351 . S
C1758 C1752 1.428 . S
C1758 N1757 1.351 . S
C1758 C1759 1.434 . S
C1759 C1750 1.429 . S
C1759 N1756 1.350 . S
C1759 C1758 1.434 . S
C1760 C1761 1.369 . S
C1760 C1762 1.419 . S
C1760 H1764 0.930 . S
C1761 C1760 1.369 . S
C1761 C1770 1.429 . S
C1762 C1760 1.419 . S
C1762 C1763 1.363 . S
C1762 H1765 0.929 . S
C1763 C1762 1.363 . S
C1763 C1769 1.428 . S
H1764 C1760 0.930 . S
H1765 C1762 0.929 . S
S1766 N1767 1.613 . S
S1766 N1768 1.610 . S
N1767 S1766 1.613 . S
N1767 C1770 1.350 . S
N1768 S1766 1.610 . S
N1768 C1769 1.351 . S
C1769 C1763 1.428 . S
C1769 N1768 1.351 . S
C1769 C1770 1.434 . S
C1770 C1761 1.429 . S
C1770 N1767 1.350 . S
C1770 C1769 1.434 . S
C1771 C1772 1.369 . S
C1771 C1773 1.419 . S
C1771 H1775 0.930 . S
C1772 C1771 1.369 . S
C1772 C1781 1.429 . S
C1773 C1771 1.419 . S
C1773 C1774 1.363 . S
C1773 H1776 0.929 . S
C1774 C1773 1.363 . S
C1774 C1780 1.428 . S
H1775 C1771 0.930 . S
H1776 C1773 0.929 . S
S1777 N1778 1.613 . S
S1777 N1779 1.610 . S
N1778 S1777 1.613 . S
N1778 C1781 1.350 . S
N1779 S1777 1.610 . S
N1779 C1780 1.351 . S
C1780 C1774 1.428 . S
C1780 N1779 1.351 . S
C1780 C1781 1.434 . S
C1781 C1772 1.429 . S
C1781 N1778 1.350 . S
C1781 C1780 1.434 . S
C1782 C1783 1.369 . S
C1782 C1784 1.419 . S
C1782 H1786 0.930 . S
C1783 C1782 1.369 . S
C1783 C1792 1.429 . S
C1784 C1782 1.419 . S
C1784 C1785 1.363 . S
C1784 H1787 0.929 . S
C1785 C1784 1.363 . S
C1785 C1791 1.428 . S
H1786 C1782 0.930 . S
H1787 C1784 0.929 . S
S1788 N1789 1.613 . S
S1788 N1790 1.610 . S
N1789 S1788 1.613 . S
N1789 C1792 1.350 . S
N1790 S1788 1.610 . S
N1790 C1791 1.351 . S
C1791 C1785 1.428 . S
C1791 N1790 1.351 . S
C1791 C1792 1.434 . S
C1792 C1783 1.429 . S
C1792 N1789 1.350 . S
C1792 C1791 1.434 . S
C1793 C1794 1.369 . S
C1793 C1795 1.419 1_545 S
C1793 H1797 0.930 . S
C1794 C1793 1.369 . S
C1794 C1803 1.429 . S
C1795 C1793 1.419 1_565 S
C1795 C1796 1.363 . S
C1795 H1798 0.929 . S
C1796 C1795 1.363 . S
C1796 C1802 1.428 . S
H1797 C1793 0.930 . S
H1798 C1795 0.929 . S
S1799 N1800 1.578 1_565 S
S1799 N1801 1.610 . S
N1800 S1799 1.578 1_545 S
N1800 C1803 1.334 . S
N1801 S1799 1.610 . S
N1801 C1802 1.351 . S
C1802 C1796 1.428 . S
C1802 N1801 1.351 . S
C1802 C1803 1.434 1_565 S
C1803 C1794 1.429 . S
C1803 N1800 1.334 . S
C1803 C1802 1.434 1_545 S
C1804 C1805 1.419 . S
C1804 C1806 1.381 1_455 S
C1804 H1808 0.926 . S
C1805 C1804 1.419 . S
C1805 C1814 1.429 . S
C1806 C1804 1.381 1_655 S
C1806 C1807 1.363 . S
C1806 H1809 0.929 . S
C1807 C1806 1.363 . S
C1807 C1813 1.439 . S
H1808 C1804 0.926 . S
H1809 C1806 0.929 . S
S1810 N1811 1.613 . S
S1810 N1812 1.610 . S
N1811 S1810 1.613 . S
N1811 C1814 1.350 . S
N1812 S1810 1.610 . S
N1812 C1813 1.347 1_455 S
C1813 C1807 1.439 . S
C1813 N1812 1.347 1_655 S
C1813 C1814 1.425 1_655 S
C1814 C1805 1.429 . S
C1814 N1811 1.350 . S
C1814 C1813 1.425 1_455 S
C1815 C1816 1.369 . S
C1815 C1817 1.419 . S
C1815 H1819 0.930 . S
C1816 C1815 1.369 . S
C1816 C1825 1.429 . S
C1817 C1815 1.419 . S
C1817 C1818 1.363 . S
C1817 H1820 0.929 . S
C1818 C1817 1.363 . S
C1818 C1824 1.428 . S
H1819 C1815 0.930 . S
H1820 C1817 0.929 . S
S1821 N1822 1.613 . S
S1821 N1823 1.610 . S
N1822 S1821 1.613 . S
N1822 C1825 1.350 . S
N1823 S1821 1.610 . S
N1823 C1824 1.351 . S
C1824 C1818 1.428 . S
C1824 N1823 1.351 . S
C1824 C1825 1.434 . S
C1825 C1816 1.429 . S
C1825 N1822 1.350 . S
C1825 C1824 1.434 . S
C1826 C1827 1.369 . S
C1826 C1828 1.419 1_545 S
C1826 H1830 0.930 . S
C1827 C1826 1.369 . S
C1827 C1836 1.429 . S
C1828 C1826 1.419 1_565 S
C1828 C1829 1.363 . S
C1828 H1831 0.929 . S
C1829 C1828 1.363 . S
C1829 C1835 1.428 . S
H1830 C1826 0.930 . S
H1831 C1828 0.929 . S
S1832 N1833 1.613 . S
S1832 N1834 1.610 1_545 S
N1833 S1832 1.613 . S
N1833 C1836 1.350 . S
N1834 S1832 1.610 1_565 S
N1834 C1835 1.351 . S
C1835 C1829 1.428 . S
C1835 N1834 1.351 . S
C1835 C1836 1.434 1_565 S
C1836 C1827 1.429 . S
C1836 N1833 1.350 . S
C1836 C1835 1.434 1_545 S
C1837 C1838 1.385 . S
C1837 C1839 1.388 1_655 S
C1837 H1841 0.933 . S
C1838 C1837 1.385 . S
C1838 C1847 1.429 . S
C1839 C1837 1.388 1_455 S
C1839 C1840 1.363 . S
C1839 H1842 0.929 . S
C1840 C1839 1.363 . S
C1840 C1846 1.435 . S
H1841 C1837 0.933 . S
H1842 C1839 0.929 . S
S1843 N1844 1.613 . S
S1843 N1845 1.638 . S
N1844 S1843 1.613 . S
N1844 C1847 1.350 . S
N1845 S1843 1.638 . S
N1845 C1846 1.381 1_655 S
C1846 C1840 1.435 . S
C1846 N1845 1.381 1_455 S
C1846 C1847 1.420 1_455 S
C1847 C1838 1.429 . S
C1847 N1844 1.350 . S
C1847 C1846 1.420 1_655 S
C1848 C1849 1.369 . S
C1848 C1850 1.419 . S
C1848 H1852 0.930 . S
C1849 C1848 1.369 . S
C1849 C1858 1.429 . S
C1850 C1848 1.419 . S
C1850 C1851 1.363 . S
C1850 H1853 0.929 . S
C1851 C1850 1.363 . S
C1851 C1857 1.428 . S
H1852 C1848 0.930 . S
H1853 C1850 0.929 . S
S1854 N1855 1.613 1_556 S
S1854 N1856 1.610 . S
N1855 S1854 1.613 1_554 S
N1855 C1858 1.350 . S
N1856 S1854 1.610 . S
N1856 C1857 1.351 1_556 S
C1857 C1851 1.428 . S
C1857 N1856 1.351 1_554 S
C1857 C1858 1.434 . S
C1858 C1849 1.429 . S
C1858 N1855 1.350 . S
C1858 C1857 1.434 . S
C1859 C1860 1.369 . S
C1859 C1861 1.419 . S
C1859 H1863 0.930 . S
C1860 C1859 1.369 . S
C1860 C1869 1.429 . S
C1861 C1859 1.419 . S
C1861 C1862 1.363 . S
C1861 H1864 0.929 1_554 S
C1862 C1861 1.363 . S
C1862 C1868 1.428 . S
H1863 C1859 0.930 . S
H1864 C1861 0.929 1_556 S
S1865 N1866 1.613 . S
S1865 N1867 1.610 . S
N1866 S1865 1.613 . S
N1866 C1869 1.350 . S
N1867 S1865 1.610 . S
N1867 C1868 1.351 . S
C1868 C1862 1.428 . S
C1868 N1867 1.351 . S
C1868 C1869 1.434 . S
C1869 C1860 1.429 . S
C1869 N1866 1.350 . S
C1869 C1868 1.434 . S
C1870 C1871 1.369 . S
C1870 C1872 1.419 . S
C1870 H1874 0.930 . S
C1871 C1870 1.369 . S
C1871 C1880 1.429 . S
C1872 C1870 1.419 . S
C1872 C1873 1.363 . S
C1872 H1875 0.929 . S
C1873 C1872 1.363 . S
C1873 C1879 1.428 . S
H1874 C1870 0.930 . S
H1875 C1872 0.929 . S
S1876 N1877 1.613 . S
S1876 N1878 1.610 1_556 S
N1877 S1876 1.613 . S
N1877 C1880 1.350 1_556 S
N1878 S1876 1.610 1_554 S
N1878 C1879 1.351 . S
C1879 C1873 1.428 . S
C1879 N1878 1.351 . S
C1879 C1880 1.434 . S
C1880 C1871 1.429 . S
C1880 N1877 1.350 1_554 S
C1880 C1879 1.434 . S
C1881 C1882 1.369 . S
C1881 C1883 1.419 . S
C1881 H1885 0.930 . S
C1882 C1881 1.369 . S
C1882 C1891 1.429 . S
C1883 C1881 1.419 . S
C1883 C1884 1.363 . S
C1883 H1886 0.929 . S
C1884 C1883 1.363 . S
C1884 C1890 1.428 . S
H1885 C1881 0.930 . S
H1886 C1883 0.929 . S
S1887 N1888 1.613 . S
S1887 N1889 1.610 . S
N1888 S1887 1.613 . S
N1888 C1891 1.350 . S
N1889 S1887 1.610 . S
N1889 C1890 1.351 . S
C1890 C1884 1.428 . S
C1890 N1889 1.351 . S
C1890 C1891 1.434 . S
C1891 C1882 1.429 . S
C1891 N1888 1.350 . S
C1891 C1890 1.434 . S
C1892 C1893 1.369 . S
C1892 C1894 1.419 . S
C1892 H1896 0.930 . S
C1893 C1892 1.369 . S
C1893 C1902 1.429 . S
C1894 C1892 1.419 . S
C1894 C1895 1.363 . S
C1894 H1897 0.929 . S
C1895 C1894 1.363 . S
C1895 C1901 1.428 . S
H1896 C1892 0.930 . S
H1897 C1894 0.929 . S
S1898 N1899 1.613 . S
S1898 N1900 1.610 . S
N1899 S1898 1.613 . S
N1899 C1902 1.350 . S
N1900 S1898 1.610 . S
N1900 C1901 1.351 . S
C1901 C1895 1.428 . S
C1901 N1900 1.351 . S
C1901 C1902 1.434 . S
C1902 C1893 1.429 . S
C1902 N1899 1.350 . S
C1902 C1901 1.434 . S
C1903 C1904 1.369 . S
C1903 C1905 1.419 . S
C1903 H1907 0.930 . S
C1904 C1903 1.369 . S
C1904 C1913 1.429 . S
C1905 C1903 1.419 . S
C1905 C1906 1.363 . S
C1905 H1908 0.929 . S
C1906 C1905 1.363 . S
C1906 C1912 1.428 . S
H1907 C1903 0.930 . S
H1908 C1905 0.929 . S
S1909 N1910 1.613 . S
S1909 N1911 1.610 . S
N1910 S1909 1.613 . S
N1910 C1913 1.350 . S
N1911 S1909 1.610 . S
N1911 C1912 1.351 . S
C1912 C1906 1.428 . S
C1912 N1911 1.351 . S
C1912 C1913 1.434 . S
C1913 C1904 1.429 . S
C1913 N1910 1.350 . S
C1913 C1912 1.434 . S
C1914 C1915 1.369 . S
C1914 C1916 1.419 . S
C1914 H1918 0.930 . S
C1915 C1914 1.369 . S
C1915 C1924 1.429 . S
C1916 C1914 1.419 . S
C1916 C1917 1.363 . S
C1916 H1919 0.929 . S
C1917 C1916 1.363 . S
C1917 C1923 1.428 . S
H1918 C1914 0.930 . S
H1919 C1916 0.929 . S
S1920 N1921 1.613 . S
S1920 N1922 1.610 . S
N1921 S1920 1.613 . S
N1921 C1924 1.350 . S
N1922 S1920 1.610 . S
N1922 C1923 1.351 . S
C1923 C1917 1.428 . S
C1923 N1922 1.351 . S
C1923 C1924 1.434 . S
C1924 C1915 1.429 . S
C1924 N1921 1.350 . S
C1924 C1923 1.434 . S
C1925 C1926 1.369 . S
C1925 C1927 1.419 . S
C1925 H1929 0.930 . S
C1926 C1925 1.369 . S
C1926 C1935 1.429 . S
C1927 C1925 1.419 . S
C1927 C1928 1.363 . S
C1927 H1930 0.929 . S
C1928 C1927 1.363 . S
C1928 C1934 1.428 . S
H1929 C1925 0.930 . S
H1930 C1927 0.929 . S
S1931 N1932 1.613 . S
S1931 N1933 1.610 . S
N1932 S1931 1.613 . S
N1932 C1935 1.350 . S
N1933 S1931 1.610 . S
N1933 C1934 1.351 . S
C1934 C1928 1.428 . S
C1934 N1933 1.351 . S
C1934 C1935 1.434 . S
C1935 C1926 1.429 . S
C1935 N1932 1.350 . S
C1935 C1934 1.434 . S
C1936 C1937 1.369 . S
C1936 C1938 1.419 . S
C1936 H1940 0.930 . S
C1937 C1936 1.369 . S
C1937 C1946 1.429 . S
C1938 C1936 1.419 . S
C1938 C1939 1.363 . S
C1938 H1941 0.929 . S
C1939 C1938 1.363 . S
C1939 C1945 1.428 . S
H1940 C1936 0.930 . S
H1941 C1938 0.929 . S
S1942 N1943 1.613 . S
S1942 N1944 1.610 . S
N1943 S1942 1.613 . S
N1943 C1946 1.350 . S
N1944 S1942 1.610 . S
N1944 C1945 1.351 . S
C1945 C1939 1.428 . S
C1945 N1944 1.351 . S
C1945 C1946 1.434 . S
C1946 C1937 1.429 . S
C1946 N1943 1.350 . S
C1946 C1945 1.434 . S
C1947 C1948 1.369 1_556 S
C1947 C1949 1.419 . S
C1947 H1951 0.930 1_556 S
C1948 C1947 1.369 1_554 S
C1948 C1957 1.429 1_554 S
C1949 C1947 1.419 . S
C1949 C1950 1.363 . S
C1949 H1952 0.929 . S
C1950 C1949 1.363 . S
C1950 C1956 1.428 . S
H1951 C1947 0.930 1_554 S
H1952 C1949 0.929 . S
S1953 N1954 1.613 . S
S1953 N1955 1.610 . S
N1954 S1953 1.613 . S
N1954 C1957 1.350 . S
N1955 S1953 1.610 . S
N1955 C1956 1.351 . S
C1956 C1950 1.428 . S
C1956 N1955 1.351 . S
C1956 C1957 1.434 . S
C1957 C1948 1.429 1_556 S
C1957 N1954 1.350 . S
C1957 C1956 1.434 . S
C1958 C1959 1.369 1_556 S
C1958 C1960 1.419 . S
C1958 H1962 0.930 . S
C1959 C1958 1.369 1_554 S
C1959 C1968 1.429 . S
C1960 C1958 1.419 . S
C1960 C1961 1.363 . S
C1960 H1963 0.929 . S
C1961 C1960 1.363 . S
C1961 C1967 1.428 . S
H1962 C1958 0.930 . S
H1963 C1960 0.929 . S
S1964 N1965 1.613 . S
S1964 N1966 1.610 1_554 S
N1965 S1964 1.613 . S
N1965 C1968 1.350 . S
N1966 S1964 1.610 1_556 S
N1966 C1967 1.351 . S
C1967 C1961 1.428 . S
C1967 N1966 1.351 . S
C1967 C1968 1.434 1_556 S
C1968 C1959 1.429 . S
C1968 N1965 1.350 . S
C1968 C1967 1.434 1_554 S
C1969 C1970 1.369 . S
C1969 C1971 1.419 1_554 S
C1969 H1973 0.930 . S
C1970 C1969 1.369 . S
C1970 C1979 1.429 1_554 S
C1971 C1969 1.419 1_556 S
C1971 C1972 1.363 . S
C1971 H1974 0.929 . S
C1972 C1971 1.363 . S
C1972 C1978 1.428 . S
H1973 C1969 0.930 . S
H1974 C1971 0.929 . S
S1975 N1976 1.613 . S
S1975 N1977 1.610 . S
N1976 S1975 1.613 . S
N1976 C1979 1.350 . S
N1977 S1975 1.610 . S
N1977 C1978 1.351 . S
C1978 C1972 1.428 . S
C1978 N1977 1.351 . S
C1978 C1979 1.434 . S
C1979 C1970 1.429 1_556 S
C1979 N1976 1.350 . S
C1979 C1978 1.434 . S
C1980 C1981 1.369 . S
C1980 C1982 1.419 . S
C1980 H1984 0.930 . S
C1981 C1980 1.369 . S
C1981 C1990 1.429 1_556 S
C1982 C1980 1.419 . S
C1982 C1983 1.363 . S
C1982 H1985 0.929 . S
C1983 C1982 1.363 . S
C1983 C1989 1.428 . S
H1984 C1980 0.930 . S
H1985 C1982 0.929 . S
S1986 N1987 1.613 . S
S1986 N1988 1.610 . S
N1987 S1986 1.613 . S
N1987 C1990 1.350 . S
N1988 S1986 1.610 . S
N1988 C1989 1.351 1_554 S
C1989 C1983 1.428 . S
C1989 N1988 1.351 1_556 S
C1989 C1990 1.434 1_556 S
C1990 C1981 1.429 1_554 S
C1990 N1987 1.350 . S
C1990 C1989 1.434 1_554 S
C1991 C1992 1.369 1_554 S
C1991 C1993 1.419 1_554 S
C1991 H1995 0.930 . S
C1992 C1991 1.369 1_556 S
C1992 C2001 1.429 . S
C1993 C1991 1.419 1_556 S
C1993 C1994 1.363 . S
C1993 H1996 0.929 1_556 S
C1994 C1993 1.363 . S
C1994 C2000 1.428 . S
H1995 C1991 0.930 . S
H1996 C1993 0.929 1_554 S
S1997 N1998 1.613 . S
S1997 N1999 1.610 . S
N1998 S1997 1.613 . S
N1998 C2001 1.350 . S
N1999 S1997 1.610 . S
N1999 C2000 1.351 . S
C2000 C1994 1.428 . S
C2000 N1999 1.351 . S
C2000 C2001 1.434 . S
C2001 C1992 1.429 . S
C2001 N1998 1.350 . S
C2001 C2000 1.434 . S
C2002 C2003 1.369 . S
C2002 C2004 1.419 1_556 S
C2002 H2006 0.930 1_556 S
C2003 C2002 1.369 . S
C2003 C2012 1.429 . S
C2004 C2002 1.419 1_554 S
C2004 C2005 1.363 1_554 S
C2004 H2007 0.929 . S
C2005 C2004 1.363 1_556 S
C2005 C2011 1.428 . S
H2006 C2002 0.930 1_554 S
H2007 C2004 0.929 . S
S2008 N2009 1.613 . S
S2008 N2010 1.610 . S
N2009 S2008 1.613 . S
N2009 C2012 1.350 . S
N2010 S2008 1.610 . S
N2010 C2011 1.351 . S
C2011 C2005 1.428 . S
C2011 N2010 1.351 . S
C2011 C2012 1.434 . S
C2012 C2003 1.429 . S
C2012 N2009 1.350 . S
C2012 C2011 1.434 . S
C2013 C2014 1.369 . S
C2013 C2015 1.419 . S
C2013 H2017 0.930 . S
C2014 C2013 1.369 . S
C2014 C2023 1.429 . S
C2015 C2013 1.419 . S
C2015 C2016 1.363 . S
C2015 H2018 0.929 . S
C2016 C2015 1.363 . S
C2016 C2022 1.428 . S
H2017 C2013 0.930 . S
H2018 C2015 0.929 . S
S2019 N2020 1.613 . S
S2019 N2021 1.610 . S
N2020 S2019 1.613 . S
N2020 C2023 1.350 . S
N2021 S2019 1.610 . S
N2021 C2022 1.351 . S
C2022 C2016 1.428 . S
C2022 N2021 1.351 . S
C2022 C2023 1.434 . S
C2023 C2014 1.429 . S
C2023 N2020 1.350 . S
C2023 C2022 1.434 . S
C2024 C2025 1.369 . S
C2024 C2026 1.419 . S
C2024 H2028 0.930 . S
C2025 C2024 1.369 . S
C2025 C2034 1.429 . S
C2026 C2024 1.419 . S
C2026 C2027 1.363 . S
C2026 H2029 0.929 . S
C2027 C2026 1.363 . S
C2027 C2033 1.428 . S
H2028 C2024 0.930 . S
H2029 C2026 0.929 . S
S2030 N2031 1.613 . S
S2030 N2032 1.610 . S
N2031 S2030 1.613 . S
N2031 C2034 1.350 . S
N2032 S2030 1.610 . S
N2032 C2033 1.351 . S
C2033 C2027 1.428 . S
C2033 N2032 1.351 . S
C2033 C2034 1.434 . S
C2034 C2025 1.429 . S
C2034 N2031 1.350 . S
C2034 C2033 1.434 . S
C2035 C2036 1.369 . S
C2035 C2037 1.419 . S
C2035 H2039 0.930 . S
C2036 C2035 1.369 . S
C2036 C2045 1.429 . S
C2037 C2035 1.419 . S
C2037 C2038 1.363 . S
C2037 H2040 0.929 . S
C2038 C2037 1.363 . S
C2038 C2044 1.428 . S
H2039 C2035 0.930 . S
H2040 C2037 0.929 . S
S2041 N2042 1.613 . S
S2041 N2043 1.610 . S
N2042 S2041 1.613 . S
N2042 C2045 1.350 . S
N2043 S2041 1.610 . S
N2043 C2044 1.351 . S
C2044 C2038 1.428 . S
C2044 N2043 1.351 . S
C2044 C2045 1.434 . S
C2045 C2036 1.429 . S
C2045 N2042 1.350 . S
C2045 C2044 1.434 . S
C2046 C2047 1.369 . S
C2046 C2048 1.419 . S
C2046 H2050 0.930 . S
C2047 C2046 1.369 . S
C2047 C2056 1.429 . S
C2048 C2046 1.419 . S
C2048 C2049 1.363 . S
C2048 H2051 0.929 . S
C2049 C2048 1.363 . S
C2049 C2055 1.428 . S
H2050 C2046 0.930 . S
H2051 C2048 0.929 . S
S2052 N2053 1.613 . S
S2052 N2054 1.610 . S
N2053 S2052 1.613 . S
N2053 C2056 1.350 . S
N2054 S2052 1.610 . S
N2054 C2055 1.351 . S
C2055 C2049 1.428 . S
C2055 N2054 1.351 . S
C2055 C2056 1.434 . S
C2056 C2047 1.429 . S
C2056 N2053 1.350 . S
C2056 C2055 1.434 . S
C2057 C2058 1.369 . S
C2057 C2059 1.419 . S
C2057 H2061 0.930 . S
C2058 C2057 1.369 . S
C2058 C2067 1.429 . S
C2059 C2057 1.419 . S
C2059 C2060 1.363 . S
C2059 H2062 0.929 . S
C2060 C2059 1.363 . S
C2060 C2066 1.428 . S
H2061 C2057 0.930 . S
H2062 C2059 0.929 . S
S2063 N2064 1.613 . S
S2063 N2065 1.610 . S
N2064 S2063 1.613 . S
N2064 C2067 1.350 . S
N2065 S2063 1.610 . S
N2065 C2066 1.351 . S
C2066 C2060 1.428 . S
C2066 N2065 1.351 . S
C2066 C2067 1.434 . S
C2067 C2058 1.429 . S
C2067 N2064 1.350 . S
C2067 C2066 1.434 . S
C2068 C2069 1.369 . S
C2068 C2070 1.419 . S
C2068 H2072 0.930 1_554 S
C2069 C2068 1.369 . S
C2069 C2078 1.429 . S
C2070 C2068 1.419 . S
C2070 C2071 1.363 . S
C2070 H2073 0.929 . S
C2071 C2070 1.363 . S
C2071 C2077 1.428 . S
H2072 C2068 0.930 1_556 S
H2073 C2070 0.929 . S
S2074 N2075 1.613 . S
S2074 N2076 1.610 . S
N2075 S2074 1.613 . S
N2075 C2078 1.350 . S
N2076 S2074 1.610 . S
N2076 C2077 1.351 . S
C2077 C2071 1.428 . S
C2077 N2076 1.351 . S
C2077 C2078 1.434 . S
C2078 C2069 1.429 . S
C2078 N2075 1.350 . S
C2078 C2077 1.434 . S
C2079 C2080 1.369 . S
C2079 C2081 1.419 . S
C2079 H2083 0.930 . S
C2080 C2079 1.369 . S
C2080 C2089 1.429 . S
C2081 C2079 1.419 . S
C2081 C2082 1.363 . S
C2081 H2084 0.929 . S
C2082 C2081 1.363 . S
C2082 C2088 1.428 . S
H2083 C2079 0.930 . S
H2084 C2081 0.929 . S
S2085 N2086 1.613 . S
S2085 N2087 1.610 . S
N2086 S2085 1.613 . S
N2086 C2089 1.350 . S
N2087 S2085 1.610 . S
N2087 C2088 1.351 . S
C2088 C2082 1.428 . S
C2088 N2087 1.351 . S
C2088 C2089 1.434 . S
C2089 C2080 1.429 . S
C2089 N2086 1.350 . S
C2089 C2088 1.434 . S
C2090 C2091 1.369 . S
C2090 C2092 1.419 . S
C2090 H2094 0.930 . S
C2091 C2090 1.369 . S
C2091 C2100 1.429 . S
C2092 C2090 1.419 . S
C2092 C2093 1.363 . S
C2092 H2095 0.929 . S
C2093 C2092 1.363 . S
C2093 C2099 1.428 . S
H2094 C2090 0.930 . S
H2095 C2092 0.929 . S
S2096 N2097 1.613 . S
S2096 N2098 1.610 . S
N2097 S2096 1.613 . S
N2097 C2100 1.350 . S
N2098 S2096 1.610 . S
N2098 C2099 1.351 . S
C2099 C2093 1.428 . S
C2099 N2098 1.351 . S
C2099 C2100 1.434 . S
C2100 C2091 1.429 . S
C2100 N2097 1.350 . S
C2100 C2099 1.434 . S
C2101 C2102 1.369 . S
C2101 C2103 1.419 . S
C2101 H2105 0.930 . S
C2102 C2101 1.369 . S
C2102 C2111 1.429 . S
C2103 C2101 1.419 . S
C2103 C2104 1.363 . S
C2103 H2106 0.929 . S
C2104 C2103 1.363 . S
C2104 C2110 1.428 . S
H2105 C2101 0.930 . S
H2106 C2103 0.929 . S
S2107 N2108 1.613 . S
S2107 N2109 1.610 . S
N2108 S2107 1.613 . S
N2108 C2111 1.350 . S
N2109 S2107 1.610 . S
N2109 C2110 1.351 . S
C2110 C2104 1.428 . S
C2110 N2109 1.351 . S
C2110 C2111 1.434 . S
C2111 C2102 1.429 . S
C2111 N2108 1.350 . S
C2111 C2110 1.434 . S
C2112 C2113 1.369 . S
C2112 C2114 1.419 1_455 S
C2112 H2116 0.930 . S
C2113 C2112 1.369 . S
C2113 C2122 1.429 . S
C2114 C2112 1.419 1_655 S
C2114 C2115 1.363 . S
C2114 H2117 0.929 . S
C2115 C2114 1.363 . S
C2115 C2121 1.428 . S
H2116 C2112 0.930 . S
H2117 C2114 0.929 . S
S2118 N2119 1.613 . S
S2118 N2120 1.610 1_455 S
N2119 S2118 1.613 . S
N2119 C2122 1.350 . S
N2120 S2118 1.610 1_655 S
N2120 C2121 1.351 . S
C2121 C2115 1.428 . S
C2121 N2120 1.351 . S
C2121 C2122 1.434 1_655 S
C2122 C2113 1.429 . S
C2122 N2119 1.350 . S
C2122 C2121 1.434 1_455 S
C2123 C2124 1.369 . S
C2123 C2125 1.419 . S
C2123 H2127 0.930 . S
C2124 C2123 1.369 . S
C2124 C2133 1.429 . S
C2125 C2123 1.419 . S
C2125 C2126 1.363 . S
C2125 H2128 0.929 . S
C2126 C2125 1.363 . S
C2126 C2132 1.428 . S
H2127 C2123 0.930 . S
H2128 C2125 0.929 . S
S2129 N2130 1.613 . S
S2129 N2131 1.610 . S
N2130 S2129 1.613 . S
N2130 C2133 1.350 . S
N2131 S2129 1.610 . S
N2131 C2132 1.351 . S
C2132 C2126 1.428 . S
C2132 N2131 1.351 . S
C2132 C2133 1.434 . S
C2133 C2124 1.429 . S
C2133 N2130 1.350 . S
C2133 C2132 1.434 . S
C2134 C2135 1.369 . S
C2134 C2136 1.419 1_545 S
C2134 H2138 0.930 . S
C2135 C2134 1.369 . S
C2135 C2144 1.429 . S
C2136 C2134 1.419 1_565 S
C2136 C2137 1.363 . S
C2136 H2139 0.929 . S
C2137 C2136 1.363 . S
C2137 C2143 1.428 . S
H2138 C2134 0.930 . S
H2139 C2136 0.929 . S
S2140 N2141 1.613 . S
S2140 N2142 1.610 1_545 S
N2141 S2140 1.613 . S
N2141 C2144 1.350 . S
N2142 S2140 1.610 1_565 S
N2142 C2143 1.351 . S
C2143 C2137 1.428 . S
C2143 N2142 1.351 . S
C2143 C2144 1.434 1_565 S
C2144 C2135 1.429 . S
C2144 N2141 1.350 . S
C2144 C2143 1.434 1_545 S
C2145 C2146 1.369 . S
C2145 C2147 1.419 1_565 S
C2145 H2149 0.930 . S
C2146 C2145 1.369 . S
C2146 C2155 1.429 . S
C2147 C2145 1.419 1_545 S
C2147 C2148 1.363 . S
C2147 H2150 0.929 . S
C2148 C2147 1.363 . S
C2148 C2154 1.428 . S
H2149 C2145 0.930 . S
H2150 C2147 0.929 . S
S2151 N2152 1.613 . S
S2151 N2153 1.610 1_565 S
N2152 S2151 1.613 . S
N2152 C2155 1.350 . S
N2153 S2151 1.610 1_545 S
N2153 C2154 1.351 . S
C2154 C2148 1.428 . S
C2154 N2153 1.351 . S
C2154 C2155 1.434 1_545 S
C2155 C2146 1.429 . S
C2155 N2152 1.350 . S
C2155 C2154 1.434 1_565 S
C2156 C2157 1.369 . S
C2156 C2158 1.419 1_655 S
C2156 H2160 0.930 . S
C2157 C2156 1.369 . S
C2157 C2166 1.429 . S
C2158 C2156 1.419 1_455 S
C2158 C2159 1.363 . S
C2158 H2161 0.929 . S
C2159 C2158 1.363 . S
C2159 C2165 1.428 . S
H2160 C2156 0.930 . S
H2161 C2158 0.929 . S
S2162 N2163 1.613 1_455 S
S2162 N2164 1.610 . S
N2163 S2162 1.613 1_655 S
N2163 C2166 1.350 . S
N2164 S2162 1.610 . S
N2164 C2165 1.351 . S
C2165 C2159 1.428 . S
C2165 N2164 1.351 . S
C2165 C2166 1.434 1_455 S
C2166 C2157 1.429 . S
C2166 N2163 1.350 . S
C2166 C2165 1.434 1_655 S
C2167 C2168 1.369 . S
C2167 C2169 1.419 . S
C2167 H2171 0.930 . S
C2168 C2167 1.369 . S
C2168 C2177 1.429 . S
C2169 C2167 1.419 . S
C2169 C2170 1.363 . S
C2169 H2172 0.929 . S
C2170 C2169 1.363 . S
C2170 C2176 1.428 . S
H2171 C2167 0.930 . S
H2172 C2169 0.929 . S
S2173 N2174 1.613 . S
S2173 N2175 1.610 . S
N2174 S2173 1.613 . S
N2174 C2177 1.350 . S
N2175 S2173 1.610 . S
N2175 C2176 1.351 . S
C2176 C2170 1.428 . S
C2176 N2175 1.351 . S
C2176 C2177 1.434 . S
C2177 C2168 1.429 . S
C2177 N2174 1.350 . S
C2177 C2176 1.434 . S
C1189 C337 2.165 . S
C1191 C7 2.124 . S
C1200 C370 2.166 . S
C1202 C40 2.127 . S
C1211 C304 2.163 . S
C1213 C73 2.125 . S
C1222 C271 2.165 . S
C1224 C106 2.124 . S
C1233 C205 2.163 . S
C1235 C139 2.122 . S
C1244 C238 2.162 . S
C1246 C172 2.123 . S
C1255 N134 0.739 . S
C1257 N200 0.726 . S
C1266 N233 0.732 . S
C1268 N167 0.732 . S
C1277 N101 0.723 . S
C1279 N266 0.731 . S
C1288 N68 0.730 . S
C1290 N299 0.731 . S
C1299 N332 0.733 . S
C1301 N2 0.728 . S
C1310 N35 0.736 . S
C1312 N365 0.729 . S
C1321 C733 2.166 1_554 S
C1323 C403 2.127 . S
C1332 C436 2.122 . S
C1334 C766 2.164 1_554 S
C1343 C700 2.163 1_554 S
C1345 C469 2.122 . S
C1354 C667 2.165 . S
C1356 C502 2.124 1_554 S
C1365 C601 2.163 . S
C1367 C535 2.125 1_554 S
C1376 C568 2.126 1_554 S
C1378 C634 2.163 . S
C1387 N596 0.726 . S
C1389 N530 0.737 . S
C1398 N563 0.724 . S
C1400 N629 0.731 . S
C1409 N497 0.723 . S
C1411 N662 0.726 . S
C1420 N695 0.733 . S
C1422 N464 0.726 . S
C1431 N728 0.730 . S
C1433 N398 0.723 . S
C1442 N431 0.738 . S
C1444 N761 0.724 . S
C1453 C799 2.124 . S
C1455 C1129 2.165 . S
C1464 C832 2.127 . S
C1466 C1162 2.166 . S
C1475 C865 2.121 . S
C1477 C1096 2.162 . S
C1486 C898 2.127 . S
C1488 C1063 2.164 . S
C1497 C997 2.166 . S
C1499 C931 2.126 . S
C1508 C1030 2.163 . S
C1510 C964 2.125 . S
C1519 N992 0.724 . S
C1521 N926 0.725 . S
C1530 N959 0.720 . S
C1532 N1025 0.729 . S
C1541 N893 0.737 . S
C1543 N1058 0.729 . S
C1552 N1091 0.725 . S
C1554 N860 0.737 . S
C1563 N1124 0.722 . S
C1565 N794 0.731 . S
C1574 N827 0.720 . S
C1576 N1157 0.729 . S
C1585 C117 2.258 . S
C1587 C18 2.259 . S
C1596 C51 2.260 . S
C1598 C150 2.259 . S
C1607 C84 2.258 . S
C1609 C183 2.258 . S
C1618 N310 0.996 . S
C1620 N211 0.990 . S
C1629 N244 0.998 . S
C1631 N343 0.990 . S
C1640 N376 0.999 . S
C1642 N277 0.990 . S
C1651 C414 2.260 . S
C1653 C513 2.260 . S
C1662 C546 2.258 . S
C1664 C447 2.258 . S
C1673 C480 2.260 . S
C1675 C579 2.259 . S
C1684 N607 1.000 . S
C1686 N706 0.992 . S
C1695 N739 0.998 . S
C1697 N640 0.990 . S
C1706 N772 0.997 . S
C1708 N673 0.990 . S
C1717 C810 2.260 . S
C1719 C909 2.260 . S
C1728 C942 2.259 . S
C1730 C843 2.260 . S
C1739 C876 2.258 . S
C1741 C975 2.259 . S
C1750 N1003 0.997 . S
C1752 N1102 0.999 . S
C1761 N1036 1.000 . S
C1763 N1135 0.992 . S
C1772 N1168 0.997 . S
C1774 N1069 0.998 . S
C1783 N112 0.579 . S
C1785 N13 0.572 . S
C1794 N46 0.587 . S
C1796 N145 0.577 . S
C1805 N178 0.579 . S
C1807 N79 0.586 . S
C1816 C315 1.906 . S
C1818 C216 1.907 . S
C1827 C348 1.908 . S
C1829 C249 1.907 . S
C1838 C381 1.907 . S
C1840 C282 1.907 . S
C1849 N409 0.574 . S
C1851 N508 0.585 . S
C1860 N442 0.587 . S
C1862 N541 0.575 . S
C1871 N574 0.580 . S
C1873 N475 0.573 . S
C1882 C612 1.904 . S
C1884 C711 1.906 . S
C1893 C744 1.905 . S
C1895 C645 1.904 . S
C1904 C777 1.906 . S
C1906 C678 1.906 . S
C1915 N805 0.571 . S
C1917 N904 0.580 . S
C1926 N838 0.579 . S
C1928 N937 0.572 . S
C1937 N970 0.586 . S
C1939 N871 0.574 . S
C1948 C1107 1.907 . S
C1950 C1008 1.906 . S
C1959 C1140 1.907 . S
C1961 C1041 1.905 . S
C1970 C1173 1.905 . S
C1972 C1074 1.906 . S
C1981 C21 1.518 . S
C1983 C549 1.516 . S
C1992 C54 1.514 . S
C1994 C582 1.516 . S
C2003 C516 1.518 . S
C2005 C87 1.514 . S
C2014 C879 1.515 . S
C2016 C120 1.518 . S
C2025 C153 1.517 . S
C2027 C813 1.514 . S
C2036 C186 1.514 . S
C2038 C846 1.517 . S
C2047 C1143 1.526 . S
C2049 C219 1.524 . S
C2058 C1176 1.525 . S
C2060 C252 1.525 . S
C2069 C285 1.523 . S
C2071 C1110 1.526 . S
C2080 C681 1.524 . S
C2082 C318 1.526 . S
C2091 C351 1.521 . S
C2093 C615 1.525 . S
C2102 C648 1.526 . S
C2104 C384 1.522 . S
C2113 C945 1.514 . S
C2115 C417 1.517 . S
C2124 C978 1.514 . S
C2126 C450 1.517 . S
C2135 C483 1.514 . S
C2137 C912 1.517 . S
C2146 C1077 1.521 . S
C2148 C714 1.525 . S
C2157 C747 1.524 . S
C2159 C1011 1.522 . S
C2168 C780 1.522 . S
C2170 C1044 1.523 . S
