# Generated by pormake.
# Topology mok, (4)-cn, num edge types: 1
# Building blocks:
#     Node 0, Type 0, BuildingBlock: KUFVIS_clean_sbu_0, # of connection points: 4
#     Node 1, Type 0, BuildingBlock: KUFVIS_clean_sbu_0, # of connection points: 4
#     Node 2, Type 0, BuildingBlock: KUFVIS_clean_sbu_0, # of connection points: 4
#     Node 3, Type 0, BuildingBlock: KUFVIS_clean_sbu_0, # of connection points: 4
#     Node 4, Type 0, BuildingBlock: KUFVIS_clean_sbu_0, # of connection points: 4
#     Node 5, Type 0, BuildingBlock: KUFVIS_clean_sbu_0, # of connection points: 4
#     Node 6, Type 0, BuildingBlock: KUFVIS_clean_sbu_0, # of connection points: 4
#     Node 7, Type 0, BuildingBlock: KUFVIS_clean_sbu_0, # of connection points: 4
#     Edge 8, Type (0, 0), BuildingBlock: MIFKUJ_clean_linker_0, # of connection points: 2
#     Edge 9, Type (0, 0), BuildingBlock: MIFKUJ_clean_linker_0, # of connection points: 2
#     Edge 10, Type (0, 0), BuildingBlock: MIFKUJ_clean_linker_0, # of connection points: 2
#     Edge 11, Type (0, 0), BuildingBlock: MIFKUJ_clean_linker_0, # of connection points: 2
#     Edge 12, Type (0, 0), BuildingBlock: MIFKUJ_clean_linker_0, # of connection points: 2
#     Edge 13, Type (0, 0), BuildingBlock: MIFKUJ_clean_linker_0, # of connection points: 2
#     Edge 14, Type (0, 0), BuildingBlock: MIFKUJ_clean_linker_0, # of connection points: 2
#     Edge 15, Type (0, 0), BuildingBlock: MIFKUJ_clean_linker_0, # of connection points: 2
#     Edge 16, Type (0, 0), BuildingBlock: MIFKUJ_clean_linker_0, # of connection points: 2
#     Edge 17, Type (0, 0), BuildingBlock: MIFKUJ_clean_linker_0, # of connection points: 2
#     Edge 18, Type (0, 0), BuildingBlock: MIFKUJ_clean_linker_0, # of connection points: 2
#     Edge 19, Type (0, 0), BuildingBlock: MIFKUJ_clean_linker_0, # of connection points: 2
#     Edge 20, Type (0, 0), BuildingBlock: MIFKUJ_clean_linker_0, # of connection points: 2
#     Edge 21, Type (0, 0), BuildingBlock: MIFKUJ_clean_linker_0, # of connection points: 2
#     Edge 22, Type (0, 0), BuildingBlock: MIFKUJ_clean_linker_0, # of connection points: 2
#     Edge 23, Type (0, 0), BuildingBlock: MIFKUJ_clean_linker_0, # of connection points: 2
# Relax obj value: 0.032
# Max RMSD: 0.056
# Mean RMSD: 0.056
data_MOF--net-mok--node1-KUFVIS_clean_sbu_0--edge1-MIFKUJ_clean_linker_0
_symmetry_space_group_name_H-M    P1
_symmetry_Int_Tables_number       1
_symmetry_cell_setting            triclinic
loop_
_symmetry_equiv_pos_as_xyz
'x, y, z'
_cell_length_a     68.940596
_cell_length_b     21.410644
_cell_length_c     34.446102
_cell_angle_alpha  90.038214
_cell_angle_beta   89.981128
_cell_angle_gamma 89.938555
loop_
_atom_site_label
_atom_site_type_symbol
_atom_site_fract_x
_atom_site_fract_y
_atom_site_fract_z
_atom_type_partial_charge
Mn0 Mn 0.61579 0.29674 0.00695 0.0
Mn1 Mn 0.57705 0.3933 0.00972 0.0
C2 C 0.6034 0.3384 0.94959 0.0
C3 C 0.64959 0.28297 0.01137 0.0
C4 C 0.57408 0.25218 0.01944 0.0
O5 O 0.61421 0.3224 0.06416 0.0
O6 O 0.59067 0.39529 0.06033 0.0
C7 C 0.59762 0.51414 0.0171 0.0
N8 N 0.5845 0.47727 0.99849 0.0
C9 C 0.57606 0.56027 0.95459 0.0
C10 C 0.58918 0.59958 0.97381 0.0
C11 C 0.60012 0.57623 0.00501 0.0
C12 C 0.5742 0.49883 0.96795 0.0
H13 H 0.6062 0.49613 0.04077 0.0
C14 C 0.60395 0.36615 0.07893 0.0
O15 O 0.63763 0.23741 0.01811 0.0
O16 O 0.64192 0.33633 0.00234 0.0
N17 N 0.56265 0.3971 0.96238 0.0
C18 C 0.55199 0.35156 0.94485 0.0
C19 C 0.5408 0.36641 0.9121 0.0
C20 C 0.54055 0.42792 0.89804 0.0
C21 C 0.55176 0.47387 0.91632 0.0
C22 C 0.56256 0.45639 0.94891 0.0
H23 H 0.55192 0.3044 0.95589 0.0
O24 O 0.61429 0.2889 0.94889 0.0
O25 O 0.60042 0.36249 0.98367 0.0
O26 O 0.59194 0.23963 0.01313 0.0
O27 O 0.56749 0.30798 0.02079 0.0
C28 C 0.55273 0.53623 0.90342 0.0
C29 C 0.56501 0.57925 0.92229 0.0
H30 H 0.59118 0.64746 0.96449 0.0
H31 H 0.61048 0.60601 0.01966 0.0
H32 H 0.53222 0.3307 0.89798 0.0
H33 H 0.53166 0.43932 0.87327 0.0
H34 H 0.54422 0.55156 0.87884 0.0
H35 H 0.56596 0.62668 0.91153 0.0
Mn36 Mn 0.39005 0.70618 0.00648 0.0
Mn37 Mn 0.42975 0.61342 0.00058 0.0
C38 C 0.39997 0.6667 0.94693 0.0
C39 C 0.35646 0.7189 0.01553 0.0
C40 C 0.43219 0.75431 0.00909 0.0
O41 O 0.3938 0.67832 0.06261 0.0
O42 O 0.42 0.61657 0.05482 0.0
C43 C 0.41117 0.49243 0.01934 0.0
N44 N 0.42203 0.52819 0.99492 0.0
C45 C 0.42761 0.44093 0.9523 0.0
C46 C 0.41655 0.40312 0.97704 0.0
C47 C 0.4082 0.42908 0.01059 0.0
C48 C 0.42997 0.50382 0.96238 0.0
H49 H 0.40486 0.51204 0.04534 0.0
C50 C 0.40669 0.64115 0.07585 0.0
O51 O 0.36853 0.76446 0.02146 0.0
O52 O 0.36393 0.66589 0.00508 0.0
N53 N 0.44074 0.60479 0.94982 0.0
C54 C 0.44999 0.64843 0.92779 0.0
C55 C 0.45855 0.6305 0.89248 0.0
C56 C 0.45782 0.56778 0.88054 0.0
C57 C 0.4484 0.5236 0.9039 0.0
C58 C 0.44 0.54429 0.93863 0.0
H59 H 0.45076 0.69656 0.93704 0.0
O60 O 0.38921 0.71638 0.94879 0.0
O61 O 0.40464 0.64136 0.97993 0.0
O62 O 0.4139 0.76463 0.01021 0.0
O63 O 0.43941 0.69966 0.00558 0.0
C64 C 0.44684 0.45995 0.89392 0.0
C65 C 0.4363 0.41877 0.9179 0.0
H66 H 0.41427 0.35419 0.97045 0.0
H67 H 0.39957 0.40024 0.0297 0.0
H68 H 0.46578 0.66488 0.8746 0.0
H69 H 0.46444 0.55414 0.85329 0.0
H70 H 0.4535 0.44225 0.86763 0.0
H71 H 0.4349 0.37021 0.90953 0.0
Mn72 Mn 0.61959 0.69869 0.52811 0.0
Mn73 Mn 0.58152 0.60137 0.5391 0.0
C74 C 0.61053 0.66526 0.58957 0.0
C75 C 0.65287 0.71195 0.51658 0.0
C76 C 0.57729 0.74022 0.52126 0.0
O77 O 0.61521 0.66439 0.47337 0.0
O78 O 0.59267 0.59092 0.48634 0.0
C79 C 0.60265 0.48094 0.53611 0.0
N80 N 0.59022 0.52038 0.55468 0.0
C81 C 0.58548 0.44665 0.60651 0.0
C82 C 0.5979 0.4047 0.58751 0.0
C83 C 0.60664 0.42213 0.55231 0.0
C84 C 0.5821 0.50467 0.58902 0.0
H85 H 0.6096 0.49451 0.50937 0.0
C86 C 0.60472 0.61779 0.46348 0.0
O87 O 0.6405 0.75639 0.5096 0.0
O88 O 0.64586 0.65987 0.52961 0.0
N89 N 0.56956 0.60565 0.58926 0.0
C90 C 0.55909 0.65314 0.60528 0.0
C91 C 0.54997 0.64419 0.64132 0.0
C92 C 0.55151 0.58636 0.6603 0.0
C93 C 0.5623 0.53808 0.64319 0.0
C94 C 0.57104 0.54968 0.60721 0.0
H95 H 0.55765 0.69749 0.5907 0.0
O96 O 0.6211 0.71495 0.58557 0.0
O97 O 0.60585 0.63683 0.55774 0.0
O98 O 0.59529 0.75396 0.52355 0.0
O99 O 0.57092 0.6843 0.52433 0.0
C100 C 0.56485 0.47906 0.66058 0.0
C101 C 0.57659 0.43362 0.64244 0.0
H102 H 0.60104 0.35935 0.59995 0.0
H103 H 0.61646 0.39037 0.53773 0.0
H104 H 0.54169 0.68172 0.65436 0.0
H105 H 0.54445 0.57968 0.68808 0.0
H106 H 0.55808 0.46838 0.68816 0.0
H107 H 0.57882 0.38897 0.65654 0.0
Mn108 Mn 0.39757 0.3015 0.52502 0.0
Mn109 Mn 0.43776 0.39177 0.52227 0.0
C110 C 0.40968 0.34452 0.58202 0.0
C111 C 0.36377 0.29074 0.51963 0.0
C112 C 0.43923 0.25015 0.51845 0.0
O113 O 0.39962 0.32415 0.46774 0.0
O114 O 0.42622 0.38496 0.4696 0.0
C115 C 0.41856 0.5116 0.50282 0.0
N116 N 0.43048 0.47768 0.52627 0.0
C117 C 0.43743 0.5677 0.5657 0.0
C118 C 0.42532 0.60371 0.54184 0.0
C119 C 0.41577 0.57544 0.51039 0.0
C120 C 0.43958 0.50425 0.55682 0.0
H121 H 0.41121 0.4901 0.47857 0.0
C122 C 0.41212 0.35931 0.45145 0.0
O123 O 0.37539 0.24375 0.5142 0.0
O124 O 0.37178 0.34383 0.52806 0.0
N125 N 0.45062 0.40395 0.57084 0.0
C126 C 0.46086 0.36194 0.59235 0.0
C127 C 0.47128 0.38268 0.62491 0.0
C128 C 0.47114 0.44634 0.63479 0.0
C129 C 0.46024 0.48847 0.61266 0.0
C130 C 0.45042 0.46531 0.58018 0.0
H131 H 0.46125 0.31314 0.58446 0.0
O132 O 0.39848 0.29583 0.58285 0.0
O133 O 0.41337 0.36719 0.54771 0.0
O134 O 0.42091 0.24116 0.52045 0.0
O135 O 0.44685 0.30452 0.5187 0.0
C136 C 0.45869 0.5525 0.62162 0.0
C137 C 0.44718 0.59202 0.59831 0.0
H138 H 0.42311 0.65296 0.5476 0.0
H139 H 0.40627 0.60283 0.49207 0.0
H140 H 0.47959 0.34985 0.64206 0.0
H141 H 0.47954 0.46262 0.65927 0.0
H142 H 0.46609 0.57166 0.64668 0.0
H143 H 0.44584 0.64096 0.60585 0.0
Mn144 Mn 0.11421 0.80684 0.00855 0.0
Mn145 Mn 0.07462 0.90023 0.00951 0.0
C146 C 0.1025 0.84952 0.95097 0.0
C147 C 0.14797 0.79421 0.01451 0.0
C148 C 0.07233 0.7588 0.01553 0.0
O149 O 0.11187 0.83107 0.06578 0.0
O150 O 0.08642 0.89662 0.06184 0.0
C151 C 0.09399 0.02088 0.02581 0.0
N152 N 0.08213 0.98547 0.00311 0.0
C153 C 0.07515 0.07291 0.96156 0.0
C154 C 0.0872 0.11043 0.98459 0.0
C155 C 0.09673 0.08421 0.01676 0.0
C156 C 0.07304 0.01007 0.97192 0.0
H157 H 0.10126 1.00098 0.05066 0.0
C158 C 0.10002 0.86998 0.08095 0.0
O159 O 0.13609 0.74802 0.02011 0.0
O160 O 0.14023 0.8476 0.00574 0.0
N161 N 0.06176 0.90921 0.96073 0.0
C162 C 0.05157 0.86579 0.94025 0.0
C163 C 0.04133 0.88422 0.90698 0.0
C164 C 0.04157 0.94705 0.89541 0.0
C165 C 0.05233 0.99075 0.91661 0.0
C166 C 0.06212 0.96978 0.94967 0.0
H167 H 0.05115 0.8176 0.94937 0.0
O168 O 0.11352 0.80033 0.95049 0.0
O169 O 0.09886 0.87282 0.98505 0.0
O170 O 0.09055 0.74807 0.01302 0.0
O171 O 0.06517 0.81382 0.01542 0.0
C172 C 0.05375 0.05425 0.90626 0.0
C173 C 0.06528 0.09521 0.92854 0.0
H174 H 0.08933 0.15931 0.97773 0.0
H175 H 0.10611 0.11281 0.0346 0.0
H176 H 0.0331 0.85028 0.89055 0.0
H177 H 0.03332 0.96129 0.8704 0.0
H178 H 0.04616 0.07204 0.8811 0.0
H179 H 0.06649 0.14371 0.91996 0.0
Mn180 Mn 0.89237 0.2003 0.00704 0.0
Mn181 Mn 0.93253 0.10924 0.01045 0.0
C182 C 0.90459 0.15652 0.95024 0.0
C183 C 0.85851 0.21169 0.0121 0.0
C184 C 0.93403 0.25076 0.01436 0.0
O185 O 0.89444 0.17865 0.06456 0.0
O186 O 0.92065 0.11586 0.06271 0.0
C187 C 0.9135 0.98898 0.02907 0.0
N188 N 0.92546 0.02331 0.00598 0.0
C189 C 0.9334 0.93334 0.96721 0.0
C190 C 0.92123 0.8969 0.99065 0.0
C191 C 0.91116 0.92492 0.0216 0.0
C192 C 0.93507 0.99697 0.97594 0.0
H193 H 0.90583 0.01031 0.053 0.0
C194 C 0.90678 0.1428 0.08086 0.0
O195 O 0.87017 0.25857 0.01727 0.0
O196 O 0.86651 0.15828 0.00426 0.0
N197 N 0.94583 0.09762 0.9623 0.0
C198 C 0.95632 0.13987 0.94151 0.0
C199 C 0.96745 0.11936 0.90983 0.0
C200 C 0.96772 0.05567 0.90001 0.0
C201 C 0.95655 0.01326 0.92138 0.0
C202 C 0.94605 0.03622 0.95308 0.0
H203 H 0.95647 0.18867 0.94945 0.0
O204 O 0.89333 0.20511 0.94919 0.0
O205 O 0.90823 0.13411 0.98464 0.0
O206 O 0.91577 0.26043 0.01132 0.0
O207 O 0.9415 0.1962 0.01469 0.0
C208 C 0.95547 0.94909 0.91255 0.0
C209 C 0.94378 0.90923 0.93527 0.0
H210 H 0.9194 0.84748 0.98501 0.0
H211 H 0.90168 0.89716 0.03972 0.0
H212 H 0.97601 0.15241 0.89339 0.0
H213 H 0.97667 0.03962 0.87619 0.0
H214 H 0.9634 0.93004 0.8881 0.0
H215 H 0.94284 0.86015 0.92787 0.0
Mn216 Mn 0.12192 0.20966 0.52948 0.0
Mn217 Mn 0.08374 0.11229 0.54 0.0
C218 C 0.11281 0.17545 0.59068 0.0
C219 C 0.1553 0.22301 0.51875 0.0
C220 C 0.07939 0.25142 0.52395 0.0
O221 O 0.11789 0.17567 0.47466 0.0
O222 O 0.09417 0.10585 0.48645 0.0
C223 C 0.10434 0.99152 0.53206 0.0
N224 N 0.09267 0.03038 0.55295 0.0
C225 C 0.08898 0.95373 0.60349 0.0
C226 C 0.10088 0.91276 0.58242 0.0
C227 C 0.10864 0.93184 0.54663 0.0
C228 C 0.08527 0.01272 0.58759 0.0
H229 H 0.11031 0.00597 0.50451 0.0
C230 C 0.10657 0.1317 0.46389 0.0
O231 O 0.14299 0.26756 0.5116 0.0
O232 O 0.14818 0.1709 0.53142 0.0
N233 N 0.07234 0.11304 0.5907 0.0
C234 C 0.06171 0.15894 0.60805 0.0
C235 C 0.05294 0.14745 0.64413 0.0
C236 C 0.05504 0.08878 0.66184 0.0
C237 C 0.06606 0.04227 0.64349 0.0
C238 C 0.07433 0.05627 0.6074 0.0
H239 H 0.05988 0.20394 0.59444 0.0
O240 O 0.12319 0.22557 0.58688 0.0
O241 O 0.1082 0.14705 0.55875 0.0
O242 O 0.09747 0.26502 0.52458 0.0
O243 O 0.07304 0.19571 0.52792 0.0
C244 C 0.06923 0.98266 0.65963 0.0
C245 C 0.0808 0.9386 0.63979 0.0
H246 H 0.10423 0.86668 0.59354 0.0
H247 H 0.1179 0.90056 0.53027 0.0
H248 H 0.04449 0.18361 0.65816 0.0
H249 H 0.04812 0.08004 0.68954 0.0
H250 H 0.063 0.97041 0.68748 0.0
H251 H 0.08336 0.89326 0.65276 0.0
Mn252 Mn 0.89441 0.79475 0.52532 0.0
Mn253 Mn 0.93421 0.88654 0.53049 0.0
C254 C 0.90468 0.83322 0.58479 0.0
C255 C 0.86084 0.78408 0.51628 0.0
C256 C 0.93622 0.74582 0.51942 0.0
O257 O 0.89809 0.82342 0.46935 0.0
O258 O 0.92355 0.88838 0.47695 0.0
C259 C 0.91622 0.01022 0.51677 0.0
N260 N 0.927 0.97149 0.53956 0.0
C261 C 0.93313 0.05392 0.58544 0.0
C262 C 0.92213 0.09474 0.56244 0.0
C263 C 0.91359 0.07272 0.52802 0.0
C264 C 0.93523 0.99214 0.57278 0.0
H265 H 0.90973 0.9936 0.49017 0.0
C266 C 0.91026 0.86308 0.45623 0.0
O267 O 0.87266 0.7378 0.5102 0.0
O268 O 0.86855 0.83646 0.52713 0.0
N269 N 0.94583 0.88973 0.58091 0.0
C270 C 0.95501 0.84347 0.60093 0.0
C271 C 0.96375 0.85724 0.63675 0.0
C272 C 0.96319 0.91852 0.65132 0.0
C273 C 0.95381 0.96545 0.63002 0.0
C274 C 0.94526 0.94887 0.59463 0.0
H275 H 0.95562 0.7964 0.58971 0.0
O276 O 0.89372 0.78403 0.58302 0.0
O277 O 0.90929 0.85842 0.55173 0.0
O278 O 0.91798 0.73535 0.52113 0.0
O279 O 0.94347 0.80051 0.5218 0.0
C280 C 0.95244 0.02789 0.64266 0.0
C281 C 0.94198 0.07198 0.62057 0.0
H282 H 0.92006 0.14298 0.57101 0.0
H283 H 0.90506 0.10392 0.51015 0.0
H284 H 0.97097 0.82076 0.653 0.0
H285 H 0.96993 0.92896 0.67898 0.0
H286 H 0.9592 0.04237 0.66959 0.0
H287 H 0.94074 0.11957 0.63099 0.0
H288 H 0.83134 0.11945 0.01904 0.0
H289 H 0.79608 0.13046 0.02162 0.0
H290 H 0.8018 0.33047 0.01138 0.0
H291 H 0.83717 0.31971 0.01059 0.0
H292 H 0.77466 0.30811 0.0603 0.0
H293 H 0.78814 0.22929 0.93264 0.0
H294 H 0.8019 0.15668 0.88429 0.0
H295 H 0.76864 0.00622 0.93271 0.0
H296 H 0.75486 0.07779 0.98168 0.0
H297 H 0.67763 0.37186 0.00144 0.0
H298 H 0.71283 0.35853 0.00375 0.0
H299 H 0.70546 0.16249 0.02821 0.0
H300 H 0.67013 0.17544 0.02566 0.0
H301 H 0.73307 0.18143 0.97312 0.0
H302 H 0.71878 0.26462 0.09962 0.0
H303 H 0.70479 0.34017 0.14591 0.0
H304 H 0.73948 0.4865 0.09664 0.0
H305 H 0.75349 0.41198 0.04967 0.0
C306 C 0.82509 0.16581 0.01741 0.0
C307 C 0.83708 0.21869 0.01438 0.0
C308 C 0.80487 0.17208 0.01863 0.0
C309 C 0.79608 0.23126 0.01583 0.0
C310 C 0.8081 0.28422 0.01347 0.0
C311 C 0.82835 0.27804 0.01293 0.0
C312 C 0.77445 0.23802 0.01537 0.0
C313 C 0.76564 0.28091 0.04082 0.0
C314 C 0.76244 0.20181 0.9906 0.0
C315 C 0.77062 0.15878 0.96104 0.0
C316 C 0.78386 0.18063 0.93313 0.0
C317 C 0.79165 0.13968 0.90559 0.0
C318 C 0.78619 0.07684 0.90549 0.0
C319 C 0.77288 0.05488 0.93285 0.0
C320 C 0.76506 0.09563 0.96048 0.0
C321 C 0.68346 0.32588 0.00744 0.0
C322 C 0.67101 0.27473 0.01347 0.0
C323 C 0.70363 0.31838 0.00891 0.0
C324 C 0.71187 0.25961 0.01656 0.0
C325 C 0.69948 0.20833 0.02233 0.0
C326 C 0.67927 0.21584 0.02098 0.0
C327 C 0.73339 0.25156 0.01789 0.0
C328 C 0.74215 0.20847 0.9926 0.0
C329 C 0.74535 0.28804 0.04248 0.0
C330 C 0.73705 0.33281 0.07091 0.0
C331 C 0.72332 0.313 0.09847 0.0
C332 C 0.71541 0.35562 0.12486 0.0
C333 C 0.72121 0.41812 0.12416 0.0
C334 C 0.73498 0.43809 0.09713 0.0
C335 C 0.74293 0.39566 0.07064 0.0
H336 H 0.71506 0.45105 0.1446 0.0
H337 H 0.79224 0.04521 0.88416 0.0
H338 H 0.17558 0.88572 0.0152 0.0
H339 H 0.21078 0.87349 0.01832 0.0
H340 H 0.20414 0.67323 0.02215 0.0
H341 H 0.16881 0.68541 0.0204 0.0
H342 H 0.23154 0.70506 0.06998 0.0
H343 H 0.21797 0.75477 0.93732 0.0
H344 H 0.20427 0.81555 0.88305 0.0
H345 H 0.23795 0.97499 0.91712 0.0
H346 H 0.25167 0.91539 0.97193 0.0
H347 H 0.32843 0.62872 0.01294 0.0
H348 H 0.29322 0.64253 0.01582 0.0
H349 H 0.30081 0.8414 0.0283 0.0
H350 H 0.33612 0.8279 0.02557 0.0
H351 H 0.27326 0.81094 0.9729 0.0
H352 H 0.28753 0.75622 0.10511 0.0
H353 H 0.3015 0.69144 0.15726 0.0
H354 H 0.26664 0.53596 0.12094 0.0
H355 H 0.25266 0.59957 0.06819 0.0
C356 C 0.1816 0.83903 0.01678 0.0
C357 C 0.16936 0.78651 0.01732 0.0
C358 C 0.20178 0.83206 0.01835 0.0
C359 C 0.21027 0.77234 0.0197 0.0
C360 C 0.19804 0.71984 0.021 0.0
C361 C 0.17781 0.72684 0.0199 0.0
C362 C 0.23185 0.7647 0.01962 0.0
C363 C 0.24059 0.72761 0.0484 0.0
C364 C 0.24387 0.79488 0.99196 0.0
C365 C 0.23569 0.8308 0.95896 0.0
C366 C 0.22235 0.80294 0.93341 0.0
C367 C 0.21459 0.83715 0.90252 0.0
C368 C 0.22019 0.89914 0.8967 0.0
C369 C 0.2336 0.927 0.9217 0.0
C370 C 0.24138 0.89301 0.95266 0.0
C371 C 0.32264 0.6754 0.01656 0.0
C372 C 0.33512 0.72721 0.0191 0.0
C373 C 0.30248 0.6832 0.01831 0.0
C374 C 0.29432 0.74298 0.02251 0.0
C375 C 0.30675 0.79481 0.02508 0.0
C376 C 0.32694 0.78699 0.02368 0.0
C377 C 0.27284 0.75145 0.02321 0.0
C378 C 0.26415 0.78858 0.99449 0.0
C379 C 0.26088 0.72073 0.05062 0.0
C380 C 0.26918 0.68251 0.08247 0.0
C381 C 0.28296 0.70807 0.10804 0.0
C382 C 0.29086 0.67159 0.13775 0.0
C383 C 0.285 0.60958 0.14235 0.0
C384 C 0.27118 0.58398 0.11732 0.0
C385 C 0.26325 0.62024 0.08753 0.0
H386 H 0.29114 0.58141 0.16537 0.0
H387 H 0.21418 0.92555 0.87278 0.0
H388 H 0.83986 0.67686 0.50504 0.0
H389 H 0.80457 0.66619 0.50129 0.0
H390 H 0.7983 0.8658 0.51345 0.0
H391 H 0.8335 0.87642 0.51843 0.0
H392 H 0.77319 0.81206 0.55775 0.0
H393 H 0.79119 0.78632 0.4247 0.0
H394 H 0.80892 0.74156 0.36906 0.0
H395 H 0.78502 0.56079 0.39379 0.0
H396 H 0.76735 0.6043 0.44994 0.0
H397 H 0.67288 0.82125 0.50599 0.0
H398 H 0.70816 0.83492 0.50211 0.0
H399 H 0.71604 0.63573 0.51157 0.0
H400 H 0.68087 0.62175 0.51588 0.0
H401 H 0.73988 0.69154 0.45441 0.0
H402 H 0.72268 0.71982 0.58903 0.0
H403 H 0.70462 0.76725 0.64338 0.0
H404 H 0.7269 0.94797 0.61304 0.0
H405 H 0.74489 0.90168 0.55812 0.0
C406 C 0.83096 0.7185 0.50667 0.0
C407 C 0.83951 0.77749 0.512 0.0
C408 C 0.81075 0.71241 0.50433 0.0
C409 C 0.79866 0.76527 0.5066 0.0
C410 C 0.80723 0.82424 0.51164 0.0
C411 C 0.8274 0.83027 0.51437 0.0
C412 C 0.77709 0.75908 0.50506 0.0
C413 C 0.76595 0.78654 0.53473 0.0
C414 C 0.76749 0.72482 0.47551 0.0
C415 C 0.77809 0.69847 0.44176 0.0
C416 C 0.78983 0.73692 0.41847 0.0
C417 C 0.79985 0.71179 0.3868 0.0
C418 C 0.79814 0.64834 0.37796 0.0
C419 C 0.78636 0.60991 0.40071 0.0
C420 C 0.77632 0.6348 0.43244 0.0
C421 C 0.68212 0.78034 0.50693 0.0
C422 C 0.67408 0.72044 0.51142 0.0
C423 C 0.70228 0.78823 0.50483 0.0
C424 C 0.71475 0.73635 0.50681 0.0
C425 C 0.70671 0.67639 0.50998 0.0
C426 C 0.6866 0.66854 0.51258 0.0
C427 C 0.73618 0.74458 0.50696 0.0
C428 C 0.74722 0.71737 0.47717 0.0
C429 C 0.7457 0.77954 0.53615 0.0
C430 C 0.73495 0.80739 0.56922 0.0
C431 C 0.72359 0.76975 0.59374 0.0
C432 C 0.7134 0.79641 0.62469 0.0
C433 C 0.71457 0.86061 0.63159 0.0
C434 C 0.72598 0.89826 0.60762 0.0
C435 C 0.73619 0.87184 0.57659 0.0
H436 H 0.70667 0.88117 0.65557 0.0
H437 H 0.8059 0.62897 0.35342 0.0
H438 H 0.17573 0.33199 0.50926 0.0
H439 H 0.21102 0.34469 0.50674 0.0
H440 H 0.21817 0.14482 0.51467 0.0
H441 H 0.18305 0.13225 0.51865 0.0
H442 H 0.24236 0.19584 0.56102 0.0
H443 H 0.22577 0.23242 0.42786 0.0
H444 H 0.20859 0.28222 0.37324 0.0
H445 H 0.23212 0.46046 0.40551 0.0
H446 H 0.24925 0.41183 0.46066 0.0
H447 H 0.34255 0.18341 0.51109 0.0
H448 H 0.30719 0.17311 0.50818 0.0
H449 H 0.30117 0.3729 0.51856 0.0
H450 H 0.33649 0.38357 0.52154 0.0
H451 H 0.27674 0.3232 0.46247 0.0
H452 H 0.29337 0.28336 0.59596 0.0
H453 H 0.31086 0.23082 0.64919 0.0
H454 H 0.28733 0.05418 0.61367 0.0
H455 H 0.26991 0.10558 0.55987 0.0
C456 C 0.18484 0.29078 0.51012 0.0
C457 C 0.17657 0.23114 0.51416 0.0
C458 C 0.20505 0.29802 0.50852 0.0
C459 C 0.21741 0.24567 0.51012 0.0
C460 C 0.20907 0.18605 0.5135 0.0
C461 C 0.18893 0.17889 0.51563 0.0
C462 C 0.23899 0.25272 0.50983 0.0
C463 C 0.24984 0.22296 0.53903 0.0
C464 C 0.24889 0.28922 0.48178 0.0
C465 C 0.23863 0.31857 0.44862 0.0
C466 C 0.22716 0.28231 0.42349 0.0
C467 C 0.21745 0.31032 0.3924 0.0
C468 C 0.21922 0.37449 0.38598 0.0
C469 C 0.23074 0.41077 0.41056 0.0
C470 C 0.24047 0.383 0.44172 0.0
C471 C 0.33371 0.22518 0.51265 0.0
C472 C 0.34236 0.28429 0.51675 0.0
C473 C 0.31348 0.21921 0.51108 0.0
C474 C 0.30148 0.27221 0.51346 0.0
C475 C 0.3101 0.33136 0.51668 0.0
C476 C 0.33032 0.33733 0.51854 0.0
C477 C 0.27995 0.26589 0.51337 0.0
C478 C 0.26917 0.29594 0.48425 0.0
C479 C 0.2701 0.22916 0.54123 0.0
C480 C 0.2805 0.19824 0.57366 0.0
C481 C 0.29205 0.23324 0.59931 0.0
C482 C 0.30193 0.20368 0.62962 0.0
C483 C 0.30025 0.13918 0.63475 0.0
C484 C 0.28864 0.10413 0.60963 0.0
C485 C 0.27875 0.13345 0.57925 0.0
H486 H 0.3079 0.11638 0.65824 0.0
H487 H 0.21169 0.39608 0.36189 0.0
H488 H 0.61784 0.29798 0.14081 0.0
H489 H 0.62199 0.33475 0.20815 0.0
H490 H 0.60375 0.51927 0.17395 0.0
H491 H 0.59878 0.48287 0.10778 0.0
H492 H 0.64056 0.50175 0.22801 0.0
H493 H 0.57073 0.45601 0.20808 0.0
H494 H 0.54446 0.38372 0.18958 0.0
H495 H 0.56417 0.25168 0.27472 0.0
H496 H 0.59074 0.32298 0.29329 0.0
H497 H 0.61511 0.67625 0.39559 0.0
H498 H 0.61826 0.62869 0.33117 0.0
H499 H 0.60468 0.44822 0.38008 0.0
H500 H 0.59995 0.49623 0.44319 0.0
H501 H 0.58689 0.45346 0.31909 0.0
H502 H 0.65288 0.49887 0.34847 0.0
H503 H 0.68098 0.56263 0.36813 0.0
H504 H 0.67259 0.68165 0.26925 0.0
H505 H 0.64426 0.61911 0.24928 0.0
C506 C 0.61489 0.34643 0.1477 0.0
C507 C 0.6079 0.38741 0.11904 0.0
C508 C 0.6173 0.36733 0.18601 0.0
C509 C 0.61327 0.42976 0.19571 0.0
C510 C 0.60707 0.4711 0.16686 0.0
C511 C 0.60415 0.45 0.12908 0.0
C512 C 0.61386 0.45169 0.23635 0.0
C513 C 0.6289 0.49137 0.24817 0.0
C514 C 0.59889 0.43672 0.26261 0.0
C515 C 0.58283 0.39436 0.2517 0.0
C516 C 0.56956 0.4113 0.22257 0.0
C517 C 0.5546 0.37059 0.21213 0.0
C518 C 0.55269 0.31304 0.23087 0.0
C519 C 0.5657 0.2962 0.26017 0.0
C520 C 0.5807 0.33673 0.27067 0.0
C521 C 0.61281 0.62647 0.39243 0.0
C522 C 0.60728 0.59007 0.42446 0.0
C523 C 0.61481 0.59908 0.35567 0.0
C524 C 0.61206 0.53436 0.35061 0.0
C525 C 0.60682 0.49814 0.38289 0.0
C526 C 0.6042 0.52573 0.41916 0.0
C527 C 0.6137 0.50445 0.31161 0.0
C528 C 0.59891 0.46339 0.29973 0.0
C529 C 0.62926 0.51696 0.28578 0.0
C530 C 0.64634 0.55458 0.29757 0.0
C531 C 0.65695 0.53888 0.33105 0.0
C532 C 0.67293 0.57477 0.34224 0.0
C533 C 0.67854 0.62623 0.32 0.0
C534 C 0.66822 0.64181 0.28647 0.0
C535 C 0.65221 0.60611 0.27518 0.0
H536 H 0.69092 0.65397 0.32871 0.0
H537 H 0.5411 0.28158 0.22275 0.0
H538 H 0.43622 0.59665 0.12026 0.0
H539 H 0.43401 0.54729 0.18378 0.0
H540 H 0.37265 0.58654 0.18753 0.0
H541 H 0.37485 0.63772 0.12389 0.0
H542 H 0.38885 0.59977 0.25872 0.0
H543 H 0.38802 0.44264 0.16128 0.0
H544 H 0.39892 0.38842 0.10207 0.0
H545 H 0.45391 0.34959 0.15541 0.0
H546 H 0.4434 0.40425 0.2149 0.0
H547 H 0.37819 0.37269 0.41112 0.0
H548 H 0.37421 0.41727 0.34589 0.0
H549 H 0.43634 0.42935 0.33379 0.0
H550 H 0.44042 0.38635 0.39908 0.0
H551 H 0.41516 0.38399 0.26529 0.0
H552 H 0.41606 0.55281 0.3599 0.0
H553 H 0.40435 0.6064 0.41876 0.0
H554 H 0.34727 0.61946 0.36954 0.0
H555 H 0.35863 0.56517 0.31048 0.0
C556 C 0.42228 0.59563 0.13477 0.0
C557 C 0.40567 0.62055 0.11684 0.0
C558 C 0.42102 0.56708 0.17103 0.0
C559 C 0.40306 0.56165 0.18995 0.0
C560 C 0.38662 0.58973 0.17329 0.0
C561 C 0.38791 0.6191 0.13699 0.0
C562 C 0.40157 0.52414 0.22613 0.0
C563 C 0.39426 0.55221 0.25994 0.0
C564 C 0.40866 0.46201 0.22787 0.0
C565 C 0.41496 0.42794 0.19247 0.0
C566 C 0.40248 0.42282 0.16033 0.0
C567 C 0.40859 0.39201 0.1267 0.0
C568 C 0.42713 0.36576 0.12489 0.0
C569 C 0.43956 0.37 0.15683 0.0
C570 C 0.43351 0.40079 0.19056 0.0
C571 C 0.39099 0.38366 0.39419 0.0
C572 C 0.40962 0.37615 0.41014 0.0
C573 C 0.38869 0.40938 0.35709 0.0
C574 C 0.405 0.42683 0.33522 0.0
C575 C 0.4236 0.41611 0.35024 0.0
C576 C 0.42589 0.39167 0.38753 0.0
C577 C 0.40284 0.46015 0.29779 0.0
C578 C 0.40948 0.4312 0.26379 0.0
C579 C 0.39492 0.52105 0.2958 0.0
C580 C 0.38813 0.55429 0.33102 0.0
C581 C 0.40097 0.56663 0.36178 0.0
C582 C 0.39441 0.5972 0.39516 0.0
C583 C 0.37505 0.61608 0.39799 0.0
C584 C 0.36225 0.60467 0.36735 0.0
C585 C 0.36874 0.57405 0.3339 0.0
H586 H 0.36999 0.63974 0.42387 0.0
H587 H 0.43184 0.34203 0.09878 0.0
H588 H 0.41048 0.71822 0.87778 0.0
H589 H 0.4137 0.66466 0.81486 0.0
H590 H 0.39785 0.49041 0.86892 0.0
H591 H 0.39386 0.54428 0.93127 0.0
H592 H 0.43255 0.48773 0.81985 0.0
H593 H 0.3656 0.55158 0.81916 0.0
H594 H 0.33885 0.62765 0.82425 0.0
H595 H 0.36229 0.73121 0.72842 0.0
H596 H 0.38938 0.65621 0.72315 0.0
H597 H 0.41843 0.29603 0.6529 0.0
H598 H 0.4191 0.35102 0.71498 0.0
H599 H 0.41026 0.52607 0.65507 0.0
H600 H 0.40666 0.46936 0.59421 0.0
H601 H 0.38887 0.53072 0.70906 0.0
H602 H 0.45827 0.4747 0.71525 0.0
H603 H 0.48719 0.40558 0.71613 0.0
H604 H 0.46054 0.29152 0.80338 0.0
H605 H 0.43175 0.36016 0.80341 0.0
C606 C 0.40776 0.66847 0.87607 0.0
C607 C 0.4027 0.63466 0.90947 0.0
C608 C 0.40957 0.63804 0.84027 0.0
C609 C 0.40617 0.57355 0.83741 0.0
C610 C 0.40074 0.54005 0.87065 0.0
C611 C 0.39867 0.57064 0.90624 0.0
C612 C 0.40819 0.5408 0.79974 0.0
C613 C 0.42297 0.49651 0.79561 0.0
C614 C 0.39593 0.55367 0.76798 0.0
C615 C 0.37964 0.59871 0.77107 0.0
C616 C 0.36517 0.59093 0.79943 0.0
C617 C 0.34992 0.63377 0.8023 0.0
C618 C 0.34891 0.68435 0.77676 0.0
C619 C 0.36312 0.69208 0.74824 0.0
C620 C 0.37842 0.64941 0.74529 0.0
C621 C 0.41697 0.34641 0.65313 0.0
C622 C 0.41349 0.37894 0.61845 0.0
C623 C 0.41765 0.37819 0.68868 0.0
C624 C 0.41532 0.44353 0.69024 0.0
C625 C 0.41224 0.47588 0.65519 0.0
C626 C 0.4107 0.44372 0.62002 0.0
C627 C 0.41379 0.47743 0.72821 0.0
C628 C 0.39884 0.52191 0.73277 0.0
C629 C 0.42606 0.46496 0.76042 0.0
C630 C 0.44276 0.4216 0.75857 0.0
C631 C 0.45851 0.43415 0.734 0.0
C632 C 0.47488 0.3954 0.73454 0.0
C633 C 0.47556 0.34387 0.75935 0.0
C634 C 0.45994 0.33118 0.78395 0.0
C635 C 0.44365 0.37007 0.7838 0.0
H636 H 0.48826 0.31411 0.75976 0.0
H637 H 0.33708 0.71745 0.77901 0.0
H638 H 0.60955 0.4607 0.93503 0.0
H639 H 0.60523 0.51641 0.87379 0.0
H640 H 0.58742 0.34497 0.81876 0.0
H641 H 0.58992 0.29042 0.88125 0.0
H642 H 0.62825 0.46411 0.80765 0.0
H643 H 0.56339 0.37657 0.77685 0.0
H644 H 0.52853 0.35396 0.78373 0.0
H645 H 0.51739 0.54705 0.80901 0.0
H646 H 0.55235 0.57021 0.80351 0.0
H647 H 0.62343 0.55072 0.60859 0.0
H648 H 0.62029 0.49716 0.67102 0.0
H649 H 0.59124 0.65851 0.71875 0.0
H650 H 0.59448 0.71244 0.65588 0.0
H651 H 0.57211 0.54545 0.73346 0.0
H652 H 0.636 0.63067 0.7456 0.0
H653 H 0.66959 0.65184 0.72487 0.0
H654 H 0.68173 0.45511 0.72327 0.0
H655 H 0.64811 0.4327 0.74344 0.0
C656 C 0.60358 0.43582 0.91042 0.0
C657 C 0.59906 0.37217 0.9133 0.0
C658 C 0.60126 0.46751 0.87534 0.0
C659 C 0.59515 0.43562 0.84192 0.0
C660 C 0.59101 0.37151 0.84447 0.0
C661 C 0.5928 0.3401 0.88001 0.0
C662 C 0.59706 0.46724 0.80386 0.0
C663 C 0.61593 0.48074 0.79097 0.0
C664 C 0.58103 0.48997 0.78242 0.0
C665 C 0.56064 0.47447 0.79174 0.0
C666 C 0.55366 0.4136 0.78567 0.0
C667 C 0.53382 0.40088 0.78864 0.0
C668 C 0.52074 0.44897 0.79696 0.0
C669 C 0.52752 0.50976 0.8027 0.0
C670 C 0.54737 0.52257 0.79995 0.0
C671 C 0.61637 0.5746 0.63249 0.0
C672 C 0.60875 0.63482 0.62754 0.0
C673 C 0.61473 0.54427 0.66812 0.0
C674 C 0.60559 0.57398 0.69948 0.0
C675 C 0.59832 0.63486 0.69481 0.0
C676 C 0.60018 0.66556 0.65913 0.0
C677 C 0.60318 0.54032 0.73669 0.0
C678 C 0.58436 0.52757 0.74973 0.0
C679 C 0.61921 0.51659 0.75754 0.0
C680 C 0.63948 0.52999 0.74571 0.0
C681 C 0.64579 0.59189 0.74053 0.0
C682 C 0.66484 0.60412 0.72893 0.0
C683 C 0.67778 0.55485 0.72267 0.0
C684 C 0.67169 0.49323 0.7281 0.0
C685 C 0.65265 0.48074 0.73965 0.0
H686 H 0.69252 0.56441 0.71369 0.0
H687 H 0.50538 0.43916 0.79899 0.0
H688 H 0.12962 0.84001 0.13175 0.0
H689 H 0.13476 0.88246 0.19722 0.0
H690 H 0.08165 0.98792 0.18771 0.0
H691 H 0.07639 0.94639 0.12305 0.0
H692 H 0.1111 0.0603 0.21348 0.0
H693 H 0.08333 0.85725 0.24118 0.0
H694 H 0.08207 0.7422 0.2387 0.0
H695 H 0.13768 0.7316 0.29444 0.0
H696 H 0.13937 0.84672 0.29679 0.0
H697 H 0.08312 0.04556 0.42924 0.0
H698 H 0.08623 0.9999 0.36497 0.0
H699 H 0.13697 0.11229 0.34326 0.0
H700 H 0.13385 0.15935 0.40789 0.0
H701 H 0.11395 0.93061 0.33258 0.0
H702 H 0.13775 0.14497 0.24488 0.0
H703 H 0.13573 0.26003 0.24744 0.0
H704 H 0.08257 0.24787 0.312 0.0
H705 H 0.08417 0.13283 0.30941 0.0
C706 C 0.11894 0.87169 0.1438 0.0
C707 C 0.10261 0.88976 0.12196 0.0
C708 C 0.12194 0.89606 0.18114 0.0
C709 C 0.10865 0.93874 0.19717 0.0
C710 C 0.09221 0.95565 0.17575 0.0
C711 C 0.08918 0.93139 0.13874 0.0
C712 C 0.11158 0.96654 0.23619 0.0
C713 C 0.11196 0.03192 0.23951 0.0
C714 C 0.1126 0.92961 0.27013 0.0
C715 C 0.11159 0.86051 0.2687 0.0
C716 C 0.09537 0.83037 0.25258 0.0
C717 C 0.09455 0.76517 0.25127 0.0
C718 C 0.10981 0.72961 0.26628 0.0
C719 C 0.12589 0.75921 0.28274 0.0
C720 C 0.12678 0.82441 0.28408 0.0
C721 C 0.09495 0.06101 0.41092 0.0
C722 C 0.1082 0.1065 0.42384 0.0
C723 C 0.09677 0.03438 0.37417 0.0
C724 C 0.11183 0.0525 0.34929 0.0
C725 C 0.12514 0.09789 0.3619 0.0
C726 C 0.1233 0.12486 0.39881 0.0
C727 C 0.11306 0.02443 0.30993 0.0
C728 C 0.11355 0.95901 0.30652 0.0
C729 C 0.11247 0.06132 0.2759 0.0
C730 C 0.11123 0.13039 0.27736 0.0
C731 C 0.12563 0.16692 0.25955 0.0
C732 C 0.12455 0.2321 0.26101 0.0
C733 C 0.10908 0.26123 0.28 0.0
C734 C 0.0946 0.22525 0.29744 0.0
C735 C 0.09559 0.16007 0.29603 0.0
H736 H 0.10828 0.31169 0.28112 0.0
H737 H 0.10915 0.67913 0.26525 0.0
H738 H 0.93856 0.91076 0.4099 0.0
H739 H 0.93465 0.96197 0.34721 0.0
H740 H 0.87337 0.92117 0.34919 0.0
H741 H 0.87735 0.86767 0.41165 0.0
H742 H 0.88683 0.91004 0.27757 0.0
H743 H 0.89085 0.06568 0.37579 0.0
H744 H 0.90451 0.11917 0.43294 0.0
H745 H 0.95668 0.15869 0.36947 0.0
H746 H 0.94349 0.10432 0.31211 0.0
H747 H 0.87334 0.13143 0.12334 0.0
H748 H 0.8704 0.09017 0.18972 0.0
H749 H 0.93272 0.07913 0.19815 0.0
H750 H 0.93573 0.11903 0.13202 0.0
H751 H 0.91373 0.12438 0.26702 0.0
H752 H 0.91049 0.95519 0.17266 0.0
H753 H 0.89637 0.90252 0.11564 0.0
H754 H 0.84121 0.89255 0.17325 0.0
H755 H 0.85496 0.94617 0.23043 0.0
C756 C 0.92428 0.9119 0.39677 0.0
C757 C 0.90823 0.88563 0.41585 0.0
C758 C 0.92204 0.9416 0.36104 0.0
C759 C 0.90361 0.94713 0.34402 0.0
C760 C 0.8877 0.91801 0.36195 0.0
C761 C 0.89 0.88729 0.39756 0.0
C762 C 0.90105 0.98495 0.3082 0.0
C763 C 0.89237 0.95733 0.27556 0.0
C764 C 0.90831 0.04677 0.30542 0.0
C765 C 0.9162 0.0805 0.33967 0.0
C766 C 0.90528 0.08544 0.37406 0.0
C767 C 0.91295 0.1159 0.40651 0.0
C768 C 0.93146 0.14222 0.40486 0.0
C769 C 0.94234 0.13824 0.37071 0.0
C770 C 0.93476 0.10763 0.3382 0.0
C771 C 0.88638 0.12143 0.13974 0.0
C772 C 0.90476 0.12811 0.12255 0.0
C773 C 0.88469 0.09766 0.17749 0.0
C774 C 0.90136 0.08131 0.19865 0.0
C775 C 0.9197 0.09154 0.18231 0.0
C776 C 0.92138 0.11411 0.1445 0.0
C777 C 0.89995 0.04886 0.2365 0.0
C778 C 0.90789 0.07752 0.26944 0.0
C779 C 0.89186 0.98838 0.23968 0.0
C780 C 0.88368 0.95533 0.2056 0.0
C781 C 0.89531 0.94222 0.17304 0.0
C782 C 0.88738 0.91214 0.1407 0.0
C783 C 0.86789 0.89438 0.14076 0.0
C784 C 0.8563 0.90647 0.17322 0.0
C785 C 0.86415 0.93669 0.20559 0.0
H786 H 0.86177 0.8711 0.1157 0.0
H787 H 0.93737 0.16577 0.43002 0.0
H788 H 0.91547 0.78361 0.65433 0.0
H789 H 0.9173 0.83792 0.71723 0.0
H790 H 0.90014 0.00994 0.66184 0.0
H791 H 0.89763 0.9553 0.59951 0.0
H792 H 0.93274 0.02045 0.71341 0.0
H793 H 0.86771 0.939 0.70964 0.0
H794 H 0.84317 0.85604 0.70276 0.0
H795 H 0.8676 0.75879 0.80017 0.0
H796 H 0.89249 0.84077 0.80726 0.0
H797 H 0.91326 0.20637 0.87978 0.0
H798 H 0.91521 0.15205 0.81769 0.0
H799 H 0.90794 0.97555 0.8768 0.0
H800 H 0.90269 0.0315 0.93747 0.0
H801 H 0.88841 0.96575 0.82117 0.0
H802 H 0.95636 0.03503 0.81964 0.0
H803 H 0.9836 0.11043 0.82273 0.0
H804 H 0.9564 0.22257 0.73506 0.0
H805 H 0.92927 0.14767 0.73124 0.0
C806 C 0.91225 0.83309 0.65574 0.0
C807 C 0.90714 0.86602 0.62204 0.0
C808 C 0.91325 0.86396 0.69152 0.0
C809 C 0.90894 0.92798 0.69406 0.0
C810 C 0.9037 0.96069 0.66041 0.0
C811 C 0.90246 0.92967 0.62483 0.0
C812 C 0.90955 0.96087 0.7319 0.0
C813 C 0.92307 0.00881 0.73705 0.0
C814 C 0.8971 0.94478 0.76284 0.0
C815 C 0.88209 0.89566 0.7587 0.0
C816 C 0.86796 0.89963 0.72937 0.0
C817 C 0.85396 0.85285 0.72547 0.0
C818 C 0.85386 0.80208 0.75094 0.0
C819 C 0.86772 0.79809 0.78042 0.0
C820 C 0.88177 0.84471 0.78441 0.0
C821 C 0.91237 0.15586 0.87938 0.0
C822 C 0.90893 0.1227 0.91383 0.0
C823 C 0.91382 0.12446 0.84381 0.0
C824 C 0.91246 0.05885 0.84199 0.0
C825 C 0.90924 0.02595 0.87681 0.0
C826 C 0.9068 0.05771 0.91194 0.0
C827 C 0.91234 0.02492 0.80388 0.0
C828 C 0.89857 0.97706 0.79821 0.0
C829 C 0.92486 0.0404 0.77256 0.0
C830 C 0.94067 0.08672 0.77596 0.0
C831 C 0.95613 0.07642 0.80163 0.0
C832 C 0.97156 0.11872 0.80328 0.0
C833 C 0.97159 0.17156 0.7795 0.0
C834 C 0.9563 0.18188 0.75367 0.0
C835 C 0.94095 0.13942 0.75164 0.0
H836 H 0.98354 0.20424 0.78088 0.0
H837 H 0.84301 0.76592 0.74788 0.0
H838 H 0.10806 0.9727 0.93762 0.0
H839 H 0.10475 0.02883 0.87617 0.0
H840 H 0.08876 0.85723 0.81914 0.0
H841 H 0.09052 0.80193 0.8815 0.0
H842 H 0.12926 0.97283 0.80962 0.0
H843 H 0.06359 0.8927 0.77974 0.0
H844 H 0.02838 0.87503 0.7845 0.0
H845 H 0.01935 0.07025 0.80681 0.0
H846 H 0.05464 0.08853 0.80333 0.0
H847 H 0.12542 0.06031 0.60971 0.0
H848 H 0.12234 0.00722 0.67238 0.0
H849 H 0.09407 0.17 0.72011 0.0
H850 H 0.09725 0.22335 0.65712 0.0
H851 H 0.0743 0.05943 0.73433 0.0
H852 H 0.13902 0.13789 0.74681 0.0
H853 H 0.1729 0.15501 0.72658 0.0
H854 H 0.18294 0.95705 0.7263 0.0
H855 H 0.14901 0.93867 0.74598 0.0
C856 C 0.10278 0.94776 0.9124 0.0
C857 C 0.09862 0.88375 0.91461 0.0
C858 C 0.10101 0.97971 0.87726 0.0
C859 C 0.0957 0.94784 0.84328 0.0
C860 C 0.09183 0.88353 0.84524 0.0
C861 C 0.09316 0.85177 0.88073 0.0
C862 C 0.09814 0.97968 0.80545 0.0
C863 C 0.1172 0.99081 0.79274 0.0
C864 C 0.08245 0.00418 0.78382 0.0
C865 C 0.06186 0.99145 0.79297 0.0
C866 C 0.05421 0.93132 0.78737 0.0
C867 C 0.03418 0.92139 0.78915 0.0
C868 C 0.0216 0.97149 0.79593 0.0
C869 C 0.02908 0.03145 0.80158 0.0
C870 C 0.0491 0.04148 0.80002 0.0
C871 C 0.11856 0.08459 0.63368 0.0
C872 C 0.11108 0.14501 0.62868 0.0
C873 C 0.11698 0.05456 0.66946 0.0
C874 C 0.10804 0.08479 0.70088 0.0
C875 C 0.101 0.14594 0.69615 0.0
C876 C 0.1028 0.17629 0.66037 0.0
C877 C 0.10527 0.05123 0.73804 0.0
C878 C 0.0863 0.04068 0.75092 0.0
C879 C 0.12098 0.02593 0.75919 0.0
C880 C 0.14141 0.03689 0.74754 0.0
C881 C 0.1484 0.09797 0.74212 0.0
C882 C 0.16763 0.10791 0.73081 0.0
C883 C 0.18005 0.05714 0.72507 0.0
C884 C 0.17329 0.99633 0.73072 0.0
C885 C 0.15407 0.98613 0.742 0.0
H886 H 0.19493 0.06494 0.71631 0.0
H887 H 0.0061 0.96382 0.79699 0.0
H888 H 0.42479 0.87785 0.0274 0.0
H889 H 0.44827 0.96349 0.03224 0.0
H890 H 0.49441 0.83724 0.00036 0.0
H891 H 0.47132 0.75176 0.99637 0.0
H892 H 0.50612 0.90685 0.05768 0.0
H893 H 0.47414 0.94667 0.93578 0.0
H894 H 0.44619 0.96622 0.89278 0.0
H895 H 0.4318 0.13091 0.95797 0.0
H896 H 0.45953 0.11185 0.00169 0.0
H897 H 0.57978 0.1263 0.00678 0.0
H898 H 0.55542 0.04325 0.00778 0.0
H899 H 0.51164 0.17685 0.04131 0.0
H900 H 0.53571 0.26008 0.03964 0.0
H901 H 0.49807 0.10563 0.98568 0.0
H902 H 0.53089 0.06758 0.10622 0.0
H903 H 0.55909 0.04822 0.1486 0.0
H904 H 0.5721 0.88028 0.08551 0.0
H905 H 0.54412 0.89907 0.04241 0.0
C906 C 0.43993 0.86836 0.02135 0.0
C907 C 0.44607 0.80763 0.01153 0.0
C908 C 0.45336 0.91749 0.024 0.0
C909 C 0.47318 0.90717 0.01637 0.0
C910 C 0.47927 0.84663 0.00657 0.0
C911 C 0.46595 0.79763 0.0042 0.0
C912 C 0.48774 0.95878 0.01872 0.0
C913 C 0.50443 0.95004 0.04157 0.0
C914 C 0.48544 0.01594 0.99852 0.0
C915 C 0.46878 0.02744 0.97226 0.0
C916 C 0.46492 0.98677 0.94113 0.0
C917 C 0.44914 0.99781 0.91659 0.0
C918 C 0.43719 0.04967 0.92271 0.0
C919 C 0.44104 0.09069 0.95331 0.0
C920 C 0.45679 0.07981 0.97796 0.0
C921 C 0.56503 0.13798 0.01479 0.0
C922 C 0.55981 0.20013 0.02318 0.0
C923 C 0.55107 0.0903 0.01542 0.0
C924 C 0.53163 0.10348 0.0249 0.0
C925 C 0.52648 0.1653 0.03381 0.0
C926 C 0.54036 0.21293 0.03299 0.0
C927 C 0.51651 0.0535 0.02442 0.0
C928 C 0.49972 0.06256 0.00192 0.0
C929 C 0.51873 0.99658 0.04489 0.0
C930 C 0.53551 0.98505 0.07087 0.0
C931 C 0.53985 0.02676 0.10121 0.0
C932 C 0.55578 0.01584 0.12539 0.0
C933 C 0.5674 0.96313 0.11969 0.0
C934 C 0.56309 0.92113 0.08986 0.0
C935 C 0.54719 0.93185 0.06558 0.0
H936 H 0.57973 0.95477 0.13844 0.0
H937 H 0.42499 0.05814 0.90367 0.0
H938 H 0.58393 0.86672 0.51571 0.0
H939 H 0.55991 0.95072 0.51321 0.0
H940 H 0.51377 0.81499 0.51556 0.0
H941 H 0.53761 0.73071 0.51751 0.0
H942 H 0.50531 0.90642 0.46534 0.0
H943 H 0.52673 0.89494 0.59733 0.0
H944 H 0.55062 0.89306 0.65056 0.0
H945 H 0.57007 0.07658 0.61893 0.0
H946 H 0.54647 0.07917 0.5651 0.0
H947 H 0.43023 0.12437 0.51731 0.0
H948 H 0.45283 0.03586 0.5161 0.0
H949 H 0.50117 0.16345 0.51417 0.0
H950 H 0.47891 0.25161 0.51588 0.0
H951 H 0.50762 0.07324 0.56522 0.0
H952 H 0.48629 0.08325 0.43219 0.0
H953 H 0.46221 0.0842 0.37927 0.0
H954 H 0.44214 0.90272 0.41374 0.0
H955 H 0.46595 0.90105 0.46722 0.0
C956 C 0.56869 0.85454 0.5154 0.0
C957 C 0.56281 0.79164 0.51698 0.0
C958 C 0.55494 0.90278 0.51417 0.0
C959 C 0.53497 0.88937 0.51477 0.0
C960 C 0.52906 0.82667 0.51514 0.0
C961 C 0.54278 0.77842 0.51633 0.0
C962 C 0.52027 0.94063 0.51593 0.0
C963 C 0.50568 0.94247 0.48747 0.0
C964 C 0.52082 0.98826 0.54448 0.0
C965 C 0.53496 0.98698 0.57694 0.0
C966 C 0.5362 0.9347 0.60154 0.0
C967 C 0.54967 0.93354 0.63184 0.0
C968 C 0.56189 0.98461 0.63806 0.0
C969 C 0.56061 0.03702 0.61404 0.0
C970 C 0.54719 0.03837 0.58364 0.0
C971 C 0.44567 0.13364 0.51649 0.0
C972 C 0.45265 0.19544 0.51661 0.0
C973 C 0.45859 0.08289 0.51566 0.0
C974 C 0.47877 0.09282 0.51476 0.0
C975 C 0.48572 0.15438 0.51491 0.0
C976 C 0.47288 0.20493 0.51574 0.0
C977 C 0.49278 0.03957 0.51433 0.0
C978 C 0.50723 0.03722 0.54306 0.0
C979 C 0.49204 0.99144 0.48611 0.0
C980 C 0.47775 0.99233 0.45395 0.0
C981 C 0.47663 0.04377 0.42868 0.0
C982 C 0.46306 0.0444 0.39854 0.0
C983 C 0.45061 0.99363 0.39321 0.0
C984 C 0.45177 0.94205 0.41794 0.0
C985 C 0.46531 0.94122 0.44815 0.0
H986 H 0.44011 0.9942 0.36986 0.0
H987 H 0.57231 0.98363 0.66155 0.0
H988 H 0.0328 0.76357 0.00987 0.0
H989 H 0.00981 0.67773 0.01079 0.0
H990 H 0.05674 0.54671 0.02618 0.0
H991 H 0.08014 0.63293 0.0242 0.0
H992 H 0.03164 0.50244 0.97499 0.0
H993 H 0.02591 0.58955 0.10239 0.0
H994 H 0.02139 0.67286 0.15104 0.0
H995 H 0.96494 0.71297 0.10461 0.0
H996 H 0.96922 0.63042 0.05534 0.0
H997 H 0.97305 0.24701 0.0281 0.0
H998 H 0.99595 0.33313 0.02963 0.0
H999 H 0.94953 0.46333 0.00731 0.0
H1000 H 0.92618 0.37678 0.00633 0.0
H1001 H 0.97439 0.50734 0.06234 0.0
H1002 H 0.98054 0.41793 0.93493 0.0
H1003 H 0.98514 0.33158 0.8884 0.0
H1004 H 0.04128 0.29332 0.93686 0.0
H1005 H 0.03689 0.37886 0.98411 0.0
C1006 C 0.03836 0.71665 0.01367 0.0
C1007 C 0.05844 0.7055 0.01725 0.0
C1008 C 0.02509 0.66741 0.01434 0.0
C1009 C 0.03142 0.6056 0.01927 0.0
C1010 C 0.05145 0.594 0.02251 0.0
C1011 C 0.06483 0.64341 0.02151 0.0
C1012 C 0.01706 0.55341 0.02039 0.0
C1013 C 0.0193 0.50315 0.99453 0.0
C1014 C 1.00064 0.5547 0.04521 0.0
C1015 C 0.99796 0.60414 0.07496 0.0
C1016 C 0.01258 0.61642 0.10239 0.0
C1017 C 0.01005 0.66346 0.1301 0.0
C1018 C 0.99291 0.69828 0.13086 0.0
C1019 C 0.97822 0.686 0.10397 0.0
C1020 C 0.98068 0.63904 0.07617 0.0
C1021 C 0.96756 0.29385 0.02355 0.0
C1022 C 0.94767 0.30464 0.0168 0.0
C1023 C 0.98078 0.34318 0.0243 0.0
C1024 C 0.97458 0.40471 0.01787 0.0
C1025 C 0.95469 0.41616 0.01213 0.0
C1026 C 0.94135 0.36661 0.01153 0.0
C1027 C 0.98898 0.45663 0.01694 0.0
C1028 C 0.98674 0.50677 0.04282 0.0
C1029 C 1.00545 0.45504 0.9923 0.0
C1030 C 0.00832 0.40453 0.96327 0.0
C1031 C 0.99383 0.39092 0.9358 0.0
C1032 C 0.99639 0.34212 0.90929 0.0
C1033 C 0.01347 0.30691 0.90973 0.0
C1034 C 0.02805 0.32061 0.93658 0.0
C1035 C 0.02554 0.3693 0.9632 0.0
H1036 H 0.01541 0.26908 0.88923 0.0
H1037 H 0.99098 0.73469 0.15233 0.0
H1038 H 0.03996 0.24182 0.53099 0.0
H1039 H 0.01578 0.32427 0.52766 0.0
H1040 H 0.06069 0.45932 0.50453 0.0
H1041 H 0.08527 0.37674 0.50895 0.0
H1042 H 0.03611 0.50454 0.55605 0.0
H1043 H 0.0287 0.40377 0.43231 0.0
H1044 H 0.02371 0.31512 0.38768 0.0
H1045 H 0.96857 0.27716 0.44059 0.0
H1046 H 0.97335 0.36509 0.48592 0.0
H1047 H 0.97478 0.75136 0.5016 0.0
H1048 H 0.99823 0.66652 0.49948 0.0
H1049 H 0.95313 0.53448 0.52725 0.0
H1050 H 0.92926 0.61964 0.52867 0.0
H1051 H 0.97749 0.48735 0.47319 0.0
H1052 H 0.9847 0.5872 0.59672 0.0
H1053 H 0.98913 0.67689 0.64077 0.0
H1054 H 0.04437 0.716 0.58863 0.0
H1055 H 0.04012 0.62721 0.54375 0.0
C1056 C 0.04482 0.28889 0.52492 0.0
C1057 C 0.06469 0.30229 0.52006 0.0
C1058 C 0.03086 0.33616 0.52283 0.0
C1059 C 0.03627 0.39811 0.51517 0.0
C1060 C 0.05609 0.41187 0.51032 0.0
C1061 C 0.07015 0.36452 0.51274 0.0
C1062 C 0.02128 0.44853 0.51344 0.0
C1063 C 0.02347 0.50114 0.53743 0.0
C1064 C 1.0044 0.44351 0.49008 0.0
C1065 C 1.00147 0.39072 0.46274 0.0
C1066 C 0.01557 0.37625 0.43462 0.0
C1067 C 0.01277 0.32617 0.40917 0.0
C1068 C 0.99585 0.29045 0.41136 0.0
C1069 C 0.98168 0.30483 0.43896 0.0
C1070 C 0.98441 0.35483 0.46451 0.0
C1071 C 0.96971 0.70434 0.50714 0.0
C1072 C 0.95006 0.69262 0.51568 0.0
C1073 C 0.98323 0.65575 0.50603 0.0
C1074 C 0.97759 0.59412 0.51401 0.0
C1075 C 0.95788 0.5817 0.52121 0.0
C1076 C 0.94424 0.63046 0.52205 0.0
C1077 C 0.99242 0.54333 0.51558 0.0
C1078 C 0.99017 0.49068 0.49171 0.0
C1079 C 0.00923 0.54816 0.53911 0.0
C1080 C 0.01201 0.60083 0.56663 0.0
C1081 C 0.99775 0.61514 0.59448 0.0
C1082 C 1.00022 0.66582 0.61961 0.0
C1083 C 0.017 0.70219 0.61745 0.0
C1084 C 0.03137 0.68782 0.59024 0.0
C1085 C 0.02894 0.63729 0.56496 0.0
H1086 H 0.01888 0.74144 0.6369 0.0
H1087 H 0.99371 0.2517 0.39163 0.0
loop_
_geom_bond_atom_site_label_1
_geom_bond_atom_site_label_2
_geom_bond_distance
_geom_bond_site_symmetry_2
_ccdc_geom_bond_type
Mn0 O5 2.095 . S
Mn0 O15 2.162 . S
Mn0 O16 2.297 . S
Mn0 O24 2.385 1_554 S
Mn0 O25 2.209 1_554 S
Mn0 O26 2.094 . S
Mn1 O6 2.121 . S
Mn1 N8 2.257 1_554 S
Mn1 N17 2.282 1_554 S
Mn1 O25 2.215 1_554 S
Mn1 O27 2.117 . S
C2 O24 1.234 . S
C2 O25 1.283 . S
C3 O15 1.281 . S
C3 O16 1.236 . S
C4 O26 1.240 . S
C4 O27 1.264 . S
O5 Mn0 2.095 . S
O5 C14 1.250 . S
O6 Mn1 2.121 . S
O6 C14 1.258 . S
C7 N8 1.326 1_554 S
C7 C11 1.460 . S
C7 H13 0.929 . S
N8 Mn1 2.257 1_556 S
N8 C7 1.326 1_556 S
N8 C12 1.362 . S
C9 C10 1.258 . S
C9 C12 1.431 . S
C9 C29 1.449 . S
C10 C9 1.258 . S
C10 C11 1.477 1_556 S
C10 H30 0.931 . S
C11 C7 1.460 . S
C11 C10 1.477 1_554 S
C11 H31 0.930 . S
C12 N8 1.362 . S
C12 C9 1.431 . S
C12 C22 1.476 . S
H13 C7 0.929 . S
C14 O5 1.250 . S
C14 O6 1.258 . S
O15 Mn0 2.162 . S
O15 C3 1.281 . S
O16 Mn0 2.297 . S
O16 C3 1.236 . S
N17 Mn1 2.282 1_556 S
N17 C18 1.328 . S
N17 C22 1.318 . S
C18 N17 1.328 . S
C18 C19 1.457 . S
C18 H23 0.929 . S
C19 C18 1.457 . S
C19 C20 1.291 . S
C19 H32 0.931 . S
C20 C19 1.291 . S
C20 C21 1.373 . S
C20 H33 0.929 . S
C21 C20 1.373 . S
C21 C22 1.396 . S
C21 C28 1.403 . S
C22 C12 1.476 . S
C22 N17 1.318 . S
C22 C21 1.396 . S
H23 C18 0.929 . S
O24 Mn0 2.385 1_556 S
O24 C2 1.234 . S
O25 Mn0 2.209 1_556 S
O25 Mn1 2.215 1_556 S
O25 C2 1.283 . S
O26 Mn0 2.094 . S
O26 C4 1.240 . S
O27 Mn1 2.117 . S
O27 C4 1.264 . S
C28 C21 1.403 . S
C28 C29 1.399 . S
C28 H34 0.929 . S
C29 C9 1.449 . S
C29 C28 1.399 . S
C29 H35 0.930 . S
H30 C10 0.931 . S
H31 C11 0.930 . S
H32 C19 0.931 . S
H33 C20 0.929 . S
H34 C28 0.929 . S
H35 C29 0.930 . S
Mn36 O41 2.095 . S
Mn36 O51 2.162 . S
Mn36 O52 2.297 . S
Mn36 O60 2.385 1_554 S
Mn36 O61 2.209 1_554 S
Mn36 O62 2.094 . S
Mn37 O42 2.121 . S
Mn37 N44 2.257 1_554 S
Mn37 N53 2.282 1_554 S
Mn37 O61 2.215 1_554 S
Mn37 O63 2.117 . S
C38 O60 1.234 . S
C38 O61 1.283 . S
C39 O51 1.281 . S
C39 O52 1.236 . S
C40 O62 1.240 . S
C40 O63 1.264 . S
O41 Mn36 2.095 . S
O41 C50 1.250 . S
O42 Mn37 2.121 . S
O42 C50 1.258 . S
C43 N44 1.326 1_554 S
C43 C47 1.460 . S
C43 H49 0.929 . S
N44 Mn37 2.257 1_556 S
N44 C43 1.326 1_556 S
N44 C48 1.362 . S
C45 C46 1.258 . S
C45 C48 1.431 . S
C45 C65 1.449 . S
C46 C45 1.258 . S
C46 C47 1.477 1_556 S
C46 H66 0.931 . S
C47 C43 1.460 . S
C47 C46 1.477 1_554 S
C47 H67 0.930 . S
C48 N44 1.362 . S
C48 C45 1.431 . S
C48 C58 1.476 . S
H49 C43 0.929 . S
C50 O41 1.250 . S
C50 O42 1.258 . S
O51 Mn36 2.162 . S
O51 C39 1.281 . S
O52 Mn36 2.297 . S
O52 C39 1.236 . S
N53 Mn37 2.282 1_556 S
N53 C54 1.328 . S
N53 C58 1.318 . S
C54 N53 1.328 . S
C54 C55 1.457 . S
C54 H59 0.929 . S
C55 C54 1.457 . S
C55 C56 1.291 . S
C55 H68 0.931 . S
C56 C55 1.291 . S
C56 C57 1.373 . S
C56 H69 0.929 . S
C57 C56 1.373 . S
C57 C58 1.396 . S
C57 C64 1.403 . S
C58 C48 1.476 . S
C58 N53 1.318 . S
C58 C57 1.396 . S
H59 C54 0.929 . S
O60 Mn36 2.385 1_556 S
O60 C38 1.234 . S
O61 Mn36 2.209 1_556 S
O61 Mn37 2.215 1_556 S
O61 C38 1.283 . S
O62 Mn36 2.094 . S
O62 C40 1.240 . S
O63 Mn37 2.117 . S
O63 C40 1.264 . S
C64 C57 1.403 . S
C64 C65 1.399 . S
C64 H70 0.929 . S
C65 C45 1.449 . S
C65 C64 1.399 . S
C65 H71 0.930 . S
H66 C46 0.931 . S
H67 C47 0.930 . S
H68 C55 0.931 . S
H69 C56 0.929 . S
H70 C64 0.929 . S
H71 C65 0.930 . S
Mn72 O77 2.095 . S
Mn72 O87 2.162 . S
Mn72 O88 2.297 . S
Mn72 O96 2.385 . S
Mn72 O97 2.209 . S
Mn72 O98 2.094 . S
Mn73 O78 2.121 . S
Mn73 N80 2.257 . S
Mn73 N89 2.282 . S
Mn73 O97 2.215 . S
Mn73 O99 2.117 . S
C74 O96 1.234 . S
C74 O97 1.283 . S
C75 O87 1.281 . S
C75 O88 1.236 . S
C76 O98 1.240 . S
C76 O99 1.264 . S
O77 Mn72 2.095 . S
O77 C86 1.250 . S
O78 Mn73 2.121 . S
O78 C86 1.258 . S
C79 N80 1.326 . S
C79 C83 1.460 . S
C79 H85 0.929 . S
N80 Mn73 2.257 . S
N80 C79 1.326 . S
N80 C84 1.362 . S
C81 C82 1.258 . S
C81 C84 1.431 . S
C81 C101 1.449 . S
C82 C81 1.258 . S
C82 C83 1.477 . S
C82 H102 0.931 . S
C83 C79 1.460 . S
C83 C82 1.477 . S
C83 H103 0.930 . S
C84 N80 1.362 . S
C84 C81 1.431 . S
C84 C94 1.476 . S
H85 C79 0.929 . S
C86 O77 1.250 . S
C86 O78 1.258 . S
O87 Mn72 2.162 . S
O87 C75 1.281 . S
O88 Mn72 2.297 . S
O88 C75 1.236 . S
N89 Mn73 2.282 . S
N89 C90 1.328 . S
N89 C94 1.318 . S
C90 N89 1.328 . S
C90 C91 1.457 . S
C90 H95 0.929 . S
C91 C90 1.457 . S
C91 C92 1.291 . S
C91 H104 0.931 . S
C92 C91 1.291 . S
C92 C93 1.373 . S
C92 H105 0.929 . S
C93 C92 1.373 . S
C93 C94 1.396 . S
C93 C100 1.403 . S
C94 C84 1.476 . S
C94 N89 1.318 . S
C94 C93 1.396 . S
H95 C90 0.929 . S
O96 Mn72 2.385 . S
O96 C74 1.234 . S
O97 Mn72 2.209 . S
O97 Mn73 2.215 . S
O97 C74 1.283 . S
O98 Mn72 2.094 . S
O98 C76 1.240 . S
O99 Mn73 2.117 . S
O99 C76 1.264 . S
C100 C93 1.403 . S
C100 C101 1.399 . S
C100 H106 0.929 . S
C101 C81 1.449 . S
C101 C100 1.399 . S
C101 H107 0.930 . S
H102 C82 0.931 . S
H103 C83 0.930 . S
H104 C91 0.931 . S
H105 C92 0.929 . S
H106 C100 0.929 . S
H107 C101 0.930 . S
Mn108 O113 2.095 . S
Mn108 O123 2.162 . S
Mn108 O124 2.297 . S
Mn108 O132 2.385 . S
Mn108 O133 2.209 . S
Mn108 O134 2.094 . S
Mn109 O114 2.121 . S
Mn109 N116 2.257 . S
Mn109 N125 2.282 . S
Mn109 O133 2.215 . S
Mn109 O135 2.117 . S
C110 O132 1.234 . S
C110 O133 1.283 . S
C111 O123 1.281 . S
C111 O124 1.236 . S
C112 O134 1.240 . S
C112 O135 1.264 . S
O113 Mn108 2.095 . S
O113 C122 1.250 . S
O114 Mn109 2.121 . S
O114 C122 1.258 . S
C115 N116 1.326 . S
C115 C119 1.460 . S
C115 H121 0.929 . S
N116 Mn109 2.257 . S
N116 C115 1.326 . S
N116 C120 1.362 . S
C117 C118 1.258 . S
C117 C120 1.431 . S
C117 C137 1.449 . S
C118 C117 1.258 . S
C118 C119 1.477 . S
C118 H138 0.931 . S
C119 C115 1.460 . S
C119 C118 1.477 . S
C119 H139 0.930 . S
C120 N116 1.362 . S
C120 C117 1.431 . S
C120 C130 1.476 . S
H121 C115 0.929 . S
C122 O113 1.250 . S
C122 O114 1.258 . S
O123 Mn108 2.162 . S
O123 C111 1.281 . S
O124 Mn108 2.297 . S
O124 C111 1.236 . S
N125 Mn109 2.282 . S
N125 C126 1.328 . S
N125 C130 1.318 . S
C126 N125 1.328 . S
C126 C127 1.457 . S
C126 H131 0.929 . S
C127 C126 1.457 . S
C127 C128 1.291 . S
C127 H140 0.931 . S
C128 C127 1.291 . S
C128 C129 1.373 . S
C128 H141 0.929 . S
C129 C128 1.373 . S
C129 C130 1.396 . S
C129 C136 1.403 . S
C130 C120 1.476 . S
C130 N125 1.318 . S
C130 C129 1.396 . S
H131 C126 0.929 . S
O132 Mn108 2.385 . S
O132 C110 1.234 . S
O133 Mn108 2.209 . S
O133 Mn109 2.215 . S
O133 C110 1.283 . S
O134 Mn108 2.094 . S
O134 C112 1.240 . S
O135 Mn109 2.117 . S
O135 C112 1.264 . S
C136 C129 1.403 . S
C136 C137 1.399 . S
C136 H142 0.929 . S
C137 C117 1.449 . S
C137 C136 1.399 . S
C137 H143 0.930 . S
H138 C118 0.931 . S
H139 C119 0.930 . S
H140 C127 0.931 . S
H141 C128 0.929 . S
H142 C136 0.929 . S
H143 C137 0.930 . S
Mn144 O149 2.095 . S
Mn144 O159 2.162 . S
Mn144 O160 2.297 . S
Mn144 O168 2.385 1_554 S
Mn144 O169 2.209 1_554 S
Mn144 O170 2.094 . S
Mn145 O150 2.121 . S
Mn145 N152 2.257 1_554 S
Mn145 N161 2.282 1_554 S
Mn145 O169 2.215 1_554 S
Mn145 O171 2.117 . S
C146 O168 1.234 . S
C146 O169 1.283 . S
C147 O159 1.281 . S
C147 O160 1.236 . S
C148 O170 1.240 . S
C148 O171 1.264 . S
O149 Mn144 2.095 . S
O149 C158 1.250 . S
O150 Mn145 2.121 . S
O150 C158 1.258 . S
C151 N152 1.326 1_544 S
C151 C155 1.460 . S
C151 H157 0.929 . S
N152 Mn145 2.257 1_556 S
N152 C151 1.326 1_566 S
N152 C156 1.362 . S
C153 C154 1.258 . S
C153 C156 1.431 1_545 S
C153 C173 1.449 . S
C154 C153 1.258 . S
C154 C155 1.477 1_556 S
C154 H174 0.931 . S
C155 C151 1.460 . S
C155 C154 1.477 1_554 S
C155 H175 0.930 . S
C156 N152 1.362 . S
C156 C153 1.431 1_565 S
C156 C166 1.476 . S
H157 C151 0.929 . S
C158 O149 1.250 . S
C158 O150 1.258 . S
O159 Mn144 2.162 . S
O159 C147 1.281 . S
O160 Mn144 2.297 . S
O160 C147 1.236 . S
N161 Mn145 2.282 1_556 S
N161 C162 1.328 . S
N161 C166 1.318 . S
C162 N161 1.328 . S
C162 C163 1.457 . S
C162 H167 0.929 . S
C163 C162 1.457 . S
C163 C164 1.291 . S
C163 H176 0.931 . S
C164 C163 1.291 . S
C164 C165 1.373 . S
C164 H177 0.929 . S
C165 C164 1.373 . S
C165 C166 1.396 . S
C165 C172 1.403 1_565 S
C166 C156 1.476 . S
C166 N161 1.318 . S
C166 C165 1.396 . S
H167 C162 0.929 . S
O168 Mn144 2.385 1_556 S
O168 C146 1.234 . S
O169 Mn144 2.209 1_556 S
O169 Mn145 2.215 1_556 S
O169 C146 1.283 . S
O170 Mn144 2.094 . S
O170 C148 1.240 . S
O171 Mn145 2.117 . S
O171 C148 1.264 . S
C172 C165 1.403 1_545 S
C172 C173 1.399 . S
C172 H178 0.929 . S
C173 C153 1.449 . S
C173 C172 1.399 . S
C173 H179 0.930 . S
H174 C154 0.931 . S
H175 C155 0.930 . S
H176 C163 0.931 . S
H177 C164 0.929 . S
H178 C172 0.929 . S
H179 C173 0.930 . S
Mn180 O185 2.095 . S
Mn180 O195 2.162 . S
Mn180 O196 2.297 . S
Mn180 O204 2.385 1_554 S
Mn180 O205 2.209 1_554 S
Mn180 O206 2.094 . S
Mn181 O186 2.121 . S
Mn181 N188 2.257 1_554 S
Mn181 N197 2.282 1_554 S
Mn181 O205 2.215 1_554 S
Mn181 O207 2.117 . S
C182 O204 1.234 . S
C182 O205 1.283 . S
C183 O195 1.281 . S
C183 O196 1.236 . S
C184 O206 1.240 . S
C184 O207 1.264 . S
O185 Mn180 2.095 . S
O185 C194 1.250 . S
O186 Mn181 2.121 . S
O186 C194 1.258 . S
C187 N188 1.326 1_564 S
C187 C191 1.460 . S
C187 H193 0.929 . S
N188 Mn181 2.257 1_556 S
N188 C187 1.326 1_546 S
N188 C192 1.362 . S
C189 C190 1.258 . S
C189 C192 1.431 1_565 S
C189 C209 1.449 . S
C190 C189 1.258 . S
C190 C191 1.477 1_556 S
C190 H210 0.931 . S
C191 C187 1.460 . S
C191 C190 1.477 1_554 S
C191 H211 0.930 . S
C192 N188 1.362 . S
C192 C189 1.431 1_545 S
C192 C202 1.476 . S
H193 C187 0.929 . S
C194 O185 1.250 . S
C194 O186 1.258 . S
O195 Mn180 2.162 . S
O195 C183 1.281 . S
O196 Mn180 2.297 . S
O196 C183 1.236 . S
N197 Mn181 2.282 1_556 S
N197 C198 1.328 . S
N197 C202 1.318 . S
C198 N197 1.328 . S
C198 C199 1.457 . S
C198 H203 0.929 . S
C199 C198 1.457 . S
C199 C200 1.291 . S
C199 H212 0.931 . S
C200 C199 1.291 . S
C200 C201 1.373 . S
C200 H213 0.929 . S
C201 C200 1.373 . S
C201 C202 1.396 . S
C201 C208 1.403 1_545 S
C202 C192 1.476 . S
C202 N197 1.318 . S
C202 C201 1.396 . S
H203 C198 0.929 . S
O204 Mn180 2.385 1_556 S
O204 C182 1.234 . S
O205 Mn180 2.209 1_556 S
O205 Mn181 2.215 1_556 S
O205 C182 1.283 . S
O206 Mn180 2.094 . S
O206 C184 1.240 . S
O207 Mn181 2.117 . S
O207 C184 1.264 . S
C208 C201 1.403 1_565 S
C208 C209 1.399 . S
C208 H214 0.929 . S
C209 C189 1.449 . S
C209 C208 1.399 . S
C209 H215 0.930 . S
H210 C190 0.931 . S
H211 C191 0.930 . S
H212 C199 0.931 . S
H213 C200 0.929 . S
H214 C208 0.929 . S
H215 C209 0.930 . S
Mn216 O221 2.095 . S
Mn216 O231 2.162 . S
Mn216 O232 2.297 . S
Mn216 O240 2.385 . S
Mn216 O241 2.209 . S
Mn216 O242 2.094 . S
Mn217 O222 2.121 . S
Mn217 N224 2.257 . S
Mn217 N233 2.282 . S
Mn217 O241 2.215 . S
Mn217 O243 2.117 . S
C218 O240 1.234 . S
C218 O241 1.283 . S
C219 O231 1.281 . S
C219 O232 1.236 . S
C220 O242 1.240 . S
C220 O243 1.264 . S
O221 Mn216 2.095 . S
O221 C230 1.250 . S
O222 Mn217 2.121 . S
O222 C230 1.258 . S
C223 N224 1.326 1_565 S
C223 C227 1.460 . S
C223 H229 0.929 . S
N224 Mn217 2.257 . S
N224 C223 1.326 1_545 S
N224 C228 1.362 . S
C225 C226 1.258 . S
C225 C228 1.431 1_565 S
C225 C245 1.449 . S
C226 C225 1.258 . S
C226 C227 1.477 . S
C226 H246 0.931 . S
C227 C223 1.460 . S
C227 C226 1.477 . S
C227 H247 0.930 . S
C228 N224 1.362 . S
C228 C225 1.431 1_545 S
C228 C238 1.476 . S
H229 C223 0.929 . S
C230 O221 1.250 . S
C230 O222 1.258 . S
O231 Mn216 2.162 . S
O231 C219 1.281 . S
O232 Mn216 2.297 . S
O232 C219 1.236 . S
N233 Mn217 2.282 . S
N233 C234 1.328 . S
N233 C238 1.318 . S
C234 N233 1.328 . S
C234 C235 1.457 . S
C234 H239 0.929 . S
C235 C234 1.457 . S
C235 C236 1.291 . S
C235 H248 0.931 . S
C236 C235 1.291 . S
C236 C237 1.373 . S
C236 H249 0.929 . S
C237 C236 1.373 . S
C237 C238 1.396 . S
C237 C244 1.403 1_545 S
C238 C228 1.476 . S
C238 N233 1.318 . S
C238 C237 1.396 . S
H239 C234 0.929 . S
O240 Mn216 2.385 . S
O240 C218 1.234 . S
O241 Mn216 2.209 . S
O241 Mn217 2.215 . S
O241 C218 1.283 . S
O242 Mn216 2.094 . S
O242 C220 1.240 . S
O243 Mn217 2.117 . S
O243 C220 1.264 . S
C244 C237 1.403 1_565 S
C244 C245 1.399 . S
C244 H250 0.929 . S
C245 C225 1.449 . S
C245 C244 1.399 . S
C245 H251 0.930 . S
H246 C226 0.931 . S
H247 C227 0.930 . S
H248 C235 0.931 . S
H249 C236 0.929 . S
H250 C244 0.929 . S
H251 C245 0.930 . S
Mn252 O257 2.095 . S
Mn252 O267 2.162 . S
Mn252 O268 2.297 . S
Mn252 O276 2.385 . S
Mn252 O277 2.209 . S
Mn252 O278 2.094 . S
Mn253 O258 2.121 . S
Mn253 N260 2.257 . S
Mn253 N269 2.282 . S
Mn253 O277 2.215 . S
Mn253 O279 2.117 . S
C254 O276 1.234 . S
C254 O277 1.283 . S
C255 O267 1.281 . S
C255 O268 1.236 . S
C256 O278 1.240 . S
C256 O279 1.264 . S
O257 Mn252 2.095 . S
O257 C266 1.250 . S
O258 Mn253 2.121 . S
O258 C266 1.258 . S
C259 N260 1.326 1_545 S
C259 C263 1.460 . S
C259 H265 0.929 . S
N260 Mn253 2.257 . S
N260 C259 1.326 1_565 S
N260 C264 1.362 . S
C261 C262 1.258 . S
C261 C264 1.431 1_545 S
C261 C281 1.449 . S
C262 C261 1.258 . S
C262 C263 1.477 . S
C262 H282 0.931 . S
C263 C259 1.460 . S
C263 C262 1.477 . S
C263 H283 0.930 . S
C264 N260 1.362 . S
C264 C261 1.431 1_565 S
C264 C274 1.476 . S
H265 C259 0.929 . S
C266 O257 1.250 . S
C266 O258 1.258 . S
O267 Mn252 2.162 . S
O267 C255 1.281 . S
O268 Mn252 2.297 . S
O268 C255 1.236 . S
N269 Mn253 2.282 . S
N269 C270 1.328 . S
N269 C274 1.318 . S
C270 N269 1.328 . S
C270 C271 1.457 . S
C270 H275 0.929 . S
C271 C270 1.457 . S
C271 C272 1.291 . S
C271 H284 0.931 . S
C272 C271 1.291 . S
C272 C273 1.373 . S
C272 H285 0.929 . S
C273 C272 1.373 . S
C273 C274 1.396 . S
C273 C280 1.403 1_565 S
C274 C264 1.476 . S
C274 N269 1.318 . S
C274 C273 1.396 . S
H275 C270 0.929 . S
O276 Mn252 2.385 . S
O276 C254 1.234 . S
O277 Mn252 2.209 . S
O277 Mn253 2.215 . S
O277 C254 1.283 . S
O278 Mn252 2.094 . S
O278 C256 1.240 . S
O279 Mn253 2.117 . S
O279 C256 1.264 . S
C280 C273 1.403 1_545 S
C280 C281 1.399 . S
C280 H286 0.929 . S
C281 C261 1.449 . S
C281 C280 1.399 . S
C281 H287 0.930 . S
H282 C262 0.931 . S
H283 C263 0.930 . S
H284 C271 0.931 . S
H285 C272 0.929 . S
H286 C280 0.929 . S
H287 C281 0.930 . S
H288 C306 0.951 . S
H289 C308 0.951 . S
H290 C310 0.950 . S
H291 C311 0.950 . S
H292 C313 0.950 . S
H293 C316 0.950 1_556 S
H294 C317 0.962 . S
H295 C319 0.950 . S
H296 C320 0.950 . S
H297 C321 0.951 . S
H298 C323 0.951 . S
H299 C325 0.950 . S
H300 C326 0.950 . S
H301 C328 0.950 . S
H302 C331 0.950 . S
H303 C332 0.950 . S
H304 C334 0.950 . S
H305 C335 0.950 . S
C306 H288 0.951 . S
C306 C307 1.366 . S
C306 C308 1.388 . S
C307 C306 1.366 . S
C307 C311 1.385 1_554 S
C308 H289 0.951 . S
C308 C306 1.388 . S
C308 C309 1.366 . S
C309 C308 1.366 . S
C309 C310 1.414 1_554 S
C309 C312 1.499 . S
C310 H290 0.950 . S
C310 C309 1.414 1_556 S
C310 C311 1.374 . S
C311 H291 0.950 . S
C311 C307 1.385 1_556 S
C311 C310 1.374 . S
C312 C309 1.499 . S
C312 C313 1.373 1_554 S
C312 C314 1.389 . S
C313 H292 0.950 . S
C313 C312 1.373 1_556 S
C313 C329 1.378 . S
C314 C312 1.389 . S
C314 C315 1.524 . S
C314 C328 1.377 . S
C315 C314 1.524 . S
C315 C316 1.397 . S
C315 C320 1.363 . S
C316 H293 0.950 1_554 S
C316 C315 1.397 . S
C316 C317 1.334 . S
C317 H294 0.962 . S
C317 C316 1.334 . S
C317 C318 1.287 . S
C318 C317 1.287 . S
C318 C319 1.524 . S
C318 H337 0.913 1_545 S
C319 H295 0.950 . S
C319 C318 1.524 . S
C319 C320 1.415 . S
C320 H296 0.950 . S
C320 C315 1.363 . S
C320 C319 1.415 . S
C321 H297 0.951 . S
C321 C322 1.366 1_556 S
C321 C323 1.388 . S
C322 C321 1.366 1_554 S
C322 C326 1.385 . S
C323 H298 0.951 . S
C323 C321 1.388 . S
C323 C324 1.366 1_556 S
C324 C323 1.366 1_554 S
C324 C325 1.414 . S
C324 C327 1.499 . S
C325 H299 0.950 . S
C325 C324 1.414 . S
C325 C326 1.374 . S
C326 H300 0.950 . S
C326 C322 1.385 . S
C326 C325 1.374 . S
C327 C324 1.499 . S
C327 C328 1.373 . S
C327 C329 1.379 1_554 S
C328 H301 0.950 . S
C328 C314 1.377 . S
C328 C327 1.373 . S
C329 C313 1.378 . S
C329 C327 1.379 1_556 S
C329 C330 1.533 . S
C330 C329 1.533 . S
C330 C331 1.397 1_556 S
C330 C335 1.363 . S
C331 H302 0.950 . S
C331 C330 1.397 1_554 S
C331 C332 1.334 . S
C332 H303 0.950 . S
C332 C331 1.334 . S
C332 C333 1.287 1_554 S
C333 C332 1.287 1_556 S
C333 C334 1.524 . S
C333 H336 0.999 . S
C334 H304 0.950 . S
C334 C333 1.524 . S
C334 C335 1.415 . S
C335 H305 0.950 . S
C335 C330 1.363 . S
C335 C334 1.415 . S
H336 C333 0.999 . S
H337 C318 0.913 1_565 S
H338 C356 0.951 . S
H339 C358 0.951 . S
H340 C360 0.950 1_556 S
H341 C361 0.950 1_556 S
H342 C363 0.950 . S
H343 C366 0.950 . S
H344 C367 0.950 . S
H345 C369 0.952 . S
H346 C370 0.950 . S
H347 C371 0.951 1_556 S
H348 C373 0.951 1_556 S
H349 C375 0.950 . S
H350 C376 0.950 . S
H351 C378 0.950 . S
H352 C381 0.950 . S
H353 C382 0.950 . S
H354 C384 0.950 . S
H355 C385 0.950 . S
C356 H338 0.951 . S
C356 C357 1.366 . S
C356 C358 1.388 . S
C357 C356 1.366 . S
C357 C361 1.385 . S
C358 H339 0.951 . S
C358 C356 1.388 . S
C358 C359 1.366 . S
C359 C358 1.366 . S
C359 C360 1.414 . S
C359 C362 1.499 . S
C360 H340 0.950 1_554 S
C360 C359 1.414 . S
C360 C361 1.374 . S
C361 H341 0.950 1_554 S
C361 C357 1.385 . S
C361 C360 1.374 . S
C362 C359 1.499 . S
C362 C363 1.373 . S
C362 C364 1.389 1_554 S
C363 H342 0.950 . S
C363 C362 1.373 . S
C363 C379 1.377 . S
C364 C362 1.389 1_556 S
C364 C365 1.524 . S
C364 C378 1.377 . S
C365 C364 1.524 . S
C365 C366 1.397 . S
C365 C370 1.363 . S
C366 H343 0.950 . S
C366 C365 1.397 . S
C366 C367 1.334 . S
C367 H344 0.950 . S
C367 C366 1.334 . S
C367 C368 1.287 . S
C368 C367 1.287 . S
C368 C369 1.524 . S
C368 H387 0.913 . S
C369 H345 0.952 . S
C369 C368 1.524 . S
C369 C370 1.415 . S
C370 H346 0.950 . S
C370 C365 1.363 . S
C370 C369 1.415 . S
C371 H347 0.951 1_554 S
C371 C372 1.366 . S
C371 C373 1.388 . S
C372 C371 1.366 . S
C372 C376 1.385 . S
C373 H348 0.951 1_554 S
C373 C371 1.388 . S
C373 C374 1.366 . S
C374 C373 1.366 . S
C374 C375 1.414 . S
C374 C377 1.499 . S
C375 H349 0.950 . S
C375 C374 1.414 . S
C375 C376 1.374 . S
C376 H350 0.950 . S
C376 C372 1.385 . S
C376 C375 1.374 . S
C377 C374 1.499 . S
C377 C378 1.373 1_554 S
C377 C379 1.389 . S
C378 H351 0.950 . S
C378 C364 1.377 . S
C378 C377 1.373 1_556 S
C379 C363 1.377 . S
C379 C377 1.389 . S
C379 C380 1.524 . S
C380 C379 1.524 . S
C380 C381 1.397 . S
C380 C385 1.363 . S
C381 H352 0.950 . S
C381 C380 1.397 . S
C381 C382 1.334 . S
C382 H353 0.950 . S
C382 C381 1.334 . S
C382 C383 1.287 . S
C383 C382 1.287 . S
C383 C384 1.524 . S
C383 H386 0.999 . S
C384 H354 0.950 . S
C384 C383 1.524 . S
C384 C385 1.415 . S
C385 H355 0.950 . S
C385 C380 1.363 . S
C385 C384 1.415 . S
H386 C383 0.999 . S
H387 C368 0.913 . S
H388 C406 0.951 . S
H389 C408 0.951 . S
H390 C410 0.950 . S
H391 C411 0.950 . S
H392 C413 0.950 . S
H393 C416 0.950 . S
H394 C417 0.950 . S
H395 C419 0.950 . S
H396 C420 0.950 . S
H397 C421 0.951 . S
H398 C423 0.951 . S
H399 C425 0.950 . S
H400 C426 0.950 . S
H401 C428 0.950 . S
H402 C431 0.950 . S
H403 C432 0.950 . S
H404 C434 0.950 . S
H405 C435 0.950 . S
C406 H388 0.951 . S
C406 C407 1.366 . S
C406 C408 1.388 . S
C407 C406 1.366 . S
C407 C411 1.385 . S
C408 H389 0.951 . S
C408 C406 1.388 . S
C408 C409 1.366 . S
C409 C408 1.366 . S
C409 C410 1.414 . S
C409 C412 1.499 . S
C410 H390 0.950 . S
C410 C409 1.414 . S
C410 C411 1.374 . S
C411 H391 0.950 . S
C411 C407 1.385 . S
C411 C410 1.374 . S
C412 C409 1.499 . S
C412 C413 1.373 . S
C412 C414 1.389 . S
C413 H392 0.950 . S
C413 C412 1.373 . S
C413 C429 1.377 . S
C414 C412 1.389 . S
C414 C415 1.524 . S
C414 C428 1.377 . S
C415 C414 1.524 . S
C415 C416 1.397 . S
C415 C420 1.363 . S
C416 H393 0.950 . S
C416 C415 1.397 . S
C416 C417 1.334 . S
C417 H394 0.950 . S
C417 C416 1.334 . S
C417 C418 1.287 . S
C418 C417 1.287 . S
C418 C419 1.524 . S
C418 H437 0.913 . S
C419 H395 0.950 . S
C419 C418 1.524 . S
C419 C420 1.415 . S
C420 H396 0.950 . S
C420 C415 1.363 . S
C420 C419 1.415 . S
C421 H397 0.951 . S
C421 C422 1.366 . S
C421 C423 1.388 . S
C422 C421 1.366 . S
C422 C426 1.385 . S
C423 H398 0.951 . S
C423 C421 1.388 . S
C423 C424 1.366 . S
C424 C423 1.366 . S
C424 C425 1.414 . S
C424 C427 1.499 . S
C425 H399 0.950 . S
C425 C424 1.414 . S
C425 C426 1.374 . S
C426 H400 0.950 . S
C426 C422 1.385 . S
C426 C425 1.374 . S
C427 C424 1.499 . S
C427 C428 1.373 . S
C427 C429 1.389 . S
C428 H401 0.950 . S
C428 C414 1.377 . S
C428 C427 1.373 . S
C429 C413 1.377 . S
C429 C427 1.389 . S
C429 C430 1.524 . S
C430 C429 1.524 . S
C430 C431 1.397 . S
C430 C435 1.363 . S
C431 H402 0.950 . S
C431 C430 1.397 . S
C431 C432 1.334 . S
C432 H403 0.950 . S
C432 C431 1.334 . S
C432 C433 1.287 . S
C433 C432 1.287 . S
C433 C434 1.524 . S
C433 H436 0.999 . S
C434 H404 0.950 . S
C434 C433 1.524 . S
C434 C435 1.415 . S
C435 H405 0.950 . S
C435 C430 1.363 . S
C435 C434 1.415 . S
H436 C433 0.999 . S
H437 C418 0.913 . S
H438 C456 0.951 . S
H439 C458 0.951 . S
H440 C460 0.950 . S
H441 C461 0.950 . S
H442 C463 0.950 . S
H443 C466 0.950 . S
H444 C467 0.950 . S
H445 C469 0.950 . S
H446 C470 0.950 . S
H447 C471 0.951 . S
H448 C473 0.951 . S
H449 C475 0.950 . S
H450 C476 0.950 . S
H451 C478 0.950 . S
H452 C481 0.950 . S
H453 C482 0.950 . S
H454 C484 0.950 . S
H455 C485 0.950 . S
C456 H438 0.951 . S
C456 C457 1.366 . S
C456 C458 1.388 . S
C457 C456 1.366 . S
C457 C461 1.385 . S
C458 H439 0.951 . S
C458 C456 1.388 . S
C458 C459 1.366 . S
C459 C458 1.366 . S
C459 C460 1.414 . S
C459 C462 1.499 . S
C460 H440 0.950 . S
C460 C459 1.414 . S
C460 C461 1.374 . S
C461 H441 0.950 . S
C461 C457 1.385 . S
C461 C460 1.374 . S
C462 C459 1.499 . S
C462 C463 1.373 . S
C462 C464 1.389 . S
C463 H442 0.950 . S
C463 C462 1.373 . S
C463 C479 1.377 . S
C464 C462 1.389 . S
C464 C465 1.524 . S
C464 C478 1.377 . S
C465 C464 1.524 . S
C465 C466 1.397 . S
C465 C470 1.363 . S
C466 H443 0.950 . S
C466 C465 1.397 . S
C466 C467 1.334 . S
C467 H444 0.950 . S
C467 C466 1.334 . S
C467 C468 1.287 . S
C468 C467 1.287 . S
C468 C469 1.524 . S
C468 H487 0.913 . S
C469 H445 0.950 . S
C469 C468 1.524 . S
C469 C470 1.415 . S
C470 H446 0.950 . S
C470 C465 1.363 . S
C470 C469 1.415 . S
C471 H447 0.951 . S
C471 C472 1.366 . S
C471 C473 1.388 . S
C472 C471 1.366 . S
C472 C476 1.385 . S
C473 H448 0.951 . S
C473 C471 1.388 . S
C473 C474 1.366 . S
C474 C473 1.366 . S
C474 C475 1.414 . S
C474 C477 1.499 . S
C475 H449 0.950 . S
C475 C474 1.414 . S
C475 C476 1.374 . S
C476 H450 0.950 . S
C476 C472 1.385 . S
C476 C475 1.374 . S
C477 C474 1.499 . S
C477 C478 1.373 . S
C477 C479 1.389 . S
C478 H451 0.950 . S
C478 C464 1.377 . S
C478 C477 1.373 . S
C479 C463 1.377 . S
C479 C477 1.389 . S
C479 C480 1.524 . S
C480 C479 1.524 . S
C480 C481 1.397 . S
C480 C485 1.363 . S
C481 H452 0.950 . S
C481 C480 1.397 . S
C481 C482 1.334 . S
C482 H453 0.950 . S
C482 C481 1.334 . S
C482 C483 1.287 . S
C483 C482 1.287 . S
C483 C484 1.524 . S
C483 H486 0.999 . S
C484 H454 0.950 . S
C484 C483 1.524 . S
C484 C485 1.415 . S
C485 H455 0.950 . S
C485 C480 1.363 . S
C485 C484 1.415 . S
H486 C483 0.999 . S
H487 C468 0.913 . S
H488 C506 0.951 . S
H489 C508 0.951 . S
H490 C510 0.950 . S
H491 C511 0.950 . S
H492 C513 0.950 . S
H493 C516 0.950 . S
H494 C517 0.950 . S
H495 C519 0.950 . S
H496 C520 0.950 . S
H497 C521 0.951 . S
H498 C523 0.951 . S
H499 C525 0.950 . S
H500 C526 0.950 . S
H501 C528 0.950 . S
H502 C531 0.950 . S
H503 C532 0.950 . S
H504 C534 0.950 . S
H505 C535 0.950 . S
C506 H488 0.951 . S
C506 C507 1.366 . S
C506 C508 1.388 . S
C507 C506 1.366 . S
C507 C511 1.385 . S
C508 H489 0.951 . S
C508 C506 1.388 . S
C508 C509 1.366 . S
C509 C508 1.366 . S
C509 C510 1.414 . S
C509 C512 1.499 . S
C510 H490 0.950 . S
C510 C509 1.414 . S
C510 C511 1.374 . S
C511 H491 0.950 . S
C511 C507 1.385 . S
C511 C510 1.374 . S
C512 C509 1.499 . S
C512 C513 1.373 . S
C512 C514 1.389 . S
C513 H492 0.950 . S
C513 C512 1.373 . S
C513 C529 1.377 . S
C514 C512 1.389 . S
C514 C515 1.524 . S
C514 C528 1.377 . S
C515 C514 1.524 . S
C515 C516 1.397 . S
C515 C520 1.363 . S
C516 H493 0.950 . S
C516 C515 1.397 . S
C516 C517 1.334 . S
C517 H494 0.950 . S
C517 C516 1.334 . S
C517 C518 1.287 . S
C518 C517 1.287 . S
C518 C519 1.524 . S
C518 H537 0.913 . S
C519 H495 0.950 . S
C519 C518 1.524 . S
C519 C520 1.415 . S
C520 H496 0.950 . S
C520 C515 1.363 . S
C520 C519 1.415 . S
C521 H497 0.951 . S
C521 C522 1.366 . S
C521 C523 1.388 . S
C522 C521 1.366 . S
C522 C526 1.385 . S
C523 H498 0.951 . S
C523 C521 1.388 . S
C523 C524 1.366 . S
C524 C523 1.366 . S
C524 C525 1.414 . S
C524 C527 1.499 . S
C525 H499 0.950 . S
C525 C524 1.414 . S
C525 C526 1.374 . S
C526 H500 0.950 . S
C526 C522 1.385 . S
C526 C525 1.374 . S
C527 C524 1.499 . S
C527 C528 1.373 . S
C527 C529 1.389 . S
C528 H501 0.950 . S
C528 C514 1.377 . S
C528 C527 1.373 . S
C529 C513 1.377 . S
C529 C527 1.389 . S
C529 C530 1.524 . S
C530 C529 1.524 . S
C530 C531 1.397 . S
C530 C535 1.363 . S
C531 H502 0.950 . S
C531 C530 1.397 . S
C531 C532 1.334 . S
C532 H503 0.950 . S
C532 C531 1.334 . S
C532 C533 1.287 . S
C533 C532 1.287 . S
C533 C534 1.524 . S
C533 H536 0.999 . S
C534 H504 0.950 . S
C534 C533 1.524 . S
C534 C535 1.415 . S
C535 H505 0.950 . S
C535 C530 1.363 . S
C535 C534 1.415 . S
H536 C533 0.999 . S
H537 C518 0.913 . S
H538 C556 0.951 . S
H539 C558 0.951 . S
H540 C560 0.950 . S
H541 C561 0.950 . S
H542 C563 0.950 . S
H543 C566 0.950 . S
H544 C567 0.950 . S
H545 C569 0.950 . S
H546 C570 0.950 . S
H547 C571 0.951 . S
H548 C573 0.951 . S
H549 C575 0.950 . S
H550 C576 0.950 . S
H551 C578 0.950 . S
H552 C581 0.950 . S
H553 C582 0.950 . S
H554 C584 0.950 . S
H555 C585 0.950 . S
C556 H538 0.951 . S
C556 C557 1.366 . S
C556 C558 1.388 . S
C557 C556 1.366 . S
C557 C561 1.385 . S
C558 H539 0.951 . S
C558 C556 1.388 . S
C558 C559 1.366 . S
C559 C558 1.366 . S
C559 C560 1.414 . S
C559 C562 1.499 . S
C560 H540 0.950 . S
C560 C559 1.414 . S
C560 C561 1.374 . S
C561 H541 0.950 . S
C561 C557 1.385 . S
C561 C560 1.374 . S
C562 C559 1.499 . S
C562 C563 1.373 . S
C562 C564 1.389 . S
C563 H542 0.950 . S
C563 C562 1.373 . S
C563 C579 1.377 . S
C564 C562 1.389 . S
C564 C565 1.524 . S
C564 C578 1.377 . S
C565 C564 1.524 . S
C565 C566 1.397 . S
C565 C570 1.363 . S
C566 H543 0.950 . S
C566 C565 1.397 . S
C566 C567 1.334 . S
C567 H544 0.950 . S
C567 C566 1.334 . S
C567 C568 1.287 . S
C568 C567 1.287 . S
C568 C569 1.524 . S
C568 H587 0.913 . S
C569 H545 0.950 . S
C569 C568 1.524 . S
C569 C570 1.415 . S
C570 H546 0.950 . S
C570 C565 1.363 . S
C570 C569 1.415 . S
C571 H547 0.951 . S
C571 C572 1.366 . S
C571 C573 1.388 . S
C572 C571 1.366 . S
C572 C576 1.385 . S
C573 H548 0.951 . S
C573 C571 1.388 . S
C573 C574 1.366 . S
C574 C573 1.366 . S
C574 C575 1.414 . S
C574 C577 1.499 . S
C575 H549 0.950 . S
C575 C574 1.414 . S
C575 C576 1.374 . S
C576 H550 0.950 . S
C576 C572 1.385 . S
C576 C575 1.374 . S
C577 C574 1.499 . S
C577 C578 1.373 . S
C577 C579 1.389 . S
C578 H551 0.950 . S
C578 C564 1.377 . S
C578 C577 1.373 . S
C579 C563 1.377 . S
C579 C577 1.389 . S
C579 C580 1.524 . S
C580 C579 1.524 . S
C580 C581 1.397 . S
C580 C585 1.363 . S
C581 H552 0.950 . S
C581 C580 1.397 . S
C581 C582 1.334 . S
C582 H553 0.950 . S
C582 C581 1.334 . S
C582 C583 1.287 . S
C583 C582 1.287 . S
C583 C584 1.524 . S
C583 H586 0.999 . S
C584 H554 0.950 . S
C584 C583 1.524 . S
C584 C585 1.415 . S
C585 H555 0.950 . S
C585 C580 1.363 . S
C585 C584 1.415 . S
H586 C583 0.999 . S
H587 C568 0.913 . S
H588 C606 0.951 . S
H589 C608 0.951 . S
H590 C610 0.950 . S
H591 C611 0.950 . S
H592 C613 0.950 . S
H593 C616 0.950 . S
H594 C617 0.950 . S
H595 C619 0.950 . S
H596 C620 0.950 . S
H597 C621 0.951 . S
H598 C623 0.951 . S
H599 C625 0.950 . S
H600 C626 0.950 . S
H601 C628 0.950 . S
H602 C631 0.950 . S
H603 C632 0.950 . S
H604 C634 0.950 . S
H605 C635 0.950 . S
C606 H588 0.951 . S
C606 C607 1.366 . S
C606 C608 1.388 . S
C607 C606 1.366 . S
C607 C611 1.385 . S
C608 H589 0.951 . S
C608 C606 1.388 . S
C608 C609 1.366 . S
C609 C608 1.366 . S
C609 C610 1.414 . S
C609 C612 1.499 . S
C610 H590 0.950 . S
C610 C609 1.414 . S
C610 C611 1.374 . S
C611 H591 0.950 . S
C611 C607 1.385 . S
C611 C610 1.374 . S
C612 C609 1.499 . S
C612 C613 1.373 . S
C612 C614 1.389 . S
C613 H592 0.950 . S
C613 C612 1.373 . S
C613 C629 1.377 . S
C614 C612 1.389 . S
C614 C615 1.524 . S
C614 C628 1.377 . S
C615 C614 1.524 . S
C615 C616 1.397 . S
C615 C620 1.363 . S
C616 H593 0.950 . S
C616 C615 1.397 . S
C616 C617 1.334 . S
C617 H594 0.950 . S
C617 C616 1.334 . S
C617 C618 1.287 . S
C618 C617 1.287 . S
C618 C619 1.524 . S
C618 H637 0.913 . S
C619 H595 0.950 . S
C619 C618 1.524 . S
C619 C620 1.415 . S
C620 H596 0.950 . S
C620 C615 1.363 . S
C620 C619 1.415 . S
C621 H597 0.951 . S
C621 C622 1.366 . S
C621 C623 1.388 . S
C622 C621 1.366 . S
C622 C626 1.385 . S
C623 H598 0.951 . S
C623 C621 1.388 . S
C623 C624 1.366 . S
C624 C623 1.366 . S
C624 C625 1.414 . S
C624 C627 1.499 . S
C625 H599 0.950 . S
C625 C624 1.414 . S
C625 C626 1.374 . S
C626 H600 0.950 . S
C626 C622 1.385 . S
C626 C625 1.374 . S
C627 C624 1.499 . S
C627 C628 1.373 . S
C627 C629 1.389 . S
C628 H601 0.950 . S
C628 C614 1.377 . S
C628 C627 1.373 . S
C629 C613 1.377 . S
C629 C627 1.389 . S
C629 C630 1.524 . S
C630 C629 1.524 . S
C630 C631 1.397 . S
C630 C635 1.363 . S
C631 H602 0.950 . S
C631 C630 1.397 . S
C631 C632 1.334 . S
C632 H603 0.950 . S
C632 C631 1.334 . S
C632 C633 1.287 . S
C633 C632 1.287 . S
C633 C634 1.524 . S
C633 H636 0.999 . S
C634 H604 0.950 . S
C634 C633 1.524 . S
C634 C635 1.415 . S
C635 H605 0.950 . S
C635 C630 1.363 . S
C635 C634 1.415 . S
H636 C633 0.999 . S
H637 C618 0.913 . S
H638 C656 0.951 . S
H639 C658 0.951 . S
H640 C660 0.950 . S
H641 C661 0.950 . S
H642 C663 0.950 . S
H643 C666 0.950 . S
H644 C667 0.950 . S
H645 C669 0.950 . S
H646 C670 0.950 . S
H647 C671 0.951 . S
H648 C673 0.951 . S
H649 C675 0.950 . S
H650 C676 0.950 . S
H651 C678 0.950 . S
H652 C681 0.950 . S
H653 C682 0.950 . S
H654 C684 0.950 . S
H655 C685 0.950 . S
C656 H638 0.951 . S
C656 C657 1.366 . S
C656 C658 1.388 . S
C657 C656 1.366 . S
C657 C661 1.385 . S
C658 H639 0.951 . S
C658 C656 1.388 . S
C658 C659 1.366 . S
C659 C658 1.366 . S
C659 C660 1.414 . S
C659 C662 1.499 . S
C660 H640 0.950 . S
C660 C659 1.414 . S
C660 C661 1.374 . S
C661 H641 0.950 . S
C661 C657 1.385 . S
C661 C660 1.374 . S
C662 C659 1.499 . S
C662 C663 1.373 . S
C662 C664 1.389 . S
C663 H642 0.950 . S
C663 C662 1.373 . S
C663 C679 1.377 . S
C664 C662 1.389 . S
C664 C665 1.524 . S
C664 C678 1.377 . S
C665 C664 1.524 . S
C665 C666 1.397 . S
C665 C670 1.363 . S
C666 H643 0.950 . S
C666 C665 1.397 . S
C666 C667 1.334 . S
C667 H644 0.950 . S
C667 C666 1.334 . S
C667 C668 1.287 . S
C668 C667 1.287 . S
C668 C669 1.524 . S
C668 H687 0.913 . S
C669 H645 0.950 . S
C669 C668 1.524 . S
C669 C670 1.415 . S
C670 H646 0.950 . S
C670 C665 1.363 . S
C670 C669 1.415 . S
C671 H647 0.951 . S
C671 C672 1.366 . S
C671 C673 1.388 . S
C672 C671 1.366 . S
C672 C676 1.385 . S
C673 H648 0.951 . S
C673 C671 1.388 . S
C673 C674 1.366 . S
C674 C673 1.366 . S
C674 C675 1.414 . S
C674 C677 1.499 . S
C675 H649 0.950 . S
C675 C674 1.414 . S
C675 C676 1.374 . S
C676 H650 0.950 . S
C676 C672 1.385 . S
C676 C675 1.374 . S
C677 C674 1.499 . S
C677 C678 1.373 . S
C677 C679 1.389 . S
C678 H651 0.950 . S
C678 C664 1.377 . S
C678 C677 1.373 . S
C679 C663 1.377 . S
C679 C677 1.389 . S
C679 C680 1.524 . S
C680 C679 1.524 . S
C680 C681 1.397 . S
C680 C685 1.363 . S
C681 H652 0.950 . S
C681 C680 1.397 . S
C681 C682 1.334 . S
C682 H653 0.950 . S
C682 C681 1.334 . S
C682 C683 1.287 . S
C683 C682 1.287 . S
C683 C684 1.524 . S
C683 H686 0.999 . S
C684 H654 0.950 . S
C684 C683 1.524 . S
C684 C685 1.415 . S
C685 H655 0.950 . S
C685 C680 1.363 . S
C685 C684 1.415 . S
H686 C683 0.999 . S
H687 C668 0.913 . S
H688 C706 0.951 . S
H689 C708 0.951 . S
H690 C710 0.950 1_545 S
H691 C711 0.950 . S
H692 C713 0.950 . S
H693 C716 0.950 . S
H694 C717 0.950 . S
H695 C719 0.950 . S
H696 C720 0.950 . S
H697 C721 0.951 . S
H698 C723 0.951 . S
H699 C725 0.950 1_565 S
H700 C726 0.950 . S
H701 C728 0.950 . S
H702 C731 0.950 . S
H703 C732 0.950 . S
H704 C734 0.950 . S
H705 C735 0.950 . S
C706 H688 0.951 . S
C706 C707 1.366 . S
C706 C708 1.388 . S
C707 C706 1.366 . S
C707 C711 1.385 . S
C708 H689 0.951 . S
C708 C706 1.388 . S
C708 C709 1.366 . S
C709 C708 1.366 . S
C709 C710 1.414 . S
C709 C712 1.499 . S
C710 H690 0.950 1_565 S
C710 C709 1.414 . S
C710 C711 1.374 . S
C711 H691 0.950 . S
C711 C707 1.385 . S
C711 C710 1.374 . S
C712 C709 1.499 . S
C712 C713 1.373 1_565 S
C712 C714 1.389 . S
C713 H692 0.950 . S
C713 C712 1.373 1_545 S
C713 C729 1.377 . S
C714 C712 1.389 . S
C714 C715 1.524 . S
C714 C728 1.377 . S
C715 C714 1.524 . S
C715 C716 1.397 . S
C715 C720 1.363 . S
C716 H693 0.950 . S
C716 C715 1.397 . S
C716 C717 1.334 . S
C717 H694 0.950 . S
C717 C716 1.334 . S
C717 C718 1.287 . S
C718 C717 1.287 . S
C718 C719 1.524 . S
C718 H737 0.913 . S
C719 H695 0.950 . S
C719 C718 1.524 . S
C719 C720 1.415 . S
C720 H696 0.950 . S
C720 C715 1.363 . S
C720 C719 1.415 . S
C721 H697 0.951 . S
C721 C722 1.366 . S
C721 C723 1.388 . S
C722 C721 1.366 . S
C722 C726 1.385 . S
C723 H698 0.951 . S
C723 C721 1.388 . S
C723 C724 1.366 . S
C724 C723 1.366 . S
C724 C725 1.414 . S
C724 C727 1.499 . S
C725 H699 0.950 1_545 S
C725 C724 1.414 . S
C725 C726 1.374 . S
C726 H700 0.950 . S
C726 C722 1.385 . S
C726 C725 1.374 . S
C727 C724 1.499 . S
C727 C728 1.373 1_545 S
C727 C729 1.389 . S
C728 H701 0.950 . S
C728 C714 1.377 . S
C728 C727 1.373 1_565 S
C729 C713 1.377 . S
C729 C727 1.389 . S
C729 C730 1.524 . S
C730 C729 1.524 . S
C730 C731 1.397 . S
C730 C735 1.363 . S
C731 H702 0.950 . S
C731 C730 1.397 . S
C731 C732 1.334 . S
C732 H703 0.950 . S
C732 C731 1.334 . S
C732 C733 1.287 . S
C733 C732 1.287 . S
C733 C734 1.524 . S
C733 H736 0.999 . S
C734 H704 0.950 . S
C734 C733 1.524 . S
C734 C735 1.415 . S
C735 H705 0.950 . S
C735 C730 1.363 . S
C735 C734 1.415 . S
H736 C733 0.999 . S
H737 C718 0.913 . S
H738 C756 0.951 . S
H739 C758 0.951 . S
H740 C760 0.950 1_545 S
H741 C761 0.950 . S
H742 C763 0.950 . S
H743 C766 0.950 . S
H744 C767 0.950 . S
H745 C769 0.950 . S
H746 C770 0.950 . S
H747 C771 0.951 . S
H748 C773 0.951 . S
H749 C775 0.950 1_565 S
H750 C776 0.950 . S
H751 C778 0.950 . S
H752 C781 0.950 . S
H753 C782 0.950 . S
H754 C784 0.950 . S
H755 C785 0.950 . S
C756 H738 0.951 . S
C756 C757 1.366 . S
C756 C758 1.388 . S
C757 C756 1.366 . S
C757 C761 1.385 . S
C758 H739 0.951 . S
C758 C756 1.388 . S
C758 C759 1.366 . S
C759 C758 1.366 . S
C759 C760 1.414 . S
C759 C762 1.499 . S
C760 H740 0.950 1_565 S
C760 C759 1.414 . S
C760 C761 1.374 . S
C761 H741 0.950 . S
C761 C757 1.385 . S
C761 C760 1.374 . S
C762 C759 1.499 . S
C762 C763 1.373 . S
C762 C764 1.389 . S
C763 H742 0.950 . S
C763 C762 1.373 . S
C763 C779 1.377 1_565 S
C764 C762 1.389 . S
C764 C765 1.524 1_565 S
C764 C778 1.377 1_565 S
C765 C764 1.524 1_545 S
C765 C766 1.403 . S
C765 C770 1.358 1_545 S
C766 H743 0.950 . S
C766 C765 1.403 . S
C766 C767 1.334 . S
C767 H744 0.950 . S
C767 C766 1.334 . S
C767 C768 1.287 . S
C768 C767 1.287 . S
C768 C769 1.524 1_545 S
C768 H787 0.913 . S
C769 H745 0.950 . S
C769 C768 1.524 1_565 S
C769 C770 1.415 . S
C770 H746 0.950 . S
C770 C765 1.358 1_565 S
C770 C769 1.415 . S
C771 H747 0.951 . S
C771 C772 1.366 . S
C771 C773 1.388 . S
C772 C771 1.366 . S
C772 C776 1.385 . S
C773 H748 0.951 . S
C773 C771 1.388 . S
C773 C774 1.366 . S
C774 C773 1.366 . S
C774 C775 1.414 . S
C774 C777 1.499 . S
C775 H749 0.950 1_545 S
C775 C774 1.414 . S
C775 C776 1.374 . S
C776 H750 0.950 . S
C776 C772 1.385 . S
C776 C775 1.374 . S
C777 C774 1.499 . S
C777 C778 1.373 . S
C777 C779 1.389 . S
C778 H751 0.950 . S
C778 C764 1.377 1_545 S
C778 C777 1.373 . S
C779 C763 1.377 1_545 S
C779 C777 1.389 . S
C779 C780 1.524 1_545 S
C780 C779 1.524 1_565 S
C780 C781 1.403 . S
C780 C785 1.358 1_565 S
C781 H752 0.950 . S
C781 C780 1.403 . S
C781 C782 1.334 . S
C782 H753 0.950 . S
C782 C781 1.334 . S
C782 C783 1.287 . S
C783 C782 1.287 . S
C783 C784 1.524 1_565 S
C783 H786 0.999 . S
C784 H754 0.950 . S
C784 C783 1.524 1_545 S
C784 C785 1.415 . S
C785 H755 0.950 . S
C785 C780 1.358 1_545 S
C785 C784 1.415 . S
H786 C783 0.999 . S
H787 C768 0.913 . S
H788 C806 0.951 . S
H789 C808 0.951 . S
H790 C810 0.950 1_545 S
H791 C811 0.950 . S
H792 C813 0.950 . S
H793 C816 0.950 . S
H794 C817 0.950 . S
H795 C819 0.950 . S
H796 C820 0.950 . S
H797 C821 0.951 . S
H798 C823 0.951 . S
H799 C825 0.950 1_565 S
H800 C826 0.950 . S
H801 C828 0.950 . S
H802 C831 0.950 . S
H803 C832 0.950 . S
H804 C834 0.950 . S
H805 C835 0.950 . S
C806 H788 0.951 . S
C806 C807 1.366 . S
C806 C808 1.388 . S
C807 C806 1.366 . S
C807 C811 1.385 . S
C808 H789 0.951 . S
C808 C806 1.388 . S
C808 C809 1.366 . S
C809 C808 1.366 . S
C809 C810 1.414 . S
C809 C812 1.499 . S
C810 H790 0.950 1_565 S
C810 C809 1.414 . S
C810 C811 1.374 . S
C811 H791 0.950 . S
C811 C807 1.385 . S
C811 C810 1.374 . S
C812 C809 1.499 . S
C812 C813 1.373 1_565 S
C812 C814 1.389 . S
C813 H792 0.950 . S
C813 C812 1.373 1_545 S
C813 C829 1.377 . S
C814 C812 1.389 . S
C814 C815 1.524 . S
C814 C828 1.377 . S
C815 C814 1.524 . S
C815 C816 1.397 . S
C815 C820 1.363 . S
C816 H793 0.950 . S
C816 C815 1.397 . S
C816 C817 1.334 . S
C817 H794 0.950 . S
C817 C816 1.334 . S
C817 C818 1.287 . S
C818 C817 1.287 . S
C818 C819 1.524 . S
C818 H837 0.913 . S
C819 H795 0.950 . S
C819 C818 1.524 . S
C819 C820 1.415 . S
C820 H796 0.950 . S
C820 C815 1.363 . S
C820 C819 1.415 . S
C821 H797 0.951 . S
C821 C822 1.366 . S
C821 C823 1.388 . S
C822 C821 1.366 . S
C822 C826 1.385 . S
C823 H798 0.951 . S
C823 C821 1.388 . S
C823 C824 1.366 . S
C824 C823 1.366 . S
C824 C825 1.414 . S
C824 C827 1.499 . S
C825 H799 0.950 1_545 S
C825 C824 1.414 . S
C825 C826 1.374 . S
C826 H800 0.950 . S
C826 C822 1.385 . S
C826 C825 1.374 . S
C827 C824 1.499 . S
C827 C828 1.373 1_545 S
C827 C829 1.389 . S
C828 H801 0.950 . S
C828 C814 1.377 . S
C828 C827 1.373 1_565 S
C829 C813 1.377 . S
C829 C827 1.389 . S
C829 C830 1.524 . S
C830 C829 1.524 . S
C830 C831 1.397 . S
C830 C835 1.363 . S
C831 H802 0.950 . S
C831 C830 1.397 . S
C831 C832 1.334 . S
C832 H803 0.950 . S
C832 C831 1.334 . S
C832 C833 1.287 . S
C833 C832 1.287 . S
C833 C834 1.524 . S
C833 H836 0.999 . S
C834 H804 0.950 . S
C834 C833 1.524 . S
C834 C835 1.415 . S
C835 H805 0.950 . S
C835 C830 1.363 . S
C835 C834 1.415 . S
H836 C833 0.999 . S
H837 C818 0.913 . S
H838 C856 0.951 . S
H839 C858 0.951 1_545 S
H840 C860 0.950 . S
H841 C861 0.950 . S
H842 C863 0.950 . S
H843 C866 0.950 . S
H844 C867 0.950 . S
H845 C869 0.950 . S
H846 C870 0.950 . S
H847 C871 0.951 . S
H848 C873 0.951 1_565 S
H849 C875 0.950 . S
H850 C876 0.950 . S
H851 C878 0.950 . S
H852 C881 0.950 . S
H853 C882 0.950 . S
H854 C884 0.950 . S
H855 C885 0.950 . S
C856 H838 0.951 . S
C856 C857 1.366 . S
C856 C858 1.388 . S
C857 C856 1.366 . S
C857 C861 1.385 . S
C858 H839 0.951 1_565 S
C858 C856 1.388 . S
C858 C859 1.366 . S
C859 C858 1.366 . S
C859 C860 1.414 . S
C859 C862 1.499 . S
C860 H840 0.950 . S
C860 C859 1.414 . S
C860 C861 1.374 . S
C861 H841 0.950 . S
C861 C857 1.385 . S
C861 C860 1.374 . S
C862 C859 1.499 . S
C862 C863 1.373 . S
C862 C864 1.389 . S
C863 H842 0.950 . S
C863 C862 1.373 . S
C863 C879 1.377 1_565 S
C864 C862 1.389 . S
C864 C865 1.524 . S
C864 C878 1.377 1_565 S
C865 C864 1.524 . S
C865 C866 1.397 . S
C865 C870 1.363 1_565 S
C866 H843 0.950 . S
C866 C865 1.397 . S
C866 C867 1.334 . S
C867 H844 0.950 . S
C867 C866 1.334 . S
C867 C868 1.287 . S
C868 C867 1.287 . S
C868 C869 1.524 1_565 S
C868 H887 0.913 . S
C869 H845 0.950 . S
C869 C868 1.524 1_545 S
C869 C870 1.415 . S
C870 H846 0.950 . S
C870 C865 1.363 1_545 S
C870 C869 1.415 . S
C871 H847 0.951 . S
C871 C872 1.366 . S
C871 C873 1.388 . S
C872 C871 1.366 . S
C872 C876 1.385 . S
C873 H848 0.951 1_545 S
C873 C871 1.388 . S
C873 C874 1.366 . S
C874 C873 1.366 . S
C874 C875 1.414 . S
C874 C877 1.499 . S
C875 H849 0.950 . S
C875 C874 1.414 . S
C875 C876 1.374 . S
C876 H850 0.950 . S
C876 C872 1.385 . S
C876 C875 1.374 . S
C877 C874 1.499 . S
C877 C878 1.373 . S
C877 C879 1.389 . S
C878 H851 0.950 . S
C878 C864 1.377 1_545 S
C878 C877 1.373 . S
C879 C863 1.377 1_545 S
C879 C877 1.389 . S
C879 C880 1.524 . S
C880 C879 1.524 . S
C880 C881 1.397 . S
C880 C885 1.363 1_545 S
C881 H852 0.950 . S
C881 C880 1.397 . S
C881 C882 1.334 . S
C882 H853 0.950 . S
C882 C881 1.334 . S
C882 C883 1.287 . S
C883 C882 1.287 . S
C883 C884 1.524 1_545 S
C883 H886 0.999 . S
C884 H854 0.950 . S
C884 C883 1.524 1_565 S
C884 C885 1.415 . S
C885 H855 0.950 . S
C885 C880 1.363 1_565 S
C885 C884 1.415 . S
H886 C883 0.999 . S
H887 C868 0.913 . S
H888 C906 0.951 . S
H889 C908 0.951 . S
H890 C910 0.950 . S
H891 C911 0.950 . S
H892 C913 0.950 . S
H893 C916 0.950 . S
H894 C917 0.950 . S
H895 C919 0.950 . S
H896 C920 0.950 . S
H897 C921 0.951 . S
H898 C923 0.951 . S
H899 C925 0.950 . S
H900 C926 0.950 . S
H901 C928 0.950 . S
H902 C931 0.950 . S
H903 C932 0.950 . S
H904 C934 0.950 . S
H905 C935 0.950 . S
C906 H888 0.951 . S
C906 C907 1.366 . S
C906 C908 1.388 . S
C907 C906 1.366 . S
C907 C911 1.385 1_554 S
C908 H889 0.951 . S
C908 C906 1.388 . S
C908 C909 1.366 . S
C909 C908 1.366 . S
C909 C910 1.414 1_554 S
C909 C912 1.499 . S
C910 H890 0.950 . S
C910 C909 1.414 1_556 S
C910 C911 1.374 . S
C911 H891 0.950 . S
C911 C907 1.385 1_556 S
C911 C910 1.374 . S
C912 C909 1.499 . S
C912 C913 1.373 . S
C912 C914 1.389 1_565 S
C913 H892 0.950 . S
C913 C912 1.373 . S
C913 C929 1.377 . S
C914 C912 1.389 1_545 S
C914 C915 1.524 . S
C914 C928 1.377 . S
C915 C914 1.524 . S
C915 C916 1.397 1_554 S
C915 C920 1.363 . S
C916 H893 0.950 . S
C916 C915 1.397 1_556 S
C916 C917 1.334 . S
C917 H894 0.950 . S
C917 C916 1.334 . S
C917 C918 1.287 1_556 S
C918 C917 1.287 1_554 S
C918 C919 1.524 . S
C918 H937 0.913 . S
C919 H895 0.950 . S
C919 C918 1.524 . S
C919 C920 1.415 . S
C920 H896 0.950 . S
C920 C915 1.363 . S
C920 C919 1.415 . S
C921 H897 0.951 . S
C921 C922 1.366 1_556 S
C921 C923 1.388 . S
C922 C921 1.366 1_554 S
C922 C926 1.385 . S
C923 H898 0.951 . S
C923 C921 1.388 . S
C923 C924 1.366 1_556 S
C924 C923 1.366 1_554 S
C924 C925 1.414 . S
C924 C927 1.499 . S
C925 H899 0.950 . S
C925 C924 1.414 . S
C925 C926 1.374 . S
C926 H900 0.950 . S
C926 C922 1.385 . S
C926 C925 1.374 . S
C927 C924 1.499 . S
C927 C928 1.373 . S
C927 C929 1.389 1_545 S
C928 H901 0.950 . S
C928 C914 1.377 . S
C928 C927 1.373 . S
C929 C913 1.377 . S
C929 C927 1.389 1_565 S
C929 C930 1.524 . S
C930 C929 1.524 . S
C930 C931 1.397 . S
C930 C935 1.363 1_554 S
C931 H902 0.950 . S
C931 C930 1.397 . S
C931 C932 1.334 . S
C932 H903 0.950 . S
C932 C931 1.334 . S
C932 C933 1.287 . S
C933 C932 1.287 . S
C933 C934 1.524 1_554 S
C933 H936 0.999 . S
C934 H904 0.950 . S
C934 C933 1.524 1_556 S
C934 C935 1.415 . S
C935 H905 0.950 . S
C935 C930 1.363 1_556 S
C935 C934 1.415 . S
H936 C933 0.999 . S
H937 C918 0.913 . S
H938 C956 0.951 . S
H939 C958 0.951 . S
H940 C960 0.950 . S
H941 C961 0.950 . S
H942 C963 0.950 . S
H943 C966 0.950 . S
H944 C967 0.950 . S
H945 C969 0.950 . S
H946 C970 0.950 . S
H947 C971 0.951 . S
H948 C973 0.951 . S
H949 C975 0.950 . S
H950 C976 0.950 . S
H951 C978 0.950 . S
H952 C981 0.950 . S
H953 C982 0.950 . S
H954 C984 0.950 . S
H955 C985 0.950 . S
C956 H938 0.951 . S
C956 C957 1.366 . S
C956 C958 1.388 . S
C957 C956 1.366 . S
C957 C961 1.385 . S
C958 H939 0.951 . S
C958 C956 1.388 . S
C958 C959 1.366 . S
C959 C958 1.366 . S
C959 C960 1.414 . S
C959 C962 1.499 . S
C960 H940 0.950 . S
C960 C959 1.414 . S
C960 C961 1.374 . S
C961 H941 0.950 . S
C961 C957 1.385 . S
C961 C960 1.374 . S
C962 C959 1.499 . S
C962 C963 1.373 . S
C962 C964 1.389 1_565 S
C963 H942 0.950 . S
C963 C962 1.373 . S
C963 C979 1.377 . S
C964 C962 1.389 1_545 S
C964 C965 1.524 . S
C964 C978 1.377 . S
C965 C964 1.524 . S
C965 C966 1.397 1_545 S
C965 C970 1.363 . S
C966 H943 0.950 . S
C966 C965 1.397 1_565 S
C966 C967 1.334 . S
C967 H944 0.950 . S
C967 C966 1.334 . S
C967 C968 1.287 1_565 S
C968 C967 1.287 1_545 S
C968 C969 1.524 . S
C968 H987 0.913 . S
C969 H945 0.950 . S
C969 C968 1.524 . S
C969 C970 1.415 . S
C970 H946 0.950 . S
C970 C965 1.363 . S
C970 C969 1.415 . S
C971 H947 0.951 . S
C971 C972 1.366 . S
C971 C973 1.388 . S
C972 C971 1.366 . S
C972 C976 1.385 . S
C973 H948 0.951 . S
C973 C971 1.388 . S
C973 C974 1.366 . S
C974 C973 1.366 . S
C974 C975 1.414 . S
C974 C977 1.499 . S
C975 H949 0.950 . S
C975 C974 1.414 . S
C975 C976 1.374 . S
C976 H950 0.950 . S
C976 C972 1.385 . S
C976 C975 1.374 . S
C977 C974 1.499 . S
C977 C978 1.373 . S
C977 C979 1.389 1_545 S
C978 H951 0.950 . S
C978 C964 1.377 . S
C978 C977 1.373 . S
C979 C963 1.377 . S
C979 C977 1.389 1_565 S
C979 C980 1.524 . S
C980 C979 1.524 . S
C980 C981 1.397 1_565 S
C980 C985 1.363 . S
C981 H952 0.950 . S
C981 C980 1.397 1_545 S
C981 C982 1.334 . S
C982 H953 0.950 . S
C982 C981 1.334 . S
C982 C983 1.287 1_545 S
C983 C982 1.287 1_565 S
C983 C984 1.524 . S
C983 H986 0.999 . S
C984 H954 0.950 . S
C984 C983 1.524 . S
C984 C985 1.415 . S
C985 H955 0.950 . S
C985 C980 1.363 . S
C985 C984 1.415 . S
H986 C983 0.999 . S
H987 C968 0.913 . S
H988 C1006 0.951 1_556 S
H989 C1008 0.951 1_556 S
H990 C1010 0.950 . S
H991 C1011 0.950 . S
H992 C1013 0.950 1_556 S
H993 C1016 0.950 . S
H994 C1017 0.950 1_455 S
H995 C1019 0.950 . S
H996 C1020 0.950 . S
H997 C1021 0.951 . S
H998 C1023 0.951 . S
H999 C1025 0.953 . S
H1000 C1026 0.947 1_556 S
H1001 C1028 0.950 . S
H1002 C1031 0.950 . S
H1003 C1032 0.950 1_655 S
H1004 C1034 0.950 . S
H1005 C1035 0.950 1_554 S
C1006 H988 0.951 1_554 S
C1006 C1007 1.366 . S
C1006 C1008 1.388 . S
C1007 C1006 1.366 . S
C1007 C1011 1.385 . S
C1008 H989 0.951 1_554 S
C1008 C1006 1.388 . S
C1008 C1009 1.366 . S
C1009 C1008 1.366 . S
C1009 C1010 1.414 . S
C1009 C1012 1.499 . S
C1010 H990 0.950 . S
C1010 C1009 1.414 . S
C1010 C1011 1.374 . S
C1011 H991 0.950 . S
C1011 C1007 1.385 . S
C1011 C1010 1.374 . S
C1012 C1009 1.499 . S
C1012 C1013 1.373 . S
C1012 C1014 1.389 1_455 S
C1013 H992 0.950 1_554 S
C1013 C1012 1.373 . S
C1013 C1029 1.377 1_554 S
C1014 C1012 1.389 1_655 S
C1014 C1015 1.524 . S
C1014 C1028 1.377 . S
C1015 C1014 1.524 . S
C1015 C1016 1.397 1_655 S
C1015 C1020 1.363 . S
C1016 H993 0.950 . S
C1016 C1015 1.397 1_455 S
C1016 C1017 1.334 1_455 S
C1017 H994 0.950 1_655 S
C1017 C1016 1.334 1_655 S
C1017 C1018 1.287 . S
C1018 C1017 1.287 . S
C1018 C1019 1.524 . S
C1018 H1037 0.913 . S
C1019 H995 0.950 . S
C1019 C1018 1.524 . S
C1019 C1020 1.415 . S
C1020 H996 0.950 . S
C1020 C1015 1.363 . S
C1020 C1019 1.415 . S
C1021 H997 0.951 . S
C1021 C1022 1.366 . S
C1021 C1023 1.388 . S
C1022 C1021 1.366 . S
C1022 C1026 1.388 . S
C1023 H998 0.951 . S
C1023 C1021 1.388 . S
C1023 C1024 1.366 . S
C1024 C1023 1.366 . S
C1024 C1025 1.412 1_554 S
C1024 C1027 1.499 . S
C1025 H999 0.953 . S
C1025 C1024 1.412 1_556 S
C1025 C1026 1.374 1_556 S
C1026 H1000 0.947 1_554 S
C1026 C1022 1.388 . S
C1026 C1025 1.374 1_554 S
C1027 C1024 1.499 . S
C1027 C1028 1.373 . S
C1027 C1029 1.389 1_654 S
C1028 H1001 0.950 . S
C1028 C1014 1.377 . S
C1028 C1027 1.373 . S
C1029 C1013 1.377 1_556 S
C1029 C1027 1.389 1_456 S
C1029 C1030 1.524 . S
C1030 C1029 1.524 . S
C1030 C1031 1.397 1_455 S
C1030 C1035 1.363 . S
C1031 H1002 0.950 . S
C1031 C1030 1.397 1_655 S
C1031 C1032 1.334 1_655 S
C1032 H1003 0.950 1_455 S
C1032 C1031 1.334 1_455 S
C1032 C1033 1.287 . S
C1033 C1032 1.287 . S
C1033 C1034 1.524 . S
C1033 H1036 0.999 . S
C1034 H1004 0.950 . S
C1034 C1033 1.524 . S
C1034 C1035 1.415 . S
C1035 H1005 0.950 1_556 S
C1035 C1030 1.363 . S
C1035 C1034 1.415 . S
H1036 C1033 0.999 . S
H1037 C1018 0.913 . S
H1038 C1056 0.951 . S
H1039 C1058 0.951 . S
H1040 C1060 0.950 . S
H1041 C1061 0.950 . S
H1042 C1063 0.950 . S
H1043 C1066 0.950 1_455 S
H1044 C1067 0.950 . S
H1045 C1069 0.950 . S
H1046 C1070 0.950 . S
H1047 C1071 0.951 . S
H1048 C1073 0.951 . S
H1049 C1075 0.950 . S
H1050 C1076 0.950 . S
H1051 C1078 0.950 . S
H1052 C1081 0.950 1_655 S
H1053 C1082 0.950 . S
H1054 C1084 0.950 . S
H1055 C1085 0.950 . S
C1056 H1038 0.951 . S
C1056 C1057 1.366 . S
C1056 C1058 1.388 . S
C1057 C1056 1.366 . S
C1057 C1061 1.385 . S
C1058 H1039 0.951 . S
C1058 C1056 1.388 . S
C1058 C1059 1.366 . S
C1059 C1058 1.366 . S
C1059 C1060 1.414 . S
C1059 C1062 1.499 . S
C1060 H1040 0.950 . S
C1060 C1059 1.414 . S
C1060 C1061 1.374 . S
C1061 H1041 0.950 . S
C1061 C1057 1.385 . S
C1061 C1060 1.374 . S
C1062 C1059 1.499 . S
C1062 C1063 1.373 . S
C1062 C1064 1.389 1_455 S
C1063 H1042 0.950 . S
C1063 C1062 1.373 . S
C1063 C1079 1.377 . S
C1064 C1062 1.389 1_655 S
C1064 C1065 1.524 . S
C1064 C1078 1.377 . S
C1065 C1064 1.524 . S
C1065 C1066 1.397 . S
C1065 C1070 1.363 . S
C1066 H1043 0.950 1_655 S
C1066 C1065 1.397 . S
C1066 C1067 1.334 . S
C1067 H1044 0.950 . S
C1067 C1066 1.334 . S
C1067 C1068 1.287 . S
C1068 C1067 1.287 . S
C1068 C1069 1.524 . S
C1068 H1087 0.913 . S
C1069 H1045 0.950 . S
C1069 C1068 1.524 . S
C1069 C1070 1.415 . S
C1070 H1046 0.950 . S
C1070 C1065 1.363 . S
C1070 C1069 1.415 . S
C1071 H1047 0.951 . S
C1071 C1072 1.366 . S
C1071 C1073 1.388 . S
C1072 C1071 1.366 . S
C1072 C1076 1.385 . S
C1073 H1048 0.951 . S
C1073 C1071 1.388 . S
C1073 C1074 1.366 . S
C1074 C1073 1.366 . S
C1074 C1075 1.414 . S
C1074 C1077 1.499 . S
C1075 H1049 0.950 . S
C1075 C1074 1.414 . S
C1075 C1076 1.374 . S
C1076 H1050 0.950 . S
C1076 C1072 1.385 . S
C1076 C1075 1.374 . S
C1077 C1074 1.499 . S
C1077 C1078 1.373 . S
C1077 C1079 1.389 1_655 S
C1078 H1051 0.950 . S
C1078 C1064 1.377 . S
C1078 C1077 1.373 . S
C1079 C1063 1.377 . S
C1079 C1077 1.389 1_455 S
C1079 C1080 1.524 . S
C1080 C1079 1.524 . S
C1080 C1081 1.397 . S
C1080 C1085 1.363 . S
C1081 H1052 0.950 1_455 S
C1081 C1080 1.397 . S
C1081 C1082 1.334 . S
C1082 H1053 0.950 . S
C1082 C1081 1.334 . S
C1082 C1083 1.287 . S
C1083 C1082 1.287 . S
C1083 C1084 1.524 . S
C1083 H1086 0.999 . S
C1084 H1054 0.950 . S
C1084 C1083 1.524 . S
C1084 C1085 1.415 . S
C1085 H1055 0.950 . S
C1085 C1080 1.363 . S
C1085 C1084 1.415 . S
H1086 C1083 0.999 . S
H1087 C1068 0.913 . S
C307 C183 1.504 . S
C322 C3 1.504 . S
C357 C147 1.504 . S
C372 C39 1.504 . S
C407 C255 1.504 . S
C422 C75 1.504 . S
C457 C219 1.504 . S
C472 C111 1.504 . S
C507 C14 1.332 . S
C522 C86 1.331 . S
C557 C50 1.332 . S
C572 C122 1.332 . S
C607 C38 1.313 . S
C622 C110 1.312 . S
C657 C2 1.312 . S
C672 C74 1.313 . S
C707 C158 1.332 . S
C722 C230 1.332 . S
C757 C266 1.332 . S
C772 C194 1.332 . S
C807 C254 1.313 . S
C822 C182 1.313 . S
C857 C146 1.313 . S
C872 C218 1.313 . S
C907 C40 1.500 . S
C922 C4 1.500 . S
C957 C76 1.500 . S
C972 C112 1.499 . S
C1007 C148 1.500 . S
C1022 C184 1.500 . S
C1057 C220 1.500 . S
C1072 C256 1.500 . S
