# Generated by pormake.
# Topology uke, (4)-cn, num edge types: 1
# Building blocks:
#     Node 0, Type 0, BuildingBlock: NAHDIM_clean_sbu_0, # of connection points: 4
#     Node 1, Type 0, BuildingBlock: NAHDIM_clean_sbu_0, # of connection points: 4
#     Node 2, Type 0, BuildingBlock: NAHDIM_clean_sbu_0, # of connection points: 4
#     Node 3, Type 0, BuildingBlock: NAHDIM_clean_sbu_0, # of connection points: 4
#     Node 4, Type 0, BuildingBlock: NAHDIM_clean_sbu_0, # of connection points: 4
#     Node 5, Type 0, BuildingBlock: NAHDIM_clean_sbu_0, # of connection points: 4
#     Node 6, Type 0, BuildingBlock: NAHDIM_clean_sbu_0, # of connection points: 4
#     Node 7, Type 0, BuildingBlock: NAHDIM_clean_sbu_0, # of connection points: 4
#     Node 8, Type 0, BuildingBlock: NAHDIM_clean_sbu_0, # of connection points: 4
#     Node 9, Type 0, BuildingBlock: NAHDIM_clean_sbu_0, # of connection points: 4
#     Node 10, Type 0, BuildingBlock: NAHDIM_clean_sbu_0, # of connection points: 4
#     Node 11, Type 0, BuildingBlock: NAHDIM_clean_sbu_0, # of connection points: 4
#     Node 12, Type 0, BuildingBlock: NAHDIM_clean_sbu_0, # of connection points: 4
#     Node 13, Type 0, BuildingBlock: NAHDIM_clean_sbu_0, # of connection points: 4
#     Node 14, Type 0, BuildingBlock: NAHDIM_clean_sbu_0, # of connection points: 4
#     Node 15, Type 0, BuildingBlock: NAHDIM_clean_sbu_0, # of connection points: 4
#     Node 16, Type 0, BuildingBlock: NAHDIM_clean_sbu_0, # of connection points: 4
#     Node 17, Type 0, BuildingBlock: NAHDIM_clean_sbu_0, # of connection points: 4
#     Node 18, Type 0, BuildingBlock: NAHDIM_clean_sbu_0, # of connection points: 4
#     Node 19, Type 0, BuildingBlock: NAHDIM_clean_sbu_0, # of connection points: 4
#     Node 20, Type 0, BuildingBlock: NAHDIM_clean_sbu_0, # of connection points: 4
#     Node 21, Type 0, BuildingBlock: NAHDIM_clean_sbu_0, # of connection points: 4
#     Node 22, Type 0, BuildingBlock: NAHDIM_clean_sbu_0, # of connection points: 4
#     Node 23, Type 0, BuildingBlock: NAHDIM_clean_sbu_0, # of connection points: 4
#     Node 24, Type 0, BuildingBlock: NAHDIM_clean_sbu_0, # of connection points: 4
#     Node 25, Type 0, BuildingBlock: NAHDIM_clean_sbu_0, # of connection points: 4
#     Node 26, Type 0, BuildingBlock: NAHDIM_clean_sbu_0, # of connection points: 4
#     Node 27, Type 0, BuildingBlock: NAHDIM_clean_sbu_0, # of connection points: 4
#     Node 28, Type 0, BuildingBlock: NAHDIM_clean_sbu_0, # of connection points: 4
#     Node 29, Type 0, BuildingBlock: NAHDIM_clean_sbu_0, # of connection points: 4
#     Node 30, Type 0, BuildingBlock: NAHDIM_clean_sbu_0, # of connection points: 4
#     Node 31, Type 0, BuildingBlock: NAHDIM_clean_sbu_0, # of connection points: 4
#     Edge 32, Type (0, 0), BuildingBlock: CIFDUS_clean_linker_0, # of connection points: 2
#     Edge 33, Type (0, 0), BuildingBlock: CIFDUS_clean_linker_0, # of connection points: 2
#     Edge 34, Type (0, 0), BuildingBlock: CIFDUS_clean_linker_0, # of connection points: 2
#     Edge 35, Type (0, 0), BuildingBlock: CIFDUS_clean_linker_0, # of connection points: 2
#     Edge 36, Type (0, 0), BuildingBlock: CIFDUS_clean_linker_0, # of connection points: 2
#     Edge 37, Type (0, 0), BuildingBlock: CIFDUS_clean_linker_0, # of connection points: 2
#     Edge 38, Type (0, 0), BuildingBlock: CIFDUS_clean_linker_0, # of connection points: 2
#     Edge 39, Type (0, 0), BuildingBlock: CIFDUS_clean_linker_0, # of connection points: 2
#     Edge 40, Type (0, 0), BuildingBlock: CIFDUS_clean_linker_0, # of connection points: 2
#     Edge 41, Type (0, 0), BuildingBlock: CIFDUS_clean_linker_0, # of connection points: 2
#     Edge 42, Type (0, 0), BuildingBlock: CIFDUS_clean_linker_0, # of connection points: 2
#     Edge 43, Type (0, 0), BuildingBlock: CIFDUS_clean_linker_0, # of connection points: 2
#     Edge 44, Type (0, 0), BuildingBlock: CIFDUS_clean_linker_0, # of connection points: 2
#     Edge 45, Type (0, 0), BuildingBlock: CIFDUS_clean_linker_0, # of connection points: 2
#     Edge 46, Type (0, 0), BuildingBlock: CIFDUS_clean_linker_0, # of connection points: 2
#     Edge 47, Type (0, 0), BuildingBlock: CIFDUS_clean_linker_0, # of connection points: 2
#     Edge 48, Type (0, 0), BuildingBlock: CIFDUS_clean_linker_0, # of connection points: 2
#     Edge 49, Type (0, 0), BuildingBlock: CIFDUS_clean_linker_0, # of connection points: 2
#     Edge 50, Type (0, 0), BuildingBlock: CIFDUS_clean_linker_0, # of connection points: 2
#     Edge 51, Type (0, 0), BuildingBlock: CIFDUS_clean_linker_0, # of connection points: 2
#     Edge 52, Type (0, 0), BuildingBlock: CIFDUS_clean_linker_0, # of connection points: 2
#     Edge 53, Type (0, 0), BuildingBlock: CIFDUS_clean_linker_0, # of connection points: 2
#     Edge 54, Type (0, 0), BuildingBlock: CIFDUS_clean_linker_0, # of connection points: 2
#     Edge 55, Type (0, 0), BuildingBlock: CIFDUS_clean_linker_0, # of connection points: 2
#     Edge 56, Type (0, 0), BuildingBlock: CIFDUS_clean_linker_0, # of connection points: 2
#     Edge 57, Type (0, 0), BuildingBlock: CIFDUS_clean_linker_0, # of connection points: 2
#     Edge 58, Type (0, 0), BuildingBlock: CIFDUS_clean_linker_0, # of connection points: 2
#     Edge 59, Type (0, 0), BuildingBlock: CIFDUS_clean_linker_0, # of connection points: 2
#     Edge 60, Type (0, 0), BuildingBlock: CIFDUS_clean_linker_0, # of connection points: 2
#     Edge 61, Type (0, 0), BuildingBlock: CIFDUS_clean_linker_0, # of connection points: 2
#     Edge 62, Type (0, 0), BuildingBlock: CIFDUS_clean_linker_0, # of connection points: 2
#     Edge 63, Type (0, 0), BuildingBlock: CIFDUS_clean_linker_0, # of connection points: 2
#     Edge 64, Type (0, 0), BuildingBlock: CIFDUS_clean_linker_0, # of connection points: 2
#     Edge 65, Type (0, 0), BuildingBlock: CIFDUS_clean_linker_0, # of connection points: 2
#     Edge 66, Type (0, 0), BuildingBlock: CIFDUS_clean_linker_0, # of connection points: 2
#     Edge 67, Type (0, 0), BuildingBlock: CIFDUS_clean_linker_0, # of connection points: 2
#     Edge 68, Type (0, 0), BuildingBlock: CIFDUS_clean_linker_0, # of connection points: 2
#     Edge 69, Type (0, 0), BuildingBlock: CIFDUS_clean_linker_0, # of connection points: 2
#     Edge 70, Type (0, 0), BuildingBlock: CIFDUS_clean_linker_0, # of connection points: 2
#     Edge 71, Type (0, 0), BuildingBlock: CIFDUS_clean_linker_0, # of connection points: 2
#     Edge 72, Type (0, 0), BuildingBlock: CIFDUS_clean_linker_0, # of connection points: 2
#     Edge 73, Type (0, 0), BuildingBlock: CIFDUS_clean_linker_0, # of connection points: 2
#     Edge 74, Type (0, 0), BuildingBlock: CIFDUS_clean_linker_0, # of connection points: 2
#     Edge 75, Type (0, 0), BuildingBlock: CIFDUS_clean_linker_0, # of connection points: 2
#     Edge 76, Type (0, 0), BuildingBlock: CIFDUS_clean_linker_0, # of connection points: 2
#     Edge 77, Type (0, 0), BuildingBlock: CIFDUS_clean_linker_0, # of connection points: 2
#     Edge 78, Type (0, 0), BuildingBlock: CIFDUS_clean_linker_0, # of connection points: 2
#     Edge 79, Type (0, 0), BuildingBlock: CIFDUS_clean_linker_0, # of connection points: 2
#     Edge 80, Type (0, 0), BuildingBlock: CIFDUS_clean_linker_0, # of connection points: 2
#     Edge 81, Type (0, 0), BuildingBlock: CIFDUS_clean_linker_0, # of connection points: 2
#     Edge 82, Type (0, 0), BuildingBlock: CIFDUS_clean_linker_0, # of connection points: 2
#     Edge 83, Type (0, 0), BuildingBlock: CIFDUS_clean_linker_0, # of connection points: 2
#     Edge 84, Type (0, 0), BuildingBlock: CIFDUS_clean_linker_0, # of connection points: 2
#     Edge 85, Type (0, 0), BuildingBlock: CIFDUS_clean_linker_0, # of connection points: 2
#     Edge 86, Type (0, 0), BuildingBlock: CIFDUS_clean_linker_0, # of connection points: 2
#     Edge 87, Type (0, 0), BuildingBlock: CIFDUS_clean_linker_0, # of connection points: 2
#     Edge 88, Type (0, 0), BuildingBlock: CIFDUS_clean_linker_0, # of connection points: 2
#     Edge 89, Type (0, 0), BuildingBlock: CIFDUS_clean_linker_0, # of connection points: 2
#     Edge 90, Type (0, 0), BuildingBlock: CIFDUS_clean_linker_0, # of connection points: 2
#     Edge 91, Type (0, 0), BuildingBlock: CIFDUS_clean_linker_0, # of connection points: 2
#     Edge 92, Type (0, 0), BuildingBlock: CIFDUS_clean_linker_0, # of connection points: 2
#     Edge 93, Type (0, 0), BuildingBlock: CIFDUS_clean_linker_0, # of connection points: 2
#     Edge 94, Type (0, 0), BuildingBlock: CIFDUS_clean_linker_0, # of connection points: 2
#     Edge 95, Type (0, 0), BuildingBlock: CIFDUS_clean_linker_0, # of connection points: 2
# Relax obj value: 0.228
# Max RMSD: 0.244
# Mean RMSD: 0.243
data_MOF--net-uke--node1-NAHDIM_clean_sbu_0--edge1-CIFDUS_clean_linker_0
_symmetry_space_group_name_H-M    P1
_symmetry_Int_Tables_number       1
_symmetry_cell_setting            triclinic
loop_
_symmetry_equiv_pos_as_xyz
'x, y, z'
_cell_length_a     23.560124
_cell_length_b     87.469207
_cell_length_c     43.81519
_cell_angle_alpha  89.97014
_cell_angle_beta   90.00873
_cell_angle_gamma 90.086817
loop_
_atom_site_label
_atom_site_type_symbol
_atom_site_fract_x
_atom_site_fract_y
_atom_site_fract_z
_atom_type_partial_charge
C0 C 0.02456 0.02962 0.33827 0.0
O1 O 0.07799 0.02907 0.34675 0.0
O2 O 0.14952 0.03544 0.2981 0.0
Zn3 Zn 0.07484 0.04464 0.28728 0.0
O4 O 0.07231 0.06723 0.29385 0.0
C5 C 0.03008 0.03578 0.22497 0.0
O6 O 0.98039 0.03222 0.23659 0.0
O7 O 0.01242 0.03509 0.31216 0.0
C8 C 0.02958 0.07402 0.28248 0.0
O9 O -0.00897 0.06595 0.26796 0.0
C10 C 0.18789 0.03665 0.27789 0.0
O11 O 0.18321 0.04751 0.25732 0.0
O12 O 0.06915 0.04082 0.24215 0.0
C13 C 0.22568 0.19951 0.32846 0.0
O14 O 0.17358 0.20222 0.33767 0.0
O15 O 0.11182 0.20716 0.281 0.0
Zn16 Zn 0.16139 0.18849 0.28001 0.0
O17 O 0.12539 0.17011 0.29943 0.0
C18 C 0.18512 0.1941 0.21727 0.0
O19 O 0.19884 0.20761 0.22813 0.0
O20 O 0.23318 0.19339 0.30247 0.0
C21 C 0.08688 0.16298 0.28495 0.0
O22 O 0.06795 0.16873 0.25921 0.0
C23 C 0.07496 0.2096 0.2604 0.0
O24 O 0.06461 0.19895 0.24003 0.0
O25 O 0.17379 0.18341 0.23589 0.0
C26 C 0.94849 0.20199 0.94599 0.0
O27 O -0.00225 0.20188 0.93196 0.0
O28 O 0.07187 0.21319 0.97368 0.0
Zn29 Zn 0.02704 0.19528 0.98896 0.0
O30 O 0.05403 0.17524 0.97156 0.0
C31 C 0.08449 0.20152 0.04473 0.0
O32 O 0.1209 0.20689 0.02487 0.0
O33 O 0.94702 0.19879 0.97431 0.0
C34 C 0.09992 0.16896 0.98017 0.0
O35 O 0.13238 0.17606 0.0 0.0
C36 C 0.11857 0.21299 0.9593 0.0
O37 O 0.13646 0.20008 0.94744 0.0
O38 O 0.03855 0.19532 0.03541 0.0
C39 C 0.22811 0.03516 0.94365 0.0
O40 O 0.17556 0.03617 0.93388 0.0
O41 O 0.10248 0.04659 0.97936 0.0
Zn42 Zn 0.18061 0.05056 -0.00411 0.0
O43 O 0.19355 0.07324 0.99369 0.0
C44 C 0.1347 0.04713 0.05429 0.0
O45 O 0.09442 0.05455 0.03982 0.0
O46 O 0.2401 0.03997 0.9703 0.0
C47 C 0.17399 0.08076 0.97118 0.0
O48 O 0.14766 0.07343 0.94917 0.0
C49 C 0.05319 0.04415 0.96878 0.0
O50 O 0.03562 0.0522 0.9453 0.0
O51 O 0.18044 0.04399 0.04019 0.0
C52 C 0.97133 0.95548 0.6625 0.0
O53 O 0.91968 0.95849 0.65296 0.0
O54 O 0.8458 0.95415 0.70272 0.0
Zn55 Zn 0.90942 0.93922 0.70772 0.0
O56 O 0.89358 0.91789 0.69371 0.0
C57 C 0.92875 0.94977 0.76859 0.0
O58 O 0.93283 0.96303 0.75463 0.0
O59 O 0.97801 0.9474 0.68633 0.0
C60 C 0.84749 0.91165 0.68529 0.0
O61 O 0.80145 0.91999 0.68248 0.0
C62 C 0.80936 0.95508 0.72396 0.0
O63 O 0.8063 0.94403 0.74422 0.0
O64 O 0.92305 0.93773 0.75272 0.0
C65 C 0.74393 0.78305 0.68273 0.0
O66 O 0.79534 0.78272 0.67113 0.0
O67 O 0.86879 0.77793 0.72493 0.0
Zn68 Zn 0.80909 0.79407 0.73068 0.0
O69 O 0.82974 0.81471 0.71319 0.0
C70 C 0.79441 0.78289 0.79044 0.0
O71 O 0.77961 0.77057 0.77524 0.0
O72 O 0.73769 0.78723 0.71029 0.0
C73 C 0.86378 0.82375 0.72659 0.0
O74 O 0.88786 0.81952 0.75223 0.0
C75 C 0.91217 0.77821 0.74219 0.0
O76 O 0.92135 0.79025 0.75934 0.0
O77 O 0.80176 0.79534 0.77599 0.0
C78 C 0.97425 0.7901 0.05961 0.0
O79 O 0.91957 0.79053 0.06543 0.0
O80 O 0.86654 0.7894 0.00347 0.0
Zn81 Zn 0.9381 0.80194 0.00193 0.0
O82 O 0.92551 0.82484 0.00536 0.0
C83 C 0.95853 0.78476 0.9484 0.0
O84 O 0.94475 0.77329 0.9663 0.0
O85 O -0.00782 0.79456 0.03375 0.0
C86 C 0.92063 0.83234 0.9806 0.0
O87 O 0.91942 0.82487 0.95463 0.0
C88 C 0.82725 0.79112 0.98389 0.0
O89 O 0.82766 0.80321 0.96611 0.0
O90 O 0.96902 0.79768 0.96031 0.0
C91 C 0.74686 0.94832 0.04661 0.0
O92 O 0.79282 0.94903 0.06356 0.0
O93 O 0.86742 0.96795 0.02188 0.0
Zn94 Zn 0.83345 0.94886 0.00445 0.0
O95 O 0.87049 0.92926 0.01833 0.0
C96 C 0.86849 0.96128 0.94612 0.0
O97 O 0.89028 0.97194 0.96361 0.0
O98 O 0.75229 0.94807 0.01778 0.0
C99 C 0.90572 0.92274 0.0007 0.0
O100 O 0.92335 0.93001 0.97624 0.0
C101 C 0.91169 0.97018 0.03775 0.0
O102 O 0.93963 0.9584 0.04868 0.0
O103 O 0.84037 0.95039 0.9582 0.0
C104 C 0.9602 0.53474 0.81674 0.0
O105 O 0.01293 0.53258 0.82549 0.0
O106 O 0.06658 0.51912 0.77077 0.0
Zn107 Zn 0.02112 0.5382 0.76308 0.0
O108 O 0.06443 0.55724 0.7744 0.0
C109 C 0.03822 0.53176 0.69975 0.0
O110 O 0.07008 0.52104 0.71173 0.0
O111 O 0.9504 0.53744 0.7887 0.0
C112 C 0.10751 0.56134 0.75892 0.0
O113 O 0.12604 0.55238 0.73704 0.0
C114 C 0.11682 0.51891 0.78119 0.0
O115 O 0.1393 0.53159 0.79179 0.0
O116 O 0.00778 0.53998 0.71728 0.0
C117 C 0.22653 0.69791 0.8105 0.0
O118 O 0.17953 0.70319 0.82266 0.0
O119 O 0.08653 0.69634 0.78492 0.0
Zn120 Zn 0.1479 0.68222 0.7713 0.0
O121 O 0.13191 0.66046 0.78279 0.0
C122 C 0.14615 0.69798 0.71547 0.0
O123 O 0.15565 0.70938 0.73432 0.0
O124 O 0.22348 0.68887 0.78786 0.0
C125 C 0.16686 0.65036 0.77385 0.0
O126 O 0.21183 0.65467 0.75831 0.0
C127 C 0.03942 0.69536 0.77097 0.0
O128 O 0.02952 0.68329 0.75391 0.0
O129 O 0.14566 0.68441 0.72585 0.0
C130 C 0.02356 0.70237 0.42689 0.0
O131 O 0.07687 0.70106 0.41849 0.0
O132 O 0.1326 0.70803 0.48527 0.0
Zn133 Zn 0.07147 0.6921 0.48223 0.0
O134 O 0.09877 0.67161 0.46749 0.0
C135 C 0.04442 0.70091 0.54264 0.0
O136 O 0.05208 0.71452 0.53062 0.0
O137 O 0.01011 0.69938 0.45435 0.0
C138 C 0.12995 0.66351 0.48473 0.0
O139 O 0.14753 0.66927 0.51077 0.0
C140 C 0.18566 0.7067 0.48119 0.0
O141 O 0.20655 0.69375 0.47106 0.0
O142 O 0.04438 0.6893 0.52522 0.0
C143 C 0.23304 0.53593 0.41741 0.0
O144 O 0.18133 0.53616 0.40623 0.0
O145 O 0.10858 0.53035 0.46111 0.0
Zn146 Zn 0.17105 0.5454 0.46903 0.0
O147 O 0.15456 0.56772 0.46196 0.0
C148 C 0.13649 0.54754 0.52854 0.0
O149 O 0.09526 0.55399 0.51301 0.0
O150 O 0.24049 0.53936 0.44532 0.0
C151 C 0.12645 0.57496 0.4419 0.0
O152 O 0.10002 0.56744 0.4202 0.0
C153 C 0.06816 0.52735 0.44294 0.0
O154 O 0.05754 0.53642 0.41974 0.0
O155 O 0.18054 0.54308 0.51426 0.0
C156 C 0.00928 0.46468 0.1875 0.0
O157 O 0.95745 0.46604 0.17683 0.0
O158 O 0.8777 0.46178 0.22048 0.0
Zn159 Zn 0.94694 0.45137 0.23586 0.0
O160 O 0.94178 0.42877 0.22955 0.0
C161 C 0.9284 0.46881 0.29025 0.0
O162 O 0.92931 0.4804 0.27119 0.0
O163 O 0.01632 0.45935 0.21426 0.0
C164 C 0.96969 0.42016 0.24744 0.0
O165 O 0.001 0.42639 0.26893 0.0
C166 C 0.83216 0.45953 0.23529 0.0
O167 O 0.82925 0.44771 0.25376 0.0
O168 O 0.94291 0.45562 0.28085 0.0
C169 C 0.76746 0.30253 0.15081 0.0
O170 O 0.81818 0.30644 0.14106 0.0
O171 O 0.88087 0.2893 0.19872 0.0
Zn172 Zn 0.82413 0.30582 0.20691 0.0
O173 O 0.85721 0.32684 0.19997 0.0
C174 C 0.80611 0.29133 0.26527 0.0
O175 O 0.81092 0.27873 0.24919 0.0
O176 O 0.75815 0.30195 0.17936 0.0
C177 C 0.88141 0.33342 0.22237 0.0
O178 O 0.88496 0.32622 0.24859 0.0
C179 C 0.92318 0.28769 0.21635 0.0
O180 O 0.93317 0.29815 0.23714 0.0
O181 O 0.80357 0.30408 0.25142 0.0
C182 C 0.01508 0.28619 0.53815 0.0
O183 O 0.9651 0.28684 0.55138 0.0
O184 O 0.88553 0.27905 0.50506 0.0
Zn185 Zn 0.94287 0.29449 0.49162 0.0
O186 O 0.92694 0.31607 0.50466 0.0
C187 C 0.93212 0.2809 0.43267 0.0
O188 O 0.93608 0.26828 0.44878 0.0
O189 O 0.01822 0.2887 0.50961 0.0
C190 C 0.88253 0.32351 0.49772 0.0
O191 O 0.84141 0.31661 0.48285 0.0
C192 C 0.83931 0.27978 0.51981 0.0
O193 O 0.82198 0.29292 0.53085 0.0
O194 O 0.93917 0.29372 0.44585 0.0
C195 C 0.75377 0.45067 0.55873 0.0
O196 O 0.8027 0.44359 0.56097 0.0
O197 O 0.85161 0.4549 0.49458 0.0
Zn198 Zn 0.77739 0.44376 0.49783 0.0
O199 O 0.78457 0.42095 0.50352 0.0
C200 C 0.75472 0.46038 0.44442 0.0
O201 O 0.76804 0.4718 0.46254 0.0
O202 O 0.73204 0.45252 0.53242 0.0
C203 C 0.8302 0.41344 0.50008 0.0
O204 O 0.87711 0.42069 0.4928 0.0
C205 C 0.89939 0.45548 0.50786 0.0
O206 O 0.90983 0.44661 0.53138 0.0
O207 O 0.74425 0.44741 0.45633 0.0
C208 C 0.5097 0.03321 0.84562 0.0
O209 O 0.56214 0.03493 0.85527 0.0
O210 O 0.63248 0.03075 0.80223 0.0
Zn211 Zn 0.56428 0.04375 0.79283 0.0
O212 O 0.57596 0.06598 0.80334 0.0
C213 C 0.57188 0.03235 0.73029 0.0
O214 O 0.59516 0.02028 0.74291 0.0
O215 O 0.49856 0.036 0.81775 0.0
C216 C 0.59971 0.07469 0.78393 0.0
O217 O 0.61858 0.06888 0.75825 0.0
C218 C 0.67877 0.03205 0.78761 0.0
O219 O 0.68588 0.0438 0.76936 0.0
O220 O 0.55087 0.04274 0.74717 0.0
C221 C 0.72517 0.20378 0.81291 0.0
O222 O 0.67753 0.19708 0.8209 0.0
O223 O 0.61081 0.20613 0.75343 0.0
Zn224 Zn 0.68445 0.19485 0.7551 0.0
O225 O 0.67794 0.1724 0.76359 0.0
C226 C 0.69828 0.20847 0.69734 0.0
O227 O 0.68516 0.22084 0.71279 0.0
O228 O 0.73785 0.20458 0.78477 0.0
C229 C 0.63732 0.165 0.77561 0.0
O230 O 0.59193 0.17231 0.78499 0.0
C231 C 0.56894 0.20945 0.77031 0.0
O232 O 0.56651 0.2043 0.79844 0.0
O233 O 0.71107 0.1964 0.71196 0.0
C234 C 0.50823 0.19739 0.42681 0.0
O235 O 0.56114 0.19519 0.41842 0.0
O236 O 0.62119 0.20583 0.4794 0.0
Zn237 Zn 0.55776 0.19079 0.48371 0.0
O238 O 0.5827 0.16891 0.47708 0.0
C239 C 0.53672 0.20701 0.53817 0.0
O240 O 0.53334 0.21859 0.51916 0.0
O241 O 0.49535 0.19623 0.45488 0.0
C242 C 0.60736 0.16203 0.49892 0.0
O243 O 0.61754 0.16954 0.52428 0.0
C244 C 0.67348 0.20294 0.48316 0.0
O245 O 0.69069 0.18871 0.48522 0.0
O246 O 0.53654 0.19349 0.52752 0.0
C247 C 0.75445 0.03555 0.44527 0.0
O248 O 0.70029 0.03555 0.43816 0.0
O249 O 0.64383 0.02945 0.49461 0.0
Zn250 Zn 0.70442 0.04517 0.49987 0.0
O251 O 0.68029 0.06697 0.49164 0.0
C252 C 0.67563 0.04764 0.55982 0.0
O253 O 0.63402 0.05407 0.54454 0.0
O254 O 0.76918 0.0393 0.47221 0.0
C255 C 0.65704 0.073 0.46838 0.0
O256 O 0.64422 0.06447 0.44469 0.0
C257 C 0.59076 0.03071 0.49068 0.0
O258 O 0.5681 0.04424 0.48622 0.0
O259 O 0.71934 0.04325 0.54513 0.0
C260 C 0.47082 0.94388 0.15136 0.0
O261 O 0.42388 0.9425 0.13539 0.0
O262 O 0.34156 0.95802 0.18917 0.0
Zn263 Zn 0.39288 0.94048 0.20014 0.0
O264 O 0.36208 0.91931 0.19056 0.0
C265 C 0.39747 0.95338 0.26174 0.0
O266 O 0.39885 0.96678 0.2482 0.0
O267 O 0.46818 0.94337 0.18027 0.0
C268 C 0.33573 0.91253 0.21204 0.0
O269 O 0.32372 0.92015 0.23699 0.0
C270 C 0.29731 0.95949 0.20542 0.0
O271 O 0.28106 0.94797 0.22251 0.0
O272 O 0.40152 0.94132 0.24576 0.0
C273 C 0.2376 0.78199 0.17008 0.0
O274 O 0.29198 0.78191 0.16343 0.0
O275 O 0.35015 0.78001 0.22501 0.0
Zn276 Zn 0.27944 0.7927 0.22729 0.0
O277 O 0.29576 0.81522 0.2213 0.0
C278 C 0.26722 0.77864 0.28569 0.0
O279 O 0.29074 0.76699 0.27172 0.0
O280 O 0.22206 0.78586 0.19672 0.0
C281 C 0.3042 0.82332 0.24498 0.0
O282 O 0.30546 0.81664 0.27182 0.0
C283 C 0.39615 0.78423 0.23762 0.0
O284 O 0.40107 0.79832 0.24756 0.0
O285 O 0.25029 0.78997 0.27005 0.0
C286 C 0.51136 0.78994 0.55339 0.0
O287 O 0.46149 0.79255 0.56573 0.0
O288 O 0.38376 0.78487 0.51645 0.0
Zn289 Zn 0.44652 0.79916 0.50404 0.0
O290 O 0.43603 0.82181 0.51198 0.0
C291 C 0.39923 0.79857 0.44742 0.0
O292 O 0.36029 0.80463 0.46512 0.0
O293 O 0.5175 0.79207 0.52489 0.0
C294 C 0.39145 0.82903 0.51963 0.0
O295 O 0.34414 0.82143 0.52431 0.0
C296 C 0.34277 0.78277 0.53476 0.0
O297 O 0.33045 0.79309 0.55547 0.0
O298 O 0.44785 0.79575 0.45872 0.0
C299 C 0.20066 0.95647 0.53224 0.0
O300 O 0.25234 0.95533 0.54327 0.0
O301 O 0.31963 0.9618 0.48805 0.0
Zn302 Zn 0.26216 0.94511 0.48401 0.0
O303 O 0.28357 0.92483 0.50313 0.0
C304 C 0.26773 0.93132 0.42376 0.0
O305 O 0.2756 0.91843 0.43854 0.0
O306 O 0.1918 0.95261 0.50468 0.0
C307 C 0.33119 0.91807 0.50125 0.0
O308 O 0.3731 0.92476 0.4866 0.0
C309 C 0.3638 0.96339 0.50424 0.0
O310 O 0.37883 0.95255 0.52336 0.0
O311 O 0.25461 0.94328 0.43858 0.0
C312 C 0.52193 0.54023 0.32552 0.0
O313 O 0.57384 0.54228 0.33572 0.0
O314 O 0.64407 0.53867 0.27964 0.0
Zn315 Zn 0.57498 0.55116 0.27215 0.0
O316 O 0.58581 0.57352 0.28065 0.0
C317 C 0.57095 0.5371 0.21227 0.0
O318 O 0.58192 0.52444 0.22732 0.0
O319 O 0.51123 0.54307 0.29765 0.0
C320 C 0.54466 0.5817 0.27146 0.0
O321 O 0.50024 0.5749 0.25938 0.0
C322 C 0.68514 0.54005 0.2611 0.0
O323 O 0.6859 0.5518 0.24239 0.0
O324 O 0.56091 0.54931 0.22706 0.0
C325 C 0.74438 0.70602 0.32578 0.0
O326 O 0.6918 0.70479 0.3355 0.0
O327 O 0.62506 0.71482 0.28416 0.0
Zn328 Zn 0.68448 0.69931 0.27319 0.0
O329 O 0.662 0.6776 0.28371 0.0
C330 C 0.6521 0.70459 0.21164 0.0
O331 O 0.60412 0.70725 0.22583 0.0
O332 O 0.75431 0.70428 0.29747 0.0
C333 C 0.62436 0.67021 0.26905 0.0
O334 O 0.5968 0.67701 0.24684 0.0
C335 C 0.57393 0.71207 0.29146 0.0
O336 O 0.55778 0.69788 0.2961 0.0
O337 O 0.6958 0.70102 0.22725 0.0
C338 C 0.4914 0.70434 0.92129 0.0
O339 O 0.53949 0.70133 0.90736 0.0
O340 O 0.62169 0.7144 0.95568 0.0
Zn341 Zn 0.56386 0.69928 0.97079 0.0
O342 O 0.58228 0.6771 0.96155 0.0
C343 C 0.60196 0.70584 0.03174 0.0
O344 O 0.6495 0.70848 0.01706 0.0
O345 O 0.49024 0.70429 0.95028 0.0
C346 C 0.61409 0.66934 0.97914 0.0
O347 O 0.63888 0.67619 0.00222 0.0
C348 C 0.67418 0.71185 0.95172 0.0
O349 O 0.6933 0.69781 0.95428 0.0
O350 O 0.55795 0.70193 0.01672 0.0
C351 C 0.68895 0.54522 0.92356 0.0
O352 O 0.63804 0.55015 0.9163 0.0
O353 O 0.57172 0.53515 0.97231 0.0
Zn354 Zn 0.6389 0.54849 0.98094 0.0
O355 O 0.62402 0.57117 0.97789 0.0
C356 C 0.65442 0.53064 0.03633 0.0
O357 O 0.64759 0.51879 0.01829 0.0
O358 O 0.70098 0.54321 0.95157 0.0
C359 C 0.66247 0.57914 0.99067 0.0
O360 O 0.70533 0.57209 0.00367 0.0
C361 C 0.53289 0.53443 0.99237 0.0
O362 O 0.53215 0.54467 0.01432 0.0
O363 O 0.65797 0.54395 0.02474 0.0
C364 C 0.51968 0.46055 0.68573 0.0
O365 O 0.46609 0.46395 0.68105 0.0
O366 O 0.40509 0.46021 0.73438 0.0
Zn367 Zn 0.46723 0.44452 0.73363 0.0
O368 O 0.44317 0.42429 0.71592 0.0
C369 C 0.47864 0.45329 0.79471 0.0
O370 O 0.48126 0.46674 0.78141 0.0
O371 O 0.53271 0.45253 0.70892 0.0
C372 C 0.40371 0.41657 0.72828 0.0
O373 O 0.37719 0.42214 0.75217 0.0
C374 C 0.35227 0.45924 0.72911 0.0
O375 O 0.3308 0.44647 0.71833 0.0
O376 O 0.48293 0.4414 0.77822 0.0
C377 C 0.25461 0.2934 0.66429 0.0
O378 O 0.3046 0.29566 0.65181 0.0
O379 O 0.37616 0.28552 0.71304 0.0
Zn380 Zn 0.31934 0.30244 0.71457 0.0
O381 O 0.34435 0.32276 0.6983 0.0
C382 C 0.30518 0.29403 0.77675 0.0
O383 O 0.30082 0.28039 0.76442 0.0
O384 O 0.2488 0.2957 0.69276 0.0
C385 C 0.39463 0.32776 0.69518 0.0
O386 O 0.43768 0.31852 0.69978 0.0
C387 C 0.41139 0.28011 0.69405 0.0
O388 O 0.41826 0.28665 0.66732 0.0
O389 O 0.3078 0.30565 0.75942 0.0
C390 C 0.48652 0.28242 0.05919 0.0
O391 O 0.43739 0.27915 0.07179 0.0
O392 O 0.35672 0.27586 0.02672 0.0
Zn393 Zn 0.41077 0.29239 0.01416 0.0
O394 O 0.38975 0.31321 0.02977 0.0
C395 C 0.3637 0.28779 0.95497 0.0
O396 O 0.32017 0.28412 0.97203 0.0
O397 O 0.48725 0.28776 0.03219 0.0
C398 C 0.34941 0.32121 0.01916 0.0
O399 O 0.31644 0.3154 -0.00207 0.0
C400 C 0.3063 0.27751 0.03633 0.0
O401 O 0.28946 0.29104 0.04558 0.0
O402 O 0.4096 0.29237 0.96744 0.0
C403 C 0.2258 0.45351 0.05212 0.0
O404 O 0.2752 0.44925 0.0631 0.0
O405 O 0.35206 0.45173 0.01522 0.0
Zn406 Zn 0.2803 0.44164 0.00131 0.0
O407 O 0.27788 0.419 0.00804 0.0
C408 C 0.29411 0.45862 0.94656 0.0
O409 O 0.29349 0.47015 0.96578 0.0
O410 O 0.21581 0.4515 0.02387 0.0
C411 C 0.3093 0.41128 0.02582 0.0
O412 O 0.34829 0.41828 0.04209 0.0
C413 C 0.39589 0.45125 -0.00161 0.0
O414 O 0.39878 0.44081 0.97689 0.0
O415 O 0.28073 0.44538 0.95616 0.0
H416 H 0.03464 0.04143 0.08184 0.0
H417 H 0.21498 0.04278 0.09861 0.0
H418 H 0.19835 0.03817 0.15308 0.0
H419 H 0.13195 0.03594 0.19614 0.0
H420 H 0.95156 0.03426 0.17907 0.0
H421 H 0.96888 0.03661 0.12423 0.0
C422 C 0.07031 0.04065 0.09743 0.0
C423 C 0.12588 0.0427 0.08644 0.0
C424 C 0.06038 0.03797 0.12853 0.0
C425 C 0.17183 0.0413 0.10664 0.0
C426 C 0.1623 0.03873 0.13774 0.0
C427 C 0.09638 0.03599 0.18041 0.0
C428 C 0.04041 0.03521 0.19169 0.0
C429 C 0.10666 0.03739 0.14899 0.0
C430 C -0.00507 0.03495 0.171 0.0
C431 C 0.00482 0.03636 0.13967 0.0
H432 H 0.07807 0.17939 0.08827 0.0
H433 H 0.12799 0.22617 0.07271 0.0
H434 H 0.16678 0.22782 0.12426 0.0
H435 H 0.18819 0.21587 0.17325 0.0
H436 H 0.14197 0.16873 0.18887 0.0
H437 H 0.10148 0.16718 0.13766 0.0
C438 C 0.09644 0.18998 0.09654 0.0
C439 C 0.09935 0.20273 0.07717 0.0
C440 C 0.12051 0.19068 0.1259 0.0
C441 C 0.12474 0.21629 0.08757 0.0
C442 C 0.14733 0.2172 0.11688 0.0
C443 C 0.16983 0.2052 0.1654 0.0
C444 C 0.16822 0.19246 0.1849 0.0
C445 C 0.14608 0.20442 0.13611 0.0
C446 C 0.14408 0.17872 0.17429 0.0
C447 C 0.12042 0.17785 0.14508 0.0
H448 H 0.86277 0.93758 0.90602 0.0
H449 H 0.90289 0.98564 0.91234 0.0
H450 H 0.92742 0.98619 0.85828 0.0
H451 H 0.93685 0.97313 0.80913 0.0
H452 H 0.89936 0.9249 0.8029 0.0
H453 H 0.87513 0.9243 0.85701 0.0
C454 C 0.87643 0.94818 0.89547 0.0
C455 C 0.88048 0.96156 0.91306 0.0
C456 C 0.89152 0.94838 0.86446 0.0
C457 C 0.8992 0.97518 0.89924 0.0
C458 C 0.91339 0.97551 0.86834 0.0
C459 C 0.92386 0.96245 0.81964 0.0
C460 C 0.92 0.9491 0.80197 0.0
C461 C 0.90983 0.96218 0.85075 0.0
C462 C 0.90304 0.93535 0.81599 0.0
C463 C 0.88881 0.935 0.84691 0.0
H464 H 0.88371 0.76536 0.92139 0.0
H465 H -0.00818 0.80427 0.90355 0.0
H466 H 0.94768 0.8076 0.8536 0.0
H467 H 0.87519 0.80045 0.81652 0.0
H468 H 0.76782 0.76134 0.8333 0.0
H469 H 0.8138 0.75738 0.88287 0.0
C470 C 0.89856 0.77435 0.9063 0.0
C471 C 0.94113 0.78454 0.91609 0.0
C472 C 0.872 0.77645 0.87794 0.0
C473 C 0.9593 0.79625 0.89643 0.0
C474 C 0.9337 0.79826 0.86804 0.0
C475 C 0.86138 0.79114 0.83112 0.0
C476 C 0.81757 0.78133 0.82154 0.0
C477 C 0.88914 0.78867 0.85892 0.0
C478 C 0.80106 0.76913 0.84041 0.0
C479 C 0.82764 0.76679 0.86857 0.0
H480 H 0.12173 0.52193 0.66246 0.0
H481 H 0.97434 0.55118 0.66447 0.0
H482 H -0.00678 0.55906 0.61177 0.0
H483 H 0.05201 0.55764 0.56545 0.0
H484 H 0.20104 0.52895 0.56466 0.0
H485 H 0.18145 0.52102 0.61705 0.0
C486 C 0.09329 0.52993 0.65137 0.0
C487 C 0.04632 0.53585 0.66729 0.0
C488 C 0.10514 0.53464 0.62149 0.0
C489 C 0.01054 0.54639 0.65265 0.0
C490 C 0.02149 0.55094 0.6226 0.0
C491 C 0.08041 0.54971 0.57679 0.0
C492 C 0.12789 0.54387 0.56114 0.0
C493 C 0.06883 0.54518 0.60688 0.0
C494 C 0.16439 0.53367 0.57621 0.0
C495 C 0.15301 0.52906 0.60609 0.0
H496 H 0.09468 0.67842 0.67611 0.0
H497 H 0.15652 0.72473 0.68401 0.0
H498 H 0.12442 0.73023 0.63215 0.0
H499 H 0.08274 0.72155 0.58395 0.0
H500 H 0.02215 0.67513 0.57574 0.0
H501 H 0.04854 0.67013 0.62873 0.0
C502 C 0.10147 0.68969 0.66642 0.0
C503 C 0.12871 0.70108 0.68371 0.0
C504 C 0.08244 0.69281 0.63674 0.0
C505 C 0.13615 0.71572 0.67106 0.0
C506 C 0.11758 0.71889 0.64147 0.0
C507 C 0.07434 0.71041 0.59388 0.0
C508 C 0.0507 0.69871 0.57589 0.0
C509 C 0.09095 0.7075 0.62406 0.0
C510 C 0.04044 0.68432 0.58909 0.0
C511 C 0.05586 0.68142 0.61931 0.0
H512 H 0.80466 0.48413 0.41415 0.0
H513 H 0.74612 0.4377 0.40185 0.0
H514 H 0.79609 0.43625 0.35328 0.0
H515 H 0.86352 0.44717 0.31688 0.0
H516 H 0.91948 0.49383 0.32726 0.0
H517 H 0.86368 0.49614 0.37427 0.0
C518 C 0.80181 0.47379 0.40059 0.0
C519 C 0.77237 0.46095 0.41197 0.0
C520 C 0.83142 0.47293 0.3728 0.0
C521 C 0.76881 0.44771 0.39386 0.0
C522 C 0.79782 0.44681 0.36618 0.0
C523 C 0.86401 0.4578 0.32961 0.0
C524 C 0.89695 0.47017 0.31924 0.0
C525 C 0.83084 0.45914 0.35601 0.0
C526 C 0.89542 0.48406 0.33526 0.0
C527 C 0.86332 0.48539 0.362 0.0
H528 H 0.8447 0.26746 0.29922 0.0
H529 H 0.79848 0.31512 0.30536 0.0
H530 H 0.83507 0.31617 0.3574 0.0
H531 H 0.88453 0.30397 0.40014 0.0
H532 H 0.93014 0.25629 0.39441 0.0
H533 H 0.89014 0.25491 0.34298 0.0
C534 C 0.84171 0.27802 0.31209 0.0
C535 C 0.81895 0.2912 0.29833 0.0
C536 C 0.86376 0.27863 0.34184 0.0
C537 C 0.81577 0.3048 0.31535 0.0
C538 C 0.83706 0.30545 0.34506 0.0
C539 C 0.88617 0.2933 0.38756 0.0
C540 C 0.91102 0.2803 0.40091 0.0
C541 C 0.86221 0.29252 0.35828 0.0
C542 C 0.91172 0.26649 0.38453 0.0
C543 C 0.88859 0.26568 0.3552 0.0
H544 H 0.65741 0.02196 0.69433 0.0
H545 H 0.50785 0.05037 0.69328 0.0
H546 H 0.52826 0.05793 0.64069 0.0
H547 H 0.58939 0.05698 0.59581 0.0
H548 H 0.74138 0.02949 0.59691 0.0
H549 H 0.72008 0.02137 0.64922 0.0
C550 C 0.62896 0.02967 0.68245 0.0
C551 C 0.58086 0.03551 0.69754 0.0
C552 C 0.64202 0.03435 0.65257 0.0
C553 C 0.5449 0.04568 0.68206 0.0
C554 C 0.55675 0.05006 0.6521 0.0
C555 C 0.61815 0.04926 0.60746 0.0
C556 C 0.66692 0.04384 0.59242 0.0
C557 C 0.60548 0.04461 0.6373 0.0
C558 C 0.70373 0.0339 0.60799 0.0
C559 C 0.69132 0.02916 0.63781 0.0
H560 H 0.6409 0.22938 0.66303 0.0
H561 H 0.71132 0.18382 0.65999 0.0
H562 H 0.66292 0.17903 0.61184 0.0
H563 H 0.59748 0.18717 0.5722 0.0
H564 H 0.53025 0.23301 0.57275 0.0
H565 H 0.57933 0.23816 0.62099 0.0
C566 C 0.64645 0.21849 0.6516 0.0
C567 C 0.67936 0.20693 0.6653 0.0
C568 C 0.61785 0.21571 0.62402 0.0
C569 C 0.68617 0.19291 0.65007 0.0
C570 C 0.65806 0.19009 0.62266 0.0
C571 C 0.59288 0.19824 0.58296 0.0
C572 C 0.55951 0.20961 0.56915 0.0
C573 C 0.62282 0.20127 0.60986 0.0
C574 C 0.55506 0.224 0.58319 0.0
C575 C 0.58352 0.22698 0.61059 0.0
H576 H 0.28481 0.95758 0.39183 0.0
H577 H 0.29696 0.90845 0.3844 0.0
H578 H 0.34189 0.91109 0.33445 0.0
H579 H 0.37967 0.92726 0.29375 0.0
H580 H 0.36732 0.97639 0.30087 0.0
H581 H 0.3218 0.9738 0.3507 0.0
C582 C 0.29658 0.94742 0.37916 0.0
C583 C 0.28734 0.93282 0.39184 0.0
C584 C 0.32346 0.94902 0.35078 0.0
C585 C 0.30336 0.91981 0.37515 0.0
C586 C 0.32947 0.92131 0.3467 0.0
C587 C 0.36752 0.93744 0.30625 0.0
C588 C 0.37719 0.95201 0.29359 0.0
C589 C 0.34038 0.93586 0.33453 0.0
C590 C 0.36098 0.96504 0.31017 0.0
C591 C 0.33443 0.96357 0.33854 0.0
H592 H 0.29943 0.80339 0.41861 0.0
H593 H 0.4633 0.78217 0.4067 0.0
H594 H 0.43377 0.77254 0.35671 0.0
H595 H 0.36218 0.77076 0.31604 0.0
H596 H 0.20072 0.79327 0.32701 0.0
H597 H 0.22798 0.80146 0.37841 0.0
C598 C 0.32886 0.79667 0.40512 0.0
C599 C 0.38357 0.79353 0.41635 0.0
C600 C 0.31161 0.79119 0.37657 0.0
C601 C 0.42108 0.78483 0.39851 0.0
C602 C 0.40409 0.77923 0.37004 0.0
C603 C 0.33248 0.77714 0.33003 0.0
C604 C 0.27909 0.7812 0.31819 0.0
C605 C 0.34941 0.78233 0.35891 0.0
C606 C 0.24165 0.78987 0.336 0.0
C607 C 0.25745 0.79465 0.36517 0.0
H608 H 0.63096 0.5533 0.07624 0.0
H609 H 0.65366 0.50443 0.07077 0.0
H610 H 0.62783 0.50194 0.12472 0.0
H611 H 0.59741 0.51378 0.17326 0.0
H612 H 0.57064 0.56262 0.17672 0.0
H613 H 0.59869 0.5649 0.12353 0.0
C614 C 0.63097 0.54209 0.08685 0.0
C615 C 0.64484 0.52909 0.06956 0.0
C616 C 0.61449 0.54071 0.11743 0.0
C617 C 0.64363 0.51465 0.08364 0.0
C618 C 0.62852 0.51321 0.11442 0.0
C619 C 0.59718 0.5249 0.16228 0.0
C620 C 0.58177 0.53799 0.17904 0.0
C621 C 0.61336 0.52617 0.13148 0.0
C622 C 0.58188 0.55231 0.16443 0.0
C623 C 0.59832 0.55367 0.13402 0.0
H624 H 0.56172 0.70577 0.17379 0.0
H625 H 0.7449 0.70442 0.17381 0.0
H626 H 0.74518 0.70523 0.11794 0.0
H627 H 0.69318 0.70599 0.06939 0.0
H628 H 0.50992 0.70628 0.06968 0.0
H629 H 0.50991 0.70627 0.12548 0.0
C630 C 0.60183 0.70571 0.16164 0.0
C631 C 0.65329 0.70509 0.17793 0.0
C632 C 0.60158 0.70599 0.12968 0.0
C633 C 0.70476 0.70487 0.1618 0.0
C634 C 0.7049 0.70536 0.12989 0.0
C635 C 0.65319 0.70614 0.08163 0.0
C636 C 0.60156 0.70619 0.06543 0.0
C637 C 0.65354 0.70589 0.11364 0.0
C638 C 0.55016 0.70622 0.08163 0.0
C639 C 0.55016 0.70622 0.1135 0.0
H640 H 0.43523 0.47618 0.82947 0.0
H641 H 0.46244 0.42736 0.82856 0.0
H642 H 0.40483 0.42467 0.87458 0.0
H643 H 0.34333 0.43599 0.91354 0.0
H644 H 0.31701 0.48481 0.91499 0.0
H645 H 0.37678 0.48763 0.86969 0.0
C646 C 0.42941 0.46496 0.83956 0.0
C647 C 0.45312 0.45198 0.82549 0.0
C648 C 0.39527 0.46345 0.86565 0.0
C649 C 0.4448 0.43755 0.8389 0.0
C650 C 0.41143 0.43598 0.86507 0.0
C651 C 0.34999 0.44724 0.90374 0.0
C652 C 0.32493 0.46016 0.91732 0.0
C653 C 0.3855 0.44881 0.87823 0.0
C654 C 0.33521 0.47467 0.90473 0.0
C655 C 0.36974 0.4763 0.879 0.0
H656 H 0.29566 0.27213 0.82025 0.0
H657 H 0.34256 0.31941 0.80724 0.0
H658 H 0.3708 0.32126 0.86073 0.0
H659 H 0.38147 0.30944 0.91168 0.0
H660 H 0.32825 0.26277 0.925 0.0
H661 H 0.30438 0.26054 0.87088 0.0
C662 C 0.31176 0.28286 0.82914 0.0
C663 C 0.31688 0.29559 0.80977 0.0
C664 C 0.32775 0.28387 0.85991 0.0
C665 C 0.33773 0.30944 0.8217 0.0
C666 C 0.35435 0.31049 0.85225 0.0
C667 C 0.36576 0.29874 0.90242 0.0
C668 C 0.35772 0.28618 0.92183 0.0
C669 C 0.34987 0.29776 0.87154 0.0
C670 C 0.33556 0.27248 0.91012 0.0
C671 C 0.32149 0.27125 0.87931 0.0
H672 H 0.26731 0.96926 0.26108 0.0
H673 H 0.28893 0.98452 0.1682 0.0
H674 H 0.26428 0.0107 0.18347 0.0
H675 H 0.23284 0.02873 0.22303 0.0
H676 H 0.21433 0.01318 0.3161 0.0
H677 H 0.24466 0.9876 0.30113 0.0
C678 C 0.26605 0.97828 0.24409 0.0
C679 C 0.27836 0.97498 0.21343 0.0
C680 C 0.25408 0.99324 0.25323 0.0
C681 C 0.2785 0.98683 0.19183 0.0
C682 C 0.26501 0.00176 0.20062 0.0
C683 C 0.23674 0.01985 0.24021 0.0
C684 C 0.22081 0.0228 0.27061 0.0
C685 C 0.25263 0.00507 0.23128 0.0
C686 C 0.22611 0.01116 0.29254 0.0
C687 C 0.24279 -0.00349 0.28394 0.0
H688 H 0.00059 0.27867 0.25836 0.0
H689 H 0.90879 0.26299 0.17896 0.0
H690 H 0.9465 0.23727 0.18623 0.0
H691 H 0.0028 0.21912 0.21609 0.0
H692 H 0.09352 0.23478 0.29587 0.0
H693 H 0.0582 0.26065 0.28762 0.0
C694 C 0.98936 0.26969 0.24238 0.0
C695 C 0.95201 0.27275 0.21814 0.0
C696 C 0.01027 0.25489 0.24701 0.0
C697 C 0.93767 0.26095 0.19776 0.0
C698 C 0.95889 0.24622 0.20201 0.0
C699 C 0.01462 0.22816 0.23179 0.0
C700 C 0.05041 0.22499 0.25667 0.0
C701 C -0.00544 0.24302 0.22681 0.0
C702 C 0.06563 0.23687 0.27667 0.0
C703 C 0.04574 0.25169 0.27188 0.0
H704 H 0.0976 0.23908 0.99069 0.0
H705 H 0.23131 0.21453 0.94438 0.0
H706 H 0.30172 0.23174 0.96663 0.0
H707 H 0.32536 0.25242 0.0016 0.0
H708 H 0.19204 0.27705 0.04806 0.0
H709 H 0.12111 0.26033 0.02456 0.0
C710 C 0.14208 0.23757 0.98506 0.0
C711 C 0.15921 0.2254 0.9661 0.0
C712 C 0.18235 0.24709 -0.00116 0.0
C713 C 0.21693 0.22377 0.95888 0.0
C714 C 0.25726 0.23347 0.97194 0.0
C715 C 0.28086 0.2541 0.00696 0.0
C716 C 0.26406 0.26597 0.02674 0.0
C717 C 0.24047 0.24485 0.9926 0.0
C718 C 0.20615 0.26795 0.03313 0.0
C719 C 0.16559 0.25853 0.01941 0.0
H720 H 0.0796 0.02437 0.01468 0.0
H721 H 0.94278 0.03793 0.95491 0.0
H722 H 0.88289 0.01775 0.97589 0.0
H723 H 0.87282 0.99494 0.00709 0.0
H724 H 0.0119 0.97978 0.06368 0.0
H725 H 0.06623 0.0026 0.04952 0.0
C726 C 0.03641 0.02308 0.00656 0.0
C727 C 0.01588 0.03258 0.98307 0.0
C728 C 0.00241 0.01131 0.01843 0.0
C729 C 0.95986 0.03069 0.97275 0.0
C730 C 0.92548 0.0192 0.98483 0.0
C731 C 0.91481 -0.00336 0.01669 0.0
C732 C 0.93887 0.98543 0.03581 0.0
C733 C 0.94682 0.00923 0.00711 0.0
C734 C -0.0073 0.98809 0.04855 0.0
C735 C 0.02397 0.00106 0.04023 0.0
H736 H 0.73127 0.02355 0.73566 0.0
H737 H 0.69768 0.0089 0.82793 0.0
H738 H 0.73374 0.98337 0.81591 0.0
H739 H 0.76827 0.96489 0.77825 0.0
H740 H 0.79703 0.97927 0.68523 0.0
H741 H 0.76704 0.0052 0.6982 0.0
C742 C 0.73293 0.01486 0.7533 0.0
C743 C 0.71215 0.01806 0.78266 0.0
C744 C 0.75087 7e-05 0.74581 0.0
C745 C 0.71382 0.00666 0.80521 0.0
C746 C 0.73372 0.99205 0.79825 0.0
C747 C 0.76721 0.97362 0.76069 0.0
C748 C 0.78415 0.97012 0.73073 0.0
C749 C 0.75076 0.98852 0.76839 0.0
C750 C 0.78364 0.98166 0.7084 0.0
C751 C 0.76705 -0.00349 0.71585 0.0
H752 H 0.06714 0.72432 0.78716 0.0
H753 H 0.9352 0.69766 0.74407 0.0
H754 H 0.88557 0.72111 0.72973 0.0
H755 H 0.88146 0.74914 0.72805 0.0
H756 H 0.01406 0.77564 0.7709 0.0
H757 H 0.06245 0.75219 0.78612 0.0
C758 C 0.02708 0.72359 0.77504 0.0
C759 C 0.0048 0.70925 0.76678 0.0
C760 C -0.00039 0.73707 0.76623 0.0
C761 C 0.95313 0.70856 0.75081 0.0
C762 C 0.92499 0.72195 0.74238 0.0
C763 C 0.92134 0.74978 0.74035 0.0
C764 C 0.94446 0.7641 0.74808 0.0
C765 C 0.94837 0.73627 0.74953 0.0
C766 C -0.00438 0.76475 0.76451 0.0
C767 C 0.02309 0.75136 0.7734 0.0
H768 H 0.65128 0.7416 0.93896 0.0
H769 H 0.78489 0.71159 0.96981 0.0
H770 H 0.84265 0.73365 0.98394 0.0
H771 H 0.85196 0.76122 0.99133 0.0
H772 H 0.72234 0.79156 0.95735 0.0
H773 H 0.66518 0.76951 0.94142 0.0
C774 C 0.69345 0.7399 0.94832 0.0
C775 C 0.71353 0.72498 0.95362 0.0
C776 C 0.72633 0.75264 0.95657 0.0
C777 C 0.76844 0.72294 0.96542 0.0
C778 C 0.80124 0.73555 0.97385 0.0
C779 C 0.81112 0.76304 0.98053 0.0
C780 C 0.79079 0.77797 0.97604 0.0
C781 C 0.7799 0.7504 0.97032 0.0
C782 C 0.73838 0.78014 0.96144 0.0
C783 C 0.70599 0.76756 0.95214 0.0
H784 H 0.23169 0.5177 0.7819 0.0
H785 H 0.08276 0.49025 0.76453 0.0
H786 H 0.14236 0.46941 0.74599 0.0
H787 H 0.2367 0.45941 0.73269 0.0
H788 H 0.38494 0.48732 0.74928 0.0
H789 H 0.3255 0.50758 0.76974 0.0
C790 C 0.21225 0.50707 0.77454 0.0
C791 C 0.15294 0.50553 0.77464 0.0
C792 C 0.24658 0.4953 0.76323 0.0
C793 C 0.12843 0.49173 0.76472 0.0
C794 C 0.16242 0.47983 0.75392 0.0
C795 C 0.25593 0.46997 0.74056 0.0
C796 C 0.31513 0.47185 0.73924 0.0
C797 C 0.22151 0.4816 0.75255 0.0
C798 C 0.33943 0.48556 0.74986 0.0
C799 C 0.30553 0.49716 0.76173 0.0
H800 H 0.37159 0.7572 0.50397 0.0
H801 H 0.23527 0.77718 0.55624 0.0
H802 H 0.17481 0.75515 0.54444 0.0
H803 H 0.15958 0.73097 0.51705 0.0
H804 H 0.29676 0.71097 0.46542 0.0
H805 H 0.35827 0.73243 0.47918 0.0
C806 C 0.32869 0.75674 0.51293 0.0
C807 C 0.30768 0.76889 0.5307 0.0
C808 C 0.29435 0.74414 0.50594 0.0
C809 C 0.25239 0.76799 0.5425 0.0
C810 C 0.21777 0.75544 0.53561 0.0
C811 C 0.2029 0.73131 0.5087 0.0
C812 C 0.22338 0.7195 0.48984 0.0
C813 C 0.23806 0.74359 0.51693 0.0
C814 C 0.2799 0.71996 0.47977 0.0
C815 C 0.31505 0.73222 0.48764 0.0
H816 H 0.89089 0.47393 0.45832 0.0
H817 H 0.00077 0.46327 0.53435 0.0
H818 H 0.06403 0.48421 0.51969 0.0
H819 H 0.08453 0.50631 0.48743 0.0
H820 H 0.97344 0.51743 0.41216 0.0
H821 H 0.91371 0.49538 0.42469 0.0
C822 C 0.92876 0.47611 0.47171 0.0
C823 C 0.94075 0.46714 0.49766 0.0
C824 C 0.96435 0.48826 0.46343 0.0
C825 C -0.00958 0.47003 0.5144 0.0
C826 C 0.02647 0.48202 0.50607 0.0
C827 C 0.04739 0.50393 0.47358 0.0
C828 C 0.03318 0.51362 0.44902 0.0
C829 C 0.01324 0.49135 0.48097 0.0
C830 C 0.98518 0.51023 0.43125 0.0
C831 C 0.95107 0.49763 0.43839 0.0
H832 H 0.6732 0.51145 0.28423 0.0
H833 H 0.7756 0.5383 0.22235 0.0
H834 H 0.82577 0.51526 0.20628 0.0
H835 H 0.84027 0.48769 0.20979 0.0
H836 H 0.73867 0.46087 0.2721 0.0
H837 H 0.68679 0.48378 0.28719 0.0
C838 C 0.70697 0.51233 0.2675 0.0
C839 C 0.72093 0.52661 0.25466 0.0
C840 C 0.73473 0.49904 0.25791 0.0
C841 C 0.76434 0.52747 0.23276 0.0
C842 C 0.79266 0.51429 0.22335 0.0
C843 C 0.80622 0.48677 0.22635 0.0
C844 C 0.7934 0.47257 0.23979 0.0
C845 C 0.77781 0.50002 0.23558 0.0
C846 C 0.74921 0.47163 0.26126 0.0
C847 C 0.71997 0.48476 0.27016 0.0
H848 H 0.86819 0.25103 0.50351 0.0
H849 H 0.72692 0.27794 0.53585 0.0
H850 H 0.66312 0.25621 0.52766 0.0
H851 H 0.64674 0.2304 0.50745 0.0
H852 H 0.78825 0.20357 0.47536 0.0
H853 H 0.85304 0.22469 0.48694 0.0
C854 C 0.8235 0.25215 0.50902 0.0
C855 C 0.80213 0.26617 0.51983 0.0
C856 C 0.78715 0.23977 0.50376 0.0
C857 C 0.74437 0.26731 0.52736 0.0
C858 C 0.70785 0.25494 0.52247 0.0
C859 C 0.69174 0.22921 0.50279 0.0
C860 C 0.71273 0.21561 0.48991 0.0
C861 C 0.7286 0.24128 0.50988 0.0
C862 C 0.7712 0.21402 0.48489 0.0
C863 C 0.80815 0.22606 0.49159 0.0
H864 H 0.40163 0.264 0.7466 0.0
H865 H 0.49129 0.26465 0.66057 0.0
H866 H 0.54378 0.24177 0.67579 0.0
H867 H 0.56708 0.22256 0.71425 0.0
H868 H 0.4801 0.22257 0.80107 0.0
H869 H 0.42213 0.24416 0.78423 0.0
C870 C 0.43255 0.25917 0.73104 0.0
C871 C 0.44287 0.26613 0.70254 0.0
C872 C 0.46262 0.24612 0.73996 0.0
C873 C 0.4828 0.2596 0.68268 0.0
C874 C 0.5127 0.2465 0.69134 0.0
C875 C 0.53533 0.2272 0.72955 0.0
C876 C 0.5285 0.22108 0.75911 0.0
C877 C 0.50335 0.23981 0.72005 0.0
C878 C 0.48645 0.22711 0.77832 0.0
C879 C 0.45354 0.23949 0.76875 0.0
H880 H 0.4816 0.02623 0.47225 0.0
H881 H 0.61986 0.00463 0.52036 0.0
H882 H 0.56132 0.98221 0.53005 0.0
H883 H 0.47123 0.9685 0.52449 0.0
H884 H 0.33389 0.98957 0.47471 0.0
H885 H 0.39152 0.01232 0.46614 0.0
C886 C 0.49879 0.0166 0.48481 0.0
C887 C 0.55493 0.01707 0.4954 0.0
C888 C 0.46508 0.00361 0.49008 0.0
C889 C 0.57686 0.00449 0.5116 0.0
C890 C 0.54337 0.99167 0.51733 0.0
C891 C 0.45383 0.9781 0.51195 0.0
C892 C 0.39841 0.97733 0.50037 0.0
C893 C 0.48746 0.99108 0.50664 0.0
C894 C 0.37658 0.98984 0.48389 0.0
C895 C 0.40946 0.00288 0.47893 0.0
H896 H 0.59245 0.74264 0.28892 0.0
H897 H 0.46069 0.70852 0.28066 0.0
H898 H 0.39531 0.72783 0.26127 0.0
H899 H 0.37765 0.75386 0.24367 0.0
H900 H 0.50658 0.78852 0.25468 0.0
H901 H 0.57202 0.76933 0.2751 0.0
C902 C 0.54915 0.73948 0.2833 0.0
C903 C 0.53154 0.72416 0.28602 0.0
C904 C 0.51193 0.75061 0.27194 0.0
C905 C 0.47524 0.72024 0.27892 0.0
C906 C 0.43803 0.73124 0.26748 0.0
C907 C 0.42007 0.75725 0.25046 0.0
C908 C 0.4375 0.77256 0.24737 0.0
C909 C 0.45639 0.74635 0.26326 0.0
C910 C 0.49243 0.77677 0.25657 0.0
C911 C 0.52962 0.76584 0.26845 0.0
H912 H 0.38428 0.4777 0.03017 0.0
H913 H 0.48739 0.45604 0.96115 0.0
H914 H 0.53644 0.48021 0.95181 0.0
H915 H 0.54786 0.50761 0.96213 0.0
H916 H 0.44382 0.52923 0.03077 0.0
H917 H 0.39612 0.50493 0.04075 0.0
C918 C 0.41803 0.47816 0.01337 0.0
C919 C 0.43224 0.46502 -0.00352 0.0
C920 C 0.44495 0.49216 0.00754 0.0
C921 C 0.47585 0.46593 0.97465 0.0
C922 C 0.50352 0.47979 0.96907 0.0
C923 C 0.51424 0.50707 0.97901 0.0
C924 C 0.49912 0.52026 -0.00448 0.0
C925 C 0.48776 0.49302 0.98504 0.0
C926 C 0.45602 0.51928 0.01759 0.0
C927 C 0.42904 0.50537 0.02349 0.0
H928 H 0.00961 0.14447 0.25771 0.0
H929 H 0.13194 0.14575 0.33107 0.0
H930 H 0.12134 0.11825 0.33846 0.0
H931 H 0.08604 0.09349 0.31997 0.0
H932 H 0.96422 0.09226 0.24642 0.0
H933 H 0.96594 0.12011 0.24327 0.0
C934 C 0.03333 0.13879 0.27564 0.0
C935 C 0.07227 0.14711 0.29342 0.0
C936 C 0.02774 0.12295 0.27945 0.0
C937 C 0.10205 0.1396 0.31685 0.0
C938 C 0.09626 0.12385 0.321 0.0
C939 C 0.05951 0.09934 0.30345 0.0
C940 C 0.02583 0.09085 0.28313 0.0
C941 C 0.06073 0.11535 0.30173 0.0
C942 C -0.00917 0.09855 0.26221 0.0
C943 C -0.00815 0.11447 0.26034 0.0
H944 H 0.18542 0.15095 0.00084 0.0
H945 H 0.04366 0.15135 0.93837 0.0
H946 H 0.05835 0.12427 0.92752 0.0
H947 H 0.10545 0.09999 0.9396 0.0
H948 H 0.24339 0.09935 0.0044 0.0
H949 H 0.23666 0.12707 0.01018 0.0
C950 C 0.15814 0.14518 0.98455 0.0
C951 C 0.11315 0.15313 0.9707 0.0
C952 C 0.16597 0.12954 0.97895 0.0
C953 C 0.07836 0.14547 0.94956 0.0
C954 C 0.08666 0.12997 0.94336 0.0
C955 C 0.13459 0.10595 0.95465 0.0
C956 C 0.17453 0.09763 0.97176 0.0
C957 C 0.12943 0.12181 0.9585 0.0
C958 C 0.21189 0.1055 0.99123 0.0
C959 C 0.20804 0.12133 0.99456 0.0
H960 H 0.93033 0.89187 0.70123 0.0
H961 H 0.75765 0.89339 0.66838 0.0
H962 H 0.74973 0.86564 0.67489 0.0
H963 H 0.78891 0.84148 0.6953 0.0
H964 H 0.95831 0.8411 0.73272 0.0
H965 H 0.97061 0.86794 0.71891 0.0
C966 C 0.89106 0.88617 0.69506 0.0
C967 C 0.84446 0.89474 0.68458 0.0
C968 C 0.88615 0.87042 0.69997 0.0
C969 C 0.79407 0.88709 0.67666 0.0
C970 C 0.78947 0.87123 0.68049 0.0
C971 C 0.82877 0.84725 0.69994 0.0
C972 C 0.87267 0.8394 0.71505 0.0
C973 C 0.83475 0.86286 0.69295 0.0
C974 C 0.92388 0.84698 0.72129 0.0
C975 C 0.93091 0.8623 0.7134 0.0
H976 H 0.92703 0.90311 0.95493 0.0
H977 H 0.90281 0.90507 0.05239 0.0
H978 H 0.90697 0.87707 0.05521 0.0
H979 H 0.91253 0.85197 0.02919 0.0
H980 H 0.92952 0.85077 0.93103 0.0
H981 H 0.93235 0.87851 0.9293 0.0
C982 C 0.92361 0.89744 0.97689 0.0
C983 C 0.91518 0.90611 0.00345 0.0
C984 C 0.92376 0.88144 0.97813 0.0
C985 C 0.90961 0.89859 0.03164 0.0
C986 C 0.91168 0.88261 0.03322 0.0
C987 C 0.91689 0.8578 0.00747 0.0
C988 C 0.92074 0.84926 0.98031 0.0
C989 C 0.91777 0.87389 0.0065 0.0
C990 C 0.92619 0.857 0.95231 0.0
C991 C 0.92808 0.8729 0.95125 0.0
H992 H 0.06736 0.58437 0.79449 0.0
H993 H 0.20255 0.57308 0.73196 0.0
H994 H 0.23608 0.59949 0.73335 0.0
H995 H 0.22168 0.62618 0.74855 0.0
H996 H 0.08371 0.63766 0.80916 0.0
H997 H 0.05694 0.61074 0.81246 0.0
C998 C 0.10462 0.58762 0.78147 0.0
C999 C 0.13206 0.57679 0.76293 0.0
C1000 C 0.12292 0.60289 0.78183 0.0
C1001 C 0.18035 0.58121 0.74625 0.0
C1002 C 0.19951 0.59632 0.74698 0.0
C1003 C 0.18613 0.62279 0.76276 0.0
C1004 C 0.15437 0.63394 0.77832 0.0
C1005 C 0.17027 0.60733 0.76409 0.0
C1006 C 0.10853 0.62933 0.7967 0.0
C1007 C 0.09318 0.61393 0.7986 0.0
H1008 H 0.07801 0.64602 0.4414 0.0
H1009 H 0.20581 0.64445 0.51199 0.0
H1010 H 0.21749 0.61706 0.50382 0.0
H1011 H 0.18777 0.59342 0.47897 0.0
H1012 H 0.05855 0.5945 0.40914 0.0
H1013 H 0.05111 0.62228 0.4147 0.0
C1014 C 0.10889 0.63972 0.45475 0.0
C1015 C 0.14083 0.64727 0.47738 0.0
C1016 C 0.11476 0.62388 0.45028 0.0
C1017 C 0.18048 0.63892 0.49455 0.0
C1018 C 0.18713 0.62324 0.48993 0.0
C1019 C 0.15801 0.5997 0.46485 0.0
C1020 C 0.12344 0.59185 0.44382 0.0
C1021 C 0.1538 0.61558 0.46827 0.0
C1022 C 0.08559 0.60023 0.42554 0.0
C1023 C 0.08128 0.61611 0.42874 0.0
H1024 H 0.94197 0.3492 0.26432 0.0
H1025 H 0.86483 0.35358 0.17536 0.0
H1026 H 0.88859 0.3808 0.17453 0.0
H1027 H 0.92467 0.40364 0.20085 0.0
H1028 H 0.0017 0.39905 0.2898 0.0
H1029 H 0.98458 0.37154 0.28878 0.0
C1030 C 0.93064 0.35607 0.24463 0.0
C1031 C 0.90098 0.34943 0.22013 0.0
C1032 C 0.94403 0.37167 0.24439 0.0
C1033 C 0.88736 0.35844 0.19461 0.0
C1034 C 0.90077 0.37401 0.19415 0.0
C1035 C 0.93799 0.3966 0.21993 0.0
C1036 C 0.96377 0.40339 0.24551 0.0
C1037 C 0.92799 0.3808 0.21921 0.0
C1038 C 0.98157 0.39411 0.26987 0.0
C1039 C 0.97169 0.37839 0.26935 0.0
H1040 H 0.79 0.34211 0.49718 0.0
H1041 H 0.97183 0.34244 0.50929 0.0
H1042 H 0.97147 0.37027 0.51202 0.0
H1043 H 0.92045 0.39461 0.50782 0.0
H1044 H 0.73827 0.39443 0.49771 0.0
H1045 H 0.73783 0.3665 0.49759 0.0
C1046 C 0.82944 0.34829 0.50066 0.0
C1047 C 0.88085 0.34022 0.50271 0.0
C1048 C 0.82896 0.36433 0.50242 0.0
C1049 C 0.93159 0.34836 0.50762 0.0
C1050 C 0.93151 0.36429 0.50905 0.0
C1051 C 0.88064 0.38845 0.50571 0.0
C1052 C 0.82962 0.39657 0.50238 0.0
C1053 C 0.8806 0.37241 0.50595 0.0
C1054 C 0.77823 0.38844 0.50018 0.0
C1055 C 0.77792 0.37247 0.50004 0.0
H1056 H 0.67731 0.09422 0.76117 0.0
H1057 H 0.52678 0.0924 0.81699 0.0
H1058 H 0.5254 0.12037 0.81999 0.0
H1059 H 0.56468 0.14536 0.80439 0.0
H1060 H 0.71743 0.1467 0.74991 0.0
H1061 H 0.72045 0.11891 0.74899 0.0
C1062 C 0.64448 0.09996 0.77419 0.0
C1063 C 0.60208 0.09135 0.78868 0.0
C1064 C 0.64426 0.11595 0.77598 0.0
C1065 C 0.56007 0.09885 0.80577 0.0
C1066 C 0.55909 0.11482 0.80734 0.0
C1067 C 0.59873 0.13956 0.79245 0.0
C1068 C 0.64036 0.14812 0.77699 0.0
C1069 C 0.60058 0.1235 0.79217 0.0
C1070 C 0.6846 0.14043 0.76189 0.0
C1071 C 0.68642 0.12451 0.7613 0.0
H1072 H 0.58368 0.14214 0.45244 0.0
H1073 H 0.66635 0.14517 0.54025 0.0
H1074 H 0.68941 0.11809 0.53812 0.0
H1075 H 0.68444 0.09349 0.51229 0.0
H1076 H 0.60189 0.08989 0.42462 0.0
H1077 H 0.58051 0.11726 0.42579 0.0
C1078 C 0.60697 0.13689 0.47102 0.0
C1079 C 0.62308 0.1457 0.4965 0.0
C1080 C 0.61995 0.1212 0.46978 0.0
C1081 C 0.65321 0.13869 0.5204 0.0
C1082 C 0.66645 0.12318 0.51924 0.0
C1083 C 0.66178 0.09864 0.49336 0.0
C1084 C 0.64461 0.08961 0.46847 0.0
C1085 C 0.64967 0.11432 0.49419 0.0
C1086 C 0.61554 0.09656 0.44411 0.0
C1087 C 0.60329 0.11222 0.44476 0.0
H1088 H 0.31623 0.89458 0.26066 0.0
H1089 H 0.33798 0.89291 0.16294 0.0
H1090 H 0.32943 0.86493 0.16426 0.0
H1091 H 0.31771 0.84096 0.19381 0.0
H1092 H 0.30144 0.84346 0.29192 0.0
H1093 H 0.30645 0.87118 0.28974 0.0
C1094 C 0.31856 0.88816 0.23952 0.0
C1095 C 0.3272 0.8958 0.2117 0.0
C1096 C 0.31514 0.87222 0.24058 0.0
C1097 C 0.33108 0.88726 0.18464 0.0
C1098 C 0.32636 0.87129 0.18541 0.0
C1099 C 0.31528 0.84759 0.21467 0.0
C1100 C 0.30912 0.84013 0.24297 0.0
C1101 C 0.31878 0.86364 0.21334 0.0
C1102 C 0.30636 0.84887 0.26983 0.0
C1103 C 0.30901 0.86475 0.26864 0.0
H1104 H 0.42482 0.89983 0.49924 0.0
H1105 H 0.24841 0.89996 0.52593 0.0
H1106 H 0.25266 0.8726 0.53626 0.0
H1107 H 0.3039 0.8482 0.53328 0.0
H1108 H 0.48018 0.84806 0.50633 0.0
H1109 H 0.47847 0.87579 0.50087 0.0
C1110 C 0.38744 0.89392 0.50763 0.0
C1111 C 0.33621 0.90194 0.51135 0.0
C1112 C 0.38996 0.87811 0.5133 0.0
C1113 C 0.28837 0.89409 0.52258 0.0
C1114 C 0.29066 0.8784 0.52844 0.0
C1115 C 0.34212 0.85424 0.52649 0.0
C1116 C 0.3918 0.84599 0.51981 0.0
C1117 C 0.34083 0.87022 0.52316 0.0
C1118 C 0.4411 0.85406 0.51137 0.0
C1119 C 0.44021 0.86995 0.50818 0.0
H1120 H 0.53762 0.65269 0.24835 0.0
H1121 H 0.68818 0.65098 0.30436 0.0
H1122 H 0.67541 0.62347 0.31138 0.0
H1123 H 0.62455 0.59963 0.29896 0.0
H1124 H 0.47326 0.6017 0.24346 0.0
H1125 H 0.48322 0.62932 0.23906 0.0
C1126 C 0.56751 0.64633 0.26223 0.0
C1127 C 0.61408 0.65385 0.27553 0.0
C1128 C 0.55993 0.63055 0.26619 0.0
C1129 C 0.65202 0.64546 0.29378 0.0
C1130 C 0.64486 0.62971 0.29774 0.0
C1131 C 0.59357 0.60615 0.28609 0.0
C1132 C 0.54857 0.59858 0.27134 0.0
C1133 C 0.59945 0.62209 0.28364 0.0
C1134 C 0.50844 0.6072 0.25499 0.0
C1135 C 0.51413 0.62302 0.25237 0.0
H1136 H 0.68117 0.6502 0.01163 0.0
H1137 H 0.55753 0.65069 0.93895 0.0
H1138 H 0.56085 0.62277 0.93619 0.0
H1139 H 0.59731 0.5981 0.95551 0.0
H1140 H 0.72208 0.59813 0.02769 0.0
H1141 H 0.71943 0.62593 0.02966 0.0
C1142 C 0.6551 0.64424 -0.00495 0.0
C1143 C 0.61905 0.65255 0.97561 0.0
C1144 C 0.65707 0.62823 0.99365 0.0
C1145 C 0.58576 0.6446 0.95418 0.0
C1146 C 0.58745 0.62862 0.95267 0.0
C1147 C 0.62377 0.60421 0.97168 0.0
C1148 C 0.65967 0.59603 0.99147 0.0
C1149 C 0.62257 0.6203 0.9725 0.0
C1150 C 0.69413 0.60412 0.01213 0.0
C1151 C 0.69268 0.62004 0.01331 0.0
H1152 H 0.47658 0.39622 0.70285 0.0
H1153 H 0.30219 0.40197 0.73046 0.0
H1154 H 0.28231 0.37527 0.71795 0.0
H1155 H 0.31658 0.34991 0.70451 0.0
H1156 H 0.4932 0.34318 0.68213 0.0
H1157 H 0.51011 0.37072 0.68679 0.0
C1158 C 0.43408 0.39164 0.70564 0.0
C1159 C 0.39086 0.40097 0.71762 0.0
C1160 C 0.42355 0.37613 0.69953 0.0
C1161 C 0.33612 0.39493 0.72148 0.0
C1162 C 0.32478 0.3797 0.71433 0.0
C1163 C 0.35868 0.35445 0.70013 0.0
C1164 C 0.40368 0.34448 0.69313 0.0
C1165 C 0.36849 0.37011 0.70411 0.0
C1166 C 0.45791 0.3506 0.68769 0.0
C1167 C 0.46761 0.36633 0.69045 0.0
H1168 H 0.37959 0.39068 0.05324 0.0
H1169 H 0.22711 0.39398 -0.00106 0.0
H1170 H 0.22324 0.36625 0.99448 0.0
H1171 H 0.26748 0.34125 0.00207 0.0
H1172 H 0.42075 0.33779 0.05563 0.0
H1173 H 0.41951 0.36532 0.06451 0.0
C1174 C 0.3452 0.38532 0.04071 0.0
C1175 C 0.30425 0.39442 0.02609 0.0
C1176 C 0.34347 0.36933 0.03792 0.0
C1177 C 0.2597 0.38728 0.0101 0.0
C1178 C 0.25737 0.3714 0.00753 0.0
C1179 C 0.3003 0.34649 0.01596 0.0
C1180 C 0.34446 0.3375 0.02781 0.0
C1181 C 0.29975 0.36234 0.02071 0.0
C1182 C 0.38634 0.34445 0.04605 0.0
C1183 C 0.38582 0.36022 0.05108 0.0
H1184 H 0.91041 0.03089 0.32925 0.0
H1185 H 0.03685 0.02214 0.3984 0.0
H1186 H 0.96363 0.02227 0.43772 0.0
H1187 H 0.86527 0.02771 0.4531 0.0
H1188 H 0.73897 0.03618 0.38379 0.0
H1189 H 0.81052 0.03333 0.34402 0.0
C1190 C 0.92189 0.02879 0.35285 0.0
C1191 C 0.97916 0.02682 0.36091 0.0
C1192 C 0.87969 0.02905 0.37544 0.0
C1193 C -0.00685 0.02387 0.39156 0.0
C1194 C 0.95133 0.02401 0.41413 0.0
C1195 C 0.85343 0.02882 0.42928 0.0
C1196 C 0.79719 0.0324 0.42145 0.0
C1197 C 0.89476 0.0271 0.40645 0.0
C1198 C 0.78212 0.03353 0.39047 0.0
C1199 C 0.82301 0.03192 0.36767 0.0
H1200 H 0.33843 0.19662 0.31603 0.0
H1201 H 0.22112 0.20856 0.38787 0.0
H1202 H 0.29918 0.21023 0.42418 0.0
H1203 H 0.3992 0.20598 0.4366 0.0
H1204 H 0.51699 0.19409 0.36502 0.0
H1205 H 0.44037 0.19491 0.32753 0.0
C1206 C 0.33002 0.19971 0.33957 0.0
C1207 C 0.27394 0.2022 0.34932 0.0
C1208 C 0.37511 0.20058 0.36044 0.0
C1209 C 0.26382 0.20643 0.37979 0.0
C1210 C 0.30843 0.20737 0.40063 0.0
C1211 C 0.4082 0.20367 0.41276 0.0
C1212 C 0.46344 0.19971 0.4037 0.0
C1213 C 0.36399 0.20408 0.39137 0.0
C1214 C 0.47468 0.19704 0.37265 0.0
C1215 C 0.43087 0.19746 0.35119 0.0
H1216 H 0.71861 0.19908 0.87419 0.0
H1217 H 0.82624 0.21836 0.8042 0.0
H1218 H 0.90271 0.22144 0.84115 0.0
H1219 H 0.94286 0.21535 0.89089 0.0
H1220 H 0.83799 0.19502 0.96073 0.0
H1221 H 0.75594 0.19591 0.92633 0.0
C1222 C 0.75848 0.20418 0.86712 0.0
C1223 C 0.7672 0.20816 0.83633 0.0
C1224 C 0.8028 0.20559 0.88834 0.0
C1225 C 0.81878 0.21496 0.82763 0.0
C1226 C 0.86257 0.21671 0.84873 0.0
C1227 C 0.90192 0.21124 0.89874 0.0
C1228 C 0.89666 0.20478 0.92798 0.0
C1229 C 0.8557 0.2115 0.87876 0.0
C1230 C 0.84313 0.19988 0.93815 0.0
C1231 C 0.79638 0.20033 0.91846 0.0
H1232 H 0.34046 0.03152 0.9562 0.0
H1233 H 0.21879 0.0293 0.88264 0.0
H1234 H 0.29562 0.02681 0.84571 0.0
H1235 H 0.39737 0.02855 0.83381 0.0
H1236 H 0.51883 0.03094 0.90747 0.0
H1237 H 0.44213 0.0299 0.9447 0.0
C1238 C 0.33068 0.03028 0.93213 0.0
C1239 C 0.274 0.03092 0.92219 0.0
C1240 C 0.37509 0.02903 0.91093 0.0
C1241 C 0.26207 0.02903 0.89095 0.0
C1242 C 0.30601 0.02765 0.86975 0.0
C1243 C 0.4071 0.02865 0.85801 0.0
C1244 C 0.46368 0.03015 0.86778 0.0
C1245 C 0.36271 0.02818 0.87939 0.0
C1246 C 0.47561 0.02999 0.89924 0.0
C1247 C 0.43175 0.02943 0.92061 0.0
H1248 H 0.20358 0.95814 0.5938 0.0
H1249 H 0.09114 0.96336 0.5167 0.0
H1250 H 0.0103 0.96609 0.55126 0.0
H1251 H 0.97062 0.96342 0.60273 0.0
H1252 H 0.08276 0.95597 0.67922 0.0
H1253 H 0.16498 0.95792 0.64551 0.0
C1254 C 0.16152 0.96009 0.58451 0.0
C1255 C 0.15312 0.96028 0.55275 0.0
C1256 C 0.11522 0.96113 0.60441 0.0
C1257 C 0.09848 0.96293 0.54109 0.0
C1258 C 0.0523 0.96449 0.56082 0.0
C1259 C 0.01309 0.9625 0.61211 0.0
C1260 C 0.02068 0.95931 0.64329 0.0
C1261 C 0.05996 0.96306 0.59245 0.0
C1262 C 0.0759 0.95821 0.65518 0.0
C1263 C 0.12287 0.9593 0.63593 0.0
H1264 H 0.74349 0.77999 0.62116 0.0
H1265 H 0.63231 0.78179 0.69942 0.0
H1266 H 0.54978 0.78252 0.66576 0.0
H1267 H 0.51031 0.78549 0.61451 0.0
H1268 H 0.62158 0.78497 0.53621 0.0
H1269 H 0.70318 0.78078 0.56962 0.0
C1270 C 0.7012 0.78032 0.63089 0.0
C1271 C 0.69406 0.78106 0.66273 0.0
C1272 C 0.65408 0.78114 0.61143 0.0
C1273 C 0.63896 0.78138 0.67497 0.0
C1274 C 0.59177 0.78184 0.65575 0.0
C1275 C 0.55232 0.78434 0.60467 0.0
C1276 C 0.55998 0.78579 0.57297 0.0
C1277 C 0.599 0.78221 0.62399 0.0
C1278 C 0.61461 0.78406 0.56058 0.0
C1279 C 0.66127 0.78167 0.57966 0.0
H1280 H 0.1232 0.78065 0.17687 0.0
H1281 H 0.25561 0.77873 0.10884 0.0
H1282 H 0.18456 0.7796 0.06835 0.0
H1283 H 0.08614 0.78391 0.05251 0.0
H1284 H 0.95384 0.78626 0.12051 0.0
H1285 H 0.02372 0.78209 0.16082 0.0
C1286 C 0.13654 0.78023 0.15319 0.0
C1287 C 0.19465 0.77993 0.14588 0.0
C1288 C 0.09558 0.78097 0.13005 0.0
C1289 C 0.21117 0.77913 0.1151 0.0
C1290 C 0.17059 0.77969 0.09192 0.0
C1291 C 0.0725 0.78339 0.07613 0.0
C1292 C 0.01511 0.7857 0.08357 0.0
C1293 C 0.11288 0.78112 0.09916 0.0
C1294 C -0.00211 0.78467 0.1142 0.0
C1295 C 0.03781 0.78232 0.13727 0.0
H1296 H 0.72355 0.95044 0.10684 0.0
H1297 H 0.64325 0.94484 0.01897 0.0
H1298 H 0.55029 0.94333 0.04366 0.0
H1299 H 0.49234 0.94311 0.09036 0.0
H1300 H 0.5739 0.94858 0.17799 0.0
H1301 H 0.66601 0.9507 0.15308 0.0
C1302 C 0.68578 0.9489 0.09301 0.0
C1303 C 0.69034 0.94771 0.06113 0.0
C1304 C 0.63273 0.94802 0.1073 0.0
C1305 C 0.64089 0.94579 0.04358 0.0
C1306 C 0.58776 0.94491 0.05768 0.0
C1307 C 0.53024 0.94481 0.104 0.0
C1308 C 0.52623 0.94562 0.13599 0.0
C1309 C 0.58323 0.94595 0.08954 0.0
C1310 C 0.57576 0.94785 0.15333 0.0
C1311 C 0.6285 0.94906 0.13912 0.0
H1312 H 0.84865 0.54188 0.80811 0.0
H1313 H 0.96845 0.52764 0.87706 0.0
H1314 H 0.89468 0.52901 0.91588 0.0
H1315 H 0.79739 0.5353 0.93082 0.0
H1316 H 0.67744 0.54984 0.86223 0.0
H1317 H 0.74994 0.54724 0.82282 0.0
C1318 C 0.85851 0.53898 0.83158 0.0
C1319 C 0.91408 0.53476 0.83964 0.0
C1320 C 0.81593 0.5399 0.85395 0.0
C1321 C 0.92612 0.53102 0.87019 0.0
C1322 C 0.88396 0.5318 0.89248 0.0
C1323 C 0.78698 0.53783 0.90724 0.0
C1324 C 0.73217 0.54284 0.89956 0.0
C1325 C 0.82892 0.5364 0.88469 0.0
C1326 C 0.71937 0.54601 0.86884 0.0
C1327 C 0.76083 0.54454 0.84625 0.0
H1328 H 0.24514 0.70972 0.86686 0.0
H1329 H 0.3321 0.69274 0.78709 0.0
H1330 H 0.42293 0.69475 0.81365 0.0
H1331 H 0.4761 0.69894 0.86095 0.0
H1332 H 0.38842 0.7144 0.94171 0.0
H1333 H 0.29935 0.71549 0.91322 0.0
C1334 C 0.28403 0.70665 0.85514 0.0
C1335 C 0.28184 0.70093 0.82518 0.0
C1336 C 0.33587 0.70743 0.87081 0.0
C1337 C 0.33261 0.69701 0.81028 0.0
C1338 C 0.38454 0.69815 0.82546 0.0
C1339 C 0.43765 0.7027 0.87227 0.0
C1340 C 0.43874 0.70642 0.90348 0.0
C1341 C 0.38645 0.70295 0.85597 0.0
C1342 C 0.38857 0.71131 0.91777 0.0
C1343 C 0.33765 0.71195 0.90151 0.0
H1344 H 0.91167 0.70728 0.4374 0.0
H1345 H 0.03546 0.70467 0.36498 0.0
H1346 H 0.96005 0.70684 0.32697 0.0
H1347 H 0.85821 0.70711 0.3144 0.0
H1348 H 0.7351 0.70937 0.38729 0.0
H1349 H 0.81109 0.7098 0.42491 0.0
C1350 C 0.92227 0.70732 0.41331 0.0
C1351 C 0.97897 0.70558 0.40405 0.0
C1352 C 0.87877 0.7084 0.39161 0.0
C1353 C -0.00795 0.70587 0.37274 0.0
C1354 C 0.94895 0.70707 0.35097 0.0
C1355 C 0.84805 0.70785 0.3385 0.0
C1356 C 0.79103 0.70798 0.348 0.0
C1357 C 0.89202 0.70796 0.36014 0.0
C1358 C 0.77859 0.70909 0.37931 0.0
C1359 C 0.82203 0.70933 0.4009 0.0
H1360 H 0.41233 0.53369 0.31152 0.0
H1361 H 0.52725 0.53842 0.3877 0.0
H1362 H 0.44808 0.53594 0.42327 0.0
H1363 H 0.34523 0.53529 0.43247 0.0
H1364 H 0.23059 0.53088 0.35605 0.0
H1365 H 0.31073 0.53021 0.32096 0.0
C1366 C 0.42016 0.53402 0.33591 0.0
C1367 C 0.47541 0.53653 0.34691 0.0
C1368 C 0.37444 0.53276 0.35623 0.0
C1369 C 0.48501 0.53666 0.37859 0.0
C1370 C 0.43973 0.53529 0.39898 0.0
C1371 C 0.3378 0.53402 0.40818 0.0
C1372 C 0.28196 0.53344 0.39689 0.0
C1373 C 0.38409 0.5338 0.38802 0.0
C1374 C 0.2731 0.53155 0.36537 0.0
C1375 C 0.31891 0.53119 0.34523 0.0
H1376 H 0.00582 0.46938 0.12638 0.0
H1377 H 0.12236 0.46332 0.20148 0.0
H1378 H 0.20127 0.46111 0.16561 0.0
H1379 H 0.23465 0.45761 0.1132 0.0
H1380 H 0.1171 0.46209 0.03811 0.0
H1381 H 0.04093 0.46831 0.07384 0.0
C1382 C 0.04858 0.46783 0.13499 0.0
C1383 C 0.05807 0.46627 0.16655 0.0
C1384 C 0.09338 0.46608 0.11424 0.0
C1385 C 0.11382 0.46439 0.17728 0.0
C1386 C 0.15892 0.46306 0.15678 0.0
C1387 C 0.19253 0.4601 0.10456 0.0
C1388 C 0.18134 0.45913 0.07307 0.0
C1389 C 0.1488 0.46334 0.12523 0.0
C1390 C 0.12669 0.46258 0.06227 0.0
C1391 C 0.08312 0.46613 0.08269 0.0
H1392 H 0.67026 0.28703 0.16245 0.0
H1393 H 0.76413 0.30876 0.0898 0.0
H1394 H 0.68765 0.30296 0.05391 0.0
H1395 H 0.59119 0.2934 0.04419 0.0
H1396 H 0.49793 0.27164 0.11716 0.0
H1397 H 0.57768 0.2755 0.15171 0.0
C1398 C 0.674 0.29049 0.13876 0.0
C1399 C 0.72228 0.29853 0.12889 0.0
C1400 C 0.63013 0.28705 0.11827 0.0
C1401 C 0.7271 0.30266 0.098 0.0
C1402 C 0.68344 0.29934 0.07746 0.0
C1403 C 0.58862 0.2893 0.06752 0.0
C1404 C 0.53835 0.28245 0.07818 0.0
C1405 C 0.63437 0.29175 0.08746 0.0
C1406 C 0.5359 0.2771 0.10842 0.0
C1407 C 0.5814 0.27935 0.12827 0.0
H1408 H 0.02004 0.28269 0.59946 0.0
H1409 H 0.12611 0.28641 0.51942 0.0
H1410 H 0.21057 0.28754 0.55179 0.0
H1411 H 0.25284 0.2901 0.60271 0.0
H1412 H 0.14583 0.2875 0.68258 0.0
H1413 H 0.06296 0.28323 0.65021 0.0
C1414 C 0.06164 0.28359 0.589 0.0
C1415 C 0.0667 0.28469 0.55708 0.0
C1416 C 0.10972 0.28459 0.60771 0.0
C1417 C 0.12099 0.28567 0.54395 0.0
C1418 C 0.16927 0.28637 0.56244 0.0
C1419 C 0.21149 0.28848 0.61309 0.0
C1420 C 0.20539 0.28936 0.645 0.0
C1421 C 0.16392 0.28628 0.59435 0.0
C1422 C 0.15159 0.28706 0.65807 0.0
C1423 C 0.10419 0.28462 0.63958 0.0
H1424 H 0.63221 0.4535 0.68595 0.0
H1425 H 0.50158 0.47427 0.63069 0.0
H1426 H 0.56526 0.47461 0.5869 0.0
H1427 H 0.65317 0.46581 0.56261 0.0
H1428 H 0.7833 0.44473 0.61772 0.0
H1429 H 0.72495 0.44789 0.66318 0.0
C1430 C 0.61797 0.45833 0.66448 0.0
C1431 C 0.56183 0.46352 0.66144 0.0
C1432 C 0.65449 0.45828 0.63919 0.0
C1433 C 0.54435 0.46998 0.63358 0.0
C1434 C 0.58068 0.47014 0.60844 0.0
C1435 C 0.66904 0.46208 0.58462 0.0
C1436 C 0.72189 0.45472 0.58662 0.0
C1437 C 0.63505 0.46378 0.61068 0.0
C1438 C 0.74235 0.45022 0.61541 0.0
C1439 C 0.70899 0.452 0.64147 0.0
loop_
_geom_bond_atom_site_label_1
_geom_bond_atom_site_label_2
_geom_bond_distance
_geom_bond_site_symmetry_2
_ccdc_geom_bond_type
C0 O1 1.160 1_655 S
C0 O7 1.185 . S
O1 C0 1.160 1_455 S
O2 Zn3 1.899 . S
O2 C10 1.284 . S
Zn3 O2 1.899 . S
Zn3 O4 2.032 . S
Zn3 O7 2.086 1_455 S
Zn3 O12 1.977 . S
O4 Zn3 2.032 . S
O4 C8 1.278 . S
C5 O6 1.203 . S
C5 O12 1.267 . S
O6 C5 1.203 . S
O7 C0 1.185 . S
O7 Zn3 2.086 1_655 S
C8 O4 1.278 . S
C8 O9 1.211 . S
O9 C8 1.211 . S
C10 O2 1.284 . S
C10 O11 1.273 . S
O11 C10 1.273 . S
O12 Zn3 1.977 . S
O12 C5 1.267 . S
C13 O14 1.160 . S
C13 O20 1.185 . S
O14 C13 1.160 . S
O15 Zn16 1.899 . S
O15 C23 1.284 . S
Zn16 O15 1.899 . S
Zn16 O17 2.032 . S
Zn16 O20 2.086 . S
Zn16 O25 1.977 . S
O17 Zn16 2.032 . S
O17 C21 1.278 . S
C18 O19 1.203 . S
C18 O25 1.267 . S
O19 C18 1.203 . S
O20 C13 1.185 . S
O20 Zn16 2.086 . S
C21 O17 1.278 . S
C21 O22 1.211 . S
O22 C21 1.211 . S
C23 O15 1.284 . S
C23 O24 1.273 . S
O24 C23 1.273 . S
O25 Zn16 1.977 . S
O25 C18 1.267 . S
C26 O27 1.160 1_655 S
C26 O33 1.185 . S
O27 C26 1.160 1_455 S
O28 Zn29 1.899 . S
O28 C36 1.284 . S
Zn29 O28 1.899 . S
Zn29 O30 2.032 . S
Zn29 O33 2.086 1_455 S
Zn29 O38 1.977 1_556 S
O30 Zn29 2.032 . S
O30 C34 1.278 . S
C31 O32 1.203 . S
C31 O38 1.267 . S
O32 C31 1.203 . S
O33 C26 1.185 . S
O33 Zn29 2.086 1_655 S
C34 O30 1.278 . S
C34 O35 1.211 1_556 S
O35 C34 1.211 1_554 S
C36 O28 1.284 . S
C36 O37 1.273 . S
O37 C36 1.273 . S
O38 Zn29 1.977 1_554 S
O38 C31 1.267 . S
C39 O40 1.160 . S
C39 O46 1.185 . S
O40 C39 1.160 . S
O41 Zn42 1.899 . S
O41 C49 1.284 . S
Zn42 O41 1.899 . S
Zn42 O43 2.032 . S
Zn42 O46 2.086 . S
Zn42 O51 1.977 1_556 S
O43 Zn42 2.032 . S
O43 C47 1.278 . S
C44 O45 1.203 . S
C44 O51 1.267 . S
O45 C44 1.203 . S
O46 C39 1.185 . S
O46 Zn42 2.086 . S
C47 O43 1.278 . S
C47 O48 1.211 1_556 S
O48 C47 1.211 1_554 S
C49 O41 1.284 . S
C49 O50 1.273 . S
O50 C49 1.273 . S
O51 Zn42 1.977 1_554 S
O51 C44 1.267 . S
C52 O53 1.160 1_455 S
C52 O59 1.185 . S
O53 C52 1.160 1_655 S
O54 Zn55 1.899 . S
O54 C62 1.284 . S
Zn55 O54 1.899 . S
Zn55 O56 2.032 . S
Zn55 O59 2.086 1_655 S
Zn55 O64 1.977 . S
O56 Zn55 2.032 . S
O56 C60 1.278 . S
C57 O58 1.203 . S
C57 O64 1.267 . S
O58 C57 1.203 . S
O59 C52 1.185 . S
O59 Zn55 2.086 1_455 S
C60 O56 1.278 . S
C60 O61 1.211 . S
O61 C60 1.211 . S
C62 O54 1.284 . S
C62 O63 1.273 . S
O63 C62 1.273 . S
O64 Zn55 1.977 . S
O64 C57 1.267 . S
C65 O66 1.160 . S
C65 O72 1.185 . S
O66 C65 1.160 . S
O67 Zn68 1.899 . S
O67 C75 1.284 . S
Zn68 O67 1.899 . S
Zn68 O69 2.032 . S
Zn68 O72 2.086 . S
Zn68 O77 1.977 . S
O69 Zn68 2.032 . S
O69 C73 1.278 . S
C70 O71 1.203 . S
C70 O77 1.267 . S
O71 C70 1.203 . S
O72 C65 1.185 . S
O72 Zn68 2.086 . S
C73 O69 1.278 . S
C73 O74 1.211 . S
O74 C73 1.211 . S
C75 O67 1.284 . S
C75 O76 1.273 . S
O76 C75 1.273 . S
O77 Zn68 1.977 . S
O77 C70 1.267 . S
C78 O79 1.160 1_455 S
C78 O85 1.185 . S
O79 C78 1.160 1_655 S
O80 Zn81 1.899 . S
O80 C88 1.284 . S
Zn81 O80 1.899 . S
Zn81 O82 2.032 . S
Zn81 O85 2.086 1_655 S
Zn81 O90 1.977 1_554 S
O82 Zn81 2.032 . S
O82 C86 1.278 . S
C83 O84 1.203 . S
C83 O90 1.267 . S
O84 C83 1.203 . S
O85 C78 1.185 . S
O85 Zn81 2.086 1_455 S
C86 O82 1.278 . S
C86 O87 1.211 1_554 S
O87 C86 1.211 1_556 S
C88 O80 1.284 . S
C88 O89 1.273 . S
O89 C88 1.273 . S
O90 Zn81 1.977 1_556 S
O90 C83 1.267 . S
C91 O92 1.160 . S
C91 O98 1.185 . S
O92 C91 1.160 . S
O93 Zn94 1.899 . S
O93 C101 1.284 . S
Zn94 O93 1.899 . S
Zn94 O95 2.032 . S
Zn94 O98 2.086 . S
Zn94 O103 1.977 1_554 S
O95 Zn94 2.032 . S
O95 C99 1.278 . S
C96 O97 1.203 . S
C96 O103 1.267 . S
O97 C96 1.203 . S
O98 C91 1.185 . S
O98 Zn94 2.086 . S
C99 O95 1.278 . S
C99 O100 1.211 1_554 S
O100 C99 1.211 1_556 S
C101 O93 1.284 . S
C101 O102 1.273 . S
O102 C101 1.273 . S
O103 Zn94 1.977 1_556 S
O103 C96 1.267 . S
C104 O105 1.160 1_655 S
C104 O111 1.185 . S
O105 C104 1.160 1_455 S
O106 Zn107 1.899 . S
O106 C114 1.284 . S
Zn107 O106 1.899 . S
Zn107 O108 2.032 . S
Zn107 O111 2.086 1_455 S
Zn107 O116 1.977 . S
O108 Zn107 2.032 . S
O108 C112 1.278 . S
C109 O110 1.203 . S
C109 O116 1.267 . S
O110 C109 1.203 . S
O111 C104 1.185 . S
O111 Zn107 2.086 1_655 S
C112 O108 1.278 . S
C112 O113 1.211 . S
O113 C112 1.211 . S
C114 O106 1.284 . S
C114 O115 1.273 . S
O115 C114 1.273 . S
O116 Zn107 1.977 . S
O116 C109 1.267 . S
C117 O118 1.160 . S
C117 O124 1.185 . S
O118 C117 1.160 . S
O119 Zn120 1.899 . S
O119 C127 1.284 . S
Zn120 O119 1.899 . S
Zn120 O121 2.032 . S
Zn120 O124 2.086 . S
Zn120 O129 1.977 . S
O121 Zn120 2.032 . S
O121 C125 1.278 . S
C122 O123 1.203 . S
C122 O129 1.267 . S
O123 C122 1.203 . S
O124 C117 1.185 . S
O124 Zn120 2.086 . S
C125 O121 1.278 . S
C125 O126 1.211 . S
O126 C125 1.211 . S
C127 O119 1.284 . S
C127 O128 1.273 . S
O128 C127 1.273 . S
O129 Zn120 1.977 . S
O129 C122 1.267 . S
C130 O131 1.160 1_655 S
C130 O137 1.185 . S
O131 C130 1.160 1_455 S
O132 Zn133 1.899 . S
O132 C140 1.284 . S
Zn133 O132 1.899 . S
Zn133 O134 2.032 . S
Zn133 O137 2.086 1_455 S
Zn133 O142 1.977 . S
O134 Zn133 2.032 . S
O134 C138 1.278 . S
C135 O136 1.203 . S
C135 O142 1.267 . S
O136 C135 1.203 . S
O137 C130 1.185 . S
O137 Zn133 2.086 1_655 S
C138 O134 1.278 . S
C138 O139 1.211 . S
O139 C138 1.211 . S
C140 O132 1.284 . S
C140 O141 1.273 . S
O141 C140 1.273 . S
O142 Zn133 1.977 . S
O142 C135 1.267 . S
C143 O144 1.160 . S
C143 O150 1.185 . S
O144 C143 1.160 . S
O145 Zn146 1.899 . S
O145 C153 1.284 . S
Zn146 O145 1.899 . S
Zn146 O147 2.032 . S
Zn146 O150 2.086 . S
Zn146 O155 1.977 . S
O147 Zn146 2.032 . S
O147 C151 1.278 . S
C148 O149 1.203 . S
C148 O155 1.267 . S
O149 C148 1.203 . S
O150 C143 1.185 . S
O150 Zn146 2.086 . S
C151 O147 1.278 . S
C151 O152 1.211 . S
O152 C151 1.211 . S
C153 O145 1.284 . S
C153 O154 1.273 . S
O154 C153 1.273 . S
O155 Zn146 1.977 . S
O155 C148 1.267 . S
C156 O157 1.160 1_455 S
C156 O163 1.185 . S
O157 C156 1.160 1_655 S
O158 Zn159 1.899 . S
O158 C166 1.284 . S
Zn159 O158 1.899 . S
Zn159 O160 2.032 . S
Zn159 O163 2.086 1_655 S
Zn159 O168 1.977 . S
O160 Zn159 2.032 . S
O160 C164 1.278 . S
C161 O162 1.203 . S
C161 O168 1.267 . S
O162 C161 1.203 . S
O163 C156 1.185 . S
O163 Zn159 2.086 1_455 S
C164 O160 1.278 . S
C164 O165 1.211 . S
O165 C164 1.211 . S
C166 O158 1.284 . S
C166 O167 1.273 . S
O167 C166 1.273 . S
O168 Zn159 1.977 . S
O168 C161 1.267 . S
C169 O170 1.160 . S
C169 O176 1.185 . S
O170 C169 1.160 . S
O171 Zn172 1.899 . S
O171 C179 1.284 . S
Zn172 O171 1.899 . S
Zn172 O173 2.032 . S
Zn172 O176 2.086 . S
Zn172 O181 1.977 . S
O173 Zn172 2.032 . S
O173 C177 1.278 . S
C174 O175 1.203 . S
C174 O181 1.267 . S
O175 C174 1.203 . S
O176 C169 1.185 . S
O176 Zn172 2.086 . S
C177 O173 1.278 . S
C177 O178 1.211 . S
O178 C177 1.211 . S
C179 O171 1.284 . S
C179 O180 1.273 . S
O180 C179 1.273 . S
O181 Zn172 1.977 . S
O181 C174 1.267 . S
C182 O183 1.160 1_455 S
C182 O189 1.185 . S
O183 C182 1.160 1_655 S
O184 Zn185 1.899 . S
O184 C192 1.284 . S
Zn185 O184 1.899 . S
Zn185 O186 2.032 . S
Zn185 O189 2.086 1_655 S
Zn185 O194 1.977 . S
O186 Zn185 2.032 . S
O186 C190 1.278 . S
C187 O188 1.203 . S
C187 O194 1.267 . S
O188 C187 1.203 . S
O189 C182 1.185 . S
O189 Zn185 2.086 1_455 S
C190 O186 1.278 . S
C190 O191 1.211 . S
O191 C190 1.211 . S
C192 O184 1.284 . S
C192 O193 1.273 . S
O193 C192 1.273 . S
O194 Zn185 1.977 . S
O194 C187 1.267 . S
C195 O196 1.160 . S
C195 O202 1.185 . S
O196 C195 1.160 . S
O197 Zn198 1.899 . S
O197 C205 1.284 . S
Zn198 O197 1.899 . S
Zn198 O199 2.032 . S
Zn198 O202 2.086 . S
Zn198 O207 1.977 . S
O199 Zn198 2.032 . S
O199 C203 1.278 . S
C200 O201 1.203 . S
C200 O207 1.267 . S
O201 C200 1.203 . S
O202 C195 1.185 . S
O202 Zn198 2.086 . S
C203 O199 1.278 . S
C203 O204 1.211 . S
O204 C203 1.211 . S
C205 O197 1.284 . S
C205 O206 1.273 . S
O206 C205 1.273 . S
O207 Zn198 1.977 . S
O207 C200 1.267 . S
C208 O209 1.160 . S
C208 O215 1.185 . S
O209 C208 1.160 . S
O210 Zn211 1.899 . S
O210 C218 1.284 . S
Zn211 O210 1.899 . S
Zn211 O212 2.032 . S
Zn211 O215 2.086 . S
Zn211 O220 1.977 . S
O212 Zn211 2.032 . S
O212 C216 1.278 . S
C213 O214 1.203 . S
C213 O220 1.267 . S
O214 C213 1.203 . S
O215 C208 1.185 . S
O215 Zn211 2.086 . S
C216 O212 1.278 . S
C216 O217 1.211 . S
O217 C216 1.211 . S
C218 O210 1.284 . S
C218 O219 1.273 . S
O219 C218 1.273 . S
O220 Zn211 1.977 . S
O220 C213 1.267 . S
C221 O222 1.160 . S
C221 O228 1.185 . S
O222 C221 1.160 . S
O223 Zn224 1.899 . S
O223 C231 1.284 . S
Zn224 O223 1.899 . S
Zn224 O225 2.032 . S
Zn224 O228 2.086 . S
Zn224 O233 1.977 . S
O225 Zn224 2.032 . S
O225 C229 1.278 . S
C226 O227 1.203 . S
C226 O233 1.267 . S
O227 C226 1.203 . S
O228 C221 1.185 . S
O228 Zn224 2.086 . S
C229 O225 1.278 . S
C229 O230 1.211 . S
O230 C229 1.211 . S
C231 O223 1.284 . S
C231 O232 1.273 . S
O232 C231 1.273 . S
O233 Zn224 1.977 . S
O233 C226 1.267 . S
C234 O235 1.160 . S
C234 O241 1.185 . S
O235 C234 1.160 . S
O236 Zn237 1.899 . S
O236 C244 1.284 . S
Zn237 O236 1.899 . S
Zn237 O238 2.032 . S
Zn237 O241 2.086 . S
Zn237 O246 1.977 . S
O238 Zn237 2.032 . S
O238 C242 1.278 . S
C239 O240 1.203 . S
C239 O246 1.267 . S
O240 C239 1.203 . S
O241 C234 1.185 . S
O241 Zn237 2.086 . S
C242 O238 1.278 . S
C242 O243 1.211 . S
O243 C242 1.211 . S
C244 O236 1.284 . S
C244 O245 1.273 . S
O245 C244 1.273 . S
O246 Zn237 1.977 . S
O246 C239 1.267 . S
C247 O248 1.160 . S
C247 O254 1.185 . S
O248 C247 1.160 . S
O249 Zn250 1.899 . S
O249 C257 1.284 . S
Zn250 O249 1.899 . S
Zn250 O251 2.032 . S
Zn250 O254 2.086 . S
Zn250 O259 1.977 . S
O251 Zn250 2.032 . S
O251 C255 1.278 . S
C252 O253 1.203 . S
C252 O259 1.267 . S
O253 C252 1.203 . S
O254 C247 1.185 . S
O254 Zn250 2.086 . S
C255 O251 1.278 . S
C255 O256 1.211 . S
O256 C255 1.211 . S
C257 O249 1.284 . S
C257 O258 1.273 . S
O258 C257 1.273 . S
O259 Zn250 1.977 . S
O259 C252 1.267 . S
C260 O261 1.160 . S
C260 O267 1.185 . S
O261 C260 1.160 . S
O262 Zn263 1.899 . S
O262 C270 1.284 . S
Zn263 O262 1.899 . S
Zn263 O264 2.032 . S
Zn263 O267 2.086 . S
Zn263 O272 1.977 . S
O264 Zn263 2.032 . S
O264 C268 1.278 . S
C265 O266 1.203 . S
C265 O272 1.267 . S
O266 C265 1.203 . S
O267 C260 1.185 . S
O267 Zn263 2.086 . S
C268 O264 1.278 . S
C268 O269 1.211 . S
O269 C268 1.211 . S
C270 O262 1.284 . S
C270 O271 1.273 . S
O271 C270 1.273 . S
O272 Zn263 1.977 . S
O272 C265 1.267 . S
C273 O274 1.160 . S
C273 O280 1.185 . S
O274 C273 1.160 . S
O275 Zn276 1.899 . S
O275 C283 1.284 . S
Zn276 O275 1.899 . S
Zn276 O277 2.032 . S
Zn276 O280 2.086 . S
Zn276 O285 1.977 . S
O277 Zn276 2.032 . S
O277 C281 1.278 . S
C278 O279 1.203 . S
C278 O285 1.267 . S
O279 C278 1.203 . S
O280 C273 1.185 . S
O280 Zn276 2.086 . S
C281 O277 1.278 . S
C281 O282 1.211 . S
O282 C281 1.211 . S
C283 O275 1.284 . S
C283 O284 1.273 . S
O284 C283 1.273 . S
O285 Zn276 1.977 . S
O285 C278 1.267 . S
C286 O287 1.160 . S
C286 O293 1.185 . S
O287 C286 1.160 . S
O288 Zn289 1.899 . S
O288 C296 1.284 . S
Zn289 O288 1.899 . S
Zn289 O290 2.032 . S
Zn289 O293 2.086 . S
Zn289 O298 1.977 . S
O290 Zn289 2.032 . S
O290 C294 1.278 . S
C291 O292 1.203 . S
C291 O298 1.267 . S
O292 C291 1.203 . S
O293 C286 1.185 . S
O293 Zn289 2.086 . S
C294 O290 1.278 . S
C294 O295 1.211 . S
O295 C294 1.211 . S
C296 O288 1.284 . S
C296 O297 1.273 . S
O297 C296 1.273 . S
O298 Zn289 1.977 . S
O298 C291 1.267 . S
C299 O300 1.160 . S
C299 O306 1.185 . S
O300 C299 1.160 . S
O301 Zn302 1.899 . S
O301 C309 1.284 . S
Zn302 O301 1.899 . S
Zn302 O303 2.032 . S
Zn302 O306 2.086 . S
Zn302 O311 1.977 . S
O303 Zn302 2.032 . S
O303 C307 1.278 . S
C304 O305 1.203 . S
C304 O311 1.267 . S
O305 C304 1.203 . S
O306 C299 1.185 . S
O306 Zn302 2.086 . S
C307 O303 1.278 . S
C307 O308 1.211 . S
O308 C307 1.211 . S
C309 O301 1.284 . S
C309 O310 1.273 . S
O310 C309 1.273 . S
O311 Zn302 1.977 . S
O311 C304 1.267 . S
C312 O313 1.160 . S
C312 O319 1.185 . S
O313 C312 1.160 . S
O314 Zn315 1.899 . S
O314 C322 1.284 . S
Zn315 O314 1.899 . S
Zn315 O316 2.032 . S
Zn315 O319 2.086 . S
Zn315 O324 1.977 . S
O316 Zn315 2.032 . S
O316 C320 1.278 . S
C317 O318 1.203 . S
C317 O324 1.267 . S
O318 C317 1.203 . S
O319 C312 1.185 . S
O319 Zn315 2.086 . S
C320 O316 1.278 . S
C320 O321 1.211 . S
O321 C320 1.211 . S
C322 O314 1.284 . S
C322 O323 1.273 . S
O323 C322 1.273 . S
O324 Zn315 1.977 . S
O324 C317 1.267 . S
C325 O326 1.160 . S
C325 O332 1.185 . S
O326 C325 1.160 . S
O327 Zn328 1.899 . S
O327 C335 1.284 . S
Zn328 O327 1.899 . S
Zn328 O329 2.032 . S
Zn328 O332 2.086 . S
Zn328 O337 1.977 . S
O329 Zn328 2.032 . S
O329 C333 1.278 . S
C330 O331 1.203 . S
C330 O337 1.267 . S
O331 C330 1.203 . S
O332 C325 1.185 . S
O332 Zn328 2.086 . S
C333 O329 1.278 . S
C333 O334 1.211 . S
O334 C333 1.211 . S
C335 O327 1.284 . S
C335 O336 1.273 . S
O336 C335 1.273 . S
O337 Zn328 1.977 . S
O337 C330 1.267 . S
C338 O339 1.160 . S
C338 O345 1.185 . S
O339 C338 1.160 . S
O340 Zn341 1.899 . S
O340 C348 1.284 . S
Zn341 O340 1.899 . S
Zn341 O342 2.032 . S
Zn341 O345 2.086 . S
Zn341 O350 1.977 1_556 S
O342 Zn341 2.032 . S
O342 C346 1.278 . S
C343 O344 1.203 . S
C343 O350 1.267 . S
O344 C343 1.203 . S
O345 C338 1.185 . S
O345 Zn341 2.086 . S
C346 O342 1.278 . S
C346 O347 1.211 1_556 S
O347 C346 1.211 1_554 S
C348 O340 1.284 . S
C348 O349 1.273 . S
O349 C348 1.273 . S
O350 Zn341 1.977 1_554 S
O350 C343 1.267 . S
C351 O352 1.160 . S
C351 O358 1.185 . S
O352 C351 1.160 . S
O353 Zn354 1.899 . S
O353 C361 1.284 . S
Zn354 O353 1.899 . S
Zn354 O355 2.032 . S
Zn354 O358 2.086 . S
Zn354 O363 1.977 1_556 S
O355 Zn354 2.032 . S
O355 C359 1.278 . S
C356 O357 1.203 . S
C356 O363 1.267 . S
O357 C356 1.203 . S
O358 C351 1.185 . S
O358 Zn354 2.086 . S
C359 O355 1.278 . S
C359 O360 1.211 1_556 S
O360 C359 1.211 1_554 S
C361 O353 1.284 . S
C361 O362 1.273 . S
O362 C361 1.273 . S
O363 Zn354 1.977 1_554 S
O363 C356 1.267 . S
C364 O365 1.160 . S
C364 O371 1.185 . S
O365 C364 1.160 . S
O366 Zn367 1.899 . S
O366 C374 1.284 . S
Zn367 O366 1.899 . S
Zn367 O368 2.032 . S
Zn367 O371 2.086 . S
Zn367 O376 1.977 . S
O368 Zn367 2.032 . S
O368 C372 1.278 . S
C369 O370 1.203 . S
C369 O376 1.267 . S
O370 C369 1.203 . S
O371 C364 1.185 . S
O371 Zn367 2.086 . S
C372 O368 1.278 . S
C372 O373 1.211 . S
O373 C372 1.211 . S
C374 O366 1.284 . S
C374 O375 1.273 . S
O375 C374 1.273 . S
O376 Zn367 1.977 . S
O376 C369 1.267 . S
C377 O378 1.160 . S
C377 O384 1.185 . S
O378 C377 1.160 . S
O379 Zn380 1.899 . S
O379 C387 1.284 . S
Zn380 O379 1.899 . S
Zn380 O381 2.032 . S
Zn380 O384 2.086 . S
Zn380 O389 1.977 . S
O381 Zn380 2.032 . S
O381 C385 1.278 . S
C382 O383 1.203 . S
C382 O389 1.267 . S
O383 C382 1.203 . S
O384 C377 1.185 . S
O384 Zn380 2.086 . S
C385 O381 1.278 . S
C385 O386 1.211 . S
O386 C385 1.211 . S
C387 O379 1.284 . S
C387 O388 1.273 . S
O388 C387 1.273 . S
O389 Zn380 1.977 . S
O389 C382 1.267 . S
C390 O391 1.160 . S
C390 O397 1.185 . S
O391 C390 1.160 . S
O392 Zn393 1.899 . S
O392 C400 1.284 . S
Zn393 O392 1.899 . S
Zn393 O394 2.032 . S
Zn393 O397 2.086 . S
Zn393 O402 1.977 1_554 S
O394 Zn393 2.032 . S
O394 C398 1.278 . S
C395 O396 1.203 . S
C395 O402 1.267 . S
O396 C395 1.203 . S
O397 C390 1.185 . S
O397 Zn393 2.086 . S
C398 O394 1.278 . S
C398 O399 1.211 1_554 S
O399 C398 1.211 1_556 S
C400 O392 1.284 . S
C400 O401 1.273 . S
O401 C400 1.273 . S
O402 Zn393 1.977 1_556 S
O402 C395 1.267 . S
C403 O404 1.160 . S
C403 O410 1.185 . S
O404 C403 1.160 . S
O405 Zn406 1.899 . S
O405 C413 1.284 . S
Zn406 O405 1.899 . S
Zn406 O407 2.032 . S
Zn406 O410 2.086 . S
Zn406 O415 1.977 1_554 S
O407 Zn406 2.032 . S
O407 C411 1.278 . S
C408 O409 1.203 . S
C408 O415 1.267 . S
O409 C408 1.203 . S
O410 C403 1.185 . S
O410 Zn406 2.086 . S
C411 O407 1.278 . S
C411 O412 1.211 1_554 S
O412 C411 1.211 1_556 S
C413 O405 1.284 . S
C413 O414 1.273 . S
O414 C413 1.273 . S
O415 Zn406 1.977 1_556 S
O415 C408 1.267 . S
H416 C422 0.930 . S
H417 C425 0.930 . S
H418 C426 0.930 . S
H419 C427 0.930 . S
H420 C430 0.940 . S
H421 C431 0.930 . S
C422 H416 0.930 . S
C422 C423 1.355 . S
C422 C424 1.415 . S
C423 C422 1.355 . S
C423 C425 1.419 . S
C424 C422 1.415 . S
C424 C429 1.425 . S
C424 C431 1.409 . S
C425 H417 0.930 . S
C425 C423 1.419 . S
C425 C426 1.362 . S
C426 H418 0.930 . S
C426 C425 1.362 . S
C426 C429 1.409 . S
C427 H419 0.930 . S
C427 C428 1.355 . S
C427 C429 1.415 . S
C428 C427 1.355 . S
C428 C430 1.419 . S
C429 C424 1.425 . S
C429 C426 1.409 . S
C429 C427 1.415 . S
C430 H420 0.940 . S
C430 C428 1.419 . S
C430 C431 1.362 . S
C431 H421 0.930 . S
C431 C424 1.409 . S
C431 C430 1.362 . S
H432 C438 0.930 . S
H433 C441 0.930 . S
H434 C442 0.930 . S
H435 C443 0.930 . S
H436 C446 0.930 . S
H437 C447 0.930 . S
C438 H432 0.930 . S
C438 C439 1.355 . S
C438 C440 1.415 . S
C439 C438 1.355 . S
C439 C441 1.419 . S
C440 C438 1.415 . S
C440 C445 1.425 . S
C440 C447 1.409 . S
C441 H433 0.930 . S
C441 C439 1.419 . S
C441 C442 1.362 . S
C442 H434 0.930 . S
C442 C441 1.362 . S
C442 C445 1.409 . S
C443 H435 0.930 . S
C443 C444 1.355 . S
C443 C445 1.415 . S
C444 C443 1.355 . S
C444 C446 1.419 . S
C445 C440 1.425 . S
C445 C442 1.409 . S
C445 C443 1.415 . S
C446 H436 0.930 . S
C446 C444 1.419 . S
C446 C447 1.362 . S
C447 H437 0.930 . S
C447 C440 1.409 . S
C447 C446 1.362 . S
H448 C454 0.930 . S
H449 C457 0.930 . S
H450 C458 0.930 . S
H451 C459 0.930 . S
H452 C462 0.930 . S
H453 C463 0.930 . S
C454 H448 0.930 . S
C454 C455 1.355 . S
C454 C456 1.415 . S
C455 C454 1.355 . S
C455 C457 1.419 . S
C456 C454 1.415 . S
C456 C461 1.425 . S
C456 C463 1.409 . S
C457 H449 0.930 . S
C457 C455 1.419 . S
C457 C458 1.362 . S
C458 H450 0.930 . S
C458 C457 1.362 . S
C458 C461 1.409 . S
C459 H451 0.930 . S
C459 C460 1.355 . S
C459 C461 1.415 . S
C460 C459 1.355 . S
C460 C462 1.419 . S
C461 C456 1.425 . S
C461 C458 1.409 . S
C461 C459 1.415 . S
C462 H452 0.930 . S
C462 C460 1.419 . S
C462 C463 1.362 . S
C463 H453 0.930 . S
C463 C456 1.409 . S
C463 C462 1.362 . S
H464 C470 0.930 . S
H465 C473 0.930 . S
H466 C474 0.930 . S
H467 C475 0.930 . S
H468 C478 0.930 . S
H469 C479 0.930 . S
C470 H464 0.930 . S
C470 C471 1.355 . S
C470 C472 1.415 . S
C471 C470 1.355 . S
C471 C473 1.419 . S
C472 C470 1.415 . S
C472 C477 1.425 . S
C472 C479 1.409 . S
C473 H465 0.930 . S
C473 C471 1.419 . S
C473 C474 1.362 . S
C474 H466 0.930 . S
C474 C473 1.362 . S
C474 C477 1.409 . S
C475 H467 0.930 . S
C475 C476 1.355 . S
C475 C477 1.415 . S
C476 C475 1.355 . S
C476 C478 1.419 . S
C477 C472 1.425 . S
C477 C474 1.409 . S
C477 C475 1.415 . S
C478 H468 0.930 . S
C478 C476 1.419 . S
C478 C479 1.362 . S
C479 H469 0.930 . S
C479 C472 1.409 . S
C479 C478 1.362 . S
H480 C486 0.930 . S
H481 C489 0.930 . S
H482 C490 0.930 . S
H483 C491 0.930 . S
H484 C494 0.930 . S
H485 C495 0.930 . S
C486 H480 0.930 . S
C486 C487 1.355 . S
C486 C488 1.415 . S
C487 C486 1.355 . S
C487 C489 1.419 . S
C488 C486 1.415 . S
C488 C493 1.425 . S
C488 C495 1.409 . S
C489 H481 0.930 . S
C489 C487 1.419 . S
C489 C490 1.362 . S
C490 H482 0.930 . S
C490 C489 1.362 . S
C490 C493 1.409 . S
C491 H483 0.930 . S
C491 C492 1.355 . S
C491 C493 1.415 . S
C492 C491 1.355 . S
C492 C494 1.419 . S
C493 C488 1.425 . S
C493 C490 1.409 . S
C493 C491 1.415 . S
C494 H484 0.930 . S
C494 C492 1.419 . S
C494 C495 1.362 . S
C495 H485 0.930 . S
C495 C488 1.409 . S
C495 C494 1.362 . S
H496 C502 0.930 . S
H497 C505 0.930 . S
H498 C506 0.930 . S
H499 C507 0.930 . S
H500 C510 0.930 . S
H501 C511 0.930 . S
C502 H496 0.930 . S
C502 C503 1.355 . S
C502 C504 1.415 . S
C503 C502 1.355 . S
C503 C505 1.419 . S
C504 C502 1.415 . S
C504 C509 1.425 . S
C504 C511 1.409 . S
C505 H497 0.930 . S
C505 C503 1.419 . S
C505 C506 1.362 . S
C506 H498 0.930 . S
C506 C505 1.362 . S
C506 C509 1.409 . S
C507 H499 0.930 . S
C507 C508 1.355 . S
C507 C509 1.415 . S
C508 C507 1.355 . S
C508 C510 1.419 . S
C509 C504 1.425 . S
C509 C506 1.409 . S
C509 C507 1.415 . S
C510 H500 0.930 . S
C510 C508 1.419 . S
C510 C511 1.362 . S
C511 H501 0.930 . S
C511 C504 1.409 . S
C511 C510 1.362 . S
H512 C518 0.930 . S
H513 C521 0.930 . S
H514 C522 0.930 . S
H515 C523 0.930 . S
H516 C526 0.930 . S
H517 C527 0.930 . S
C518 H512 0.930 . S
C518 C519 1.355 . S
C518 C520 1.415 . S
C519 C518 1.355 . S
C519 C521 1.419 . S
C520 C518 1.415 . S
C520 C525 1.425 . S
C520 C527 1.409 . S
C521 H513 0.930 . S
C521 C519 1.419 . S
C521 C522 1.362 . S
C522 H514 0.930 . S
C522 C521 1.362 . S
C522 C525 1.409 . S
C523 H515 0.930 . S
C523 C524 1.355 . S
C523 C525 1.415 . S
C524 C523 1.355 . S
C524 C526 1.419 . S
C525 C520 1.425 . S
C525 C522 1.409 . S
C525 C523 1.415 . S
C526 H516 0.930 . S
C526 C524 1.419 . S
C526 C527 1.362 . S
C527 H517 0.930 . S
C527 C520 1.409 . S
C527 C526 1.362 . S
H528 C534 0.930 . S
H529 C537 0.930 . S
H530 C538 0.930 . S
H531 C539 0.930 . S
H532 C542 0.930 . S
H533 C543 0.930 . S
C534 H528 0.930 . S
C534 C535 1.355 . S
C534 C536 1.415 . S
C535 C534 1.355 . S
C535 C537 1.419 . S
C536 C534 1.415 . S
C536 C541 1.425 . S
C536 C543 1.409 . S
C537 H529 0.930 . S
C537 C535 1.419 . S
C537 C538 1.362 . S
C538 H530 0.930 . S
C538 C537 1.362 . S
C538 C541 1.409 . S
C539 H531 0.930 . S
C539 C540 1.355 . S
C539 C541 1.415 . S
C540 C539 1.355 . S
C540 C542 1.419 . S
C541 C536 1.425 . S
C541 C538 1.409 . S
C541 C539 1.415 . S
C542 H532 0.930 . S
C542 C540 1.419 . S
C542 C543 1.362 . S
C543 H533 0.930 . S
C543 C536 1.409 . S
C543 C542 1.362 . S
H544 C550 0.930 . S
H545 C553 0.930 . S
H546 C554 0.930 . S
H547 C555 0.930 . S
H548 C558 0.930 . S
H549 C559 0.930 . S
C550 H544 0.930 . S
C550 C551 1.355 . S
C550 C552 1.415 . S
C551 C550 1.355 . S
C551 C553 1.419 . S
C552 C550 1.415 . S
C552 C557 1.425 . S
C552 C559 1.409 . S
C553 H545 0.930 . S
C553 C551 1.419 . S
C553 C554 1.362 . S
C554 H546 0.930 . S
C554 C553 1.362 . S
C554 C557 1.409 . S
C555 H547 0.930 . S
C555 C556 1.355 . S
C555 C557 1.415 . S
C556 C555 1.355 . S
C556 C558 1.419 . S
C557 C552 1.425 . S
C557 C554 1.409 . S
C557 C555 1.415 . S
C558 H548 0.930 . S
C558 C556 1.419 . S
C558 C559 1.362 . S
C559 H549 0.930 . S
C559 C552 1.409 . S
C559 C558 1.362 . S
H560 C566 0.930 . S
H561 C569 0.930 . S
H562 C570 0.930 . S
H563 C571 0.930 . S
H564 C574 0.930 . S
H565 C575 0.930 . S
C566 H560 0.930 . S
C566 C567 1.355 . S
C566 C568 1.415 . S
C567 C566 1.355 . S
C567 C569 1.419 . S
C568 C566 1.415 . S
C568 C573 1.425 . S
C568 C575 1.409 . S
C569 H561 0.930 . S
C569 C567 1.419 . S
C569 C570 1.362 . S
C570 H562 0.930 . S
C570 C569 1.362 . S
C570 C573 1.409 . S
C571 H563 0.930 . S
C571 C572 1.355 . S
C571 C573 1.415 . S
C572 C571 1.355 . S
C572 C574 1.419 . S
C573 C568 1.425 . S
C573 C570 1.409 . S
C573 C571 1.415 . S
C574 H564 0.930 . S
C574 C572 1.419 . S
C574 C575 1.362 . S
C575 H565 0.930 . S
C575 C568 1.409 . S
C575 C574 1.362 . S
H576 C582 0.930 . S
H577 C585 0.930 . S
H578 C586 0.930 . S
H579 C587 0.930 . S
H580 C590 0.930 . S
H581 C591 0.930 . S
C582 H576 0.930 . S
C582 C583 1.355 . S
C582 C584 1.415 . S
C583 C582 1.355 . S
C583 C585 1.419 . S
C584 C582 1.415 . S
C584 C589 1.425 . S
C584 C591 1.409 . S
C585 H577 0.930 . S
C585 C583 1.419 . S
C585 C586 1.362 . S
C586 H578 0.930 . S
C586 C585 1.362 . S
C586 C589 1.409 . S
C587 H579 0.930 . S
C587 C588 1.355 . S
C587 C589 1.415 . S
C588 C587 1.355 . S
C588 C590 1.419 . S
C589 C584 1.425 . S
C589 C586 1.409 . S
C589 C587 1.415 . S
C590 H580 0.930 . S
C590 C588 1.419 . S
C590 C591 1.362 . S
C591 H581 0.930 . S
C591 C584 1.409 . S
C591 C590 1.362 . S
H592 C598 0.930 . S
H593 C601 0.930 . S
H594 C602 0.930 . S
H595 C603 0.930 . S
H596 C606 0.930 . S
H597 C607 0.930 . S
C598 H592 0.930 . S
C598 C599 1.355 . S
C598 C600 1.415 . S
C599 C598 1.355 . S
C599 C601 1.419 . S
C600 C598 1.415 . S
C600 C605 1.425 . S
C600 C607 1.409 . S
C601 H593 0.930 . S
C601 C599 1.419 . S
C601 C602 1.362 . S
C602 H594 0.930 . S
C602 C601 1.362 . S
C602 C605 1.409 . S
C603 H595 0.930 . S
C603 C604 1.355 . S
C603 C605 1.415 . S
C604 C603 1.355 . S
C604 C606 1.419 . S
C605 C600 1.425 . S
C605 C602 1.409 . S
C605 C603 1.415 . S
C606 H596 0.930 . S
C606 C604 1.419 . S
C606 C607 1.362 . S
C607 H597 0.930 . S
C607 C600 1.409 . S
C607 C606 1.362 . S
H608 C614 0.930 . S
H609 C617 0.930 . S
H610 C618 0.930 . S
H611 C619 0.930 . S
H612 C622 0.930 . S
H613 C623 0.930 . S
C614 H608 0.930 . S
C614 C615 1.355 . S
C614 C616 1.415 . S
C615 C614 1.355 . S
C615 C617 1.419 . S
C616 C614 1.415 . S
C616 C621 1.425 . S
C616 C623 1.409 . S
C617 H609 0.930 . S
C617 C615 1.419 . S
C617 C618 1.362 . S
C618 H610 0.930 . S
C618 C617 1.362 . S
C618 C621 1.409 . S
C619 H611 0.930 . S
C619 C620 1.355 . S
C619 C621 1.415 . S
C620 C619 1.355 . S
C620 C622 1.419 . S
C621 C616 1.425 . S
C621 C618 1.409 . S
C621 C619 1.415 . S
C622 H612 0.930 . S
C622 C620 1.419 . S
C622 C623 1.362 . S
C623 H613 0.930 . S
C623 C616 1.409 . S
C623 C622 1.362 . S
H624 C630 0.930 . S
H625 C633 0.930 . S
H626 C634 0.930 . S
H627 C635 0.930 . S
H628 C638 0.930 . S
H629 C639 0.930 . S
C630 H624 0.930 . S
C630 C631 1.355 . S
C630 C632 1.415 . S
C631 C630 1.355 . S
C631 C633 1.419 . S
C632 C630 1.415 . S
C632 C637 1.425 . S
C632 C639 1.409 . S
C633 H625 0.930 . S
C633 C631 1.419 . S
C633 C634 1.362 . S
C634 H626 0.930 . S
C634 C633 1.362 . S
C634 C637 1.409 . S
C635 H627 0.930 . S
C635 C636 1.355 . S
C635 C637 1.415 . S
C636 C635 1.355 . S
C636 C638 1.419 . S
C637 C632 1.425 . S
C637 C634 1.409 . S
C637 C635 1.415 . S
C638 H628 0.930 . S
C638 C636 1.419 . S
C638 C639 1.362 . S
C639 H629 0.930 . S
C639 C632 1.409 . S
C639 C638 1.362 . S
H640 C646 0.930 . S
H641 C649 0.930 . S
H642 C650 0.930 . S
H643 C651 0.930 . S
H644 C654 0.930 . S
H645 C655 0.930 . S
C646 H640 0.930 . S
C646 C647 1.355 . S
C646 C648 1.415 . S
C647 C646 1.355 . S
C647 C649 1.419 . S
C648 C646 1.415 . S
C648 C653 1.425 . S
C648 C655 1.409 . S
C649 H641 0.930 . S
C649 C647 1.419 . S
C649 C650 1.362 . S
C650 H642 0.930 . S
C650 C649 1.362 . S
C650 C653 1.409 . S
C651 H643 0.930 . S
C651 C652 1.355 . S
C651 C653 1.415 . S
C652 C651 1.355 . S
C652 C654 1.419 . S
C653 C648 1.425 . S
C653 C650 1.409 . S
C653 C651 1.415 . S
C654 H644 0.930 . S
C654 C652 1.419 . S
C654 C655 1.362 . S
C655 H645 0.930 . S
C655 C648 1.409 . S
C655 C654 1.362 . S
H656 C662 0.930 . S
H657 C665 0.930 . S
H658 C666 0.930 . S
H659 C667 0.930 . S
H660 C670 0.930 . S
H661 C671 0.930 . S
C662 H656 0.930 . S
C662 C663 1.355 . S
C662 C664 1.415 . S
C663 C662 1.355 . S
C663 C665 1.419 . S
C664 C662 1.415 . S
C664 C669 1.425 . S
C664 C671 1.409 . S
C665 H657 0.930 . S
C665 C663 1.419 . S
C665 C666 1.362 . S
C666 H658 0.930 . S
C666 C665 1.362 . S
C666 C669 1.409 . S
C667 H659 0.930 . S
C667 C668 1.355 . S
C667 C669 1.415 . S
C668 C667 1.355 . S
C668 C670 1.419 . S
C669 C664 1.425 . S
C669 C666 1.409 . S
C669 C667 1.415 . S
C670 H660 0.930 . S
C670 C668 1.419 . S
C670 C671 1.362 . S
C671 H661 0.930 . S
C671 C664 1.409 . S
C671 C670 1.362 . S
H672 C678 0.930 . S
H673 C681 0.930 . S
H674 C682 0.930 . S
H675 C683 0.930 . S
H676 C686 0.930 . S
H677 C687 0.930 . S
C678 H672 0.930 . S
C678 C679 1.355 . S
C678 C680 1.415 . S
C679 C678 1.355 . S
C679 C681 1.419 . S
C680 C678 1.415 . S
C680 C685 1.425 1_565 S
C680 C687 1.409 . S
C681 H673 0.930 . S
C681 C679 1.419 . S
C681 C682 1.362 1_565 S
C682 H674 0.930 . S
C682 C681 1.362 1_545 S
C682 C685 1.409 . S
C683 H675 0.930 . S
C683 C684 1.355 . S
C683 C685 1.415 . S
C684 C683 1.355 . S
C684 C686 1.419 . S
C685 C680 1.425 1_545 S
C685 C682 1.409 . S
C685 C683 1.415 . S
C686 H676 0.930 . S
C686 C684 1.419 . S
C686 C687 1.362 1_545 S
C687 H677 0.930 . S
C687 C680 1.409 . S
C687 C686 1.362 1_565 S
H688 C694 0.930 . S
H689 C697 0.930 . S
H690 C698 0.930 . S
H691 C699 0.930 . S
H692 C702 0.930 . S
H693 C703 0.930 . S
C694 H688 0.930 . S
C694 C695 1.355 1_455 S
C694 C696 1.415 . S
C695 C694 1.355 1_655 S
C695 C697 1.419 . S
C696 C694 1.415 . S
C696 C701 1.425 1_455 S
C696 C703 1.409 . S
C697 H689 0.930 . S
C697 C695 1.419 . S
C697 C698 1.362 . S
C698 H690 0.930 . S
C698 C697 1.362 . S
C698 C701 1.409 . S
C699 H691 0.930 . S
C699 C700 1.355 1_655 S
C699 C701 1.415 . S
C700 C699 1.355 1_455 S
C700 C702 1.419 . S
C701 C696 1.425 1_655 S
C701 C698 1.409 . S
C701 C699 1.415 . S
C702 H692 0.930 . S
C702 C700 1.419 . S
C702 C703 1.362 . S
C703 H693 0.930 . S
C703 C696 1.409 . S
C703 C702 1.362 . S
H704 C710 0.930 . S
H705 C713 0.930 . S
H706 C714 0.930 . S
H707 C715 0.930 . S
H708 C718 0.930 . S
H709 C719 0.930 . S
C710 H704 0.930 . S
C710 C711 1.355 . S
C710 C712 1.415 . S
C711 C710 1.355 . S
C711 C713 1.419 . S
C712 C710 1.415 . S
C712 C717 1.425 1_556 S
C712 C719 1.409 . S
C713 H705 0.930 . S
C713 C711 1.419 . S
C713 C714 1.362 1_556 S
C714 H706 0.930 . S
C714 C713 1.362 1_554 S
C714 C717 1.409 . S
C715 H707 0.930 . S
C715 C716 1.355 . S
C715 C717 1.415 . S
C716 C715 1.355 . S
C716 C718 1.419 . S
C717 C712 1.425 1_554 S
C717 C714 1.409 . S
C717 C715 1.415 . S
C718 H708 0.930 . S
C718 C716 1.419 . S
C718 C719 1.362 1_554 S
C719 H709 0.930 . S
C719 C712 1.409 . S
C719 C718 1.362 1_556 S
H720 C726 0.930 . S
H721 C729 0.930 . S
H722 C730 0.899 1_565 S
H723 C731 0.930 . S
H724 C734 0.930 . S
H725 C735 0.899 1_545 S
C726 H720 0.930 . S
C726 C727 1.355 1_554 S
C726 C728 1.415 . S
C727 C726 1.355 1_556 S
C727 C729 1.419 . S
C728 C726 1.415 . S
C728 C733 1.425 1_444 S
C728 C735 1.391 1_545 S
C729 H721 0.930 . S
C729 C727 1.419 . S
C729 C730 1.414 1_455 S
C730 H722 0.899 1_545 S
C730 C729 1.414 1_655 S
C730 C733 1.391 1_545 S
C731 H723 0.930 . S
C731 C732 1.355 1_556 S
C731 C733 1.415 . S
C732 C731 1.355 1_554 S
C732 C734 1.419 . S
C733 C728 1.425 1_666 S
C733 C730 1.391 1_565 S
C733 C731 1.415 . S
C734 H724 0.930 . S
C734 C732 1.419 . S
C734 C735 1.414 1_655 S
C735 H725 0.899 1_565 S
C735 C728 1.391 1_565 S
C735 C734 1.414 1_455 S
H736 C742 0.930 . S
H737 C745 0.930 . S
H738 C746 0.930 . S
H739 C747 0.930 . S
H740 C750 0.930 . S
H741 C751 0.930 . S
C742 H736 0.930 . S
C742 C743 1.355 . S
C742 C744 1.415 . S
C743 C742 1.355 . S
C743 C745 1.419 . S
C744 C742 1.415 . S
C744 C749 1.425 1_545 S
C744 C751 1.409 . S
C745 H737 0.930 . S
C745 C743 1.419 . S
C745 C746 1.362 1_545 S
C746 H738 0.930 . S
C746 C745 1.362 1_565 S
C746 C749 1.409 . S
C747 H739 0.930 . S
C747 C748 1.355 . S
C747 C749 1.415 . S
C748 C747 1.355 . S
C748 C750 1.419 . S
C749 C744 1.425 1_565 S
C749 C746 1.409 . S
C749 C747 1.415 . S
C750 H740 0.930 . S
C750 C748 1.419 . S
C750 C751 1.362 1_565 S
C751 H741 0.930 . S
C751 C744 1.409 . S
C751 C750 1.362 1_545 S
H752 C758 0.930 . S
H753 C761 0.930 . S
H754 C762 0.930 . S
H755 C763 0.930 . S
H756 C766 0.930 . S
H757 C767 0.930 . S
C758 H752 0.930 . S
C758 C759 1.355 . S
C758 C760 1.415 . S
C759 C758 1.355 . S
C759 C761 1.419 . S
C760 C758 1.415 . S
C760 C765 1.425 1_455 S
C760 C767 1.409 . S
C761 H753 0.930 . S
C761 C759 1.419 . S
C761 C762 1.362 1_455 S
C762 H754 0.930 . S
C762 C761 1.362 1_655 S
C762 C765 1.409 . S
C763 H755 0.930 . S
C763 C764 1.355 . S
C763 C765 1.415 . S
C764 C763 1.355 . S
C764 C766 1.419 . S
C765 C760 1.425 1_655 S
C765 C762 1.409 . S
C765 C763 1.415 . S
C766 H756 0.930 . S
C766 C764 1.419 . S
C766 C767 1.362 1_655 S
C767 H757 0.930 . S
C767 C760 1.409 . S
C767 C766 1.362 1_455 S
H768 C774 0.930 . S
H769 C777 0.930 . S
H770 C778 0.930 . S
H771 C779 0.930 . S
H772 C782 0.930 . S
H773 C783 0.930 . S
C774 H768 0.930 . S
C774 C775 1.355 . S
C774 C776 1.415 . S
C775 C774 1.355 . S
C775 C777 1.419 1_556 S
C776 C774 1.415 . S
C776 C781 1.425 1_556 S
C776 C783 1.409 . S
C777 H769 0.930 . S
C777 C775 1.419 1_554 S
C777 C778 1.362 . S
C778 H770 0.930 . S
C778 C777 1.362 . S
C778 C781 1.409 . S
C779 H771 0.930 . S
C779 C780 1.355 . S
C779 C781 1.415 . S
C780 C779 1.355 . S
C780 C782 1.419 1_554 S
C781 C776 1.425 1_554 S
C781 C778 1.409 . S
C781 C779 1.415 . S
C782 H772 0.930 . S
C782 C780 1.419 1_556 S
C782 C783 1.362 . S
C783 H773 0.930 . S
C783 C776 1.409 . S
C783 C782 1.362 . S
H784 C790 0.930 . S
H785 C793 0.930 . S
H786 C794 0.930 . S
H787 C795 0.930 . S
H788 C798 0.930 . S
H789 C799 0.930 . S
C790 H784 0.930 . S
C790 C791 1.355 . S
C790 C792 1.415 . S
C791 C790 1.355 . S
C791 C793 1.419 . S
C792 C790 1.415 . S
C792 C797 1.425 . S
C792 C799 1.409 . S
C793 H785 0.930 . S
C793 C791 1.419 . S
C793 C794 1.362 . S
C794 H786 0.930 . S
C794 C793 1.362 . S
C794 C797 1.409 . S
C795 H787 0.930 . S
C795 C796 1.355 . S
C795 C797 1.415 . S
C796 C795 1.355 . S
C796 C798 1.419 . S
C797 C792 1.425 . S
C797 C794 1.409 . S
C797 C795 1.415 . S
C798 H788 0.930 . S
C798 C796 1.419 . S
C798 C799 1.362 . S
C799 H789 0.930 . S
C799 C792 1.409 . S
C799 C798 1.362 . S
H800 C806 0.930 . S
H801 C809 0.930 . S
H802 C810 0.930 . S
H803 C811 0.930 . S
H804 C814 0.930 . S
H805 C815 0.930 . S
C806 H800 0.930 . S
C806 C807 1.355 . S
C806 C808 1.415 . S
C807 C806 1.355 . S
C807 C809 1.419 . S
C808 C806 1.415 . S
C808 C813 1.425 . S
C808 C815 1.409 . S
C809 H801 0.930 . S
C809 C807 1.419 . S
C809 C810 1.362 . S
C810 H802 0.930 . S
C810 C809 1.362 . S
C810 C813 1.409 . S
C811 H803 0.930 . S
C811 C812 1.355 . S
C811 C813 1.415 . S
C812 C811 1.355 . S
C812 C814 1.419 . S
C813 C808 1.425 . S
C813 C810 1.409 . S
C813 C811 1.415 . S
C814 H804 0.930 . S
C814 C812 1.419 . S
C814 C815 1.362 . S
C815 H805 0.930 . S
C815 C808 1.409 . S
C815 C814 1.362 . S
H816 C822 0.930 . S
H817 C825 0.930 . S
H818 C826 0.930 . S
H819 C827 0.930 . S
H820 C830 0.930 . S
H821 C831 0.930 . S
C822 H816 0.930 . S
C822 C823 1.355 . S
C822 C824 1.415 . S
C823 C822 1.355 . S
C823 C825 1.419 1_655 S
C824 C822 1.415 . S
C824 C829 1.425 1_655 S
C824 C831 1.409 . S
C825 H817 0.930 . S
C825 C823 1.419 1_455 S
C825 C826 1.362 . S
C826 H818 0.930 . S
C826 C825 1.362 . S
C826 C829 1.409 . S
C827 H819 0.930 . S
C827 C828 1.355 . S
C827 C829 1.415 . S
C828 C827 1.355 . S
C828 C830 1.419 1_455 S
C829 C824 1.425 1_455 S
C829 C826 1.409 . S
C829 C827 1.415 . S
C830 H820 0.930 . S
C830 C828 1.419 1_655 S
C830 C831 1.362 . S
C831 H821 0.930 . S
C831 C824 1.409 . S
C831 C830 1.362 . S
H832 C838 0.930 . S
H833 C841 0.930 . S
H834 C842 0.930 . S
H835 C843 0.930 . S
H836 C846 0.930 . S
H837 C847 0.930 . S
C838 H832 0.930 . S
C838 C839 1.355 . S
C838 C840 1.415 . S
C839 C838 1.355 . S
C839 C841 1.419 . S
C840 C838 1.415 . S
C840 C845 1.425 . S
C840 C847 1.409 . S
C841 H833 0.930 . S
C841 C839 1.419 . S
C841 C842 1.362 . S
C842 H834 0.930 . S
C842 C841 1.362 . S
C842 C845 1.409 . S
C843 H835 0.930 . S
C843 C844 1.355 . S
C843 C845 1.415 . S
C844 C843 1.355 . S
C844 C846 1.419 . S
C845 C840 1.425 . S
C845 C842 1.409 . S
C845 C843 1.415 . S
C846 H836 0.930 . S
C846 C844 1.419 . S
C846 C847 1.362 . S
C847 H837 0.930 . S
C847 C840 1.409 . S
C847 C846 1.362 . S
H848 C854 0.930 . S
H849 C857 0.930 . S
H850 C858 0.930 . S
H851 C859 0.930 . S
H852 C862 0.930 . S
H853 C863 0.930 . S
C854 H848 0.930 . S
C854 C855 1.355 . S
C854 C856 1.415 . S
C855 C854 1.355 . S
C855 C857 1.419 . S
C856 C854 1.415 . S
C856 C861 1.425 . S
C856 C863 1.409 . S
C857 H849 0.930 . S
C857 C855 1.419 . S
C857 C858 1.362 . S
C858 H850 0.930 . S
C858 C857 1.362 . S
C858 C861 1.409 . S
C859 H851 0.930 . S
C859 C860 1.355 . S
C859 C861 1.415 . S
C860 C859 1.355 . S
C860 C862 1.419 . S
C861 C856 1.425 . S
C861 C858 1.409 . S
C861 C859 1.415 . S
C862 H852 0.930 . S
C862 C860 1.419 . S
C862 C863 1.362 . S
C863 H853 0.930 . S
C863 C856 1.409 . S
C863 C862 1.362 . S
H864 C870 0.930 . S
H865 C873 0.930 . S
H866 C874 0.930 . S
H867 C875 0.930 . S
H868 C878 0.930 . S
H869 C879 0.930 . S
C870 H864 0.930 . S
C870 C871 1.355 . S
C870 C872 1.415 . S
C871 C870 1.355 . S
C871 C873 1.419 . S
C872 C870 1.415 . S
C872 C877 1.425 . S
C872 C879 1.409 . S
C873 H865 0.930 . S
C873 C871 1.419 . S
C873 C874 1.362 . S
C874 H866 0.930 . S
C874 C873 1.362 . S
C874 C877 1.409 . S
C875 H867 0.930 . S
C875 C876 1.355 . S
C875 C877 1.415 . S
C876 C875 1.355 . S
C876 C878 1.419 . S
C877 C872 1.425 . S
C877 C874 1.409 . S
C877 C875 1.415 . S
C878 H868 0.930 . S
C878 C876 1.419 . S
C878 C879 1.362 . S
C879 H869 0.930 . S
C879 C872 1.409 . S
C879 C878 1.362 . S
H880 C886 0.930 . S
H881 C889 0.930 . S
H882 C890 0.930 . S
H883 C891 0.930 . S
H884 C894 0.930 . S
H885 C895 0.930 . S
C886 H880 0.930 . S
C886 C887 1.355 . S
C886 C888 1.415 . S
C887 C886 1.355 . S
C887 C889 1.419 . S
C888 C886 1.415 . S
C888 C893 1.425 1_545 S
C888 C895 1.409 1_545 S
C889 H881 0.930 . S
C889 C887 1.419 . S
C889 C890 1.362 . S
C890 H882 0.930 . S
C890 C889 1.362 . S
C890 C893 1.409 1_545 S
C891 H883 0.930 . S
C891 C892 1.355 . S
C891 C893 1.415 . S
C892 C891 1.355 . S
C892 C894 1.419 . S
C893 C888 1.425 1_565 S
C893 C890 1.409 1_565 S
C893 C891 1.415 . S
C894 H884 0.930 . S
C894 C892 1.419 . S
C894 C895 1.362 . S
C895 H885 0.930 . S
C895 C888 1.409 1_565 S
C895 C894 1.362 . S
H896 C902 0.930 . S
H897 C905 0.930 . S
H898 C906 0.930 . S
H899 C907 0.930 . S
H900 C910 0.930 . S
H901 C911 0.930 . S
C902 H896 0.930 . S
C902 C903 1.355 . S
C902 C904 1.415 . S
C903 C902 1.355 . S
C903 C905 1.419 . S
C904 C902 1.415 . S
C904 C909 1.425 . S
C904 C911 1.409 . S
C905 H897 0.930 . S
C905 C903 1.419 . S
C905 C906 1.362 . S
C906 H898 0.930 . S
C906 C905 1.362 . S
C906 C909 1.409 . S
C907 H899 0.930 . S
C907 C908 1.355 . S
C907 C909 1.415 . S
C908 C907 1.355 . S
C908 C910 1.419 . S
C909 C904 1.425 . S
C909 C906 1.409 . S
C909 C907 1.415 . S
C910 H900 0.930 . S
C910 C908 1.419 . S
C910 C911 1.362 . S
C911 H901 0.930 . S
C911 C904 1.409 . S
C911 C910 1.362 . S
H912 C918 0.930 . S
H913 C921 0.930 1_556 S
H914 C922 0.930 . S
H915 C923 0.930 . S
H916 C926 0.930 1_554 S
H917 C927 0.930 . S
C918 H912 0.930 . S
C918 C919 1.355 . S
C918 C920 1.415 . S
C919 C918 1.355 . S
C919 C921 1.419 . S
C920 C918 1.415 . S
C920 C925 1.425 1_554 S
C920 C927 1.409 . S
C921 H913 0.930 1_554 S
C921 C919 1.419 . S
C921 C922 1.362 1_554 S
C922 H914 0.930 . S
C922 C921 1.362 1_556 S
C922 C925 1.409 . S
C923 H915 0.930 . S
C923 C924 1.355 . S
C923 C925 1.415 . S
C924 C923 1.355 . S
C924 C926 1.419 . S
C925 C920 1.425 1_556 S
C925 C922 1.409 . S
C925 C923 1.415 . S
C926 H916 0.930 1_556 S
C926 C924 1.419 . S
C926 C927 1.362 1_556 S
C927 H917 0.930 . S
C927 C920 1.409 . S
C927 C926 1.362 1_554 S
H928 C934 0.930 . S
H929 C937 0.930 . S
H930 C938 0.930 . S
H931 C939 0.930 . S
H932 C942 0.930 . S
H933 C943 0.930 . S
C934 H928 0.930 . S
C934 C935 1.355 . S
C934 C936 1.415 . S
C935 C934 1.355 . S
C935 C937 1.419 . S
C936 C934 1.415 . S
C936 C941 1.425 . S
C936 C943 1.409 . S
C937 H929 0.930 . S
C937 C935 1.419 . S
C937 C938 1.362 . S
C938 H930 0.930 . S
C938 C937 1.362 . S
C938 C941 1.409 . S
C939 H931 0.930 . S
C939 C940 1.355 . S
C939 C941 1.415 . S
C940 C939 1.355 . S
C940 C942 1.419 . S
C941 C936 1.425 . S
C941 C938 1.409 . S
C941 C939 1.415 . S
C942 H932 0.930 . S
C942 C940 1.419 . S
C942 C943 1.362 . S
C943 H933 0.930 . S
C943 C936 1.409 . S
C943 C942 1.362 . S
H944 C950 0.930 . S
H945 C953 0.930 . S
H946 C954 0.930 . S
H947 C955 0.930 . S
H948 C958 0.930 . S
H949 C959 0.930 . S
C950 H944 0.930 . S
C950 C951 1.355 . S
C950 C952 1.415 . S
C951 C950 1.355 . S
C951 C953 1.419 . S
C952 C950 1.415 . S
C952 C957 1.425 . S
C952 C959 1.409 . S
C953 H945 0.930 . S
C953 C951 1.419 . S
C953 C954 1.362 . S
C954 H946 0.930 . S
C954 C953 1.362 . S
C954 C957 1.409 . S
C955 H947 0.930 . S
C955 C956 1.355 . S
C955 C957 1.415 . S
C956 C955 1.355 . S
C956 C958 1.419 . S
C957 C952 1.425 . S
C957 C954 1.409 . S
C957 C955 1.415 . S
C958 H948 0.930 . S
C958 C956 1.419 . S
C958 C959 1.362 . S
C959 H949 0.930 . S
C959 C952 1.409 . S
C959 C958 1.362 . S
H960 C966 0.930 . S
H961 C969 0.930 . S
H962 C970 0.930 . S
H963 C971 0.930 . S
H964 C974 0.930 . S
H965 C975 0.930 . S
C966 H960 0.930 . S
C966 C967 1.355 . S
C966 C968 1.415 . S
C967 C966 1.355 . S
C967 C969 1.419 . S
C968 C966 1.415 . S
C968 C973 1.425 . S
C968 C975 1.409 . S
C969 H961 0.930 . S
C969 C967 1.419 . S
C969 C970 1.362 . S
C970 H962 0.930 . S
C970 C969 1.362 . S
C970 C973 1.409 . S
C971 H963 0.930 . S
C971 C972 1.355 . S
C971 C973 1.415 . S
C972 C971 1.355 . S
C972 C974 1.419 . S
C973 C968 1.425 . S
C973 C970 1.409 . S
C973 C971 1.415 . S
C974 H964 0.930 . S
C974 C972 1.419 . S
C974 C975 1.362 . S
C975 H965 0.930 . S
C975 C968 1.409 . S
C975 C974 1.362 . S
H976 C982 0.930 1_556 S
H977 C985 0.930 . S
H978 C986 0.930 . S
H979 C987 0.930 . S
H980 C990 0.930 . S
H981 C991 0.930 . S
C982 H976 0.930 1_554 S
C982 C983 1.355 . S
C982 C984 1.415 . S
C983 C982 1.355 . S
C983 C985 1.419 . S
C984 C982 1.415 . S
C984 C989 1.425 . S
C984 C991 1.409 1_554 S
C985 H977 0.930 . S
C985 C983 1.419 . S
C985 C986 1.362 . S
C986 H978 0.930 . S
C986 C985 1.362 . S
C986 C989 1.409 . S
C987 H979 0.930 . S
C987 C988 1.355 . S
C987 C989 1.415 . S
C988 C987 1.355 . S
C988 C990 1.419 1_554 S
C989 C984 1.425 . S
C989 C986 1.409 . S
C989 C987 1.415 . S
C990 H980 0.930 . S
C990 C988 1.419 1_556 S
C990 C991 1.362 . S
C991 H981 0.930 . S
C991 C984 1.409 1_556 S
C991 C990 1.362 . S
H992 C998 0.930 . S
H993 C1001 0.930 . S
H994 C1002 0.930 . S
H995 C1003 0.930 . S
H996 C1006 0.930 . S
H997 C1007 0.930 . S
C998 H992 0.930 . S
C998 C999 1.355 . S
C998 C1000 1.415 . S
C999 C998 1.355 . S
C999 C1001 1.419 . S
C1000 C998 1.415 . S
C1000 C1005 1.425 . S
C1000 C1007 1.409 . S
C1001 H993 0.930 . S
C1001 C999 1.419 . S
C1001 C1002 1.362 . S
C1002 H994 0.930 . S
C1002 C1001 1.362 . S
C1002 C1005 1.409 . S
C1003 H995 0.930 . S
C1003 C1004 1.355 . S
C1003 C1005 1.415 . S
C1004 C1003 1.355 . S
C1004 C1006 1.419 . S
C1005 C1000 1.425 . S
C1005 C1002 1.409 . S
C1005 C1003 1.415 . S
C1006 H996 0.930 . S
C1006 C1004 1.419 . S
C1006 C1007 1.362 . S
C1007 H997 0.930 . S
C1007 C1000 1.409 . S
C1007 C1006 1.362 . S
H1008 C1014 0.930 . S
H1009 C1017 0.930 . S
H1010 C1018 0.930 . S
H1011 C1019 0.930 . S
H1012 C1022 0.930 . S
H1013 C1023 0.930 . S
C1014 H1008 0.930 . S
C1014 C1015 1.355 . S
C1014 C1016 1.415 . S
C1015 C1014 1.355 . S
C1015 C1017 1.419 . S
C1016 C1014 1.415 . S
C1016 C1021 1.425 . S
C1016 C1023 1.409 . S
C1017 H1009 0.930 . S
C1017 C1015 1.419 . S
C1017 C1018 1.362 . S
C1018 H1010 0.930 . S
C1018 C1017 1.362 . S
C1018 C1021 1.409 . S
C1019 H1011 0.930 . S
C1019 C1020 1.355 . S
C1019 C1021 1.415 . S
C1020 C1019 1.355 . S
C1020 C1022 1.419 . S
C1021 C1016 1.425 . S
C1021 C1018 1.409 . S
C1021 C1019 1.415 . S
C1022 H1012 0.930 . S
C1022 C1020 1.419 . S
C1022 C1023 1.362 . S
C1023 H1013 0.930 . S
C1023 C1016 1.409 . S
C1023 C1022 1.362 . S
H1024 C1030 0.930 . S
H1025 C1033 0.930 . S
H1026 C1034 0.930 . S
H1027 C1035 0.930 . S
H1028 C1038 0.930 . S
H1029 C1039 0.930 . S
C1030 H1024 0.930 . S
C1030 C1031 1.355 . S
C1030 C1032 1.415 . S
C1031 C1030 1.355 . S
C1031 C1033 1.419 . S
C1032 C1030 1.415 . S
C1032 C1037 1.425 . S
C1032 C1039 1.409 . S
C1033 H1025 0.930 . S
C1033 C1031 1.419 . S
C1033 C1034 1.362 . S
C1034 H1026 0.930 . S
C1034 C1033 1.362 . S
C1034 C1037 1.409 . S
C1035 H1027 0.930 . S
C1035 C1036 1.355 . S
C1035 C1037 1.415 . S
C1036 C1035 1.355 . S
C1036 C1038 1.419 . S
C1037 C1032 1.425 . S
C1037 C1034 1.409 . S
C1037 C1035 1.415 . S
C1038 H1028 0.930 . S
C1038 C1036 1.419 . S
C1038 C1039 1.362 . S
C1039 H1029 0.930 . S
C1039 C1032 1.409 . S
C1039 C1038 1.362 . S
H1040 C1046 0.930 . S
H1041 C1049 0.930 . S
H1042 C1050 0.930 . S
H1043 C1051 0.930 . S
H1044 C1054 0.930 . S
H1045 C1055 0.930 . S
C1046 H1040 0.930 . S
C1046 C1047 1.355 . S
C1046 C1048 1.415 . S
C1047 C1046 1.355 . S
C1047 C1049 1.419 . S
C1048 C1046 1.415 . S
C1048 C1053 1.425 . S
C1048 C1055 1.409 . S
C1049 H1041 0.930 . S
C1049 C1047 1.419 . S
C1049 C1050 1.362 . S
C1050 H1042 0.930 . S
C1050 C1049 1.362 . S
C1050 C1053 1.409 . S
C1051 H1043 0.930 . S
C1051 C1052 1.355 . S
C1051 C1053 1.415 . S
C1052 C1051 1.355 . S
C1052 C1054 1.419 . S
C1053 C1048 1.425 . S
C1053 C1050 1.409 . S
C1053 C1051 1.415 . S
C1054 H1044 0.930 . S
C1054 C1052 1.419 . S
C1054 C1055 1.362 . S
C1055 H1045 0.930 . S
C1055 C1048 1.409 . S
C1055 C1054 1.362 . S
H1056 C1062 0.930 . S
H1057 C1065 0.930 . S
H1058 C1066 0.930 . S
H1059 C1067 0.930 . S
H1060 C1070 0.930 . S
H1061 C1071 0.930 . S
C1062 H1056 0.930 . S
C1062 C1063 1.355 . S
C1062 C1064 1.415 . S
C1063 C1062 1.355 . S
C1063 C1065 1.419 . S
C1064 C1062 1.415 . S
C1064 C1069 1.425 . S
C1064 C1071 1.409 . S
C1065 H1057 0.930 . S
C1065 C1063 1.419 . S
C1065 C1066 1.362 . S
C1066 H1058 0.930 . S
C1066 C1065 1.362 . S
C1066 C1069 1.409 . S
C1067 H1059 0.930 . S
C1067 C1068 1.355 . S
C1067 C1069 1.415 . S
C1068 C1067 1.355 . S
C1068 C1070 1.419 . S
C1069 C1064 1.425 . S
C1069 C1066 1.409 . S
C1069 C1067 1.415 . S
C1070 H1060 0.930 . S
C1070 C1068 1.419 . S
C1070 C1071 1.362 . S
C1071 H1061 0.930 . S
C1071 C1064 1.409 . S
C1071 C1070 1.362 . S
H1072 C1078 0.930 . S
H1073 C1081 0.930 . S
H1074 C1082 0.930 . S
H1075 C1083 0.930 . S
H1076 C1086 0.930 . S
H1077 C1087 0.930 . S
C1078 H1072 0.930 . S
C1078 C1079 1.355 . S
C1078 C1080 1.415 . S
C1079 C1078 1.355 . S
C1079 C1081 1.419 . S
C1080 C1078 1.415 . S
C1080 C1085 1.425 . S
C1080 C1087 1.409 . S
C1081 H1073 0.930 . S
C1081 C1079 1.419 . S
C1081 C1082 1.362 . S
C1082 H1074 0.930 . S
C1082 C1081 1.362 . S
C1082 C1085 1.409 . S
C1083 H1075 0.930 . S
C1083 C1084 1.355 . S
C1083 C1085 1.415 . S
C1084 C1083 1.355 . S
C1084 C1086 1.419 . S
C1085 C1080 1.425 . S
C1085 C1082 1.409 . S
C1085 C1083 1.415 . S
C1086 H1076 0.930 . S
C1086 C1084 1.419 . S
C1086 C1087 1.362 . S
C1087 H1077 0.930 . S
C1087 C1080 1.409 . S
C1087 C1086 1.362 . S
H1088 C1094 0.930 . S
H1089 C1097 0.930 . S
H1090 C1098 0.930 . S
H1091 C1099 0.930 . S
H1092 C1102 0.930 . S
H1093 C1103 0.930 . S
C1094 H1088 0.930 . S
C1094 C1095 1.355 . S
C1094 C1096 1.415 . S
C1095 C1094 1.355 . S
C1095 C1097 1.419 . S
C1096 C1094 1.415 . S
C1096 C1101 1.425 . S
C1096 C1103 1.409 . S
C1097 H1089 0.930 . S
C1097 C1095 1.419 . S
C1097 C1098 1.362 . S
C1098 H1090 0.930 . S
C1098 C1097 1.362 . S
C1098 C1101 1.409 . S
C1099 H1091 0.930 . S
C1099 C1100 1.355 . S
C1099 C1101 1.415 . S
C1100 C1099 1.355 . S
C1100 C1102 1.419 . S
C1101 C1096 1.425 . S
C1101 C1098 1.409 . S
C1101 C1099 1.415 . S
C1102 H1092 0.930 . S
C1102 C1100 1.419 . S
C1102 C1103 1.362 . S
C1103 H1093 0.930 . S
C1103 C1096 1.409 . S
C1103 C1102 1.362 . S
H1104 C1110 0.930 . S
H1105 C1113 0.930 . S
H1106 C1114 0.930 . S
H1107 C1115 0.930 . S
H1108 C1118 0.930 . S
H1109 C1119 0.930 . S
C1110 H1104 0.930 . S
C1110 C1111 1.355 . S
C1110 C1112 1.415 . S
C1111 C1110 1.355 . S
C1111 C1113 1.419 . S
C1112 C1110 1.415 . S
C1112 C1117 1.425 . S
C1112 C1119 1.409 . S
C1113 H1105 0.930 . S
C1113 C1111 1.419 . S
C1113 C1114 1.362 . S
C1114 H1106 0.930 . S
C1114 C1113 1.362 . S
C1114 C1117 1.409 . S
C1115 H1107 0.930 . S
C1115 C1116 1.355 . S
C1115 C1117 1.415 . S
C1116 C1115 1.355 . S
C1116 C1118 1.419 . S
C1117 C1112 1.425 . S
C1117 C1114 1.409 . S
C1117 C1115 1.415 . S
C1118 H1108 0.930 . S
C1118 C1116 1.419 . S
C1118 C1119 1.362 . S
C1119 H1109 0.930 . S
C1119 C1112 1.409 . S
C1119 C1118 1.362 . S
H1120 C1126 0.930 . S
H1121 C1129 0.930 . S
H1122 C1130 0.930 . S
H1123 C1131 0.930 . S
H1124 C1134 0.930 . S
H1125 C1135 0.930 . S
C1126 H1120 0.930 . S
C1126 C1127 1.355 . S
C1126 C1128 1.415 . S
C1127 C1126 1.355 . S
C1127 C1129 1.419 . S
C1128 C1126 1.415 . S
C1128 C1133 1.425 . S
C1128 C1135 1.409 . S
C1129 H1121 0.930 . S
C1129 C1127 1.419 . S
C1129 C1130 1.362 . S
C1130 H1122 0.930 . S
C1130 C1129 1.362 . S
C1130 C1133 1.409 . S
C1131 H1123 0.930 . S
C1131 C1132 1.355 . S
C1131 C1133 1.415 . S
C1132 C1131 1.355 . S
C1132 C1134 1.419 . S
C1133 C1128 1.425 . S
C1133 C1130 1.409 . S
C1133 C1131 1.415 . S
C1134 H1124 0.930 . S
C1134 C1132 1.419 . S
C1134 C1135 1.362 . S
C1135 H1125 0.930 . S
C1135 C1128 1.409 . S
C1135 C1134 1.362 . S
H1136 C1142 0.930 . S
H1137 C1145 0.930 . S
H1138 C1146 0.930 . S
H1139 C1147 0.930 . S
H1140 C1150 0.930 1_554 S
H1141 C1151 0.930 1_554 S
C1142 H1136 0.930 . S
C1142 C1143 1.355 . S
C1142 C1144 1.415 . S
C1143 C1142 1.355 . S
C1143 C1145 1.419 . S
C1144 C1142 1.415 . S
C1144 C1149 1.425 . S
C1144 C1151 1.409 . S
C1145 H1137 0.930 . S
C1145 C1143 1.419 . S
C1145 C1146 1.362 . S
C1146 H1138 0.930 . S
C1146 C1145 1.362 . S
C1146 C1149 1.409 . S
C1147 H1139 0.930 . S
C1147 C1148 1.355 . S
C1147 C1149 1.415 . S
C1148 C1147 1.355 . S
C1148 C1150 1.419 . S
C1149 C1144 1.425 . S
C1149 C1146 1.409 . S
C1149 C1147 1.415 . S
C1150 H1140 0.930 1_556 S
C1150 C1148 1.419 . S
C1150 C1151 1.362 . S
C1151 H1141 0.930 1_556 S
C1151 C1144 1.409 . S
C1151 C1150 1.362 . S
H1152 C1158 0.930 . S
H1153 C1161 0.930 . S
H1154 C1162 0.930 . S
H1155 C1163 0.930 . S
H1156 C1166 0.930 . S
H1157 C1167 0.930 . S
C1158 H1152 0.930 . S
C1158 C1159 1.355 . S
C1158 C1160 1.415 . S
C1159 C1158 1.355 . S
C1159 C1161 1.419 . S
C1160 C1158 1.415 . S
C1160 C1165 1.425 . S
C1160 C1167 1.409 . S
C1161 H1153 0.930 . S
C1161 C1159 1.419 . S
C1161 C1162 1.362 . S
C1162 H1154 0.930 . S
C1162 C1161 1.362 . S
C1162 C1165 1.409 . S
C1163 H1155 0.930 . S
C1163 C1164 1.355 . S
C1163 C1165 1.415 . S
C1164 C1163 1.355 . S
C1164 C1166 1.419 . S
C1165 C1160 1.425 . S
C1165 C1162 1.409 . S
C1165 C1163 1.415 . S
C1166 H1156 0.930 . S
C1166 C1164 1.419 . S
C1166 C1167 1.362 . S
C1167 H1157 0.930 . S
C1167 C1160 1.409 . S
C1167 C1166 1.362 . S
H1168 C1174 0.930 . S
H1169 C1177 0.930 . S
H1170 C1178 0.930 . S
H1171 C1179 0.930 . S
H1172 C1182 0.930 . S
H1173 C1183 0.930 . S
C1174 H1168 0.930 . S
C1174 C1175 1.355 . S
C1174 C1176 1.415 . S
C1175 C1174 1.355 . S
C1175 C1177 1.419 . S
C1176 C1174 1.415 . S
C1176 C1181 1.425 . S
C1176 C1183 1.409 . S
C1177 H1169 0.930 . S
C1177 C1175 1.419 . S
C1177 C1178 1.362 . S
C1178 H1170 0.930 . S
C1178 C1177 1.362 . S
C1178 C1181 1.409 . S
C1179 H1171 0.930 . S
C1179 C1180 1.355 . S
C1179 C1181 1.415 . S
C1180 C1179 1.355 . S
C1180 C1182 1.419 . S
C1181 C1176 1.425 . S
C1181 C1178 1.409 . S
C1181 C1179 1.415 . S
C1182 H1172 0.930 . S
C1182 C1180 1.419 . S
C1182 C1183 1.362 . S
C1183 H1173 0.930 . S
C1183 C1176 1.409 . S
C1183 C1182 1.362 . S
H1184 C1190 0.930 . S
H1185 C1193 0.930 1_455 S
H1186 C1194 0.930 . S
H1187 C1195 0.930 . S
H1188 C1198 0.930 . S
H1189 C1199 0.930 . S
C1190 H1184 0.930 . S
C1190 C1191 1.355 . S
C1190 C1192 1.415 . S
C1191 C1190 1.355 . S
C1191 C1193 1.419 . S
C1192 C1190 1.415 . S
C1192 C1197 1.425 . S
C1192 C1199 1.409 . S
C1193 H1185 0.930 1_655 S
C1193 C1191 1.419 . S
C1193 C1194 1.362 . S
C1194 H1186 0.930 . S
C1194 C1193 1.362 . S
C1194 C1197 1.409 . S
C1195 H1187 0.930 . S
C1195 C1196 1.355 . S
C1195 C1197 1.415 . S
C1196 C1195 1.355 . S
C1196 C1198 1.419 . S
C1197 C1192 1.425 . S
C1197 C1194 1.409 . S
C1197 C1195 1.415 . S
C1198 H1188 0.930 . S
C1198 C1196 1.419 . S
C1198 C1199 1.362 . S
C1199 H1189 0.930 . S
C1199 C1192 1.409 . S
C1199 C1198 1.362 . S
H1200 C1206 0.930 . S
H1201 C1209 0.930 . S
H1202 C1210 0.930 . S
H1203 C1211 0.930 . S
H1204 C1214 0.930 . S
H1205 C1215 0.930 . S
C1206 H1200 0.930 . S
C1206 C1207 1.355 . S
C1206 C1208 1.415 . S
C1207 C1206 1.355 . S
C1207 C1209 1.419 . S
C1208 C1206 1.415 . S
C1208 C1213 1.425 . S
C1208 C1215 1.409 . S
C1209 H1201 0.930 . S
C1209 C1207 1.419 . S
C1209 C1210 1.362 . S
C1210 H1202 0.930 . S
C1210 C1209 1.362 . S
C1210 C1213 1.409 . S
C1211 H1203 0.930 . S
C1211 C1212 1.355 . S
C1211 C1213 1.415 . S
C1212 C1211 1.355 . S
C1212 C1214 1.419 . S
C1213 C1208 1.425 . S
C1213 C1210 1.409 . S
C1213 C1211 1.415 . S
C1214 H1204 0.930 . S
C1214 C1212 1.419 . S
C1214 C1215 1.362 . S
C1215 H1205 0.930 . S
C1215 C1208 1.409 . S
C1215 C1214 1.362 . S
H1216 C1222 0.930 . S
H1217 C1225 0.930 . S
H1218 C1226 0.930 . S
H1219 C1227 0.930 . S
H1220 C1230 0.930 . S
H1221 C1231 0.930 . S
C1222 H1216 0.930 . S
C1222 C1223 1.355 . S
C1222 C1224 1.415 . S
C1223 C1222 1.355 . S
C1223 C1225 1.419 . S
C1224 C1222 1.415 . S
C1224 C1229 1.425 . S
C1224 C1231 1.409 . S
C1225 H1217 0.930 . S
C1225 C1223 1.419 . S
C1225 C1226 1.362 . S
C1226 H1218 0.930 . S
C1226 C1225 1.362 . S
C1226 C1229 1.409 . S
C1227 H1219 0.930 . S
C1227 C1228 1.355 . S
C1227 C1229 1.415 . S
C1228 C1227 1.355 . S
C1228 C1230 1.419 . S
C1229 C1224 1.425 . S
C1229 C1226 1.409 . S
C1229 C1227 1.415 . S
C1230 H1220 0.930 . S
C1230 C1228 1.419 . S
C1230 C1231 1.362 . S
C1231 H1221 0.930 . S
C1231 C1224 1.409 . S
C1231 C1230 1.362 . S
H1232 C1238 0.930 . S
H1233 C1241 0.930 . S
H1234 C1242 0.930 . S
H1235 C1243 0.930 . S
H1236 C1246 0.930 . S
H1237 C1247 0.930 . S
C1238 H1232 0.930 . S
C1238 C1239 1.355 . S
C1238 C1240 1.415 . S
C1239 C1238 1.355 . S
C1239 C1241 1.419 . S
C1240 C1238 1.415 . S
C1240 C1245 1.425 . S
C1240 C1247 1.409 . S
C1241 H1233 0.930 . S
C1241 C1239 1.419 . S
C1241 C1242 1.362 . S
C1242 H1234 0.930 . S
C1242 C1241 1.362 . S
C1242 C1245 1.409 . S
C1243 H1235 0.930 . S
C1243 C1244 1.355 . S
C1243 C1245 1.415 . S
C1244 C1243 1.355 . S
C1244 C1246 1.419 . S
C1245 C1240 1.425 . S
C1245 C1242 1.409 . S
C1245 C1243 1.415 . S
C1246 H1236 0.930 . S
C1246 C1244 1.419 . S
C1246 C1247 1.362 . S
C1247 H1237 0.930 . S
C1247 C1240 1.409 . S
C1247 C1246 1.362 . S
H1248 C1254 0.930 . S
H1249 C1257 0.930 . S
H1250 C1258 0.930 . S
H1251 C1259 0.930 . S
H1252 C1262 0.930 . S
H1253 C1263 0.930 . S
C1254 H1248 0.930 . S
C1254 C1255 1.355 . S
C1254 C1256 1.415 . S
C1255 C1254 1.355 . S
C1255 C1257 1.419 . S
C1256 C1254 1.415 . S
C1256 C1261 1.425 . S
C1256 C1263 1.409 . S
C1257 H1249 0.930 . S
C1257 C1255 1.419 . S
C1257 C1258 1.362 . S
C1258 H1250 0.930 . S
C1258 C1257 1.362 . S
C1258 C1261 1.409 . S
C1259 H1251 0.930 . S
C1259 C1260 1.355 . S
C1259 C1261 1.415 . S
C1260 C1259 1.355 . S
C1260 C1262 1.419 . S
C1261 C1256 1.425 . S
C1261 C1258 1.409 . S
C1261 C1259 1.415 . S
C1262 H1252 0.930 . S
C1262 C1260 1.419 . S
C1262 C1263 1.362 . S
C1263 H1253 0.930 . S
C1263 C1256 1.409 . S
C1263 C1262 1.362 . S
H1264 C1270 0.930 . S
H1265 C1273 0.930 . S
H1266 C1274 0.930 . S
H1267 C1275 0.930 . S
H1268 C1278 0.930 . S
H1269 C1279 0.930 . S
C1270 H1264 0.930 . S
C1270 C1271 1.355 . S
C1270 C1272 1.415 . S
C1271 C1270 1.355 . S
C1271 C1273 1.419 . S
C1272 C1270 1.415 . S
C1272 C1277 1.425 . S
C1272 C1279 1.409 . S
C1273 H1265 0.930 . S
C1273 C1271 1.419 . S
C1273 C1274 1.362 . S
C1274 H1266 0.930 . S
C1274 C1273 1.362 . S
C1274 C1277 1.409 . S
C1275 H1267 0.930 . S
C1275 C1276 1.355 . S
C1275 C1277 1.415 . S
C1276 C1275 1.355 . S
C1276 C1278 1.419 . S
C1277 C1272 1.425 . S
C1277 C1274 1.409 . S
C1277 C1275 1.415 . S
C1278 H1268 0.930 . S
C1278 C1276 1.419 . S
C1278 C1279 1.362 . S
C1279 H1269 0.930 . S
C1279 C1272 1.409 . S
C1279 C1278 1.362 . S
H1280 C1286 0.930 . S
H1281 C1289 0.930 . S
H1282 C1290 0.930 . S
H1283 C1291 0.930 . S
H1284 C1294 0.930 1_655 S
H1285 C1295 0.930 . S
C1286 H1280 0.930 . S
C1286 C1287 1.355 . S
C1286 C1288 1.415 . S
C1287 C1286 1.355 . S
C1287 C1289 1.419 . S
C1288 C1286 1.415 . S
C1288 C1293 1.425 . S
C1288 C1295 1.409 . S
C1289 H1281 0.930 . S
C1289 C1287 1.419 . S
C1289 C1290 1.362 . S
C1290 H1282 0.930 . S
C1290 C1289 1.362 . S
C1290 C1293 1.409 . S
C1291 H1283 0.930 . S
C1291 C1292 1.355 . S
C1291 C1293 1.415 . S
C1292 C1291 1.355 . S
C1292 C1294 1.419 . S
C1293 C1288 1.425 . S
C1293 C1290 1.409 . S
C1293 C1291 1.415 . S
C1294 H1284 0.930 1_455 S
C1294 C1292 1.419 . S
C1294 C1295 1.362 . S
C1295 H1285 0.930 . S
C1295 C1288 1.409 . S
C1295 C1294 1.362 . S
H1296 C1302 0.930 . S
H1297 C1305 0.930 . S
H1298 C1306 0.930 . S
H1299 C1307 0.930 . S
H1300 C1310 0.930 . S
H1301 C1311 0.930 . S
C1302 H1296 0.930 . S
C1302 C1303 1.355 . S
C1302 C1304 1.415 . S
C1303 C1302 1.355 . S
C1303 C1305 1.419 . S
C1304 C1302 1.415 . S
C1304 C1309 1.425 . S
C1304 C1311 1.409 . S
C1305 H1297 0.930 . S
C1305 C1303 1.419 . S
C1305 C1306 1.362 . S
C1306 H1298 0.930 . S
C1306 C1305 1.362 . S
C1306 C1309 1.409 . S
C1307 H1299 0.930 . S
C1307 C1308 1.355 . S
C1307 C1309 1.415 . S
C1308 C1307 1.355 . S
C1308 C1310 1.419 . S
C1309 C1304 1.425 . S
C1309 C1306 1.409 . S
C1309 C1307 1.415 . S
C1310 H1300 0.930 . S
C1310 C1308 1.419 . S
C1310 C1311 1.362 . S
C1311 H1301 0.930 . S
C1311 C1304 1.409 . S
C1311 C1310 1.362 . S
H1312 C1318 0.930 . S
H1313 C1321 0.930 . S
H1314 C1322 0.930 . S
H1315 C1323 0.930 . S
H1316 C1326 0.930 . S
H1317 C1327 0.930 . S
C1318 H1312 0.930 . S
C1318 C1319 1.355 . S
C1318 C1320 1.415 . S
C1319 C1318 1.355 . S
C1319 C1321 1.419 . S
C1320 C1318 1.415 . S
C1320 C1325 1.425 . S
C1320 C1327 1.409 . S
C1321 H1313 0.930 . S
C1321 C1319 1.419 . S
C1321 C1322 1.362 . S
C1322 H1314 0.930 . S
C1322 C1321 1.362 . S
C1322 C1325 1.409 . S
C1323 H1315 0.930 . S
C1323 C1324 1.355 . S
C1323 C1325 1.415 . S
C1324 C1323 1.355 . S
C1324 C1326 1.419 . S
C1325 C1320 1.425 . S
C1325 C1322 1.409 . S
C1325 C1323 1.415 . S
C1326 H1316 0.930 . S
C1326 C1324 1.419 . S
C1326 C1327 1.362 . S
C1327 H1317 0.930 . S
C1327 C1320 1.409 . S
C1327 C1326 1.362 . S
H1328 C1334 0.930 . S
H1329 C1337 0.930 . S
H1330 C1338 0.930 . S
H1331 C1339 0.930 . S
H1332 C1342 0.930 . S
H1333 C1343 0.930 . S
C1334 H1328 0.930 . S
C1334 C1335 1.355 . S
C1334 C1336 1.415 . S
C1335 C1334 1.355 . S
C1335 C1337 1.419 . S
C1336 C1334 1.415 . S
C1336 C1341 1.425 . S
C1336 C1343 1.409 . S
C1337 H1329 0.930 . S
C1337 C1335 1.419 . S
C1337 C1338 1.362 . S
C1338 H1330 0.930 . S
C1338 C1337 1.362 . S
C1338 C1341 1.409 . S
C1339 H1331 0.930 . S
C1339 C1340 1.355 . S
C1339 C1341 1.415 . S
C1340 C1339 1.355 . S
C1340 C1342 1.419 . S
C1341 C1336 1.425 . S
C1341 C1338 1.409 . S
C1341 C1339 1.415 . S
C1342 H1332 0.930 . S
C1342 C1340 1.419 . S
C1342 C1343 1.362 . S
C1343 H1333 0.930 . S
C1343 C1336 1.409 . S
C1343 C1342 1.362 . S
H1344 C1350 0.930 . S
H1345 C1353 0.930 1_455 S
H1346 C1354 0.930 . S
H1347 C1355 0.930 . S
H1348 C1358 0.930 . S
H1349 C1359 0.930 . S
C1350 H1344 0.930 . S
C1350 C1351 1.355 . S
C1350 C1352 1.415 . S
C1351 C1350 1.355 . S
C1351 C1353 1.419 . S
C1352 C1350 1.415 . S
C1352 C1357 1.425 . S
C1352 C1359 1.409 . S
C1353 H1345 0.930 1_655 S
C1353 C1351 1.419 . S
C1353 C1354 1.362 . S
C1354 H1346 0.930 . S
C1354 C1353 1.362 . S
C1354 C1357 1.409 . S
C1355 H1347 0.930 . S
C1355 C1356 1.355 . S
C1355 C1357 1.415 . S
C1356 C1355 1.355 . S
C1356 C1358 1.419 . S
C1357 C1352 1.425 . S
C1357 C1354 1.409 . S
C1357 C1355 1.415 . S
C1358 H1348 0.930 . S
C1358 C1356 1.419 . S
C1358 C1359 1.362 . S
C1359 H1349 0.930 . S
C1359 C1352 1.409 . S
C1359 C1358 1.362 . S
H1360 C1366 0.930 . S
H1361 C1369 0.930 . S
H1362 C1370 0.930 . S
H1363 C1371 0.930 . S
H1364 C1374 0.930 . S
H1365 C1375 0.930 . S
C1366 H1360 0.930 . S
C1366 C1367 1.355 . S
C1366 C1368 1.415 . S
C1367 C1366 1.355 . S
C1367 C1369 1.419 . S
C1368 C1366 1.415 . S
C1368 C1373 1.425 . S
C1368 C1375 1.409 . S
C1369 H1361 0.930 . S
C1369 C1367 1.419 . S
C1369 C1370 1.362 . S
C1370 H1362 0.930 . S
C1370 C1369 1.362 . S
C1370 C1373 1.409 . S
C1371 H1363 0.930 . S
C1371 C1372 1.355 . S
C1371 C1373 1.415 . S
C1372 C1371 1.355 . S
C1372 C1374 1.419 . S
C1373 C1368 1.425 . S
C1373 C1370 1.409 . S
C1373 C1371 1.415 . S
C1374 H1364 0.930 . S
C1374 C1372 1.419 . S
C1374 C1375 1.362 . S
C1375 H1365 0.930 . S
C1375 C1368 1.409 . S
C1375 C1374 1.362 . S
H1376 C1382 0.930 . S
H1377 C1385 0.930 . S
H1378 C1386 0.930 . S
H1379 C1387 0.930 . S
H1380 C1390 0.930 . S
H1381 C1391 0.930 . S
C1382 H1376 0.930 . S
C1382 C1383 1.355 . S
C1382 C1384 1.415 . S
C1383 C1382 1.355 . S
C1383 C1385 1.419 . S
C1384 C1382 1.415 . S
C1384 C1389 1.425 . S
C1384 C1391 1.409 . S
C1385 H1377 0.930 . S
C1385 C1383 1.419 . S
C1385 C1386 1.362 . S
C1386 H1378 0.930 . S
C1386 C1385 1.362 . S
C1386 C1389 1.409 . S
C1387 H1379 0.930 . S
C1387 C1388 1.355 . S
C1387 C1389 1.415 . S
C1388 C1387 1.355 . S
C1388 C1390 1.419 . S
C1389 C1384 1.425 . S
C1389 C1386 1.409 . S
C1389 C1387 1.415 . S
C1390 H1380 0.930 . S
C1390 C1388 1.419 . S
C1390 C1391 1.362 . S
C1391 H1381 0.930 . S
C1391 C1384 1.409 . S
C1391 C1390 1.362 . S
H1392 C1398 0.930 . S
H1393 C1401 0.930 . S
H1394 C1402 0.930 . S
H1395 C1403 0.930 . S
H1396 C1406 0.930 . S
H1397 C1407 0.930 . S
C1398 H1392 0.930 . S
C1398 C1399 1.355 . S
C1398 C1400 1.415 . S
C1399 C1398 1.355 . S
C1399 C1401 1.419 . S
C1400 C1398 1.415 . S
C1400 C1405 1.425 . S
C1400 C1407 1.409 . S
C1401 H1393 0.930 . S
C1401 C1399 1.419 . S
C1401 C1402 1.362 . S
C1402 H1394 0.930 . S
C1402 C1401 1.362 . S
C1402 C1405 1.409 . S
C1403 H1395 0.930 . S
C1403 C1404 1.355 . S
C1403 C1405 1.415 . S
C1404 C1403 1.355 . S
C1404 C1406 1.419 . S
C1405 C1400 1.425 . S
C1405 C1402 1.409 . S
C1405 C1403 1.415 . S
C1406 H1396 0.930 . S
C1406 C1404 1.419 . S
C1406 C1407 1.362 . S
C1407 H1397 0.930 . S
C1407 C1400 1.409 . S
C1407 C1406 1.362 . S
H1408 C1414 0.930 . S
H1409 C1417 0.930 . S
H1410 C1418 0.930 . S
H1411 C1419 0.930 . S
H1412 C1422 0.930 . S
H1413 C1423 0.930 . S
C1414 H1408 0.930 . S
C1414 C1415 1.355 . S
C1414 C1416 1.415 . S
C1415 C1414 1.355 . S
C1415 C1417 1.419 . S
C1416 C1414 1.415 . S
C1416 C1421 1.425 . S
C1416 C1423 1.409 . S
C1417 H1409 0.930 . S
C1417 C1415 1.419 . S
C1417 C1418 1.362 . S
C1418 H1410 0.930 . S
C1418 C1417 1.362 . S
C1418 C1421 1.409 . S
C1419 H1411 0.930 . S
C1419 C1420 1.355 . S
C1419 C1421 1.415 . S
C1420 C1419 1.355 . S
C1420 C1422 1.419 . S
C1421 C1416 1.425 . S
C1421 C1418 1.409 . S
C1421 C1419 1.415 . S
C1422 H1412 0.930 . S
C1422 C1420 1.419 . S
C1422 C1423 1.362 . S
C1423 H1413 0.930 . S
C1423 C1416 1.409 . S
C1423 C1422 1.362 . S
H1424 C1430 0.930 . S
H1425 C1433 0.930 . S
H1426 C1434 0.930 . S
H1427 C1435 0.930 . S
H1428 C1438 0.930 . S
H1429 C1439 0.930 . S
C1430 H1424 0.930 . S
C1430 C1431 1.355 . S
C1430 C1432 1.415 . S
C1431 C1430 1.355 . S
C1431 C1433 1.419 . S
C1432 C1430 1.415 . S
C1432 C1437 1.425 . S
C1432 C1439 1.409 . S
C1433 H1425 0.930 . S
C1433 C1431 1.419 . S
C1433 C1434 1.362 . S
C1434 H1426 0.930 . S
C1434 C1433 1.362 . S
C1434 C1437 1.409 . S
C1435 H1427 0.930 . S
C1435 C1436 1.355 . S
C1435 C1437 1.415 . S
C1436 C1435 1.355 . S
C1436 C1438 1.419 . S
C1437 C1432 1.425 . S
C1437 C1434 1.409 . S
C1437 C1435 1.415 . S
C1438 H1428 0.930 . S
C1438 C1436 1.419 . S
C1438 C1439 1.362 . S
C1439 H1429 0.930 . S
C1439 C1432 1.409 . S
C1439 C1438 1.362 . S
C423 C44 1.018 . S
C428 C5 1.014 . S
C439 C31 0.904 . S
C444 C18 0.909 . S
C455 C96 0.924 . S
C460 C57 0.930 . S
C471 C83 1.030 . S
C476 C70 1.026 . S
C487 C109 0.928 . S
C492 C148 0.922 . S
C503 C122 1.041 . S
C508 C135 1.043 . S
C519 C200 0.977 . S
C524 C161 0.971 . S
C535 C174 0.934 . S
C540 C187 0.928 . S
C551 C213 1.025 . S
C556 C252 1.021 . S
C567 C226 0.875 . S
C572 C239 0.878 . S
C583 C304 0.908 . S
C588 C265 0.902 . S
C599 C291 1.045 . S
C604 C278 1.045 . S
C615 C356 0.873 . S
C620 C317 0.875 . S
C631 C330 1.045 . S
C636 C343 1.045 . S
C647 C369 0.882 . S
C652 C408 0.879 . S
C663 C382 0.893 . S
C668 C395 0.889 . S
C679 C270 1.282 . S
C684 C10 1.282 . S
C695 C179 1.240 . S
C700 C23 1.240 . S
C711 C36 1.238 . S
C716 C400 1.238 . S
C727 C49 1.280 . S
C732 C101 1.280 . S
C743 C218 1.270 . S
C748 C62 1.270 . S
C759 C127 1.223 . S
C764 C75 1.223 . S
C775 C348 1.218 . S
C780 C88 1.218 . S
C791 C114 1.209 . S
C796 C374 1.209 . S
C807 C296 1.202 . S
C812 C140 1.202 . S
C823 C205 1.238 . S
C828 C153 1.238 . S
C839 C322 1.233 . S
C844 C166 1.233 . S
C855 C192 1.254 . S
C860 C244 1.254 . S
C871 C387 1.281 . S
C876 C231 1.281 . S
C887 C257 1.201 . S
C892 C309 1.201 . S
C903 C335 1.236 . S
C908 C283 1.236 . S
C919 C413 1.213 . S
C924 C361 1.213 . S
C935 C21 1.301 . S
C940 C8 1.251 . S
C951 C34 1.276 . S
C956 C47 1.267 . S
C967 C60 1.346 . S
C972 C73 1.278 . S
C983 C99 1.344 . S
C988 C86 1.262 . S
C999 C112 1.261 . S
C1004 C125 1.344 . S
C1015 C138 1.272 . S
C1020 C151 1.346 . S
C1031 C177 1.299 . S
C1036 C164 1.251 . S
C1047 C190 1.254 . S
C1052 C203 1.293 . S
C1063 C216 1.303 . S
C1068 C229 1.249 . S
C1079 C242 1.258 . S
C1084 C255 1.342 . S
C1095 C268 1.275 . S
C1100 C281 1.267 . S
C1111 C307 1.282 . S
C1116 C294 1.261 . S
C1127 C333 1.305 . S
C1132 C320 1.249 . S
C1143 C346 1.319 . S
C1148 C359 1.246 . S
C1159 C372 1.341 . S
C1164 C385 1.297 . S
C1175 C411 1.257 . S
C1180 C398 1.289 . S
C1191 C0 1.441 . S
C1196 C247 1.441 . S
C1207 C13 1.447 . S
C1212 C234 1.438 . S
C1223 C221 1.477 . S
C1228 C26 1.498 . S
C1239 C39 1.439 . S
C1244 C208 1.452 . S
C1255 C299 1.492 . S
C1260 C52 1.505 . S
C1271 C65 1.505 . S
C1276 C286 1.494 . S
C1287 C273 1.440 . S
C1292 C78 1.455 . S
C1303 C91 1.502 . S
C1308 C260 1.483 . S
C1319 C104 1.440 . S
C1324 C351 1.455 . S
C1335 C117 1.494 . S
C1340 C338 1.471 . S
C1351 C130 1.442 . S
C1356 C325 1.440 . S
C1367 C312 1.458 . S
C1372 C143 1.441 . S
C1383 C156 1.495 . S
C1388 C403 1.472 . S
C1399 C169 1.444 . S
C1404 C390 1.439 . S
C1415 C182 1.494 . S
C1420 C377 1.471 . S
C1431 C364 1.448 . S
C1436 C195 1.471 . S
