# Generated by pormake.
# Topology yfj, (5)-cn, num edge types: 1
# Building blocks:
#     Node 0, Type 0, BuildingBlock: XOMCOT_clean_sbu_1, # of connection points: 5
#     Node 1, Type 0, BuildingBlock: XOMCOT_clean_sbu_1, # of connection points: 5
#     Node 2, Type 0, BuildingBlock: XOMCOT_clean_sbu_1, # of connection points: 5
#     Node 3, Type 0, BuildingBlock: XOMCOT_clean_sbu_1, # of connection points: 5
#     Node 4, Type 0, BuildingBlock: XOMCOT_clean_sbu_1, # of connection points: 5
#     Node 5, Type 0, BuildingBlock: XOMCOT_clean_sbu_1, # of connection points: 5
#     Node 6, Type 0, BuildingBlock: XOMCOT_clean_sbu_1, # of connection points: 5
#     Node 7, Type 0, BuildingBlock: XOMCOT_clean_sbu_1, # of connection points: 5
#     Node 8, Type 0, BuildingBlock: XOMCOT_clean_sbu_1, # of connection points: 5
#     Node 9, Type 0, BuildingBlock: XOMCOT_clean_sbu_1, # of connection points: 5
#     Node 10, Type 0, BuildingBlock: XOMCOT_clean_sbu_1, # of connection points: 5
#     Node 11, Type 0, BuildingBlock: XOMCOT_clean_sbu_1, # of connection points: 5
#     Node 12, Type 0, BuildingBlock: XOMCOT_clean_sbu_1, # of connection points: 5
#     Node 13, Type 0, BuildingBlock: XOMCOT_clean_sbu_1, # of connection points: 5
#     Node 14, Type 0, BuildingBlock: XOMCOT_clean_sbu_1, # of connection points: 5
#     Node 15, Type 0, BuildingBlock: XOMCOT_clean_sbu_1, # of connection points: 5
#     Edge 16, Type (0, 0), BuildingBlock: XIVTED_clean_linker_0, # of connection points: 2
#     Edge 17, Type (0, 0), BuildingBlock: XIVTED_clean_linker_0, # of connection points: 2
#     Edge 18, Type (0, 0), BuildingBlock: XIVTED_clean_linker_0, # of connection points: 2
#     Edge 19, Type (0, 0), BuildingBlock: XIVTED_clean_linker_0, # of connection points: 2
#     Edge 20, Type (0, 0), BuildingBlock: XIVTED_clean_linker_0, # of connection points: 2
#     Edge 21, Type (0, 0), BuildingBlock: XIVTED_clean_linker_0, # of connection points: 2
#     Edge 22, Type (0, 0), BuildingBlock: XIVTED_clean_linker_0, # of connection points: 2
#     Edge 23, Type (0, 0), BuildingBlock: XIVTED_clean_linker_0, # of connection points: 2
#     Edge 24, Type (0, 0), BuildingBlock: XIVTED_clean_linker_0, # of connection points: 2
#     Edge 25, Type (0, 0), BuildingBlock: XIVTED_clean_linker_0, # of connection points: 2
#     Edge 26, Type (0, 0), BuildingBlock: XIVTED_clean_linker_0, # of connection points: 2
#     Edge 27, Type (0, 0), BuildingBlock: XIVTED_clean_linker_0, # of connection points: 2
#     Edge 28, Type (0, 0), BuildingBlock: XIVTED_clean_linker_0, # of connection points: 2
#     Edge 29, Type (0, 0), BuildingBlock: XIVTED_clean_linker_0, # of connection points: 2
#     Edge 30, Type (0, 0), BuildingBlock: XIVTED_clean_linker_0, # of connection points: 2
#     Edge 31, Type (0, 0), BuildingBlock: XIVTED_clean_linker_0, # of connection points: 2
#     Edge 32, Type (0, 0), BuildingBlock: XIVTED_clean_linker_0, # of connection points: 2
#     Edge 33, Type (0, 0), BuildingBlock: XIVTED_clean_linker_0, # of connection points: 2
#     Edge 34, Type (0, 0), BuildingBlock: XIVTED_clean_linker_0, # of connection points: 2
#     Edge 35, Type (0, 0), BuildingBlock: XIVTED_clean_linker_0, # of connection points: 2
#     Edge 36, Type (0, 0), BuildingBlock: XIVTED_clean_linker_0, # of connection points: 2
#     Edge 37, Type (0, 0), BuildingBlock: XIVTED_clean_linker_0, # of connection points: 2
#     Edge 38, Type (0, 0), BuildingBlock: XIVTED_clean_linker_0, # of connection points: 2
#     Edge 39, Type (0, 0), BuildingBlock: XIVTED_clean_linker_0, # of connection points: 2
#     Edge 40, Type (0, 0), BuildingBlock: XIVTED_clean_linker_0, # of connection points: 2
#     Edge 41, Type (0, 0), BuildingBlock: XIVTED_clean_linker_0, # of connection points: 2
#     Edge 42, Type (0, 0), BuildingBlock: XIVTED_clean_linker_0, # of connection points: 2
#     Edge 43, Type (0, 0), BuildingBlock: XIVTED_clean_linker_0, # of connection points: 2
#     Edge 44, Type (0, 0), BuildingBlock: XIVTED_clean_linker_0, # of connection points: 2
#     Edge 45, Type (0, 0), BuildingBlock: XIVTED_clean_linker_0, # of connection points: 2
#     Edge 46, Type (0, 0), BuildingBlock: XIVTED_clean_linker_0, # of connection points: 2
#     Edge 47, Type (0, 0), BuildingBlock: XIVTED_clean_linker_0, # of connection points: 2
#     Edge 48, Type (0, 0), BuildingBlock: XIVTED_clean_linker_0, # of connection points: 2
#     Edge 49, Type (0, 0), BuildingBlock: XIVTED_clean_linker_0, # of connection points: 2
#     Edge 50, Type (0, 0), BuildingBlock: XIVTED_clean_linker_0, # of connection points: 2
#     Edge 51, Type (0, 0), BuildingBlock: XIVTED_clean_linker_0, # of connection points: 2
#     Edge 52, Type (0, 0), BuildingBlock: XIVTED_clean_linker_0, # of connection points: 2
#     Edge 53, Type (0, 0), BuildingBlock: XIVTED_clean_linker_0, # of connection points: 2
#     Edge 54, Type (0, 0), BuildingBlock: XIVTED_clean_linker_0, # of connection points: 2
#     Edge 55, Type (0, 0), BuildingBlock: XIVTED_clean_linker_0, # of connection points: 2
# Relax obj value: 0.476
# Max RMSD: 0.238
# Mean RMSD: 0.238
data_MOF--net-yfj--node1-XOMCOT_clean_sbu_1--edge1-XIVTED_clean_linker_0
_symmetry_space_group_name_H-M    P1
_symmetry_Int_Tables_number       1
_symmetry_cell_setting            triclinic
loop_
_symmetry_equiv_pos_as_xyz
'x, y, z'
_cell_length_a     49.169731
_cell_length_b     49.177004
_cell_length_c     44.580682
_cell_angle_alpha  89.999482
_cell_angle_beta   90.174448
_cell_angle_gamma 90.039054
loop_
_atom_site_label
_atom_site_type_symbol
_atom_site_fract_x
_atom_site_fract_y
_atom_site_fract_z
_atom_type_partial_charge
C0 C 0.11117 0.0939 0.34899 0.0
C1 C 0.10901 0.08705 0.37881 0.0
N2 N 0.11711 0.10847 0.39546 0.0
N3 N 0.12017 0.11972 0.34672 0.0
C4 C 0.12402 0.12793 0.37544 0.0
H5 H 0.10632 0.08098 0.33008 0.0
Co6 Co 0.127 0.13811 0.31048 0.0
C7 C 0.10928 0.19371 0.33533 0.0
O8 O 0.08621 0.19505 0.32049 0.0
N9 N 0.13573 0.15592 0.27395 0.0
C10 C 0.1455 0.18537 0.23747 0.0
C11 C 0.13 0.18081 0.26286 0.0
C12 C 0.15425 0.14571 0.25454 0.0
N13 N 0.16099 0.16322 0.23238 0.0
O14 O 0.16354 0.13712 0.31946 0.0
H15 H 0.11629 0.19525 0.27296 0.0
H16 H 0.16363 0.12607 0.25747 0.0
O17 O 0.12482 0.17313 0.33188 0.0
C18 C 0.17437 0.11401 0.31508 0.0
O19 O 0.15962 0.09393 0.30434 0.0
N20 N 0.08977 0.13579 0.30046 0.0
C21 C 0.04774 0.09759 0.29705 0.0
C22 C 0.04887 0.11639 0.32083 0.0
C23 C 0.0699 0.13576 0.32189 0.0
C24 C 0.08664 0.12035 0.27527 0.0
C25 C 0.06583 0.10119 0.27311 0.0
H26 H 0.07267 0.14725 0.34235 0.0
H27 H 0.10263 0.11943 0.25877 0.0
H28 H 0.13144 0.14788 0.38162 0.0
H29 H 0.1022 0.06767 0.38754 0.0
H30 H 0.14568 0.2038 0.22423 0.0
H31 H 0.03509 0.1147 0.33964 0.0
H32 H 0.06609 0.08724 0.25433 0.0
C33 C 0.91789 0.60969 0.6008 0.0
C34 C 0.92343 0.60611 0.63076 0.0
N35 N 0.90204 0.61519 0.64671 0.0
N36 N 0.8929 0.62061 0.59765 0.0
C37 C 0.88388 0.62413 0.62609 0.0
H38 H 0.93118 0.60453 0.58236 0.0
Co39 Co 0.87682 0.62994 0.56061 0.0
C40 C 0.81936 0.614 0.58137 0.0
O41 O 0.81821 0.59147 0.56561 0.0
N42 N 0.86145 0.64112 0.52321 0.0
C43 C 0.83665 0.64856 0.48194 0.0
C44 C 0.83932 0.63288 0.50765 0.0
C45 C 0.87183 0.6616 0.50629 0.0
N46 N 0.85707 0.66685 0.48137 0.0
O47 O 0.88005 0.66621 0.57114 0.0
H48 H 0.82586 0.61668 0.51447 0.0
H49 H 0.89022 0.67247 0.51185 0.0
O50 O 0.8405 0.62914 0.5798 0.0
C51 C 0.90446 0.67436 0.56818 0.0
O52 O 0.92334 0.65749 0.5589 0.0
N53 N 0.87735 0.59287 0.549 0.0
C54 C 0.91371 0.54933 0.54506 0.0
C55 C 0.8946 0.55057 0.56844 0.0
C56 C 0.87601 0.57228 0.56963 0.0
C57 C 0.89307 0.58975 0.52404 0.0
C58 C 0.91124 0.56812 0.52158 0.0
H59 H 0.86416 0.57485 0.58983 0.0
H60 H 0.8951 0.60613 0.5081 0.0
H61 H 0.86433 0.63284 0.6316 0.0
H62 H 0.94198 0.59775 0.64009 0.0
H63 H 0.82057 0.64703 0.46539 0.0
H64 H 0.89552 0.53629 0.5869 0.0
H65 H 0.92549 0.56818 0.5031 0.0
C66 C 0.39137 0.40202 0.85137 0.0
C67 C 0.39609 0.40751 0.88093 0.0
N68 N 0.39801 0.3838 0.89567 0.0
N69 N 0.39067 0.37481 0.84677 0.0
C70 C 0.39453 0.3642 0.87463 0.0
H71 H 0.3878 0.41727 0.83436 0.0
Co72 Co 0.38196 0.36012 0.8083 0.0
C73 C 0.37551 0.31133 0.83459 0.0
O74 O 0.40095 0.31179 0.82561 0.0
N75 N 0.37157 0.34726 0.76983 0.0
C76 C 0.37286 0.3434 0.7201 0.0
C77 C 0.38813 0.34337 0.74617 0.0
C78 C 0.34621 0.34839 0.75757 0.0
N79 N 0.34646 0.34677 0.72727 0.0
O80 O 0.35216 0.38439 0.80717 0.0
H81 H 0.41011 0.34338 0.74747 0.0
H82 H 0.32811 0.35307 0.77029 0.0
O83 O 0.36043 0.3316 0.82763 0.0
C84 C 0.33241 0.40084 0.80538 0.0
O85 O 0.3274 0.41345 0.77997 0.0
N86 N 0.40505 0.38634 0.79053 0.0
C87 C 0.4399 0.43049 0.78193 0.0
C88 C 0.44905 0.40684 0.79641 0.0
C89 C 0.43138 0.38483 0.80008 0.0
C90 C 0.39675 0.40764 0.77317 0.0
C91 C 0.41382 0.43013 0.76886 0.0
H92 H 0.43797 0.36742 0.81303 0.0
H93 H 0.37644 0.40809 0.76403 0.0
H94 H 0.39445 0.34274 0.87967 0.0
H95 H 0.39692 0.4275 0.89108 0.0
H96 H 0.38079 0.34285 0.69748 0.0
H97 H 0.46931 0.40574 0.80593 0.0
H98 H 0.40598 0.44768 0.757 0.0
C99 C 0.59574 0.89956 0.09835 0.0
C100 C 0.58949 0.90319 0.1281 0.0
N101 N 0.61009 0.89327 0.14486 0.0
N102 N 0.62033 0.88765 0.09614 0.0
C103 C 0.62846 0.88376 0.12489 0.0
H104 H 0.58314 0.90521 0.07942 0.0
Co105 Co 0.63696 0.87756 0.0598 0.0
C106 C 0.69454 0.8922 0.08055 0.0
O107 O 0.69665 0.91352 0.06298 0.0
N108 N 0.65301 0.86597 0.02297 0.0
C109 C 0.67455 0.86316 0.97899 0.0
C110 C 0.67169 0.87804 1.00517 0.0
C111 C 0.64522 0.84366 1.00714 0.0
N112 N 0.65799 0.84143 0.98058 0.0
O113 O 0.63252 0.84148 0.07064 0.0
H114 H 0.68169 0.89708 0.01012 0.0
H115 H 0.62951 0.82972 0.01406 0.0
O116 O 0.67284 0.87783 0.08001 0.0
C117 C 0.60787 0.83429 0.06684 0.0
O118 O 0.58997 0.85171 0.05636 0.0
N119 N 0.63752 0.91429 0.04796 0.0
C120 C 0.60562 0.96083 0.04157 0.0
C121 C 0.62436 0.95862 0.06533 0.0
C122 C 0.64056 0.93523 0.06791 0.0
C123 C 0.6217 0.91764 0.02303 0.0
C124 C 0.60589 0.94084 0.01923 0.0
H125 H 0.65202 0.93222 0.08839 0.0
H126 H 0.61791 0.90072 0.00814 0.0
H127 H 0.64753 0.87429 0.13107 0.0
H128 H 0.57096 0.9121 0.13668 0.0
H129 H 0.68746 0.8681 0.96014 0.0
H130 H 0.62484 0.97367 0.08306 0.0
H131 H 0.59154 0.9414 1.00076 0.0
C132 C 0.11713 0.4189 0.91531 0.0
C133 C 0.11241 0.42499 0.88567 0.0
N134 N 0.11843 0.40291 0.86903 0.0
N135 N 0.12585 0.393 0.91755 0.0
C136 C 0.12672 0.38386 0.88893 0.0
H137 H 0.11418 0.4324 0.93417 0.0
Co138 Co 0.13459 0.37599 0.95403 0.0
C139 C 0.11717 0.3183 0.93302 0.0
O140 O 0.09562 0.3161 0.9502 0.0
N141 N 0.14494 0.36011 0.9912 0.0
C142 C 0.15546 0.33279 0.02947 0.0
C143 C 0.1398 0.33568 1.00384 0.0
C144 C 0.16322 0.37184 0.0101 0.0
N145 N 0.17021 0.3556 0.03331 0.0
O146 O 0.17117 0.3767 0.94311 0.0
H147 H 0.12628 0.32049 0.99484 0.0
H148 H 0.17222 0.39159 1.00626 0.0
O149 O 0.1317 0.3399 0.93417 0.0
C150 C 0.18216 0.40001 0.94539 0.0
O151 O 0.16782 0.42056 0.95555 0.0
N152 N 0.09771 0.37828 0.96549 0.0
C153 C 0.05461 0.41505 0.96691 0.0
C154 C 0.05576 0.39496 0.9446 0.0
C155 C 0.07722 0.37609 0.94476 0.0
C156 C 0.09482 0.39541 0.98937 0.0
C157 C 0.07329 0.41389 0.99058 0.0
H158 H 0.07977 0.3632 0.92533 0.0
H159 H 0.11129 0.39795 1.00521 0.0
H160 H 0.13291 0.36356 0.8828 0.0
H161 H 0.10541 0.44434 0.87707 0.0
H162 H 0.15623 0.31511 0.04392 0.0
H163 H 0.04166 0.39532 0.9259 0.0
H164 H 0.07309 0.42918 0.00809 0.0
C165 C 0.59504 0.61703 0.16341 0.0
C166 C 0.58942 0.61397 0.1333 0.0
N167 N 0.612 0.62027 0.11786 0.0
N168 N 0.62122 0.62474 0.16692 0.0
C169 C 0.63097 0.62679 0.1386 0.0
H170 H 0.58088 0.61413 0.18166 0.0
Co171 Co 0.63775 0.63388 0.20382 0.0
C172 C 0.69487 0.61318 0.18473 0.0
O173 O 0.69647 0.59187 0.20241 0.0
N174 N 0.65363 0.64471 0.24123 0.0
C175 C 0.67162 0.64532 0.28734 0.0
C176 C 0.66888 0.6305 0.26105 0.0
C177 C 0.64798 0.66827 0.25592 0.0
N178 N 0.65854 0.66918 0.28389 0.0
O179 O 0.63924 0.66931 0.19056 0.0
H180 H 0.67626 0.61008 0.25734 0.0
H181 H 0.63508 0.68412 0.24709 0.0
O182 O 0.67375 0.62829 0.18556 0.0
C183 C 0.61585 0.68016 0.19184 0.0
O184 O 0.59679 0.66854 0.20801 0.0
N185 N 0.63271 0.59786 0.21712 0.0
C186 C 0.59262 0.55772 0.22009 0.0
C187 C 0.61374 0.55583 0.19894 0.0
C188 C 0.63399 0.57609 0.19806 0.0
C189 C 0.61468 0.59769 0.24032 0.0
C190 C 0.59472 0.57769 0.24239 0.0
H191 H 0.64755 0.57662 0.17903 0.0
H192 H 0.61281 0.61525 0.25473 0.0
H193 H 0.65139 0.63331 0.13317 0.0
H194 H 0.57017 0.60804 0.12343 0.0
H195 H 0.68194 0.63884 0.30759 0.0
H196 H 0.61305 0.54068 0.18133 0.0
H197 H 0.57939 0.5795 0.25968 0.0
C198 C 0.40121 0.09242 0.41817 0.0
C199 C 0.4033 0.08558 0.38837 0.0
N200 N 0.39218 0.10567 0.37186 0.0
N201 N 0.38945 0.11709 0.42059 0.0
C202 C 0.38364 0.12438 0.39197 0.0
H203 H 0.40749 0.08 0.43697 0.0
Co204 Co 0.3799 0.13419 0.45692 0.0
C205 C 0.39363 0.19393 0.43924 0.0
O206 O 0.40841 0.20004 0.46282 0.0
N207 N 0.3684 0.1501 0.49409 0.0
C208 C 0.36373 0.17059 0.53859 0.0
C209 C 0.37986 0.16805 0.51331 0.0
C210 C 0.34576 0.14162 0.50884 0.0
N211 N 0.34225 0.15375 0.53576 0.0
O212 O 0.34423 0.13341 0.44452 0.0
H213 H 0.39951 0.17742 0.51033 0.0
H214 H 0.3322 0.12619 0.5004 0.0
O215 O 0.38345 0.17007 0.43664 0.0
C216 C 0.3333 0.11002 0.44492 0.0
O217 O 0.34707 0.08901 0.45499 0.0
N218 N 0.41623 0.13203 0.46984 0.0
C219 C 0.45919 0.09506 0.4733 0.0
C220 C 0.4592 0.11583 0.45152 0.0
C221 C 0.43766 0.13471 0.45058 0.0
C222 C 0.41788 0.11446 0.49342 0.0
C223 C 0.43921 0.09597 0.49566 0.0
H224 H 0.43599 0.14817 0.43147 0.0
H225 H 0.40056 0.11151 0.50792 0.0
H226 H 0.37289 0.14275 0.38603 0.0
H227 H 0.41171 0.06687 0.37958 0.0
H228 H 0.36825 0.1828 0.55818 0.0
H229 H 0.47439 0.11612 0.43399 0.0
H230 H 0.43804 0.08039 0.51278 0.0
C231 C 0.91651 0.89156 0.66468 0.0
C232 C 0.92249 0.89365 0.63461 0.0
N233 N 0.89929 0.89027 0.61891 0.0
N234 N 0.88968 0.88668 0.66798 0.0
C235 C 0.87972 0.88616 0.63961 0.0
H236 H 0.93094 0.89253 0.68301 0.0
Co237 Co 0.8731 0.87706 0.70452 0.0
C238 C 0.8155 0.89625 0.68427 0.0
O239 O 0.81341 0.91784 0.70145 0.0
N240 N 0.85737 0.86559 0.74144 0.0
C241 C 0.83068 0.85588 0.78048 0.0
C242 C 0.83364 0.87177 0.75503 0.0
C243 C 0.86861 0.84637 0.75952 0.0
N244 N 0.85278 0.83992 0.78318 0.0
O245 O 0.87254 0.84152 0.69127 0.0
H246 H 0.81917 0.88656 0.74701 0.0
H247 H 0.88788 0.83666 0.75513 0.0
O248 O 0.83696 0.8816 0.68559 0.0
C249 C 0.89581 0.83041 0.69235 0.0
O250 O 0.91539 0.84206 0.70784 0.0
N251 N 0.87692 0.91313 0.71799 0.0
C252 C 0.91493 0.95528 0.72303 0.0
C253 C 0.8948 0.95585 0.70053 0.0
C254 C 0.87554 0.93472 0.69869 0.0
C255 C 0.89419 0.91405 0.74197 0.0
C256 C 0.9132 0.93491 0.74497 0.0
H257 H 0.86254 0.93368 0.67912 0.0
H258 H 0.89632 0.89661 0.75649 0.0
H259 H 0.85886 0.88143 0.63402 0.0
H260 H 0.94239 0.897 0.62498 0.0
H261 H 0.81368 0.85613 0.79585 0.0
H262 H 0.89511 0.97134 0.68328 0.0
H263 H 0.92834 0.93327 0.76257 0.0
C264 C 0.61493 0.5949 0.84747 0.0
C265 C 0.61157 0.5884 0.87726 0.0
N266 N 0.61834 0.61023 0.89406 0.0
N267 N 0.62354 0.62082 0.84522 0.0
C268 C 0.62551 0.62959 0.87397 0.0
H269 H 0.61167 0.58147 0.82858 0.0
Co270 Co 0.63382 0.6378 0.80904 0.0
C271 C 0.61556 0.69518 0.82971 0.0
O272 O 0.59441 0.69803 0.81191 0.0
N273 N 0.64585 0.65379 0.77256 0.0
C274 C 0.65664 0.68069 0.7341 0.0
C275 C 0.6407 0.67799 0.75945 0.0
C276 C 0.66467 0.64212 0.75442 0.0
N277 N 0.67183 0.65805 0.73096 0.0
O278 O 0.66927 0.63751 0.82265 0.0
H279 H 0.62666 0.693 0.76776 0.0
H280 H 0.67361 0.62247 0.75883 0.0
O281 O 0.62985 0.67351 0.82848 0.0
C282 C 0.68066 0.61439 0.8221 0.0
O283 O 0.66922 0.59437 0.80715 0.0
N284 N 0.59772 0.63545 0.79529 0.0
C285 C 0.55256 0.60162 0.78861 0.0
C286 C 0.55361 0.62085 0.81189 0.0
C287 C 0.57625 0.63808 0.81452 0.0
C288 C 0.59555 0.61904 0.77073 0.0
C289 C 0.573 0.60215 0.76681 0.0
H290 H 0.57829 0.65023 0.8346 0.0
H291 H 0.61285 0.61598 0.75627 0.0
H292 H 0.63306 0.64945 0.88009 0.0
H293 H 0.60472 0.56897 0.88574 0.0
H294 H 0.657 0.69806 0.7192 0.0
H295 H 0.53816 0.62112 0.82914 0.0
H296 H 0.57314 0.58751 0.74866 0.0
C297 C 0.40355 0.1195 0.10358 0.0
C298 C 0.40926 0.11597 0.13332 0.0
N299 N 0.38572 0.11262 0.14814 0.0
N300 N 0.37638 0.1183 0.09898 0.0
C301 C 0.36598 0.11423 0.12686 0.0
H302 H 0.4185 0.12341 0.08638 0.0
Co303 Co 0.36077 0.12518 0.06054 0.0
C304 C 0.31258 0.13123 0.08492 0.0
O305 O 0.31377 0.10624 0.07454 0.0
N306 N 0.34649 0.13394 0.02226 0.0
C307 C 0.33567 0.1333 0.97367 0.0
C308 C 0.3399 0.11759 0.99907 0.0
C309 C 0.34551 0.15939 0.01053 0.0
N310 N 0.33961 0.15966 0.98088 0.0
O311 O 0.38477 0.15514 0.05687 0.0
H312 H 0.33997 0.09561 1.00004 0.0
H313 H 0.35021 0.1775 0.02329 0.0
O314 O 0.3327 0.14691 0.07948 0.0
C315 C 0.4008 0.17521 0.05454 0.0
O316 O 0.4139 0.1793 0.02929 0.0
N317 N 0.38675 0.10184 0.04313 0.0
C318 C 0.43155 0.06795 0.03493 0.0
C319 C 0.40883 0.05897 0.05113 0.0
C320 C 0.38643 0.07612 0.05453 0.0
C321 C 0.4071 0.10977 0.02431 0.0
C322 C 0.4299 0.09313 0.0201 0.0
H323 H 0.36975 0.0698 0.0687 0.0
H324 H 0.4066 0.12954 0.01388 0.0
H325 H 0.34449 0.11273 0.13161 0.0
H326 H 0.4293 0.11678 0.14342 0.0
H327 H 0.33186 0.12573 0.95125 0.0
H328 H 0.40883 0.03935 0.06217 0.0
H329 H 0.44673 0.1007 1.00691 0.0
C330 C 0.89388 0.91595 0.35017 0.0
C331 C 0.89519 0.9223 0.38027 0.0
N332 N 0.89003 0.89955 0.39604 0.0
N333 N 0.88782 0.88932 0.34703 0.0
C334 C 0.88551 0.87995 0.37544 0.0
H335 H 0.89626 0.93 0.3317 0.0
Co336 Co 0.87865 0.87201 0.3107 0.0
C337 C 0.89799 0.81436 0.33084 0.0
O338 O 0.91809 0.81101 0.31189 0.0
N339 N 0.86753 0.85574 0.27391 0.0
C340 C 0.85871 0.82972 0.23404 0.0
C341 C 0.87445 0.83257 0.25963 0.0
C342 C 0.84789 0.8667 0.25618 0.0
N343 N 0.84192 0.85129 0.23191 0.0
O344 O 0.84307 0.87105 0.32364 0.0
H345 H 0.88977 0.81845 0.26707 0.0
H346 H 0.83765 0.88552 0.26131 0.0
O347 O 0.88389 0.83622 0.33034 0.0
C348 C 0.83174 0.89424 0.32329 0.0
O349 O 0.84311 0.91419 0.30823 0.0
N350 N 0.91469 0.87595 0.29757 0.0
C351 C 0.95658 0.91414 0.29325 0.0
C352 C 0.95714 0.89398 0.31566 0.0
C353 C 0.93614 0.87459 0.31711 0.0
C354 C 0.91574 0.89309 0.27357 0.0
C355 C 0.93652 0.91221 0.27092 0.0
H356 H 0.93497 0.86156 0.33661 0.0
H357 H 0.89841 0.89506 0.25881 0.0
H358 H 0.8789 0.85968 0.38103 0.0
H359 H 0.89936 0.9421 0.38985 0.0
H360 H 0.85973 0.8131 0.21818 0.0
H361 H 0.97242 0.89444 0.33319 0.0
H362 H 0.93494 0.92732 0.25334 0.0
C363 C 0.09387 0.39868 0.5987 0.0
C364 C 0.08716 0.40213 0.62839 0.0
N365 N 0.10887 0.39532 0.64536 0.0
N366 N 0.11981 0.39005 0.59683 0.0
C367 C 0.12835 0.38801 0.62562 0.0
H368 H 0.08052 0.40165 0.57965 0.0
Co369 Co 0.13733 0.37915 0.56153 0.0
C370 C 0.19441 0.39701 0.58451 0.0
O371 O 0.19724 0.41869 0.56759 0.0
N372 N 0.15412 0.36634 0.52582 0.0
C373 C 0.18241 0.35305 0.48961 0.0
C374 C 0.17944 0.3694 0.51467 0.0
C375 C 0.14211 0.34839 0.50681 0.0
N376 N 0.15881 0.33979 0.48473 0.0
O377 O 0.13549 0.34385 0.57542 0.0
H378 H 0.19508 0.3821 0.52432 0.0
H379 H 0.1216 0.34101 0.50957 0.0
O380 O 0.1729 0.38252 0.58216 0.0
C381 C 0.11183 0.33402 0.57172 0.0
O382 O 0.09373 0.34747 0.55588 0.0
N383 N 0.13556 0.41516 0.54701 0.0
C384 C 0.09649 0.45627 0.54127 0.0
C385 C 0.11663 0.45764 0.56378 0.0
C386 C 0.13639 0.43702 0.566 0.0
C387 C 0.11886 0.41581 0.52253 0.0
C388 C 0.09918 0.43601 0.51932 0.0
H389 H 0.14898 0.43632 0.58591 0.0
H390 H 0.11731 0.39838 0.50795 0.0
H391 H 0.14829 0.38078 0.63202 0.0
H392 H 0.06749 0.40832 0.63679 0.0
H393 H 0.20059 0.35097 0.47618 0.0
H394 H 0.11582 0.47318 0.58096 0.0
H395 H 0.08427 0.43371 0.50158 0.0
C396 C 0.61407 0.91773 0.41542 0.0
C397 C 0.61012 0.92388 0.38567 0.0
N398 N 0.61668 0.90192 0.36904 0.0
N399 N 0.62304 0.89194 0.41786 0.0
C400 C 0.62461 0.88289 0.38921 0.0
H401 H 0.61064 0.93122 0.43419 0.0
Co402 Co 0.6321 0.87497 0.45445 0.0
C403 C 0.61809 0.81632 0.43544 0.0
O404 O 0.59942 0.81243 0.45599 0.0
N405 N 0.64277 0.85855 0.49199 0.0
C406 C 0.64339 0.83996 0.53785 0.0
C407 C 0.62856 0.8431 0.51158 0.0
C408 C 0.66636 0.86393 0.50695 0.0
N409 N 0.66728 0.85298 0.53466 0.0
O410 O 0.66835 0.87762 0.44403 0.0
H411 H 0.60805 0.83591 0.5079 0.0
H412 H 0.68228 0.87696 0.4987 0.0
O413 O 0.6305 0.83916 0.43422 0.0
C414 C 0.6771 0.90166 0.44839 0.0
O415 O 0.66082 0.92041 0.45917 0.0
N416 N 0.59525 0.87623 0.4656 0.0
C417 C 0.55193 0.91294 0.46808 0.0
C418 C 0.55285 0.89279 0.44565 0.0
C419 C 0.57449 0.874 0.44524 0.0
C420 C 0.59284 0.89356 0.48934 0.0
C421 C 0.57128 0.91176 0.49118 0.0
H422 H 0.57678 0.86093 0.4259 0.0
H423 H 0.60976 0.89659 0.50448 0.0
H424 H 0.63128 0.8627 0.38326 0.0
H425 H 0.60334 0.94331 0.37709 0.0
H426 H 0.63687 0.82948 0.55793 0.0
H427 H 0.53823 0.89283 0.42744 0.0
H428 H 0.57177 0.92699 0.50872 0.0
C429 C 0.09285 0.11613 0.66574 0.0
C430 C 0.08661 0.11222 0.63601 0.0
N431 N 0.10916 0.11672 0.61953 0.0
N432 N 0.11926 0.12297 0.66832 0.0
C433 C 0.12867 0.12335 0.63978 0.0
H434 H 0.0789 0.11456 0.68438 0.0
Co435 Co 0.13581 0.13282 0.70477 0.0
C436 C 0.19284 0.11405 0.68445 0.0
O437 O 0.19374 0.09147 0.70014 0.0
N438 N 0.15192 0.14435 0.74201 0.0
C439 C 0.17119 0.14552 0.78752 0.0
C440 C 0.1679 0.1305 0.76145 0.0
C441 C 0.1465 0.168 0.75669 0.0
N442 N 0.15778 0.16921 0.7843 0.0
O443 O 0.13463 0.16838 0.69171 0.0
H444 H 0.1756 0.11021 0.75758 0.0
H445 H 0.13343 0.18382 0.74817 0.0
O446 O 0.17199 0.12949 0.68607 0.0
C447 C 0.11094 0.17779 0.69633 0.0
O448 O 0.09375 0.16421 0.71315 0.0
N449 N 0.1328 0.09644 0.71791 0.0
C450 C 0.09476 0.05421 0.72226 0.0
C451 C 0.115 0.05376 0.70001 0.0
C452 C 0.13422 0.07493 0.69849 0.0
C453 C 0.11532 0.09542 0.74161 0.0
C454 C 0.09636 0.07447 0.74431 0.0
H455 H 0.14701 0.07615 0.67886 0.0
H456 H 0.11288 0.11292 0.756 0.0
H457 H 0.14933 0.12869 0.63395 0.0
H458 H 0.06669 0.10718 0.62726 0.0
H459 H 0.18221 0.13934 0.80743 0.0
H460 H 0.11471 0.03841 0.6826 0.0
H461 H 0.0811 0.07606 0.76168 0.0
C462 C 0.8989 0.5916 0.91747 0.0
C463 C 0.90237 0.58516 0.88774 0.0
N464 N 0.89534 0.60688 0.87089 0.0
N465 N 0.88982 0.61735 0.9197 0.0
C466 C 0.88759 0.62606 0.89094 0.0
H467 H 0.90268 0.57831 0.93636 0.0
Co468 Co 0.88051 0.63458 0.95609 0.0
C469 C 0.89542 0.69139 0.93241 0.0
O470 O 0.91795 0.69331 0.94817 0.0
N471 N 0.86897 0.65097 0.9927 0.0
C472 C 0.85395 0.6797 0.02763 0.0
C473 C 0.87042 0.67683 1.00272 0.0
C474 C 0.85191 0.63853 0.01238 0.0
N475 N 0.84212 0.65557 0.03362 0.0
O476 O 0.84429 0.63027 0.94601 0.0
H477 H 0.88156 0.69302 0.99202 0.0
H478 H 0.84553 0.6176 0.01017 0.0
O479 O 0.88048 0.67019 0.93505 0.0
C480 C 0.83605 0.6061 0.95054 0.0
O481 O 0.85283 0.5876 0.96099 0.0
N482 N 0.91785 0.63542 0.96749 0.0
C483 C 0.95835 0.59578 0.97101 0.0
C484 C 0.95783 0.61431 0.94694 0.0
C485 C 0.93778 0.63474 0.94609 0.0
C486 C 0.92166 0.62139 0.99359 0.0
C487 C 0.94184 0.60156 0.99583 0.0
H488 H 0.93523 0.64604 0.92547 0.0
H489 H 0.90656 0.62189 0.01106 0.0
H490 H 0.88043 0.64609 0.88485 0.0
H491 H 0.90912 0.56568 0.87938 0.0
H492 H 0.85045 0.69837 0.03987 0.0
H493 H 0.97054 0.61127 0.92745 0.0
H494 H 0.94248 0.58895 0.01573 0.0
C495 C 0.41689 0.39497 0.16522 0.0
C496 C 0.42297 0.39794 0.13536 0.0
N497 N 0.40144 0.38949 0.11902 0.0
N498 N 0.39148 0.38501 0.16792 0.0
C499 C 0.38263 0.38164 0.13938 0.0
H500 H 0.43035 0.39925 0.18386 0.0
Co501 Co 0.37528 0.37524 0.20441 0.0
C502 C 0.31764 0.39417 0.18551 0.0
O503 O 0.31579 0.41504 0.20377 0.0
N504 N 0.35998 0.36393 0.24154 0.0
C505 C 0.33814 0.35951 0.28509 0.0
C506 C 0.34066 0.37493 0.25923 0.0
C507 C 0.36884 0.34199 0.25728 0.0
N508 N 0.35586 0.33863 0.2837 0.0
O509 O 0.37512 0.33918 0.19163 0.0
H510 H 0.32958 0.39332 0.25419 0.0
H511 H 0.38531 0.32907 0.25006 0.0
O512 O 0.33908 0.37947 0.18574 0.0
C513 C 0.3986 0.32843 0.19247 0.0
O514 O 0.4193 0.34256 0.20282 0.0
N515 N 0.37862 0.4115 0.21759 0.0
C516 C 0.41619 0.45385 0.22047 0.0
C517 C 0.39462 0.45484 0.19976 0.0
C518 C 0.37575 0.43332 0.19875 0.0
C519 C 0.39698 0.4125 0.24057 0.0
C520 C 0.416 0.43345 0.24234 0.0
H521 H 0.36211 0.43209 0.17974 0.0
H522 H 0.40002 0.39494 0.25474 0.0
H523 H 0.36297 0.37321 0.13367 0.0
H524 H 0.44221 0.40487 0.12643 0.0
H525 H 0.32433 0.3634 0.30345 0.0
H526 H 0.39419 0.47026 0.18243 0.0
H527 H 0.4322 0.43214 0.25881 0.0
H528 H 0.15147 0.13772 0.43124 0.0
H529 H 0.07577 0.08952 0.5812 0.0
H530 H 0.08266 0.0834 0.43372 0.0
H531 H 0.14749 0.14021 0.58319 0.0
H532 H 0.07825 0.0882 0.52695 0.0
H533 H 0.15074 0.13992 0.48639 0.0
C534 C 0.13616 0.12638 0.44335 0.0
C535 C 0.11713 0.11027 0.42782 0.0
C536 C 0.09354 0.0996 0.53915 0.0
C537 C 0.11616 0.11268 0.49079 0.0
C538 C 0.09202 0.10054 0.57034 0.0
C539 C 0.1113 0.1152 0.58715 0.0
C540 C 0.11454 0.11336 0.5242 0.0
C541 C 0.13223 0.12851 0.57138 0.0
C542 C 0.13583 0.12753 0.47481 0.0
C543 C 0.09794 0.09575 0.44468 0.0
N544 N 0.13325 0.12733 0.54081 0.0
N545 N 0.09792 0.09738 0.47509 0.0
H546 H 0.92249 0.57386 0.83216 0.0
H547 H 0.87449 0.65078 0.68251 0.0
H548 H 0.8702 0.64439 0.8345 0.0
H549 H 0.92353 0.57817 0.68475 0.0
H550 H 0.87216 0.64973 0.73769 0.0
H551 H 0.92276 0.57614 0.77799 0.0
C552 C 0.91085 0.58978 0.82146 0.0
C553 C 0.89606 0.60876 0.83841 0.0
C554 C 0.88337 0.63402 0.72604 0.0
C555 C 0.89672 0.61178 0.77537 0.0
C556 C 0.88458 0.63454 0.69457 0.0
C557 C 0.8994 0.61462 0.67898 0.0
C558 C 0.89691 0.61332 0.74194 0.0
C559 C 0.9123 0.5942 0.69576 0.0
C560 C 0.91116 0.59117 0.79025 0.0
C561 C 0.882 0.62931 0.82267 0.0
N562 N 0.91074 0.5941 0.72615 0.0
N563 N 0.88265 0.63025 0.79207 0.0
H564 H 0.36973 0.35578 0.08489 0.0
H565 H 0.42981 0.41457 0.9311 0.0
H566 H 0.42958 0.41976 0.07884 0.0
H567 H 0.37264 0.3482 0.93321 0.0
H568 H 0.43026 0.41548 0.98569 0.0
H569 H 0.3696 0.35236 0.02998 0.0
C570 C 0.38273 0.3692 0.07212 0.0
C571 C 0.3999 0.38794 0.08668 0.0
C572 C 0.4177 0.40053 0.97441 0.0
C573 C 0.40009 0.38383 0.02384 0.0
C574 C 0.41752 0.39998 0.94321 0.0
C575 C 0.40113 0.38134 0.92768 0.0
C576 C 0.4012 0.38238 0.9905 0.0
C577 C 0.38572 0.36273 0.94442 0.0
C578 C 0.3828 0.36706 0.04076 0.0
C579 C 0.41642 0.40464 0.06881 0.0
N580 N 0.38593 0.36386 0.97501 0.0
N581 N 0.41611 0.40216 0.0385 0.0
H582 H 0.58771 0.93363 0.33047 0.0
H583 H 0.63767 0.85793 0.18118 0.0
H584 H 0.64224 0.86483 0.33283 0.0
H585 H 0.58664 0.92922 0.18281 0.0
H586 H 0.63939 0.85882 0.23631 0.0
H587 H 0.5867 0.93091 0.27623 0.0
C588 C 0.59966 0.918 0.31972 0.0
C589 C 0.61534 0.89965 0.33663 0.0
C590 C 0.62784 0.87424 0.22453 0.0
C591 C 0.61389 0.89614 0.27368 0.0
C592 C 0.62696 0.87383 0.19306 0.0
C593 C 0.61188 0.89348 0.17725 0.0
C594 C 0.61365 0.89454 0.24026 0.0
C595 C 0.59816 0.9134 0.19391 0.0
C596 C 0.59893 0.91635 0.28852 0.0
C597 C 0.62978 0.87942 0.32096 0.0
N598 N 0.5994 0.91341 0.22433 0.0
N599 N 0.62876 0.87825 0.29039 0.0
H600 H 0.14222 0.36471 0.68098 0.0
H601 H 0.08453 0.43089 0.83221 0.0
H602 H 0.07915 0.42563 0.68409 0.0
H603 H 0.14691 0.36922 0.83197 0.0
H604 H 0.08213 0.42824 0.77778 0.0
H605 H 0.14435 0.36531 0.73589 0.0
C606 C 0.12891 0.37831 0.69311 0.0
C607 C 0.11047 0.39521 0.67774 0.0
C608 C 0.09637 0.41523 0.78955 0.0
C609 C 0.11264 0.39575 0.74068 0.0
C610 C 0.09786 0.41686 0.82072 0.0
C611 C 0.11616 0.40048 0.83681 0.0
C612 C 0.11334 0.39711 0.77404 0.0
C613 C 0.13243 0.38218 0.82057 0.0
C614 C 0.13002 0.37849 0.7245 0.0
C615 C 0.09344 0.41203 0.69482 0.0
N616 N 0.13074 0.38109 0.79007 0.0
N617 N 0.09499 0.4119 0.72524 0.0
H618 H 0.62035 0.56835 0.93407 0.0
H619 H 0.61375 0.66342 0.08039 0.0
H620 H 0.61742 0.65598 0.92906 0.0
H621 H 0.61613 0.57607 0.08284 0.0
H622 H 0.61604 0.66182 0.02512 0.0
H623 H 0.61967 0.57131 0.98847 0.0
C624 C 0.61941 0.58827 0.94426 0.0
C625 C 0.6187 0.61194 0.92657 0.0
C626 C 0.61631 0.64299 0.03771 0.0
C627 C 0.61831 0.61547 0.98963 0.0
C628 C 0.6151 0.64396 0.06913 0.0
C629 C 0.61497 0.61982 0.08583 0.0
C630 C 0.61753 0.61765 0.02305 0.0
C631 C 0.61628 0.59503 0.07052 0.0
C632 C 0.6192 0.58994 0.97554 0.0
C633 C 0.61813 0.63715 0.94155 0.0
N634 N 0.61756 0.59456 0.04004 0.0
N635 N 0.61786 0.63824 0.97214 0.0
H636 H 0.42763 0.08442 0.3322 0.0
H637 H 0.34464 0.12972 0.18492 0.0
H638 H 0.3523 0.12891 0.33757 0.0
H639 H 0.42176 0.08805 0.18496 0.0
H640 H 0.34461 0.12784 0.24025 0.0
H641 H 0.42402 0.08456 0.27779 0.0
C642 C 0.41018 0.09409 0.32188 0.0
C643 C 0.39019 0.10653 0.33952 0.0
C644 C 0.36147 0.11907 0.22804 0.0
C645 C 0.38581 0.1069 0.2767 0.0
C646 C 0.36137 0.11994 0.19649 0.0
C647 C 0.38339 0.1093 0.18026 0.0
C648 C 0.38369 0.10736 0.24329 0.0
C649 C 0.40461 0.097 0.19644 0.0
C650 C 0.40813 0.09427 0.2907 0.0
C651 C 0.36827 0.11925 0.3248 0.0
N652 N 0.40426 0.0965 0.22685 0.0
N653 N 0.3666 0.11904 0.29421 0.0
H654 H 0.86498 0.93311 0.4353 0.0
H655 H 0.93358 0.86702 0.57913 0.0
H656 H 0.91265 0.8599 0.42976 0.0
H657 H 0.85856 0.91178 0.5854 0.0
H658 H 0.92946 0.8675 0.52425 0.0
H659 H 0.86512 0.92914 0.49035 0.0
C660 C 0.87548 0.91624 0.44579 0.0
C661 C 0.88894 0.89686 0.42818 0.0
C662 C 0.91383 0.87711 0.53762 0.0
C663 C 0.8896 0.89239 0.49082 0.0
C664 C 0.91627 0.87699 0.56887 0.0
C665 C 0.89646 0.88954 0.58672 0.0
C666 C 0.89173 0.89043 0.52405 0.0
C667 C 0.87421 0.90186 0.57237 0.0
C668 C 0.87545 0.91388 0.47708 0.0
C669 C 0.90201 0.87517 0.44267 0.0
N670 N 0.8726 0.90233 0.54184 0.0
N671 N 0.90235 0.87371 0.47317 0.0
H672 H 0.29602 0.18207 0.10603 0.0
H673 H 0.18226 0.11543 0.21247 0.0
H674 H 0.2783 0.09635 0.11277 0.0
H675 H 0.18863 0.20233 0.20072 0.0
H676 H 0.21927 0.10924 0.17734 0.0
H677 H 0.25855 0.19118 0.14157 0.0
C678 C 0.28433 0.16523 0.11488 0.0
C679 C 0.29024 0.13842 0.10608 0.0
C680 C 0.2126 0.12973 0.18226 0.0
C681 C 0.24773 0.1486 0.1469 0.0
C682 C 0.1914 0.13332 0.20263 0.0
C683 C 0.18211 0.15949 0.20998 0.0
C684 C 0.22495 0.15242 0.16875 0.0
C685 C 0.19481 0.18174 0.19572 0.0
C686 C 0.26295 0.17043 0.13513 0.0
C687 C 0.27443 0.1174 0.11842 0.0
N688 N 0.21559 0.17771 0.1759 0.0
N689 N 0.25417 0.12293 0.13808 0.0
H690 H 0.87829 0.71692 0.49215 0.0
H691 H 0.88688 0.76078 0.31918 0.0
H692 H 0.84677 0.6664 0.42112 0.0
H693 H 0.89444 0.81756 0.39222 0.0
H694 H 0.87548 0.72478 0.35548 0.0
H695 H 0.88748 0.75282 0.45552 0.0
C696 C 0.87341 0.7133 0.4688 0.0
C697 C 0.86187 0.68843 0.45976 0.0
C698 C 0.87947 0.74517 0.36355 0.0
C699 C 0.87251 0.7297 0.41736 0.0
C700 C 0.88609 0.76568 0.34285 0.0
C701 C 0.89123 0.79236 0.35261 0.0
C702 C 0.8786 0.75118 0.3944 0.0
C703 C 0.88995 0.79755 0.38356 0.0
C704 C 0.87853 0.73392 0.44787 0.0
C705 C 0.85558 0.68521 0.42915 0.0
N706 N 0.88398 0.7772 0.40328 0.0
N707 N 0.86119 0.70545 0.40906 0.0
H708 H 0.34877 0.38079 0.67957 0.0
H709 H 0.19466 0.35528 0.62614 0.0
H710 H 0.29376 0.32953 0.72886 0.0
H711 H 0.24457 0.42085 0.59304 0.0
H712 H 0.23104 0.34311 0.66153 0.0
H713 H 0.31155 0.39329 0.6456 0.0
C714 C 0.32887 0.37192 0.68302 0.0
C715 C 0.32448 0.35383 0.70691 0.0
C716 C 0.23399 0.3602 0.64658 0.0
C717 C 0.28146 0.36802 0.66783 0.0
C718 C 0.21321 0.36718 0.62625 0.0
C719 C 0.21638 0.38921 0.60636 0.0
C720 C 0.25842 0.37513 0.64699 0.0
C721 C 0.24103 0.40372 0.60776 0.0
C722 C 0.30753 0.3792 0.66372 0.0
C723 C 0.29804 0.34347 0.71069 0.0
N724 N 0.261 0.39638 0.62751 0.0
N725 N 0.27763 0.35049 0.69125 0.0
H726 H 0.641 0.84918 0.92344 0.0
H727 H 0.65296 0.69329 0.87585 0.0
H728 H 0.66314 0.78703 0.98685 0.0
H729 H 0.59475 0.74706 0.83411 0.0
H730 H 0.66337 0.72878 0.91266 0.0
H731 H 0.63034 0.81357 0.88621 0.0
C732 C 0.64392 0.82801 0.92929 0.0
C733 C 0.65311 0.82091 0.95804 0.0
C734 C 0.64829 0.73276 0.89547 0.0
C735 C 0.64135 0.78019 0.91572 0.0
C736 C 0.64227 0.71248 0.87438 0.0
C737 C 0.62266 0.71694 0.85185 0.0
C738 C 0.63517 0.75807 0.89373 0.0
C739 C 0.60988 0.74253 0.85106 0.0
C740 C 0.63769 0.80773 0.90821 0.0
C741 C 0.65617 0.79321 0.96483 0.0
N742 N 0.61648 0.76214 0.87151 0.0
N743 N 0.65058 0.77386 0.94376 0.0
H744 H 0.21008 0.32114 0.05115 0.0
H745 H 0.27067 0.42332 0.17527 0.0
H746 H 0.17819 0.40146 0.06604 0.0
H747 H 0.3133 0.35171 0.14523 0.0
H748 H 0.23471 0.41392 0.13855 0.0
H749 H 0.24611 0.33024 0.0882 0.0
C750 C 0.21056 0.34061 0.0625 0.0
C751 C 0.19109 0.36055 0.05563 0.0
C752 C 0.25194 0.40026 0.13996 0.0
C753 C 0.23214 0.37113 0.09835 0.0
C754 C 0.27252 0.40558 0.16104 0.0
C755 C 0.29523 0.38833 0.16353 0.0
C756 C 0.25378 0.37737 0.12117 0.0
C757 C 0.29628 0.36565 0.14427 0.0
C758 C 0.23119 0.34587 0.08352 0.0
C759 C 0.19287 0.38561 0.07062 0.0
N760 N 0.27591 0.36083 0.12407 0.0
N761 N 0.21285 0.3901 0.09139 0.0
H762 H 0.59946 0.76343 0.43449 0.0
H763 H 0.66357 0.72356 0.27587 0.0
H764 H 0.6518 0.81824 0.38586 0.0
H765 H 0.64337 0.66327 0.34212 0.0
H766 H 0.65462 0.75952 0.31302 0.0
H767 H 0.61021 0.72754 0.39821 0.0
C768 C 0.61317 0.76804 0.41621 0.0
C769 C 0.62461 0.79416 0.41339 0.0
C770 C 0.65221 0.73844 0.31949 0.0
C771 C 0.63682 0.75288 0.37134 0.0
C772 C 0.65726 0.71795 0.29828 0.0
C773 C 0.65437 0.6904 0.30598 0.0
C774 C 0.64341 0.73144 0.34849 0.0
C775 C 0.64615 0.68422 0.33538 0.0
C776 C 0.61936 0.74742 0.39552 0.0
C777 C 0.64228 0.79862 0.38904 0.0
N778 N 0.64068 0.70452 0.35541 0.0
N779 N 0.64765 0.77835 0.36894 0.0
H780 H 0.2095 0.16444 0.66454 0.0
H781 H 0.31433 0.1064 0.54359 0.0
H782 H 0.22733 0.07904 0.65541 0.0
H783 H 0.32116 0.18809 0.57794 0.0
H784 H 0.27821 0.09732 0.57978 0.0
H785 H 0.24628 0.17471 0.62891 0.0
C786 C 0.22111 0.14784 0.65504 0.0
C787 C 0.21535 0.12081 0.66319 0.0
C788 C 0.28763 0.11723 0.57948 0.0
C789 C 0.25717 0.13243 0.62184 0.0
C790 C 0.30819 0.12254 0.55859 0.0
C791 C 0.32095 0.14814 0.5575 0.0
C792 C 0.27925 0.1377 0.5994 0.0
C793 C 0.31214 0.16803 0.57803 0.0
C794 C 0.24216 0.15374 0.63477 0.0
C795 C 0.23115 0.10018 0.6501 0.0
N796 N 0.29177 0.16247 0.59793 0.0
N797 N 0.25106 0.10638 0.62996 0.0
H798 H 0.85039 0.69501 0.89518 0.0
H799 H 0.89925 0.83301 0.81486 0.0
H800 H 0.92289 0.7389 0.92052 0.0
H801 H 0.81885 0.80011 0.80289 0.0
H802 H 0.90889 0.79746 0.85212 0.0
H803 H 0.83912 0.73157 0.8597 0.0
C804 C 0.86391 0.71233 0.89344 0.0
C805 C 0.88768 0.71372 0.91108 0.0
C806 C 0.88911 0.79792 0.8414 0.0
C807 C 0.87488 0.75578 0.87013 0.0
C808 C 0.88367 0.81819 0.8201 0.0
C809 C 0.85823 0.81951 0.80585 0.0
C810 C 0.86919 0.77827 0.84815 0.0
C811 C 0.83863 0.79993 0.8136 0.0
C812 C 0.85742 0.73325 0.87313 0.0
C813 C 0.90438 0.73675 0.90755 0.0
N814 N 0.84458 0.78 0.83397 0.0
N815 N 0.89774 0.75667 0.88753 0.0
H816 H 0.70243 0.69465 0.69961 0.0
H817 H 0.77779 0.58113 0.60078 0.0
H818 H 0.6885 0.60862 0.71026 0.0
H819 H 0.80905 0.66265 0.61039 0.0
H820 H 0.74159 0.59209 0.63633 0.0
H821 H 0.73779 0.68458 0.66249 0.0
C822 C 0.70662 0.67365 0.69407 0.0
C823 C 0.69235 0.65247 0.70833 0.0
C824 C 0.75632 0.60762 0.63065 0.0
C825 C 0.73306 0.64078 0.66561 0.0
C826 C 0.77701 0.60142 0.61018 0.0
C827 C 0.79668 0.62095 0.60242 0.0
C828 C 0.75481 0.63374 0.64335 0.0
C829 C 0.79447 0.64686 0.61566 0.0
C830 C 0.727 0.66791 0.67297 0.0
C831 C 0.69905 0.62564 0.70025 0.0
N832 N 0.77393 0.65252 0.63529 0.0
N833 N 0.71873 0.62061 0.67946 0.0
H834 H 0.31213 0.16829 0.92834 0.0
H835 H 0.40726 0.29069 0.87864 0.0
H836 H 0.373 0.20351 0.98631 0.0
H837 H 0.32609 0.28428 0.84255 0.0
H838 H 0.39667 0.25512 0.91481 0.0
H839 H 0.31833 0.20662 0.89327 0.0
C840 C 0.32666 0.18408 0.93379 0.0
C841 C 0.34192 0.18263 0.96052 0.0
C842 C 0.38106 0.26147 0.89912 0.0
C843 C 0.34934 0.22636 0.92029 0.0
C844 C 0.3871 0.28178 0.87832 0.0
C845 C 0.36754 0.29058 0.85741 0.0
C846 C 0.35538 0.24902 0.89883 0.0
C847 C 0.34173 0.27826 0.85833 0.0
C848 C 0.33007 0.20601 0.91384 0.0
C849 C 0.36047 0.2038 0.96634 0.0
N850 N 0.33648 0.25783 0.87843 0.0
N851 N 0.36382 0.22447 0.94635 0.0
H852 H 0.81405 0.81424 0.19807 0.0
H853 H 0.73387 0.92655 0.10221 0.0
H854 H 0.82219 0.9004 0.21367 0.0
H855 H 0.70599 0.84363 0.10901 0.0
H856 H 0.76986 0.91646 0.13861 0.0
H857 H 0.77836 0.82368 0.16088 0.0
C858 C 0.80851 0.83514 0.19361 0.0
C859 C 0.82124 0.85653 0.20925 0.0
C860 C 0.75593 0.90042 0.13212 0.0
C861 C 0.78021 0.86749 0.16651 0.0
C862 C 0.7354 0.90614 0.11119 0.0
C863 C 0.7168 0.88591 0.10239 0.0
C864 C 0.75839 0.87411 0.14412 0.0
C865 C 0.71977 0.85989 0.11514 0.0
C866 C 0.78795 0.8405 0.1725 0.0
C867 C 0.81285 0.88321 0.20256 0.0
N868 N 0.74023 0.8547 0.13514 0.0
N869 N 0.79306 0.8879 0.1817 0.0
H870 H 0.07973 0.23884 0.35123 0.0
H871 H 0.19371 0.30331 0.4595 0.0
H872 H 0.15676 0.19965 0.3681 0.0
H873 H 0.11011 0.32955 0.45804 0.0
H874 H 0.18243 0.26794 0.42252 0.0
H875 H 0.09232 0.27472 0.38659 0.0
C876 C 0.09933 0.23774 0.36229 0.0
C877 C 0.11712 0.216 0.35655 0.0
C878 C 0.16657 0.28148 0.43025 0.0
C879 C 0.13181 0.25743 0.39734 0.0
C880 C 0.17304 0.30181 0.45123 0.0
C881 C 0.15282 0.31949 0.46201 0.0
C882 C 0.13973 0.27896 0.41955 0.0
C883 C 0.1263 0.31628 0.45068 0.0
C884 C 0.1065 0.25829 0.3826 0.0
C885 C 0.1423 0.21591 0.37172 0.0
N886 N 0.12059 0.29657 0.43009 0.0
N887 N 0.14889 0.23626 0.39131 0.0
H888 H 0.72147 0.84618 0.52718 0.0
H889 H 0.76359 0.9172 0.68127 0.0
H890 H 0.6616 0.86997 0.59228 0.0
H891 H 0.81571 0.85849 0.6383 0.0
H892 H 0.72726 0.90545 0.64566 0.0
H893 H 0.75762 0.85553 0.56419 0.0
C894 C 0.71599 0.85328 0.54935 0.0
C895 C 0.68852 0.85706 0.55681 0.0
C896 C 0.74666 0.89514 0.64407 0.0
C897 C 0.72976 0.86861 0.59901 0.0
C898 C 0.7675 0.9019 0.66436 0.0
C899 C 0.793 0.88899 0.66288 0.0
C900 C 0.75132 0.87567 0.62159 0.0
C901 C 0.7966 0.86921 0.64035 0.0
C902 C 0.73658 0.85859 0.57045 0.0
C903 C 0.6825 0.86645 0.5858 0.0
N904 N 0.77618 0.86339 0.62051 0.0
N905 N 0.70291 0.8722 0.60569 0.0
H906 H 0.09869 0.26543 0.93307 0.0
H907 H 0.16089 0.22358 0.77503 0.0
H908 H 0.15241 0.31912 0.88481 0.0
H909 H 0.14553 0.16383 0.84348 0.0
H910 H 0.15242 0.25986 0.8119 0.0
H911 H 0.11002 0.22885 0.89778 0.0
C912 C 0.1128 0.26963 0.91505 0.0
C913 C 0.12442 0.29565 0.91196 0.0
C914 C 0.15102 0.23882 0.81891 0.0
C915 C 0.13718 0.2537 0.87103 0.0
C916 C 0.15578 0.21814 0.79787 0.0
C917 C 0.15408 0.19066 0.80625 0.0
C918 C 0.14367 0.23206 0.84844 0.0
C919 C 0.14736 0.18474 0.83618 0.0
C920 C 0.11933 0.24865 0.89496 0.0
C921 C 0.14273 0.2996 0.88811 0.0
N922 N 0.14208 0.20521 0.85606 0.0
N923 N 0.14827 0.27904 0.86845 0.0
H924 H 0.80438 0.69056 0.05628 0.0
H925 H 0.73958 0.58191 0.17034 0.0
H926 H 0.83149 0.60736 0.06162 0.0
H927 H 0.70114 0.65823 0.14847 0.0
H928 H 0.77535 0.592 0.13374 0.0
H929 H 0.76876 0.68034 0.09292 0.0
C930 C 0.80305 0.67018 0.06532 0.0
C931 C 0.82121 0.64985 0.05579 0.0
C932 C 0.7591 0.60655 0.13694 0.0
C933 C 0.7801 0.63792 0.09807 0.0
C934 C 0.73864 0.60084 0.15797 0.0
C935 C 0.71716 0.61923 0.16275 0.0
C936 C 0.75844 0.63101 0.12058 0.0
C937 C 0.71719 0.64338 0.14574 0.0
C938 C 0.78251 0.6643 0.08615 0.0
C939 C 0.81797 0.62367 0.06808 0.0
N940 N 0.73745 0.64858 0.12564 0.0
N941 N 0.79801 0.61853 0.0886 0.0
H942 H 0.37198 0.2865 0.27354 0.0
H943 H 0.39025 0.24912 0.44739 0.0
H944 H 0.35073 0.34198 0.34452 0.0
H945 H 0.38378 0.18801 0.37848 0.0
H946 H 0.3803 0.28421 0.40979 0.0
H947 H 0.38079 0.25112 0.31113 0.0
C948 C 0.36925 0.29131 0.29703 0.0
C949 C 0.36061 0.31739 0.30578 0.0
C950 C 0.38099 0.26311 0.40289 0.0
C951 C 0.37086 0.27679 0.34918 0.0
C952 C 0.38681 0.24302 0.42434 0.0
C953 C 0.38772 0.21539 0.41625 0.0
C954 C 0.37657 0.25575 0.37278 0.0
C955 C 0.38292 0.20888 0.38596 0.0
C956 C 0.37415 0.27101 0.31851 0.0
C957 C 0.35714 0.3222 0.33665 0.0
N958 N 0.37779 0.22883 0.36537 0.0
N959 N 0.36246 0.30224 0.35715 0.0
H960 H 0.03727 0.06541 0.34643 0.0
H961 H 0.98081 0.94214 0.24716 0.0
H962 H 0.02122 0.0707 0.25135 0.0
H963 H 0.97073 0.9441 0.34326 0.0
H964 H 1.00135 0.98728 0.24928 0.0
H965 H 0.01655 0.02002 0.34684 0.0
C966 C 0.02893 0.05737 0.32574 0.0
C967 C 0.03113 0.0721 0.29875 0.0
C968 C 0.99479 0.97781 0.26996 0.0
C969 C 0.00828 0.01959 0.29898 0.0
C970 C 0.98314 0.95192 0.26878 0.0
C971 C 0.97378 0.93921 0.29502 0.0
C972 C 0.9974 0.99128 0.2976 0.0
C973 C 0.97785 0.95288 0.32245 0.0
C974 C 0.0174 0.03126 0.32597 0.0
C975 C 0.02044 0.06012 0.27261 0.0
N976 N 0.98922 0.97821 0.32302 0.0
N977 N 0.00978 0.0346 0.27335 0.0
H978 H 0.06604 0.47665 0.49432 0.0
H979 H 0.94648 0.5394 0.59405 0.0
H980 H 0.06763 0.47321 0.59109 0.0
H981 H 0.93866 0.52076 0.49987 0.0
H982 H 0.99143 0.5177 0.59425 0.0
H983 H 0.02084 0.49675 0.4965 0.0
C984 C 0.05705 0.48023 0.5161 0.0
C985 C 0.0709 0.47289 0.54253 0.0
C986 C 0.97972 0.51809 0.57364 0.0
C987 C 0.01867 0.49639 0.54516 0.0
C988 C 0.95387 0.53019 0.57357 0.0
C989 C 0.9386 0.53191 0.54688 0.0
C990 C 0.99054 0.5078 0.54678 0.0
C991 C 0.94969 0.52017 0.52091 0.0
C992 C 0.0311 0.49173 0.5173 0.0
C993 C 0.05809 0.47873 0.57005 0.0
N994 N 0.97494 0.50888 0.52148 0.0
N995 N 0.03274 0.49004 0.57064 0.0
H996 H 0.44663 0.46834 0.737 0.0
H997 H 0.53991 0.56837 0.83581 0.0
H998 H 0.47097 0.4509 0.82808 0.0
H999 H 0.52186 0.58143 0.74222 0.0
H1000 H 0.51244 0.52676 0.83455 0.0
H1001 H 0.47222 0.51094 0.73938 0.0
C1002 C 0.45734 0.47343 0.7575 0.0
C1003 C 0.45664 0.45585 0.7823 0.0
C1004 C 0.51423 0.53887 0.81436 0.0
C1005 C 0.48608 0.5048 0.78523 0.0
C1006 C 0.52965 0.5628 0.81516 0.0
C1007 C 0.53293 0.57857 0.78913 0.0
C1008 C 0.50184 0.53066 0.78736 0.0
C1009 C 0.51981 0.56992 0.76279 0.0
C1010 C 0.47204 0.49776 0.75883 0.0
C1011 C 0.47122 0.46352 0.80819 0.0
N1012 N 0.50489 0.54661 0.76258 0.0
N1013 N 0.48524 0.4874 0.80899 0.0
H1014 H 0.4669 0.05815 0.98846 0.0
H1015 H 0.57369 0.97494 0.08937 0.0
H1016 H 0.45543 0.04214 0.08274 0.0
H1017 H 0.5844 0.99056 0.99493 0.0
H1018 H 0.53149 1.0013 0.08814 0.0
H1019 H 0.51049 0.03426 0.99076 0.0
C1020 C 0.47355 0.04962 0.00965 0.0
C1021 C 0.4574 0.05214 0.03539 0.0
C1022 C 0.54322 0.99923 0.06775 0.0
C1023 C 0.50748 0.02483 0.03829 0.0
C1024 C 0.56754 0.98449 0.06853 0.0
C1025 C 0.58279 0.9807 0.04224 0.0
C1026 C 0.534 0.0103 0.04047 0.0
C1027 C 0.57332 0.99291 0.01571 0.0
C1028 C 0.49845 0.03595 0.01096 0.0
C1029 C 0.46698 0.04039 0.06219 0.0
N1030 N 0.54954 0.00702 0.01548 0.0
N1031 N 0.49137 0.02734 0.06296 0.0
H1032 H 0.06162 0.45616 0.92682 0.0
H1033 H 0.94033 0.54665 0.99205 0.0
H1034 H 0.01049 0.43089 0.99995 0.0
H1035 H 0.00733 0.58217 0.94336 0.0
H1036 H 0.96209 0.50249 0.9887 0.0
H1037 H 0.03809 0.50034 0.92587 0.0
C1038 C 0.04499 0.45976 0.94221 0.0
C1039 C 0.03766 0.43981 0.96325 0.0
C1040 C 0.97219 0.51994 0.97892 0.0
C1041 C 0.01091 0.49024 0.96252 0.0
C1042 C 0.95991 0.54541 0.98109 0.0
C1043 C 0.97232 0.5687 0.96882 0.0
C1044 C 0.99705 0.51722 0.96395 0.0
C1045 C 0.99703 0.56503 0.95346 0.0
C1046 C 0.0318 0.48502 0.94187 0.0
C1047 C 0.0165 0.44564 0.9832 0.0
N1048 N 0.00862 0.53983 0.95155 0.0
N1049 N 1.00382 0.47025 0.98228 0.0
H1050 H 0.42202 0.50972 0.21981 0.0
H1051 H 0.58524 0.50348 0.20522 0.0
H1052 H 0.46736 0.43518 0.21142 0.0
H1053 H 0.54063 0.5765 0.22635 0.0
H1054 H 0.54189 0.47878 0.20146 0.0
H1055 H 0.46495 0.53538 0.21646 0.0
C1056 C 0.44099 0.49884 0.21705 0.0
C1057 C 0.44126 0.47035 0.2164 0.0
C1058 C 0.54164 0.50022 0.20699 0.0
C1059 C 0.49034 0.49934 0.21233 0.0
C1060 C 0.56641 0.51432 0.20908 0.0
C1061 C 0.56674 0.54197 0.21688 0.0
C1062 C 0.51698 0.51392 0.21243 0.0
C1063 C 0.54155 0.555 0.22127 0.0
C1064 C 0.46549 0.5134 0.21521 0.0
C1065 C 0.46637 0.45716 0.2126 0.0
N1066 N 0.51783 0.5409 0.21911 0.0
N1067 N 0.48984 0.4717 0.2108 0.0
H1068 H 0.54037 0.94427 0.41829 0.0
H1069 H 0.48437 0.06672 0.51852 0.0
H1070 H 0.52405 0.93856 0.51309 0.0
H1071 H 0.47288 0.06594 0.42254 0.0
H1072 H 0.50459 0.02158 0.51557 0.0
H1073 H 0.51904 0.98953 0.41778 0.0
C1074 C 0.53173 0.95218 0.43884 0.0
C1075 C 0.5341 0.9375 0.46583 0.0
C1076 C 0.49782 0.03129 0.49507 0.0
C1077 C 0.51061 0.98969 0.46556 0.0
C1078 C 0.48638 0.05721 0.49672 0.0
C1079 C 0.47667 0.07025 0.47079 0.0
C1080 C 0.49992 0.01807 0.46724 0.0
C1081 C 0.48029 0.05688 0.44312 0.0
C1082 C 0.51988 0.97818 0.43858 0.0
C1083 C 0.52301 0.94915 0.49183 0.0
N1084 N 0.4915 0.03148 0.44208 0.0
N1085 N 0.5121 0.97453 0.49109 0.0
H1086 H 0.06504 0.03912 0.67233 0.0
H1087 H 0.9421 0.97934 0.77001 0.0
H1088 H 0.06703 0.02993 0.76857 0.0
H1089 H 0.94492 0.97107 0.67371 0.0
H1090 H 0.98637 1.00167 0.76888 0.0
H1091 H 0.02063 0.0163 0.67132 0.0
C1092 C 0.05648 0.03185 0.6932 0.0
C1093 C 0.06997 0.03654 0.72062 0.0
C1094 C 0.9773 0.99512 0.74793 0.0
C1095 C 0.0186 0.01113 0.71964 0.0
C1096 C 0.9519 0.98241 0.74855 0.0
C1097 C 0.93964 0.97309 0.72195 0.0
C1098 C 0.99081 0.9988 0.72049 0.0
C1099 C 0.95333 0.97811 0.69479 0.0
C1100 C 0.03092 0.0191 0.6926 0.0
C1101 C 0.05739 0.02713 0.74693 0.0
N1102 N 0.9782 0.99048 0.69477 0.0
N1103 N 0.03248 0.01512 0.74578 0.0
H1104 H 0.29419 0.14773 0.43837 0.0
H1105 H 0.19487 0.0658 0.33521 0.0
H1106 H 0.31415 0.06438 0.4173 0.0
H1107 H 0.21423 0.15081 0.32336 0.0
H1108 H 0.23429 0.06132 0.36881 0.0
H1109 H 0.2564 0.14549 0.40322 0.0
C1110 C 0.29027 0.12884 0.42659 0.0
C1111 C 0.30735 0.10638 0.43 0.0
C1112 C 0.23009 0.08071 0.35822 0.0
C1113 C 0.26501 0.10391 0.38962 0.0
C1114 C 0.2079 0.08325 0.33898 0.0
C1115 C 0.20122 0.10889 0.32735 0.0
C1116 C 0.245 0.10403 0.3656 0.0
C1117 C 0.2185 0.13089 0.33263 0.0
C1118 C 0.26901 0.12765 0.40641 0.0
C1119 C 0.30131 0.08213 0.41488 0.0
N1120 N 0.23945 0.12808 0.35192 0.0
N1121 N 0.28059 0.08156 0.39477 0.0
H1122 H 0.87705 0.71978 0.55314 0.0
H1123 H 0.93693 0.79333 0.6937 0.0
H1124 H 0.9479 0.69099 0.60062 0.0
H1125 H 0.87197 0.82445 0.63811 0.0
H1126 H 0.94841 0.76095 0.65395 0.0
H1127 H 0.88329 0.76443 0.57567 0.0
C1128 C 0.89419 0.7232 0.56803 0.0
C1129 C 0.91155 0.70199 0.576 0.0
C1130 C 0.93191 0.77515 0.65034 0.0
C1131 C 0.91821 0.75207 0.60271 0.0
C1132 C 0.92517 0.79327 0.6731 0.0
C1133 C 0.90286 0.81061 0.66945 0.0
C1134 C 0.91621 0.77472 0.62395 0.0
C1135 C 0.88863 0.81055 0.64223 0.0
C1136 C 0.89785 0.74858 0.58085 0.0
C1137 C 0.93389 0.7071 0.5946 0.0
N1138 N 0.89543 0.79267 0.62059 0.0
N1139 N 0.93618 0.73161 0.6082 0.0
H1140 H 0.20179 0.44682 0.9214 0.0
H1141 H 0.33302 0.37248 0.85785 0.0
H1142 H 0.22334 0.36356 0.94079 0.0
H1143 H 0.29305 0.43939 0.81299 0.0
H1144 H 0.30148 0.3771 0.89948 0.0
H1145 H 0.24398 0.45178 0.89288 0.0
C1146 C 0.21576 0.42982 0.92024 0.0
C1147 C 0.20915 0.40462 0.93294 0.0
C1148 C 0.29989 0.39097 0.88068 0.0
C1149 C 0.25697 0.41019 0.90083 0.0
C1150 C 0.31782 0.38836 0.85689 0.0
C1151 C 0.31521 0.40525 0.83169 0.0
C1152 C 0.27932 0.4106 0.8792 0.0
C1153 C 0.29535 0.42563 0.83179 0.0
C1154 C 0.23966 0.43264 0.90393 0.0
C1155 C 0.22769 0.38317 0.93083 0.0
N1156 N 0.27787 0.42758 0.85514 0.0
N1157 N 0.25078 0.38637 0.91476 0.0
H1158 H 0.63126 0.78735 0.04969 0.0
H1159 H 0.57408 0.71656 0.19329 0.0
H1160 H 0.56545 0.82032 0.10193 0.0
H1161 H 0.63895 0.68624 0.13746 0.0
H1162 H 0.56156 0.74848 0.15332 0.0
H1163 H 0.62341 0.74301 0.07229 0.0
C1164 C 0.61484 0.78493 0.06564 0.0
C1165 C 0.59942 0.80715 0.07488 0.0
C1166 C 0.57824 0.7345 0.14972 0.0
C1167 C 0.59121 0.75745 0.10182 0.0
C1168 C 0.58557 0.71666 0.17259 0.0
C1169 C 0.60813 0.69968 0.1689 0.0
C1170 C 0.59357 0.73494 0.12318 0.0
C1171 C 0.62202 0.69978 0.14158 0.0
C1172 C 0.61029 0.75974 0.07854 0.0
C1173 C 0.57797 0.80337 0.09492 0.0
N1174 N 0.6146 0.71732 0.11983 0.0
N1175 N 0.57497 0.77898 0.10861 0.0
H1176 H 0.68516 0.63837 0.87626 0.0
H1177 H 0.82204 0.56296 0.91616 0.0
H1178 H 0.72001 0.57526 0.8211 0.0
H1179 H 0.78956 0.63243 0.96284 0.0
H1180 H 0.77854 0.55765 0.88975 0.0
H1181 H 0.71687 0.62715 0.9159 0.0
C1182 C 0.69979 0.6223 0.8724 0.0
C1183 C 0.70068 0.60819 0.84517 0.0
C1184 C 0.78069 0.57354 0.90641 0.0
C1185 C 0.7372 0.5954 0.89035 0.0
C1186 C 0.80533 0.57646 0.9215 0.0
C1187 C 0.80903 0.59846 0.94095 0.0
C1188 C 0.76009 0.59278 0.91124 0.0
C1189 C 0.78728 0.61558 0.94738 0.0
C1190 C 0.71768 0.61567 0.89518 0.0
C1191 C 0.71928 0.58692 0.84169 0.0
N1192 N 0.76369 0.61257 0.93221 0.0
N1193 N 0.73733 0.58146 0.86394 0.0
H1194 H 0.37145 0.17637 0.1062 0.0
H1195 H 0.4452 0.30894 0.16807 0.0
H1196 H 0.43872 0.21537 0.06123 0.0
H1197 H 0.36187 0.28754 0.18719 0.0
H1198 H 0.45005 0.26666 0.1396 0.0
H1199 H 0.37524 0.2093 0.14667 0.0
C1200 C 0.3872 0.19168 0.10496 0.0
C1201 C 0.40449 0.19353 0.08008 0.0
C1202 C 0.4309 0.27108 0.15051 0.0
C1203 C 0.40894 0.231 0.1263 0.0
C1204 C 0.42814 0.29502 0.16677 0.0
C1205 C 0.40298 0.30165 0.17945 0.0
C1206 C 0.40842 0.25375 0.14743 0.0
C1207 C 0.38144 0.28318 0.17722 0.0
C1208 C 0.38935 0.21041 0.12809 0.0
C1209 C 0.4247 0.21361 0.0798 0.0
N1210 N 0.3846 0.26003 0.16123 0.0
N1211 N 0.42624 0.23183 0.10255 0.0
H1212 H 0.79678 0.9372 0.32572 0.0
H1213 H 0.72148 0.87172 0.4613 0.0
H1214 H 0.82447 0.86694 0.37528 0.0
H1215 H 0.69547 0.9466 0.41993 0.0
H1216 H 0.76631 0.87772 0.43949 0.0
H1217 H 0.76546 0.94778 0.36671 0.0
C1218 C 0.7962 0.92407 0.34523 0.0
C1219 C 0.8123 0.90066 0.34678 0.0
C1220 C 0.75105 0.89319 0.43551 0.0
C1221 C 0.77763 0.91294 0.39373 0.0
C1222 C 0.72554 0.88967 0.44794 0.0
C1223 C 0.705 0.90829 0.44137 0.0
C1224 C 0.75531 0.91471 0.41532 0.0
C1225 C 0.71101 0.93161 0.42477 0.0
C1226 C 0.77871 0.93029 0.36873 0.0
C1227 C 0.81158 0.88464 0.3727 0.0
N1228 N 0.73558 0.9338 0.41136 0.0
N1229 N 0.79433 0.89099 0.39507 0.0
H1230 H 0.11192 0.18087 0.63635 0.0
H1231 H 0.12164 0.32915 0.63083 0.0
H1232 H 0.087 0.2242 0.71572 0.0
H1233 H 0.08059 0.29065 0.55643 0.0
H1234 H 0.10802 0.29157 0.66315 0.0
H1235 H 0.09893 0.21998 0.60579 0.0
C1236 C 0.10346 0.19867 0.64716 0.0
C1237 C 0.10114 0.20012 0.67832 0.0
C1238 C 0.10146 0.29166 0.63992 0.0
C1239 C 0.08648 0.2443 0.64404 0.0
C1240 C 0.10965 0.31271 0.62144 0.0
C1241 C 0.10281 0.31218 0.591 0.0
C1242 C 0.08727 0.2697 0.62744 0.0
C1243 C 0.08663 0.29112 0.57981 0.0
C1244 C 0.09563 0.22065 0.6298 0.0
C1245 C 0.08949 0.22298 0.69162 0.0
N1246 N 0.08002 0.27004 0.59795 0.0
N1247 N 0.08329 0.24481 0.67436 0.0
loop_
_geom_bond_atom_site_label_1
_geom_bond_atom_site_label_2
_geom_bond_distance
_geom_bond_site_symmetry_2
_ccdc_geom_bond_type
C0 C1 1.351 . S
C0 N3 1.368 . S
C0 H5 0.931 . S
C1 C0 1.351 . S
C1 N2 1.373 . S
C1 H29 0.930 . S
N2 C1 1.373 . S
N2 C4 1.340 . S
N3 C0 1.368 . S
N3 C4 1.321 . S
N3 Co6 2.135 . S
C4 N2 1.340 . S
C4 N3 1.321 . S
C4 H28 0.930 . S
H5 C0 0.931 . S
Co6 N3 2.135 . S
Co6 N9 2.121 . S
Co6 O14 2.055 . S
Co6 O17 2.039 . S
Co6 N20 2.140 . S
C7 O8 1.227 . S
C7 O17 1.265 . S
O8 C7 1.227 . S
N9 Co6 2.121 . S
N9 C11 1.375 . S
N9 C12 1.313 . S
C10 C11 1.338 . S
C10 N13 1.377 . S
C10 H30 0.930 . S
C11 N9 1.375 . S
C11 C10 1.338 . S
C11 H15 0.931 . S
C12 N9 1.313 . S
C12 N13 1.344 . S
C12 H16 0.930 . S
N13 C10 1.377 . S
N13 C12 1.344 . S
O14 Co6 2.055 . S
O14 C18 1.253 . S
H15 C11 0.931 . S
H16 C12 0.930 . S
O17 Co6 2.039 . S
O17 C7 1.265 . S
C18 O14 1.253 . S
C18 O19 1.227 . S
O19 C18 1.227 . S
N20 Co6 2.140 . S
N20 C23 1.346 . S
N20 C24 1.345 . S
C21 C22 1.387 . S
C21 C25 1.391 . S
C22 C21 1.387 . S
C22 C23 1.369 . S
C22 H31 0.929 . S
C23 N20 1.346 . S
C23 C22 1.369 . S
C23 H26 0.928 . S
C24 N20 1.345 . S
C24 C25 1.371 . S
C24 H27 0.931 . S
C25 C21 1.391 . S
C25 C24 1.371 . S
C25 H32 0.930 . S
H26 C23 0.928 . S
H27 C24 0.931 . S
H28 C4 0.930 . S
H29 C1 0.930 . S
H30 C10 0.930 . S
H31 C22 0.929 . S
H32 C25 0.930 . S
C33 C34 1.351 . S
C33 N36 1.368 . S
C33 H38 0.931 . S
C34 C33 1.351 . S
C34 N35 1.373 . S
C34 H62 0.930 . S
N35 C34 1.373 . S
N35 C37 1.340 . S
N36 C33 1.368 . S
N36 C37 1.321 . S
N36 Co39 2.135 . S
C37 N35 1.340 . S
C37 N36 1.321 . S
C37 H61 0.930 . S
H38 C33 0.931 . S
Co39 N36 2.135 . S
Co39 N42 2.121 . S
Co39 O47 2.055 . S
Co39 O50 2.039 . S
Co39 N53 2.140 . S
C40 O41 1.227 . S
C40 O50 1.265 . S
O41 C40 1.227 . S
N42 Co39 2.121 . S
N42 C44 1.375 . S
N42 C45 1.313 . S
C43 C44 1.338 . S
C43 N46 1.377 . S
C43 H63 0.930 . S
C44 N42 1.375 . S
C44 C43 1.338 . S
C44 H48 0.931 . S
C45 N42 1.313 . S
C45 N46 1.344 . S
C45 H49 0.930 . S
N46 C43 1.377 . S
N46 C45 1.344 . S
O47 Co39 2.055 . S
O47 C51 1.253 . S
H48 C44 0.931 . S
H49 C45 0.930 . S
O50 Co39 2.039 . S
O50 C40 1.265 . S
C51 O47 1.253 . S
C51 O52 1.227 . S
O52 C51 1.227 . S
N53 Co39 2.140 . S
N53 C56 1.346 . S
N53 C57 1.345 . S
C54 C55 1.387 . S
C54 C58 1.391 . S
C55 C54 1.387 . S
C55 C56 1.369 . S
C55 H64 0.929 . S
C56 N53 1.346 . S
C56 C55 1.369 . S
C56 H59 0.928 . S
C57 N53 1.345 . S
C57 C58 1.371 . S
C57 H60 0.931 . S
C58 C54 1.391 . S
C58 C57 1.371 . S
C58 H65 0.930 . S
H59 C56 0.928 . S
H60 C57 0.931 . S
H61 C37 0.930 . S
H62 C34 0.930 . S
H63 C43 0.930 . S
H64 C55 0.929 . S
H65 C58 0.930 . S
C66 C67 1.351 . S
C66 N69 1.368 . S
C66 H71 0.931 . S
C67 C66 1.351 . S
C67 N68 1.373 . S
C67 H95 0.930 . S
N68 C67 1.373 . S
N68 C70 1.340 . S
N69 C66 1.368 . S
N69 C70 1.321 . S
N69 Co72 2.135 . S
C70 N68 1.340 . S
C70 N69 1.321 . S
C70 H94 0.930 . S
H71 C66 0.931 . S
Co72 N69 2.135 . S
Co72 N75 2.121 . S
Co72 O80 2.055 . S
Co72 O83 2.039 . S
Co72 N86 2.140 . S
C73 O74 1.227 . S
C73 O83 1.265 . S
O74 C73 1.227 . S
N75 Co72 2.121 . S
N75 C77 1.375 . S
N75 C78 1.313 . S
C76 C77 1.338 . S
C76 N79 1.377 . S
C76 H96 0.930 . S
C77 N75 1.375 . S
C77 C76 1.338 . S
C77 H81 0.931 . S
C78 N75 1.313 . S
C78 N79 1.344 . S
C78 H82 0.930 . S
N79 C76 1.377 . S
N79 C78 1.344 . S
O80 Co72 2.055 . S
O80 C84 1.253 . S
H81 C77 0.931 . S
H82 C78 0.930 . S
O83 Co72 2.039 . S
O83 C73 1.265 . S
C84 O80 1.253 . S
C84 O85 1.227 . S
O85 C84 1.227 . S
N86 Co72 2.140 . S
N86 C89 1.346 . S
N86 C90 1.345 . S
C87 C88 1.387 . S
C87 C91 1.391 . S
C88 C87 1.387 . S
C88 C89 1.369 . S
C88 H97 0.929 . S
C89 N86 1.346 . S
C89 C88 1.369 . S
C89 H92 0.928 . S
C90 N86 1.345 . S
C90 C91 1.371 . S
C90 H93 0.931 . S
C91 C87 1.391 . S
C91 C90 1.371 . S
C91 H98 0.930 . S
H92 C89 0.928 . S
H93 C90 0.931 . S
H94 C70 0.930 . S
H95 C67 0.930 . S
H96 C76 0.930 . S
H97 C88 0.929 . S
H98 C91 0.930 . S
C99 C100 1.351 . S
C99 N102 1.368 . S
C99 H104 0.931 . S
C100 C99 1.351 . S
C100 N101 1.373 . S
C100 H128 0.930 . S
N101 C100 1.373 . S
N101 C103 1.340 . S
N102 C99 1.368 . S
N102 C103 1.321 . S
N102 Co105 2.135 . S
C103 N101 1.340 . S
C103 N102 1.321 . S
C103 H127 0.930 . S
H104 C99 0.931 . S
Co105 N102 2.135 . S
Co105 N108 2.121 . S
Co105 O113 2.055 . S
Co105 O116 2.039 . S
Co105 N119 2.140 . S
C106 O107 1.227 . S
C106 O116 1.265 . S
O107 C106 1.227 . S
N108 Co105 2.121 . S
N108 C110 1.375 . S
N108 C111 1.313 . S
C109 C110 1.338 1_556 S
C109 N112 1.377 . S
C109 H129 0.930 . S
C110 N108 1.375 . S
C110 C109 1.338 1_554 S
C110 H114 0.931 . S
C111 N108 1.313 . S
C111 N112 1.344 1_554 S
C111 H115 0.930 . S
N112 C109 1.377 . S
N112 C111 1.344 1_556 S
O113 Co105 2.055 . S
O113 C117 1.253 . S
H114 C110 0.931 . S
H115 C111 0.930 . S
O116 Co105 2.039 . S
O116 C106 1.265 . S
C117 O113 1.253 . S
C117 O118 1.227 . S
O118 C117 1.227 . S
N119 Co105 2.140 . S
N119 C122 1.346 . S
N119 C123 1.345 . S
C120 C121 1.387 . S
C120 C124 1.391 . S
C121 C120 1.387 . S
C121 C122 1.369 . S
C121 H130 0.929 . S
C122 N119 1.346 . S
C122 C121 1.369 . S
C122 H125 0.928 . S
C123 N119 1.345 . S
C123 C124 1.371 . S
C123 H126 0.931 . S
C124 C120 1.391 . S
C124 C123 1.371 . S
C124 H131 0.930 . S
H125 C122 0.928 . S
H126 C123 0.931 . S
H127 C103 0.930 . S
H128 C100 0.930 . S
H129 C109 0.930 . S
H130 C121 0.929 . S
H131 C124 0.930 . S
C132 C133 1.351 . S
C132 N135 1.368 . S
C132 H137 0.931 . S
C133 C132 1.351 . S
C133 N134 1.373 . S
C133 H161 0.930 . S
N134 C133 1.373 . S
N134 C136 1.340 . S
N135 C132 1.368 . S
N135 C136 1.321 . S
N135 Co138 2.135 . S
C136 N134 1.340 . S
C136 N135 1.321 . S
C136 H160 0.930 . S
H137 C132 0.931 . S
Co138 N135 2.135 . S
Co138 N141 2.121 . S
Co138 O146 2.055 . S
Co138 O149 2.039 . S
Co138 N152 2.140 . S
C139 O140 1.227 . S
C139 O149 1.265 . S
O140 C139 1.227 . S
N141 Co138 2.121 . S
N141 C143 1.375 . S
N141 C144 1.313 . S
C142 C143 1.338 1_554 S
C142 N145 1.377 . S
C142 H162 0.930 . S
C143 N141 1.375 . S
C143 C142 1.338 1_556 S
C143 H147 0.931 . S
C144 N141 1.313 . S
C144 N145 1.344 1_556 S
C144 H148 0.930 . S
N145 C142 1.377 . S
N145 C144 1.344 1_554 S
O146 Co138 2.055 . S
O146 C150 1.253 . S
H147 C143 0.931 . S
H148 C144 0.930 . S
O149 Co138 2.039 . S
O149 C139 1.265 . S
C150 O146 1.253 . S
C150 O151 1.227 . S
O151 C150 1.227 . S
N152 Co138 2.140 . S
N152 C155 1.346 . S
N152 C156 1.345 . S
C153 C154 1.387 . S
C153 C157 1.391 . S
C154 C153 1.387 . S
C154 C155 1.369 . S
C154 H163 0.929 . S
C155 N152 1.346 . S
C155 C154 1.369 . S
C155 H158 0.928 . S
C156 N152 1.345 . S
C156 C157 1.371 . S
C156 H159 0.931 . S
C157 C153 1.391 . S
C157 C156 1.371 . S
C157 H164 0.930 . S
H158 C155 0.928 . S
H159 C156 0.931 . S
H160 C136 0.930 . S
H161 C133 0.930 . S
H162 C142 0.930 . S
H163 C154 0.929 . S
H164 C157 0.930 . S
C165 C166 1.351 . S
C165 N168 1.368 . S
C165 H170 0.931 . S
C166 C165 1.351 . S
C166 N167 1.373 . S
C166 H194 0.930 . S
N167 C166 1.373 . S
N167 C169 1.340 . S
N168 C165 1.368 . S
N168 C169 1.321 . S
N168 Co171 2.135 . S
C169 N167 1.340 . S
C169 N168 1.321 . S
C169 H193 0.930 . S
H170 C165 0.931 . S
Co171 N168 2.135 . S
Co171 N174 2.121 . S
Co171 O179 2.055 . S
Co171 O182 2.039 . S
Co171 N185 2.140 . S
C172 O173 1.227 . S
C172 O182 1.265 . S
O173 C172 1.227 . S
N174 Co171 2.121 . S
N174 C176 1.375 . S
N174 C177 1.313 . S
C175 C176 1.338 . S
C175 N178 1.377 . S
C175 H195 0.930 . S
C176 N174 1.375 . S
C176 C175 1.338 . S
C176 H180 0.931 . S
C177 N174 1.313 . S
C177 N178 1.344 . S
C177 H181 0.930 . S
N178 C175 1.377 . S
N178 C177 1.344 . S
O179 Co171 2.055 . S
O179 C183 1.253 . S
H180 C176 0.931 . S
H181 C177 0.930 . S
O182 Co171 2.039 . S
O182 C172 1.265 . S
C183 O179 1.253 . S
C183 O184 1.227 . S
O184 C183 1.227 . S
N185 Co171 2.140 . S
N185 C188 1.346 . S
N185 C189 1.345 . S
C186 C187 1.387 . S
C186 C190 1.391 . S
C187 C186 1.387 . S
C187 C188 1.369 . S
C187 H196 0.929 . S
C188 N185 1.346 . S
C188 C187 1.369 . S
C188 H191 0.928 . S
C189 N185 1.345 . S
C189 C190 1.371 . S
C189 H192 0.931 . S
C190 C186 1.391 . S
C190 C189 1.371 . S
C190 H197 0.930 . S
H191 C188 0.928 . S
H192 C189 0.931 . S
H193 C169 0.930 . S
H194 C166 0.930 . S
H195 C175 0.930 . S
H196 C187 0.929 . S
H197 C190 0.930 . S
C198 C199 1.351 . S
C198 N201 1.368 . S
C198 H203 0.931 . S
C199 C198 1.351 . S
C199 N200 1.373 . S
C199 H227 0.930 . S
N200 C199 1.373 . S
N200 C202 1.340 . S
N201 C198 1.368 . S
N201 C202 1.321 . S
N201 Co204 2.135 . S
C202 N200 1.340 . S
C202 N201 1.321 . S
C202 H226 0.930 . S
H203 C198 0.931 . S
Co204 N201 2.135 . S
Co204 N207 2.121 . S
Co204 O212 2.055 . S
Co204 O215 2.039 . S
Co204 N218 2.140 . S
C205 O206 1.227 . S
C205 O215 1.265 . S
O206 C205 1.227 . S
N207 Co204 2.121 . S
N207 C209 1.375 . S
N207 C210 1.313 . S
C208 C209 1.338 . S
C208 N211 1.377 . S
C208 H228 0.930 . S
C209 N207 1.375 . S
C209 C208 1.338 . S
C209 H213 0.931 . S
C210 N207 1.313 . S
C210 N211 1.344 . S
C210 H214 0.930 . S
N211 C208 1.377 . S
N211 C210 1.344 . S
O212 Co204 2.055 . S
O212 C216 1.253 . S
H213 C209 0.931 . S
H214 C210 0.930 . S
O215 Co204 2.039 . S
O215 C205 1.265 . S
C216 O212 1.253 . S
C216 O217 1.227 . S
O217 C216 1.227 . S
N218 Co204 2.140 . S
N218 C221 1.346 . S
N218 C222 1.345 . S
C219 C220 1.387 . S
C219 C223 1.391 . S
C220 C219 1.387 . S
C220 C221 1.369 . S
C220 H229 0.929 . S
C221 N218 1.346 . S
C221 C220 1.369 . S
C221 H224 0.928 . S
C222 N218 1.345 . S
C222 C223 1.371 . S
C222 H225 0.931 . S
C223 C219 1.391 . S
C223 C222 1.371 . S
C223 H230 0.930 . S
H224 C221 0.928 . S
H225 C222 0.931 . S
H226 C202 0.930 . S
H227 C199 0.930 . S
H228 C208 0.930 . S
H229 C220 0.929 . S
H230 C223 0.930 . S
C231 C232 1.351 . S
C231 N234 1.368 . S
C231 H236 0.931 . S
C232 C231 1.351 . S
C232 N233 1.373 . S
C232 H260 0.930 . S
N233 C232 1.373 . S
N233 C235 1.340 . S
N234 C231 1.368 . S
N234 C235 1.321 . S
N234 Co237 2.135 . S
C235 N233 1.340 . S
C235 N234 1.321 . S
C235 H259 0.930 . S
H236 C231 0.931 . S
Co237 N234 2.135 . S
Co237 N240 2.121 . S
Co237 O245 2.055 . S
Co237 O248 2.039 . S
Co237 N251 2.140 . S
C238 O239 1.227 . S
C238 O248 1.265 . S
O239 C238 1.227 . S
N240 Co237 2.121 . S
N240 C242 1.375 . S
N240 C243 1.313 . S
C241 C242 1.338 . S
C241 N244 1.377 . S
C241 H261 0.930 . S
C242 N240 1.375 . S
C242 C241 1.338 . S
C242 H246 0.931 . S
C243 N240 1.313 . S
C243 N244 1.344 . S
C243 H247 0.930 . S
N244 C241 1.377 . S
N244 C243 1.344 . S
O245 Co237 2.055 . S
O245 C249 1.253 . S
H246 C242 0.931 . S
H247 C243 0.930 . S
O248 Co237 2.039 . S
O248 C238 1.265 . S
C249 O245 1.253 . S
C249 O250 1.227 . S
O250 C249 1.227 . S
N251 Co237 2.140 . S
N251 C254 1.346 . S
N251 C255 1.345 . S
C252 C253 1.387 . S
C252 C256 1.391 . S
C253 C252 1.387 . S
C253 C254 1.369 . S
C253 H262 0.929 . S
C254 N251 1.346 . S
C254 C253 1.369 . S
C254 H257 0.928 . S
C255 N251 1.345 . S
C255 C256 1.371 . S
C255 H258 0.931 . S
C256 C252 1.391 . S
C256 C255 1.371 . S
C256 H263 0.930 . S
H257 C254 0.928 . S
H258 C255 0.931 . S
H259 C235 0.930 . S
H260 C232 0.930 . S
H261 C241 0.930 . S
H262 C253 0.929 . S
H263 C256 0.930 . S
C264 C265 1.351 . S
C264 N267 1.368 . S
C264 H269 0.931 . S
C265 C264 1.351 . S
C265 N266 1.373 . S
C265 H293 0.930 . S
N266 C265 1.373 . S
N266 C268 1.340 . S
N267 C264 1.368 . S
N267 C268 1.321 . S
N267 Co270 2.135 . S
C268 N266 1.340 . S
C268 N267 1.321 . S
C268 H292 0.930 . S
H269 C264 0.931 . S
Co270 N267 2.135 . S
Co270 N273 2.121 . S
Co270 O278 2.055 . S
Co270 O281 2.039 . S
Co270 N284 2.140 . S
C271 O272 1.227 . S
C271 O281 1.265 . S
O272 C271 1.227 . S
N273 Co270 2.121 . S
N273 C275 1.375 . S
N273 C276 1.313 . S
C274 C275 1.338 . S
C274 N277 1.377 . S
C274 H294 0.930 . S
C275 N273 1.375 . S
C275 C274 1.338 . S
C275 H279 0.931 . S
C276 N273 1.313 . S
C276 N277 1.344 . S
C276 H280 0.930 . S
N277 C274 1.377 . S
N277 C276 1.344 . S
O278 Co270 2.055 . S
O278 C282 1.253 . S
H279 C275 0.931 . S
H280 C276 0.930 . S
O281 Co270 2.039 . S
O281 C271 1.265 . S
C282 O278 1.253 . S
C282 O283 1.227 . S
O283 C282 1.227 . S
N284 Co270 2.140 . S
N284 C287 1.346 . S
N284 C288 1.345 . S
C285 C286 1.387 . S
C285 C289 1.391 . S
C286 C285 1.387 . S
C286 C287 1.369 . S
C286 H295 0.929 . S
C287 N284 1.346 . S
C287 C286 1.369 . S
C287 H290 0.928 . S
C288 N284 1.345 . S
C288 C289 1.371 . S
C288 H291 0.931 . S
C289 C285 1.391 . S
C289 C288 1.371 . S
C289 H296 0.930 . S
H290 C287 0.928 . S
H291 C288 0.931 . S
H292 C268 0.930 . S
H293 C265 0.930 . S
H294 C274 0.930 . S
H295 C286 0.929 . S
H296 C289 0.930 . S
C297 C298 1.351 . S
C297 N300 1.368 . S
C297 H302 0.931 . S
C298 C297 1.351 . S
C298 N299 1.373 . S
C298 H326 0.930 . S
N299 C298 1.373 . S
N299 C301 1.340 . S
N300 C297 1.368 . S
N300 C301 1.321 . S
N300 Co303 2.135 . S
C301 N299 1.340 . S
C301 N300 1.321 . S
C301 H325 0.930 . S
H302 C297 0.931 . S
Co303 N300 2.135 . S
Co303 N306 2.121 . S
Co303 O311 2.055 . S
Co303 O314 2.039 . S
Co303 N317 2.140 . S
C304 O305 1.227 . S
C304 O314 1.265 . S
O305 C304 1.227 . S
N306 Co303 2.121 . S
N306 C308 1.375 . S
N306 C309 1.313 . S
C307 C308 1.338 1_556 S
C307 N310 1.377 . S
C307 H327 0.930 . S
C308 N306 1.375 . S
C308 C307 1.338 1_554 S
C308 H312 0.931 . S
C309 N306 1.313 . S
C309 N310 1.344 1_554 S
C309 H313 0.930 . S
N310 C307 1.377 . S
N310 C309 1.344 1_556 S
O311 Co303 2.055 . S
O311 C315 1.253 . S
H312 C308 0.931 . S
H313 C309 0.930 . S
O314 Co303 2.039 . S
O314 C304 1.265 . S
C315 O311 1.253 . S
C315 O316 1.227 . S
O316 C315 1.227 . S
N317 Co303 2.140 . S
N317 C320 1.346 . S
N317 C321 1.345 . S
C318 C319 1.387 . S
C318 C322 1.391 . S
C319 C318 1.387 . S
C319 C320 1.369 . S
C319 H328 0.929 . S
C320 N317 1.346 . S
C320 C319 1.369 . S
C320 H323 0.928 . S
C321 N317 1.345 . S
C321 C322 1.371 . S
C321 H324 0.931 . S
C322 C318 1.391 . S
C322 C321 1.371 . S
C322 H329 0.930 . S
H323 C320 0.928 . S
H324 C321 0.931 . S
H325 C301 0.930 . S
H326 C298 0.930 . S
H327 C307 0.930 . S
H328 C319 0.929 . S
H329 C322 0.930 . S
C330 C331 1.351 . S
C330 N333 1.368 . S
C330 H335 0.931 . S
C331 C330 1.351 . S
C331 N332 1.373 . S
C331 H359 0.930 . S
N332 C331 1.373 . S
N332 C334 1.340 . S
N333 C330 1.368 . S
N333 C334 1.321 . S
N333 Co336 2.135 . S
C334 N332 1.340 . S
C334 N333 1.321 . S
C334 H358 0.930 . S
H335 C330 0.931 . S
Co336 N333 2.135 . S
Co336 N339 2.121 . S
Co336 O344 2.055 . S
Co336 O347 2.039 . S
Co336 N350 2.140 . S
C337 O338 1.227 . S
C337 O347 1.265 . S
O338 C337 1.227 . S
N339 Co336 2.121 . S
N339 C341 1.375 . S
N339 C342 1.313 . S
C340 C341 1.338 . S
C340 N343 1.377 . S
C340 H360 0.930 . S
C341 N339 1.375 . S
C341 C340 1.338 . S
C341 H345 0.931 . S
C342 N339 1.313 . S
C342 N343 1.344 . S
C342 H346 0.930 . S
N343 C340 1.377 . S
N343 C342 1.344 . S
O344 Co336 2.055 . S
O344 C348 1.253 . S
H345 C341 0.931 . S
H346 C342 0.930 . S
O347 Co336 2.039 . S
O347 C337 1.265 . S
C348 O344 1.253 . S
C348 O349 1.227 . S
O349 C348 1.227 . S
N350 Co336 2.140 . S
N350 C353 1.346 . S
N350 C354 1.345 . S
C351 C352 1.387 . S
C351 C355 1.391 . S
C352 C351 1.387 . S
C352 C353 1.369 . S
C352 H361 0.929 . S
C353 N350 1.346 . S
C353 C352 1.369 . S
C353 H356 0.928 . S
C354 N350 1.345 . S
C354 C355 1.371 . S
C354 H357 0.931 . S
C355 C351 1.391 . S
C355 C354 1.371 . S
C355 H362 0.930 . S
H356 C353 0.928 . S
H357 C354 0.931 . S
H358 C334 0.930 . S
H359 C331 0.930 . S
H360 C340 0.930 . S
H361 C352 0.929 . S
H362 C355 0.930 . S
C363 C364 1.351 . S
C363 N366 1.368 . S
C363 H368 0.931 . S
C364 C363 1.351 . S
C364 N365 1.373 . S
C364 H392 0.930 . S
N365 C364 1.373 . S
N365 C367 1.340 . S
N366 C363 1.368 . S
N366 C367 1.321 . S
N366 Co369 2.135 . S
C367 N365 1.340 . S
C367 N366 1.321 . S
C367 H391 0.930 . S
H368 C363 0.931 . S
Co369 N366 2.135 . S
Co369 N372 2.121 . S
Co369 O377 2.055 . S
Co369 O380 2.039 . S
Co369 N383 2.140 . S
C370 O371 1.227 . S
C370 O380 1.265 . S
O371 C370 1.227 . S
N372 Co369 2.121 . S
N372 C374 1.375 . S
N372 C375 1.313 . S
C373 C374 1.338 . S
C373 N376 1.377 . S
C373 H393 0.930 . S
C374 N372 1.375 . S
C374 C373 1.338 . S
C374 H378 0.931 . S
C375 N372 1.313 . S
C375 N376 1.344 . S
C375 H379 0.930 . S
N376 C373 1.377 . S
N376 C375 1.344 . S
O377 Co369 2.055 . S
O377 C381 1.253 . S
H378 C374 0.931 . S
H379 C375 0.930 . S
O380 Co369 2.039 . S
O380 C370 1.265 . S
C381 O377 1.253 . S
C381 O382 1.227 . S
O382 C381 1.227 . S
N383 Co369 2.140 . S
N383 C386 1.346 . S
N383 C387 1.345 . S
C384 C385 1.387 . S
C384 C388 1.391 . S
C385 C384 1.387 . S
C385 C386 1.369 . S
C385 H394 0.929 . S
C386 N383 1.346 . S
C386 C385 1.369 . S
C386 H389 0.928 . S
C387 N383 1.345 . S
C387 C388 1.371 . S
C387 H390 0.931 . S
C388 C384 1.391 . S
C388 C387 1.371 . S
C388 H395 0.930 . S
H389 C386 0.928 . S
H390 C387 0.931 . S
H391 C367 0.930 . S
H392 C364 0.930 . S
H393 C373 0.930 . S
H394 C385 0.929 . S
H395 C388 0.930 . S
C396 C397 1.351 . S
C396 N399 1.368 . S
C396 H401 0.931 . S
C397 C396 1.351 . S
C397 N398 1.373 . S
C397 H425 0.930 . S
N398 C397 1.373 . S
N398 C400 1.340 . S
N399 C396 1.368 . S
N399 C400 1.321 . S
N399 Co402 2.135 . S
C400 N398 1.340 . S
C400 N399 1.321 . S
C400 H424 0.930 . S
H401 C396 0.931 . S
Co402 N399 2.135 . S
Co402 N405 2.121 . S
Co402 O410 2.055 . S
Co402 O413 2.039 . S
Co402 N416 2.140 . S
C403 O404 1.227 . S
C403 O413 1.265 . S
O404 C403 1.227 . S
N405 Co402 2.121 . S
N405 C407 1.375 . S
N405 C408 1.313 . S
C406 C407 1.338 . S
C406 N409 1.377 . S
C406 H426 0.930 . S
C407 N405 1.375 . S
C407 C406 1.338 . S
C407 H411 0.931 . S
C408 N405 1.313 . S
C408 N409 1.344 . S
C408 H412 0.930 . S
N409 C406 1.377 . S
N409 C408 1.344 . S
O410 Co402 2.055 . S
O410 C414 1.253 . S
H411 C407 0.931 . S
H412 C408 0.930 . S
O413 Co402 2.039 . S
O413 C403 1.265 . S
C414 O410 1.253 . S
C414 O415 1.227 . S
O415 C414 1.227 . S
N416 Co402 2.140 . S
N416 C419 1.346 . S
N416 C420 1.345 . S
C417 C418 1.387 . S
C417 C421 1.391 . S
C418 C417 1.387 . S
C418 C419 1.369 . S
C418 H427 0.929 . S
C419 N416 1.346 . S
C419 C418 1.369 . S
C419 H422 0.928 . S
C420 N416 1.345 . S
C420 C421 1.371 . S
C420 H423 0.931 . S
C421 C417 1.391 . S
C421 C420 1.371 . S
C421 H428 0.930 . S
H422 C419 0.928 . S
H423 C420 0.931 . S
H424 C400 0.930 . S
H425 C397 0.930 . S
H426 C406 0.930 . S
H427 C418 0.929 . S
H428 C421 0.930 . S
C429 C430 1.351 . S
C429 N432 1.368 . S
C429 H434 0.931 . S
C430 C429 1.351 . S
C430 N431 1.373 . S
C430 H458 0.930 . S
N431 C430 1.373 . S
N431 C433 1.340 . S
N432 C429 1.368 . S
N432 C433 1.321 . S
N432 Co435 2.135 . S
C433 N431 1.340 . S
C433 N432 1.321 . S
C433 H457 0.930 . S
H434 C429 0.931 . S
Co435 N432 2.135 . S
Co435 N438 2.121 . S
Co435 O443 2.055 . S
Co435 O446 2.039 . S
Co435 N449 2.140 . S
C436 O437 1.227 . S
C436 O446 1.265 . S
O437 C436 1.227 . S
N438 Co435 2.121 . S
N438 C440 1.375 . S
N438 C441 1.313 . S
C439 C440 1.338 . S
C439 N442 1.377 . S
C439 H459 0.930 . S
C440 N438 1.375 . S
C440 C439 1.338 . S
C440 H444 0.931 . S
C441 N438 1.313 . S
C441 N442 1.344 . S
C441 H445 0.930 . S
N442 C439 1.377 . S
N442 C441 1.344 . S
O443 Co435 2.055 . S
O443 C447 1.253 . S
H444 C440 0.931 . S
H445 C441 0.930 . S
O446 Co435 2.039 . S
O446 C436 1.265 . S
C447 O443 1.253 . S
C447 O448 1.227 . S
O448 C447 1.227 . S
N449 Co435 2.140 . S
N449 C452 1.346 . S
N449 C453 1.345 . S
C450 C451 1.387 . S
C450 C454 1.391 . S
C451 C450 1.387 . S
C451 C452 1.369 . S
C451 H460 0.929 . S
C452 N449 1.346 . S
C452 C451 1.369 . S
C452 H455 0.928 . S
C453 N449 1.345 . S
C453 C454 1.371 . S
C453 H456 0.931 . S
C454 C450 1.391 . S
C454 C453 1.371 . S
C454 H461 0.930 . S
H455 C452 0.928 . S
H456 C453 0.931 . S
H457 C433 0.930 . S
H458 C430 0.930 . S
H459 C439 0.930 . S
H460 C451 0.929 . S
H461 C454 0.930 . S
C462 C463 1.351 . S
C462 N465 1.368 . S
C462 H467 0.931 . S
C463 C462 1.351 . S
C463 N464 1.373 . S
C463 H491 0.930 . S
N464 C463 1.373 . S
N464 C466 1.340 . S
N465 C462 1.368 . S
N465 C466 1.321 . S
N465 Co468 2.135 . S
C466 N464 1.340 . S
C466 N465 1.321 . S
C466 H490 0.930 . S
H467 C462 0.931 . S
Co468 N465 2.135 . S
Co468 N471 2.121 . S
Co468 O476 2.055 . S
Co468 O479 2.039 . S
Co468 N482 2.140 . S
C469 O470 1.227 . S
C469 O479 1.265 . S
O470 C469 1.227 . S
N471 Co468 2.121 . S
N471 C473 1.375 . S
N471 C474 1.313 . S
C472 C473 1.338 1_554 S
C472 N475 1.377 . S
C472 H492 0.930 . S
C473 N471 1.375 . S
C473 C472 1.338 1_556 S
C473 H477 0.931 . S
C474 N471 1.313 . S
C474 N475 1.344 1_556 S
C474 H478 0.930 . S
N475 C472 1.377 . S
N475 C474 1.344 1_554 S
O476 Co468 2.055 . S
O476 C480 1.253 . S
H477 C473 0.931 . S
H478 C474 0.930 . S
O479 Co468 2.039 . S
O479 C469 1.265 . S
C480 O476 1.253 . S
C480 O481 1.227 . S
O481 C480 1.227 . S
N482 Co468 2.140 . S
N482 C485 1.346 . S
N482 C486 1.345 . S
C483 C484 1.387 . S
C483 C487 1.391 . S
C484 C483 1.387 . S
C484 C485 1.369 . S
C484 H493 0.929 . S
C485 N482 1.346 . S
C485 C484 1.369 . S
C485 H488 0.928 . S
C486 N482 1.345 . S
C486 C487 1.371 . S
C486 H489 0.931 . S
C487 C483 1.391 . S
C487 C486 1.371 . S
C487 H494 0.930 . S
H488 C485 0.928 . S
H489 C486 0.931 . S
H490 C466 0.930 . S
H491 C463 0.930 . S
H492 C472 0.930 . S
H493 C484 0.929 . S
H494 C487 0.930 . S
C495 C496 1.351 . S
C495 N498 1.368 . S
C495 H500 0.931 . S
C496 C495 1.351 . S
C496 N497 1.373 . S
C496 H524 0.930 . S
N497 C496 1.373 . S
N497 C499 1.340 . S
N498 C495 1.368 . S
N498 C499 1.321 . S
N498 Co501 2.135 . S
C499 N497 1.340 . S
C499 N498 1.321 . S
C499 H523 0.930 . S
H500 C495 0.931 . S
Co501 N498 2.135 . S
Co501 N504 2.121 . S
Co501 O509 2.055 . S
Co501 O512 2.039 . S
Co501 N515 2.140 . S
C502 O503 1.227 . S
C502 O512 1.265 . S
O503 C502 1.227 . S
N504 Co501 2.121 . S
N504 C506 1.375 . S
N504 C507 1.313 . S
C505 C506 1.338 . S
C505 N508 1.377 . S
C505 H525 0.930 . S
C506 N504 1.375 . S
C506 C505 1.338 . S
C506 H510 0.931 . S
C507 N504 1.313 . S
C507 N508 1.344 . S
C507 H511 0.930 . S
N508 C505 1.377 . S
N508 C507 1.344 . S
O509 Co501 2.055 . S
O509 C513 1.253 . S
H510 C506 0.931 . S
H511 C507 0.930 . S
O512 Co501 2.039 . S
O512 C502 1.265 . S
C513 O509 1.253 . S
C513 O514 1.227 . S
O514 C513 1.227 . S
N515 Co501 2.140 . S
N515 C518 1.346 . S
N515 C519 1.345 . S
C516 C517 1.387 . S
C516 C520 1.391 . S
C517 C516 1.387 . S
C517 C518 1.369 . S
C517 H526 0.929 . S
C518 N515 1.346 . S
C518 C517 1.369 . S
C518 H521 0.928 . S
C519 N515 1.345 . S
C519 C520 1.371 . S
C519 H522 0.931 . S
C520 C516 1.391 . S
C520 C519 1.371 . S
C520 H527 0.930 . S
H521 C518 0.928 . S
H522 C519 0.931 . S
H523 C499 0.930 . S
H524 C496 0.930 . S
H525 C505 0.930 . S
H526 C517 0.929 . S
H527 C520 0.930 . S
H528 C534 0.930 . S
H529 C538 0.930 . S
H530 C543 0.929 . S
H531 C541 0.929 . S
H532 C536 0.929 . S
H533 C542 0.929 . S
C534 H528 0.930 . S
C534 C535 1.367 . S
C534 C542 1.378 . S
C535 C534 1.367 . S
C535 C543 1.433 . S
C536 H532 0.929 . S
C536 C538 1.378 . S
C536 C540 1.350 . S
C537 C540 1.463 . S
C537 C542 1.350 . S
C537 N545 1.427 . S
C538 H529 0.930 . S
C538 C536 1.378 . S
C538 C539 1.367 . S
C539 C538 1.367 . S
C539 C541 1.433 . S
C540 C536 1.350 . S
C540 C537 1.463 . S
C540 N544 1.427 . S
C541 H531 0.929 . S
C541 C539 1.433 . S
C541 N544 1.384 . S
C542 H533 0.929 . S
C542 C534 1.378 . S
C542 C537 1.350 . S
C543 H530 0.929 . S
C543 C535 1.433 . S
C543 N545 1.384 . S
N544 C540 1.427 . S
N544 C541 1.384 . S
N545 C537 1.427 . S
N545 C543 1.384 . S
H546 C552 0.930 . S
H547 C556 0.930 . S
H548 C561 0.929 . S
H549 C559 0.929 . S
H550 C554 0.929 . S
H551 C560 0.929 . S
C552 H546 0.930 . S
C552 C553 1.367 . S
C552 C560 1.378 . S
C553 C552 1.367 . S
C553 C561 1.433 . S
C554 H550 0.929 . S
C554 C556 1.378 . S
C554 C558 1.350 . S
C555 C558 1.463 . S
C555 C560 1.350 . S
C555 N563 1.427 . S
C556 H547 0.930 . S
C556 C554 1.378 . S
C556 C557 1.367 . S
C557 C556 1.367 . S
C557 C559 1.433 . S
C558 C554 1.350 . S
C558 C555 1.463 . S
C558 N562 1.427 . S
C559 H549 0.929 . S
C559 C557 1.433 . S
C559 N562 1.384 . S
C560 H551 0.929 . S
C560 C552 1.378 . S
C560 C555 1.350 . S
C561 H548 0.929 . S
C561 C553 1.433 . S
C561 N563 1.384 . S
N562 C558 1.427 . S
N562 C559 1.384 . S
N563 C555 1.427 . S
N563 C561 1.384 . S
H564 C570 0.930 . S
H565 C574 0.930 . S
H566 C579 0.929 . S
H567 C577 0.929 . S
H568 C572 0.929 . S
H569 C578 0.929 . S
C570 H564 0.930 . S
C570 C571 1.367 . S
C570 C578 1.378 . S
C571 C570 1.367 . S
C571 C579 1.433 . S
C572 H568 0.929 . S
C572 C574 1.378 . S
C572 C576 1.350 . S
C573 C576 1.463 1_554 S
C573 C578 1.350 . S
C573 N581 1.427 . S
C574 H565 0.930 . S
C574 C572 1.378 . S
C574 C575 1.367 . S
C575 C574 1.367 . S
C575 C577 1.433 . S
C576 C572 1.350 . S
C576 C573 1.463 1_556 S
C576 N580 1.427 . S
C577 H567 0.929 . S
C577 C575 1.433 . S
C577 N580 1.384 . S
C578 H569 0.929 . S
C578 C570 1.378 . S
C578 C573 1.350 . S
C579 H566 0.929 . S
C579 C571 1.433 . S
C579 N581 1.384 . S
N580 C576 1.427 . S
N580 C577 1.384 . S
N581 C573 1.427 . S
N581 C579 1.384 . S
H582 C588 0.930 . S
H583 C592 0.930 . S
H584 C597 0.929 . S
H585 C595 0.929 . S
H586 C590 0.929 . S
H587 C596 0.929 . S
C588 H582 0.930 . S
C588 C589 1.367 . S
C588 C596 1.378 . S
C589 C588 1.367 . S
C589 C597 1.433 . S
C590 H586 0.929 . S
C590 C592 1.378 . S
C590 C594 1.350 . S
C591 C594 1.463 . S
C591 C596 1.350 . S
C591 N599 1.427 . S
C592 H583 0.930 . S
C592 C590 1.378 . S
C592 C593 1.367 . S
C593 C592 1.367 . S
C593 C595 1.433 . S
C594 C590 1.350 . S
C594 C591 1.463 . S
C594 N598 1.427 . S
C595 H585 0.929 . S
C595 C593 1.433 . S
C595 N598 1.384 . S
C596 H587 0.929 . S
C596 C588 1.378 . S
C596 C591 1.350 . S
C597 H584 0.929 . S
C597 C589 1.433 . S
C597 N599 1.384 . S
N598 C594 1.427 . S
N598 C595 1.384 . S
N599 C591 1.427 . S
N599 C597 1.384 . S
H600 C606 0.930 . S
H601 C610 0.930 . S
H602 C615 0.929 . S
H603 C613 0.929 . S
H604 C608 0.929 . S
H605 C614 0.929 . S
C606 H600 0.930 . S
C606 C607 1.367 . S
C606 C614 1.378 . S
C607 C606 1.367 . S
C607 C615 1.433 . S
C608 H604 0.929 . S
C608 C610 1.378 . S
C608 C612 1.350 . S
C609 C612 1.463 . S
C609 C614 1.350 . S
C609 N617 1.427 . S
C610 H601 0.930 . S
C610 C608 1.378 . S
C610 C611 1.367 . S
C611 C610 1.367 . S
C611 C613 1.433 . S
C612 C608 1.350 . S
C612 C609 1.463 . S
C612 N616 1.427 . S
C613 H603 0.929 . S
C613 C611 1.433 . S
C613 N616 1.384 . S
C614 H605 0.929 . S
C614 C606 1.378 . S
C614 C609 1.350 . S
C615 H602 0.929 . S
C615 C607 1.433 . S
C615 N617 1.384 . S
N616 C612 1.427 . S
N616 C613 1.384 . S
N617 C609 1.427 . S
N617 C615 1.384 . S
H618 C624 0.930 . S
H619 C628 0.930 . S
H620 C633 0.929 . S
H621 C631 0.929 . S
H622 C626 0.929 . S
H623 C632 0.929 . S
C624 H618 0.930 . S
C624 C625 1.367 . S
C624 C632 1.378 . S
C625 C624 1.367 . S
C625 C633 1.433 . S
C626 H622 0.929 . S
C626 C628 1.378 . S
C626 C630 1.350 . S
C627 C630 1.463 1_556 S
C627 C632 1.350 . S
C627 N635 1.427 . S
C628 H619 0.930 . S
C628 C626 1.378 . S
C628 C629 1.367 . S
C629 C628 1.367 . S
C629 C631 1.433 . S
C630 C626 1.350 . S
C630 C627 1.463 1_554 S
C630 N634 1.427 . S
C631 H621 0.929 . S
C631 C629 1.433 . S
C631 N634 1.384 . S
C632 H623 0.929 . S
C632 C624 1.378 . S
C632 C627 1.350 . S
C633 H620 0.929 . S
C633 C625 1.433 . S
C633 N635 1.384 . S
N634 C630 1.427 . S
N634 C631 1.384 . S
N635 C627 1.427 . S
N635 C633 1.384 . S
H636 C642 0.930 . S
H637 C646 0.930 . S
H638 C651 0.929 . S
H639 C649 0.929 . S
H640 C644 0.929 . S
H641 C650 0.929 . S
C642 H636 0.930 . S
C642 C643 1.367 . S
C642 C650 1.378 . S
C643 C642 1.367 . S
C643 C651 1.433 . S
C644 H640 0.929 . S
C644 C646 1.378 . S
C644 C648 1.350 . S
C645 C648 1.463 . S
C645 C650 1.350 . S
C645 N653 1.427 . S
C646 H637 0.930 . S
C646 C644 1.378 . S
C646 C647 1.367 . S
C647 C646 1.367 . S
C647 C649 1.433 . S
C648 C644 1.350 . S
C648 C645 1.463 . S
C648 N652 1.427 . S
C649 H639 0.929 . S
C649 C647 1.433 . S
C649 N652 1.384 . S
C650 H641 0.929 . S
C650 C642 1.378 . S
C650 C645 1.350 . S
C651 H638 0.929 . S
C651 C643 1.433 . S
C651 N653 1.384 . S
N652 C648 1.427 . S
N652 C649 1.384 . S
N653 C645 1.427 . S
N653 C651 1.384 . S
H654 C660 0.930 . S
H655 C664 0.930 . S
H656 C669 0.929 . S
H657 C667 0.929 . S
H658 C662 0.929 . S
H659 C668 0.929 . S
C660 H654 0.930 . S
C660 C661 1.367 . S
C660 C668 1.378 . S
C661 C660 1.367 . S
C661 C669 1.433 . S
C662 H658 0.929 . S
C662 C664 1.378 . S
C662 C666 1.350 . S
C663 C666 1.463 . S
C663 C668 1.350 . S
C663 N671 1.427 . S
C664 H655 0.930 . S
C664 C662 1.378 . S
C664 C665 1.367 . S
C665 C664 1.367 . S
C665 C667 1.433 . S
C666 C662 1.350 . S
C666 C663 1.463 . S
C666 N670 1.427 . S
C667 H657 0.929 . S
C667 C665 1.433 . S
C667 N670 1.384 . S
C668 H659 0.929 . S
C668 C660 1.378 . S
C668 C663 1.350 . S
C669 H656 0.929 . S
C669 C661 1.433 . S
C669 N671 1.384 . S
N670 C666 1.427 . S
N670 C667 1.384 . S
N671 C663 1.427 . S
N671 C669 1.384 . S
H672 C678 0.930 . S
H673 C682 0.930 . S
H674 C687 0.929 . S
H675 C685 0.929 . S
H676 C680 0.929 . S
H677 C686 0.929 . S
C678 H672 0.930 . S
C678 C679 1.367 . S
C678 C686 1.378 . S
C679 C678 1.367 . S
C679 C687 1.433 . S
C680 H676 0.929 . S
C680 C682 1.378 . S
C680 C684 1.350 . S
C681 C684 1.463 . S
C681 C686 1.350 . S
C681 N689 1.427 . S
C682 H673 0.930 . S
C682 C680 1.378 . S
C682 C683 1.367 . S
C683 C682 1.367 . S
C683 C685 1.433 . S
C684 C680 1.350 . S
C684 C681 1.463 . S
C684 N688 1.427 . S
C685 H675 0.929 . S
C685 C683 1.433 . S
C685 N688 1.384 . S
C686 H677 0.929 . S
C686 C678 1.378 . S
C686 C681 1.350 . S
C687 H674 0.929 . S
C687 C679 1.433 . S
C687 N689 1.384 . S
N688 C684 1.427 . S
N688 C685 1.384 . S
N689 C681 1.427 . S
N689 C687 1.384 . S
H690 C696 0.930 . S
H691 C700 0.930 . S
H692 C705 0.929 . S
H693 C703 0.929 . S
H694 C698 0.929 . S
H695 C704 0.929 . S
C696 H690 0.930 . S
C696 C697 1.367 . S
C696 C704 1.378 . S
C697 C696 1.367 . S
C697 C705 1.433 . S
C698 H694 0.929 . S
C698 C700 1.378 . S
C698 C702 1.350 . S
C699 C702 1.463 . S
C699 C704 1.350 . S
C699 N707 1.427 . S
C700 H691 0.930 . S
C700 C698 1.378 . S
C700 C701 1.367 . S
C701 C700 1.367 . S
C701 C703 1.433 . S
C702 C698 1.350 . S
C702 C699 1.463 . S
C702 N706 1.427 . S
C703 H693 0.929 . S
C703 C701 1.433 . S
C703 N706 1.384 . S
C704 H695 0.929 . S
C704 C696 1.378 . S
C704 C699 1.350 . S
C705 H692 0.929 . S
C705 C697 1.433 . S
C705 N707 1.384 . S
N706 C702 1.427 . S
N706 C703 1.384 . S
N707 C699 1.427 . S
N707 C705 1.384 . S
H708 C714 0.930 . S
H709 C718 0.930 . S
H710 C723 0.929 . S
H711 C721 0.929 . S
H712 C716 0.929 . S
H713 C722 0.929 . S
C714 H708 0.930 . S
C714 C715 1.367 . S
C714 C722 1.378 . S
C715 C714 1.367 . S
C715 C723 1.433 . S
C716 H712 0.929 . S
C716 C718 1.378 . S
C716 C720 1.350 . S
C717 C720 1.463 . S
C717 C722 1.350 . S
C717 N725 1.427 . S
C718 H709 0.930 . S
C718 C716 1.378 . S
C718 C719 1.367 . S
C719 C718 1.367 . S
C719 C721 1.433 . S
C720 C716 1.350 . S
C720 C717 1.463 . S
C720 N724 1.427 . S
C721 H711 0.929 . S
C721 C719 1.433 . S
C721 N724 1.384 . S
C722 H713 0.929 . S
C722 C714 1.378 . S
C722 C717 1.350 . S
C723 H710 0.929 . S
C723 C715 1.433 . S
C723 N725 1.384 . S
N724 C720 1.427 . S
N724 C721 1.384 . S
N725 C717 1.427 . S
N725 C723 1.384 . S
H726 C732 0.930 . S
H727 C736 0.930 . S
H728 C741 0.929 . S
H729 C739 0.929 . S
H730 C734 0.929 . S
H731 C740 0.929 . S
C732 H726 0.930 . S
C732 C733 1.367 . S
C732 C740 1.378 . S
C733 C732 1.367 . S
C733 C741 1.433 . S
C734 H730 0.929 . S
C734 C736 1.378 . S
C734 C738 1.350 . S
C735 C738 1.463 . S
C735 C740 1.350 . S
C735 N743 1.427 . S
C736 H727 0.930 . S
C736 C734 1.378 . S
C736 C737 1.367 . S
C737 C736 1.367 . S
C737 C739 1.433 . S
C738 C734 1.350 . S
C738 C735 1.463 . S
C738 N742 1.427 . S
C739 H729 0.929 . S
C739 C737 1.433 . S
C739 N742 1.384 . S
C740 H731 0.929 . S
C740 C732 1.378 . S
C740 C735 1.350 . S
C741 H728 0.929 . S
C741 C733 1.433 . S
C741 N743 1.384 . S
N742 C738 1.427 . S
N742 C739 1.384 . S
N743 C735 1.427 . S
N743 C741 1.384 . S
H744 C750 0.930 . S
H745 C754 0.930 . S
H746 C759 0.929 . S
H747 C757 0.929 . S
H748 C752 0.929 . S
H749 C758 0.929 . S
C750 H744 0.930 . S
C750 C751 1.367 . S
C750 C758 1.378 . S
C751 C750 1.367 . S
C751 C759 1.433 . S
C752 H748 0.929 . S
C752 C754 1.378 . S
C752 C756 1.350 . S
C753 C756 1.463 . S
C753 C758 1.350 . S
C753 N761 1.427 . S
C754 H745 0.930 . S
C754 C752 1.378 . S
C754 C755 1.367 . S
C755 C754 1.367 . S
C755 C757 1.433 . S
C756 C752 1.350 . S
C756 C753 1.463 . S
C756 N760 1.427 . S
C757 H747 0.929 . S
C757 C755 1.433 . S
C757 N760 1.384 . S
C758 H749 0.929 . S
C758 C750 1.378 . S
C758 C753 1.350 . S
C759 H746 0.929 . S
C759 C751 1.433 . S
C759 N761 1.384 . S
N760 C756 1.427 . S
N760 C757 1.384 . S
N761 C753 1.427 . S
N761 C759 1.384 . S
H762 C768 0.930 . S
H763 C772 0.930 . S
H764 C777 0.929 . S
H765 C775 0.929 . S
H766 C770 0.929 . S
H767 C776 0.929 . S
C768 H762 0.930 . S
C768 C769 1.367 . S
C768 C776 1.378 . S
C769 C768 1.367 . S
C769 C777 1.433 . S
C770 H766 0.929 . S
C770 C772 1.378 . S
C770 C774 1.350 . S
C771 C774 1.463 . S
C771 C776 1.350 . S
C771 N779 1.427 . S
C772 H763 0.930 . S
C772 C770 1.378 . S
C772 C773 1.367 . S
C773 C772 1.367 . S
C773 C775 1.433 . S
C774 C770 1.350 . S
C774 C771 1.463 . S
C774 N778 1.427 . S
C775 H765 0.929 . S
C775 C773 1.433 . S
C775 N778 1.384 . S
C776 H767 0.929 . S
C776 C768 1.378 . S
C776 C771 1.350 . S
C777 H764 0.929 . S
C777 C769 1.433 . S
C777 N779 1.384 . S
N778 C774 1.427 . S
N778 C775 1.384 . S
N779 C771 1.427 . S
N779 C777 1.384 . S
H780 C786 0.930 . S
H781 C790 0.930 . S
H782 C795 0.929 . S
H783 C793 0.929 . S
H784 C788 0.929 . S
H785 C794 0.929 . S
C786 H780 0.930 . S
C786 C787 1.367 . S
C786 C794 1.378 . S
C787 C786 1.367 . S
C787 C795 1.433 . S
C788 H784 0.929 . S
C788 C790 1.378 . S
C788 C792 1.350 . S
C789 C792 1.463 . S
C789 C794 1.350 . S
C789 N797 1.427 . S
C790 H781 0.930 . S
C790 C788 1.378 . S
C790 C791 1.367 . S
C791 C790 1.367 . S
C791 C793 1.433 . S
C792 C788 1.350 . S
C792 C789 1.463 . S
C792 N796 1.427 . S
C793 H783 0.929 . S
C793 C791 1.433 . S
C793 N796 1.384 . S
C794 H785 0.929 . S
C794 C786 1.378 . S
C794 C789 1.350 . S
C795 H782 0.929 . S
C795 C787 1.433 . S
C795 N797 1.384 . S
N796 C792 1.427 . S
N796 C793 1.384 . S
N797 C789 1.427 . S
N797 C795 1.384 . S
H798 C804 0.930 . S
H799 C808 0.930 . S
H800 C813 0.929 . S
H801 C811 0.929 . S
H802 C806 0.929 . S
H803 C812 0.929 . S
C804 H798 0.930 . S
C804 C805 1.367 . S
C804 C812 1.378 . S
C805 C804 1.367 . S
C805 C813 1.433 . S
C806 H802 0.929 . S
C806 C808 1.378 . S
C806 C810 1.350 . S
C807 C810 1.463 . S
C807 C812 1.350 . S
C807 N815 1.427 . S
C808 H799 0.930 . S
C808 C806 1.378 . S
C808 C809 1.367 . S
C809 C808 1.367 . S
C809 C811 1.433 . S
C810 C806 1.350 . S
C810 C807 1.463 . S
C810 N814 1.427 . S
C811 H801 0.929 . S
C811 C809 1.433 . S
C811 N814 1.384 . S
C812 H803 0.929 . S
C812 C804 1.378 . S
C812 C807 1.350 . S
C813 H800 0.929 . S
C813 C805 1.433 . S
C813 N815 1.384 . S
N814 C810 1.427 . S
N814 C811 1.384 . S
N815 C807 1.427 . S
N815 C813 1.384 . S
H816 C822 0.930 . S
H817 C826 0.930 . S
H818 C831 0.929 . S
H819 C829 0.929 . S
H820 C824 0.929 . S
H821 C830 0.929 . S
C822 H816 0.930 . S
C822 C823 1.367 . S
C822 C830 1.378 . S
C823 C822 1.367 . S
C823 C831 1.433 . S
C824 H820 0.929 . S
C824 C826 1.378 . S
C824 C828 1.350 . S
C825 C828 1.463 . S
C825 C830 1.350 . S
C825 N833 1.427 . S
C826 H817 0.930 . S
C826 C824 1.378 . S
C826 C827 1.367 . S
C827 C826 1.367 . S
C827 C829 1.433 . S
C828 C824 1.350 . S
C828 C825 1.463 . S
C828 N832 1.427 . S
C829 H819 0.929 . S
C829 C827 1.433 . S
C829 N832 1.384 . S
C830 H821 0.929 . S
C830 C822 1.378 . S
C830 C825 1.350 . S
C831 H818 0.929 . S
C831 C823 1.433 . S
C831 N833 1.384 . S
N832 C828 1.427 . S
N832 C829 1.384 . S
N833 C825 1.427 . S
N833 C831 1.384 . S
H834 C840 0.930 . S
H835 C844 0.930 . S
H836 C849 0.929 . S
H837 C847 0.929 . S
H838 C842 0.929 . S
H839 C848 0.929 . S
C840 H834 0.930 . S
C840 C841 1.367 . S
C840 C848 1.378 . S
C841 C840 1.367 . S
C841 C849 1.433 . S
C842 H838 0.929 . S
C842 C844 1.378 . S
C842 C846 1.350 . S
C843 C846 1.463 . S
C843 C848 1.350 . S
C843 N851 1.427 . S
C844 H835 0.930 . S
C844 C842 1.378 . S
C844 C845 1.367 . S
C845 C844 1.367 . S
C845 C847 1.433 . S
C846 C842 1.350 . S
C846 C843 1.463 . S
C846 N850 1.427 . S
C847 H837 0.929 . S
C847 C845 1.433 . S
C847 N850 1.384 . S
C848 H839 0.929 . S
C848 C840 1.378 . S
C848 C843 1.350 . S
C849 H836 0.929 . S
C849 C841 1.433 . S
C849 N851 1.384 . S
N850 C846 1.427 . S
N850 C847 1.384 . S
N851 C843 1.427 . S
N851 C849 1.384 . S
H852 C858 0.930 . S
H853 C862 0.930 . S
H854 C867 0.929 . S
H855 C865 0.929 . S
H856 C860 0.929 . S
H857 C866 0.929 . S
C858 H852 0.930 . S
C858 C859 1.367 . S
C858 C866 1.378 . S
C859 C858 1.367 . S
C859 C867 1.433 . S
C860 H856 0.929 . S
C860 C862 1.378 . S
C860 C864 1.350 . S
C861 C864 1.463 . S
C861 C866 1.350 . S
C861 N869 1.427 . S
C862 H853 0.930 . S
C862 C860 1.378 . S
C862 C863 1.367 . S
C863 C862 1.367 . S
C863 C865 1.433 . S
C864 C860 1.350 . S
C864 C861 1.463 . S
C864 N868 1.427 . S
C865 H855 0.929 . S
C865 C863 1.433 . S
C865 N868 1.384 . S
C866 H857 0.929 . S
C866 C858 1.378 . S
C866 C861 1.350 . S
C867 H854 0.929 . S
C867 C859 1.433 . S
C867 N869 1.384 . S
N868 C864 1.427 . S
N868 C865 1.384 . S
N869 C861 1.427 . S
N869 C867 1.384 . S
H870 C876 0.930 . S
H871 C880 0.930 . S
H872 C885 0.929 . S
H873 C883 0.929 . S
H874 C878 0.929 . S
H875 C884 0.929 . S
C876 H870 0.930 . S
C876 C877 1.367 . S
C876 C884 1.378 . S
C877 C876 1.367 . S
C877 C885 1.433 . S
C878 H874 0.929 . S
C878 C880 1.378 . S
C878 C882 1.350 . S
C879 C882 1.463 . S
C879 C884 1.350 . S
C879 N887 1.427 . S
C880 H871 0.930 . S
C880 C878 1.378 . S
C880 C881 1.367 . S
C881 C880 1.367 . S
C881 C883 1.433 . S
C882 C878 1.350 . S
C882 C879 1.463 . S
C882 N886 1.427 . S
C883 H873 0.929 . S
C883 C881 1.433 . S
C883 N886 1.384 . S
C884 H875 0.929 . S
C884 C876 1.378 . S
C884 C879 1.350 . S
C885 H872 0.929 . S
C885 C877 1.433 . S
C885 N887 1.384 . S
N886 C882 1.427 . S
N886 C883 1.384 . S
N887 C879 1.427 . S
N887 C885 1.384 . S
H888 C894 0.930 . S
H889 C898 0.930 . S
H890 C903 0.929 . S
H891 C901 0.929 . S
H892 C896 0.929 . S
H893 C902 0.929 . S
C894 H888 0.930 . S
C894 C895 1.367 . S
C894 C902 1.378 . S
C895 C894 1.367 . S
C895 C903 1.433 . S
C896 H892 0.929 . S
C896 C898 1.378 . S
C896 C900 1.350 . S
C897 C900 1.463 . S
C897 C902 1.350 . S
C897 N905 1.427 . S
C898 H889 0.930 . S
C898 C896 1.378 . S
C898 C899 1.367 . S
C899 C898 1.367 . S
C899 C901 1.433 . S
C900 C896 1.350 . S
C900 C897 1.463 . S
C900 N904 1.427 . S
C901 H891 0.929 . S
C901 C899 1.433 . S
C901 N904 1.384 . S
C902 H893 0.929 . S
C902 C894 1.378 . S
C902 C897 1.350 . S
C903 H890 0.929 . S
C903 C895 1.433 . S
C903 N905 1.384 . S
N904 C900 1.427 . S
N904 C901 1.384 . S
N905 C897 1.427 . S
N905 C903 1.384 . S
H906 C912 0.930 . S
H907 C916 0.930 . S
H908 C921 0.929 . S
H909 C919 0.929 . S
H910 C914 0.929 . S
H911 C920 0.929 . S
C912 H906 0.930 . S
C912 C913 1.367 . S
C912 C920 1.378 . S
C913 C912 1.367 . S
C913 C921 1.433 . S
C914 H910 0.929 . S
C914 C916 1.378 . S
C914 C918 1.350 . S
C915 C918 1.463 . S
C915 C920 1.350 . S
C915 N923 1.427 . S
C916 H907 0.930 . S
C916 C914 1.378 . S
C916 C917 1.367 . S
C917 C916 1.367 . S
C917 C919 1.433 . S
C918 C914 1.350 . S
C918 C915 1.463 . S
C918 N922 1.427 . S
C919 H909 0.929 . S
C919 C917 1.433 . S
C919 N922 1.384 . S
C920 H911 0.929 . S
C920 C912 1.378 . S
C920 C915 1.350 . S
C921 H908 0.929 . S
C921 C913 1.433 . S
C921 N923 1.384 . S
N922 C918 1.427 . S
N922 C919 1.384 . S
N923 C915 1.427 . S
N923 C921 1.384 . S
H924 C930 0.930 . S
H925 C934 0.930 . S
H926 C939 0.929 . S
H927 C937 0.929 . S
H928 C932 0.929 . S
H929 C938 0.929 . S
C930 H924 0.930 . S
C930 C931 1.367 . S
C930 C938 1.378 . S
C931 C930 1.367 . S
C931 C939 1.433 . S
C932 H928 0.929 . S
C932 C934 1.378 . S
C932 C936 1.350 . S
C933 C936 1.463 . S
C933 C938 1.350 . S
C933 N941 1.427 . S
C934 H925 0.930 . S
C934 C932 1.378 . S
C934 C935 1.367 . S
C935 C934 1.367 . S
C935 C937 1.433 . S
C936 C932 1.350 . S
C936 C933 1.463 . S
C936 N940 1.427 . S
C937 H927 0.929 . S
C937 C935 1.433 . S
C937 N940 1.384 . S
C938 H929 0.929 . S
C938 C930 1.378 . S
C938 C933 1.350 . S
C939 H926 0.929 . S
C939 C931 1.433 . S
C939 N941 1.384 . S
N940 C936 1.427 . S
N940 C937 1.384 . S
N941 C933 1.427 . S
N941 C939 1.384 . S
H942 C948 0.930 . S
H943 C952 0.930 . S
H944 C957 0.929 . S
H945 C955 0.929 . S
H946 C950 0.929 . S
H947 C956 0.929 . S
C948 H942 0.930 . S
C948 C949 1.367 . S
C948 C956 1.378 . S
C949 C948 1.367 . S
C949 C957 1.433 . S
C950 H946 0.929 . S
C950 C952 1.378 . S
C950 C954 1.350 . S
C951 C954 1.463 . S
C951 C956 1.350 . S
C951 N959 1.427 . S
C952 H943 0.930 . S
C952 C950 1.378 . S
C952 C953 1.367 . S
C953 C952 1.367 . S
C953 C955 1.433 . S
C954 C950 1.350 . S
C954 C951 1.463 . S
C954 N958 1.427 . S
C955 H945 0.929 . S
C955 C953 1.433 . S
C955 N958 1.384 . S
C956 H947 0.929 . S
C956 C948 1.378 . S
C956 C951 1.350 . S
C957 H944 0.929 . S
C957 C949 1.433 . S
C957 N959 1.384 . S
N958 C954 1.427 . S
N958 C955 1.384 . S
N959 C951 1.427 . S
N959 C957 1.384 . S
H960 C966 0.930 . S
H961 C970 0.930 . S
H962 C975 0.929 . S
H963 C973 0.929 . S
H964 C968 0.929 . S
H965 C974 0.929 . S
C966 H960 0.930 . S
C966 C967 1.367 . S
C966 C974 1.378 . S
C967 C966 1.367 . S
C967 C975 1.433 . S
C968 H964 0.929 . S
C968 C970 1.378 . S
C968 C972 1.350 . S
C969 C972 1.463 1_445 S
C969 C974 1.350 . S
C969 N977 1.427 . S
C970 H961 0.930 . S
C970 C968 1.378 . S
C970 C971 1.367 . S
C971 C970 1.367 . S
C971 C973 1.433 . S
C972 C968 1.350 . S
C972 C969 1.463 1_665 S
C972 N976 1.427 . S
C973 H963 0.929 . S
C973 C971 1.433 . S
C973 N976 1.384 . S
C974 H965 0.929 . S
C974 C966 1.378 . S
C974 C969 1.350 . S
C975 H962 0.929 . S
C975 C967 1.433 . S
C975 N977 1.384 . S
N976 C972 1.427 . S
N976 C973 1.384 . S
N977 C969 1.427 . S
N977 C975 1.384 . S
H978 C984 0.930 . S
H979 C988 0.930 . S
H980 C993 0.929 . S
H981 C991 0.929 . S
H982 C986 0.929 1_455 S
H983 C992 0.929 1_655 S
C984 H978 0.930 . S
C984 C985 1.367 . S
C984 C992 1.378 . S
C985 C984 1.367 . S
C985 C993 1.433 . S
C986 H982 0.929 1_655 S
C986 C988 1.378 . S
C986 C990 1.350 . S
C987 C990 1.463 1_455 S
C987 C992 1.350 . S
C987 N995 1.427 . S
C988 H979 0.930 . S
C988 C986 1.378 . S
C988 C989 1.367 . S
C989 C988 1.367 . S
C989 C991 1.433 . S
C990 C986 1.350 . S
C990 C987 1.463 1_655 S
C990 N994 1.427 . S
C991 H981 0.929 . S
C991 C989 1.433 . S
C991 N994 1.384 . S
C992 H983 0.929 1_455 S
C992 C984 1.378 . S
C992 C987 1.350 . S
C993 H980 0.929 . S
C993 C985 1.433 . S
C993 N995 1.384 . S
N994 C990 1.427 . S
N994 C991 1.384 . S
N995 C987 1.427 . S
N995 C993 1.384 . S
H996 C1002 0.930 . S
H997 C1006 0.930 . S
H998 C1011 0.929 . S
H999 C1009 0.929 . S
H1000 C1004 0.929 . S
H1001 C1010 0.929 . S
C1002 H996 0.930 . S
C1002 C1003 1.367 . S
C1002 C1010 1.378 . S
C1003 C1002 1.367 . S
C1003 C1011 1.433 . S
C1004 H1000 0.929 . S
C1004 C1006 1.378 . S
C1004 C1008 1.350 . S
C1005 C1008 1.463 . S
C1005 C1010 1.350 . S
C1005 N1013 1.427 . S
C1006 H997 0.930 . S
C1006 C1004 1.378 . S
C1006 C1007 1.367 . S
C1007 C1006 1.367 . S
C1007 C1009 1.433 . S
C1008 C1004 1.350 . S
C1008 C1005 1.463 . S
C1008 N1012 1.427 . S
C1009 H999 0.929 . S
C1009 C1007 1.433 . S
C1009 N1012 1.384 . S
C1010 H1001 0.929 . S
C1010 C1002 1.378 . S
C1010 C1005 1.350 . S
C1011 H998 0.929 . S
C1011 C1003 1.433 . S
C1011 N1013 1.384 . S
N1012 C1008 1.427 . S
N1012 C1009 1.384 . S
N1013 C1005 1.427 . S
N1013 C1011 1.384 . S
H1014 C1020 0.930 . S
H1015 C1024 0.930 . S
H1016 C1029 0.929 . S
H1017 C1027 0.929 . S
H1018 C1022 0.929 . S
H1019 C1028 0.929 . S
C1020 H1014 0.930 . S
C1020 C1021 1.367 . S
C1020 C1028 1.378 . S
C1021 C1020 1.367 . S
C1021 C1029 1.433 . S
C1022 H1018 0.929 . S
C1022 C1024 1.378 . S
C1022 C1026 1.350 . S
C1023 C1026 1.463 1_545 S
C1023 C1028 1.350 . S
C1023 N1031 1.427 . S
C1024 H1015 0.930 . S
C1024 C1022 1.378 . S
C1024 C1025 1.367 . S
C1025 C1024 1.367 . S
C1025 C1027 1.433 . S
C1026 C1022 1.350 . S
C1026 C1023 1.463 1_565 S
C1026 N1030 1.427 . S
C1027 H1017 0.929 . S
C1027 C1025 1.433 . S
C1027 N1030 1.384 . S
C1028 H1019 0.929 . S
C1028 C1020 1.378 . S
C1028 C1023 1.350 . S
C1029 H1016 0.929 . S
C1029 C1021 1.433 . S
C1029 N1031 1.384 . S
N1030 C1026 1.427 . S
N1030 C1027 1.384 . S
N1031 C1023 1.427 . S
N1031 C1029 1.384 . S
H1032 C1038 0.930 . S
H1033 C1042 0.930 . S
H1034 C1047 0.929 . S
H1035 C1045 0.929 . S
H1036 C1040 0.929 . S
H1037 C1046 0.929 . S
C1038 H1032 0.930 . S
C1038 C1039 1.367 . S
C1038 C1046 1.378 . S
C1039 C1038 1.367 . S
C1039 C1047 1.433 . S
C1040 H1036 0.929 . S
C1040 C1042 1.378 . S
C1040 C1044 1.350 . S
C1041 C1044 1.463 1_455 S
C1041 C1046 1.350 . S
C1041 N1049 1.427 . S
C1042 H1033 0.930 . S
C1042 C1040 1.378 . S
C1042 C1043 1.367 . S
C1043 C1042 1.367 . S
C1043 C1045 1.433 . S
C1044 C1040 1.350 . S
C1044 C1041 1.463 1_655 S
C1044 N1048 1.427 . S
C1045 H1035 0.929 . S
C1045 C1043 1.433 . S
C1045 N1048 1.384 . S
C1046 H1037 0.929 . S
C1046 C1038 1.378 . S
C1046 C1041 1.350 . S
C1047 H1034 0.929 . S
C1047 C1039 1.433 . S
C1047 N1049 1.384 . S
N1048 C1044 1.427 . S
N1048 C1045 1.384 . S
N1049 C1041 1.427 . S
N1049 C1047 1.384 . S
H1050 C1056 0.930 . S
H1051 C1060 0.930 . S
H1052 C1065 0.929 . S
H1053 C1063 0.929 . S
H1054 C1058 0.929 . S
H1055 C1064 0.929 . S
C1056 H1050 0.930 . S
C1056 C1057 1.367 . S
C1056 C1064 1.378 . S
C1057 C1056 1.367 . S
C1057 C1065 1.433 . S
C1058 H1054 0.929 . S
C1058 C1060 1.378 . S
C1058 C1062 1.350 . S
C1059 C1062 1.463 . S
C1059 C1064 1.350 . S
C1059 N1067 1.427 . S
C1060 H1051 0.930 . S
C1060 C1058 1.378 . S
C1060 C1061 1.367 . S
C1061 C1060 1.367 . S
C1061 C1063 1.433 . S
C1062 C1058 1.350 . S
C1062 C1059 1.463 . S
C1062 N1066 1.427 . S
C1063 H1053 0.929 . S
C1063 C1061 1.433 . S
C1063 N1066 1.384 . S
C1064 H1055 0.929 . S
C1064 C1056 1.378 . S
C1064 C1059 1.350 . S
C1065 H1052 0.929 . S
C1065 C1057 1.433 . S
C1065 N1067 1.384 . S
N1066 C1062 1.427 . S
N1066 C1063 1.384 . S
N1067 C1059 1.427 . S
N1067 C1065 1.384 . S
H1068 C1074 0.930 . S
H1069 C1078 0.930 . S
H1070 C1083 0.929 . S
H1071 C1081 0.929 . S
H1072 C1076 0.929 . S
H1073 C1082 0.929 . S
C1074 H1068 0.930 . S
C1074 C1075 1.367 . S
C1074 C1082 1.378 . S
C1075 C1074 1.367 . S
C1075 C1083 1.433 . S
C1076 H1072 0.929 . S
C1076 C1078 1.378 . S
C1076 C1080 1.350 . S
C1077 C1080 1.463 1_565 S
C1077 C1082 1.350 . S
C1077 N1085 1.427 . S
C1078 H1069 0.930 . S
C1078 C1076 1.378 . S
C1078 C1079 1.367 . S
C1079 C1078 1.367 . S
C1079 C1081 1.433 . S
C1080 C1076 1.350 . S
C1080 C1077 1.463 1_545 S
C1080 N1084 1.427 . S
C1081 H1071 0.929 . S
C1081 C1079 1.433 . S
C1081 N1084 1.384 . S
C1082 H1073 0.929 . S
C1082 C1074 1.378 . S
C1082 C1077 1.350 . S
C1083 H1070 0.929 . S
C1083 C1075 1.433 . S
C1083 N1085 1.384 . S
N1084 C1080 1.427 . S
N1084 C1081 1.384 . S
N1085 C1077 1.427 . S
N1085 C1083 1.384 . S
H1086 C1092 0.930 . S
H1087 C1096 0.930 . S
H1088 C1101 0.929 . S
H1089 C1099 0.929 . S
H1090 C1094 0.929 . S
H1091 C1100 0.929 . S
C1092 H1086 0.930 . S
C1092 C1093 1.367 . S
C1092 C1100 1.378 . S
C1093 C1092 1.367 . S
C1093 C1101 1.433 . S
C1094 H1090 0.929 . S
C1094 C1096 1.378 . S
C1094 C1098 1.350 . S
C1095 C1098 1.463 1_445 S
C1095 C1100 1.350 . S
C1095 N1103 1.427 . S
C1096 H1087 0.930 . S
C1096 C1094 1.378 . S
C1096 C1097 1.367 . S
C1097 C1096 1.367 . S
C1097 C1099 1.433 . S
C1098 C1094 1.350 . S
C1098 C1095 1.463 1_665 S
C1098 N1102 1.427 . S
C1099 H1089 0.929 . S
C1099 C1097 1.433 . S
C1099 N1102 1.384 . S
C1100 H1091 0.929 . S
C1100 C1092 1.378 . S
C1100 C1095 1.350 . S
C1101 H1088 0.929 . S
C1101 C1093 1.433 . S
C1101 N1103 1.384 . S
N1102 C1098 1.427 . S
N1102 C1099 1.384 . S
N1103 C1095 1.427 . S
N1103 C1101 1.384 . S
H1104 C1110 0.930 . S
H1105 C1114 0.930 . S
H1106 C1119 0.929 . S
H1107 C1117 0.929 . S
H1108 C1112 0.929 . S
H1109 C1118 0.929 . S
C1110 H1104 0.930 . S
C1110 C1111 1.367 . S
C1110 C1118 1.378 . S
C1111 C1110 1.367 . S
C1111 C1119 1.433 . S
C1112 H1108 0.929 . S
C1112 C1114 1.378 . S
C1112 C1116 1.350 . S
C1113 C1116 1.463 . S
C1113 C1118 1.350 . S
C1113 N1121 1.427 . S
C1114 H1105 0.930 . S
C1114 C1112 1.378 . S
C1114 C1115 1.367 . S
C1115 C1114 1.367 . S
C1115 C1117 1.433 . S
C1116 C1112 1.350 . S
C1116 C1113 1.463 . S
C1116 N1120 1.427 . S
C1117 H1107 0.929 . S
C1117 C1115 1.433 . S
C1117 N1120 1.384 . S
C1118 H1109 0.929 . S
C1118 C1110 1.378 . S
C1118 C1113 1.350 . S
C1119 H1106 0.929 . S
C1119 C1111 1.433 . S
C1119 N1121 1.384 . S
N1120 C1116 1.427 . S
N1120 C1117 1.384 . S
N1121 C1113 1.427 . S
N1121 C1119 1.384 . S
H1122 C1128 0.930 . S
H1123 C1132 0.930 . S
H1124 C1137 0.929 . S
H1125 C1135 0.929 . S
H1126 C1130 0.929 . S
H1127 C1136 0.929 . S
C1128 H1122 0.930 . S
C1128 C1129 1.367 . S
C1128 C1136 1.378 . S
C1129 C1128 1.367 . S
C1129 C1137 1.433 . S
C1130 H1126 0.929 . S
C1130 C1132 1.378 . S
C1130 C1134 1.350 . S
C1131 C1134 1.463 . S
C1131 C1136 1.350 . S
C1131 N1139 1.427 . S
C1132 H1123 0.930 . S
C1132 C1130 1.378 . S
C1132 C1133 1.367 . S
C1133 C1132 1.367 . S
C1133 C1135 1.433 . S
C1134 C1130 1.350 . S
C1134 C1131 1.463 . S
C1134 N1138 1.427 . S
C1135 H1125 0.929 . S
C1135 C1133 1.433 . S
C1135 N1138 1.384 . S
C1136 H1127 0.929 . S
C1136 C1128 1.378 . S
C1136 C1131 1.350 . S
C1137 H1124 0.929 . S
C1137 C1129 1.433 . S
C1137 N1139 1.384 . S
N1138 C1134 1.427 . S
N1138 C1135 1.384 . S
N1139 C1131 1.427 . S
N1139 C1137 1.384 . S
H1140 C1146 0.930 . S
H1141 C1150 0.930 . S
H1142 C1155 0.929 . S
H1143 C1153 0.929 . S
H1144 C1148 0.929 . S
H1145 C1154 0.929 . S
C1146 H1140 0.930 . S
C1146 C1147 1.367 . S
C1146 C1154 1.378 . S
C1147 C1146 1.367 . S
C1147 C1155 1.433 . S
C1148 H1144 0.929 . S
C1148 C1150 1.378 . S
C1148 C1152 1.350 . S
C1149 C1152 1.463 . S
C1149 C1154 1.350 . S
C1149 N1157 1.427 . S
C1150 H1141 0.930 . S
C1150 C1148 1.378 . S
C1150 C1151 1.367 . S
C1151 C1150 1.367 . S
C1151 C1153 1.433 . S
C1152 C1148 1.350 . S
C1152 C1149 1.463 . S
C1152 N1156 1.427 . S
C1153 H1143 0.929 . S
C1153 C1151 1.433 . S
C1153 N1156 1.384 . S
C1154 H1145 0.929 . S
C1154 C1146 1.378 . S
C1154 C1149 1.350 . S
C1155 H1142 0.929 . S
C1155 C1147 1.433 . S
C1155 N1157 1.384 . S
N1156 C1152 1.427 . S
N1156 C1153 1.384 . S
N1157 C1149 1.427 . S
N1157 C1155 1.384 . S
H1158 C1164 0.930 . S
H1159 C1168 0.930 . S
H1160 C1173 0.929 . S
H1161 C1171 0.929 . S
H1162 C1166 0.929 . S
H1163 C1172 0.929 . S
C1164 H1158 0.930 . S
C1164 C1165 1.367 . S
C1164 C1172 1.378 . S
C1165 C1164 1.367 . S
C1165 C1173 1.433 . S
C1166 H1162 0.929 . S
C1166 C1168 1.378 . S
C1166 C1170 1.350 . S
C1167 C1170 1.463 . S
C1167 C1172 1.350 . S
C1167 N1175 1.427 . S
C1168 H1159 0.930 . S
C1168 C1166 1.378 . S
C1168 C1169 1.367 . S
C1169 C1168 1.367 . S
C1169 C1171 1.433 . S
C1170 C1166 1.350 . S
C1170 C1167 1.463 . S
C1170 N1174 1.427 . S
C1171 H1161 0.929 . S
C1171 C1169 1.433 . S
C1171 N1174 1.384 . S
C1172 H1163 0.929 . S
C1172 C1164 1.378 . S
C1172 C1167 1.350 . S
C1173 H1160 0.929 . S
C1173 C1165 1.433 . S
C1173 N1175 1.384 . S
N1174 C1170 1.427 . S
N1174 C1171 1.384 . S
N1175 C1167 1.427 . S
N1175 C1173 1.384 . S
H1176 C1182 0.930 . S
H1177 C1186 0.930 . S
H1178 C1191 0.929 . S
H1179 C1189 0.929 . S
H1180 C1184 0.929 . S
H1181 C1190 0.929 . S
C1182 H1176 0.930 . S
C1182 C1183 1.367 . S
C1182 C1190 1.378 . S
C1183 C1182 1.367 . S
C1183 C1191 1.433 . S
C1184 H1180 0.929 . S
C1184 C1186 1.378 . S
C1184 C1188 1.350 . S
C1185 C1188 1.463 . S
C1185 C1190 1.350 . S
C1185 N1193 1.427 . S
C1186 H1177 0.930 . S
C1186 C1184 1.378 . S
C1186 C1187 1.367 . S
C1187 C1186 1.367 . S
C1187 C1189 1.433 . S
C1188 C1184 1.350 . S
C1188 C1185 1.463 . S
C1188 N1192 1.427 . S
C1189 H1179 0.929 . S
C1189 C1187 1.433 . S
C1189 N1192 1.384 . S
C1190 H1181 0.929 . S
C1190 C1182 1.378 . S
C1190 C1185 1.350 . S
C1191 H1178 0.929 . S
C1191 C1183 1.433 . S
C1191 N1193 1.384 . S
N1192 C1188 1.427 . S
N1192 C1189 1.384 . S
N1193 C1185 1.427 . S
N1193 C1191 1.384 . S
H1194 C1200 0.930 . S
H1195 C1204 0.930 . S
H1196 C1209 0.929 . S
H1197 C1207 0.929 . S
H1198 C1202 0.929 . S
H1199 C1208 0.929 . S
C1200 H1194 0.930 . S
C1200 C1201 1.367 . S
C1200 C1208 1.378 . S
C1201 C1200 1.367 . S
C1201 C1209 1.433 . S
C1202 H1198 0.929 . S
C1202 C1204 1.378 . S
C1202 C1206 1.350 . S
C1203 C1206 1.463 . S
C1203 C1208 1.350 . S
C1203 N1211 1.427 . S
C1204 H1195 0.930 . S
C1204 C1202 1.378 . S
C1204 C1205 1.367 . S
C1205 C1204 1.367 . S
C1205 C1207 1.433 . S
C1206 C1202 1.350 . S
C1206 C1203 1.463 . S
C1206 N1210 1.427 . S
C1207 H1197 0.929 . S
C1207 C1205 1.433 . S
C1207 N1210 1.384 . S
C1208 H1199 0.929 . S
C1208 C1200 1.378 . S
C1208 C1203 1.350 . S
C1209 H1196 0.929 . S
C1209 C1201 1.433 . S
C1209 N1211 1.384 . S
N1210 C1206 1.427 . S
N1210 C1207 1.384 . S
N1211 C1203 1.427 . S
N1211 C1209 1.384 . S
H1212 C1218 0.930 . S
H1213 C1222 0.930 . S
H1214 C1227 0.929 . S
H1215 C1225 0.929 . S
H1216 C1220 0.929 . S
H1217 C1226 0.929 . S
C1218 H1212 0.930 . S
C1218 C1219 1.367 . S
C1218 C1226 1.378 . S
C1219 C1218 1.367 . S
C1219 C1227 1.433 . S
C1220 H1216 0.929 . S
C1220 C1222 1.378 . S
C1220 C1224 1.350 . S
C1221 C1224 1.463 . S
C1221 C1226 1.350 . S
C1221 N1229 1.427 . S
C1222 H1213 0.930 . S
C1222 C1220 1.378 . S
C1222 C1223 1.367 . S
C1223 C1222 1.367 . S
C1223 C1225 1.433 . S
C1224 C1220 1.350 . S
C1224 C1221 1.463 . S
C1224 N1228 1.427 . S
C1225 H1215 0.929 . S
C1225 C1223 1.433 . S
C1225 N1228 1.384 . S
C1226 H1217 0.929 . S
C1226 C1218 1.378 . S
C1226 C1221 1.350 . S
C1227 H1214 0.929 . S
C1227 C1219 1.433 . S
C1227 N1229 1.384 . S
N1228 C1224 1.427 . S
N1228 C1225 1.384 . S
N1229 C1221 1.427 . S
N1229 C1227 1.384 . S
H1230 C1236 0.930 . S
H1231 C1240 0.930 . S
H1232 C1245 0.929 . S
H1233 C1243 0.929 . S
H1234 C1238 0.929 . S
H1235 C1244 0.929 . S
C1236 H1230 0.930 . S
C1236 C1237 1.367 . S
C1236 C1244 1.378 . S
C1237 C1236 1.367 . S
C1237 C1245 1.433 . S
C1238 H1234 0.929 . S
C1238 C1240 1.378 . S
C1238 C1242 1.350 . S
C1239 C1242 1.463 . S
C1239 C1244 1.350 . S
C1239 N1247 1.427 . S
C1240 H1231 0.930 . S
C1240 C1238 1.378 . S
C1240 C1241 1.367 . S
C1241 C1240 1.367 . S
C1241 C1243 1.433 . S
C1242 C1238 1.350 . S
C1242 C1239 1.463 . S
C1242 N1246 1.427 . S
C1243 H1233 0.929 . S
C1243 C1241 1.433 . S
C1243 N1246 1.384 . S
C1244 H1235 0.929 . S
C1244 C1236 1.378 . S
C1244 C1239 1.350 . S
C1245 H1232 0.929 . S
C1245 C1237 1.433 . S
C1245 N1247 1.384 . S
N1246 C1242 1.427 . S
N1246 C1243 1.384 . S
N1247 C1239 1.427 . S
N1247 C1245 1.384 . S
C535 N2 0.482 . S
C539 N431 0.499 . S
C553 N464 0.498 . S
C557 N35 0.482 . S
C571 N497 0.496 . S
C575 N68 0.523 . S
C589 N398 0.502 . S
C593 N101 0.483 . S
C607 N365 0.495 . S
C611 N134 0.522 . S
C625 N266 0.489 . S
C629 N167 0.482 . S
C643 N200 0.537 . S
C647 N299 0.523 . S
C661 N332 0.484 . S
C665 N233 0.486 . S
C679 C304 1.982 . S
C683 N13 2.104 . S
C697 N46 2.103 . S
C701 C337 1.989 . S
C715 N79 2.106 . S
C719 C370 1.978 . S
C733 N112 2.107 . S
C737 C271 1.977 . S
C751 N145 2.105 . S
C755 C502 1.991 . S
C769 C403 1.991 . S
C773 N178 2.104 . S
C787 C436 1.984 . S
C791 N211 2.103 . S
C805 C469 1.978 . S
C809 N244 2.106 . S
C823 N277 2.106 . S
C827 C40 1.989 . S
C841 N310 2.108 . S
C845 C73 1.983 . S
C859 N343 2.107 . S
C863 C106 1.988 . S
C877 C7 1.991 . S
C881 N376 2.105 . S
C895 N409 2.104 . S
C899 C238 1.991 . S
C913 C139 1.991 . S
C917 N442 2.104 . S
C931 N475 2.105 . S
C935 C172 1.991 . S
C949 N508 2.103 . S
C953 C205 1.990 . S
C967 C21 1.252 . S
C971 C351 1.262 . S
C985 C384 1.260 . S
C989 C54 1.252 . S
C1003 C87 1.260 . S
C1007 C285 1.252 . S
C1021 C318 1.261 . S
C1025 C120 1.252 . S
C1039 C153 1.252 . S
C1043 C483 1.259 . S
C1057 C516 1.261 . S
C1061 C186 1.256 . S
C1075 C417 1.252 . S
C1079 C219 1.261 . S
C1093 C450 1.252 . S
C1097 C252 1.262 . S
C1111 C216 0.578 . S
C1115 C18 0.598 . S
C1129 C51 0.597 . S
C1133 C249 0.607 . S
C1147 C150 0.585 . S
C1151 C84 0.568 . S
C1165 C117 0.597 . S
C1169 C183 0.607 . S
C1183 C282 0.567 . S
C1187 C480 0.573 . S
C1201 C315 0.569 . S
C1205 C513 0.585 . S
C1219 C348 0.607 . S
C1223 C414 0.593 . S
C1237 C447 0.571 . S
C1241 C381 0.569 . S
