# Generated by pormake.
# Topology fnr, (5)-cn, num edge types: 1
# Building blocks:
#     Node 0, Type 0, BuildingBlock: XOMCOT_clean_sbu_0, # of connection points: 5
#     Node 1, Type 0, BuildingBlock: XOMCOT_clean_sbu_0, # of connection points: 5
#     Node 2, Type 0, BuildingBlock: XOMCOT_clean_sbu_0, # of connection points: 5
#     Node 3, Type 0, BuildingBlock: XOMCOT_clean_sbu_0, # of connection points: 5
#     Node 4, Type 0, BuildingBlock: XOMCOT_clean_sbu_0, # of connection points: 5
#     Node 5, Type 0, BuildingBlock: XOMCOT_clean_sbu_0, # of connection points: 5
#     Node 6, Type 0, BuildingBlock: XOMCOT_clean_sbu_0, # of connection points: 5
#     Node 7, Type 0, BuildingBlock: XOMCOT_clean_sbu_0, # of connection points: 5
#     Node 8, Type 0, BuildingBlock: XOMCOT_clean_sbu_0, # of connection points: 5
#     Node 9, Type 0, BuildingBlock: XOMCOT_clean_sbu_0, # of connection points: 5
#     Node 10, Type 0, BuildingBlock: XOMCOT_clean_sbu_0, # of connection points: 5
#     Node 11, Type 0, BuildingBlock: XOMCOT_clean_sbu_0, # of connection points: 5
#     Edge 12, Type (0, 0), BuildingBlock: TEMPAE_clean_linker_10, # of connection points: 2
#     Edge 13, Type (0, 0), BuildingBlock: TEMPAE_clean_linker_10, # of connection points: 2
#     Edge 14, Type (0, 0), BuildingBlock: TEMPAE_clean_linker_10, # of connection points: 2
#     Edge 15, Type (0, 0), BuildingBlock: TEMPAE_clean_linker_10, # of connection points: 2
#     Edge 16, Type (0, 0), BuildingBlock: TEMPAE_clean_linker_10, # of connection points: 2
#     Edge 17, Type (0, 0), BuildingBlock: TEMPAE_clean_linker_10, # of connection points: 2
#     Edge 18, Type (0, 0), BuildingBlock: TEMPAE_clean_linker_10, # of connection points: 2
#     Edge 19, Type (0, 0), BuildingBlock: TEMPAE_clean_linker_10, # of connection points: 2
#     Edge 20, Type (0, 0), BuildingBlock: TEMPAE_clean_linker_10, # of connection points: 2
#     Edge 21, Type (0, 0), BuildingBlock: TEMPAE_clean_linker_10, # of connection points: 2
#     Edge 22, Type (0, 0), BuildingBlock: TEMPAE_clean_linker_10, # of connection points: 2
#     Edge 23, Type (0, 0), BuildingBlock: TEMPAE_clean_linker_10, # of connection points: 2
#     Edge 24, Type (0, 0), BuildingBlock: TEMPAE_clean_linker_10, # of connection points: 2
#     Edge 25, Type (0, 0), BuildingBlock: TEMPAE_clean_linker_10, # of connection points: 2
#     Edge 26, Type (0, 0), BuildingBlock: TEMPAE_clean_linker_10, # of connection points: 2
#     Edge 27, Type (0, 0), BuildingBlock: TEMPAE_clean_linker_10, # of connection points: 2
#     Edge 28, Type (0, 0), BuildingBlock: TEMPAE_clean_linker_10, # of connection points: 2
#     Edge 29, Type (0, 0), BuildingBlock: TEMPAE_clean_linker_10, # of connection points: 2
#     Edge 30, Type (0, 0), BuildingBlock: TEMPAE_clean_linker_10, # of connection points: 2
#     Edge 31, Type (0, 0), BuildingBlock: TEMPAE_clean_linker_10, # of connection points: 2
#     Edge 32, Type (0, 0), BuildingBlock: TEMPAE_clean_linker_10, # of connection points: 2
#     Edge 33, Type (0, 0), BuildingBlock: TEMPAE_clean_linker_10, # of connection points: 2
#     Edge 34, Type (0, 0), BuildingBlock: TEMPAE_clean_linker_10, # of connection points: 2
#     Edge 35, Type (0, 0), BuildingBlock: TEMPAE_clean_linker_10, # of connection points: 2
#     Edge 36, Type (0, 0), BuildingBlock: TEMPAE_clean_linker_10, # of connection points: 2
#     Edge 37, Type (0, 0), BuildingBlock: TEMPAE_clean_linker_10, # of connection points: 2
#     Edge 38, Type (0, 0), BuildingBlock: TEMPAE_clean_linker_10, # of connection points: 2
#     Edge 39, Type (0, 0), BuildingBlock: TEMPAE_clean_linker_10, # of connection points: 2
#     Edge 40, Type (0, 0), BuildingBlock: TEMPAE_clean_linker_10, # of connection points: 2
#     Edge 41, Type (0, 0), BuildingBlock: TEMPAE_clean_linker_10, # of connection points: 2
# Relax obj value: 0.290
# Max RMSD: 0.219
# Mean RMSD: 0.219
data_MOF--net-fnr--node1-XOMCOT_clean_sbu_0--edge1-TEMPAE_clean_linker_10
_symmetry_space_group_name_H-M    P1
_symmetry_Int_Tables_number       1
_symmetry_cell_setting            triclinic
loop_
_symmetry_equiv_pos_as_xyz
'x, y, z'
_cell_length_a     41.172233
_cell_length_b     41.129679
_cell_length_c     53.223665
_cell_angle_alpha  89.896759
_cell_angle_beta   89.990746
_cell_angle_gamma 119.95885
loop_
_atom_site_label
_atom_site_type_symbol
_atom_site_fract_x
_atom_site_fract_y
_atom_site_fract_z
_atom_type_partial_charge
Co0 Co 0.41056 0.17166 0.07477 0.0
C1 C 0.34743 0.18814 0.06661 0.0
C2 C 0.38884 0.20732 0.03721 0.0
C3 C 0.36259 0.21703 0.03093 0.0
N4 N 0.37956 0.18923 0.05946 0.0
N5 N 0.33666 0.205 0.04926 0.0
H6 H 0.33278 0.17606 0.08405 0.0
H7 H 0.41354 0.21348 0.02642 0.0
C8 C 0.48089 0.2436 0.08702 0.0
O9 O 0.4822 0.22851 0.10852 0.0
N10 N 0.44382 0.1549 0.08823 0.0
C11 C 0.43745 0.12737 0.10474 0.0
C12 C 0.46922 0.12425 0.10642 0.0
C13 C 0.47876 0.16673 0.07938 0.0
N14 N 0.49533 0.14919 0.0905 0.0
C15 C 0.37706 0.15002 0.12325 0.0
C16 C 0.40068 0.22043 0.14278 0.0
C17 C 0.38426 0.18914 0.15883 0.0
C18 C 0.37093 0.15357 0.1485 0.0
C19 C 0.4065 0.21552 0.11733 0.0
N20 N 0.39752 0.18079 0.10844 0.0
H21 H 0.36591 0.12212 0.11589 0.0
H22 H 0.41899 0.23971 0.10509 0.0
H23 H 0.41147 0.10953 0.11434 0.0
H24 H 0.49186 0.18813 0.06507 0.0
O25 O 0.37085 0.12067 0.07154 0.0
O26 O 0.41375 0.15114 0.04235 0.0
O27 O 0.45438 0.22463 0.07148 0.0
C28 C 0.3842 0.12017 0.04962 0.0
H29 H 0.36278 0.23248 0.01437 0.0
H30 H 0.47238 0.10441 0.11806 0.0
H31 H 0.41017 0.24836 0.14998 0.0
H32 H 0.35658 0.12858 0.16006 0.0
Co33 Co 0.24814 0.4013 0.57555 0.0
C34 C 0.17493 0.35683 0.55045 0.0
C35 C 0.18755 0.3215 0.57305 0.0
C36 C 0.15533 0.29915 0.55978 0.0
N37 N 0.1995 0.35794 0.56777 0.0
N38 N 0.14746 0.32145 0.54561 0.0
H39 H 0.17811 0.38117 0.54045 0.0
H40 H 0.20233 0.31113 0.58418 0.0
C41 C 0.19877 0.43526 0.57608 0.0
O42 O 0.17592 0.4072 0.59062 0.0
N43 N 0.29667 0.44403 0.58218 0.0
C44 C 0.32231 0.44607 0.59875 0.0
C45 C 0.35231 0.48213 0.5985 0.0
C46 C 0.3113 0.47846 0.57193 0.0
N47 N 0.34526 0.50246 0.58167 0.0
C48 C 0.22902 0.36939 0.62507 0.0
C49 C 0.23641 0.43222 0.64906 0.0
C50 C 0.22816 0.40041 0.6635 0.0
C51 C 0.22465 0.3688 0.65107 0.0
C52 C 0.24112 0.43178 0.62307 0.0
N53 N 0.23608 0.40013 0.61116 0.0
H54 H 0.22887 0.34574 0.61648 0.0
H55 H 0.24989 0.4574 0.61265 0.0
H56 H 0.31908 0.42313 0.61048 0.0
H57 H 0.29688 0.48606 0.55818 0.0
O58 O 0.26955 0.36923 0.57721 0.0
O59 O 0.26532 0.39661 0.54242 0.0
O60 O 0.22846 0.43663 0.56747 0.0
C61 C 0.27537 0.37447 0.55321 0.0
H62 H 0.13934 0.26879 0.56014 0.0
H63 H 0.37729 0.49254 0.60991 0.0
H64 H 0.23979 0.45752 0.65771 0.0
H65 H 0.22014 0.34418 0.66141 0.0
Co66 Co 0.84086 0.23196 0.07653 0.0
C67 C 0.80111 0.15459 0.05634 0.0
C68 C 0.83779 0.16035 0.08684 0.0
C69 C 0.82167 0.12428 0.07781 0.0
N70 N 0.8248 0.17925 0.07344 0.0
N71 N 0.79873 0.12066 0.05856 0.0
H72 H 0.78712 0.1618 0.04201 0.0
H73 H 0.8581 0.17221 0.10185 0.0
C74 C 0.76948 0.23162 0.08634 0.0
O75 O 0.78749 0.2552 0.10468 0.0
N76 N 0.85765 0.28567 0.07855 0.0
C77 C 0.8905 0.31355 0.08758 0.0
C78 C 0.89136 0.34723 0.08499 0.0
C79 C 0.84055 0.30367 0.06873 0.0
N80 N 0.85972 0.34091 0.07335 0.0
C81 C 0.86658 0.24538 0.12729 0.0
C82 C 0.80015 0.19444 0.15017 0.0
C83 C 0.83149 0.21709 0.16511 0.0
C84 C 0.86516 0.24211 0.15328 0.0
C85 C 0.80284 0.19876 0.12398 0.0
N86 N 0.83531 0.22563 0.11294 0.0
H87 H 0.89343 0.26292 0.11882 0.0
H88 H 0.77885 0.18044 0.11262 0.0
H89 H 0.91331 0.31048 0.0947 0.0
H90 H 0.81424 0.28989 0.0587 0.0
O91 O 0.89188 0.24324 0.07478 0.0
O92 O 0.85803 0.24029 0.04162 0.0
O93 O 0.78666 0.21952 0.07246 0.0
C94 C 0.89009 0.24636 0.0507 0.0
H95 H 0.82675 0.10249 0.08479 0.0
H96 H 0.91376 0.37438 0.09097 0.0
H97 H 0.77383 0.17393 0.1586 0.0
H98 H 0.89057 0.25861 0.16402 0.0
Co99 Co 0.58989 0.844 0.56152 0.0
C100 C 0.64762 0.82761 0.53904 0.0
C101 C 0.61262 0.78743 0.56677 0.0
C102 C 0.63664 0.77653 0.55745 0.0
N103 N 0.61954 0.81974 0.55563 0.0
N104 N 0.65877 0.80167 0.54003 0.0
H105 H 0.65921 0.85115 0.52619 0.0
H106 H 0.59036 0.77146 0.57993 0.0
C107 C 0.50957 0.77934 0.56455 0.0
O108 O 0.50096 0.79809 0.5806 0.0
N109 N 0.5598 0.86768 0.56698 0.0
C110 C 0.55966 0.88754 0.58703 0.0
C111 C 0.5288 0.89212 0.58547 0.0
C112 C 0.53032 0.86242 0.55284 0.0
N113 N 0.50971 0.87543 0.56427 0.0
C114 C 0.62185 0.86502 0.61081 0.0
C115 C 0.5695 0.80286 0.63696 0.0
C116 C 0.59859 0.83229 0.65021 0.0
C117 C 0.62532 0.8634 0.63678 0.0
C118 C 0.56724 0.80539 0.61093 0.0
N119 N 0.59243 0.83682 0.59799 0.0
H120 H 0.64288 0.88971 0.60132 0.0
H121 H 0.54602 0.78098 0.60165 0.0
H122 H 0.57885 0.89585 0.60266 0.0
H123 H 0.52196 0.84568 0.53591 0.0
O124 O 0.6336 0.89279 0.55882 0.0
O125 O 0.597 0.86173 0.52682 0.0
O126 O 0.54325 0.79324 0.55646 0.0
C127 C 0.62581 0.89231 0.53523 0.0
H128 H 0.63641 0.75081 0.56219 0.0
H129 H 0.51923 0.90354 0.60014 0.0
H130 H 0.54905 0.77761 0.64659 0.0
H131 H 0.64845 0.88671 0.64632 0.0
Co132 Co 0.77517 0.59972 0.06753 0.0
C133 C 0.84804 0.65263 0.04174 0.0
C134 C 0.85579 0.63113 0.07656 0.0
C135 C 0.89025 0.65377 0.06604 0.0
N136 N 0.82902 0.63057 0.06166 0.0
N137 N 0.88561 0.66745 0.04416 0.0
H138 H 0.8349 0.65739 0.02565 0.0
H139 H 0.85103 0.61511 0.09355 0.0
C140 C 0.76164 0.51993 0.07215 0.0
O141 O 0.73403 0.51118 0.08803 0.0
N142 N 0.72154 0.56882 0.07304 0.0
C143 C 0.7012 0.57076 0.09219 0.0
C144 C 0.66569 0.54 0.09115 0.0
C145 C 0.69751 0.5381 0.05983 0.0
N146 N 0.6636 0.51893 0.07112 0.0
C147 C 0.78552 0.63451 0.11574 0.0
C148 C 0.78966 0.58107 0.14471 0.0
C149 C 0.78836 0.61067 0.15669 0.0
C150 C 0.78725 0.6381 0.14181 0.0
C151 C 0.78815 0.57865 0.11848 0.0
N152 N 0.7841 0.60411 0.10415 0.0
H153 H 0.78427 0.65613 0.10515 0.0
H154 H 0.79203 0.55717 0.11022 0.0
H155 H 0.71175 0.59168 0.10682 0.0
H156 H 0.70593 0.52814 0.04366 0.0
O157 O 0.76874 0.6426 0.06346 0.0
O158 O 0.7644 0.60507 0.03243 0.0
O159 O 0.78104 0.55361 0.0638 0.0
C160 C 0.76199 0.63396 0.03997 0.0
H161 H 0.91671 0.65837 0.07343 0.0
H162 H 0.64423 0.53211 0.10537 0.0
H163 H 0.7924 0.56022 0.1555 0.0
H164 H 0.78666 0.66176 0.15024 0.0
Co165 Co 0.15567 0.75243 0.57231 0.0
C166 C 0.18882 0.82829 0.5499 0.0
C167 C 0.15107 0.8207 0.58015 0.0
C168 C 0.16211 0.85486 0.56889 0.0
N169 N 0.16777 0.80407 0.56822 0.0
N170 N 0.18573 0.85953 0.54987 0.0
H171 H 0.20449 0.82236 0.53612 0.0
H172 H 0.13106 0.80816 0.59531 0.0
C173 C 0.23199 0.762 0.57923 0.0
O174 O 0.21843 0.74016 0.59907 0.0
N175 N 0.14253 0.69955 0.5752 0.0
C176 C 0.10863 0.67043 0.58179 0.0
C177 C 0.10862 0.63727 0.57875 0.0
C178 C 0.16199 0.6829 0.56713 0.0
N179 N 0.14226 0.64519 0.56972 0.0
C180 C 0.13563 0.7376 0.62417 0.0
C181 C 0.20073 0.79527 0.64432 0.0
C182 C 0.17232 0.77032 0.66072 0.0
C183 C 0.13912 0.74184 0.65012 0.0
C184 C 0.19574 0.79034 0.61823 0.0
N185 N 0.16422 0.76046 0.60848 0.0
H186 H 0.10924 0.71638 0.61679 0.0
H187 H 0.21742 0.81028 0.60588 0.0
H188 H 0.08458 0.67252 0.58753 0.0
H189 H 0.18932 0.69745 0.55844 0.0
O190 O 0.10363 0.7378 0.57281 0.0
O191 O 0.13537 0.74179 0.53823 0.0
O192 O 0.21029 0.76863 0.56559 0.0
C193 C 0.10363 0.73445 0.54862 0.0
H194 H 0.15308 0.87456 0.57406 0.0
H195 H 0.08565 0.60941 0.58289 0.0
H196 H 0.2267 0.81818 0.65148 0.0
H197 H 0.11546 0.72317 0.66175 0.0
Co198 Co 0.80918 0.60654 0.43129 0.0
C199 C 0.78381 0.6628 0.44084 0.0
C200 C 0.75439 0.61146 0.46198 0.0
C201 C 0.73925 0.63349 0.46772 0.0
N202 N 0.78193 0.62938 0.44499 0.0
N203 N 0.75747 0.66564 0.45445 0.0
H204 H 0.80338 0.68407 0.42806 0.0
H205 H 0.7459 0.58406 0.46977 0.0
C206 C 0.74724 0.53314 0.41197 0.0
O207 O 0.76781 0.53755 0.39198 0.0
N208 N 0.83572 0.58135 0.41934 0.0
C209 C 0.87086 0.59585 0.41001 0.0
C210 C 0.88056 0.56816 0.4097 0.0
C211 C 0.82565 0.54569 0.42561 0.0
N212 N 0.85173 0.53667 0.41929 0.0
C213 C 0.83347 0.64086 0.38314 0.0
C214 C 0.76343 0.61108 0.36143 0.0
C215 C 0.79536 0.62772 0.34598 0.0
C216 C 0.83069 0.64476 0.35739 0.0
C217 C 0.76763 0.60817 0.38733 0.0
N218 N 0.8023 0.61977 0.39733 0.0
H219 H 0.86089 0.65395 0.39149 0.0
H220 H 0.74288 0.59459 0.39903 0.0
H221 H 0.88956 0.62496 0.40548 0.0
H222 H 0.80064 0.52712 0.43613 0.0
O223 O 0.8561 0.65084 0.4385 0.0
O224 O 0.82593 0.6031 0.46481 0.0
O225 O 0.75989 0.55744 0.42966 0.0
C226 C 0.85566 0.63537 0.45985 0.0
H227 H 0.71685 0.62668 0.48104 0.0
H228 H 0.90702 0.57117 0.40361 0.0
H229 H 0.73554 0.59863 0.35351 0.0
H230 H 0.8561 0.65989 0.34638 0.0
Co231 Co 0.23314 0.82123 0.93264 0.0
C232 C 0.15114 0.79404 0.94333 0.0
C233 C 0.18015 0.78109 0.97172 0.0
C234 C 0.14329 0.76486 0.9785 0.0
N235 N 0.18531 0.79924 0.94972 0.0
N236 N 0.12494 0.77271 0.96073 0.0
H237 H 0.14527 0.8042 0.92612 0.0
H238 H 0.20176 0.77886 0.9818 0.0
C239 C 0.24081 0.7544 0.91999 0.0
O240 O 0.25628 0.77085 0.89858 0.0
N241 N 0.28266 0.84241 0.91749 0.0
C242 C 0.29968 0.86725 0.89865 0.0
C243 C 0.33609 0.87431 0.89643 0.0
C244 C 0.30945 0.83616 0.927 0.0
N245 N 0.3421 0.8546 0.91432 0.0
C246 C 0.21358 0.83699 0.88432 0.0
C247 C 0.17593 0.76415 0.86677 0.0
C248 C 0.18609 0.79383 0.84988 0.0
C249 C 0.20331 0.83044 0.85908 0.0
C250 C 0.18617 0.77205 0.89208 0.0
N251 N 0.20823 0.80831 0.8999 0.0
H252 H 0.22759 0.86555 0.89095 0.0
H253 H 0.17765 0.74895 0.90502 0.0
H254 H 0.28749 0.88025 0.88747 0.0
H255 H 0.30456 0.81748 0.94267 0.0
O256 O 0.23949 0.87068 0.93586 0.0
O257 O 0.25825 0.84398 0.96407 0.0
O258 O 0.23047 0.7709 0.93576 0.0
C259 C 0.25644 0.87338 0.95696 0.0
H260 H 0.13064 0.748 0.99514 0.0
H261 H 0.35661 0.89288 0.88288 0.0
H262 H 0.16128 0.73533 0.86034 0.0
H263 H 0.21049 0.85394 0.84661 0.0
Co264 Co 0.40566 0.2096 0.4337 0.0
C265 C 0.345 0.12986 0.44926 0.0
C266 C 0.39564 0.15561 0.471 0.0
C267 C 0.37172 0.12182 0.48167 0.0
N268 N 0.37957 0.16101 0.45054 0.0
N269 N 0.33982 0.10555 0.46827 0.0
H270 H 0.32369 0.12561 0.43574 0.0
H271 H 0.42298 0.17574 0.47819 0.0
C272 C 0.45505 0.17731 0.42787 0.0
O273 O 0.42532 0.14705 0.4195 0.0
N274 N 0.43382 0.25903 0.41908 0.0
C275 C 0.42232 0.27692 0.40338 0.0
C276 C 0.45222 0.31245 0.39888 0.0
C277 C 0.47001 0.28361 0.42404 0.0
N278 N 0.48226 0.31661 0.41194 0.0
C279 C 0.35833 0.17393 0.39068 0.0
C280 C 0.41741 0.19751 0.35732 0.0
C281 C 0.38139 0.18432 0.34767 0.0
C282 C 0.35131 0.17102 0.36468 0.0
C283 C 0.42324 0.20056 0.38311 0.0
N284 N 0.39409 0.18921 0.39967 0.0
H285 H 0.33538 0.16703 0.40342 0.0
H286 H 0.45191 0.21558 0.38947 0.0
H287 H 0.39425 0.26511 0.39591 0.0
H288 H 0.48698 0.27712 0.43624 0.0
O289 O 0.36348 0.21702 0.43859 0.0
O290 O 0.40973 0.23327 0.4659 0.0
O291 O 0.45279 0.20591 0.43463 0.0
C292 C 0.37876 0.23268 0.45983 0.0
H293 H 0.37702 0.11025 0.49844 0.0
H294 H 0.45151 0.33362 0.38718 0.0
H295 H 0.44151 0.20771 0.34499 0.0
H296 H 0.323 0.16093 0.35805 0.0
Co297 Co 0.19167 0.40368 0.94008 0.0
C298 C 0.20641 0.34441 0.9619 0.0
C299 C 0.25635 0.39364 0.94951 0.0
C300 C 0.26633 0.36929 0.95954 0.0
N301 N 0.21872 0.37817 0.95049 0.0
N302 N 0.23512 0.33836 0.96737 0.0
H303 H 0.1774 0.32487 0.96638 0.0
H304 H 0.276 0.42148 0.94293 0.0
C305 C 0.25246 0.48263 0.92943 0.0
O306 O 0.23337 0.48192 0.90944 0.0
N307 N 0.16558 0.43057 0.93095 0.0
C308 C 0.14264 0.4265 0.91162 0.0
C309 C 0.13731 0.45705 0.91112 0.0
C310 C 0.17181 0.46223 0.94267 0.0
N311 N 0.15644 0.47994 0.93037 0.0
C312 C 0.17244 0.37393 0.89022 0.0
C313 C 0.24222 0.41511 0.86835 0.0
C314 C 0.2111 0.39395 0.853 0.0
C315 C 0.1761 0.37214 0.8643 0.0
C316 C 0.23716 0.41651 0.89425 0.0
N317 N 0.20206 0.39825 0.90473 0.0
H318 H 0.145 0.35688 0.89831 0.0
H319 H 0.26166 0.43345 0.90536 0.0
H320 H 0.1316 0.40426 0.89799 0.0
H321 H 0.18995 0.47357 0.95885 0.0
O322 O 0.14437 0.35798 0.9429 0.0
O323 O 0.17117 0.39872 0.97381 0.0
O324 O 0.23982 0.45378 0.9438 0.0
C325 C 0.14223 0.368 0.96562 0.0
H326 H 0.2947 0.37462 0.96193 0.0
H327 H 0.1229 0.46326 0.89652 0.0
H328 H 0.26998 0.43161 0.86033 0.0
H329 H 0.15156 0.35429 0.85312 0.0
Co330 Co 0.79863 0.20463 0.43642 0.0
C331 C 0.87549 0.22102 0.45454 0.0
C332 C 0.84124 0.22791 0.48203 0.0
C333 C 0.87418 0.23571 0.49323 0.0
N334 N 0.84167 0.2185 0.45784 0.0
N335 N 0.8957 0.23133 0.47607 0.0
H336 H 0.88539 0.2157 0.43712 0.0
H337 H 0.81841 0.22944 0.4909 0.0
C338 C 0.83532 0.28682 0.44189 0.0
O339 O 0.86654 0.28681 0.43684 0.0
N340 N 0.75451 0.19065 0.41664 0.0
C341 C 0.74008 0.1646 0.39834 0.0
C342 C 0.70513 0.15899 0.39212 0.0
C343 C 0.72869 0.20082 0.42117 0.0
N344 N 0.6984 0.18199 0.40643 0.0
C345 C 0.84178 0.20108 0.39547 0.0
C346 C 0.82995 0.2485 0.36485 0.0
C347 C 0.84088 0.22457 0.35393 0.0
C348 C 0.84874 0.20203 0.36966 0.0
C349 C 0.82279 0.24629 0.39048 0.0
N350 N 0.82776 0.22212 0.40554 0.0
H351 H 0.84381 0.18036 0.40678 0.0
H352 H 0.80878 0.26072 0.39733 0.0
H353 H 0.75324 0.14954 0.39092 0.0
H354 H 0.7309 0.21975 0.43603 0.0
O355 O 0.7884 0.15367 0.43538 0.0
O356 O 0.76622 0.17606 0.46433 0.0
O357 O 0.80421 0.25576 0.44292 0.0
C358 C 0.76783 0.14746 0.45522 0.0
H359 H 0.88213 0.24486 0.51244 0.0
H360 H 0.68568 0.13882 0.37879 0.0
H361 H 0.82372 0.26647 0.35335 0.0
H362 H 0.85685 0.1828 0.36188 0.0
Co363 Co 0.61344 0.78531 0.92518 0.0
C364 C 0.64989 0.86111 0.94833 0.0
C365 C 0.68259 0.85707 0.91831 0.0
C366 C 0.7015 0.89283 0.92789 0.0
N367 N 0.65022 0.83729 0.93102 0.0
N368 N 0.68099 0.89549 0.94674 0.0
H369 H 0.62739 0.85343 0.9617 0.0
H370 H 0.69197 0.8461 0.90326 0.0
C371 C 0.54075 0.7833 0.91913 0.0
O372 O 0.53472 0.76056 0.90015 0.0
N373 N 0.57653 0.73246 0.92013 0.0
C374 C 0.5773 0.70745 0.90413 0.0
C375 C 0.54484 0.67356 0.90691 0.0
C376 C 0.54446 0.71254 0.9334 0.0
N377 N 0.5239 0.67685 0.92513 0.0
C378 C 0.63025 0.78311 0.87307 0.0
C379 C 0.60419 0.82896 0.85529 0.0
C380 C 0.616 0.81127 0.838 0.0
C381 C 0.63052 0.78926 0.84733 0.0
C382 C 0.60489 0.82233 0.881 0.0
N383 N 0.61478 0.79704 0.88946 0.0
H384 H 0.64319 0.76757 0.87976 0.0
H385 H 0.59725 0.8375 0.89401 0.0
H386 H 0.59955 0.71264 0.8913 0.0
H387 H 0.53595 0.72439 0.94841 0.0
O388 O 0.65268 0.77293 0.92519 0.0
O389 O 0.62094 0.77215 0.959 0.0
O390 O 0.57146 0.79678 0.93158 0.0
C391 C 0.64658 0.76634 0.94904 0.0
H392 H 0.72882 0.91488 0.92184 0.0
H393 H 0.53683 0.64881 0.89564 0.0
H394 H 0.59394 0.84729 0.8491 0.0
H395 H 0.64231 0.77706 0.83485 0.0
C396 C 0.71456 0.24085 0.09196 0.0
C397 C 0.72921 0.21893 0.08263 0.0
C398 C 0.67604 0.22827 0.09094 0.0
C399 C 0.65129 0.19257 0.08063 0.0
C400 C 0.66601 0.17073 0.07044 0.0
C401 C 0.7049 0.1843 0.07141 0.0
C402 C 0.66175 0.25282 0.10161 0.0
C403 C 0.64056 0.13249 0.05936 0.0
C404 C 0.55171 0.14836 0.10589 0.0
C405 C 0.53345 0.15697 0.08694 0.0
C406 C 0.58959 0.15834 0.10356 0.0
C407 C 0.60998 0.17767 0.08181 0.0
C408 C 0.5915 0.18536 0.06224 0.0
C409 C 0.55351 0.17483 0.06499 0.0
C410 C 0.60818 0.14951 0.12486 0.0
C411 C 0.6122 0.20596 0.03877 0.0
H412 H 0.73326 0.26786 0.10039 0.0
H413 H 0.71608 0.1672 0.06426 0.0
H414 H 0.64416 0.25683 0.08755 0.0
H415 H 0.64383 0.23892 0.11824 0.0
H416 H 0.68488 0.28084 0.10738 0.0
H417 H 0.6565 0.12022 0.05061 0.0
H418 H 0.62229 0.11318 0.07432 0.0
H419 H 0.62195 0.13419 0.04499 0.0
H420 H 0.53684 0.13494 0.12301 0.0
H421 H 0.53969 0.18099 0.04997 0.0
H422 H 0.62958 0.17599 0.13377 0.0
H423 H 0.62287 0.135 0.11764 0.0
H424 H 0.58779 0.13159 0.1395 0.0
H425 H 0.63387 0.23508 0.04364 0.0
H426 H 0.5932 0.20718 0.02446 0.0
H427 H 0.62691 0.1922 0.03034 0.0
C428 C 0.36557 0.55665 0.55305 0.0
C429 C 0.36797 0.54201 0.57639 0.0
C430 C 0.38693 0.59525 0.54795 0.0
C431 C 0.41127 0.61972 0.56661 0.0
C432 C 0.41387 0.60513 0.59016 0.0
C433 C 0.39219 0.5665 0.59475 0.0
C434 C 0.38349 0.60985 0.52262 0.0
C435 C 0.43943 0.63037 0.61061 0.0
C436 C 0.49515 0.7149 0.55214 0.0
C437 C 0.48269 0.739 0.56081 0.0
C438 C 0.47141 0.67586 0.55258 0.0
C439 C 0.43435 0.66067 0.56176 0.0
C440 C 0.42082 0.68494 0.56881 0.0
C441 C 0.44521 0.72387 0.56828 0.0
C442 C 0.4868 0.65089 0.54476 0.0
C443 C 0.38131 0.66985 0.57838 0.0
H444 H 0.34726 0.53788 0.53866 0.0
H445 H 0.39373 0.55558 0.61296 0.0
H446 H 0.37471 0.63114 0.52502 0.0
H447 H 0.41115 0.62393 0.51306 0.0
H448 H 0.36292 0.58716 0.51025 0.0
H449 H 0.43833 0.61454 0.62783 0.0
H450 H 0.4688 0.64574 0.60374 0.0
H451 H 0.43149 0.65163 0.61569 0.0
H452 H 0.52403 0.72638 0.54622 0.0
H453 H 0.43525 0.7424 0.57463 0.0
H454 H 0.4671 0.62865 0.53182 0.0
H455 H 0.48999 0.63676 0.56159 0.0
H456 H 0.51453 0.6669 0.53538 0.0
H457 H 0.36088 0.64748 0.56582 0.0
H458 H 0.3737 0.69216 0.57994 0.0
H459 H 0.3786 0.65715 0.59723 0.0
C460 C 0.85573 0.39579 0.08743 0.0
C461 C 0.84692 0.36744 0.06968 0.0
C462 C 0.84141 0.42026 0.08536 0.0
C463 C 0.81804 0.41672 0.0648 0.0
C464 C 0.8098 0.38879 0.04641 0.0
C465 C 0.82407 0.36422 0.0492 0.0
C466 C 0.85041 0.44921 0.10563 0.0
C467 C 0.78551 0.38454 0.02402 0.0
C468 C 0.75321 0.45567 0.07714 0.0
C469 C 0.77403 0.49222 0.06744 0.0
C470 C 0.76639 0.43019 0.07536 0.0
C471 C 0.80114 0.44138 0.06341 0.0
C472 C 0.82126 0.47746 0.05231 0.0
C473 C 0.80753 0.50252 0.05451 0.0
C474 C 0.74401 0.392 0.08746 0.0
C475 C 0.85811 0.49021 0.03905 0.0
H476 H 0.87282 0.39798 0.10352 0.0
H477 H 0.81743 0.34252 0.03535 0.0
H478 H 0.86359 0.47771 0.09724 0.0
H479 H 0.82415 0.44404 0.11499 0.0
H480 H 0.8696 0.44878 0.12013 0.0
H481 H 0.78381 0.36315 0.01056 0.0
H482 H 0.75673 0.37623 0.0304 0.0
H483 H 0.79664 0.41177 0.01405 0.0
H484 H 0.72701 0.4472 0.08684 0.0
H485 H 0.82367 0.53056 0.04675 0.0
H486 H 0.75961 0.39009 0.10387 0.0
H487 H 0.74003 0.36963 0.07412 0.0
H488 H 0.71602 0.38638 0.09397 0.0
H489 H 0.87975 0.49395 0.05297 0.0
H490 H 0.86801 0.51718 0.0289 0.0
H491 H 0.8555 0.46863 0.02544 0.0
C492 C 0.4469 0.82885 0.54824 0.0
C493 C 0.47066 0.86352 0.55977 0.0
C494 C 0.40783 0.81359 0.54802 0.0
C495 C 0.39194 0.83331 0.5597 0.0
C496 C 0.41581 0.86933 0.56994 0.0
C497 C 0.45483 0.88404 0.56974 0.0
C498 C 0.38351 0.77516 0.53679 0.0
C499 C 0.40008 0.89127 0.58269 0.0
C500 C 0.28806 0.80132 0.5517 0.0
C501 C 0.27261 0.77948 0.57341 0.0
C502 C 0.3268 0.81868 0.54673 0.0
C503 C 0.35063 0.81443 0.56399 0.0
C504 C 0.33509 0.79226 0.58582 0.0
C505 C 0.29639 0.77498 0.59018 0.0
C506 C 0.34225 0.8416 0.52305 0.0
C507 C 0.35944 0.78711 0.60482 0.0
H508 H 0.45844 0.81236 0.54068 0.0
H509 H 0.47292 0.91102 0.57835 0.0
H510 H 0.37003 0.75427 0.5521 0.0
H511 H 0.36085 0.77462 0.52521 0.0
H512 H 0.39996 0.76629 0.52497 0.0
H513 H 0.42223 0.92034 0.58731 0.0
H514 H 0.37883 0.89256 0.57058 0.0
H515 H 0.38583 0.87685 0.60037 0.0
H516 H 0.26993 0.80493 0.53861 0.0
H517 H 0.28485 0.75827 0.60704 0.0
H518 H 0.35708 0.83035 0.51177 0.0
H519 H 0.36306 0.87102 0.52789 0.0
H520 H 0.31996 0.84161 0.5113 0.0
H521 H 0.37432 0.77399 0.59575 0.0
H522 H 0.34303 0.76928 0.62095 0.0
H523 H 0.38109 0.81482 0.61213 0.0
C524 C 0.64595 0.45426 0.05847 0.0
C525 C 0.63568 0.47992 0.06757 0.0
C526 C 0.62066 0.41543 0.05896 0.0
C527 C 0.58416 0.40182 0.06883 0.0
C528 C 0.57298 0.42761 0.0768 0.0
C529 C 0.59882 0.46629 0.07601 0.0
C530 C 0.63374 0.38896 0.05021 0.0
C531 C 0.53434 0.41431 0.08744 0.0
C532 C 0.50757 0.30026 0.05884 0.0
C533 C 0.50848 0.28357 0.08168 0.0
C534 C 0.53248 0.33855 0.05415 0.0
C535 C 0.55875 0.36075 0.07278 0.0
C536 C 0.56017 0.34392 0.09569 0.0
C537 C 0.53515 0.30559 0.09982 0.0
C538 C 0.53037 0.35535 0.02939 0.0
C539 C 0.5877 0.3666 0.1161 0.0
H540 H 0.6744 0.46425 0.05219 0.0
H541 H 0.59055 0.48591 0.0828 0.0
H542 H 0.63664 0.37393 0.06662 0.0
H543 H 0.61281 0.3675 0.03737 0.0
H544 H 0.66121 0.40392 0.04039 0.0
H545 H 0.52905 0.43787 0.09103 0.0
H546 H 0.51258 0.39423 0.07439 0.0
H547 H 0.53114 0.39924 0.10541 0.0
H548 H 0.48716 0.2835 0.04466 0.0
H549 H 0.53614 0.29304 0.11752 0.0
H550 H 0.55819 0.36905 0.02003 0.0
H551 H 0.5228 0.37737 0.03267 0.0
H552 H 0.5094 0.33402 0.01646 0.0
H553 H 0.61676 0.38013 0.1087 0.0
H554 H 0.58568 0.34919 0.13265 0.0
H555 H 0.58253 0.38932 0.1224 0.0
C556 C 0.17137 0.47431 0.59009 0.0
C557 C 0.19236 0.46736 0.57236 0.0
C558 C 0.16604 0.50531 0.58773 0.0
C559 C 0.1812 0.52958 0.56675 0.0
C560 C 0.20215 0.52254 0.54861 0.0
C561 C 0.20795 0.4918 0.55182 0.0
C562 C 0.14429 0.5122 0.60786 0.0
C563 C 0.21799 0.54718 0.52568 0.0
C564 C 0.13059 0.5839 0.55425 0.0
C565 C 0.1547 0.61857 0.56543 0.0
C566 C 0.14013 0.55558 0.55295 0.0
C567 C 0.17414 0.56167 0.56381 0.0
C568 C 0.19931 0.59726 0.57423 0.0
C569 C 0.18945 0.62546 0.57463 0.0
C570 C 0.11298 0.51853 0.541 0.0
C571 C 0.23547 0.60477 0.58648 0.0
H572 H 0.1597 0.45588 0.60621 0.0
H573 H 0.22422 0.48656 0.53807 0.0
H574 H 0.16136 0.54099 0.61548 0.0
H575 H 0.11853 0.5101 0.5997 0.0
H576 H 0.13605 0.49185 0.62364 0.0
H577 H 0.23345 0.53785 0.51325 0.0
H578 H 0.19496 0.54702 0.51475 0.0
H579 H 0.23728 0.57661 0.53139 0.0
H580 H 0.10386 0.57876 0.54696 0.0
H581 H 0.2079 0.65218 0.58347 0.0
H582 H 0.09978 0.49666 0.55576 0.0
H583 H 0.12794 0.50947 0.52794 0.0
H584 H 0.09042 0.52 0.5305 0.0
H585 H 0.22903 0.58776 0.60391 0.0
H586 H 0.2536 0.63482 0.59144 0.0
H587 H 0.25139 0.59625 0.57392 0.0
C588 C 0.81586 0.46801 0.41646 0.0
C589 C 0.84889 0.50076 0.4231 0.0
C590 C 0.81208 0.43251 0.42017 0.0
C591 C 0.84171 0.42974 0.43153 0.0
C592 C 0.87484 0.46282 0.43884 0.0
C593 C 0.87828 0.49805 0.43414 0.0
C594 C 0.77684 0.39811 0.41133 0.0
C595 C 0.90664 0.46099 0.4516 0.0
C596 C 0.81959 0.33453 0.45788 0.0
C597 C 0.83536 0.32246 0.43943 0.0
C598 C 0.82185 0.36974 0.45579 0.0
C599 C 0.839 0.39243 0.43431 0.0
C600 C 0.85379 0.37952 0.41529 0.0
C601 C 0.85239 0.34501 0.41832 0.0
C602 C 0.80667 0.38302 0.47676 0.0
C603 C 0.87105 0.4021 0.39168 0.0
H604 H 0.79326 0.47037 0.40784 0.0
H605 H 0.90353 0.52349 0.43958 0.0
H606 H 0.78402 0.38337 0.39682 0.0
H607 H 0.76337 0.37821 0.42714 0.0
H608 H 0.75619 0.40512 0.40324 0.0
H609 H 0.92914 0.48904 0.45787 0.0
H610 H 0.89597 0.44205 0.46815 0.0
H611 H 0.91903 0.44917 0.43852 0.0
H612 H 0.8066 0.31699 0.47422 0.0
H613 H 0.86422 0.33533 0.40394 0.0
H614 H 0.78456 0.38842 0.46949 0.0
H615 H 0.82939 0.40993 0.48437 0.0
H616 H 0.79472 0.36231 0.49235 0.0
H617 H 0.85093 0.40872 0.38236 0.0
H618 H 0.87931 0.38704 0.37809 0.0
H619 H 0.89629 0.42915 0.39649 0.0
C620 C 0.3817 0.83957 0.94143 0.0
C621 C 0.3749 0.8509 0.91803 0.0
C622 C 0.41065 0.83126 0.94455 0.0
C623 C 0.43367 0.83464 0.92383 0.0
C624 C 0.42833 0.84805 0.90054 0.0
C625 C 0.399 0.85594 0.89791 0.0
C626 C 0.41539 0.81709 0.9697 0.0
C627 C 0.45243 0.85228 0.87801 0.0
C628 C 0.52437 0.83202 0.93187 0.0
C629 C 0.51309 0.79542 0.92396 0.0
C630 C 0.49861 0.84507 0.93263 0.0
C631 C 0.46076 0.82069 0.92568 0.0
C632 C 0.44898 0.78307 0.91909 0.0
C633 C 0.47534 0.77103 0.9181 0.0
C634 C 0.51226 0.88537 0.9397 0.0
C635 C 0.40878 0.75583 0.91209 0.0
H636 H 0.36388 0.83645 0.95728 0.0
H637 H 0.39397 0.86446 0.87974 0.0
H638 H 0.40741 0.78712 0.96806 0.0
H639 H 0.44515 0.83276 0.9757 0.0
H640 H 0.39783 0.81965 0.98455 0.0
H641 H 0.4472 0.86649 0.86204 0.0
H642 H 0.48256 0.86857 0.88307 0.0
H643 H 0.44659 0.82417 0.87168 0.0
H644 H 0.55362 0.85097 0.93625 0.0
H645 H 0.46652 0.74257 0.91223 0.0
H646 H 0.49378 0.88696 0.95422 0.0
H647 H 0.51116 0.90095 0.92298 0.0
H648 H 0.54149 0.89961 0.94689 0.0
H649 H 0.3895 0.75526 0.92687 0.0
H650 H 0.40362 0.72684 0.90942 0.0
H651 H 0.40163 0.76512 0.89439 0.0
C652 C 0.69841 0.46841 0.39958 0.0
C653 C 0.70848 0.50125 0.41317 0.0
C654 C 0.66135 0.4384 0.39974 0.0
C655 C 0.63358 0.4417 0.41336 0.0
C656 C 0.64363 0.47486 0.4271 0.0
C657 C 0.68108 0.50411 0.42706 0.0
C658 C 0.65195 0.40315 0.38537 0.0
C659 C 0.61473 0.47966 0.44154 0.0
C660 C 0.53211 0.37693 0.39421 0.0
C661 C 0.51972 0.3489 0.41277 0.0
C662 C 0.56886 0.40766 0.39444 0.0
C663 C 0.59409 0.41022 0.41344 0.0
C664 C 0.5818 0.38234 0.43233 0.0
C665 C 0.54478 0.35237 0.43194 0.0
C666 C 0.58082 0.43719 0.37416 0.0
C667 C 0.60796 0.38385 0.45279 0.0
H668 H 0.71961 0.46605 0.38896 0.0
H669 H 0.68872 0.52964 0.43737 0.0
H670 H 0.63927 0.37856 0.3982 0.0
H671 H 0.63093 0.39814 0.37062 0.0
H672 H 0.677 0.40469 0.37631 0.0
H673 H 0.62706 0.50737 0.45101 0.0
H674 H 0.59231 0.47682 0.42862 0.0
H675 H 0.60129 0.45731 0.45596 0.0
H676 H 0.51339 0.37467 0.3792 0.0
H677 H 0.53567 0.33169 0.44679 0.0
H678 H 0.60358 0.43766 0.36272 0.0
H679 H 0.5922 0.46537 0.38275 0.0
H680 H 0.55734 0.43216 0.36147 0.0
H681 H 0.63257 0.38382 0.44432 0.0
H682 H 0.59412 0.35979 0.46602 0.0
H683 H 0.61867 0.41025 0.46362 0.0
C684 C 0.21161 0.6958 0.94619 0.0
C685 C 0.23023 0.71466 0.92413 0.0
C686 C 0.19895 0.65739 0.94942 0.0
C687 C 0.2049 0.63734 0.93009 0.0
C688 C 0.2243 0.65637 0.90799 0.0
C689 C 0.23682 0.69478 0.90532 0.0
C690 C 0.17877 0.63814 0.97336 0.0
C691 C 0.23122 0.63598 0.88694 0.0
C692 C 0.20194 0.5451 0.94268 0.0
C693 C 0.16664 0.51885 0.93303 0.0
C694 C 0.21418 0.58361 0.9427 0.0
C695 C 0.19069 0.59638 0.93271 0.0
C696 C 0.15456 0.57005 0.92372 0.0
C697 C 0.14297 0.53161 0.92401 0.0
C698 C 0.25293 0.61073 0.95244 0.0
C699 C 0.12871 0.58261 0.91289 0.0
H700 H 0.20641 0.71092 0.96085 0.0
H701 H 0.25115 0.70904 0.88821 0.0
H702 H 0.1498 0.61568 0.96897 0.0
H703 H 0.19315 0.62455 0.98253 0.0
H704 H 0.17733 0.65792 0.98688 0.0
H705 H 0.24713 0.65496 0.87111 0.0
H706 H 0.24712 0.62264 0.89404 0.0
H707 H 0.20408 0.61325 0.87965 0.0
H708 H 0.22089 0.53586 0.94924 0.0
H709 H 0.11561 0.51153 0.91673 0.0
H710 H 0.25159 0.63018 0.96627 0.0
H711 H 0.271 0.62804 0.93669 0.0
H712 H 0.26646 0.59614 0.96147 0.0
H713 H 0.12496 0.60096 0.92643 0.0
H714 H 0.10072 0.55857 0.90809 0.0
H715 H 0.14138 0.59939 0.89562 0.0
C716 C 0.51624 0.18967 0.44524 0.0
C717 C 0.49191 0.1806 0.42482 0.0
C718 C 0.55073 0.19084 0.44249 0.0
C719 C 0.56138 0.18422 0.41855 0.0
C720 C 0.53731 0.17655 0.3977 0.0
C721 C 0.50246 0.17411 0.40122 0.0
C722 C 0.57519 0.19798 0.46529 0.0
C723 C 0.54822 0.17067 0.37172 0.0
C724 C 0.66417 0.21653 0.40749 0.0
C725 C 0.664 0.18247 0.40856 0.0
C726 C 0.63084 0.21757 0.4104 0.0
C727 C 0.59699 0.18382 0.4154 0.0
C728 C 0.59694 0.1494 0.41689 0.0
C729 C 0.63045 0.1491 0.41302 0.0
C730 C 0.63177 0.25459 0.40786 0.0
C731 C 0.56162 0.11301 0.42289 0.0
H732 H 0.50771 0.19456 0.46346 0.0
H733 H 0.48354 0.16755 0.38543 0.0
H734 H 0.5793 0.17361 0.46854 0.0
H735 H 0.60329 0.22282 0.46211 0.0
H736 H 0.56289 0.20274 0.48251 0.0
H737 H 0.52764 0.16802 0.35722 0.0
H738 H 0.57618 0.19447 0.36657 0.0
H739 H 0.55035 0.14484 0.37144 0.0
H740 H 0.6904 0.24219 0.40405 0.0
H741 H 0.6308 0.12296 0.41422 0.0
H742 H 0.62216 0.2613 0.42556 0.0
H743 H 0.61223 0.25267 0.39281 0.0
H744 H 0.66027 0.27808 0.40335 0.0
H745 H 0.54934 0.11577 0.44077 0.0
H746 H 0.5668 0.08906 0.42461 0.0
H747 H 0.54045 0.10644 0.40796 0.0
C748 C 0.30879 0.5401 0.91324 0.0
C749 C 0.29102 0.51451 0.93293 0.0
C750 C 0.34661 0.568 0.91485 0.0
C751 C 0.3671 0.57097 0.93692 0.0
C752 C 0.34879 0.54661 0.95744 0.0
C753 C 0.31103 0.51835 0.9551 0.0
C754 C 0.36512 0.59306 0.89239 0.0
C755 C 0.36941 0.54964 0.98155 0.0
C756 C 0.47137 0.61147 0.92631 0.0
C757 C 0.48558 0.64965 0.93149 0.0
C758 C 0.43307 0.58535 0.92894 0.0
C759 C 0.40829 0.59749 0.93745 0.0
C760 C 0.42269 0.63554 0.94419 0.0
C761 C 0.4611 0.66122 0.94096 0.0
C762 C 0.41886 0.54511 0.9213 0.0
C763 C 0.39731 0.64953 0.95369 0.0
H764 H 0.29359 0.53743 0.89602 0.0
H765 H 0.29738 0.49891 0.9705 0.0
H766 H 0.37884 0.62299 0.89797 0.0
H767 H 0.38729 0.58788 0.88491 0.0
H768 H 0.34488 0.58823 0.87706 0.0
H769 H 0.35019 0.53171 0.99669 0.0
H770 H 0.39058 0.54096 0.9782 0.0
H771 H 0.38464 0.57917 0.98811 0.0
H772 H 0.49006 0.60205 0.91952 0.0
H773 H 0.4715 0.69061 0.94485 0.0
H774 H 0.39993 0.53813 0.90487 0.0
H775 H 0.40232 0.52578 0.93676 0.0
H776 H 0.44198 0.5398 0.91623 0.0
H777 H 0.37977 0.65001 0.93803 0.0
H778 H 0.4134 0.67831 0.96157 0.0
H779 H 0.37806 0.63041 0.96836 0.0
C780 C 0.34729 0.1587 0.30665 0.0
C781 C 0.3766 0.18774 0.32019 0.0
C782 C 0.34535 0.16077 0.28031 0.0
C783 C 0.37345 0.19252 0.26727 0.0
C784 C 0.40183 0.22275 0.28102 0.0
C785 C 0.40284 0.22012 0.30724 0.0
C786 C 0.31431 0.12818 0.26634 0.0
C787 C 0.43246 0.25705 0.26797 0.0
C788 C 0.39935 0.17702 0.20175 0.0
C789 C 0.38289 0.1926 0.18647 0.0
C790 C 0.39642 0.17691 0.22797 0.0
C791 C 0.37603 0.19234 0.23931 0.0
C792 C 0.35951 0.20842 0.22397 0.0
C793 C 0.36342 0.20865 0.19764 0.0
C794 C 0.4152 0.16022 0.24354 0.0
C795 C 0.33726 0.22477 0.23536 0.0
H796 H 0.32678 0.13372 0.3165 0.0
H797 H 0.42492 0.24326 0.31761 0.0
H798 H 0.30143 0.13835 0.25235 0.0
H799 H 0.32605 0.11305 0.25589 0.0
H800 H 0.29208 0.108 0.2792 0.0
H801 H 0.45045 0.2795 0.28143 0.0
H802 H 0.45045 0.24913 0.25709 0.0
H803 H 0.42027 0.26857 0.25446 0.0
H804 H 0.41454 0.16474 0.19306 0.0
H805 H 0.35039 0.22035 0.18577 0.0
H806 H 0.394 0.13664 0.25506 0.0
H807 H 0.43556 0.18162 0.25667 0.0
H808 H 0.43026 0.14966 0.23178 0.0
H809 H 0.31339 0.20287 0.24632 0.0
H810 H 0.32617 0.23618 0.2209 0.0
H811 H 0.35501 0.24758 0.24862 0.0
C812 C 0.19976 0.36781 0.70436 0.0
C813 C 0.22518 0.40058 0.69142 0.0
C814 C 0.19805 0.36683 0.73069 0.0
C815 C 0.22173 0.39963 0.74451 0.0
C816 C 0.24688 0.43303 0.73166 0.0
C817 C 0.24857 0.43301 0.7053 0.0
C818 C 0.17104 0.33057 0.74373 0.0
C819 C 0.27212 0.46875 0.74575 0.0
C820 C 0.19107 0.40427 0.81101 0.0
C821 C 0.21451 0.39582 0.82529 0.0
C822 C 0.19364 0.40631 0.78473 0.0
C823 C 0.21981 0.39901 0.77243 0.0
C824 C 0.24358 0.39046 0.78679 0.0
C825 C 0.24092 0.38937 0.81313 0.0
C826 C 0.16836 0.4163 0.77013 0.0
C827 C 0.27136 0.38186 0.77431 0.0
H828 H 0.18105 0.34278 0.69389 0.0
H829 H 0.26879 0.45832 0.69564 0.0
H830 H 0.18649 0.32229 0.75695 0.0
H831 H 0.15057 0.3345 0.75497 0.0
H832 H 0.15536 0.30725 0.73028 0.0
H833 H 0.28922 0.49267 0.73294 0.0
H834 H 0.2551 0.47634 0.75797 0.0
H835 H 0.29131 0.46444 0.75815 0.0
H836 H 0.17098 0.40975 0.82048 0.0
H837 H 0.25893 0.38271 0.82423 0.0
H838 H 0.14989 0.39282 0.75753 0.0
H839 H 0.18543 0.44118 0.75809 0.0
H840 H 0.1505 0.4225 0.78261 0.0
H841 H 0.25636 0.35727 0.76172 0.0
H842 H 0.28781 0.37576 0.78816 0.0
H843 H 0.29107 0.40591 0.76247 0.0
C844 C 0.80708 0.21584 0.3135 0.0
C845 C 0.83853 0.21947 0.3263 0.0
C846 C 0.80422 0.21214 0.28736 0.0
C847 C 0.83345 0.21186 0.27362 0.0
C848 C 0.86465 0.21404 0.28646 0.0
C849 C 0.86679 0.21774 0.31275 0.0
C850 C 0.77045 0.20977 0.2744 0.0
C851 C 0.89629 0.21373 0.27235 0.0
C852 C 0.81407 0.18039 0.20543 0.0
C853 C 0.83007 0.215 0.1929 0.0
C854 C 0.81529 0.1788 0.23178 0.0
C855 C 0.83272 0.21259 0.24574 0.0
C856 C 0.84838 0.24752 0.23315 0.0
C857 C 0.84681 0.24827 0.20691 0.0
C858 C 0.79823 0.14107 0.24465 0.0
C859 C 0.86677 0.28417 0.24737 0.0
H860 H 0.78459 0.21601 0.324 0.0
H861 H 0.89096 0.22026 0.32263 0.0
H862 H 0.77936 0.235 0.26248 0.0
H863 H 0.75727 0.18497 0.26186 0.0
H864 H 0.74904 0.20784 0.28796 0.0
H865 H 0.91694 0.2125 0.28518 0.0
H866 H 0.88511 0.18935 0.25944 0.0
H867 H 0.91109 0.23945 0.26066 0.0
H868 H 0.80144 0.15466 0.19461 0.0
H869 H 0.85877 0.27506 0.19727 0.0
H870 H 0.77598 0.13786 0.25787 0.0
H871 H 0.81989 0.13913 0.2559 0.0
H872 H 0.78591 0.11744 0.23108 0.0
H873 H 0.84616 0.28533 0.26024 0.0
H874 H 0.87818 0.30893 0.23467 0.0
H875 H 0.88999 0.28621 0.2591 0.0
C876 C 0.621 0.84991 0.79997 0.0
C877 C 0.61332 0.81546 0.81046 0.0
C878 C 0.61848 0.85382 0.77394 0.0
C879 C 0.60844 0.82265 0.75805 0.0
C880 C 0.60066 0.78785 0.7685 0.0
C881 C 0.60291 0.78461 0.79456 0.0
C882 C 0.6267 0.8913 0.76343 0.0
C883 C 0.59003 0.75401 0.75214 0.0
C884 C 0.56958 0.81956 0.69293 0.0
C885 C 0.60127 0.83036 0.67785 0.0
C886 C 0.57168 0.81766 0.71914 0.0
C887 C 0.6062 0.82632 0.73044 0.0
C888 C 0.63831 0.83729 0.71529 0.0
C889 C 0.63549 0.83938 0.68915 0.0
C890 C 0.53696 0.80622 0.73474 0.0
C891 C 0.67546 0.8462 0.72665 0.0
H892 H 0.6295 0.87401 0.81204 0.0
H893 H 0.59618 0.75768 0.80251 0.0
H894 H 0.6509 0.90215 0.75036 0.0
H895 H 0.60231 0.888 0.75247 0.0
H896 H 0.63313 0.91247 0.77838 0.0
H897 H 0.58541 0.72912 0.76321 0.0
H898 H 0.56403 0.74663 0.74157 0.0
H899 H 0.61243 0.76058 0.73811 0.0
H900 H 0.5432 0.813 0.68421 0.0
H901 H 0.65993 0.84738 0.67746 0.0
H902 H 0.54252 0.82814 0.74892 0.0
H903 H 0.52929 0.77993 0.74511 0.0
H904 H 0.51264 0.80167 0.7231 0.0
H905 H 0.68435 0.86896 0.74071 0.0
H906 H 0.6979 0.855 0.71229 0.0
H907 H 0.6725 0.82117 0.73666 0.0
C908 C 0.76495 0.58114 0.1989 0.0
C909 C 0.78815 0.61306 0.18451 0.0
C910 C 0.76389 0.58313 0.22519 0.0
C911 C 0.78678 0.61784 0.23736 0.0
C912 C 0.8101 0.6502 0.22291 0.0
C913 C 0.81047 0.64742 0.19666 0.0
C914 C 0.73858 0.54805 0.23996 0.0
C915 C 0.83522 0.68761 0.23522 0.0
C916 C 0.76619 0.63107 0.30515 0.0
C917 C 0.79243 0.62519 0.31816 0.0
C918 C 0.76381 0.62859 0.27879 0.0
C919 C 0.78812 0.61987 0.26526 0.0
C920 C 0.81429 0.61346 0.27835 0.0
C921 C 0.81606 0.61612 0.30458 0.0
C922 C 0.73556 0.6356 0.26541 0.0
C923 C 0.84056 0.60388 0.26464 0.0
H924 H 0.74725 0.55464 0.18955 0.0
H925 H 0.82872 0.6721 0.18563 0.0
H926 H 0.75566 0.54083 0.25243 0.0
H927 H 0.7196 0.55294 0.25217 0.0
H928 H 0.72132 0.52367 0.2276 0.0
H929 H 0.85041 0.71041 0.22127 0.0
H930 H 0.81847 0.69539 0.24756 0.0
H931 H 0.85613 0.68558 0.24727 0.0
H932 H 0.74794 0.63816 0.31555 0.0
H933 H 0.8358 0.61065 0.31455 0.0
H934 H 0.71676 0.61092 0.25377 0.0
H935 H 0.75023 0.65991 0.25251 0.0
H936 H 0.71819 0.64131 0.27868 0.0
H937 H 0.82423 0.57795 0.25344 0.0
H938 H 0.85918 0.59957 0.27766 0.0
H939 H 0.85829 0.62673 0.25132 0.0
C940 C 0.20979 0.78341 0.80964 0.0
C941 C 0.18241 0.78749 0.82252 0.0
C942 C 0.20936 0.7811 0.78333 0.0
C943 C 0.1805 0.78239 0.76967 0.0
C944 C 0.15238 0.7859 0.78274 0.0
C945 C 0.15393 0.78885 0.80908 0.0
C946 C 0.24016 0.77798 0.77013 0.0
C947 C 0.1208 0.7867 0.76889 0.0
C948 C 0.19501 0.80914 0.7003 0.0
C949 C 0.17631 0.77384 0.68864 0.0
C950 C 0.19708 0.81236 0.72665 0.0
C951 C 0.17949 0.77957 0.74173 0.0
C952 C 0.16094 0.74392 0.73012 0.0
C953 C 0.16003 0.7415 0.70383 0.0
C954 C 0.21779 0.85087 0.73835 0.0
C955 C 0.14159 0.70827 0.74549 0.0
H956 H 0.2321 0.78298 0.8202 0.0
H957 H 0.13307 0.79242 0.8192 0.0
H958 H 0.22801 0.75191 0.75881 0.0
H959 H 0.25524 0.8019 0.75697 0.0
H960 H 0.26076 0.77774 0.78351 0.0
H961 H 0.10066 0.78859 0.78186 0.0
H962 H 0.13228 0.81106 0.75589 0.0
H963 H 0.10538 0.761 0.75732 0.0
H964 H 0.20738 0.83435 0.6889 0.0
H965 H 0.14635 0.71402 0.69515 0.0
H966 H 0.23964 0.85262 0.75139 0.0
H967 H 0.19809 0.85599 0.74958 0.0
H968 H 0.23137 0.87348 0.72406 0.0
H969 H 0.16216 0.70617 0.75784 0.0
H970 H 0.12771 0.68276 0.73357 0.0
H971 H 0.12015 0.7088 0.75785 0.0
C972 C 0.30015 0.91507 0.99047 0.0
C973 C 0.27527 0.90937 0.97077 0.0
C974 C 0.3198 0.95007 0.00252 0.0
C975 C 0.31419 0.9799 0.99478 0.0
C976 C 0.28904 0.9742 0.97494 0.0
C977 C 0.27 0.93908 0.96315 0.0
C978 C 0.34643 0.95511 0.0236 0.0
C979 C 0.2819 0.00509 0.96632 0.0
C980 C 0.33164 0.05541 0.04231 0.0
C981 C 0.36646 0.08525 0.03461 0.0
C982 C 0.31449 0.02113 0.02951 0.0
C983 C 0.33263 0.0163 0.00849 0.0
C984 C 0.36772 0.04635 0.00044 0.0
C985 C 0.38422 0.08064 0.01358 0.0
C986 C 0.27689 0.99003 0.03856 0.0
C987 C 0.38791 0.04213 0.97812 0.0
H988 H 0.30464 0.89234 0.99627 0.0
H989 H 0.25089 0.93493 0.94788 0.0
H990 H 0.37466 0.97928 0.01952 0.0
H991 H 0.33657 0.96149 0.04133 0.0
H992 H 0.34899 0.92974 0.0266 0.0
H993 H 0.26241 0.9965 0.95008 0.0
H994 H 0.26975 0.01338 0.98197 0.0
H995 H 0.30868 0.0303 0.96091 0.0
H996 H 0.31761 0.05876 0.05851 0.0
H997 H 0.41121 0.10353 0.00764 0.0
H998 H 0.27894 0.96492 0.04357 0.0
H999 H 0.25585 0.98168 0.02331 0.0
H1000 H 0.26648 0.99838 0.0552 0.0
H1001 H 0.39323 0.01854 0.98138 0.0
H1002 H 0.41508 0.06801 0.97436 0.0
H1003 H 0.3701 0.03522 0.96112 0.0
C1004 C 0.30674 0.36614 0.51527 0.0
C1005 C 0.29101 0.3544 0.53921 0.0
C1006 C 0.32195 0.34696 0.50236 0.0
C1007 C 0.3206 0.31495 0.5135 0.0
C1008 C 0.30432 0.30284 0.53754 0.0
C1009 C 0.29005 0.32289 0.55017 0.0
C1010 C 0.33959 0.36099 0.47688 0.0
C1011 C 0.30161 0.26844 0.54987 0.0
C1012 C 0.32637 0.24387 0.47103 0.0
C1013 C 0.36338 0.25204 0.47487 0.0
C1014 C 0.31206 0.26404 0.48355 0.0
C1015 C 0.33557 0.29358 0.49994 0.0
C1016 C 0.37297 0.30189 0.50395 0.0
C1017 C 0.38633 0.28075 0.49153 0.0
C1018 C 0.27178 0.25373 0.47922 0.0
C1019 C 0.39901 0.33347 0.52106 0.0
H1020 H 0.30763 0.39056 0.5068 0.0
H1021 H 0.27758 0.31345 0.56859 0.0
H1022 H 0.369 0.36691 0.47704 0.0
H1023 H 0.32435 0.33905 0.46251 0.0
H1024 H 0.3394 0.38688 0.47114 0.0
H1025 H 0.28772 0.26253 0.56854 0.0
H1026 H 0.28555 0.24359 0.53766 0.0
H1027 H 0.33001 0.27212 0.55228 0.0
H1028 H 0.30854 0.22168 0.45814 0.0
H1029 H 0.41511 0.28747 0.49429 0.0
H1030 H 0.27061 0.2781 0.47134 0.0
H1031 H 0.2564 0.24639 0.49735 0.0
H1032 H 0.25706 0.22965 0.46616 0.0
H1033 H 0.40133 0.36022 0.51462 0.0
H1034 H 0.42754 0.33693 0.52169 0.0
H1035 H 0.38746 0.32816 0.54041 0.0
C1036 C 0.93126 0.2805 0.0138 0.0
C1037 C 0.9244 0.2588 0.03554 0.0
C1038 C 0.96673 0.29749 0.00211 0.0
C1039 C 0.99562 0.29218 0.01231 0.0
C1040 C 0.98809 0.26885 0.03359 0.0
C1041 C 0.95271 0.25265 0.04497 0.0
C1042 C 0.97374 0.32221 0.97943 0.0
C1043 C 0.01777 0.26187 0.04482 0.0
C1044 C 0.07907 0.31172 0.97135 0.0
C1045 C 0.10655 0.34734 0.9797 0.0
C1046 C 0.04297 0.29345 0.98183 0.0
C1047 C 0.03393 0.31129 0.00106 0.0
C1048 C 0.06181 0.34691 0.01 0.0
C1049 C 0.0979 0.36447 0.99927 0.0
C1050 C 0.01433 0.25526 0.97205 0.0
C1051 C 0.05325 0.3668 0.03053 0.0
H1052 H 0.90957 0.28564 0.00666 0.0
H1053 H 0.94745 0.23572 0.06175 0.0
H1054 H 0.99565 0.35141 0.98388 0.0
H1055 H 0.98437 0.31262 0.9636 0.0
H1056 H 0.94805 0.32235 0.97322 0.0
H1057 H 0.00681 0.2415 0.06065 0.0
H1058 H 0.02918 0.251 0.03028 0.0
H1059 H 0.04144 0.28864 0.05183 0.0
H1060 H 0.08558 0.2983 0.95621 0.0
H1061 H 0.11887 0.39218 0.00557 0.0
H1062 H 0.99004 0.25644 0.96409 0.0
H1063 H 1.00359 0.2346 0.98767 0.0
H1064 H 0.02603 0.24493 0.9573 0.0
H1065 H 0.03 0.37136 0.02455 0.0
H1066 H 0.07792 0.39437 0.03534 0.0
H1067 H 0.04381 0.34914 0.04771 0.0
C1068 C 0.63163 0.93379 0.49895 0.0
C1069 C 0.64755 0.92636 0.51987 0.0
C1070 C 0.65024 0.96905 0.48701 0.0
C1071 C 0.68559 0.99712 0.49615 0.0
C1072 C 0.70241 0.98898 0.51654 0.0
C1073 C 0.68312 0.95379 0.52818 0.0
C1074 C 0.6315 0.97677 0.46528 0.0
C1075 C 0.74031 0.01786 0.5266 0.0
C1076 C 0.75108 0.08029 0.45569 0.0
C1077 C 0.74637 0.10917 0.46583 0.0
C1078 C 0.73079 0.04352 0.46495 0.0
C1079 C 0.70502 0.03531 0.48481 0.0
C1080 C 0.69973 0.06419 0.49495 0.0
C1081 C 0.72058 0.10088 0.48537 0.0
C1082 C 0.73748 0.01362 0.45379 0.0
C1083 C 0.67242 0.05642 0.51615 0.0
H1084 H 0.60397 0.91274 0.49266 0.0
H1085 H 0.6956 0.94804 0.5443 0.0
H1086 H 0.62515 0.99909 0.47056 0.0
H1087 H 0.65063 0.98719 0.44884 0.0
H1088 H 0.605 0.95142 0.45959 0.0
H1089 H 0.75019 0.00646 0.54186 0.0
H1090 H 0.76142 0.02832 0.51128 0.0
H1091 H 0.73886 0.04229 0.53403 0.0
H1092 H 0.7709 0.08643 0.44052 0.0
H1093 H 0.71663 0.12301 0.49313 0.0
H1094 H 0.7106 0.98944 0.44742 0.0
H1095 H 0.7492 0.003 0.46832 0.0
H1096 H 0.75718 0.02421 0.43761 0.0
H1097 H 0.64424 0.03312 0.51097 0.0
H1098 H 0.67006 0.08142 0.52101 0.0
H1099 H 0.68154 0.04742 0.53311 0.0
C1100 C 0.72491 0.63775 0.00386 0.0
C1101 C 0.7499 0.65514 0.02376 0.0
C1102 C 0.70864 0.65626 0.99129 0.0
C1103 C 0.71817 0.69315 0.99859 0.0
C1104 C 0.74475 0.71133 0.01791 0.0
C1105 C 0.76002 0.692 0.03037 0.0
C1106 C 0.68022 0.63588 0.97087 0.0
C1107 C 0.75634 0.75088 0.02592 0.0
C1108 C 0.69895 0.75285 0.95311 0.0
C1109 C 0.66613 0.75011 0.96311 0.0
C1110 C 0.71627 0.73467 0.96454 0.0
C1111 C 0.70009 0.71271 0.98633 0.0
C1112 C 0.66717 0.71018 0.99672 0.0
C1113 C 0.65071 0.72919 0.98508 0.0
C1114 C 0.75175 0.73878 0.95317 0.0
C1115 C 0.64896 0.68683 0.01987 0.0
H1116 H 0.71671 0.60909 0.99895 0.0
H1117 H 0.77946 0.70558 0.04573 0.0
H1118 H 0.65267 0.63228 0.97653 0.0
H1119 H 0.68876 0.65266 0.95329 0.0
H1120 H 0.67671 0.60779 0.96688 0.0
H1121 H 0.77891 0.76174 0.04028 0.0
H1122 H 0.76631 0.76999 0.00944 0.0
H1123 H 0.73184 0.75172 0.03382 0.0
H1124 H 0.71104 0.76907 0.93613 0.0
H1125 H 0.62512 0.72665 0.9927 0.0
H1126 H 0.74723 0.71088 0.94751 0.0
H1127 H 0.77458 0.75031 0.9673 0.0
H1128 H 0.76115 0.7575 0.93645 0.0
H1129 H 0.64155 0.65731 0.01646 0.0
H1130 H 0.62319 0.68733 0.02541 0.0
H1131 H 0.66893 0.69729 0.03583 0.0
C1132 C 0.91865 0.68836 0.47113 0.0
C1133 C 0.8901 0.65123 0.47526 0.0
C1134 C 0.95388 0.70264 0.48254 0.0
C1135 C 0.96092 0.67912 0.4983 0.0
C1136 C 0.93196 0.64178 0.50295 0.0
C1137 C 0.89677 0.62832 0.49147 0.0
C1138 C 0.98373 0.74278 0.47743 0.0
C1139 C 0.93843 0.61582 0.51962 0.0
C1140 C 0.06273 0.70619 0.51058 0.0
C1141 C 0.06842 0.72216 0.53453 0.0
C1142 C 0.02777 0.69186 0.4985 0.0
C1143 C 0.9982 0.69408 0.5106 0.0
C1144 C 0.00426 0.71102 0.53451 0.0
C1145 C 0.03914 0.72464 0.54619 0.0
C1146 C 0.02223 0.67382 0.47302 0.0
C1147 C 0.97379 0.71452 0.5479 0.0
H1148 H 0.91368 0.70617 0.45853 0.0
H1149 H 0.875 0.59943 0.4944 0.0
H1150 H 0.9934 0.75846 0.49536 0.0
H1151 H 0.00841 0.74351 0.46847 0.0
H1152 H 0.97358 0.75755 0.46498 0.0
H1153 H 0.91313 0.58755 0.52123 0.0
H1154 H 0.96182 0.61268 0.51202 0.0
H1155 H 0.94674 0.62799 0.53871 0.0
H1156 H 0.0852 0.70402 0.5016 0.0
H1157 H 0.04343 0.73722 0.56465 0.0
H1158 H 0.01392 0.6885 0.45916 0.0
H1159 H 0.99914 0.64423 0.47393 0.0
H1160 H 0.04795 0.67433 0.46613 0.0
H1161 H 0.96419 0.73028 0.53602 0.0
H1162 H 0.9833 0.7291 0.56625 0.0
H1163 H 0.94922 0.68627 0.55123 0.0
C1164 C 0.79191 0.06324 0.0389 0.0
C1165 C 0.7783 0.08805 0.04277 0.0
C1166 C 0.77282 0.03155 0.02351 0.0
C1167 C 0.73906 0.0242 0.01162 0.0
C1168 C 0.72487 0.04888 0.01559 0.0
C1169 C 0.74475 0.08061 0.03103 0.0
C1170 C 0.78922 0.00627 0.01961 0.0
C1171 C 0.68886 0.0419 0.0034 0.0
C1172 C 0.71621 0.96414 0.95303 0.0
C1173 C 0.69178 0.92802 0.96239 0.0
C1174 C 0.73043 0.99585 0.96858 0.0
C1175 C 0.71988 0.99155 0.99421 0.0
C1176 C 0.69369 0.95546 0.00351 0.0
C1177 C 0.67997 0.92412 0.9875 0.0
C1178 C 0.75814 0.03376 0.9578 0.0
C1179 C 0.68153 0.94969 0.03068 0.0
H1180 H 0.81808 0.06903 0.0475 0.0
H1181 H 0.73384 0.0994 0.03414 0.0
H1182 H 0.76844 0.97702 0.02495 0.0
H1183 H 0.79597 0.00607 0.99944 0.0
H1184 H 0.81514 0.01529 0.03076 0.0
H1185 H 0.68075 0.06281 0.00921 0.0
H1186 H 0.69194 0.04298 0.98266 0.0
H1187 H 0.66577 0.01342 0.00832 0.0
H1188 H 0.7248 0.9676 0.93352 0.0
H1189 H 0.66123 0.89639 0.99496 0.0
H1190 H 0.78601 0.0439 0.96657 0.0
H1191 H 0.74931 0.05458 0.96213 0.0
H1192 H 0.7612 0.03284 0.93711 0.0
H1193 H 0.70549 0.95465 0.0428 0.0
H1194 H 0.658 0.92085 0.03432 0.0
H1195 H 0.67277 0.97013 0.03631 0.0
C1196 C 0.71218 0.68729 0.45856 0.0
C1197 C 0.74956 0.69595 0.45632 0.0
C1198 C 0.70299 0.71348 0.46789 0.0
C1199 C 0.73202 0.74968 0.47481 0.0
C1200 C 0.76981 0.76011 0.46957 0.0
C1201 C 0.77823 0.73291 0.46055 0.0
C1202 C 0.66226 0.70084 0.47292 0.0
C1203 C 0.80152 0.79893 0.47545 0.0
C1204 C 0.68939 0.80719 0.49877 0.0
C1205 C 0.68511 0.79752 0.52435 0.0
C1206 C 0.70839 0.79525 0.48246 0.0
C1207 C 0.72264 0.77258 0.49194 0.0
C1208 C 0.72146 0.766 0.51814 0.0
C1209 C 0.70317 0.77893 0.53396 0.0
C1210 C 0.71066 0.80457 0.45488 0.0
C1211 C 0.73628 0.74213 0.52931 0.0
H1212 H 0.69004 0.65886 0.4548 0.0
H1213 H 0.80718 0.73976 0.45868 0.0
H1214 H 0.65722 0.69881 0.4935 0.0
H1215 H 0.65499 0.72153 0.46537 0.0
H1216 H 0.64307 0.67304 0.46445 0.0
H1217 H 0.82664 0.80601 0.46385 0.0
H1218 H 0.79311 0.82039 0.47226 0.0
H1219 H 0.80946 0.80026 0.4955 0.0
H1220 H 0.67589 0.82192 0.4912 0.0
H1221 H 0.70099 0.77246 0.55384 0.0
H1222 H 0.68663 0.78134 0.44493 0.0
H1223 H 0.73687 0.80811 0.44639 0.0
H1224 H 0.70934 0.8306 0.45177 0.0
H1225 H 0.71915 0.71281 0.52258 0.0
H1226 H 0.73554 0.74188 0.55018 0.0
H1227 H 0.76557 0.7525 0.52317 0.0
C1228 C 0.90998 0.68595 0.00062 0.0
C1229 C 0.9154 0.69019 0.02672 0.0
C1230 C 0.94071 0.70299 0.98393 0.0
C1231 C 0.9776 0.72419 0.99364 0.0
C1232 C 0.98269 0.73091 0.01983 0.0
C1233 C 0.9516 0.7142 0.0359 0.0
C1234 C 0.93382 0.69621 0.95611 0.0
C1235 C 0.02133 0.7533 0.03121 0.0
C1236 C 0.06122 0.72106 0.96783 0.0
C1237 C 0.08514 0.75865 0.9612 0.0
C1238 C 0.02456 0.70852 0.97614 0.0
C1239 C 0.01122 0.73422 0.97767 0.0
C1240 C 0.03379 0.7712 0.96819 0.0
C1241 C 0.07077 0.78313 0.96017 0.0
C1242 C 1.00176 0.66882 0.98588 0.0
C1243 C 0.02017 0.79907 0.96853 0.0
H1244 H 0.8821 0.66769 0.99331 0.0
H1245 H 0.95585 0.71854 0.05597 0.0
H1246 H 0.95355 0.72141 0.94515 0.0
H1247 H 0.93832 0.67281 0.95045 0.0
H1248 H 0.90462 0.68843 0.95112 0.0
H1249 H 0.0203 0.75807 0.05166 0.0
H1250 H 0.03702 0.73812 0.02843 0.0
H1251 H 0.03734 0.78093 0.02176 0.0
H1252 H 0.07236 0.70211 0.96835 0.0
H1253 H 0.08926 0.81221 0.95504 0.0
H1254 H 0.97286 0.65521 0.97828 0.0
H1255 H 0.99972 0.66931 0.00666 0.0
H1256 H 0.01446 0.65137 0.98089 0.0
H1257 H 0.98987 0.78528 0.96391 0.0
H1258 H 0.0361 0.82242 0.95507 0.0
H1259 H 0.02399 0.81122 0.98763 0.0
C1260 C 0.24053 0.90649 0.52582 0.0
C1261 C 0.20288 0.89104 0.53282 0.0
C1262 C 0.25878 0.93992 0.51173 0.0
C1263 C 0.23861 0.95786 0.50392 0.0
C1264 C 0.19988 0.94082 0.50949 0.0
C1265 C 0.18263 0.90796 0.52416 0.0
C1266 C 0.30022 0.9573 0.50661 0.0
C1267 C 0.17701 0.95823 0.50096 0.0
C1268 C 0.29723 0.06393 0.5007 0.0
C1269 C 0.30754 0.07037 0.47529 0.0
C1270 C 0.27364 0.02767 0.50997 0.0
C1271 C 0.25922 0.99677 0.49332 0.0
C1272 C 0.26693 0.00337 0.4672 0.0
C1273 C 0.2913 0.04021 0.45847 0.0
C1274 C 0.26641 0.0223 0.53792 0.0
C1275 C 0.25128 0.97137 0.44872 0.0
H1276 H 0.25619 0.89347 0.53254 0.0
H1277 H 0.15331 0.89565 0.52919 0.0
H1278 H 0.30617 0.96426 0.48638 0.0
H1279 H 0.31575 0.98392 0.51726 0.0
H1280 H 0.31116 0.93849 0.51212 0.0
H1281 H 0.14644 0.93868 0.50322 0.0
H1282 H 0.18479 0.98381 0.51216 0.0
H1283 H 0.18295 0.96689 0.48095 0.0
H1284 H 0.30973 0.08734 0.51365 0.0
H1285 H 0.29953 0.04509 0.43888 0.0
H1286 H 0.27896 0.00599 0.54566 0.0
H1287 H 0.23587 0.00607 0.54173 0.0
H1288 H 0.27841 0.0494 0.54813 0.0
H1289 H 0.26648 0.95556 0.45061 0.0
H1290 H 0.25424 0.98146 0.42902 0.0
H1291 H 0.22123 0.95154 0.45264 0.0
C1292 C 0.2142 0.29289 0.00269 0.0
C1293 C 0.23506 0.3077 0.98059 0.0
C1294 C 0.22073 0.26907 0.01844 0.0
C1295 C 0.24893 0.26034 0.01192 0.0
C1296 C 0.26789 0.27308 0.98863 0.0
C1297 C 0.26053 0.29632 0.9733 0.0
C1298 C 0.19912 0.25534 0.0427 0.0
C1299 C 0.29801 0.26444 0.98061 0.0
C1300 C 0.31526 0.24986 0.05525 0.0
C1301 C 0.30667 0.21319 0.04972 0.0
C1302 C 0.2935 0.26453 0.04558 0.0
C1303 C 0.26232 0.24178 0.03004 0.0
C1304 C 0.25063 0.20319 0.0274 0.0
C1305 C 0.2733 0.18942 0.03704 0.0
C1306 C 0.30701 0.30574 0.04914 0.0
C1307 C 0.2168 0.17753 0.01187 0.0
H1308 H 0.19453 0.30171 0.00841 0.0
H1309 H 0.2762 0.30733 0.95601 0.0
H1310 H 0.19324 0.22659 0.04735 0.0
H1311 H 0.21602 0.27417 0.05822 0.0
H1312 H 0.1722 0.2554 0.04179 0.0
H1313 H 0.3089 0.27519 0.96147 0.0
H1314 H 0.3218 0.27733 0.99401 0.0
H1315 H 0.28695 0.23372 0.98083 0.0
H1316 H 0.34144 0.26826 0.06472 0.0
H1317 H 0.26699 0.16118 0.03251 0.0
H1318 H 0.28317 0.31032 0.05312 0.0
H1319 H 0.32067 0.32111 0.03157 0.0
H1320 H 0.32763 0.31794 0.0647 0.0
H1321 H 0.19396 0.18412 0.01454 0.0
H1322 H 0.20613 0.14759 0.01672 0.0
H1323 H 0.22458 0.18151 0.99168 0.0
C1324 C 0.09825 0.33133 0.52719 0.0
C1325 C 0.1158 0.30976 0.52917 0.0
C1326 C 0.06435 0.31785 0.51412 0.0
C1327 C 0.04793 0.28214 0.5025 0.0
C1328 C 0.06706 0.26157 0.50281 0.0
C1329 C 0.10063 0.27548 0.51636 0.0
C1330 C 0.04475 0.34059 0.51442 0.0
C1331 C 0.05097 0.22385 0.49014 0.0
C1332 C 0.94214 0.23045 0.50436 0.0
C1333 C 0.93311 0.23841 0.48062 0.0
C1334 C 0.97933 0.24317 0.51124 0.0
C1335 C 0.00838 0.26407 0.49379 0.0
C1336 C 0.99933 0.26989 0.46911 0.0
C1337 C 0.96163 0.25701 0.46279 0.0
C1338 C 0.98757 0.23608 0.53773 0.0
C1339 C 0.02951 0.2914 0.44985 0.0
H1340 H 0.10989 0.35778 0.53712 0.0
H1341 H 0.11462 0.25913 0.51743 0.0
H1342 H 0.03553 0.34279 0.49523 0.0
H1343 H 0.0193 0.32625 0.52638 0.0
H1344 H 0.06297 0.36934 0.52188 0.0
H1345 H 0.07205 0.21464 0.48831 0.0
H1346 H 0.02703 0.20252 0.50133 0.0
H1347 H 0.04019 0.22469 0.47118 0.0
H1348 H 0.91997 0.21537 0.51796 0.0
H1349 H 0.95467 0.26324 0.44444 0.0
H1350 H 1.00358 0.26317 0.5478 0.0
H1351 H 0.00515 0.22264 0.53743 0.0
H1352 H 0.96163 0.21782 0.54857 0.0
H1353 H 0.04434 0.32168 0.45462 0.0
H1354 H 0.01778 0.288 0.43061 0.0
H1355 H 0.05059 0.2821 0.4499 0.0
loop_
_geom_bond_atom_site_label_1
_geom_bond_atom_site_label_2
_geom_bond_distance
_geom_bond_site_symmetry_2
_ccdc_geom_bond_type
Co0 N4 2.148 . S
Co0 N10 2.128 . S
Co0 N20 2.194 . S
Co0 O25 2.351 . S
Co0 O26 2.155 . S
Co0 O27 2.096 . S
C1 N4 1.301 . S
C1 N5 1.328 . S
C1 H6 0.930 . S
C2 C3 1.333 . S
C2 N4 1.317 . S
C2 H7 0.930 . S
C3 C2 1.333 . S
C3 N5 1.350 . S
C3 H29 0.931 . S
N4 Co0 2.148 . S
N4 C1 1.301 . S
N4 C2 1.317 . S
N5 C1 1.328 . S
N5 C3 1.350 . S
H6 C1 0.930 . S
H7 C2 0.930 . S
C8 O9 1.224 . S
C8 O27 1.247 . S
O9 C8 1.224 . S
N10 Co0 2.128 . S
N10 C11 1.355 . S
N10 C13 1.311 . S
C11 N10 1.355 . S
C11 C12 1.363 . S
C11 H23 0.929 . S
C12 C11 1.363 . S
C12 N14 1.375 . S
C12 H30 0.931 . S
C13 N10 1.311 . S
C13 N14 1.347 . S
C13 H24 0.929 . S
N14 C12 1.375 . S
N14 C13 1.347 . S
C15 C18 1.365 . S
C15 N20 1.328 . S
C15 H21 0.929 . S
C16 C17 1.362 . S
C16 C19 1.378 . S
C16 H31 0.929 . S
C17 C16 1.362 . S
C17 C18 1.366 . S
C18 C15 1.365 . S
C18 C17 1.366 . S
C18 H32 0.930 . S
C19 C16 1.378 . S
C19 N20 1.315 . S
C19 H22 0.930 . S
N20 Co0 2.194 . S
N20 C15 1.328 . S
N20 C19 1.315 . S
H21 C15 0.929 . S
H22 C19 0.930 . S
H23 C11 0.929 . S
H24 C13 0.929 . S
O25 Co0 2.351 . S
O25 C28 1.244 . S
O26 Co0 2.155 . S
O26 C28 1.240 . S
O27 Co0 2.096 . S
O27 C8 1.247 . S
C28 O25 1.244 . S
C28 O26 1.240 . S
H29 C3 0.931 . S
H30 C12 0.931 . S
H31 C16 0.929 . S
H32 C18 0.930 . S
Co33 N37 2.148 . S
Co33 N43 2.128 . S
Co33 N53 2.194 . S
Co33 O58 2.351 . S
Co33 O59 2.155 . S
Co33 O60 2.096 . S
C34 N37 1.301 . S
C34 N38 1.328 . S
C34 H39 0.930 . S
C35 C36 1.333 . S
C35 N37 1.317 . S
C35 H40 0.930 . S
C36 C35 1.333 . S
C36 N38 1.350 . S
C36 H62 0.931 . S
N37 Co33 2.148 . S
N37 C34 1.301 . S
N37 C35 1.317 . S
N38 C34 1.328 . S
N38 C36 1.350 . S
H39 C34 0.930 . S
H40 C35 0.930 . S
C41 O42 1.224 . S
C41 O60 1.247 . S
O42 C41 1.224 . S
N43 Co33 2.128 . S
N43 C44 1.355 . S
N43 C46 1.311 . S
C44 N43 1.355 . S
C44 C45 1.363 . S
C44 H56 0.929 . S
C45 C44 1.363 . S
C45 N47 1.375 . S
C45 H63 0.931 . S
C46 N43 1.311 . S
C46 N47 1.347 . S
C46 H57 0.929 . S
N47 C45 1.375 . S
N47 C46 1.347 . S
C48 C51 1.365 . S
C48 N53 1.328 . S
C48 H54 0.929 . S
C49 C50 1.362 . S
C49 C52 1.378 . S
C49 H64 0.929 . S
C50 C49 1.362 . S
C50 C51 1.366 . S
C51 C48 1.365 . S
C51 C50 1.366 . S
C51 H65 0.930 . S
C52 C49 1.378 . S
C52 N53 1.315 . S
C52 H55 0.930 . S
N53 Co33 2.194 . S
N53 C48 1.328 . S
N53 C52 1.315 . S
H54 C48 0.929 . S
H55 C52 0.930 . S
H56 C44 0.929 . S
H57 C46 0.929 . S
O58 Co33 2.351 . S
O58 C61 1.244 . S
O59 Co33 2.155 . S
O59 C61 1.240 . S
O60 Co33 2.096 . S
O60 C41 1.247 . S
C61 O58 1.244 . S
C61 O59 1.240 . S
H62 C36 0.931 . S
H63 C45 0.931 . S
H64 C49 0.929 . S
H65 C51 0.930 . S
Co66 N70 2.148 . S
Co66 N76 2.128 . S
Co66 N86 2.194 . S
Co66 O91 2.351 . S
Co66 O92 2.155 . S
Co66 O93 2.096 . S
C67 N70 1.301 . S
C67 N71 1.328 . S
C67 H72 0.930 . S
C68 C69 1.333 . S
C68 N70 1.317 . S
C68 H73 0.930 . S
C69 C68 1.333 . S
C69 N71 1.350 . S
C69 H95 0.931 . S
N70 Co66 2.148 . S
N70 C67 1.301 . S
N70 C68 1.317 . S
N71 C67 1.328 . S
N71 C69 1.350 . S
H72 C67 0.930 . S
H73 C68 0.930 . S
C74 O75 1.224 . S
C74 O93 1.247 . S
O75 C74 1.224 . S
N76 Co66 2.128 . S
N76 C77 1.355 . S
N76 C79 1.311 . S
C77 N76 1.355 . S
C77 C78 1.363 . S
C77 H89 0.929 . S
C78 C77 1.363 . S
C78 N80 1.375 . S
C78 H96 0.931 . S
C79 N76 1.311 . S
C79 N80 1.347 . S
C79 H90 0.929 . S
N80 C78 1.375 . S
N80 C79 1.347 . S
C81 C84 1.365 . S
C81 N86 1.328 . S
C81 H87 0.929 . S
C82 C83 1.362 . S
C82 C85 1.378 . S
C82 H97 0.929 . S
C83 C82 1.362 . S
C83 C84 1.366 . S
C84 C81 1.365 . S
C84 C83 1.366 . S
C84 H98 0.930 . S
C85 C82 1.378 . S
C85 N86 1.315 . S
C85 H88 0.930 . S
N86 Co66 2.194 . S
N86 C81 1.328 . S
N86 C85 1.315 . S
H87 C81 0.929 . S
H88 C85 0.930 . S
H89 C77 0.929 . S
H90 C79 0.929 . S
O91 Co66 2.351 . S
O91 C94 1.244 . S
O92 Co66 2.155 . S
O92 C94 1.240 . S
O93 Co66 2.096 . S
O93 C74 1.247 . S
C94 O91 1.244 . S
C94 O92 1.240 . S
H95 C69 0.931 . S
H96 C78 0.931 . S
H97 C82 0.929 . S
H98 C84 0.930 . S
Co99 N103 2.148 . S
Co99 N109 2.128 . S
Co99 N119 2.194 . S
Co99 O124 2.351 . S
Co99 O125 2.155 . S
Co99 O126 2.096 . S
C100 N103 1.301 . S
C100 N104 1.328 . S
C100 H105 0.930 . S
C101 C102 1.333 . S
C101 N103 1.317 . S
C101 H106 0.930 . S
C102 C101 1.333 . S
C102 N104 1.350 . S
C102 H128 0.931 . S
N103 Co99 2.148 . S
N103 C100 1.301 . S
N103 C101 1.317 . S
N104 C100 1.328 . S
N104 C102 1.350 . S
H105 C100 0.930 . S
H106 C101 0.930 . S
C107 O108 1.224 . S
C107 O126 1.247 . S
O108 C107 1.224 . S
N109 Co99 2.128 . S
N109 C110 1.355 . S
N109 C112 1.311 . S
C110 N109 1.355 . S
C110 C111 1.363 . S
C110 H122 0.929 . S
C111 C110 1.363 . S
C111 N113 1.375 . S
C111 H129 0.931 . S
C112 N109 1.311 . S
C112 N113 1.347 . S
C112 H123 0.929 . S
N113 C111 1.375 . S
N113 C112 1.347 . S
C114 C117 1.365 . S
C114 N119 1.328 . S
C114 H120 0.929 . S
C115 C116 1.362 . S
C115 C118 1.378 . S
C115 H130 0.929 . S
C116 C115 1.362 . S
C116 C117 1.366 . S
C117 C114 1.365 . S
C117 C116 1.366 . S
C117 H131 0.930 . S
C118 C115 1.378 . S
C118 N119 1.315 . S
C118 H121 0.930 . S
N119 Co99 2.194 . S
N119 C114 1.328 . S
N119 C118 1.315 . S
H120 C114 0.929 . S
H121 C118 0.930 . S
H122 C110 0.929 . S
H123 C112 0.929 . S
O124 Co99 2.351 . S
O124 C127 1.244 . S
O125 Co99 2.155 . S
O125 C127 1.240 . S
O126 Co99 2.096 . S
O126 C107 1.247 . S
C127 O124 1.244 . S
C127 O125 1.240 . S
H128 C102 0.931 . S
H129 C111 0.931 . S
H130 C115 0.929 . S
H131 C117 0.930 . S
Co132 N136 2.148 . S
Co132 N142 2.128 . S
Co132 N152 2.194 . S
Co132 O157 2.351 . S
Co132 O158 2.155 . S
Co132 O159 2.096 . S
C133 N136 1.301 . S
C133 N137 1.328 . S
C133 H138 0.930 . S
C134 C135 1.333 . S
C134 N136 1.317 . S
C134 H139 0.930 . S
C135 C134 1.333 . S
C135 N137 1.350 . S
C135 H161 0.931 . S
N136 Co132 2.148 . S
N136 C133 1.301 . S
N136 C134 1.317 . S
N137 C133 1.328 . S
N137 C135 1.350 . S
H138 C133 0.930 . S
H139 C134 0.930 . S
C140 O141 1.224 . S
C140 O159 1.247 . S
O141 C140 1.224 . S
N142 Co132 2.128 . S
N142 C143 1.355 . S
N142 C145 1.311 . S
C143 N142 1.355 . S
C143 C144 1.363 . S
C143 H155 0.929 . S
C144 C143 1.363 . S
C144 N146 1.375 . S
C144 H162 0.931 . S
C145 N142 1.311 . S
C145 N146 1.347 . S
C145 H156 0.929 . S
N146 C144 1.375 . S
N146 C145 1.347 . S
C147 C150 1.365 . S
C147 N152 1.328 . S
C147 H153 0.929 . S
C148 C149 1.362 . S
C148 C151 1.378 . S
C148 H163 0.929 . S
C149 C148 1.362 . S
C149 C150 1.366 . S
C150 C147 1.365 . S
C150 C149 1.366 . S
C150 H164 0.930 . S
C151 C148 1.378 . S
C151 N152 1.315 . S
C151 H154 0.930 . S
N152 Co132 2.194 . S
N152 C147 1.328 . S
N152 C151 1.315 . S
H153 C147 0.929 . S
H154 C151 0.930 . S
H155 C143 0.929 . S
H156 C145 0.929 . S
O157 Co132 2.351 . S
O157 C160 1.244 . S
O158 Co132 2.155 . S
O158 C160 1.240 . S
O159 Co132 2.096 . S
O159 C140 1.247 . S
C160 O157 1.244 . S
C160 O158 1.240 . S
H161 C135 0.931 . S
H162 C144 0.931 . S
H163 C148 0.929 . S
H164 C150 0.930 . S
Co165 N169 2.148 . S
Co165 N175 2.128 . S
Co165 N185 2.194 . S
Co165 O190 2.351 . S
Co165 O191 2.155 . S
Co165 O192 2.096 . S
C166 N169 1.301 . S
C166 N170 1.328 . S
C166 H171 0.930 . S
C167 C168 1.333 . S
C167 N169 1.317 . S
C167 H172 0.930 . S
C168 C167 1.333 . S
C168 N170 1.350 . S
C168 H194 0.931 . S
N169 Co165 2.148 . S
N169 C166 1.301 . S
N169 C167 1.317 . S
N170 C166 1.328 . S
N170 C168 1.350 . S
H171 C166 0.930 . S
H172 C167 0.930 . S
C173 O174 1.224 . S
C173 O192 1.247 . S
O174 C173 1.224 . S
N175 Co165 2.128 . S
N175 C176 1.355 . S
N175 C178 1.311 . S
C176 N175 1.355 . S
C176 C177 1.363 . S
C176 H188 0.929 . S
C177 C176 1.363 . S
C177 N179 1.375 . S
C177 H195 0.931 . S
C178 N175 1.311 . S
C178 N179 1.347 . S
C178 H189 0.929 . S
N179 C177 1.375 . S
N179 C178 1.347 . S
C180 C183 1.365 . S
C180 N185 1.328 . S
C180 H186 0.929 . S
C181 C182 1.362 . S
C181 C184 1.378 . S
C181 H196 0.929 . S
C182 C181 1.362 . S
C182 C183 1.366 . S
C183 C180 1.365 . S
C183 C182 1.366 . S
C183 H197 0.930 . S
C184 C181 1.378 . S
C184 N185 1.315 . S
C184 H187 0.930 . S
N185 Co165 2.194 . S
N185 C180 1.328 . S
N185 C184 1.315 . S
H186 C180 0.929 . S
H187 C184 0.930 . S
H188 C176 0.929 . S
H189 C178 0.929 . S
O190 Co165 2.351 . S
O190 C193 1.244 . S
O191 Co165 2.155 . S
O191 C193 1.240 . S
O192 Co165 2.096 . S
O192 C173 1.247 . S
C193 O190 1.244 . S
C193 O191 1.240 . S
H194 C168 0.931 . S
H195 C177 0.931 . S
H196 C181 0.929 . S
H197 C183 0.930 . S
Co198 N202 2.148 . S
Co198 N208 2.128 . S
Co198 N218 2.194 . S
Co198 O223 2.351 . S
Co198 O224 2.155 . S
Co198 O225 2.096 . S
C199 N202 1.301 . S
C199 N203 1.328 . S
C199 H204 0.930 . S
C200 C201 1.333 . S
C200 N202 1.317 . S
C200 H205 0.930 . S
C201 C200 1.333 . S
C201 N203 1.350 . S
C201 H227 0.931 . S
N202 Co198 2.148 . S
N202 C199 1.301 . S
N202 C200 1.317 . S
N203 C199 1.328 . S
N203 C201 1.350 . S
H204 C199 0.930 . S
H205 C200 0.930 . S
C206 O207 1.224 . S
C206 O225 1.247 . S
O207 C206 1.224 . S
N208 Co198 2.128 . S
N208 C209 1.355 . S
N208 C211 1.311 . S
C209 N208 1.355 . S
C209 C210 1.363 . S
C209 H221 0.929 . S
C210 C209 1.363 . S
C210 N212 1.375 . S
C210 H228 0.931 . S
C211 N208 1.311 . S
C211 N212 1.347 . S
C211 H222 0.929 . S
N212 C210 1.375 . S
N212 C211 1.347 . S
C213 C216 1.365 . S
C213 N218 1.328 . S
C213 H219 0.929 . S
C214 C215 1.362 . S
C214 C217 1.378 . S
C214 H229 0.929 . S
C215 C214 1.362 . S
C215 C216 1.366 . S
C216 C213 1.365 . S
C216 C215 1.366 . S
C216 H230 0.930 . S
C217 C214 1.378 . S
C217 N218 1.315 . S
C217 H220 0.930 . S
N218 Co198 2.194 . S
N218 C213 1.328 . S
N218 C217 1.315 . S
H219 C213 0.929 . S
H220 C217 0.930 . S
H221 C209 0.929 . S
H222 C211 0.929 . S
O223 Co198 2.351 . S
O223 C226 1.244 . S
O224 Co198 2.155 . S
O224 C226 1.240 . S
O225 Co198 2.096 . S
O225 C206 1.247 . S
C226 O223 1.244 . S
C226 O224 1.240 . S
H227 C201 0.931 . S
H228 C210 0.931 . S
H229 C214 0.929 . S
H230 C216 0.930 . S
Co231 N235 2.148 . S
Co231 N241 2.128 . S
Co231 N251 2.194 . S
Co231 O256 2.351 . S
Co231 O257 2.155 . S
Co231 O258 2.096 . S
C232 N235 1.301 . S
C232 N236 1.328 . S
C232 H237 0.930 . S
C233 C234 1.333 . S
C233 N235 1.317 . S
C233 H238 0.930 . S
C234 C233 1.333 . S
C234 N236 1.350 . S
C234 H260 0.931 . S
N235 Co231 2.148 . S
N235 C232 1.301 . S
N235 C233 1.317 . S
N236 C232 1.328 . S
N236 C234 1.350 . S
H237 C232 0.930 . S
H238 C233 0.930 . S
C239 O240 1.224 . S
C239 O258 1.247 . S
O240 C239 1.224 . S
N241 Co231 2.128 . S
N241 C242 1.355 . S
N241 C244 1.311 . S
C242 N241 1.355 . S
C242 C243 1.363 . S
C242 H254 0.929 . S
C243 C242 1.363 . S
C243 N245 1.375 . S
C243 H261 0.931 . S
C244 N241 1.311 . S
C244 N245 1.347 . S
C244 H255 0.929 . S
N245 C243 1.375 . S
N245 C244 1.347 . S
C246 C249 1.365 . S
C246 N251 1.328 . S
C246 H252 0.929 . S
C247 C248 1.362 . S
C247 C250 1.378 . S
C247 H262 0.929 . S
C248 C247 1.362 . S
C248 C249 1.366 . S
C249 C246 1.365 . S
C249 C248 1.366 . S
C249 H263 0.930 . S
C250 C247 1.378 . S
C250 N251 1.315 . S
C250 H253 0.930 . S
N251 Co231 2.194 . S
N251 C246 1.328 . S
N251 C250 1.315 . S
H252 C246 0.929 . S
H253 C250 0.930 . S
H254 C242 0.929 . S
H255 C244 0.929 . S
O256 Co231 2.351 . S
O256 C259 1.244 . S
O257 Co231 2.155 . S
O257 C259 1.240 . S
O258 Co231 2.096 . S
O258 C239 1.247 . S
C259 O256 1.244 . S
C259 O257 1.240 . S
H260 C234 0.931 . S
H261 C243 0.931 . S
H262 C247 0.929 . S
H263 C249 0.930 . S
Co264 N268 2.148 . S
Co264 N274 2.128 . S
Co264 N284 2.194 . S
Co264 O289 2.351 . S
Co264 O290 2.155 . S
Co264 O291 2.096 . S
C265 N268 1.301 . S
C265 N269 1.328 . S
C265 H270 0.930 . S
C266 C267 1.333 . S
C266 N268 1.317 . S
C266 H271 0.930 . S
C267 C266 1.333 . S
C267 N269 1.350 . S
C267 H293 0.931 . S
N268 Co264 2.148 . S
N268 C265 1.301 . S
N268 C266 1.317 . S
N269 C265 1.328 . S
N269 C267 1.350 . S
H270 C265 0.930 . S
H271 C266 0.930 . S
C272 O273 1.224 . S
C272 O291 1.247 . S
O273 C272 1.224 . S
N274 Co264 2.128 . S
N274 C275 1.355 . S
N274 C277 1.311 . S
C275 N274 1.355 . S
C275 C276 1.363 . S
C275 H287 0.929 . S
C276 C275 1.363 . S
C276 N278 1.375 . S
C276 H294 0.931 . S
C277 N274 1.311 . S
C277 N278 1.347 . S
C277 H288 0.929 . S
N278 C276 1.375 . S
N278 C277 1.347 . S
C279 C282 1.365 . S
C279 N284 1.328 . S
C279 H285 0.929 . S
C280 C281 1.362 . S
C280 C283 1.378 . S
C280 H295 0.929 . S
C281 C280 1.362 . S
C281 C282 1.366 . S
C282 C279 1.365 . S
C282 C281 1.366 . S
C282 H296 0.930 . S
C283 C280 1.378 . S
C283 N284 1.315 . S
C283 H286 0.930 . S
N284 Co264 2.194 . S
N284 C279 1.328 . S
N284 C283 1.315 . S
H285 C279 0.929 . S
H286 C283 0.930 . S
H287 C275 0.929 . S
H288 C277 0.929 . S
O289 Co264 2.351 . S
O289 C292 1.244 . S
O290 Co264 2.155 . S
O290 C292 1.240 . S
O291 Co264 2.096 . S
O291 C272 1.247 . S
C292 O289 1.244 . S
C292 O290 1.240 . S
H293 C267 0.931 . S
H294 C276 0.931 . S
H295 C280 0.929 . S
H296 C282 0.930 . S
Co297 N301 2.148 . S
Co297 N307 2.128 . S
Co297 N317 2.194 . S
Co297 O322 2.351 . S
Co297 O323 2.155 . S
Co297 O324 2.096 . S
C298 N301 1.301 . S
C298 N302 1.328 . S
C298 H303 0.930 . S
C299 C300 1.333 . S
C299 N301 1.317 . S
C299 H304 0.930 . S
C300 C299 1.333 . S
C300 N302 1.350 . S
C300 H326 0.931 . S
N301 Co297 2.148 . S
N301 C298 1.301 . S
N301 C299 1.317 . S
N302 C298 1.328 . S
N302 C300 1.350 . S
H303 C298 0.930 . S
H304 C299 0.930 . S
C305 O306 1.224 . S
C305 O324 1.247 . S
O306 C305 1.224 . S
N307 Co297 2.128 . S
N307 C308 1.355 . S
N307 C310 1.311 . S
C308 N307 1.355 . S
C308 C309 1.363 . S
C308 H320 0.929 . S
C309 C308 1.363 . S
C309 N311 1.375 . S
C309 H327 0.931 . S
C310 N307 1.311 . S
C310 N311 1.347 . S
C310 H321 0.929 . S
N311 C309 1.375 . S
N311 C310 1.347 . S
C312 C315 1.365 . S
C312 N317 1.328 . S
C312 H318 0.929 . S
C313 C314 1.362 . S
C313 C316 1.378 . S
C313 H328 0.929 . S
C314 C313 1.362 . S
C314 C315 1.366 . S
C315 C312 1.365 . S
C315 C314 1.366 . S
C315 H329 0.930 . S
C316 C313 1.378 . S
C316 N317 1.315 . S
C316 H319 0.930 . S
N317 Co297 2.194 . S
N317 C312 1.328 . S
N317 C316 1.315 . S
H318 C312 0.929 . S
H319 C316 0.930 . S
H320 C308 0.929 . S
H321 C310 0.929 . S
O322 Co297 2.351 . S
O322 C325 1.244 . S
O323 Co297 2.155 . S
O323 C325 1.240 . S
O324 Co297 2.096 . S
O324 C305 1.247 . S
C325 O322 1.244 . S
C325 O323 1.240 . S
H326 C300 0.931 . S
H327 C309 0.931 . S
H328 C313 0.929 . S
H329 C315 0.930 . S
Co330 N334 2.148 . S
Co330 N340 2.128 . S
Co330 N350 2.194 . S
Co330 O355 2.351 . S
Co330 O356 2.155 . S
Co330 O357 2.096 . S
C331 N334 1.301 . S
C331 N335 1.328 . S
C331 H336 0.930 . S
C332 C333 1.333 . S
C332 N334 1.317 . S
C332 H337 0.930 . S
C333 C332 1.333 . S
C333 N335 1.350 . S
C333 H359 0.931 . S
N334 Co330 2.148 . S
N334 C331 1.301 . S
N334 C332 1.317 . S
N335 C331 1.328 . S
N335 C333 1.350 . S
H336 C331 0.930 . S
H337 C332 0.930 . S
C338 O339 1.224 . S
C338 O357 1.247 . S
O339 C338 1.224 . S
N340 Co330 2.128 . S
N340 C341 1.355 . S
N340 C343 1.311 . S
C341 N340 1.355 . S
C341 C342 1.363 . S
C341 H353 0.929 . S
C342 C341 1.363 . S
C342 N344 1.375 . S
C342 H360 0.931 . S
C343 N340 1.311 . S
C343 N344 1.347 . S
C343 H354 0.929 . S
N344 C342 1.375 . S
N344 C343 1.347 . S
C345 C348 1.365 . S
C345 N350 1.328 . S
C345 H351 0.929 . S
C346 C347 1.362 . S
C346 C349 1.378 . S
C346 H361 0.929 . S
C347 C346 1.362 . S
C347 C348 1.366 . S
C348 C345 1.365 . S
C348 C347 1.366 . S
C348 H362 0.930 . S
C349 C346 1.378 . S
C349 N350 1.315 . S
C349 H352 0.930 . S
N350 Co330 2.194 . S
N350 C345 1.328 . S
N350 C349 1.315 . S
H351 C345 0.929 . S
H352 C349 0.930 . S
H353 C341 0.929 . S
H354 C343 0.929 . S
O355 Co330 2.351 . S
O355 C358 1.244 . S
O356 Co330 2.155 . S
O356 C358 1.240 . S
O357 Co330 2.096 . S
O357 C338 1.247 . S
C358 O355 1.244 . S
C358 O356 1.240 . S
H359 C333 0.931 . S
H360 C342 0.931 . S
H361 C346 0.929 . S
H362 C348 0.930 . S
Co363 N367 2.148 . S
Co363 N373 2.128 . S
Co363 N383 2.194 . S
Co363 O388 2.351 . S
Co363 O389 2.155 . S
Co363 O390 2.096 . S
C364 N367 1.301 . S
C364 N368 1.328 . S
C364 H369 0.930 . S
C365 C366 1.333 . S
C365 N367 1.317 . S
C365 H370 0.930 . S
C366 C365 1.333 . S
C366 N368 1.350 . S
C366 H392 0.931 . S
N367 Co363 2.148 . S
N367 C364 1.301 . S
N367 C365 1.317 . S
N368 C364 1.328 . S
N368 C366 1.350 . S
H369 C364 0.930 . S
H370 C365 0.930 . S
C371 O372 1.224 . S
C371 O390 1.247 . S
O372 C371 1.224 . S
N373 Co363 2.128 . S
N373 C374 1.355 . S
N373 C376 1.311 . S
C374 N373 1.355 . S
C374 C375 1.363 . S
C374 H386 0.929 . S
C375 C374 1.363 . S
C375 N377 1.375 . S
C375 H393 0.931 . S
C376 N373 1.311 . S
C376 N377 1.347 . S
C376 H387 0.929 . S
N377 C375 1.375 . S
N377 C376 1.347 . S
C378 C381 1.365 . S
C378 N383 1.328 . S
C378 H384 0.929 . S
C379 C380 1.362 . S
C379 C382 1.378 . S
C379 H394 0.929 . S
C380 C379 1.362 . S
C380 C381 1.366 . S
C381 C378 1.365 . S
C381 C380 1.366 . S
C381 H395 0.930 . S
C382 C379 1.378 . S
C382 N383 1.315 . S
C382 H385 0.930 . S
N383 Co363 2.194 . S
N383 C378 1.328 . S
N383 C382 1.315 . S
H384 C378 0.929 . S
H385 C382 0.930 . S
H386 C374 0.929 . S
H387 C376 0.929 . S
O388 Co363 2.351 . S
O388 C391 1.244 . S
O389 Co363 2.155 . S
O389 C391 1.240 . S
O390 Co363 2.096 . S
O390 C371 1.247 . S
C391 O388 1.244 . S
C391 O389 1.240 . S
H392 C366 0.931 . S
H393 C375 0.931 . S
H394 C379 0.929 . S
H395 C381 0.930 . S
C396 C397 1.391 . S
C396 C398 1.394 . S
C396 H412 0.931 . S
C397 C396 1.391 . S
C397 C401 1.376 . S
C398 C396 1.394 . S
C398 C399 1.369 . S
C398 C402 1.531 . S
C399 C398 1.369 . S
C399 C400 1.410 . S
C399 C407 1.503 . S
C400 C399 1.410 . S
C400 C401 1.392 . S
C400 C403 1.511 . S
C401 C397 1.376 . S
C401 C400 1.392 . S
C401 H413 0.929 . S
C402 C398 1.531 . S
C402 H414 0.960 . S
C402 H415 0.962 . S
C402 H416 0.960 . S
C403 C400 1.511 . S
C403 H417 0.961 . S
C403 H418 0.961 . S
C403 H419 0.961 . S
C404 C405 1.370 . S
C404 C406 1.363 . S
C404 H420 0.931 . S
C405 C404 1.370 . S
C405 C409 1.408 . S
C406 C404 1.363 . S
C406 C407 1.370 . S
C406 C410 1.524 . S
C407 C399 1.503 . S
C407 C406 1.370 . S
C407 C408 1.403 . S
C408 C407 1.403 . S
C408 C409 1.404 . S
C408 C411 1.539 . S
C409 C405 1.408 . S
C409 C408 1.404 . S
C409 H421 0.930 . S
C410 C406 1.524 . S
C410 H422 0.956 . S
C410 H423 0.961 . S
C410 H424 0.961 . S
C411 C408 1.539 . S
C411 H425 0.958 . S
C411 H426 0.961 . S
C411 H427 0.960 . S
H412 C396 0.931 . S
H413 C401 0.929 . S
H414 C402 0.960 . S
H415 C402 0.962 . S
H416 C402 0.960 . S
H417 C403 0.961 . S
H418 C403 0.961 . S
H419 C403 0.961 . S
H420 C404 0.931 . S
H421 C409 0.930 . S
H422 C410 0.956 . S
H423 C410 0.961 . S
H424 C410 0.961 . S
H425 C411 0.958 . S
H426 C411 0.961 . S
H427 C411 0.960 . S
C428 C429 1.391 . S
C428 C430 1.394 . S
C428 H444 0.931 . S
C429 C428 1.391 . S
C429 C433 1.376 . S
C430 C428 1.394 . S
C430 C431 1.369 . S
C430 C434 1.531 . S
C431 C430 1.369 . S
C431 C432 1.410 . S
C431 C439 1.503 . S
C432 C431 1.410 . S
C432 C433 1.392 . S
C432 C435 1.511 . S
C433 C429 1.376 . S
C433 C432 1.392 . S
C433 H445 0.929 . S
C434 C430 1.531 . S
C434 H446 0.960 . S
C434 H447 0.962 . S
C434 H448 0.960 . S
C435 C432 1.511 . S
C435 H449 0.961 . S
C435 H450 0.961 . S
C435 H451 0.961 . S
C436 C437 1.370 . S
C436 C438 1.363 . S
C436 H452 0.931 . S
C437 C436 1.370 . S
C437 C441 1.408 . S
C438 C436 1.363 . S
C438 C439 1.370 . S
C438 C442 1.524 . S
C439 C431 1.503 . S
C439 C438 1.370 . S
C439 C440 1.403 . S
C440 C439 1.403 . S
C440 C441 1.404 . S
C440 C443 1.539 . S
C441 C437 1.408 . S
C441 C440 1.404 . S
C441 H453 0.930 . S
C442 C438 1.524 . S
C442 H454 0.956 . S
C442 H455 0.961 . S
C442 H456 0.961 . S
C443 C440 1.539 . S
C443 H457 0.958 . S
C443 H458 0.961 . S
C443 H459 0.960 . S
H444 C428 0.931 . S
H445 C433 0.929 . S
H446 C434 0.960 . S
H447 C434 0.962 . S
H448 C434 0.960 . S
H449 C435 0.961 . S
H450 C435 0.961 . S
H451 C435 0.961 . S
H452 C436 0.931 . S
H453 C441 0.930 . S
H454 C442 0.956 . S
H455 C442 0.961 . S
H456 C442 0.961 . S
H457 C443 0.958 . S
H458 C443 0.961 . S
H459 C443 0.960 . S
C460 C461 1.391 . S
C460 C462 1.394 . S
C460 H476 0.931 . S
C461 C460 1.391 . S
C461 C465 1.376 . S
C462 C460 1.394 . S
C462 C463 1.369 . S
C462 C466 1.531 . S
C463 C462 1.369 . S
C463 C464 1.410 . S
C463 C471 1.503 . S
C464 C463 1.410 . S
C464 C465 1.392 . S
C464 C467 1.511 . S
C465 C461 1.376 . S
C465 C464 1.392 . S
C465 H477 0.929 . S
C466 C462 1.531 . S
C466 H478 0.960 . S
C466 H479 0.962 . S
C466 H480 0.960 . S
C467 C464 1.511 . S
C467 H481 0.961 . S
C467 H482 0.961 . S
C467 H483 0.961 . S
C468 C469 1.370 . S
C468 C470 1.363 . S
C468 H484 0.931 . S
C469 C468 1.370 . S
C469 C473 1.408 . S
C470 C468 1.363 . S
C470 C471 1.370 . S
C470 C474 1.524 . S
C471 C463 1.503 . S
C471 C470 1.370 . S
C471 C472 1.403 . S
C472 C471 1.403 . S
C472 C473 1.404 . S
C472 C475 1.539 . S
C473 C469 1.408 . S
C473 C472 1.404 . S
C473 H485 0.930 . S
C474 C470 1.524 . S
C474 H486 0.956 . S
C474 H487 0.961 . S
C474 H488 0.961 . S
C475 C472 1.539 . S
C475 H489 0.958 . S
C475 H490 0.961 . S
C475 H491 0.960 . S
H476 C460 0.931 . S
H477 C465 0.929 . S
H478 C466 0.960 . S
H479 C466 0.962 . S
H480 C466 0.960 . S
H481 C467 0.961 . S
H482 C467 0.961 . S
H483 C467 0.961 . S
H484 C468 0.931 . S
H485 C473 0.930 . S
H486 C474 0.956 . S
H487 C474 0.961 . S
H488 C474 0.961 . S
H489 C475 0.958 . S
H490 C475 0.961 . S
H491 C475 0.960 . S
C492 C493 1.391 . S
C492 C494 1.394 . S
C492 H508 0.931 . S
C493 C492 1.391 . S
C493 C497 1.376 . S
C494 C492 1.394 . S
C494 C495 1.369 . S
C494 C498 1.531 . S
C495 C494 1.369 . S
C495 C496 1.410 . S
C495 C503 1.503 . S
C496 C495 1.410 . S
C496 C497 1.392 . S
C496 C499 1.511 . S
C497 C493 1.376 . S
C497 C496 1.392 . S
C497 H509 0.929 . S
C498 C494 1.531 . S
C498 H510 0.960 . S
C498 H511 0.962 . S
C498 H512 0.960 . S
C499 C496 1.511 . S
C499 H513 0.961 . S
C499 H514 0.961 . S
C499 H515 0.961 . S
C500 C501 1.370 . S
C500 C502 1.363 . S
C500 H516 0.931 . S
C501 C500 1.370 . S
C501 C505 1.408 . S
C502 C500 1.363 . S
C502 C503 1.370 . S
C502 C506 1.524 . S
C503 C495 1.503 . S
C503 C502 1.370 . S
C503 C504 1.403 . S
C504 C503 1.403 . S
C504 C505 1.404 . S
C504 C507 1.539 . S
C505 C501 1.408 . S
C505 C504 1.404 . S
C505 H517 0.930 . S
C506 C502 1.524 . S
C506 H518 0.956 . S
C506 H519 0.961 . S
C506 H520 0.961 . S
C507 C504 1.539 . S
C507 H521 0.958 . S
C507 H522 0.961 . S
C507 H523 0.960 . S
H508 C492 0.931 . S
H509 C497 0.929 . S
H510 C498 0.960 . S
H511 C498 0.962 . S
H512 C498 0.960 . S
H513 C499 0.961 . S
H514 C499 0.961 . S
H515 C499 0.961 . S
H516 C500 0.931 . S
H517 C505 0.930 . S
H518 C506 0.956 . S
H519 C506 0.961 . S
H520 C506 0.961 . S
H521 C507 0.958 . S
H522 C507 0.961 . S
H523 C507 0.960 . S
C524 C525 1.391 . S
C524 C526 1.394 . S
C524 H540 0.931 . S
C525 C524 1.391 . S
C525 C529 1.376 . S
C526 C524 1.394 . S
C526 C527 1.369 . S
C526 C530 1.531 . S
C527 C526 1.369 . S
C527 C528 1.410 . S
C527 C535 1.503 . S
C528 C527 1.410 . S
C528 C529 1.392 . S
C528 C531 1.511 . S
C529 C525 1.376 . S
C529 C528 1.392 . S
C529 H541 0.929 . S
C530 C526 1.531 . S
C530 H542 0.960 . S
C530 H543 0.962 . S
C530 H544 0.960 . S
C531 C528 1.511 . S
C531 H545 0.961 . S
C531 H546 0.961 . S
C531 H547 0.961 . S
C532 C533 1.370 . S
C532 C534 1.363 . S
C532 H548 0.931 . S
C533 C532 1.370 . S
C533 C537 1.408 . S
C534 C532 1.363 . S
C534 C535 1.370 . S
C534 C538 1.524 . S
C535 C527 1.503 . S
C535 C534 1.370 . S
C535 C536 1.403 . S
C536 C535 1.403 . S
C536 C537 1.404 . S
C536 C539 1.539 . S
C537 C533 1.408 . S
C537 C536 1.404 . S
C537 H549 0.930 . S
C538 C534 1.524 . S
C538 H550 0.956 . S
C538 H551 0.961 . S
C538 H552 0.961 . S
C539 C536 1.539 . S
C539 H553 0.958 . S
C539 H554 0.961 . S
C539 H555 0.960 . S
H540 C524 0.931 . S
H541 C529 0.929 . S
H542 C530 0.960 . S
H543 C530 0.962 . S
H544 C530 0.960 . S
H545 C531 0.961 . S
H546 C531 0.961 . S
H547 C531 0.961 . S
H548 C532 0.931 . S
H549 C537 0.930 . S
H550 C538 0.956 . S
H551 C538 0.961 . S
H552 C538 0.961 . S
H553 C539 0.958 . S
H554 C539 0.961 . S
H555 C539 0.960 . S
C556 C557 1.391 . S
C556 C558 1.394 . S
C556 H572 0.931 . S
C557 C556 1.391 . S
C557 C561 1.376 . S
C558 C556 1.394 . S
C558 C559 1.369 . S
C558 C562 1.531 . S
C559 C558 1.369 . S
C559 C560 1.410 . S
C559 C567 1.503 . S
C560 C559 1.410 . S
C560 C561 1.392 . S
C560 C563 1.511 . S
C561 C557 1.376 . S
C561 C560 1.392 . S
C561 H573 0.929 . S
C562 C558 1.531 . S
C562 H574 0.960 . S
C562 H575 0.962 . S
C562 H576 0.960 . S
C563 C560 1.511 . S
C563 H577 0.961 . S
C563 H578 0.961 . S
C563 H579 0.961 . S
C564 C565 1.370 . S
C564 C566 1.363 . S
C564 H580 0.931 . S
C565 C564 1.370 . S
C565 C569 1.408 . S
C566 C564 1.363 . S
C566 C567 1.370 . S
C566 C570 1.524 . S
C567 C559 1.503 . S
C567 C566 1.370 . S
C567 C568 1.403 . S
C568 C567 1.403 . S
C568 C569 1.404 . S
C568 C571 1.539 . S
C569 C565 1.408 . S
C569 C568 1.404 . S
C569 H581 0.930 . S
C570 C566 1.524 . S
C570 H582 0.956 . S
C570 H583 0.961 . S
C570 H584 0.961 . S
C571 C568 1.539 . S
C571 H585 0.958 . S
C571 H586 0.961 . S
C571 H587 0.960 . S
H572 C556 0.931 . S
H573 C561 0.929 . S
H574 C562 0.960 . S
H575 C562 0.962 . S
H576 C562 0.960 . S
H577 C563 0.961 . S
H578 C563 0.961 . S
H579 C563 0.961 . S
H580 C564 0.931 . S
H581 C569 0.930 . S
H582 C570 0.956 . S
H583 C570 0.961 . S
H584 C570 0.961 . S
H585 C571 0.958 . S
H586 C571 0.961 . S
H587 C571 0.960 . S
C588 C589 1.391 . S
C588 C590 1.394 . S
C588 H604 0.931 . S
C589 C588 1.391 . S
C589 C593 1.376 . S
C590 C588 1.394 . S
C590 C591 1.369 . S
C590 C594 1.531 . S
C591 C590 1.369 . S
C591 C592 1.410 . S
C591 C599 1.503 . S
C592 C591 1.410 . S
C592 C593 1.392 . S
C592 C595 1.511 . S
C593 C589 1.376 . S
C593 C592 1.392 . S
C593 H605 0.929 . S
C594 C590 1.531 . S
C594 H606 0.960 . S
C594 H607 0.962 . S
C594 H608 0.960 . S
C595 C592 1.511 . S
C595 H609 0.961 . S
C595 H610 0.961 . S
C595 H611 0.961 . S
C596 C597 1.370 . S
C596 C598 1.363 . S
C596 H612 0.931 . S
C597 C596 1.370 . S
C597 C601 1.408 . S
C598 C596 1.363 . S
C598 C599 1.370 . S
C598 C602 1.524 . S
C599 C591 1.503 . S
C599 C598 1.370 . S
C599 C600 1.403 . S
C600 C599 1.403 . S
C600 C601 1.404 . S
C600 C603 1.539 . S
C601 C597 1.408 . S
C601 C600 1.404 . S
C601 H613 0.930 . S
C602 C598 1.524 . S
C602 H614 0.956 . S
C602 H615 0.961 . S
C602 H616 0.961 . S
C603 C600 1.539 . S
C603 H617 0.958 . S
C603 H618 0.961 . S
C603 H619 0.960 . S
H604 C588 0.931 . S
H605 C593 0.929 . S
H606 C594 0.960 . S
H607 C594 0.962 . S
H608 C594 0.960 . S
H609 C595 0.961 . S
H610 C595 0.961 . S
H611 C595 0.961 . S
H612 C596 0.931 . S
H613 C601 0.930 . S
H614 C602 0.956 . S
H615 C602 0.961 . S
H616 C602 0.961 . S
H617 C603 0.958 . S
H618 C603 0.961 . S
H619 C603 0.960 . S
C620 C621 1.391 . S
C620 C622 1.394 . S
C620 H636 0.931 . S
C621 C620 1.391 . S
C621 C625 1.376 . S
C622 C620 1.394 . S
C622 C623 1.369 . S
C622 C626 1.531 . S
C623 C622 1.369 . S
C623 C624 1.410 . S
C623 C631 1.503 . S
C624 C623 1.410 . S
C624 C625 1.392 . S
C624 C627 1.511 . S
C625 C621 1.376 . S
C625 C624 1.392 . S
C625 H637 0.929 . S
C626 C622 1.531 . S
C626 H638 0.960 . S
C626 H639 0.962 . S
C626 H640 0.960 . S
C627 C624 1.511 . S
C627 H641 0.961 . S
C627 H642 0.961 . S
C627 H643 0.961 . S
C628 C629 1.370 . S
C628 C630 1.363 . S
C628 H644 0.931 . S
C629 C628 1.370 . S
C629 C633 1.408 . S
C630 C628 1.363 . S
C630 C631 1.370 . S
C630 C634 1.524 . S
C631 C623 1.503 . S
C631 C630 1.370 . S
C631 C632 1.403 . S
C632 C631 1.403 . S
C632 C633 1.404 . S
C632 C635 1.539 . S
C633 C629 1.408 . S
C633 C632 1.404 . S
C633 H645 0.930 . S
C634 C630 1.524 . S
C634 H646 0.956 . S
C634 H647 0.961 . S
C634 H648 0.961 . S
C635 C632 1.539 . S
C635 H649 0.958 . S
C635 H650 0.961 . S
C635 H651 0.960 . S
H636 C620 0.931 . S
H637 C625 0.929 . S
H638 C626 0.960 . S
H639 C626 0.962 . S
H640 C626 0.960 . S
H641 C627 0.961 . S
H642 C627 0.961 . S
H643 C627 0.961 . S
H644 C628 0.931 . S
H645 C633 0.930 . S
H646 C634 0.956 . S
H647 C634 0.961 . S
H648 C634 0.961 . S
H649 C635 0.958 . S
H650 C635 0.961 . S
H651 C635 0.960 . S
C652 C653 1.391 . S
C652 C654 1.394 . S
C652 H668 0.931 . S
C653 C652 1.391 . S
C653 C657 1.376 . S
C654 C652 1.394 . S
C654 C655 1.369 . S
C654 C658 1.531 . S
C655 C654 1.369 . S
C655 C656 1.410 . S
C655 C663 1.503 . S
C656 C655 1.410 . S
C656 C657 1.392 . S
C656 C659 1.511 . S
C657 C653 1.376 . S
C657 C656 1.392 . S
C657 H669 0.929 . S
C658 C654 1.531 . S
C658 H670 0.960 . S
C658 H671 0.962 . S
C658 H672 0.960 . S
C659 C656 1.511 . S
C659 H673 0.961 . S
C659 H674 0.961 . S
C659 H675 0.961 . S
C660 C661 1.370 . S
C660 C662 1.363 . S
C660 H676 0.931 . S
C661 C660 1.370 . S
C661 C665 1.408 . S
C662 C660 1.363 . S
C662 C663 1.370 . S
C662 C666 1.524 . S
C663 C655 1.503 . S
C663 C662 1.370 . S
C663 C664 1.403 . S
C664 C663 1.403 . S
C664 C665 1.404 . S
C664 C667 1.539 . S
C665 C661 1.408 . S
C665 C664 1.404 . S
C665 H677 0.930 . S
C666 C662 1.524 . S
C666 H678 0.956 . S
C666 H679 0.961 . S
C666 H680 0.961 . S
C667 C664 1.539 . S
C667 H681 0.958 . S
C667 H682 0.961 . S
C667 H683 0.960 . S
H668 C652 0.931 . S
H669 C657 0.929 . S
H670 C658 0.960 . S
H671 C658 0.962 . S
H672 C658 0.960 . S
H673 C659 0.961 . S
H674 C659 0.961 . S
H675 C659 0.961 . S
H676 C660 0.931 . S
H677 C665 0.930 . S
H678 C666 0.956 . S
H679 C666 0.961 . S
H680 C666 0.961 . S
H681 C667 0.958 . S
H682 C667 0.961 . S
H683 C667 0.960 . S
C684 C685 1.391 . S
C684 C686 1.394 . S
C684 H700 0.931 . S
C685 C684 1.391 . S
C685 C689 1.376 . S
C686 C684 1.394 . S
C686 C687 1.369 . S
C686 C690 1.531 . S
C687 C686 1.369 . S
C687 C688 1.410 . S
C687 C695 1.503 . S
C688 C687 1.410 . S
C688 C689 1.392 . S
C688 C691 1.511 . S
C689 C685 1.376 . S
C689 C688 1.392 . S
C689 H701 0.929 . S
C690 C686 1.531 . S
C690 H702 0.960 . S
C690 H703 0.962 . S
C690 H704 0.960 . S
C691 C688 1.511 . S
C691 H705 0.961 . S
C691 H706 0.961 . S
C691 H707 0.961 . S
C692 C693 1.370 . S
C692 C694 1.363 . S
C692 H708 0.931 . S
C693 C692 1.370 . S
C693 C697 1.408 . S
C694 C692 1.363 . S
C694 C695 1.370 . S
C694 C698 1.524 . S
C695 C687 1.503 . S
C695 C694 1.370 . S
C695 C696 1.403 . S
C696 C695 1.403 . S
C696 C697 1.404 . S
C696 C699 1.539 . S
C697 C693 1.408 . S
C697 C696 1.404 . S
C697 H709 0.930 . S
C698 C694 1.524 . S
C698 H710 0.956 . S
C698 H711 0.961 . S
C698 H712 0.961 . S
C699 C696 1.539 . S
C699 H713 0.958 . S
C699 H714 0.961 . S
C699 H715 0.960 . S
H700 C684 0.931 . S
H701 C689 0.929 . S
H702 C690 0.960 . S
H703 C690 0.962 . S
H704 C690 0.960 . S
H705 C691 0.961 . S
H706 C691 0.961 . S
H707 C691 0.961 . S
H708 C692 0.931 . S
H709 C697 0.930 . S
H710 C698 0.956 . S
H711 C698 0.961 . S
H712 C698 0.961 . S
H713 C699 0.958 . S
H714 C699 0.961 . S
H715 C699 0.960 . S
C716 C717 1.391 . S
C716 C718 1.394 . S
C716 H732 0.931 . S
C717 C716 1.391 . S
C717 C721 1.376 . S
C718 C716 1.394 . S
C718 C719 1.369 . S
C718 C722 1.531 . S
C719 C718 1.369 . S
C719 C720 1.410 . S
C719 C727 1.503 . S
C720 C719 1.410 . S
C720 C721 1.392 . S
C720 C723 1.511 . S
C721 C717 1.376 . S
C721 C720 1.392 . S
C721 H733 0.929 . S
C722 C718 1.531 . S
C722 H734 0.960 . S
C722 H735 0.962 . S
C722 H736 0.960 . S
C723 C720 1.511 . S
C723 H737 0.961 . S
C723 H738 0.961 . S
C723 H739 0.961 . S
C724 C725 1.370 . S
C724 C726 1.363 . S
C724 H740 0.931 . S
C725 C724 1.370 . S
C725 C729 1.408 . S
C726 C724 1.363 . S
C726 C727 1.370 . S
C726 C730 1.524 . S
C727 C719 1.503 . S
C727 C726 1.370 . S
C727 C728 1.403 . S
C728 C727 1.403 . S
C728 C729 1.404 . S
C728 C731 1.539 . S
C729 C725 1.408 . S
C729 C728 1.404 . S
C729 H741 0.930 . S
C730 C726 1.524 . S
C730 H742 0.956 . S
C730 H743 0.961 . S
C730 H744 0.961 . S
C731 C728 1.539 . S
C731 H745 0.958 . S
C731 H746 0.961 . S
C731 H747 0.960 . S
H732 C716 0.931 . S
H733 C721 0.929 . S
H734 C722 0.960 . S
H735 C722 0.962 . S
H736 C722 0.960 . S
H737 C723 0.961 . S
H738 C723 0.961 . S
H739 C723 0.961 . S
H740 C724 0.931 . S
H741 C729 0.930 . S
H742 C730 0.956 . S
H743 C730 0.961 . S
H744 C730 0.961 . S
H745 C731 0.958 . S
H746 C731 0.961 . S
H747 C731 0.960 . S
C748 C749 1.391 . S
C748 C750 1.394 . S
C748 H764 0.931 . S
C749 C748 1.391 . S
C749 C753 1.376 . S
C750 C748 1.394 . S
C750 C751 1.369 . S
C750 C754 1.531 . S
C751 C750 1.369 . S
C751 C752 1.410 . S
C751 C759 1.503 . S
C752 C751 1.410 . S
C752 C753 1.392 . S
C752 C755 1.511 . S
C753 C749 1.376 . S
C753 C752 1.392 . S
C753 H765 0.929 . S
C754 C750 1.531 . S
C754 H766 0.960 . S
C754 H767 0.962 . S
C754 H768 0.960 . S
C755 C752 1.511 . S
C755 H769 0.961 . S
C755 H770 0.961 . S
C755 H771 0.961 . S
C756 C757 1.370 . S
C756 C758 1.363 . S
C756 H772 0.931 . S
C757 C756 1.370 . S
C757 C761 1.408 . S
C758 C756 1.363 . S
C758 C759 1.370 . S
C758 C762 1.524 . S
C759 C751 1.503 . S
C759 C758 1.370 . S
C759 C760 1.403 . S
C760 C759 1.403 . S
C760 C761 1.404 . S
C760 C763 1.539 . S
C761 C757 1.408 . S
C761 C760 1.404 . S
C761 H773 0.930 . S
C762 C758 1.524 . S
C762 H774 0.956 . S
C762 H775 0.961 . S
C762 H776 0.961 . S
C763 C760 1.539 . S
C763 H777 0.958 . S
C763 H778 0.961 . S
C763 H779 0.960 . S
H764 C748 0.931 . S
H765 C753 0.929 . S
H766 C754 0.960 . S
H767 C754 0.962 . S
H768 C754 0.960 . S
H769 C755 0.961 . S
H770 C755 0.961 . S
H771 C755 0.961 . S
H772 C756 0.931 . S
H773 C761 0.930 . S
H774 C762 0.956 . S
H775 C762 0.961 . S
H776 C762 0.961 . S
H777 C763 0.958 . S
H778 C763 0.961 . S
H779 C763 0.960 . S
C780 C781 1.391 . S
C780 C782 1.394 . S
C780 H796 0.931 . S
C781 C780 1.391 . S
C781 C785 1.376 . S
C782 C780 1.394 . S
C782 C783 1.369 . S
C782 C786 1.531 . S
C783 C782 1.369 . S
C783 C784 1.410 . S
C783 C791 1.503 . S
C784 C783 1.410 . S
C784 C785 1.392 . S
C784 C787 1.511 . S
C785 C781 1.376 . S
C785 C784 1.392 . S
C785 H797 0.929 . S
C786 C782 1.531 . S
C786 H798 0.960 . S
C786 H799 0.962 . S
C786 H800 0.960 . S
C787 C784 1.511 . S
C787 H801 0.961 . S
C787 H802 0.961 . S
C787 H803 0.961 . S
C788 C789 1.370 . S
C788 C790 1.363 . S
C788 H804 0.931 . S
C789 C788 1.370 . S
C789 C793 1.408 . S
C790 C788 1.363 . S
C790 C791 1.370 . S
C790 C794 1.524 . S
C791 C783 1.503 . S
C791 C790 1.370 . S
C791 C792 1.403 . S
C792 C791 1.403 . S
C792 C793 1.404 . S
C792 C795 1.539 . S
C793 C789 1.408 . S
C793 C792 1.404 . S
C793 H805 0.930 . S
C794 C790 1.524 . S
C794 H806 0.956 . S
C794 H807 0.961 . S
C794 H808 0.961 . S
C795 C792 1.539 . S
C795 H809 0.958 . S
C795 H810 0.961 . S
C795 H811 0.960 . S
H796 C780 0.931 . S
H797 C785 0.929 . S
H798 C786 0.960 . S
H799 C786 0.962 . S
H800 C786 0.960 . S
H801 C787 0.961 . S
H802 C787 0.961 . S
H803 C787 0.961 . S
H804 C788 0.931 . S
H805 C793 0.930 . S
H806 C794 0.956 . S
H807 C794 0.961 . S
H808 C794 0.961 . S
H809 C795 0.958 . S
H810 C795 0.961 . S
H811 C795 0.960 . S
C812 C813 1.391 . S
C812 C814 1.394 . S
C812 H828 0.931 . S
C813 C812 1.391 . S
C813 C817 1.376 . S
C814 C812 1.394 . S
C814 C815 1.369 . S
C814 C818 1.531 . S
C815 C814 1.369 . S
C815 C816 1.410 . S
C815 C823 1.503 . S
C816 C815 1.410 . S
C816 C817 1.392 . S
C816 C819 1.511 . S
C817 C813 1.376 . S
C817 C816 1.392 . S
C817 H829 0.929 . S
C818 C814 1.531 . S
C818 H830 0.960 . S
C818 H831 0.962 . S
C818 H832 0.960 . S
C819 C816 1.511 . S
C819 H833 0.961 . S
C819 H834 0.961 . S
C819 H835 0.961 . S
C820 C821 1.370 . S
C820 C822 1.363 . S
C820 H836 0.931 . S
C821 C820 1.370 . S
C821 C825 1.408 . S
C822 C820 1.363 . S
C822 C823 1.370 . S
C822 C826 1.524 . S
C823 C815 1.503 . S
C823 C822 1.370 . S
C823 C824 1.403 . S
C824 C823 1.403 . S
C824 C825 1.404 . S
C824 C827 1.539 . S
C825 C821 1.408 . S
C825 C824 1.404 . S
C825 H837 0.930 . S
C826 C822 1.524 . S
C826 H838 0.956 . S
C826 H839 0.961 . S
C826 H840 0.961 . S
C827 C824 1.539 . S
C827 H841 0.958 . S
C827 H842 0.961 . S
C827 H843 0.960 . S
H828 C812 0.931 . S
H829 C817 0.929 . S
H830 C818 0.960 . S
H831 C818 0.962 . S
H832 C818 0.960 . S
H833 C819 0.961 . S
H834 C819 0.961 . S
H835 C819 0.961 . S
H836 C820 0.931 . S
H837 C825 0.930 . S
H838 C826 0.956 . S
H839 C826 0.961 . S
H840 C826 0.961 . S
H841 C827 0.958 . S
H842 C827 0.961 . S
H843 C827 0.960 . S
C844 C845 1.391 . S
C844 C846 1.394 . S
C844 H860 0.931 . S
C845 C844 1.391 . S
C845 C849 1.376 . S
C846 C844 1.394 . S
C846 C847 1.369 . S
C846 C850 1.531 . S
C847 C846 1.369 . S
C847 C848 1.410 . S
C847 C855 1.503 . S
C848 C847 1.410 . S
C848 C849 1.392 . S
C848 C851 1.511 . S
C849 C845 1.376 . S
C849 C848 1.392 . S
C849 H861 0.929 . S
C850 C846 1.531 . S
C850 H862 0.960 . S
C850 H863 0.962 . S
C850 H864 0.960 . S
C851 C848 1.511 . S
C851 H865 0.961 . S
C851 H866 0.961 . S
C851 H867 0.961 . S
C852 C853 1.370 . S
C852 C854 1.363 . S
C852 H868 0.931 . S
C853 C852 1.370 . S
C853 C857 1.408 . S
C854 C852 1.363 . S
C854 C855 1.370 . S
C854 C858 1.524 . S
C855 C847 1.503 . S
C855 C854 1.370 . S
C855 C856 1.403 . S
C856 C855 1.403 . S
C856 C857 1.404 . S
C856 C859 1.539 . S
C857 C853 1.408 . S
C857 C856 1.404 . S
C857 H869 0.930 . S
C858 C854 1.524 . S
C858 H870 0.956 . S
C858 H871 0.961 . S
C858 H872 0.961 . S
C859 C856 1.539 . S
C859 H873 0.958 . S
C859 H874 0.961 . S
C859 H875 0.960 . S
H860 C844 0.931 . S
H861 C849 0.929 . S
H862 C850 0.960 . S
H863 C850 0.962 . S
H864 C850 0.960 . S
H865 C851 0.961 . S
H866 C851 0.961 . S
H867 C851 0.961 . S
H868 C852 0.931 . S
H869 C857 0.930 . S
H870 C858 0.956 . S
H871 C858 0.961 . S
H872 C858 0.961 . S
H873 C859 0.958 . S
H874 C859 0.961 . S
H875 C859 0.960 . S
C876 C877 1.391 . S
C876 C878 1.394 . S
C876 H892 0.931 . S
C877 C876 1.391 . S
C877 C881 1.376 . S
C878 C876 1.394 . S
C878 C879 1.369 . S
C878 C882 1.531 . S
C879 C878 1.369 . S
C879 C880 1.410 . S
C879 C887 1.503 . S
C880 C879 1.410 . S
C880 C881 1.392 . S
C880 C883 1.511 . S
C881 C877 1.376 . S
C881 C880 1.392 . S
C881 H893 0.929 . S
C882 C878 1.531 . S
C882 H894 0.960 . S
C882 H895 0.962 . S
C882 H896 0.960 . S
C883 C880 1.511 . S
C883 H897 0.961 . S
C883 H898 0.961 . S
C883 H899 0.961 . S
C884 C885 1.370 . S
C884 C886 1.363 . S
C884 H900 0.931 . S
C885 C884 1.370 . S
C885 C889 1.408 . S
C886 C884 1.363 . S
C886 C887 1.370 . S
C886 C890 1.524 . S
C887 C879 1.503 . S
C887 C886 1.370 . S
C887 C888 1.403 . S
C888 C887 1.403 . S
C888 C889 1.404 . S
C888 C891 1.539 . S
C889 C885 1.408 . S
C889 C888 1.404 . S
C889 H901 0.930 . S
C890 C886 1.524 . S
C890 H902 0.956 . S
C890 H903 0.961 . S
C890 H904 0.961 . S
C891 C888 1.539 . S
C891 H905 0.958 . S
C891 H906 0.961 . S
C891 H907 0.960 . S
H892 C876 0.931 . S
H893 C881 0.929 . S
H894 C882 0.960 . S
H895 C882 0.962 . S
H896 C882 0.960 . S
H897 C883 0.961 . S
H898 C883 0.961 . S
H899 C883 0.961 . S
H900 C884 0.931 . S
H901 C889 0.930 . S
H902 C890 0.956 . S
H903 C890 0.961 . S
H904 C890 0.961 . S
H905 C891 0.958 . S
H906 C891 0.961 . S
H907 C891 0.960 . S
C908 C909 1.391 . S
C908 C910 1.394 . S
C908 H924 0.931 . S
C909 C908 1.391 . S
C909 C913 1.376 . S
C910 C908 1.394 . S
C910 C911 1.369 . S
C910 C914 1.531 . S
C911 C910 1.369 . S
C911 C912 1.410 . S
C911 C919 1.503 . S
C912 C911 1.410 . S
C912 C913 1.392 . S
C912 C915 1.511 . S
C913 C909 1.376 . S
C913 C912 1.392 . S
C913 H925 0.929 . S
C914 C910 1.531 . S
C914 H926 0.960 . S
C914 H927 0.962 . S
C914 H928 0.960 . S
C915 C912 1.511 . S
C915 H929 0.961 . S
C915 H930 0.961 . S
C915 H931 0.961 . S
C916 C917 1.370 . S
C916 C918 1.363 . S
C916 H932 0.931 . S
C917 C916 1.370 . S
C917 C921 1.408 . S
C918 C916 1.363 . S
C918 C919 1.370 . S
C918 C922 1.524 . S
C919 C911 1.503 . S
C919 C918 1.370 . S
C919 C920 1.403 . S
C920 C919 1.403 . S
C920 C921 1.404 . S
C920 C923 1.539 . S
C921 C917 1.408 . S
C921 C920 1.404 . S
C921 H933 0.930 . S
C922 C918 1.524 . S
C922 H934 0.956 . S
C922 H935 0.961 . S
C922 H936 0.961 . S
C923 C920 1.539 . S
C923 H937 0.958 . S
C923 H938 0.961 . S
C923 H939 0.960 . S
H924 C908 0.931 . S
H925 C913 0.929 . S
H926 C914 0.960 . S
H927 C914 0.962 . S
H928 C914 0.960 . S
H929 C915 0.961 . S
H930 C915 0.961 . S
H931 C915 0.961 . S
H932 C916 0.931 . S
H933 C921 0.930 . S
H934 C922 0.956 . S
H935 C922 0.961 . S
H936 C922 0.961 . S
H937 C923 0.958 . S
H938 C923 0.961 . S
H939 C923 0.960 . S
C940 C941 1.391 . S
C940 C942 1.394 . S
C940 H956 0.931 . S
C941 C940 1.391 . S
C941 C945 1.376 . S
C942 C940 1.394 . S
C942 C943 1.369 . S
C942 C946 1.531 . S
C943 C942 1.369 . S
C943 C944 1.410 . S
C943 C951 1.503 . S
C944 C943 1.410 . S
C944 C945 1.392 . S
C944 C947 1.511 . S
C945 C941 1.376 . S
C945 C944 1.392 . S
C945 H957 0.929 . S
C946 C942 1.531 . S
C946 H958 0.960 . S
C946 H959 0.962 . S
C946 H960 0.960 . S
C947 C944 1.511 . S
C947 H961 0.961 . S
C947 H962 0.961 . S
C947 H963 0.961 . S
C948 C949 1.370 . S
C948 C950 1.363 . S
C948 H964 0.931 . S
C949 C948 1.370 . S
C949 C953 1.408 . S
C950 C948 1.363 . S
C950 C951 1.370 . S
C950 C954 1.524 . S
C951 C943 1.503 . S
C951 C950 1.370 . S
C951 C952 1.403 . S
C952 C951 1.403 . S
C952 C953 1.404 . S
C952 C955 1.539 . S
C953 C949 1.408 . S
C953 C952 1.404 . S
C953 H965 0.930 . S
C954 C950 1.524 . S
C954 H966 0.956 . S
C954 H967 0.961 . S
C954 H968 0.961 . S
C955 C952 1.539 . S
C955 H969 0.958 . S
C955 H970 0.961 . S
C955 H971 0.960 . S
H956 C940 0.931 . S
H957 C945 0.929 . S
H958 C946 0.960 . S
H959 C946 0.962 . S
H960 C946 0.960 . S
H961 C947 0.961 . S
H962 C947 0.961 . S
H963 C947 0.961 . S
H964 C948 0.931 . S
H965 C953 0.930 . S
H966 C954 0.956 . S
H967 C954 0.961 . S
H968 C954 0.961 . S
H969 C955 0.958 . S
H970 C955 0.961 . S
H971 C955 0.960 . S
C972 C973 1.391 . S
C972 C974 1.394 1_556 S
C972 H988 0.931 1_556 S
C973 C972 1.391 . S
C973 C977 1.376 . S
C974 C972 1.394 1_554 S
C974 C975 1.369 1_554 S
C974 C978 1.531 . S
C975 C974 1.369 1_556 S
C975 C976 1.410 . S
C975 C983 1.503 1_566 S
C976 C975 1.410 . S
C976 C977 1.392 . S
C976 C979 1.511 1_565 S
C977 C973 1.376 . S
C977 C976 1.392 . S
C977 H989 0.929 . S
C978 C974 1.531 . S
C978 H990 0.960 . S
C978 H991 0.962 . S
C978 H992 0.960 . S
C979 C976 1.511 1_545 S
C979 H993 0.961 . S
C979 H994 0.961 . S
C979 H995 0.961 . S
C980 C981 1.370 . S
C980 C982 1.363 . S
C980 H996 0.931 . S
C981 C980 1.370 . S
C981 C985 1.408 . S
C982 C980 1.363 . S
C982 C983 1.370 . S
C982 C986 1.524 1_554 S
C983 C975 1.503 1_544 S
C983 C982 1.370 . S
C983 C984 1.403 . S
C984 C983 1.403 . S
C984 C985 1.404 . S
C984 C987 1.539 . S
C985 C981 1.408 . S
C985 C984 1.404 . S
C985 H997 0.930 . S
C986 C982 1.524 1_556 S
C986 H998 0.956 1_546 S
C986 H999 0.961 . S
C986 H1000 0.961 . S
C987 C984 1.539 . S
C987 H1001 0.958 1_545 S
C987 H1002 0.961 . S
C987 H1003 0.960 1_545 S
H988 C972 0.931 1_554 S
H989 C977 0.929 . S
H990 C978 0.960 . S
H991 C978 0.962 . S
H992 C978 0.960 . S
H993 C979 0.961 . S
H994 C979 0.961 . S
H995 C979 0.961 . S
H996 C980 0.931 . S
H997 C985 0.930 . S
H998 C986 0.956 1_564 S
H999 C986 0.961 . S
H1000 C986 0.961 . S
H1001 C987 0.958 1_565 S
H1002 C987 0.961 . S
H1003 C987 0.960 1_565 S
C1004 C1005 1.391 . S
C1004 C1006 1.394 . S
C1004 H1020 0.931 . S
C1005 C1004 1.391 . S
C1005 C1009 1.376 . S
C1006 C1004 1.394 . S
C1006 C1007 1.369 . S
C1006 C1010 1.531 . S
C1007 C1006 1.369 . S
C1007 C1008 1.410 . S
C1007 C1015 1.503 . S
C1008 C1007 1.410 . S
C1008 C1009 1.392 . S
C1008 C1011 1.511 . S
C1009 C1005 1.376 . S
C1009 C1008 1.392 . S
C1009 H1021 0.929 . S
C1010 C1006 1.531 . S
C1010 H1022 0.960 . S
C1010 H1023 0.962 . S
C1010 H1024 0.960 . S
C1011 C1008 1.511 . S
C1011 H1025 0.961 . S
C1011 H1026 0.961 . S
C1011 H1027 0.961 . S
C1012 C1013 1.370 . S
C1012 C1014 1.363 . S
C1012 H1028 0.931 . S
C1013 C1012 1.370 . S
C1013 C1017 1.408 . S
C1014 C1012 1.363 . S
C1014 C1015 1.370 . S
C1014 C1018 1.524 . S
C1015 C1007 1.503 . S
C1015 C1014 1.370 . S
C1015 C1016 1.403 . S
C1016 C1015 1.403 . S
C1016 C1017 1.404 . S
C1016 C1019 1.539 . S
C1017 C1013 1.408 . S
C1017 C1016 1.404 . S
C1017 H1029 0.930 . S
C1018 C1014 1.524 . S
C1018 H1030 0.956 . S
C1018 H1031 0.961 . S
C1018 H1032 0.961 . S
C1019 C1016 1.539 . S
C1019 H1033 0.958 . S
C1019 H1034 0.961 . S
C1019 H1035 0.960 . S
H1020 C1004 0.931 . S
H1021 C1009 0.929 . S
H1022 C1010 0.960 . S
H1023 C1010 0.962 . S
H1024 C1010 0.960 . S
H1025 C1011 0.961 . S
H1026 C1011 0.961 . S
H1027 C1011 0.961 . S
H1028 C1012 0.931 . S
H1029 C1017 0.930 . S
H1030 C1018 0.956 . S
H1031 C1018 0.961 . S
H1032 C1018 0.961 . S
H1033 C1019 0.958 . S
H1034 C1019 0.961 . S
H1035 C1019 0.960 . S
C1036 C1037 1.391 . S
C1036 C1038 1.394 . S
C1036 H1052 0.931 . S
C1037 C1036 1.391 . S
C1037 C1041 1.376 . S
C1038 C1036 1.394 . S
C1038 C1039 1.369 . S
C1038 C1042 1.531 1_655 S
C1039 C1038 1.369 . S
C1039 C1040 1.410 . S
C1039 C1047 1.503 1_654 S
C1040 C1039 1.410 . S
C1040 C1041 1.392 . S
C1040 C1043 1.511 1_554 S
C1041 C1037 1.376 . S
C1041 C1040 1.392 . S
C1041 H1053 0.929 . S
C1042 C1038 1.531 1_455 S
C1042 H1054 0.960 . S
C1042 H1055 0.962 . S
C1042 H1056 0.960 1_455 S
C1043 C1040 1.511 1_556 S
C1043 H1057 0.961 . S
C1043 H1058 0.961 . S
C1043 H1059 0.961 . S
C1044 C1045 1.370 . S
C1044 C1046 1.363 . S
C1044 H1060 0.931 . S
C1045 C1044 1.370 . S
C1045 C1049 1.408 . S
C1046 C1044 1.363 . S
C1046 C1047 1.370 . S
C1046 C1050 1.524 1_455 S
C1047 C1039 1.503 1_456 S
C1047 C1046 1.370 . S
C1047 C1048 1.403 1_556 S
C1048 C1047 1.403 1_554 S
C1048 C1049 1.404 1_554 S
C1048 C1051 1.539 . S
C1049 C1045 1.408 . S
C1049 C1048 1.404 1_556 S
C1049 H1061 0.922 1_556 S
C1050 C1046 1.524 1_655 S
C1050 H1062 0.956 . S
C1050 H1063 0.961 . S
C1050 H1064 0.961 . S
C1051 C1048 1.539 . S
C1051 H1065 0.958 . S
C1051 H1066 0.961 . S
C1051 H1067 0.960 . S
H1052 C1036 0.931 . S
H1053 C1041 0.929 . S
H1054 C1042 0.960 . S
H1055 C1042 0.962 . S
H1056 C1042 0.960 1_655 S
H1057 C1043 0.961 . S
H1058 C1043 0.961 . S
H1059 C1043 0.961 . S
H1060 C1044 0.931 . S
H1061 C1049 0.922 1_554 S
H1062 C1050 0.956 . S
H1063 C1050 0.961 . S
H1064 C1050 0.961 . S
H1065 C1051 0.958 . S
H1066 C1051 0.961 . S
H1067 C1051 0.960 . S
C1068 C1069 1.391 . S
C1068 C1070 1.394 . S
C1068 H1084 0.931 . S
C1069 C1068 1.391 . S
C1069 C1073 1.376 . S
C1070 C1068 1.394 . S
C1070 C1071 1.369 . S
C1070 C1074 1.531 . S
C1071 C1070 1.369 . S
C1071 C1072 1.410 . S
C1071 C1079 1.503 1_565 S
C1072 C1071 1.410 . S
C1072 C1073 1.392 . S
C1072 C1075 1.511 . S
C1073 C1069 1.376 . S
C1073 C1072 1.392 . S
C1073 H1085 0.929 . S
C1074 C1070 1.531 . S
C1074 H1086 0.960 1_565 S
C1074 H1087 0.962 . S
C1074 H1088 0.960 . S
C1075 C1072 1.511 . S
C1075 H1089 0.961 . S
C1075 H1090 0.961 . S
C1075 H1091 0.961 . S
C1076 C1077 1.370 . S
C1076 C1078 1.363 . S
C1076 H1092 0.931 . S
C1077 C1076 1.370 . S
C1077 C1081 1.408 . S
C1078 C1076 1.363 . S
C1078 C1079 1.370 . S
C1078 C1082 1.524 1_545 S
C1079 C1071 1.503 1_545 S
C1079 C1078 1.370 . S
C1079 C1080 1.403 . S
C1080 C1079 1.403 . S
C1080 C1081 1.404 . S
C1080 C1083 1.539 . S
C1081 C1077 1.408 . S
C1081 C1080 1.404 . S
C1081 H1093 0.930 . S
C1082 C1078 1.524 1_565 S
C1082 H1094 0.956 . S
C1082 H1095 0.961 . S
C1082 H1096 0.961 . S
C1083 C1080 1.539 . S
C1083 H1097 0.958 . S
C1083 H1098 0.961 . S
C1083 H1099 0.960 . S
H1084 C1068 0.931 . S
H1085 C1073 0.929 . S
H1086 C1074 0.960 1_545 S
H1087 C1074 0.962 . S
H1088 C1074 0.960 . S
H1089 C1075 0.961 . S
H1090 C1075 0.961 . S
H1091 C1075 0.961 . S
H1092 C1076 0.931 . S
H1093 C1081 0.930 . S
H1094 C1082 0.956 . S
H1095 C1082 0.961 . S
H1096 C1082 0.961 . S
H1097 C1083 0.958 . S
H1098 C1083 0.961 . S
H1099 C1083 0.960 . S
C1100 C1101 1.391 . S
C1100 C1102 1.394 1_554 S
C1100 H1116 0.931 1_554 S
C1101 C1100 1.391 . S
C1101 C1105 1.376 . S
C1102 C1100 1.394 1_556 S
C1102 C1103 1.369 1_556 S
C1102 C1106 1.531 . S
C1103 C1102 1.369 1_554 S
C1103 C1104 1.410 . S
C1103 C1111 1.503 1_554 S
C1104 C1103 1.410 . S
C1104 C1105 1.392 . S
C1104 C1107 1.511 . S
C1105 C1101 1.376 . S
C1105 C1104 1.392 . S
C1105 H1117 0.929 . S
C1106 C1102 1.531 . S
C1106 H1118 0.960 . S
C1106 H1119 0.962 . S
C1106 H1120 0.960 . S
C1107 C1104 1.511 . S
C1107 H1121 0.961 . S
C1107 H1122 0.961 . S
C1107 H1123 0.961 . S
C1108 C1109 1.370 . S
C1108 C1110 1.363 . S
C1108 H1124 0.931 . S
C1109 C1108 1.370 . S
C1109 C1113 1.408 . S
C1110 C1108 1.363 . S
C1110 C1111 1.370 . S
C1110 C1114 1.524 1_556 S
C1111 C1103 1.503 1_556 S
C1111 C1110 1.370 . S
C1111 C1112 1.403 . S
C1112 C1111 1.403 . S
C1112 C1113 1.404 . S
C1112 C1115 1.539 . S
C1113 C1109 1.408 . S
C1113 C1112 1.404 . S
C1113 H1125 0.930 . S
C1114 C1110 1.524 1_554 S
C1114 H1126 0.945 1_554 S
C1114 H1127 0.961 . S
C1114 H1128 0.961 . S
C1115 C1112 1.539 . S
C1115 H1129 0.958 . S
C1115 H1130 0.961 . S
C1115 H1131 0.960 . S
H1116 C1100 0.931 1_556 S
H1117 C1105 0.929 . S
H1118 C1106 0.960 . S
H1119 C1106 0.962 . S
H1120 C1106 0.960 . S
H1121 C1107 0.961 . S
H1122 C1107 0.961 . S
H1123 C1107 0.961 . S
H1124 C1108 0.931 . S
H1125 C1113 0.930 . S
H1126 C1114 0.945 1_556 S
H1127 C1114 0.961 . S
H1128 C1114 0.961 . S
H1129 C1115 0.958 . S
H1130 C1115 0.961 . S
H1131 C1115 0.960 . S
C1132 C1133 1.391 . S
C1132 C1134 1.394 . S
C1132 H1148 0.931 . S
C1133 C1132 1.391 . S
C1133 C1137 1.376 . S
C1134 C1132 1.394 . S
C1134 C1135 1.369 . S
C1134 C1138 1.531 1_655 S
C1135 C1134 1.369 . S
C1135 C1136 1.410 . S
C1135 C1143 1.503 1_655 S
C1136 C1135 1.410 . S
C1136 C1137 1.392 . S
C1136 C1139 1.511 . S
C1137 C1133 1.376 . S
C1137 C1136 1.392 . S
C1137 H1149 0.929 . S
C1138 C1134 1.531 1_455 S
C1138 H1150 0.960 . S
C1138 H1151 0.962 . S
C1138 H1152 0.960 . S
C1139 C1136 1.511 . S
C1139 H1153 0.961 . S
C1139 H1154 0.961 . S
C1139 H1155 0.961 . S
C1140 C1141 1.370 . S
C1140 C1142 1.363 . S
C1140 H1156 0.931 . S
C1141 C1140 1.370 . S
C1141 C1145 1.408 . S
C1142 C1140 1.363 . S
C1142 C1143 1.370 . S
C1142 C1146 1.524 . S
C1143 C1135 1.503 1_455 S
C1143 C1142 1.370 . S
C1143 C1144 1.403 . S
C1144 C1143 1.403 . S
C1144 C1145 1.404 . S
C1144 C1147 1.539 . S
C1145 C1141 1.408 . S
C1145 C1144 1.404 . S
C1145 H1157 0.930 . S
C1146 C1142 1.524 . S
C1146 H1158 0.956 . S
C1146 H1159 0.961 1_455 S
C1146 H1160 0.961 . S
C1147 C1144 1.539 . S
C1147 H1161 0.958 . S
C1147 H1162 0.961 . S
C1147 H1163 0.960 1_455 S
H1148 C1132 0.931 . S
H1149 C1137 0.929 . S
H1150 C1138 0.960 . S
H1151 C1138 0.962 . S
H1152 C1138 0.960 . S
H1153 C1139 0.961 . S
H1154 C1139 0.961 . S
H1155 C1139 0.961 . S
H1156 C1140 0.931 . S
H1157 C1145 0.930 . S
H1158 C1146 0.956 . S
H1159 C1146 0.961 1_655 S
H1160 C1146 0.961 . S
H1161 C1147 0.958 . S
H1162 C1147 0.961 . S
H1163 C1147 0.960 1_655 S
C1164 C1165 1.391 . S
C1164 C1166 1.394 . S
C1164 H1180 0.931 . S
C1165 C1164 1.391 . S
C1165 C1169 1.376 . S
C1166 C1164 1.394 . S
C1166 C1167 1.369 . S
C1166 C1170 1.531 1_545 S
C1167 C1166 1.369 . S
C1167 C1168 1.410 . S
C1167 C1175 1.503 1_544 S
C1168 C1167 1.410 . S
C1168 C1169 1.392 . S
C1168 C1171 1.511 . S
C1169 C1165 1.376 . S
C1169 C1168 1.392 . S
C1169 H1181 0.929 . S
C1170 C1166 1.531 1_565 S
C1170 H1182 0.960 . S
C1170 H1183 0.962 1_565 S
C1170 H1184 0.960 . S
C1171 C1168 1.511 . S
C1171 H1185 0.961 1_554 S
C1171 H1186 0.961 1_554 S
C1171 H1187 0.961 . S
C1172 C1173 1.370 . S
C1172 C1174 1.363 . S
C1172 H1188 0.931 . S
C1173 C1172 1.370 . S
C1173 C1177 1.408 . S
C1174 C1172 1.363 . S
C1174 C1175 1.370 . S
C1174 C1178 1.524 1_565 S
C1175 C1167 1.503 1_566 S
C1175 C1174 1.370 . S
C1175 C1176 1.403 1_556 S
C1176 C1175 1.403 1_554 S
C1176 C1177 1.404 1_554 S
C1176 C1179 1.539 . S
C1177 C1173 1.408 . S
C1177 C1176 1.404 1_556 S
C1177 H1189 0.930 . S
C1178 C1174 1.524 1_545 S
C1178 H1190 0.956 . S
C1178 H1191 0.961 . S
C1178 H1192 0.961 . S
C1179 C1176 1.539 . S
C1179 H1193 0.958 . S
C1179 H1194 0.961 . S
C1179 H1195 0.960 . S
H1180 C1164 0.931 . S
H1181 C1169 0.929 . S
H1182 C1170 0.960 . S
H1183 C1170 0.962 1_545 S
H1184 C1170 0.960 . S
H1185 C1171 0.961 1_556 S
H1186 C1171 0.961 1_556 S
H1187 C1171 0.961 . S
H1188 C1172 0.931 . S
H1189 C1177 0.930 . S
H1190 C1178 0.956 . S
H1191 C1178 0.961 . S
H1192 C1178 0.961 . S
H1193 C1179 0.958 . S
H1194 C1179 0.961 . S
H1195 C1179 0.960 . S
C1196 C1197 1.391 . S
C1196 C1198 1.394 . S
C1196 H1212 0.931 . S
C1197 C1196 1.391 . S
C1197 C1201 1.376 . S
C1198 C1196 1.394 . S
C1198 C1199 1.369 . S
C1198 C1202 1.531 . S
C1199 C1198 1.369 . S
C1199 C1200 1.410 . S
C1199 C1207 1.503 . S
C1200 C1199 1.410 . S
C1200 C1201 1.392 . S
C1200 C1203 1.511 . S
C1201 C1197 1.376 . S
C1201 C1200 1.392 . S
C1201 H1213 0.929 . S
C1202 C1198 1.531 . S
C1202 H1214 0.960 . S
C1202 H1215 0.962 . S
C1202 H1216 0.960 . S
C1203 C1200 1.511 . S
C1203 H1217 0.961 . S
C1203 H1218 0.961 . S
C1203 H1219 0.961 . S
C1204 C1205 1.370 . S
C1204 C1206 1.363 . S
C1204 H1220 0.931 . S
C1205 C1204 1.370 . S
C1205 C1209 1.408 . S
C1206 C1204 1.363 . S
C1206 C1207 1.370 . S
C1206 C1210 1.524 . S
C1207 C1199 1.503 . S
C1207 C1206 1.370 . S
C1207 C1208 1.403 . S
C1208 C1207 1.403 . S
C1208 C1209 1.404 . S
C1208 C1211 1.539 . S
C1209 C1205 1.408 . S
C1209 C1208 1.404 . S
C1209 H1221 0.930 . S
C1210 C1206 1.524 . S
C1210 H1222 0.956 . S
C1210 H1223 0.961 . S
C1210 H1224 0.961 . S
C1211 C1208 1.539 . S
C1211 H1225 0.958 . S
C1211 H1226 0.961 . S
C1211 H1227 0.960 . S
H1212 C1196 0.931 . S
H1213 C1201 0.929 . S
H1214 C1202 0.960 . S
H1215 C1202 0.962 . S
H1216 C1202 0.960 . S
H1217 C1203 0.961 . S
H1218 C1203 0.961 . S
H1219 C1203 0.961 . S
H1220 C1204 0.931 . S
H1221 C1209 0.930 . S
H1222 C1210 0.956 . S
H1223 C1210 0.961 . S
H1224 C1210 0.961 . S
H1225 C1211 0.958 . S
H1226 C1211 0.961 . S
H1227 C1211 0.960 . S
C1228 C1229 1.391 . S
C1228 C1230 1.394 1_554 S
C1228 H1244 0.931 . S
C1229 C1228 1.391 . S
C1229 C1233 1.376 . S
C1230 C1228 1.394 1_556 S
C1230 C1231 1.369 1_556 S
C1230 C1234 1.530 . S
C1231 C1230 1.369 1_554 S
C1231 C1232 1.410 . S
C1231 C1239 1.503 1_654 S
C1232 C1231 1.410 . S
C1232 C1233 1.392 . S
C1232 C1235 1.511 1_655 S
C1233 C1229 1.376 . S
C1233 C1232 1.392 . S
C1233 H1245 0.929 . S
C1234 C1230 1.530 . S
C1234 H1246 0.960 . S
C1234 H1247 0.962 . S
C1234 H1248 0.960 . S
C1235 C1232 1.511 1_455 S
C1235 H1249 0.961 . S
C1235 H1250 0.961 . S
C1235 H1251 0.961 . S
C1236 C1237 1.370 . S
C1236 C1238 1.363 . S
C1236 H1252 0.931 . S
C1237 C1236 1.370 . S
C1237 C1241 1.408 . S
C1238 C1236 1.363 . S
C1238 C1239 1.370 . S
C1238 C1242 1.524 . S
C1239 C1231 1.503 1_456 S
C1239 C1238 1.370 . S
C1239 C1240 1.403 . S
C1240 C1239 1.403 . S
C1240 C1241 1.404 . S
C1240 C1243 1.539 . S
C1241 C1237 1.408 . S
C1241 C1240 1.404 . S
C1241 H1253 0.930 . S
C1242 C1238 1.524 . S
C1242 H1254 0.956 1_455 S
C1242 H1255 0.961 1_556 S
C1242 H1256 0.961 . S
C1243 C1240 1.539 . S
C1243 H1257 0.958 . S
C1243 H1258 0.961 . S
C1243 H1259 0.960 1_556 S
H1244 C1228 0.931 . S
H1245 C1233 0.929 . S
H1246 C1234 0.960 . S
H1247 C1234 0.962 . S
H1248 C1234 0.960 . S
H1249 C1235 0.961 . S
H1250 C1235 0.961 . S
H1251 C1235 0.961 . S
H1252 C1236 0.931 . S
H1253 C1241 0.930 . S
H1254 C1242 0.956 1_655 S
H1255 C1242 0.961 1_554 S
H1256 C1242 0.961 . S
H1257 C1243 0.958 . S
H1258 C1243 0.961 . S
H1259 C1243 0.960 1_554 S
C1260 C1261 1.391 . S
C1260 C1262 1.394 . S
C1260 H1276 0.931 . S
C1261 C1260 1.391 . S
C1261 C1265 1.376 . S
C1262 C1260 1.394 . S
C1262 C1263 1.369 . S
C1262 C1266 1.531 . S
C1263 C1262 1.369 . S
C1263 C1264 1.410 . S
C1263 C1271 1.503 1_565 S
C1264 C1263 1.410 . S
C1264 C1265 1.392 . S
C1264 C1267 1.511 1_565 S
C1265 C1261 1.376 . S
C1265 C1264 1.392 . S
C1265 H1277 0.929 . S
C1266 C1262 1.531 . S
C1266 H1278 0.960 . S
C1266 H1279 0.962 . S
C1266 H1280 0.960 . S
C1267 C1264 1.511 1_545 S
C1267 H1281 0.961 . S
C1267 H1282 0.961 . S
C1267 H1283 0.961 . S
C1268 C1269 1.370 . S
C1268 C1270 1.363 . S
C1268 H1284 0.931 . S
C1269 C1268 1.370 . S
C1269 C1273 1.408 . S
C1270 C1268 1.363 . S
C1270 C1271 1.370 . S
C1270 C1274 1.524 . S
C1271 C1263 1.503 1_545 S
C1271 C1270 1.370 . S
C1271 C1272 1.403 . S
C1272 C1271 1.403 . S
C1272 C1273 1.404 . S
C1272 C1275 1.539 1_545 S
C1273 C1269 1.408 . S
C1273 C1272 1.404 . S
C1273 H1285 0.930 . S
C1274 C1270 1.524 . S
C1274 H1286 0.956 . S
C1274 H1287 0.961 . S
C1274 H1288 0.961 . S
C1275 C1272 1.539 1_565 S
C1275 H1289 0.958 . S
C1275 H1290 0.961 . S
C1275 H1291 0.960 . S
H1276 C1260 0.931 . S
H1277 C1265 0.929 . S
H1278 C1266 0.960 . S
H1279 C1266 0.962 . S
H1280 C1266 0.960 . S
H1281 C1267 0.961 . S
H1282 C1267 0.961 . S
H1283 C1267 0.961 . S
H1284 C1268 0.931 . S
H1285 C1273 0.930 . S
H1286 C1274 0.956 . S
H1287 C1274 0.961 . S
H1288 C1274 0.961 . S
H1289 C1275 0.958 . S
H1290 C1275 0.961 . S
H1291 C1275 0.960 . S
C1292 C1293 1.391 . S
C1292 C1294 1.398 . S
C1292 H1308 0.931 . S
C1293 C1292 1.391 . S
C1293 C1297 1.376 . S
C1294 C1292 1.398 . S
C1294 C1295 1.371 . S
C1294 C1298 1.524 1_556 S
C1295 C1294 1.371 . S
C1295 C1296 1.410 . S
C1295 C1303 1.503 1_556 S
C1296 C1295 1.410 . S
C1296 C1297 1.392 . S
C1296 C1299 1.511 . S
C1297 C1293 1.376 . S
C1297 C1296 1.392 . S
C1297 H1309 0.929 . S
C1298 C1294 1.524 1_554 S
C1298 H1310 0.960 . S
C1298 H1311 0.962 . S
C1298 H1312 0.960 . S
C1299 C1296 1.511 . S
C1299 H1313 0.961 . S
C1299 H1314 0.961 . S
C1299 H1315 0.961 . S
C1300 C1301 1.370 . S
C1300 C1302 1.363 . S
C1300 H1316 0.931 . S
C1301 C1300 1.370 . S
C1301 C1305 1.408 . S
C1302 C1300 1.363 . S
C1302 C1303 1.370 . S
C1302 C1306 1.524 . S
C1303 C1295 1.503 1_554 S
C1303 C1302 1.370 . S
C1303 C1304 1.403 . S
C1304 C1303 1.403 . S
C1304 C1305 1.404 . S
C1304 C1307 1.539 . S
C1305 C1301 1.408 . S
C1305 C1304 1.404 . S
C1305 H1317 0.930 . S
C1306 C1302 1.524 . S
C1306 H1318 0.956 . S
C1306 H1319 0.961 1_554 S
C1306 H1320 0.961 . S
C1307 C1304 1.539 . S
C1307 H1321 0.958 . S
C1307 H1322 0.961 . S
C1307 H1323 0.960 1_554 S
H1308 C1292 0.931 . S
H1309 C1297 0.929 . S
H1310 C1298 0.960 . S
H1311 C1298 0.962 . S
H1312 C1298 0.960 . S
H1313 C1299 0.961 . S
H1314 C1299 0.961 . S
H1315 C1299 0.961 . S
H1316 C1300 0.931 . S
H1317 C1305 0.930 . S
H1318 C1306 0.956 . S
H1319 C1306 0.961 1_556 S
H1320 C1306 0.961 . S
H1321 C1307 0.958 . S
H1322 C1307 0.961 . S
H1323 C1307 0.960 1_556 S
C1324 C1325 1.391 . S
C1324 C1326 1.394 . S
C1324 H1340 0.931 . S
C1325 C1324 1.391 . S
C1325 C1329 1.376 . S
C1326 C1324 1.394 . S
C1326 C1327 1.369 . S
C1326 C1330 1.531 . S
C1327 C1326 1.369 . S
C1327 C1328 1.410 . S
C1327 C1335 1.503 1_455 S
C1328 C1327 1.410 . S
C1328 C1329 1.392 . S
C1328 C1331 1.511 1_455 S
C1329 C1325 1.376 . S
C1329 C1328 1.392 . S
C1329 H1341 0.929 . S
C1330 C1326 1.531 . S
C1330 H1342 0.960 . S
C1330 H1343 0.962 . S
C1330 H1344 0.960 . S
C1331 C1328 1.511 1_655 S
C1331 H1345 0.961 . S
C1331 H1346 0.961 . S
C1331 H1347 0.961 . S
C1332 C1333 1.370 . S
C1332 C1334 1.363 . S
C1332 H1348 0.931 . S
C1333 C1332 1.370 . S
C1333 C1337 1.408 . S
C1334 C1332 1.363 . S
C1334 C1335 1.370 . S
C1334 C1338 1.524 . S
C1335 C1327 1.503 1_655 S
C1335 C1334 1.370 . S
C1335 C1336 1.403 . S
C1336 C1335 1.403 . S
C1336 C1337 1.404 . S
C1336 C1339 1.539 1_655 S
C1337 C1333 1.408 . S
C1337 C1336 1.404 . S
C1337 H1349 0.930 . S
C1338 C1334 1.524 . S
C1338 H1350 0.956 . S
C1338 H1351 0.961 . S
C1338 H1352 0.961 . S
C1339 C1336 1.539 1_455 S
C1339 H1353 0.958 . S
C1339 H1354 0.961 . S
C1339 H1355 0.960 . S
H1340 C1324 0.931 . S
H1341 C1329 0.929 . S
H1342 C1330 0.960 . S
H1343 C1330 0.962 . S
H1344 C1330 0.960 . S
H1345 C1331 0.961 . S
H1346 C1331 0.961 . S
H1347 C1331 0.961 . S
H1348 C1332 0.931 . S
H1349 C1337 0.930 . S
H1350 C1338 0.956 . S
H1351 C1338 0.961 . S
H1352 C1338 0.961 . S
H1353 C1339 0.958 . S
H1354 C1339 0.961 . S
H1355 C1339 0.960 . S
C397 C74 1.601 . S
C405 N14 1.617 . S
C429 N47 1.623 . S
C437 C107 1.578 . S
C461 N80 1.625 . S
C469 C140 1.572 . S
C493 N113 1.631 . S
C501 C173 1.568 . S
C525 N146 1.631 . S
C533 C8 1.568 . S
C557 C41 1.595 . S
C565 N179 1.620 . S
C589 N212 1.633 . S
C597 C338 1.567 . S
C621 N245 1.623 . S
C629 C371 1.578 . S
C653 C206 1.603 . S
C661 N278 1.617 . S
C685 C239 1.591 . S
C693 N311 1.619 . S
C717 C272 1.565 . S
C725 N344 1.624 . S
C749 C305 1.565 . S
C757 N377 1.626 . S
C781 C281 1.344 . S
C789 C17 1.328 . S
C813 C50 1.344 . S
C821 C314 1.328 . S
C845 C347 1.309 . S
C853 C83 1.334 . S
C877 C380 1.330 . S
C885 C116 1.336 . S
C909 C149 1.305 . S
C917 C215 1.331 . S
C941 C248 1.319 . S
C949 C182 1.336 . S
C973 C259 1.331 . S
C981 C28 1.338 . S
C1005 C61 1.332 . S
C1013 C292 1.338 . S
C1037 C94 1.335 . S
C1045 C325 1.352 . S
C1069 C127 1.328 . S
C1077 C358 1.351 . S
C1101 C160 1.333 . S
C1109 C391 1.337 . S
C1133 C226 1.354 . S
C1141 C193 1.347 . S
C1165 N71 1.486 . S
C1173 N368 1.466 . S
C1197 N203 1.448 . S
C1205 N104 1.490 . S
C1229 N137 1.521 . S
C1237 N236 1.497 . S
C1261 N170 1.493 . S
C1269 N269 1.501 . S
C1293 N302 1.522 . S
C1301 N5 1.496 . S
C1325 N38 1.491 . S
C1333 N335 1.501 . S
