# Generated by pormake.
# Topology ure, (4)-cn, num edge types: 1
# Building blocks:
#     Node 0, Type 0, BuildingBlock: QUQFOY_clean_sbu_1, # of connection points: 4
#     Node 1, Type 0, BuildingBlock: QUQFOY_clean_sbu_1, # of connection points: 4
#     Node 2, Type 0, BuildingBlock: QUQFOY_clean_sbu_1, # of connection points: 4
#     Node 3, Type 0, BuildingBlock: QUQFOY_clean_sbu_1, # of connection points: 4
#     Node 4, Type 0, BuildingBlock: QUQFOY_clean_sbu_1, # of connection points: 4
#     Node 5, Type 0, BuildingBlock: QUQFOY_clean_sbu_1, # of connection points: 4
#     Node 6, Type 0, BuildingBlock: QUQFOY_clean_sbu_1, # of connection points: 4
#     Node 7, Type 0, BuildingBlock: QUQFOY_clean_sbu_1, # of connection points: 4
#     Node 8, Type 0, BuildingBlock: QUQFOY_clean_sbu_1, # of connection points: 4
#     Node 9, Type 0, BuildingBlock: QUQFOY_clean_sbu_1, # of connection points: 4
#     Node 10, Type 0, BuildingBlock: QUQFOY_clean_sbu_1, # of connection points: 4
#     Node 11, Type 0, BuildingBlock: QUQFOY_clean_sbu_1, # of connection points: 4
#     Node 12, Type 0, BuildingBlock: QUQFOY_clean_sbu_1, # of connection points: 4
#     Node 13, Type 0, BuildingBlock: QUQFOY_clean_sbu_1, # of connection points: 4
#     Node 14, Type 0, BuildingBlock: QUQFOY_clean_sbu_1, # of connection points: 4
#     Node 15, Type 0, BuildingBlock: QUQFOY_clean_sbu_1, # of connection points: 4
#     Edge 16, Type (0, 0), BuildingBlock: XUDNAN_clean_linker_2, # of connection points: 2
#     Edge 17, Type (0, 0), BuildingBlock: XUDNAN_clean_linker_2, # of connection points: 2
#     Edge 18, Type (0, 0), BuildingBlock: XUDNAN_clean_linker_2, # of connection points: 2
#     Edge 19, Type (0, 0), BuildingBlock: XUDNAN_clean_linker_2, # of connection points: 2
#     Edge 20, Type (0, 0), BuildingBlock: XUDNAN_clean_linker_2, # of connection points: 2
#     Edge 21, Type (0, 0), BuildingBlock: XUDNAN_clean_linker_2, # of connection points: 2
#     Edge 22, Type (0, 0), BuildingBlock: XUDNAN_clean_linker_2, # of connection points: 2
#     Edge 23, Type (0, 0), BuildingBlock: XUDNAN_clean_linker_2, # of connection points: 2
#     Edge 24, Type (0, 0), BuildingBlock: XUDNAN_clean_linker_2, # of connection points: 2
#     Edge 25, Type (0, 0), BuildingBlock: XUDNAN_clean_linker_2, # of connection points: 2
#     Edge 26, Type (0, 0), BuildingBlock: XUDNAN_clean_linker_2, # of connection points: 2
#     Edge 27, Type (0, 0), BuildingBlock: XUDNAN_clean_linker_2, # of connection points: 2
#     Edge 28, Type (0, 0), BuildingBlock: XUDNAN_clean_linker_2, # of connection points: 2
#     Edge 29, Type (0, 0), BuildingBlock: XUDNAN_clean_linker_2, # of connection points: 2
#     Edge 30, Type (0, 0), BuildingBlock: XUDNAN_clean_linker_2, # of connection points: 2
#     Edge 31, Type (0, 0), BuildingBlock: XUDNAN_clean_linker_2, # of connection points: 2
#     Edge 32, Type (0, 0), BuildingBlock: XUDNAN_clean_linker_2, # of connection points: 2
#     Edge 33, Type (0, 0), BuildingBlock: XUDNAN_clean_linker_2, # of connection points: 2
#     Edge 34, Type (0, 0), BuildingBlock: XUDNAN_clean_linker_2, # of connection points: 2
#     Edge 35, Type (0, 0), BuildingBlock: XUDNAN_clean_linker_2, # of connection points: 2
#     Edge 36, Type (0, 0), BuildingBlock: XUDNAN_clean_linker_2, # of connection points: 2
#     Edge 37, Type (0, 0), BuildingBlock: XUDNAN_clean_linker_2, # of connection points: 2
#     Edge 38, Type (0, 0), BuildingBlock: XUDNAN_clean_linker_2, # of connection points: 2
#     Edge 39, Type (0, 0), BuildingBlock: XUDNAN_clean_linker_2, # of connection points: 2
#     Edge 40, Type (0, 0), BuildingBlock: XUDNAN_clean_linker_2, # of connection points: 2
#     Edge 41, Type (0, 0), BuildingBlock: XUDNAN_clean_linker_2, # of connection points: 2
#     Edge 42, Type (0, 0), BuildingBlock: XUDNAN_clean_linker_2, # of connection points: 2
#     Edge 43, Type (0, 0), BuildingBlock: XUDNAN_clean_linker_2, # of connection points: 2
#     Edge 44, Type (0, 0), BuildingBlock: XUDNAN_clean_linker_2, # of connection points: 2
#     Edge 45, Type (0, 0), BuildingBlock: XUDNAN_clean_linker_2, # of connection points: 2
#     Edge 46, Type (0, 0), BuildingBlock: XUDNAN_clean_linker_2, # of connection points: 2
#     Edge 47, Type (0, 0), BuildingBlock: XUDNAN_clean_linker_2, # of connection points: 2
# Relax obj value: 0.280
# Max RMSD: 0.317
# Mean RMSD: 0.224
data_MOF--net-ure--node1-QUQFOY_clean_sbu_1--edge1-XUDNAN_clean_linker_2
_symmetry_space_group_name_H-M    P1
_symmetry_Int_Tables_number       1
_symmetry_cell_setting            triclinic
loop_
_symmetry_equiv_pos_as_xyz
'x, y, z'
_cell_length_a     31.185622
_cell_length_b     34.393855
_cell_length_c     32.403707
_cell_angle_alpha  94.045825
_cell_angle_beta   94.174178
_cell_angle_gamma 97.489992
loop_
_atom_site_label
_atom_site_type_symbol
_atom_site_fract_x
_atom_site_fract_y
_atom_site_fract_z
_atom_type_partial_charge
O0 O 0.38957 0.2248 0.28011 0.0
Cd1 Cd 0.32738 0.21964 0.29991 0.0
Cd2 Cd 0.3528 0.3018 0.31919 0.0
O3 O 0.39927 0.28952 0.28025 0.0
O4 O 0.30027 0.16554 0.27815 0.0
O5 O 0.2768 0.21927 0.257 0.0
C6 C 0.27369 0.18132 0.25432 0.0
C7 C 0.32556 0.36157 0.31317 0.0
C8 C 0.41151 0.25642 0.27109 0.0
C9 C 0.33808 0.25045 0.38959 0.0
O10 O 0.35653 0.28262 0.37819 0.0
O11 O 0.32021 0.22297 0.36316 0.0
O12 O 0.36476 0.36044 0.32796 0.0
O13 O 0.3014 0.32867 0.30146 0.0
O14 O 0.01335 0.98151 0.55893 0.0
Cd15 Cd 0.98837 0.96351 0.49871 0.0
Cd16 Cd 0.97809 0.04683 0.50019 0.0
O17 O 0.01377 0.04558 0.55629 0.0
O18 O 0.01069 0.91284 0.48429 0.0
O19 O 0.02615 0.96621 0.45086 0.0
C20 C 0.03056 0.92987 0.4555 0.0
C21 C 0.9793 0.10918 0.4744 0.0
C22 C 0.0223 0.0164 0.5759 0.0
C23 C 0.8983 0.98259 0.48795 0.0
O24 O 0.9157 0.01824 0.49309 0.0
O25 O 0.92156 0.95486 0.4877 0.0
O26 O 0.96325 0.10117 0.50863 0.0
O27 O 0.99658 0.08205 0.45477 0.0
O28 O 0.19109 0.77938 0.77321 0.0
Cd29 Cd 0.25559 0.77828 0.79254 0.0
Cd30 Cd 0.22823 0.70321 0.78718 0.0
O31 O 0.18181 0.71844 0.74532 0.0
O32 O 0.29194 0.82289 0.76989 0.0
O33 O 0.2927 0.7601 0.74933 0.0
C34 C 0.30562 0.79684 0.7452 0.0
C35 C 0.2556 0.6435 0.77679 0.0
C36 C 0.16806 0.75144 0.7507 0.0
C37 C 0.24425 0.74585 0.87156 0.0
O38 O 0.22114 0.71831 0.84871 0.0
O39 O 0.26858 0.77225 0.85541 0.0
O40 O 0.21558 0.64479 0.78329 0.0
O41 O 0.28024 0.67633 0.77439 0.0
O42 O 0.58761 0.00408 0.95712 0.0
Cd43 Cd 0.52292 0.98185 0.9477 0.0
Cd44 Cd 0.53482 0.96409 0.02892 0.0
O45 O 0.59755 0.98967 0.02238 0.0
O46 O 0.49395 0.0133 0.9074 0.0
O47 O 0.48172 0.01381 0.97405 0.0
C48 C 0.47498 0.02731 0.9382 0.0
C49 C 0.50659 0.96893 0.09389 0.0
C50 C 0.61212 0.00392 0.99017 0.0
C51 C 0.50822 0.89736 0.96045 0.0
O52 O 0.51666 0.90958 0.99841 0.0
O53 O 0.50827 0.92165 0.93263 0.0
O54 O 0.5366 0.94767 0.08674 0.0
O55 O 0.4935 0.98938 0.06477 0.0
O56 O 0.26572 0.65856 0.31598 0.0
Cd57 Cd 0.27815 0.71932 0.31884 0.0
Cd58 Cd 0.29657 0.70612 0.23813 0.0
O59 O 0.29436 0.64924 0.25626 0.0
O60 O 0.24389 0.74274 0.36153 0.0
O61 O 0.23519 0.75194 0.29458 0.0
C62 C 0.22471 0.75906 0.332 0.0
C63 C 0.272 0.71422 0.16966 0.0
C64 C 0.27848 0.63572 0.28825 0.0
C65 C 0.3632 0.75693 0.29805 0.0
O66 O 0.348 0.74726 0.26084 0.0
O67 O 0.34236 0.74527 0.32814 0.0
O68 O 0.30808 0.70107 0.17839 0.0
O69 O 0.2487 0.72172 0.19984 0.0
O70 O 0.45933 0.95982 0.40955 0.0
Cd71 Cd 0.48627 0.95943 0.46988 0.0
Cd72 Cd 0.51765 0.04205 0.45604 0.0
O73 O 0.48725 0.02038 0.39899 0.0
O74 O 0.46536 0.9055 0.48587 0.0
O75 O 0.45233 0.9592 0.52121 0.0
C76 C 0.44904 0.92128 0.51724 0.0
C77 C 0.51255 0.10911 0.47152 0.0
C78 C 0.46559 0.98747 0.38564 0.0
C79 C 0.58366 0.98789 0.47667 0.0
O80 O 0.57631 0.02286 0.47166 0.0
O81 O 0.55261 0.95995 0.47618 0.0
O82 O 0.53569 0.09742 0.4431 0.0
O83 O 0.49293 0.08278 0.4926 0.0
O84 O 0.30722 0.34897 0.81395 0.0
Cd85 Cd 0.28455 0.29111 0.82289 0.0
Cd86 Cd 0.25512 0.28555 0.74314 0.0
O87 O 0.26657 0.34585 0.75488 0.0
O88 O 0.31395 0.27626 0.87487 0.0
O89 O 0.31859 0.24596 0.81308 0.0
C90 C 0.32762 0.24837 0.85284 0.0
C91 C 0.27866 0.2618 0.68047 0.0
C92 C 0.29081 0.36589 0.78417 0.0
C93 C 0.19006 0.26288 0.80189 0.0
O94 O 0.19947 0.25816 0.76455 0.0
O95 O 0.21896 0.27857 0.82994 0.0
O96 O 0.24364 0.27781 0.68158 0.0
O97 O 0.29998 0.25801 0.71533 0.0
O98 O 0.03886 0.04233 0.90436 0.0
Cd99 Cd 0.0187 0.04248 0.96353 0.0
Cd100 Cd 0.98373 0.96359 0.93629 0.0
O101 O 0.00993 0.98155 0.88242 0.0
O102 O 0.05548 0.08554 0.99964 0.0
O103 O 0.0535 0.02242 0.01009 0.0
C104 C 0.06846 0.05874 0.02158 0.0
C105 C 0.98248 0.89745 0.94977 0.0
C106 C 0.03099 0.01449 0.87572 0.0
C107 C 0.92353 0.0214 0.96574 0.0
O108 O 0.92969 0.98648 0.95502 0.0
O109 O 0.95476 0.04939 0.96955 0.0
O110 O 0.95652 0.90808 0.92136 0.0
O111 O 0.01068 0.92417 0.96994 0.0
O112 O 0.76248 0.16183 0.8023 0.0
Cd113 Cd 0.78152 0.22164 0.81132 0.0
Cd114 Cd 0.7966 0.21036 0.72919 0.0
O115 O 0.75893 0.15708 0.734 0.0
O116 O 0.75383 0.23658 0.86233 0.0
O117 O 0.73878 0.26009 0.8018 0.0
C118 C 0.73144 0.25782 0.84036 0.0
C119 C 0.79254 0.23679 0.6646 0.0
C120 C 0.75272 0.14156 0.76785 0.0
C121 C 0.87339 0.23115 0.79434 0.0
O122 O 0.85886 0.21795 0.75765 0.0
O123 O 0.84745 0.23866 0.82141 0.0
O124 O 0.80763 0.20426 0.66952 0.0
O125 O 0.77863 0.25459 0.69631 0.0
O126 O 0.99098 0.47312 0.88748 0.0
Cd127 Cd 0.01566 0.47431 0.94852 0.0
Cd128 Cd 0.02456 0.55683 0.94714 0.0
O129 O 0.00192 0.53789 0.88658 0.0
O130 O 0.98992 0.42995 0.97963 0.0
O131 O 0.98283 0.49251 0.99531 0.0
C132 C 0.97576 0.45612 0.00381 0.0
C133 C 0.00783 0.61994 0.96635 0.0
C134 C 0.98979 0.50395 0.86816 0.0
C135 C 0.104 0.51586 0.9686 0.0
O136 O 0.08585 0.54689 0.96892 0.0
O137 O 0.08211 0.48235 0.95848 0.0
O138 O 0.03784 0.61459 0.9423 0.0
O139 O 0.98717 0.58937 0.98047 0.0
O140 O 0.79876 0.84954 0.33477 0.0
Cd141 Cd 0.76238 0.79437 0.32555 0.0
Cd142 Cd 0.75358 0.81099 0.24551 0.0
O143 O 0.79704 0.85909 0.26817 0.0
O144 O 0.7849 0.75533 0.36139 0.0
O145 O 0.78528 0.75164 0.29276 0.0
C146 C 0.79406 0.73702 0.32759 0.0
C147 C 0.76112 0.78692 0.17717 0.0
C148 C 0.80941 0.87091 0.30568 0.0
C149 C 0.67345 0.80355 0.2943 0.0
O150 O 0.69075 0.81188 0.26111 0.0
O151 O 0.69595 0.79311 0.32485 0.0
O152 O 0.74844 0.82047 0.18551 0.0
O153 O 0.76953 0.76635 0.20778 0.0
O154 O 0.05579 0.48742 0.41755 0.0
Cd155 Cd 0.99012 0.4683 0.4147 0.0
Cd156 Cd 0.01013 0.45544 0.49823 0.0
O157 O 0.07198 0.47308 0.48184 0.0
O158 O 0.96439 0.48985 0.36464 0.0
O159 O 0.94952 0.50741 0.4285 0.0
C160 C 0.9444 0.51117 0.3891 0.0
C161 C 0.99541 0.47252 0.56668 0.0
C162 C 0.08352 0.48551 0.44778 0.0
C163 C 0.96966 0.38606 0.43853 0.0
O164 O 0.9818 0.40039 0.47533 0.0
O165 O 0.97091 0.40795 0.40851 0.0
O166 O 0.02045 0.44669 0.55816 0.0
O167 O 0.97905 0.4896 0.53621 0.0
O168 O 0.51756 0.47913 0.05136 0.0
Cd169 Cd 0.49398 0.46969 0.98969 0.0
Cd170 Cd 0.51397 0.55391 1.00057 0.0
O171 O 0.55076 0.53984 0.05151 0.0
O172 O 0.4951 0.41239 0.97784 0.0
O173 O 0.53515 0.45746 0.94665 0.0
C174 C 0.52451 0.42085 0.95273 0.0
C175 C 0.52746 0.61862 0.98057 0.0
C176 C 0.54246 0.50846 0.06964 0.0
C177 C 0.41933 0.51221 0.98832 0.0
O178 O 0.44787 0.54123 1.00069 0.0
O179 O 0.43052 0.47928 0.97652 0.0
O180 O 0.51572 0.61092 0.01655 0.0
O181 O 0.53513 0.58953 0.95614 0.0
O182 O 0.83414 0.73235 0.76437 0.0
Cd183 Cd 0.77334 0.7275 0.78609 0.0
Cd184 Cd 0.7964 0.80655 0.80681 0.0
O185 O 0.85314 0.79582 0.78197 0.0
O186 O 0.73748 0.68128 0.75437 0.0
O187 O 0.72492 0.74281 0.74939 0.0
C188 C 0.71501 0.70582 0.73746 0.0
C189 C 0.76968 0.86493 0.79252 0.0
C190 C 0.8617 0.7632 0.76598 0.0
C191 C 0.77529 0.75361 0.87577 0.0
O192 O 0.78565 0.78789 0.86432 0.0
O193 O 0.76852 0.72396 0.84924 0.0
O194 O 0.80291 0.8647 0.81846 0.0
O195 O 0.75161 0.83178 0.77389 0.0
O196 O 0.74041 0.28011 0.26087 0.0
Cd197 Cd 0.8049 0.29461 0.28311 0.0
Cd198 Cd 0.78559 0.20871 0.29411 0.0
O199 O 0.72808 0.21521 0.26135 0.0
O200 O 0.82014 0.34879 0.2652 0.0
O201 O 0.8498 0.29795 0.24082 0.0
C202 C 0.84567 0.33481 0.24021 0.0
C203 C 0.8061 0.14589 0.2985 0.0
C204 C 0.7154 0.24767 0.253 0.0
C205 C 0.80975 0.27093 0.36927 0.0
O206 O 0.79642 0.23685 0.35209 0.0
O207 O 0.81873 0.29971 0.34737 0.0
O208 O 0.77233 0.15569 0.31468 0.0
O209 O 0.827 0.17063 0.27655 0.0
O210 O 0.52419 0.52558 0.38941 0.0
Cd211 Cd 0.49255 0.52962 0.44278 0.0
Cd212 Cd 0.46845 0.44653 0.42168 0.0
O213 O 0.5018 0.46268 0.37132 0.0
O214 O 0.51187 0.58435 0.46767 0.0
O215 O 0.52517 0.53188 0.49935 0.0
C216 C 0.52855 0.56974 0.49962 0.0
C217 C 0.47981 0.38603 0.44628 0.0
C218 C 0.52249 0.49548 0.36395 0.0
C219 C 0.39693 0.49685 0.43027 0.0
O220 O 0.40721 0.46234 0.42561 0.0
O221 O 0.42585 0.52678 0.43612 0.0
O222 O 0.45877 0.38807 0.41102 0.0
O223 O 0.49447 0.41847 0.46821 0.0
H224 H 0.22076 0.20473 0.19143 0.0
H225 H 0.25529 0.10118 0.24809 0.0
H226 H 0.20575 0.05877 0.1957 0.0
H227 H 0.10677 0.16704 0.16355 0.0
H228 H 0.10523 0.18959 0.115 0.0
H229 H 0.14201 0.21198 0.15813 0.0
H230 H 0.20653 0.21039 0.11225 0.0
H231 H 0.17 0.18783 0.06907 0.0
H232 H 0.21562 0.1643 0.08658 0.0
H233 H 0.15405 0.02726 0.13591 0.0
H234 H 0.10335 0.00915 0.07327 0.0
H235 H 0.1029 0.13293 0.05485 0.0
C236 C 0.21754 0.17316 0.19309 0.0
C237 C 0.24187 0.15634 0.22403 0.0
C238 C 0.23702 0.11483 0.22478 0.0
C239 C 0.20892 0.09043 0.19513 0.0
C240 C 0.18583 0.10789 0.16479 0.0
C241 C 0.18972 0.1483 0.16356 0.0
C242 C 0.16202 0.15945 0.12698 0.0
C243 C 0.12692 0.18343 0.14181 0.0
C244 C 0.19024 0.18181 0.09695 0.0
C245 C 0.14224 0.11903 0.10774 0.0
C246 C 0.15628 0.0897 0.13011 0.0
C247 C 0.14272 0.04998 0.1182 0.0
C248 C 0.11396 0.03998 0.08252 0.0
C249 C 0.09913 0.06955 0.05906 0.0
C250 C 0.11361 0.10957 0.07202 0.0
H251 H 0.06753 0.86455 0.47321 0.0
H252 H 0.0561 0.9467 0.37871 0.0
H253 H 0.10177 0.91002 0.33495 0.0
H254 H 0.17919 0.8557 0.46252 0.0
H255 H 0.17355 0.80436 0.47207 0.0
H256 H 0.13806 0.83581 0.49449 0.0
H257 H 0.0712 0.78884 0.46029 0.0
H258 H 0.1065 0.7573 0.43763 0.0
H259 H 0.06652 0.77675 0.40496 0.0
H260 H 0.14829 0.86326 0.30126 0.0
H261 H 0.19706 0.81443 0.28329 0.0
H262 H 0.18114 0.76575 0.40202 0.0
C263 C 0.07433 0.87466 0.44316 0.0
C264 C 0.05796 0.90826 0.42914 0.0
C265 C 0.06827 0.92098 0.38998 0.0
C266 C 0.09402 0.90024 0.36489 0.0
C267 C 0.10963 0.86716 0.37966 0.0
C268 C 0.10055 0.85476 0.41812 0.0
C269 C 0.12307 0.81964 0.42785 0.0
C270 C 0.15539 0.82949 0.46651 0.0
C271 C 0.08983 0.7835 0.43297 0.0
C272 C 0.1463 0.81413 0.38886 0.0
C273 C 0.13772 0.84147 0.36116 0.0
C274 C 0.15532 0.84183 0.3228 0.0
C275 C 0.18284 0.8139 0.3128 0.0
C276 C 0.19301 0.78638 0.34129 0.0
C277 C 0.17416 0.7865 0.37965 0.0
H278 H 0.41131 0.94442 0.58808 0.0
H279 H 0.44191 0.84136 0.51676 0.0
H280 H 0.41188 0.79914 0.56888 0.0
H281 H 0.43646 0.91182 0.68964 0.0
H282 H 0.39226 0.93176 0.71264 0.0
H283 H 0.41659 0.95445 0.66998 0.0
H284 H 0.34139 0.94653 0.62837 0.0
H285 H 0.31681 0.92412 0.67103 0.0
H286 H 0.30963 0.89854 0.61998 0.0
H287 H 0.3785 0.76767 0.62833 0.0
H288 H 0.34025 0.74882 0.68944 0.0
H289 H 0.33063 0.87173 0.72273 0.0
C290 C 0.41159 0.91297 0.5834 0.0
C291 C 0.42904 0.89629 0.54822 0.0
C292 C 0.42874 0.85495 0.54332 0.0
C293 C 0.41186 0.83064 0.57288 0.0
C294 C 0.39527 0.84798 0.60729 0.0
C295 C 0.39472 0.88814 0.61265 0.0
C296 C 0.3741 0.89901 0.65213 0.0
C297 C 0.40682 0.92585 0.68291 0.0
C298 C 0.33305 0.91817 0.64227 0.0
C299 C 0.36301 0.85868 0.6679 0.0
C300 C 0.37578 0.82972 0.64165 0.0
C301 C 0.36842 0.7901 0.64918 0.0
C302 C 0.34674 0.77968 0.68407 0.0
C303 C 0.33253 0.80872 0.71105 0.0
C304 C 0.34137 0.8488 0.70297 0.0
H305 H 0.44954 0.05813 0.86579 0.0
H306 H 0.44233 0.07099 0.99928 0.0
H307 H 0.405 0.12944 0.99178 0.0
H308 H 0.47036 0.15999 0.85056 0.0
H309 H 0.43731 0.15645 0.80209 0.0
H310 H 0.46229 0.1148 0.81749 0.0
H311 H 0.38718 0.07159 0.81048 0.0
H312 H 0.36202 0.11299 0.7946 0.0
H313 H 0.34368 0.08756 0.83819 0.0
H314 H 0.37221 0.1884 0.97034 0.0
H315 H 0.33976 0.24052 0.93594 0.0
H316 H 0.36612 0.18856 0.81592 0.0
C317 C 0.43972 0.07298 0.89342 0.0
C318 C 0.44888 0.05996 0.93317 0.0
C319 C 0.43552 0.08028 0.96852 0.0
C320 C 0.41447 0.11363 0.96459 0.0
C321 C 0.4067 0.12611 0.92507 0.0
C322 C 0.41836 0.10616 0.89003 0.0
C323 C 0.406 0.12568 0.85117 0.0
C324 C 0.4464 0.14008 0.82904 0.0
C325 C 0.37273 0.0978 0.82189 0.0
C326 C 0.38585 0.15992 0.86989 0.0
C327 C 0.38689 0.15972 0.91259 0.0
C328 C 0.37094 0.18871 0.93691 0.0
C329 C 0.35274 0.21832 0.91703 0.0
C330 C 0.35031 0.21865 0.8732 0.0
C331 C 0.36744 0.18912 0.84945 0.0
H332 H 0.70509 0.32972 0.82634 0.0
H333 H 0.6787 0.22707 0.89567 0.0
H334 H 0.61882 0.25567 0.92671 0.0
H335 H 0.68873 0.39879 0.90979 0.0
H336 H 0.66451 0.43168 0.87708 0.0
H337 H 0.70269 0.40173 0.85697 0.0
H338 H 0.64589 0.37289 0.79661 0.0
H339 H 0.60742 0.40263 0.8167 0.0
H340 H 0.59321 0.35003 0.80813 0.0
H341 H 0.56259 0.29443 0.95033 0.0
H342 H 0.51849 0.34501 0.97277 0.0
H343 H 0.58389 0.42603 0.89316 0.0
C344 C 0.68631 0.31326 0.84775 0.0
C345 C 0.69612 0.27608 0.85845 0.0
C346 C 0.67162 0.25561 0.88717 0.0
C347 C 0.63739 0.27147 0.90472 0.0
C348 C 0.62851 0.30817 0.89374 0.0
C349 C 0.65257 0.32921 0.8665 0.0
C350 C 0.63831 0.36951 0.86298 0.0
C351 C 0.67579 0.40237 0.87759 0.0
C352 C 0.62012 0.37402 0.81845 0.0
C353 C 0.60276 0.36778 0.8927 0.0
C354 C 0.5972 0.33174 0.90934 0.0
C355 C 0.56661 0.32282 0.93761 0.0
C356 C 0.54161 0.35179 0.95006 0.0
C357 C 0.54772 0.38957 0.93482 0.0
C358 C 0.57839 0.39743 0.9053 0.0
H359 H 0.96009 0.38252 0.0326 0.0
H360 H 0.94273 0.50456 0.06045 0.0
H361 H 0.91005 0.48697 0.12489 0.0
H362 H 0.85998 0.33962 0.07067 0.0
H363 H 0.88332 0.2992 0.09165 0.0
H364 H 0.90511 0.3214 0.04759 0.0
H365 H 0.98135 0.33427 0.08741 0.0
H366 H 0.9597 0.31242 0.13174 0.0
H367 H 0.98847 0.36172 0.13749 0.0
H368 H 0.87957 0.45641 0.18641 0.0
H369 H 0.85046 0.41455 0.23938 0.0
H370 H 0.88794 0.31213 0.17238 0.0
C371 C 0.9492 0.40554 0.05211 0.0
C372 C 0.95395 0.44498 0.04134 0.0
C373 C 0.9394 0.47417 0.0679 0.0
C374 C 0.92089 0.46448 0.10468 0.0
C375 C 0.91716 0.42546 0.11458 0.0
C376 C 0.93069 0.39639 0.08901 0.0
C377 C 0.9227 0.35667 0.10683 0.0
C378 C 0.89088 0.32751 0.07744 0.0
C379 C 0.96562 0.34032 0.11643 0.0
C380 C 0.90247 0.36795 0.14638 0.0
C381 C 0.89972 0.40781 0.15024 0.0
C382 C 0.8816 0.42517 0.18373 0.0
C383 C 0.8652 0.40111 0.21373 0.0
C384 C 0.86701 0.36004 0.2102 0.0
C385 C 0.88644 0.34345 0.17623 0.0
H386 H 0.90789 0.56866 0.43225 0.0
H387 H 0.92225 0.51983 0.30752 0.0
H388 H 0.88318 0.57086 0.27849 0.0
H389 H 0.79959 0.59662 0.41042 0.0
H390 H 0.81122 0.64136 0.44408 0.0
H391 H 0.83804 0.59949 0.45522 0.0
H392 H 0.91276 0.64252 0.4556 0.0
H393 H 0.88621 0.68444 0.44426 0.0
H394 H 0.92556 0.66878 0.41088 0.0
H395 H 0.84618 0.62904 0.26272 0.0
H396 H 0.81213 0.68984 0.26135 0.0
H397 H 0.82151 0.70122 0.39616 0.0
C398 C 0.90227 0.56837 0.39885 0.0
C399 C 0.91806 0.54015 0.37218 0.0
C400 C 0.91047 0.54109 0.32862 0.0
C401 C 0.88827 0.56996 0.31178 0.0
C402 C 0.87375 0.5977 0.33887 0.0
C403 C 0.88022 0.59709 0.38147 0.0
C404 C 0.86257 0.63119 0.40359 0.0
C405 C 0.82565 0.61626 0.42987 0.0
C406 C 0.89895 0.65833 0.43014 0.0
C407 C 0.84566 0.65126 0.36676 0.0
C408 C 0.85234 0.63137 0.32974 0.0
C409 C 0.8405 0.64474 0.2915 0.0
C410 C 0.82127 0.67937 0.29106 0.0
C411 C 0.81406 0.70029 0.32862 0.0
C412 C 0.82637 0.68583 0.3669 0.0
H413 H 0.58032 0.55034 0.56554 0.0
H414 H 0.52738 0.64871 0.51369 0.0
H415 H 0.56553 0.69344 0.57144 0.0
H416 H 0.57676 0.5833 0.67484 0.0
H417 H 0.62754 0.56671 0.69045 0.0
H418 H 0.5938 0.54178 0.64648 0.0
H419 H 0.65802 0.55304 0.60029 0.0
H420 H 0.69193 0.57791 0.6441 0.0
H421 H 0.6849 0.6023 0.59712 0.0
H422 H 0.61149 0.7281 0.63322 0.0
H423 H 0.66443 0.75051 0.69332 0.0
H424 H 0.68851 0.63001 0.70458 0.0
C425 C 0.57639 0.58121 0.56661 0.0
C426 C 0.55071 0.59598 0.53517 0.0
C427 C 0.54687 0.63668 0.5374 0.0
C428 C 0.56829 0.66234 0.57017 0.0
C429 C 0.59357 0.64694 0.6005 0.0
C430 C 0.59786 0.60736 0.599 0.0
C431 C 0.62878 0.59878 0.63445 0.0
C432 C 0.60531 0.571 0.66326 0.0
C433 C 0.66825 0.58203 0.61799 0.0
C434 C 0.64154 0.63976 0.65575 0.0
C435 C 0.62055 0.66705 0.6359 0.0
C436 C 0.62796 0.70697 0.64919 0.0
C437 C 0.65807 0.71942 0.68339 0.0
C438 C 0.68057 0.69206 0.70376 0.0
C439 C 0.67168 0.65167 0.68989 0.0
H440 H 0.26709 0.24008 0.4338 0.0
H441 H 0.40731 0.25162 0.44547 0.0
H442 H 0.40668 0.24654 0.5214 0.0
H443 H 0.26003 0.30292 0.52225 0.0
H444 H 0.21069 0.27643 0.53748 0.0
H445 H 0.22186 0.27422 0.48376 0.0
H446 H 0.21341 0.19808 0.48131 0.0
H447 H 0.20231 0.20008 0.53518 0.0
H448 H 0.24573 0.17474 0.51807 0.0
H449 H 0.391 0.24456 0.59623 0.0
H450 H 0.36208 0.25265 0.66499 0.0
H451 H 0.23244 0.24818 0.60477 0.0
C452 C 0.2975 0.24063 0.4524 0.0
C453 C 0.3373 0.24529 0.43415 0.0
C454 C 0.37666 0.24741 0.4592 0.0
C455 C 0.37655 0.24451 0.50215 0.0
C456 C 0.33678 0.24038 0.51952 0.0
C457 C 0.29797 0.23893 0.49549 0.0
C458 C 0.26017 0.23911 0.52226 0.0
C459 C 0.23684 0.27532 0.51607 0.0
C460 C 0.22854 0.20071 0.51369 0.0
C461 C 0.28384 0.24162 0.56507 0.0
C462 C 0.32788 0.24137 0.56283 0.0
C463 C 0.35653 0.24454 0.59841 0.0
C464 C 0.33982 0.24899 0.6373 0.0
C465 C 0.29508 0.25104 0.64015 0.0
C466 C 0.26679 0.24661 0.60353 0.0
H467 H 0.02845 0.96027 0.80876 0.0
H468 H 0.05974 0.08511 0.84609 0.0
H469 H 0.07055 0.09825 0.77349 0.0
H470 H 0.10613 0.95991 0.72299 0.0
H471 H 0.0683 0.92256 0.69294 0.0
H472 H 0.07187 0.92497 0.74891 0.0
H473 H 0.98803 0.92763 0.74411 0.0
H474 H 0.98648 0.92803 0.68862 0.0
H475 H 0.96726 0.96724 0.71891 0.0
H476 H 0.06769 0.09888 0.69605 0.0
H477 H 0.05281 0.08673 0.62009 0.0
H478 H 0.02517 0.96136 0.63305 0.0
C479 C 0.03856 0.99028 0.80185 0.0
C480 C 0.04324 0.02162 0.83322 0.0
C481 C 0.05621 0.06052 0.82274 0.0
C482 C 0.06249 0.06832 0.78153 0.0
C483 C 0.05645 0.03686 0.75121 0.0
C484 C 0.04542 0.99854 0.76094 0.0
C485 C 0.03817 0.97035 0.72222 0.0
C486 C 0.07318 0.94279 0.72169 0.0
C487 C 0.99226 0.94697 0.71825 0.0
C488 C 0.04385 0.99905 0.68904 0.0
C489 C 0.05536 0.03719 0.70643 0.0
C490 C 0.05953 0.06907 0.68207 0.0
C491 C 0.05092 0.06185 0.6389 0.0
C492 C 0.03807 0.02305 0.62047 0.0
C493 C 0.03561 0.99127 0.646 0.0
H494 H 0.30984 0.74954 0.93331 0.0
H495 H 0.1703 0.74218 0.91038 0.0
H496 H 0.16207 0.73669 0.98516 0.0
H497 H 0.30579 0.67641 0.0055 0.0
H498 H 0.35299 0.69979 0.03767 0.0
H499 H 0.34768 0.70746 0.98327 0.0
H500 H 0.35745 0.78295 0.00219 0.0
H501 H 0.3618 0.77521 0.0567 0.0
H502 H 0.32143 0.80334 0.03628 0.0
H503 H 0.16892 0.7308 0.0623 0.0
H504 H 0.1902 0.71979 0.13529 0.0
H505 H 0.32452 0.72537 0.1066 0.0
C506 C 0.27777 0.74787 0.94442 0.0
C507 C 0.24071 0.74717 0.91661 0.0
C508 C 0.19901 0.74337 0.93162 0.0
C509 C 0.19405 0.7403 0.97394 0.0
C510 C 0.23111 0.74047 1.00069 0.0
C511 C 0.27216 0.74381 0.98651 0.0
C512 C 0.30621 0.73963 0.02109 0.0
C513 C 0.32952 0.70369 0.01129 0.0
C514 C 0.33864 0.77754 0.02955 0.0
C515 C 0.27791 0.73335 0.05675 0.0
C516 C 0.23477 0.7345 0.04453 0.0
C517 C 0.20262 0.72975 0.07225 0.0
C518 C 0.21494 0.72353 0.11357 0.0
C519 C 0.25886 0.72142 0.12643 0.0
C520 C 0.2906 0.72645 0.09755 0.0
H521 H 0.4764 0.03961 0.32575 0.0
H522 H 0.42966 0.91768 0.34279 0.0
H523 H 0.42449 0.90227 0.26699 0.0
H524 H 0.41202 0.04385 0.22248 0.0
H525 H 0.45632 0.07492 0.2037 0.0
H526 H 0.44767 0.07827 0.25817 0.0
H527 H 0.5266 0.06591 0.27577 0.0
H528 H 0.53553 0.0618 0.2216 0.0
H529 H 0.54495 0.02218 0.25321 0.0
H530 H 0.44054 0.89679 0.1931 0.0
H531 H 0.46819 0.9034 0.12402 0.0
H532 H 0.50147 0.02908 0.15288 0.0
C533 C 0.46367 0.0099 0.31353 0.0
C534 C 0.45341 0.97985 0.34038 0.0
C535 C 0.4375 0.94127 0.32302 0.0
C536 C 0.43458 0.93219 0.27994 0.0
C537 C 0.4472 0.96205 0.25459 0.0
C538 C 0.46054 1.00036 0.27061 0.0
C539 C 0.47615 0.0262 0.23709 0.0
C540 C 0.44623 0.05766 0.22994 0.0
C541 C 0.52361 0.04509 0.24756 0.0
C542 C 0.47185 0.99591 0.20019 0.0
C543 C 0.45469 0.95916 0.21096 0.0
C544 C 0.45256 0.92556 0.18384 0.0
C545 C 0.46851 0.92954 0.14484 0.0
C546 C 0.4859 0.96682 0.13315 0.0
C547 C 0.48693 1.00052 0.16081 0.0
H548 H 0.46452 0.19865 0.2732 0.0
H549 H 0.45367 0.3133 0.22864 0.0
H550 H 0.52776 0.31693 0.20636 0.0
H551 H 0.56609 0.2218 0.31813 0.0
H552 H 0.58561 0.17562 0.30584 0.0
H553 H 0.52862 0.17682 0.30931 0.0
H554 H 0.51172 0.14394 0.23478 0.0
H555 H 0.56877 0.14195 0.23083 0.0
H556 H 0.5384 0.16544 0.19266 0.0
H557 H 0.6055 0.3143 0.2008 0.0
H558 H 0.68248 0.30602 0.21341 0.0
H559 H 0.6448 0.19295 0.2612 0.0
C560 C 0.47719 0.22377 0.25726 0.0
C561 C 0.4532 0.25552 0.25228 0.0
C562 C 0.47138 0.28856 0.23262 0.0
C563 C 0.51337 0.29078 0.21958 0.0
C564 C 0.53677 0.25962 0.22615 0.0
C565 C 0.51931 0.22654 0.24424 0.0
C566 C 0.55337 0.19975 0.25285 0.0
C567 C 0.55872 0.19312 0.29931 0.0
C568 C 0.5424 0.16045 0.22617 0.0
C569 C 0.59318 0.22417 0.23921 0.0
C570 C 0.58255 0.25811 0.22294 0.0
C571 C 0.61417 0.28743 0.21251 0.0
C572 C 0.65786 0.28255 0.21998 0.0
C573 C 0.66963 0.24871 0.23798 0.0
C574 C 0.63676 0.21864 0.24644 0.0
H575 H 0.94972 0.33428 0.49587 0.0
H576 H 0.96968 0.34005 0.36524 0.0
H577 H 0.97007 0.26786 0.35821 0.0
H578 H 0.02209 0.26977 0.51599 0.0
H579 H 0.99096 0.24356 0.55256 0.0
H580 H 0.98498 0.29401 0.54554 0.0
H581 H 0.90241 0.27506 0.52823 0.0
H582 H 0.90746 0.22436 0.53547 0.0
H583 H 0.88291 0.23746 0.48712 0.0
H584 H 0.97965 0.19607 0.36907 0.0
H585 H 0.98873 0.13108 0.39488 0.0
H586 H 0.96275 0.17498 0.51809 0.0
C587 C 0.95306 0.32034 0.46545 0.0
C588 C 0.95981 0.34278 0.43113 0.0
C589 C 0.9641 0.32336 0.39191 0.0
C590 C 0.96467 0.28241 0.38772 0.0
C591 C 0.96051 0.26152 0.42295 0.0
C592 C 0.95402 0.27992 0.46087 0.0
C593 C 0.95339 0.25201 0.49478 0.0
C594 C 0.99004 0.26567 0.52922 0.0
C595 C 0.90887 0.2469 0.51249 0.0
C596 C 0.96141 0.21502 0.47037 0.0
C597 C 0.96551 0.22082 0.42899 0.0
C598 C 0.97576 0.1911 0.40127 0.0
C599 C 0.98124 0.15444 0.41623 0.0
C600 C 0.9763 0.14801 0.45841 0.0
C601 C 0.96631 0.17883 0.48556 0.0
H602 H 0.93779 0.81 0.79185 0.0
H603 H 0.88288 0.70968 0.7071 0.0
H604 H 0.95604 0.70238 0.68562 0.0
H605 H 0.0271 0.84954 0.73061 0.0
H606 H 0.06439 0.86114 0.77636 0.0
H607 H 0.00721 0.86263 0.77988 0.0
H608 H 0.00735 0.81412 0.83759 0.0
H609 H 0.06437 0.81266 0.83408 0.0
H610 H 0.02702 0.76764 0.82752 0.0
H611 H 0.03521 0.70134 0.67925 0.0
H612 H 0.11464 0.70402 0.69161 0.0
H613 H 0.11805 0.80457 0.78114 0.0
C614 C 0.94105 0.7872 0.76791 0.0
C615 C 0.90473 0.7607 0.75069 0.0
C616 C 0.91036 0.73039 0.72049 0.0
C617 C 0.9517 0.7262 0.70792 0.0
C618 C 0.98701 0.75243 0.726 0.0
C619 C 0.98212 0.78224 0.75551 0.0
C620 C 0.02563 0.80332 0.774 0.0
C621 C 0.03137 0.84674 0.7646 0.0
C622 C 0.03142 0.79917 0.82106 0.0
C623 C 0.05582 0.78046 0.75061 0.0
C624 C 0.03291 0.7515 0.72275 0.0
C625 C 0.05357 0.72434 0.70039 0.0
C626 C 0.09868 0.72609 0.7076 0.0
C627 C 0.12257 0.75476 0.73696 0.0
C628 C 0.10087 0.78295 0.75772 0.0
H629 H 0.50716 0.68172 0.02624 0.0
H630 H 0.5464 0.64662 0.90492 0.0
H631 H 0.53949 0.71349 0.88299 0.0
H632 H 0.42718 0.7408 0.99097 0.0
H633 H 0.43978 0.77635 0.0352 0.0
H634 H 0.44751 0.72585 0.04006 0.0
H635 H 0.52823 0.74846 0.06683 0.0
H636 H 0.52013 0.79883 0.06224 0.0
H637 H 0.56251 0.77899 0.03605 0.0
H638 H 0.52889 0.78636 0.8759 0.0
H639 H 0.52168 0.85737 0.88645 0.0
H640 H 0.48666 0.8404 0.01166 0.0
C641 C 0.51461 0.68791 0.99504 0.0
C642 C 0.52756 0.65897 0.96735 0.0
C643 C 0.53671 0.66847 0.92677 0.0
C644 C 0.53253 0.70624 0.91398 0.0
C645 C 0.51881 0.73386 0.94206 0.0
C646 C 0.51021 0.72493 0.98181 0.0
C647 C 0.49679 0.75937 0.00676 0.0
C648 C 0.45003 0.74999 0.01895 0.0
C649 C 0.52883 0.77217 0.04521 0.0
C650 C 0.49982 0.78959 0.9752 0.0
C651 C 0.51218 0.77457 0.93786 0.0
C652 C 0.51888 0.79822 0.90494 0.0
C653 C 0.51436 0.83843 0.91104 0.0
C654 C 0.50353 0.85438 0.94984 0.0
C655 C 0.49485 0.82914 0.98158 0.0
H656 H 0.6158 0.76661 0.34446 0.0
H657 H 0.62681 0.85029 0.2503 0.0
H658 H 0.54925 0.85644 0.25182 0.0
H659 H 0.51768 0.71546 0.30301 0.0
H660 H 0.49554 0.70605 0.35176 0.0
H661 H 0.55333 0.71336 0.34894 0.0
H662 H 0.56067 0.7698 0.40748 0.0
H663 H 0.50264 0.76282 0.41017 0.0
H664 H 0.53036 0.81053 0.4015 0.0
H665 H 0.47064 0.84706 0.25539 0.0
H666 H 0.39392 0.81964 0.25807 0.0
H667 H 0.4312 0.74211 0.35009 0.0
C668 C 0.60198 0.78687 0.32493 0.0
C669 C 0.62731 0.80807 0.29737 0.0
C670 C 0.60798 0.83365 0.27156 0.0
C671 C 0.56403 0.83768 0.2725 0.0
C672 C 0.53972 0.81596 0.29945 0.0
C673 C 0.5578 0.79094 0.32515 0.0
C674 C 0.52316 0.76748 0.34735 0.0
C675 C 0.52238 0.72297 0.33712 0.0
C676 C 0.5296 0.77832 0.39442 0.0
C677 C 0.4827 0.7819 0.32853 0.0
C678 C 0.49329 0.81057 0.30171 0.0
C679 C 0.46181 0.82546 0.2771 0.0
C680 C 0.41838 0.80971 0.27878 0.0
C681 C 0.40687 0.77943 0.30487 0.0
C682 C 0.43922 0.76627 0.33108 0.0
H683 H 0.5226 0.16373 0.41516 0.0
H684 H 0.49029 0.14934 0.54161 0.0
H685 H 0.48261 0.22033 0.55083 0.0
H686 H 0.58258 0.26365 0.43421 0.0
H687 H 0.56244 0.27613 0.38396 0.0
H688 H 0.56948 0.22593 0.39224 0.0
H689 H 0.48782 0.20602 0.36412 0.0
H690 H 0.48169 0.25675 0.35892 0.0
H691 H 0.44655 0.22757 0.39009 0.0
H692 H 0.4808 0.29422 0.54594 0.0
H693 H 0.47441 0.36128 0.52447 0.0
H694 H 0.50113 0.32398 0.39951 0.0
C695 C 0.51428 0.17554 0.44497 0.0
C696 C 0.5076 0.15125 0.47791 0.0
C697 C 0.49581 0.16759 0.51609 0.0
C698 C 0.4916 0.20784 0.52162 0.0
C699 C 0.49868 0.23105 0.48845 0.0
C700 C 0.50909 0.21522 0.45067 0.0
C701 C 0.51276 0.24558 0.41908 0.0
C702 C 0.55957 0.2533 0.4066 0.0
C703 C 0.48026 0.23328 0.38085 0.0
C704 C 0.50129 0.28077 0.44446 0.0
C705 C 0.49481 0.27235 0.48484 0.0
C706 C 0.4856 0.301 0.51436 0.0
C707 C 0.48215 0.33895 0.50201 0.0
C708 C 0.48694 0.34741 0.46038 0.0
C709 C 0.49683 0.318 0.43144 0.0
H710 H 0.12021 0.23022 0.74901 0.0
H711 H 0.15632 0.27692 0.8766 0.0
H712 H 0.07887 0.2708 0.89 0.0
H713 H 0.03186 0.28018 0.73235 0.0
H714 H 0.99853 0.24069 0.70086 0.0
H715 H 0.05669 0.24421 0.70257 0.0
H716 H 0.05342 0.17325 0.72577 0.0
H717 H 0.99511 0.16929 0.72342 0.0
H718 H 0.02531 0.1605 0.77062 0.0
H719 H 0.997 0.2656 0.88733 0.0
H720 H 0.91765 0.25825 0.86968 0.0
H721 H 0.93652 0.21543 0.74386 0.0
C722 C 0.11199 0.23839 0.78005 0.0
C723 C 0.14439 0.25401 0.81175 0.0
C724 C 0.1321 0.26469 0.85183 0.0
C725 C 0.08818 0.26139 0.85975 0.0
C726 C 0.05703 0.24705 0.82737 0.0
C727 C 0.06845 0.23526 0.78846 0.0
C728 C 0.02889 0.22275 0.75836 0.0
C729 C 0.02903 0.24851 0.72137 0.0
C730 C 0.02548 0.17884 0.74369 0.0
C731 C 0.99344 0.23041 0.78607 0.0
C732 C 0.01016 0.24412 0.82584 0.0
C733 C 0.9835 0.25447 0.8564 0.0
C734 C 0.93851 0.25037 0.84603 0.0
C735 C 0.92079 0.23628 0.8054 0.0
C736 C 0.94887 0.22622 0.77524 0.0
H737 H 0.04769 0.85246 0.96267 0.0
H738 H 0.90797 0.84905 0.95692 0.0
H739 H 0.89982 0.77855 0.9699 0.0
H740 H 0.04529 0.76132 0.90561 0.0
H741 H 0.0919 0.74748 0.93421 0.0
H742 H 0.08689 0.79865 0.93054 0.0
H743 H 0.09517 0.80932 0.01067 0.0
H744 H 0.09856 0.75787 0.01527 0.0
H745 H 0.05792 0.78096 0.04069 0.0
H746 H 0.90684 0.70769 0.98055 0.0
H747 H 0.92761 0.64048 0.97863 0.0
H748 H 0.06199 0.68917 0.97124 0.0
C749 C 0.01556 0.83693 0.96505 0.0
C750 C 0.97848 0.85603 0.9595 0.0
C751 C 0.93674 0.83474 0.9614 0.0
C752 C 0.93183 0.79483 0.96899 0.0
C753 C 0.96902 0.77655 0.97394 0.0
C754 C 0.01005 0.79677 0.97147 0.0
C755 C 0.04424 0.76932 0.97327 0.0
C756 C 0.0685 0.7692 0.93355 0.0
C757 C 0.07585 0.78002 0.01228 0.0
C758 C 0.01597 0.73046 0.97607 0.0
C759 C 0.97282 0.73536 0.97762 0.0
C760 C 0.94056 0.70349 0.97951 0.0
C761 C 0.95261 0.66549 0.9786 0.0
C762 C 0.9963 0.65982 0.97477 0.0
C763 C 0.02834 0.69279 0.97425 0.0
H764 H 0.36839 0.42887 0.28827 0.0
H765 H 0.24613 0.37985 0.33151 0.0
H766 H 0.22065 0.44524 0.33068 0.0
H767 H 0.3811 0.52286 0.3415 0.0
H768 H 0.40067 0.54948 0.29922 0.0
H769 H 0.40983 0.49919 0.30299 0.0
H770 H 0.37281 0.47939 0.2296 0.0
H771 H 0.36418 0.52965 0.22443 0.0
H772 H 0.3189 0.49083 0.21663 0.0
H773 H 0.21065 0.51683 0.32884 0.0
H774 H 0.21374 0.58807 0.31966 0.0
H775 H 0.3394 0.58824 0.2705 0.0
C776 C 0.33623 0.432 0.29749 0.0
C777 C 0.30917 0.39965 0.31024 0.0
C778 C 0.26712 0.40443 0.32154 0.0
C779 C 0.25256 0.4414 0.32134 0.0
C780 C 0.28011 0.47285 0.30877 0.0
C781 C 0.32072 0.4683 0.2962 0.0
C782 C 0.34305 0.50617 0.28183 0.0
C783 C 0.38618 0.52026 0.30796 0.0
C784 C 0.35012 0.5012 0.23536 0.0
C785 C 0.30929 0.53317 0.28973 0.0
C786 C 0.27328 0.51342 0.30538 0.0
C787 C 0.23843 0.53252 0.31621 0.0
C788 C 0.24047 0.57289 0.31097 0.0
C789 C 0.27651 0.59333 0.29393 0.0
C790 C 0.31118 0.57309 0.28304 0.0
H791 H 0.76853 0.09458 0.82991 0.0
H792 H 0.71049 0.09147 0.70373 0.0
H793 H 0.69951 0.01873 0.69976 0.0
H794 H 0.83001 0.02102 0.81169 0.0
H795 H 0.82463 1.00004 0.86081 0.0
H796 H 0.81984 0.05112 0.85685 0.0
H797 H 0.74395 0.04129 0.88506 0.0
H798 H 0.74931 0.99029 0.89006 0.0
H799 H 0.70275 0.00337 0.86065 0.0
H800 H 0.70219 0.94664 0.70695 0.0
H801 H 0.72186 0.88163 0.72327 0.0
H802 H 0.78233 0.93292 0.84298 0.0
C803 C 0.75212 0.07865 0.80194 0.0
C804 C 0.73974 0.09863 0.76731 0.0
C805 C 0.71978 0.07669 0.73075 0.0
C806 C 0.71333 0.0354 0.72827 0.0
C807 C 0.72721 0.01657 0.76256 0.0
C808 C 0.7462 0.03754 0.79873 0.0
C809 C 0.76305 0.01066 0.82931 0.0
C810 C 0.81229 0.02135 0.84024 0.0
C811 C 0.73825 0.01141 0.86858 0.0
C812 C 0.75226 0.97146 0.80396 0.0
C813 C 0.73055 0.97527 0.76603 0.0
C814 C 0.71877 0.94323 0.73672 0.0
C815 C 0.73007 0.90647 0.7462 0.0
C816 C 0.75374 0.90241 0.78423 0.0
C817 C 0.76431 0.93523 0.8136 0.0
H818 H 0.34572 0.46298 0.95395 0.0
H819 H 0.3885 0.57455 0.0261 0.0
H820 H 0.31294 0.58572 0.03017 0.0
H821 H 0.25676 0.49736 0.89483 0.0
H822 H 0.22091 0.45174 0.89412 0.0
H823 H 0.27877 0.45156 0.8969 0.0
H824 H 0.27479 0.41454 0.96379 0.0
H825 H 0.21692 0.41473 0.96134 0.0
H826 H 0.25028 0.43515 0.00752 0.0
H827 H 0.23438 0.58624 0.02666 0.0
H828 H 0.1548 0.5764 0.01394 0.0
H829 H 0.16023 0.46461 0.94452 0.0
C830 C 0.33908 0.48963 0.97069 0.0
C831 C 0.37319 0.51779 0.98975 0.0
C832 C 0.36313 0.55249 0.0111 0.0
C833 C 0.32022 0.55916 0.01376 0.0
C834 C 0.28748 0.53098 0.99481 0.0
C835 C 0.2961 0.497 0.97347 0.0
C836 C 0.2543 0.47218 0.95518 0.0
C837 C 0.2526 0.46798 0.90745 0.0
C838 C 0.24876 0.43176 0.97304 0.0
C839 C 0.22114 0.49742 0.97023 0.0
C840 C 0.24125 0.53123 0.99287 0.0
C841 C 0.21807 0.55982 0.00915 0.0
C842 C 0.17291 0.55396 0.00176 0.0
C843 C 0.15136 0.51966 0.97852 0.0
C844 C 0.17583 0.49083 0.96293 0.0
H845 H 0.8288 0.0881 0.24488 0.0
H846 H 0.81613 0.12004 0.37469 0.0
H847 H 0.83382 0.05506 0.39265 0.0
H848 H 0.77284 0.99663 0.24357 0.0
H849 H 0.80439 0.97214 0.20801 0.0
H850 H 0.80228 0.02392 0.2066 0.0
H851 H 0.88627 0.03735 0.21696 0.0
H852 H 0.88853 0.98535 0.21868 0.0
H853 H 0.91423 0.01937 0.26086 0.0
H854 H 0.83875 0.98439 0.39533 0.0
H855 H 0.8261 0.91219 0.38216 0.0
H856 H 0.83382 0.92431 0.25033 0.0
C857 C 0.83135 0.08168 0.27714 0.0
C858 C 0.8218 0.10891 0.30853 0.0
C859 C 0.82367 0.09938 0.35033 0.0
C860 C 0.83395 0.06272 0.36085 0.0
C861 C 0.84181 0.03577 0.32913 0.0
C862 C 0.8406 0.0447 0.28806 0.0
C863 C 0.84324 0.0085 0.25939 0.0
C864 C 0.80331 0.99979 0.22757 0.0
C865 C 0.8856 0.01292 0.2377 0.0
C866 C 0.84345 0.97757 0.2905 0.0
C867 C 0.84401 0.9941 0.33067 0.0
C868 C 0.83943 0.97105 0.36421 0.0
C869 C 0.83228 0.92999 0.3564 0.0
C870 C 0.82904 0.91248 0.31521 0.0
C871 C 0.83671 0.9367 0.28223 0.0
H872 H 0.85963 0.9726 0.99622 0.0
H873 H 0.88703 0.08709 0.94846 0.0
H874 H 0.8102 0.09705 0.95297 0.0
H875 H 0.75631 0.94463 0.94464 0.0
H876 H 0.73277 0.92112 0.98718 0.0
H877 H 0.79011 0.92359 0.98211 0.0
H878 H 0.80672 0.95752 0.05627 0.0
H879 H 0.74941 0.9548 0.06201 0.0
H880 H 0.78367 1.00158 0.07021 0.0
H881 H 0.72898 0.09092 0.95559 0.0
H882 H 0.65043 0.07167 0.96195 0.0
H883 H 0.67805 0.96436 0.0145 0.0
C884 C 0.84953 0.99998 0.98725 0.0
C885 C 0.87905 0.02918 0.97209 0.0
C886 C 0.86485 0.06462 0.96058 0.0
C887 C 0.82135 0.07043 0.96291 0.0
C888 C 0.79293 0.04089 0.97775 0.0
C889 C 0.8066 0.00663 0.99034 0.0
C890 C 0.76964 0.97932 0.00483 0.0
C891 C 0.76176 0.93986 0.97807 0.0
C892 C 0.77786 0.97296 0.05109 0.0
C893 C 0.73275 0.00321 0.99758 0.0
C894 C 0.74673 0.03851 0.98165 0.0
C895 C 0.7178 0.06389 0.96905 0.0
C896 C 0.6734 0.05277 0.97267 0.0
C897 C 0.65876 0.01716 0.98967 0.0
C898 C 0.68882 0.99236 0.00267 0.0
H899 H 0.21136 0.57191 0.74956 0.0
H900 H 0.33753 0.6293 0.80191 0.0
H901 H 0.36199 0.56407 0.80878 0.0
H902 H 0.20211 0.493 0.81248 0.0
H903 H 0.17641 0.45716 0.77193 0.0
H904 H 0.17001 0.50818 0.76947 0.0
H905 H 0.19967 0.50774 0.69671 0.0
H906 H 0.20577 0.45655 0.69882 0.0
H907 H 0.25164 0.49167 0.68987 0.0
H908 H 0.36881 0.49157 0.81734 0.0
H909 H 0.36104 0.41873 0.81716 0.0
H910 H 0.23247 0.41064 0.75383 0.0
C911 C 0.24439 0.57074 0.76181 0.0
C912 C 0.27264 0.60545 0.7752 0.0
C913 C 0.3156 0.60291 0.7911 0.0
C914 C 0.3296 0.56604 0.79538 0.0
C915 C 0.30047 0.53223 0.78278 0.0
C916 C 0.25907 0.53439 0.76545 0.0
C917 C 0.23389 0.49398 0.75421 0.0
C918 C 0.19322 0.48774 0.77848 0.0
C919 C 0.22207 0.48709 0.7071 0.0
C920 C 0.26729 0.46863 0.76845 0.0
C921 C 0.30533 0.49104 0.78541 0.0
C922 C 0.33952 0.47374 0.8033 0.0
C923 C 0.33482 0.43248 0.80323 0.0
C924 C 0.29656 0.4092 0.78474 0.0
C925 C 0.26255 0.42769 0.76723 0.0
H926 H 0.14798 0.4435 0.47051 0.0
H927 H 0.12295 0.54845 0.41151 0.0
H928 H 0.20127 0.5637 0.40138 0.0
H929 H 0.25341 0.48109 0.52208 0.0
H930 H 0.27513 0.43558 0.5122 0.0
H931 H 0.21794 0.43494 0.51731 0.0
H932 H 0.20164 0.39572 0.44605 0.0
H933 H 0.25856 0.39729 0.4389 0.0
H934 H 0.22308 0.41583 0.40086 0.0
H935 H 0.28294 0.56893 0.40174 0.0
H936 H 0.36036 0.5598 0.40417 0.0
H937 H 0.32977 0.44689 0.4546 0.0
C938 C 0.15919 0.46988 0.45584 0.0
C939 C 0.12996 0.49527 0.44236 0.0
C940 C 0.14522 0.52894 0.42228 0.0
C941 C 0.18949 0.53778 0.41648 0.0
C942 C 0.21756 0.51198 0.42993 0.0
C943 C 0.2029 0.47841 0.44863 0.0
C944 C 0.2392 0.45438 0.4582 0.0
C945 C 0.24687 0.45134 0.50524 0.0
C946 C 0.23011 0.41339 0.43458 0.0
C947 C 0.27665 0.47966 0.44192 0.0
C948 C 0.26372 0.51319 0.42662 0.0
C949 C 0.29328 0.54244 0.41289 0.0
C950 C 0.33714 0.53705 0.4145 0.0
C951 C 0.35077 0.50234 0.42888 0.0
C952 C 0.32003 0.47329 0.44258 0.0
H953 H 0.77374 0.81181 0.93683 0.0
H954 H 0.77073 0.68536 0.9162 0.0
H955 H 0.7692 0.67966 0.99197 0.0
H956 H 0.84238 0.82526 0.03174 0.0
H957 H 0.8138 0.86287 0.05407 0.0
H958 H 0.81549 0.85617 0.99863 0.0
H959 H 0.73102 0.84678 0.98926 0.0
H960 H 0.72984 0.85428 0.04467 0.0
H961 H 0.70076 0.81027 0.01696 0.0
H962 H 0.76916 0.68885 0.07114 0.0
H963 H 0.76562 0.71143 0.1451 0.0
H964 H 0.76657 0.83129 0.11109 0.0
C965 C 0.77275 0.78281 0.94806 0.0
C966 C 0.7724 0.749 0.92058 0.0
C967 C 0.77084 0.71165 0.9367 0.0
C968 C 0.77019 0.70817 0.97966 0.0
C969 C 0.77087 0.74229 0.00587 0.0
C970 C 0.7718 0.77882 0.99049 0.0
C971 C 0.77139 0.81101 0.02461 0.0
C972 C 0.81326 0.84055 0.02743 0.0
C973 C 0.73083 0.83179 0.01852 0.0
C974 C 0.76963 0.78692 0.0618 0.0
C975 C 0.76987 0.7474 0.05064 0.0
C976 C 0.76881 0.7197 0.08016 0.0
C977 C 0.76691 0.73276 0.12203 0.0
C978 C 0.76553 0.77301 0.13371 0.0
C979 C 0.76722 0.80026 0.1031 0.0
H980 H 0.50629 0.44426 0.29447 0.0
H981 H 0.57958 0.55654 0.34167 0.0
H982 H 0.60296 0.56692 0.27163 0.0
H983 H 0.5803 0.41785 0.21373 0.0
H984 H 0.53494 0.39707 0.17776 0.0
H985 H 0.53103 0.39509 0.23282 0.0
H986 H 0.46195 0.42952 0.22743 0.0
H987 H 0.46569 0.43186 0.1726 0.0
H988 H 0.46414 0.47626 0.20521 0.0
H989 H 0.6095 0.56955 0.19533 0.0
H990 H 0.59678 0.56524 0.11899 0.0
H991 H 0.51872 0.45142 0.12158 0.0
C992 C 0.52844 0.47044 0.29043 0.0
C993 C 0.54145 0.49942 0.32365 0.0
C994 C 0.5694 0.53382 0.31674 0.0
C995 C 0.58303 0.53988 0.27709 0.0
C996 C 0.56857 0.51122 0.24473 0.0
C997 C 0.54201 0.47707 0.25105 0.0
C998 C 0.52659 0.45316 0.21042 0.0
C999 C 0.54429 0.41345 0.20859 0.0
C1000 C 0.47666 0.44741 0.20353 0.0
C1001 C 0.5472 0.47996 0.1801 0.0
C1002 C 0.57195 0.51293 0.20051 0.0
C1003 C 0.59092 0.54351 0.17899 0.0
C1004 C 0.58345 0.54082 0.13559 0.0
C1005 C 0.55692 0.50791 0.11418 0.0
C1006 C 0.53974 0.47667 0.13685 0.0
H1007 H 0.77983 0.21606 0.42018 0.0
H1008 H 0.84249 0.33671 0.42259 0.0
H1009 H 0.84051 0.34321 0.49931 0.0
H1010 H 0.70847 0.23414 0.50019 0.0
H1011 H 0.71137 0.18701 0.52046 0.0
H1012 H 0.71701 0.19255 0.46618 0.0
H1013 H 0.79201 0.16651 0.47162 0.0
H1014 H 0.7838 0.15903 0.52497 0.0
H1015 H 0.83243 0.18805 0.51222 0.0
H1016 H 0.83007 0.3355 0.57679 0.0
H1017 H 0.81981 0.31233 0.64684 0.0
H1018 H 0.76668 0.19653 0.59054 0.0
C1019 C 0.79335 0.24401 0.43654 0.0
C1020 C 0.81125 0.276 0.41522 0.0
C1021 C 0.82838 0.3119 0.43819 0.0
C1022 C 0.82718 0.31586 0.4817 0.0
C1023 C 0.80843 0.28375 0.50146 0.0
C1024 C 0.79216 0.24844 0.47941 0.0
C1025 C 0.77426 0.21789 0.50728 0.0
C1026 C 0.72486 0.2073 0.49797 0.0
C1027 C 0.79705 0.18078 0.50377 0.0
C1028 C 0.78515 0.24074 0.54901 0.0
C1029 C 0.80363 0.27903 0.5452 0.0
C1030 C 0.81562 0.30561 0.57999 0.0
C1031 C 0.80945 0.29237 0.61954 0.0
C1032 C 0.79244 0.25278 0.6237 0.0
C1033 C 0.77976 0.22696 0.588 0.0
H1034 H 0.01589 0.43309 0.63416 0.0
H1035 H 0.95338 0.53234 0.59742 0.0
H1036 H 0.93939 0.54791 0.67056 0.0
H1037 H 0.94366 0.40395 0.71348 0.0
H1038 H 0.98678 0.39066 0.74753 0.0
H1039 H 0.99002 0.38634 0.69213 0.0
H1040 H 0.06447 0.43078 0.70093 0.0
H1041 H 0.06157 0.435 0.75628 0.0
H1042 H 0.06902 0.47869 0.72858 0.0
H1043 H 0.93805 0.55581 0.7483 0.0
H1044 H 0.94816 0.55481 0.82459 0.0
H1045 H 0.00784 0.4482 0.80996 0.0
C1046 C 0.99898 0.45798 0.64138 0.0
C1047 C 0.98577 0.4816 0.61009 0.0
C1048 C 0.96372 0.51384 0.62087 0.0
C1049 C 0.95558 0.52284 0.6623 0.0
C1050 C 0.96922 0.499 0.69239 0.0
C1051 C 0.99025 0.46709 0.68238 0.0
C1052 C 0.00281 0.44684 0.72062 0.0
C1053 C 0.97941 0.40444 0.71829 0.0
C1054 C 0.05239 0.44792 0.72696 0.0
C1055 C 0.9862 0.47273 0.75391 0.0
C1056 C 0.96696 0.50267 0.73698 0.0
C1057 C 0.95229 0.5321 0.76183 0.0
C1058 C 0.95815 0.53129 0.80507 0.0
C1059 C 0.97799 0.50102 0.823 0.0
C1060 C 0.99138 0.47098 0.79701 0.0
H1061 H 0.84098 0.03614 0.4851 0.0
H1062 H 0.84697 0.91048 0.48169 0.0
H1063 H 0.76676 0.8981 0.47886 0.0
H1064 H 0.75465 0.03799 0.55042 0.0
H1065 H 0.73039 0.075 0.52374 0.0
H1066 H 0.78792 0.07367 0.52416 0.0
H1067 H 0.78178 0.07007 0.4444 0.0
H1068 H 0.72403 0.07016 0.44269 0.0
H1069 H 0.74582 0.03086 0.41496 0.0
H1070 H 0.68607 0.9 0.47958 0.0
H1071 H 0.61098 0.91542 0.47896 0.0
H1072 H 0.65889 0.04003 0.48138 0.0
C1073 C 0.82561 0.00592 0.48365 0.0
C1074 C 0.85034 0.97423 0.48389 0.0
C1075 C 0.82872 0.93521 0.48165 0.0
C1076 C 0.78322 0.92791 0.48009 0.0
C1077 C 0.75999 0.95996 0.48067 0.0
C1078 C 0.78049 0.99817 0.48203 0.0
C1079 C 0.74831 0.02753 0.4825 0.0
C1080 C 0.75577 0.05515 0.5226 0.0
C1081 C 0.75008 0.05099 0.44381 0.0
C1082 C 0.70632 0.99987 0.48145 0.0
C1083 C 0.71372 0.96105 0.48056 0.0
C1084 C 0.67989 0.93028 0.48009 0.0
C1085 C 0.63732 0.93937 0.47994 0.0
C1086 C 0.62893 0.97895 0.48012 0.0
C1087 C 0.6641 0.00947 0.48121 0.0
loop_
_geom_bond_atom_site_label_1
_geom_bond_atom_site_label_2
_geom_bond_distance
_geom_bond_site_symmetry_2
_ccdc_geom_bond_type
O0 Cd1 2.223 . S
O0 C8 1.315 . S
Cd1 O0 2.223 . S
Cd1 O4 2.297 . S
Cd1 O5 2.439 . S
Cd1 O11 2.240 . S
Cd2 O3 2.240 . S
Cd2 O10 2.223 . S
Cd2 O12 2.297 . S
Cd2 O13 2.439 . S
O3 Cd2 2.240 . S
O3 C8 1.279 . S
O4 Cd1 2.297 . S
O4 C6 1.247 . S
O5 Cd1 2.439 . S
O5 C6 1.208 . S
C6 O4 1.247 . S
C6 O5 1.208 . S
C7 O12 1.247 . S
C7 O13 1.208 . S
C8 O0 1.315 . S
C8 O3 1.279 . S
C9 O10 1.315 . S
C9 O11 1.279 . S
O10 Cd2 2.223 . S
O10 C9 1.315 . S
O11 Cd1 2.240 . S
O11 C9 1.279 . S
O12 Cd2 2.297 . S
O12 C7 1.247 . S
O13 Cd2 2.439 . S
O13 C7 1.208 . S
O14 Cd15 2.223 . S
O14 C22 1.315 . S
Cd15 O14 2.223 . S
Cd15 O18 2.297 1_655 S
Cd15 O19 2.439 1_665 S
Cd15 O25 2.240 1_565 S
Cd16 O17 2.240 1_655 S
Cd16 O24 2.223 . S
Cd16 O26 2.297 . S
Cd16 O27 2.439 1_655 S
O17 Cd16 2.240 1_455 S
O17 C22 1.279 1_445 S
O18 Cd15 2.297 1_455 S
O18 C20 1.247 . S
O19 Cd15 2.439 1_445 S
O19 C20 1.208 1_545 S
C20 O18 1.247 . S
C20 O19 1.208 1_565 S
C21 O26 1.247 . S
C21 O27 1.208 1_655 S
C22 O14 1.315 . S
C22 O17 1.279 1_665 S
C23 O24 1.315 . S
C23 O25 1.279 . S
O24 Cd16 2.223 . S
O24 C23 1.315 . S
O25 Cd15 2.240 1_545 S
O25 C23 1.279 . S
O26 Cd16 2.297 . S
O26 C21 1.247 . S
O27 Cd16 2.439 1_455 S
O27 C21 1.208 1_455 S
O28 Cd29 2.223 . S
O28 C36 1.315 . S
Cd29 O28 2.223 . S
Cd29 O32 2.297 . S
Cd29 O33 2.439 . S
Cd29 O39 2.240 . S
Cd30 O31 2.240 . S
Cd30 O38 2.223 . S
Cd30 O40 2.297 . S
Cd30 O41 2.439 . S
O31 Cd30 2.240 . S
O31 C36 1.279 . S
O32 Cd29 2.297 . S
O32 C34 1.247 . S
O33 Cd29 2.439 . S
O33 C34 1.208 . S
C34 O32 1.247 . S
C34 O33 1.208 . S
C35 O40 1.247 . S
C35 O41 1.208 . S
C36 O28 1.315 . S
C36 O31 1.279 . S
C37 O38 1.315 . S
C37 O39 1.279 . S
O38 Cd30 2.223 . S
O38 C37 1.315 . S
O39 Cd29 2.240 . S
O39 C37 1.279 . S
O40 Cd30 2.297 . S
O40 C35 1.247 . S
O41 Cd30 2.439 . S
O41 C35 1.208 . S
O42 Cd43 2.223 . S
O42 C50 1.315 . S
Cd43 O42 2.223 . S
Cd43 O46 2.297 . S
Cd43 O47 2.439 1_565 S
Cd43 O53 2.240 . S
Cd44 O45 2.240 1_554 S
Cd44 O52 2.223 . S
Cd44 O54 2.297 . S
Cd44 O55 2.439 . S
O45 Cd44 2.240 1_556 S
O45 C50 1.279 . S
O46 Cd43 2.297 . S
O46 C48 1.247 1_565 S
O47 Cd43 2.439 1_545 S
O47 C48 1.208 . S
C48 O46 1.247 1_545 S
C48 O47 1.208 . S
C49 O54 1.247 . S
C49 O55 1.208 . S
C50 O42 1.315 . S
C50 O45 1.279 . S
C51 O52 1.315 . S
C51 O53 1.279 1_554 S
O52 Cd44 2.223 . S
O52 C51 1.315 . S
O53 Cd43 2.240 . S
O53 C51 1.279 1_556 S
O54 Cd44 2.297 . S
O54 C49 1.247 . S
O55 Cd44 2.439 . S
O55 C49 1.208 . S
O56 Cd57 2.223 . S
O56 C64 1.315 . S
Cd57 O56 2.223 . S
Cd57 O60 2.297 . S
Cd57 O61 2.439 . S
Cd57 O67 2.240 . S
Cd58 O59 2.240 . S
Cd58 O66 2.223 . S
Cd58 O68 2.297 . S
Cd58 O69 2.439 . S
O59 Cd58 2.240 . S
O59 C64 1.279 . S
O60 Cd57 2.297 . S
O60 C62 1.247 . S
O61 Cd57 2.439 . S
O61 C62 1.208 . S
C62 O60 1.247 . S
C62 O61 1.208 . S
C63 O68 1.247 . S
C63 O69 1.208 . S
C64 O56 1.315 . S
C64 O59 1.279 . S
C65 O66 1.315 . S
C65 O67 1.279 . S
O66 Cd58 2.223 . S
O66 C65 1.315 . S
O67 Cd57 2.240 . S
O67 C65 1.279 . S
O68 Cd58 2.297 . S
O68 C63 1.247 . S
O69 Cd58 2.439 . S
O69 C63 1.208 . S
O70 Cd71 2.223 . S
O70 C78 1.315 . S
Cd71 O70 2.223 . S
Cd71 O74 2.297 . S
Cd71 O75 2.439 . S
Cd71 O81 2.240 1_565 S
Cd72 O73 2.240 1_545 S
Cd72 O80 2.223 . S
Cd72 O82 2.297 . S
Cd72 O83 2.439 . S
O73 Cd72 2.240 1_565 S
O73 C78 1.279 . S
O74 Cd71 2.297 . S
O74 C76 1.247 . S
O75 Cd71 2.439 . S
O75 C76 1.208 . S
C76 O74 1.247 . S
C76 O75 1.208 . S
C77 O82 1.247 . S
C77 O83 1.208 . S
C78 O70 1.315 . S
C78 O73 1.279 . S
C79 O80 1.315 . S
C79 O81 1.279 . S
O80 Cd72 2.223 . S
O80 C79 1.315 . S
O81 Cd71 2.240 1_545 S
O81 C79 1.279 . S
O82 Cd72 2.297 . S
O82 C77 1.247 . S
O83 Cd72 2.439 . S
O83 C77 1.208 . S
O84 Cd85 2.223 . S
O84 C92 1.315 . S
Cd85 O84 2.223 . S
Cd85 O88 2.297 . S
Cd85 O89 2.439 . S
Cd85 O95 2.240 . S
Cd86 O87 2.240 . S
Cd86 O94 2.223 . S
Cd86 O96 2.297 . S
Cd86 O97 2.439 . S
O87 Cd86 2.240 . S
O87 C92 1.279 . S
O88 Cd85 2.297 . S
O88 C90 1.247 . S
O89 Cd85 2.439 . S
O89 C90 1.208 . S
C90 O88 1.247 . S
C90 O89 1.208 . S
C91 O96 1.247 . S
C91 O97 1.208 . S
C92 O84 1.315 . S
C92 O87 1.279 . S
C93 O94 1.315 . S
C93 O95 1.279 . S
O94 Cd86 2.223 . S
O94 C93 1.315 . S
O95 Cd85 2.240 . S
O95 C93 1.279 . S
O96 Cd86 2.297 . S
O96 C91 1.247 . S
O97 Cd86 2.439 . S
O97 C91 1.208 . S
O98 Cd99 2.223 . S
O98 C106 1.315 1_545 S
Cd99 O98 2.223 . S
Cd99 O102 2.297 1_655 S
Cd99 O103 2.439 1_645 S
Cd99 O109 2.240 1_545 S
Cd100 O101 2.240 1_655 S
Cd100 O108 2.223 . S
Cd100 O110 2.297 . S
Cd100 O111 2.439 1_655 S
O101 Cd100 2.240 1_455 S
O101 C106 1.279 1_455 S
O102 Cd99 2.297 1_455 S
O102 C104 1.247 1_556 S
O103 Cd99 2.439 1_465 S
O103 C104 1.208 1_566 S
C104 O102 1.247 1_554 S
C104 O103 1.208 1_544 S
C105 O110 1.247 . S
C105 O111 1.208 1_655 S
C106 O98 1.315 1_565 S
C106 O101 1.279 1_655 S
C107 O108 1.315 . S
C107 O109 1.279 . S
O108 Cd100 2.223 . S
O108 C107 1.315 . S
O109 Cd99 2.240 1_565 S
O109 C107 1.279 . S
O110 Cd100 2.297 . S
O110 C105 1.247 . S
O111 Cd100 2.439 1_455 S
O111 C105 1.208 1_455 S
O112 Cd113 2.223 . S
O112 C120 1.315 . S
Cd113 O112 2.223 . S
Cd113 O116 2.297 . S
Cd113 O117 2.439 . S
Cd113 O123 2.240 . S
Cd114 O115 2.240 . S
Cd114 O122 2.223 . S
Cd114 O124 2.297 . S
Cd114 O125 2.439 . S
O115 Cd114 2.240 . S
O115 C120 1.279 . S
O116 Cd113 2.297 . S
O116 C118 1.247 . S
O117 Cd113 2.439 . S
O117 C118 1.208 . S
C118 O116 1.247 . S
C118 O117 1.208 . S
C119 O124 1.247 . S
C119 O125 1.208 . S
C120 O112 1.315 . S
C120 O115 1.279 . S
C121 O122 1.315 . S
C121 O123 1.279 . S
O122 Cd114 2.223 . S
O122 C121 1.315 . S
O123 Cd113 2.240 . S
O123 C121 1.279 . S
O124 Cd114 2.297 . S
O124 C119 1.247 . S
O125 Cd114 2.439 . S
O125 C119 1.208 . S
O126 Cd127 2.223 1_556 S
O126 C134 1.315 1_455 S
Cd127 O126 2.223 1_554 S
Cd127 O130 2.297 1_455 S
Cd127 O131 2.439 1_455 S
Cd127 O137 2.240 . S
Cd128 O129 2.240 1_455 S
Cd128 O136 2.223 . S
Cd128 O138 2.297 . S
Cd128 O139 2.439 1_456 S
O129 Cd128 2.240 1_655 S
O129 C134 1.279 . S
O130 Cd127 2.297 1_655 S
O130 C132 1.247 . S
O131 Cd127 2.439 1_655 S
O131 C132 1.208 . S
C132 O130 1.247 . S
C132 O131 1.208 . S
C133 O138 1.247 1_654 S
C133 O139 1.208 . S
C134 O126 1.315 1_655 S
C134 O129 1.279 . S
C135 O136 1.315 . S
C135 O137 1.279 1_556 S
O136 Cd128 2.223 . S
O136 C135 1.315 . S
O137 Cd127 2.240 . S
O137 C135 1.279 1_554 S
O138 Cd128 2.297 . S
O138 C133 1.247 1_456 S
O139 Cd128 2.439 1_654 S
O139 C133 1.208 . S
O140 Cd141 2.223 . S
O140 C148 1.315 . S
Cd141 O140 2.223 . S
Cd141 O144 2.297 . S
Cd141 O145 2.439 . S
Cd141 O151 2.240 . S
Cd142 O143 2.240 . S
Cd142 O150 2.223 . S
Cd142 O152 2.297 . S
Cd142 O153 2.439 . S
O143 Cd142 2.240 . S
O143 C148 1.279 . S
O144 Cd141 2.297 . S
O144 C146 1.247 . S
O145 Cd141 2.439 . S
O145 C146 1.208 . S
C146 O144 1.247 . S
C146 O145 1.208 . S
C147 O152 1.247 . S
C147 O153 1.208 . S
C148 O140 1.315 . S
C148 O143 1.279 . S
C149 O150 1.315 . S
C149 O151 1.279 . S
O150 Cd142 2.223 . S
O150 C149 1.315 . S
O151 Cd141 2.240 . S
O151 C149 1.279 . S
O152 Cd142 2.297 . S
O152 C147 1.247 . S
O153 Cd142 2.439 . S
O153 C147 1.208 . S
O154 Cd155 2.223 1_455 S
O154 C162 1.315 . S
Cd155 O154 2.223 1_655 S
Cd155 O158 2.297 . S
Cd155 O159 2.439 . S
Cd155 O165 2.240 . S
Cd156 O157 2.240 . S
Cd156 O164 2.223 . S
Cd156 O166 2.297 . S
Cd156 O167 2.439 1_455 S
O157 Cd156 2.240 . S
O157 C162 1.279 . S
O158 Cd155 2.297 . S
O158 C160 1.247 . S
O159 Cd155 2.439 . S
O159 C160 1.208 . S
C160 O158 1.247 . S
C160 O159 1.208 . S
C161 O166 1.247 . S
C161 O167 1.208 1_455 S
C162 O154 1.315 . S
C162 O157 1.279 . S
C163 O164 1.315 . S
C163 O165 1.279 1_455 S
O164 Cd156 2.223 . S
O164 C163 1.315 . S
O165 Cd155 2.240 . S
O165 C163 1.279 1_655 S
O166 Cd156 2.297 . S
O166 C161 1.247 . S
O167 Cd156 2.439 1_655 S
O167 C161 1.208 1_655 S
O168 Cd169 2.223 1_554 S
O168 C176 1.315 . S
Cd169 O168 2.223 1_556 S
Cd169 O172 2.297 . S
Cd169 O173 2.439 . S
Cd169 O179 2.240 . S
Cd170 O171 2.240 . S
Cd170 O178 2.223 . S
Cd170 O180 2.297 . S
Cd170 O181 2.439 1_554 S
O171 Cd170 2.240 . S
O171 C176 1.279 . S
O172 Cd169 2.297 . S
O172 C174 1.247 . S
O173 Cd169 2.439 . S
O173 C174 1.208 . S
C174 O172 1.247 . S
C174 O173 1.208 . S
C175 O180 1.247 1_556 S
C175 O181 1.208 . S
C176 O168 1.315 . S
C176 O171 1.279 . S
C177 O178 1.315 . S
C177 O179 1.279 1_554 S
O178 Cd170 2.223 . S
O178 C177 1.315 . S
O179 Cd169 2.240 . S
O179 C177 1.279 1_556 S
O180 Cd170 2.297 . S
O180 C175 1.247 1_554 S
O181 Cd170 2.439 1_556 S
O181 C175 1.208 . S
O182 Cd183 2.223 . S
O182 C190 1.315 . S
Cd183 O182 2.223 . S
Cd183 O186 2.297 . S
Cd183 O187 2.439 . S
Cd183 O193 2.240 . S
Cd184 O185 2.240 . S
Cd184 O192 2.223 . S
Cd184 O194 2.297 . S
Cd184 O195 2.439 . S
O185 Cd184 2.240 . S
O185 C190 1.279 . S
O186 Cd183 2.297 . S
O186 C188 1.247 . S
O187 Cd183 2.439 . S
O187 C188 1.208 . S
C188 O186 1.247 . S
C188 O187 1.208 . S
C189 O194 1.247 . S
C189 O195 1.208 . S
C190 O182 1.315 . S
C190 O185 1.279 . S
C191 O192 1.315 . S
C191 O193 1.279 . S
O192 Cd184 2.223 . S
O192 C191 1.315 . S
O193 Cd183 2.240 . S
O193 C191 1.279 . S
O194 Cd184 2.297 . S
O194 C189 1.247 . S
O195 Cd184 2.439 . S
O195 C189 1.208 . S
O196 Cd197 2.223 . S
O196 C204 1.315 . S
Cd197 O196 2.223 . S
Cd197 O200 2.297 . S
Cd197 O201 2.439 . S
Cd197 O207 2.240 . S
Cd198 O199 2.240 . S
Cd198 O206 2.223 . S
Cd198 O208 2.297 . S
Cd198 O209 2.439 . S
O199 Cd198 2.240 . S
O199 C204 1.279 . S
O200 Cd197 2.297 . S
O200 C202 1.247 . S
O201 Cd197 2.439 . S
O201 C202 1.208 . S
C202 O200 1.247 . S
C202 O201 1.208 . S
C203 O208 1.247 . S
C203 O209 1.208 . S
C204 O196 1.315 . S
C204 O199 1.279 . S
C205 O206 1.315 . S
C205 O207 1.279 . S
O206 Cd198 2.223 . S
O206 C205 1.315 . S
O207 Cd197 2.240 . S
O207 C205 1.279 . S
O208 Cd198 2.297 . S
O208 C203 1.247 . S
O209 Cd198 2.439 . S
O209 C203 1.208 . S
O210 Cd211 2.223 . S
O210 C218 1.315 . S
Cd211 O210 2.223 . S
Cd211 O214 2.297 . S
Cd211 O215 2.439 . S
Cd211 O221 2.240 . S
Cd212 O213 2.240 . S
Cd212 O220 2.223 . S
Cd212 O222 2.297 . S
Cd212 O223 2.439 . S
O213 Cd212 2.240 . S
O213 C218 1.279 . S
O214 Cd211 2.297 . S
O214 C216 1.247 . S
O215 Cd211 2.439 . S
O215 C216 1.208 . S
C216 O214 1.247 . S
C216 O215 1.208 . S
C217 O222 1.247 . S
C217 O223 1.208 . S
C218 O210 1.315 . S
C218 O213 1.279 . S
C219 O220 1.315 . S
C219 O221 1.279 . S
O220 Cd212 2.223 . S
O220 C219 1.315 . S
O221 Cd211 2.240 . S
O221 C219 1.279 . S
O222 Cd212 2.297 . S
O222 C217 1.247 . S
O223 Cd212 2.439 . S
O223 C217 1.208 . S
H224 C236 0.930 . S
H225 C238 0.930 . S
H226 C239 0.930 . S
H227 C243 0.959 . S
H228 C243 0.959 . S
H229 C243 0.961 . S
H230 C244 0.960 . S
H231 C244 0.961 . S
H232 C244 0.959 . S
H233 C247 0.929 . S
H234 C248 0.931 . S
H235 C250 0.930 . S
C236 H224 0.930 . S
C236 C237 1.399 . S
C236 C241 1.399 . S
C237 C236 1.399 . S
C237 C238 1.376 . S
C238 H225 0.930 . S
C238 C237 1.376 . S
C238 C239 1.388 . S
C239 H226 0.930 . S
C239 C238 1.388 . S
C239 C240 1.390 . S
C240 C239 1.390 . S
C240 C241 1.394 . S
C240 C246 1.465 . S
C241 C236 1.399 . S
C241 C240 1.394 . S
C241 C242 1.516 . S
C242 C241 1.516 . S
C242 C243 1.502 . S
C242 C244 1.561 . S
C242 C245 1.526 . S
C243 H227 0.959 . S
C243 H228 0.959 . S
C243 H229 0.961 . S
C243 C242 1.502 . S
C244 H230 0.960 . S
C244 H231 0.961 . S
C244 H232 0.959 . S
C244 C242 1.561 . S
C245 C242 1.526 . S
C245 C246 1.396 . S
C245 C250 1.390 . S
C246 C240 1.465 . S
C246 C245 1.396 . S
C246 C247 1.399 . S
C247 H233 0.929 . S
C247 C246 1.399 . S
C247 C248 1.385 . S
C248 H234 0.931 . S
C248 C247 1.385 . S
C248 C249 1.389 . S
C249 C248 1.389 . S
C249 C250 1.387 . S
C250 H235 0.930 . S
C250 C245 1.390 . S
C250 C249 1.387 . S
H251 C263 0.930 . S
H252 C265 0.930 . S
H253 C266 0.930 . S
H254 C270 0.959 . S
H255 C270 0.959 . S
H256 C270 0.961 . S
H257 C271 0.960 . S
H258 C271 0.961 . S
H259 C271 0.959 . S
H260 C274 0.929 . S
H261 C275 0.931 . S
H262 C277 0.930 . S
C263 H251 0.930 . S
C263 C264 1.399 . S
C263 C268 1.399 . S
C264 C263 1.399 . S
C264 C265 1.376 . S
C265 H252 0.930 . S
C265 C264 1.376 . S
C265 C266 1.388 . S
C266 H253 0.930 . S
C266 C265 1.388 . S
C266 C267 1.390 . S
C267 C266 1.390 . S
C267 C268 1.394 . S
C267 C273 1.465 . S
C268 C263 1.399 . S
C268 C267 1.394 . S
C268 C269 1.516 . S
C269 C268 1.516 . S
C269 C270 1.502 . S
C269 C271 1.561 . S
C269 C272 1.526 . S
C270 H254 0.959 . S
C270 H255 0.959 . S
C270 H256 0.961 . S
C270 C269 1.502 . S
C271 H257 0.960 . S
C271 H258 0.961 . S
C271 H259 0.959 . S
C271 C269 1.561 . S
C272 C269 1.526 . S
C272 C273 1.396 . S
C272 C277 1.390 . S
C273 C267 1.465 . S
C273 C272 1.396 . S
C273 C274 1.399 . S
C274 H260 0.929 . S
C274 C273 1.399 . S
C274 C275 1.385 . S
C275 H261 0.931 . S
C275 C274 1.385 . S
C275 C276 1.389 . S
C276 C275 1.389 . S
C276 C277 1.387 . S
C277 H262 0.930 . S
C277 C272 1.390 . S
C277 C276 1.387 . S
H278 C290 0.930 . S
H279 C292 0.930 . S
H280 C293 0.930 . S
H281 C297 0.959 . S
H282 C297 0.959 . S
H283 C297 0.961 . S
H284 C298 0.960 . S
H285 C298 0.961 . S
H286 C298 0.959 . S
H287 C301 0.929 . S
H288 C302 0.931 . S
H289 C304 0.930 . S
C290 H278 0.930 . S
C290 C291 1.399 . S
C290 C295 1.399 . S
C291 C290 1.399 . S
C291 C292 1.376 . S
C292 H279 0.930 . S
C292 C291 1.376 . S
C292 C293 1.388 . S
C293 H280 0.930 . S
C293 C292 1.388 . S
C293 C294 1.390 . S
C294 C293 1.390 . S
C294 C295 1.394 . S
C294 C300 1.465 . S
C295 C290 1.399 . S
C295 C294 1.394 . S
C295 C296 1.516 . S
C296 C295 1.516 . S
C296 C297 1.502 . S
C296 C298 1.561 . S
C296 C299 1.526 . S
C297 H281 0.959 . S
C297 H282 0.959 . S
C297 H283 0.961 . S
C297 C296 1.502 . S
C298 H284 0.960 . S
C298 H285 0.961 . S
C298 H286 0.959 . S
C298 C296 1.561 . S
C299 C296 1.526 . S
C299 C300 1.396 . S
C299 C304 1.390 . S
C300 C294 1.465 . S
C300 C299 1.396 . S
C300 C301 1.399 . S
C301 H287 0.929 . S
C301 C300 1.399 . S
C301 C302 1.385 . S
C302 H288 0.931 . S
C302 C301 1.385 . S
C302 C303 1.389 . S
C303 C302 1.389 . S
C303 C304 1.387 . S
C304 H289 0.930 . S
C304 C299 1.390 . S
C304 C303 1.387 . S
H305 C317 0.930 . S
H306 C319 0.930 . S
H307 C320 0.930 . S
H308 C324 0.959 . S
H309 C324 0.959 . S
H310 C324 0.961 . S
H311 C325 0.960 . S
H312 C325 0.961 . S
H313 C325 0.959 . S
H314 C328 0.929 . S
H315 C329 0.931 . S
H316 C331 0.930 . S
C317 H305 0.930 . S
C317 C318 1.399 . S
C317 C322 1.399 . S
C318 C317 1.399 . S
C318 C319 1.376 . S
C319 H306 0.930 . S
C319 C318 1.376 . S
C319 C320 1.388 . S
C320 H307 0.930 . S
C320 C319 1.388 . S
C320 C321 1.390 . S
C321 C320 1.390 . S
C321 C322 1.394 . S
C321 C327 1.465 . S
C322 C317 1.399 . S
C322 C321 1.394 . S
C322 C323 1.516 . S
C323 C322 1.516 . S
C323 C324 1.502 . S
C323 C325 1.561 . S
C323 C326 1.526 . S
C324 H308 0.959 . S
C324 H309 0.959 . S
C324 H310 0.961 . S
C324 C323 1.502 . S
C325 H311 0.960 . S
C325 H312 0.961 . S
C325 H313 0.959 . S
C325 C323 1.561 . S
C326 C323 1.526 . S
C326 C327 1.396 . S
C326 C331 1.390 . S
C327 C321 1.465 . S
C327 C326 1.396 . S
C327 C328 1.399 . S
C328 H314 0.929 . S
C328 C327 1.399 . S
C328 C329 1.385 . S
C329 H315 0.931 . S
C329 C328 1.385 . S
C329 C330 1.389 . S
C330 C329 1.389 . S
C330 C331 1.387 . S
C331 H316 0.930 . S
C331 C326 1.390 . S
C331 C330 1.387 . S
H332 C344 0.930 . S
H333 C346 0.930 . S
H334 C347 0.930 . S
H335 C351 0.959 . S
H336 C351 0.959 . S
H337 C351 0.961 . S
H338 C352 0.960 . S
H339 C352 0.961 . S
H340 C352 0.959 . S
H341 C355 0.929 . S
H342 C356 0.931 . S
H343 C358 0.930 . S
C344 H332 0.930 . S
C344 C345 1.399 . S
C344 C349 1.399 . S
C345 C344 1.399 . S
C345 C346 1.376 . S
C346 H333 0.930 . S
C346 C345 1.376 . S
C346 C347 1.388 . S
C347 H334 0.930 . S
C347 C346 1.388 . S
C347 C348 1.390 . S
C348 C347 1.390 . S
C348 C349 1.394 . S
C348 C354 1.465 . S
C349 C344 1.399 . S
C349 C348 1.394 . S
C349 C350 1.516 . S
C350 C349 1.516 . S
C350 C351 1.502 . S
C350 C352 1.561 . S
C350 C353 1.526 . S
C351 H335 0.959 . S
C351 H336 0.959 . S
C351 H337 0.961 . S
C351 C350 1.502 . S
C352 H338 0.960 . S
C352 H339 0.961 . S
C352 H340 0.959 . S
C352 C350 1.561 . S
C353 C350 1.526 . S
C353 C354 1.396 . S
C353 C358 1.390 . S
C354 C348 1.465 . S
C354 C353 1.396 . S
C354 C355 1.399 . S
C355 H341 0.929 . S
C355 C354 1.399 . S
C355 C356 1.385 . S
C356 H342 0.931 . S
C356 C355 1.385 . S
C356 C357 1.389 . S
C357 C356 1.389 . S
C357 C358 1.387 . S
C358 H343 0.930 . S
C358 C353 1.390 . S
C358 C357 1.387 . S
H359 C371 0.930 . S
H360 C373 0.930 . S
H361 C374 0.930 . S
H362 C378 0.959 . S
H363 C378 0.959 . S
H364 C378 0.961 . S
H365 C379 0.960 . S
H366 C379 0.961 . S
H367 C379 0.959 . S
H368 C382 0.929 . S
H369 C383 0.931 . S
H370 C385 0.930 . S
C371 H359 0.930 . S
C371 C372 1.399 . S
C371 C376 1.399 . S
C372 C371 1.399 . S
C372 C373 1.376 . S
C373 H360 0.930 . S
C373 C372 1.376 . S
C373 C374 1.388 . S
C374 H361 0.930 . S
C374 C373 1.388 . S
C374 C375 1.390 . S
C375 C374 1.390 . S
C375 C376 1.394 . S
C375 C381 1.465 . S
C376 C371 1.399 . S
C376 C375 1.394 . S
C376 C377 1.516 . S
C377 C376 1.516 . S
C377 C378 1.502 . S
C377 C379 1.561 . S
C377 C380 1.526 . S
C378 H362 0.959 . S
C378 H363 0.959 . S
C378 H364 0.961 . S
C378 C377 1.502 . S
C379 H365 0.960 . S
C379 H366 0.961 . S
C379 H367 0.959 . S
C379 C377 1.561 . S
C380 C377 1.526 . S
C380 C381 1.396 . S
C380 C385 1.390 . S
C381 C375 1.465 . S
C381 C380 1.396 . S
C381 C382 1.399 . S
C382 H368 0.929 . S
C382 C381 1.399 . S
C382 C383 1.385 . S
C383 H369 0.931 . S
C383 C382 1.385 . S
C383 C384 1.389 . S
C384 C383 1.389 . S
C384 C385 1.387 . S
C385 H370 0.930 . S
C385 C380 1.390 . S
C385 C384 1.387 . S
H386 C398 0.930 . S
H387 C400 0.930 . S
H388 C401 0.937 . S
H389 C405 0.959 . S
H390 C405 0.959 . S
H391 C405 0.961 . S
H392 C406 0.960 . S
H393 C406 0.961 . S
H394 C406 0.959 . S
H395 C409 0.929 . S
H396 C410 0.931 . S
H397 C412 0.930 . S
C398 H386 0.930 . S
C398 C399 1.399 . S
C398 C403 1.399 . S
C399 C398 1.399 . S
C399 C400 1.376 1_655 S
C400 H387 0.930 . S
C400 C399 1.376 1_455 S
C400 C401 1.390 . S
C401 H388 0.937 . S
C401 C400 1.390 . S
C401 C402 1.380 1_455 S
C402 C401 1.380 1_655 S
C402 C403 1.394 . S
C402 C408 1.465 . S
C403 C398 1.399 . S
C403 C402 1.394 . S
C403 C404 1.516 . S
C404 C403 1.516 . S
C404 C405 1.502 . S
C404 C406 1.561 . S
C404 C407 1.526 . S
C405 H389 0.959 . S
C405 H390 0.959 . S
C405 H391 0.961 . S
C405 C404 1.502 . S
C406 H392 0.960 . S
C406 H393 0.961 . S
C406 H394 0.959 . S
C406 C404 1.561 . S
C407 C404 1.526 . S
C407 C408 1.396 . S
C407 C412 1.390 . S
C408 C402 1.465 . S
C408 C407 1.396 . S
C408 C409 1.399 . S
C409 H395 0.929 . S
C409 C408 1.399 . S
C409 C410 1.385 . S
C410 H396 0.931 . S
C410 C409 1.385 . S
C410 C411 1.389 . S
C411 C410 1.389 . S
C411 C412 1.387 . S
C412 H397 0.930 . S
C412 C407 1.390 . S
C412 C411 1.387 . S
H413 C425 0.930 . S
H414 C427 0.930 . S
H415 C428 0.930 . S
H416 C432 0.959 . S
H417 C432 0.959 . S
H418 C432 0.961 . S
H419 C433 0.960 . S
H420 C433 0.961 . S
H421 C433 0.959 . S
H422 C436 0.929 . S
H423 C437 0.931 . S
H424 C439 0.930 . S
C425 H413 0.930 . S
C425 C426 1.399 . S
C425 C430 1.399 . S
C426 C425 1.399 . S
C426 C427 1.376 . S
C427 H414 0.930 . S
C427 C426 1.376 . S
C427 C428 1.388 . S
C428 H415 0.930 . S
C428 C427 1.388 . S
C428 C429 1.390 . S
C429 C428 1.390 . S
C429 C430 1.394 . S
C429 C435 1.465 . S
C430 C425 1.399 . S
C430 C429 1.394 . S
C430 C431 1.516 . S
C431 C430 1.516 . S
C431 C432 1.502 . S
C431 C433 1.561 . S
C431 C434 1.526 . S
C432 H416 0.959 . S
C432 H417 0.959 . S
C432 H418 0.961 . S
C432 C431 1.502 . S
C433 H419 0.960 . S
C433 H420 0.961 . S
C433 H421 0.959 . S
C433 C431 1.561 . S
C434 C431 1.526 . S
C434 C435 1.396 . S
C434 C439 1.390 . S
C435 C429 1.465 . S
C435 C434 1.396 . S
C435 C436 1.399 . S
C436 H422 0.929 . S
C436 C435 1.399 . S
C436 C437 1.385 . S
C437 H423 0.931 . S
C437 C436 1.385 . S
C437 C438 1.389 . S
C438 C437 1.389 . S
C438 C439 1.387 . S
C439 H424 0.930 . S
C439 C434 1.390 . S
C439 C438 1.387 . S
H440 C452 0.930 . S
H441 C454 0.930 . S
H442 C455 0.930 . S
H443 C459 0.959 . S
H444 C459 0.959 . S
H445 C459 0.961 . S
H446 C460 0.960 . S
H447 C460 0.961 . S
H448 C460 0.959 . S
H449 C463 0.929 . S
H450 C464 0.931 . S
H451 C466 0.930 . S
C452 H440 0.930 . S
C452 C453 1.399 . S
C452 C457 1.399 . S
C453 C452 1.399 . S
C453 C454 1.376 . S
C454 H441 0.930 . S
C454 C453 1.376 . S
C454 C455 1.388 . S
C455 H442 0.930 . S
C455 C454 1.388 . S
C455 C456 1.390 . S
C456 C455 1.390 . S
C456 C457 1.394 . S
C456 C462 1.465 . S
C457 C452 1.399 . S
C457 C456 1.394 . S
C457 C458 1.516 . S
C458 C457 1.516 . S
C458 C459 1.502 . S
C458 C460 1.561 . S
C458 C461 1.526 . S
C459 H443 0.959 . S
C459 H444 0.959 . S
C459 H445 0.961 . S
C459 C458 1.502 . S
C460 H446 0.960 . S
C460 H447 0.961 . S
C460 H448 0.959 . S
C460 C458 1.561 . S
C461 C458 1.526 . S
C461 C462 1.396 . S
C461 C466 1.390 . S
C462 C456 1.465 . S
C462 C461 1.396 . S
C462 C463 1.399 . S
C463 H449 0.929 . S
C463 C462 1.399 . S
C463 C464 1.385 . S
C464 H450 0.931 . S
C464 C463 1.385 . S
C464 C465 1.389 . S
C465 C464 1.389 . S
C465 C466 1.387 . S
C466 H451 0.930 . S
C466 C461 1.390 . S
C466 C465 1.387 . S
H467 C479 0.930 1_455 S
H468 C481 0.930 . S
H469 C482 0.930 . S
H470 C486 0.959 . S
H471 C486 0.959 . S
H472 C486 0.961 . S
H473 C487 0.960 . S
H474 C487 0.961 . S
H475 C487 0.959 . S
H476 C490 0.929 . S
H477 C491 0.931 . S
H478 C493 0.930 1_455 S
C479 H467 0.930 1_655 S
C479 C480 1.399 1_565 S
C479 C484 1.399 . S
C480 C479 1.399 1_545 S
C480 C481 1.376 . S
C481 H468 0.930 . S
C481 C480 1.376 . S
C481 C482 1.388 . S
C482 H469 0.930 . S
C482 C481 1.388 . S
C482 C483 1.390 . S
C483 C482 1.390 . S
C483 C484 1.394 1_545 S
C483 C489 1.465 . S
C484 C479 1.399 . S
C484 C483 1.394 1_565 S
C484 C485 1.516 . S
C485 C484 1.516 . S
C485 C486 1.502 1_655 S
C485 C487 1.561 . S
C485 C488 1.526 . S
C486 H470 0.959 . S
C486 H471 0.959 . S
C486 H472 0.961 . S
C486 C485 1.502 1_455 S
C487 H473 0.960 . S
C487 H474 0.961 . S
C487 H475 0.959 . S
C487 C485 1.561 . S
C488 C485 1.526 . S
C488 C489 1.396 1_565 S
C488 C493 1.390 . S
C489 C483 1.465 . S
C489 C488 1.396 1_545 S
C489 C490 1.399 . S
C490 H476 0.929 . S
C490 C489 1.399 . S
C490 C491 1.385 . S
C491 H477 0.931 . S
C491 C490 1.385 . S
C491 C492 1.389 1_545 S
C492 C491 1.389 1_565 S
C492 C493 1.387 . S
C493 H478 0.930 1_655 S
C493 C488 1.390 . S
C493 C492 1.387 . S
H494 C506 0.930 . S
H495 C508 0.930 . S
H496 C509 0.930 . S
H497 C513 0.959 . S
H498 C513 0.959 1_554 S
H499 C513 0.961 . S
H500 C514 0.960 . S
H501 C514 0.961 1_554 S
H502 C514 0.959 . S
H503 C517 0.929 . S
H504 C518 0.931 . S
H505 C520 0.930 . S
C506 H494 0.930 . S
C506 C507 1.399 . S
C506 C511 1.399 . S
C507 C506 1.399 . S
C507 C508 1.376 . S
C508 H495 0.930 . S
C508 C507 1.376 . S
C508 C509 1.388 . S
C509 H496 0.930 . S
C509 C508 1.388 . S
C509 C510 1.390 . S
C510 C509 1.390 . S
C510 C511 1.394 . S
C510 C516 1.465 1_556 S
C511 C506 1.399 . S
C511 C510 1.394 . S
C511 C512 1.516 . S
C512 C511 1.516 . S
C512 C513 1.502 . S
C512 C514 1.561 . S
C512 C515 1.526 1_556 S
C513 H497 0.959 . S
C513 H498 0.959 1_556 S
C513 H499 0.961 . S
C513 C512 1.502 . S
C514 H500 0.960 . S
C514 H501 0.961 1_556 S
C514 H502 0.959 . S
C514 C512 1.561 . S
C515 C512 1.526 1_554 S
C515 C516 1.396 . S
C515 C520 1.390 . S
C516 C510 1.465 1_554 S
C516 C515 1.396 . S
C516 C517 1.399 . S
C517 H503 0.929 . S
C517 C516 1.399 . S
C517 C518 1.385 . S
C518 H504 0.931 . S
C518 C517 1.385 . S
C518 C519 1.389 . S
C519 C518 1.389 . S
C519 C520 1.387 . S
C520 H505 0.930 . S
C520 C515 1.390 . S
C520 C519 1.387 . S
H521 C533 0.930 . S
H522 C535 0.930 . S
H523 C536 0.930 . S
H524 C540 0.959 . S
H525 C540 0.959 1_545 S
H526 C540 0.961 1_545 S
H527 C541 0.960 . S
H528 C541 0.961 . S
H529 C541 0.959 . S
H530 C544 0.929 . S
H531 C545 0.931 . S
H532 C547 0.930 . S
C533 H521 0.930 . S
C533 C534 1.399 . S
C533 C538 1.399 . S
C534 C533 1.399 . S
C534 C535 1.376 . S
C535 H522 0.930 . S
C535 C534 1.376 . S
C535 C536 1.388 . S
C536 H523 0.930 . S
C536 C535 1.388 . S
C536 C537 1.390 . S
C537 C536 1.390 . S
C537 C538 1.394 . S
C537 C543 1.465 . S
C538 C533 1.399 . S
C538 C537 1.394 . S
C538 C539 1.516 . S
C539 C538 1.516 . S
C539 C540 1.502 . S
C539 C541 1.561 1_565 S
C539 C542 1.526 . S
C540 H524 0.959 . S
C540 H525 0.959 1_565 S
C540 H526 0.961 1_565 S
C540 C539 1.502 . S
C541 H527 0.960 . S
C541 H528 0.961 . S
C541 H529 0.959 . S
C541 C539 1.561 1_545 S
C542 C539 1.526 . S
C542 C543 1.396 . S
C542 C547 1.390 . S
C543 C537 1.465 . S
C543 C542 1.396 . S
C543 C544 1.399 . S
C544 H530 0.929 . S
C544 C543 1.399 . S
C544 C545 1.385 . S
C545 H531 0.931 . S
C545 C544 1.385 . S
C545 C546 1.389 . S
C546 C545 1.389 . S
C546 C547 1.387 . S
C547 H532 0.930 . S
C547 C542 1.390 . S
C547 C546 1.387 . S
H548 C560 0.930 . S
H549 C562 0.930 . S
H550 C563 0.930 . S
H551 C567 0.959 . S
H552 C567 0.959 . S
H553 C567 0.961 . S
H554 C568 0.960 . S
H555 C568 0.961 . S
H556 C568 0.959 . S
H557 C571 0.929 . S
H558 C572 0.931 . S
H559 C574 0.930 . S
C560 H548 0.930 . S
C560 C561 1.399 . S
C560 C565 1.399 . S
C561 C560 1.399 . S
C561 C562 1.376 . S
C562 H549 0.930 . S
C562 C561 1.376 . S
C562 C563 1.388 . S
C563 H550 0.930 . S
C563 C562 1.388 . S
C563 C564 1.390 . S
C564 C563 1.390 . S
C564 C565 1.394 . S
C564 C570 1.465 . S
C565 C560 1.399 . S
C565 C564 1.394 . S
C565 C566 1.516 . S
C566 C565 1.516 . S
C566 C567 1.502 . S
C566 C568 1.561 . S
C566 C569 1.526 . S
C567 H551 0.959 . S
C567 H552 0.959 . S
C567 H553 0.961 . S
C567 C566 1.502 . S
C568 H554 0.960 . S
C568 H555 0.961 . S
C568 H556 0.959 . S
C568 C566 1.561 . S
C569 C566 1.526 . S
C569 C570 1.396 . S
C569 C574 1.390 . S
C570 C564 1.465 . S
C570 C569 1.396 . S
C570 C571 1.399 . S
C571 H557 0.929 . S
C571 C570 1.399 . S
C571 C572 1.385 . S
C572 H558 0.931 . S
C572 C571 1.385 . S
C572 C573 1.389 . S
C573 C572 1.389 . S
C573 C574 1.387 . S
C574 H559 0.930 . S
C574 C569 1.390 . S
C574 C573 1.387 . S
H575 C587 0.930 . S
H576 C589 0.930 . S
H577 C590 0.930 . S
H578 C594 0.959 . S
H579 C594 0.959 . S
H580 C594 0.961 . S
H581 C595 0.960 . S
H582 C595 0.961 . S
H583 C595 0.959 . S
H584 C598 0.929 . S
H585 C599 0.931 . S
H586 C601 0.930 . S
C587 H575 0.930 . S
C587 C588 1.399 . S
C587 C592 1.399 . S
C588 C587 1.399 . S
C588 C589 1.376 1_455 S
C589 H576 0.930 . S
C589 C588 1.376 1_655 S
C589 C590 1.388 . S
C590 H577 0.930 . S
C590 C589 1.388 . S
C590 C591 1.390 . S
C591 C590 1.390 . S
C591 C592 1.394 1_655 S
C591 C597 1.465 . S
C592 C587 1.399 . S
C592 C591 1.394 1_455 S
C592 C593 1.516 . S
C593 C592 1.516 . S
C593 C594 1.502 . S
C593 C595 1.561 1_455 S
C593 C596 1.526 . S
C594 H578 0.959 . S
C594 H579 0.959 . S
C594 H580 0.961 . S
C594 C593 1.502 . S
C595 H581 0.960 . S
C595 H582 0.961 . S
C595 H583 0.959 . S
C595 C593 1.561 1_655 S
C596 C593 1.526 . S
C596 C597 1.396 1_455 S
C596 C601 1.390 . S
C597 C591 1.465 . S
C597 C596 1.396 1_655 S
C597 C598 1.399 . S
C598 H584 0.929 . S
C598 C597 1.399 . S
C598 C599 1.385 . S
C599 H585 0.931 . S
C599 C598 1.385 . S
C599 C600 1.391 . S
C600 C599 1.391 . S
C600 C601 1.386 1_655 S
C601 H586 0.930 . S
C601 C596 1.390 . S
C601 C600 1.386 1_455 S
H602 C614 0.930 . S
H603 C616 0.930 . S
H604 C617 0.930 . S
H605 C621 0.959 . S
H606 C621 0.959 . S
H607 C621 0.961 . S
H608 C622 0.960 . S
H609 C622 0.961 . S
H610 C622 0.959 . S
H611 C625 0.929 . S
H612 C626 0.931 . S
H613 C628 0.930 . S
C614 H602 0.930 . S
C614 C615 1.399 . S
C614 C619 1.399 . S
C615 C614 1.399 . S
C615 C616 1.376 . S
C616 H603 0.930 . S
C616 C615 1.376 . S
C616 C617 1.388 . S
C617 H604 0.930 . S
C617 C616 1.388 . S
C617 C618 1.390 . S
C618 C617 1.390 . S
C618 C619 1.394 . S
C618 C624 1.465 1_655 S
C619 C614 1.399 . S
C619 C618 1.394 . S
C619 C620 1.516 1_655 S
C620 C619 1.516 1_455 S
C620 C621 1.502 . S
C620 C622 1.561 . S
C620 C623 1.526 . S
C621 H605 0.959 . S
C621 H606 0.959 . S
C621 H607 0.961 . S
C621 C620 1.502 . S
C622 H608 0.960 . S
C622 H609 0.961 . S
C622 H610 0.959 . S
C622 C620 1.561 . S
C623 C620 1.526 . S
C623 C624 1.396 . S
C623 C628 1.390 . S
C624 C618 1.465 1_455 S
C624 C623 1.396 . S
C624 C625 1.399 . S
C625 H611 0.929 . S
C625 C624 1.399 . S
C625 C626 1.385 . S
C626 H612 0.931 . S
C626 C625 1.385 . S
C626 C627 1.389 . S
C627 C626 1.389 . S
C627 C628 1.387 . S
C628 H613 0.930 . S
C628 C623 1.390 . S
C628 C627 1.387 . S
H629 C641 0.930 . S
H630 C643 0.930 . S
H631 C644 0.930 . S
H632 C648 0.959 . S
H633 C648 0.959 . S
H634 C648 0.961 . S
H635 C649 0.960 . S
H636 C649 0.961 . S
H637 C649 0.959 . S
H638 C652 0.929 . S
H639 C653 0.931 . S
H640 C655 0.930 . S
C641 H629 0.930 . S
C641 C642 1.399 1_554 S
C641 C646 1.399 . S
C642 C641 1.399 1_556 S
C642 C643 1.376 . S
C643 H630 0.930 . S
C643 C642 1.376 . S
C643 C644 1.388 . S
C644 H631 0.930 . S
C644 C643 1.388 . S
C644 C645 1.390 . S
C645 C644 1.390 . S
C645 C646 1.394 1_556 S
C645 C651 1.465 . S
C646 C641 1.399 . S
C646 C645 1.394 1_554 S
C646 C647 1.516 . S
C647 C646 1.516 . S
C647 C648 1.502 . S
C647 C649 1.561 . S
C647 C650 1.526 . S
C648 H632 0.959 . S
C648 H633 0.959 . S
C648 H634 0.961 . S
C648 C647 1.502 . S
C649 H635 0.960 . S
C649 H636 0.961 . S
C649 H637 0.959 . S
C649 C647 1.561 . S
C650 C647 1.526 . S
C650 C651 1.396 1_554 S
C650 C655 1.390 . S
C651 C645 1.465 . S
C651 C650 1.396 1_556 S
C651 C652 1.399 . S
C652 H638 0.929 . S
C652 C651 1.399 . S
C652 C653 1.385 . S
C653 H639 0.931 . S
C653 C652 1.385 . S
C653 C654 1.389 . S
C654 C653 1.389 . S
C654 C655 1.387 1_556 S
C655 H640 0.930 . S
C655 C650 1.390 . S
C655 C654 1.387 1_554 S
H656 C668 0.930 . S
H657 C670 0.930 . S
H658 C671 0.930 . S
H659 C675 0.959 . S
H660 C675 0.959 . S
H661 C675 0.961 . S
H662 C676 0.960 . S
H663 C676 0.961 . S
H664 C676 0.959 . S
H665 C679 0.929 . S
H666 C680 0.931 . S
H667 C682 0.930 . S
C668 H656 0.930 . S
C668 C669 1.399 . S
C668 C673 1.399 . S
C669 C668 1.399 . S
C669 C670 1.376 . S
C670 H657 0.930 . S
C670 C669 1.376 . S
C670 C671 1.388 . S
C671 H658 0.930 . S
C671 C670 1.388 . S
C671 C672 1.390 . S
C672 C671 1.390 . S
C672 C673 1.394 . S
C672 C678 1.465 . S
C673 C668 1.399 . S
C673 C672 1.394 . S
C673 C674 1.516 . S
C674 C673 1.516 . S
C674 C675 1.502 . S
C674 C676 1.561 . S
C674 C677 1.526 . S
C675 H659 0.959 . S
C675 H660 0.959 . S
C675 H661 0.961 . S
C675 C674 1.502 . S
C676 H662 0.960 . S
C676 H663 0.961 . S
C676 H664 0.959 . S
C676 C674 1.561 . S
C677 C674 1.526 . S
C677 C678 1.396 . S
C677 C682 1.390 . S
C678 C672 1.465 . S
C678 C677 1.396 . S
C678 C679 1.399 . S
C679 H665 0.929 . S
C679 C678 1.399 . S
C679 C680 1.385 . S
C680 H666 0.931 . S
C680 C679 1.385 . S
C680 C681 1.389 . S
C681 C680 1.389 . S
C681 C682 1.387 . S
C682 H667 0.930 . S
C682 C677 1.390 . S
C682 C681 1.387 . S
H683 C695 0.930 . S
H684 C697 0.930 . S
H685 C698 0.930 . S
H686 C702 0.959 . S
H687 C702 0.959 . S
H688 C702 0.961 . S
H689 C703 0.960 . S
H690 C703 0.961 . S
H691 C703 0.959 . S
H692 C706 0.929 . S
H693 C707 0.931 . S
H694 C709 0.930 . S
C695 H683 0.930 . S
C695 C696 1.399 . S
C695 C700 1.399 . S
C696 C695 1.399 . S
C696 C697 1.376 . S
C697 H684 0.930 . S
C697 C696 1.376 . S
C697 C698 1.388 . S
C698 H685 0.930 . S
C698 C697 1.388 . S
C698 C699 1.390 . S
C699 C698 1.390 . S
C699 C700 1.394 . S
C699 C705 1.465 . S
C700 C695 1.399 . S
C700 C699 1.394 . S
C700 C701 1.516 . S
C701 C700 1.516 . S
C701 C702 1.502 . S
C701 C703 1.561 . S
C701 C704 1.526 . S
C702 H686 0.959 . S
C702 H687 0.959 . S
C702 H688 0.961 . S
C702 C701 1.502 . S
C703 H689 0.960 . S
C703 H690 0.961 . S
C703 H691 0.959 . S
C703 C701 1.561 . S
C704 C701 1.526 . S
C704 C705 1.396 . S
C704 C709 1.390 . S
C705 C699 1.465 . S
C705 C704 1.396 . S
C705 C706 1.399 . S
C706 H692 0.929 . S
C706 C705 1.399 . S
C706 C707 1.385 . S
C707 H693 0.931 . S
C707 C706 1.385 . S
C707 C708 1.389 . S
C708 C707 1.389 . S
C708 C709 1.387 . S
C709 H694 0.930 . S
C709 C704 1.390 . S
C709 C708 1.387 . S
H710 C722 0.930 . S
H711 C724 0.930 . S
H712 C725 0.930 . S
H713 C729 0.959 . S
H714 C729 0.959 . S
H715 C729 0.961 . S
H716 C730 0.960 . S
H717 C730 0.961 . S
H718 C730 0.959 . S
H719 C733 0.929 . S
H720 C734 0.931 . S
H721 C736 0.930 . S
C722 H710 0.930 . S
C722 C723 1.399 . S
C722 C727 1.399 . S
C723 C722 1.399 . S
C723 C724 1.376 . S
C724 H711 0.930 . S
C724 C723 1.376 . S
C724 C725 1.388 . S
C725 H712 0.930 . S
C725 C724 1.388 . S
C725 C726 1.390 . S
C726 C725 1.390 . S
C726 C727 1.394 . S
C726 C732 1.465 . S
C727 C722 1.399 . S
C727 C726 1.394 . S
C727 C728 1.516 . S
C728 C727 1.516 . S
C728 C729 1.502 . S
C728 C730 1.561 . S
C728 C731 1.526 . S
C729 H713 0.959 . S
C729 H714 0.959 . S
C729 H715 0.961 . S
C729 C728 1.502 . S
C730 H716 0.960 . S
C730 H717 0.961 . S
C730 H718 0.959 . S
C730 C728 1.561 . S
C731 C728 1.526 . S
C731 C732 1.396 . S
C731 C736 1.390 1_455 S
C732 C726 1.465 . S
C732 C731 1.396 . S
C732 C733 1.399 . S
C733 H719 0.929 . S
C733 C732 1.399 . S
C733 C734 1.385 1_455 S
C734 H720 0.931 . S
C734 C733 1.385 1_655 S
C734 C735 1.389 . S
C735 C734 1.389 . S
C735 C736 1.387 . S
C736 H721 0.930 . S
C736 C731 1.390 1_655 S
C736 C735 1.387 . S
H737 C749 0.930 1_455 S
H738 C751 0.930 . S
H739 C752 0.930 . S
H740 C756 0.959 . S
H741 C756 0.959 . S
H742 C756 0.961 . S
H743 C757 0.960 . S
H744 C757 0.961 . S
H745 C757 0.959 . S
H746 C760 0.929 . S
H747 C761 0.931 . S
H748 C763 0.930 1_455 S
C749 H737 0.930 1_655 S
C749 C750 1.399 1_554 S
C749 C754 1.399 . S
C750 C749 1.399 1_556 S
C750 C751 1.376 . S
C751 H738 0.930 . S
C751 C750 1.376 . S
C751 C752 1.388 . S
C752 H739 0.930 . S
C752 C751 1.388 . S
C752 C753 1.390 . S
C753 C752 1.390 . S
C753 C754 1.394 1_556 S
C753 C759 1.465 . S
C754 C749 1.399 . S
C754 C753 1.394 1_554 S
C754 C755 1.516 . S
C755 C754 1.516 . S
C755 C756 1.502 1_655 S
C755 C757 1.561 . S
C755 C758 1.526 . S
C756 H740 0.959 . S
C756 H741 0.959 . S
C756 H742 0.961 . S
C756 C755 1.502 1_455 S
C757 H743 0.960 . S
C757 H744 0.961 . S
C757 H745 0.959 . S
C757 C755 1.561 . S
C758 C755 1.526 . S
C758 C759 1.396 1_554 S
C758 C763 1.390 . S
C759 C753 1.465 . S
C759 C758 1.396 1_556 S
C759 C760 1.399 . S
C760 H746 0.929 . S
C760 C759 1.399 . S
C760 C761 1.385 . S
C761 H747 0.931 . S
C761 C760 1.385 . S
C761 C762 1.389 1_556 S
C762 C761 1.389 1_554 S
C762 C763 1.387 . S
C763 H748 0.930 1_655 S
C763 C758 1.390 . S
C763 C762 1.387 . S
H764 C776 0.930 . S
H765 C778 0.930 . S
H766 C779 0.930 . S
H767 C783 0.959 . S
H768 C783 0.959 . S
H769 C783 0.961 . S
H770 C784 0.960 . S
H771 C784 0.961 . S
H772 C784 0.959 . S
H773 C787 0.929 . S
H774 C788 0.931 . S
H775 C790 0.930 . S
C776 H764 0.930 . S
C776 C777 1.399 . S
C776 C781 1.399 . S
C777 C776 1.399 . S
C777 C778 1.376 . S
C778 H765 0.930 . S
C778 C777 1.376 . S
C778 C779 1.388 . S
C779 H766 0.930 . S
C779 C778 1.388 . S
C779 C780 1.390 . S
C780 C779 1.390 . S
C780 C781 1.394 . S
C780 C786 1.465 . S
C781 C776 1.399 . S
C781 C780 1.394 . S
C781 C782 1.516 . S
C782 C781 1.516 . S
C782 C783 1.502 . S
C782 C784 1.561 . S
C782 C785 1.526 . S
C783 H767 0.959 . S
C783 H768 0.959 . S
C783 H769 0.961 . S
C783 C782 1.502 . S
C784 H770 0.960 . S
C784 H771 0.961 . S
C784 H772 0.959 . S
C784 C782 1.561 . S
C785 C782 1.526 . S
C785 C786 1.396 . S
C785 C790 1.390 . S
C786 C780 1.465 . S
C786 C785 1.396 . S
C786 C787 1.399 . S
C787 H773 0.929 . S
C787 C786 1.399 . S
C787 C788 1.385 . S
C788 H774 0.931 . S
C788 C787 1.385 . S
C788 C789 1.389 . S
C789 C788 1.389 . S
C789 C790 1.387 . S
C790 H775 0.930 . S
C790 C785 1.390 . S
C790 C789 1.387 . S
H791 C803 0.930 . S
H792 C805 0.930 . S
H793 C806 0.930 . S
H794 C810 0.959 . S
H795 C810 0.959 . S
H796 C810 0.961 . S
H797 C811 0.960 . S
H798 C811 0.961 . S
H799 C811 0.959 . S
H800 C814 0.929 . S
H801 C815 0.931 . S
H802 C817 0.930 . S
C803 H791 0.930 . S
C803 C804 1.399 . S
C803 C808 1.399 . S
C804 C803 1.399 . S
C804 C805 1.376 . S
C805 H792 0.930 . S
C805 C804 1.376 . S
C805 C806 1.388 . S
C806 H793 0.930 . S
C806 C805 1.388 . S
C806 C807 1.390 . S
C807 C806 1.390 . S
C807 C808 1.394 . S
C807 C813 1.465 . S
C808 C803 1.399 . S
C808 C807 1.394 . S
C808 C809 1.516 . S
C809 C808 1.516 . S
C809 C810 1.502 . S
C809 C811 1.561 . S
C809 C812 1.526 . S
C810 H794 0.959 . S
C810 H795 0.959 . S
C810 H796 0.961 . S
C810 C809 1.502 . S
C811 H797 0.960 . S
C811 H798 0.961 . S
C811 H799 0.959 . S
C811 C809 1.561 . S
C812 C809 1.526 . S
C812 C813 1.396 . S
C812 C817 1.390 1_545 S
C813 C807 1.465 . S
C813 C812 1.396 . S
C813 C814 1.399 1_545 S
C814 H800 0.929 . S
C814 C813 1.399 1_565 S
C814 C815 1.385 . S
C815 H801 0.931 . S
C815 C814 1.385 . S
C815 C816 1.389 . S
C816 C815 1.389 . S
C816 C817 1.387 . S
C817 H802 0.930 . S
C817 C812 1.390 1_565 S
C817 C816 1.387 . S
H818 C830 0.930 . S
H819 C832 0.930 . S
H820 C833 0.930 . S
H821 C837 0.959 . S
H822 C837 0.959 . S
H823 C837 0.961 . S
H824 C838 0.960 . S
H825 C838 0.961 . S
H826 C838 0.959 1_554 S
H827 C841 0.929 . S
H828 C842 0.931 . S
H829 C844 0.930 . S
C830 H818 0.930 . S
C830 C831 1.399 1_556 S
C830 C835 1.399 . S
C831 C830 1.399 1_554 S
C831 C832 1.376 . S
C832 H819 0.930 . S
C832 C831 1.376 . S
C832 C833 1.388 . S
C833 H820 0.930 . S
C833 C832 1.388 . S
C833 C834 1.390 . S
C834 C833 1.390 . S
C834 C835 1.394 1_554 S
C834 C840 1.465 . S
C835 C830 1.399 . S
C835 C834 1.394 1_556 S
C835 C836 1.516 . S
C836 C835 1.516 . S
C836 C837 1.502 . S
C836 C838 1.561 . S
C836 C839 1.526 . S
C837 H821 0.959 . S
C837 H822 0.959 . S
C837 H823 0.961 . S
C837 C836 1.502 . S
C838 H824 0.960 . S
C838 H825 0.961 . S
C838 H826 0.959 1_556 S
C838 C836 1.561 . S
C839 C836 1.526 . S
C839 C840 1.396 1_556 S
C839 C844 1.390 . S
C840 C834 1.465 . S
C840 C839 1.396 1_554 S
C840 C841 1.399 . S
C841 H827 0.929 . S
C841 C840 1.399 . S
C841 C842 1.385 . S
C842 H828 0.931 . S
C842 C841 1.385 . S
C842 C843 1.389 1_554 S
C843 C842 1.389 1_556 S
C843 C844 1.387 . S
C844 H829 0.930 . S
C844 C839 1.390 . S
C844 C843 1.387 . S
H845 C857 0.930 . S
H846 C859 0.930 . S
H847 C860 0.930 . S
H848 C864 0.959 . S
H849 C864 0.959 . S
H850 C864 0.961 . S
H851 C865 0.960 1_545 S
H852 C865 0.961 . S
H853 C865 0.959 . S
H854 C868 0.929 . S
H855 C869 0.931 . S
H856 C871 0.930 . S
C857 H845 0.930 . S
C857 C858 1.399 . S
C857 C862 1.399 . S
C858 C857 1.399 . S
C858 C859 1.376 . S
C859 H846 0.930 . S
C859 C858 1.376 . S
C859 C860 1.388 . S
C860 H847 0.930 . S
C860 C859 1.388 . S
C860 C861 1.390 . S
C861 C860 1.390 . S
C861 C862 1.394 . S
C861 C867 1.465 1_545 S
C862 C857 1.399 . S
C862 C861 1.394 . S
C862 C863 1.516 1_545 S
C863 C862 1.516 1_565 S
C863 C864 1.502 . S
C863 C865 1.561 . S
C863 C866 1.526 . S
C864 H848 0.959 . S
C864 H849 0.959 . S
C864 H850 0.961 . S
C864 C863 1.502 . S
C865 H851 0.960 1_565 S
C865 H852 0.961 . S
C865 H853 0.959 . S
C865 C863 1.561 . S
C866 C863 1.526 . S
C866 C867 1.396 . S
C866 C871 1.390 . S
C867 C861 1.465 1_565 S
C867 C866 1.396 . S
C867 C868 1.399 . S
C868 H854 0.929 . S
C868 C867 1.399 . S
C868 C869 1.385 . S
C869 H855 0.931 . S
C869 C868 1.385 . S
C869 C870 1.389 . S
C870 C869 1.389 . S
C870 C871 1.387 . S
C871 H856 0.930 . S
C871 C866 1.390 . S
C871 C870 1.387 . S
H872 C884 0.930 . S
H873 C886 0.930 1_545 S
H874 C887 0.930 1_545 S
H875 C891 0.959 . S
H876 C891 0.959 . S
H877 C891 0.961 . S
H878 C892 0.962 . S
H879 C892 0.965 . S
H880 C892 0.972 . S
H881 C895 0.929 1_545 S
H882 C896 0.931 1_545 S
H883 C898 0.930 . S
C884 H872 0.930 . S
C884 C885 1.399 . S
C884 C889 1.399 . S
C885 C884 1.399 . S
C885 C886 1.376 . S
C886 H873 0.930 1_565 S
C886 C885 1.376 . S
C886 C887 1.388 . S
C887 H874 0.930 1_565 S
C887 C886 1.388 . S
C887 C888 1.390 . S
C888 C887 1.390 . S
C888 C889 1.394 . S
C888 C894 1.465 . S
C889 C884 1.399 . S
C889 C888 1.394 . S
C889 C890 1.516 . S
C890 C889 1.516 . S
C890 C891 1.502 . S
C890 C892 1.543 1_556 S
C890 C893 1.526 . S
C891 H875 0.959 . S
C891 H876 0.959 . S
C891 H877 0.961 . S
C891 C890 1.502 . S
C892 H878 0.962 . S
C892 H879 0.965 . S
C892 H880 0.972 . S
C892 C890 1.543 1_554 S
C893 C890 1.526 . S
C893 C894 1.396 . S
C893 C898 1.390 . S
C894 C888 1.465 . S
C894 C893 1.396 . S
C894 C895 1.399 . S
C895 H881 0.929 1_565 S
C895 C894 1.399 . S
C895 C896 1.385 . S
C896 H882 0.931 1_565 S
C896 C895 1.385 . S
C896 C897 1.389 . S
C897 C896 1.389 . S
C897 C898 1.387 . S
C898 H883 0.930 . S
C898 C893 1.390 . S
C898 C897 1.387 . S
H899 C911 0.930 . S
H900 C913 0.930 . S
H901 C914 0.930 . S
H902 C918 0.959 . S
H903 C918 0.959 . S
H904 C918 0.961 . S
H905 C919 0.960 . S
H906 C919 0.961 . S
H907 C919 0.959 . S
H908 C922 0.929 . S
H909 C923 0.931 . S
H910 C925 0.930 . S
C911 H899 0.930 . S
C911 C912 1.399 . S
C911 C916 1.399 . S
C912 C911 1.399 . S
C912 C913 1.376 . S
C913 H900 0.930 . S
C913 C912 1.376 . S
C913 C914 1.388 . S
C914 H901 0.930 . S
C914 C913 1.388 . S
C914 C915 1.390 . S
C915 C914 1.390 . S
C915 C916 1.394 . S
C915 C921 1.465 . S
C916 C911 1.399 . S
C916 C915 1.394 . S
C916 C917 1.516 . S
C917 C916 1.516 . S
C917 C918 1.502 . S
C917 C919 1.561 . S
C917 C920 1.526 . S
C918 H902 0.959 . S
C918 H903 0.959 . S
C918 H904 0.961 . S
C918 C917 1.502 . S
C919 H905 0.960 . S
C919 H906 0.961 . S
C919 H907 0.959 . S
C919 C917 1.561 . S
C920 C917 1.526 . S
C920 C921 1.396 . S
C920 C925 1.390 . S
C921 C915 1.465 . S
C921 C920 1.396 . S
C921 C922 1.399 . S
C922 H908 0.929 . S
C922 C921 1.399 . S
C922 C923 1.385 . S
C923 H909 0.931 . S
C923 C922 1.385 . S
C923 C924 1.389 . S
C924 C923 1.389 . S
C924 C925 1.387 . S
C925 H910 0.930 . S
C925 C920 1.390 . S
C925 C924 1.387 . S
H926 C938 0.930 . S
H927 C940 0.930 . S
H928 C941 0.930 . S
H929 C945 0.959 . S
H930 C945 0.959 . S
H931 C945 0.961 . S
H932 C946 0.960 . S
H933 C946 0.961 . S
H934 C946 0.959 . S
H935 C949 0.929 . S
H936 C950 0.931 . S
H937 C952 0.930 . S
C938 H926 0.930 . S
C938 C939 1.399 . S
C938 C943 1.399 . S
C939 C938 1.399 . S
C939 C940 1.376 . S
C940 H927 0.930 . S
C940 C939 1.376 . S
C940 C941 1.388 . S
C941 H928 0.930 . S
C941 C940 1.388 . S
C941 C942 1.390 . S
C942 C941 1.390 . S
C942 C943 1.394 . S
C942 C948 1.465 . S
C943 C938 1.399 . S
C943 C942 1.394 . S
C943 C944 1.516 . S
C944 C943 1.516 . S
C944 C945 1.502 . S
C944 C946 1.561 . S
C944 C947 1.526 . S
C945 H929 0.959 . S
C945 H930 0.959 . S
C945 H931 0.961 . S
C945 C944 1.502 . S
C946 H932 0.960 . S
C946 H933 0.961 . S
C946 H934 0.959 . S
C946 C944 1.561 . S
C947 C944 1.526 . S
C947 C948 1.396 . S
C947 C952 1.390 . S
C948 C942 1.465 . S
C948 C947 1.396 . S
C948 C949 1.399 . S
C949 H935 0.929 . S
C949 C948 1.399 . S
C949 C950 1.385 . S
C950 H936 0.931 . S
C950 C949 1.385 . S
C950 C951 1.389 . S
C951 C950 1.389 . S
C951 C952 1.387 . S
C952 H937 0.930 . S
C952 C947 1.390 . S
C952 C951 1.387 . S
H953 C965 0.930 . S
H954 C967 0.930 . S
H955 C968 0.930 . S
H956 C972 0.959 . S
H957 C972 0.959 . S
H958 C972 0.961 1_556 S
H959 C973 0.960 . S
H960 C973 0.961 1_554 S
H961 C973 0.959 . S
H962 C976 0.929 . S
H963 C977 0.931 . S
H964 C979 0.930 . S
C965 H953 0.930 . S
C965 C966 1.399 . S
C965 C970 1.399 . S
C966 C965 1.399 . S
C966 C967 1.376 . S
C967 H954 0.930 . S
C967 C966 1.376 . S
C967 C968 1.388 . S
C968 H955 0.930 . S
C968 C967 1.388 . S
C968 C969 1.390 . S
C969 C968 1.390 . S
C969 C970 1.394 . S
C969 C975 1.465 1_556 S
C970 C965 1.399 . S
C970 C969 1.394 . S
C970 C971 1.516 . S
C971 C970 1.516 . S
C971 C972 1.502 1_556 S
C971 C973 1.561 . S
C971 C974 1.526 1_556 S
C972 H956 0.959 . S
C972 H957 0.959 . S
C972 H958 0.961 1_554 S
C972 C971 1.502 1_554 S
C973 H959 0.960 . S
C973 H960 0.961 1_556 S
C973 H961 0.959 . S
C973 C971 1.561 . S
C974 C971 1.526 1_554 S
C974 C975 1.396 . S
C974 C979 1.390 . S
C975 C969 1.465 1_554 S
C975 C974 1.396 . S
C975 C976 1.399 . S
C976 H962 0.929 . S
C976 C975 1.399 . S
C976 C977 1.385 . S
C977 H963 0.931 . S
C977 C976 1.385 . S
C977 C978 1.389 . S
C978 C977 1.389 . S
C978 C979 1.387 . S
C979 H964 0.930 . S
C979 C974 1.390 . S
C979 C978 1.387 . S
H980 C992 0.930 . S
H981 C994 0.930 . S
H982 C995 0.930 . S
H983 C999 0.959 . S
H984 C999 0.959 . S
H985 C999 0.961 . S
H986 C1000 0.960 . S
H987 C1000 0.961 . S
H988 C1000 0.959 . S
H989 C1003 0.929 . S
H990 C1004 0.931 . S
H991 C1006 0.930 . S
C992 H980 0.930 . S
C992 C993 1.399 . S
C992 C997 1.399 . S
C993 C992 1.399 . S
C993 C994 1.376 . S
C994 H981 0.930 . S
C994 C993 1.376 . S
C994 C995 1.388 . S
C995 H982 0.930 . S
C995 C994 1.388 . S
C995 C996 1.390 . S
C996 C995 1.390 . S
C996 C997 1.394 . S
C996 C1002 1.465 . S
C997 C992 1.399 . S
C997 C996 1.394 . S
C997 C998 1.516 . S
C998 C997 1.516 . S
C998 C999 1.502 . S
C998 C1000 1.561 . S
C998 C1001 1.526 . S
C999 H983 0.959 . S
C999 H984 0.959 . S
C999 H985 0.961 . S
C999 C998 1.502 . S
C1000 H986 0.960 . S
C1000 H987 0.961 . S
C1000 H988 0.959 . S
C1000 C998 1.561 . S
C1001 C998 1.526 . S
C1001 C1002 1.396 . S
C1001 C1006 1.390 . S
C1002 C996 1.465 . S
C1002 C1001 1.396 . S
C1002 C1003 1.399 . S
C1003 H989 0.929 . S
C1003 C1002 1.399 . S
C1003 C1004 1.385 . S
C1004 H990 0.931 . S
C1004 C1003 1.385 . S
C1004 C1005 1.389 . S
C1005 C1004 1.389 . S
C1005 C1006 1.387 . S
C1006 H991 0.930 . S
C1006 C1001 1.390 . S
C1006 C1005 1.387 . S
H1007 C1019 0.930 . S
H1008 C1021 0.930 . S
H1009 C1022 0.930 . S
H1010 C1026 0.959 . S
H1011 C1026 0.959 . S
H1012 C1026 0.961 . S
H1013 C1027 0.960 . S
H1014 C1027 0.961 . S
H1015 C1027 0.959 . S
H1016 C1030 0.929 . S
H1017 C1031 0.931 . S
H1018 C1033 0.930 . S
C1019 H1007 0.930 . S
C1019 C1020 1.399 . S
C1019 C1024 1.399 . S
C1020 C1019 1.399 . S
C1020 C1021 1.376 . S
C1021 H1008 0.930 . S
C1021 C1020 1.376 . S
C1021 C1022 1.388 . S
C1022 H1009 0.930 . S
C1022 C1021 1.388 . S
C1022 C1023 1.390 . S
C1023 C1022 1.390 . S
C1023 C1024 1.394 . S
C1023 C1029 1.465 . S
C1024 C1019 1.399 . S
C1024 C1023 1.394 . S
C1024 C1025 1.516 . S
C1025 C1024 1.516 . S
C1025 C1026 1.502 . S
C1025 C1027 1.561 . S
C1025 C1028 1.526 . S
C1026 H1010 0.959 . S
C1026 H1011 0.959 . S
C1026 H1012 0.961 . S
C1026 C1025 1.502 . S
C1027 H1013 0.960 . S
C1027 H1014 0.961 . S
C1027 H1015 0.959 . S
C1027 C1025 1.561 . S
C1028 C1025 1.526 . S
C1028 C1029 1.396 . S
C1028 C1033 1.390 . S
C1029 C1023 1.465 . S
C1029 C1028 1.396 . S
C1029 C1030 1.399 . S
C1030 H1016 0.929 . S
C1030 C1029 1.399 . S
C1030 C1031 1.385 . S
C1031 H1017 0.931 . S
C1031 C1030 1.385 . S
C1031 C1032 1.389 . S
C1032 C1031 1.389 . S
C1032 C1033 1.387 . S
C1033 H1018 0.930 . S
C1033 C1028 1.390 . S
C1033 C1032 1.387 . S
H1034 C1046 0.930 . S
H1035 C1048 0.930 . S
H1036 C1049 0.930 . S
H1037 C1053 0.959 . S
H1038 C1053 0.959 . S
H1039 C1053 0.961 . S
H1040 C1054 0.960 . S
H1041 C1054 0.961 1_655 S
H1042 C1054 0.959 . S
H1043 C1057 0.929 . S
H1044 C1058 0.931 . S
H1045 C1060 0.930 . S
C1046 H1034 0.930 . S
C1046 C1047 1.399 . S
C1046 C1051 1.399 . S
C1047 C1046 1.399 . S
C1047 C1048 1.376 1_655 S
C1048 H1035 0.930 . S
C1048 C1047 1.376 1_455 S
C1048 C1049 1.388 . S
C1049 H1036 0.930 . S
C1049 C1048 1.388 . S
C1049 C1050 1.390 . S
C1050 C1049 1.390 . S
C1050 C1051 1.394 1_455 S
C1050 C1056 1.465 . S
C1051 C1046 1.399 . S
C1051 C1050 1.394 1_655 S
C1051 C1052 1.516 . S
C1052 C1051 1.516 . S
C1052 C1053 1.502 . S
C1052 C1054 1.561 1_655 S
C1052 C1055 1.526 . S
C1053 H1037 0.959 . S
C1053 H1038 0.959 . S
C1053 H1039 0.961 . S
C1053 C1052 1.502 . S
C1054 H1040 0.960 . S
C1054 H1041 0.961 1_455 S
C1054 H1042 0.959 . S
C1054 C1052 1.561 1_455 S
C1055 C1052 1.526 . S
C1055 C1056 1.396 1_655 S
C1055 C1060 1.390 . S
C1056 C1050 1.465 . S
C1056 C1055 1.396 1_455 S
C1056 C1057 1.399 . S
C1057 H1043 0.929 . S
C1057 C1056 1.399 . S
C1057 C1058 1.385 . S
C1058 H1044 0.931 . S
C1058 C1057 1.385 . S
C1058 C1059 1.389 1_455 S
C1059 C1058 1.389 1_655 S
C1059 C1060 1.387 . S
C1060 H1045 0.930 . S
C1060 C1055 1.390 . S
C1060 C1059 1.387 . S
H1061 C1073 0.930 . S
H1062 C1075 0.930 1_565 S
H1063 C1076 0.930 1_565 S
H1064 C1080 0.959 . S
H1065 C1080 0.959 . S
H1066 C1080 0.961 . S
H1067 C1081 0.960 . S
H1068 C1081 0.961 . S
H1069 C1081 0.959 . S
H1070 C1084 0.941 . S
H1071 C1085 0.931 1_565 S
H1072 C1087 0.930 . S
C1073 H1061 0.930 . S
C1073 C1074 1.399 . S
C1073 C1078 1.399 . S
C1074 C1073 1.399 . S
C1074 C1075 1.376 . S
C1075 H1062 0.930 1_545 S
C1075 C1074 1.376 . S
C1075 C1076 1.388 . S
C1076 H1063 0.930 1_545 S
C1076 C1075 1.388 . S
C1076 C1077 1.390 . S
C1077 C1076 1.390 . S
C1077 C1078 1.394 . S
C1077 C1083 1.465 . S
C1078 C1073 1.399 . S
C1078 C1077 1.394 . S
C1078 C1079 1.516 . S
C1079 C1078 1.516 . S
C1079 C1080 1.502 . S
C1079 C1081 1.561 . S
C1079 C1082 1.526 . S
C1080 H1064 0.959 . S
C1080 H1065 0.959 . S
C1080 H1066 0.961 . S
C1080 C1079 1.502 . S
C1081 H1067 0.960 . S
C1081 H1068 0.961 . S
C1081 H1069 0.959 . S
C1081 C1079 1.561 . S
C1082 C1079 1.526 . S
C1082 C1083 1.396 . S
C1082 C1087 1.390 . S
C1083 C1077 1.465 . S
C1083 C1082 1.396 . S
C1083 C1084 1.392 1_545 S
C1084 H1070 0.941 . S
C1084 C1083 1.392 1_565 S
C1084 C1085 1.381 1_565 S
C1085 H1071 0.931 1_545 S
C1085 C1084 1.381 1_545 S
C1085 C1086 1.389 . S
C1086 C1085 1.389 . S
C1086 C1087 1.387 . S
C1087 H1072 0.930 . S
C1087 C1082 1.390 . S
C1087 C1086 1.387 . S
C237 C6 1.710 . S
C249 C104 1.710 . S
C264 C20 1.819 . S
C276 C62 1.844 . S
C291 C76 1.607 . S
C303 C34 1.659 . S
C318 C48 1.880 . S
C330 C90 1.744 . S
C345 C118 1.851 . S
C357 C174 1.819 . S
C372 C132 1.560 . S
C384 C202 1.607 . S
C399 C160 1.881 . S
C411 C146 1.805 . S
C426 C216 1.692 . S
C438 C188 1.735 . S
C453 C9 1.088 . S
C465 C91 0.941 . S
C480 C106 1.675 1_545 S
C492 C22 1.661 . S
C507 C37 1.088 . S
C519 C63 0.958 . S
C534 C78 1.763 . S
C546 C49 1.614 . S
C561 C8 1.354 . S
C573 C204 1.353 . S
C588 C163 0.828 . S
C600 C21 0.849 . S
C615 C190 1.351 . S
C627 C36 1.353 . S
C642 C175 0.862 . S
C654 C51 0.811 1_556 S
C669 C149 1.922 . S
C681 C65 1.895 . S
C696 C77 0.992 . S
C708 C217 0.992 . S
C723 C93 1.929 . S
C735 C121 1.914 . S
C750 C105 0.897 . S
C762 C133 0.839 . S
C777 C7 1.547 . S
C789 C64 1.617 . S
C804 C120 1.596 . S
C816 C189 1.554 . S
C831 C177 1.588 . S
C843 C135 1.613 . S
C858 C203 1.204 . S
C870 C148 1.283 . S
C885 C107 1.552 . S
C897 C50 1.546 . S
C912 C35 1.249 . S
C924 C92 1.289 . S
C939 C162 1.547 . S
C951 C219 1.546 . S
C966 C191 1.093 . S
C978 C147 1.063 . S
C993 C218 1.675 . S
C1005 C176 1.660 . S
C1020 C205 1.103 . S
C1032 C119 1.067 . S
C1047 C161 1.635 1_655 S
C1059 C134 1.746 . S
C1074 C23 1.608 . S
C1086 C79 1.628 . S
