# Generated by pormake.
# Topology zfh, (5)-cn, num edge types: 1
# Building blocks:
#     Node 0, Type 0, BuildingBlock: BEQFEK_clean_sbu_0, # of connection points: 5
#     Node 1, Type 0, BuildingBlock: BEQFEK_clean_sbu_0, # of connection points: 5
#     Node 2, Type 0, BuildingBlock: BEQFEK_clean_sbu_0, # of connection points: 5
#     Node 3, Type 0, BuildingBlock: BEQFEK_clean_sbu_0, # of connection points: 5
#     Node 4, Type 0, BuildingBlock: BEQFEK_clean_sbu_0, # of connection points: 5
#     Node 5, Type 0, BuildingBlock: BEQFEK_clean_sbu_0, # of connection points: 5
#     Node 6, Type 0, BuildingBlock: BEQFEK_clean_sbu_0, # of connection points: 5
#     Node 7, Type 0, BuildingBlock: BEQFEK_clean_sbu_0, # of connection points: 5
#     Node 8, Type 0, BuildingBlock: BEQFEK_clean_sbu_0, # of connection points: 5
#     Node 9, Type 0, BuildingBlock: BEQFEK_clean_sbu_0, # of connection points: 5
#     Node 10, Type 0, BuildingBlock: BEQFEK_clean_sbu_0, # of connection points: 5
#     Node 11, Type 0, BuildingBlock: BEQFEK_clean_sbu_0, # of connection points: 5
#     Node 12, Type 0, BuildingBlock: BEQFEK_clean_sbu_0, # of connection points: 5
#     Node 13, Type 0, BuildingBlock: BEQFEK_clean_sbu_0, # of connection points: 5
#     Node 14, Type 0, BuildingBlock: BEQFEK_clean_sbu_0, # of connection points: 5
#     Node 15, Type 0, BuildingBlock: BEQFEK_clean_sbu_0, # of connection points: 5
#     Edge 16, Type (0, 0), BuildingBlock: OJICUG_clean_linker_0, # of connection points: 2
#     Edge 17, Type (0, 0), BuildingBlock: OJICUG_clean_linker_0, # of connection points: 2
#     Edge 18, Type (0, 0), BuildingBlock: OJICUG_clean_linker_0, # of connection points: 2
#     Edge 19, Type (0, 0), BuildingBlock: OJICUG_clean_linker_0, # of connection points: 2
#     Edge 20, Type (0, 0), BuildingBlock: OJICUG_clean_linker_0, # of connection points: 2
#     Edge 21, Type (0, 0), BuildingBlock: OJICUG_clean_linker_0, # of connection points: 2
#     Edge 22, Type (0, 0), BuildingBlock: OJICUG_clean_linker_0, # of connection points: 2
#     Edge 23, Type (0, 0), BuildingBlock: OJICUG_clean_linker_0, # of connection points: 2
#     Edge 24, Type (0, 0), BuildingBlock: OJICUG_clean_linker_0, # of connection points: 2
#     Edge 25, Type (0, 0), BuildingBlock: OJICUG_clean_linker_0, # of connection points: 2
#     Edge 26, Type (0, 0), BuildingBlock: OJICUG_clean_linker_0, # of connection points: 2
#     Edge 27, Type (0, 0), BuildingBlock: OJICUG_clean_linker_0, # of connection points: 2
#     Edge 28, Type (0, 0), BuildingBlock: OJICUG_clean_linker_0, # of connection points: 2
#     Edge 29, Type (0, 0), BuildingBlock: OJICUG_clean_linker_0, # of connection points: 2
#     Edge 30, Type (0, 0), BuildingBlock: OJICUG_clean_linker_0, # of connection points: 2
#     Edge 31, Type (0, 0), BuildingBlock: OJICUG_clean_linker_0, # of connection points: 2
#     Edge 32, Type (0, 0), BuildingBlock: OJICUG_clean_linker_0, # of connection points: 2
#     Edge 33, Type (0, 0), BuildingBlock: OJICUG_clean_linker_0, # of connection points: 2
#     Edge 34, Type (0, 0), BuildingBlock: OJICUG_clean_linker_0, # of connection points: 2
#     Edge 35, Type (0, 0), BuildingBlock: OJICUG_clean_linker_0, # of connection points: 2
#     Edge 36, Type (0, 0), BuildingBlock: OJICUG_clean_linker_0, # of connection points: 2
#     Edge 37, Type (0, 0), BuildingBlock: OJICUG_clean_linker_0, # of connection points: 2
#     Edge 38, Type (0, 0), BuildingBlock: OJICUG_clean_linker_0, # of connection points: 2
#     Edge 39, Type (0, 0), BuildingBlock: OJICUG_clean_linker_0, # of connection points: 2
#     Edge 40, Type (0, 0), BuildingBlock: OJICUG_clean_linker_0, # of connection points: 2
#     Edge 41, Type (0, 0), BuildingBlock: OJICUG_clean_linker_0, # of connection points: 2
#     Edge 42, Type (0, 0), BuildingBlock: OJICUG_clean_linker_0, # of connection points: 2
#     Edge 43, Type (0, 0), BuildingBlock: OJICUG_clean_linker_0, # of connection points: 2
#     Edge 44, Type (0, 0), BuildingBlock: OJICUG_clean_linker_0, # of connection points: 2
#     Edge 45, Type (0, 0), BuildingBlock: OJICUG_clean_linker_0, # of connection points: 2
#     Edge 46, Type (0, 0), BuildingBlock: OJICUG_clean_linker_0, # of connection points: 2
#     Edge 47, Type (0, 0), BuildingBlock: OJICUG_clean_linker_0, # of connection points: 2
#     Edge 48, Type (0, 0), BuildingBlock: OJICUG_clean_linker_0, # of connection points: 2
#     Edge 49, Type (0, 0), BuildingBlock: OJICUG_clean_linker_0, # of connection points: 2
#     Edge 50, Type (0, 0), BuildingBlock: OJICUG_clean_linker_0, # of connection points: 2
#     Edge 51, Type (0, 0), BuildingBlock: OJICUG_clean_linker_0, # of connection points: 2
#     Edge 52, Type (0, 0), BuildingBlock: OJICUG_clean_linker_0, # of connection points: 2
#     Edge 53, Type (0, 0), BuildingBlock: OJICUG_clean_linker_0, # of connection points: 2
#     Edge 54, Type (0, 0), BuildingBlock: OJICUG_clean_linker_0, # of connection points: 2
#     Edge 55, Type (0, 0), BuildingBlock: OJICUG_clean_linker_0, # of connection points: 2
# Relax obj value: 0.226
# Max RMSD: 0.167
# Mean RMSD: 0.167
data_MOF--net-zfh--node1-BEQFEK_clean_sbu_0--edge1-OJICUG_clean_linker_0
_symmetry_space_group_name_H-M    P1
_symmetry_Int_Tables_number       1
_symmetry_cell_setting            triclinic
loop_
_symmetry_equiv_pos_as_xyz
'x, y, z'
_cell_length_a     32.235796
_cell_length_b     32.166161
_cell_length_c     33.048308
_cell_angle_alpha  89.930924
_cell_angle_beta   89.973435
_cell_angle_gamma 90.291561
loop_
_atom_site_label
_atom_site_type_symbol
_atom_site_fract_x
_atom_site_fract_y
_atom_site_fract_z
_atom_type_partial_charge
Co0 Co 0.57574 0.19406 0.37857 0.0
Co1 Co 0.53735 0.25852 0.31798 0.0
C2 C 0.49273 0.17893 0.34372 0.0
O3 O 0.52092 0.16741 0.36821 0.0
O4 O 0.49622 0.21266 0.32391 0.0
C5 C 0.59589 0.15111 0.4533 0.0
O6 O 0.55949 0.16354 0.46628 0.0
C7 C 0.47527 0.32273 0.31658 0.0
C8 C 0.4857 0.35646 0.25935 0.0
C9 C 0.4623 0.35692 0.29463 0.0
N10 N 0.50566 0.30351 0.29598 0.0
N11 N 0.51142 0.32348 0.26144 0.0
C12 C 0.45899 0.30849 0.35679 0.0
H13 H 0.46688 0.2755 0.36234 0.0
H14 H 0.47297 0.32739 0.38131 0.0
H15 H 0.42485 0.31266 0.35813 0.0
C16 C 0.58999 0.27193 0.42639 0.0
N17 N 0.57351 0.25085 0.39483 0.0
N18 N 0.56031 0.27779 0.36781 0.0
C19 C 0.56908 0.31671 0.38074 0.0
C20 C 0.58723 0.31426 0.41869 0.0
C21 C 0.61334 0.25237 0.46056 0.0
H22 H 0.63508 0.22885 0.44858 0.0
H23 H 0.59108 0.23696 0.48134 0.0
H24 H 0.6314 0.2757 0.47799 0.0
O25 O 0.60771 0.19122 0.32784 0.0
O26 O 0.58334 0.23648 0.28272 0.0
H27 H 0.56594 0.34828 0.32335 0.0
H28 H 0.58534 0.38006 0.36369 0.0
C29 C 0.56285 0.35531 0.356 0.0
H30 H 0.53166 0.36803 0.36206 0.0
H31 H 0.53371 0.31546 0.23995 0.0
O32 O 0.60756 0.16035 0.41772 0.0
C33 C 0.60907 0.20808 0.29296 0.0
Co34 Co 0.34351 0.57531 0.37807 0.0
Co35 Co 0.2762 0.53945 0.3185 0.0
C36 C 0.35405 0.49194 0.34088 0.0
O37 O 0.36649 0.51872 0.36668 0.0
O38 O 0.32069 0.49731 0.32108 0.0
C39 C 0.3876 0.59457 0.45314 0.0
O40 O 0.37334 0.55894 0.46694 0.0
C41 C 0.21372 0.47564 0.30662 0.0
C42 C 0.1679 0.50612 0.26704 0.0
C43 C 0.17413 0.47106 0.29075 0.0
N44 N 0.22966 0.51209 0.29374 0.0
N45 N 0.20269 0.52953 0.26895 0.0
C46 C 0.23294 0.44986 0.33935 0.0
H47 H 0.25346 0.46927 0.35862 0.0
H48 H 0.20889 0.43476 0.35849 0.0
H49 H 0.25199 0.42519 0.3252 0.0
C50 C 0.26784 0.59198 0.42759 0.0
N51 N 0.28721 0.57478 0.39547 0.0
N52 N 0.25913 0.55898 0.37087 0.0
C53 C 0.22111 0.56478 0.38724 0.0
C54 C 0.22543 0.58583 0.42357 0.0
C55 C 0.28858 0.6191 0.4584 0.0
H56 H 0.31282 0.63848 0.44378 0.0
H57 H 0.30305 0.59928 0.48188 0.0
H58 H 0.26607 0.63999 0.47345 0.0
O59 O 0.34725 0.60856 0.3283 0.0
O60 O 0.29883 0.58695 0.28508 0.0
H61 H 0.17827 0.56348 0.33776 0.0
H62 H 0.15365 0.55954 0.38658 0.0
C63 C 0.18114 0.55052 0.36866 0.0
H64 H 0.18084 0.51623 0.36733 0.0
H65 H 0.20652 0.55898 0.25615 0.0
O66 O 0.37922 0.60555 0.41717 0.0
C67 C 0.32878 0.61143 0.29439 0.0
Co68 Co 0.9601 0.34454 0.37787 0.0
Co69 Co 0.99943 0.27973 0.31839 0.0
C70 C 0.04339 0.35993 0.34389 0.0
O71 O 1.01486 0.37163 0.36795 0.0
O72 O 0.04025 0.32596 0.32445 0.0
C73 C 0.93681 0.39016 0.45063 0.0
O74 O 0.97402 0.38161 0.46443 0.0
C75 C 0.06171 0.21554 0.31818 0.0
C76 C 0.05196 0.18159 0.26105 0.0
C77 C 0.07499 0.1813 0.29654 0.0
N78 N 0.03151 0.23463 0.29718 0.0
N79 N 0.02614 0.2145 0.26272 0.0
C80 C 0.07765 0.23006 0.35837 0.0
H81 H 0.06391 0.21097 0.38293 0.0
H82 H 0.11185 0.2264 0.35978 0.0
H83 H 0.06925 0.26295 0.36378 0.0
C84 C 0.94614 0.26747 0.4267 0.0
N85 N 0.96267 0.28809 0.39485 0.0
N86 N 0.97597 0.26084 0.36823 0.0
C87 C 0.96714 0.2221 0.38168 0.0
C88 C 0.94879 0.22501 0.41956 0.0
C89 C 0.92315 0.28774 0.46067 0.0
H90 H 0.89988 0.30952 0.44821 0.0
H91 H 0.94536 0.30552 0.4796 0.0
H92 H 0.90685 0.26468 0.48001 0.0
O93 O 0.929 0.34656 0.32676 0.0
O94 O 0.95383 0.30115 0.28219 0.0
H95 H 0.9712 0.18979 0.32482 0.0
H96 H 0.95135 0.15845 0.36537 0.0
C97 C 0.97384 0.18319 0.3576 0.0
H98 H 1.005 0.17067 0.36423 0.0
H99 H 1.00407 0.22241 0.24098 0.0
O100 O 0.92629 0.37785 0.41563 0.0
C101 C 0.92794 0.32952 0.29203 0.0
Co102 Co 0.19424 0.96301 0.38043 0.0
Co103 Co 0.26098 0.9989 0.32021 0.0
C104 C 0.18352 0.04655 0.34322 0.0
O105 O 0.17127 0.01976 0.36918 0.0
O106 O 0.21669 0.0411 0.32314 0.0
C107 C 0.15213 0.94379 0.4566 0.0
O108 O 0.16849 0.97843 0.47049 0.0
C109 C 0.32299 0.06279 0.30722 0.0
C110 C 0.36863 0.03231 0.26748 0.0
C111 C 0.36239 0.06749 0.29095 0.0
N112 N 0.30715 0.02619 0.29478 0.0
N113 N 0.33399 1.00873 0.26988 0.0
C114 C 0.30389 0.08864 0.33994 0.0
H115 H 0.28439 0.06901 0.36005 0.0
H116 H 0.32795 0.10474 0.35821 0.0
H117 H 0.28377 0.11247 0.3258 0.0
C118 C 0.27069 0.94563 0.42887 0.0
N119 N 0.25085 0.9632 0.39717 0.0
N120 N 0.27863 0.97933 0.37239 0.0
C121 C 0.31685 0.97352 0.38828 0.0
C122 C 0.31303 0.95203 0.42446 0.0
C123 C 0.25056 0.91773 0.45949 0.0
H124 H 0.22541 0.89935 0.4452 0.0
H125 H 0.23751 0.9369 0.48421 0.0
H126 H 0.27325 0.8959 0.47296 0.0
O127 O 0.18975 0.92977 0.33068 0.0
O128 O 0.23794 0.9515 0.28718 0.0
H129 H 0.35941 0.97506 0.33854 0.0
H130 H 0.38424 0.97943 0.38721 0.0
C131 C 0.35657 0.98813 0.36938 0.0
H132 H 0.35651 0.02241 0.36781 0.0
H133 H 0.33021 0.97917 0.25738 0.0
O134 O 0.15866 0.93324 0.42014 0.0
C135 C 0.20799 0.92704 0.29663 0.0
Co136 Co 0.07258 0.85277 0.09802 0.0
Co137 Co 0.04085 0.78333 0.15755 0.0
C138 C 0.99195 0.86231 0.13809 0.0
O139 O 1.01707 0.87576 0.11123 0.0
O140 O 0.99885 0.82856 0.15704 0.0
C141 C 0.09087 0.90395 0.02633 0.0
O142 O 0.05252 0.89727 0.01451 0.0
C143 C 0.98161 0.71583 0.15864 0.0
C144 C 0.99631 0.68003 0.21368 0.0
C145 C 0.97117 0.68001 0.17958 0.0
N146 N 1.01218 0.73565 0.17866 0.0
N147 N 0.02061 0.71433 0.21185 0.0
C148 C 0.9625 0.73131 0.12019 0.0
H149 H 0.96905 0.76489 0.11589 0.0
H150 H 0.97555 0.71421 0.09406 0.0
H151 H 0.92849 0.72572 0.12059 0.0
C152 C 0.08219 0.77889 0.04413 0.0
N153 N 0.06991 0.79727 0.07881 0.0
N154 N 0.05992 0.76824 0.10518 0.0
C155 C 0.06689 0.73059 0.0886 0.0
C156 C 0.08017 0.7361 0.04918 0.0
C157 C 0.09644 0.80175 0.00721 0.0
H158 H 0.12411 0.82086 0.01473 0.0
H159 H 0.07136 0.8226 -0.00307 0.0
H160 H 0.10413 0.78041 0.98202 0.0
O161 O 0.10701 0.8541 0.1478 0.0
O162 O 0.08846 0.80399 0.19079 0.0
H163 H 0.09289 0.67011 0.10007 0.0
H164 H 0.0381 0.67358 0.10735 0.0
C165 C 0.06781 0.69044 0.11163 0.0
H166 H 0.07304 0.69615 0.14428 0.0
H167 H 0.04363 0.72252 0.2326 0.0
O168 O 0.10359 0.88858 0.05942 0.0
C169 C 0.1118 0.83476 0.18115 0.0
Co170 Co 0.69527 0.07332 0.09603 0.0
Co171 Co 0.75651 0.03959 0.16158 0.0
C172 C 0.67757 0.99332 0.1339 0.0
O173 O 0.66793 1.01844 0.10558 0.0
O174 O 0.70943 0.99971 0.15582 0.0
C175 C 0.63058 0.10818 0.04318 0.0
O176 O 0.60343 0.08353 0.06082 0.0
C177 C 0.81971 0.97724 0.16573 0.0
C178 C 0.85366 0.98968 0.22233 0.0
C179 C 0.85425 0.96536 0.18764 0.0
N180 N 0.80021 1.00788 0.18571 0.0
N181 N 0.82025 1.0148 0.21995 0.0
C182 C 0.80581 0.96027 0.12572 0.0
H183 H 0.82202 0.97686 0.10087 0.0
H184 H 0.81339 0.92673 0.12341 0.0
H185 H 0.77203 0.96477 0.12161 0.0
C186 C 0.77364 0.08192 0.04993 0.0
N187 N 0.75198 0.06912 0.0826 0.0
N188 N 0.77791 0.05962 0.11171 0.0
C189 C 0.81699 0.06792 0.09928 0.0
C190 C 0.8157 0.08148 0.05936 0.0
C191 C 0.75401 0.09928 0.01255 0.0
H192 H 0.74169 0.13061 0.01945 0.0
H193 H 0.72763 0.07918 0.0032 0.0
H194 H 0.77642 0.10226 0.98728 0.0
O195 O 0.68944 0.10722 0.14606 0.0
O196 O 0.73444 0.08739 0.19338 0.0
H197 H 0.84586 0.06831 0.15802 0.0
H198 H 0.87837 0.08814 0.11838 0.0
C199 C 0.85455 0.06456 0.12582 0.0
H200 H 0.86903 0.03381 0.12137 0.0
H201 H 0.81229 0.03782 0.24074 0.0
O202 O 0.66849 0.10648 0.05329 0.0
C203 C 0.70534 0.11132 0.18119 0.0
Co204 Co 0.46602 0.68635 0.09706 0.0
Co205 Co 0.49701 0.75564 0.15686 0.0
C206 C 0.5462 0.67674 0.13784 0.0
O207 O 0.52137 0.66338 0.11074 0.0
O208 O 0.53909 0.71042 0.15676 0.0
C209 C 0.4483 0.6351 0.02535 0.0
O210 O 0.48671 0.64166 0.01365 0.0
C211 C 0.5561 0.82322 0.15821 0.0
C212 C 0.54104 0.85892 0.21314 0.0
C213 C 0.56638 0.85902 0.17916 0.0
N214 N 0.52544 0.80332 0.17812 0.0
N215 N 0.5168 0.82459 0.21124 0.0
C216 C 0.57545 0.80783 0.11986 0.0
H217 H 0.56891 0.77427 0.11551 0.0
H218 H 0.5626 0.82504 0.09368 0.0
H219 H 0.60947 0.81339 0.12045 0.0
C220 C 0.45684 0.7603 0.04307 0.0
N221 N 0.46885 0.74187 0.07784 0.0
N222 N 0.47844 0.77084 0.10432 0.0
C223 C 0.47145 0.80851 0.08773 0.0
C224 C 0.45859 0.80309 0.04819 0.0
C225 C 0.4431 0.73748 0.00602 0.0
H226 H 0.41521 0.71853 0.01318 0.0
H227 H 0.46824 0.71649 -0.00381 0.0
H228 H 0.43596 0.75884 0.98065 0.0
O229 O 0.43103 0.6849 0.14646 0.0
O230 O 0.449 0.7349 0.18964 0.0
H231 H 0.44499 0.86878 0.09911 0.0
H232 H 0.49974 0.8656 0.10682 0.0
C233 C 0.47008 0.84855 0.11082 0.0
H234 H 0.46459 0.84265 0.14342 0.0
H235 H 0.49366 0.81634 0.23189 0.0
O236 O 0.43541 0.65061 0.05829 0.0
C237 C 0.42579 0.70416 0.17975 0.0
Co238 Co 0.84238 0.46619 0.09566 0.0
Co239 Co 0.78127 0.49929 0.16157 0.0
C240 C 0.8602 0.54579 0.13403 0.0
O241 O 0.86976 0.52095 0.1055 0.0
O242 O 0.82839 0.53916 0.156 0.0
C243 C 0.90702 0.43172 0.04263 0.0
O244 O 0.93421 0.45603 0.06056 0.0
C245 C 0.71827 0.56177 0.16604 0.0
C246 C 0.68402 0.54889 0.22243 0.0
C247 C 0.68365 0.57353 0.18789 0.0
N248 N 0.73761 0.53091 0.1859 0.0
N249 N 0.7174 0.52374 0.22003 0.0
C250 C 0.73234 0.579 0.12613 0.0
H251 H 0.76615 0.57468 0.12217 0.0
H252 H 0.71635 0.56244 0.10118 0.0
H253 H 0.72461 0.61251 0.12384 0.0
C254 C 0.76392 0.45802 0.0497 0.0
N255 N 0.78566 0.47054 0.08238 0.0
N256 N 0.75979 0.47978 0.11162 0.0
C257 C 0.72069 0.47157 0.09927 0.0
C258 C 0.72189 0.45835 0.05928 0.0
C259 C 0.78347 0.44096 0.01218 0.0
H260 H 0.79579 0.40956 0.01887 0.0
H261 H 0.80983 0.46112 0.00285 0.0
H262 H 0.76101 0.43818 0.98696 0.0
O263 O 0.84825 0.43174 0.1454 0.0
O264 O 0.80327 0.45107 0.19294 0.0
H265 H 0.69198 0.47046 0.1581 0.0
H266 H 0.65928 0.45128 0.11837 0.0
C267 C 0.6832 0.47467 0.12597 0.0
H268 H 0.66882 0.50552 0.12192 0.0
H269 H 0.7252 0.5005 0.24069 0.0
O270 O 0.86908 0.43347 0.05264 0.0
C271 C 0.83235 0.42725 0.18051 0.0
Co272 Co 0.46156 0.84171 0.60258 0.0
Co273 Co 0.4967 0.77589 0.66362 0.0
C274 C 0.54427 0.85418 0.63958 0.0
O275 O 0.51785 0.86577 0.6132 0.0
O276 O 0.53861 0.82118 0.66013 0.0
C277 C 0.44131 0.88638 0.52788 0.0
O278 O 0.47738 0.87425 0.51377 0.0
C279 C 0.56073 0.71451 0.67509 0.0
C280 C 0.53209 0.66912 0.71681 0.0
C281 C 0.56622 0.67541 0.69188 0.0
N282 N 0.52471 0.73018 0.68873 0.0
N283 N 0.50835 0.70349 0.71472 0.0
C284 C 0.58516 0.7333 0.64103 0.0
H285 H 0.56538 0.75412 0.6226 0.0
H286 H 0.59853 0.70887 0.62133 0.0
H287 H 0.61106 0.75194 0.65384 0.0
C288 C 0.44599 0.76506 0.55376 0.0
N289 N 0.46225 0.78509 0.58604 0.0
N290 N 0.47698 0.75746 0.61165 0.0
C291 C 0.47103 0.71901 0.59603 0.0
C292 C 0.45137 0.7226 0.55887 0.0
C293 C 0.42077 0.78543 0.52136 0.0
H294 H 0.40007 0.80901 0.53491 0.0
H295 H 0.44187 0.80089 0.49948 0.0
H296 H 0.4014 0.76255 0.50473 0.0
O297 O 0.42875 0.84596 0.6525 0.0
O298 O 0.44953 0.79848 0.69696 0.0
H299 H 0.47145 0.67842 0.64744 0.0
H300 H 0.47305 0.65137 0.59976 0.0
C301 C 0.48377 0.67935 0.61618 0.0
H302 H 0.51799 0.67784 0.61693 0.0
H303 H 0.47939 0.70715 0.72835 0.0
O304 O 0.43062 0.87642 0.56356 0.0
C305 C 0.42551 0.82832 0.68683 0.0
Co306 Co 0.69 0.46203 0.60061 0.0
Co307 Co 0.75683 0.50275 0.65796 0.0
C308 C 0.67729 0.54649 0.63719 0.0
O309 O 0.66479 0.51705 0.61432 0.0
O310 O 0.7123 0.54484 0.65482 0.0
C311 C 0.64857 0.44306 0.52453 0.0
O312 O 0.6656 0.47756 0.51095 0.0
C313 C 0.81964 0.56655 0.67126 0.0
C314 C 0.86565 0.53416 0.70916 0.0
C315 C 0.85952 0.57012 0.68676 0.0
N316 N 0.80354 0.52972 0.68296 0.0
N317 N 0.83063 0.51117 0.70683 0.0
C318 C 0.80018 0.59387 0.63987 0.0
H319 H 0.77934 0.57542 0.62004 0.0
H320 H 0.82407 0.6097 0.62113 0.0
H321 H 0.78144 0.61797 0.65529 0.0
C322 C 0.76573 0.44635 0.55097 0.0
N323 N 0.74607 0.46454 0.58241 0.0
N324 N 0.77381 0.48302 0.6056 0.0
C325 C 0.81172 0.47845 0.58858 0.0
C326 C 0.8078 0.45504 0.55362 0.0
C327 C 0.74618 0.41551 0.52282 0.0
H328 H 0.72137 0.39788 0.53856 0.0
H329 H 0.73289 0.43219 0.49653 0.0
H330 H 0.7694 0.39312 0.51125 0.0
O331 O 0.68819 0.42808 0.64949 0.0
O332 O 0.73455 0.45494 0.6921 0.0
H333 H 0.85697 0.48328 0.63574 0.0
H334 H 0.87841 0.48936 0.58571 0.0
C335 C 0.85129 0.49605 0.60515 0.0
H336 H 0.84882 0.5302 0.60663 0.0
H337 H 0.82671 0.48128 0.71858 0.0
O338 O 0.65434 0.43233 0.56107 0.0
C339 C 0.70658 0.42788 0.68351 0.0
Co340 Co 0.07568 0.69474 0.60179 0.0
Co341 Co 0.03726 0.75942 0.66183 0.0
C342 C 0.99217 0.6801 0.63569 0.0
O343 O 0.02052 0.66832 0.61146 0.0
O344 O 0.99583 0.71377 0.65553 0.0
C345 C 0.09776 0.65017 0.5283 0.0
O346 O 0.06088 0.66037 0.51474 0.0
C347 C 0.97575 0.82414 0.6622 0.0
C348 C 0.98578 0.85793 0.71938 0.0
C349 C 0.96286 0.85853 0.68383 0.0
N350 N 1.00568 0.80469 0.68324 0.0
N351 N 1.01121 0.82471 0.71774 0.0
C352 C 0.95983 0.8099 0.6219 0.0
H353 H 0.9747 0.82821 0.59741 0.0
H354 H 0.92583 0.81484 0.61995 0.0
H355 H 0.96704 0.77668 0.61686 0.0
C356 C 0.09066 0.77225 0.55363 0.0
N357 N 0.07387 0.75143 0.58524 0.0
N358 N 0.06089 0.77852 0.61215 0.0
C359 C 0.0702 0.81732 0.59916 0.0
C360 C 0.0885 0.81465 0.56126 0.0
C361 C 0.11348 0.7522 0.51943 0.0
H362 H 0.13612 0.72961 0.53158 0.0
H363 H 0.09104 0.73543 0.49991 0.0
H364 H 0.13046 0.77534 0.50071 0.0
O365 O 0.10698 0.69193 0.65284 0.0
O366 O 0.08274 0.73736 0.69772 0.0
H367 H 0.06678 0.84896 0.65641 0.0
H368 H 0.08699 0.88051 0.61617 0.0
C369 C 0.06414 0.85602 0.62372 0.0
H370 H 0.03315 0.86908 0.61733 0.0
H371 H 0.03315 0.81653 0.73951 0.0
O372 O 0.10869 0.6612 0.56358 0.0
C373 C 0.10833 0.70879 0.68766 0.0
Co374 Co 0.84294 0.07617 0.60033 0.0
Co375 Co 0.77701 0.04077 0.66143 0.0
C376 C 0.85511 0.99366 0.6365 0.0
O377 O 0.86687 0.01979 0.6098 0.0
O378 O 0.82241 0.99977 0.65709 0.0
C379 C 0.88671 0.09636 0.52555 0.0
O380 O 0.87364 0.06013 0.51225 0.0
C381 C 0.71239 0.97852 0.66297 0.0
C382 C 0.67854 0.98919 0.71996 0.0
C383 C 0.67819 0.96542 0.68492 0.0
N384 N 0.73155 1.00931 0.68334 0.0
N385 N 0.71148 1.01525 0.71773 0.0
C386 C 0.72681 0.96188 0.62306 0.0
H387 H 0.75963 0.97043 0.6174 0.0
H388 H 0.70778 0.97506 0.5983 0.0
H389 H 0.72304 0.92757 0.62229 0.0
C390 C 0.76581 0.09235 0.55229 0.0
N391 N 0.78623 0.0757 0.58408 0.0
N392 N 0.75885 0.06316 0.61108 0.0
C393 C 0.72033 0.07236 0.59783 0.0
C394 C 0.72346 0.09031 0.55978 0.0
C395 C 0.78613 0.11509 0.518 0.0
H396 H 0.81022 0.13648 0.52989 0.0
H397 H 0.80087 0.09233 0.49746 0.0
H398 H 0.76348 0.13357 0.50035 0.0
O399 O 0.84695 0.10807 0.6515 0.0
O400 O 0.79925 0.0869 0.69596 0.0
H401 H 0.6882 0.06992 0.65489 0.0
H402 H 0.65691 0.08847 0.61391 0.0
C403 C 0.68149 0.06628 0.62223 0.0
H404 H 0.66879 0.03481 0.61659 0.0
H405 H 0.71951 0.03779 0.73906 0.0
O406 O 0.87764 0.10774 0.56123 0.0
C407 C 0.82934 0.11098 0.68595 0.0
Co408 Co 0.96617 0.18697 0.88298 0.0
Co409 Co 0.99725 0.25628 0.82303 0.0
C410 C 0.04661 0.17765 0.84267 0.0
O411 O 0.02173 0.16423 0.86975 0.0
O412 O 0.03941 0.21124 0.82356 0.0
C413 C 0.94814 0.13593 0.95483 0.0
O414 O 0.98641 0.14285 0.96675 0.0
C415 C 0.05625 0.3239 0.82176 0.0
C416 C 0.04144 0.3596 0.7667 0.0
C417 C 0.06659 0.35972 0.80079 0.0
N418 N 0.02572 0.30398 0.80177 0.0
N419 N 1.01722 0.32524 0.76857 0.0
C420 C 0.07541 0.30852 0.86022 0.0
H421 H 0.06891 0.27495 0.86461 0.0
H422 H 0.06236 0.32567 0.88632 0.0
H423 H 0.10941 0.31414 0.85979 0.0
C424 C 0.95632 0.26101 0.93659 0.0
N425 N 0.96858 0.24254 0.90195 0.0
N426 N 0.97828 0.2715 0.87541 0.0
C427 C 0.97118 0.30918 0.89185 0.0
C428 C 0.95809 0.30378 0.93134 0.0
C429 C 0.94224 0.23824 0.97363 0.0
H430 H 0.96745 0.21759 0.98398 0.0
H431 H 0.93445 0.25967 -0.00128 0.0
H432 H 0.91467 0.21894 0.96623 0.0
O433 O 0.93165 0.18526 0.83333 0.0
O434 O 0.94964 0.23526 0.79 0.0
H435 H 0.94485 0.36948 0.88022 0.0
H436 H 0.99964 0.36624 0.87279 0.0
C437 C 0.96999 0.34923 0.86867 0.0
H438 H 0.96469 0.34335 0.83605 0.0
H439 H 0.99421 0.31699 0.74784 0.0
O440 O 0.93541 0.15116 0.92169 0.0
C441 C 0.92656 0.20438 0.7999 0.0
Co442 Co 0.34291 0.96545 0.88321 0.0
Co443 Co 0.28141 0.99983 0.81828 0.0
C444 C 0.36097 0.04544 0.84524 0.0
O445 O 0.37066 0.02011 0.87337 0.0
O446 O 0.32886 0.0394 0.82358 0.0
C447 C 0.40752 0.93129 0.93681 0.0
O448 O 0.43443 0.95706 0.92038 0.0
C449 C 0.21866 0.06263 0.81431 0.0
C450 C 0.18408 0.04995 0.75812 0.0
C451 C 0.18399 0.07454 0.79263 0.0
N452 N 0.23777 0.03173 0.79437 0.0
N453 N 0.21737 0.02467 0.76036 0.0
C454 C 0.23305 0.07979 0.85408 0.0
H455 H 0.2669 0.07543 0.85775 0.0
H456 H 0.21727 0.0632 0.87919 0.0
H457 H 0.22538 0.11331 0.85641 0.0
C458 C 0.26496 0.95749 0.93007 0.0
N459 N 0.2864 0.97022 0.89724 0.0
N460 N 0.26027 0.98006 0.86841 0.0
C461 C 0.22125 0.97206 0.88119 0.0
C462 C 0.22282 0.95832 0.92105 0.0
C463 C 0.28481 0.93975 0.96717 0.0
H464 H 0.29682 0.90836 0.95998 0.0
H465 H 0.31144 0.95958 0.97639 0.0
H466 H 0.26264 0.9368 -0.00737 0.0
O467 O 0.34774 0.93129 0.83323 0.0
O468 O 0.30259 0.95176 0.78631 0.0
H469 H 0.19179 0.9717 0.82274 0.0
H470 H 0.15936 0.95262 0.86281 0.0
C471 C 0.18346 0.97578 0.85499 0.0
H472 H 0.16949 1.00676 0.85936 0.0
H473 H 0.22498 1.00143 0.73968 0.0
O474 O 0.36987 0.9321 0.9257 0.0
C475 C 0.3314 0.92738 0.79827 0.0
Co476 Co 0.57179 0.35321 0.88307 0.0
Co477 Co 0.54097 0.28383 0.82325 0.0
C478 C 0.49151 0.36256 0.84238 0.0
O479 O 0.51633 0.37597 0.86946 0.0
O480 O 0.49871 0.32893 0.8234 0.0
C481 C 0.58942 0.40434 0.95487 0.0
O482 O 0.5511 0.39744 0.96671 0.0
C483 C 0.48208 0.21595 0.82164 0.0
C484 C 0.49742 0.18047 0.76666 0.0
C485 C 0.47199 0.18016 0.80057 0.0
N486 N 0.51271 0.23604 0.80186 0.0
N487 N 0.52153 0.2149 0.76871 0.0
C488 C 0.46255 0.23117 0.85996 0.0
H489 H 0.46902 0.26472 0.86446 0.0
H490 H 0.47531 0.21388 0.88615 0.0
H491 H 0.42855 0.22556 0.85922 0.0
C492 C 0.58134 0.2792 0.93697 0.0
N493 N 0.56922 0.29764 0.90223 0.0
N494 N 0.55956 0.26865 0.87578 0.0
C495 C 0.56659 0.23098 0.89237 0.0
C496 C 0.57955 0.23642 0.93187 0.0
C497 C 0.59532 0.30201 0.97395 0.0
H498 H 0.62294 0.32125 0.96654 0.0
H499 H 0.5701 0.32271 0.98415 0.0
H500 H 0.60298 0.28061 -0.00086 0.0
O501 O 0.60671 0.35498 0.83363 0.0
O502 O 0.58901 0.3048 0.79056 0.0
H503 H 0.59307 0.17072 0.88101 0.0
H504 H 0.53832 0.17386 0.87333 0.0
C505 C 0.56797 0.19093 0.8693 0.0
H506 H 0.57345 0.1968 0.83669 0.0
H507 H 0.54467 0.22329 0.74813 0.0
O508 O 0.60228 0.38905 0.92183 0.0
C509 C 0.61205 0.33572 0.80036 0.0
Co510 Co 0.19535 0.57366 0.88432 0.0
Co511 Co 0.25649 0.54029 0.81849 0.0
C512 C 0.17759 0.4939 0.8463 0.0
O513 O 0.168 0.51883 0.87475 0.0
O514 O 0.2094 0.50045 0.82432 0.0
C515 C 0.13082 0.60826 0.93752 0.0
O516 O 0.1036 0.58372 0.91992 0.0
C517 C 0.31949 0.47774 0.81426 0.0
C518 C 0.35358 0.49024 0.75771 0.0
C519 C 0.35402 0.4658 0.79238 0.0
N520 N 0.30013 0.50852 0.79429 0.0
N521 N 0.32025 0.51546 0.76006 0.0
C522 C 0.30548 0.46072 0.85427 0.0
H523 H 0.27169 0.46518 0.85831 0.0
H524 H 0.32158 0.47732 0.87912 0.0
H525 H 0.31309 0.42719 0.85667 0.0
C526 C 0.27383 0.58197 0.93021 0.0
N527 N 0.2521 0.56942 0.89755 0.0
N528 N 0.27797 0.56008 0.86834 0.0
C529 C 0.31708 0.56825 0.8807 0.0
C530 C 0.31587 0.58154 0.92068 0.0
C531 C 0.25428 0.59908 0.96771 0.0
H532 H 0.24196 0.63047 0.96098 0.0
H533 H 0.22791 0.57894 0.97705 0.0
H534 H 0.27673 0.60189 -0.00706 0.0
O535 O 0.18935 0.60775 0.83436 0.0
O536 O 0.23428 0.58823 0.78684 0.0
H537 H 0.34587 0.56885 0.8219 0.0
H538 H 0.37846 0.58845 0.8615 0.0
C539 C 0.3546 0.56494 0.85407 0.0
H540 H 0.36904 0.53415 0.85842 0.0
H541 H 0.31242 0.53858 0.73928 0.0
O542 O 0.16869 0.60661 0.92724 0.0
C543 C 0.20514 0.61203 0.79917 0.0
C544 C 0.38945 0.13948 0.30375 0.0
C545 C 0.39516 0.0963 0.3052 0.0
H546 H 0.41602 0.19967 0.3149 0.0
C547 C 0.43187 0.08045 0.32195 0.0
H548 H 0.36119 0.15232 0.29131 0.0
C549 C 0.46265 0.10734 0.33657 0.0
C550 C 0.4577 0.15065 0.33389 0.0
H551 H 0.43664 0.04719 0.32396 0.0
H552 H 0.49096 0.0942 0.34861 0.0
C553 C 0.42067 0.16644 0.31748 0.0
C554 C 0.37551 0.43568 0.29295 0.0
C555 C 0.38034 0.45566 0.33061 0.0
H556 H 0.39819 0.38934 0.2519 0.0
C557 C 0.41179 0.44203 0.35679 0.0
H558 H 0.35185 0.44561 0.27183 0.0
C559 C 0.43781 0.40925 0.3455 0.0
C560 C 0.43337 0.38996 0.30754 0.0
H561 H 0.41649 0.45687 0.38584 0.0
H562 H 0.46221 0.39994 0.366 0.0
C563 C 0.40211 0.40359 0.28135 0.0
C564 C 0.07343 0.43152 0.33608 0.0
C565 C 0.07851 0.38819 0.3341 0.0
H566 H 0.09944 0.49156 0.32282 0.0
C567 C 0.11581 0.3723 0.31837 0.0
H568 H 0.04493 0.44474 0.34757 0.0
C569 C 0.14714 0.39916 0.30459 0.0
C570 C 0.14133 0.44235 0.30531 0.0
H571 H 0.12057 0.33905 0.31633 0.0
H572 H 0.17557 0.38621 0.29263 0.0
C573 C 0.10434 0.4583 0.32139 0.0
C574 C 0.12564 0.09639 0.35909 0.0
C575 C 0.1572 0.08286 0.33298 0.0
H576 H 0.07505 0.13835 0.36811 0.0
C577 C 0.16211 0.10294 0.29532 0.0
H578 H 0.12087 0.08149 0.38814 0.0
C579 C 0.13548 0.13497 0.28363 0.0
C580 C 0.10407 0.14846 0.30972 0.0
H581 H 0.18585 0.09311 0.27424 0.0
H582 H 0.13945 0.14924 0.25416 0.0
C583 C 0.09957 0.12914 0.3477 0.0
C584 C 0.90568 0.94206 0.13546 0.0
C585 C 0.88833 0.93783 0.17434 0.0
H586 H 0.95219 0.92185 0.09355 0.0
C587 C 0.90482 0.90817 0.20086 0.0
H588 H 0.89423 0.96517 0.11457 0.0
C589 C 0.93766 0.88282 0.18854 0.0
C590 C 0.95544 0.88744 0.14982 0.0
H591 H 0.89217 0.90447 0.23103 0.0
H592 H 0.9498 0.86028 0.20978 0.0
C593 C 0.9391 0.9174 0.12345 0.0
C594 C 0.62446 0.9081 0.19453 0.0
C595 C 0.59556 0.89239 0.16679 0.0
H596 H 0.67361 0.95147 0.20554 0.0
C597 C 0.59399 0.9096 0.12765 0.0
H598 H 0.62614 0.89549 0.2249 0.0
C599 C 0.6207 0.94222 0.11659 0.0
C600 C 0.64999 0.95774 0.14427 0.0
H601 H 0.57138 0.89864 0.1059 0.0
H602 H 0.61837 0.95533 0.08648 0.0
C603 C 0.65173 0.94002 0.18326 0.0
C604 C 0.60012 0.656 0.18861 0.0
C605 C 0.58264 0.65159 0.14976 0.0
H606 H 0.64532 0.63413 0.2313 0.0
C607 C 0.5992 0.6218 0.1234 0.0
H608 H 0.5878 0.67841 0.20983 0.0
C609 C 0.63254 0.59709 0.13553 0.0
C610 C 0.6496 0.6011 0.17453 0.0
H611 H 0.58634 0.61752 0.0934 0.0
H612 H 0.64415 0.57412 0.11462 0.0
C613 C 0.63289 0.63059 0.20104 0.0
C614 C 0.94368 0.62963 0.12796 0.0
C615 C 0.94203 0.64668 0.16713 0.0
H616 H 0.91941 0.58405 0.0867 0.0
C617 C 0.91312 0.6308 0.19483 0.0
H618 H 0.96631 0.6407 0.10624 0.0
C619 C 0.88592 0.59888 0.18351 0.0
C620 C 0.88774 0.58134 0.14449 0.0
H621 H 0.91138 0.64327 0.22522 0.0
H622 H 0.86403 0.58731 0.20576 0.0
C623 C 0.91703 0.59702 0.11684 0.0
C624 C 0.60025 0.87706 0.68738 0.0
C625 C 0.58036 0.88116 0.64961 0.0
H626 H 0.64622 0.90103 0.7283 0.0
C627 C 0.59378 0.91268 0.62313 0.0
H628 H 0.59048 0.85339 0.70874 0.0
C629 C 0.62622 0.93948 0.63423 0.0
C630 C 0.64541 0.93575 0.67228 0.0
H631 H 0.57899 0.91685 0.59399 0.0
H632 H 0.63535 0.96394 0.61352 0.0
C633 C 0.63202 0.90442 0.69877 0.0
C634 C 0.60571 0.57449 0.64778 0.0
C635 C 0.64887 0.58094 0.64775 0.0
H636 H 0.54591 0.59906 0.66289 0.0
C637 C 0.66465 0.61909 0.66203 0.0
H638 H 0.5926 0.5453 0.63745 0.0
C639 C 0.63784 0.64998 0.67622 0.0
C640 C 0.59488 0.64287 0.67738 0.0
H641 H 0.69777 0.62492 0.66253 0.0
H642 H 0.65069 0.67914 0.68693 0.0
C643 C 0.57903 0.60497 0.66288 0.0
C644 C 0.92918 0.58242 0.65572 0.0
C645 C 0.89267 0.59865 0.67256 0.0
H646 H 0.98871 0.59547 0.62955 0.0
C647 C 0.88781 0.64191 0.67461 0.0
H648 H 0.93336 0.54912 0.65326 0.0
C649 C 0.91966 0.6685 0.66141 0.0
C650 C 0.95652 0.6523 0.64499 0.0
H651 H 0.85977 0.65509 0.68719 0.0
H652 H 0.91564 0.70177 0.66448 0.0
C653 C 0.96059 0.60896 0.64165 0.0
C654 C 0.91254 0.94326 0.62076 0.0
C655 C 0.88137 0.9574 0.647 0.0
H656 H 0.96266 0.90074 0.6118 0.0
C657 C 0.87674 0.93795 0.685 0.0
H658 H 0.91711 0.95771 0.59147 0.0
C659 C 0.90319 0.90583 0.69684 0.0
C660 C 0.93415 0.89166 0.6706 0.0
H661 H 0.85333 0.94827 0.70619 0.0
H662 H 0.89938 0.89199 0.72652 0.0
C663 C 0.93845 0.91046 0.63234 0.0
C664 C 0.13322 0.09833 0.8452 0.0
C665 C 0.1501 0.10222 0.80609 0.0
H666 H 0.08709 0.11879 0.88739 0.0
C667 C 0.13326 0.13159 0.77949 0.0
H668 H 0.14495 0.07545 0.86618 0.0
C669 C 0.10049 0.15696 0.79191 0.0
C670 C 0.08313 0.15262 0.83084 0.0
H671 H 0.14555 0.13502 0.74915 0.0
H672 H 0.08803 0.17924 0.7706 0.0
C673 C 0.09985 0.123 0.85733 0.0
C674 C 0.41783 0.09649 0.86272 0.0
C675 C 0.38864 0.08099 0.83495 0.0
H676 H 0.46697 0.14022 0.87368 0.0
C677 C 0.38693 0.09883 0.79601 0.0
H678 H 0.42012 0.08331 0.89281 0.0
C679 C 0.41413 0.13088 0.7849 0.0
C680 C 0.4429 0.14662 0.81276 0.0
H681 H 0.36512 0.0874 0.77366 0.0
H682 H 0.41247 0.1436 0.75457 0.0
C683 C 0.44445 0.12926 0.85184 0.0
C684 C 0.43855 0.41755 0.85682 0.0
C685 C 0.455 0.38766 0.8305 0.0
H686 H 0.3937 0.46536 0.86555 0.0
C687 C 0.4374 0.38316 0.79172 0.0
H688 H 0.4515 0.42193 0.88676 0.0
C689 C 0.40463 0.40857 0.77929 0.0
C690 C 0.38804 0.43818 0.80575 0.0
H691 H 0.44963 0.36067 0.77052 0.0
H692 H 0.39211 0.40496 0.74907 0.0
C693 C 0.40521 0.44228 0.84469 0.0
C694 C 0.12065 0.44279 0.86347 0.0
C695 C 0.15003 0.45836 0.83587 0.0
H696 H 0.07128 0.3992 0.87404 0.0
C697 C 0.1519 0.44076 0.79687 0.0
H698 H 0.11822 0.45581 0.89359 0.0
C699 C 0.12468 0.40887 0.78554 0.0
C700 C 0.09569 0.39308 0.81321 0.0
H701 H 0.17385 0.45225 0.77464 0.0
H702 H 0.12647 0.39633 0.75518 0.0
C703 C 0.09397 0.4102 0.85235 0.0
C704 C 0.63222 0.19361 0.22168 0.0
C705 C 0.63896 0.19045 0.26349 0.0
H706 H 0.64815 0.17123 0.16281 0.0
C707 C 0.67175 0.16536 0.27743 0.0
H708 H 0.60732 0.21262 0.20994 0.0
C709 C 0.69518 0.14154 0.25053 0.0
C710 C 0.68628 0.14209 0.209 0.0
H711 H 0.67815 0.16257 0.3095 0.0
H712 H 0.71873 0.12106 0.26257 0.0
C713 C 0.65556 0.1696 0.19473 0.0
C714 C 0.3731 0.67324 0.27764 0.0
C715 C 0.34625 0.64123 0.26453 0.0
H716 H 0.4189 0.71875 0.26119 0.0
C717 C 0.34125 0.63478 0.22286 0.0
H718 H 0.37733 0.67936 0.30961 0.0
C719 C 0.36531 0.65732 0.19512 0.0
C720 C 0.39462 0.68702 0.20845 0.0
H721 H 0.32083 0.6105 0.21176 0.0
H722 H 0.36237 0.64997 0.16327 0.0
C723 C 0.3969 0.69601 0.2499 0.0
C724 C 0.84162 0.39553 0.24939 0.0
C725 C 0.85131 0.39607 0.20803 0.0
H726 H 0.85781 0.37335 0.30821 0.0
C727 C 0.88259 0.36922 0.19374 0.0
H728 H 0.8176 0.41543 0.26143 0.0
C729 C 0.90574 0.34487 0.22062 0.0
C730 C 0.8982 0.34702 0.26235 0.0
H731 H 0.89062 0.36841 0.16192 0.0
H732 H 0.93112 0.32648 0.20896 0.0
C733 C 0.86482 0.37136 0.27621 0.0
C734 C 0.163 0.86578 0.27965 0.0
C735 C 0.19039 0.89745 0.26672 0.0
H736 H 0.11708 0.82058 0.26281 0.0
C737 C 0.19611 0.90366 0.22508 0.0
H738 H 0.1582 0.85984 0.31159 0.0
C739 C 0.17232 0.88121 0.19713 0.0
C740 C 0.14257 0.85182 0.21022 0.0
H741 H 0.21697 0.92766 0.2141 0.0
H742 H 0.17587 0.88837 0.16528 0.0
C743 C 0.13948 0.84308 0.2517 0.0
C744 C 0.37886 0.86722 0.78476 0.0
C745 C 0.34955 0.89614 0.77038 0.0
H746 H 0.42553 0.82244 0.76974 0.0
C747 C 0.34133 0.89758 0.72873 0.0
H748 H 0.38568 0.86489 0.81678 0.0
C749 C 0.36423 0.87319 0.70187 0.0
C750 C 0.39573 0.8466 0.716 0.0
H751 H 0.31885 0.91918 0.71661 0.0
H752 H 0.35855 0.87668 0.66974 0.0
C753 C 0.40162 0.8426 0.75786 0.0
C754 C 0.67064 0.38472 0.78408 0.0
C755 C 0.64307 0.35302 0.77155 0.0
H756 H 0.71308 0.43295 0.76617 0.0
C757 C 0.64237 0.34185 0.73055 0.0
H758 H 0.67244 0.3938 0.81558 0.0
C759 C 0.66579 0.36433 0.70231 0.0
C760 C 0.69061 0.39835 0.71441 0.0
H761 H 0.62183 0.31748 0.71987 0.0
H762 H 0.66266 0.35642 0.67059 0.0
C763 C 0.69426 0.40707 0.75582 0.0
C764 C 0.13145 0.69405 0.75893 0.0
C765 C 0.13823 0.69115 0.71713 0.0
H766 H 0.14752 0.67148 0.81775 0.0
C767 C 0.17119 0.66633 0.7031 0.0
H768 H 0.10643 0.71285 0.77073 0.0
C769 C 0.19477 0.64253 0.72993 0.0
C770 C 0.18587 0.64283 0.77146 0.0
H771 H 0.17763 0.66376 0.67103 0.0
H772 H 0.21846 0.62227 0.71781 0.0
C773 C 0.15496 0.67006 0.78581 0.0
C774 C 0.89876 0.19502 0.72953 0.0
C775 C 0.89573 0.18694 0.77114 0.0
H776 H 0.87977 0.17748 0.66995 0.0
C777 C 0.86596 0.1578 0.78472 0.0
H778 H 0.9212 0.21729 0.71807 0.0
C779 C 0.84201 0.13503 0.75717 0.0
C780 C 0.84758 0.14064 0.71543 0.0
H781 H 0.86247 0.15115 0.81669 0.0
H782 H 0.82105 0.11131 0.76854 0.0
C783 C 0.87508 0.17199 0.70198 0.0
C784 C 0.62872 0.14757 0.5215 0.0
C785 C 0.62633 0.13322 0.48149 0.0
H786 H 0.66318 0.14742 0.57688 0.0
C787 C 0.65583 0.10465 0.4675 0.0
H788 H 0.60706 0.17054 0.53259 0.0
C789 C 0.68697 0.09029 0.4933 0.0
C790 C 0.68963 0.10493 0.53319 0.0
H791 H 0.65486 0.09354 0.43658 0.0
H792 H 0.70924 0.06802 0.482 0.0
C793 C 0.66063 0.13414 0.5469 0.0
C794 C 0.39707 0.62478 0.52224 0.0
C795 C 0.40659 0.62531 0.48078 0.0
H796 H 0.40223 0.65632 0.57912 0.0
C797 C 0.43135 0.65776 0.46531 0.0
H798 H 0.37729 0.6007 0.53484 0.0
C799 C 0.44634 0.68904 0.49084 0.0
C800 C 0.43636 0.68877 0.53215 0.0
H801 H 0.43892 0.6591 0.43339 0.0
H802 H 0.46549 0.71363 0.47827 0.0
C803 C 0.41133 0.65656 0.54757 0.0
C804 C 0.90788 0.40464 0.51937 0.0
C805 C 0.90506 0.40869 0.47717 0.0
H806 H 0.87827 0.4145 0.57658 0.0
C807 C 0.87005 0.42803 0.46031 0.0
H808 H 0.93406 0.38909 0.53313 0.0
C809 C 0.83859 0.4433 0.48522 0.0
C810 C 0.84135 0.43908 0.52736 0.0
H811 H 0.86696 0.43134 0.42783 0.0
H812 H 0.8121 0.45843 0.47157 0.0
C813 C 0.87601 0.41918 0.54419 0.0
C814 C 0.10416 0.8841 0.47003 0.0
C815 C 0.13333 0.91311 0.48443 0.0
H816 H 0.06659 0.83059 0.48363 0.0
C817 C 0.14746 0.90983 0.52449 0.0
H818 H 0.09311 0.88568 0.43912 0.0
C819 C 0.13332 0.87757 0.54941 0.0
C820 C 0.10371 0.84895 0.53519 0.0
H821 H 0.1708 0.93108 0.53601 0.0
H822 H 0.14636 0.87443 0.57943 0.0
C823 C 0.0892 0.85252 0.49532 0.0
C824 C 0.18268 0.96396 0.98556 0.0
C825 C 0.18778 0.94561 0.94736 0.0
H826 H 0.14776 0.96471 0.04092 0.0
C827 C 0.15958 0.91481 0.9348 0.0
H828 H 0.20404 0.98779 -0.0041 0.0
C829 C 0.12632 0.90324 0.95957 0.0
C830 C 0.12183 0.92093 -0.00194 0.0
H831 H 0.16382 0.89883 0.9063 0.0
H832 H 0.10535 0.87898 0.94945 0.0
C833 C 0.15037 0.95117 0.01104 0.0
C834 C 0.57718 0.13993 -0.00265 0.0
C835 C 0.61733 0.14028 0.01388 0.0
H836 H 0.5339 0.1704 0.95794 0.0
C837 C 0.64493 0.17244 0.00291 0.0
H838 H 0.55528 0.11554 0.00511 0.0
C839 C 0.63254 0.20381 0.97645 0.0
C840 C 0.59242 0.20357 0.9603 0.0
H841 H 0.67606 0.17378 0.01515 0.0
H842 H 0.6544 0.22815 0.9684 0.0
C843 C 0.56495 0.1712 0.97046 0.0
C844 C 0.37917 0.62495 0.9342 0.0
C845 C 0.35114 0.59394 0.94673 0.0
H846 H 0.43339 0.66078 0.94874 0.0
C847 C 0.35663 0.57509 0.98468 0.0
H848 H 0.37464 0.64131 0.90592 0.0
C849 C 0.3891 0.58765 0.00999 0.0
C850 C 0.41742 0.61817 -0.00292 0.0
H851 H 0.33543 0.55106 -0.00503 0.0
H852 H 0.39198 0.57377 0.03974 0.0
C853 C 0.41259 0.63631 0.95878 0.0
C854 C 0.89258 0.36776 0.00212 0.0
C855 C 0.92025 0.39979 0.01323 0.0
H856 H 0.88309 0.3122 0.96754 0.0
C857 C 0.96046 0.40009 -0.00319 0.0
H858 H 0.8614 0.36647 0.01427 0.0
C859 C 0.9727 0.36889 0.96991 0.0
C860 C 0.94518 0.33663 0.95966 0.0
H861 H 0.9824 0.42437 0.00468 0.0
H862 H 1.00381 0.36963 0.95749 0.0
C863 C 0.90498 0.33646 0.97567 0.0
C864 C 0.34566 0.94351 0.49249 0.0
C865 C 0.34665 0.93616 0.4507 0.0
H866 H 0.37522 0.93378 0.54972 0.0
C867 C 0.37954 0.91317 0.43426 0.0
H868 H 0.32055 0.96107 0.50584 0.0
C869 C 0.41136 0.89847 0.45908 0.0
C870 C 0.41021 0.90552 0.50098 0.0
H871 H 0.38037 0.90612 0.40222 0.0
H872 H 0.43605 0.88038 0.44568 0.0
C873 C 0.37703 0.92813 0.51746 0.0
C874 C 0.63092 0.37783 0.43104 0.0
C875 C 0.60162 0.34869 0.44492 0.0
H876 H 0.66768 0.43161 0.44502 0.0
C877 C 0.58681 0.35166 0.48473 0.0
H878 H 0.64423 0.37514 0.40108 0.0
C879 C 0.60119 0.38314 0.51032 0.0
C880 C 0.63015 0.41262 0.49631 0.0
H881 H 0.56444 0.32929 0.49616 0.0
H882 H 0.58995 0.38424 0.5412 0.0
C883 C 0.64452 0.40998 0.45627 0.0
C884 C 0.19343 0.59383 0.49199 0.0
C885 C 0.19215 0.60161 0.45025 0.0
H886 H 0.16421 0.60301 0.5495 0.0
C887 C 0.15924 0.62488 0.43423 0.0
H888 H 0.21858 0.57606 0.50501 0.0
C889 C 0.12755 0.63924 0.45937 0.0
C890 C 0.12894 0.63168 0.50118 0.0
H891 H 0.15822 0.63232 0.40227 0.0
H892 H 0.10274 0.65745 0.4463 0.0
C893 C 0.16226 0.609 0.5173 0.0
C894 C 0.90495 0.16154 0.43204 0.0
C895 C 0.93395 0.19088 0.44604 0.0
H896 H 0.86835 0.10754 0.44597 0.0
C897 C 0.94811 0.18826 0.48611 0.0
H898 H 0.89207 0.16397 0.40189 0.0
C899 C 0.93342 0.1569 0.51178 0.0
C900 C 0.905 0.1271 0.49753 0.0
H901 H 0.97024 0.21077 0.49764 0.0
H902 H 0.94416 0.156 0.54283 0.0
C903 C 0.89118 0.12943 0.45733 0.0
C904 C 0.85646 0.07558 -0.00472 0.0
C905 C 0.8509 0.09418 0.03329 0.0
H906 H 0.89187 0.07464 0.94023 0.0
C907 C 0.87884 0.1252 0.04591 0.0
H908 H 0.83532 0.05156 0.98492 0.0
C909 C 0.91225 0.13678 0.02136 0.0
C910 C 0.91717 0.11885 0.98302 0.0
H911 H 0.87425 0.14137 0.07425 0.0
H912 H 0.93299 0.16124 0.03148 0.0
C913 C 0.88893 0.08836 0.97001 0.0
C914 C 0.39342 0.86665 0.97658 0.0
C915 C 0.42079 0.89918 0.96609 0.0
H916 H 0.38409 0.81074 0.01081 0.0
C917 C 0.46071 0.89992 0.98313 0.0
H918 H 0.36246 0.86501 0.96398 0.0
C919 C 0.47296 0.86866 0.01003 0.0
C920 C 0.44572 0.83593 0.01974 0.0
H921 H 0.48243 0.92458 0.97575 0.0
H922 H 0.50385 0.86974 0.02292 0.0
C923 C 0.40581 0.83533 0.0031 0.0
C924 C 0.65877 0.41466 0.04584 0.0
C925 C 0.68663 0.44581 0.03327 0.0
H926 H 0.60465 0.37862 0.03141 0.0
C927 C 0.68096 0.46468 -0.00464 0.0
H928 H 0.66345 0.39829 0.0741 0.0
C929 C 0.64846 0.45202 0.97013 0.0
C930 C 0.62031 0.42137 0.98309 0.0
H931 H 0.70203 0.48881 0.98505 0.0
H932 H 0.64545 0.46592 0.94041 0.0
C933 C 0.62532 0.4032 0.02134 0.0
C934 C 0.13313 0.70343 0.00463 0.0
C935 C 0.09297 0.70329 0.02075 0.0
H936 H 0.17657 0.67345 0.96585 0.0
C937 C 0.06538 0.67108 0.01048 0.0
H938 H 0.15508 0.72763 0.01277 0.0
C939 C 0.07752 0.63992 0.98349 0.0
C940 C 0.11769 0.6402 0.96697 0.0
H941 H 0.0343 0.67036 0.02296 0.0
H942 H 0.05552 0.61568 0.97563 0.0
C943 C 0.14542 0.67217 0.97807 0.0
loop_
_geom_bond_atom_site_label_1
_geom_bond_atom_site_label_2
_geom_bond_distance
_geom_bond_site_symmetry_2
_ccdc_geom_bond_type
Co0 O3 1.970 . S
Co0 N17 1.989 . S
Co0 O25 1.967 . S
Co0 O32 1.920 . S
Co1 O4 1.966 . S
Co1 N10 2.022 . S
Co1 N18 1.993 . S
Co1 O26 1.941 . S
C2 O3 1.258 . S
C2 O4 1.263 . S
O3 Co0 1.970 . S
O3 C2 1.258 . S
O4 Co1 1.966 . S
O4 C2 1.263 . S
C5 O6 1.235 . S
C5 O32 1.289 . S
O6 C5 1.235 . S
C7 C9 1.400 . S
C7 N10 1.351 . S
C7 C12 1.501 . S
C8 C9 1.387 . S
C8 N11 1.341 . S
C9 C7 1.400 . S
C9 C8 1.387 . S
N10 Co1 2.022 . S
N10 C7 1.351 . S
N10 N11 1.365 . S
N11 C8 1.341 . S
N11 N10 1.365 . S
N11 H31 0.862 . S
C12 C7 1.501 . S
C12 H13 0.961 . S
C12 H14 0.961 . S
C12 H15 0.960 . S
H13 C12 0.961 . S
H14 C12 0.961 . S
H15 C12 0.960 . S
C16 N17 1.342 . S
C16 C20 1.401 . S
C16 C21 1.499 . S
N17 Co0 1.989 . S
N17 C16 1.342 . S
N17 N18 1.388 . S
N18 Co1 1.993 . S
N18 N17 1.388 . S
N18 C19 1.346 . S
C19 N18 1.346 . S
C19 C20 1.396 . S
C19 C29 1.510 . S
C20 C16 1.401 . S
C20 C19 1.396 . S
C21 C16 1.499 . S
C21 H22 0.959 . S
C21 H23 0.960 . S
C21 H24 0.961 . S
H22 C21 0.959 . S
H23 C21 0.960 . S
H24 C21 0.961 . S
O25 Co0 1.967 . S
O25 C33 1.258 . S
O26 Co1 1.941 . S
O26 C33 1.266 . S
H27 C29 0.959 . S
H28 C29 0.961 . S
C29 C19 1.510 . S
C29 H27 0.959 . S
C29 H28 0.961 . S
C29 H30 0.960 . S
H30 C29 0.960 . S
H31 N11 0.862 . S
O32 Co0 1.920 . S
O32 C5 1.289 . S
C33 O25 1.258 . S
C33 O26 1.266 . S
Co34 O37 1.970 . S
Co34 N51 1.989 . S
Co34 O59 1.967 . S
Co34 O66 1.920 . S
Co35 O38 1.966 . S
Co35 N44 2.022 . S
Co35 N52 1.993 . S
Co35 O60 1.941 . S
C36 O37 1.258 . S
C36 O38 1.263 . S
O37 Co34 1.970 . S
O37 C36 1.258 . S
O38 Co35 1.966 . S
O38 C36 1.263 . S
C39 O40 1.235 . S
C39 O66 1.289 . S
O40 C39 1.235 . S
C41 C43 1.400 . S
C41 N44 1.351 . S
C41 C46 1.501 . S
C42 C43 1.387 . S
C42 N45 1.341 . S
C43 C41 1.400 . S
C43 C42 1.387 . S
N44 Co35 2.022 . S
N44 C41 1.351 . S
N44 N45 1.365 . S
N45 C42 1.341 . S
N45 N44 1.365 . S
N45 H65 0.862 . S
C46 C41 1.501 . S
C46 H47 0.961 . S
C46 H48 0.961 . S
C46 H49 0.960 . S
H47 C46 0.961 . S
H48 C46 0.961 . S
H49 C46 0.960 . S
C50 N51 1.342 . S
C50 C54 1.401 . S
C50 C55 1.499 . S
N51 Co34 1.989 . S
N51 C50 1.342 . S
N51 N52 1.388 . S
N52 Co35 1.993 . S
N52 N51 1.388 . S
N52 C53 1.346 . S
C53 N52 1.346 . S
C53 C54 1.396 . S
C53 C63 1.510 . S
C54 C50 1.401 . S
C54 C53 1.396 . S
C55 C50 1.499 . S
C55 H56 0.959 . S
C55 H57 0.960 . S
C55 H58 0.961 . S
H56 C55 0.959 . S
H57 C55 0.960 . S
H58 C55 0.961 . S
O59 Co34 1.967 . S
O59 C67 1.258 . S
O60 Co35 1.941 . S
O60 C67 1.266 . S
H61 C63 0.959 . S
H62 C63 0.961 . S
C63 C53 1.510 . S
C63 H61 0.959 . S
C63 H62 0.961 . S
C63 H64 0.960 . S
H64 C63 0.960 . S
H65 N45 0.862 . S
O66 Co34 1.920 . S
O66 C39 1.289 . S
C67 O59 1.258 . S
C67 O60 1.266 . S
Co68 O71 1.970 . S
Co68 N85 1.989 . S
Co68 O93 1.967 . S
Co68 O100 1.920 . S
Co69 O72 1.966 1_655 S
Co69 N78 2.022 1_655 S
Co69 N86 1.993 . S
Co69 O94 1.941 . S
C70 O71 1.258 1_455 S
C70 O72 1.263 . S
O71 Co68 1.970 . S
O71 C70 1.258 1_655 S
O72 Co69 1.966 1_455 S
O72 C70 1.263 . S
C73 O74 1.235 . S
C73 O100 1.289 . S
O74 C73 1.235 . S
C75 C77 1.400 . S
C75 N78 1.351 . S
C75 C80 1.501 . S
C76 C77 1.387 . S
C76 N79 1.356 . S
C77 C75 1.400 . S
C77 C76 1.387 . S
N78 Co69 2.022 1_455 S
N78 C75 1.351 . S
N78 N79 1.375 . S
N79 C76 1.356 . S
N79 N78 1.375 . S
N79 H99 0.840 1_455 S
C80 C75 1.501 . S
C80 H81 0.961 . S
C80 H82 0.961 . S
C80 H83 0.960 . S
H81 C80 0.961 . S
H82 C80 0.961 . S
H83 C80 0.960 . S
C84 N85 1.342 . S
C84 C88 1.401 . S
C84 C89 1.499 . S
N85 Co68 1.989 . S
N85 C84 1.342 . S
N85 N86 1.388 . S
N86 Co69 1.993 . S
N86 N85 1.388 . S
N86 C87 1.346 . S
C87 N86 1.346 . S
C87 C88 1.396 . S
C87 C97 1.510 . S
C88 C84 1.401 . S
C88 C87 1.396 . S
C89 C84 1.499 . S
C89 H90 0.959 . S
C89 H91 0.960 . S
C89 H92 0.961 . S
H90 C89 0.959 . S
H91 C89 0.960 . S
H92 C89 0.961 . S
O93 Co68 1.967 . S
O93 C101 1.258 . S
O94 Co69 1.941 . S
O94 C101 1.266 . S
H95 C97 0.959 . S
H96 C97 0.961 . S
C97 C87 1.510 . S
C97 H95 0.959 . S
C97 H96 0.961 . S
C97 H98 0.960 . S
H98 C97 0.960 . S
H99 N79 0.840 1_655 S
O100 Co68 1.920 . S
O100 C73 1.289 . S
C101 O93 1.258 . S
C101 O94 1.266 . S
Co102 O105 1.970 . S
Co102 N119 1.989 . S
Co102 O127 1.967 . S
Co102 O134 1.920 . S
Co103 O106 1.966 1_565 S
Co103 N112 2.022 1_565 S
Co103 N120 1.993 . S
Co103 O128 1.941 . S
C104 O105 1.258 1_545 S
C104 O106 1.263 . S
O105 Co102 1.970 . S
O105 C104 1.258 1_565 S
O106 Co103 1.966 1_545 S
O106 C104 1.263 . S
C107 O108 1.235 . S
C107 O134 1.289 . S
O108 C107 1.235 . S
C109 C111 1.400 . S
C109 N112 1.351 . S
C109 C114 1.501 . S
C110 C111 1.387 . S
C110 N113 1.356 . S
C111 C109 1.400 . S
C111 C110 1.387 . S
N112 Co103 2.022 1_545 S
N112 C109 1.351 . S
N112 N113 1.375 . S
N113 C110 1.356 . S
N113 N112 1.375 . S
N113 H133 0.840 1_545 S
C114 C109 1.501 . S
C114 H115 0.961 . S
C114 H116 0.961 . S
C114 H117 0.960 . S
H115 C114 0.961 . S
H116 C114 0.961 . S
H117 C114 0.960 . S
C118 N119 1.342 . S
C118 C122 1.401 . S
C118 C123 1.499 . S
N119 Co102 1.989 . S
N119 C118 1.342 . S
N119 N120 1.388 . S
N120 Co103 1.993 . S
N120 N119 1.388 . S
N120 C121 1.346 . S
C121 N120 1.346 . S
C121 C122 1.396 . S
C121 C131 1.510 . S
C122 C118 1.401 . S
C122 C121 1.396 . S
C123 C118 1.499 . S
C123 H124 0.959 . S
C123 H125 0.960 . S
C123 H126 0.961 . S
H124 C123 0.959 . S
H125 C123 0.960 . S
H126 C123 0.961 . S
O127 Co102 1.967 . S
O127 C135 1.258 . S
O128 Co103 1.941 . S
O128 C135 1.266 . S
H129 C131 0.959 . S
H130 C131 0.961 . S
C131 C121 1.510 . S
C131 H129 0.959 . S
C131 H130 0.961 . S
C131 H132 0.960 . S
H132 C131 0.960 . S
H133 N113 0.840 1_565 S
O134 Co102 1.920 . S
O134 C107 1.289 . S
C135 O127 1.258 . S
C135 O128 1.266 . S
Co136 O139 1.970 . S
Co136 N153 1.989 . S
Co136 O161 1.967 . S
Co136 O168 1.920 . S
Co137 O140 1.966 1_455 S
Co137 N146 2.022 1_455 S
Co137 N154 1.993 . S
Co137 O162 1.941 . S
C138 O139 1.258 1_655 S
C138 O140 1.263 . S
O139 Co136 1.970 . S
O139 C138 1.258 1_455 S
O140 Co137 1.966 1_655 S
O140 C138 1.263 . S
C141 O142 1.235 . S
C141 O168 1.289 . S
O142 C141 1.235 . S
C143 C145 1.400 . S
C143 N146 1.351 . S
C143 C148 1.501 . S
C144 C145 1.387 . S
C144 N147 1.356 . S
C145 C143 1.400 . S
C145 C144 1.387 . S
N146 Co137 2.022 1_655 S
N146 C143 1.351 . S
N146 N147 1.375 . S
N147 C144 1.356 . S
N147 N146 1.375 . S
N147 H167 0.840 1_655 S
C148 C143 1.501 . S
C148 H149 0.961 . S
C148 H150 0.961 . S
C148 H151 0.960 . S
H149 C148 0.961 . S
H150 C148 0.961 . S
H151 C148 0.960 . S
C152 N153 1.342 . S
C152 C156 1.401 . S
C152 C157 1.499 . S
N153 Co136 1.989 . S
N153 C152 1.342 . S
N153 N154 1.388 . S
N154 Co137 1.993 . S
N154 N153 1.388 . S
N154 C155 1.346 . S
C155 N154 1.346 . S
C155 C156 1.396 . S
C155 C165 1.510 . S
C156 C152 1.401 . S
C156 C155 1.396 . S
C157 C152 1.499 . S
C157 H158 0.959 . S
C157 H159 0.960 . S
C157 H160 0.961 . S
H158 C157 0.959 . S
H159 C157 0.960 . S
H160 C157 0.961 . S
O161 Co136 1.967 . S
O161 C169 1.258 . S
O162 Co137 1.941 . S
O162 C169 1.266 . S
H163 C165 0.959 . S
H164 C165 0.961 . S
C165 C155 1.510 . S
C165 H163 0.959 . S
C165 H164 0.961 . S
C165 H166 0.960 . S
H166 C165 0.960 . S
H167 N147 0.840 1_455 S
O168 Co136 1.920 . S
O168 C141 1.289 . S
C169 O161 1.258 . S
C169 O162 1.266 . S
Co170 O173 1.970 . S
Co170 N187 1.989 . S
Co170 O195 1.967 . S
Co170 O202 1.920 . S
Co171 O174 1.966 1_545 S
Co171 N180 2.022 1_545 S
Co171 N188 1.993 . S
Co171 O196 1.941 . S
C172 O173 1.258 1_565 S
C172 O174 1.263 . S
O173 Co170 1.970 . S
O173 C172 1.258 1_545 S
O174 Co171 1.966 1_565 S
O174 C172 1.263 . S
C175 O176 1.235 . S
C175 O202 1.289 . S
O176 C175 1.235 . S
C177 C179 1.400 . S
C177 N180 1.351 . S
C177 C182 1.501 . S
C178 C179 1.387 . S
C178 N181 1.356 . S
C179 C177 1.400 . S
C179 C178 1.387 . S
N180 Co171 2.022 1_565 S
N180 C177 1.351 . S
N180 N181 1.375 . S
N181 C178 1.356 . S
N181 N180 1.375 . S
N181 H201 0.840 1_565 S
C182 C177 1.501 . S
C182 H183 0.961 . S
C182 H184 0.961 . S
C182 H185 0.960 . S
H183 C182 0.961 . S
H184 C182 0.961 . S
H185 C182 0.960 . S
C186 N187 1.342 . S
C186 C190 1.401 . S
C186 C191 1.499 . S
N187 Co170 1.989 . S
N187 C186 1.342 . S
N187 N188 1.388 . S
N188 Co171 1.993 . S
N188 N187 1.388 . S
N188 C189 1.346 . S
C189 N188 1.346 . S
C189 C190 1.396 . S
C189 C199 1.510 . S
C190 C186 1.401 . S
C190 C189 1.396 . S
C191 C186 1.499 . S
C191 H192 0.959 . S
C191 H193 0.960 . S
C191 H194 0.961 . S
H192 C191 0.959 . S
H193 C191 0.960 . S
H194 C191 0.961 . S
O195 Co170 1.967 . S
O195 C203 1.258 . S
O196 Co171 1.941 . S
O196 C203 1.266 . S
H197 C199 0.959 . S
H198 C199 0.961 . S
C199 C189 1.510 . S
C199 H197 0.959 . S
C199 H198 0.961 . S
C199 H200 0.960 . S
H200 C199 0.960 . S
H201 N181 0.840 1_545 S
O202 Co170 1.920 . S
O202 C175 1.289 . S
C203 O195 1.258 . S
C203 O196 1.266 . S
Co204 O207 1.970 . S
Co204 N221 1.989 . S
Co204 O229 1.967 . S
Co204 O236 1.920 . S
Co205 O208 1.966 . S
Co205 N214 2.022 . S
Co205 N222 1.993 . S
Co205 O230 1.941 . S
C206 O207 1.258 . S
C206 O208 1.263 . S
O207 Co204 1.970 . S
O207 C206 1.258 . S
O208 Co205 1.966 . S
O208 C206 1.263 . S
C209 O210 1.235 . S
C209 O236 1.289 . S
O210 C209 1.235 . S
C211 C213 1.400 . S
C211 N214 1.351 . S
C211 C216 1.501 . S
C212 C213 1.387 . S
C212 N215 1.341 . S
C213 C211 1.400 . S
C213 C212 1.387 . S
N214 Co205 2.022 . S
N214 C211 1.351 . S
N214 N215 1.365 . S
N215 C212 1.341 . S
N215 N214 1.365 . S
N215 H235 0.862 . S
C216 C211 1.501 . S
C216 H217 0.961 . S
C216 H218 0.961 . S
C216 H219 0.960 . S
H217 C216 0.961 . S
H218 C216 0.961 . S
H219 C216 0.960 . S
C220 N221 1.342 . S
C220 C224 1.401 . S
C220 C225 1.499 . S
N221 Co204 1.989 . S
N221 C220 1.342 . S
N221 N222 1.388 . S
N222 Co205 1.993 . S
N222 N221 1.388 . S
N222 C223 1.346 . S
C223 N222 1.346 . S
C223 C224 1.396 . S
C223 C233 1.510 . S
C224 C220 1.401 . S
C224 C223 1.396 . S
C225 C220 1.499 . S
C225 H226 0.959 . S
C225 H227 0.960 . S
C225 H228 0.961 . S
H226 C225 0.959 . S
H227 C225 0.960 . S
H228 C225 0.961 . S
O229 Co204 1.967 . S
O229 C237 1.258 . S
O230 Co205 1.941 . S
O230 C237 1.266 . S
H231 C233 0.959 . S
H232 C233 0.961 . S
C233 C223 1.510 . S
C233 H231 0.959 . S
C233 H232 0.961 . S
C233 H234 0.960 . S
H234 C233 0.960 . S
H235 N215 0.862 . S
O236 Co204 1.920 . S
O236 C209 1.289 . S
C237 O229 1.258 . S
C237 O230 1.266 . S
Co238 O241 1.970 . S
Co238 N255 1.989 . S
Co238 O263 1.967 . S
Co238 O270 1.920 . S
Co239 O242 1.966 . S
Co239 N248 2.022 . S
Co239 N256 1.993 . S
Co239 O264 1.941 . S
C240 O241 1.258 . S
C240 O242 1.263 . S
O241 Co238 1.970 . S
O241 C240 1.258 . S
O242 Co239 1.966 . S
O242 C240 1.263 . S
C243 O244 1.235 . S
C243 O270 1.289 . S
O244 C243 1.235 . S
C245 C247 1.400 . S
C245 N248 1.351 . S
C245 C250 1.501 . S
C246 C247 1.387 . S
C246 N249 1.341 . S
C247 C245 1.400 . S
C247 C246 1.387 . S
N248 Co239 2.022 . S
N248 C245 1.351 . S
N248 N249 1.365 . S
N249 C246 1.341 . S
N249 N248 1.365 . S
N249 H269 0.862 . S
C250 C245 1.501 . S
C250 H251 0.961 . S
C250 H252 0.961 . S
C250 H253 0.960 . S
H251 C250 0.961 . S
H252 C250 0.961 . S
H253 C250 0.960 . S
C254 N255 1.342 . S
C254 C258 1.401 . S
C254 C259 1.499 . S
N255 Co238 1.989 . S
N255 C254 1.342 . S
N255 N256 1.388 . S
N256 Co239 1.993 . S
N256 N255 1.388 . S
N256 C257 1.346 . S
C257 N256 1.346 . S
C257 C258 1.396 . S
C257 C267 1.510 . S
C258 C254 1.401 . S
C258 C257 1.396 . S
C259 C254 1.499 . S
C259 H260 0.959 . S
C259 H261 0.960 . S
C259 H262 0.961 . S
H260 C259 0.959 . S
H261 C259 0.960 . S
H262 C259 0.961 . S
O263 Co238 1.967 . S
O263 C271 1.258 . S
O264 Co239 1.941 . S
O264 C271 1.266 . S
H265 C267 0.959 . S
H266 C267 0.961 . S
C267 C257 1.510 . S
C267 H265 0.959 . S
C267 H266 0.961 . S
C267 H268 0.960 . S
H268 C267 0.960 . S
H269 N249 0.862 . S
O270 Co238 1.920 . S
O270 C243 1.289 . S
C271 O263 1.258 . S
C271 O264 1.266 . S
Co272 O275 1.970 . S
Co272 N289 1.989 . S
Co272 O297 1.967 . S
Co272 O304 1.920 . S
Co273 O276 1.966 . S
Co273 N282 2.022 . S
Co273 N290 1.993 . S
Co273 O298 1.941 . S
C274 O275 1.258 . S
C274 O276 1.263 . S
O275 Co272 1.970 . S
O275 C274 1.258 . S
O276 Co273 1.966 . S
O276 C274 1.263 . S
C277 O278 1.235 . S
C277 O304 1.289 . S
O278 C277 1.235 . S
C279 C281 1.400 . S
C279 N282 1.351 . S
C279 C284 1.501 . S
C280 C281 1.387 . S
C280 N283 1.341 . S
C281 C279 1.400 . S
C281 C280 1.387 . S
N282 Co273 2.022 . S
N282 C279 1.351 . S
N282 N283 1.365 . S
N283 C280 1.341 . S
N283 N282 1.365 . S
N283 H303 0.862 . S
C284 C279 1.501 . S
C284 H285 0.961 . S
C284 H286 0.961 . S
C284 H287 0.960 . S
H285 C284 0.961 . S
H286 C284 0.961 . S
H287 C284 0.960 . S
C288 N289 1.342 . S
C288 C292 1.401 . S
C288 C293 1.499 . S
N289 Co272 1.989 . S
N289 C288 1.342 . S
N289 N290 1.388 . S
N290 Co273 1.993 . S
N290 N289 1.388 . S
N290 C291 1.346 . S
C291 N290 1.346 . S
C291 C292 1.396 . S
C291 C301 1.510 . S
C292 C288 1.401 . S
C292 C291 1.396 . S
C293 C288 1.499 . S
C293 H294 0.959 . S
C293 H295 0.960 . S
C293 H296 0.961 . S
H294 C293 0.959 . S
H295 C293 0.960 . S
H296 C293 0.961 . S
O297 Co272 1.967 . S
O297 C305 1.258 . S
O298 Co273 1.941 . S
O298 C305 1.266 . S
H299 C301 0.959 . S
H300 C301 0.961 . S
C301 C291 1.510 . S
C301 H299 0.959 . S
C301 H300 0.961 . S
C301 H302 0.960 . S
H302 C301 0.960 . S
H303 N283 0.862 . S
O304 Co272 1.920 . S
O304 C277 1.289 . S
C305 O297 1.258 . S
C305 O298 1.266 . S
Co306 O309 1.970 . S
Co306 N323 1.989 . S
Co306 O331 1.967 . S
Co306 O338 1.920 . S
Co307 O310 1.966 . S
Co307 N316 2.022 . S
Co307 N324 1.993 . S
Co307 O332 1.941 . S
C308 O309 1.258 . S
C308 O310 1.263 . S
O309 Co306 1.970 . S
O309 C308 1.258 . S
O310 Co307 1.966 . S
O310 C308 1.263 . S
C311 O312 1.235 . S
C311 O338 1.289 . S
O312 C311 1.235 . S
C313 C315 1.400 . S
C313 N316 1.351 . S
C313 C318 1.501 . S
C314 C315 1.387 . S
C314 N317 1.341 . S
C315 C313 1.400 . S
C315 C314 1.387 . S
N316 Co307 2.022 . S
N316 C313 1.351 . S
N316 N317 1.365 . S
N317 C314 1.341 . S
N317 N316 1.365 . S
N317 H337 0.862 . S
C318 C313 1.501 . S
C318 H319 0.961 . S
C318 H320 0.961 . S
C318 H321 0.960 . S
H319 C318 0.961 . S
H320 C318 0.961 . S
H321 C318 0.960 . S
C322 N323 1.342 . S
C322 C326 1.401 . S
C322 C327 1.499 . S
N323 Co306 1.989 . S
N323 C322 1.342 . S
N323 N324 1.388 . S
N324 Co307 1.993 . S
N324 N323 1.388 . S
N324 C325 1.346 . S
C325 N324 1.346 . S
C325 C326 1.396 . S
C325 C335 1.510 . S
C326 C322 1.401 . S
C326 C325 1.396 . S
C327 C322 1.499 . S
C327 H328 0.959 . S
C327 H329 0.960 . S
C327 H330 0.961 . S
H328 C327 0.959 . S
H329 C327 0.960 . S
H330 C327 0.961 . S
O331 Co306 1.967 . S
O331 C339 1.258 . S
O332 Co307 1.941 . S
O332 C339 1.266 . S
H333 C335 0.959 . S
H334 C335 0.961 . S
C335 C325 1.510 . S
C335 H333 0.959 . S
C335 H334 0.961 . S
C335 H336 0.960 . S
H336 C335 0.960 . S
H337 N317 0.862 . S
O338 Co306 1.920 . S
O338 C311 1.289 . S
C339 O331 1.258 . S
C339 O332 1.266 . S
Co340 O343 1.970 . S
Co340 N357 1.989 . S
Co340 O365 1.967 . S
Co340 O372 1.920 . S
Co341 O344 1.966 1_455 S
Co341 N350 2.022 1_455 S
Co341 N358 1.993 . S
Co341 O366 1.941 . S
C342 O343 1.258 1_655 S
C342 O344 1.263 . S
O343 Co340 1.970 . S
O343 C342 1.258 1_455 S
O344 Co341 1.966 1_655 S
O344 C342 1.263 . S
C345 O346 1.235 . S
C345 O372 1.289 . S
O346 C345 1.235 . S
C347 C349 1.400 . S
C347 N350 1.351 . S
C347 C352 1.501 . S
C348 C349 1.387 . S
C348 N351 1.356 . S
C349 C347 1.400 . S
C349 C348 1.387 . S
N350 Co341 2.022 1_655 S
N350 C347 1.351 . S
N350 N351 1.375 . S
N351 C348 1.356 . S
N351 N350 1.375 . S
N351 H371 0.840 1_655 S
C352 C347 1.501 . S
C352 H353 0.961 . S
C352 H354 0.961 . S
C352 H355 0.960 . S
H353 C352 0.961 . S
H354 C352 0.961 . S
H355 C352 0.960 . S
C356 N357 1.342 . S
C356 C360 1.401 . S
C356 C361 1.499 . S
N357 Co340 1.989 . S
N357 C356 1.342 . S
N357 N358 1.388 . S
N358 Co341 1.993 . S
N358 N357 1.388 . S
N358 C359 1.346 . S
C359 N358 1.346 . S
C359 C360 1.396 . S
C359 C369 1.510 . S
C360 C356 1.401 . S
C360 C359 1.396 . S
C361 C356 1.499 . S
C361 H362 0.959 . S
C361 H363 0.960 . S
C361 H364 0.961 . S
H362 C361 0.959 . S
H363 C361 0.960 . S
H364 C361 0.961 . S
O365 Co340 1.967 . S
O365 C373 1.258 . S
O366 Co341 1.941 . S
O366 C373 1.266 . S
H367 C369 0.959 . S
H368 C369 0.961 . S
C369 C359 1.510 . S
C369 H367 0.959 . S
C369 H368 0.961 . S
C369 H370 0.960 . S
H370 C369 0.960 . S
H371 N351 0.840 1_455 S
O372 Co340 1.920 . S
O372 C345 1.289 . S
C373 O365 1.258 . S
C373 O366 1.266 . S
Co374 O377 1.970 . S
Co374 N391 1.989 . S
Co374 O399 1.967 . S
Co374 O406 1.920 . S
Co375 O378 1.966 1_545 S
Co375 N384 2.022 1_545 S
Co375 N392 1.993 . S
Co375 O400 1.941 . S
C376 O377 1.258 1_565 S
C376 O378 1.263 . S
O377 Co374 1.970 . S
O377 C376 1.258 1_545 S
O378 Co375 1.966 1_565 S
O378 C376 1.263 . S
C379 O380 1.235 . S
C379 O406 1.289 . S
O380 C379 1.235 . S
C381 C383 1.400 . S
C381 N384 1.351 . S
C381 C386 1.501 . S
C382 C383 1.387 . S
C382 N385 1.356 . S
C383 C381 1.400 . S
C383 C382 1.387 . S
N384 Co375 2.022 1_565 S
N384 C381 1.351 . S
N384 N385 1.375 . S
N385 C382 1.356 . S
N385 N384 1.375 . S
N385 H405 0.840 1_565 S
C386 C381 1.501 . S
C386 H387 0.961 . S
C386 H388 0.961 . S
C386 H389 0.960 . S
H387 C386 0.961 . S
H388 C386 0.961 . S
H389 C386 0.960 . S
C390 N391 1.342 . S
C390 C394 1.401 . S
C390 C395 1.499 . S
N391 Co374 1.989 . S
N391 C390 1.342 . S
N391 N392 1.388 . S
N392 Co375 1.993 . S
N392 N391 1.388 . S
N392 C393 1.346 . S
C393 N392 1.346 . S
C393 C394 1.396 . S
C393 C403 1.510 . S
C394 C390 1.401 . S
C394 C393 1.396 . S
C395 C390 1.499 . S
C395 H396 0.959 . S
C395 H397 0.960 . S
C395 H398 0.961 . S
H396 C395 0.959 . S
H397 C395 0.960 . S
H398 C395 0.961 . S
O399 Co374 1.967 . S
O399 C407 1.258 . S
O400 Co375 1.941 . S
O400 C407 1.266 . S
H401 C403 0.959 . S
H402 C403 0.961 . S
C403 C393 1.510 . S
C403 H401 0.959 . S
C403 H402 0.961 . S
C403 H404 0.960 . S
H404 C403 0.960 . S
H405 N385 0.840 1_545 S
O406 Co374 1.920 . S
O406 C379 1.289 . S
C407 O399 1.258 . S
C407 O400 1.266 . S
Co408 O411 1.970 . S
Co408 N425 1.989 . S
Co408 O433 1.967 . S
Co408 O440 1.920 . S
Co409 O412 1.966 1_655 S
Co409 N418 2.022 1_655 S
Co409 N426 1.993 . S
Co409 O434 1.941 . S
C410 O411 1.258 1_455 S
C410 O412 1.263 . S
O411 Co408 1.970 . S
O411 C410 1.258 1_655 S
O412 Co409 1.966 1_455 S
O412 C410 1.263 . S
C413 O414 1.235 . S
C413 O440 1.289 . S
O414 C413 1.235 . S
C415 C417 1.400 . S
C415 N418 1.351 . S
C415 C420 1.501 . S
C416 C417 1.387 . S
C416 N419 1.356 . S
C417 C415 1.400 . S
C417 C416 1.387 . S
N418 Co409 2.022 1_455 S
N418 C415 1.351 . S
N418 N419 1.375 . S
N419 C416 1.356 . S
N419 N418 1.375 . S
N419 H439 0.840 1_455 S
C420 C415 1.501 . S
C420 H421 0.961 . S
C420 H422 0.961 . S
C420 H423 0.960 . S
H421 C420 0.961 . S
H422 C420 0.961 . S
H423 C420 0.960 . S
C424 N425 1.342 . S
C424 C428 1.401 . S
C424 C429 1.499 . S
N425 Co408 1.989 . S
N425 C424 1.342 . S
N425 N426 1.388 . S
N426 Co409 1.993 . S
N426 N425 1.388 . S
N426 C427 1.346 . S
C427 N426 1.346 . S
C427 C428 1.396 . S
C427 C437 1.510 . S
C428 C424 1.401 . S
C428 C427 1.396 . S
C429 C424 1.499 . S
C429 H430 0.959 . S
C429 H431 0.960 . S
C429 H432 0.961 . S
H430 C429 0.959 . S
H431 C429 0.960 . S
H432 C429 0.961 . S
O433 Co408 1.967 . S
O433 C441 1.258 . S
O434 Co409 1.941 . S
O434 C441 1.266 . S
H435 C437 0.959 . S
H436 C437 0.961 . S
C437 C427 1.510 . S
C437 H435 0.959 . S
C437 H436 0.961 . S
C437 H438 0.960 . S
H438 C437 0.960 . S
H439 N419 0.840 1_655 S
O440 Co408 1.920 . S
O440 C413 1.289 . S
C441 O433 1.258 . S
C441 O434 1.266 . S
Co442 O445 1.970 . S
Co442 N459 1.989 . S
Co442 O467 1.967 . S
Co442 O474 1.920 . S
Co443 O446 1.966 1_565 S
Co443 N452 2.022 1_565 S
Co443 N460 1.993 . S
Co443 O468 1.941 . S
C444 O445 1.258 1_545 S
C444 O446 1.263 . S
O445 Co442 1.970 . S
O445 C444 1.258 1_565 S
O446 Co443 1.966 1_545 S
O446 C444 1.263 . S
C447 O448 1.235 . S
C447 O474 1.289 . S
O448 C447 1.235 . S
C449 C451 1.400 . S
C449 N452 1.351 . S
C449 C454 1.501 . S
C450 C451 1.387 . S
C450 N453 1.356 . S
C451 C449 1.400 . S
C451 C450 1.387 . S
N452 Co443 2.022 1_545 S
N452 C449 1.351 . S
N452 N453 1.375 . S
N453 C450 1.356 . S
N453 N452 1.375 . S
N453 H473 0.840 1_545 S
C454 C449 1.501 . S
C454 H455 0.961 . S
C454 H456 0.961 . S
C454 H457 0.960 . S
H455 C454 0.961 . S
H456 C454 0.961 . S
H457 C454 0.960 . S
C458 N459 1.342 . S
C458 C462 1.401 . S
C458 C463 1.499 . S
N459 Co442 1.989 . S
N459 C458 1.342 . S
N459 N460 1.388 . S
N460 Co443 1.993 . S
N460 N459 1.388 . S
N460 C461 1.346 . S
C461 N460 1.346 . S
C461 C462 1.396 . S
C461 C471 1.510 . S
C462 C458 1.401 . S
C462 C461 1.396 . S
C463 C458 1.499 . S
C463 H464 0.959 . S
C463 H465 0.960 . S
C463 H466 0.961 . S
H464 C463 0.959 . S
H465 C463 0.960 . S
H466 C463 0.961 . S
O467 Co442 1.967 . S
O467 C475 1.258 . S
O468 Co443 1.941 . S
O468 C475 1.266 . S
H469 C471 0.959 . S
H470 C471 0.961 . S
C471 C461 1.510 . S
C471 H469 0.959 . S
C471 H470 0.961 . S
C471 H472 0.960 . S
H472 C471 0.960 . S
H473 N453 0.840 1_565 S
O474 Co442 1.920 . S
O474 C447 1.289 . S
C475 O467 1.258 . S
C475 O468 1.266 . S
Co476 O479 1.970 . S
Co476 N493 1.989 . S
Co476 O501 1.967 . S
Co476 O508 1.920 . S
Co477 O480 1.966 . S
Co477 N486 2.022 . S
Co477 N494 1.993 . S
Co477 O502 1.941 . S
C478 O479 1.258 . S
C478 O480 1.263 . S
O479 Co476 1.970 . S
O479 C478 1.258 . S
O480 Co477 1.966 . S
O480 C478 1.263 . S
C481 O482 1.235 . S
C481 O508 1.289 . S
O482 C481 1.235 . S
C483 C485 1.400 . S
C483 N486 1.351 . S
C483 C488 1.501 . S
C484 C485 1.387 . S
C484 N487 1.341 . S
C485 C483 1.400 . S
C485 C484 1.387 . S
N486 Co477 2.022 . S
N486 C483 1.351 . S
N486 N487 1.365 . S
N487 C484 1.341 . S
N487 N486 1.365 . S
N487 H507 0.862 . S
C488 C483 1.501 . S
C488 H489 0.961 . S
C488 H490 0.961 . S
C488 H491 0.960 . S
H489 C488 0.961 . S
H490 C488 0.961 . S
H491 C488 0.960 . S
C492 N493 1.342 . S
C492 C496 1.401 . S
C492 C497 1.499 . S
N493 Co476 1.989 . S
N493 C492 1.342 . S
N493 N494 1.388 . S
N494 Co477 1.993 . S
N494 N493 1.388 . S
N494 C495 1.346 . S
C495 N494 1.346 . S
C495 C496 1.396 . S
C495 C505 1.510 . S
C496 C492 1.401 . S
C496 C495 1.396 . S
C497 C492 1.499 . S
C497 H498 0.959 . S
C497 H499 0.960 . S
C497 H500 0.961 . S
H498 C497 0.959 . S
H499 C497 0.960 . S
H500 C497 0.961 . S
O501 Co476 1.967 . S
O501 C509 1.258 . S
O502 Co477 1.941 . S
O502 C509 1.266 . S
H503 C505 0.959 . S
H504 C505 0.961 . S
C505 C495 1.510 . S
C505 H503 0.959 . S
C505 H504 0.961 . S
C505 H506 0.960 . S
H506 C505 0.960 . S
H507 N487 0.862 . S
O508 Co476 1.920 . S
O508 C481 1.289 . S
C509 O501 1.258 . S
C509 O502 1.266 . S
Co510 O513 1.970 . S
Co510 N527 1.989 . S
Co510 O535 1.967 . S
Co510 O542 1.920 . S
Co511 O514 1.966 . S
Co511 N520 2.022 . S
Co511 N528 1.993 . S
Co511 O536 1.941 . S
C512 O513 1.258 . S
C512 O514 1.263 . S
O513 Co510 1.970 . S
O513 C512 1.258 . S
O514 Co511 1.966 . S
O514 C512 1.263 . S
C515 O516 1.235 . S
C515 O542 1.289 . S
O516 C515 1.235 . S
C517 C519 1.400 . S
C517 N520 1.351 . S
C517 C522 1.501 . S
C518 C519 1.387 . S
C518 N521 1.341 . S
C519 C517 1.400 . S
C519 C518 1.387 . S
N520 Co511 2.022 . S
N520 C517 1.351 . S
N520 N521 1.365 . S
N521 C518 1.341 . S
N521 N520 1.365 . S
N521 H541 0.862 . S
C522 C517 1.501 . S
C522 H523 0.961 . S
C522 H524 0.961 . S
C522 H525 0.960 . S
H523 C522 0.961 . S
H524 C522 0.961 . S
H525 C522 0.960 . S
C526 N527 1.342 . S
C526 C530 1.401 . S
C526 C531 1.499 . S
N527 Co510 1.989 . S
N527 C526 1.342 . S
N527 N528 1.388 . S
N528 Co511 1.993 . S
N528 N527 1.388 . S
N528 C529 1.346 . S
C529 N528 1.346 . S
C529 C530 1.396 . S
C529 C539 1.510 . S
C530 C526 1.401 . S
C530 C529 1.396 . S
C531 C526 1.499 . S
C531 H532 0.959 . S
C531 H533 0.960 . S
C531 H534 0.961 . S
H532 C531 0.959 . S
H533 C531 0.960 . S
H534 C531 0.961 . S
O535 Co510 1.967 . S
O535 C543 1.258 . S
O536 Co511 1.941 . S
O536 C543 1.266 . S
H537 C539 0.959 . S
H538 C539 0.961 . S
C539 C529 1.510 . S
C539 H537 0.959 . S
C539 H538 0.961 . S
C539 H540 0.960 . S
H540 C539 0.960 . S
H541 N521 0.862 . S
O542 Co510 1.920 . S
O542 C515 1.289 . S
C543 O535 1.258 . S
C543 O536 1.266 . S
C544 C545 1.387 . S
C544 H548 0.950 . S
C544 C553 1.390 . S
C545 C544 1.387 . S
C545 C547 1.387 . S
H546 C553 0.950 . S
C547 C545 1.387 . S
C547 C549 1.390 . S
C547 H551 0.950 . S
H548 C544 0.950 . S
C549 C547 1.390 . S
C549 C550 1.387 . S
C549 H552 0.950 . S
C550 C549 1.387 . S
C550 C553 1.387 . S
H551 C547 0.950 . S
H552 C549 0.950 . S
C553 C544 1.390 . S
C553 H546 0.950 . S
C553 C550 1.387 . S
C554 C555 1.387 . S
C554 H558 0.950 . S
C554 C563 1.390 . S
C555 C554 1.387 . S
C555 C557 1.387 . S
H556 C563 0.950 . S
C557 C555 1.387 . S
C557 C559 1.390 . S
C557 H561 0.950 . S
H558 C554 0.950 . S
C559 C557 1.390 . S
C559 C560 1.387 . S
C559 H562 0.950 . S
C560 C559 1.387 . S
C560 C563 1.387 . S
H561 C557 0.950 . S
H562 C559 0.950 . S
C563 C554 1.390 . S
C563 H556 0.950 . S
C563 C560 1.387 . S
C564 C565 1.387 . S
C564 H568 0.950 . S
C564 C573 1.390 . S
C565 C564 1.387 . S
C565 C567 1.387 . S
H566 C573 0.950 . S
C567 C565 1.387 . S
C567 C569 1.390 . S
C567 H571 0.950 . S
H568 C564 0.950 . S
C569 C567 1.390 . S
C569 C570 1.387 . S
C569 H572 0.950 . S
C570 C569 1.387 . S
C570 C573 1.387 . S
H571 C567 0.950 . S
H572 C569 0.950 . S
C573 C564 1.390 . S
C573 H566 0.950 . S
C573 C570 1.387 . S
C574 C575 1.387 . S
C574 H578 0.950 . S
C574 C583 1.390 . S
C575 C574 1.387 . S
C575 C577 1.387 . S
H576 C583 0.950 . S
C577 C575 1.387 . S
C577 C579 1.390 . S
C577 H581 0.950 . S
H578 C574 0.950 . S
C579 C577 1.390 . S
C579 C580 1.387 . S
C579 H582 0.950 . S
C580 C579 1.387 . S
C580 C583 1.387 . S
H581 C577 0.950 . S
H582 C579 0.950 . S
C583 C574 1.390 . S
C583 H576 0.950 . S
C583 C580 1.387 . S
C584 C585 1.387 . S
C584 H588 0.950 . S
C584 C593 1.390 . S
C585 C584 1.387 . S
C585 C587 1.387 . S
H586 C593 0.950 . S
C587 C585 1.387 . S
C587 C589 1.390 . S
C587 H591 0.950 . S
H588 C584 0.950 . S
C589 C587 1.390 . S
C589 C590 1.387 . S
C589 H592 0.950 . S
C590 C589 1.387 . S
C590 C593 1.387 . S
H591 C587 0.950 . S
H592 C589 0.950 . S
C593 C584 1.390 . S
C593 H586 0.950 . S
C593 C590 1.387 . S
C594 C595 1.387 . S
C594 H598 0.950 . S
C594 C603 1.390 . S
C595 C594 1.387 . S
C595 C597 1.387 . S
H596 C603 0.950 . S
C597 C595 1.387 . S
C597 C599 1.390 . S
C597 H601 0.950 . S
H598 C594 0.950 . S
C599 C597 1.390 . S
C599 C600 1.387 . S
C599 H602 0.950 . S
C600 C599 1.387 . S
C600 C603 1.387 . S
H601 C597 0.950 . S
H602 C599 0.950 . S
C603 C594 1.390 . S
C603 H596 0.950 . S
C603 C600 1.387 . S
C604 C605 1.387 . S
C604 H608 0.950 . S
C604 C613 1.390 . S
C605 C604 1.387 . S
C605 C607 1.387 . S
H606 C613 0.950 . S
C607 C605 1.387 . S
C607 C609 1.390 . S
C607 H611 0.950 . S
H608 C604 0.950 . S
C609 C607 1.390 . S
C609 C610 1.387 . S
C609 H612 0.950 . S
C610 C609 1.387 . S
C610 C613 1.387 . S
H611 C607 0.950 . S
H612 C609 0.950 . S
C613 C604 1.390 . S
C613 H606 0.950 . S
C613 C610 1.387 . S
C614 C615 1.387 . S
C614 H618 0.950 . S
C614 C623 1.390 . S
C615 C614 1.387 . S
C615 C617 1.387 . S
H616 C623 0.950 . S
C617 C615 1.387 . S
C617 C619 1.390 . S
C617 H621 0.950 . S
H618 C614 0.950 . S
C619 C617 1.390 . S
C619 C620 1.387 . S
C619 H622 0.950 . S
C620 C619 1.387 . S
C620 C623 1.387 . S
H621 C617 0.950 . S
H622 C619 0.950 . S
C623 C614 1.390 . S
C623 H616 0.950 . S
C623 C620 1.387 . S
C624 C625 1.387 . S
C624 H628 0.950 . S
C624 C633 1.390 . S
C625 C624 1.387 . S
C625 C627 1.387 . S
H626 C633 0.950 . S
C627 C625 1.387 . S
C627 C629 1.390 . S
C627 H631 0.950 . S
H628 C624 0.950 . S
C629 C627 1.390 . S
C629 C630 1.387 . S
C629 H632 0.950 . S
C630 C629 1.387 . S
C630 C633 1.387 . S
H631 C627 0.950 . S
H632 C629 0.950 . S
C633 C624 1.390 . S
C633 H626 0.950 . S
C633 C630 1.387 . S
C634 C635 1.387 . S
C634 H638 0.950 . S
C634 C643 1.390 . S
C635 C634 1.387 . S
C635 C637 1.387 . S
H636 C643 0.950 . S
C637 C635 1.387 . S
C637 C639 1.390 . S
C637 H641 0.950 . S
H638 C634 0.950 . S
C639 C637 1.390 . S
C639 C640 1.387 . S
C639 H642 0.950 . S
C640 C639 1.387 . S
C640 C643 1.387 . S
H641 C637 0.950 . S
H642 C639 0.950 . S
C643 C634 1.390 . S
C643 H636 0.950 . S
C643 C640 1.387 . S
C644 C645 1.387 . S
C644 H648 0.950 . S
C644 C653 1.390 . S
C645 C644 1.387 . S
C645 C647 1.387 . S
H646 C653 0.950 . S
C647 C645 1.387 . S
C647 C649 1.390 . S
C647 H651 0.950 . S
H648 C644 0.950 . S
C649 C647 1.390 . S
C649 C650 1.387 . S
C649 H652 0.950 . S
C650 C649 1.387 . S
C650 C653 1.387 . S
H651 C647 0.950 . S
H652 C649 0.950 . S
C653 C644 1.390 . S
C653 H646 0.950 . S
C653 C650 1.387 . S
C654 C655 1.387 . S
C654 H658 0.950 . S
C654 C663 1.390 . S
C655 C654 1.387 . S
C655 C657 1.387 . S
H656 C663 0.950 . S
C657 C655 1.387 . S
C657 C659 1.390 . S
C657 H661 0.950 . S
H658 C654 0.950 . S
C659 C657 1.390 . S
C659 C660 1.387 . S
C659 H662 0.950 . S
C660 C659 1.387 . S
C660 C663 1.387 . S
H661 C657 0.950 . S
H662 C659 0.950 . S
C663 C654 1.390 . S
C663 H656 0.950 . S
C663 C660 1.387 . S
C664 C665 1.387 . S
C664 H668 0.950 . S
C664 C673 1.390 . S
C665 C664 1.387 . S
C665 C667 1.387 . S
H666 C673 0.950 . S
C667 C665 1.387 . S
C667 C669 1.390 . S
C667 H671 0.950 . S
H668 C664 0.950 . S
C669 C667 1.390 . S
C669 C670 1.387 . S
C669 H672 0.950 . S
C670 C669 1.387 . S
C670 C673 1.387 . S
H671 C667 0.950 . S
H672 C669 0.950 . S
C673 C664 1.390 . S
C673 H666 0.950 . S
C673 C670 1.387 . S
C674 C675 1.387 . S
C674 H678 0.950 . S
C674 C683 1.390 . S
C675 C674 1.387 . S
C675 C677 1.387 . S
H676 C683 0.950 . S
C677 C675 1.387 . S
C677 C679 1.390 . S
C677 H681 0.950 . S
H678 C674 0.950 . S
C679 C677 1.390 . S
C679 C680 1.387 . S
C679 H682 0.950 . S
C680 C679 1.387 . S
C680 C683 1.387 . S
H681 C677 0.950 . S
H682 C679 0.950 . S
C683 C674 1.390 . S
C683 H676 0.950 . S
C683 C680 1.387 . S
C684 C685 1.387 . S
C684 H688 0.950 . S
C684 C693 1.390 . S
C685 C684 1.387 . S
C685 C687 1.387 . S
H686 C693 0.950 . S
C687 C685 1.387 . S
C687 C689 1.390 . S
C687 H691 0.950 . S
H688 C684 0.950 . S
C689 C687 1.390 . S
C689 C690 1.387 . S
C689 H692 0.950 . S
C690 C689 1.387 . S
C690 C693 1.387 . S
H691 C687 0.950 . S
H692 C689 0.950 . S
C693 C684 1.390 . S
C693 H686 0.950 . S
C693 C690 1.387 . S
C694 C695 1.387 . S
C694 H698 0.950 . S
C694 C703 1.390 . S
C695 C694 1.387 . S
C695 C697 1.387 . S
H696 C703 0.950 . S
C697 C695 1.387 . S
C697 C699 1.390 . S
C697 H701 0.950 . S
H698 C694 0.950 . S
C699 C697 1.390 . S
C699 C700 1.387 . S
C699 H702 0.950 . S
C700 C699 1.387 . S
C700 C703 1.387 . S
H701 C697 0.950 . S
H702 C699 0.950 . S
C703 C694 1.390 . S
C703 H696 0.950 . S
C703 C700 1.387 . S
C704 C705 1.387 . S
C704 H708 0.950 . S
C704 C713 1.390 . S
C705 C704 1.387 . S
C705 C707 1.387 . S
H706 C713 0.950 . S
C707 C705 1.387 . S
C707 C709 1.390 . S
C707 H711 0.950 . S
H708 C704 0.950 . S
C709 C707 1.390 . S
C709 C710 1.387 . S
C709 H712 0.950 . S
C710 C709 1.387 . S
C710 C713 1.387 . S
H711 C707 0.950 . S
H712 C709 0.950 . S
C713 C704 1.390 . S
C713 H706 0.950 . S
C713 C710 1.387 . S
C714 C715 1.387 . S
C714 H718 0.950 . S
C714 C723 1.390 . S
C715 C714 1.387 . S
C715 C717 1.387 . S
H716 C723 0.950 . S
C717 C715 1.387 . S
C717 C719 1.390 . S
C717 H721 0.950 . S
H718 C714 0.950 . S
C719 C717 1.390 . S
C719 C720 1.387 . S
C719 H722 0.950 . S
C720 C719 1.387 . S
C720 C723 1.387 . S
H721 C717 0.950 . S
H722 C719 0.950 . S
C723 C714 1.390 . S
C723 H716 0.950 . S
C723 C720 1.387 . S
C724 C725 1.387 . S
C724 H728 0.950 . S
C724 C733 1.390 . S
C725 C724 1.387 . S
C725 C727 1.387 . S
H726 C733 0.950 . S
C727 C725 1.387 . S
C727 C729 1.390 . S
C727 H731 0.950 . S
H728 C724 0.950 . S
C729 C727 1.390 . S
C729 C730 1.387 . S
C729 H732 0.950 . S
C730 C729 1.387 . S
C730 C733 1.387 . S
H731 C727 0.950 . S
H732 C729 0.950 . S
C733 C724 1.390 . S
C733 H726 0.950 . S
C733 C730 1.387 . S
C734 C735 1.387 . S
C734 H738 0.950 . S
C734 C743 1.390 . S
C735 C734 1.387 . S
C735 C737 1.387 . S
H736 C743 0.950 . S
C737 C735 1.387 . S
C737 C739 1.390 . S
C737 H741 0.950 . S
H738 C734 0.950 . S
C739 C737 1.390 . S
C739 C740 1.387 . S
C739 H742 0.950 . S
C740 C739 1.387 . S
C740 C743 1.387 . S
H741 C737 0.950 . S
H742 C739 0.950 . S
C743 C734 1.390 . S
C743 H736 0.950 . S
C743 C740 1.387 . S
C744 C745 1.387 . S
C744 H748 0.950 . S
C744 C753 1.390 . S
C745 C744 1.387 . S
C745 C747 1.387 . S
H746 C753 0.950 . S
C747 C745 1.387 . S
C747 C749 1.390 . S
C747 H751 0.950 . S
H748 C744 0.950 . S
C749 C747 1.390 . S
C749 C750 1.387 . S
C749 H752 0.950 . S
C750 C749 1.387 . S
C750 C753 1.387 . S
H751 C747 0.950 . S
H752 C749 0.950 . S
C753 C744 1.390 . S
C753 H746 0.950 . S
C753 C750 1.387 . S
C754 C755 1.387 . S
C754 H758 0.950 . S
C754 C763 1.390 . S
C755 C754 1.387 . S
C755 C757 1.387 . S
H756 C763 0.950 . S
C757 C755 1.387 . S
C757 C759 1.390 . S
C757 H761 0.950 . S
H758 C754 0.950 . S
C759 C757 1.390 . S
C759 C760 1.387 . S
C759 H762 0.950 . S
C760 C759 1.387 . S
C760 C763 1.387 . S
H761 C757 0.950 . S
H762 C759 0.950 . S
C763 C754 1.390 . S
C763 H756 0.950 . S
C763 C760 1.387 . S
C764 C765 1.387 . S
C764 H768 0.950 . S
C764 C773 1.390 . S
C765 C764 1.387 . S
C765 C767 1.387 . S
H766 C773 0.950 . S
C767 C765 1.387 . S
C767 C769 1.390 . S
C767 H771 0.950 . S
H768 C764 0.950 . S
C769 C767 1.390 . S
C769 C770 1.387 . S
C769 H772 0.950 . S
C770 C769 1.387 . S
C770 C773 1.387 . S
H771 C767 0.950 . S
H772 C769 0.950 . S
C773 C764 1.390 . S
C773 H766 0.950 . S
C773 C770 1.387 . S
C774 C775 1.387 . S
C774 H778 0.950 . S
C774 C783 1.390 . S
C775 C774 1.387 . S
C775 C777 1.387 . S
H776 C783 0.950 . S
C777 C775 1.387 . S
C777 C779 1.390 . S
C777 H781 0.950 . S
H778 C774 0.950 . S
C779 C777 1.390 . S
C779 C780 1.387 . S
C779 H782 0.950 . S
C780 C779 1.387 . S
C780 C783 1.387 . S
H781 C777 0.950 . S
H782 C779 0.950 . S
C783 C774 1.390 . S
C783 H776 0.950 . S
C783 C780 1.387 . S
C784 C785 1.387 . S
C784 H788 0.950 . S
C784 C793 1.390 . S
C785 C784 1.387 . S
C785 C787 1.387 . S
H786 C793 0.950 . S
C787 C785 1.387 . S
C787 C789 1.390 . S
C787 H791 0.950 . S
H788 C784 0.950 . S
C789 C787 1.390 . S
C789 C790 1.387 . S
C789 H792 0.950 . S
C790 C789 1.387 . S
C790 C793 1.387 . S
H791 C787 0.950 . S
H792 C789 0.950 . S
C793 C784 1.390 . S
C793 H786 0.950 . S
C793 C790 1.387 . S
C794 C795 1.387 . S
C794 H798 0.950 . S
C794 C803 1.390 . S
C795 C794 1.387 . S
C795 C797 1.387 . S
H796 C803 0.950 . S
C797 C795 1.387 . S
C797 C799 1.390 . S
C797 H801 0.950 . S
H798 C794 0.950 . S
C799 C797 1.390 . S
C799 C800 1.387 . S
C799 H802 0.950 . S
C800 C799 1.387 . S
C800 C803 1.387 . S
H801 C797 0.950 . S
H802 C799 0.950 . S
C803 C794 1.390 . S
C803 H796 0.950 . S
C803 C800 1.387 . S
C804 C805 1.387 . S
C804 H808 0.950 . S
C804 C813 1.390 . S
C805 C804 1.387 . S
C805 C807 1.387 . S
H806 C813 0.950 . S
C807 C805 1.387 . S
C807 C809 1.390 . S
C807 H811 0.950 . S
H808 C804 0.950 . S
C809 C807 1.390 . S
C809 C810 1.387 . S
C809 H812 0.950 . S
C810 C809 1.387 . S
C810 C813 1.387 . S
H811 C807 0.950 . S
H812 C809 0.950 . S
C813 C804 1.390 . S
C813 H806 0.950 . S
C813 C810 1.387 . S
C814 C815 1.387 . S
C814 H818 0.950 . S
C814 C823 1.390 . S
C815 C814 1.387 . S
C815 C817 1.387 . S
H816 C823 0.950 . S
C817 C815 1.387 . S
C817 C819 1.390 . S
C817 H821 0.950 . S
H818 C814 0.950 . S
C819 C817 1.390 . S
C819 C820 1.387 . S
C819 H822 0.950 . S
C820 C819 1.387 . S
C820 C823 1.387 . S
H821 C817 0.950 . S
H822 C819 0.950 . S
C823 C814 1.390 . S
C823 H816 0.950 . S
C823 C820 1.387 . S
C824 C825 1.387 . S
C824 H828 0.950 . S
C824 C833 1.390 1_556 S
C825 C824 1.387 . S
C825 C827 1.387 . S
H826 C833 0.950 . S
C827 C825 1.387 . S
C827 C829 1.390 1_556 S
C827 H831 0.950 . S
H828 C824 0.950 . S
C829 C827 1.390 1_554 S
C829 C830 1.387 . S
C829 H832 0.950 . S
C830 C829 1.387 . S
C830 C833 1.387 . S
H831 C827 0.950 . S
H832 C829 0.950 . S
C833 C824 1.390 1_554 S
C833 H826 0.950 . S
C833 C830 1.387 . S
C834 C835 1.387 . S
C834 H838 0.950 . S
C834 C843 1.390 1_554 S
C835 C834 1.387 . S
C835 C837 1.387 . S
H836 C843 0.950 . S
C837 C835 1.387 . S
C837 C839 1.390 1_554 S
C837 H841 0.950 . S
H838 C834 0.950 . S
C839 C837 1.390 1_556 S
C839 C840 1.387 . S
C839 H842 0.950 . S
C840 C839 1.387 . S
C840 C843 1.387 . S
H841 C837 0.950 . S
H842 C839 0.950 . S
C843 C834 1.390 1_556 S
C843 H836 0.950 . S
C843 C840 1.387 . S
C844 C845 1.387 . S
C844 H848 0.950 . S
C844 C853 1.390 . S
C845 C844 1.387 . S
C845 C847 1.387 . S
H846 C853 0.950 1_554 S
C847 C845 1.387 . S
C847 C849 1.390 1_556 S
C847 H851 0.950 . S
H848 C844 0.950 . S
C849 C847 1.390 1_554 S
C849 C850 1.387 . S
C849 H852 0.950 . S
C850 C849 1.387 . S
C850 C853 1.387 1_554 S
H851 C847 0.950 . S
H852 C849 0.950 . S
C853 C844 1.390 . S
C853 H846 0.950 1_556 S
C853 C850 1.387 1_556 S
C854 C855 1.387 . S
C854 H858 0.950 . S
C854 C863 1.390 1_554 S
C855 C854 1.387 . S
C855 C857 1.387 . S
H856 C863 0.950 . S
C857 C855 1.387 . S
C857 C859 1.390 1_554 S
C857 H861 0.950 . S
H858 C854 0.950 . S
C859 C857 1.390 1_556 S
C859 C860 1.387 . S
C859 H862 0.950 . S
C860 C859 1.387 . S
C860 C863 1.387 . S
H861 C857 0.950 . S
H862 C859 0.950 . S
C863 C854 1.390 1_556 S
C863 H856 0.950 . S
C863 C860 1.387 . S
C864 C865 1.387 . S
C864 H868 0.950 . S
C864 C873 1.390 . S
C865 C864 1.387 . S
C865 C867 1.387 . S
H866 C873 0.950 . S
C867 C865 1.387 . S
C867 C869 1.390 . S
C867 H871 0.950 . S
H868 C864 0.950 . S
C869 C867 1.390 . S
C869 C870 1.387 . S
C869 H872 0.950 . S
C870 C869 1.387 . S
C870 C873 1.387 . S
H871 C867 0.950 . S
H872 C869 0.950 . S
C873 C864 1.390 . S
C873 H866 0.950 . S
C873 C870 1.387 . S
C874 C875 1.387 . S
C874 H878 0.950 . S
C874 C883 1.390 . S
C875 C874 1.387 . S
C875 C877 1.387 . S
H876 C883 0.950 . S
C877 C875 1.387 . S
C877 C879 1.390 . S
C877 H881 0.950 . S
H878 C874 0.950 . S
C879 C877 1.390 . S
C879 C880 1.387 . S
C879 H882 0.950 . S
C880 C879 1.387 . S
C880 C883 1.387 . S
H881 C877 0.950 . S
H882 C879 0.950 . S
C883 C874 1.390 . S
C883 H876 0.950 . S
C883 C880 1.387 . S
C884 C885 1.387 . S
C884 H888 0.950 . S
C884 C893 1.390 . S
C885 C884 1.387 . S
C885 C887 1.387 . S
H886 C893 0.950 . S
C887 C885 1.387 . S
C887 C889 1.390 . S
C887 H891 0.950 . S
H888 C884 0.950 . S
C889 C887 1.390 . S
C889 C890 1.387 . S
C889 H892 0.950 . S
C890 C889 1.387 . S
C890 C893 1.387 . S
H891 C887 0.950 . S
H892 C889 0.950 . S
C893 C884 1.390 . S
C893 H886 0.950 . S
C893 C890 1.387 . S
C894 C895 1.387 . S
C894 H898 0.950 . S
C894 C903 1.390 . S
C895 C894 1.387 . S
C895 C897 1.387 . S
H896 C903 0.950 . S
C897 C895 1.387 . S
C897 C899 1.390 . S
C897 H901 0.950 . S
H898 C894 0.950 . S
C899 C897 1.390 . S
C899 C900 1.387 . S
C899 H902 0.950 . S
C900 C899 1.387 . S
C900 C903 1.387 . S
H901 C897 0.950 . S
H902 C899 0.950 . S
C903 C894 1.390 . S
C903 H896 0.950 . S
C903 C900 1.387 . S
C904 C905 1.387 . S
C904 H908 0.950 . S
C904 C913 1.390 1_554 S
C905 C904 1.387 . S
C905 C907 1.387 . S
H906 C913 0.950 . S
C907 C905 1.387 . S
C907 C909 1.390 . S
C907 H911 0.950 . S
H908 C904 0.950 . S
C909 C907 1.390 . S
C909 C910 1.387 1_554 S
C909 H912 0.950 . S
C910 C909 1.387 1_556 S
C910 C913 1.387 . S
H911 C907 0.950 . S
H912 C909 0.950 . S
C913 C904 1.390 1_556 S
C913 H906 0.950 . S
C913 C910 1.387 . S
C914 C915 1.387 . S
C914 H918 0.950 . S
C914 C923 1.390 1_556 S
C915 C914 1.387 . S
C915 C917 1.387 . S
H916 C923 0.950 . S
C917 C915 1.387 . S
C917 C919 1.390 1_556 S
C917 H921 0.950 . S
H918 C914 0.950 . S
C919 C917 1.390 1_554 S
C919 C920 1.387 . S
C919 H922 0.950 . S
C920 C919 1.387 . S
C920 C923 1.387 . S
H921 C917 0.950 . S
H922 C919 0.950 . S
C923 C914 1.390 1_554 S
C923 H916 0.950 . S
C923 C920 1.387 . S
C924 C925 1.387 . S
C924 H928 0.950 . S
C924 C933 1.393 . S
C925 C924 1.387 . S
C925 C927 1.387 . S
H926 C933 0.949 1_556 S
C927 C925 1.387 . S
C927 C929 1.390 1_554 S
C927 H931 0.950 . S
H928 C924 0.950 . S
C929 C927 1.390 1_556 S
C929 C930 1.387 . S
C929 H932 0.950 . S
C930 C929 1.387 . S
C930 C933 1.385 1_556 S
H931 C927 0.950 . S
H932 C929 0.950 . S
C933 C924 1.393 . S
C933 H926 0.949 1_554 S
C933 C930 1.385 1_554 S
C934 C935 1.387 . S
C934 H938 0.950 . S
C934 C943 1.390 1_554 S
C935 C934 1.387 . S
C935 C937 1.387 . S
H936 C943 0.950 . S
C937 C935 1.387 . S
C937 C939 1.382 1_554 S
C937 H941 0.950 . S
H938 C934 0.950 . S
C939 C937 1.382 1_556 S
C939 C940 1.394 . S
C939 H942 0.952 . S
C940 C939 1.394 . S
C940 C943 1.387 . S
H941 C937 0.950 . S
H942 C939 0.952 . S
C943 C934 1.390 1_556 S
C943 H936 0.950 . S
C943 C940 1.387 . S
C545 C111 1.736 . S
C550 C2 1.754 . S
C555 C36 1.753 . S
C560 C9 1.734 . S
C565 C70 1.753 . S
C570 C43 1.735 . S
C575 C104 1.753 . S
C580 C77 1.736 . S
C585 C179 1.736 . S
C590 C138 1.753 . S
C595 C213 1.734 . S
C600 C172 1.754 . S
C605 C206 1.753 . S
C610 C247 1.734 . S
C615 C145 1.736 . S
C620 C240 1.753 . S
C625 C274 1.753 . S
C630 C383 1.735 . S
C635 C308 1.754 . S
C640 C281 1.735 . S
C645 C315 1.735 . S
C650 C342 1.754 . S
C655 C376 1.753 . S
C660 C349 1.734 . S
C665 C451 1.734 . S
C670 C410 1.753 . S
C675 C444 1.753 . S
C680 C485 1.734 . S
C685 C478 1.754 . S
C690 C519 1.734 . S
C695 C512 1.753 . S
C700 C417 1.734 . S
C705 C33 1.990 . S
C710 C203 1.991 . S
C715 C67 1.990 . S
C720 C237 1.990 . S
C725 C271 1.989 . S
C730 C101 1.989 . S
C735 C135 1.991 . S
C740 C169 1.991 . S
C745 C475 1.989 . S
C750 C305 1.990 . S
C755 C509 1.990 . S
C760 C339 1.991 . S
C765 C373 1.990 . S
C770 C543 1.990 . S
C775 C441 1.990 . S
C780 C407 1.989 . S
C785 C5 1.225 . S
C790 C394 1.265 . S
C795 C39 1.224 . S
C800 C292 1.264 . S
C805 C73 1.225 . S
C810 C326 1.265 . S
C815 C107 1.223 . S
C820 C360 1.263 . S
C825 C462 1.263 . S
C830 C141 1.222 . S
C835 C175 1.221 . S
C840 C496 1.262 . S
C845 C530 1.265 . S
C850 C209 1.224 . S
C855 C243 1.226 . S
C860 C428 1.265 . S
C865 C122 1.265 . S
C870 C277 1.225 . S
C875 C20 1.263 . S
C880 C311 1.223 . S
C885 C54 1.264 . S
C890 C345 1.224 . S
C895 C88 1.263 . S
C900 C379 1.223 . S
C905 C190 1.264 . S
C910 C413 1.224 . S
C915 C447 1.221 . S
C920 C224 1.262 . S
C925 C258 1.263 . S
C930 C481 1.223 . S
C935 C156 1.262 . S
C940 C515 1.221 . S
