# Generated by pormake.
# Topology sma, (6)-cn, num edge types: 1
# Building blocks:
#     Node 0, Type 0, BuildingBlock: INOVEN_clean_sbu_0, # of connection points: 6
#     Node 1, Type 0, BuildingBlock: INOVEN_clean_sbu_0, # of connection points: 6
#     Node 2, Type 0, BuildingBlock: INOVEN_clean_sbu_0, # of connection points: 6
#     Edge 3, Type (0, 0), BuildingBlock: XUDNAN_clean_linker_2, # of connection points: 2
#     Edge 4, Type (0, 0), BuildingBlock: XUDNAN_clean_linker_2, # of connection points: 2
#     Edge 5, Type (0, 0), BuildingBlock: XUDNAN_clean_linker_2, # of connection points: 2
#     Edge 6, Type (0, 0), BuildingBlock: XUDNAN_clean_linker_2, # of connection points: 2
#     Edge 7, Type (0, 0), BuildingBlock: XUDNAN_clean_linker_2, # of connection points: 2
#     Edge 8, Type (0, 0), BuildingBlock: XUDNAN_clean_linker_2, # of connection points: 2
#     Edge 9, Type (0, 0), BuildingBlock: XUDNAN_clean_linker_2, # of connection points: 2
#     Edge 10, Type (0, 0), BuildingBlock: XUDNAN_clean_linker_2, # of connection points: 2
#     Edge 11, Type (0, 0), BuildingBlock: XUDNAN_clean_linker_2, # of connection points: 2
# Relax obj value: 0.128
# Max RMSD: 0.261
# Mean RMSD: 0.204
data_MOF--net-sma--node1-INOVEN_clean_sbu_0--edge1-XUDNAN_clean_linker_2
_symmetry_space_group_name_H-M    P1
_symmetry_Int_Tables_number       1
_symmetry_cell_setting            triclinic
loop_
_symmetry_equiv_pos_as_xyz
'x, y, z'
_cell_length_a     40.062317
_cell_length_b     47.364159
_cell_length_c     13.86336
_cell_angle_alpha  95.107657
_cell_angle_beta   88.998615
_cell_angle_gamma 139.93446
loop_
_atom_site_label
_atom_site_type_symbol
_atom_site_fract_x
_atom_site_fract_y
_atom_site_fract_z
_atom_type_partial_charge
Gd0 Gd 0.14234 0.64267 0.17167 0.0
Gd1 Gd 1.09113 0.66973 0.20707 0.0
C2 C 0.21802 0.74595 0.20969 0.0
C3 C 0.17021 0.61122 0.09822 0.0
C4 C 0.21469 0.62159 0.07359 0.0
C5 C 0.25732 0.65911 0.02893 0.0
C6 C 0.21268 0.5915 0.09031 0.0
C7 C 0.29358 0.63467 0.01288 0.0
C8 C 0.25158 0.59793 0.06052 0.0
C9 C 0.29634 0.6656 -0.00092 0.0
C10 C 0.1528 0.6726 0.35301 0.0
C11 C 1.01891 0.56792 0.21476 0.0
C12 C 1.05981 0.7008 0.25258 0.0
C13 C 1.03016 0.70437 0.20584 0.0
C14 C 0.98476 0.66924 0.14394 0.0
C15 C 1.04746 0.74376 0.22454 0.0
C16 C 0.97455 0.71307 0.12089 0.0
C17 C 1.02014 0.74811 0.18266 0.0
C18 C 0.95719 0.6735 0.10227 0.0
C19 C 0.09405 0.65003 0.02016 0.0
O20 O 0.21279 0.71624 0.16761 0.0
O21 O 0.17788 0.73465 0.24213 0.0
O22 O 0.16327 0.61252 0.19046 0.0
O23 O 0.15921 0.62545 0.04594 0.0
O24 O 0.18636 0.67667 0.31679 0.0
O25 O 0.1127 0.64865 0.29599 0.0
O26 O 1.02615 0.59988 0.24289 0.0
O27 O 1.05583 0.57618 0.17507 0.0
O28 O 0.10574 0.7247 0.22268 0.0
O29 O 1.03417 0.66148 0.26871 0.0
O30 O 1.0571 0.64237 0.05006 0.0
O31 O 0.12687 0.66912 0.08957 0.0
H32 H 0.26006 0.683 0.01559 0.0
H33 H 0.18009 0.56221 0.12432 0.0
H34 H 0.24761 0.57314 0.07165 0.0
H35 H 0.32849 0.69473 -0.03571 0.0
H36 H 0.97058 0.6385 0.12767 0.0
H37 H 1.08218 0.77128 0.27221 0.0
H38 H 1.03442 0.77885 0.20004 0.0
H39 H 0.92265 0.64597 0.05434 0.0
Gd40 Gd 0.66392 0.16582 0.39114 0.0
Gd41 Gd 0.58771 0.16372 0.33336 0.0
C42 C 0.53937 0.07046 0.33097 0.0
C43 C 0.70659 0.1535 0.48565 0.0
C44 C 0.69627 0.11673 0.4996 0.0
C45 C 0.6733 0.08318 0.42386 0.0
C46 C 0.71095 0.1158 0.58928 0.0
C47 C 0.68133 1.04896 0.52674 0.0
C48 C 0.70352 0.08232 0.60285 0.0
C49 C 0.66611 1.04983 0.43713 0.0
C50 C 0.65587 0.1674 0.20263 0.0
C51 C 0.71437 0.25783 0.35468 0.0
C52 C 0.54157 0.17823 0.27232 0.0
C53 C 0.54154 0.20868 0.30791 0.0
C54 C 0.54561 0.22003 0.40792 0.0
C55 C 0.53613 0.22583 0.24153 0.0
C56 C 0.53537 0.26298 0.37444 0.0
C57 C 0.53326 0.25276 0.27428 0.0
C58 C 0.54239 0.24673 0.4408 0.0
C59 C 0.60743 0.17177 0.52514 0.0
O60 O 0.58415 0.09252 0.37688 0.0
O61 O 0.53326 0.09128 0.2943 0.0
O62 O 0.71867 0.1668 0.39915 0.0
O63 O 0.67532 0.15213 0.52438 0.0
O64 O 0.69731 0.18456 0.24778 0.0
O65 O 0.61827 0.14521 0.25605 0.0
O66 O 0.66715 0.23428 0.32003 0.0
O67 O 0.72301 0.23978 0.39814 0.0
O68 O 0.52019 0.14706 0.32625 0.0
O69 O 0.58453 0.19604 0.23851 0.0
O70 O 0.56229 0.14929 0.48718 0.0
O71 O 0.63923 0.19003 0.46174 0.0
H72 H 0.66146 0.08301 0.35393 0.0
H73 H 0.72852 0.14122 0.64891 0.0
H74 H 0.71486 0.08248 0.67339 0.0
H75 H 0.64952 1.02521 0.37624 0.0
H76 H 0.55028 0.20756 0.46086 0.0
H77 H 0.53348 0.21795 0.16413 0.0
H78 H 0.52912 0.2654 0.22076 0.0
H79 H 0.54382 0.25345 0.51828 0.0
Gd80 Gd 0.67293 0.72197 0.84534 0.0
Gd81 Gd 0.60155 0.62383 0.85939 0.0
C82 C 0.55159 0.65378 0.85188 0.0
C83 C 0.72979 0.79858 0.78996 0.0
C84 C 0.71854 0.819 0.75169 0.0
C85 C 0.75925 0.86253 0.72855 0.0
C86 C 0.66728 0.79567 0.74056 0.0
C87 C 0.69759 0.85945 0.68443 0.0
C88 C 0.6569 0.81563 0.70745 0.0
C89 C 0.74894 0.88257 0.69524 0.0
C90 C 0.64039 0.69542 0.02136 0.0
C91 C 0.72502 0.69439 0.8889 0.0
C92 C 0.53964 0.54143 0.87137 0.0
C93 C 0.53318 0.50956 0.81213 0.0
C94 C 0.53162 0.50705 0.71016 0.0
C95 C 0.53134 0.48301 0.85728 0.0
C96 C 0.5254 0.45136 0.69944 0.0
C97 C 0.52763 0.45429 0.80161 0.0
C98 C 0.52763 0.47827 0.65467 0.0
C99 C 0.63156 0.65065 0.68098 0.0
O100 O 0.59359 0.68794 0.81022 0.0
O101 O 0.54854 0.6274 0.89183 0.0
O102 O 0.72005 0.79044 0.88042 0.0
O103 O 0.71445 0.76611 0.73322 0.0
O104 O 0.6506 0.72656 -0.00787 0.0
O105 O 0.65291 0.68377 -0.0384 0.0
O106 O 0.67849 0.6552 0.90652 0.0
O107 O 0.73178 0.72403 0.85623 0.0
O108 O 0.52549 0.55487 0.82829 0.0
O109 O 0.58357 0.57358 0.92492 0.0
O110 O 0.62774 0.62389 0.71515 0.0
O111 O 0.6186 0.66134 0.74261 0.0
H112 H 0.7991 0.88112 0.73658 0.0
H113 H 0.63524 0.76212 0.75847 0.0
H114 H 0.61696 0.79687 0.70162 0.0
H115 H 0.78123 0.91606 0.67704 0.0
H116 H 0.53389 0.52759 0.673 0.0
H117 H 0.53301 0.48463 0.93575 0.0
H118 H 0.5257 0.4339 0.83849 0.0
H119 H 0.52693 0.47752 0.57637 0.0
H120 H 0.33682 0.61539 0.09362 0.0
H121 H 0.33802 0.66365 0.83974 0.0
H122 H 0.40028 0.67007 0.76998 0.0
H123 H 0.47269 0.68505 0.10655 0.0
H124 H 0.46256 0.64344 0.14295 0.0
H125 H 0.41779 0.6424 0.17381 0.0
H126 H 0.3414 0.56217 0.08959 0.0
H127 H 0.38602 0.56309 0.05791 0.0
H128 H 0.34379 0.54997 -0.03549 0.0
H129 H 0.46339 0.67289 0.72792 0.0
H130 H 0.52564 0.67382 0.71785 0.0
H131 H 0.48307 0.62132 -0.00504 0.0
C132 C 0.34988 0.62704 0.02306 0.0
C133 C 0.33246 0.63931 -0.02725 0.0
C134 C 0.35125 0.65486 0.881 0.0
C135 C 0.38635 0.65822 0.84013 0.0
C136 C 0.40246 0.64577 0.89132 0.0
C137 C 0.38506 0.63059 -0.01913 0.0
C138 C 0.4095 0.62015 0.02095 0.0
C139 C 0.4426 0.64951 0.11674 0.0
C140 C 0.36767 0.57091 0.03399 0.0
C141 C 0.44338 0.63193 0.9399 0.0
C142 C 0.43852 0.64661 0.86598 0.0
C143 C 0.4672 0.66115 0.78497 0.0
C144 C 0.50248 0.66149 0.7799 0.0
C145 C 0.50883 0.64714 0.85493 0.0
C146 C 0.47821 0.63152 0.93544 0.0
H147 H 0.81758 0.31411 0.316 0.0
H148 H 0.70701 0.31011 0.36924 0.0
H149 H 0.77259 0.38781 0.33928 0.0
H150 H 0.9346 0.42925 0.42306 0.0
H151 H 0.97546 0.44101 0.33178 0.0
H152 H 0.92108 0.38559 0.36344 0.0
H153 H 0.88525 0.35703 0.183 0.0
H154 H 0.93925 0.41241 0.15091 0.0
H155 H 0.87352 0.38069 0.11947 0.0
H156 H 0.84764 0.46448 0.30014 0.0
H157 H 0.92949 0.53743 0.25596 0.0
H158 H 0.99418 0.49464 0.22102 0.0
C159 C 0.80774 0.33 0.32319 0.0
C160 C 0.75717 0.30605 0.34605 0.0
C161 C 0.74537 0.32769 0.35222 0.0
C162 C 0.78241 0.3719 0.33523 0.0
C163 C 0.83135 0.39435 0.31101 0.0
C164 C 0.8444 0.37442 0.30496 0.0
C165 C 0.89955 0.40625 0.27367 0.0
C166 C 0.93476 0.41611 0.35271 0.0
C167 C 0.89936 0.388 0.17596 0.0
C168 C 0.91517 0.44695 0.26346 0.0
C169 C 0.875 0.43906 0.28577 0.0
C170 C 0.87944 0.47112 0.28262 0.0
C171 C 0.92631 0.5126 0.25726 0.0
C172 C 0.96862 0.52214 0.2346 0.0
C173 C 0.96259 0.48847 0.23702 0.0
H174 H 0.74575 1.05604 0.63357 0.0
H175 H 0.60058 0.96118 0.45164 0.0
H176 H 0.58985 0.90334 0.47007 0.0
H177 H 0.7897 1.01579 0.54951 0.0
H178 H 0.81632 1.02445 0.6674 0.0
H179 H 0.81307 1.05876 0.63962 0.0
H180 H 0.76074 1.03754 0.78941 0.0
H181 H 0.76411 1.00337 0.81799 0.0
H182 H 0.70185 0.98006 0.8022 0.0
H183 H 0.59524 0.85557 0.50667 0.0
H184 H 0.61521 0.82134 0.5618 0.0
H185 H 0.75454 0.94609 0.72687 0.0
C186 C 0.71133 1.02305 0.59835 0.0
C187 C 0.67423 1.01358 0.54041 0.0
C188 C 0.63021 0.96984 0.49478 0.0
C189 C 0.62353 0.93653 0.50538 0.0
C190 C 0.66095 0.94715 0.5624 0.0
C191 C 0.70385 0.98928 0.60862 0.0
C192 C 0.73811 0.99187 0.66648 0.0
C193 C 0.79252 1.02466 0.62844 0.0
C194 C 0.74138 1.00392 0.77548 0.0
C195 C 0.70797 0.94469 0.64506 0.0
C196 C 0.66359 0.91945 0.58484 0.0
C197 C 0.6297 0.87498 0.55445 0.0
C198 C 0.64127 0.85573 0.58677 0.0
C199 C 0.68634 0.88074 0.6494 0.0
C200 C 0.72006 0.92596 0.67837 0.0
H201 H 0.72435 0.64154 0.95978 0.0
H202 H 0.82926 0.77255 0.87299 0.0
H203 H 0.90421 0.79095 0.91845 0.0
H204 H 0.80311 0.67411 0.16718 0.0
H205 H 0.78595 0.6259 0.14993 0.0
H206 H 0.7409 0.62277 0.10726 0.0
H207 H 0.73675 0.59429 0.93406 0.0
H208 H 0.78182 0.59732 -0.02387 0.0
H209 H 0.7961 0.62608 0.87545 0.0
H210 H 0.96819 0.79544 -0.02144 0.0
H211 H 1.01523 0.78578 0.0462 0.0
H212 H 0.86805 0.65186 0.09491 0.0
C213 C 0.76299 0.67411 0.94958 0.0
C214 C 0.77065 0.70559 0.91244 0.0
C215 C 0.82213 0.74778 0.90094 0.0
C216 C 0.86501 0.75853 0.92666 0.0
C217 C 0.85593 0.72676 -0.03634 0.0
C218 C 0.8061 0.68535 -0.02518 0.0
C219 C 0.80667 0.65731 0.01779 0.0
C220 C 0.78275 0.64427 0.11639 0.0
C221 C 0.77868 0.61633 0.94659 0.0
C222 C 0.8647 0.68943 0.02979 0.0
C223 C 0.89247 0.7293 -0.00195 0.0
C224 C 0.9467 0.76432 0.00352 0.0
C225 C 0.97313 0.75857 0.04274 0.0
C226 C 0.9456 0.71808 0.07645 0.0
C227 C 0.89048 0.68306 0.06893 0.0
H228 H 0.43346 1.01018 0.29539 0.0
H229 H 0.54906 1.01927 0.329 0.0
H230 H 0.48005 0.9381 0.29858 0.0
H231 H 0.33505 0.91236 0.41862 0.0
H232 H 0.28144 0.88906 0.34031 0.0
H233 H 0.34004 0.94809 0.36131 0.0
H234 H 0.34841 0.9513 0.17587 0.0
H235 H 0.2899 0.89226 0.15435 0.0
H236 H 0.34932 0.91789 0.10635 0.0
H237 H 0.39896 0.8559 0.25832 0.0
H238 H 0.31066 0.77814 0.22627 0.0
H239 H 0.2457 0.82065 0.23016 0.0
C240 C 0.44421 0.99506 0.29599 0.0
C241 C 0.4969 1.0213 0.31404 0.0
C242 C 0.50914 1.00007 0.31553 0.0
C243 C 0.47016 0.95389 0.29794 0.0
C244 C 0.41873 0.92901 0.28028 0.0
C245 C 0.4055 0.94873 0.28044 0.0
C246 C 0.34689 0.91403 0.26323 0.0
C247 C 0.32455 0.91601 0.35111 0.0
C248 C 0.33281 0.91919 0.16936 0.0
C249 C 0.32936 0.87183 0.25283 0.0
C250 C 0.37158 0.88135 0.26174 0.0
C251 C 0.3656 0.84807 0.25194 0.0
C252 C 0.31522 0.80393 0.23332 0.0
C253 C 0.27111 0.79313 0.22608 0.0
C254 C 0.27853 0.82774 0.23617 0.0
H255 H 0.57538 0.43297 0.72886 0.0
H256 H 0.46231 0.39829 0.53291 0.0
H257 H 0.45357 0.34753 0.42937 0.0
H258 H 0.6383 0.43111 0.54409 0.0
H259 H 0.64817 0.40754 0.61486 0.0
H260 H 0.64551 0.44106 0.67487 0.0
H261 H 0.57133 0.37728 0.77411 0.0
H262 H 0.57384 0.3436 0.71451 0.0
H263 H 0.51342 0.32365 0.71125 0.0
H264 H 0.45615 0.30004 0.34722 0.0
H265 H 0.46989 0.25892 0.29143 0.0
H266 H 0.58296 0.32489 0.5373 0.0
C267 C 0.54847 0.41441 0.66461 0.0
C268 C 0.51968 0.41989 0.63902 0.0
C269 C 0.48534 0.39526 0.55356 0.0
C270 C 0.47989 0.36612 0.49442 0.0
C271 C 0.50905 0.36179 0.5212 0.0
C272 C 0.5427 0.3852 0.60418 0.0
C273 C 0.56978 0.37457 0.61545 0.0
C274 C 0.62895 0.41604 0.61209 0.0
C275 C 0.55627 0.35352 0.70941 0.0
C276 C 0.5459 0.34142 0.52609 0.0
C277 C 0.51097 0.3346 0.47293 0.0
C278 C 0.48369 0.30534 0.38793 0.0
C279 C 0.49217 0.28235 0.35631 0.0
C280 C 0.52793 0.2887 0.409 0.0
C281 C 0.55507 0.31882 0.4953 0.0
H282 H 1.03831 0.62731 0.85349 0.0
H283 H 0.19007 0.69838 -0.03162 0.0
H284 H 0.22593 0.72802 0.81416 0.0
H285 H 1.0431 0.59108 0.63207 0.0
H286 H 1.00937 0.59454 0.56048 0.0
H287 H 0.99796 0.58639 0.68628 0.0
H288 H 1.02278 0.65585 0.71519 0.0
H289 H 1.03574 0.66476 0.58937 0.0
H290 H 1.08534 0.70806 0.68397 0.0
H291 H 0.2448 0.74452 0.65064 0.0
H292 H 0.24035 0.73186 0.4732 0.0
H293 H 1.07674 0.64793 0.455 0.0
C294 C 1.07908 0.64936 0.84573 0.0
C295 C 0.11161 0.66127 0.92286 0.0
C296 C 0.16451 0.68924 0.91031 0.0
C297 C 0.18561 0.70698 0.82358 0.0
C298 C 0.15316 0.69586 0.74962 0.0
C299 C 0.10071 0.6667 0.75827 0.0
C300 C 1.07284 0.65396 0.66169 0.0
C301 C 1.02824 0.60353 0.63347 0.0
C302 C 1.05302 0.67174 0.66267 0.0
C303 C 0.11726 0.67808 0.59707 0.0
C304 C 0.16371 0.70383 0.65048 0.0
C305 C 0.20904 0.72513 0.60757 0.0
C306 C 0.20611 0.71758 0.50717 0.0
C307 C 0.15808 0.68861 0.45236 0.0
C308 C 0.11391 0.6706 0.49649 0.0
H309 H 0.57265 0.12387 0.0752 0.0
H310 H 0.74126 0.23639 0.11667 0.0
H311 H 0.74546 0.2542 0.95245 0.0
H312 H 0.56602 0.08927 0.83745 0.0
H313 H 0.51012 0.07245 0.79367 0.0
H314 H 0.51903 0.07192 0.91994 0.0
H315 H 0.51423 0.12279 -0.03091 0.0
H316 H 0.50497 0.12328 0.84269 0.0
H317 H 0.55737 0.17457 0.91933 0.0
H318 H 0.73348 0.25464 0.7819 0.0
H319 H 0.70538 0.23883 0.60932 0.0
H320 H 0.54411 0.12645 0.67292 0.0
C321 C 0.61019 0.15269 0.04986 0.0
C322 C 0.65662 0.17872 0.10747 0.0
C323 C 0.7053 0.21589 0.07267 0.0
C324 C 0.7081 0.22649 -0.01999 0.0
C325 C 0.66184 0.19961 0.92357 0.0
C326 C 0.61373 0.16359 0.95673 0.0
C327 C 0.57053 0.13806 0.87737 0.0
C328 C 0.53964 0.0901 0.85586 0.0
C329 C 0.53466 0.1398 0.9037 0.0
C330 C 0.60225 0.16445 0.79382 0.0
C331 C 0.65476 0.2001 0.82296 0.0
C332 C 0.69247 0.22743 0.7582 0.0
C333 C 0.67615 0.21801 0.66043 0.0
C334 C 0.62267 0.18165 0.62882 0.0
C335 C 0.58516 0.15484 0.69621 0.0
H336 H 0.64794 0.70819 0.58786 0.0
H337 H 0.59328 0.5856 0.54223 0.0
H338 H 0.5702 0.57672 0.36988 0.0
H339 H 0.55579 0.67879 0.40307 0.0
H340 H 0.60533 0.73327 0.36472 0.0
H341 H 0.60789 0.72615 0.48896 0.0
H342 H 0.70104 0.76681 0.47563 0.0
H343 H 0.69914 0.77473 0.35244 0.0
H344 H 0.7129 0.74771 0.37917 0.0
H345 H 0.56022 0.58331 0.20531 0.0
H346 H 0.58116 0.61256 0.049 0.0
H347 H 0.6488 0.73396 0.19395 0.0
C348 C 0.63095 0.6795 0.54134 0.0
C349 C 0.62238 0.64763 0.57742 0.0
C350 C 0.60037 0.6105 0.51527 0.0
C351 C 0.58626 0.60476 0.41791 0.0
C352 C 0.59491 0.63664 0.38433 0.0
C353 C 0.61783 0.67383 0.44331 0.0
C354 C 0.63088 0.70657 0.38536 0.0
C355 C 0.59799 0.71146 0.41214 0.0
C356 C 0.68946 0.75158 0.39891 0.0
C357 C 0.61474 0.68308 0.28379 0.0
C358 C 0.59179 0.64187 0.28599 0.0
C359 C 0.57767 0.61526 0.20234 0.0
C360 C 0.59015 0.63224 0.11413 0.0
C361 C 0.61719 0.67546 0.11077 0.0
C362 C 0.62746 0.70052 0.1955 0.0
loop_
_geom_bond_atom_site_label_1
_geom_bond_atom_site_label_2
_geom_bond_distance
_geom_bond_site_symmetry_2
_ccdc_geom_bond_type
Gd0 C3 2.818 . S
Gd0 O20 2.377 . S
Gd0 O22 2.448 . S
Gd0 O23 2.506 . S
Gd0 O24 2.435 . S
Gd0 O25 2.717 . S
Gd0 O27 2.395 1_455 S
Gd0 O31 2.327 . S
Gd1 C12 2.818 1_455 S
Gd1 O21 2.395 . S
Gd1 O25 2.327 . S
Gd1 O26 2.377 1_455 S
Gd1 O28 2.448 1_455 S
Gd1 O29 2.506 1_455 S
Gd1 O30 2.435 1_554 S
Gd1 O31 2.717 . S
C2 O20 1.240 . S
C2 O21 1.240 . S
C3 Gd0 2.818 . S
C3 C4 1.510 . S
C3 O22 1.249 . S
C3 O23 1.252 . S
C4 C3 1.510 . S
C4 C5 1.404 . S
C4 C6 1.352 . S
C5 C4 1.404 . S
C5 C9 1.389 . S
C5 H32 0.930 . S
C6 C4 1.352 . S
C6 C8 1.374 . S
C6 H33 0.931 . S
C7 C8 1.359 . S
C7 C9 1.364 . S
C8 C6 1.374 . S
C8 C7 1.359 . S
C8 H34 0.931 1_554 S
C9 C5 1.389 . S
C9 C7 1.364 . S
C9 H35 0.931 . S
C10 O24 1.256 . S
C10 O25 1.257 . S
C11 O26 1.240 . S
C11 O27 1.240 . S
C12 Gd1 2.818 1_655 S
C12 C13 1.510 . S
C12 O28 1.249 . S
C12 O29 1.252 . S
C13 C12 1.510 . S
C13 C14 1.404 . S
C13 C15 1.352 . S
C14 C13 1.404 . S
C14 C18 1.389 . S
C14 H36 0.930 . S
C15 C13 1.352 . S
C15 C17 1.374 . S
C15 H37 0.931 . S
C16 C17 1.359 . S
C16 C18 1.364 . S
C17 C15 1.374 . S
C17 C16 1.359 . S
C17 H38 0.931 . S
C18 C14 1.389 . S
C18 C16 1.364 . S
C18 H39 0.931 . S
C19 O30 1.256 . S
C19 O31 1.257 1_556 S
O20 Gd0 2.377 . S
O20 C2 1.240 . S
O21 Gd1 2.395 . S
O21 C2 1.240 . S
O22 Gd0 2.448 . S
O22 C3 1.249 . S
O23 Gd0 2.506 . S
O23 C3 1.252 . S
O24 Gd0 2.435 . S
O24 C10 1.256 . S
O25 Gd0 2.717 . S
O25 Gd1 2.327 . S
O25 C10 1.257 . S
O26 Gd1 2.377 1_655 S
O26 C11 1.240 . S
O27 Gd0 2.395 1_655 S
O27 C11 1.240 . S
O28 Gd1 2.448 1_655 S
O28 C12 1.249 . S
O29 Gd1 2.506 1_655 S
O29 C12 1.252 . S
O30 Gd1 2.435 1_556 S
O30 C19 1.256 . S
O31 Gd0 2.327 . S
O31 Gd1 2.717 . S
O31 C19 1.257 1_554 S
H32 C5 0.930 . S
H33 C6 0.931 . S
H34 C8 0.931 1_556 S
H35 C9 0.931 . S
H36 C14 0.930 . S
H37 C15 0.931 . S
H38 C17 0.931 . S
H39 C18 0.931 . S
Gd40 C43 2.818 . S
Gd40 O60 2.377 . S
Gd40 O62 2.448 . S
Gd40 O63 2.506 . S
Gd40 O64 2.435 . S
Gd40 O65 2.717 . S
Gd40 O67 2.395 . S
Gd40 O71 2.327 . S
Gd41 C52 2.818 . S
Gd41 O61 2.395 . S
Gd41 O65 2.327 . S
Gd41 O66 2.377 . S
Gd41 O68 2.448 . S
Gd41 O69 2.506 . S
Gd41 O70 2.435 . S
Gd41 O71 2.717 . S
C42 O60 1.240 . S
C42 O61 1.240 . S
C43 Gd40 2.818 . S
C43 C44 1.495 1_545 S
C43 O62 1.249 . S
C43 O63 1.252 . S
C44 C43 1.495 1_565 S
C44 C45 1.414 . S
C44 C46 1.358 . S
C45 C44 1.414 . S
C45 C49 1.389 . S
C45 H72 0.930 1_565 S
C46 C44 1.358 . S
C46 C48 1.374 . S
C46 H73 0.931 . S
C47 C48 1.359 . S
C47 C49 1.364 . S
C48 C46 1.374 . S
C48 C47 1.359 . S
C48 H74 0.931 . S
C49 C45 1.389 . S
C49 C47 1.364 . S
C49 H75 0.931 . S
C50 O64 1.256 . S
C50 O65 1.257 . S
C51 O66 1.240 . S
C51 O67 1.240 . S
C52 Gd41 2.818 . S
C52 C53 1.510 . S
C52 O68 1.249 . S
C52 O69 1.252 . S
C53 C52 1.510 . S
C53 C54 1.404 . S
C53 C55 1.352 . S
C54 C53 1.404 . S
C54 C58 1.389 . S
C54 H76 0.930 . S
C55 C53 1.352 . S
C55 C57 1.374 . S
C55 H77 0.931 . S
C56 C57 1.359 . S
C56 C58 1.364 . S
C57 C55 1.374 . S
C57 C56 1.359 . S
C57 H78 0.931 . S
C58 C54 1.389 . S
C58 C56 1.364 . S
C58 H79 0.931 . S
C59 O70 1.256 . S
C59 O71 1.257 . S
O60 Gd40 2.377 . S
O60 C42 1.240 . S
O61 Gd41 2.395 . S
O61 C42 1.240 . S
O62 Gd40 2.448 . S
O62 C43 1.249 . S
O63 Gd40 2.506 . S
O63 C43 1.252 . S
O64 Gd40 2.435 . S
O64 C50 1.256 . S
O65 Gd40 2.717 . S
O65 Gd41 2.327 . S
O65 C50 1.257 . S
O66 Gd41 2.377 . S
O66 C51 1.240 . S
O67 Gd40 2.395 . S
O67 C51 1.240 . S
O68 Gd41 2.448 . S
O68 C52 1.249 . S
O69 Gd41 2.506 . S
O69 C52 1.252 . S
O70 Gd41 2.435 . S
O70 C59 1.256 . S
O71 Gd40 2.327 . S
O71 Gd41 2.717 . S
O71 C59 1.257 . S
H72 C45 0.930 1_545 S
H73 C46 0.931 . S
H74 C48 0.931 . S
H75 C49 0.931 . S
H76 C54 0.930 . S
H77 C55 0.931 . S
H78 C57 0.931 . S
H79 C58 0.931 . S
Gd80 C83 2.818 . S
Gd80 O100 2.377 . S
Gd80 O102 2.448 . S
Gd80 O103 2.506 . S
Gd80 O104 2.435 1_556 S
Gd80 O105 2.717 . S
Gd80 O107 2.395 . S
Gd80 O111 2.327 . S
Gd81 C92 2.818 . S
Gd81 O101 2.395 . S
Gd81 O105 2.327 . S
Gd81 O106 2.377 . S
Gd81 O108 2.448 . S
Gd81 O109 2.506 . S
Gd81 O110 2.435 . S
Gd81 O111 2.717 . S
C82 O100 1.240 . S
C82 O101 1.240 . S
C83 Gd80 2.818 . S
C83 C84 1.510 . S
C83 O102 1.249 . S
C83 O103 1.252 . S
C84 C83 1.510 . S
C84 C85 1.404 . S
C84 C86 1.352 . S
C85 C84 1.404 . S
C85 C89 1.389 . S
C85 H112 0.930 1_556 S
C86 C84 1.352 . S
C86 C88 1.374 . S
C86 H113 0.931 . S
C87 C88 1.359 . S
C87 C89 1.364 . S
C88 C86 1.374 . S
C88 C87 1.359 . S
C88 H114 0.931 . S
C89 C85 1.389 . S
C89 C87 1.364 . S
C89 H115 0.931 . S
C90 O104 1.256 . S
C90 O105 1.257 1_554 S
C91 O106 1.240 . S
C91 O107 1.240 . S
C92 Gd81 2.818 . S
C92 C93 1.510 . S
C92 O108 1.249 . S
C92 O109 1.252 . S
C93 C92 1.510 . S
C93 C94 1.404 . S
C93 C95 1.352 . S
C94 C93 1.404 . S
C94 C98 1.389 . S
C94 H116 0.930 . S
C95 C93 1.352 . S
C95 C97 1.374 . S
C95 H117 0.931 . S
C96 C97 1.359 . S
C96 C98 1.364 . S
C97 C95 1.374 . S
C97 C96 1.359 . S
C97 H118 0.931 . S
C98 C94 1.389 . S
C98 C96 1.364 . S
C98 H119 0.931 . S
C99 O110 1.256 . S
C99 O111 1.257 . S
O100 Gd80 2.377 . S
O100 C82 1.240 . S
O101 Gd81 2.395 . S
O101 C82 1.240 . S
O102 Gd80 2.448 . S
O102 C83 1.249 . S
O103 Gd80 2.506 . S
O103 C83 1.252 . S
O104 Gd80 2.435 1_554 S
O104 C90 1.256 . S
O105 Gd80 2.717 . S
O105 Gd81 2.327 . S
O105 C90 1.257 1_556 S
O106 Gd81 2.377 . S
O106 C91 1.240 . S
O107 Gd80 2.395 . S
O107 C91 1.240 . S
O108 Gd81 2.448 . S
O108 C92 1.249 . S
O109 Gd81 2.506 . S
O109 C92 1.252 . S
O110 Gd81 2.435 . S
O110 C99 1.256 . S
O111 Gd80 2.327 . S
O111 Gd81 2.717 . S
O111 C99 1.257 . S
H112 C85 0.930 1_554 S
H113 C86 0.931 . S
H114 C88 0.931 . S
H115 C89 0.931 . S
H116 C94 0.930 . S
H117 C95 0.931 . S
H118 C97 0.931 . S
H119 C98 0.931 . S
H120 C132 0.930 . S
H121 C134 0.930 . S
H122 C135 0.930 . S
H123 C139 0.959 1_554 S
H124 C139 0.959 . S
H125 C139 0.961 1_554 S
H126 C140 0.960 . S
H127 C140 0.961 . S
H128 C140 0.959 . S
H129 C143 0.929 . S
H130 C144 0.931 . S
H131 C146 0.930 . S
C132 H120 0.930 . S
C132 C133 1.399 . S
C132 C137 1.399 1_554 S
C133 C132 1.399 . S
C133 C134 1.376 . S
C134 H121 0.930 . S
C134 C133 1.376 . S
C134 C135 1.388 . S
C135 H122 0.930 . S
C135 C134 1.388 . S
C135 C136 1.390 . S
C136 C135 1.390 . S
C136 C137 1.394 1_554 S
C136 C142 1.465 1_554 S
C137 C132 1.399 1_556 S
C137 C136 1.394 1_556 S
C137 C138 1.516 . S
C138 C137 1.516 . S
C138 C139 1.502 . S
C138 C140 1.561 . S
C138 C141 1.526 . S
C139 H123 0.959 1_556 S
C139 H124 0.959 . S
C139 H125 0.961 1_556 S
C139 C138 1.502 . S
C140 H126 0.960 . S
C140 H127 0.961 . S
C140 H128 0.959 . S
C140 C138 1.561 . S
C141 C138 1.526 . S
C141 C142 1.396 . S
C141 C146 1.390 . S
C142 C136 1.465 1_556 S
C142 C141 1.396 . S
C142 C143 1.399 . S
C143 H129 0.929 . S
C143 C142 1.399 . S
C143 C144 1.385 . S
C144 H130 0.931 . S
C144 C143 1.385 . S
C144 C145 1.389 . S
C145 C144 1.389 . S
C145 C146 1.387 . S
C146 H131 0.930 . S
C146 C141 1.390 . S
C146 C145 1.387 . S
H147 C159 0.930 . S
H148 C161 0.930 . S
H149 C162 0.930 . S
H150 C166 0.959 . S
H151 C166 0.959 . S
H152 C166 0.961 . S
H153 C167 0.960 . S
H154 C167 0.961 . S
H155 C167 0.959 . S
H156 C170 0.929 . S
H157 C171 0.931 . S
H158 C173 0.930 . S
C159 H147 0.930 . S
C159 C160 1.399 . S
C159 C164 1.399 . S
C160 C159 1.399 . S
C160 C161 1.376 . S
C161 H148 0.930 . S
C161 C160 1.376 . S
C161 C162 1.388 . S
C162 H149 0.930 . S
C162 C161 1.388 . S
C162 C163 1.390 . S
C163 C162 1.390 . S
C163 C164 1.394 . S
C163 C169 1.465 . S
C164 C159 1.399 . S
C164 C163 1.394 . S
C164 C165 1.516 . S
C165 C164 1.516 . S
C165 C166 1.502 . S
C165 C167 1.561 . S
C165 C168 1.526 . S
C166 H150 0.959 . S
C166 H151 0.959 . S
C166 H152 0.961 . S
C166 C165 1.502 . S
C167 H153 0.960 . S
C167 H154 0.961 . S
C167 H155 0.959 . S
C167 C165 1.561 . S
C168 C165 1.526 . S
C168 C169 1.396 . S
C168 C173 1.390 . S
C169 C163 1.465 . S
C169 C168 1.396 . S
C169 C170 1.399 . S
C170 H156 0.929 . S
C170 C169 1.399 . S
C170 C171 1.385 . S
C171 H157 0.931 . S
C171 C170 1.385 . S
C171 C172 1.389 . S
C172 C171 1.389 . S
C172 C173 1.387 . S
C173 H158 0.930 . S
C173 C168 1.390 . S
C173 C172 1.387 . S
H174 C186 0.930 . S
H175 C188 0.930 . S
H176 C189 0.930 . S
H177 C193 0.959 . S
H178 C193 0.959 . S
H179 C193 0.961 . S
H180 C194 0.960 . S
H181 C194 0.961 . S
H182 C194 0.959 . S
H183 C197 0.929 . S
H184 C198 0.931 . S
H185 C200 0.930 . S
C186 H174 0.930 . S
C186 C187 1.399 . S
C186 C191 1.399 . S
C187 C186 1.399 . S
C187 C188 1.376 . S
C188 H175 0.930 . S
C188 C187 1.376 . S
C188 C189 1.388 . S
C189 H176 0.930 . S
C189 C188 1.388 . S
C189 C190 1.390 . S
C190 C189 1.390 . S
C190 C191 1.394 . S
C190 C196 1.465 . S
C191 C186 1.399 . S
C191 C190 1.394 . S
C191 C192 1.516 . S
C192 C191 1.516 . S
C192 C193 1.502 . S
C192 C194 1.561 . S
C192 C195 1.526 . S
C193 H177 0.959 . S
C193 H178 0.959 . S
C193 H179 0.961 . S
C193 C192 1.502 . S
C194 H180 0.960 . S
C194 H181 0.961 . S
C194 H182 0.959 . S
C194 C192 1.561 . S
C195 C192 1.526 . S
C195 C196 1.396 . S
C195 C200 1.390 . S
C196 C190 1.465 . S
C196 C195 1.396 . S
C196 C197 1.399 . S
C197 H183 0.929 . S
C197 C196 1.399 . S
C197 C198 1.385 . S
C198 H184 0.931 . S
C198 C197 1.385 . S
C198 C199 1.389 . S
C199 C198 1.389 . S
C199 C200 1.387 . S
C200 H185 0.930 . S
C200 C195 1.390 . S
C200 C199 1.387 . S
H201 C213 0.930 . S
H202 C215 0.930 1_554 S
H203 C216 0.930 . S
H204 C220 0.959 1_554 S
H205 C220 0.959 . S
H206 C220 0.961 . S
H207 C221 0.960 . S
H208 C221 0.961 . S
H209 C221 0.959 . S
H210 C224 0.929 . S
H211 C225 0.931 . S
H212 C227 0.930 . S
C213 H201 0.930 . S
C213 C214 1.399 . S
C213 C218 1.399 . S
C214 C213 1.399 . S
C214 C215 1.376 . S
C215 H202 0.930 1_556 S
C215 C214 1.376 . S
C215 C216 1.388 1_556 S
C216 H203 0.930 . S
C216 C215 1.388 1_554 S
C216 C217 1.390 . S
C217 C216 1.390 . S
C217 C218 1.394 1_554 S
C217 C223 1.465 . S
C218 C213 1.399 . S
C218 C217 1.394 1_556 S
C218 C219 1.516 . S
C219 C218 1.516 . S
C219 C220 1.502 . S
C219 C221 1.561 . S
C219 C222 1.526 1_556 S
C220 H204 0.959 1_556 S
C220 H205 0.959 . S
C220 H206 0.961 . S
C220 C219 1.502 . S
C221 H207 0.960 . S
C221 H208 0.961 . S
C221 H209 0.959 . S
C221 C219 1.561 . S
C222 C219 1.526 1_554 S
C222 C223 1.396 . S
C222 C227 1.390 . S
C223 C217 1.465 . S
C223 C222 1.396 . S
C223 C224 1.399 . S
C224 H210 0.929 . S
C224 C223 1.399 . S
C224 C225 1.385 . S
C225 H211 0.931 . S
C225 C224 1.385 . S
C225 C226 1.389 . S
C226 C225 1.389 . S
C226 C227 1.387 . S
C227 H212 0.930 . S
C227 C222 1.390 . S
C227 C226 1.387 . S
H228 C240 0.930 . S
H229 C242 0.930 . S
H230 C243 0.930 . S
H231 C247 0.959 . S
H232 C247 0.959 . S
H233 C247 0.961 . S
H234 C248 0.960 . S
H235 C248 0.961 . S
H236 C248 0.959 . S
H237 C251 0.929 . S
H238 C252 0.931 . S
H239 C254 0.930 . S
C240 H228 0.930 . S
C240 C241 1.399 . S
C240 C245 1.399 . S
C241 C240 1.399 . S
C241 C242 1.376 . S
C242 H229 0.930 . S
C242 C241 1.376 . S
C242 C243 1.388 . S
C243 H230 0.930 . S
C243 C242 1.388 . S
C243 C244 1.390 . S
C244 C243 1.390 . S
C244 C245 1.394 . S
C244 C250 1.465 . S
C245 C240 1.399 . S
C245 C244 1.394 . S
C245 C246 1.516 . S
C246 C245 1.516 . S
C246 C247 1.502 . S
C246 C248 1.561 . S
C246 C249 1.526 . S
C247 H231 0.959 . S
C247 H232 0.959 . S
C247 H233 0.961 . S
C247 C246 1.502 . S
C248 H234 0.960 . S
C248 H235 0.961 . S
C248 H236 0.959 . S
C248 C246 1.561 . S
C249 C246 1.526 . S
C249 C250 1.396 . S
C249 C254 1.390 . S
C250 C244 1.465 . S
C250 C249 1.396 . S
C250 C251 1.399 . S
C251 H237 0.929 . S
C251 C250 1.399 . S
C251 C252 1.385 . S
C252 H238 0.931 . S
C252 C251 1.385 . S
C252 C253 1.389 . S
C253 C252 1.389 . S
C253 C254 1.387 . S
C254 H239 0.930 . S
C254 C249 1.390 . S
C254 C253 1.387 . S
H255 C267 0.930 . S
H256 C269 0.930 . S
H257 C270 0.930 . S
H258 C274 0.959 . S
H259 C274 0.959 . S
H260 C274 0.961 . S
H261 C275 0.960 . S
H262 C275 0.961 . S
H263 C275 0.959 . S
H264 C278 0.929 . S
H265 C279 0.931 . S
H266 C281 0.930 . S
C267 H255 0.930 . S
C267 C268 1.399 . S
C267 C272 1.399 . S
C268 C267 1.399 . S
C268 C269 1.376 . S
C269 H256 0.930 . S
C269 C268 1.376 . S
C269 C270 1.388 . S
C270 H257 0.930 . S
C270 C269 1.388 . S
C270 C271 1.390 . S
C271 C270 1.390 . S
C271 C272 1.394 . S
C271 C277 1.465 . S
C272 C267 1.399 . S
C272 C271 1.394 . S
C272 C273 1.516 . S
C273 C272 1.516 . S
C273 C274 1.502 . S
C273 C275 1.561 . S
C273 C276 1.526 . S
C274 H258 0.959 . S
C274 H259 0.959 . S
C274 H260 0.961 . S
C274 C273 1.502 . S
C275 H261 0.960 . S
C275 H262 0.961 . S
C275 H263 0.959 . S
C275 C273 1.561 . S
C276 C273 1.526 . S
C276 C277 1.396 . S
C276 C281 1.390 . S
C277 C271 1.465 . S
C277 C276 1.396 . S
C277 C278 1.399 . S
C278 H264 0.929 . S
C278 C277 1.399 . S
C278 C279 1.385 . S
C279 H265 0.931 . S
C279 C278 1.385 . S
C279 C280 1.389 . S
C280 C279 1.389 . S
C280 C281 1.387 . S
C281 H266 0.930 . S
C281 C276 1.390 . S
C281 C280 1.387 . S
H282 C294 0.930 . S
H283 C296 0.930 . S
H284 C297 0.930 . S
H285 C301 0.959 . S
H286 C301 0.959 . S
H287 C301 0.961 . S
H288 C302 0.960 . S
H289 C302 0.961 . S
H290 C302 0.959 . S
H291 C305 0.929 . S
H292 C306 0.931 . S
H293 C308 0.930 . S
C294 H282 0.930 . S
C294 C295 1.399 . S
C294 C299 1.399 . S
C295 C294 1.399 . S
C295 C296 1.376 . S
C296 H283 0.930 . S
C296 C295 1.376 . S
C296 C297 1.388 . S
C297 H284 0.930 . S
C297 C296 1.388 . S
C297 C298 1.390 . S
C298 C297 1.390 . S
C298 C299 1.394 . S
C298 C304 1.465 . S
C299 C294 1.399 . S
C299 C298 1.394 . S
C299 C300 1.516 . S
C300 C299 1.516 . S
C300 C301 1.502 . S
C300 C302 1.561 1_455 S
C300 C303 1.526 . S
C301 H285 0.959 . S
C301 H286 0.959 . S
C301 H287 0.961 . S
C301 C300 1.502 . S
C302 H288 0.960 . S
C302 H289 0.961 . S
C302 H290 0.959 . S
C302 C300 1.561 1_655 S
C303 C300 1.526 . S
C303 C304 1.396 . S
C303 C308 1.390 . S
C304 C298 1.465 . S
C304 C303 1.396 . S
C304 C305 1.399 . S
C305 H291 0.929 . S
C305 C304 1.399 . S
C305 C306 1.385 . S
C306 H292 0.931 . S
C306 C305 1.385 . S
C306 C307 1.389 . S
C307 C306 1.389 . S
C307 C308 1.387 . S
C308 H293 0.930 . S
C308 C303 1.390 . S
C308 C307 1.387 . S
H309 C321 0.930 . S
H310 C323 0.930 . S
H311 C324 0.930 . S
H312 C328 0.959 . S
H313 C328 0.959 . S
H314 C328 0.958 1_554 S
H315 C329 0.960 . S
H316 C329 0.961 . S
H317 C329 0.959 . S
H318 C332 0.929 . S
H319 C333 0.931 . S
H320 C335 0.930 . S
C321 H309 0.930 . S
C321 C322 1.399 . S
C321 C326 1.399 . S
C322 C321 1.399 . S
C322 C323 1.376 . S
C323 H310 0.930 . S
C323 C322 1.376 . S
C323 C324 1.388 . S
C324 H311 0.930 . S
C324 C323 1.388 . S
C324 C325 1.390 . S
C325 C324 1.390 . S
C325 C326 1.394 . S
C325 C331 1.465 1_554 S
C326 C321 1.399 . S
C326 C325 1.394 . S
C326 C327 1.516 1_554 S
C327 C326 1.516 1_556 S
C327 C328 1.502 . S
C327 C329 1.561 . S
C327 C330 1.526 . S
C328 H312 0.959 . S
C328 H313 0.959 . S
C328 H314 0.958 1_556 S
C328 C327 1.502 . S
C329 H315 0.960 . S
C329 H316 0.961 . S
C329 H317 0.959 . S
C329 C327 1.561 . S
C330 C327 1.526 . S
C330 C331 1.396 . S
C330 C335 1.390 . S
C331 C325 1.465 1_556 S
C331 C330 1.396 . S
C331 C332 1.399 . S
C332 H318 0.929 . S
C332 C331 1.399 . S
C332 C333 1.385 . S
C333 H319 0.931 . S
C333 C332 1.385 . S
C333 C334 1.389 . S
C334 C333 1.389 . S
C334 C335 1.387 . S
C335 H320 0.930 . S
C335 C330 1.390 . S
C335 C334 1.387 . S
H336 C348 0.930 . S
H337 C350 0.930 . S
H338 C351 0.930 . S
H339 C355 0.959 . S
H340 C355 0.959 . S
H341 C355 0.961 . S
H342 C356 0.960 . S
H343 C356 0.961 . S
H344 C356 0.959 . S
H345 C359 0.929 . S
H346 C360 0.931 . S
H347 C362 0.930 . S
C348 H336 0.930 . S
C348 C349 1.399 . S
C348 C353 1.399 . S
C349 C348 1.399 . S
C349 C350 1.376 . S
C350 H337 0.930 . S
C350 C349 1.376 . S
C350 C351 1.388 . S
C351 H338 0.930 . S
C351 C350 1.388 . S
C351 C352 1.390 . S
C352 C351 1.390 . S
C352 C353 1.394 . S
C352 C358 1.465 . S
C353 C348 1.399 . S
C353 C352 1.394 . S
C353 C354 1.516 . S
C354 C353 1.516 . S
C354 C355 1.502 . S
C354 C356 1.561 . S
C354 C357 1.526 . S
C355 H339 0.959 . S
C355 H340 0.959 . S
C355 H341 0.961 . S
C355 C354 1.502 . S
C356 H342 0.960 . S
C356 H343 0.961 . S
C356 H344 0.959 . S
C356 C354 1.561 . S
C357 C354 1.526 . S
C357 C358 1.396 . S
C357 C362 1.390 . S
C358 C352 1.465 . S
C358 C357 1.396 . S
C358 C359 1.399 . S
C359 H345 0.929 . S
C359 C358 1.399 . S
C359 C360 1.385 . S
C360 H346 0.931 . S
C360 C359 1.385 . S
C360 C361 1.389 . S
C361 C360 1.389 . S
C361 C362 1.387 . S
C362 H347 0.930 . S
C362 C357 1.390 . S
C362 C361 1.387 . S
C133 C7 2.177 . S
C145 C82 2.149 . S
C160 C51 3.029 . S
C172 C11 2.977 . S
C187 C47 1.593 . S
C199 C87 1.513 . S
C214 C91 2.628 . S
C226 C16 2.488 . S
C241 C42 2.666 1_565 S
C253 C2 2.610 . S
C268 C96 1.522 . S
C280 C56 1.565 . S
C295 C19 0.464 . S
C307 C10 0.656 . S
C322 C50 0.638 . S
C334 C59 0.471 . S
C349 C99 0.454 . S
C361 C90 0.625 . S
