# Generated by pormake.
# Topology umz, (4)-cn, num edge types: 1
# Building blocks:
#     Node 0, Type 0, BuildingBlock: TATPOV_clean_sbu_0, # of connection points: 4
#     Node 1, Type 0, BuildingBlock: TATPOV_clean_sbu_0, # of connection points: 4
#     Node 2, Type 0, BuildingBlock: TATPOV_clean_sbu_0, # of connection points: 4
#     Node 3, Type 0, BuildingBlock: TATPOV_clean_sbu_0, # of connection points: 4
#     Node 4, Type 0, BuildingBlock: TATPOV_clean_sbu_0, # of connection points: 4
#     Node 5, Type 0, BuildingBlock: TATPOV_clean_sbu_0, # of connection points: 4
#     Node 6, Type 0, BuildingBlock: TATPOV_clean_sbu_0, # of connection points: 4
#     Node 7, Type 0, BuildingBlock: TATPOV_clean_sbu_0, # of connection points: 4
#     Node 8, Type 0, BuildingBlock: TATPOV_clean_sbu_0, # of connection points: 4
#     Node 9, Type 0, BuildingBlock: TATPOV_clean_sbu_0, # of connection points: 4
#     Node 10, Type 0, BuildingBlock: TATPOV_clean_sbu_0, # of connection points: 4
#     Node 11, Type 0, BuildingBlock: TATPOV_clean_sbu_0, # of connection points: 4
#     Node 12, Type 0, BuildingBlock: TATPOV_clean_sbu_0, # of connection points: 4
#     Node 13, Type 0, BuildingBlock: TATPOV_clean_sbu_0, # of connection points: 4
#     Node 14, Type 0, BuildingBlock: TATPOV_clean_sbu_0, # of connection points: 4
#     Node 15, Type 0, BuildingBlock: TATPOV_clean_sbu_0, # of connection points: 4
#     Edge 16, Type (0, 0), BuildingBlock: XIVTED_clean_linker_0, # of connection points: 2
#     Edge 17, Type (0, 0), BuildingBlock: XIVTED_clean_linker_0, # of connection points: 2
#     Edge 18, Type (0, 0), BuildingBlock: XIVTED_clean_linker_0, # of connection points: 2
#     Edge 19, Type (0, 0), BuildingBlock: XIVTED_clean_linker_0, # of connection points: 2
#     Edge 20, Type (0, 0), BuildingBlock: XIVTED_clean_linker_0, # of connection points: 2
#     Edge 21, Type (0, 0), BuildingBlock: XIVTED_clean_linker_0, # of connection points: 2
#     Edge 22, Type (0, 0), BuildingBlock: XIVTED_clean_linker_0, # of connection points: 2
#     Edge 23, Type (0, 0), BuildingBlock: XIVTED_clean_linker_0, # of connection points: 2
#     Edge 24, Type (0, 0), BuildingBlock: XIVTED_clean_linker_0, # of connection points: 2
#     Edge 25, Type (0, 0), BuildingBlock: XIVTED_clean_linker_0, # of connection points: 2
#     Edge 26, Type (0, 0), BuildingBlock: XIVTED_clean_linker_0, # of connection points: 2
#     Edge 27, Type (0, 0), BuildingBlock: XIVTED_clean_linker_0, # of connection points: 2
#     Edge 28, Type (0, 0), BuildingBlock: XIVTED_clean_linker_0, # of connection points: 2
#     Edge 29, Type (0, 0), BuildingBlock: XIVTED_clean_linker_0, # of connection points: 2
#     Edge 30, Type (0, 0), BuildingBlock: XIVTED_clean_linker_0, # of connection points: 2
#     Edge 31, Type (0, 0), BuildingBlock: XIVTED_clean_linker_0, # of connection points: 2
#     Edge 32, Type (0, 0), BuildingBlock: XIVTED_clean_linker_0, # of connection points: 2
#     Edge 33, Type (0, 0), BuildingBlock: XIVTED_clean_linker_0, # of connection points: 2
#     Edge 34, Type (0, 0), BuildingBlock: XIVTED_clean_linker_0, # of connection points: 2
#     Edge 35, Type (0, 0), BuildingBlock: XIVTED_clean_linker_0, # of connection points: 2
#     Edge 36, Type (0, 0), BuildingBlock: XIVTED_clean_linker_0, # of connection points: 2
#     Edge 37, Type (0, 0), BuildingBlock: XIVTED_clean_linker_0, # of connection points: 2
#     Edge 38, Type (0, 0), BuildingBlock: XIVTED_clean_linker_0, # of connection points: 2
#     Edge 39, Type (0, 0), BuildingBlock: XIVTED_clean_linker_0, # of connection points: 2
#     Edge 40, Type (0, 0), BuildingBlock: XIVTED_clean_linker_0, # of connection points: 2
#     Edge 41, Type (0, 0), BuildingBlock: XIVTED_clean_linker_0, # of connection points: 2
#     Edge 42, Type (0, 0), BuildingBlock: XIVTED_clean_linker_0, # of connection points: 2
#     Edge 43, Type (0, 0), BuildingBlock: XIVTED_clean_linker_0, # of connection points: 2
#     Edge 44, Type (0, 0), BuildingBlock: XIVTED_clean_linker_0, # of connection points: 2
#     Edge 45, Type (0, 0), BuildingBlock: XIVTED_clean_linker_0, # of connection points: 2
#     Edge 46, Type (0, 0), BuildingBlock: XIVTED_clean_linker_0, # of connection points: 2
#     Edge 47, Type (0, 0), BuildingBlock: XIVTED_clean_linker_0, # of connection points: 2
# Relax obj value: 0.193
# Max RMSD: 0.156
# Mean RMSD: 0.156
data_MOF--net-umz--node1-TATPOV_clean_sbu_0--edge1-XIVTED_clean_linker_0
_symmetry_space_group_name_H-M    P1
_symmetry_Int_Tables_number       1
_symmetry_cell_setting            triclinic
loop_
_symmetry_equiv_pos_as_xyz
'x, y, z'
_cell_length_a     60.420685
_cell_length_b     60.414487
_cell_length_c     21.99633
_cell_angle_alpha  89.892473
_cell_angle_beta   90.008302
_cell_angle_gamma 90.042594
loop_
_atom_site_label
_atom_site_type_symbol
_atom_site_fract_x
_atom_site_fract_y
_atom_site_fract_z
_atom_type_partial_charge
Zn0 Zn 0.97941 0.57638 0.97857 0.0
Zn1 Zn 0.99362 0.61516 0.00887 0.0
O2 O 0.96304 0.61032 0.05221 0.0
O3 O 0.95033 0.57822 0.02102 0.0
O4 O -0.00104 0.64812 0.02101 0.0
O5 O 0.98151 0.58059 0.88902 0.0
O6 O -0.00115 0.61099 0.91579 0.0
C7 C 0.94804 0.59538 0.05316 0.0
C8 C 0.02003 0.57705 0.05396 0.0
O9 O 0.01759 0.59802 0.05486 0.0
O10 O 0.00644 0.56506 0.02474 0.0
C11 C 0.01207 0.65953 0.98817 0.0
O12 O 0.02416 0.64949 0.94696 0.0
C13 C 0.99299 0.59728 0.87478 0.0
Zn14 Zn 0.91609 0.98979 0.48633 0.0
Zn15 Zn 0.87691 0.00262 0.51634 0.0
O16 O 0.8826 0.97215 0.55972 0.0
O17 O 0.91525 0.96073 0.52918 0.0
O18 O 0.84376 0.00668 0.52772 0.0
O19 O 0.91191 0.9914 0.39679 0.0
O20 O 0.88107 0.008 0.42318 0.0
C21 C 0.89806 0.95772 0.56081 0.0
C22 C 0.91396 0.03054 0.56088 0.0
O23 O 0.8931 0.02724 0.56237 0.0
O24 O 0.92639 0.01741 0.53158 0.0
C25 C 0.83211 0.01982 0.49565 0.0
O26 O 0.84199 0.03283 0.45613 0.0
C27 C 0.89495 0.0024 0.3823 0.0
Zn28 Zn 0.50455 0.91104 -0.00111 0.0
Zn29 Zn 0.49309 0.87135 0.02777 0.0
O30 O 0.52314 0.87803 0.07254 0.0
O31 O 0.53341 0.91116 0.0423 0.0
O32 O 0.48985 0.838 0.03823 0.0
O33 O 0.50366 0.90728 0.90937 0.0
O34 O 0.4881 0.87569 0.93435 0.0
C35 C 0.53696 0.89406 0.07393 0.0
C36 C 0.46365 0.90722 0.07209 0.0
O37 O 0.46773 0.88651 0.07333 0.0
O38 O 0.47641 0.92026 0.04332 0.0
C39 C 0.47719 0.82624 0.00508 0.0
O40 O 0.46432 0.83605 0.96516 0.0
C41 C 0.49344 0.88994 0.89405 0.0
Zn42 Zn 0.5762 0.50729 0.48557 0.0
Zn43 Zn 0.6146 0.49143 0.50672 0.0
O44 O 0.61244 0.52103 0.55676 0.0
O45 O 0.5802 0.53523 0.532 0.0
O46 O 0.64747 0.48459 0.50242 0.0
O47 O 0.57676 0.50742 0.39522 0.0
O48 O 0.60658 0.48802 0.41486 0.0
C49 C 0.598 0.53637 0.56199 0.0
C50 C 0.57748 0.465 0.55499 0.0
O51 O 0.59851 0.46689 0.55353 0.0
O52 O 0.5654 0.47945 0.52928 0.0
C53 C 0.66206 0.48633 0.54384 0.0
O54 O 0.65602 0.49211 0.59894 0.0
C55 C 0.59227 0.49513 0.37694 0.0
Zn56 Zn 0.99053 0.90923 0.98609 0.0
Zn57 Zn 0.00533 0.87097 0.95699 0.0
O58 O 0.97516 0.87519 0.91086 0.0
O59 O 0.96188 0.90705 0.94195 0.0
O60 O 0.01157 0.83806 0.94871 0.0
O61 O 0.99165 0.90563 0.07582 0.0
O62 O 0.01011 0.87582 0.05015 0.0
C63 C 0.96005 0.88998 0.90927 0.0
C64 C 0.03173 0.90908 0.91301 0.0
O65 O 0.02944 0.8881 0.91176 0.0
O66 O 0.01786 0.92091 0.94169 0.0
C67 C -0.00014 0.82557 0.98256 0.0
O68 O 0.98488 0.83471 0.01777 0.0
C69 C 0.00359 0.88937 0.09077 0.0
Zn70 Zn 0.58237 0.99174 0.49656 0.0
Zn71 Zn 0.62123 0.00577 0.46724 0.0
O72 O 0.61681 0.97545 0.42211 0.0
O73 O 0.58447 0.96303 0.45277 0.0
O74 O 0.65411 0.01203 0.45811 0.0
O75 O 0.58638 0.99284 0.58614 0.0
O76 O 0.61692 0.01025 0.56064 0.0
C77 C 0.60169 0.96063 0.4209 0.0
C78 C 0.58332 0.03284 0.42348 0.0
O79 O 0.60424 0.0301 0.42228 0.0
O80 O 0.57115 0.01922 0.45215 0.0
C81 C 0.66675 -0.0001 0.49033 0.0
O82 O 0.65778 0.98436 0.52419 0.0
C83 C 0.60317 0.004 0.60121 0.0
Zn84 Zn 0.50765 0.57784 -0.00326 0.0
Zn85 Zn 0.49193 0.61538 0.96462 0.0
O86 O 0.5227 0.61172 0.92122 0.0
O87 O 0.53687 0.58063 0.95532 0.0
O88 O 0.48504 0.64817 0.95574 0.0
O89 O 0.50472 0.58129 0.08639 0.0
O90 O 0.48572 0.61032 0.05697 0.0
C91 C 0.53835 0.59748 0.92144 0.0
C92 C 0.46745 0.57647 0.91917 0.0
O93 O 0.46892 0.59752 0.91748 0.0
O94 O 0.4814 0.56526 0.9495 0.0
C95 C 0.49622 0.66082 -0.0096 0.0
O96 O 0.51117 0.6519 0.02625 0.0
C97 C 0.49178 0.59705 0.09896 0.0
Zn98 Zn 0.90852 0.50754 0.48894 0.0
Zn99 Zn 0.87048 0.49081 0.46698 0.0
O100 O 0.87223 0.52042 0.41673 0.0
O101 O 0.90413 0.53529 0.44181 0.0
O102 O 0.83773 0.48322 0.47016 0.0
O103 O 0.90745 0.50789 0.5792 0.0
O104 O 0.87816 0.48772 0.55913 0.0
C105 C 0.88639 0.53605 0.41151 0.0
C106 C 0.90838 0.46519 0.42022 0.0
O107 O 0.88731 0.46665 0.42096 0.0
O108 O 0.92008 0.47986 0.44621 0.0
C109 C 0.82312 0.48698 0.42982 0.0
O110 O 0.82916 0.49536 0.37721 0.0
C111 C 0.89213 0.49529 0.59731 0.0
Zn112 Zn 0.00648 0.41436 -0.00215 0.0
Zn113 Zn 0.99133 0.3763 0.96688 0.0
O114 O 0.02204 0.38028 0.92318 0.0
O115 O 0.03563 0.41178 0.95618 0.0
O116 O 0.98453 0.34351 0.95742 0.0
O117 O 0.00397 0.41062 0.08749 0.0
O118 O 0.9855 0.38105 0.05956 0.0
C119 C 0.03744 0.39482 0.92305 0.0
C120 C 0.96615 0.41494 0.92112 0.0
O121 O 0.968 0.39392 0.92014 0.0
O122 O 0.97995 0.42652 0.95083 0.0
C123 C 0.99534 0.33061 -0.00767 0.0
O124 O 0.01003 0.33924 0.02945 0.0
C125 C 0.99161 0.39448 0.10099 0.0
Zn126 Zn 0.08314 0.00318 0.48565 0.0
Zn127 Zn 0.12148 0.98811 0.45692 0.0
O128 O 0.1179 0.01839 0.41077 0.0
O129 O 0.08585 0.03164 0.44064 0.0
O130 O 0.15432 0.98127 0.45028 0.0
O131 O 0.08673 0.00239 0.57547 0.0
O132 O 0.11639 0.98364 0.55001 0.0
C133 C 0.10314 0.03353 0.40876 0.0
C134 C 0.08318 0.96184 0.41338 0.0
O135 O 0.10416 0.96411 0.41172 0.0
O136 O 0.0714 0.97573 0.4421 0.0
C137 C 0.16669 0.99317 0.48385 0.0
O138 O 0.15748 0.00882 0.51667 0.0
C139 C 0.10293 0.9904 0.59057 0.0
Zn140 Zn 0.49336 0.08274 -0.00382 0.0
Zn141 Zn 0.50623 0.12141 0.96465 0.0
O142 O 0.47609 0.11606 0.91932 0.0
O143 O 0.4654 0.08295 0.94852 0.0
O144 O 0.51161 0.15443 0.95482 0.0
O145 O 0.4927 0.08757 0.08547 0.0
O146 O 0.5109 0.11742 0.05822 0.0
C147 C 0.46219 0.10011 0.91684 0.0
C148 C 0.53482 0.08413 0.92549 0.0
O149 O 0.53094 0.1048 0.92023 0.0
O150 O 0.52191 0.07197 0.95655 0.0
C151 C 0.49927 0.16674 0.98728 0.0
O152 O 0.48416 0.15733 0.02168 0.0
C153 C 0.50421 0.10421 0.09966 0.0
Zn154 Zn 0.4093 0.48371 0.48574 0.0
Zn155 Zn 0.37054 0.49872 0.46625 0.0
O156 O 0.37338 0.46921 0.41634 0.0
O157 O 0.40583 0.45543 0.44071 0.0
O158 O 0.33739 0.50365 0.47305 0.0
O159 O 0.40953 0.48389 0.57599 0.0
O160 O 0.37925 0.5027 0.55746 0.0
C161 C 0.38798 0.45403 0.41109 0.0
C162 C 0.40638 0.52589 0.41526 0.0
O163 O 0.38539 0.52366 0.41803 0.0
O164 O 0.41891 0.5117 0.44048 0.0
C165 C 0.323 0.5107 0.43552 0.0
O166 O 0.32918 0.51669 0.38064 0.0
C167 C 0.39395 0.49597 0.59477 0.0
Zn168 Zn 0.00674 0.08131 0.98438 0.0
Zn169 Zn 0.99339 0.11997 0.01629 0.0
O170 O 0.02377 0.11414 0.06013 0.0
O171 O 0.03558 0.08186 0.02794 0.0
O172 O 0.98906 0.15309 0.02896 0.0
O173 O 0.00561 0.08599 0.89503 0.0
O174 O 0.98816 0.11617 0.92289 0.0
C175 C 0.03831 0.09878 0.06072 0.0
C176 C 0.96575 0.08237 0.0584 0.0
O177 O 0.96886 0.10324 0.06137 0.0
O178 O 0.97904 0.07035 0.02831 0.0
C179 C 0.97676 0.16506 -0.00471 0.0
O180 O 0.96473 0.15557 0.95294 0.0
C181 C 0.9942 0.10277 0.88133 0.0
Zn182 Zn 0.41505 -0.00036 0.49559 0.0
Zn183 Zn 0.37608 0.98768 0.52854 0.0
O184 O 0.38239 0.01825 0.57063 0.0
O185 O 0.41522 0.02861 0.53846 0.0
O186 O 0.34288 0.984 0.54009 0.0
O187 O 0.41037 -0.00154 0.40638 0.0
O188 O 0.37978 0.98193 0.43536 0.0
C189 C 0.39827 0.03224 0.5705 0.0
C190 C 0.41284 0.95902 0.57076 0.0
O191 O 0.39216 0.96301 0.575 0.0
O192 O 0.42519 0.97163 0.53936 0.0
C193 C 0.33139 0.9705 0.50877 0.0
O194 O 0.3415 0.95696 0.47127 0.0
C195 C 0.3933 0.98738 0.39335 0.0
Zn196 Zn 0.4787 0.41481 0.9736 0.0
Zn197 Zn 0.49403 0.37677 0.00662 0.0
O198 O 0.46338 0.38124 0.0496 0.0
O199 O 0.44953 0.41249 0.0156 0.0
O200 O 0.49977 0.34393 0.01984 0.0
O201 O 0.48119 0.41018 0.88425 0.0
O202 O 0.49958 0.38072 0.91362 0.0
C203 C 0.44787 0.39562 0.04933 0.0
C204 C 0.51922 0.4157 0.05019 0.0
O205 O 0.51745 0.39467 0.05222 0.0
O206 O 0.50534 0.42706 0.01999 0.0
C207 C 0.51328 0.3327 0.98795 0.0
O208 O 0.52564 0.3429 0.94754 0.0
C209 C 0.4934 0.39388 0.87152 0.0
Zn210 Zn 0.07601 0.4848 0.48557 0.0
Zn211 Zn 0.11404 0.50144 0.51045 0.0
O212 O 0.11176 0.47152 0.55945 0.0
O213 O 0.08003 0.45682 0.53204 0.0
O214 O 0.14673 0.5097 0.5106 0.0
O215 O 0.0781 0.48491 0.3954 0.0
O216 O 0.1073 0.50488 0.41782 0.0
C217 C 0.09754 0.45589 0.56329 0.0
C218 C 0.07555 0.52684 0.55534 0.0
O219 O 0.09661 0.52533 0.55573 0.0
O220 O 0.06401 0.51227 0.52837 0.0
C221 C 0.16163 0.50142 0.54458 0.0
O222 O 0.1559 0.48744 0.5876 0.0
C223 C 0.09363 0.49748 0.37859 0.0
H224 H 0.98778 0.68591 0.06446 0.0
H225 H 0.02855 0.80015 0.91461 0.0
H226 H 0.03605 0.68921 0.92006 0.0
H227 H 0.97837 0.79535 0.05367 0.0
H228 H 0.03297 0.7598 0.91851 0.0
H229 H 0.98582 0.72627 0.06459 0.0
C230 C -0.00191 0.6951 0.03303 0.0
C231 C 0.01204 0.68408 -0.00797 0.0
C232 C 0.02102 0.76761 0.9482 0.0
C233 C 0.00977 0.73047 -0.00836 0.0
C234 C 0.01848 0.79065 0.94595 0.0
C235 C 0.00302 0.8012 0.98372 0.0
C236 C 0.00803 0.75504 0.9886 0.0
C237 C 0.99045 0.78801 0.02352 0.0
C238 C -0.00307 0.7182 0.033 0.0
C239 C 0.02502 0.69696 0.95241 0.0
N240 N 0.99323 0.7657 0.02484 0.0
N241 N 0.0235 0.71944 0.95302 0.0
H242 H 0.69735 0.97711 0.55689 0.0
H243 H 0.80204 0.04445 0.4308 0.0
H244 H 0.69171 0.03065 0.42762 0.0
H245 H 0.80612 0.99259 0.5656 0.0
H246 H 0.76174 0.0404 0.43009 0.0
H247 H 0.73719 0.983 0.56074 0.0
C248 C 0.70447 0.99012 0.52918 0.0
C249 C 0.69108 0.00338 0.49177 0.0
C250 C 0.77145 0.02999 0.46002 0.0
C251 C 0.73699 0.01028 0.49615 0.0
C252 C 0.79449 0.03232 0.46059 0.0
C253 C 0.80757 0.0188 0.49823 0.0
C254 C 0.76136 0.01398 0.49723 0.0
C255 C 0.79678 0.00337 0.53578 0.0
C256 C 0.7273 0.99351 0.53153 0.0
C257 C 0.70136 0.02 0.45704 0.0
N258 N 0.77437 0.00133 0.5341 0.0
N259 N 0.7237 0.02296 0.46001 0.0
H260 H 0.50332 0.80031 0.07829 0.0
H261 H 0.46671 0.68573 0.92332 0.0
H262 H 0.45429 0.79611 0.936 0.0
H263 H 0.51688 0.69133 0.06219 0.0
H264 H 0.46086 0.72586 0.92904 0.0
H265 H 0.50717 0.76009 0.07569 0.0
C266 C 0.49325 0.79094 0.04674 0.0
C267 C 0.4785 0.80169 0.00719 0.0
C268 C 0.47313 0.71827 0.95826 0.0
C269 C 0.48295 0.75546 0.00365 0.0
C270 C 0.4765 0.69536 0.95495 0.0
C271 C 0.49235 0.68509 -0.00779 0.0
C272 C 0.48569 0.73101 -0.00081 0.0
C273 C 0.50451 0.69845 0.03244 0.0
C274 C 0.4955 0.76793 0.04516 0.0
C275 C 0.4659 0.78859 0.9673 0.0
N276 N 0.50093 0.72063 0.0348 0.0
N277 N 0.46847 0.7662 0.96639 0.0
H278 H 0.6979 0.48562 0.62087 0.0
H279 H 0.7873 0.48995 0.35328 0.0
H280 H 0.68055 0.4814 0.43087 0.0
H281 H 0.80456 0.47769 0.54076 0.0
H282 H 0.7481 0.48776 0.38083 0.0
H283 H 0.73708 0.48365 0.59282 0.0
C284 C 0.70229 0.48416 0.57332 0.0
C285 C 0.68585 0.48373 0.52823 0.0
C286 C 0.76048 0.48539 0.41586 0.0
C287 C 0.73073 0.48168 0.4957 0.0
C288 C 0.78288 0.48666 0.40014 0.0
C289 C 0.79931 0.48405 0.44472 0.0
C290 C 0.75439 0.48175 0.47677 0.0
C291 C 0.79252 0.47979 0.50477 0.0
C292 C 0.72468 0.48301 0.55732 0.0
C293 C 0.6926 0.48179 0.46728 0.0
N294 N 0.77062 0.47896 0.51908 0.0
N295 N 0.71447 0.48101 0.45283 0.0
H296 H 0.96665 0.30624 0.92142 0.0
H297 H 0.0014 0.19043 0.07351 0.0
H298 H 0.01498 0.29956 0.06481 0.0
H299 H 0.95463 0.19571 0.92583 0.0
H300 H 0.005 0.23069 0.07404 0.0
H301 H 0.96073 0.26607 0.92451 0.0
C302 C 0.97601 0.29636 0.95352 0.0
C303 C 0.99138 0.30634 -0.00721 0.0
C304 C 0.99387 0.22308 0.04164 0.0
C305 C 0.98464 0.26036 -0.00326 0.0
C306 C 0.99175 0.20004 0.04145 0.0
C307 C 0.97774 0.18959 -0.00057 0.0
C308 C 0.98192 0.23587 -0.00053 0.0
C309 C 0.96567 0.203 0.95899 0.0
C310 C 0.97261 0.27343 0.95532 0.0
C311 C 0.003 0.29267 0.03352 0.0
N312 N 0.9681 0.2254 0.95985 0.0
N313 N -0.0006 0.27047 0.03438 0.0
H314 H 0.3018 0.94577 0.44282 0.0
H315 H 0.19658 0.01537 0.55408 0.0
H316 H 0.30493 -0.00151 0.57472 0.0
H317 H 0.19205 0.96198 0.42453 0.0
H318 H 0.23618 0.00871 0.56316 0.0
H319 H 0.26162 0.95043 0.43757 0.0
C320 C 0.29405 0.95821 0.47108 0.0
C321 C 0.30684 0.97181 0.50917 0.0
C322 C 0.22658 -0.00159 0.53273 0.0
C323 C 0.26077 0.97733 0.50293 0.0
C324 C 0.2039 0.00223 0.52738 0.0
C325 C 0.19089 0.98924 0.48833 0.0
C326 C 0.23652 0.98146 0.49876 0.0
C327 C 0.20141 0.97243 0.45509 0.0
C328 C 0.27109 0.96089 0.46788 0.0
C329 C 0.29581 0.98764 0.54464 0.0
N330 N 0.22361 0.96905 0.46101 0.0
N331 N 0.27348 0.99002 0.54043 0.0
H332 H 0.47612 0.19664 0.05496 0.0
H333 H 0.53865 0.30337 0.92302 0.0
H334 H 0.5287 0.19261 0.9226 0.0
H335 H 0.48766 0.30592 0.06025 0.0
H336 H 0.53615 0.26294 0.92367 0.0
H337 H 0.48072 0.23666 0.05796 0.0
C338 C 0.48866 0.20416 0.02639 0.0
C339 C 0.50202 0.19116 0.98834 0.0
C340 C 0.5256 0.27234 0.95386 0.0
C341 C 0.50741 0.23728 -0.00828 0.0
C342 C 0.52704 0.29546 0.95365 0.0
C343 C 0.51329 0.30814 -0.00846 0.0
C344 C 0.51024 0.26178 -0.00789 0.0
C345 C 0.49858 0.2969 0.03019 0.0
C346 C 0.4913 0.22708 0.02826 0.0
C347 C 0.518 0.20195 0.95254 0.0
N348 N 0.49738 0.27442 0.02925 0.0
N349 N 0.52023 0.22438 0.95503 0.0
H350 H 0.3049 0.49759 0.54383 0.0
H351 H 0.17969 0.52415 0.44824 0.0
H352 H 0.28698 0.52495 0.36919 0.0
H353 H 0.19786 0.48789 0.60998 0.0
H354 H 0.21894 0.52803 0.42289 0.0
H355 H 0.26594 0.49726 0.57256 0.0
C356 C 0.29279 0.50361 0.51146 0.0
C357 C 0.29931 0.51123 0.45377 0.0
C358 C 0.21434 0.51932 0.46407 0.0
C359 C 0.25442 0.51088 0.48672 0.0
C360 C 0.19191 0.51717 0.47877 0.0
C361 C 0.18539 0.50558 0.5313 0.0
C362 C 0.23044 0.50994 0.50227 0.0
C363 C 0.20204 0.49688 0.56894 0.0
C364 C 0.27049 0.50338 0.52798 0.0
C365 C 0.28277 0.51887 0.41403 0.0
N366 N 0.22373 0.49919 0.55362 0.0
N367 N 0.2611 0.51846 0.4312 0.0
H368 H 0.03409 0.61266 0.84423 0.0
H369 H 0.03239 0.53912 0.54416 0.0
H370 H 0.9761 0.58146 0.7686 0.0
H371 H 0.09213 0.5553 0.64219 0.0
H372 H 0.01179 0.56435 0.60901 0.0
H373 H 0.05508 0.60187 0.75355 0.0
C374 C 0.02556 0.60429 0.80754 0.0
C375 C 0.0034 0.59767 0.81412 0.0
C376 C 0.02945 0.56262 0.61595 0.0
C377 C 0.0273 0.5851 0.7111 0.0
C378 C 0.04126 0.54816 0.57899 0.0
C379 C 0.06397 0.54469 0.58865 0.0
C380 C 0.04031 0.57364 0.66344 0.0
C381 C 0.0746 0.55726 0.63367 0.0
C382 C 0.03761 0.59793 0.75616 0.0
C383 C 0.99322 0.58667 0.76554 0.0
N384 N 0.06259 0.57093 0.67017 0.0
N385 N 0.00532 0.58047 0.71648 0.0
H386 H 0.95117 0.03991 0.04664 0.0
H387 H 0.88009 0.04362 0.35147 0.0
H388 H 0.93898 0.0998 0.14799 0.0
H389 H 0.90991 0.98497 0.27598 0.0
H390 H 0.89084 0.06424 0.25987 0.0
H391 H 0.92567 0.02015 0.11303 0.0
C392 C 0.94294 0.04901 0.08249 0.0
C393 C 0.94765 0.07147 0.09263 0.0
C394 C 0.89446 0.04671 0.26272 0.0
C395 C 0.91836 0.04879 0.16906 0.0
C396 C 0.88811 0.03487 0.3146 0.0
C397 C 0.89437 0.01263 0.3214 0.0
C398 C 0.90687 0.03608 0.21739 0.0
C399 C 0.90497 0.00215 0.27266 0.0
C400 C 0.92833 0.03768 0.12032 0.0
C401 C 0.93608 0.08243 0.13905 0.0
N402 N 0.91114 0.01404 0.22306 0.0
N403 N 0.92221 0.07088 0.17627 0.0
H404 H 0.51203 0.90451 0.78902 0.0
H405 H 0.45169 0.93834 0.545 0.0
H406 H 0.45237 0.87544 0.86109 0.0
H407 H 0.39778 0.9377 0.67359 0.0
H408 H 0.47205 0.91275 0.60984 0.0
H409 H 0.49212 0.91463 0.69716 0.0
C410 C 0.4949 0.89947 0.78427 0.0
C411 C 0.48382 0.88916 0.83254 0.0
C412 C 0.45582 0.91821 0.62413 0.0
C413 C 0.46059 0.901 0.72765 0.0
C414 C 0.44409 0.93272 0.5869 0.0
C415 C 0.42326 0.94065 0.60481 0.0
C416 C 0.44688 0.91192 0.68046 0.0
C417 C 0.41395 0.93227 0.65857 0.0
C418 C 0.48345 0.90522 0.73162 0.0
C419 C 0.46154 0.88326 0.82458 0.0
N420 N 0.42601 0.91864 0.69516 0.0
N421 N 0.45045 0.88983 0.77378 0.0
H422 H 0.5295 0.45964 0.04589 0.0
H423 H 0.6074 0.45486 0.33832 0.0
H424 H 0.54837 0.39872 0.13479 0.0
H425 H 0.57251 0.51301 0.27675 0.0
H426 H 0.59516 0.43525 0.24681 0.0
H427 H 0.55419 0.47992 0.11318 0.0
C428 C 0.539 0.45045 0.07919 0.0
C429 C 0.53648 0.42745 0.08549 0.0
C430 C 0.59064 0.45245 0.25274 0.0
C431 C 0.56488 0.45073 0.16289 0.0
C432 C 0.5978 0.46374 0.30461 0.0
C433 C 0.5907 0.48551 0.31542 0.0
C434 C 0.57653 0.46315 0.21135 0.0
C435 C 0.57814 0.49615 0.27047 0.0
C436 C 0.55314 0.46209 0.11757 0.0
C437 C 0.54958 0.41647 0.12882 0.0
N438 N 0.57124 0.48479 0.22078 0.0
N439 N 0.56302 0.42826 0.16651 0.0
H440 H 0.04005 0.94899 0.42246 0.0
H441 H 0.04479 0.87494 0.12355 0.0
H442 H 0.10058 0.9337 0.32712 0.0
H443 H 0.98577 0.90517 0.1958 0.0
H444 H 0.06499 0.88634 0.215 0.0
H445 H 0.0202 0.92338 0.35683 0.0
C446 C 0.04925 0.94007 0.38807 0.0
C447 C 0.07196 0.94389 0.37941 0.0
C448 C 0.04748 0.88994 0.21147 0.0
C449 C 0.04918 0.91449 0.30381 0.0
C450 C 0.03588 0.88323 0.15965 0.0
C451 C 0.01365 0.88941 0.15188 0.0
C452 C 0.03666 0.90268 0.25577 0.0
C453 C 0.00296 0.90032 0.19976 0.0
C454 C 0.03787 0.92539 0.35067 0.0
C455 C 0.08303 0.93148 0.33487 0.0
N456 N 0.01464 0.90687 0.24927 0.0
N457 N 0.07145 0.91757 0.29801 0.0
H458 H 0.5545 0.04462 0.95068 0.0
H459 H 0.58827 0.98506 0.70561 0.0
H460 H 0.55711 0.09937 0.82466 0.0
H461 H 0.61794 0.04483 0.6358 0.0
H462 H 0.57845 0.00454 0.7982 0.0
H463 H 0.57992 0.02408 0.88596 0.0
C464 C 0.56053 0.05237 0.90941 0.0
C465 C 0.55319 0.07351 0.89212 0.0
C466 C 0.58791 0.01332 0.76406 0.0
C467 C 0.58168 0.04971 0.81652 0.0
C468 C 0.59347 0.00212 0.71092 0.0
C469 C 0.60383 0.01338 0.66302 0.0
C470 C 0.59242 0.0361 0.76895 0.0
C471 C 0.61002 0.03554 0.67189 0.0
C472 C 0.57492 0.04054 0.87221 0.0
C473 C 0.56206 0.08298 0.83918 0.0
N474 N 0.60366 0.04637 0.72318 0.0
N475 N 0.57555 0.07083 0.80259 0.0
H476 H 0.38784 0.55273 0.32733 0.0
H477 H 0.45131 0.61485 0.12731 0.0
H478 H 0.44892 0.54027 0.42307 0.0
H479 H 0.50534 0.57757 0.20456 0.0
H480 H 0.42828 0.60453 0.21431 0.0
H481 H 0.40769 0.57786 0.25916 0.0
C482 C 0.4053 0.55571 0.33493 0.0
C483 C 0.4168 0.54407 0.38022 0.0
C484 C 0.44519 0.59871 0.21253 0.0
C485 C 0.43969 0.57306 0.30306 0.0
C486 C 0.45851 0.60494 0.16332 0.0
C487 C 0.48015 0.59667 0.1581 0.0
C488 C 0.45367 0.58411 0.2566 0.0
C489 C 0.48862 0.584 0.2062 0.0
C490 C 0.41668 0.57021 0.29613 0.0
C491 C 0.43943 0.54854 0.38801 0.0
N492 N 0.47529 0.57789 0.25294 0.0
N493 N 0.45015 0.56237 0.34932 0.0
H494 H 0.93636 0.3971 0.8398 0.0
H495 H 0.91026 0.51422 0.69811 0.0
H496 H 0.95624 0.45898 0.92128 0.0
H497 H 0.87873 0.45436 0.63565 0.0
H498 H 0.9225 0.4947 0.78919 0.0
H499 H 0.9112 0.41755 0.77273 0.0
C500 C 0.93523 0.41492 0.84418 0.0
C501 C 0.94877 0.42636 0.88541 0.0
C502 C 0.9125 0.48589 0.75632 0.0
C503 C 0.92008 0.44983 0.80892 0.0
C504 C 0.90541 0.4971 0.70443 0.0
C505 C 0.89371 0.48582 0.65903 0.0
C506 C 0.90831 0.46309 0.76215 0.0
C507 C 0.88779 0.46365 0.66955 0.0
C508 C 0.92082 0.42659 0.80599 0.0
C509 C 0.94645 0.44945 0.88945 0.0
N510 N 0.89563 0.45283 0.71939 0.0
N511 N 0.93266 0.4604 0.85119 0.0
H512 H 0.94995 0.38005 0.1295 0.0
H513 H 0.95131 0.45237 0.43198 0.0
H514 H 0.00801 0.41019 0.20793 0.0
H515 H 0.89169 0.43724 0.3322 0.0
H516 H 0.97187 0.42731 0.36654 0.0
H517 H 0.92866 0.39097 0.21952 0.0
C518 C 0.95841 0.38824 0.16661 0.0
C519 C 0.98072 0.39449 0.16106 0.0
C520 C 0.95424 0.42922 0.35932 0.0
C521 C 0.95646 0.40719 0.26338 0.0
C522 C 0.94246 0.44358 0.39663 0.0
C523 C 0.91981 0.4473 0.38669 0.0
C524 C 0.94341 0.41856 0.31116 0.0
C525 C 0.90918 0.43506 0.34099 0.0
C526 C 0.94618 0.39467 0.21763 0.0
C527 C 0.9908 0.40527 0.21017 0.0
N528 N 0.92117 0.42148 0.30414 0.0
N529 N 0.97854 0.41152 0.25888 0.0
H530 H 0.06054 0.89116 0.8293 0.0
H531 H 0.08799 0.00889 0.69561 0.0
H532 H 0.04366 0.95256 0.918 0.0
H533 H 0.11657 0.94902 0.62386 0.0
H534 H 0.07729 0.98879 0.78719 0.0
H535 H 0.08593 0.91157 0.76271 0.0
C536 C 0.06242 0.90884 0.83544 0.0
C537 C 0.04958 0.92022 0.87839 0.0
C538 C 0.08636 0.98008 0.75217 0.0
C539 C 0.0785 0.94365 0.80246 0.0
C540 C 0.09258 0.99163 0.70001 0.0
C541 C 0.10292 0.98053 0.65193 0.0
C542 C 0.08998 0.95712 0.75555 0.0
C543 C 0.10854 0.95817 0.65992 0.0
C544 C 0.07695 0.92049 0.7975 0.0
C545 C 0.05285 0.94312 0.88469 0.0
N546 N 0.10148 0.94702 0.7101 0.0
N547 N 0.06671 0.95408 0.84662 0.0
H548 H 0.602 0.06124 0.33965 0.0
H549 H 0.48509 0.09095 0.20567 0.0
H550 H 0.54016 0.04584 0.42854 0.0
H551 H 0.5457 0.11758 0.13234 0.0
H552 H 0.50483 0.0805 0.298 0.0
H553 H 0.58228 0.08711 0.27295 0.0
C554 C 0.58437 0.06354 0.34581 0.0
C555 C 0.57265 0.05096 0.38882 0.0
C556 C 0.51379 0.08911 0.26248 0.0
C557 C 0.55 0.08046 0.31277 0.0
C558 C 0.50244 0.09521 0.20991 0.0
C559 C 0.51385 0.10489 0.16119 0.0
C560 C 0.53684 0.09215 0.26559 0.0
C561 C 0.53632 0.11008 0.16893 0.0
C562 C 0.57311 0.07835 0.30781 0.0
C563 C 0.54984 0.0548 0.39517 0.0
N564 N 0.54726 0.10309 0.21951 0.0
N565 N 0.53925 0.06892 0.35703 0.0
H566 H 0.37872 0.53622 0.63317 0.0
H567 H 0.45767 0.53244 0.92357 0.0
H568 H 0.41429 0.47845 0.69446 0.0
H569 H 0.43809 0.59312 0.83459 0.0
H570 H 0.43297 0.51191 0.85695 0.0
H571 H 0.3912 0.5561 0.72403 0.0
C572 C 0.38853 0.52748 0.66672 0.0
C573 C 0.39573 0.50574 0.65602 0.0
C574 C 0.43387 0.52974 0.85237 0.0
C575 C 0.41017 0.52839 0.75928 0.0
C576 C 0.44802 0.54152 0.89034 0.0
C577 C 0.45032 0.56454 0.88385 0.0
C578 C 0.42191 0.54096 0.80725 0.0
C579 C 0.43705 0.57537 0.84067 0.0
C580 C 0.39582 0.53891 0.71818 0.0
C581 C 0.40857 0.49528 0.70068 0.0
N582 N 0.42359 0.56344 0.80337 0.0
N583 N 0.41559 0.50678 0.74999 0.0
H584 H 0.89524 0.05743 0.64814 0.0
H585 H 0.01251 0.09026 0.77381 0.0
H586 H 0.95646 0.04532 0.55272 0.0
H587 H 0.95208 0.11512 0.85216 0.0
H588 H 0.99208 0.07954 0.68296 0.0
H589 H 0.91483 0.08345 0.71465 0.0
C590 C 0.91268 0.0605 0.64052 0.0
C591 C 0.92432 0.04878 0.59569 0.0
C592 C 0.98328 0.08783 0.71924 0.0
C593 C 0.94681 0.07845 0.67145 0.0
C594 C 0.99503 0.0941 0.77094 0.0
C595 C 0.98392 0.10339 0.82059 0.0
C596 C 0.96014 0.09027 0.71795 0.0
C597 C 0.96124 0.10798 0.81473 0.0
C598 C 0.92386 0.07539 0.67841 0.0
C599 C 0.94688 0.05357 0.58753 0.0
N600 N 0.94994 0.10081 0.76498 0.0
N601 N 0.95741 0.06775 0.62552 0.0
H602 H 0.375 0.94733 0.36349 0.0
H603 H 0.43821 0.88751 0.16102 0.0
H604 H 0.41029 0.00282 0.28678 0.0
H605 H 0.44681 0.94891 0.0632 0.0
H606 H 0.41235 0.90608 0.22932 0.0
H607 H 0.38452 0.92538 0.27382 0.0
C608 C 0.3842 0.9551 0.32694 0.0
C609 C 0.39229 0.97678 0.33302 0.0
C610 C 0.41928 0.91537 0.19182 0.0
C611 C 0.40397 0.95159 0.23167 0.0
C612 C 0.43423 0.90475 0.15299 0.0
C613 C 0.44504 0.91677 0.10711 0.0
C614 C 0.41515 0.93816 0.18446 0.0
C615 C 0.43923 0.93907 0.09872 0.0
C616 C 0.39001 0.94241 0.27623 0.0
C617 C 0.40407 0.98603 0.28433 0.0
N618 N 0.42502 0.94909 0.13762 0.0
N619 N 0.40982 0.97329 0.23616 0.0
H620 H 0.47621 0.40725 0.76312 0.0
H621 H 0.5952 0.43693 0.64139 0.0
H622 H 0.53563 0.38114 0.84458 0.0
H623 H 0.5346 0.45174 0.54578 0.0
H624 H 0.57454 0.41138 0.70725 0.0
H625 H 0.49747 0.41771 0.67339 0.0
C626 C 0.49365 0.40313 0.76125 0.0
C627 C 0.50423 0.39354 0.81145 0.0
C628 C 0.56588 0.41993 0.67109 0.0
C629 C 0.52896 0.4063 0.70999 0.0
C630 C 0.57767 0.43452 0.63354 0.0
C631 C 0.56652 0.44687 0.58895 0.0
C632 C 0.54282 0.41779 0.6639 0.0
C633 C 0.54381 0.44297 0.58048 0.0
C634 C 0.50587 0.40924 0.71017 0.0
C635 C 0.52686 0.38855 0.80676 0.0
N636 N 0.53271 0.42905 0.61807 0.0
N637 N 0.53863 0.39552 0.75755 0.0
H638 H 0.07718 0.47854 0.27572 0.0
H639 H 0.04873 0.59548 0.1373 0.0
H640 H 0.10644 0.53889 0.3427 0.0
H641 H 0.03181 0.53351 0.05151 0.0
H642 H 0.07413 0.5755 0.20481 0.0
H643 H 0.0654 0.49816 0.18434 0.0
C644 C 0.08165 0.49581 0.27033 0.0
C645 C 0.09257 0.50717 0.31703 0.0
C646 C 0.06512 0.56636 0.17048 0.0
C647 C 0.07843 0.53001 0.21359 0.0
C648 C 0.05058 0.57776 0.13202 0.0
C649 C 0.03776 0.56611 0.08952 0.0
C650 C 0.0667 0.54318 0.16652 0.0
C651 C 0.04099 0.54317 0.08437 0.0
C652 C 0.07482 0.50708 0.21827 0.0
C653 C 0.098 0.52953 0.30774 0.0
N654 N 0.05487 0.53246 0.12291 0.0
N655 N 0.09038 0.54039 0.2577 0.0
H656 H 0.86326 0.53322 0.30437 0.0
H657 H 0.94528 0.62081 0.15632 0.0
H658 H 0.90666 0.57637 0.40524 0.0
H659 H 0.9105 0.57006 0.05682 0.0
H660 H 0.92184 0.61316 0.24462 0.0
H661 H 0.87078 0.55498 0.21256 0.0
C662 C 0.87375 0.54772 0.30773 0.0
C663 C 0.88473 0.55272 0.36224 0.0
C664 C 0.91899 0.60406 0.20298 0.0
C665 C 0.89369 0.57742 0.2573 0.0
C666 C 0.93229 0.60853 0.15234 0.0
C667 C 0.93021 0.5957 0.0995 0.0
C668 C 0.90354 0.58665 0.20069 0.0
C669 C 0.91301 0.58005 0.09705 0.0
C670 C 0.8782 0.56003 0.25515 0.0
C671 C 0.89818 0.57169 0.36385 0.0
N672 N 0.90063 0.57568 0.14725 0.0
N673 N 0.90261 0.58308 0.31196 0.0
H674 H 0.87376 0.95436 0.66596 0.0
H675 H 0.96032 0.86798 0.8002 0.0
H676 H 0.92308 0.92005 0.56024 0.0
H677 H 0.9209 0.91257 0.90822 0.0
H678 H 0.93784 0.87748 0.71125 0.0
H679 H 0.88196 0.92995 0.75209 0.0
C680 C 0.88582 0.94128 0.66019 0.0
C681 C 0.89809 0.93955 0.60623 0.0
C682 C 0.93376 0.88475 0.75479 0.0
C683 C 0.90771 0.91175 0.70474 0.0
C684 C 0.94647 0.87918 0.80575 0.0
C685 C 0.94277 0.88985 0.86144 0.0
C686 C 0.91723 0.90103 0.75974 0.0
C687 C 0.9246 0.90426 0.86585 0.0
C688 C 0.8906 0.92743 0.70955 0.0
C689 C 0.91352 0.92225 0.60141 0.0
N690 N 0.91277 0.90973 0.81547 0.0
N691 N 0.91815 0.90928 0.65032 0.0
H692 H 0.575 0.91838 0.06943 0.0
H693 H 0.57986 0.9211 0.42514 0.0
H694 H 0.53941 0.87246 0.1836 0.0
H695 H 0.62289 0.95997 0.3106 0.0
H696 H 0.57109 0.89751 0.33852 0.0
H697 H 0.5986 0.92795 0.15547 0.0
C698 C 0.57253 0.90987 0.1123 0.0
C699 C 0.55496 0.89487 0.11962 0.0
C700 C 0.58288 0.91084 0.33246 0.0
C701 C 0.58161 0.9062 0.219 0.0
C702 C 0.58795 0.9243 0.38205 0.0
C703 C 0.60183 0.94277 0.37483 0.0
C704 C 0.59139 0.91613 0.27482 0.0
C705 C 0.61198 0.94601 0.31814 0.0
C706 C 0.586 0.91539 0.16155 0.0
C707 C 0.55266 0.88421 0.176 0.0
N708 N 0.60613 0.93317 0.26992 0.0
N709 N 0.56547 0.89048 0.22394 0.0
H710 H 0.62162 0.53441 0.66858 0.0
H711 H 0.53965 0.62196 0.81604 0.0
H712 H 0.57693 0.57626 0.56762 0.0
H713 H 0.57649 0.57308 0.91732 0.0
H714 H 0.56222 0.61375 0.72658 0.0
H715 H 0.61441 0.55661 0.75957 0.0
C716 C 0.61089 0.54871 0.66498 0.0
C717 C 0.59952 0.55323 0.61072 0.0
C718 C 0.56572 0.60519 0.76879 0.0
C719 C 0.59092 0.57846 0.71478 0.0
C720 C 0.55292 0.61 0.82011 0.0
C721 C 0.55582 0.59783 0.87396 0.0
C722 C 0.5815 0.5881 0.77136 0.0
C723 C 0.57335 0.58256 0.87641 0.0
C724 C 0.60662 0.56128 0.71711 0.0
C725 C 0.58575 0.57195 0.60882 0.0
N726 N 0.58522 0.57783 0.82557 0.0
N727 N 0.58153 0.58361 0.66029 0.0
H728 H 0.07783 0.41525 0.56549 0.0
H729 H 0.07631 0.41804 0.92268 0.0
H730 H 0.11929 0.45824 0.67269 0.0
H731 H 0.03836 0.37196 0.81524 0.0
H732 H 0.09903 0.42635 0.83383 0.0
H733 H 0.07045 0.39295 0.65581 0.0
C734 C 0.08589 0.41964 0.60778 0.0
C735 C 0.09888 0.43888 0.61177 0.0
C736 C 0.08609 0.41403 0.82988 0.0
C737 C 0.09 0.41371 0.71603 0.0
C738 C 0.07312 0.4092 0.88077 0.0
C739 C 0.05509 0.3946 0.87615 0.0
C740 C 0.0808 0.40445 0.77358 0.0
C741 C 0.05193 0.38349 0.82084 0.0
C742 C 0.0816 0.40693 0.65951 0.0
C743 C 0.10905 0.44364 0.6676 0.0
N744 N 0.0643 0.38903 0.77136 0.0
N745 N 0.10396 0.43147 0.71788 0.0
H746 H 0.04092 0.12209 0.16759 0.0
H747 H 0.12568 0.03373 0.30039 0.0
H748 H 0.07607 0.07392 0.06007 0.0
H749 H 0.08097 0.07289 0.40872 0.0
H750 H 0.11703 0.05703 0.21231 0.0
H751 H 0.06466 0.113 0.25434 0.0
C752 C 0.05406 0.11011 0.16161 0.0
C753 C 0.0562 0.0984 0.10687 0.0
C754 C 0.10954 0.06087 0.25576 0.0
C755 C 0.08322 0.08772 0.2061 0.0
C756 C 0.11463 0.04767 0.30622 0.0
C757 C 0.10368 0.05109 0.36167 0.0
C758 C 0.09346 0.07759 0.26097 0.0
C759 C 0.08948 0.06941 0.36649 0.0
C760 C 0.06753 0.1048 0.21131 0.0
C761 C 0.07356 0.08305 0.10181 0.0
N762 N 0.08447 0.08171 0.31658 0.0
N763 N 0.08613 0.07787 0.15105 0.0
H764 H 0.42293 0.06996 0.5635 0.0
H765 H 0.45778 0.12612 0.81455 0.0
H766 H 0.37622 0.03613 0.67912 0.0
H767 H 0.42667 0.07223 0.91113 0.0
H768 H 0.43502 0.11756 0.72576 0.0
H769 H 0.43232 0.09441 0.64699 0.0
C770 C 0.41411 0.06815 0.6061 0.0
C771 C 0.399 0.05075 0.61456 0.0
C772 C 0.43308 0.10761 0.76632 0.0
C773 C 0.4097 0.07886 0.71143 0.0
C774 C 0.44586 0.11276 0.81751 0.0
C775 C 0.44461 0.09946 0.86979 0.0
C776 C 0.41917 0.08888 0.76742 0.0
C777 C 0.42862 0.08258 0.87124 0.0
C778 C 0.4194 0.08228 0.65406 0.0
C779 C 0.38804 0.04925 0.67063 0.0
N780 N 0.41685 0.07753 0.82052 0.0
N781 N 0.39402 0.06274 0.71738 0.0
H782 H 0.40929 0.41932 0.05123 0.0
H783 H 0.40825 0.41373 0.4073 0.0
H784 H 0.44665 0.37173 0.15558 0.0
H785 H 0.36548 0.45645 0.30299 0.0
H786 H 0.41546 0.39199 0.31611 0.0
H787 H 0.38649 0.42675 0.14039 0.0
C788 C 0.41235 0.40999 0.0925 0.0
C789 C 0.43025 0.39522 0.09626 0.0
C790 C 0.40406 0.40577 0.31325 0.0
C791 C 0.40444 0.40402 0.19915 0.0
C792 C 0.39986 0.41815 0.36548 0.0
C793 C 0.38655 0.43716 0.36249 0.0
C794 C 0.39526 0.4127 0.25725 0.0
C795 C 0.37597 0.44201 0.30727 0.0
C796 C 0.39932 0.41429 0.14356 0.0
C797 C 0.43321 0.38344 0.15072 0.0
N798 N 0.381 0.4302 0.25644 0.0
N799 N 0.4208 0.38849 0.20042 0.0
loop_
_geom_bond_atom_site_label_1
_geom_bond_atom_site_label_2
_geom_bond_distance
_geom_bond_site_symmetry_2
_ccdc_geom_bond_type
Zn0 O3 2.031 1_455 S
Zn0 O5 2.049 1_554 S
Zn0 O10 2.067 . S
Zn1 O2 1.962 1_455 S
Zn1 O4 1.986 . S
Zn1 O6 1.996 . S
Zn1 O9 1.943 . S
O2 Zn1 1.962 1_655 S
O2 C7 1.254 . S
O3 Zn0 2.031 1_655 S
O3 C7 1.269 . S
O4 Zn1 1.986 . S
O4 C11 1.262 . S
O5 Zn0 2.049 1_556 S
O5 C13 1.260 . S
O6 Zn1 1.996 . S
O6 C13 1.257 1_554 S
C7 O2 1.254 . S
C7 O3 1.269 . S
C8 O9 1.249 . S
C8 O10 1.270 . S
O9 Zn1 1.943 . S
O9 C8 1.249 . S
O10 Zn0 2.067 . S
O10 C8 1.270 . S
C11 O4 1.262 . S
C11 O12 1.232 . S
O12 C11 1.232 . S
C13 O5 1.260 . S
C13 O6 1.257 1_556 S
Zn14 O17 2.031 1_545 S
Zn14 O19 2.049 . S
Zn14 O24 2.067 . S
Zn15 O16 1.962 1_545 S
Zn15 O18 1.986 . S
Zn15 O20 1.996 . S
Zn15 O23 1.943 . S
O16 Zn15 1.962 1_565 S
O16 C21 1.254 . S
O17 Zn14 2.031 1_565 S
O17 C21 1.269 . S
O18 Zn15 1.986 . S
O18 C25 1.262 . S
O19 Zn14 2.049 . S
O19 C27 1.260 . S
O20 Zn15 1.996 . S
O20 C27 1.257 . S
C21 O16 1.254 . S
C21 O17 1.269 . S
C22 O23 1.249 . S
C22 O24 1.270 . S
O23 Zn15 1.943 . S
O23 C22 1.249 . S
O24 Zn14 2.067 . S
O24 C22 1.270 . S
C25 O18 1.262 . S
C25 O26 1.232 . S
O26 C25 1.232 . S
C27 O19 1.260 . S
C27 O20 1.257 . S
Zn28 O31 2.031 . S
Zn28 O33 2.049 1_554 S
Zn28 O38 2.067 . S
Zn29 O30 1.962 . S
Zn29 O32 1.986 . S
Zn29 O34 1.996 . S
Zn29 O37 1.943 . S
O30 Zn29 1.962 . S
O30 C35 1.254 . S
O31 Zn28 2.031 . S
O31 C35 1.269 . S
O32 Zn29 1.986 . S
O32 C39 1.262 . S
O33 Zn28 2.049 1_556 S
O33 C41 1.260 . S
O34 Zn29 1.996 . S
O34 C41 1.257 1_554 S
C35 O30 1.254 . S
C35 O31 1.269 . S
C36 O37 1.249 . S
C36 O38 1.270 . S
O37 Zn29 1.943 . S
O37 C36 1.249 . S
O38 Zn28 2.067 . S
O38 C36 1.270 . S
C39 O32 1.262 . S
C39 O40 1.232 . S
O40 C39 1.232 . S
C41 O33 1.260 . S
C41 O34 1.257 1_556 S
Zn42 O45 2.031 . S
Zn42 O47 2.049 . S
Zn42 O52 2.067 . S
Zn43 O44 1.962 . S
Zn43 O46 1.986 . S
Zn43 O48 1.996 . S
Zn43 O51 1.943 . S
O44 Zn43 1.962 . S
O44 C49 1.254 . S
O45 Zn42 2.031 . S
O45 C49 1.269 . S
O46 Zn43 1.986 . S
O46 C53 1.262 . S
O47 Zn42 2.049 . S
O47 C55 1.260 . S
O48 Zn43 1.996 . S
O48 C55 1.257 . S
C49 O44 1.254 . S
C49 O45 1.269 . S
C50 O51 1.249 . S
C50 O52 1.270 . S
O51 Zn43 1.943 . S
O51 C50 1.249 . S
O52 Zn42 2.067 . S
O52 C50 1.270 . S
C53 O46 1.262 . S
C53 O54 1.232 . S
O54 C53 1.232 . S
C55 O47 1.260 . S
C55 O48 1.257 . S
Zn56 O59 2.031 1_455 S
Zn56 O61 2.049 1_556 S
Zn56 O66 2.067 . S
Zn57 O58 1.962 1_455 S
Zn57 O60 1.986 . S
Zn57 O62 1.996 . S
Zn57 O65 1.943 . S
O58 Zn57 1.962 1_655 S
O58 C63 1.254 . S
O59 Zn56 2.031 1_655 S
O59 C63 1.269 . S
O60 Zn57 1.986 . S
O60 C67 1.262 . S
O61 Zn56 2.049 1_554 S
O61 C69 1.260 . S
O62 Zn57 1.996 . S
O62 C69 1.257 1_556 S
C63 O58 1.254 . S
C63 O59 1.269 . S
C64 O65 1.249 . S
C64 O66 1.270 . S
O65 Zn57 1.943 . S
O65 C64 1.249 . S
O66 Zn56 2.067 . S
O66 C64 1.270 . S
C67 O60 1.262 . S
C67 O68 1.232 . S
O68 C67 1.232 . S
C69 O61 1.260 . S
C69 O62 1.257 1_554 S
Zn70 O73 2.031 1_545 S
Zn70 O75 2.049 . S
Zn70 O80 2.067 . S
Zn71 O72 1.962 1_545 S
Zn71 O74 1.986 . S
Zn71 O76 1.996 . S
Zn71 O79 1.943 . S
O72 Zn71 1.962 1_565 S
O72 C77 1.254 . S
O73 Zn70 2.031 1_565 S
O73 C77 1.269 . S
O74 Zn71 1.986 . S
O74 C81 1.262 . S
O75 Zn70 2.049 . S
O75 C83 1.260 . S
O76 Zn71 1.996 . S
O76 C83 1.257 . S
C77 O72 1.254 . S
C77 O73 1.269 . S
C78 O79 1.249 . S
C78 O80 1.270 . S
O79 Zn71 1.943 . S
O79 C78 1.249 . S
O80 Zn70 2.067 . S
O80 C78 1.270 . S
C81 O74 1.262 . S
C81 O82 1.232 . S
O82 C81 1.232 . S
C83 O75 1.260 . S
C83 O76 1.257 . S
Zn84 O87 2.031 . S
Zn84 O89 2.049 1_556 S
Zn84 O94 2.067 . S
Zn85 O86 1.962 . S
Zn85 O88 1.986 . S
Zn85 O90 1.996 . S
Zn85 O93 1.943 . S
O86 Zn85 1.962 . S
O86 C91 1.254 . S
O87 Zn84 2.031 . S
O87 C91 1.269 . S
O88 Zn85 1.986 . S
O88 C95 1.262 . S
O89 Zn84 2.049 1_554 S
O89 C97 1.260 . S
O90 Zn85 1.996 . S
O90 C97 1.257 1_556 S
C91 O86 1.254 . S
C91 O87 1.269 . S
C92 O93 1.249 . S
C92 O94 1.270 . S
O93 Zn85 1.943 . S
O93 C92 1.249 . S
O94 Zn84 2.067 . S
O94 C92 1.270 . S
C95 O88 1.262 . S
C95 O96 1.232 . S
O96 C95 1.232 . S
C97 O89 1.260 . S
C97 O90 1.257 1_554 S
Zn98 O101 2.031 . S
Zn98 O103 2.049 . S
Zn98 O108 2.067 . S
Zn99 O100 1.962 . S
Zn99 O102 1.986 . S
Zn99 O104 1.996 . S
Zn99 O107 1.943 . S
O100 Zn99 1.962 . S
O100 C105 1.254 . S
O101 Zn98 2.031 . S
O101 C105 1.269 . S
O102 Zn99 1.986 . S
O102 C109 1.262 . S
O103 Zn98 2.049 . S
O103 C111 1.260 . S
O104 Zn99 1.996 . S
O104 C111 1.257 . S
C105 O100 1.254 . S
C105 O101 1.269 . S
C106 O107 1.249 . S
C106 O108 1.270 . S
O107 Zn99 1.943 . S
O107 C106 1.249 . S
O108 Zn98 2.067 . S
O108 C106 1.270 . S
C109 O102 1.262 . S
C109 O110 1.232 . S
O110 C109 1.232 . S
C111 O103 1.260 . S
C111 O104 1.257 . S
Zn112 O115 2.031 1_655 S
Zn112 O117 2.049 1_556 S
Zn112 O122 2.067 . S
Zn113 O114 1.962 1_655 S
Zn113 O116 1.986 . S
Zn113 O118 1.996 . S
Zn113 O121 1.943 . S
O114 Zn113 1.962 1_455 S
O114 C119 1.254 . S
O115 Zn112 2.031 1_455 S
O115 C119 1.269 . S
O116 Zn113 1.986 . S
O116 C123 1.262 . S
O117 Zn112 2.049 1_554 S
O117 C125 1.260 . S
O118 Zn113 1.996 . S
O118 C125 1.257 1_556 S
C119 O114 1.254 . S
C119 O115 1.269 . S
C120 O121 1.249 . S
C120 O122 1.270 . S
O121 Zn113 1.943 . S
O121 C120 1.249 . S
O122 Zn112 2.067 . S
O122 C120 1.270 . S
C123 O116 1.262 . S
C123 O124 1.232 . S
O124 C123 1.232 . S
C125 O117 1.260 . S
C125 O118 1.257 1_554 S
Zn126 O129 2.031 1_565 S
Zn126 O131 2.049 . S
Zn126 O136 2.067 . S
Zn127 O128 1.962 1_565 S
Zn127 O130 1.986 . S
Zn127 O132 1.996 . S
Zn127 O135 1.943 . S
O128 Zn127 1.962 1_545 S
O128 C133 1.254 . S
O129 Zn126 2.031 1_545 S
O129 C133 1.269 . S
O130 Zn127 1.986 . S
O130 C137 1.262 . S
O131 Zn126 2.049 . S
O131 C139 1.260 . S
O132 Zn127 1.996 . S
O132 C139 1.257 . S
C133 O128 1.254 . S
C133 O129 1.269 . S
C134 O135 1.249 . S
C134 O136 1.270 . S
O135 Zn127 1.943 . S
O135 C134 1.249 . S
O136 Zn126 2.067 . S
O136 C134 1.270 . S
C137 O130 1.262 . S
C137 O138 1.232 . S
O138 C137 1.232 . S
C139 O131 1.260 . S
C139 O132 1.257 . S
Zn140 O143 2.031 . S
Zn140 O145 2.049 1_556 S
Zn140 O150 2.067 . S
Zn141 O142 1.962 . S
Zn141 O144 1.986 . S
Zn141 O146 1.996 . S
Zn141 O149 1.943 . S
O142 Zn141 1.962 . S
O142 C147 1.254 . S
O143 Zn140 2.031 . S
O143 C147 1.269 . S
O144 Zn141 1.986 . S
O144 C151 1.262 . S
O145 Zn140 2.049 1_554 S
O145 C153 1.260 . S
O146 Zn141 1.996 . S
O146 C153 1.257 1_556 S
C147 O142 1.254 . S
C147 O143 1.269 . S
C148 O149 1.249 . S
C148 O150 1.270 . S
O149 Zn141 1.943 . S
O149 C148 1.249 . S
O150 Zn140 2.067 . S
O150 C148 1.270 . S
C151 O144 1.262 . S
C151 O152 1.232 . S
O152 C151 1.232 . S
C153 O145 1.260 . S
C153 O146 1.257 1_554 S
Zn154 O157 2.031 . S
Zn154 O159 2.049 . S
Zn154 O164 2.067 . S
Zn155 O156 1.962 . S
Zn155 O158 1.986 . S
Zn155 O160 1.996 . S
Zn155 O163 1.943 . S
O156 Zn155 1.962 . S
O156 C161 1.254 . S
O157 Zn154 2.031 . S
O157 C161 1.269 . S
O158 Zn155 1.986 . S
O158 C165 1.262 . S
O159 Zn154 2.049 . S
O159 C167 1.260 . S
O160 Zn155 1.996 . S
O160 C167 1.257 . S
C161 O156 1.254 . S
C161 O157 1.269 . S
C162 O163 1.249 . S
C162 O164 1.270 . S
O163 Zn155 1.943 . S
O163 C162 1.249 . S
O164 Zn154 2.067 . S
O164 C162 1.270 . S
C165 O158 1.262 . S
C165 O166 1.232 . S
O166 C165 1.232 . S
C167 O159 1.260 . S
C167 O160 1.257 . S
Zn168 O171 2.031 1_655 S
Zn168 O173 2.049 1_554 S
Zn168 O178 2.067 . S
Zn169 O170 1.962 1_655 S
Zn169 O172 1.986 . S
Zn169 O174 1.996 . S
Zn169 O177 1.943 . S
O170 Zn169 1.962 1_455 S
O170 C175 1.254 . S
O171 Zn168 2.031 1_455 S
O171 C175 1.269 . S
O172 Zn169 1.986 . S
O172 C179 1.262 . S
O173 Zn168 2.049 1_556 S
O173 C181 1.260 . S
O174 Zn169 1.996 . S
O174 C181 1.257 1_554 S
C175 O170 1.254 . S
C175 O171 1.269 . S
C176 O177 1.249 . S
C176 O178 1.270 . S
O177 Zn169 1.943 . S
O177 C176 1.249 . S
O178 Zn168 2.067 . S
O178 C176 1.270 . S
C179 O172 1.262 . S
C179 O180 1.232 . S
O180 C179 1.232 . S
C181 O173 1.260 . S
C181 O174 1.257 1_556 S
Zn182 O185 2.031 1_565 S
Zn182 O187 2.049 . S
Zn182 O192 2.067 . S
Zn183 O184 1.962 1_565 S
Zn183 O186 1.986 . S
Zn183 O188 1.996 . S
Zn183 O191 1.943 . S
O184 Zn183 1.962 1_545 S
O184 C189 1.254 . S
O185 Zn182 2.031 1_545 S
O185 C189 1.269 . S
O186 Zn183 1.986 . S
O186 C193 1.262 . S
O187 Zn182 2.049 . S
O187 C195 1.260 . S
O188 Zn183 1.996 . S
O188 C195 1.257 . S
C189 O184 1.254 . S
C189 O185 1.269 . S
C190 O191 1.249 . S
C190 O192 1.270 . S
O191 Zn183 1.943 . S
O191 C190 1.249 . S
O192 Zn182 2.067 . S
O192 C190 1.270 . S
C193 O186 1.262 . S
C193 O194 1.232 . S
O194 C193 1.232 . S
C195 O187 1.260 . S
C195 O188 1.257 . S
Zn196 O199 2.031 . S
Zn196 O201 2.049 1_554 S
Zn196 O206 2.067 . S
Zn197 O198 1.962 . S
Zn197 O200 1.986 . S
Zn197 O202 1.996 . S
Zn197 O205 1.943 . S
O198 Zn197 1.962 . S
O198 C203 1.254 . S
O199 Zn196 2.031 . S
O199 C203 1.269 . S
O200 Zn197 1.986 . S
O200 C207 1.262 . S
O201 Zn196 2.049 1_556 S
O201 C209 1.260 . S
O202 Zn197 1.996 . S
O202 C209 1.257 1_554 S
C203 O198 1.254 . S
C203 O199 1.269 . S
C204 O205 1.249 . S
C204 O206 1.270 . S
O205 Zn197 1.943 . S
O205 C204 1.249 . S
O206 Zn196 2.067 . S
O206 C204 1.270 . S
C207 O200 1.262 . S
C207 O208 1.232 . S
O208 C207 1.232 . S
C209 O201 1.260 . S
C209 O202 1.257 1_556 S
Zn210 O213 2.031 . S
Zn210 O215 2.049 . S
Zn210 O220 2.067 . S
Zn211 O212 1.962 . S
Zn211 O214 1.986 . S
Zn211 O216 1.996 . S
Zn211 O219 1.943 . S
O212 Zn211 1.962 . S
O212 C217 1.254 . S
O213 Zn210 2.031 . S
O213 C217 1.269 . S
O214 Zn211 1.986 . S
O214 C221 1.262 . S
O215 Zn210 2.049 . S
O215 C223 1.260 . S
O216 Zn211 1.996 . S
O216 C223 1.257 . S
C217 O212 1.254 . S
C217 O213 1.269 . S
C218 O219 1.249 . S
C218 O220 1.270 . S
O219 Zn211 1.943 . S
O219 C218 1.249 . S
O220 Zn210 2.067 . S
O220 C218 1.270 . S
C221 O214 1.262 . S
C221 O222 1.232 . S
O222 C221 1.232 . S
C223 O215 1.260 . S
C223 O216 1.257 . S
H224 C230 0.930 1_556 S
H225 C234 0.930 1_554 S
H226 C239 0.929 . S
H227 C237 0.929 . S
H228 C232 0.929 . S
H229 C238 0.929 . S
C230 H224 0.930 1_554 S
C230 C231 1.367 1_655 S
C230 C238 1.378 1_554 S
C231 C230 1.367 1_455 S
C231 C239 1.433 . S
C232 H228 0.929 . S
C232 C234 1.378 1_554 S
C232 C236 1.350 1_554 S
C233 C236 1.463 1_554 S
C233 C238 1.350 1_454 S
C233 N241 1.427 . S
C234 H225 0.930 1_556 S
C234 C232 1.378 1_556 S
C234 C235 1.367 . S
C235 C234 1.367 . S
C235 C237 1.433 1_455 S
C236 C232 1.350 1_556 S
C236 C233 1.463 1_556 S
C236 N240 1.427 1_455 S
C237 H227 0.929 . S
C237 C235 1.433 1_655 S
C237 N240 1.384 . S
C238 H229 0.929 . S
C238 C230 1.378 1_556 S
C238 C233 1.350 1_656 S
C239 H226 0.929 . S
C239 C231 1.433 . S
C239 N241 1.384 . S
N240 C236 1.427 1_655 S
N240 C237 1.384 . S
N241 C233 1.427 . S
N241 C239 1.384 . S
H242 C248 0.930 . S
H243 C252 0.930 . S
H244 C257 0.929 . S
H245 C255 0.929 . S
H246 C250 0.929 . S
H247 C256 0.929 . S
C248 H242 0.930 . S
C248 C249 1.367 . S
C248 C256 1.378 . S
C249 C248 1.367 . S
C249 C257 1.433 1_545 S
C250 H246 0.929 . S
C250 C252 1.378 . S
C250 C254 1.350 1_565 S
C251 C254 1.463 . S
C251 C256 1.350 . S
C251 N259 1.427 1_545 S
C252 H243 0.930 . S
C252 C250 1.378 . S
C252 C253 1.367 1_565 S
C253 C252 1.367 1_545 S
C253 C255 1.433 . S
C254 C250 1.350 1_545 S
C254 C251 1.463 . S
C254 N258 1.427 . S
C255 H245 0.929 . S
C255 C253 1.433 . S
C255 N258 1.384 . S
C256 H247 0.929 . S
C256 C248 1.378 . S
C256 C251 1.350 . S
C257 H244 0.929 . S
C257 C249 1.433 1_565 S
C257 N259 1.384 . S
N258 C254 1.427 . S
N258 C255 1.384 . S
N259 C251 1.427 1_565 S
N259 C257 1.384 . S
H260 C266 0.930 1_556 S
H261 C270 0.930 1_554 S
H262 C275 0.929 . S
H263 C273 0.929 . S
H264 C268 0.929 . S
H265 C274 0.929 . S
C266 H260 0.930 1_554 S
C266 C267 1.367 . S
C266 C274 1.378 1_554 S
C267 C266 1.367 . S
C267 C275 1.433 . S
C268 H264 0.929 . S
C268 C270 1.378 1_554 S
C268 C272 1.350 1_554 S
C269 C272 1.463 1_554 S
C269 C274 1.350 1_554 S
C269 N277 1.427 . S
C270 H261 0.930 1_556 S
C270 C268 1.378 1_556 S
C270 C271 1.367 . S
C271 C270 1.367 . S
C271 C273 1.433 . S
C272 C268 1.350 1_556 S
C272 C269 1.463 1_556 S
C272 N276 1.427 . S
C273 H263 0.929 . S
C273 C271 1.433 . S
C273 N276 1.384 . S
C274 H265 0.929 . S
C274 C266 1.378 1_556 S
C274 C269 1.350 1_556 S
C275 H262 0.929 . S
C275 C267 1.433 . S
C275 N277 1.384 . S
N276 C272 1.427 . S
N276 C273 1.384 . S
N277 C269 1.427 . S
N277 C275 1.384 . S
H278 C284 0.930 . S
H279 C288 0.930 . S
H280 C293 0.929 . S
H281 C291 0.929 . S
H282 C286 0.929 . S
H283 C292 0.929 . S
C284 H278 0.930 . S
C284 C285 1.367 . S
C284 C292 1.378 . S
C285 C284 1.367 . S
C285 C293 1.433 . S
C286 H282 0.929 . S
C286 C288 1.378 . S
C286 C290 1.350 . S
C287 C290 1.463 . S
C287 C292 1.350 . S
C287 N295 1.427 . S
C288 H279 0.930 . S
C288 C286 1.378 . S
C288 C289 1.367 . S
C289 C288 1.367 . S
C289 C291 1.433 . S
C290 C286 1.350 . S
C290 C287 1.463 . S
C290 N294 1.427 . S
C291 H281 0.929 . S
C291 C289 1.433 . S
C291 N294 1.384 . S
C292 H283 0.929 . S
C292 C284 1.378 . S
C292 C287 1.350 . S
C293 H280 0.929 . S
C293 C285 1.433 . S
C293 N295 1.384 . S
N294 C290 1.427 . S
N294 C291 1.384 . S
N295 C287 1.427 . S
N295 C293 1.384 . S
H296 C302 0.930 . S
H297 C306 0.958 . S
H298 C311 0.929 . S
H299 C309 0.929 . S
H300 C304 0.957 . S
H301 C310 0.929 . S
C302 H296 0.930 . S
C302 C303 1.367 1_554 S
C302 C310 1.378 . S
C303 C302 1.367 1_556 S
C303 C311 1.433 1_655 S
C304 H300 0.957 . S
C304 C306 1.378 . S
C304 C308 1.323 1_456 S
C305 C308 1.463 1_556 S
C305 C310 1.350 1_556 S
C305 N313 1.427 1_655 S
C306 H297 0.958 . S
C306 C304 1.378 . S
C306 C307 1.340 1_456 S
C307 C306 1.340 1_654 S
C307 C309 1.433 . S
C308 C304 1.323 1_654 S
C308 C305 1.463 1_554 S
C308 N312 1.427 . S
C309 H299 0.929 . S
C309 C307 1.433 . S
C309 N312 1.384 . S
C310 H301 0.929 . S
C310 C302 1.378 . S
C310 C305 1.350 1_554 S
C311 H298 0.929 . S
C311 C303 1.433 1_455 S
C311 N313 1.384 . S
N312 C308 1.427 . S
N312 C309 1.384 . S
N313 C305 1.427 1_455 S
N313 C311 1.384 . S
H314 C320 0.930 . S
H315 C324 0.930 . S
H316 C329 0.929 . S
H317 C327 0.929 . S
H318 C322 0.929 . S
H319 C328 0.929 . S
C320 H314 0.930 . S
C320 C321 1.367 . S
C320 C328 1.378 . S
C321 C320 1.367 . S
C321 C329 1.433 . S
C322 H318 0.929 . S
C322 C324 1.378 . S
C322 C326 1.350 . S
C323 C326 1.463 . S
C323 C328 1.350 . S
C323 N331 1.427 . S
C324 H315 0.930 . S
C324 C322 1.378 . S
C324 C325 1.367 . S
C325 C324 1.367 . S
C325 C327 1.433 . S
C326 C322 1.350 . S
C326 C323 1.463 . S
C326 N330 1.427 . S
C327 H317 0.929 . S
C327 C325 1.433 . S
C327 N330 1.384 . S
C328 H319 0.929 . S
C328 C320 1.378 . S
C328 C323 1.350 . S
C329 H316 0.929 . S
C329 C321 1.433 . S
C329 N331 1.384 . S
N330 C326 1.427 . S
N330 C327 1.384 . S
N331 C323 1.427 . S
N331 C329 1.384 . S
H332 C338 0.930 . S
H333 C342 0.930 . S
H334 C347 0.929 . S
H335 C345 0.929 . S
H336 C340 0.929 . S
H337 C346 0.929 . S
C338 H332 0.930 . S
C338 C339 1.367 . S
C338 C346 1.378 . S
C339 C338 1.367 . S
C339 C347 1.433 1_556 S
C340 H336 0.929 . S
C340 C342 1.378 . S
C340 C344 1.350 . S
C341 C344 1.463 1_556 S
C341 C346 1.350 . S
C341 N349 1.427 1_556 S
C342 H333 0.930 . S
C342 C340 1.378 . S
C342 C343 1.367 . S
C343 C342 1.367 . S
C343 C345 1.433 1_554 S
C344 C340 1.350 . S
C344 C341 1.463 1_554 S
C344 N348 1.427 1_554 S
C345 H335 0.929 . S
C345 C343 1.433 1_556 S
C345 N348 1.384 . S
C346 H337 0.929 . S
C346 C338 1.378 . S
C346 C341 1.350 . S
C347 H334 0.929 . S
C347 C339 1.433 1_554 S
C347 N349 1.384 . S
N348 C344 1.427 1_556 S
N348 C345 1.384 . S
N349 C341 1.427 1_554 S
N349 C347 1.384 . S
H350 C356 0.930 . S
H351 C360 0.930 . S
H352 C365 0.929 . S
H353 C363 0.929 . S
H354 C358 0.929 . S
H355 C364 0.929 . S
C356 H350 0.930 . S
C356 C357 1.367 . S
C356 C364 1.378 . S
C357 C356 1.367 . S
C357 C365 1.433 . S
C358 H354 0.929 . S
C358 C360 1.378 . S
C358 C362 1.350 . S
C359 C362 1.463 . S
C359 C364 1.350 . S
C359 N367 1.427 . S
C360 H351 0.930 . S
C360 C358 1.378 . S
C360 C361 1.367 . S
C361 C360 1.367 . S
C361 C363 1.433 . S
C362 C358 1.350 . S
C362 C359 1.463 . S
C362 N366 1.427 . S
C363 H353 0.929 . S
C363 C361 1.433 . S
C363 N366 1.384 . S
C364 H355 0.929 . S
C364 C356 1.378 . S
C364 C359 1.350 . S
C365 H352 0.929 . S
C365 C357 1.433 . S
C365 N367 1.384 . S
N366 C362 1.427 . S
N366 C363 1.384 . S
N367 C359 1.427 . S
N367 C365 1.384 . S
H368 C374 0.930 . S
H369 C378 0.930 . S
H370 C383 0.929 . S
H371 C381 0.929 . S
H372 C376 0.929 . S
H373 C382 0.929 . S
C374 H368 0.930 . S
C374 C375 1.367 . S
C374 C382 1.378 . S
C375 C374 1.367 . S
C375 C383 1.433 . S
C376 H372 0.929 . S
C376 C378 1.378 . S
C376 C380 1.350 . S
C377 C380 1.463 . S
C377 C382 1.350 . S
C377 N385 1.427 . S
C378 H369 0.930 . S
C378 C376 1.378 . S
C378 C379 1.367 . S
C379 C378 1.367 . S
C379 C381 1.433 . S
C380 C376 1.350 . S
C380 C377 1.463 . S
C380 N384 1.427 . S
C381 H371 0.929 . S
C381 C379 1.433 . S
C381 N384 1.384 . S
C382 H373 0.929 . S
C382 C374 1.378 . S
C382 C377 1.350 . S
C383 H370 0.929 . S
C383 C375 1.433 . S
C383 N385 1.384 . S
N384 C380 1.427 . S
N384 C381 1.384 . S
N385 C377 1.427 . S
N385 C383 1.384 . S
H386 C392 0.930 . S
H387 C396 0.930 . S
H388 C401 0.929 . S
H389 C399 0.929 . S
H390 C394 0.929 . S
H391 C400 0.929 . S
C392 H386 0.930 . S
C392 C393 1.367 . S
C392 C400 1.378 . S
C393 C392 1.367 . S
C393 C401 1.433 . S
C394 H390 0.929 . S
C394 C396 1.378 . S
C394 C398 1.350 . S
C395 C398 1.463 . S
C395 C400 1.350 . S
C395 N403 1.427 . S
C396 H387 0.930 . S
C396 C394 1.378 . S
C396 C397 1.367 . S
C397 C396 1.367 . S
C397 C399 1.433 . S
C398 C394 1.350 . S
C398 C395 1.463 . S
C398 N402 1.427 . S
C399 H389 0.929 . S
C399 C397 1.433 . S
C399 N402 1.384 . S
C400 H391 0.929 . S
C400 C392 1.378 . S
C400 C395 1.350 . S
C401 H388 0.929 . S
C401 C393 1.433 . S
C401 N403 1.384 . S
N402 C398 1.427 . S
N402 C399 1.384 . S
N403 C395 1.427 . S
N403 C401 1.384 . S
H404 C410 0.930 . S
H405 C414 0.930 . S
H406 C419 0.929 . S
H407 C417 0.929 . S
H408 C412 0.929 . S
H409 C418 0.929 . S
C410 H404 0.930 . S
C410 C411 1.367 . S
C410 C418 1.378 . S
C411 C410 1.367 . S
C411 C419 1.433 . S
C412 H408 0.929 . S
C412 C414 1.378 . S
C412 C416 1.350 . S
C413 C416 1.463 . S
C413 C418 1.350 . S
C413 N421 1.427 . S
C414 H405 0.930 . S
C414 C412 1.378 . S
C414 C415 1.367 . S
C415 C414 1.367 . S
C415 C417 1.433 . S
C416 C412 1.350 . S
C416 C413 1.463 . S
C416 N420 1.427 . S
C417 H407 0.929 . S
C417 C415 1.433 . S
C417 N420 1.384 . S
C418 H409 0.929 . S
C418 C410 1.378 . S
C418 C413 1.350 . S
C419 H406 0.929 . S
C419 C411 1.433 . S
C419 N421 1.384 . S
N420 C416 1.427 . S
N420 C417 1.384 . S
N421 C413 1.427 . S
N421 C419 1.384 . S
H422 C428 0.930 . S
H423 C432 0.930 . S
H424 C437 0.929 . S
H425 C435 0.929 . S
H426 C430 0.929 . S
H427 C436 0.929 . S
C428 H422 0.930 . S
C428 C429 1.367 . S
C428 C436 1.378 . S
C429 C428 1.367 . S
C429 C437 1.433 . S
C430 H426 0.929 . S
C430 C432 1.378 . S
C430 C434 1.350 . S
C431 C434 1.463 . S
C431 C436 1.350 . S
C431 N439 1.427 . S
C432 H423 0.930 . S
C432 C430 1.378 . S
C432 C433 1.367 . S
C433 C432 1.367 . S
C433 C435 1.433 . S
C434 C430 1.350 . S
C434 C431 1.463 . S
C434 N438 1.427 . S
C435 H425 0.929 . S
C435 C433 1.433 . S
C435 N438 1.384 . S
C436 H427 0.929 . S
C436 C428 1.378 . S
C436 C431 1.350 . S
C437 H424 0.929 . S
C437 C429 1.433 . S
C437 N439 1.384 . S
N438 C434 1.427 . S
N438 C435 1.384 . S
N439 C431 1.427 . S
N439 C437 1.384 . S
H440 C446 0.930 . S
H441 C450 0.930 . S
H442 C455 0.929 . S
H443 C453 0.929 . S
H444 C448 0.929 . S
H445 C454 0.929 . S
C446 H440 0.930 . S
C446 C447 1.367 . S
C446 C454 1.378 . S
C447 C446 1.367 . S
C447 C455 1.433 . S
C448 H444 0.929 . S
C448 C450 1.378 . S
C448 C452 1.350 . S
C449 C452 1.463 . S
C449 C454 1.350 . S
C449 N457 1.427 . S
C450 H441 0.930 . S
C450 C448 1.378 . S
C450 C451 1.367 . S
C451 C450 1.367 . S
C451 C453 1.433 . S
C452 C448 1.350 . S
C452 C449 1.463 . S
C452 N456 1.427 . S
C453 H443 0.929 . S
C453 C451 1.433 . S
C453 N456 1.384 . S
C454 H445 0.929 . S
C454 C446 1.378 . S
C454 C449 1.350 . S
C455 H442 0.929 . S
C455 C447 1.433 . S
C455 N457 1.384 . S
N456 C452 1.427 . S
N456 C453 1.384 . S
N457 C449 1.427 . S
N457 C455 1.384 . S
H458 C464 0.930 . S
H459 C468 0.930 . S
H460 C473 0.929 . S
H461 C471 0.929 . S
H462 C466 0.929 . S
H463 C472 0.929 . S
C464 H458 0.930 . S
C464 C465 1.367 . S
C464 C472 1.378 . S
C465 C464 1.367 . S
C465 C473 1.433 . S
C466 H462 0.929 . S
C466 C468 1.378 . S
C466 C470 1.350 . S
C467 C470 1.463 . S
C467 C472 1.350 . S
C467 N475 1.427 . S
C468 H459 0.930 . S
C468 C466 1.378 . S
C468 C469 1.367 . S
C469 C468 1.367 . S
C469 C471 1.433 . S
C470 C466 1.350 . S
C470 C467 1.463 . S
C470 N474 1.427 . S
C471 H461 0.929 . S
C471 C469 1.433 . S
C471 N474 1.384 . S
C472 H463 0.929 . S
C472 C464 1.378 . S
C472 C467 1.350 . S
C473 H460 0.929 . S
C473 C465 1.433 . S
C473 N475 1.384 . S
N474 C470 1.427 . S
N474 C471 1.384 . S
N475 C467 1.427 . S
N475 C473 1.384 . S
H476 C482 0.930 . S
H477 C486 0.930 . S
H478 C491 0.929 . S
H479 C489 0.929 . S
H480 C484 0.929 . S
H481 C490 0.929 . S
C482 H476 0.930 . S
C482 C483 1.367 . S
C482 C490 1.378 . S
C483 C482 1.367 . S
C483 C491 1.433 . S
C484 H480 0.929 . S
C484 C486 1.378 . S
C484 C488 1.350 . S
C485 C488 1.463 . S
C485 C490 1.350 . S
C485 N493 1.427 . S
C486 H477 0.930 . S
C486 C484 1.378 . S
C486 C487 1.367 . S
C487 C486 1.367 . S
C487 C489 1.433 . S
C488 C484 1.350 . S
C488 C485 1.463 . S
C488 N492 1.427 . S
C489 H479 0.929 . S
C489 C487 1.433 . S
C489 N492 1.384 . S
C490 H481 0.929 . S
C490 C482 1.378 . S
C490 C485 1.350 . S
C491 H478 0.929 . S
C491 C483 1.433 . S
C491 N493 1.384 . S
N492 C488 1.427 . S
N492 C489 1.384 . S
N493 C485 1.427 . S
N493 C491 1.384 . S
H494 C500 0.930 . S
H495 C504 0.930 . S
H496 C509 0.929 . S
H497 C507 0.929 . S
H498 C502 0.929 . S
H499 C508 0.929 . S
C500 H494 0.930 . S
C500 C501 1.367 . S
C500 C508 1.378 . S
C501 C500 1.367 . S
C501 C509 1.433 . S
C502 H498 0.929 . S
C502 C504 1.378 . S
C502 C506 1.350 . S
C503 C506 1.463 . S
C503 C508 1.350 . S
C503 N511 1.427 . S
C504 H495 0.930 . S
C504 C502 1.378 . S
C504 C505 1.367 . S
C505 C504 1.367 . S
C505 C507 1.433 . S
C506 C502 1.350 . S
C506 C503 1.463 . S
C506 N510 1.427 . S
C507 H497 0.929 . S
C507 C505 1.433 . S
C507 N510 1.384 . S
C508 H499 0.929 . S
C508 C500 1.378 . S
C508 C503 1.350 . S
C509 H496 0.929 . S
C509 C501 1.433 . S
C509 N511 1.384 . S
N510 C506 1.427 . S
N510 C507 1.384 . S
N511 C503 1.427 . S
N511 C509 1.384 . S
H512 C518 0.930 . S
H513 C522 0.930 . S
H514 C527 0.929 . S
H515 C525 0.929 . S
H516 C520 0.929 . S
H517 C526 0.929 . S
C518 H512 0.930 . S
C518 C519 1.367 . S
C518 C526 1.378 . S
C519 C518 1.367 . S
C519 C527 1.433 . S
C520 H516 0.929 . S
C520 C522 1.378 . S
C520 C524 1.350 . S
C521 C524 1.463 . S
C521 C526 1.350 . S
C521 N529 1.427 . S
C522 H513 0.930 . S
C522 C520 1.378 . S
C522 C523 1.367 . S
C523 C522 1.367 . S
C523 C525 1.433 . S
C524 C520 1.350 . S
C524 C521 1.463 . S
C524 N528 1.427 . S
C525 H515 0.929 . S
C525 C523 1.433 . S
C525 N528 1.384 . S
C526 H517 0.929 . S
C526 C518 1.378 . S
C526 C521 1.350 . S
C527 H514 0.929 . S
C527 C519 1.433 . S
C527 N529 1.384 . S
N528 C524 1.427 . S
N528 C525 1.384 . S
N529 C521 1.427 . S
N529 C527 1.384 . S
H530 C536 0.930 . S
H531 C540 0.930 . S
H532 C545 0.929 . S
H533 C543 0.929 . S
H534 C538 0.929 . S
H535 C544 0.929 . S
C536 H530 0.930 . S
C536 C537 1.367 . S
C536 C544 1.378 . S
C537 C536 1.367 . S
C537 C545 1.433 . S
C538 H534 0.929 . S
C538 C540 1.378 . S
C538 C542 1.350 . S
C539 C542 1.463 . S
C539 C544 1.350 . S
C539 N547 1.427 . S
C540 H531 0.930 . S
C540 C538 1.378 . S
C540 C541 1.367 . S
C541 C540 1.367 . S
C541 C543 1.433 . S
C542 C538 1.350 . S
C542 C539 1.463 . S
C542 N546 1.427 . S
C543 H533 0.929 . S
C543 C541 1.433 . S
C543 N546 1.384 . S
C544 H535 0.929 . S
C544 C536 1.378 . S
C544 C539 1.350 . S
C545 H532 0.929 . S
C545 C537 1.433 . S
C545 N547 1.384 . S
N546 C542 1.427 . S
N546 C543 1.384 . S
N547 C539 1.427 . S
N547 C545 1.384 . S
H548 C554 0.930 . S
H549 C558 0.930 . S
H550 C563 0.929 . S
H551 C561 0.929 . S
H552 C556 0.929 . S
H553 C562 0.929 . S
C554 H548 0.930 . S
C554 C555 1.367 . S
C554 C562 1.378 . S
C555 C554 1.367 . S
C555 C563 1.433 . S
C556 H552 0.929 . S
C556 C558 1.378 . S
C556 C560 1.350 . S
C557 C560 1.463 . S
C557 C562 1.350 . S
C557 N565 1.427 . S
C558 H549 0.930 . S
C558 C556 1.378 . S
C558 C559 1.367 . S
C559 C558 1.367 . S
C559 C561 1.433 . S
C560 C556 1.350 . S
C560 C557 1.463 . S
C560 N564 1.427 . S
C561 H551 0.929 . S
C561 C559 1.433 . S
C561 N564 1.384 . S
C562 H553 0.929 . S
C562 C554 1.378 . S
C562 C557 1.350 . S
C563 H550 0.929 . S
C563 C555 1.433 . S
C563 N565 1.384 . S
N564 C560 1.427 . S
N564 C561 1.384 . S
N565 C557 1.427 . S
N565 C563 1.384 . S
H566 C572 0.930 . S
H567 C576 0.930 . S
H568 C581 0.929 . S
H569 C579 0.929 . S
H570 C574 0.929 . S
H571 C580 0.929 . S
C572 H566 0.930 . S
C572 C573 1.367 . S
C572 C580 1.378 . S
C573 C572 1.367 . S
C573 C581 1.433 . S
C574 H570 0.929 . S
C574 C576 1.378 . S
C574 C578 1.350 . S
C575 C578 1.463 . S
C575 C580 1.350 . S
C575 N583 1.427 . S
C576 H567 0.930 . S
C576 C574 1.378 . S
C576 C577 1.367 . S
C577 C576 1.367 . S
C577 C579 1.433 . S
C578 C574 1.350 . S
C578 C575 1.463 . S
C578 N582 1.427 . S
C579 H569 0.929 . S
C579 C577 1.433 . S
C579 N582 1.384 . S
C580 H571 0.929 . S
C580 C572 1.378 . S
C580 C575 1.350 . S
C581 H568 0.929 . S
C581 C573 1.433 . S
C581 N583 1.384 . S
N582 C578 1.427 . S
N582 C579 1.384 . S
N583 C575 1.427 . S
N583 C581 1.384 . S
H584 C590 0.930 . S
H585 C594 0.930 . S
H586 C599 0.929 . S
H587 C597 0.929 . S
H588 C592 0.929 . S
H589 C598 0.929 . S
C590 H584 0.930 . S
C590 C591 1.367 . S
C590 C598 1.378 . S
C591 C590 1.367 . S
C591 C599 1.433 . S
C592 H588 0.929 . S
C592 C594 1.378 . S
C592 C596 1.350 . S
C593 C596 1.463 . S
C593 C598 1.350 . S
C593 N601 1.427 . S
C594 H585 0.930 . S
C594 C592 1.378 . S
C594 C595 1.367 . S
C595 C594 1.367 . S
C595 C597 1.433 . S
C596 C592 1.350 . S
C596 C593 1.463 . S
C596 N600 1.427 . S
C597 H587 0.929 . S
C597 C595 1.433 . S
C597 N600 1.384 . S
C598 H589 0.929 . S
C598 C590 1.378 . S
C598 C593 1.350 . S
C599 H586 0.929 . S
C599 C591 1.433 . S
C599 N601 1.384 . S
N600 C596 1.427 . S
N600 C597 1.384 . S
N601 C593 1.427 . S
N601 C599 1.384 . S
H602 C608 0.930 . S
H603 C612 0.930 . S
H604 C617 0.929 . S
H605 C615 0.929 . S
H606 C610 0.929 . S
H607 C616 0.929 . S
C608 H602 0.930 . S
C608 C609 1.367 . S
C608 C616 1.378 . S
C609 C608 1.367 . S
C609 C617 1.433 . S
C610 H606 0.929 . S
C610 C612 1.378 . S
C610 C614 1.350 . S
C611 C614 1.463 . S
C611 C616 1.350 . S
C611 N619 1.427 . S
C612 H603 0.930 . S
C612 C610 1.378 . S
C612 C613 1.367 . S
C613 C612 1.367 . S
C613 C615 1.433 . S
C614 C610 1.350 . S
C614 C611 1.463 . S
C614 N618 1.427 . S
C615 H605 0.929 . S
C615 C613 1.433 . S
C615 N618 1.384 . S
C616 H607 0.929 . S
C616 C608 1.378 . S
C616 C611 1.350 . S
C617 H604 0.929 . S
C617 C609 1.433 . S
C617 N619 1.384 . S
N618 C614 1.427 . S
N618 C615 1.384 . S
N619 C611 1.427 . S
N619 C617 1.384 . S
H620 C626 0.930 . S
H621 C630 0.930 . S
H622 C635 0.929 . S
H623 C633 0.929 . S
H624 C628 0.929 . S
H625 C634 0.929 . S
C626 H620 0.930 . S
C626 C627 1.367 . S
C626 C634 1.378 . S
C627 C626 1.367 . S
C627 C635 1.433 . S
C628 H624 0.929 . S
C628 C630 1.378 . S
C628 C632 1.350 . S
C629 C632 1.463 . S
C629 C634 1.350 . S
C629 N637 1.427 . S
C630 H621 0.930 . S
C630 C628 1.378 . S
C630 C631 1.367 . S
C631 C630 1.367 . S
C631 C633 1.433 . S
C632 C628 1.350 . S
C632 C629 1.463 . S
C632 N636 1.427 . S
C633 H623 0.929 . S
C633 C631 1.433 . S
C633 N636 1.384 . S
C634 H625 0.929 . S
C634 C626 1.378 . S
C634 C629 1.350 . S
C635 H622 0.929 . S
C635 C627 1.433 . S
C635 N637 1.384 . S
N636 C632 1.427 . S
N636 C633 1.384 . S
N637 C629 1.427 . S
N637 C635 1.384 . S
H638 C644 0.930 . S
H639 C648 0.930 . S
H640 C653 0.929 . S
H641 C651 0.929 . S
H642 C646 0.929 . S
H643 C652 0.929 . S
C644 H638 0.930 . S
C644 C645 1.367 . S
C644 C652 1.378 . S
C645 C644 1.367 . S
C645 C653 1.433 . S
C646 H642 0.929 . S
C646 C648 1.378 . S
C646 C650 1.350 . S
C647 C650 1.463 . S
C647 C652 1.350 . S
C647 N655 1.427 . S
C648 H639 0.930 . S
C648 C646 1.378 . S
C648 C649 1.367 . S
C649 C648 1.367 . S
C649 C651 1.433 . S
C650 C646 1.350 . S
C650 C647 1.463 . S
C650 N654 1.427 . S
C651 H641 0.929 . S
C651 C649 1.433 . S
C651 N654 1.384 . S
C652 H643 0.929 . S
C652 C644 1.378 . S
C652 C647 1.350 . S
C653 H640 0.929 . S
C653 C645 1.433 . S
C653 N655 1.384 . S
N654 C650 1.427 . S
N654 C651 1.384 . S
N655 C647 1.427 . S
N655 C653 1.384 . S
H656 C662 0.930 . S
H657 C666 0.930 . S
H658 C671 0.929 . S
H659 C669 0.929 . S
H660 C664 0.929 . S
H661 C670 0.929 . S
C662 H656 0.930 . S
C662 C663 1.367 . S
C662 C670 1.378 . S
C663 C662 1.367 . S
C663 C671 1.433 . S
C664 H660 0.929 . S
C664 C666 1.378 . S
C664 C668 1.350 . S
C665 C668 1.463 . S
C665 C670 1.350 . S
C665 N673 1.427 . S
C666 H657 0.930 . S
C666 C664 1.378 . S
C666 C667 1.367 . S
C667 C666 1.367 . S
C667 C669 1.433 . S
C668 C664 1.350 . S
C668 C665 1.463 . S
C668 N672 1.427 . S
C669 H659 0.929 . S
C669 C667 1.433 . S
C669 N672 1.384 . S
C670 H661 0.929 . S
C670 C662 1.378 . S
C670 C665 1.350 . S
C671 H658 0.929 . S
C671 C663 1.433 . S
C671 N673 1.384 . S
N672 C668 1.427 . S
N672 C669 1.384 . S
N673 C665 1.427 . S
N673 C671 1.384 . S
H674 C680 0.930 . S
H675 C684 0.930 . S
H676 C689 0.929 . S
H677 C687 0.929 . S
H678 C682 0.929 . S
H679 C688 0.929 . S
C680 H674 0.930 . S
C680 C681 1.367 . S
C680 C688 1.378 . S
C681 C680 1.367 . S
C681 C689 1.433 . S
C682 H678 0.929 . S
C682 C684 1.378 . S
C682 C686 1.350 . S
C683 C686 1.463 . S
C683 C688 1.350 . S
C683 N691 1.427 . S
C684 H675 0.930 . S
C684 C682 1.378 . S
C684 C685 1.367 . S
C685 C684 1.367 . S
C685 C687 1.433 . S
C686 C682 1.350 . S
C686 C683 1.463 . S
C686 N690 1.427 . S
C687 H677 0.929 . S
C687 C685 1.433 . S
C687 N690 1.384 . S
C688 H679 0.929 . S
C688 C680 1.378 . S
C688 C683 1.350 . S
C689 H676 0.929 . S
C689 C681 1.433 . S
C689 N691 1.384 . S
N690 C686 1.427 . S
N690 C687 1.384 . S
N691 C683 1.427 . S
N691 C689 1.384 . S
H692 C698 0.930 . S
H693 C702 0.930 . S
H694 C707 0.929 . S
H695 C705 0.929 . S
H696 C700 0.929 . S
H697 C706 0.929 . S
C698 H692 0.930 . S
C698 C699 1.367 . S
C698 C706 1.378 . S
C699 C698 1.367 . S
C699 C707 1.433 . S
C700 H696 0.929 . S
C700 C702 1.378 . S
C700 C704 1.350 . S
C701 C704 1.463 . S
C701 C706 1.350 . S
C701 N709 1.427 . S
C702 H693 0.930 . S
C702 C700 1.378 . S
C702 C703 1.367 . S
C703 C702 1.367 . S
C703 C705 1.433 . S
C704 C700 1.350 . S
C704 C701 1.463 . S
C704 N708 1.427 . S
C705 H695 0.929 . S
C705 C703 1.433 . S
C705 N708 1.384 . S
C706 H697 0.929 . S
C706 C698 1.378 . S
C706 C701 1.350 . S
C707 H694 0.929 . S
C707 C699 1.433 . S
C707 N709 1.384 . S
N708 C704 1.427 . S
N708 C705 1.384 . S
N709 C701 1.427 . S
N709 C707 1.384 . S
H710 C716 0.930 . S
H711 C720 0.930 . S
H712 C725 0.929 . S
H713 C723 0.929 . S
H714 C718 0.929 . S
H715 C724 0.929 . S
C716 H710 0.930 . S
C716 C717 1.367 . S
C716 C724 1.378 . S
C717 C716 1.367 . S
C717 C725 1.433 . S
C718 H714 0.929 . S
C718 C720 1.378 . S
C718 C722 1.350 . S
C719 C722 1.463 . S
C719 C724 1.350 . S
C719 N727 1.427 . S
C720 H711 0.930 . S
C720 C718 1.378 . S
C720 C721 1.367 . S
C721 C720 1.367 . S
C721 C723 1.433 . S
C722 C718 1.350 . S
C722 C719 1.463 . S
C722 N726 1.427 . S
C723 H713 0.929 . S
C723 C721 1.433 . S
C723 N726 1.384 . S
C724 H715 0.929 . S
C724 C716 1.378 . S
C724 C719 1.350 . S
C725 H712 0.929 . S
C725 C717 1.433 . S
C725 N727 1.384 . S
N726 C722 1.427 . S
N726 C723 1.384 . S
N727 C719 1.427 . S
N727 C725 1.384 . S
H728 C734 0.930 . S
H729 C738 0.930 . S
H730 C743 0.929 . S
H731 C741 0.929 . S
H732 C736 0.929 . S
H733 C742 0.929 . S
C734 H728 0.930 . S
C734 C735 1.367 . S
C734 C742 1.378 . S
C735 C734 1.367 . S
C735 C743 1.433 . S
C736 H732 0.929 . S
C736 C738 1.378 . S
C736 C740 1.350 . S
C737 C740 1.463 . S
C737 C742 1.350 . S
C737 N745 1.427 . S
C738 H729 0.930 . S
C738 C736 1.378 . S
C738 C739 1.367 . S
C739 C738 1.367 . S
C739 C741 1.433 . S
C740 C736 1.350 . S
C740 C737 1.463 . S
C740 N744 1.427 . S
C741 H731 0.929 . S
C741 C739 1.433 . S
C741 N744 1.384 . S
C742 H733 0.929 . S
C742 C734 1.378 . S
C742 C737 1.350 . S
C743 H730 0.929 . S
C743 C735 1.433 . S
C743 N745 1.384 . S
N744 C740 1.427 . S
N744 C741 1.384 . S
N745 C737 1.427 . S
N745 C743 1.384 . S
H746 C752 0.930 . S
H747 C756 0.930 . S
H748 C761 0.929 . S
H749 C759 0.929 . S
H750 C754 0.929 . S
H751 C760 0.929 . S
C752 H746 0.930 . S
C752 C753 1.367 . S
C752 C760 1.378 . S
C753 C752 1.367 . S
C753 C761 1.433 . S
C754 H750 0.929 . S
C754 C756 1.378 . S
C754 C758 1.350 . S
C755 C758 1.463 . S
C755 C760 1.350 . S
C755 N763 1.427 . S
C756 H747 0.930 . S
C756 C754 1.378 . S
C756 C757 1.367 . S
C757 C756 1.367 . S
C757 C759 1.433 . S
C758 C754 1.350 . S
C758 C755 1.463 . S
C758 N762 1.427 . S
C759 H749 0.929 . S
C759 C757 1.433 . S
C759 N762 1.384 . S
C760 H751 0.929 . S
C760 C752 1.378 . S
C760 C755 1.350 . S
C761 H748 0.929 . S
C761 C753 1.433 . S
C761 N763 1.384 . S
N762 C758 1.427 . S
N762 C759 1.384 . S
N763 C755 1.427 . S
N763 C761 1.384 . S
H764 C770 0.930 . S
H765 C774 0.930 . S
H766 C779 0.929 . S
H767 C777 0.929 . S
H768 C772 0.929 . S
H769 C778 0.929 . S
C770 H764 0.930 . S
C770 C771 1.367 . S
C770 C778 1.378 . S
C771 C770 1.367 . S
C771 C779 1.433 . S
C772 H768 0.929 . S
C772 C774 1.378 . S
C772 C776 1.350 . S
C773 C776 1.463 . S
C773 C778 1.350 . S
C773 N781 1.427 . S
C774 H765 0.930 . S
C774 C772 1.378 . S
C774 C775 1.367 . S
C775 C774 1.367 . S
C775 C777 1.433 . S
C776 C772 1.350 . S
C776 C773 1.463 . S
C776 N780 1.427 . S
C777 H767 0.929 . S
C777 C775 1.433 . S
C777 N780 1.384 . S
C778 H769 0.929 . S
C778 C770 1.378 . S
C778 C773 1.350 . S
C779 H766 0.929 . S
C779 C771 1.433 . S
C779 N781 1.384 . S
N780 C776 1.427 . S
N780 C777 1.384 . S
N781 C773 1.427 . S
N781 C779 1.384 . S
H782 C788 0.930 . S
H783 C792 0.930 . S
H784 C797 0.929 . S
H785 C795 0.929 . S
H786 C790 0.929 . S
H787 C796 0.929 . S
C788 H782 0.930 . S
C788 C789 1.367 . S
C788 C796 1.378 . S
C789 C788 1.367 . S
C789 C797 1.433 . S
C790 H786 0.929 . S
C790 C792 1.378 . S
C790 C794 1.350 . S
C791 C794 1.463 . S
C791 C796 1.350 . S
C791 N799 1.427 . S
C792 H783 0.930 . S
C792 C790 1.378 . S
C792 C793 1.367 . S
C793 C792 1.367 . S
C793 C795 1.433 . S
C794 C790 1.350 . S
C794 C791 1.463 . S
C794 N798 1.427 . S
C795 H785 0.929 . S
C795 C793 1.433 . S
C795 N798 1.384 . S
C796 H787 0.929 . S
C796 C788 1.378 . S
C796 C791 1.350 . S
C797 H784 0.929 . S
C797 C789 1.433 . S
C797 N799 1.384 . S
N798 C794 1.427 . S
N798 C795 1.384 . S
N799 C791 1.427 . S
N799 C797 1.384 . S
C231 C11 1.184 . S
C235 C67 1.185 . S
C249 C81 1.188 . S
C253 C25 1.187 . S
C267 C39 1.184 . S
C271 C95 1.186 . S
C285 C53 1.188 . S
C289 C109 1.187 . S
C303 C123 1.185 . S
C307 C179 1.184 . S
C321 C193 1.188 . S
C325 C137 1.188 . S
C339 C151 1.187 . S
C343 C207 1.188 . S
C357 C165 1.184 . S
C361 C221 1.184 . S
C375 C13 1.132 . S
C379 C218 1.143 . S
C393 C176 1.148 . S
C397 C27 1.125 . S
C411 C41 1.128 . S
C415 C190 1.162 . S
C429 C204 1.147 . S
C433 C55 1.126 . S
C447 C134 1.148 . S
C451 C69 1.125 . S
C465 C148 1.150 . S
C469 C83 1.124 . S
C483 C162 1.162 . S
C487 C97 1.128 . S
C501 C120 1.165 . S
C505 C111 1.133 . S
C519 C125 1.126 . S
C523 C106 1.147 . S
C537 C64 1.165 . S
C541 C139 1.135 . S
C555 C78 1.151 . S
C559 C153 1.149 . S
C573 C167 1.124 . S
C577 C92 1.156 . S
C591 C22 1.156 . S
C595 C181 1.150 . S
C609 C195 1.141 . S
C613 C36 1.144 . S
C627 C209 1.126 . S
C631 C50 1.159 . S
C645 C223 1.125 . S
C649 C8 1.157 . S
C663 C105 1.258 . S
C667 C7 1.249 . S
C681 C21 1.248 . S
C685 C63 1.260 . S
C699 C35 1.253 . S
C703 C77 1.263 . S
C717 C49 1.260 . S
C721 C91 1.248 . S
C735 C217 1.259 . S
C739 C119 1.258 . S
C753 C175 1.248 . S
C757 C133 1.260 . S
C771 C189 1.248 . S
C775 C147 1.264 . S
C789 C203 1.260 . S
C793 C161 1.257 . S
