# Generated by pormake.
# Topology wjy, (5)-cn, num edge types: 1
# Building blocks:
#     Node 0, Type 0, BuildingBlock: XOMCOT_clean_sbu_0, # of connection points: 5
#     Node 1, Type 0, BuildingBlock: XOMCOT_clean_sbu_0, # of connection points: 5
#     Node 2, Type 0, BuildingBlock: XOMCOT_clean_sbu_0, # of connection points: 5
#     Node 3, Type 0, BuildingBlock: XOMCOT_clean_sbu_0, # of connection points: 5
#     Node 4, Type 0, BuildingBlock: XOMCOT_clean_sbu_0, # of connection points: 5
#     Node 5, Type 0, BuildingBlock: XOMCOT_clean_sbu_0, # of connection points: 5
#     Node 6, Type 0, BuildingBlock: XOMCOT_clean_sbu_0, # of connection points: 5
#     Node 7, Type 0, BuildingBlock: XOMCOT_clean_sbu_0, # of connection points: 5
#     Node 8, Type 0, BuildingBlock: XOMCOT_clean_sbu_0, # of connection points: 5
#     Node 9, Type 0, BuildingBlock: XOMCOT_clean_sbu_0, # of connection points: 5
#     Node 10, Type 0, BuildingBlock: XOMCOT_clean_sbu_0, # of connection points: 5
#     Node 11, Type 0, BuildingBlock: XOMCOT_clean_sbu_0, # of connection points: 5
#     Edge 12, Type (0, 0), BuildingBlock: KIFKEQ_clean_linker_1, # of connection points: 2
#     Edge 13, Type (0, 0), BuildingBlock: KIFKEQ_clean_linker_1, # of connection points: 2
#     Edge 14, Type (0, 0), BuildingBlock: KIFKEQ_clean_linker_1, # of connection points: 2
#     Edge 15, Type (0, 0), BuildingBlock: KIFKEQ_clean_linker_1, # of connection points: 2
#     Edge 16, Type (0, 0), BuildingBlock: KIFKEQ_clean_linker_1, # of connection points: 2
#     Edge 17, Type (0, 0), BuildingBlock: KIFKEQ_clean_linker_1, # of connection points: 2
#     Edge 18, Type (0, 0), BuildingBlock: KIFKEQ_clean_linker_1, # of connection points: 2
#     Edge 19, Type (0, 0), BuildingBlock: KIFKEQ_clean_linker_1, # of connection points: 2
#     Edge 20, Type (0, 0), BuildingBlock: KIFKEQ_clean_linker_1, # of connection points: 2
#     Edge 21, Type (0, 0), BuildingBlock: KIFKEQ_clean_linker_1, # of connection points: 2
#     Edge 22, Type (0, 0), BuildingBlock: KIFKEQ_clean_linker_1, # of connection points: 2
#     Edge 23, Type (0, 0), BuildingBlock: KIFKEQ_clean_linker_1, # of connection points: 2
#     Edge 24, Type (0, 0), BuildingBlock: KIFKEQ_clean_linker_1, # of connection points: 2
#     Edge 25, Type (0, 0), BuildingBlock: KIFKEQ_clean_linker_1, # of connection points: 2
#     Edge 26, Type (0, 0), BuildingBlock: KIFKEQ_clean_linker_1, # of connection points: 2
#     Edge 27, Type (0, 0), BuildingBlock: KIFKEQ_clean_linker_1, # of connection points: 2
#     Edge 28, Type (0, 0), BuildingBlock: KIFKEQ_clean_linker_1, # of connection points: 2
#     Edge 29, Type (0, 0), BuildingBlock: KIFKEQ_clean_linker_1, # of connection points: 2
#     Edge 30, Type (0, 0), BuildingBlock: KIFKEQ_clean_linker_1, # of connection points: 2
#     Edge 31, Type (0, 0), BuildingBlock: KIFKEQ_clean_linker_1, # of connection points: 2
#     Edge 32, Type (0, 0), BuildingBlock: KIFKEQ_clean_linker_1, # of connection points: 2
#     Edge 33, Type (0, 0), BuildingBlock: KIFKEQ_clean_linker_1, # of connection points: 2
#     Edge 34, Type (0, 0), BuildingBlock: KIFKEQ_clean_linker_1, # of connection points: 2
#     Edge 35, Type (0, 0), BuildingBlock: KIFKEQ_clean_linker_1, # of connection points: 2
#     Edge 36, Type (0, 0), BuildingBlock: KIFKEQ_clean_linker_1, # of connection points: 2
#     Edge 37, Type (0, 0), BuildingBlock: KIFKEQ_clean_linker_1, # of connection points: 2
#     Edge 38, Type (0, 0), BuildingBlock: KIFKEQ_clean_linker_1, # of connection points: 2
#     Edge 39, Type (0, 0), BuildingBlock: KIFKEQ_clean_linker_1, # of connection points: 2
#     Edge 40, Type (0, 0), BuildingBlock: KIFKEQ_clean_linker_1, # of connection points: 2
#     Edge 41, Type (0, 0), BuildingBlock: KIFKEQ_clean_linker_1, # of connection points: 2
# Relax obj value: 0.079
# Max RMSD: 0.164
# Mean RMSD: 0.164
data_MOF--net-wjy--node1-XOMCOT_clean_sbu_0--edge1-KIFKEQ_clean_linker_1
_symmetry_space_group_name_H-M    P1
_symmetry_Int_Tables_number       1
_symmetry_cell_setting            triclinic
loop_
_symmetry_equiv_pos_as_xyz
'x, y, z'
_cell_length_a     76.675379
_cell_length_b     76.666296
_cell_length_c     17.837222
_cell_angle_alpha  90.036612
_cell_angle_beta   89.948422
_cell_angle_gamma 119.99723
loop_
_atom_site_label
_atom_site_type_symbol
_atom_site_fract_x
_atom_site_fract_y
_atom_site_fract_z
_atom_type_partial_charge
Co0 Co 0.46875 0.10744 0.09552 0.0
C1 C 0.47192 0.10972 0.9302 0.0
C2 C 0.49507 0.10561 0.98025 0.0
C3 C 0.49695 0.10555 0.90352 0.0
N4 N 0.47949 0.10835 0.9968 0.0
N5 N 0.48235 0.10808 0.87199 0.0
H6 H 0.45889 0.11157 0.92474 0.0
H7 H 0.50398 0.10306 0.02103 0.0
C8 C 0.50658 0.13483 0.18491 0.0
O9 O 0.49773 0.14347 0.21943 0.0
N10 N 0.45771 0.10598 0.19542 0.0
C11 C 0.43997 0.10473 0.2124 0.0
C12 C 0.43744 0.10351 0.28882 0.0
C13 C 0.46517 0.10438 0.26222 0.0
N14 N 0.45341 0.10351 0.32042 0.0
C15 C 0.45229 0.13332 0.06703 0.0
C16 C 0.48856 0.16902 0.06292 0.0
C17 C 0.47067 0.16986 0.0645 0.0
C18 C 0.45235 0.15154 0.06247 0.0
C19 C 0.48774 0.15041 0.0656 0.0
N20 N 0.46981 0.13299 0.07507 0.0
H21 H 0.43808 0.11946 0.06445 0.0
H22 H 0.50165 0.15017 0.0616 0.0
H23 H 0.42909 0.10405 0.17258 0.0
H24 H 0.47902 0.10404 0.26824 0.0
O25 O 0.44192 0.08863 0.05855 0.0
O26 O 0.46335 0.08028 0.10692 0.0
O27 O 0.49712 0.12111 0.13595 0.0
C28 C 0.44592 0.07451 0.07639 0.0
H29 H 0.50772 0.10299 0.87339 0.0
H30 H 0.42459 0.1023 0.3186 0.0
H31 H 0.50318 0.18255 0.06201 0.0
H32 H 0.43809 0.15116 0.05812 0.0
Co33 Co 0.35835 0.46002 0.309 0.0
C34 C 0.35946 0.46414 0.1417 0.0
C35 C 0.38765 0.48446 0.19324 0.0
C36 C 0.39006 0.4864 0.1167 0.0
N37 N 0.36832 0.47084 0.20929 0.0
N38 N 0.37232 0.47355 0.08427 0.0
H39 H 0.34425 0.45209 0.13392 0.0
H40 H 0.39945 0.4919 0.23447 0.0
C41 C 0.37721 0.50462 0.32611 0.0
O42 O 0.36779 0.50481 0.26486 0.0
N43 N 0.34894 0.44912 0.40793 0.0
C44 C 0.33132 0.43252 0.42436 0.0
C45 C 0.32951 0.4305 0.50109 0.0
C46 C 0.35769 0.45694 0.47457 0.0
N47 N 0.34606 0.4459 0.53271 0.0
C48 C 0.31933 0.44981 0.25001 0.0
C49 C 0.31271 0.47427 0.34576 0.0
C50 C 0.29765 0.46222 0.2944 0.0
C51 C 0.30113 0.44985 0.24608 0.0
C52 C 0.33071 0.47388 0.34738 0.0
N53 N 0.33428 0.46238 0.29782 0.0
H54 H 0.32088 0.43885 0.21733 0.0
H55 H 0.34138 0.48224 0.39102 0.0
H56 H 0.32038 0.42278 0.38336 0.0
H57 H 0.37197 0.47072 0.4804 0.0
O58 O 0.34839 0.43308 0.26962 0.0
O59 O 0.37898 0.45277 0.31604 0.0
O60 O 0.37441 0.48795 0.3529 0.0
C61 C 0.36615 0.43575 0.28518 0.0
H62 H 0.40405 0.4958 0.08732 0.0
H63 H 0.31692 0.41859 0.53111 0.0
H64 H 0.31053 0.48375 0.38526 0.0
H65 H 0.28954 0.43963 0.20782 0.0
Co66 Co 0.89407 0.3618 0.43645 0.0
C67 C 0.89171 0.36256 0.27116 0.0
C68 C 0.8946 0.38935 0.32137 0.0
C69 C 0.89451 0.39121 0.24466 0.0
N70 N 0.89271 0.37136 0.33779 0.0
N71 N 0.89276 0.3744 0.21304 0.0
H72 H 0.89052 0.34795 0.2656 0.0
H73 H 0.89663 0.40063 0.36221 0.0
C74 C 0.86544 0.37068 0.52522 0.0
O75 O 0.85732 0.35317 0.55944 0.0
N76 N 0.896 0.35254 0.53637 0.0
C77 C 0.8985 0.33678 0.55329 0.0
C78 C 0.89977 0.33557 0.62971 0.0
C79 C 0.89694 0.36134 0.60324 0.0
N80 N 0.89858 0.3509 0.66136 0.0
C81 C 0.86925 0.31913 0.41001 0.0
C82 C 0.83304 0.31868 0.40286 0.0
C83 C 0.83289 0.30038 0.40609 0.0
C84 C 0.85129 0.30068 0.40597 0.0
C85 C 0.85138 0.33676 0.40517 0.0
N86 N 0.86904 0.33678 0.41606 0.0
H87 H 0.88331 0.31916 0.40894 0.0
H88 H 0.85124 0.35069 0.39971 0.0
H89 H 0.90012 0.32711 0.51344 0.0
H90 H 0.89635 0.37505 0.6094 0.0
O91 O 0.91362 0.35476 0.39942 0.0
O92 O 0.92083 0.38425 0.44785 0.0
O93 O 0.87944 0.37556 0.4769 0.0
C94 C 0.92724 0.37308 0.41741 0.0
H95 H 0.89643 0.40432 0.21458 0.0
H96 H 0.90188 0.32447 0.65947 0.0
H97 H 0.8191 0.319 0.39916 0.0
H98 H 0.85177 0.2868 0.40545 0.0
Co99 Co 0.53868 0.89772 0.64251 0.0
C100 C 0.53392 0.89326 0.47568 0.0
C101 C 0.51439 0.90231 0.52661 0.0
C102 C 0.51229 0.90239 0.45016 0.0
N103 N 0.52775 0.89633 0.54293 0.0
N104 N 0.52461 0.89673 0.41785 0.0
H105 H 0.54543 0.88929 0.46873 0.0
H106 H 0.50724 0.90709 0.56765 0.0
C107 C 0.49427 0.86946 0.65579 0.0
O108 O 0.49479 0.86111 0.59209 0.0
N109 N 0.54962 0.89969 0.74145 0.0
C110 C 0.56755 0.90141 0.75798 0.0
C111 C 0.56966 0.90197 0.83475 0.0
C112 C 0.54102 0.89918 0.80799 0.0
N113 N 0.55294 0.9005 0.86601 0.0
C114 C 0.55358 0.8725 0.58458 0.0
C115 C 0.52815 0.83864 0.66677 0.0
C116 C 0.54223 0.83779 0.61895 0.0
C117 C 0.55522 0.85518 0.57805 0.0
C118 C 0.52729 0.85632 0.67257 0.0
N119 N 0.53914 0.87269 0.62887 0.0
H120 H 0.5644 0.88598 0.5557 0.0
H121 H 0.51744 0.85685 0.71444 0.0
H122 H 0.57823 0.90195 0.71704 0.0
H123 H 0.52643 0.89801 0.81393 0.0
O124 O 0.5653 0.91715 0.60512 0.0
O125 O 0.543 0.92455 0.65189 0.0
O126 O 0.51051 0.88338 0.68506 0.0
C127 C 0.56055 0.93084 0.62151 0.0
H128 H 0.50309 0.90724 0.42095 0.0
H129 H 0.5823 0.90291 0.86522 0.0
H130 H 0.51787 0.82581 0.70034 0.0
H131 H 0.56697 0.85567 0.5429 0.0
Co132 Co 0.64325 0.53863 0.77044 0.0
C133 C 0.64396 0.53448 0.60568 0.0
C134 C 0.61607 0.51191 0.65404 0.0
C135 C 0.61473 0.50978 0.57739 0.0
N136 N 0.6344 0.52732 0.67165 0.0
N137 N 0.63224 0.524 0.54682 0.0
H138 H 0.65898 0.54734 0.60115 0.0
H139 H 0.60416 0.50334 0.69387 0.0
C140 C 0.6293 0.49834 0.85058 0.0
O141 O 0.64736 0.50338 0.87516 0.0
N142 N 0.65158 0.55023 0.87085 0.0
C143 C 0.66358 0.56994 0.88768 0.0
C144 C 0.6649 0.57233 0.96421 0.0
C145 C 0.64526 0.54109 0.93829 0.0
N146 N 0.65344 0.55416 0.99593 0.0
C147 C 0.68538 0.5518 0.77749 0.0
C148 C 0.68268 0.51608 0.7317 0.0
C149 C 0.7013 0.53185 0.75624 0.0
C150 C 0.70261 0.55005 0.77744 0.0
C151 C 0.66568 0.51841 0.73361 0.0
N152 N 0.667 0.53576 0.76023 0.0
H153 H 0.6869 0.56613 0.79162 0.0
H154 H 0.65132 0.506 0.71603 0.0
H155 H 0.67088 0.58199 0.84736 0.0
H156 H 0.63419 0.52547 0.94605 0.0
O157 O 0.65368 0.56526 0.72751 0.0
O158 O 0.62273 0.54605 0.77212 0.0
O159 O 0.62629 0.51076 0.81297 0.0
C160 C 0.63584 0.5628 0.74033 0.0
H161 H 0.60147 0.49915 0.54663 0.0
H162 H 0.67371 0.58636 0.99413 0.0
H163 H 0.68113 0.5019 0.71348 0.0
H164 H 0.71689 0.56288 0.79369 0.0
Co165 Co 0.10566 0.64077 0.95989 0.0
C166 C 0.10928 0.64 0.79277 0.0
C167 C 0.10107 0.6117 0.8446 0.0
C168 C 0.1006 0.60925 0.76816 0.0
N169 N 0.10675 0.63104 0.86033 0.0
N170 N 0.10573 0.62704 0.73565 0.0
H171 H 0.1124 0.65522 0.78476 0.0
H172 H 0.09684 0.59997 0.88607 0.0
C173 C 0.13397 0.62455 0.97257 0.0
O174 O 0.14272 0.6338 0.90987 0.0
N175 N 0.10404 0.64998 0.05897 0.0
C176 C 0.10237 0.66621 0.07533 0.0
C177 C 0.10217 0.66802 0.15203 0.0
C178 C 0.10485 0.64212 0.12562 0.0
N179 N 0.1038 0.6529 0.1839 0.0
C180 C 0.13049 0.68075 0.90054 0.0
C181 C 0.16477 0.6895 0.98062 0.0
C182 C 0.16519 0.70414 0.9328 0.0
C183 C 0.1477 0.69978 0.89333 0.0
C184 C 0.14717 0.67092 0.9875 0.0
N185 N 0.13059 0.66625 0.94478 0.0
H186 H 0.1169 0.67793 0.87221 0.0
H187 H 0.14682 0.66067 0.02953 0.0
H188 H 0.10147 0.67611 0.03429 0.0
H189 H 0.10647 0.62897 0.13106 0.0
O190 O 0.08602 0.64781 0.92356 0.0
O191 O 0.07891 0.61826 0.9708 0.0
O192 O 0.12006 0.62696 1.00161 0.0
C193 C 0.07245 0.62942 0.94093 0.0
H194 H 0.0964 0.59534 0.7388 0.0
H195 H 0.10076 0.67957 0.18159 0.0
H196 H 0.17774 0.69267 0.01454 0.0
H197 H 0.14731 0.71098 0.85748 0.0
Co198 Co 0.89474 0.5332 0.75597 0.0
C199 C 0.89178 0.52965 0.92138 0.0
C200 C 0.8959 0.50656 0.87043 0.0
C201 C 0.89614 0.50467 0.94698 0.0
N202 N 0.8931 0.52215 0.85453 0.0
N203 N 0.89363 0.51922 0.97896 0.0
H204 H 0.89044 0.54298 0.92759 0.0
H205 H 0.89842 0.4977 0.82925 0.0
C206 C 0.86492 0.49495 0.67412 0.0
O207 O 0.8556 0.50371 0.64414 0.0
N208 N 0.89724 0.54453 0.65567 0.0
C209 C 0.90397 0.56404 0.63873 0.0
C210 C 0.90522 0.56642 0.56229 0.0
C211 C 0.89561 0.53562 0.58849 0.0
N212 N 0.8998 0.54848 0.5304 0.0
C213 C 0.86828 0.54979 0.76263 0.0
C214 C 0.83406 0.51441 0.80295 0.0
C215 C 0.83228 0.53115 0.78335 0.0
C216 C 0.84979 0.54919 0.76535 0.0
C217 C 0.85286 0.51563 0.79855 0.0
N218 N 0.86944 0.53281 0.77387 0.0
H219 H 0.88159 0.56394 0.75107 0.0
H220 H 0.85393 0.50248 0.81259 0.0
H221 H 0.9086 0.57613 0.67882 0.0
H222 H 0.89204 0.52021 0.58201 0.0
O223 O 0.91384 0.55974 0.79452 0.0
O224 O 0.92164 0.53779 0.74672 0.0
O225 O 0.88031 0.50482 0.71595 0.0
C226 C 0.92769 0.55525 0.77768 0.0
H227 H 0.89837 0.49364 0.97678 0.0
H228 H 0.91047 0.58051 0.53291 0.0
H229 H 0.82097 0.50029 0.81883 0.0
H230 H 0.84919 0.56272 0.75324 0.0
Co231 Co 0.35856 0.89701 0.88911 0.0
C232 C 0.35915 0.89349 0.05616 0.0
C233 C 0.3874 0.90115 1.00519 0.0
C234 C 0.38955 0.90119 0.08173 0.0
N235 N 0.36822 0.89593 0.98886 0.0
N236 N 0.37179 0.89644 0.11378 0.0
H237 H 0.34389 0.89028 0.06351 0.0
H238 H 0.39921 0.9053 0.96411 0.0
C239 C 0.3746 0.86858 0.87649 0.0
O240 O 0.36582 0.86032 0.94041 0.0
N241 N 0.34939 0.89863 0.79009 0.0
C242 C 0.3324 0.89891 0.77368 0.0
C243 C 0.33051 0.8989 0.69696 0.0
C244 C 0.35771 0.89858 0.72347 0.0
N245 N 0.3464 0.89863 0.66539 0.0
C246 C 0.31852 0.87206 0.94867 0.0
C247 C 0.31011 0.83769 0.86974 0.0
C248 C 0.29553 0.83711 0.91833 0.0
C249 C 0.29966 0.85466 0.95699 0.0
C250 C 0.32848 0.85545 0.86175 0.0
N251 N 0.33306 0.87206 0.90422 0.0
H252 H 0.3212 0.88567 0.97651 0.0
H253 H 0.33866 0.85586 0.81923 0.0
H254 H 0.32197 0.89882 0.81471 0.0
H255 H 0.37145 0.898 0.71767 0.0
O256 O 0.35159 0.91671 0.92546 0.0
O257 O 0.38113 0.9237 0.87831 0.0
O258 O 0.37221 0.88245 0.84703 0.0
C259 C 0.37003 0.93023 0.90836 0.0
H260 H 0.40339 0.90532 0.11145 0.0
H261 H 0.31838 0.89911 0.66686 0.0
H262 H 0.30707 0.82466 0.8363 0.0
H263 H 0.28845 0.85492 0.99322 0.0
Co264 Co 0.4629 0.35847 0.08976 0.0
C265 C 0.46613 0.35961 0.25496 0.0
C266 C 0.48863 0.38727 0.20497 0.0
C267 C 0.49048 0.38918 0.28174 0.0
N268 N 0.47345 0.36871 0.18837 0.0
N269 N 0.47628 0.37181 0.31321 0.0
H270 H 0.45349 0.34448 0.26042 0.0
H271 H 0.49737 0.39885 0.16429 0.0
C272 C 0.50193 0.37262 1.00134 0.0
O273 O 0.49545 0.35494 0.96976 0.0
N274 N 0.45208 0.34843 0.98999 0.0
C275 C 0.43453 0.33168 0.97324 0.0
C276 C 0.43209 0.33017 0.89675 0.0
C277 C 0.45951 0.35737 0.92296 0.0
N278 N 0.4479 0.34624 0.86492 0.0
C279 C 0.44978 0.31674 0.11516 0.0
C280 C 0.48756 0.32064 0.12265 0.0
C281 C 0.47057 0.30135 0.12088 0.0
C282 C 0.45148 0.29949 0.12041 0.0
C283 C 0.4851 0.33753 0.11941 0.0
N284 N 0.46647 0.33538 0.10886 0.0
H285 H 0.43496 0.31502 0.11578 0.0
H286 H 0.49827 0.35228 0.12411 0.0
H287 H 0.4237 0.32149 1.01327 0.0
H288 H 0.4731 0.37175 0.91656 0.0
O289 O 0.43585 0.34806 0.12882 0.0
O290 O 0.45484 0.37844 0.07968 0.0
O291 O 0.49091 0.37543 0.04797 0.0
C292 C 0.43798 0.36552 0.1113 0.0
H293 H 0.50098 0.40262 0.31195 0.0
H294 H 0.41935 0.31834 0.86709 0.0
H295 H 0.50254 0.32262 0.12631 0.0
H296 H 0.43799 0.2848 0.12166 0.0
Co297 Co 0.10642 0.46565 0.24798 0.0
C298 C 0.1072 0.46829 0.41372 0.0
C299 C 0.1076 0.49379 0.36229 0.0
C300 C 0.10718 0.49569 0.43888 0.0
N301 N 0.10769 0.47667 0.34663 0.0
N302 N 0.10683 0.4796 0.47142 0.0
H303 H 0.10648 0.4539 0.41978 0.0
H304 H 0.10738 0.50399 0.32097 0.0
C305 C 0.13484 0.5022 0.15558 0.0
O306 O 0.14196 0.49205 0.12016 0.0
N307 N 0.10461 0.45449 0.14807 0.0
C308 C 0.10443 0.43736 0.12925 0.0
C309 C 0.10252 0.43491 0.05279 0.0
C310 C 0.1018 0.46165 0.08254 0.0
N311 N 0.10103 0.45028 0.02316 0.0
C312 C 0.13038 0.44725 0.28131 0.0
C313 C 0.16699 0.48256 0.28841 0.0
C314 C 0.16673 0.46417 0.29083 0.0
C315 C 0.14803 0.44633 0.29019 0.0
C316 C 0.14898 0.48275 0.2801 0.0
N317 N 0.13114 0.46524 0.27025 0.0
H318 H 0.11611 0.43343 0.28291 0.0
H319 H 0.14953 0.49707 0.28172 0.0
H320 H 0.10519 0.42693 0.16755 0.0
H321 H 0.10036 0.47495 0.0785 0.0
O322 O 0.08638 0.43917 0.28425 0.0
O323 O 0.0799 0.46187 0.23516 0.0
O324 O 0.12157 0.49393 0.20699 0.0
C325 C 0.07308 0.44424 0.26553 0.0
H326 H 0.10706 0.508 0.46805 0.0
H327 H 0.10258 0.42284 0.02153 0.0
H328 H 0.181 0.49672 0.29308 0.0
H329 H 0.14702 0.43177 0.29455 0.0
Co330 Co 0.64156 0.10776 0.42921 0.0
C331 C 0.64002 0.10902 0.595 0.0
C332 C 0.61401 0.10755 0.54372 0.0
C333 C 0.6117 0.10709 0.62028 0.0
N334 N 0.63178 0.10887 0.52795 0.0
N335 N 0.628 0.10788 0.65277 0.0
H336 H 0.65414 0.10918 0.60095 0.0
H337 H 0.60314 0.10635 0.50251 0.0
C338 C 0.63144 0.13481 0.3365 0.0
O339 O 0.64871 0.14263 0.3006 0.0
N340 N 0.651 0.10611 0.3293 0.0
C341 C 0.66826 0.10653 0.31072 0.0
C342 C 0.66896 0.10472 0.23427 0.0
C343 C 0.64102 0.10304 0.26367 0.0
N344 N 0.65189 0.10269 0.20442 0.0
C345 C 0.68384 0.13314 0.46089 0.0
C346 C 0.684 0.16924 0.45841 0.0
C347 C 0.70238 0.16952 0.4601 0.0
C348 C 0.70218 0.15121 0.46513 0.0
C349 C 0.66603 0.15082 0.45604 0.0
N350 N 0.66622 0.13314 0.44979 0.0
H351 H 0.68389 0.11913 0.46502 0.0
H352 H 0.65205 0.15094 0.45818 0.0
H353 H 0.67958 0.10769 0.34926 0.0
H354 H 0.62609 0.10112 0.25942 0.0
O355 O 0.64923 0.08868 0.46615 0.0
O356 O 0.61955 0.08074 0.41788 0.0
O357 O 0.6272 0.12171 0.38803 0.0
C358 C 0.63103 0.07474 0.44843 0.0
H359 H 0.59884 0.10604 0.64943 0.0
H360 H 0.68133 0.10525 0.20316 0.0
H361 H 0.68356 0.18315 0.45839 0.0
H362 H 0.7161 0.15086 0.46942 0.0
Co363 Co 0.54306 0.64443 0.55012 0.0
C364 C 0.53855 0.64279 0.71747 0.0
C365 C 0.5214 0.61393 0.66498 0.0
C366 C 0.51955 0.61128 0.74139 0.0
N367 N 0.53314 0.63371 0.64969 0.0
N368 N 0.53036 0.62944 0.7743 0.0
H369 H 0.54907 0.65856 0.72593 0.0
H370 H 0.51507 0.60214 0.62317 0.0
C371 C 0.49822 0.62478 0.5415 0.0
O372 O 0.49846 0.63307 0.60627 0.0
N373 N 0.55306 0.65463 0.45105 0.0
C374 C 0.56983 0.67205 0.43445 0.0
C375 C 0.57161 0.67395 0.35771 0.0
C376 C 0.54484 0.64613 0.38456 0.0
N377 N 0.55584 0.65767 0.32609 0.0
C378 C 0.55535 0.68352 0.6118 0.0
C379 C 0.52808 0.69023 0.53436 0.0
C380 C 0.54223 0.7056 0.58065 0.0
C381 C 0.55606 0.70201 0.61937 0.0
C382 C 0.52816 0.67213 0.52731 0.0
N383 N 0.54111 0.66852 0.56819 0.0
H384 H 0.56687 0.68164 0.63888 0.0
H385 H 0.51826 0.66145 0.4863 0.0
H386 H 0.58005 0.68264 0.47534 0.0
H387 H 0.53099 0.63191 0.37941 0.0
O388 O 0.57028 0.65391 0.58514 0.0
O389 O 0.55013 0.62378 0.53618 0.0
O390 O 0.51473 0.62871 0.50957 0.0
C391 C 0.56739 0.63626 0.56625 0.0
H392 H 0.51115 0.59705 0.77045 0.0
H393 H 0.58377 0.68635 0.32794 0.0
H394 H 0.51715 0.69216 0.50258 0.0
H395 H 0.56788 0.71361 0.65325 0.0
H396 H 0.45678 0.27031 0.22029 0.0
H397 H 0.48833 0.29144 1.01042 0.0
H398 H 0.45798 0.23923 0.20836 0.0
H399 H 0.48839 0.25988 0.9948 0.0
H400 H 0.49911 0.20724 1.00992 0.0
H401 H 0.50077 0.23931 0.02926 0.0
H402 H 0.44371 0.20911 0.14609 0.0
H403 H 0.44316 0.17747 0.13404 0.0
C404 C 0.46396 0.26819 0.17154 0.0
C405 C 0.47257 0.28319 0.1165 0.0
C406 C 0.46446 0.25029 0.16397 0.0
C407 C 0.47308 0.24673 0.10003 0.0
C408 C 0.48191 0.26203 0.04546 0.0
C409 C 0.48183 0.28012 0.05405 0.0
C410 C 0.48707 0.2074 0.04101 0.0
C411 C 0.47103 0.18952 0.07057 0.0
C412 C 0.48785 0.22589 0.05105 0.0
C413 C 0.47241 0.22704 0.08957 0.0
C414 C 0.45617 0.20909 0.11759 0.0
C415 C 0.45561 0.1907 0.10904 0.0
H416 H 0.17599 0.44024 0.37691 0.0
H417 H 0.20065 0.48689 0.20828 0.0
H418 H 0.20731 0.43911 0.37687 0.0
H419 H 0.23202 0.486 0.20924 0.0
H420 H 0.27623 0.46279 0.17278 0.0
H421 H 0.24429 0.4627 0.17216 0.0
H422 H 0.24316 0.46106 0.41419 0.0
H423 H 0.27486 0.46079 0.41478 0.0
C424 C 0.18808 0.45023 0.33984 0.0
C425 C 0.18586 0.46368 0.29272 0.0
C426 C 0.20606 0.44969 0.34022 0.0
C427 C 0.22212 0.46245 0.29295 0.0
C428 C 0.21986 0.47585 0.24575 0.0
C429 C 0.20197 0.47651 0.24584 0.0
C430 C 0.26907 0.46226 0.22577 0.0
C431 C 0.27811 0.4619 0.2938 0.0
C432 C 0.25088 0.46238 0.22546 0.0
C433 C 0.24124 0.46193 0.29316 0.0
C434 C 0.25015 0.46127 0.36112 0.0
C435 C 0.2684 0.46133 0.36145 0.0
H436 H 0.7136 0.19681 0.34765 0.0
H437 H 0.73433 0.1853 0.55665 0.0
H438 H 0.74569 0.22837 0.3333 0.0
H439 H 0.76625 0.21729 0.5434 0.0
H440 H 0.80442 0.28999 0.51376 0.0
H441 H 0.77294 0.25781 0.5283 0.0
H442 H 0.78648 0.23551 0.32738 0.0
H443 H 0.81836 0.26752 0.31411 0.0
C444 C 0.725 0.20116 0.39069 0.0
C445 C 0.72157 0.18876 0.45336 0.0
C446 C 0.74331 0.21909 0.38227 0.0
C447 C 0.7583 0.22512 0.43724 0.0
C448 C 0.75483 0.21287 0.50042 0.0
C449 C 0.73668 0.19466 0.50794 0.0
C450 C 0.80061 0.27819 0.47275 0.0
C451 C 0.81367 0.28115 0.41269 0.0
C452 C 0.78274 0.25983 0.48132 0.0
C453 C 0.77744 0.24432 0.42898 0.0
C454 C 0.79034 0.24733 0.36832 0.0
C455 C 0.80849 0.26554 0.36078 0.0
H456 H 0.53379 0.72562 0.47116 0.0
H457 H 0.55283 0.731 0.70227 0.0
H458 H 0.534 0.7572 0.48138 0.0
H459 H 0.55495 0.76356 0.71018 0.0
H460 H 0.53585 0.81037 0.73022 0.0
H461 H 0.5357 0.77887 0.71983 0.0
H462 H 0.55374 0.79194 0.48748 0.0
H463 H 0.55197 0.82263 0.49601 0.0
C464 C 0.53804 0.73348 0.52429 0.0
C465 C 0.54308 0.72546 0.58612 0.0
C466 C 0.53856 0.75192 0.52968 0.0
C467 C 0.54452 0.76314 0.59661 0.0
C468 C 0.54993 0.7553 0.65801 0.0
C469 C 0.54904 0.73667 0.65307 0.0
C470 C 0.53942 0.80643 0.67635 0.0
C471 C 0.54362 0.81907 0.61366 0.0
C472 C 0.53973 0.78842 0.67078 0.0
C473 C 0.5447 0.78266 0.60275 0.0
C474 C 0.54946 0.79557 0.54053 0.0
C475 C 0.54878 0.81344 0.54576 0.0
H476 H 0.71644 0.51742 0.64908 0.0
H477 H 0.72686 0.54118 0.87427 0.0
H478 H 0.7475 0.51567 0.65565 0.0
H479 H 0.75775 0.53938 0.88095 0.0
H480 H 0.80183 0.51493 0.88702 0.0
H481 H 0.76906 0.51317 0.88036 0.0
H482 H 0.78492 0.54233 0.66411 0.0
H483 H 0.81761 0.5441 0.67078 0.0
C484 C 0.72526 0.52205 0.70014 0.0
C485 C 0.71934 0.52954 0.76099 0.0
C486 C 0.74305 0.52117 0.70376 0.0
C487 C 0.75503 0.52742 0.7688 0.0
C488 C 0.74875 0.53433 0.83036 0.0
C489 C 0.73117 0.5355 0.82631 0.0
C490 C 0.79823 0.52085 0.83799 0.0
C491 C 0.81229 0.52977 0.77965 0.0
C492 C 0.77955 0.51992 0.8343 0.0
C493 C 0.77445 0.52758 0.77163 0.0
C494 C 0.78837 0.53614 0.71274 0.0
C495 C 0.80714 0.53734 0.71693 0.0
H496 H 0.28916 0.80056 0.96223 0.0
H497 H 0.25805 0.83139 0.89019 0.0
H498 H 0.25736 0.7689 0.96732 0.0
H499 H 0.22616 0.79951 0.89047 0.0
H500 H 0.16938 0.74113 0.95882 0.0
H501 H 0.20055 0.77366 0.95979 0.0
H502 H 0.23361 0.74422 0.89096 0.0
H503 H 0.20262 0.7118 0.89471 0.0
C504 C 0.27541 0.80045 0.94728 0.0
C505 C 0.27596 0.81831 0.92595 0.0
C506 C 0.25717 0.78228 0.94928 0.0
C507 C 0.23906 0.78142 0.92816 0.0
C508 C 0.23966 0.7995 0.90799 0.0
C509 C 0.25792 0.81778 0.90753 0.0
C510 C 0.18337 0.74177 0.94359 0.0
C511 C 0.1837 0.72405 0.92694 0.0
C512 C 0.20125 0.7604 0.94385 0.0
C513 C 0.2198 0.76171 0.92615 0.0
C514 C 0.21983 0.74389 0.90708 0.0
C515 C 0.20205 0.72528 0.90836 0.0
H516 H 0.50885 0.11798 0.75707 0.0
H517 H 0.44633 0.0972 0.80654 0.0
H518 H 0.50173 0.11641 0.62342 0.0
H519 H 0.4392 0.09561 0.67284 0.0
H520 H 0.43885 0.11647 0.43286 0.0
H521 H 0.44578 0.11746 0.56597 0.0
H522 H 0.48429 0.09242 0.52292 0.0
H523 H 0.47731 0.0914 0.38901 0.0
C524 C 0.49355 0.11294 0.73952 0.0
C525 C 0.47817 0.10771 0.79283 0.0
C526 C 0.48946 0.112 0.66276 0.0
C527 C 0.46988 0.10583 0.6372 0.0
C528 C 0.45451 0.1007 0.69049 0.0
C529 C 0.45861 0.10165 0.76731 0.0
C530 C 0.44858 0.11089 0.45152 0.0
C531 C 0.4574 0.10372 0.39975 0.0
C532 C 0.45258 0.11149 0.52816 0.0
C533 C 0.46554 0.10497 0.55539 0.0
C534 C 0.47442 0.09781 0.50381 0.0
C535 C 0.4704 0.0972 0.42692 0.0
H536 H 0.31851 0.4342 0.64482 0.0
H537 H 0.38247 0.46724 0.601 0.0
H538 H 0.32493 0.44103 0.77806 0.0
H539 H 0.38893 0.47406 0.73474 0.0
H540 H 0.39134 0.49959 0.97012 0.0
H541 H 0.38516 0.49307 0.83618 0.0
H542 H 0.33847 0.43211 0.88414 0.0
H543 H 0.34463 0.43865 0.01783 0.0
C544 C 0.33397 0.44274 0.66355 0.0
C545 C 0.34997 0.45007 0.61187 0.0
C546 C 0.33766 0.44667 0.74017 0.0
C547 C 0.35745 0.45804 0.76736 0.0
C548 C 0.37347 0.46548 0.71572 0.0
C549 C 0.36978 0.46155 0.63894 0.0
C550 C 0.37985 0.48476 0.95208 0.0
C551 C 0.36846 0.46968 1.00497 0.0
C552 C 0.37632 0.481 0.87522 0.0
C553 C 0.3613 0.46206 0.84922 0.0
C554 C 0.34992 0.44698 0.90213 0.0
C555 C 0.35344 0.45074 0.97897 0.0
H556 H 0.90884 0.3865 0.73007 0.0
H557 H 0.88687 0.32346 0.77355 0.0
H558 H 0.90747 0.39222 0.86403 0.0
H559 H 0.8855 0.32915 0.90676 0.0
H560 H 0.90524 0.35055 0.14723 0.0
H561 H 0.90707 0.3452 1.01346 0.0
H562 H 0.88332 0.38453 0.96479 0.0
H563 H 0.88154 0.3899 0.09851 0.0
C564 C 0.90364 0.37385 0.76793 0.0
C565 C 0.8981 0.35454 0.74069 0.0
C566 C 0.90283 0.37711 0.84484 0.0
C567 C 0.89643 0.36115 0.89634 0.0
C568 C 0.89087 0.34187 0.86901 0.0
C569 C 0.89169 0.33862 0.79234 0.0
C570 C 0.9002 0.35788 0.10813 0.0
C571 C 0.89325 0.37067 0.13387 0.0
C572 C 0.90128 0.35485 0.03128 0.0
C573 C 0.89539 0.36448 0.97819 0.0
C574 C 0.88832 0.37716 1.00396 0.0
C575 C 0.88726 0.3802 0.08076 0.0
H576 H 0.57962 0.91933 0.97789 0.0
H577 H 0.5164 0.88012 0.93287 0.0
H578 H 0.57248 0.91798 0.11149 0.0
H579 H 0.50918 0.87819 0.06673 0.0
H580 H 0.50075 0.89546 0.30256 0.0
H581 H 0.50768 0.89675 0.16952 0.0
H582 H 0.56291 0.89675 0.21746 0.0
H583 H 0.5567 0.89683 0.35062 0.0
C584 C 0.56421 0.91026 0.99676 0.0
C585 C 0.54858 0.89985 0.9449 0.0
C586 C 0.56009 0.90939 0.07344 0.0
C587 C 0.54024 0.89789 0.10036 0.0
C588 C 0.52461 0.88747 0.04823 0.0
C589 C 0.52872 0.88853 0.9714 0.0
C590 C 0.51451 0.89597 0.28518 0.0
C591 C 0.52821 0.89623 0.33834 0.0
C592 C 0.51835 0.89642 0.20838 0.0
C593 C 0.5359 0.89692 0.1823 0.0
C594 C 0.5494 0.89674 0.23527 0.0
C595 C 0.54566 0.89649 0.31214 0.0
H596 H 0.64622 0.51957 0.06347 0.0
H597 H 0.65439 0.57855 0.10766 0.0
H598 H 0.64231 0.5122 0.19736 0.0
H599 H 0.65005 0.57112 0.24135 0.0
H600 H 0.65978 0.55932 0.48175 0.0
H601 H 0.66579 0.56638 0.34837 0.0
H602 H 0.61963 0.50532 0.2983 0.0
H603 H 0.61445 0.49795 0.43137 0.0
C604 C 0.64695 0.53087 0.10179 0.0
C605 C 0.65061 0.54964 0.07496 0.0
C606 C 0.6447 0.52667 0.17861 0.0
C607 C 0.64589 0.54107 0.23047 0.0
C608 C 0.64945 0.55981 0.20339 0.0
C609 C 0.65186 0.56406 0.12664 0.0
C610 C 0.65115 0.54728 0.4425 0.0
C611 C 0.63655 0.52806 0.4678 0.0
C612 C 0.6544 0.55142 0.36574 0.0
C613 C 0.64309 0.53648 0.31226 0.0
C614 C 0.62877 0.51717 0.33763 0.0
C615 C 0.62561 0.51301 0.41425 0.0
H616 H 0.09848 0.61856 0.25081 0.0
H617 H 0.11092 0.679 0.29928 0.0
H618 H 0.1 0.61272 0.38359 0.0
H619 H 0.11117 0.67267 0.4321 0.0
H620 H 0.12965 0.66199 0.66266 0.0
H621 H 0.12992 0.66839 0.52845 0.0
H622 H 0.08156 0.60721 0.49588 0.0
H623 H 0.08175 0.60083 0.62933 0.0
C624 C 0.10152 0.63064 0.2893 0.0
C625 C 0.10454 0.64929 0.26326 0.0
C626 C 0.10214 0.62718 0.36599 0.0
C627 C 0.10562 0.64218 0.41901 0.0
C628 C 0.1087 0.66082 0.39309 0.0
C629 C 0.10825 0.66435 0.31643 0.0
C630 C 0.11907 0.64998 0.62666 0.0
C631 C 0.10576 0.6309 0.65652 0.0
C632 C 0.11916 0.65362 0.54973 0.0
C633 C 0.10578 0.63831 0.50093 0.0
C634 C 0.09238 0.61926 0.5312 0.0
C635 C 0.09244 0.61559 0.60789 0.0
H636 H 0.91494 0.51278 0.08511 0.0
H637 H 0.8742 0.53556 0.05176 0.0
H638 H 0.91626 0.51982 0.21851 0.0
H639 H 0.87513 0.5423 0.18604 0.0
H640 H 0.89783 0.57078 0.41556 0.0
H641 H 0.89659 0.56391 0.28246 0.0
H642 H 0.89671 0.50873 0.33013 0.0
H643 H 0.89915 0.51614 0.4632 0.0
C644 C 0.90605 0.51907 0.10651 0.0
C645 C 0.89438 0.52352 0.05793 0.0
C646 C 0.90677 0.52308 0.18315 0.0
C647 C 0.89572 0.53153 0.21339 0.0
C648 C 0.88406 0.53604 0.16466 0.0
C649 C 0.88348 0.53216 0.08773 0.0
C650 C 0.8979 0.55731 0.39807 0.0
C651 C 0.89878 0.54415 0.45101 0.0
C652 C 0.89687 0.55321 0.32135 0.0
C653 C 0.89653 0.53575 0.29526 0.0
C654 C 0.89722 0.52248 0.34803 0.0
C655 C 0.89839 0.52664 0.4248 0.0
H656 H 0.31855 0.88338 0.55442 0.0
H657 H 0.38247 0.91203 0.5964 0.0
H658 H 0.32455 0.88239 0.421 0.0
H659 H 0.38853 0.91116 0.46253 0.0
H660 H 0.38998 0.88808 0.22708 0.0
H661 H 0.38384 0.88827 0.36111 0.0
H662 H 0.33847 0.9045 0.31465 0.0
H663 H 0.34456 0.90418 0.1808 0.0
C664 C 0.33392 0.88966 0.53518 0.0
C665 C 0.35004 0.89788 0.58631 0.0
C666 C 0.33737 0.88909 0.4585 0.0
C667 C 0.35703 0.89677 0.43079 0.0
C668 C 0.37316 0.90487 0.48196 0.0
C669 C 0.3697 0.90539 0.55879 0.0
C670 C 0.37877 0.89178 0.24549 0.0
C671 C 0.36776 0.89609 0.19303 0.0
C672 C 0.37526 0.89193 0.3224 0.0
C673 C 0.36067 0.89643 0.34885 0.0
C674 C 0.3496 0.90065 0.29632 0.0
C675 C 0.35307 0.90045 0.21941 0.0
H676 H 0.44054 0.34581 0.37875 0.0
H677 H 0.50271 0.38879 0.42794 0.0
H678 H 0.43353 0.33987 0.51247 0.0
H679 H 0.49573 0.38284 0.5616 0.0
H680 H 0.47107 0.38245 0.79639 0.0
H681 H 0.4779 0.38862 0.66254 0.0
H682 H 0.44063 0.32494 0.61905 0.0
H683 H 0.43383 0.31878 0.75231 0.0
C684 C 0.45277 0.35383 0.41794 0.0
C685 C 0.4722 0.36779 0.39235 0.0
C686 C 0.44875 0.35045 0.49476 0.0
C687 C 0.46405 0.36092 0.54799 0.0
C688 C 0.48349 0.37478 0.52234 0.0
C689 C 0.48751 0.37817 0.44558 0.0
C690 C 0.46441 0.36975 0.75844 0.0
C691 C 0.4518 0.35012 0.78555 0.0
C692 C 0.46834 0.37328 0.68155 0.0
C693 C 0.45978 0.35727 0.62983 0.0
C694 C 0.44719 0.33767 0.65698 0.0
C695 C 0.44327 0.33414 0.73368 0.0
H696 H 0.11697 0.45451 0.54262 0.0
H697 H 0.09344 0.49452 0.58193 0.0
H698 H 0.1147 0.44724 0.67645 0.0
H699 H 0.09146 0.48743 0.71537 0.0
H700 H 0.11269 0.4865 0.95743 0.0
H701 H 0.11369 0.49348 0.82366 0.0
H702 H 0.08919 0.43029 0.77525 0.0
H703 H 0.08796 0.42325 0.90875 0.0
C704 C 0.11119 0.46167 0.5794 0.0
C705 C 0.10547 0.47518 0.55084 0.0
C706 C 0.1099 0.4575 0.6563 0.0
C707 C 0.10292 0.46679 0.70672 0.0
C708 C 0.09718 0.48026 0.6783 0.0
C709 C 0.09838 0.48435 0.60147 0.0
C710 C 0.10721 0.47403 0.91851 0.0
C711 C 0.10033 0.4543 0.9443 0.0
C712 C 0.10785 0.47805 0.84165 0.0
C713 C 0.10167 0.46246 0.78863 0.0
C714 C 0.09443 0.44271 0.81444 0.0
C715 C 0.09371 0.43867 0.89119 0.0
H716 H 0.66357 0.11951 0.72406 0.0
H717 H 0.59966 0.09329 0.76324 0.0
H718 H 0.66876 0.11742 0.85788 0.0
H719 H 0.60496 0.09155 0.89654 0.0
H720 H 0.62661 0.11339 0.13864 0.0
H721 H 0.6206 0.11427 1.00483 0.0
H722 H 0.66095 0.09175 0.95634 0.0
H723 H 0.66675 0.09056 0.08991 0.0
C724 C 0.6506 0.1132 0.76077 0.0
C725 C 0.6312 0.10667 0.73217 0.0
C726 C 0.65359 0.11201 0.83765 0.0
C727 C 0.63727 0.10436 0.88797 0.0
C728 C 0.6179 0.09781 0.85952 0.0
C729 C 0.61489 0.09888 0.78274 0.0
C730 C 0.63396 0.1083 0.0997 0.0
C731 C 0.64723 0.10196 0.1255 0.0
C732 C 0.63056 0.10888 0.02283 0.0
C733 C 0.64042 0.10322 0.96982 0.0
C734 C 0.65341 0.09656 0.99559 0.0
C735 C 0.65672 0.09588 0.07235 0.0
H736 H 0.52969 0.62184 0.25974 0.0
H737 H 0.57236 0.68423 0.21027 0.0
H738 H 0.52269 0.61524 0.127 0.0
H739 H 0.56623 0.67727 0.07755 0.0
H740 H 0.53691 0.66319 0.84702 0.0
H741 H 0.54233 0.67 0.98119 0.0
H742 H 0.53721 0.61178 0.01483 0.0
H743 H 0.53133 0.6049 0.88127 0.0
C744 C 0.53763 0.6342 0.22105 0.0
C745 C 0.55168 0.65361 0.24679 0.0
C746 C 0.53377 0.63032 0.14439 0.0
C747 C 0.54394 0.64568 0.09112 0.0
C748 C 0.5579 0.66509 0.11675 0.0
C749 C 0.56165 0.66902 0.19336 0.0
C750 C 0.53702 0.65191 0.8832 0.0
C751 C 0.53363 0.6335 0.85356 0.0
C752 C 0.54017 0.65581 0.96015 0.0
C753 C 0.54021 0.64144 1.00924 0.0
C754 C 0.53689 0.62305 0.97925 0.0
C755 C 0.53356 0.6191 0.9025 0.0
H756 H 0.5283 0.15418 0.31058 0.0
H757 H 0.53206 0.12749 0.10222 0.0
H758 H 0.56128 0.1592 0.34716 0.0
H759 H 0.56463 0.1322 0.13897 0.0
H760 H 0.62802 0.15132 0.20496 0.0
H761 H 0.60015 0.15631 0.1669 0.0
H762 H 0.57238 0.13534 0.38386 0.0
H763 H 0.60022 0.13071 0.42199 0.0
C764 C 0.53628 0.14967 0.27217 0.0
C765 C 0.52746 0.1402 0.20396 0.0
C766 C 0.5551 0.15245 0.29322 0.0
C767 C 0.56553 0.14601 0.24611 0.0
C768 C 0.55713 0.13752 0.17626 0.0
C769 C 0.53832 0.13462 0.15555 0.0
C770 C 0.61615 0.14818 0.24489 0.0
C771 C 0.61618 0.14039 0.31611 0.0
C772 C 0.60015 0.15092 0.22301 0.0
C773 C 0.58399 0.14611 0.27223 0.0
C774 C 0.58465 0.13938 0.34481 0.0
C775 C 0.60052 0.13651 0.36639 0.0
H776 H 0.3959 0.5421 0.26295 0.0
H777 H 0.39336 0.51037 0.46647 0.0
H778 H 0.42381 0.57301 0.31479 0.0
H779 H 0.42115 0.54128 0.51819 0.0
H780 H 0.46149 0.60455 0.61 0.0
H781 H 0.43037 0.57681 0.55889 0.0
H782 H 0.46008 0.58283 0.3469 0.0
H783 H 0.49123 0.61047 0.39785 0.0
C784 C 0.40107 0.5418 0.31916 0.0
C785 C 0.3925 0.52378 0.36051 0.0
C786 C 0.41711 0.55946 0.34857 0.0
C787 C 0.42467 0.55951 0.42035 0.0
C788 C 0.41553 0.54171 0.46293 0.0
C789 C 0.3997 0.52399 0.43313 0.0
C790 C 0.46131 0.60016 0.55215 0.0
C791 C 0.47885 0.60963 0.50806 0.0
C792 C 0.44352 0.58421 0.5231 0.0
C793 C 0.44285 0.57764 0.44908 0.0
C794 C 0.46013 0.58768 0.40398 0.0
C795 C 0.47799 0.60343 0.43331 0.0
H796 H 0.84712 0.37311 0.65373 0.0
H797 H 0.87004 0.40209 0.44 0.0
H798 H 0.84144 0.40065 0.69084 0.0
H799 H 0.86459 0.42952 0.47709 0.0
H800 H 0.84532 0.47341 0.54845 0.0
H801 H 0.83995 0.44025 0.51168 0.0
H802 H 0.86599 0.43625 0.72111 0.0
H803 H 0.87114 0.46904 0.75773 0.0
C804 C 0.85059 0.38514 0.61423 0.0
C805 C 0.85928 0.38559 0.54441 0.0
C806 C 0.84742 0.40093 0.63553 0.0
C807 C 0.85267 0.41731 0.58702 0.0
C808 C 0.86021 0.41707 0.5155 0.0
C809 C 0.86355 0.40144 0.49458 0.0
C810 C 0.84948 0.46521 0.5871 0.0
C811 C 0.85889 0.4739 0.65547 0.0
C812 C 0.84651 0.4463 0.56598 0.0
C813 C 0.85264 0.43568 0.61338 0.0
C814 C 0.86092 0.44392 0.68361 0.0
C815 C 0.86408 0.46283 0.70425 0.0
H816 H 0.39326 0.85006 0.94203 0.0
H817 H 0.38853 0.87569 0.73262 0.0
H818 H 0.42044 0.84591 0.88934 0.0
H819 H 0.41557 0.87148 0.6802 0.0
H820 H 0.45699 0.85026 0.59105 0.0
H821 H 0.42553 0.84563 0.64403 0.0
H822 H 0.45606 0.87215 0.85214 0.0
H823 H 0.48747 0.87683 0.79943 0.0
C824 C 0.39773 0.85443 0.88435 0.0
C825 C 0.38887 0.86334 0.84162 0.0
C826 C 0.41335 0.85215 0.8544 0.0
C827 C 0.42016 0.85845 0.78084 0.0
C828 C 0.41053 0.86634 0.73685 0.0
C829 C 0.39513 0.86886 0.76706 0.0
C830 C 0.4569 0.85476 0.64856 0.0
C831 C 0.47474 0.86407 0.69088 0.0
C832 C 0.43892 0.85219 0.67868 0.0
C833 C 0.43838 0.85861 0.75203 0.0
C834 C 0.45598 0.86691 0.79566 0.0
C835 C 0.474 0.86972 0.76527 0.0
H836 H 0.51611 0.41186 0.0376 0.0
H837 H 0.53277 0.37297 0.92022 0.0
H838 H 0.5478 0.44101 1.00169 0.0
H839 H 0.56493 0.40264 0.88432 0.0
H840 H 0.62832 0.46524 0.91595 0.0
H841 H 0.59824 0.43346 0.95244 0.0
H842 H 0.56037 0.45583 0.86831 0.0
H843 H 0.5899 0.48712 0.83172 0.0
C844 C 0.52659 0.40946 1.00461 0.0
C845 C 0.52181 0.39003 0.98141 0.0
C846 C 0.54475 0.42622 0.98393 0.0
C847 C 0.55872 0.42406 0.94 0.0
C848 C 0.55439 0.40465 0.91852 0.0
C849 C 0.53597 0.38774 0.93864 0.0
C850 C 0.61356 0.46329 0.90507 0.0
C851 C 0.61155 0.47879 0.8714 0.0
C852 C 0.59641 0.4451 0.92549 0.0
C853 C 0.57706 0.44232 0.91351 0.0
C854 C 0.57512 0.45767 0.87878 0.0
C855 C 0.5921 0.4756 0.85771 0.0
H856 H 0.13733 0.53207 0.24437 0.0
H857 H 0.14531 0.5189 0.01583 0.0
H858 H 0.14168 0.56441 0.20528 0.0
H859 H 0.14874 0.55094 0.97554 0.0
H860 H 0.11658 0.60106 0.09545 0.0
H861 H 0.12082 0.57378 0.14182 0.0
H862 H 0.16645 0.58699 0.97378 0.0
H863 H 0.16162 0.61408 0.92525 0.0
C864 C 0.14018 0.53621 0.18572 0.0
C865 C 0.14077 0.52293 0.13295 0.0
C866 C 0.14254 0.55469 0.16315 0.0
C867 C 0.14513 0.56016 0.08697 0.0
C868 C 0.14691 0.54733 0.03473 0.0
C869 C 0.14489 0.52893 0.05766 0.0
C870 C 0.12771 0.59838 0.06876 0.0
C871 C 0.13866 0.60972 1.00626 0.0
C872 C 0.13028 0.58275 0.09583 0.0
C873 C 0.14401 0.5781 0.06167 0.0
C874 C 0.15555 0.58995 1.00084 0.0
C875 C 0.15289 0.60558 0.97337 0.0
H876 H 0.45236 0.04329 0.10158 0.0
H877 H 0.40868 0.05721 1.00882 0.0
H878 H 0.43209 0.00862 0.05986 0.0
H879 H 0.38818 0.02207 0.96712 0.0
H880 H 0.352 0.94914 0.97905 0.0
H881 H 0.36853 0.98433 0.02209 0.0
H882 H 0.42452 0.99475 0.92508 0.0
H883 H 0.40827 0.96009 0.88202 0.0
C884 C 0.43831 0.03891 0.07297 0.0
C885 C 0.43223 0.05306 0.0579 0.0
C886 C 0.42674 0.01904 0.04885 0.0
C887 C 0.40871 0.01275 1.00948 0.0
C888 C 0.40203 0.02657 0.9974 0.0
C889 C 0.41377 0.04664 0.02108 0.0
C890 C 0.36776 0.95907 0.96613 0.0
C891 C 0.37886 0.95179 0.92766 0.0
C892 C 0.37718 0.97916 0.99065 0.0
C893 C 0.39785 0.99212 0.97775 0.0
C894 C 0.40865 0.98499 0.93682 0.0
C895 C 0.39927 0.96512 0.9119 0.0
H896 H 0.42993 0.39182 0.03873 0.0
H897 H 0.41267 0.35265 0.2316 0.0
H898 H 0.40831 0.40488 0.08178 0.0
H899 H 0.39153 0.36629 0.27596 0.0
H900 H 0.39311 0.4284 0.3562 0.0
H901 H 0.40652 0.40713 0.31259 0.0
H902 H 0.36744 0.38969 0.11972 0.0
H903 H 0.35344 0.41046 0.16474 0.0
C904 C 0.42125 0.3858 0.08967 0.0
C905 C 0.4229 0.37123 0.13186 0.0
C906 C 0.40885 0.3932 0.11405 0.0
C907 C 0.3983 0.38652 0.18197 0.0
C908 C 0.39948 0.37155 0.2232 0.0
C909 C 0.41148 0.36374 0.19774 0.0
C910 C 0.38707 0.41966 0.3054 0.0
C911 C 0.37224 0.42099 0.26384 0.0
C912 C 0.39467 0.40747 0.2807 0.0
C913 C 0.38794 0.3968 0.21304 0.0
C914 C 0.37275 0.39772 0.17229 0.0
C915 C 0.36473 0.40951 0.19812 0.0
H916 H 0.04345 0.45286 0.23707 0.0
H917 H 0.05362 0.40694 0.33296 0.0
H918 H 0.00835 0.43399 0.27501 0.0
H919 H 0.01807 0.38788 0.37104 0.0
H920 H 0.95745 0.41126 0.44281 0.0
H921 H 0.99248 0.42658 0.40461 0.0
H922 H 0.98138 0.36975 0.31361 0.0
H923 H 0.94591 0.35418 0.35195 0.0
C924 C 0.03817 0.43863 0.26571 0.0
C925 C 0.05138 0.43148 0.28255 0.0
C926 C 0.01805 0.42787 0.28773 0.0
C927 C 0.01056 0.40962 0.3268 0.0
C928 C 0.02348 0.40193 0.34094 0.0
C929 C 0.04379 0.41284 0.31932 0.0
C930 C 0.96242 0.40191 0.41519 0.0
C931 C 0.94885 0.38153 0.39986 0.0
C932 C 0.98249 0.41074 0.39302 0.0
C933 C 0.98957 0.39942 0.35532 0.0
C934 C 0.97628 0.37881 0.34263 0.0
C935 C 0.95602 0.36994 0.36438 0.0
H936 H 0.5523 0.96096 0.64365 0.0
H937 H 0.59771 0.94923 0.55271 0.0
H938 H 0.57116 0.9955 0.59935 0.0
H939 H 0.6168 0.98426 0.50836 0.0
H940 H 0.65029 0.05707 0.51836 0.0
H941 H 0.63504 0.02198 0.56128 0.0
H942 H 0.57825 0.00922 0.4649 0.0
H943 H 0.59326 0.04385 0.42202 0.0
C944 C 0.56643 0.9658 0.61483 0.0
C945 C 0.57343 0.9523 0.60119 0.0
C946 C 0.57719 0.98558 0.58916 0.0
C947 C 0.59529 0.99245 0.5496 0.0
C948 C 0.60286 0.9793 0.53873 0.0
C949 C 0.59194 0.9593 0.56398 0.0
C950 C 0.63463 0.04666 0.50554 0.0
C951 C 0.62293 0.05327 0.4674 0.0
C952 C 0.62595 0.02662 0.52995 0.0
C953 C 0.60542 0.01302 0.51724 0.0
C954 C 0.59403 0.01948 0.47648 0.0
C955 C 0.60268 0.03932 0.45168 0.0
H956 H 0.59439 0.64953 0.68108 0.0
H957 H 0.5728 0.60794 0.49497 0.0
H958 H 0.61471 0.63489 0.72382 0.0
H959 H 0.59366 0.59383 0.53642 0.0
H960 H 0.64867 0.58704 0.61693 0.0
H961 H 0.63549 0.60839 0.5701 0.0
H962 H 0.59724 0.5934 0.76486 0.0
H963 H 0.60978 0.57156 0.81021 0.0
C964 C 0.59445 0.63767 0.6482 0.0
C965 C 0.58204 0.62981 0.58485 0.0
C966 C 0.60601 0.62931 0.67274 0.0
C967 C 0.60574 0.61336 0.63305 0.0
C968 C 0.59422 0.60627 0.56738 0.0
C969 C 0.58227 0.61427 0.54396 0.0
C970 C 0.63771 0.58863 0.65018 0.0
C971 C 0.63018 0.57771 0.71703 0.0
C972 C 0.63017 0.60074 0.62336 0.0
C973 C 0.61549 0.60253 0.66427 0.0
C974 C 0.6087 0.59236 0.73283 0.0
C975 C 0.6158 0.57985 0.75851 0.0
H976 H 0.04235 0.59141 0.96921 0.0
H977 H 0.05369 0.64766 0.87099 0.0
H978 H 0.00752 0.57547 0.9285 0.0
H979 H 0.01836 0.63145 0.83015 0.0
H980 H 0.94573 0.59267 0.84431 0.0
H981 H 0.98096 0.61267 0.88556 0.0
H982 H 0.993 0.56745 0.79578 0.0
H983 H 0.95825 0.54768 0.75468 0.0
C984 C 0.03737 0.60046 0.93951 0.0
C985 C 0.05085 0.62078 0.92273 0.0
C986 C 0.0174 0.59127 0.91595 0.0
C987 C 0.01033 0.60216 0.87533 0.0
C988 C 0.02347 0.62274 0.86141 0.0
C989 C 0.04365 0.63197 0.88463 0.0
C990 C 0.956 0.58717 0.83276 0.0
C991 C 0.94917 0.56852 0.79683 0.0
C992 C 0.97612 0.59862 0.85615 0.0
C993 C 0.98958 0.59145 0.84467 0.0
C994 C 0.98286 0.57318 0.80641 0.0
C995 C 0.96295 0.5619 0.78261 0.0
loop_
_geom_bond_atom_site_label_1
_geom_bond_atom_site_label_2
_geom_bond_distance
_geom_bond_site_symmetry_2
_ccdc_geom_bond_type
Co0 N4 2.148 . S
Co0 N10 2.128 . S
Co0 N20 2.194 . S
Co0 O25 2.351 . S
Co0 O26 2.155 . S
Co0 O27 2.096 . S
C1 N4 1.301 1_556 S
C1 N5 1.328 . S
C1 H6 0.930 . S
C2 C3 1.333 . S
C2 N4 1.317 1_556 S
C2 H7 0.930 1_556 S
C3 C2 1.333 . S
C3 N5 1.350 . S
C3 H29 0.931 . S
N4 Co0 2.148 . S
N4 C1 1.301 1_554 S
N4 C2 1.317 1_554 S
N5 C1 1.328 . S
N5 C3 1.350 . S
H6 C1 0.930 . S
H7 C2 0.930 1_554 S
C8 O9 1.224 . S
C8 O27 1.247 . S
O9 C8 1.224 . S
N10 Co0 2.128 . S
N10 C11 1.355 . S
N10 C13 1.311 . S
C11 N10 1.355 . S
C11 C12 1.363 . S
C11 H23 0.929 . S
C12 C11 1.363 . S
C12 N14 1.375 . S
C12 H30 0.931 . S
C13 N10 1.311 . S
C13 N14 1.347 . S
C13 H24 0.929 . S
N14 C12 1.375 . S
N14 C13 1.347 . S
C15 C18 1.365 . S
C15 N20 1.328 . S
C15 H21 0.929 . S
C16 C17 1.362 . S
C16 C19 1.378 . S
C16 H31 0.929 . S
C17 C16 1.362 . S
C17 C18 1.366 . S
C18 C15 1.365 . S
C18 C17 1.366 . S
C18 H32 0.930 . S
C19 C16 1.378 . S
C19 N20 1.315 . S
C19 H22 0.930 . S
N20 Co0 2.194 . S
N20 C15 1.328 . S
N20 C19 1.315 . S
H21 C15 0.929 . S
H22 C19 0.930 . S
H23 C11 0.929 . S
H24 C13 0.929 . S
O25 Co0 2.351 . S
O25 C28 1.244 . S
O26 Co0 2.155 . S
O26 C28 1.240 . S
O27 Co0 2.096 . S
O27 C8 1.247 . S
C28 O25 1.244 . S
C28 O26 1.240 . S
H29 C3 0.931 . S
H30 C12 0.931 . S
H31 C16 0.929 . S
H32 C18 0.930 . S
Co33 N37 2.148 . S
Co33 N43 2.128 . S
Co33 N53 2.194 . S
Co33 O58 2.351 . S
Co33 O59 2.155 . S
Co33 O60 2.096 . S
C34 N37 1.301 . S
C34 N38 1.328 . S
C34 H39 0.930 . S
C35 C36 1.333 . S
C35 N37 1.317 . S
C35 H40 0.930 . S
C36 C35 1.333 . S
C36 N38 1.350 . S
C36 H62 0.931 . S
N37 Co33 2.148 . S
N37 C34 1.301 . S
N37 C35 1.317 . S
N38 C34 1.328 . S
N38 C36 1.350 . S
H39 C34 0.930 . S
H40 C35 0.930 . S
C41 O42 1.224 . S
C41 O60 1.247 . S
O42 C41 1.224 . S
N43 Co33 2.128 . S
N43 C44 1.355 . S
N43 C46 1.311 . S
C44 N43 1.355 . S
C44 C45 1.363 . S
C44 H56 0.929 . S
C45 C44 1.363 . S
C45 N47 1.375 . S
C45 H63 0.931 . S
C46 N43 1.311 . S
C46 N47 1.347 . S
C46 H57 0.929 . S
N47 C45 1.375 . S
N47 C46 1.347 . S
C48 C51 1.365 . S
C48 N53 1.328 . S
C48 H54 0.929 . S
C49 C50 1.362 . S
C49 C52 1.378 . S
C49 H64 0.929 . S
C50 C49 1.362 . S
C50 C51 1.366 . S
C51 C48 1.365 . S
C51 C50 1.366 . S
C51 H65 0.930 . S
C52 C49 1.378 . S
C52 N53 1.315 . S
C52 H55 0.930 . S
N53 Co33 2.194 . S
N53 C48 1.328 . S
N53 C52 1.315 . S
H54 C48 0.929 . S
H55 C52 0.930 . S
H56 C44 0.929 . S
H57 C46 0.929 . S
O58 Co33 2.351 . S
O58 C61 1.244 . S
O59 Co33 2.155 . S
O59 C61 1.240 . S
O60 Co33 2.096 . S
O60 C41 1.247 . S
C61 O58 1.244 . S
C61 O59 1.240 . S
H62 C36 0.931 . S
H63 C45 0.931 . S
H64 C49 0.929 . S
H65 C51 0.930 . S
Co66 N70 2.148 . S
Co66 N76 2.128 . S
Co66 N86 2.194 . S
Co66 O91 2.351 . S
Co66 O92 2.155 . S
Co66 O93 2.096 . S
C67 N70 1.301 . S
C67 N71 1.328 . S
C67 H72 0.930 . S
C68 C69 1.333 . S
C68 N70 1.317 . S
C68 H73 0.930 . S
C69 C68 1.333 . S
C69 N71 1.350 . S
C69 H95 0.931 . S
N70 Co66 2.148 . S
N70 C67 1.301 . S
N70 C68 1.317 . S
N71 C67 1.328 . S
N71 C69 1.350 . S
H72 C67 0.930 . S
H73 C68 0.930 . S
C74 O75 1.224 . S
C74 O93 1.247 . S
O75 C74 1.224 . S
N76 Co66 2.128 . S
N76 C77 1.355 . S
N76 C79 1.311 . S
C77 N76 1.355 . S
C77 C78 1.363 . S
C77 H89 0.929 . S
C78 C77 1.363 . S
C78 N80 1.375 . S
C78 H96 0.931 . S
C79 N76 1.311 . S
C79 N80 1.347 . S
C79 H90 0.929 . S
N80 C78 1.375 . S
N80 C79 1.347 . S
C81 C84 1.365 . S
C81 N86 1.328 . S
C81 H87 0.929 . S
C82 C83 1.362 . S
C82 C85 1.378 . S
C82 H97 0.929 . S
C83 C82 1.362 . S
C83 C84 1.366 . S
C84 C81 1.365 . S
C84 C83 1.366 . S
C84 H98 0.930 . S
C85 C82 1.378 . S
C85 N86 1.315 . S
C85 H88 0.930 . S
N86 Co66 2.194 . S
N86 C81 1.328 . S
N86 C85 1.315 . S
H87 C81 0.929 . S
H88 C85 0.930 . S
H89 C77 0.929 . S
H90 C79 0.929 . S
O91 Co66 2.351 . S
O91 C94 1.244 . S
O92 Co66 2.155 . S
O92 C94 1.240 . S
O93 Co66 2.096 . S
O93 C74 1.247 . S
C94 O91 1.244 . S
C94 O92 1.240 . S
H95 C69 0.931 . S
H96 C78 0.931 . S
H97 C82 0.929 . S
H98 C84 0.930 . S
Co99 N103 2.148 . S
Co99 N109 2.128 . S
Co99 N119 2.194 . S
Co99 O124 2.351 . S
Co99 O125 2.155 . S
Co99 O126 2.096 . S
C100 N103 1.301 . S
C100 N104 1.328 . S
C100 H105 0.930 . S
C101 C102 1.333 . S
C101 N103 1.317 . S
C101 H106 0.930 . S
C102 C101 1.333 . S
C102 N104 1.350 . S
C102 H128 0.931 . S
N103 Co99 2.148 . S
N103 C100 1.301 . S
N103 C101 1.317 . S
N104 C100 1.328 . S
N104 C102 1.350 . S
H105 C100 0.930 . S
H106 C101 0.930 . S
C107 O108 1.224 . S
C107 O126 1.247 . S
O108 C107 1.224 . S
N109 Co99 2.128 . S
N109 C110 1.355 . S
N109 C112 1.311 . S
C110 N109 1.355 . S
C110 C111 1.363 . S
C110 H122 0.929 . S
C111 C110 1.363 . S
C111 N113 1.375 . S
C111 H129 0.931 . S
C112 N109 1.311 . S
C112 N113 1.347 . S
C112 H123 0.929 . S
N113 C111 1.375 . S
N113 C112 1.347 . S
C114 C117 1.365 . S
C114 N119 1.328 . S
C114 H120 0.929 . S
C115 C116 1.362 . S
C115 C118 1.378 . S
C115 H130 0.929 . S
C116 C115 1.362 . S
C116 C117 1.366 . S
C117 C114 1.365 . S
C117 C116 1.366 . S
C117 H131 0.930 . S
C118 C115 1.378 . S
C118 N119 1.315 . S
C118 H121 0.930 . S
N119 Co99 2.194 . S
N119 C114 1.328 . S
N119 C118 1.315 . S
H120 C114 0.929 . S
H121 C118 0.930 . S
H122 C110 0.929 . S
H123 C112 0.929 . S
O124 Co99 2.351 . S
O124 C127 1.244 . S
O125 Co99 2.155 . S
O125 C127 1.240 . S
O126 Co99 2.096 . S
O126 C107 1.247 . S
C127 O124 1.244 . S
C127 O125 1.240 . S
H128 C102 0.931 . S
H129 C111 0.931 . S
H130 C115 0.929 . S
H131 C117 0.930 . S
Co132 N136 2.148 . S
Co132 N142 2.128 . S
Co132 N152 2.194 . S
Co132 O157 2.351 . S
Co132 O158 2.155 . S
Co132 O159 2.096 . S
C133 N136 1.301 . S
C133 N137 1.328 . S
C133 H138 0.930 . S
C134 C135 1.333 . S
C134 N136 1.317 . S
C134 H139 0.930 . S
C135 C134 1.333 . S
C135 N137 1.350 . S
C135 H161 0.931 . S
N136 Co132 2.148 . S
N136 C133 1.301 . S
N136 C134 1.317 . S
N137 C133 1.328 . S
N137 C135 1.350 . S
H138 C133 0.930 . S
H139 C134 0.930 . S
C140 O141 1.224 . S
C140 O159 1.247 . S
O141 C140 1.224 . S
N142 Co132 2.128 . S
N142 C143 1.355 . S
N142 C145 1.311 . S
C143 N142 1.355 . S
C143 C144 1.363 . S
C143 H155 0.929 . S
C144 C143 1.363 . S
C144 N146 1.375 1_556 S
C144 H162 0.931 1_556 S
C145 N142 1.311 . S
C145 N146 1.347 1_556 S
C145 H156 0.929 . S
N146 C144 1.375 1_554 S
N146 C145 1.347 1_554 S
C147 C150 1.365 . S
C147 N152 1.328 . S
C147 H153 0.929 . S
C148 C149 1.362 . S
C148 C151 1.378 . S
C148 H163 0.929 . S
C149 C148 1.362 . S
C149 C150 1.366 . S
C150 C147 1.365 . S
C150 C149 1.366 . S
C150 H164 0.930 . S
C151 C148 1.378 . S
C151 N152 1.315 . S
C151 H154 0.930 . S
N152 Co132 2.194 . S
N152 C147 1.328 . S
N152 C151 1.315 . S
H153 C147 0.929 . S
H154 C151 0.930 . S
H155 C143 0.929 . S
H156 C145 0.929 . S
O157 Co132 2.351 . S
O157 C160 1.244 . S
O158 Co132 2.155 . S
O158 C160 1.240 . S
O159 Co132 2.096 . S
O159 C140 1.247 . S
C160 O157 1.244 . S
C160 O158 1.240 . S
H161 C135 0.931 . S
H162 C144 0.931 1_554 S
H163 C148 0.929 . S
H164 C150 0.930 . S
Co165 N169 2.148 . S
Co165 N175 2.128 1_556 S
Co165 N185 2.194 . S
Co165 O190 2.351 . S
Co165 O191 2.155 . S
Co165 O192 2.096 . S
C166 N169 1.301 . S
C166 N170 1.328 . S
C166 H171 0.930 . S
C167 C168 1.333 . S
C167 N169 1.317 . S
C167 H172 0.930 . S
C168 C167 1.333 . S
C168 N170 1.350 . S
C168 H194 0.931 . S
N169 Co165 2.148 . S
N169 C166 1.301 . S
N169 C167 1.317 . S
N170 C166 1.328 . S
N170 C168 1.350 . S
H171 C166 0.930 . S
H172 C167 0.930 . S
C173 O174 1.225 . S
C173 O192 1.250 . S
O174 C173 1.225 . S
N175 Co165 2.128 1_554 S
N175 C176 1.355 . S
N175 C178 1.311 . S
C176 N175 1.355 . S
C176 C177 1.363 . S
C176 H188 0.929 . S
C177 C176 1.363 . S
C177 N179 1.375 . S
C177 H195 0.931 . S
C178 N175 1.311 . S
C178 N179 1.347 . S
C178 H189 0.929 . S
N179 C177 1.375 . S
N179 C178 1.347 . S
C180 C183 1.365 . S
C180 N185 1.328 . S
C180 H186 0.929 . S
C181 C182 1.362 . S
C181 C184 1.378 . S
C181 H196 0.929 . S
C182 C181 1.362 . S
C182 C183 1.366 . S
C183 C180 1.365 . S
C183 C182 1.366 . S
C183 H197 0.930 . S
C184 C181 1.378 . S
C184 N185 1.315 . S
C184 H187 0.930 . S
N185 Co165 2.194 . S
N185 C180 1.328 . S
N185 C184 1.315 . S
H186 C180 0.929 . S
H187 C184 0.930 . S
H188 C176 0.929 . S
H189 C178 0.929 . S
O190 Co165 2.351 . S
O190 C193 1.244 . S
O191 Co165 2.155 . S
O191 C193 1.240 . S
O192 Co165 2.096 . S
O192 C173 1.250 . S
C193 O190 1.244 . S
C193 O191 1.240 . S
H194 C168 0.931 . S
H195 C177 0.931 . S
H196 C181 0.929 . S
H197 C183 0.930 . S
Co198 N202 2.148 . S
Co198 N208 2.128 . S
Co198 N218 2.194 . S
Co198 O223 2.351 . S
Co198 O224 2.155 . S
Co198 O225 2.096 . S
C199 N202 1.301 . S
C199 N203 1.328 . S
C199 H204 0.930 . S
C200 C201 1.333 . S
C200 N202 1.317 . S
C200 H205 0.930 . S
C201 C200 1.333 . S
C201 N203 1.350 . S
C201 H227 0.931 . S
N202 Co198 2.148 . S
N202 C199 1.301 . S
N202 C200 1.317 . S
N203 C199 1.328 . S
N203 C201 1.350 . S
H204 C199 0.930 . S
H205 C200 0.930 . S
C206 O207 1.224 . S
C206 O225 1.247 . S
O207 C206 1.224 . S
N208 Co198 2.128 . S
N208 C209 1.355 . S
N208 C211 1.311 . S
C209 N208 1.355 . S
C209 C210 1.363 . S
C209 H221 0.929 . S
C210 C209 1.363 . S
C210 N212 1.375 . S
C210 H228 0.931 . S
C211 N208 1.311 . S
C211 N212 1.347 . S
C211 H222 0.929 . S
N212 C210 1.375 . S
N212 C211 1.347 . S
C213 C216 1.365 . S
C213 N218 1.328 . S
C213 H219 0.929 . S
C214 C215 1.362 . S
C214 C217 1.378 . S
C214 H229 0.929 . S
C215 C214 1.362 . S
C215 C216 1.366 . S
C216 C213 1.365 . S
C216 C215 1.366 . S
C216 H230 0.930 . S
C217 C214 1.378 . S
C217 N218 1.315 . S
C217 H220 0.930 . S
N218 Co198 2.194 . S
N218 C213 1.328 . S
N218 C217 1.315 . S
H219 C213 0.929 . S
H220 C217 0.930 . S
H221 C209 0.929 . S
H222 C211 0.929 . S
O223 Co198 2.351 . S
O223 C226 1.244 . S
O224 Co198 2.155 . S
O224 C226 1.240 . S
O225 Co198 2.096 . S
O225 C206 1.247 . S
C226 O223 1.244 . S
C226 O224 1.240 . S
H227 C201 0.931 . S
H228 C210 0.931 . S
H229 C214 0.929 . S
H230 C216 0.930 . S
Co231 N235 2.148 . S
Co231 N241 2.128 . S
Co231 N251 2.194 . S
Co231 O256 2.351 . S
Co231 O257 2.155 . S
Co231 O258 2.096 . S
C232 N235 1.301 1_554 S
C232 N236 1.328 . S
C232 H237 0.930 . S
C233 C234 1.333 . S
C233 N235 1.317 1_554 S
C233 H238 0.930 1_554 S
C234 C233 1.333 . S
C234 N236 1.350 . S
C234 H260 0.931 . S
N235 Co231 2.148 . S
N235 C232 1.301 1_556 S
N235 C233 1.317 1_556 S
N236 C232 1.328 . S
N236 C234 1.350 . S
H237 C232 0.930 . S
H238 C233 0.930 1_556 S
C239 O240 1.224 . S
C239 O258 1.247 . S
O240 C239 1.224 . S
N241 Co231 2.128 . S
N241 C242 1.355 . S
N241 C244 1.311 . S
C242 N241 1.355 . S
C242 C243 1.363 . S
C242 H254 0.929 . S
C243 C242 1.363 . S
C243 N245 1.375 . S
C243 H261 0.931 . S
C244 N241 1.311 . S
C244 N245 1.347 . S
C244 H255 0.929 . S
N245 C243 1.375 . S
N245 C244 1.347 . S
C246 C249 1.365 . S
C246 N251 1.328 . S
C246 H252 0.929 . S
C247 C248 1.362 . S
C247 C250 1.378 . S
C247 H262 0.929 . S
C248 C247 1.362 . S
C248 C249 1.366 . S
C249 C246 1.365 . S
C249 C248 1.366 . S
C249 H263 0.930 . S
C250 C247 1.378 . S
C250 N251 1.315 . S
C250 H253 0.930 . S
N251 Co231 2.194 . S
N251 C246 1.328 . S
N251 C250 1.315 . S
H252 C246 0.929 . S
H253 C250 0.930 . S
H254 C242 0.929 . S
H255 C244 0.929 . S
O256 Co231 2.351 . S
O256 C259 1.244 . S
O257 Co231 2.155 . S
O257 C259 1.240 . S
O258 Co231 2.096 . S
O258 C239 1.247 . S
C259 O256 1.244 . S
C259 O257 1.240 . S
H260 C234 0.931 . S
H261 C243 0.931 . S
H262 C247 0.929 . S
H263 C249 0.930 . S
Co264 N268 2.148 . S
Co264 N274 2.128 1_554 S
Co264 N284 2.194 . S
Co264 O289 2.351 . S
Co264 O290 2.155 . S
Co264 O291 2.096 . S
C265 N268 1.301 . S
C265 N269 1.328 . S
C265 H270 0.930 . S
C266 C267 1.333 . S
C266 N268 1.317 . S
C266 H271 0.930 . S
C267 C266 1.333 . S
C267 N269 1.350 . S
C267 H293 0.931 . S
N268 Co264 2.148 . S
N268 C265 1.301 . S
N268 C266 1.317 . S
N269 C265 1.328 . S
N269 C267 1.350 . S
H270 C265 0.930 . S
H271 C266 0.930 . S
C272 O273 1.225 . S
C272 O291 1.250 . S
O273 C272 1.225 . S
N274 Co264 2.128 1_556 S
N274 C275 1.355 . S
N274 C277 1.311 . S
C275 N274 1.355 . S
C275 C276 1.363 . S
C275 H287 0.929 . S
C276 C275 1.363 . S
C276 N278 1.375 . S
C276 H294 0.931 . S
C277 N274 1.311 . S
C277 N278 1.347 . S
C277 H288 0.929 . S
N278 C276 1.375 . S
N278 C277 1.347 . S
C279 C282 1.365 . S
C279 N284 1.328 . S
C279 H285 0.929 . S
C280 C281 1.362 . S
C280 C283 1.378 . S
C280 H295 0.929 . S
C281 C280 1.362 . S
C281 C282 1.366 . S
C282 C279 1.365 . S
C282 C281 1.366 . S
C282 H296 0.930 . S
C283 C280 1.378 . S
C283 N284 1.315 . S
C283 H286 0.930 . S
N284 Co264 2.194 . S
N284 C279 1.328 . S
N284 C283 1.315 . S
H285 C279 0.929 . S
H286 C283 0.930 . S
H287 C275 0.929 . S
H288 C277 0.929 . S
O289 Co264 2.351 . S
O289 C292 1.244 . S
O290 Co264 2.155 . S
O290 C292 1.240 . S
O291 Co264 2.096 . S
O291 C272 1.250 . S
C292 O289 1.244 . S
C292 O290 1.240 . S
H293 C267 0.931 . S
H294 C276 0.931 . S
H295 C280 0.929 . S
H296 C282 0.930 . S
Co297 N301 2.148 . S
Co297 N307 2.128 . S
Co297 N317 2.194 . S
Co297 O322 2.351 . S
Co297 O323 2.155 . S
Co297 O324 2.096 . S
C298 N301 1.301 . S
C298 N302 1.328 . S
C298 H303 0.930 . S
C299 C300 1.333 . S
C299 N301 1.317 . S
C299 H304 0.930 . S
C300 C299 1.333 . S
C300 N302 1.350 . S
C300 H326 0.931 . S
N301 Co297 2.148 . S
N301 C298 1.301 . S
N301 C299 1.317 . S
N302 C298 1.328 . S
N302 C300 1.350 . S
H303 C298 0.930 . S
H304 C299 0.930 . S
C305 O306 1.224 . S
C305 O324 1.247 . S
O306 C305 1.224 . S
N307 Co297 2.128 . S
N307 C308 1.355 . S
N307 C310 1.311 . S
C308 N307 1.355 . S
C308 C309 1.363 . S
C308 H320 0.929 . S
C309 C308 1.363 . S
C309 N311 1.375 1_554 S
C309 H327 0.931 1_554 S
C310 N307 1.311 . S
C310 N311 1.347 1_554 S
C310 H321 0.929 . S
N311 C309 1.375 1_556 S
N311 C310 1.347 1_556 S
C312 C315 1.365 . S
C312 N317 1.328 . S
C312 H318 0.929 . S
C313 C314 1.362 . S
C313 C316 1.378 . S
C313 H328 0.929 . S
C314 C313 1.362 . S
C314 C315 1.366 . S
C315 C312 1.365 . S
C315 C314 1.366 . S
C315 H329 0.930 . S
C316 C313 1.378 . S
C316 N317 1.315 . S
C316 H319 0.930 . S
N317 Co297 2.194 . S
N317 C312 1.328 . S
N317 C316 1.315 . S
H318 C312 0.929 . S
H319 C316 0.930 . S
H320 C308 0.929 . S
H321 C310 0.929 . S
O322 Co297 2.351 . S
O322 C325 1.244 . S
O323 Co297 2.155 . S
O323 C325 1.240 . S
O324 Co297 2.096 . S
O324 C305 1.247 . S
C325 O322 1.244 . S
C325 O323 1.240 . S
H326 C300 0.931 . S
H327 C309 0.931 1_556 S
H328 C313 0.929 . S
H329 C315 0.930 . S
Co330 N334 2.148 . S
Co330 N340 2.128 . S
Co330 N350 2.194 . S
Co330 O355 2.351 . S
Co330 O356 2.155 . S
Co330 O357 2.096 . S
C331 N334 1.301 . S
C331 N335 1.328 . S
C331 H336 0.930 . S
C332 C333 1.333 . S
C332 N334 1.317 . S
C332 H337 0.930 . S
C333 C332 1.333 . S
C333 N335 1.350 . S
C333 H359 0.931 . S
N334 Co330 2.148 . S
N334 C331 1.301 . S
N334 C332 1.317 . S
N335 C331 1.328 . S
N335 C333 1.350 . S
H336 C331 0.930 . S
H337 C332 0.930 . S
C338 O339 1.224 . S
C338 O357 1.247 . S
O339 C338 1.224 . S
N340 Co330 2.128 . S
N340 C341 1.355 . S
N340 C343 1.311 . S
C341 N340 1.355 . S
C341 C342 1.363 . S
C341 H353 0.929 . S
C342 C341 1.363 . S
C342 N344 1.375 . S
C342 H360 0.931 . S
C343 N340 1.311 . S
C343 N344 1.347 . S
C343 H354 0.929 . S
N344 C342 1.375 . S
N344 C343 1.347 . S
C345 C348 1.365 . S
C345 N350 1.328 . S
C345 H351 0.929 . S
C346 C347 1.362 . S
C346 C349 1.378 . S
C346 H361 0.929 . S
C347 C346 1.362 . S
C347 C348 1.366 . S
C348 C345 1.365 . S
C348 C347 1.366 . S
C348 H362 0.930 . S
C349 C346 1.378 . S
C349 N350 1.315 . S
C349 H352 0.930 . S
N350 Co330 2.194 . S
N350 C345 1.328 . S
N350 C349 1.315 . S
H351 C345 0.929 . S
H352 C349 0.930 . S
H353 C341 0.929 . S
H354 C343 0.929 . S
O355 Co330 2.351 . S
O355 C358 1.244 . S
O356 Co330 2.155 . S
O356 C358 1.240 . S
O357 Co330 2.096 . S
O357 C338 1.247 . S
C358 O355 1.244 . S
C358 O356 1.240 . S
H359 C333 0.931 . S
H360 C342 0.931 . S
H361 C346 0.929 . S
H362 C348 0.930 . S
Co363 N367 2.148 . S
Co363 N373 2.128 . S
Co363 N383 2.194 . S
Co363 O388 2.351 . S
Co363 O389 2.155 . S
Co363 O390 2.096 . S
C364 N367 1.301 . S
C364 N368 1.328 . S
C364 H369 0.930 . S
C365 C366 1.333 . S
C365 N367 1.317 . S
C365 H370 0.930 . S
C366 C365 1.333 . S
C366 N368 1.350 . S
C366 H392 0.931 . S
N367 Co363 2.148 . S
N367 C364 1.301 . S
N367 C365 1.317 . S
N368 C364 1.328 . S
N368 C366 1.350 . S
H369 C364 0.930 . S
H370 C365 0.930 . S
C371 O372 1.224 . S
C371 O390 1.247 . S
O372 C371 1.224 . S
N373 Co363 2.128 . S
N373 C374 1.355 . S
N373 C376 1.311 . S
C374 N373 1.355 . S
C374 C375 1.363 . S
C374 H386 0.929 . S
C375 C374 1.363 . S
C375 N377 1.375 . S
C375 H393 0.931 . S
C376 N373 1.311 . S
C376 N377 1.347 . S
C376 H387 0.929 . S
N377 C375 1.375 . S
N377 C376 1.347 . S
C378 C381 1.365 . S
C378 N383 1.328 . S
C378 H384 0.929 . S
C379 C380 1.362 . S
C379 C382 1.378 . S
C379 H394 0.929 . S
C380 C379 1.362 . S
C380 C381 1.366 . S
C381 C378 1.365 . S
C381 C380 1.366 . S
C381 H395 0.930 . S
C382 C379 1.378 . S
C382 N383 1.315 . S
C382 H385 0.930 . S
N383 Co363 2.194 . S
N383 C378 1.328 . S
N383 C382 1.315 . S
H384 C378 0.929 . S
H385 C382 0.930 . S
H386 C374 0.929 . S
H387 C376 0.929 . S
O388 Co363 2.351 . S
O388 C391 1.244 . S
O389 Co363 2.155 . S
O389 C391 1.240 . S
O390 Co363 2.096 . S
O390 C371 1.247 . S
C391 O388 1.244 . S
C391 O389 1.240 . S
H392 C366 0.931 . S
H393 C375 0.931 . S
H394 C379 0.929 . S
H395 C381 0.930 . S
H396 C404 0.950 . S
H397 C409 0.950 1_556 S
H398 C406 0.950 . S
H399 C408 0.950 1_556 S
H400 C410 0.950 . S
H401 C412 0.950 . S
H402 C414 0.950 . S
H403 C415 0.950 . S
C404 H396 0.950 . S
C404 C405 1.386 . S
C404 C406 1.391 . S
C405 C404 1.386 . S
C405 C409 1.393 . S
C406 H398 0.950 . S
C406 C404 1.391 . S
C406 C407 1.400 . S
C407 C406 1.400 . S
C407 C408 1.398 . S
C407 C413 1.491 . S
C408 H399 0.950 1_554 S
C408 C407 1.398 . S
C408 C409 1.391 . S
C409 H397 0.950 1_554 S
C409 C405 1.393 . S
C409 C408 1.391 . S
C410 H400 0.950 . S
C410 C411 1.386 . S
C410 C412 1.391 . S
C411 C410 1.386 . S
C411 C415 1.393 . S
C412 H401 0.950 . S
C412 C410 1.391 . S
C412 C413 1.400 . S
C413 C407 1.491 . S
C413 C412 1.400 . S
C413 C414 1.398 . S
C414 H402 0.950 . S
C414 C413 1.398 . S
C414 C415 1.391 . S
C415 H403 0.950 . S
C415 C411 1.393 . S
C415 C414 1.391 . S
H416 C424 0.950 . S
H417 C429 0.950 . S
H418 C426 0.950 . S
H419 C428 0.950 . S
H420 C430 0.950 . S
H421 C432 0.950 . S
H422 C434 0.950 . S
H423 C435 0.950 . S
C424 H416 0.950 . S
C424 C425 1.386 . S
C424 C426 1.391 . S
C425 C424 1.386 . S
C425 C429 1.393 . S
C426 H418 0.950 . S
C426 C424 1.391 . S
C426 C427 1.400 . S
C427 C426 1.400 . S
C427 C428 1.398 . S
C427 C433 1.491 . S
C428 H419 0.950 . S
C428 C427 1.398 . S
C428 C429 1.391 . S
C429 H417 0.950 . S
C429 C425 1.393 . S
C429 C428 1.391 . S
C430 H420 0.950 . S
C430 C431 1.386 . S
C430 C432 1.391 . S
C431 C430 1.386 . S
C431 C435 1.393 . S
C432 H421 0.950 . S
C432 C430 1.391 . S
C432 C433 1.400 . S
C433 C427 1.491 . S
C433 C432 1.400 . S
C433 C434 1.398 . S
C434 H422 0.950 . S
C434 C433 1.398 . S
C434 C435 1.391 . S
C435 H423 0.950 . S
C435 C431 1.393 . S
C435 C434 1.391 . S
H436 C444 0.950 . S
H437 C449 0.950 . S
H438 C446 0.950 . S
H439 C448 0.950 . S
H440 C450 0.950 . S
H441 C452 0.950 . S
H442 C454 0.950 . S
H443 C455 0.950 . S
C444 H436 0.950 . S
C444 C445 1.386 . S
C444 C446 1.391 . S
C445 C444 1.386 . S
C445 C449 1.393 . S
C446 H438 0.950 . S
C446 C444 1.391 . S
C446 C447 1.400 . S
C447 C446 1.400 . S
C447 C448 1.398 . S
C447 C453 1.491 . S
C448 H439 0.950 . S
C448 C447 1.398 . S
C448 C449 1.391 . S
C449 H437 0.950 . S
C449 C445 1.393 . S
C449 C448 1.391 . S
C450 H440 0.950 . S
C450 C451 1.386 . S
C450 C452 1.391 . S
C451 C450 1.386 . S
C451 C455 1.393 . S
C452 H441 0.950 . S
C452 C450 1.391 . S
C452 C453 1.400 . S
C453 C447 1.491 . S
C453 C452 1.400 . S
C453 C454 1.398 . S
C454 H442 0.950 . S
C454 C453 1.398 . S
C454 C455 1.391 . S
C455 H443 0.950 . S
C455 C451 1.393 . S
C455 C454 1.391 . S
H456 C464 0.950 . S
H457 C469 0.950 . S
H458 C466 0.950 . S
H459 C468 0.950 . S
H460 C470 0.950 . S
H461 C472 0.950 . S
H462 C474 0.950 . S
H463 C475 0.950 . S
C464 H456 0.950 . S
C464 C465 1.386 . S
C464 C466 1.391 . S
C465 C464 1.386 . S
C465 C469 1.393 . S
C466 H458 0.950 . S
C466 C464 1.391 . S
C466 C467 1.400 . S
C467 C466 1.400 . S
C467 C468 1.398 . S
C467 C473 1.491 . S
C468 H459 0.950 . S
C468 C467 1.398 . S
C468 C469 1.391 . S
C469 H457 0.950 . S
C469 C465 1.393 . S
C469 C468 1.391 . S
C470 H460 0.950 . S
C470 C471 1.386 . S
C470 C472 1.391 . S
C471 C470 1.386 . S
C471 C475 1.393 . S
C472 H461 0.950 . S
C472 C470 1.391 . S
C472 C473 1.400 . S
C473 C467 1.491 . S
C473 C472 1.400 . S
C473 C474 1.398 . S
C474 H462 0.950 . S
C474 C473 1.398 . S
C474 C475 1.391 . S
C475 H463 0.950 . S
C475 C471 1.393 . S
C475 C474 1.391 . S
H476 C484 0.950 . S
H477 C489 0.950 . S
H478 C486 0.950 . S
H479 C488 0.950 . S
H480 C490 0.950 . S
H481 C492 0.950 . S
H482 C494 0.950 . S
H483 C495 0.950 . S
C484 H476 0.950 . S
C484 C485 1.386 . S
C484 C486 1.391 . S
C485 C484 1.386 . S
C485 C489 1.393 . S
C486 H478 0.950 . S
C486 C484 1.391 . S
C486 C487 1.400 . S
C487 C486 1.400 . S
C487 C488 1.398 . S
C487 C493 1.491 . S
C488 H479 0.950 . S
C488 C487 1.398 . S
C488 C489 1.391 . S
C489 H477 0.950 . S
C489 C485 1.393 . S
C489 C488 1.391 . S
C490 H480 0.950 . S
C490 C491 1.386 . S
C490 C492 1.391 . S
C491 C490 1.386 . S
C491 C495 1.393 . S
C492 H481 0.950 . S
C492 C490 1.391 . S
C492 C493 1.400 . S
C493 C487 1.491 . S
C493 C492 1.400 . S
C493 C494 1.398 . S
C494 H482 0.950 . S
C494 C493 1.398 . S
C494 C495 1.391 . S
C495 H483 0.950 . S
C495 C491 1.393 . S
C495 C494 1.391 . S
H496 C504 0.950 . S
H497 C509 0.950 . S
H498 C506 0.950 . S
H499 C508 0.950 . S
H500 C510 0.950 . S
H501 C512 0.950 . S
H502 C514 0.950 . S
H503 C515 0.950 . S
C504 H496 0.950 . S
C504 C505 1.386 . S
C504 C506 1.391 . S
C505 C504 1.386 . S
C505 C509 1.393 . S
C506 H498 0.950 . S
C506 C504 1.391 . S
C506 C507 1.400 . S
C507 C506 1.400 . S
C507 C508 1.398 . S
C507 C513 1.491 . S
C508 H499 0.950 . S
C508 C507 1.398 . S
C508 C509 1.391 . S
C509 H497 0.950 . S
C509 C505 1.393 . S
C509 C508 1.391 . S
C510 H500 0.950 . S
C510 C511 1.386 . S
C510 C512 1.391 . S
C511 C510 1.386 . S
C511 C515 1.393 . S
C512 H501 0.950 . S
C512 C510 1.391 . S
C512 C513 1.400 . S
C513 C507 1.491 . S
C513 C512 1.400 . S
C513 C514 1.398 . S
C514 H502 0.950 . S
C514 C513 1.398 . S
C514 C515 1.391 . S
C515 H503 0.950 . S
C515 C511 1.393 . S
C515 C514 1.391 . S
H516 C524 0.950 . S
H517 C529 0.950 . S
H518 C526 0.950 . S
H519 C528 0.950 . S
H520 C530 0.950 . S
H521 C532 0.950 . S
H522 C534 0.950 . S
H523 C535 0.950 . S
C524 H516 0.950 . S
C524 C525 1.386 . S
C524 C526 1.391 . S
C525 C524 1.386 . S
C525 C529 1.393 . S
C526 H518 0.950 . S
C526 C524 1.391 . S
C526 C527 1.400 . S
C527 C526 1.400 . S
C527 C528 1.398 . S
C527 C533 1.491 . S
C528 H519 0.950 . S
C528 C527 1.398 . S
C528 C529 1.391 . S
C529 H517 0.950 . S
C529 C525 1.393 . S
C529 C528 1.391 . S
C530 H520 0.950 . S
C530 C531 1.386 . S
C530 C532 1.391 . S
C531 C530 1.386 . S
C531 C535 1.393 . S
C532 H521 0.950 . S
C532 C530 1.391 . S
C532 C533 1.400 . S
C533 C527 1.491 . S
C533 C532 1.400 . S
C533 C534 1.398 . S
C534 H522 0.950 . S
C534 C533 1.398 . S
C534 C535 1.391 . S
C535 H523 0.950 . S
C535 C531 1.393 . S
C535 C534 1.391 . S
H536 C544 0.950 . S
H537 C549 0.950 . S
H538 C546 0.950 . S
H539 C548 0.950 . S
H540 C550 0.950 . S
H541 C552 0.950 . S
H542 C554 0.950 . S
H543 C555 0.950 . S
C544 H536 0.950 . S
C544 C545 1.386 . S
C544 C546 1.391 . S
C545 C544 1.386 . S
C545 C549 1.393 . S
C546 H538 0.950 . S
C546 C544 1.391 . S
C546 C547 1.400 . S
C547 C546 1.400 . S
C547 C548 1.398 . S
C547 C553 1.491 . S
C548 H539 0.950 . S
C548 C547 1.398 . S
C548 C549 1.391 . S
C549 H537 0.950 . S
C549 C545 1.393 . S
C549 C548 1.391 . S
C550 H540 0.950 . S
C550 C551 1.386 . S
C550 C552 1.391 . S
C551 C550 1.386 . S
C551 C555 1.393 . S
C552 H541 0.950 . S
C552 C550 1.391 . S
C552 C553 1.400 . S
C553 C547 1.491 . S
C553 C552 1.400 . S
C553 C554 1.398 . S
C554 H542 0.950 . S
C554 C553 1.398 . S
C554 C555 1.391 . S
C555 H543 0.950 . S
C555 C551 1.393 . S
C555 C554 1.391 . S
H556 C564 0.950 . S
H557 C569 0.950 . S
H558 C566 0.950 . S
H559 C568 0.950 . S
H560 C570 0.950 . S
H561 C572 0.950 . S
H562 C574 0.950 . S
H563 C575 0.950 . S
C564 H556 0.950 . S
C564 C565 1.386 . S
C564 C566 1.391 . S
C565 C564 1.386 . S
C565 C569 1.393 . S
C566 H558 0.950 . S
C566 C564 1.391 . S
C566 C567 1.400 . S
C567 C566 1.400 . S
C567 C568 1.398 . S
C567 C573 1.491 . S
C568 H559 0.950 . S
C568 C567 1.398 . S
C568 C569 1.391 . S
C569 H557 0.950 . S
C569 C565 1.393 . S
C569 C568 1.391 . S
C570 H560 0.950 . S
C570 C571 1.386 . S
C570 C572 1.391 . S
C571 C570 1.386 . S
C571 C575 1.393 . S
C572 H561 0.950 . S
C572 C570 1.391 . S
C572 C573 1.400 1_554 S
C573 C567 1.491 . S
C573 C572 1.400 1_556 S
C573 C574 1.398 1_556 S
C574 H562 0.950 . S
C574 C573 1.398 1_554 S
C574 C575 1.391 . S
C575 H563 0.950 . S
C575 C571 1.393 . S
C575 C574 1.391 . S
H576 C584 0.950 . S
H577 C589 0.950 . S
H578 C586 0.950 . S
H579 C588 0.950 . S
H580 C590 0.950 . S
H581 C592 0.950 . S
H582 C594 0.950 . S
H583 C595 0.950 . S
C584 H576 0.950 . S
C584 C585 1.386 . S
C584 C586 1.391 1_556 S
C585 C584 1.386 . S
C585 C589 1.393 . S
C586 H578 0.950 . S
C586 C584 1.391 1_554 S
C586 C587 1.400 . S
C587 C586 1.400 . S
C587 C588 1.398 . S
C587 C593 1.491 . S
C588 H579 0.950 . S
C588 C587 1.398 . S
C588 C589 1.391 1_554 S
C589 H577 0.950 . S
C589 C585 1.393 . S
C589 C588 1.391 1_556 S
C590 H580 0.950 . S
C590 C591 1.386 . S
C590 C592 1.391 . S
C591 C590 1.386 . S
C591 C595 1.393 . S
C592 H581 0.950 . S
C592 C590 1.391 . S
C592 C593 1.400 . S
C593 C587 1.491 . S
C593 C592 1.400 . S
C593 C594 1.398 . S
C594 H582 0.950 . S
C594 C593 1.398 . S
C594 C595 1.391 . S
C595 H583 0.950 . S
C595 C591 1.393 . S
C595 C594 1.391 . S
H596 C604 0.950 . S
H597 C609 0.950 . S
H598 C606 0.950 . S
H599 C608 0.950 . S
H600 C610 0.950 . S
H601 C612 0.950 . S
H602 C614 0.950 . S
H603 C615 0.950 . S
C604 H596 0.950 . S
C604 C605 1.386 . S
C604 C606 1.391 . S
C605 C604 1.386 . S
C605 C609 1.393 . S
C606 H598 0.950 . S
C606 C604 1.391 . S
C606 C607 1.400 . S
C607 C606 1.400 . S
C607 C608 1.398 . S
C607 C613 1.491 . S
C608 H599 0.950 . S
C608 C607 1.398 . S
C608 C609 1.391 . S
C609 H597 0.950 . S
C609 C605 1.393 . S
C609 C608 1.391 . S
C610 H600 0.950 . S
C610 C611 1.386 . S
C610 C612 1.391 . S
C611 C610 1.386 . S
C611 C615 1.393 . S
C612 H601 0.950 . S
C612 C610 1.391 . S
C612 C613 1.400 . S
C613 C607 1.491 . S
C613 C612 1.400 . S
C613 C614 1.398 . S
C614 H602 0.950 . S
C614 C613 1.398 . S
C614 C615 1.391 . S
C615 H603 0.950 . S
C615 C611 1.393 . S
C615 C614 1.391 . S
H616 C624 0.950 . S
H617 C629 0.950 . S
H618 C626 0.950 . S
H619 C628 0.950 . S
H620 C630 0.950 . S
H621 C632 0.950 . S
H622 C634 0.950 . S
H623 C635 0.950 . S
C624 H616 0.950 . S
C624 C625 1.386 . S
C624 C626 1.391 . S
C625 C624 1.386 . S
C625 C629 1.393 . S
C626 H618 0.950 . S
C626 C624 1.391 . S
C626 C627 1.400 . S
C627 C626 1.400 . S
C627 C628 1.398 . S
C627 C633 1.491 . S
C628 H619 0.950 . S
C628 C627 1.398 . S
C628 C629 1.391 . S
C629 H617 0.950 . S
C629 C625 1.393 . S
C629 C628 1.391 . S
C630 H620 0.950 . S
C630 C631 1.386 . S
C630 C632 1.391 . S
C631 C630 1.386 . S
C631 C635 1.393 . S
C632 H621 0.950 . S
C632 C630 1.391 . S
C632 C633 1.400 . S
C633 C627 1.491 . S
C633 C632 1.400 . S
C633 C634 1.398 . S
C634 H622 0.950 . S
C634 C633 1.398 . S
C634 C635 1.391 . S
C635 H623 0.950 . S
C635 C631 1.393 . S
C635 C634 1.391 . S
H636 C644 0.950 . S
H637 C649 0.950 . S
H638 C646 0.950 . S
H639 C648 0.950 . S
H640 C650 0.950 . S
H641 C652 0.950 . S
H642 C654 0.950 . S
H643 C655 0.950 . S
C644 H636 0.950 . S
C644 C645 1.386 . S
C644 C646 1.391 . S
C645 C644 1.386 . S
C645 C649 1.393 . S
C646 H638 0.950 . S
C646 C644 1.391 . S
C646 C647 1.400 . S
C647 C646 1.400 . S
C647 C648 1.398 . S
C647 C653 1.491 . S
C648 H639 0.950 . S
C648 C647 1.398 . S
C648 C649 1.391 . S
C649 H637 0.950 . S
C649 C645 1.393 . S
C649 C648 1.391 . S
C650 H640 0.950 . S
C650 C651 1.386 . S
C650 C652 1.391 . S
C651 C650 1.386 . S
C651 C655 1.393 . S
C652 H641 0.950 . S
C652 C650 1.391 . S
C652 C653 1.400 . S
C653 C647 1.491 . S
C653 C652 1.400 . S
C653 C654 1.398 . S
C654 H642 0.950 . S
C654 C653 1.398 . S
C654 C655 1.391 . S
C655 H643 0.950 . S
C655 C651 1.393 . S
C655 C654 1.391 . S
H656 C664 0.950 . S
H657 C669 0.950 . S
H658 C666 0.950 . S
H659 C668 0.950 . S
H660 C670 0.950 . S
H661 C672 0.950 . S
H662 C674 0.950 . S
H663 C675 0.950 . S
C664 H656 0.950 . S
C664 C665 1.386 . S
C664 C666 1.391 . S
C665 C664 1.386 . S
C665 C669 1.393 . S
C666 H658 0.950 . S
C666 C664 1.391 . S
C666 C667 1.400 . S
C667 C666 1.400 . S
C667 C668 1.398 . S
C667 C673 1.491 . S
C668 H659 0.950 . S
C668 C667 1.398 . S
C668 C669 1.391 . S
C669 H657 0.950 . S
C669 C665 1.393 . S
C669 C668 1.391 . S
C670 H660 0.950 . S
C670 C671 1.386 . S
C670 C672 1.391 . S
C671 C670 1.386 . S
C671 C675 1.393 . S
C672 H661 0.950 . S
C672 C670 1.391 . S
C672 C673 1.400 . S
C673 C667 1.491 . S
C673 C672 1.400 . S
C673 C674 1.398 . S
C674 H662 0.950 . S
C674 C673 1.398 . S
C674 C675 1.391 . S
C675 H663 0.950 . S
C675 C671 1.393 . S
C675 C674 1.391 . S
H676 C684 0.950 . S
H677 C689 0.950 . S
H678 C686 0.950 . S
H679 C688 0.950 . S
H680 C690 0.950 . S
H681 C692 0.950 . S
H682 C694 0.950 . S
H683 C695 0.950 . S
C684 H676 0.950 . S
C684 C685 1.386 . S
C684 C686 1.391 . S
C685 C684 1.386 . S
C685 C689 1.393 . S
C686 H678 0.950 . S
C686 C684 1.391 . S
C686 C687 1.400 . S
C687 C686 1.400 . S
C687 C688 1.398 . S
C687 C693 1.491 . S
C688 H679 0.950 . S
C688 C687 1.398 . S
C688 C689 1.391 . S
C689 H677 0.950 . S
C689 C685 1.393 . S
C689 C688 1.391 . S
C690 H680 0.950 . S
C690 C691 1.386 . S
C690 C692 1.391 . S
C691 C690 1.386 . S
C691 C695 1.393 . S
C692 H681 0.950 . S
C692 C690 1.391 . S
C692 C693 1.400 . S
C693 C687 1.491 . S
C693 C692 1.400 . S
C693 C694 1.398 . S
C694 H682 0.950 . S
C694 C693 1.398 . S
C694 C695 1.391 . S
C695 H683 0.950 . S
C695 C691 1.393 . S
C695 C694 1.391 . S
H696 C704 0.950 . S
H697 C709 0.950 . S
H698 C706 0.950 . S
H699 C708 0.950 . S
H700 C710 0.950 . S
H701 C712 0.950 . S
H702 C714 0.950 . S
H703 C715 0.950 . S
C704 H696 0.950 . S
C704 C705 1.386 . S
C704 C706 1.391 . S
C705 C704 1.386 . S
C705 C709 1.393 . S
C706 H698 0.950 . S
C706 C704 1.391 . S
C706 C707 1.400 . S
C707 C706 1.400 . S
C707 C708 1.398 . S
C707 C713 1.491 . S
C708 H699 0.950 . S
C708 C707 1.398 . S
C708 C709 1.391 . S
C709 H697 0.950 . S
C709 C705 1.393 . S
C709 C708 1.391 . S
C710 H700 0.950 . S
C710 C711 1.386 . S
C710 C712 1.391 . S
C711 C710 1.386 . S
C711 C715 1.393 . S
C712 H701 0.950 . S
C712 C710 1.391 . S
C712 C713 1.400 . S
C713 C707 1.491 . S
C713 C712 1.400 . S
C713 C714 1.398 . S
C714 H702 0.950 . S
C714 C713 1.398 . S
C714 C715 1.391 . S
C715 H703 0.950 . S
C715 C711 1.393 . S
C715 C714 1.391 . S
H716 C724 0.950 . S
H717 C729 0.950 . S
H718 C726 0.950 . S
H719 C728 0.950 . S
H720 C730 0.950 . S
H721 C732 0.950 . S
H722 C734 0.950 . S
H723 C735 0.950 . S
C724 H716 0.950 . S
C724 C725 1.386 . S
C724 C726 1.391 . S
C725 C724 1.386 . S
C725 C729 1.393 . S
C726 H718 0.950 . S
C726 C724 1.391 . S
C726 C727 1.400 . S
C727 C726 1.400 . S
C727 C728 1.398 . S
C727 C733 1.491 . S
C728 H719 0.950 . S
C728 C727 1.398 . S
C728 C729 1.391 . S
C729 H717 0.950 . S
C729 C725 1.393 . S
C729 C728 1.391 . S
C730 H720 0.950 . S
C730 C731 1.386 . S
C730 C732 1.391 1_554 S
C731 C730 1.386 . S
C731 C735 1.393 . S
C732 H721 0.950 . S
C732 C730 1.391 1_556 S
C732 C733 1.400 . S
C733 C727 1.491 . S
C733 C732 1.400 . S
C733 C734 1.398 . S
C734 H722 0.950 . S
C734 C733 1.398 . S
C734 C735 1.391 1_556 S
C735 H723 0.950 . S
C735 C731 1.393 . S
C735 C734 1.391 1_554 S
H736 C744 0.950 . S
H737 C749 0.950 . S
H738 C746 0.950 . S
H739 C748 0.950 . S
H740 C750 0.950 . S
H741 C752 0.950 . S
H742 C754 0.950 . S
H743 C755 0.950 . S
C744 H736 0.950 . S
C744 C745 1.386 . S
C744 C746 1.391 . S
C745 C744 1.386 . S
C745 C749 1.393 . S
C746 H738 0.950 . S
C746 C744 1.391 . S
C746 C747 1.400 . S
C747 C746 1.400 . S
C747 C748 1.398 . S
C747 C753 1.491 . S
C748 H739 0.950 . S
C748 C747 1.398 . S
C748 C749 1.391 . S
C749 H737 0.950 . S
C749 C745 1.393 . S
C749 C748 1.391 . S
C750 H740 0.950 . S
C750 C751 1.386 . S
C750 C752 1.391 . S
C751 C750 1.386 . S
C751 C755 1.393 . S
C752 H741 0.950 . S
C752 C750 1.391 . S
C752 C753 1.400 1_556 S
C753 C747 1.491 . S
C753 C752 1.400 1_554 S
C753 C754 1.398 1_554 S
C754 H742 0.950 . S
C754 C753 1.398 1_556 S
C754 C755 1.391 . S
C755 H743 0.950 . S
C755 C751 1.393 . S
C755 C754 1.391 . S
H756 C764 0.950 . S
H757 C769 0.950 . S
H758 C766 0.950 . S
H759 C768 0.950 . S
H760 C770 0.950 . S
H761 C772 0.950 . S
H762 C774 0.950 . S
H763 C775 0.950 . S
C764 H756 0.950 . S
C764 C765 1.386 . S
C764 C766 1.391 . S
C765 C764 1.386 . S
C765 C769 1.393 . S
C766 H758 0.950 . S
C766 C764 1.391 . S
C766 C767 1.400 . S
C767 C766 1.400 . S
C767 C768 1.398 . S
C767 C773 1.491 . S
C768 H759 0.950 . S
C768 C767 1.398 . S
C768 C769 1.391 . S
C769 H757 0.950 . S
C769 C765 1.393 . S
C769 C768 1.391 . S
C770 H760 0.950 . S
C770 C771 1.386 . S
C770 C772 1.391 . S
C771 C770 1.386 . S
C771 C775 1.393 . S
C772 H761 0.950 . S
C772 C770 1.391 . S
C772 C773 1.400 . S
C773 C767 1.491 . S
C773 C772 1.400 . S
C773 C774 1.398 . S
C774 H762 0.950 . S
C774 C773 1.398 . S
C774 C775 1.391 . S
C775 H763 0.950 . S
C775 C771 1.393 . S
C775 C774 1.391 . S
H776 C784 0.950 . S
H777 C789 0.950 . S
H778 C786 0.950 . S
H779 C788 0.950 . S
H780 C790 0.950 . S
H781 C792 0.950 . S
H782 C794 0.950 . S
H783 C795 0.950 . S
C784 H776 0.950 . S
C784 C785 1.386 . S
C784 C786 1.391 . S
C785 C784 1.386 . S
C785 C789 1.393 . S
C786 H778 0.950 . S
C786 C784 1.391 . S
C786 C787 1.400 . S
C787 C786 1.400 . S
C787 C788 1.398 . S
C787 C793 1.491 . S
C788 H779 0.950 . S
C788 C787 1.398 . S
C788 C789 1.391 . S
C789 H777 0.950 . S
C789 C785 1.393 . S
C789 C788 1.391 . S
C790 H780 0.950 . S
C790 C791 1.386 . S
C790 C792 1.391 . S
C791 C790 1.386 . S
C791 C795 1.393 . S
C792 H781 0.950 . S
C792 C790 1.391 . S
C792 C793 1.400 . S
C793 C787 1.491 . S
C793 C792 1.400 . S
C793 C794 1.398 . S
C794 H782 0.950 . S
C794 C793 1.398 . S
C794 C795 1.391 . S
C795 H783 0.950 . S
C795 C791 1.393 . S
C795 C794 1.391 . S
H796 C804 0.950 . S
H797 C809 0.950 . S
H798 C806 0.950 . S
H799 C808 0.950 . S
H800 C810 0.950 . S
H801 C812 0.950 . S
H802 C814 0.950 . S
H803 C815 0.950 . S
C804 H796 0.950 . S
C804 C805 1.386 . S
C804 C806 1.391 . S
C805 C804 1.386 . S
C805 C809 1.393 . S
C806 H798 0.950 . S
C806 C804 1.391 . S
C806 C807 1.400 . S
C807 C806 1.400 . S
C807 C808 1.398 . S
C807 C813 1.491 . S
C808 H799 0.950 . S
C808 C807 1.398 . S
C808 C809 1.391 . S
C809 H797 0.950 . S
C809 C805 1.393 . S
C809 C808 1.391 . S
C810 H800 0.950 . S
C810 C811 1.386 . S
C810 C812 1.391 . S
C811 C810 1.386 . S
C811 C815 1.393 . S
C812 H801 0.950 . S
C812 C810 1.391 . S
C812 C813 1.400 . S
C813 C807 1.491 . S
C813 C812 1.400 . S
C813 C814 1.398 . S
C814 H802 0.950 . S
C814 C813 1.398 . S
C814 C815 1.391 . S
C815 H803 0.950 . S
C815 C811 1.393 . S
C815 C814 1.391 . S
H816 C824 0.950 . S
H817 C829 0.950 . S
H818 C826 0.950 . S
H819 C828 0.950 . S
H820 C830 0.950 . S
H821 C832 0.950 . S
H822 C834 0.950 . S
H823 C835 0.950 . S
C824 H816 0.950 . S
C824 C825 1.386 . S
C824 C826 1.391 . S
C825 C824 1.386 . S
C825 C829 1.393 . S
C826 H818 0.950 . S
C826 C824 1.391 . S
C826 C827 1.400 . S
C827 C826 1.400 . S
C827 C828 1.398 . S
C827 C833 1.491 . S
C828 H819 0.950 . S
C828 C827 1.398 . S
C828 C829 1.391 . S
C829 H817 0.950 . S
C829 C825 1.393 . S
C829 C828 1.391 . S
C830 H820 0.950 . S
C830 C831 1.386 . S
C830 C832 1.391 . S
C831 C830 1.386 . S
C831 C835 1.393 . S
C832 H821 0.950 . S
C832 C830 1.391 . S
C832 C833 1.400 . S
C833 C827 1.491 . S
C833 C832 1.400 . S
C833 C834 1.398 . S
C834 H822 0.950 . S
C834 C833 1.398 . S
C834 C835 1.391 . S
C835 H823 0.950 . S
C835 C831 1.393 . S
C835 C834 1.391 . S
H836 C844 0.950 . S
H837 C849 0.950 . S
H838 C846 0.950 . S
H839 C848 0.950 . S
H840 C850 0.950 . S
H841 C852 0.950 . S
H842 C854 0.950 . S
H843 C855 0.950 . S
C844 H836 0.950 . S
C844 C845 1.386 . S
C844 C846 1.391 . S
C845 C844 1.386 . S
C845 C849 1.393 . S
C846 H838 0.950 . S
C846 C844 1.391 . S
C846 C847 1.400 . S
C847 C846 1.400 . S
C847 C848 1.398 . S
C847 C853 1.491 . S
C848 H839 0.950 . S
C848 C847 1.398 . S
C848 C849 1.391 . S
C849 H837 0.950 . S
C849 C845 1.393 . S
C849 C848 1.391 . S
C850 H840 0.950 . S
C850 C851 1.386 . S
C850 C852 1.391 . S
C851 C850 1.386 . S
C851 C855 1.393 . S
C852 H841 0.950 . S
C852 C850 1.391 . S
C852 C853 1.400 . S
C853 C847 1.491 . S
C853 C852 1.400 . S
C853 C854 1.398 . S
C854 H842 0.950 . S
C854 C853 1.398 . S
C854 C855 1.391 . S
C855 H843 0.950 . S
C855 C851 1.393 . S
C855 C854 1.391 . S
H856 C864 0.950 . S
H857 C869 0.950 . S
H858 C866 0.950 . S
H859 C868 0.950 . S
H860 C870 0.950 1_556 S
H861 C872 0.950 . S
H862 C874 0.950 . S
H863 C875 0.950 . S
C864 H856 0.950 . S
C864 C865 1.386 . S
C864 C866 1.391 . S
C865 C864 1.386 . S
C865 C869 1.393 . S
C866 H858 0.950 . S
C866 C864 1.391 . S
C866 C867 1.400 . S
C867 C866 1.400 . S
C867 C868 1.398 . S
C867 C873 1.491 . S
C868 H859 0.950 . S
C868 C867 1.398 . S
C868 C869 1.391 . S
C869 H857 0.950 . S
C869 C865 1.393 . S
C869 C868 1.391 . S
C870 H860 0.950 1_554 S
C870 C871 1.386 . S
C870 C872 1.391 . S
C871 C870 1.386 . S
C871 C875 1.393 . S
C872 H861 0.950 . S
C872 C870 1.391 . S
C872 C873 1.400 . S
C873 C867 1.491 . S
C873 C872 1.400 . S
C873 C874 1.398 . S
C874 H862 0.950 . S
C874 C873 1.398 . S
C874 C875 1.391 . S
C875 H863 0.950 . S
C875 C871 1.393 . S
C875 C874 1.391 . S
H876 C884 0.950 . S
H877 C889 0.950 1_556 S
H878 C886 0.950 . S
H879 C888 0.950 . S
H880 C890 0.950 . S
H881 C892 0.950 . S
H882 C894 0.950 . S
H883 C895 0.941 1_554 S
C884 H876 0.950 . S
C884 C885 1.386 . S
C884 C886 1.391 . S
C885 C884 1.386 . S
C885 C889 1.393 . S
C886 H878 0.950 . S
C886 C884 1.391 . S
C886 C887 1.400 . S
C887 C886 1.400 . S
C887 C888 1.398 1_554 S
C887 C893 1.491 1_544 S
C888 H879 0.950 . S
C888 C887 1.398 1_556 S
C888 C889 1.391 1_556 S
C889 H877 0.950 1_554 S
C889 C885 1.393 . S
C889 C888 1.391 1_554 S
C890 H880 0.950 . S
C890 C891 1.386 . S
C890 C892 1.391 . S
C891 C890 1.386 . S
C891 C895 1.407 . S
C892 H881 0.950 . S
C892 C890 1.391 . S
C892 C893 1.400 . S
C893 C887 1.491 1_566 S
C893 C892 1.400 . S
C893 C894 1.398 1_556 S
C894 H882 0.950 . S
C894 C893 1.398 1_554 S
C894 C895 1.385 1_554 S
C895 H883 0.941 1_556 S
C895 C891 1.407 . S
C895 C894 1.385 1_556 S
H896 C904 0.950 . S
H897 C909 0.950 . S
H898 C906 0.950 . S
H899 C908 0.950 . S
H900 C910 0.950 . S
H901 C912 0.950 . S
H902 C914 0.950 . S
H903 C915 0.950 . S
C904 H896 0.950 . S
C904 C905 1.386 . S
C904 C906 1.391 . S
C905 C904 1.386 . S
C905 C909 1.393 . S
C906 H898 0.950 . S
C906 C904 1.391 . S
C906 C907 1.400 . S
C907 C906 1.400 . S
C907 C908 1.398 . S
C907 C913 1.491 . S
C908 H899 0.950 . S
C908 C907 1.398 . S
C908 C909 1.391 . S
C909 H897 0.950 . S
C909 C905 1.393 . S
C909 C908 1.391 . S
C910 H900 0.950 . S
C910 C911 1.386 . S
C910 C912 1.391 . S
C911 C910 1.386 . S
C911 C915 1.393 . S
C912 H901 0.950 . S
C912 C910 1.391 . S
C912 C913 1.400 . S
C913 C907 1.491 . S
C913 C912 1.400 . S
C913 C914 1.398 . S
C914 H902 0.950 . S
C914 C913 1.398 . S
C914 C915 1.391 . S
C915 H903 0.950 . S
C915 C911 1.393 . S
C915 C914 1.391 . S
H916 C924 0.950 . S
H917 C929 0.950 . S
H918 C926 0.950 . S
H919 C928 0.950 . S
H920 C930 0.950 . S
H921 C932 0.950 . S
H922 C934 0.950 . S
H923 C935 0.950 . S
C924 H916 0.950 . S
C924 C925 1.386 . S
C924 C926 1.391 . S
C925 C924 1.386 . S
C925 C929 1.393 . S
C926 H918 0.950 . S
C926 C924 1.391 . S
C926 C927 1.400 . S
C927 C926 1.400 . S
C927 C928 1.398 . S
C927 C933 1.491 1_455 S
C928 H919 0.950 . S
C928 C927 1.398 . S
C928 C929 1.391 . S
C929 H917 0.950 . S
C929 C925 1.393 . S
C929 C928 1.391 . S
C930 H920 0.950 . S
C930 C931 1.386 . S
C930 C932 1.391 . S
C931 C930 1.386 . S
C931 C935 1.393 . S
C932 H921 0.950 . S
C932 C930 1.391 . S
C932 C933 1.400 . S
C933 C927 1.491 1_655 S
C933 C932 1.400 . S
C933 C934 1.398 . S
C934 H922 0.950 . S
C934 C933 1.398 . S
C934 C935 1.391 . S
C935 H923 0.950 . S
C935 C931 1.393 . S
C935 C934 1.391 . S
H936 C944 0.950 . S
H937 C949 0.950 . S
H938 C946 0.950 . S
H939 C948 0.950 . S
H940 C950 0.950 . S
H941 C952 0.950 . S
H942 C954 0.950 . S
H943 C955 0.950 . S
C944 H936 0.950 . S
C944 C945 1.386 . S
C944 C946 1.391 . S
C945 C944 1.386 . S
C945 C949 1.393 . S
C946 H938 0.950 . S
C946 C944 1.391 . S
C946 C947 1.400 . S
C947 C946 1.400 . S
C947 C948 1.398 . S
C947 C953 1.491 1_565 S
C948 H939 0.950 . S
C948 C947 1.398 . S
C948 C949 1.391 . S
C949 H937 0.950 . S
C949 C945 1.393 . S
C949 C948 1.391 . S
C950 H940 0.950 . S
C950 C951 1.386 . S
C950 C952 1.391 . S
C951 C950 1.386 . S
C951 C955 1.393 . S
C952 H941 0.950 . S
C952 C950 1.391 . S
C952 C953 1.400 . S
C953 C947 1.491 1_545 S
C953 C952 1.400 . S
C953 C954 1.398 . S
C954 H942 0.950 . S
C954 C953 1.398 . S
C954 C955 1.391 . S
C955 H943 0.950 . S
C955 C951 1.393 . S
C955 C954 1.391 . S
H956 C964 0.950 . S
H957 C969 0.950 . S
H958 C966 0.950 . S
H959 C968 0.950 . S
H960 C970 0.950 . S
H961 C972 0.950 . S
H962 C974 0.950 . S
H963 C975 0.950 . S
C964 H956 0.950 . S
C964 C965 1.386 . S
C964 C966 1.391 . S
C965 C964 1.386 . S
C965 C969 1.393 . S
C966 H958 0.950 . S
C966 C964 1.391 . S
C966 C967 1.400 . S
C967 C966 1.400 . S
C967 C968 1.398 . S
C967 C973 1.491 . S
C968 H959 0.950 . S
C968 C967 1.398 . S
C968 C969 1.391 . S
C969 H957 0.950 . S
C969 C965 1.393 . S
C969 C968 1.391 . S
C970 H960 0.950 . S
C970 C971 1.386 . S
C970 C972 1.391 . S
C971 C970 1.386 . S
C971 C975 1.393 . S
C972 H961 0.950 . S
C972 C970 1.391 . S
C972 C973 1.400 . S
C973 C967 1.491 . S
C973 C972 1.400 . S
C973 C974 1.398 . S
C974 H962 0.950 . S
C974 C973 1.398 . S
C974 C975 1.391 . S
C975 H963 0.950 . S
C975 C971 1.393 . S
C975 C974 1.391 . S
H976 C984 0.950 . S
H977 C989 0.950 . S
H978 C986 0.950 . S
H979 C988 0.950 . S
H980 C990 0.950 . S
H981 C992 0.950 . S
H982 C994 0.950 . S
H983 C995 0.950 . S
C984 H976 0.950 . S
C984 C985 1.386 . S
C984 C986 1.391 . S
C985 C984 1.386 . S
C985 C989 1.393 . S
C986 H978 0.950 . S
C986 C984 1.391 . S
C986 C987 1.400 . S
C987 C986 1.400 . S
C987 C988 1.398 . S
C987 C993 1.491 1_455 S
C988 H979 0.950 . S
C988 C987 1.398 . S
C988 C989 1.391 . S
C989 H977 0.950 . S
C989 C985 1.393 . S
C989 C988 1.391 . S
C990 H980 0.950 . S
C990 C991 1.386 . S
C990 C992 1.391 . S
C991 C990 1.386 . S
C991 C995 1.393 . S
C992 H981 0.950 . S
C992 C990 1.391 . S
C992 C993 1.400 . S
C993 C987 1.491 1_655 S
C993 C992 1.400 . S
C993 C994 1.398 . S
C994 H982 0.950 . S
C994 C993 1.398 . S
C994 C995 1.391 . S
C995 H983 0.950 . S
C995 C991 1.393 . S
C995 C994 1.391 . S
C405 C281 1.300 . S
C411 C17 1.295 . S
C425 C314 1.298 . S
C431 C50 1.290 . S
C445 C347 1.288 . S
C451 C83 1.295 . S
C465 C380 1.289 . S
C471 C116 1.297 . S
C485 C149 1.300 . S
C491 C215 1.294 . S
C505 C248 1.289 . S
C511 C182 1.289 . S
C525 N5 1.426 . S
C531 N14 1.422 . S
C545 N47 1.422 . S
C551 N38 1.425 1_556 S
C565 N80 1.420 . S
C571 N71 1.424 . S
C585 N113 1.418 . S
C591 N104 1.421 . S
C605 N146 1.409 . S
C611 N137 1.414 . S
C625 N179 1.422 . S
C631 N170 1.426 . S
C645 N203 1.426 1_554 S
C651 N212 1.423 . S
C665 N245 1.413 . S
C671 N236 1.417 . S
C685 N269 1.414 . S
C691 N278 1.410 . S
C705 N302 1.419 . S
C711 N311 1.416 . S
C725 N335 1.417 . S
C731 N344 1.414 . S
C745 N377 1.422 . S
C751 N368 1.426 . S
C765 C8 1.556 . S
C771 C338 1.560 . S
C785 C41 1.558 . S
C791 C371 1.555 . S
C805 C74 1.555 . S
C811 C206 1.560 . S
C825 C239 1.558 . S
C831 C107 1.555 . S
C845 C272 1.556 1_556 S
C851 C140 1.559 . S
C865 C305 1.557 . S
C871 C173 1.551 1_554 S
C885 C28 1.158 . S
C891 C259 1.136 . S
C905 C292 1.158 . S
C911 C61 1.134 . S
C925 C325 1.158 . S
C931 C94 1.134 . S
C945 C127 1.151 . S
C951 C358 1.144 . S
C965 C391 1.141 . S
C971 C160 1.150 . S
C985 C193 1.152 . S
C991 C226 1.143 . S
