# Generated by pormake.
# Topology dia, (4)-cn, num edge types: 1
# Building blocks:
#     Node 0, Type 0, BuildingBlock: QUQFOY_clean_sbu_1, # of connection points: 4
#     Node 1, Type 0, BuildingBlock: QUQFOY_clean_sbu_1, # of connection points: 4
#     Node 2, Type 0, BuildingBlock: QUQFOY_clean_sbu_1, # of connection points: 4
#     Node 3, Type 0, BuildingBlock: QUQFOY_clean_sbu_1, # of connection points: 4
#     Node 4, Type 0, BuildingBlock: QUQFOY_clean_sbu_1, # of connection points: 4
#     Node 5, Type 0, BuildingBlock: QUQFOY_clean_sbu_1, # of connection points: 4
#     Node 6, Type 0, BuildingBlock: QUQFOY_clean_sbu_1, # of connection points: 4
#     Node 7, Type 0, BuildingBlock: QUQFOY_clean_sbu_1, # of connection points: 4
#     Edge 8, Type (0, 0), BuildingBlock: KIFKEQ_clean_linker_1, # of connection points: 2
#     Edge 9, Type (0, 0), BuildingBlock: KIFKEQ_clean_linker_1, # of connection points: 2
#     Edge 10, Type (0, 0), BuildingBlock: KIFKEQ_clean_linker_1, # of connection points: 2
#     Edge 11, Type (0, 0), BuildingBlock: KIFKEQ_clean_linker_1, # of connection points: 2
#     Edge 12, Type (0, 0), BuildingBlock: KIFKEQ_clean_linker_1, # of connection points: 2
#     Edge 13, Type (0, 0), BuildingBlock: KIFKEQ_clean_linker_1, # of connection points: 2
#     Edge 14, Type (0, 0), BuildingBlock: KIFKEQ_clean_linker_1, # of connection points: 2
#     Edge 15, Type (0, 0), BuildingBlock: KIFKEQ_clean_linker_1, # of connection points: 2
#     Edge 16, Type (0, 0), BuildingBlock: KIFKEQ_clean_linker_1, # of connection points: 2
#     Edge 17, Type (0, 0), BuildingBlock: KIFKEQ_clean_linker_1, # of connection points: 2
#     Edge 18, Type (0, 0), BuildingBlock: KIFKEQ_clean_linker_1, # of connection points: 2
#     Edge 19, Type (0, 0), BuildingBlock: KIFKEQ_clean_linker_1, # of connection points: 2
#     Edge 20, Type (0, 0), BuildingBlock: KIFKEQ_clean_linker_1, # of connection points: 2
#     Edge 21, Type (0, 0), BuildingBlock: KIFKEQ_clean_linker_1, # of connection points: 2
#     Edge 22, Type (0, 0), BuildingBlock: KIFKEQ_clean_linker_1, # of connection points: 2
#     Edge 23, Type (0, 0), BuildingBlock: KIFKEQ_clean_linker_1, # of connection points: 2
# Relax obj value: 0.200
# Max RMSD: 0.231
# Mean RMSD: 0.231
data_MOF--net-dia--node1-QUQFOY_clean_sbu_1--edge1-KIFKEQ_clean_linker_1
_symmetry_space_group_name_H-M    P1
_symmetry_Int_Tables_number       1
_symmetry_cell_setting            triclinic
loop_
_symmetry_equiv_pos_as_xyz
'x, y, z'
_cell_length_a     36.022467
_cell_length_b     36.137309
_cell_length_c     39.485492
_cell_angle_alpha  90.031075
_cell_angle_beta   90.036754
_cell_angle_gamma 99.149731
loop_
_atom_site_label
_atom_site_type_symbol
_atom_site_fract_x
_atom_site_fract_y
_atom_site_fract_z
_atom_type_partial_charge
O0 O 0.11955 0.14904 0.61697 0.0
Cd1 Cd 0.07887 0.11489 0.64354 0.0
Cd2 Cd 0.13207 0.0664 0.64115 0.0
O3 O 0.16225 0.11146 0.61616 0.0
O4 O 0.04049 0.14775 0.6524 0.0
O5 O 0.0701 0.12276 0.69337 0.0
C6 C 0.04572 0.14347 0.6843 0.0
C7 C 0.16398 0.03621 0.68158 0.0
C8 C 0.1516 0.14214 0.60801 0.0
C9 C 0.05881 0.04214 0.60541 0.0
O10 O 0.09068 0.03387 0.61335 0.0
O11 O 0.04889 0.07236 0.6158 0.0
O12 O 0.17012 0.03308 0.64966 0.0
O13 O 0.13939 0.05664 0.69078 0.0
O14 O 0.79855 0.33173 0.92305 0.0
Cd15 Cd 0.83277 0.36881 0.89263 0.0
Cd16 Cd 0.8762 0.31194 0.89372 0.0
O17 O 0.82997 0.28428 0.91872 0.0
O18 O 0.80181 0.40848 0.88271 0.0
O19 O 0.82136 0.3731 0.84292 0.0
C20 C 0.80292 0.39963 0.85118 0.0
C21 C 0.90458 0.27891 0.85293 0.0
C22 C 0.80214 0.29815 0.92995 0.0
C23 C 0.90804 0.38496 0.92673 0.0
O24 O 0.91138 0.35095 0.9216 0.0
O25 O 0.87985 0.39807 0.91528 0.0
O26 O 0.90686 0.27177 0.88474 0.0
O27 O 0.88572 0.30489 0.84403 0.0
O28 O 0.61472 0.14915 0.11431 0.0
Cd29 Cd 0.57635 0.11342 0.14228 0.0
Cd30 Cd 0.63416 0.07108 0.14218 0.0
O31 O 0.66276 0.11864 0.12002 0.0
O32 O 0.53564 0.14336 0.15166 0.0
O33 O 0.56946 0.12262 0.19209 0.0
C34 C 0.54306 0.14109 0.18342 0.0
C35 C 0.6655 0.04085 0.18302 0.0
C36 C 0.64894 0.14648 0.10886 0.0
C37 C 0.56319 0.04029 0.10493 0.0
O38 O 0.59713 0.03723 0.11133 0.0
O39 O 0.54883 0.06738 0.11698 0.0
O40 O 0.67439 0.04049 0.15146 0.0
O41 O 0.63871 0.05883 0.19167 0.0
O42 O 0.79863 0.82478 0.41952 0.0
Cd43 Cd 0.83033 0.86598 0.39154 0.0
Cd44 Cd 0.88098 0.81494 0.39274 0.0
O45 O 0.8386 0.78433 0.42079 0.0
O46 O 0.79541 0.90257 0.38315 0.0
O47 O 0.82069 0.87375 0.34185 0.0
C48 C 0.79923 0.89731 0.3512 0.0
C49 C 0.91005 0.7829 0.35169 0.0
C50 C 0.80745 0.79386 0.42935 0.0
C51 C 0.90472 0.88951 0.42627 0.0
O52 O 0.91395 0.85833 0.41774 0.0
O53 O 0.87308 0.8978 0.41772 0.0
O54 O 0.91667 0.77939 0.38348 0.0
O55 O 0.88659 0.80476 0.34297 0.0
O56 O 0.11773 0.65092 0.11258 0.0
Cd57 Cd 0.07735 0.616 0.13918 0.0
Cd58 Cd 0.1337 0.57133 0.13966 0.0
O59 O 0.16386 0.61772 0.11692 0.0
O60 O 0.039 0.64879 0.14824 0.0
O61 O 0.06845 0.62313 0.18899 0.0
C62 C 0.04441 0.64431 0.18011 0.0
C63 C 0.1645 0.54063 0.18052 0.0
C64 C 0.15142 0.64669 0.10659 0.0
C65 C 0.06207 0.54285 0.10198 0.0
O66 O 0.09529 0.53815 0.10954 0.0
O67 O 0.04891 0.57126 0.11276 0.0
O68 O 0.17269 0.5393 0.14886 0.0
O69 O 0.13861 0.55971 0.18925 0.0
O70 O 0.29496 0.32662 0.41873 0.0
Cd71 Cd 0.328 0.36673 0.39064 0.0
Cd72 Cd 0.37715 0.31403 0.39231 0.0
O73 O 0.33294 0.2843 0.41883 0.0
O74 O 0.29449 0.40446 0.38177 0.0
O75 O 0.31863 0.37404 0.34086 0.0
C76 C 0.29798 0.39847 0.34989 0.0
C77 C 0.40654 0.2812 0.35204 0.0
C78 C 0.30241 0.29489 0.42775 0.0
C79 C 0.40243 0.38811 0.42612 0.0
O80 O 0.41052 0.35618 0.41848 0.0
O81 O 0.37161 0.39757 0.41657 0.0
O82 O 0.41057 0.27608 0.38401 0.0
O83 O 0.38563 0.30528 0.34269 0.0
O84 O 0.30261 0.83261 0.92211 0.0
Cd85 Cd 0.33592 0.87075 0.89192 0.0
Cd86 Cd 0.38053 0.81425 0.89214 0.0
O87 O 0.33571 0.78628 0.91879 0.0
O88 O 0.30401 0.90983 0.88264 0.0
O89 O 0.32434 0.87571 0.84229 0.0
C90 C 0.30536 0.90167 0.85097 0.0
C91 C 0.40876 0.78051 0.85174 0.0
C92 C 0.30734 0.79951 0.9297 0.0
C93 C 0.41167 0.888 0.92492 0.0
O94 O 0.41586 0.85445 0.9186 0.0
O95 O 0.38258 0.90052 0.91483 0.0
O96 O 0.41318 0.77562 0.88369 0.0
O97 O 0.38772 0.8045 0.84246 0.0
O98 O 0.62288 0.64783 0.6169 0.0
Cd99 Cd 0.58017 0.61438 0.64168 0.0
Cd100 Cd 0.63169 0.56419 0.63987 0.0
O101 O 0.66356 0.60823 0.61491 0.0
O102 O 0.54436 0.64993 0.65059 0.0
O103 O 0.56909 0.61984 0.69139 0.0
C104 C 0.54738 0.64332 0.68241 0.0
C105 C 0.66243 0.53311 0.68045 0.0
C106 C 0.65437 0.63979 0.60763 0.0
C107 C 0.55854 0.54247 0.60295 0.0
O108 O 0.58945 0.53283 0.61213 0.0
O109 O 0.5497 0.57352 0.6124 0.0
O110 O 0.66828 0.52942 0.64854 0.0
O111 O 0.63867 0.5545 0.68953 0.0
H112 H 0.24814 0.31732 0.46727 0.0
H113 H 0.30103 0.22113 0.4438 0.0
H114 H 0.21297 0.28251 0.51263 0.0
H115 H 0.26445 0.18555 0.48822 0.0
H116 H 0.12922 0.19758 0.57013 0.0
H117 H 0.16399 0.23368 0.52531 0.0
H118 H 0.26124 0.1816 0.54797 0.0
H119 H 0.22567 0.14409 0.59186 0.0
C120 C 0.25164 0.28842 0.47132 0.0
C121 C 0.27742 0.27197 0.45201 0.0
C122 C 0.23142 0.26841 0.49736 0.0
C123 C 0.23608 0.23128 0.50436 0.0
C124 C 0.26085 0.2144 0.48413 0.0
C125 C 0.2815 0.23461 0.45839 0.0
C126 C 0.15819 0.19417 0.56585 0.0
C127 C 0.17468 0.16789 0.58446 0.0
C128 C 0.17819 0.21494 0.54012 0.0
C129 C 0.21535 0.21033 0.53272 0.0
C130 C 0.23236 0.18518 0.55237 0.0
C131 C 0.21215 0.16399 0.57781 0.0
H132 H 0.72207 0.49699 0.66902 0.0
H133 H 0.64887 0.52485 0.74847 0.0
H134 H 0.75644 0.46525 0.70991 0.0
H135 H 0.68233 0.4917 0.78934 0.0
H136 H 0.77372 0.46399 0.8597 0.0
H137 H 0.74023 0.49624 0.81851 0.0
H138 H 0.7523 0.41107 0.74416 0.0
H139 H 0.78725 0.37961 0.78518 0.0
C140 C 0.7131 0.49605 0.69523 0.0
C141 C 0.68277 0.51349 0.70554 0.0
C142 C 0.73269 0.47759 0.71868 0.0
C143 C 0.7222 0.47575 0.75299 0.0
C144 C 0.69163 0.49304 0.76324 0.0
C145 C 0.67227 0.51188 0.7398 0.0
C146 C 0.76932 0.45218 0.83452 0.0
C147 C 0.78314 0.41925 0.82567 0.0
C148 C 0.74982 0.47055 0.81094 0.0
C149 C 0.74328 0.45622 0.77799 0.0
C150 C 0.75724 0.42325 0.76913 0.0
C151 C 0.77714 0.40508 0.79267 0.0
H152 H 0.48851 0.0342 0.08985 0.0
H153 H 0.58887 -0.01118 0.06396 0.0
H154 H 0.45439 -0.00269 0.04487 0.0
H155 H 0.55496 0.95273 0.01829 0.0
H156 H 0.46852 0.86593 0.96184 0.0
H157 H 0.50566 0.90114 1.00615 0.0
H158 H 0.45284 -0.00232 0.98388 0.0
H159 H 0.41487 0.96216 0.94025 0.0
C160 C 0.50325 0.01621 0.07467 0.0
C161 C 0.54144 0.01456 0.08041 0.0
C162 C 0.4838 -0.00464 0.04864 0.0
C163 C 0.50214 -0.02742 0.02761 0.0
C164 C 0.53998 -0.03011 0.03411 0.0
C165 C 0.5594 -0.00941 0.06031 0.0
C166 C 0.4652 0.89485 0.96605 0.0
C167 C 0.43848 0.91115 0.94771 0.0
C168 C 0.48654 0.91503 0.99147 0.0
C169 C 0.48175 0.952 0.99892 0.0
C170 C 0.45646 -0.03109 0.97935 0.0
C171 C 0.43498 0.94868 0.9541 0.0
H172 H 0.89044 0.76862 0.28544 0.0
H173 H 0.97263 0.75072 0.36082 0.0
H174 H 0.9213 0.7333 0.24436 0.0
H175 H 0.00466 0.7172 0.31955 0.0
H176 H 0.00713 0.70302 0.16929 0.0
H177 H 0.97478 0.7363 0.21048 0.0
H178 H 0.00153 0.66139 0.28905 0.0
H179 H 0.03565 0.62934 0.24786 0.0
C180 C 0.91533 0.75744 0.2931 0.0
C181 C 0.92907 0.76238 0.32632 0.0
C182 C 0.93321 0.73734 0.26952 0.0
C183 C 0.96561 0.72227 0.2785 0.0
C184 C 0.9794 0.7276 0.31178 0.0
C185 C 0.96118 0.74714 0.33544 0.0
C186 C 0.00608 0.69364 0.19538 0.0
C187 C 0.02401 0.66361 0.20537 0.0
C188 C -0.01276 0.71258 0.21903 0.0
C189 C -0.01468 0.70161 0.25323 0.0
C190 C 0.00294 0.67116 0.2631 0.0
C191 C 0.02233 0.65258 0.23948 0.0
H192 H 0.29079 0.88323 0.78445 0.0
H193 H 0.27462 0.96499 0.86063 0.0
H194 H 0.25584 0.91515 0.7438 0.0
H195 H 0.2411 -0.00227 0.81983 0.0
H196 H 0.14994 0.02647 0.74942 0.0
H197 H 0.18365 -0.00681 0.78998 0.0
H198 H 0.25956 -0.02984 0.71072 0.0
H199 H 0.22496 0.00204 0.6701 0.0
C200 C 0.28008 0.90821 0.7924 0.0
C201 C 0.28537 0.92151 0.82575 0.0
C202 C 0.26018 0.92667 0.76907 0.0
C203 C 0.2455 0.95907 0.77848 0.0
C204 C 0.25128 -0.0275 0.8118 0.0
C205 C 0.27078 0.95385 0.83517 0.0
C206 C 0.17382 0.01426 0.74072 0.0
C207 C 0.18472 0.01682 0.70657 0.0
C208 C 0.19332 -0.00466 0.76399 0.0
C209 C 0.22442 -0.0211 0.75369 0.0
C210 C 0.23538 -0.01821 0.71951 0.0
C211 C 0.21567 0.00034 0.69622 0.0
H212 H 0.91414 0.46022 0.93796 0.0
H213 H 0.96204 0.36256 0.96706 0.0
H214 H 0.95256 0.49722 0.98041 0.0
H215 H -0.00037 0.39934 1.01023 0.0
H216 H 0.08561 0.48738 0.06443 0.0
H217 H 0.05091 0.44963 0.02017 0.0
H218 H 0.95328 0.50155 0.04123 0.0
H219 H -0.01174 0.54008 0.08475 0.0
C220 C 0.93305 0.4467 0.95327 0.0
C221 C 0.93487 0.4084 0.94927 0.0
C222 C 0.9548 0.46782 0.97782 0.0
C223 C 0.97866 0.45107 0.9991 0.0
C224 C -0.01834 0.41314 0.99416 0.0
C225 C 0.96008 0.39205 0.96941 0.0
C226 C 0.05662 0.4905 0.05983 0.0
C227 C 0.03975 0.5169 0.07798 0.0
C228 C 0.03673 0.46882 0.03447 0.0
C229 C -0.0005 0.47294 0.02687 0.0
C230 C -0.01777 0.49837 0.04588 0.0
C231 C 0.00217 0.5202 0.07107 0.0
H232 H 0.44097 0.22065 0.3641 0.0
H233 H 0.41525 0.29382 0.28393 0.0
H234 H 0.47273 0.18561 0.32377 0.0
H235 H 0.44843 0.25971 0.24364 0.0
H236 H 0.47828 0.16953 0.17373 0.0
H237 H 0.44451 0.20217 0.21441 0.0
H238 H 0.5278 0.18943 0.29062 0.0
H239 H 0.56073 0.15533 0.2501 0.0
C240 C 0.44233 0.22942 0.33784 0.0
C241 C 0.42558 0.26001 0.32718 0.0
C242 C 0.4608 0.20945 0.31472 0.0
C243 C 0.46336 0.21982 0.28038 0.0
C244 C 0.44655 0.2505 0.26975 0.0
C245 C 0.42768 0.27023 0.29287 0.0
C246 C 0.4893 0.17356 0.19923 0.0
C247 C 0.52219 0.15987 0.20872 0.0
C248 C 0.47007 0.19257 0.22252 0.0
C249 C 0.48347 0.19876 0.25582 0.0
C250 C 0.5163 0.18477 0.26536 0.0
C251 C 0.53532 0.16535 0.24211 0.0
H252 H 0.80697 0.72019 0.44546 0.0
H253 H 0.75389 0.81603 0.46963 0.0
H254 H 0.77033 0.68414 0.48965 0.0
H255 H 0.71891 0.78095 0.51484 0.0
H256 H 0.63388 0.69658 0.57048 0.0
H257 H 0.66974 0.73287 0.52652 0.0
H258 H 0.76528 0.67803 0.54891 0.0
H259 H 0.72839 0.64012 0.59186 0.0
C260 C 0.78744 0.7335 0.46021 0.0
C261 C 0.78313 0.77082 0.45396 0.0
C262 C 0.76676 0.71303 0.48582 0.0
C263 C 0.74182 0.72967 0.5061 0.0
C264 C 0.73732 0.76693 0.49947 0.0
C265 C 0.75746 0.78713 0.47352 0.0
C266 C 0.6627 0.69257 0.56634 0.0
C267 C 0.6783 0.66544 0.58461 0.0
C268 C 0.68337 0.71349 0.5411 0.0
C269 C 0.72041 0.70829 0.5339 0.0
C270 C 0.73653 0.68217 0.55317 0.0
C271 C 0.71558 0.66074 0.57808 0.0
H272 H 0.14564 0.52576 0.24685 0.0
H273 H 0.22787 0.50975 0.1709 0.0
H274 H 0.17729 0.4905 0.28742 0.0
H275 H 0.26038 0.47592 0.21164 0.0
H276 H 0.28859 0.38462 0.28195 0.0
H277 H 0.25554 0.41848 0.24129 0.0
H278 H 0.23233 0.49407 0.32065 0.0
H279 H 0.26394 0.45935 0.36131 0.0
C280 C 0.17068 0.51502 0.23894 0.0
C281 C 0.1842 0.52046 0.20569 0.0
C282 C 0.18897 0.49495 0.26222 0.0
C283 C 0.22144 0.48024 0.25285 0.0
C284 C 0.23509 0.48613 0.21962 0.0
C285 C 0.21658 0.50582 0.1963 0.0
C286 C 0.27638 0.40846 0.29064 0.0
C287 C 0.27878 0.41924 0.32482 0.0
C288 C 0.25759 0.42804 0.26732 0.0
C289 C 0.24116 0.45908 0.27764 0.0
C290 C 0.24394 0.46993 0.31185 0.0
C291 C 0.26234 0.45015 0.33516 0.0
H292 H 0.79782 0.22426 0.94636 0.0
H293 H 0.74793 0.32273 0.96863 0.0
H294 H 0.7603 0.19017 0.9909 0.0
H295 H 0.71107 0.28879 1.01384 0.0
H296 H 0.62502 0.20052 0.0697 0.0
H297 H 0.66027 0.23777 0.02548 0.0
H298 H 0.75947 0.19085 0.05213 0.0
H299 H 0.72407 0.15289 0.0957 0.0
C300 C 0.7787 0.23858 0.96063 0.0
C301 C 0.77602 0.27626 0.95407 0.0
C302 C 0.75747 0.21915 0.9864 0.0
C303 C 0.73323 0.237 1.00631 0.0
C304 C 0.72943 0.27424 0.9989 0.0
C305 C 0.75056 0.29366 0.97298 0.0
C306 C 0.6545 0.19855 0.06646 0.0
C307 C 0.67166 0.17346 0.08601 0.0
C308 C 0.67469 0.21993 0.0411 0.0
C309 C 0.71246 0.21676 0.03491 0.0
C310 C 0.73011 0.19317 0.05569 0.0
C311 C 0.70992 0.17168 0.08089 0.0
H312 H 0.79136 0.8853 0.28285 0.0
H313 H 0.76294 0.95648 0.36358 0.0
H314 H 0.75828 0.91954 0.24252 0.0
H315 H 0.73128 -0.0084 0.32329 0.0
H316 H 0.64547 0.02376 0.24873 0.0
H317 H 0.67704 -0.01191 0.28901 0.0
H318 H 0.7626 -0.02215 0.21436 0.0
H319 H 0.73021 0.0121 0.17386 0.0
C320 C 0.77827 0.90842 0.29192 0.0
C321 C 0.77969 0.91811 0.32638 0.0
C322 C 0.75948 0.92823 0.2688 0.0
C323 C 0.74203 0.95843 0.27958 0.0
C324 C 0.74372 -0.03187 0.3141 0.0
C325 C 0.76214 0.94811 0.33721 0.0
C326 C 0.67105 0.01391 0.24101 0.0
C327 C 0.68529 0.02067 0.20813 0.0
C328 C 0.68929 -0.00641 0.26413 0.0
C329 C 0.72242 -0.02006 0.25499 0.0
C330 C 0.7368 -0.0128 0.22215 0.0
C331 C 0.71836 0.00714 0.19897 0.0
H332 H 0.88397 0.94394 0.46612 0.0
H333 H 0.97921 0.89015 0.44082 0.0
H334 H 0.92019 -0.02082 0.51045 0.0
H335 H 0.01654 0.92722 0.48419 0.0
H336 H 0.06083 -0.03079 0.58749 0.0
H337 H 0.02397 0.93294 0.54335 0.0
H338 H 0.96837 0.02793 0.52159 0.0
H339 H 0.00342 0.063 0.56668 0.0
C340 C 0.91303 0.94033 0.46949 0.0
C341 C 0.92877 0.91432 0.44992 0.0
C342 C 0.93392 0.96066 0.49496 0.0
C343 C 0.97138 0.9561 0.50107 0.0
C344 C -0.01246 0.9309 0.48071 0.0
C345 C 0.96633 0.90999 0.45557 0.0
C346 C 0.04032 -0.01798 0.5735 0.0
C347 C 0.03478 0.01879 0.58074 0.0
C348 C 0.0195 0.96144 0.54793 0.0
C349 C -0.00677 -0.02251 0.5287 0.0
C350 C -0.01228 0.01427 0.53621 0.0
C351 C 0.00794 0.03449 0.56211 0.0
H352 H 0.91846 0.29602 0.78615 0.0
H353 H 0.93423 0.21503 0.86308 0.0
H354 H 0.95286 0.26324 0.74578 0.0
H355 H 0.96718 0.18136 0.82253 0.0
H356 H 0.05888 0.15241 0.75237 0.0
H357 H 0.02462 0.1853 0.79282 0.0
H358 H 0.94905 0.20808 0.7131 0.0
H359 H -0.01578 0.17666 0.67264 0.0
C360 C 0.92889 0.27097 0.79431 0.0
C361 C 0.92373 0.25818 0.82779 0.0
C362 C 0.94848 0.25202 0.77114 0.0
C363 C 0.96295 0.2196 0.78085 0.0
C364 C 0.95716 0.20659 0.81428 0.0
C365 C 0.93798 0.22576 0.83749 0.0
C366 C 0.03493 0.16444 0.74358 0.0
C367 C 0.02435 0.16207 0.70933 0.0
C368 C 0.01511 0.18314 0.76677 0.0
C369 C -0.01599 0.19949 0.75628 0.0
C370 C 0.97324 0.19655 0.72204 0.0
C371 C -0.00672 0.17827 0.69884 0.0
H372 H 0.53239 0.62431 0.74868 0.0
H373 H 0.51547 0.70576 0.67258 0.0
H374 H 0.49692 0.65573 0.78928 0.0
H375 H 0.48182 0.7383 0.71333 0.0
H376 H 0.39384 0.77086 0.78403 0.0
H377 H 0.4257 0.73586 0.74343 0.0
H378 H 0.50021 0.70952 0.82272 0.0
H379 H 0.4671 0.74279 0.86334 0.0
C380 C 0.52138 0.64914 0.74076 0.0
C381 C 0.52664 0.66252 0.70747 0.0
C382 C 0.50119 0.66733 0.76405 0.0
C383 C 0.48637 0.69969 0.7547 0.0
C384 C 0.49201 0.71309 0.72137 0.0
C385 C 0.51162 0.69457 0.69801 0.0
C386 C 0.41694 0.75744 0.79271 0.0
C387 C 0.42793 0.75954 0.82684 0.0
C388 C 0.43542 0.73754 0.76942 0.0
C389 C 0.46572 0.71981 0.77966 0.0
C390 C 0.47661 0.72208 0.8139 0.0
C391 C 0.45778 0.74145 0.83722 0.0
H392 H 0.12947 0.70227 0.06821 0.0
H393 H 0.22643 0.65097 0.09351 0.0
H394 H 0.16582 0.7396 0.02477 0.0
H395 H 0.26313 0.68922 0.05083 0.0
H396 H 0.25357 0.8238 0.96898 0.0
H397 H 0.21668 0.7895 1.0139 0.0
H398 H 0.26582 0.691 0.99014 0.0
H399 H 0.30358 0.72561 0.946 0.0
C400 C 0.15877 0.69952 0.065 0.0
C401 C 0.17499 0.67342 0.08412 0.0
C402 C 0.17963 0.72097 0.04009 0.0
C403 C 0.21722 0.71698 0.03397 0.0
C404 C 0.23394 0.69225 0.0543 0.0
C405 C 0.21302 0.67059 0.07901 0.0
C406 C 0.25623 0.79471 0.97312 0.0
C407 C 0.28165 0.77747 0.95403 0.0
C408 C 0.23505 0.77505 0.99888 0.0
C409 C 0.23866 0.73766 1.00591 0.0
C410 C 0.26308 0.72006 0.98596 0.0
C411 C 0.28444 0.73978 0.96041 0.0
H412 H 0.38365 0.44563 0.46327 0.0
H413 H 0.4759 0.38576 0.44266 0.0
H414 H 0.4205 0.48166 0.50681 0.0
H415 H 0.51389 0.42346 0.48522 0.0
H416 H 0.5573 0.46833 0.58795 0.0
H417 H 0.52007 0.43165 0.54433 0.0
H418 H 0.47067 0.52902 0.51683 0.0
H419 H 0.50615 0.56472 0.56145 0.0
C420 C 0.4122 0.44076 0.46752 0.0
C421 C 0.4269 0.41287 0.44949 0.0
C422 C 0.43344 0.46156 0.49251 0.0
C423 C 0.47024 0.45553 0.49968 0.0
C424 C 0.48538 0.42835 0.48089 0.0
C425 C 0.46381 0.40703 0.45622 0.0
C426 C 0.53811 0.48164 0.57278 0.0
C427 C 0.53439 0.51926 0.57829 0.0
C428 C 0.51708 0.46079 0.54752 0.0
C429 C 0.49241 0.47736 0.52687 0.0
C430 C 0.48876 0.51502 0.53258 0.0
C431 C 0.50921 0.53559 0.55819 0.0
loop_
_geom_bond_atom_site_label_1
_geom_bond_atom_site_label_2
_geom_bond_distance
_geom_bond_site_symmetry_2
_ccdc_geom_bond_type
O0 Cd1 2.223 . S
O0 C8 1.315 . S
Cd1 O0 2.223 . S
Cd1 O4 2.297 . S
Cd1 O5 2.439 . S
Cd1 O11 2.240 . S
Cd2 O3 2.240 . S
Cd2 O10 2.223 . S
Cd2 O12 2.297 . S
Cd2 O13 2.439 . S
O3 Cd2 2.240 . S
O3 C8 1.279 . S
O4 Cd1 2.297 . S
O4 C6 1.247 . S
O5 Cd1 2.439 . S
O5 C6 1.208 . S
C6 O4 1.247 . S
C6 O5 1.208 . S
C7 O12 1.247 . S
C7 O13 1.208 . S
C8 O0 1.315 . S
C8 O3 1.279 . S
C9 O10 1.315 . S
C9 O11 1.279 . S
O10 Cd2 2.223 . S
O10 C9 1.315 . S
O11 Cd1 2.240 . S
O11 C9 1.279 . S
O12 Cd2 2.297 . S
O12 C7 1.247 . S
O13 Cd2 2.439 . S
O13 C7 1.208 . S
O14 Cd15 2.223 . S
O14 C22 1.315 . S
Cd15 O14 2.223 . S
Cd15 O18 2.297 . S
Cd15 O19 2.439 . S
Cd15 O25 2.240 . S
Cd16 O17 2.240 . S
Cd16 O24 2.223 . S
Cd16 O26 2.297 . S
Cd16 O27 2.439 . S
O17 Cd16 2.240 . S
O17 C22 1.279 . S
O18 Cd15 2.297 . S
O18 C20 1.247 . S
O19 Cd15 2.439 . S
O19 C20 1.208 . S
C20 O18 1.247 . S
C20 O19 1.208 . S
C21 O26 1.247 . S
C21 O27 1.208 . S
C22 O14 1.315 . S
C22 O17 1.279 . S
C23 O24 1.315 . S
C23 O25 1.279 . S
O24 Cd16 2.223 . S
O24 C23 1.315 . S
O25 Cd15 2.240 . S
O25 C23 1.279 . S
O26 Cd16 2.297 . S
O26 C21 1.247 . S
O27 Cd16 2.439 . S
O27 C21 1.208 . S
O28 Cd29 2.223 . S
O28 C36 1.315 . S
Cd29 O28 2.223 . S
Cd29 O32 2.297 . S
Cd29 O33 2.439 . S
Cd29 O39 2.240 . S
Cd30 O31 2.240 . S
Cd30 O38 2.223 . S
Cd30 O40 2.297 . S
Cd30 O41 2.439 . S
O31 Cd30 2.240 . S
O31 C36 1.279 . S
O32 Cd29 2.297 . S
O32 C34 1.247 . S
O33 Cd29 2.439 . S
O33 C34 1.208 . S
C34 O32 1.247 . S
C34 O33 1.208 . S
C35 O40 1.247 . S
C35 O41 1.208 . S
C36 O28 1.315 . S
C36 O31 1.279 . S
C37 O38 1.315 . S
C37 O39 1.279 . S
O38 Cd30 2.223 . S
O38 C37 1.315 . S
O39 Cd29 2.240 . S
O39 C37 1.279 . S
O40 Cd30 2.297 . S
O40 C35 1.247 . S
O41 Cd30 2.439 . S
O41 C35 1.208 . S
O42 Cd43 2.223 . S
O42 C50 1.315 . S
Cd43 O42 2.223 . S
Cd43 O46 2.297 . S
Cd43 O47 2.439 . S
Cd43 O53 2.240 . S
Cd44 O45 2.240 . S
Cd44 O52 2.223 . S
Cd44 O54 2.297 . S
Cd44 O55 2.439 . S
O45 Cd44 2.240 . S
O45 C50 1.279 . S
O46 Cd43 2.297 . S
O46 C48 1.247 . S
O47 Cd43 2.439 . S
O47 C48 1.208 . S
C48 O46 1.247 . S
C48 O47 1.208 . S
C49 O54 1.247 . S
C49 O55 1.208 . S
C50 O42 1.315 . S
C50 O45 1.279 . S
C51 O52 1.315 . S
C51 O53 1.279 . S
O52 Cd44 2.223 . S
O52 C51 1.315 . S
O53 Cd43 2.240 . S
O53 C51 1.279 . S
O54 Cd44 2.297 . S
O54 C49 1.247 . S
O55 Cd44 2.439 . S
O55 C49 1.208 . S
O56 Cd57 2.223 . S
O56 C64 1.315 . S
Cd57 O56 2.223 . S
Cd57 O60 2.297 . S
Cd57 O61 2.439 . S
Cd57 O67 2.240 . S
Cd58 O59 2.240 . S
Cd58 O66 2.223 . S
Cd58 O68 2.297 . S
Cd58 O69 2.439 . S
O59 Cd58 2.240 . S
O59 C64 1.279 . S
O60 Cd57 2.297 . S
O60 C62 1.247 . S
O61 Cd57 2.439 . S
O61 C62 1.208 . S
C62 O60 1.247 . S
C62 O61 1.208 . S
C63 O68 1.247 . S
C63 O69 1.208 . S
C64 O56 1.315 . S
C64 O59 1.279 . S
C65 O66 1.315 . S
C65 O67 1.279 . S
O66 Cd58 2.223 . S
O66 C65 1.315 . S
O67 Cd57 2.240 . S
O67 C65 1.279 . S
O68 Cd58 2.297 . S
O68 C63 1.247 . S
O69 Cd58 2.439 . S
O69 C63 1.208 . S
O70 Cd71 2.223 . S
O70 C78 1.315 . S
Cd71 O70 2.223 . S
Cd71 O74 2.297 . S
Cd71 O75 2.439 . S
Cd71 O81 2.240 . S
Cd72 O73 2.240 . S
Cd72 O80 2.223 . S
Cd72 O82 2.297 . S
Cd72 O83 2.439 . S
O73 Cd72 2.240 . S
O73 C78 1.279 . S
O74 Cd71 2.297 . S
O74 C76 1.247 . S
O75 Cd71 2.439 . S
O75 C76 1.208 . S
C76 O74 1.247 . S
C76 O75 1.208 . S
C77 O82 1.247 . S
C77 O83 1.208 . S
C78 O70 1.315 . S
C78 O73 1.279 . S
C79 O80 1.315 . S
C79 O81 1.279 . S
O80 Cd72 2.223 . S
O80 C79 1.315 . S
O81 Cd71 2.240 . S
O81 C79 1.279 . S
O82 Cd72 2.297 . S
O82 C77 1.247 . S
O83 Cd72 2.439 . S
O83 C77 1.208 . S
O84 Cd85 2.223 . S
O84 C92 1.315 . S
Cd85 O84 2.223 . S
Cd85 O88 2.297 . S
Cd85 O89 2.439 . S
Cd85 O95 2.240 . S
Cd86 O87 2.240 . S
Cd86 O94 2.223 . S
Cd86 O96 2.297 . S
Cd86 O97 2.439 . S
O87 Cd86 2.240 . S
O87 C92 1.279 . S
O88 Cd85 2.297 . S
O88 C90 1.247 . S
O89 Cd85 2.439 . S
O89 C90 1.208 . S
C90 O88 1.247 . S
C90 O89 1.208 . S
C91 O96 1.247 . S
C91 O97 1.208 . S
C92 O84 1.315 . S
C92 O87 1.279 . S
C93 O94 1.315 . S
C93 O95 1.279 . S
O94 Cd86 2.223 . S
O94 C93 1.315 . S
O95 Cd85 2.240 . S
O95 C93 1.279 . S
O96 Cd86 2.297 . S
O96 C91 1.247 . S
O97 Cd86 2.439 . S
O97 C91 1.208 . S
O98 Cd99 2.223 . S
O98 C106 1.315 . S
Cd99 O98 2.223 . S
Cd99 O102 2.297 . S
Cd99 O103 2.439 . S
Cd99 O109 2.240 . S
Cd100 O101 2.240 . S
Cd100 O108 2.223 . S
Cd100 O110 2.297 . S
Cd100 O111 2.439 . S
O101 Cd100 2.240 . S
O101 C106 1.279 . S
O102 Cd99 2.297 . S
O102 C104 1.247 . S
O103 Cd99 2.439 . S
O103 C104 1.208 . S
C104 O102 1.247 . S
C104 O103 1.208 . S
C105 O110 1.247 . S
C105 O111 1.208 . S
C106 O98 1.315 . S
C106 O101 1.279 . S
C107 O108 1.315 . S
C107 O109 1.279 . S
O108 Cd100 2.223 . S
O108 C107 1.315 . S
O109 Cd99 2.240 . S
O109 C107 1.279 . S
O110 Cd100 2.297 . S
O110 C105 1.247 . S
O111 Cd100 2.439 . S
O111 C105 1.208 . S
H112 C120 0.950 . S
H113 C125 0.950 . S
H114 C122 0.950 . S
H115 C124 0.950 . S
H116 C126 0.950 . S
H117 C128 0.950 . S
H118 C130 0.950 . S
H119 C131 0.950 . S
C120 H112 0.950 . S
C120 C121 1.386 . S
C120 C122 1.391 . S
C121 C120 1.386 . S
C121 C125 1.393 . S
C122 H114 0.950 . S
C122 C120 1.391 . S
C122 C123 1.400 . S
C123 C122 1.400 . S
C123 C124 1.398 . S
C123 C129 1.491 . S
C124 H115 0.950 . S
C124 C123 1.398 . S
C124 C125 1.391 . S
C125 H113 0.950 . S
C125 C121 1.393 . S
C125 C124 1.391 . S
C126 H116 0.950 . S
C126 C127 1.386 . S
C126 C128 1.391 . S
C127 C126 1.386 . S
C127 C131 1.393 . S
C128 H117 0.950 . S
C128 C126 1.391 . S
C128 C129 1.400 . S
C129 C123 1.491 . S
C129 C128 1.400 . S
C129 C130 1.398 . S
C130 H118 0.950 . S
C130 C129 1.398 . S
C130 C131 1.391 . S
C131 H119 0.950 . S
C131 C127 1.393 . S
C131 C130 1.391 . S
H132 C140 0.950 . S
H133 C145 0.950 . S
H134 C142 0.950 . S
H135 C144 0.950 . S
H136 C146 0.950 . S
H137 C148 0.950 . S
H138 C150 0.950 . S
H139 C151 0.950 . S
C140 H132 0.950 . S
C140 C141 1.386 . S
C140 C142 1.391 . S
C141 C140 1.386 . S
C141 C145 1.393 . S
C142 H134 0.950 . S
C142 C140 1.391 . S
C142 C143 1.400 . S
C143 C142 1.400 . S
C143 C144 1.398 . S
C143 C149 1.491 . S
C144 H135 0.950 . S
C144 C143 1.398 . S
C144 C145 1.391 . S
C145 H133 0.950 . S
C145 C141 1.393 . S
C145 C144 1.391 . S
C146 H136 0.950 . S
C146 C147 1.386 . S
C146 C148 1.391 . S
C147 C146 1.386 . S
C147 C151 1.393 . S
C148 H137 0.950 . S
C148 C146 1.391 . S
C148 C149 1.400 . S
C149 C143 1.491 . S
C149 C148 1.400 . S
C149 C150 1.398 . S
C150 H138 0.950 . S
C150 C149 1.398 . S
C150 C151 1.391 . S
C151 H139 0.950 . S
C151 C147 1.393 . S
C151 C150 1.391 . S
H152 C160 0.950 . S
H153 C165 0.950 1_565 S
H154 C162 0.950 . S
H155 C164 0.950 . S
H156 C166 0.950 . S
H157 C168 0.950 . S
H158 C170 0.950 1_545 S
H159 C171 0.950 . S
C160 H152 0.950 . S
C160 C161 1.386 . S
C160 C162 1.391 . S
C161 C160 1.386 . S
C161 C165 1.393 . S
C162 H154 0.950 . S
C162 C160 1.391 . S
C162 C163 1.381 1_545 S
C163 C162 1.381 1_565 S
C163 C164 1.409 . S
C163 C169 1.499 1_554 S
C164 H155 0.950 . S
C164 C163 1.409 . S
C164 C165 1.391 1_565 S
C165 H153 0.950 1_545 S
C165 C161 1.393 . S
C165 C164 1.391 1_545 S
C166 H156 0.950 . S
C166 C167 1.386 . S
C166 C168 1.391 . S
C167 C166 1.386 . S
C167 C171 1.393 . S
C168 H157 0.950 . S
C168 C166 1.391 . S
C168 C169 1.400 . S
C169 C163 1.499 1_556 S
C169 C168 1.400 . S
C169 C170 1.398 . S
C170 H158 0.950 1_565 S
C170 C169 1.398 . S
C170 C171 1.391 . S
C171 H159 0.950 . S
C171 C167 1.393 . S
C171 C170 1.391 . S
H172 C180 0.950 . S
H173 C185 0.950 . S
H174 C182 0.950 . S
H175 C184 0.950 . S
H176 C186 0.950 . S
H177 C188 0.950 . S
H178 C190 0.950 1_655 S
H179 C191 0.950 . S
C180 H172 0.950 . S
C180 C181 1.386 . S
C180 C182 1.391 . S
C181 C180 1.386 . S
C181 C185 1.393 1_655 S
C182 H174 0.950 . S
C182 C180 1.391 . S
C182 C183 1.400 1_655 S
C183 C182 1.400 1_455 S
C183 C184 1.398 . S
C183 C189 1.491 . S
C184 H175 0.950 . S
C184 C183 1.398 . S
C184 C185 1.391 . S
C185 H173 0.950 . S
C185 C181 1.393 1_455 S
C185 C184 1.391 . S
C186 H176 0.950 . S
C186 C187 1.386 . S
C186 C188 1.391 . S
C187 C186 1.386 . S
C187 C191 1.393 . S
C188 H177 0.950 . S
C188 C186 1.391 . S
C188 C189 1.400 . S
C189 C183 1.491 . S
C189 C188 1.400 . S
C189 C190 1.398 . S
C190 H178 0.950 1_455 S
C190 C189 1.398 . S
C190 C191 1.391 . S
C191 H179 0.950 . S
C191 C187 1.393 . S
C191 C190 1.391 . S
H192 C200 0.950 . S
H193 C205 0.950 . S
H194 C202 0.950 . S
H195 C204 0.950 . S
H196 C206 0.950 . S
H197 C208 0.950 . S
H198 C210 0.950 . S
H199 C211 0.950 . S
C200 H192 0.950 . S
C200 C201 1.386 . S
C200 C202 1.391 . S
C201 C200 1.386 . S
C201 C205 1.393 . S
C202 H194 0.950 . S
C202 C200 1.391 . S
C202 C203 1.400 . S
C203 C202 1.400 . S
C203 C204 1.398 . S
C203 C209 1.491 . S
C204 H195 0.950 . S
C204 C203 1.398 . S
C204 C205 1.391 . S
C205 H193 0.950 . S
C205 C201 1.393 . S
C205 C204 1.391 . S
C206 H196 0.950 . S
C206 C207 1.386 . S
C206 C208 1.391 1_545 S
C207 C206 1.386 . S
C207 C211 1.393 . S
C208 H197 0.950 . S
C208 C206 1.391 1_565 S
C208 C209 1.400 . S
C209 C203 1.491 . S
C209 C208 1.400 . S
C209 C210 1.398 1_565 S
C210 H198 0.950 . S
C210 C209 1.398 1_545 S
C210 C211 1.391 . S
C211 H199 0.950 . S
C211 C207 1.393 . S
C211 C210 1.391 . S
H212 C220 0.950 . S
H213 C225 0.950 . S
H214 C222 0.950 . S
H215 C224 0.972 . S
H216 C226 0.950 . S
H217 C228 0.950 . S
H218 C230 0.950 . S
H219 C231 0.950 . S
C220 H212 0.950 . S
C220 C221 1.386 . S
C220 C222 1.391 . S
C221 C220 1.386 . S
C221 C225 1.393 . S
C222 H214 0.950 . S
C222 C220 1.391 . S
C222 C223 1.395 1_655 S
C223 C222 1.395 1_455 S
C223 C224 1.391 . S
C223 C229 1.493 1_556 S
C224 H215 0.972 . S
C224 C223 1.391 . S
C224 C225 1.379 1_455 S
C225 H213 0.950 . S
C225 C221 1.393 . S
C225 C224 1.379 1_655 S
C226 H216 0.950 . S
C226 C227 1.386 . S
C226 C228 1.391 . S
C227 C226 1.386 . S
C227 C231 1.393 . S
C228 H217 0.950 . S
C228 C226 1.391 . S
C228 C229 1.400 . S
C229 C223 1.493 1_554 S
C229 C228 1.400 . S
C229 C230 1.398 . S
C230 H218 0.950 . S
C230 C229 1.398 . S
C230 C231 1.391 . S
C231 H219 0.950 . S
C231 C227 1.393 . S
C231 C230 1.391 . S
H232 C240 0.950 . S
H233 C245 0.950 . S
H234 C242 0.950 . S
H235 C244 0.950 . S
H236 C246 0.950 . S
H237 C248 0.950 . S
H238 C250 0.950 . S
H239 C251 0.950 . S
C240 H232 0.950 . S
C240 C241 1.386 . S
C240 C242 1.391 . S
C241 C240 1.386 . S
C241 C245 1.393 . S
C242 H234 0.950 . S
C242 C240 1.391 . S
C242 C243 1.400 . S
C243 C242 1.400 . S
C243 C244 1.398 . S
C243 C249 1.491 . S
C244 H235 0.950 . S
C244 C243 1.398 . S
C244 C245 1.391 . S
C245 H233 0.950 . S
C245 C241 1.393 . S
C245 C244 1.391 . S
C246 H236 0.950 . S
C246 C247 1.386 . S
C246 C248 1.391 . S
C247 C246 1.386 . S
C247 C251 1.393 . S
C248 H237 0.950 . S
C248 C246 1.391 . S
C248 C249 1.400 . S
C249 C243 1.491 . S
C249 C248 1.400 . S
C249 C250 1.398 . S
C250 H238 0.950 . S
C250 C249 1.398 . S
C250 C251 1.391 . S
C251 H239 0.950 . S
C251 C247 1.393 . S
C251 C250 1.391 . S
H252 C260 0.950 . S
H253 C265 0.950 . S
H254 C262 0.950 . S
H255 C264 0.950 . S
H256 C266 0.950 . S
H257 C268 0.950 . S
H258 C270 0.950 . S
H259 C271 0.950 . S
C260 H252 0.950 . S
C260 C261 1.386 . S
C260 C262 1.391 . S
C261 C260 1.386 . S
C261 C265 1.393 . S
C262 H254 0.950 . S
C262 C260 1.391 . S
C262 C263 1.400 . S
C263 C262 1.400 . S
C263 C264 1.398 . S
C263 C269 1.491 . S
C264 H255 0.950 . S
C264 C263 1.398 . S
C264 C265 1.391 . S
C265 H253 0.950 . S
C265 C261 1.393 . S
C265 C264 1.391 . S
C266 H256 0.950 . S
C266 C267 1.386 . S
C266 C268 1.391 . S
C267 C266 1.386 . S
C267 C271 1.393 . S
C268 H257 0.950 . S
C268 C266 1.391 . S
C268 C269 1.400 . S
C269 C263 1.491 . S
C269 C268 1.400 . S
C269 C270 1.398 . S
C270 H258 0.950 . S
C270 C269 1.398 . S
C270 C271 1.391 . S
C271 H259 0.950 . S
C271 C267 1.393 . S
C271 C270 1.391 . S
H272 C280 0.950 . S
H273 C285 0.950 . S
H274 C282 0.950 . S
H275 C284 0.950 . S
H276 C286 0.950 . S
H277 C288 0.950 . S
H278 C290 0.950 . S
H279 C291 0.950 . S
C280 H272 0.950 . S
C280 C281 1.386 . S
C280 C282 1.391 . S
C281 C280 1.386 . S
C281 C285 1.393 . S
C282 H274 0.950 . S
C282 C280 1.391 . S
C282 C283 1.400 . S
C283 C282 1.400 . S
C283 C284 1.398 . S
C283 C289 1.491 . S
C284 H275 0.950 . S
C284 C283 1.398 . S
C284 C285 1.391 . S
C285 H273 0.950 . S
C285 C281 1.393 . S
C285 C284 1.391 . S
C286 H276 0.950 . S
C286 C287 1.386 . S
C286 C288 1.391 . S
C287 C286 1.386 . S
C287 C291 1.393 . S
C288 H277 0.950 . S
C288 C286 1.391 . S
C288 C289 1.400 . S
C289 C283 1.491 . S
C289 C288 1.400 . S
C289 C290 1.398 . S
C290 H278 0.950 . S
C290 C289 1.398 . S
C290 C291 1.391 . S
C291 H279 0.950 . S
C291 C287 1.393 . S
C291 C290 1.391 . S
H292 C300 0.950 . S
H293 C305 0.950 . S
H294 C302 0.950 . S
H295 C304 0.950 . S
H296 C306 0.950 . S
H297 C308 0.950 . S
H298 C310 0.950 . S
H299 C311 0.950 . S
C300 H292 0.950 . S
C300 C301 1.386 . S
C300 C302 1.391 . S
C301 C300 1.386 . S
C301 C305 1.393 . S
C302 H294 0.950 . S
C302 C300 1.391 . S
C302 C303 1.400 . S
C303 C302 1.400 . S
C303 C304 1.398 . S
C303 C309 1.491 1_556 S
C304 H295 0.950 . S
C304 C303 1.398 . S
C304 C305 1.391 . S
C305 H293 0.950 . S
C305 C301 1.393 . S
C305 C304 1.391 . S
C306 H296 0.950 . S
C306 C307 1.386 . S
C306 C308 1.391 . S
C307 C306 1.386 . S
C307 C311 1.393 . S
C308 H297 0.950 . S
C308 C306 1.391 . S
C308 C309 1.400 . S
C309 C303 1.491 1_554 S
C309 C308 1.400 . S
C309 C310 1.398 . S
C310 H298 0.950 . S
C310 C309 1.398 . S
C310 C311 1.391 . S
C311 H299 0.950 . S
C311 C307 1.393 . S
C311 C310 1.391 . S
H312 C320 0.950 . S
H313 C325 0.950 . S
H314 C322 0.950 . S
H315 C324 0.950 . S
H316 C326 0.950 . S
H317 C328 0.950 . S
H318 C330 0.950 . S
H319 C331 0.950 . S
C320 H312 0.950 . S
C320 C321 1.386 . S
C320 C322 1.391 . S
C321 C320 1.386 . S
C321 C325 1.393 . S
C322 H314 0.950 . S
C322 C320 1.391 . S
C322 C323 1.400 . S
C323 C322 1.400 . S
C323 C324 1.398 . S
C323 C329 1.491 . S
C324 H315 0.950 . S
C324 C323 1.398 . S
C324 C325 1.391 . S
C325 H313 0.950 . S
C325 C321 1.393 . S
C325 C324 1.391 . S
C326 H316 0.950 . S
C326 C327 1.386 . S
C326 C328 1.391 1_545 S
C327 C326 1.386 . S
C327 C331 1.393 . S
C328 H317 0.950 . S
C328 C326 1.391 1_565 S
C328 C329 1.400 . S
C329 C323 1.491 . S
C329 C328 1.400 . S
C329 C330 1.398 1_565 S
C330 H318 0.950 . S
C330 C329 1.398 1_545 S
C330 C331 1.391 . S
C331 H319 0.950 . S
C331 C327 1.393 . S
C331 C330 1.391 . S
H332 C340 0.950 . S
H333 C345 0.950 1_455 S
H334 C342 0.950 . S
H335 C344 0.950 . S
H336 C346 0.950 . S
H337 C348 0.950 . S
H338 C350 0.950 1_665 S
H339 C351 0.950 . S
C340 H332 0.950 . S
C340 C341 1.386 . S
C340 C342 1.391 . S
C341 C340 1.386 . S
C341 C345 1.393 . S
C342 H334 0.950 . S
C342 C340 1.391 . S
C342 C343 1.372 1_655 S
C343 C342 1.372 1_455 S
C343 C344 1.414 . S
C343 C349 1.505 . S
C344 H335 0.950 . S
C344 C343 1.414 . S
C344 C345 1.391 1_455 S
C345 H333 0.950 1_655 S
C345 C341 1.393 . S
C345 C344 1.391 1_655 S
C346 H336 0.950 . S
C346 C347 1.386 . S
C346 C348 1.391 . S
C347 C346 1.386 . S
C347 C351 1.393 . S
C348 H337 0.950 . S
C348 C346 1.391 . S
C348 C349 1.400 1_545 S
C349 C343 1.505 . S
C349 C348 1.400 1_565 S
C349 C350 1.397 1_565 S
C350 H338 0.950 1_445 S
C350 C349 1.397 1_545 S
C350 C351 1.391 . S
C351 H339 0.950 . S
C351 C347 1.393 . S
C351 C350 1.391 . S
H352 C360 0.950 . S
H353 C365 0.950 . S
H354 C362 0.950 . S
H355 C364 0.950 . S
H356 C366 0.950 . S
H357 C368 0.950 . S
H358 C370 0.950 1_655 S
H359 C371 0.950 . S
C360 H352 0.950 . S
C360 C361 1.386 . S
C360 C362 1.391 . S
C361 C360 1.386 . S
C361 C365 1.393 1_655 S
C362 H354 0.950 . S
C362 C360 1.391 . S
C362 C363 1.400 1_655 S
C363 C362 1.400 1_455 S
C363 C364 1.398 . S
C363 C369 1.491 . S
C364 H355 0.950 . S
C364 C363 1.398 . S
C364 C365 1.391 . S
C365 H353 0.950 . S
C365 C361 1.393 1_455 S
C365 C364 1.391 . S
C366 H356 0.950 . S
C366 C367 1.386 . S
C366 C368 1.391 . S
C367 C366 1.386 . S
C367 C371 1.393 . S
C368 H357 0.950 . S
C368 C366 1.391 . S
C368 C369 1.400 . S
C369 C363 1.491 . S
C369 C368 1.400 . S
C369 C370 1.398 . S
C370 H358 0.950 1_455 S
C370 C369 1.398 . S
C370 C371 1.391 . S
C371 H359 0.950 . S
C371 C367 1.393 . S
C371 C370 1.391 . S
H372 C380 0.950 . S
H373 C385 0.950 . S
H374 C382 0.950 . S
H375 C384 0.950 . S
H376 C386 0.950 . S
H377 C388 0.950 . S
H378 C390 0.950 . S
H379 C391 0.950 . S
C380 H372 0.950 . S
C380 C381 1.386 . S
C380 C382 1.391 . S
C381 C380 1.386 . S
C381 C385 1.393 . S
C382 H374 0.950 . S
C382 C380 1.391 . S
C382 C383 1.400 . S
C383 C382 1.400 . S
C383 C384 1.398 . S
C383 C389 1.491 . S
C384 H375 0.950 . S
C384 C383 1.398 . S
C384 C385 1.391 . S
C385 H373 0.950 . S
C385 C381 1.393 . S
C385 C384 1.391 . S
C386 H376 0.950 . S
C386 C387 1.386 . S
C386 C388 1.391 . S
C387 C386 1.386 . S
C387 C391 1.393 . S
C388 H377 0.950 . S
C388 C386 1.391 . S
C388 C389 1.400 . S
C389 C383 1.491 . S
C389 C388 1.400 . S
C389 C390 1.398 . S
C390 H378 0.950 . S
C390 C389 1.398 . S
C390 C391 1.391 . S
C391 H379 0.950 . S
C391 C387 1.393 . S
C391 C390 1.391 . S
H392 C400 0.950 . S
H393 C405 0.950 . S
H394 C402 0.950 1_556 S
H395 C404 0.950 . S
H396 C406 0.950 . S
H397 C408 0.950 1_554 S
H398 C410 0.950 . S
H399 C411 0.950 . S
C400 H392 0.950 . S
C400 C401 1.386 . S
C400 C402 1.391 . S
C401 C400 1.386 . S
C401 C405 1.393 . S
C402 H394 0.950 1_554 S
C402 C400 1.391 . S
C402 C403 1.400 . S
C403 C402 1.400 . S
C403 C404 1.398 . S
C403 C409 1.491 1_554 S
C404 H395 0.950 . S
C404 C403 1.398 . S
C404 C405 1.391 . S
C405 H393 0.950 . S
C405 C401 1.393 . S
C405 C404 1.391 . S
C406 H396 0.950 . S
C406 C407 1.386 . S
C406 C408 1.391 . S
C407 C406 1.386 . S
C407 C411 1.393 . S
C408 H397 0.950 1_556 S
C408 C406 1.391 . S
C408 C409 1.400 . S
C409 C403 1.491 1_556 S
C409 C408 1.400 . S
C409 C410 1.398 . S
C410 H398 0.950 . S
C410 C409 1.398 . S
C410 C411 1.391 . S
C411 H399 0.950 . S
C411 C407 1.393 . S
C411 C410 1.391 . S
H412 C420 0.950 . S
H413 C425 0.950 . S
H414 C422 0.950 . S
H415 C424 0.950 . S
H416 C426 0.950 . S
H417 C428 0.950 . S
H418 C430 0.950 . S
H419 C431 0.950 . S
C420 H412 0.950 . S
C420 C421 1.386 . S
C420 C422 1.391 . S
C421 C420 1.386 . S
C421 C425 1.393 . S
C422 H414 0.950 . S
C422 C420 1.391 . S
C422 C423 1.400 . S
C423 C422 1.400 . S
C423 C424 1.398 . S
C423 C429 1.491 . S
C424 H415 0.950 . S
C424 C423 1.398 . S
C424 C425 1.391 . S
C425 H413 0.950 . S
C425 C421 1.393 . S
C425 C424 1.391 . S
C426 H416 0.950 . S
C426 C427 1.386 . S
C426 C428 1.391 . S
C427 C426 1.386 . S
C427 C431 1.393 . S
C428 H417 0.950 . S
C428 C426 1.391 . S
C428 C429 1.400 . S
C429 C423 1.491 . S
C429 C428 1.400 . S
C429 C430 1.398 . S
C430 H418 0.950 . S
C430 C429 1.398 . S
C430 C431 1.391 . S
C431 H419 0.950 . S
C431 C427 1.393 . S
C431 C430 1.391 . S
C121 C78 1.589 . S
C127 C8 1.594 . S
C141 C105 1.534 . S
C147 C20 1.548 . S
C161 C37 1.589 . S
C167 C93 1.592 . S
C181 C49 1.544 . S
C187 C62 1.544 . S
C201 C90 1.548 . S
C207 C7 1.534 . S
C221 C23 1.591 . S
C227 C65 1.590 . S
C241 C77 1.523 . S
C247 C34 1.538 . S
C261 C50 1.590 . S
C267 C106 1.592 . S
C281 C63 1.531 . S
C287 C76 1.524 . S
C301 C22 1.589 . S
C307 C36 1.592 . S
C321 C48 1.548 . S
C327 C35 1.535 . S
C341 C51 1.589 . S
C347 C9 1.593 . S
C361 C21 1.548 . S
C367 C6 1.535 . S
C381 C104 1.542 . S
C387 C91 1.525 . S
C401 C64 1.589 . S
C407 C92 1.594 . S
C421 C79 1.593 . S
C427 C107 1.589 . S
