# Generated by pormake.
# Topology hbo, (4)-cn, num edge types: 1
# Building blocks:
#     Node 0, Type 0, BuildingBlock: ICAMEG_clean_sbu_1, # of connection points: 4
#     Node 1, Type 0, BuildingBlock: ICAMEG_clean_sbu_1, # of connection points: 4
#     Node 2, Type 0, BuildingBlock: ICAMEG_clean_sbu_1, # of connection points: 4
#     Node 3, Type 0, BuildingBlock: ICAMEG_clean_sbu_1, # of connection points: 4
#     Node 4, Type 0, BuildingBlock: ICAMEG_clean_sbu_1, # of connection points: 4
#     Node 5, Type 0, BuildingBlock: ICAMEG_clean_sbu_1, # of connection points: 4
#     Node 6, Type 0, BuildingBlock: ICAMEG_clean_sbu_1, # of connection points: 4
#     Node 7, Type 0, BuildingBlock: ICAMEG_clean_sbu_1, # of connection points: 4
#     Node 8, Type 0, BuildingBlock: ICAMEG_clean_sbu_1, # of connection points: 4
#     Node 9, Type 0, BuildingBlock: ICAMEG_clean_sbu_1, # of connection points: 4
#     Node 10, Type 0, BuildingBlock: ICAMEG_clean_sbu_1, # of connection points: 4
#     Node 11, Type 0, BuildingBlock: ICAMEG_clean_sbu_1, # of connection points: 4
#     Node 12, Type 0, BuildingBlock: ICAMEG_clean_sbu_1, # of connection points: 4
#     Node 13, Type 0, BuildingBlock: ICAMEG_clean_sbu_1, # of connection points: 4
#     Node 14, Type 0, BuildingBlock: ICAMEG_clean_sbu_1, # of connection points: 4
#     Node 15, Type 0, BuildingBlock: ICAMEG_clean_sbu_1, # of connection points: 4
#     Node 16, Type 0, BuildingBlock: ICAMEG_clean_sbu_1, # of connection points: 4
#     Node 17, Type 0, BuildingBlock: ICAMEG_clean_sbu_1, # of connection points: 4
#     Node 18, Type 0, BuildingBlock: ICAMEG_clean_sbu_1, # of connection points: 4
#     Node 19, Type 0, BuildingBlock: ICAMEG_clean_sbu_1, # of connection points: 4
#     Node 20, Type 0, BuildingBlock: ICAMEG_clean_sbu_1, # of connection points: 4
#     Node 21, Type 0, BuildingBlock: ICAMEG_clean_sbu_1, # of connection points: 4
#     Node 22, Type 0, BuildingBlock: ICAMEG_clean_sbu_1, # of connection points: 4
#     Node 23, Type 0, BuildingBlock: ICAMEG_clean_sbu_1, # of connection points: 4
#     Edge 24, Type (0, 0), BuildingBlock: XUDNAN_clean_linker_2, # of connection points: 2
#     Edge 25, Type (0, 0), BuildingBlock: XUDNAN_clean_linker_2, # of connection points: 2
#     Edge 26, Type (0, 0), BuildingBlock: XUDNAN_clean_linker_2, # of connection points: 2
#     Edge 27, Type (0, 0), BuildingBlock: XUDNAN_clean_linker_2, # of connection points: 2
#     Edge 28, Type (0, 0), BuildingBlock: XUDNAN_clean_linker_2, # of connection points: 2
#     Edge 29, Type (0, 0), BuildingBlock: XUDNAN_clean_linker_2, # of connection points: 2
#     Edge 30, Type (0, 0), BuildingBlock: XUDNAN_clean_linker_2, # of connection points: 2
#     Edge 31, Type (0, 0), BuildingBlock: XUDNAN_clean_linker_2, # of connection points: 2
#     Edge 32, Type (0, 0), BuildingBlock: XUDNAN_clean_linker_2, # of connection points: 2
#     Edge 33, Type (0, 0), BuildingBlock: XUDNAN_clean_linker_2, # of connection points: 2
#     Edge 34, Type (0, 0), BuildingBlock: XUDNAN_clean_linker_2, # of connection points: 2
#     Edge 35, Type (0, 0), BuildingBlock: XUDNAN_clean_linker_2, # of connection points: 2
#     Edge 36, Type (0, 0), BuildingBlock: XUDNAN_clean_linker_2, # of connection points: 2
#     Edge 37, Type (0, 0), BuildingBlock: XUDNAN_clean_linker_2, # of connection points: 2
#     Edge 38, Type (0, 0), BuildingBlock: XUDNAN_clean_linker_2, # of connection points: 2
#     Edge 39, Type (0, 0), BuildingBlock: XUDNAN_clean_linker_2, # of connection points: 2
#     Edge 40, Type (0, 0), BuildingBlock: XUDNAN_clean_linker_2, # of connection points: 2
#     Edge 41, Type (0, 0), BuildingBlock: XUDNAN_clean_linker_2, # of connection points: 2
#     Edge 42, Type (0, 0), BuildingBlock: XUDNAN_clean_linker_2, # of connection points: 2
#     Edge 43, Type (0, 0), BuildingBlock: XUDNAN_clean_linker_2, # of connection points: 2
#     Edge 44, Type (0, 0), BuildingBlock: XUDNAN_clean_linker_2, # of connection points: 2
#     Edge 45, Type (0, 0), BuildingBlock: XUDNAN_clean_linker_2, # of connection points: 2
#     Edge 46, Type (0, 0), BuildingBlock: XUDNAN_clean_linker_2, # of connection points: 2
#     Edge 47, Type (0, 0), BuildingBlock: XUDNAN_clean_linker_2, # of connection points: 2
#     Edge 48, Type (0, 0), BuildingBlock: XUDNAN_clean_linker_2, # of connection points: 2
#     Edge 49, Type (0, 0), BuildingBlock: XUDNAN_clean_linker_2, # of connection points: 2
#     Edge 50, Type (0, 0), BuildingBlock: XUDNAN_clean_linker_2, # of connection points: 2
#     Edge 51, Type (0, 0), BuildingBlock: XUDNAN_clean_linker_2, # of connection points: 2
#     Edge 52, Type (0, 0), BuildingBlock: XUDNAN_clean_linker_2, # of connection points: 2
#     Edge 53, Type (0, 0), BuildingBlock: XUDNAN_clean_linker_2, # of connection points: 2
#     Edge 54, Type (0, 0), BuildingBlock: XUDNAN_clean_linker_2, # of connection points: 2
#     Edge 55, Type (0, 0), BuildingBlock: XUDNAN_clean_linker_2, # of connection points: 2
#     Edge 56, Type (0, 0), BuildingBlock: XUDNAN_clean_linker_2, # of connection points: 2
#     Edge 57, Type (0, 0), BuildingBlock: XUDNAN_clean_linker_2, # of connection points: 2
#     Edge 58, Type (0, 0), BuildingBlock: XUDNAN_clean_linker_2, # of connection points: 2
#     Edge 59, Type (0, 0), BuildingBlock: XUDNAN_clean_linker_2, # of connection points: 2
#     Edge 60, Type (0, 0), BuildingBlock: XUDNAN_clean_linker_2, # of connection points: 2
#     Edge 61, Type (0, 0), BuildingBlock: XUDNAN_clean_linker_2, # of connection points: 2
#     Edge 62, Type (0, 0), BuildingBlock: XUDNAN_clean_linker_2, # of connection points: 2
#     Edge 63, Type (0, 0), BuildingBlock: XUDNAN_clean_linker_2, # of connection points: 2
#     Edge 64, Type (0, 0), BuildingBlock: XUDNAN_clean_linker_2, # of connection points: 2
#     Edge 65, Type (0, 0), BuildingBlock: XUDNAN_clean_linker_2, # of connection points: 2
#     Edge 66, Type (0, 0), BuildingBlock: XUDNAN_clean_linker_2, # of connection points: 2
#     Edge 67, Type (0, 0), BuildingBlock: XUDNAN_clean_linker_2, # of connection points: 2
#     Edge 68, Type (0, 0), BuildingBlock: XUDNAN_clean_linker_2, # of connection points: 2
#     Edge 69, Type (0, 0), BuildingBlock: XUDNAN_clean_linker_2, # of connection points: 2
#     Edge 70, Type (0, 0), BuildingBlock: XUDNAN_clean_linker_2, # of connection points: 2
#     Edge 71, Type (0, 0), BuildingBlock: XUDNAN_clean_linker_2, # of connection points: 2
# Relax obj value: 0.141
# Max RMSD: 0.173
# Mean RMSD: 0.173
data_MOF--net-hbo--node1-ICAMEG_clean_sbu_1--edge1-XUDNAN_clean_linker_2
_symmetry_space_group_name_H-M    P1
_symmetry_Int_Tables_number       1
_symmetry_cell_setting            triclinic
loop_
_symmetry_equiv_pos_as_xyz
'x, y, z'
_cell_length_a     56.315789
_cell_length_b     56.262098
_cell_length_c     56.287541
_cell_angle_alpha  90.007023
_cell_angle_beta   90.003702
_cell_angle_gamma 90.013049
loop_
_atom_site_label
_atom_site_type_symbol
_atom_site_fract_x
_atom_site_fract_y
_atom_site_fract_z
_atom_type_partial_charge
Co0 Co 0.15658 0.3715 0.26229 0.0
Co1 Co 0.12572 0.33121 0.22729 0.0
O2 O 0.12853 0.36159 0.24413 0.0
C3 C 0.15113 0.41061 0.22697 0.0
O4 O 0.14747 0.39478 0.21022 0.0
C5 C 0.08326 0.33212 0.25924 0.0
O6 O 0.09534 0.34369 0.27548 0.0
O7 O 0.1384 0.31316 0.25514 0.0
O8 O 0.15905 0.33946 0.27693 0.0
H9 H 0.15485 0.25169 0.19909 0.0
H10 H 0.11247 0.40014 0.26435 0.0
O11 O 0.15473 0.40406 0.24831 0.0
H12 H 0.12795 0.37561 0.347 0.0
H13 H 0.20477 0.42845 0.31174 0.0
H14 H 0.20289 0.34937 0.27398 0.0
H15 H 0.15529 0.364 0.31481 0.0
H16 H 0.16952 0.41531 0.28931 0.0
O17 O 0.09279 0.32641 0.23955 0.0
H18 H 0.15787 0.29025 0.21972 0.0
H19 H 0.0874 0.30759 0.19914 0.0
H20 H 0.23843 0.36171 0.29645 0.0
H21 H 0.08481 0.41242 0.29602 0.0
H22 H 0.23952 0.40152 0.3155 0.0
H23 H 0.09242 0.40004 0.33768 0.0
O24 O 0.17862 0.36155 0.23622 0.0
H25 H 0.07381 0.39186 0.18742 0.0
H26 H 0.13532 0.33074 0.17515 0.0
H27 H 0.12051 0.3536 0.14082 0.0
H28 H 0.0895 0.3844 0.14685 0.0
H29 H 0.08934 0.36875 0.22127 0.0
H30 H 0.08357 0.26916 0.1784 0.0
H31 H 0.11749 0.24094 0.17823 0.0
O32 O 0.15824 0.33508 0.21428 0.0
C33 C 0.15139 0.31854 0.27292 0.0
C34 C 0.13998 0.26387 0.19896 0.0
C35 C 0.09996 0.27366 0.18739 0.0
N36 N 0.1229 0.30122 0.2105 0.0
C37 C 0.14161 0.28576 0.21056 0.0
C38 C 0.10222 0.29538 0.1992 0.0
C39 C 0.119 0.25784 0.18729 0.0
C40 C 0.11601 0.39485 0.28246 0.0
N41 N 0.13545 0.38129 0.28771 0.0
C42 C 0.10023 0.40178 0.30031 0.0
C43 C 0.1045 0.3948 0.32367 0.0
C44 C 0.12441 0.38106 0.32891 0.0
C45 C 0.13977 0.37443 0.31059 0.0
C46 C 0.2045 0.41106 0.30353 0.0
C47 C 0.20319 0.36667 0.28233 0.0
C48 C 0.18462 0.40354 0.29074 0.0
N49 N 0.18412 0.38156 0.2804 0.0
C50 C 0.22338 0.37358 0.29498 0.0
C51 C 0.22399 0.39593 0.30565 0.0
C52 C 0.17684 0.34708 0.21884 0.0
C53 C 0.08732 0.37849 0.18456 0.0
C54 C 0.12197 0.34423 0.17792 0.0
C55 C 0.11357 0.35705 0.15841 0.0
C56 C 0.09615 0.37431 0.16181 0.0
N57 N 0.11326 0.34847 0.20019 0.0
C58 C 0.09613 0.3653 0.20364 0.0
Co59 Co 0.16107 0.62373 0.74228 0.0
Co60 Co 0.12349 0.66139 0.77311 0.0
O61 O 0.13097 0.63109 0.75788 0.0
C62 C 0.15554 0.58526 0.77821 0.0
O63 O 0.1497 0.60136 0.79404 0.0
C64 C 0.08517 0.65555 0.73739 0.0
O65 O 0.10142 0.64982 0.72169 0.0
O66 O 0.13565 0.67978 0.7453 0.0
O67 O 0.16155 0.6556 0.72681 0.0
H68 H 0.13992 0.74514 0.79938 0.0
H69 H 0.11966 0.59149 0.73761 0.0
O70 O 0.16096 0.59143 0.75713 0.0
H71 H 0.14059 0.61432 0.65567 0.0
H72 H 0.21871 0.57054 0.69922 0.0
H73 H 0.20571 0.65018 0.73341 0.0
H74 H 0.16403 0.6291 0.68962 0.0
H75 H 0.18056 0.58065 0.71821 0.0
O76 O 0.0911 0.66074 0.7586 0.0
H77 H 0.14945 0.70657 0.78086 0.0
H78 H 0.08059 0.68067 0.79752 0.0
H79 H 0.24408 0.64088 0.71446 0.0
H80 H 0.0959 0.57604 0.7042 0.0
H81 H 0.25077 0.6008 0.69719 0.0
H82 H 0.10626 0.58754 0.66288 0.0
O83 O 0.17972 0.63656 0.76965 0.0
H84 H 0.07689 0.59643 0.81285 0.0
H85 H 0.13 0.66492 0.82561 0.0
H86 H 0.11599 0.6418 0.8601 0.0
H87 H 0.0892 0.60729 0.85381 0.0
H88 H 0.09155 0.6199 0.77887 0.0
H89 H 0.07024 0.71901 0.81609 0.0
H90 H 0.10005 0.75155 0.81717 0.0
O91 O 0.15554 0.66254 0.78805 0.0
C92 C 0.15092 0.67549 0.7291 0.0
C93 C 0.1268 0.73108 0.7991 0.0
C94 C 0.08768 0.71642 0.80844 0.0
N95 N 0.11565 0.69135 0.78824 0.0
C96 C 0.13212 0.70918 0.78869 0.0
C97 C 0.09362 0.69477 0.79785 0.0
C98 C 0.10442 0.73467 0.80904 0.0
C99 C 0.12437 0.59646 0.71968 0.0
N100 N 0.14316 0.61129 0.71557 0.0
C101 C 0.11081 0.58771 0.70083 0.0
C102 C 0.11662 0.59419 0.67765 0.0
C103 C 0.13586 0.60923 0.6736 0.0
C104 C 0.14899 0.61766 0.69289 0.0
C105 C 0.216 0.58807 0.70665 0.0
C106 C 0.20844 0.63275 0.72583 0.0
C107 C 0.19446 0.59388 0.71749 0.0
N108 N 0.19088 0.61602 0.72682 0.0
C109 C 0.23023 0.62757 0.71516 0.0
C110 C 0.23398 0.60506 0.70551 0.0
C111 C 0.17552 0.65216 0.78559 0.0
C112 C 0.08855 0.61144 0.81582 0.0
C113 C 0.11852 0.64983 0.82273 0.0
C114 C 0.11054 0.63686 0.84233 0.0
C115 C 0.09549 0.61752 0.83879 0.0
N116 N 0.11168 0.64373 0.80025 0.0
C117 C 0.09686 0.62484 0.79665 0.0
Co118 Co 0.83728 0.63168 0.26546 0.0
Co119 Co 0.87892 0.66206 0.23233 0.0
O120 O 0.86827 0.63439 0.25018 0.0
C121 C 0.84007 0.59037 0.2334 0.0
O122 O 0.84554 0.60536 0.21639 0.0
C123 C 0.91715 0.65512 0.26805 0.0
O124 O 0.90074 0.65292 0.28448 0.0
O125 O 0.86956 0.68359 0.25881 0.0
O126 O 0.83899 0.66524 0.2769 0.0
H127 H 0.87226 0.74488 0.19965 0.0
H128 H 0.87479 0.59609 0.27582 0.0
O129 O 0.83535 0.598 0.25419 0.0
H130 H 0.85528 0.63253 0.35306 0.0
H131 H 0.77447 0.58888 0.31258 0.0
H132 H 0.79474 0.66248 0.26957 0.0
H133 H 0.83443 0.64509 0.31663 0.0
H134 H 0.81369 0.59347 0.29357 0.0
O135 O 0.91131 0.6587 0.24648 0.0
H136 H 0.8586 0.70944 0.22156 0.0
H137 H 0.92321 0.67386 0.20576 0.0
H138 H 0.75542 0.65872 0.28844 0.0
H139 H 0.89589 0.58284 0.31184 0.0
H140 H 0.74506 0.62169 0.31015 0.0
H141 H 0.88621 0.60115 0.35081 0.0
O142 O 0.82056 0.64263 0.23629 0.0
H143 H 0.91637 0.5889 0.19752 0.0
H144 H 0.87154 0.66203 0.17979 0.0
H145 H 0.88174 0.63457 0.1472 0.0
H146 H 0.90432 0.59769 0.15599 0.0
H147 H 0.9056 0.61677 0.22958 0.0
H148 H 0.93767 0.70898 0.1839 0.0
H149 H 0.91208 0.74479 0.18065 0.0
O150 O 0.84689 0.66605 0.21755 0.0
C151 C 0.85268 0.68308 0.27395 0.0
C152 C 0.88355 0.72936 0.20087 0.0
C153 C 0.92027 0.70923 0.19206 0.0
N154 N 0.89001 0.68955 0.21477 0.0
C155 C 0.87588 0.70922 0.21319 0.0
C156 C 0.91201 0.68941 0.20451 0.0
C157 C 0.9059 0.7293 0.19024 0.0
C158 C 0.87032 0.60399 0.29274 0.0
N159 N 0.85331 0.62125 0.29413 0.0
C160 C 0.8824 0.59648 0.31306 0.0
C161 C 0.87698 0.60679 0.33492 0.0
C162 C 0.85964 0.62441 0.33619 0.0
C163 C 0.84793 0.63148 0.31549 0.0
C164 C 0.77879 0.60511 0.30322 0.0
C165 C 0.79043 0.64638 0.27911 0.0
C166 C 0.80095 0.60779 0.29238 0.0
N167 N 0.80655 0.6283 0.28064 0.0
C168 C 0.76811 0.64433 0.28971 0.0
C169 C 0.7623 0.62354 0.30186 0.0
C170 C 0.82616 0.65722 0.21989 0.0
C171 C 0.90655 0.60493 0.19346 0.0
C172 C 0.88126 0.64598 0.18376 0.0
C173 C 0.88706 0.63053 0.16523 0.0
C174 C 0.89976 0.60985 0.17017 0.0
N175 N 0.88795 0.64101 0.20656 0.0
C176 C 0.90048 0.62081 0.21153 0.0
Co177 Co 0.87741 0.33329 0.76767 0.0
Co178 Co 0.84747 0.3765 0.73586 0.0
O179 O 0.87548 0.36476 0.75279 0.0
C180 C 0.91914 0.3353 0.73559 0.0
O181 O 0.90623 0.34677 0.71997 0.0
C182 C 0.85541 0.41481 0.77161 0.0
O183 O 0.8577 0.39858 0.78822 0.0
O184 O 0.82641 0.36755 0.76289 0.0
O185 O 0.84444 0.33634 0.78009 0.0
H186 H 0.76358 0.37231 0.70578 0.0
H187 H 0.91482 0.36905 0.77725 0.0
O188 O 0.91048 0.32909 0.75554 0.0
H189 H 0.87976 0.35067 0.8554 0.0
H190 H 0.91794 0.26798 0.81347 0.0
H191 H 0.84494 0.29198 0.77149 0.0
H192 H 0.86535 0.33055 0.81923 0.0
H193 H 0.91483 0.30768 0.79512 0.0
O194 O 0.8519 0.40873 0.75011 0.0
H195 H 0.79928 0.35753 0.72643 0.0
H196 H 0.83609 0.42128 0.70979 0.0
H197 H 0.8472 0.25221 0.78971 0.0
H198 H 0.9299 0.38947 0.81299 0.0
H199 H 0.88393 0.23997 0.8109 0.0
H200 H 0.9123 0.38034 0.85241 0.0
O201 O 0.86518 0.31745 0.73859 0.0
H202 H 0.91961 0.41404 0.69912 0.0
H203 H 0.84607 0.36918 0.6833 0.0
H204 H 0.87246 0.3797 0.64997 0.0
H205 H 0.90952 0.40234 0.65778 0.0
H206 H 0.89283 0.40288 0.73196 0.0
H207 H 0.80071 0.43687 0.68922 0.0
H208 H 0.76415 0.41226 0.68702 0.0
O209 O 0.84218 0.34477 0.72087 0.0
C210 C 0.82696 0.35053 0.77787 0.0
C211 C 0.77942 0.38317 0.70656 0.0
C212 C 0.80025 0.41942 0.69729 0.0
N213 N 0.81979 0.38846 0.7192 0.0
C214 C 0.79971 0.37487 0.71817 0.0
C215 C 0.82021 0.41052 0.70902 0.0
C216 C 0.77975 0.4056 0.69606 0.0
C217 C 0.90722 0.36485 0.79437 0.0
N218 N 0.88933 0.34854 0.79617 0.0
C219 C 0.91576 0.37652 0.81453 0.0
C220 C 0.90586 0.37141 0.83664 0.0
C221 C 0.88759 0.35478 0.83833 0.0
C222 C 0.87947 0.34348 0.81778 0.0
C223 C 0.90182 0.27313 0.80435 0.0
C224 C 0.8609 0.28687 0.78084 0.0
C225 C 0.89997 0.29557 0.79391 0.0
N226 N 0.87962 0.30223 0.78246 0.0
C227 C 0.86211 0.26429 0.79106 0.0
C228 C 0.88273 0.25742 0.80291 0.0
C229 C 0.85043 0.32374 0.72264 0.0
C230 C 0.9035 0.4042 0.69548 0.0
C231 C 0.86225 0.37884 0.68687 0.0
C232 C 0.87707 0.38486 0.66791 0.0
C233 C 0.89785 0.39759 0.6723 0.0
N234 N 0.86793 0.38535 0.70956 0.0
C235 C 0.88822 0.39791 0.71399 0.0
Co236 Co 0.22708 0.12616 0.33785 0.0
Co237 Co 0.26792 0.15979 0.36895 0.0
O238 O 0.24798 0.13178 0.36487 0.0
C239 C 0.25909 0.08498 0.33878 0.0
O240 O 0.27635 0.10054 0.34075 0.0
C241 C 0.23793 0.15837 0.41171 0.0
O242 O 0.21998 0.15572 0.39707 0.0
O243 O 0.24095 0.18124 0.36135 0.0
O244 O 0.21648 0.16017 0.33775 0.0
H245 H 0.30154 0.23948 0.34674 0.0
H246 H 0.22374 0.0951 0.38028 0.0
O247 O 0.23764 0.09206 0.3373 0.0
H248 H 0.14473 0.13196 0.37213 0.0
H249 H 0.16827 0.07836 0.2904 0.0
H250 H 0.21566 0.15201 0.29337 0.0
H251 H 0.17647 0.14076 0.34324 0.0
H252 H 0.19451 0.08661 0.32453 0.0
O253 O 0.25892 0.16061 0.40351 0.0
H254 H 0.27649 0.2039 0.3414 0.0
H255 H 0.30142 0.1756 0.40675 0.0
H256 H 0.18944 0.14463 0.25905 0.0
H257 H 0.19246 0.08567 0.40947 0.0
H258 H 0.16552 0.10756 0.25741 0.0
H259 H 0.15264 0.10423 0.40553 0.0
O260 O 0.25268 0.13441 0.31509 0.0
H261 H 0.30745 0.09074 0.40944 0.0
H262 H 0.31804 0.15629 0.35223 0.0
H263 H 0.35142 0.12907 0.36029 0.0
H264 H 0.34623 0.09602 0.38908 0.0
H265 H 0.27449 0.11825 0.40072 0.0
H266 H 0.32653 0.21101 0.41296 0.0
H267 H 0.32678 0.2432 0.38275 0.0
O268 O 0.27705 0.15947 0.33449 0.0
C269 C 0.22279 0.17947 0.3479 0.0
C270 C 0.30165 0.22554 0.36 0.0
C271 C 0.31565 0.20957 0.39717 0.0
N272 N 0.28769 0.1876 0.37363 0.0
C273 C 0.28757 0.20532 0.35703 0.0
C274 C 0.30137 0.18959 0.39359 0.0
C275 C 0.31579 0.22762 0.38021 0.0
C276 C 0.20638 0.10304 0.37831 0.0
N277 N 0.20189 0.11835 0.36001 0.0
C278 C 0.18877 0.09772 0.39495 0.0
C279 C 0.16645 0.10817 0.39275 0.0
C280 C 0.162 0.12374 0.37402 0.0
C281 C 0.18005 0.12869 0.35774 0.0
C282 C 0.17854 0.09461 0.29094 0.0
C283 C 0.20514 0.13595 0.29288 0.0
C284 C 0.19345 0.09935 0.3102 0.0
N285 N 0.20637 0.1199 0.31105 0.0
C286 C 0.1904 0.13182 0.27336 0.0
C287 C 0.17701 0.111 0.27244 0.0
C288 C 0.27034 0.1486 0.31571 0.0
C289 C 0.30995 0.10512 0.39692 0.0
C290 C 0.31564 0.14193 0.36477 0.0
C291 C 0.33461 0.1266 0.36929 0.0
C292 C 0.33169 0.10807 0.38546 0.0
N293 N 0.29438 0.13893 0.3761 0.0
C294 C 0.29139 0.12082 0.39199 0.0
Co295 Co 0.34125 0.76786 0.87492 0.0
Co296 Co 0.3689 0.7319 0.83352 0.0
O297 O 0.36791 0.74871 0.86391 0.0
C298 C 0.34816 0.73352 0.91434 0.0
O299 O 0.3492 0.71641 0.89851 0.0
C300 C 0.4102 0.76384 0.83246 0.0
O301 O 0.3953 0.78077 0.83839 0.0
O302 O 0.35728 0.76031 0.81578 0.0
O303 O 0.33651 0.78139 0.84255 0.0
H304 H 0.3373 0.70482 0.75454 0.0
H305 H 0.38755 0.77014 0.8998 0.0
O306 O 0.34533 0.75498 0.90776 0.0
H307 H 0.37151 0.85211 0.87328 0.0
H308 H 0.29814 0.82014 0.93332 0.0
H309 H 0.29353 0.77935 0.8559 0.0
H310 H 0.34267 0.82006 0.86542 0.0
H311 H 0.33198 0.79661 0.91849 0.0
O312 O 0.40261 0.74275 0.82916 0.0
H313 H 0.33583 0.72586 0.79294 0.0
H314 H 0.40553 0.70221 0.80944 0.0
H315 H 0.25936 0.8029 0.86994 0.0
H316 H 0.4168 0.80167 0.90823 0.0
H317 H 0.26153 0.82349 0.90893 0.0
H318 H 0.4089 0.84298 0.89484 0.0
O319 O 0.31852 0.7418 0.86734 0.0
H320 H 0.42012 0.68804 0.89203 0.0
H321 H 0.35486 0.68083 0.83405 0.0
H322 H 0.36802 0.64537 0.8562 0.0
H323 H 0.40091 0.64885 0.8854 0.0
H324 H 0.40626 0.72307 0.86966 0.0
H325 H 0.40785 0.68105 0.7711 0.0
H326 H 0.37352 0.68221 0.7434 0.0
O327 O 0.33534 0.72103 0.83757 0.0
C328 C 0.34375 0.77758 0.82143 0.0
C329 C 0.35235 0.70411 0.76649 0.0
C330 C 0.39196 0.69081 0.77578 0.0
N331 N 0.3705 0.7151 0.80348 0.0
C332 C 0.3516 0.71594 0.78829 0.0
C333 C 0.39057 0.70286 0.79743 0.0
C334 C 0.37268 0.69145 0.76024 0.0
C335 C 0.38389 0.78812 0.8941 0.0
N336 N 0.36342 0.79326 0.88213 0.0
C337 C 0.40056 0.80588 0.89885 0.0
C338 C 0.39613 0.82905 0.8913 0.0
C339 C 0.37517 0.83417 0.87918 0.0
C340 C 0.35893 0.81594 0.87471 0.0
C341 C 0.297 0.8113 0.91628 0.0
C342 C 0.29467 0.7884 0.8728 0.0
C343 C 0.31608 0.7979 0.90782 0.0
N344 N 0.31479 0.78676 0.88627 0.0
C345 C 0.27524 0.80165 0.8807 0.0
C346 C 0.27646 0.81317 0.90258 0.0
C347 C 0.31799 0.72557 0.85146 0.0
C348 C 0.40582 0.68628 0.87931 0.0
C349 C 0.36914 0.68249 0.84677 0.0
C350 C 0.37655 0.66235 0.85923 0.0
C351 C 0.39501 0.66431 0.8756 0.0
N352 N 0.37987 0.70397 0.85047 0.0
C353 C 0.39796 0.70604 0.86651 0.0
Co354 Co 0.7757 0.876 0.33826 0.0
Co355 Co 0.73381 0.83829 0.36306 0.0
O356 O 0.75201 0.86806 0.36257 0.0
C357 C 0.74258 0.91755 0.33681 0.0
O358 O 0.7245 0.90391 0.34229 0.0
C359 C 0.75698 0.83918 0.41063 0.0
O360 O 0.77652 0.84738 0.40092 0.0
O361 O 0.76284 0.81873 0.35736 0.0
O362 O 0.7888 0.84325 0.33963 0.0
H363 H 0.70859 0.75845 0.33199 0.0
H364 H 0.77074 0.90623 0.381 0.0
O365 O 0.76354 0.90921 0.33567 0.0
H366 H 0.85326 0.877 0.38287 0.0
H367 H 0.83674 0.92813 0.29868 0.0
H368 H 0.79458 0.85135 0.29572 0.0
H369 H 0.82649 0.86606 0.34996 0.0
H370 H 0.80715 0.9178 0.32929 0.0
O371 O 0.73867 0.83513 0.39801 0.0
H372 H 0.73144 0.79582 0.33194 0.0
H373 H 0.6971 0.81782 0.39544 0.0
H374 H 0.8242 0.86088 0.26488 0.0
H375 H 0.79695 0.91782 0.41417 0.0
H376 H 0.8455 0.89952 0.26624 0.0
H377 H 0.83851 0.90308 0.41528 0.0
O378 O 0.75373 0.86651 0.31203 0.0
H379 H 0.68541 0.90135 0.40366 0.0
H380 H 0.68556 0.83995 0.34114 0.0
H381 H 0.64964 0.86417 0.34747 0.0
H382 H 0.64939 0.8951 0.37897 0.0
H383 H 0.72106 0.87689 0.39655 0.0
H384 H 0.67404 0.78055 0.39631 0.0
H385 H 0.67964 0.7506 0.36436 0.0
O386 O 0.72836 0.8405 0.32841 0.0
C387 C 0.78272 0.82288 0.34733 0.0
C388 C 0.70595 0.77137 0.34599 0.0
C389 C 0.68659 0.78377 0.3821 0.0
N390 N 0.71555 0.80904 0.36362 0.0
C391 C 0.71881 0.7926 0.34604 0.0
C392 C 0.69975 0.80481 0.38156 0.0
C393 C 0.68973 0.76698 0.36417 0.0
C394 C 0.78886 0.89991 0.38128 0.0
N395 N 0.79707 0.88547 0.36358 0.0
C396 C 0.80359 0.90646 0.40014 0.0
C397 C 0.8269 0.89817 0.40077 0.0
C398 C 0.83518 0.88351 0.38261 0.0
C399 C 0.81992 0.87729 0.36406 0.0
C400 C 0.82761 0.91122 0.29793 0.0
C401 C 0.80389 0.86814 0.29652 0.0
C402 C 0.8108 0.90529 0.31518 0.0
N403 N 0.79928 0.88391 0.31439 0.0
C404 C 0.8206 0.87346 0.27897 0.0
C405 C 0.83252 0.89515 0.27973 0.0
C406 C 0.73642 0.85192 0.31068 0.0
C407 C 0.68528 0.88789 0.38993 0.0
C408 C 0.68564 0.85344 0.3548 0.0
C409 C 0.66522 0.86706 0.35835 0.0
C410 C 0.66509 0.8844 0.37604 0.0
N411 N 0.70537 0.85695 0.36853 0.0
C412 C 0.70537 0.87391 0.3859 0.0
Co413 Co 0.66445 0.24232 0.8765 0.0
Co414 Co 0.63618 0.27872 0.83553 0.0
O415 O 0.63735 0.26153 0.86582 0.0
C416 C 0.65909 0.27765 0.91542 0.0
O417 O 0.65683 0.29434 0.89927 0.0
C418 C 0.59236 0.24858 0.83449 0.0
O419 O 0.60327 0.23155 0.8461 0.0
O420 O 0.64825 0.25048 0.81768 0.0
O421 O 0.66755 0.22793 0.84437 0.0
H422 H 0.6689 0.30612 0.75717 0.0
H423 H 0.61935 0.2415 0.90361 0.0
O424 O 0.66195 0.25609 0.90919 0.0
H425 H 0.63265 0.15864 0.87837 0.0
H426 H 0.70879 0.1906 0.9345 0.0
H427 H 0.71103 0.22912 0.85583 0.0
H428 H 0.66153 0.18997 0.86818 0.0
H429 H 0.67492 0.21456 0.92046 0.0
O430 O 0.60295 0.26794 0.8296 0.0
H431 H 0.66984 0.28513 0.79562 0.0
H432 H 0.59988 0.30874 0.81104 0.0
H433 H 0.74522 0.20514 0.86907 0.0
H434 H 0.59014 0.21068 0.91444 0.0
H435 H 0.74423 0.18569 0.90868 0.0
H436 H 0.59665 0.16892 0.9017 0.0
O437 O 0.68776 0.26772 0.86757 0.0
H438 H 0.58412 0.32033 0.89487 0.0
H439 H 0.648 0.33043 0.83584 0.0
H440 H 0.63396 0.3652 0.85853 0.0
H441 H 0.60176 0.36026 0.88828 0.0
H442 H 0.59891 0.28601 0.87195 0.0
H443 H 0.59813 0.32989 0.7727 0.0
H444 H 0.63285 0.32871 0.7455 0.0
O445 O 0.66901 0.29034 0.84049 0.0
C446 C 0.66059 0.2323 0.82327 0.0
C447 C 0.65369 0.30684 0.76891 0.0
C448 C 0.61396 0.32014 0.77761 0.0
N449 N 0.63501 0.29584 0.80563 0.0
C450 C 0.65415 0.29504 0.79073 0.0
C451 C 0.61504 0.3081 0.79927 0.0
C452 C 0.63345 0.31948 0.76236 0.0
C453 C 0.62241 0.22333 0.89818 0.0
N454 N 0.64212 0.21755 0.88524 0.0
C455 C 0.60576 0.20597 0.90429 0.0
C456 C 0.60941 0.18255 0.89711 0.0
C457 C 0.62959 0.17678 0.88399 0.0
C458 C 0.64583 0.19461 0.87817 0.0
C459 C 0.70943 0.19897 0.91719 0.0
C460 C 0.71042 0.22061 0.87303 0.0
C461 C 0.69033 0.21262 0.90918 0.0
N462 N 0.69096 0.22315 0.8873 0.0
C463 C 0.72985 0.2071 0.88046 0.0
C464 C 0.7293 0.19621 0.90269 0.0
C465 C 0.68701 0.28516 0.85309 0.0
C466 C 0.59815 0.32272 0.88195 0.0
C467 C 0.63412 0.32813 0.84887 0.0
C468 C 0.62616 0.34789 0.86159 0.0
C469 C 0.60808 0.34511 0.87827 0.0
N470 N 0.62434 0.30621 0.85263 0.0
C471 C 0.60655 0.30336 0.86888 0.0
Co472 Co 0.26034 0.83634 0.63014 0.0
Co473 Co 0.22075 0.86961 0.66305 0.0
O474 O 0.24061 0.86427 0.63524 0.0
C475 C 0.22915 0.83871 0.58816 0.0
O476 O 0.21141 0.84099 0.60311 0.0
C477 C 0.25299 0.91053 0.6612 0.0
O478 O 0.26998 0.89474 0.6589 0.0
O479 O 0.24717 0.86111 0.68477 0.0
O480 O 0.27061 0.83606 0.66426 0.0
H481 H 0.18584 0.85033 0.7429 0.0
H482 H 0.26605 0.87842 0.59889 0.0
O483 O 0.25027 0.83618 0.59594 0.0
H484 H 0.34418 0.86669 0.63666 0.0
H485 H 0.31735 0.78573 0.58344 0.0
H486 H 0.26952 0.79169 0.65659 0.0
H487 H 0.311 0.8394 0.64527 0.0
H488 H 0.29262 0.82112 0.59106 0.0
O489 O 0.2315 0.90369 0.66343 0.0
H490 H 0.21075 0.84323 0.70757 0.0
H491 H 0.18898 0.90917 0.67803 0.0
H492 H 0.29419 0.75611 0.64982 0.0
H493 H 0.2988 0.90601 0.58964 0.0
H494 H 0.31833 0.75297 0.61301 0.0
H495 H 0.33818 0.90028 0.60867 0.0
O496 O 0.23354 0.81492 0.63821 0.0
H497 H 0.18354 0.91092 0.59322 0.0
H498 H 0.16995 0.85515 0.65943 0.0
H499 H 0.13714 0.86435 0.6319 0.0
H500 H 0.14384 0.89243 0.59851 0.0
H501 H 0.2159 0.90109 0.62107 0.0
H502 H 0.16403 0.91714 0.71318 0.0
H503 H 0.16226 0.88753 0.74587 0.0
O504 O 0.21007 0.83554 0.66318 0.0
C505 C 0.26473 0.84686 0.68333 0.0
C506 C 0.18638 0.86333 0.72874 0.0
C507 C 0.17416 0.90084 0.71207 0.0
N508 N 0.20108 0.87564 0.69065 0.0
C509 C 0.20038 0.85936 0.70865 0.0
C510 C 0.18835 0.89626 0.69223 0.0
C511 C 0.17318 0.88421 0.7304 0.0
C512 C 0.28321 0.87565 0.60704 0.0
N513 N 0.28664 0.85724 0.62249 0.0
C514 C 0.30166 0.8914 0.60181 0.0
C515 C 0.32374 0.8882 0.61252 0.0
C516 C 0.32711 0.86936 0.62825 0.0
C517 C 0.30824 0.85399 0.63308 0.0
C518 C 0.30696 0.78692 0.59957 0.0
C519 C 0.28012 0.79053 0.64062 0.0
C520 C 0.29289 0.80688 0.60396 0.0
N521 N 0.27984 0.80855 0.62436 0.0
C522 C 0.29398 0.7703 0.63684 0.0
C523 C 0.3075 0.76854 0.61617 0.0
C524 C 0.21593 0.81643 0.65239 0.0
C525 C 0.18038 0.89872 0.60775 0.0
C526 C 0.17301 0.86737 0.64493 0.0
C527 C 0.15435 0.87254 0.62942 0.0
C528 C 0.15812 0.88831 0.6107 0.0
N529 N 0.19478 0.87768 0.64193 0.0
C530 C 0.19861 0.89317 0.62363 0.0
Co531 Co 0.63429 0.73334 0.16508 0.0
Co532 Co 0.66079 0.76545 0.12024 0.0
O533 O 0.63437 0.7475 0.13348 0.0
C534 C 0.59216 0.76417 0.16422 0.0
O535 O 0.60655 0.78119 0.15735 0.0
C536 C 0.65161 0.72879 0.08341 0.0
O537 O 0.6524 0.71237 0.09996 0.0
O538 O 0.68342 0.73956 0.12846 0.0
O539 O 0.66805 0.72295 0.16142 0.0
H540 H 0.74331 0.79943 0.11909 0.0
H541 H 0.59669 0.72045 0.13043 0.0
O542 O 0.60041 0.74362 0.16896 0.0
H543 H 0.63689 0.64515 0.15023 0.0
H544 H 0.59768 0.68738 0.2325 0.0
H545 H 0.66815 0.7318 0.20541 0.0
H546 H 0.64953 0.68275 0.16889 0.0
H547 H 0.59884 0.70501 0.19237 0.0
O548 O 0.65474 0.75057 0.08868 0.0
H549 H 0.70958 0.77733 0.1362 0.0
H550 H 0.66837 0.79111 0.07451 0.0
H551 H 0.66783 0.71433 0.24558 0.0
H552 H 0.58333 0.68323 0.11153 0.0
H553 H 0.63239 0.69192 0.25936 0.0
H554 H 0.60353 0.64523 0.12136 0.0
O555 O 0.64552 0.7635 0.17989 0.0
H556 H 0.58465 0.79888 0.08786 0.0
H557 H 0.66054 0.81806 0.12715 0.0
H558 H 0.63204 0.8502 0.11851 0.0
H559 H 0.59378 0.84068 0.09872 0.0
H560 H 0.61356 0.76727 0.09701 0.0
H561 H 0.70173 0.81317 0.05664 0.0
H562 H 0.7395 0.81754 0.07902 0.0
O563 O 0.6674 0.78086 0.15141 0.0
C564 C 0.68475 0.72558 0.14629 0.0
C565 C 0.72692 0.79773 0.10919 0.0
C566 C 0.70359 0.80541 0.07413 0.0
N567 N 0.68697 0.7831 0.10646 0.0
C568 C 0.70773 0.78529 0.11882 0.0
C569 C 0.68478 0.79285 0.08432 0.0
C570 C 0.72478 0.80786 0.0867 0.0
C571 C 0.60543 0.70396 0.13497 0.0
N572 N 0.62378 0.70375 0.15085 0.0
C573 C 0.59785 0.68295 0.12414 0.0
C574 C 0.6092 0.66165 0.12964 0.0
C575 C 0.62793 0.66159 0.14582 0.0
C576 C 0.63505 0.68294 0.15629 0.0
C577 C 0.61324 0.69706 0.22668 0.0
C578 C 0.65273 0.72195 0.21122 0.0
C579 C 0.61397 0.70712 0.204 0.0
N580 N 0.63361 0.71926 0.19651 0.0
C581 C 0.65262 0.71215 0.23401 0.0
C582 C 0.63272 0.69961 0.24174 0.0
C583 C 0.65995 0.77946 0.17274 0.0
C584 C 0.60128 0.80326 0.09644 0.0
C585 C 0.64391 0.81377 0.11859 0.0
C586 C 0.62786 0.83205 0.11369 0.0
C587 C 0.60641 0.8267 0.10256 0.0
N588 N 0.63876 0.79082 0.11252 0.0
C589 C 0.61777 0.78544 0.10157 0.0
Co590 Co 0.73165 0.16328 0.62985 0.0
Co591 Co 0.77262 0.13191 0.66287 0.0
O592 O 0.75194 0.13584 0.63546 0.0
C593 C 0.76182 0.15979 0.58732 0.0
O594 O 0.77983 0.15838 0.60204 0.0
C595 C 0.74169 0.08985 0.66311 0.0
O596 O 0.72399 0.10489 0.66111 0.0
O597 O 0.74649 0.14049 0.68495 0.0
O598 O 0.72244 0.16485 0.66427 0.0
H599 H 0.8091 0.15492 0.74102 0.0
H600 H 0.72572 0.1199 0.60046 0.0
O601 O 0.74079 0.16221 0.59539 0.0
H602 H 0.64857 0.1319 0.64012 0.0
H603 H 0.67249 0.21101 0.58282 0.0
H604 H 0.72257 0.2089 0.65466 0.0
H605 H 0.68155 0.16002 0.64665 0.0
H606 H 0.69799 0.17634 0.59118 0.0
O607 O 0.76293 0.09758 0.66454 0.0
H608 H 0.78309 0.1601 0.70615 0.0
H609 H 0.80579 0.09369 0.67838 0.0
H610 H 0.69715 0.24379 0.64715 0.0
H611 H 0.69317 0.09145 0.5933 0.0
H612 H 0.67188 0.24499 0.61099 0.0
H613 H 0.65428 0.09732 0.61328 0.0
O614 O 0.75827 0.18548 0.63628 0.0
H615 H 0.80926 0.08932 0.59349 0.0
H616 H 0.82293 0.14754 0.65756 0.0
H617 H 0.85533 0.13829 0.62955 0.0
H618 H 0.84858 0.10898 0.59724 0.0
H619 H 0.77731 0.09923 0.62177 0.0
H620 H 0.83184 0.08763 0.71311 0.0
H621 H 0.8337 0.11845 0.74467 0.0
O622 O 0.7824 0.16616 0.66162 0.0
C623 C 0.72889 0.15471 0.68353 0.0
C624 C 0.80851 0.1414 0.72736 0.0
C625 C 0.82125 0.10362 0.7117 0.0
N626 N 0.79313 0.12733 0.69015 0.0
C627 C 0.79388 0.14427 0.70753 0.0
C628 C 0.80644 0.10712 0.69211 0.0
C629 C 0.82229 0.12092 0.7294 0.0
C630 C 0.70877 0.12272 0.60902 0.0
N631 N 0.70549 0.14167 0.62384 0.0
C632 C 0.69044 0.10649 0.60498 0.0
C633 C 0.66864 0.10978 0.61622 0.0
C634 C 0.66542 0.12917 0.6313 0.0
C635 C 0.68417 0.14501 0.63495 0.0
C636 C 0.68337 0.21066 0.59867 0.0
C637 C 0.71147 0.20921 0.639 0.0
C638 C 0.69787 0.19111 0.60347 0.0
N639 N 0.71153 0.1905 0.62352 0.0
C640 C 0.69718 0.22905 0.63479 0.0
C641 C 0.68303 0.22973 0.61448 0.0
C642 C 0.77609 0.18478 0.65025 0.0
C643 C 0.81244 0.10207 0.60754 0.0
C644 C 0.81986 0.13478 0.64353 0.0
C645 C 0.83828 0.12959 0.62775 0.0
C646 C 0.83449 0.11313 0.60963 0.0
N647 N 0.7983 0.12383 0.64138 0.0
C648 C 0.79445 0.10767 0.62367 0.0
Co649 Co 0.36897 0.26709 0.1656 0.0
Co650 Co 0.33867 0.23502 0.1232 0.0
O651 O 0.36649 0.25224 0.13437 0.0
C652 C 0.4103 0.23515 0.16256 0.0
O653 O 0.39541 0.21812 0.15687 0.0
C654 C 0.34707 0.27031 0.08477 0.0
O655 O 0.34822 0.28707 0.10098 0.0
O656 O 0.3177 0.26212 0.13203 0.0
O657 O 0.33543 0.27854 0.16389 0.0
H658 H 0.25501 0.20441 0.12826 0.0
H659 H 0.40468 0.27802 0.12838 0.0
O660 O 0.40258 0.25585 0.16755 0.0
H661 H 0.36818 0.35499 0.1489 0.0
H662 H 0.41136 0.31329 0.22939 0.0
H663 H 0.33799 0.27046 0.20808 0.0
H664 H 0.35556 0.31823 0.16917 0.0
H665 H 0.40696 0.29493 0.18981 0.0
O666 O 0.34326 0.24883 0.09079 0.0
H667 H 0.29065 0.22553 0.14256 0.0
H668 H 0.32711 0.2086 0.07871 0.0
H669 H 0.34156 0.28867 0.24776 0.0
H670 H 0.41799 0.31437 0.10785 0.0
H671 H 0.37847 0.31029 0.25864 0.0
H672 H 0.39965 0.3532 0.11804 0.0
O673 O 0.35792 0.23765 0.1818 0.0
H674 H 0.41151 0.19801 0.08734 0.0
H675 H 0.3371 0.18251 0.13079 0.0
H676 H 0.36377 0.1491 0.1212 0.0
H677 H 0.40129 0.15676 0.09929 0.0
H678 H 0.38442 0.23091 0.09751 0.0
H679 H 0.2918 0.18751 0.06362 0.0
H680 H 0.25545 0.18522 0.08851 0.0
O681 O 0.33357 0.22052 0.15523 0.0
C682 C 0.31797 0.27652 0.14957 0.0
C683 C 0.27077 0.20522 0.11728 0.0
C684 C 0.29141 0.19575 0.08099 0.0
N685 N 0.31099 0.21813 0.11157 0.0
C686 C 0.29102 0.21708 0.12531 0.0
C687 C 0.31133 0.20777 0.0896 0.0
C688 C 0.27102 0.19447 0.09497 0.0
C689 C 0.39676 0.29487 0.13307 0.0
N690 N 0.37946 0.29601 0.15005 0.0
C691 C 0.40431 0.31539 0.12132 0.0
C692 C 0.39399 0.33716 0.12702 0.0
C693 C 0.37632 0.33818 0.14432 0.0
C694 C 0.36921 0.3173 0.1557 0.0
C695 C 0.39517 0.30397 0.22484 0.0
C696 C 0.35403 0.27997 0.21262 0.0
C697 C 0.3926 0.29351 0.20248 0.0
N698 N 0.37216 0.28181 0.19659 0.0
C699 C 0.35598 0.29019 0.23515 0.0
C700 C 0.37671 0.30228 0.24124 0.0
C701 C 0.34258 0.22204 0.17597 0.0
C702 C 0.3952 0.19444 0.09686 0.0
C703 C 0.35344 0.18599 0.12139 0.0
C704 C 0.36844 0.167 0.11592 0.0
C705 C 0.38947 0.17131 0.1036 0.0
N706 N 0.35919 0.20863 0.11475 0.0
C707 C 0.37975 0.21298 0.1026 0.0
Co708 Co 0.87194 0.66628 0.76825 0.0
Co709 Co 0.83605 0.62709 0.73739 0.0
O710 O 0.86568 0.63564 0.75322 0.0
C711 C 0.9111 0.66073 0.73344 0.0
O712 O 0.89526 0.65479 0.71738 0.0
C713 C 0.84295 0.58886 0.77327 0.0
O714 O 0.84725 0.60521 0.78935 0.0
O715 O 0.81677 0.63902 0.7647 0.0
O716 O 0.83958 0.66655 0.78267 0.0
H717 H 0.75259 0.64072 0.70897 0.0
H718 H 0.90477 0.62563 0.77506 0.0
O719 O 0.9046 0.66632 0.75437 0.0
H720 H 0.87882 0.64822 0.85562 0.0
H721 H 0.92271 0.72606 0.81133 0.0
H722 H 0.84448 0.71069 0.77504 0.0
H723 H 0.86474 0.67047 0.8206 0.0
H724 H 0.91385 0.6872 0.79308 0.0
O725 O 0.83759 0.59479 0.75211 0.0
H726 H 0.79039 0.65162 0.72823 0.0
H727 H 0.81856 0.58324 0.71317 0.0
H728 H 0.85253 0.74977 0.79322 0.0
H729 H 0.91954 0.60306 0.80958 0.0
H730 H 0.89189 0.75765 0.81155 0.0
H731 H 0.90648 0.61426 0.85022 0.0
O732 O 0.85971 0.68396 0.74001 0.0
H733 H 0.90328 0.58227 0.69947 0.0
H734 H 0.83326 0.63272 0.68474 0.0
H735 H 0.85745 0.61906 0.65087 0.0
H736 H 0.89274 0.5936 0.65814 0.0
H737 H 0.87875 0.59657 0.73281 0.0
H738 H 0.78102 0.57154 0.69386 0.0
H739 H 0.74773 0.60041 0.6916 0.0
O740 O 0.83422 0.65897 0.72206 0.0
C741 C 0.82015 0.65511 0.78035 0.0
C742 C 0.76699 0.628 0.70977 0.0
C743 C 0.78293 0.58916 0.70134 0.0
N744 N 0.80669 0.61813 0.72173 0.0
C745 C 0.78845 0.63409 0.72062 0.0
C746 C 0.80412 0.59586 0.71235 0.0
C747 C 0.76426 0.60538 0.70006 0.0
C748 C 0.89911 0.63071 0.7927 0.0
N749 N 0.8838 0.64929 0.79581 0.0
C750 C 0.90749 0.61782 0.81217 0.0
C751 C 0.90013 0.62409 0.83496 0.0
C752 C 0.88459 0.64313 0.838 0.0
C753 C 0.87656 0.65559 0.81811 0.0
C754 C 0.90548 0.72283 0.80345 0.0
C755 C 0.8616 0.71394 0.78311 0.0
C756 C 0.90038 0.70088 0.79303 0.0
N757 N 0.87862 0.69664 0.78314 0.0
C758 C 0.86607 0.73612 0.79332 0.0
C759 C 0.88817 0.74054 0.80357 0.0
C760 C 0.84435 0.67915 0.72403 0.0
C761 C 0.88795 0.59335 0.69606 0.0
C762 C 0.84869 0.62184 0.68804 0.0
C763 C 0.86227 0.61405 0.66879 0.0
C764 C 0.88204 0.59974 0.67289 0.0
N765 N 0.85462 0.61556 0.71073 0.0
C766 C 0.87394 0.60146 0.71487 0.0
Co767 Co 0.84162 0.37869 0.27816 0.0
Co768 Co 0.86502 0.33523 0.24155 0.0
O769 O 0.86671 0.36604 0.25763 0.0
C770 C 0.8474 0.41639 0.242 0.0
O771 O 0.84735 0.39974 0.22566 0.0
C772 C 0.91081 0.33378 0.26795 0.0
O773 O 0.90079 0.34515 0.28566 0.0
O774 O 0.85525 0.31901 0.27139 0.0
O775 O 0.83647 0.34689 0.29289 0.0
H776 H 0.82702 0.25734 0.22005 0.0
H777 H 0.88838 0.40283 0.27685 0.0
O778 O 0.8459 0.4109 0.26389 0.0
H779 H 0.87772 0.37747 0.36002 0.0
H780 H 0.80471 0.44026 0.33154 0.0
H781 H 0.79408 0.36199 0.29353 0.0
H782 H 0.84669 0.36947 0.33015 0.0
H783 H 0.83616 0.42337 0.30614 0.0
O784 O 0.89904 0.32873 0.2493 0.0
H785 H 0.82957 0.2963 0.23994 0.0
H786 H 0.89733 0.30848 0.20909 0.0
H787 H 0.76228 0.37809 0.31902 0.0
H788 H 0.91977 0.4114 0.30619 0.0
H789 H 0.76749 0.41751 0.3382 0.0
H790 H 0.91457 0.3986 0.3481 0.0
O791 O 0.81669 0.37154 0.25401 0.0
H792 H 0.91496 0.3903 0.19216 0.0
H793 H 0.84695 0.33508 0.19169 0.0
H794 H 0.85812 0.35584 0.15477 0.0
H795 H 0.89238 0.38366 0.15484 0.0
H796 H 0.90305 0.36932 0.22876 0.0
H797 H 0.8956 0.26953 0.18902 0.0
H798 H 0.86021 0.24372 0.19437 0.0
O799 O 0.83116 0.34071 0.23327 0.0
C800 C 0.84293 0.32548 0.28927 0.0
C801 C 0.84251 0.26845 0.21752 0.0
C802 C 0.88101 0.27529 0.20013 0.0
N803 N 0.8635 0.30472 0.22555 0.0
C804 C 0.84403 0.29057 0.22869 0.0
C805 C 0.88192 0.2973 0.21158 0.0
C806 C 0.86114 0.26081 0.20313 0.0
C807 C 0.88588 0.39743 0.29511 0.0
N808 N 0.8657 0.38571 0.30179 0.0
C809 C 0.90376 0.40224 0.31162 0.0
C810 C 0.90085 0.39501 0.33512 0.0
C811 C 0.88019 0.38313 0.34182 0.0
C812 C 0.86271 0.37858 0.32481 0.0
C813 C 0.80225 0.42304 0.32332 0.0
C814 C 0.79654 0.37908 0.30196 0.0
C815 C 0.81997 0.41342 0.30887 0.0
N816 N 0.81702 0.39165 0.2985 0.0
C817 C 0.77845 0.38814 0.31631 0.0
C818 C 0.78138 0.41027 0.32705 0.0
C819 C 0.81465 0.35532 0.23829 0.0
C820 C 0.90005 0.37817 0.19189 0.0
C821 C 0.86184 0.3472 0.19189 0.0
C822 C 0.86812 0.35886 0.17091 0.0
C823 C 0.88735 0.37446 0.17096 0.0
N824 N 0.87442 0.3509 0.21234 0.0
C825 C 0.89328 0.36617 0.21253 0.0
Co826 Co 0.16417 0.37296 0.74099 0.0
Co827 Co 0.12943 0.3315 0.77053 0.0
O828 O 0.13428 0.36267 0.75566 0.0
C829 C 0.15517 0.41075 0.77717 0.0
O830 O 0.14983 0.39434 0.79288 0.0
C831 C 0.08977 0.33531 0.73522 0.0
O832 O 0.10269 0.34876 0.72125 0.0
O833 O 0.14435 0.31471 0.74308 0.0
O834 O 0.16784 0.34155 0.72519 0.0
H835 H 0.15433 0.24989 0.79678 0.0
H836 H 0.12101 0.40263 0.73558 0.0
O837 O 0.16116 0.40493 0.75615 0.0
H838 H 0.14486 0.38144 0.654 0.0
H839 H 0.21806 0.43132 0.69975 0.0
H840 H 0.21117 0.35058 0.73313 0.0
H841 H 0.16828 0.36767 0.68836 0.0
H842 H 0.18045 0.41776 0.71761 0.0
O843 O 0.09779 0.32787 0.75499 0.0
H844 H 0.15999 0.28944 0.77877 0.0
H845 H 0.08825 0.30733 0.79372 0.0
H846 H 0.24906 0.36336 0.71528 0.0
H847 H 0.09727 0.41711 0.70173 0.0
H848 H 0.25269 0.40401 0.69844 0.0
H849 H 0.1091 0.40643 0.66059 0.0
O850 O 0.18324 0.36144 0.76869 0.0
H851 H 0.07458 0.3908 0.80845 0.0
H852 H 0.13421 0.3284 0.82328 0.0
H853 H 0.11639 0.34965 0.8572 0.0
H854 H 0.0863 0.38109 0.84988 0.0
H855 H 0.09307 0.36925 0.77507 0.0
H856 H 0.08178 0.26792 0.81178 0.0
H857 H 0.11498 0.23891 0.81345 0.0
O858 O 0.16067 0.33384 0.78665 0.0
C859 C 0.15933 0.32066 0.72716 0.0
C860 C 0.13975 0.26241 0.79625 0.0
C861 C 0.09902 0.27252 0.80463 0.0
N862 N 0.12454 0.30075 0.78536 0.0
C863 C 0.14287 0.28486 0.78614 0.0
C864 C 0.10278 0.29479 0.79435 0.0
C865 C 0.11766 0.25625 0.80557 0.0
C866 C 0.12639 0.39807 0.71773 0.0
N867 N 0.14598 0.38425 0.71396 0.0
C868 C 0.11282 0.40625 0.69863 0.0
C869 C 0.11945 0.40022 0.67555 0.0
C870 C 0.13949 0.38617 0.67185 0.0
C871 C 0.15261 0.3783 0.69138 0.0
C872 C 0.2167 0.41357 0.70702 0.0
C873 C 0.21257 0.36826 0.72574 0.0
C874 C 0.19547 0.40581 0.71723 0.0
N875 N 0.19359 0.38338 0.72637 0.0
C876 C 0.23409 0.37541 0.7157 0.0
C877 C 0.23612 0.39823 0.70627 0.0
C878 C 0.17978 0.34575 0.7847 0.0
C879 C 0.08766 0.37713 0.81188 0.0
C880 C 0.12128 0.34217 0.81996 0.0
C881 C 0.11117 0.35408 0.83923 0.0
C882 C 0.09426 0.37169 0.83511 0.0
N883 N 0.11473 0.34761 0.79723 0.0
C884 C 0.09814 0.36482 0.79305 0.0
Co885 Co 0.13047 0.66132 0.23633 0.0
Co886 Co 0.16738 0.62243 0.26631 0.0
O887 O 0.13734 0.6307 0.2511 0.0
C888 C 0.09145 0.65531 0.27148 0.0
O889 O 0.10728 0.64971 0.28766 0.0
C890 C 0.16067 0.58475 0.22998 0.0
O891 O 0.15592 0.60141 0.21434 0.0
O892 O 0.18608 0.63482 0.23881 0.0
O893 O 0.1626 0.66214 0.22146 0.0
H894 H 0.25114 0.63692 0.29343 0.0
H895 H 0.09819 0.6202 0.22973 0.0
O896 O 0.09797 0.66084 0.25054 0.0
H897 H 0.12241 0.64384 0.14893 0.0
H898 H 0.07833 0.72078 0.19447 0.0
H899 H 0.15728 0.70613 0.22944 0.0
H900 H 0.13671 0.66606 0.1839 0.0
H901 H 0.08794 0.68188 0.21222 0.0
O902 O 0.16603 0.59028 0.25126 0.0
H903 H 0.2129 0.64748 0.27487 0.0
H904 H 0.1858 0.57864 0.28987 0.0
H905 H 0.14847 0.74525 0.21176 0.0
H906 H 0.08321 0.59764 0.19528 0.0
H907 H 0.10874 0.75278 0.1941 0.0
H908 H 0.09541 0.60936 0.15452 0.0
O909 O 0.14291 0.67896 0.26451 0.0
H910 H 0.10154 0.57625 0.30507 0.0
H911 H 0.17087 0.62793 0.31893 0.0
H912 H 0.1475 0.61364 0.35311 0.0
H913 H 0.11257 0.58755 0.34628 0.0
H914 H 0.12527 0.59118 0.2714 0.0
H915 H 0.2238 0.56728 0.30848 0.0
H916 H 0.25677 0.59656 0.31041 0.0
O917 O 0.16908 0.65422 0.28183 0.0
C918 C 0.18222 0.65097 0.22336 0.0
C919 C 0.23688 0.62403 0.29277 0.0
C920 C 0.22155 0.58493 0.30117 0.0
N921 N 0.19711 0.61374 0.2814 0.0
C922 C 0.21517 0.62993 0.28233 0.0
C923 C 0.2001 0.59145 0.29056 0.0
C924 C 0.24004 0.60137 0.30226 0.0
C925 C 0.10347 0.6255 0.21204 0.0
N926 N 0.11843 0.64436 0.20883 0.0
C927 C 0.09498 0.61262 0.19261 0.0
C928 C 0.10185 0.61919 0.16975 0.0
C929 C 0.11702 0.6385 0.1666 0.0
C930 C 0.12518 0.65094 0.18646 0.0
C931 C 0.09572 0.71771 0.20207 0.0
C932 C 0.14 0.70922 0.22166 0.0
C933 C 0.10124 0.69574 0.2122 0.0
N934 N 0.1232 0.6917 0.22174 0.0
C935 C 0.1351 0.73143 0.21173 0.0
C936 C 0.11279 0.73565 0.20186 0.0
C937 C 0.15866 0.67427 0.28014 0.0
C938 C 0.11673 0.5876 0.30828 0.0
C939 C 0.1556 0.61676 0.31581 0.0
C940 C 0.14249 0.60863 0.33524 0.0
C941 C 0.12291 0.59397 0.33139 0.0
N942 N 0.14942 0.61046 0.2932 0.0
C943 C 0.13028 0.59605 0.28929 0.0
Co944 Co 0.77304 0.87301 0.6595 0.0
Co945 Co 0.72975 0.83965 0.63164 0.0
O946 O 0.75041 0.8674 0.63365 0.0
C947 C 0.74215 0.91505 0.65974 0.0
O948 O 0.7244 0.89994 0.65924 0.0
C949 C 0.75402 0.84025 0.58471 0.0
O950 O 0.77396 0.84615 0.59524 0.0
O951 O 0.75715 0.81811 0.63675 0.0
O952 O 0.78275 0.83868 0.65959 0.0
H953 H 0.69797 0.76054 0.6582 0.0
H954 H 0.7747 0.90341 0.61647 0.0
O955 O 0.76345 0.90739 0.65999 0.0
H956 H 0.85305 0.86449 0.62054 0.0
H957 H 0.83578 0.92013 0.70237 0.0
H958 H 0.78666 0.84756 0.70359 0.0
H959 H 0.82277 0.85681 0.65126 0.0
H960 H 0.80729 0.91197 0.67008 0.0
O961 O 0.73499 0.83769 0.59664 0.0
H962 H 0.72385 0.79584 0.66031 0.0
H963 H 0.69198 0.82388 0.59792 0.0
H964 H 0.81512 0.85486 0.73609 0.0
H965 H 0.80453 0.91176 0.58548 0.0
H966 H 0.83992 0.89138 0.73562 0.0
H967 H 0.84401 0.89216 0.58737 0.0
O968 O 0.74867 0.86598 0.6842 0.0
H969 H 0.68764 0.90884 0.5942 0.0
H970 H 0.68134 0.84404 0.65286 0.0
H971 H 0.6478 0.87172 0.64761 0.0
H972 H 0.65083 0.9044 0.6181 0.0
H973 H 0.72083 0.88085 0.60015 0.0
H974 H 0.66597 0.78872 0.59495 0.0
H975 H 0.66878 0.75681 0.62532 0.0
O976 O 0.72378 0.84048 0.66641 0.0
C977 C 0.77588 0.81956 0.64943 0.0
C978 C 0.69653 0.77435 0.64489 0.0
C979 C 0.67858 0.79016 0.60939 0.0
N980 N 0.70928 0.812 0.62938 0.0
C981 C 0.71109 0.79442 0.64603 0.0
C982 C 0.6934 0.81 0.61113 0.0
C983 C 0.68017 0.77227 0.62643 0.0
C984 C 0.79192 0.895 0.61754 0.0
N985 N 0.79703 0.87973 0.6357 0.0
C986 C 0.80871 0.89972 0.59989 0.0
C987 C 0.83084 0.88869 0.60094 0.0
C988 C 0.83592 0.87314 0.61953 0.0
C989 C 0.81868 0.86882 0.63684 0.0
C990 C 0.82513 0.90412 0.70275 0.0
C991 C 0.79753 0.86339 0.70316 0.0
C992 C 0.80893 0.89943 0.68454 0.0
N993 N 0.79552 0.87919 0.68484 0.0
C994 C 0.81355 0.86747 0.72166 0.0
C995 C 0.82744 0.88798 0.72139 0.0
C996 C 0.73116 0.85162 0.68464 0.0
C997 C 0.68608 0.89462 0.60706 0.0
C998 C 0.68281 0.85823 0.64 0.0
C999 C 0.66374 0.87382 0.63708 0.0
C1000 C 0.66544 0.89215 0.6205 0.0
N1001 N 0.70298 0.86077 0.62673 0.0
C1002 C 0.70477 0.87866 0.61042 0.0
Co1003 Co 0.66338 0.24877 0.13119 0.0
Co1004 Co 0.62131 0.28245 0.16046 0.0
O1005 O 0.63249 0.26438 0.13314 0.0
C1006 C 0.662 0.28123 0.09005 0.0
O1007 O 0.65604 0.29801 0.10512 0.0
C1008 C 0.58384 0.24627 0.15362 0.0
O1009 O 0.60067 0.23027 0.15156 0.0
O1010 O 0.63032 0.25628 0.18244 0.0
O1011 O 0.66049 0.23703 0.16465 0.0
H1012 H 0.62624 0.31593 0.24308 0.0
H1013 H 0.6268 0.23915 0.09444 0.0
O1014 O 0.66646 0.26033 0.09757 0.0
H1015 H 0.64435 0.16135 0.13076 0.0
H1016 H 0.72697 0.20134 0.08992 0.0
H1017 H 0.70481 0.24373 0.16333 0.0
H1018 H 0.66526 0.19745 0.1442 0.0
H1019 H 0.68786 0.2208 0.09346 0.0
O1020 O 0.5891 0.26806 0.15675 0.0
H1021 H 0.64068 0.29375 0.20814 0.0
H1022 H 0.57677 0.30903 0.1711 0.0
H1023 H 0.744 0.2244 0.16063 0.0
H1024 H 0.60564 0.20346 0.0803 0.0
H1025 H 0.7553 0.203 0.12371 0.0
H1026 H 0.61433 0.16422 0.09855 0.0
O1027 O 0.68013 0.27766 0.14299 0.0
H1028 H 0.58483 0.31661 0.08654 0.0
H1029 H 0.62915 0.33492 0.15984 0.0
H1030 H 0.61941 0.36726 0.13192 0.0
H1031 H 0.59709 0.35817 0.09495 0.0
H1032 H 0.5951 0.28479 0.11488 0.0
H1033 H 0.56153 0.33116 0.20572 0.0
H1034 H 0.58638 0.33481 0.242 0.0
O1035 O 0.65316 0.29718 0.165 0.0
C1036 C 0.64671 0.24061 0.18231 0.0
C1037 C 0.61528 0.31454 0.22734 0.0
C1038 C 0.57895 0.32307 0.20639 0.0
N1039 N 0.60967 0.30027 0.18755 0.0
C1040 C 0.62339 0.30207 0.20748 0.0
C1041 C 0.58765 0.31047 0.18686 0.0
C1042 C 0.5929 0.3251 0.22674 0.0
C1043 C 0.63084 0.2221 0.10231 0.0
N1044 N 0.64735 0.22037 0.12003 0.0
C1045 C 0.61873 0.20197 0.0943 0.0
C1046 C 0.62359 0.17997 0.10457 0.0
C1047 C 0.64042 0.17834 0.12265 0.0
C1048 C 0.65217 0.19886 0.13022 0.0
C1049 C 0.72223 0.21057 0.10611 0.0
C1050 C 0.70954 0.23434 0.14726 0.0
C1051 C 0.70014 0.22167 0.10819 0.0
N1052 N 0.69401 0.23325 0.12863 0.0
C1053 C 0.73179 0.22348 0.14581 0.0
C1054 C 0.73812 0.21151 0.12508 0.0
C1055 C 0.67421 0.29433 0.15719 0.0
C1056 C 0.59451 0.3208 0.10261 0.0
C1057 C 0.61948 0.33082 0.14378 0.0
C1058 C 0.61396 0.34921 0.12806 0.0
C1059 C 0.60142 0.34411 0.10733 0.0
N1060 N 0.61264 0.30801 0.13903 0.0
C1061 C 0.60029 0.30287 0.11877 0.0
Co1062 Co 0.2323 0.12843 0.66158 0.0
Co1063 Co 0.27335 0.15927 0.62803 0.0
O1064 O 0.25218 0.13242 0.63352 0.0
C1065 C 0.2614 0.08511 0.6597 0.0
O1066 O 0.27966 0.09936 0.65703 0.0
C1067 C 0.2416 0.1586 0.58655 0.0
O1068 O 0.22417 0.15709 0.60196 0.0
O1069 O 0.24789 0.18229 0.63624 0.0
O1070 O 0.22383 0.16299 0.66165 0.0
H1071 H 0.31178 0.23762 0.64695 0.0
H1072 H 0.22494 0.09718 0.61978 0.0
O1073 O 0.24061 0.09375 0.66205 0.0
H1074 H 0.14883 0.13894 0.63133 0.0
H1075 H 0.17306 0.08504 0.7126 0.0
H1076 H 0.22451 0.15567 0.70602 0.0
H1077 H 0.18248 0.1461 0.65847 0.0
H1078 H 0.1981 0.09112 0.67714 0.0
O1079 O 0.263 0.1599 0.59385 0.0
H1080 H 0.28517 0.20354 0.65409 0.0
H1081 H 0.30616 0.17242 0.58864 0.0
H1082 H 0.19955 0.15046 0.74164 0.0
H1083 H 0.1917 0.08935 0.59233 0.0
H1084 H 0.17359 0.11491 0.74509 0.0
H1085 H 0.15334 0.11038 0.59798 0.0
O1086 O 0.2595 0.13531 0.68297 0.0
H1087 H 0.30751 0.08739 0.58755 0.0
H1088 H 0.32386 0.15343 0.64282 0.0
H1089 H 0.3554 0.1243 0.63406 0.0
H1090 H 0.34731 0.091 0.60624 0.0
H1091 H 0.27643 0.11681 0.59695 0.0
H1092 H 0.3328 0.20631 0.58063 0.0
H1093 H 0.33582 0.23916 0.60997 0.0
O1094 O 0.28384 0.15919 0.66209 0.0
C1095 C 0.23048 0.18175 0.65075 0.0
C1096 C 0.31069 0.22338 0.63407 0.0
C1097 C 0.32247 0.20581 0.59683 0.0
N1098 N 0.29434 0.1859 0.62193 0.0
C1099 C 0.29573 0.20399 0.63806 0.0
C1100 C 0.30732 0.1867 0.60144 0.0
C1101 C 0.32416 0.22424 0.61331 0.0
C1102 C 0.20822 0.1062 0.6225 0.0
N1103 N 0.20561 0.12197 0.64078 0.0
C1104 C 0.1895 0.10178 0.60684 0.0
C1105 C 0.16799 0.11361 0.61 0.0
C1106 C 0.16546 0.12965 0.6287 0.0
C1107 C 0.18458 0.13366 0.64398 0.0
C1108 C 0.18425 0.10062 0.71127 0.0
C1109 C 0.21313 0.14025 0.70731 0.0
C1110 C 0.1985 0.10413 0.69127 0.0
N1111 N 0.21257 0.12384 0.68943 0.0
C1112 C 0.19909 0.13735 0.72756 0.0
C1113 C 0.18455 0.1174 0.7295 0.0
C1114 C 0.27766 0.14878 0.68129 0.0
C1115 C 0.31128 0.10187 0.59964 0.0
C1116 C 0.3202 0.13897 0.63071 0.0
C1117 C 0.33814 0.12256 0.62579 0.0
C1118 C 0.33359 0.10388 0.61016 0.0
N1119 N 0.29837 0.13689 0.6203 0.0
C1120 C 0.29378 0.11864 0.60495 0.0
Co1121 Co 0.34432 0.76536 0.13026 0.0
Co1122 Co 0.37661 0.72608 0.16455 0.0
O1123 O 0.37205 0.74561 0.13634 0.0
C1124 C 0.3474 0.73331 0.08895 0.0
O1125 O 0.34956 0.71592 0.10434 0.0
C1126 C 0.41771 0.75821 0.16343 0.0
O1127 O 0.40214 0.77528 0.1603 0.0
O1128 O 0.36758 0.75282 0.18566 0.0
O1129 O 0.34331 0.77625 0.16421 0.0
H1130 H 0.35501 0.69217 0.24424 0.0
H1131 H 0.38703 0.77034 0.09984 0.0
O1132 O 0.34481 0.75463 0.09623 0.0
H1133 H 0.37486 0.84927 0.13594 0.0
H1134 H 0.29508 0.82178 0.08142 0.0
H1135 H 0.29914 0.77516 0.1555 0.0
H1136 H 0.34728 0.81632 0.14456 0.0
H1137 H 0.33015 0.79704 0.09029 0.0
O1138 O 0.41067 0.73679 0.16577 0.0
H1139 H 0.34896 0.71663 0.20838 0.0
H1140 H 0.41567 0.69445 0.18107 0.0
H1141 H 0.26386 0.79987 0.14749 0.0
H1142 H 0.41493 0.80285 0.09059 0.0
H1143 H 0.26168 0.8234 0.11021 0.0
H1144 H 0.40897 0.84263 0.10877 0.0
O1145 O 0.32261 0.73878 0.13829 0.0
H1146 H 0.41974 0.68792 0.09635 0.0
H1147 H 0.36224 0.67519 0.1612 0.0
H1148 H 0.37213 0.64199 0.13433 0.0
H1149 H 0.40108 0.64826 0.10163 0.0
H1150 H 0.40921 0.72067 0.12352 0.0
H1151 H 0.42259 0.66995 0.21677 0.0
H1152 H 0.39207 0.66862 0.24861 0.0
O1153 O 0.34259 0.71537 0.16384 0.0
C1154 C 0.35356 0.77051 0.18363 0.0
C1155 C 0.36841 0.69253 0.23045 0.0
C1156 C 0.40635 0.68008 0.21505 0.0
N1157 N 0.38183 0.70674 0.19256 0.0
C1158 C 0.36504 0.70627 0.21007 0.0
C1159 C 0.40236 0.69401 0.1949 0.0
C1160 C 0.38921 0.67934 0.2329 0.0
C1161 C 0.38417 0.78768 0.10761 0.0
N1162 N 0.36548 0.79146 0.12261 0.0
C1163 C 0.40009 0.80598 0.10239 0.0
C1164 C 0.39676 0.82829 0.11263 0.0
C1165 C 0.37763 0.83202 0.12789 0.0
C1166 C 0.36209 0.81328 0.13273 0.0
C1167 C 0.29585 0.81166 0.09776 0.0
C1168 C 0.29839 0.7855 0.13933 0.0
C1169 C 0.31563 0.79759 0.10285 0.0
N1170 N 0.31678 0.78488 0.12351 0.0
C1171 C 0.27834 0.79939 0.13485 0.0
C1172 C 0.27711 0.81257 0.11392 0.0
C1173 C 0.32377 0.7212 0.15257 0.0
C1174 C 0.40716 0.68495 0.11058 0.0
C1175 C 0.37484 0.67805 0.147 0.0
C1176 C 0.3804 0.65918 0.13186 0.0
C1177 C 0.39665 0.66271 0.11353 0.0
N1178 N 0.38524 0.6998 0.144 0.0
C1179 C 0.40121 0.70339 0.12608 0.0
Co1180 Co 0.72047 0.15968 0.3741 0.0
Co1181 Co 0.75838 0.13556 0.33218 0.0
O1182 O 0.74124 0.13433 0.36241 0.0
C1183 C 0.75534 0.15401 0.41298 0.0
O1184 O 0.77211 0.15408 0.39677 0.0
C1185 C 0.73187 0.08978 0.33049 0.0
O1186 O 0.71376 0.10005 0.34095 0.0
O1187 O 0.72922 0.14531 0.31473 0.0
O1188 O 0.70682 0.16442 0.34171 0.0
H1189 H 0.78315 0.17254 0.25481 0.0
H1190 H 0.72085 0.11307 0.39861 0.0
O1191 O 0.73364 0.15567 0.40687 0.0
H1192 H 0.63848 0.12403 0.37101 0.0
H1193 H 0.66548 0.19778 0.43346 0.0
H1194 H 0.7058 0.20704 0.35624 0.0
H1195 H 0.66873 0.15486 0.3636 0.0
H1196 H 0.69122 0.16595 0.41784 0.0
O1197 O 0.75069 0.10146 0.3259 0.0
H1198 H 0.76178 0.17059 0.29297 0.0
H1199 H 0.7915 0.10264 0.30704 0.0
H1200 H 0.68001 0.23922 0.37108 0.0
H1201 H 0.69112 0.08188 0.40662 0.0
H1202 H 0.65966 0.2347 0.40997 0.0
H1203 H 0.64961 0.08723 0.39269 0.0
O1204 O 0.74497 0.18448 0.36743 0.0
H1205 H 0.80548 0.08607 0.38962 0.0
H1206 H 0.80827 0.15342 0.33363 0.0
H1207 H 0.84435 0.14235 0.35584 0.0
H1208 H 0.84311 0.10842 0.38405 0.0
H1209 H 0.76974 0.09787 0.36719 0.0
H1210 H 0.81306 0.10377 0.2689 0.0
H1211 H 0.80903 0.13895 0.24254 0.0
O1212 O 0.76661 0.16944 0.33753 0.0
C1213 C 0.71116 0.15773 0.32049 0.0
C1214 C 0.78511 0.15713 0.26616 0.0
C1215 C 0.80186 0.11852 0.27406 0.0
N1216 N 0.77549 0.13658 0.30228 0.0
C1217 C 0.77309 0.15594 0.28782 0.0
C1218 C 0.78957 0.11796 0.2956 0.0
C1219 C 0.7996 0.13827 0.25928 0.0
C1220 C 0.70277 0.11563 0.3927 0.0
N1221 N 0.69653 0.13577 0.38066 0.0
C1222 C 0.68604 0.09786 0.3972 0.0
C1223 C 0.66276 0.10085 0.38934 0.0
C1224 C 0.65651 0.12149 0.37715 0.0
C1225 C 0.67374 0.13884 0.37292 0.0
C1226 C 0.67421 0.19994 0.41647 0.0
C1227 C 0.69686 0.20487 0.3731 0.0
C1228 C 0.68886 0.182 0.40756 0.0
N1229 N 0.69987 0.18457 0.38607 0.0
C1230 C 0.68235 0.22318 0.38144 0.0
C1231 C 0.67095 0.22065 0.40328 0.0
C1232 C 0.76121 0.1862 0.35172 0.0
C1233 C 0.80626 0.10083 0.37732 0.0
C1234 C 0.80756 0.13867 0.34591 0.0
C1235 C 0.82807 0.13245 0.3584 0.0
C1236 C 0.82736 0.11341 0.37422 0.0
N1237 N 0.78695 0.12622 0.34902 0.0
C1238 C 0.78611 0.10754 0.3645 0.0
Co1239 Co 0.37398 0.27123 0.82867 0.0
Co1240 Co 0.35055 0.23445 0.87189 0.0
O1241 O 0.37544 0.25535 0.85959 0.0
C1242 C 0.41967 0.24511 0.82794 0.0
O1243 O 0.40897 0.22708 0.83813 0.0
C1244 C 0.35563 0.27007 0.91061 0.0
O1245 O 0.35493 0.28701 0.89458 0.0
O1246 O 0.32555 0.25853 0.8647 0.0
O1247 O 0.33983 0.27886 0.83347 0.0
H1248 H 0.27154 0.19298 0.87027 0.0
H1249 H 0.41108 0.28495 0.86343 0.0
O1250 O 0.40827 0.26402 0.82303 0.0
H1251 H 0.36483 0.35793 0.84888 0.0
H1252 H 0.40496 0.32413 0.76348 0.0
H1253 H 0.33929 0.2721 0.78905 0.0
H1254 H 0.35487 0.3207 0.82802 0.0
H1255 H 0.40626 0.30416 0.80249 0.0
O1256 O 0.35455 0.24835 0.90434 0.0
H1257 H 0.30327 0.21888 0.85469 0.0
H1258 H 0.34495 0.20594 0.91624 0.0
H1259 H 0.33718 0.29185 0.75002 0.0
H1260 H 0.42177 0.32186 0.88454 0.0
H1261 H 0.37018 0.3181 0.737 0.0
H1262 H 0.39852 0.35868 0.87736 0.0
O1263 O 0.36512 0.24115 0.81228 0.0
H1264 H 0.42897 0.20708 0.90444 0.0
H1265 H 0.356 0.18243 0.86276 0.0
H1266 H 0.38733 0.15284 0.87063 0.0
H1267 H 0.42414 0.16511 0.89163 0.0
H1268 H 0.39728 0.23613 0.896 0.0
H1269 H 0.31357 0.18013 0.93261 0.0
H1270 H 0.27658 0.17341 0.90951 0.0
O1271 O 0.34583 0.21982 0.83992 0.0
C1272 C 0.32337 0.27394 0.84819 0.0
C1273 C 0.2876 0.1957 0.88047 0.0
C1274 C 0.31118 0.18852 0.91547 0.0
N1275 N 0.326 0.21379 0.88446 0.0
C1276 C 0.30566 0.21029 0.87171 0.0
C1277 C 0.32886 0.20321 0.90614 0.0
C1278 C 0.29043 0.18475 0.9025 0.0
C1279 C 0.40102 0.30096 0.86005 0.0
N1280 N 0.38247 0.3007 0.84442 0.0
C1281 C 0.4071 0.32178 0.87212 0.0
C1282 C 0.39403 0.34242 0.86811 0.0
C1283 C 0.37511 0.34201 0.85215 0.0
C1284 C 0.36953 0.32086 0.84042 0.0
C1285 C 0.39045 0.31277 0.76897 0.0
C1286 C 0.35367 0.28359 0.78358 0.0
C1287 C 0.39111 0.30138 0.79101 0.0
N1288 N 0.3728 0.28711 0.7981 0.0
C1289 C 0.35239 0.29468 0.76142 0.0
C1290 C 0.37093 0.30939 0.75413 0.0
C1291 C 0.35279 0.22324 0.81863 0.0
C1292 C 0.41299 0.2015 0.89533 0.0
C1293 C 0.372 0.18793 0.87179 0.0
C1294 C 0.38965 0.17108 0.87628 0.0
C1295 C 0.41029 0.17797 0.88809 0.0
N1296 N 0.3748 0.21098 0.8789 0.0
C1297 C 0.39494 0.21785 0.89059 0.0
Co1298 Co 0.27043 0.84042 0.37508 0.0
Co1299 Co 0.2337 0.868 0.33434 0.0
O1300 O 0.25027 0.86658 0.3648 0.0
C1301 C 0.23499 0.84432 0.41379 0.0
O1302 O 0.21835 0.84542 0.39748 0.0
C1303 C 0.26415 0.91038 0.33521 0.0
O1304 O 0.28153 0.89582 0.34059 0.0
O1305 O 0.2626 0.85794 0.31645 0.0
O1306 O 0.28472 0.83768 0.3428 0.0
H1307 H 0.20818 0.83808 0.2542 0.0
H1308 H 0.27003 0.88575 0.40185 0.0
O1309 O 0.25671 0.84252 0.40777 0.0
H1310 H 0.35304 0.87474 0.37628 0.0
H1311 H 0.3236 0.79746 0.43276 0.0
H1312 H 0.28462 0.7941 0.35436 0.0
H1313 H 0.3226 0.8447 0.36669 0.0
H1314 H 0.2987 0.83072 0.41884 0.0
O1315 O 0.2434 0.9022 0.3313 0.0
H1316 H 0.22901 0.83605 0.29267 0.0
H1317 H 0.20304 0.90445 0.31124 0.0
H1318 H 0.30958 0.76054 0.36748 0.0
H1319 H 0.29991 0.91616 0.41202 0.0
H1320 H 0.32926 0.7621 0.40694 0.0
H1321 H 0.34174 0.91079 0.39911 0.0
O1322 O 0.24567 0.81678 0.3661 0.0
H1323 H 0.18767 0.91573 0.39416 0.0
H1324 H 0.18319 0.85218 0.33397 0.0
H1325 H 0.14717 0.86336 0.35625 0.0
H1326 H 0.14927 0.89538 0.38657 0.0
H1327 H 0.22331 0.90384 0.37164 0.0
H1328 H 0.18207 0.90733 0.27285 0.0
H1329 H 0.18449 0.87393 0.24407 0.0
O1330 O 0.22399 0.83395 0.3372 0.0
C1331 C 0.28059 0.84525 0.32185 0.0
C1332 C 0.20692 0.85272 0.26661 0.0
C1333 C 0.1923 0.8916 0.27707 0.0
N1334 N 0.21709 0.87004 0.30424 0.0
C1335 C 0.21862 0.85165 0.28846 0.0
C1336 C 0.20425 0.8899 0.29875 0.0
C1337 C 0.19366 0.87285 0.26093 0.0
C1338 C 0.28824 0.88319 0.39636 0.0
N1339 N 0.29457 0.86347 0.38369 0.0
C1340 C 0.30506 0.90051 0.40209 0.0
C1341 C 0.32852 0.8975 0.39481 0.0
C1342 C 0.33487 0.87729 0.38198 0.0
C1343 C 0.31755 0.86037 0.37653 0.0
C1344 C 0.31516 0.79659 0.4155 0.0
C1345 C 0.29327 0.79497 0.37149 0.0
C1346 C 0.30099 0.81535 0.40755 0.0
N1347 N 0.29036 0.81442 0.38574 0.0
C1348 C 0.30732 0.77589 0.37885 0.0
C1349 C 0.31833 0.77676 0.40101 0.0
C1350 C 0.22938 0.81623 0.35031 0.0
C1351 C 0.18652 0.9018 0.38095 0.0
C1352 C 0.18426 0.86609 0.34718 0.0
C1353 C 0.16379 0.87238 0.3597 0.0
C1354 C 0.16498 0.89035 0.3767 0.0
N1355 N 0.2053 0.87744 0.35141 0.0
C1356 C 0.20661 0.89506 0.36807 0.0
Co1357 Co 0.62591 0.73258 0.82824 0.0
Co1358 Co 0.65256 0.76469 0.87306 0.0
O1359 O 0.62606 0.74687 0.85983 0.0
C1360 C 0.58461 0.76449 0.82872 0.0
O1361 O 0.59947 0.78107 0.83565 0.0
C1362 C 0.64393 0.72812 0.9102 0.0
O1363 O 0.64448 0.71155 0.89377 0.0
O1364 O 0.67498 0.73865 0.86481 0.0
O1365 O 0.65945 0.72143 0.83222 0.0
H1366 H 0.73533 0.79807 0.87413 0.0
H1367 H 0.58778 0.72072 0.86268 0.0
O1368 O 0.59226 0.74367 0.82409 0.0
H1369 H 0.62647 0.64445 0.8436 0.0
H1370 H 0.58865 0.68709 0.76085 0.0
H1371 H 0.65995 0.73006 0.78812 0.0
H1372 H 0.64007 0.68165 0.82484 0.0
H1373 H 0.58999 0.70491 0.8009 0.0
O1374 O 0.64661 0.74988 0.90466 0.0
H1375 H 0.70141 0.7762 0.85706 0.0
H1376 H 0.66035 0.79042 0.91874 0.0
H1377 H 0.65945 0.7124 0.74803 0.0
H1378 H 0.57347 0.68391 0.88168 0.0
H1379 H 0.62359 0.69072 0.73416 0.0
H1380 H 0.5929 0.64543 0.87221 0.0
O1381 O 0.63788 0.76238 0.81327 0.0
H1382 H 0.57654 0.79838 0.90541 0.0
H1383 H 0.65257 0.81734 0.8663 0.0
H1384 H 0.62417 0.84957 0.87493 0.0
H1385 H 0.58583 0.84016 0.89462 0.0
H1386 H 0.60537 0.76667 0.89629 0.0
H1387 H 0.69389 0.81223 0.93658 0.0
H1388 H 0.73169 0.81626 0.91418 0.0
O1389 O 0.65918 0.78009 0.84194 0.0
C1390 C 0.67614 0.72419 0.84735 0.0
C1391 C 0.71892 0.79651 0.88403 0.0
C1392 C 0.69568 0.80443 0.91909 0.0
N1393 N 0.67886 0.7822 0.8868 0.0
C1394 C 0.69964 0.78421 0.87442 0.0
C1395 C 0.67676 0.79201 0.90892 0.0
C1396 C 0.71688 0.80669 0.90651 0.0
C1397 C 0.59619 0.70402 0.85831 0.0
N1398 N 0.61464 0.70332 0.84256 0.0
C1399 C 0.58807 0.68324 0.86919 0.0
C1400 C 0.599 0.66166 0.86389 0.0
C1401 C 0.61784 0.6611 0.84785 0.0
C1402 C 0.6255 0.68223 0.83732 0.0
C1403 C 0.60439 0.69645 0.76671 0.0
C1404 C 0.64434 0.72052 0.78227 0.0
C1405 C 0.60523 0.70661 0.78934 0.0
N1406 N 0.62509 0.71834 0.79689 0.0
C1407 C 0.64414 0.71062 0.75952 0.0
C1408 C 0.62401 0.69848 0.75175 0.0
C1409 C 0.65209 0.77848 0.82052 0.0
C1410 C 0.59321 0.80271 0.89687 0.0
C1411 C 0.63591 0.8131 0.87483 0.0
C1412 C 0.61992 0.83143 0.87972 0.0
C1413 C 0.59842 0.82614 0.89078 0.0
N1414 N 0.63066 0.79015 0.88085 0.0
C1415 C 0.60964 0.78485 0.89175 0.0
H1416 H 0.16789 0.54677 0.25913 0.0
H1417 H 0.1488 0.565 0.18667 0.0
H1418 H 0.14463 0.52215 0.17722 0.0
H1419 H 0.20195 0.49453 0.24567 0.0
H1420 H 0.19171 0.47881 0.27162 0.0
H1421 H 0.19372 0.51075 0.27204 0.0
H1422 H 0.14933 0.51342 0.28403 0.0
H1423 H 0.14719 0.4815 0.28359 0.0
H1424 H 0.12723 0.49911 0.26579 0.0
H1425 H 0.14211 0.4764 0.17638 0.0
H1426 H 0.14137 0.43302 0.18436 0.0
H1427 H 0.16171 0.44664 0.2575 0.0
C1428 C 0.16297 0.54188 0.24118 0.0
C1429 C 0.15878 0.55928 0.2236 0.0
C1430 C 0.15221 0.55198 0.20041 0.0
C1431 C 0.14978 0.52769 0.1949 0.0
C1432 C 0.15396 0.51101 0.21278 0.0
C1433 C 0.16043 0.51792 0.23545 0.0
C1434 C 0.16352 0.49684 0.25175 0.0
C1435 C 0.18925 0.49514 0.26079 0.0
C1436 C 0.14576 0.49778 0.27251 0.0
C1437 C 0.15775 0.47687 0.2348 0.0
C1438 C 0.15232 0.48522 0.21236 0.0
C1439 C 0.14637 0.46973 0.1939 0.0
C1440 C 0.14599 0.44513 0.19858 0.0
C1441 C 0.15146 0.43638 0.22154 0.0
C1442 C 0.15738 0.45262 0.23974 0.0
H1443 H 0.94765 0.67186 0.76321 0.0
H1444 H 0.93282 0.647 0.6917 0.0
H1445 H 0.97606 0.64387 0.68405 0.0
H1446 H 0.99949 0.70679 0.74912 0.0
H1447 H 0.01447 0.69888 0.77629 0.0
H1448 H 0.98252 0.69998 0.77542 0.0
H1449 H 0.98055 0.65648 0.7905 0.0
H1450 H 0.01247 0.65521 0.79136 0.0
H1451 H 0.99607 0.63353 0.77442 0.0
H1452 H 0.0216 0.64239 0.68513 0.0
H1453 H 0.06454 0.64278 0.6948 0.0
H1454 H 0.04799 0.66841 0.76565 0.0
C1455 C 0.95337 0.66593 0.74582 0.0
C1456 C 0.93681 0.65977 0.72801 0.0
C1457 C 0.94518 0.65195 0.70559 0.0
C1458 C 0.9697 0.65009 0.7011 0.0
C1459 C 0.98552 0.65615 0.71921 0.0
C1460 C 0.97759 0.66395 0.74109 0.0
C1461 C 0.99795 0.66881 0.75789 0.0
C1462 C 0.99864 0.69518 0.76509 0.0
C1463 C 0.99668 0.65253 0.77983 0.0
C1464 C 0.01868 0.66242 0.74213 0.0
C1465 C 0.0113 0.6552 0.71985 0.0
C1466 C 0.02753 0.64812 0.7025 0.0
C1467 C 0.05187 0.6484 0.70814 0.0
C1468 C 0.05967 0.65567 0.73096 0.0
C1469 C 0.04272 0.66279 0.74802 0.0
H1470 H 0.84115 0.45447 0.27132 0.0
H1471 H 0.85413 0.43584 0.1976 0.0
H1472 H 0.85334 0.47856 0.1869 0.0
H1473 H 0.8004 0.50151 0.26002 0.0
H1474 H 0.81091 0.5196 0.28428 0.0
H1475 H 0.81315 0.48772 0.28597 0.0
H1476 H 0.85844 0.49111 0.29344 0.0
H1477 H 0.85635 0.523 0.29189 0.0
H1478 H 0.87665 0.50736 0.27269 0.0
H1479 H 0.85125 0.52382 0.18469 0.0
H1480 H 0.84787 0.56722 0.19109 0.0
H1481 H 0.83523 0.55491 0.26619 0.0
C1482 C 0.84398 0.45927 0.25291 0.0
C1483 C 0.84778 0.4418 0.23529 0.0
C1484 C 0.8512 0.44894 0.2114 0.0
C1485 C 0.85078 0.47314 0.20517 0.0
C1486 C 0.8468 0.48987 0.22303 0.0
C1487 C 0.84346 0.48317 0.24641 0.0
C1488 C 0.8392 0.50439 0.2623 0.0
C1489 C 0.81444 0.50323 0.27381 0.0
C1490 C 0.85883 0.50659 0.28119 0.0
C1491 C 0.8407 0.5242 0.24426 0.0
C1492 C 0.84515 0.51557 0.2217 0.0
C1493 C 0.84766 0.53074 0.20227 0.0
C1494 C 0.84568 0.55535 0.20607 0.0
C1495 C 0.84112 0.56447 0.2291 0.0
C1496 C 0.83851 0.54856 0.24832 0.0
H1497 H 0.05544 0.36328 0.7146 0.0
H1498 H 0.0688 0.29305 0.74333 0.0
H1499 H 0.0263 0.28342 0.74008 0.0
H1500 H 0.00525 0.37371 0.74659 0.0
H1501 H 0.98882 0.38947 0.72408 0.0
H1502 H 0.02073 0.38943 0.72336 0.0
H1503 H 0.02008 0.37266 0.68052 0.0
H1504 H 0.98805 0.37285 0.681 0.0
H1505 H 0.0038 0.34578 0.67429 0.0
H1506 H 0.98303 0.28378 0.74141 0.0
H1507 H 0.94057 0.2936 0.74553 0.0
H1508 H 0.95348 0.36324 0.71519 0.0
C1509 C 0.04942 0.34559 0.71921 0.0
C1510 C 0.06529 0.32875 0.7289 0.0
C1511 C 0.05685 0.30607 0.73569 0.0
C1512 C 0.03278 0.30042 0.73383 0.0
C1513 C 0.01734 0.31764 0.72512 0.0
C1514 C 0.02523 0.33972 0.71768 0.0
C1515 C 0.00442 0.35589 0.71191 0.0
C1516 C 0.00484 0.37845 0.72742 0.0
C1517 C 0.00407 0.36216 0.68535 0.0
C1518 C 0.98376 0.33983 0.7184 0.0
C1519 C 0.99172 0.31774 0.72566 0.0
C1520 C 0.97645 0.30073 0.73513 0.0
C1521 C 0.95244 0.30649 0.73753 0.0
C1522 C 0.94388 0.32896 0.7303 0.0
C1523 C 0.9596 0.34568 0.72016 0.0
H1524 H 0.16631 0.448 0.74833 0.0
H1525 H 0.14156 0.43165 0.81952 0.0
H1526 H 0.13966 0.47481 0.82846 0.0
H1527 H 0.20308 0.49761 0.7638 0.0
H1528 H 0.19577 0.51386 0.7372 0.0
H1529 H 0.1954 0.48186 0.73698 0.0
H1530 H 0.15182 0.48234 0.72213 0.0
H1531 H 0.15205 0.51433 0.72228 0.0
H1532 H 0.12971 0.49842 0.7388 0.0
H1533 H 0.13995 0.5207 0.82876 0.0
H1534 H 0.14223 0.56393 0.82037 0.0
H1535 H 0.167 0.54833 0.74902 0.0
C1536 C 0.16054 0.45333 0.76589 0.0
C1537 C 0.15413 0.43637 0.78325 0.0
C1538 C 0.14663 0.44431 0.80594 0.0
C1539 C 0.1455 0.46878 0.81116 0.0
C1540 C 0.15196 0.48499 0.79351 0.0
C1541 C 0.15935 0.47746 0.77135 0.0
C1542 C 0.16507 0.49812 0.7552 0.0
C1543 C 0.1914 0.49784 0.74788 0.0
C1544 C 0.14868 0.49831 0.73332 0.0
C1545 C 0.15971 0.51861 0.77166 0.0
C1546 C 0.15219 0.51086 0.7937 0.0
C1547 C 0.14592 0.5269 0.81157 0.0
C1548 C 0.1473 0.55141 0.80666 0.0
C1549 C 0.15487 0.55958 0.78408 0.0
C1550 C 0.16122 0.5428 0.76652 0.0
H1551 H 0.95473 0.66167 0.23824 0.0
H1552 H 0.93746 0.6456 0.31166 0.0
H1553 H 0.98043 0.64384 0.32116 0.0
H1554 H 0.00531 0.62353 0.23357 0.0
H1555 H 0.02149 0.64386 0.21486 0.0
H1556 H 0.98952 0.6436 0.21424 0.0
H1557 H 0.9889 0.68865 0.22398 0.0
H1558 H 0.02086 0.68905 0.22467 0.0
H1559 H 0.00421 0.69935 0.25 0.0
H1560 H 0.02615 0.64379 0.32207 0.0
H1561 H 0.06947 0.64577 0.31432 0.0
H1562 H 0.05505 0.66239 0.24039 0.0
C1563 C 0.95985 0.65774 0.25636 0.0
C1564 C 0.94269 0.65378 0.27422 0.0
C1565 C 0.9503 0.64873 0.29768 0.0
C1566 C 0.97465 0.64768 0.30323 0.0
C1567 C 0.99109 0.65177 0.28512 0.0
C1568 C 0.9839 0.6567 0.26217 0.0
C1569 C 0.00479 0.66057 0.24581 0.0
C1570 C 0.0053 0.64177 0.22595 0.0
C1571 C 0.00468 0.68591 0.23552 0.0
C1572 C 0.025 0.6571 0.26309 0.0
C1573 C 0.01691 0.65197 0.28569 0.0
C1574 C 0.03262 0.64787 0.30443 0.0
C1575 C 0.05719 0.64904 0.29988 0.0
C1576 C 0.0657 0.65436 0.27679 0.0
C1577 C 0.04924 0.65843 0.2583 0.0
H1578 H 0.8386 0.55166 0.74259 0.0
H1579 H 0.85363 0.56805 0.81644 0.0
H1580 H 0.85889 0.52505 0.82465 0.0
H1581 H 0.80573 0.49818 0.7526 0.0
H1582 H 0.81763 0.4836 0.72669 0.0
H1583 H 0.81479 0.51547 0.72721 0.0
H1584 H 0.85962 0.51968 0.71752 0.0
H1585 H 0.86261 0.48782 0.71706 0.0
H1586 H 0.88119 0.50536 0.73637 0.0
H1587 H 0.86234 0.4793 0.8242 0.0
H1588 H 0.86366 0.43616 0.8151 0.0
H1589 H 0.84714 0.45171 0.74139 0.0
C1590 C 0.84287 0.54634 0.76058 0.0
C1591 C 0.84557 0.56326 0.77891 0.0
C1592 C 0.85137 0.5554 0.80212 0.0
C1593 C 0.85442 0.53102 0.80693 0.0
C1594 C 0.8517 0.51483 0.78832 0.0
C1595 C 0.84606 0.52229 0.76561 0.0
C1596 C 0.84434 0.50169 0.74851 0.0
C1597 C 0.81912 0.49962 0.73816 0.0
C1598 C 0.86306 0.50377 0.72871 0.0
C1599 C 0.84982 0.48133 0.76508 0.0
C1600 C 0.854 0.48908 0.788 0.0
C1601 C 0.85914 0.47311 0.80629 0.0
C1602 C 0.85987 0.44865 0.80096 0.0
C1603 C 0.85556 0.44049 0.77753 0.0
C1604 C 0.85062 0.45722 0.75948 0.0
H1605 H 0.9474 0.35676 0.29095 0.0
H1606 H 0.93126 0.29614 0.24608 0.0
H1607 H 0.97383 0.28656 0.24353 0.0
H1608 H 0.99702 0.37508 0.25901 0.0
H1609 H 0.01439 0.38456 0.28419 0.0
H1610 H 0.98248 0.38475 0.28587 0.0
H1611 H 0.9841 0.35799 0.32327 0.0
H1612 H 0.01609 0.35777 0.32174 0.0
H1613 H 0.99989 0.33014 0.32209 0.0
H1614 H 0.01728 0.28596 0.24166 0.0
H1615 H 0.06005 0.29465 0.24007 0.0
H1616 H 0.04959 0.35586 0.28585 0.0
C1617 C 0.95288 0.3411 0.28119 0.0
C1618 C 0.93609 0.32702 0.26889 0.0
C1619 C 0.94386 0.30709 0.25567 0.0
C1620 C 0.96798 0.30144 0.25422 0.0
C1621 C 0.98416 0.31592 0.26603 0.0
C1622 C 0.97706 0.33534 0.2793 0.0
C1623 C 0.99842 0.34925 0.28818 0.0
C1624 C 0.99805 0.37493 0.27874 0.0
C1625 C 0.9997 0.34875 0.31544 0.0
C1626 C 0.01851 0.33499 0.2772 0.0
C1627 C 0.00976 0.31568 0.26479 0.0
C1628 C 0.02443 0.30078 0.25162 0.0
C1629 C 0.04868 0.30593 0.25075 0.0
C1630 C 0.0581 0.32581 0.26297 0.0
C1631 C 0.04289 0.34026 0.27676 0.0
H1632 H 0.27312 0.16265 0.54938 0.0
H1633 H 0.19818 0.15373 0.56534 0.0
H1634 H 0.1892 0.15296 0.52247 0.0
H1635 H 0.26545 0.20106 0.49871 0.0
H1636 H 0.28966 0.18814 0.48221 0.0
H1637 H 0.29028 0.18805 0.51421 0.0
H1638 H 0.29559 0.14231 0.51407 0.0
H1639 H 0.29498 0.14226 0.48208 0.0
H1640 H 0.27439 0.12403 0.49849 0.0
H1641 H 0.18827 0.15285 0.47796 0.0
H1642 H 0.19544 0.15352 0.43474 0.0
H1643 H 0.27097 0.16266 0.44753 0.0
C1644 C 0.25481 0.16057 0.54388 0.0
C1645 C 0.23634 0.15832 0.56077 0.0
C1646 C 0.21263 0.15558 0.55278 0.0
C1647 C 0.20734 0.1551 0.52845 0.0
C1648 C 0.22593 0.15738 0.51229 0.0
C1649 C 0.24919 0.16007 0.51964 0.0
C1650 C 0.26585 0.16207 0.49857 0.0
C1651 C 0.27855 0.18627 0.49842 0.0
C1652 C 0.28376 0.14144 0.49829 0.0
C1653 C 0.24831 0.16008 0.47825 0.0
C1654 C 0.22539 0.15737 0.48657 0.0
C1655 C 0.20613 0.15502 0.47122 0.0
C1656 C 0.2104 0.15544 0.44668 0.0
C1657 C 0.23375 0.15823 0.4377 0.0
C1658 C 0.25291 0.16058 0.4538 0.0
H1659 H 0.3447 0.76508 0.95112 0.0
H1660 H 0.35464 0.69007 0.9359 0.0
H1661 H 0.35587 0.68169 0.97907 0.0
H1662 H 0.38325 0.76793 0.00202 0.0
H1663 H 0.36449 0.78859 0.01772 0.0
H1664 H 0.36487 0.78849 0.98573 0.0
H1665 H 0.31925 0.78245 0.98512 0.0
H1666 H 0.31872 0.78248 0.01711 0.0
H1667 H 0.30644 0.75771 0.00093 0.0
H1668 H 0.35548 0.68174 0.02422 0.0
H1669 H 0.35363 0.69007 0.06728 0.0
H1670 H 0.34364 0.7651 0.0522 0.0
C1671 C 0.34723 0.74686 0.95676 0.0
C1672 C 0.34957 0.72821 0.94008 0.0
C1673 C 0.3528 0.70465 0.94833 0.0
C1674 C 0.35352 0.69973 0.97281 0.0
C1675 C 0.351 0.71857 0.98874 0.0
C1676 C 0.34795 0.74166 0.981 0.0
C1677 C 0.34538 0.75875 0.00161 0.0
C1678 C 0.36571 0.77701 0.00177 0.0
C1679 C 0.321 0.77106 0.00116 0.0
C1680 C 0.34737 0.74167 0.02225 0.0
C1681 C 0.35065 0.71858 0.01452 0.0
C1682 C 0.35292 0.69975 0.03044 0.0
C1683 C 0.35181 0.70467 0.05488 0.0
C1684 C 0.34842 0.72823 0.06315 0.0
C1685 C 0.34621 0.74689 0.04651 0.0
H1686 H 0.78542 0.85679 0.44672 0.0
H1687 H 0.72493 0.81089 0.43278 0.0
H1688 H 0.71982 0.80443 0.47557 0.0
H1689 H 0.80806 0.82341 0.49877 0.0
H1690 H 0.81641 0.84995 0.51465 0.0
H1691 H 0.81693 0.84963 0.48263 0.0
H1692 H 0.78908 0.88624 0.48178 0.0
H1693 H 0.7884 0.88663 0.51376 0.0
H1694 H 0.76105 0.885 0.49721 0.0
H1695 H 0.71874 0.80512 0.51894 0.0
H1696 H 0.72224 0.81235 0.56182 0.0
H1697 H 0.78368 0.85738 0.54945 0.0
C1698 C 0.7714 0.84506 0.45273 0.0
C1699 C 0.75557 0.83435 0.43639 0.0
C1700 C 0.73719 0.81941 0.44492 0.0
C1701 C 0.73419 0.81551 0.46922 0.0
C1702 C 0.74972 0.82662 0.48486 0.0
C1703 C 0.76804 0.84101 0.47712 0.0
C1704 C 0.7813 0.85171 0.49807 0.0
C1705 C 0.80721 0.84316 0.49855 0.0
C1706 C 0.77986 0.87901 0.49768 0.0
C1707 C 0.76721 0.8414 0.51864 0.0
C1708 C 0.74918 0.82689 0.51045 0.0
C1709 C 0.73293 0.81622 0.52566 0.0
C1710 C 0.735 0.82055 0.54999 0.0
C1711 C 0.75325 0.83539 0.55896 0.0
C1712 C 0.76975 0.84573 0.54308 0.0
H1713 H 0.66916 0.24947 0.0538 0.0
H1714 H 0.65399 0.32385 0.06769 0.0
H1715 H 0.65202 0.33142 0.02447 0.0
H1716 H 0.70575 0.2584 0.00179 0.0
H1717 H 0.69434 0.23249 0.98678 0.0
H1718 H 0.69534 0.23329 0.01875 0.0
H1719 H 0.65024 0.22423 0.02042 0.0
H1720 H 0.64909 0.22349 0.98846 0.0
H1721 H 0.6298 0.24322 0.0047 0.0
H1722 H 0.65105 0.33056 0.97929 0.0
H1723 H 0.65118 0.32121 0.93629 0.0
H1724 H 0.66637 0.24736 0.95274 0.0
C1725 C 0.66564 0.26742 0.04781 0.0
C1726 C 0.66188 0.2861 0.06417 0.0
C1727 C 0.65706 0.30926 0.05551 0.0
C1728 C 0.65588 0.31374 0.03098 0.0
C1729 C 0.6595 0.29487 0.01535 0.0
C1730 C 0.6643 0.27217 0.02346 0.0
C1731 C 0.66697 0.25484 0.00308 0.0
C1732 C 0.6921 0.24413 0.00257 0.0
C1733 C 0.64789 0.2353 0.00424 0.0
C1734 C 0.6629 0.2713 0.98221 0.0
C1735 C 0.65867 0.29433 0.98957 0.0
C1736 C 0.65438 0.31257 0.97333 0.0
C1737 C 0.65448 0.30711 0.94895 0.0
C1738 C 0.65878 0.28358 0.94108 0.0
C1739 C 0.66299 0.26554 0.95807 0.0
H1740 H 0.26533 0.83984 0.45145 0.0
H1741 H 0.19079 0.84928 0.43406 0.0
H1742 H 0.18096 0.84888 0.47693 0.0
H1743 H 0.25685 0.79979 0.49985 0.0
H1744 H 0.28086 0.81194 0.51721 0.0
H1745 H 0.28189 0.81342 0.48526 0.0
H1746 H 0.28723 0.85913 0.48739 0.0
H1747 H 0.28628 0.8578 0.51935 0.0
H1748 H 0.2659 0.87675 0.50351 0.0
H1749 H 0.17951 0.84723 0.52201 0.0
H1750 H 0.1865 0.84457 0.56529 0.0
H1751 H 0.26203 0.83586 0.55238 0.0
C1752 C 0.2469 0.84189 0.45656 0.0
C1753 C 0.22881 0.84458 0.43936 0.0
C1754 C 0.20495 0.84717 0.44691 0.0
C1755 C 0.1992 0.84697 0.47121 0.0
C1756 C 0.21751 0.84415 0.48767 0.0
C1757 C 0.24088 0.84169 0.48061 0.0
C1758 C 0.25729 0.83875 0.50169 0.0
C1759 C 0.26996 0.81454 0.50095 0.0
C1760 C 0.27523 0.85934 0.50306 0.0
C1761 C 0.23953 0.8399 0.5218 0.0
C1762 C 0.21668 0.84306 0.5134 0.0
C1763 C 0.19733 0.84472 0.52876 0.0
C1764 C 0.20149 0.84316 0.55331 0.0
C1765 C 0.2248 0.83991 0.56225 0.0
C1766 C 0.24398 0.83826 0.54616 0.0
H1767 H 0.64419 0.75941 0.04685 0.0
H1768 H 0.65008 0.68418 0.0629 0.0
H1769 H 0.64578 0.67493 0.02 0.0
H1770 H 0.60104 0.75422 0.99909 0.0
H1771 H 0.61453 0.77793 0.9823 0.0
H1772 H 0.61622 0.77801 0.01426 0.0
H1773 H 0.66214 0.78077 0.01189 0.0
H1774 H 0.66061 0.78067 0.97997 0.0
H1775 H 0.67834 0.75877 0.99517 0.0
H1776 H 0.64365 0.67473 0.97426 0.0
H1777 H 0.64397 0.68363 0.93107 0.0
H1778 H 0.63918 0.75896 0.94702 0.0
C1779 C 0.64437 0.74091 0.0415 0.0
C1780 C 0.64755 0.7225 0.05822 0.0
C1781 C 0.64763 0.69858 0.05037 0.0
C1782 C 0.64518 0.69317 0.02606 0.0
C1783 C 0.64247 0.7119 0.01001 0.0
C1784 C 0.64193 0.73527 0.01755 0.0
C1785 C 0.63991 0.75238 0.99702 0.0
C1786 C 0.61653 0.76645 0.99825 0.0
C1787 C 0.66153 0.76912 0.99596 0.0
C1788 C 0.63984 0.73508 0.97656 0.0
C1789 C 0.64116 0.71178 0.98422 0.0
C1790 C 0.64238 0.69292 0.96813 0.0
C1791 C 0.64254 0.69812 0.94365 0.0
C1792 C 0.64164 0.72198 0.93565 0.0
C1793 C 0.63988 0.74051 0.95245 0.0
H1794 H 0.72854 0.16158 0.55176 0.0
H1795 H 0.80425 0.15372 0.56421 0.0
H1796 H 0.81095 0.15055 0.52096 0.0
H1797 H 0.72474 0.12017 0.50311 0.0
H1798 H 0.70312 0.13753 0.48709 0.0
H1799 H 0.70434 0.13904 0.51903 0.0
H1800 H 0.70934 0.18479 0.5168 0.0
H1801 H 0.7081 0.18342 0.48486 0.0
H1802 H 0.73314 0.19719 0.49931 0.0
H1803 H 0.80936 0.14882 0.47602 0.0
H1804 H 0.79949 0.14882 0.43318 0.0
H1805 H 0.72488 0.15739 0.4507 0.0
C1806 C 0.74655 0.15919 0.54544 0.0
C1807 C 0.76588 0.15798 0.5614 0.0
C1808 C 0.78915 0.15479 0.55234 0.0
C1809 C 0.79314 0.15292 0.52779 0.0
C1810 C 0.77369 0.15421 0.51256 0.0
C1811 C 0.75085 0.15726 0.52104 0.0
C1812 C 0.73301 0.15822 0.50097 0.0
C1813 C 0.71526 0.1375 0.50265 0.0
C1814 C 0.72015 0.18234 0.50046 0.0
C1815 C 0.74937 0.15538 0.47985 0.0
C1816 C 0.77277 0.15306 0.48684 0.0
C1817 C 0.79108 0.15056 0.47034 0.0
C1818 C 0.78531 0.15058 0.44606 0.0
C1819 C 0.76143 0.15308 0.43855 0.0
C1820 C 0.74331 0.15535 0.45579 0.0
H1821 H 0.34863 0.2389 0.04791 0.0
H1822 H 0.35224 0.31433 0.06375 0.0
H1823 H 0.35613 0.32296 0.02072 0.0
H1824 H 0.39108 0.23899 1.00004 0.0
H1825 H 0.375 0.21702 0.98316 0.0
H1826 H 0.37316 0.21714 0.01511 0.0
H1827 H 0.32726 0.21982 0.01253 0.0
H1828 H 0.32897 0.21971 0.9806 0.0
H1829 H 0.31383 0.24354 0.99571 0.0
H1830 H 0.35822 0.32292 0.97511 0.0
H1831 H 0.35865 0.31417 0.93193 0.0
H1832 H 0.35412 0.23875 0.94757 0.0
C1833 C 0.3503 0.25729 0.04246 0.0
C1834 C 0.35005 0.27596 0.05923 0.0
C1835 C 0.35237 0.29972 0.05122 0.0
C1836 C 0.35459 0.30479 0.02682 0.0
C1837 C 0.3546 0.28587 0.01076 0.0
C1838 C 0.35259 0.2626 0.01836 0.0
C1839 C 0.35271 0.24538 0.99777 0.0
C1840 C 0.37428 0.22865 0.99911 0.0
C1841 C 0.3293 0.2313 0.99659 0.0
C1842 C 0.35489 0.26255 0.97726 0.0
C1843 C 0.356 0.28584 0.98497 0.0
C1844 C 0.35749 0.30472 0.96893 0.0
C1845 C 0.35771 0.29959 0.94445 0.0
C1846 C 0.35646 0.27578 0.93631 0.0
C1847 C 0.35521 0.25715 0.95309 0.0
H1848 H 0.54555 0.27466 0.16221 0.0
H1849 H 0.56487 0.20198 0.14492 0.0
H1850 H 0.52236 0.19064 0.14587 0.0
H1851 H 0.4992 0.26064 0.20299 0.0
H1852 H 0.48073 0.28518 0.19394 0.0
H1853 H 0.51253 0.28739 0.19144 0.0
H1854 H 0.50852 0.29714 0.1466 0.0
H1855 H 0.4767 0.29507 0.14897 0.0
H1856 H 0.49232 0.27713 0.12753 0.0
H1857 H 0.47718 0.1877 0.14856 0.0
H1858 H 0.43378 0.19343 0.15261 0.0
H1859 H 0.44543 0.26796 0.16897 0.0
C1860 C 0.54095 0.25634 0.15852 0.0
C1861 C 0.55855 0.2392 0.15345 0.0
C1862 C 0.55167 0.21542 0.14884 0.0
C1863 C 0.52759 0.20882 0.14936 0.0
C1864 C 0.51072 0.22621 0.15459 0.0
C1865 C 0.51717 0.24948 0.15907 0.0
C1866 C 0.49585 0.26487 0.16438 0.0
C1867 C 0.49716 0.27511 0.18969 0.0
C1868 C 0.4932 0.28472 0.14576 0.0
C1869 C 0.47627 0.24667 0.16218 0.0
C1870 C 0.48509 0.22446 0.15648 0.0
C1871 C 0.47012 0.205 0.15312 0.0
C1872 C 0.44551 0.20841 0.1555 0.0
C1873 C 0.4362 0.2311 0.16127 0.0
C1874 C 0.45192 0.25033 0.16475 0.0
H1875 H 0.54815 0.73305 0.82043 0.0
H1876 H 0.56268 0.80727 0.83595 0.0
H1877 H 0.51965 0.81544 0.83691 0.0
H1878 H 0.49634 0.74285 0.78284 0.0
H1879 H 0.4808 0.71721 0.79412 0.0
H1880 H 0.51279 0.71744 0.79333 0.0
H1881 H 0.51402 0.70831 0.83844 0.0
H1882 H 0.48206 0.7081 0.83938 0.0
H1883 H 0.49849 0.72755 0.85881 0.0
H1884 H 0.47512 0.81527 0.8379 0.0
H1885 H 0.43216 0.80676 0.8389 0.0
H1886 H 0.44654 0.73261 0.82292 0.0
C1887 C 0.54231 0.7511 0.82373 0.0
C1888 C 0.55882 0.76956 0.82796 0.0
C1889 C 0.5504 0.79285 0.83254 0.0
C1890 C 0.52598 0.79768 0.83312 0.0
C1891 C 0.51019 0.77904 0.8291 0.0
C1892 C 0.51799 0.75622 0.82446 0.0
C1893 C 0.4973 0.73922 0.82163 0.0
C1894 C 0.49678 0.72856 0.79648 0.0
C1895 C 0.49802 0.71964 0.8407 0.0
C1896 C 0.47666 0.75603 0.82558 0.0
C1897 C 0.48449 0.77892 0.82977 0.0
C1898 C 0.46876 0.79744 0.83448 0.0
C1899 C 0.44438 0.79242 0.83501 0.0
C1900 C 0.43593 0.76905 0.83086 0.0
C1901 C 0.45238 0.75069 0.82599 0.0
H1902 H 0.7136 0.95161 0.35703 0.0
H1903 H 0.76455 0.93953 0.30051 0.0
H1904 H 0.76284 0.98185 0.28967 0.0
H1905 H 0.6788 0.99978 0.32658 0.0
H1906 H 0.67531 0.0166 0.35361 0.0
H1907 H 0.67731 0.98463 0.35476 0.0
H1908 H 0.71256 0.9879 0.38414 0.0
H1909 H 0.7107 0.0198 0.38304 0.0
H1910 H 0.73827 0.00516 0.37595 0.0
H1911 H 0.75984 0.0251 0.28772 0.0
H1912 H 0.75617 0.06802 0.29518 0.0
H1913 H 0.70741 0.05391 0.35323 0.0
C1914 C 0.7238 0.95789 0.34198 0.0
C1915 C 0.73903 0.94239 0.32941 0.0
C1916 C 0.75274 0.95119 0.31027 0.0
C1917 C 0.75179 0.97515 0.3039 0.0
C1918 C 0.73711 0.99017 0.31691 0.0
C1919 C 0.72333 0.98203 0.33556 0.0
C1920 C 0.71114 0.00261 0.34809 0.0
C1921 C 0.68403 0.00079 0.3456 0.0
C1922 C 0.71862 0.00394 0.37436 0.0
C1923 C 0.72085 0.02349 0.334 0.0
C1924 C 0.73552 0.01574 0.31591 0.0
C1925 C 0.74809 0.03145 0.30155 0.0
C1926 C 0.74597 0.05578 0.30599 0.0
C1927 C 0.73138 0.06424 0.32463 0.0
C1928 C 0.71828 0.0479 0.33853 0.0
H1929 H 0.45452 0.22008 0.85137 0.0
H1930 H 0.44252 0.26884 0.79284 0.0
H1931 H 0.48557 0.27074 0.78548 0.0
H1932 H 0.50416 0.24953 0.87385 0.0
H1933 H 0.52029 0.22328 0.88262 0.0
H1934 H 0.48837 0.22265 0.88127 0.0
H1935 H 0.4901 0.18676 0.85252 0.0
H1936 H 0.52209 0.18724 0.85381 0.0
H1937 H 0.50718 0.18897 0.82553 0.0
H1938 H 0.52906 0.271 0.78677 0.0
H1939 H 0.57142 0.27048 0.79721 0.0
H1940 H 0.55675 0.222 0.8554 0.0
C1941 C 0.46101 0.23062 0.83663 0.0
C1942 C 0.44526 0.24414 0.8225 0.0
C1943 C 0.45432 0.2583 0.80381 0.0
C1944 C 0.47872 0.2594 0.79941 0.0
C1945 C 0.49386 0.24629 0.81391 0.0
C1946 C 0.48548 0.23216 0.83216 0.0
C1947 C 0.50587 0.22181 0.84648 0.0
C1948 C 0.50459 0.2298 0.87259 0.0
C1949 C 0.50633 0.19457 0.84446 0.0
C1950 C 0.52693 0.2329 0.83379 0.0
C1951 C 0.51946 0.24667 0.81486 0.0
C1952 C 0.5352 0.26003 0.80131 0.0
C1953 C 0.55922 0.25969 0.80747 0.0
C1954 C 0.56735 0.24612 0.82704 0.0
C1955 C 0.55105 0.23216 0.84009 0.0
H1956 H 0.23128 0.94601 0.32944 0.0
H1957 H 0.30644 0.93349 0.34145 0.0
H1958 H 0.31332 0.97676 0.34308 0.0
H1959 H 0.23787 0.99829 0.29245 0.0
H1960 H 0.21234 0.01304 0.30492 0.0
H1961 H 0.21344 0.98105 0.30393 0.0
H1962 H 0.20633 0.97935 0.34938 0.0
H1963 H 0.20529 0.01133 0.35053 0.0
H1964 H 0.22599 0.99533 0.36899 0.0
H1965 H 0.31199 0.02129 0.34418 0.0
H1966 H 0.30255 0.0641 0.34464 0.0
H1967 H 0.22818 0.04768 0.33234 0.0
C1968 C 0.24923 0.95235 0.3322 0.0
C1969 C 0.26835 0.93634 0.33517 0.0
C1970 C 0.29152 0.94539 0.33901 0.0
C1971 C 0.29562 0.96995 0.33998 0.0
C1972 C 0.27637 0.98523 0.33714 0.0
C1973 C 0.25363 0.97681 0.33332 0.0
C1974 C 0.23597 0.99703 0.33135 0.0
C1975 C 0.22422 0.99737 0.30669 0.0
C1976 C 0.2173 0.99567 0.35125 0.0
C1977 C 0.25234 0.01813 0.33471 0.0
C1978 C 0.27557 0.01092 0.33797 0.0
C1979 C 0.29388 0.02717 0.34157 0.0
C1980 C 0.28833 0.05145 0.34179 0.0
C1981 C 0.26464 0.05927 0.33847 0.0
C1982 C 0.24646 0.0423 0.33491 0.0
H1983 H 0.55681 0.73149 0.17222 0.0
H1984 H 0.5688 0.80623 0.15705 0.0
H1985 H 0.5255 0.81292 0.1562 0.0
H1986 H 0.50694 0.72451 0.13397 0.0
H1987 H 0.49137 0.70442 0.15346 0.0
H1988 H 0.52332 0.70567 0.15404 0.0
H1989 H 0.52232 0.7145 0.19922 0.0
H1990 H 0.49035 0.71321 0.19879 0.0
H1991 H 0.50516 0.73929 0.21005 0.0
H1992 H 0.48099 0.81133 0.15592 0.0
H1993 H 0.4383 0.80161 0.15614 0.0
H1994 H 0.45521 0.72777 0.17104 0.0
C1995 C 0.55036 0.74933 0.16897 0.0
C1996 C 0.56623 0.76838 0.16486 0.0
C1997 C 0.55702 0.79138 0.16037 0.0
C1998 C 0.53244 0.79536 0.15984 0.0
C1999 C 0.51731 0.77617 0.16379 0.0
C2000 C 0.52589 0.75361 0.16827 0.0
C2001 C 0.5058 0.73592 0.17123 0.0
C2002 C 0.50693 0.71649 0.15203 0.0
C2003 C 0.50592 0.7251 0.19632 0.0
C2004 C 0.48458 0.75206 0.16762 0.0
C2005 C 0.49162 0.77521 0.16342 0.0
C2006 C 0.47525 0.79329 0.15929 0.0
C2007 C 0.45103 0.78757 0.15946 0.0
C2008 C 0.44337 0.76394 0.16368 0.0
C2009 C 0.46046 0.74601 0.16782 0.0
H2010 H 0.77445 0.95159 0.66309 0.0
H2011 H 0.69895 0.93706 0.65674 0.0
H2012 H 0.6907 0.98011 0.65723 0.0
H2013 H 0.76916 0.00135 0.70287 0.0
H2014 H 0.79313 0.01779 0.68946 0.0
H2015 H 0.79319 0.98579 0.68853 0.0
H2016 H 0.79674 0.987 0.64264 0.0
H2017 H 0.79672 0.019 0.64343 0.0
H2018 H 0.77515 0.00342 0.62562 0.0
H2019 H 0.69057 0.02465 0.65826 0.0
H2020 H 0.69857 0.06773 0.65963 0.0
H2021 H 0.77415 0.05338 0.66551 0.0
C2022 C 0.75617 0.95744 0.6618 0.0
C2023 C 0.73733 0.94092 0.65993 0.0
C2024 C 0.71368 0.94934 0.65827 0.0
C2025 C 0.7088 0.97378 0.65851 0.0
C2026 C 0.72775 0.98957 0.66044 0.0
C2027 C 0.75096 0.98177 0.66204 0.0
C2028 C 0.76807 0.00249 0.66393 0.0
C2029 C 0.78168 0.00181 0.68761 0.0
C2030 C 0.78517 0.003 0.64264 0.0
C2031 C 0.75083 0.02314 0.66314 0.0
C2032 C 0.72767 0.01529 0.66112 0.0
C2033 C 0.70863 0.03103 0.65989 0.0
C2034 C 0.71337 0.05548 0.66072 0.0
C2035 C 0.73698 0.06397 0.66278 0.0
C2036 C 0.7559 0.04749 0.66403 0.0
H2037 H 0.22759 0.05027 0.6651 0.0
H2038 H 0.30314 0.06096 0.65373 0.0
H2039 H 0.3091 0.01753 0.65315 0.0
H2040 H 0.23286 0.99951 0.70372 0.0
H2041 H 0.20717 0.98465 0.69168 0.0
H2042 H 0.2088 0.01663 0.69132 0.0
H2043 H 0.20211 0.01654 0.64577 0.0
H2044 H 0.20046 0.98457 0.64599 0.0
H2045 H 0.22159 0.99937 0.62703 0.0
H2046 H 0.30692 0.97308 0.65356 0.0
H2047 H 0.29678 0.93049 0.6549 0.0
H2048 H 0.2226 0.94856 0.66599 0.0
C2049 C 0.24541 0.0435 0.66253 0.0
C2050 C 0.26492 0.05905 0.65953 0.0
C2051 C 0.28793 0.04944 0.65615 0.0
C2052 C 0.2915 0.02478 0.65577 0.0
C2053 C 0.2719 0.00998 0.65879 0.0
C2054 C 0.24931 0.01894 0.6621 0.0
C2055 C 0.23127 0.99912 0.66478 0.0
C2056 C 0.21933 1.00004 0.68934 0.0
C2057 C 0.21277 0.99996 0.64469 0.0
C2058 C 0.24727 0.97761 0.66247 0.0
C2059 C 0.27064 0.98429 0.65902 0.0
C2060 C 0.2887 0.96762 0.65629 0.0
C2061 C 0.28274 0.94345 0.65711 0.0
C2062 C 0.2589 0.93615 0.66063 0.0
C2063 C 0.24099 0.95355 0.66333 0.0
H2064 H 0.15166 0.27002 0.2656 0.0
H2065 H 0.16904 0.32423 0.31773 0.0
H2066 H 0.18513 0.29363 0.34429 0.0
H2067 H 0.13661 0.22212 0.30865 0.0
H2068 H 0.15027 0.19941 0.29067 0.0
H2069 H 0.13718 0.22513 0.27677 0.0
H2070 H 0.17702 0.234 0.25553 0.0
H2071 H 0.1902 0.20837 0.26938 0.0
H2072 H 0.2037 0.23721 0.27295 0.0
H2073 H 0.20317 0.25844 0.36344 0.0
H2074 H 0.22219 0.22043 0.37396 0.0
H2075 H 0.19331 0.18837 0.30997 0.0
C2076 C 0.15831 0.27536 0.28285 0.0
C2077 C 0.15885 0.29958 0.2896 0.0
C2078 C 0.16827 0.30586 0.31211 0.0
C2079 C 0.17742 0.28857 0.32743 0.0
C2080 C 0.17706 0.26498 0.32006 0.0
C2081 C 0.16771 0.25827 0.29836 0.0
C2082 C 0.17136 0.23191 0.29404 0.0
C2083 C 0.14742 0.21888 0.29244 0.0
C2084 C 0.18647 0.22764 0.27165 0.0
C2085 C 0.18472 0.22508 0.31642 0.0
C2086 C 0.1876 0.24442 0.33126 0.0
C2087 C 0.20074 0.24304 0.35218 0.0
C2088 C 0.21154 0.22138 0.35796 0.0
C2089 C 0.20913 0.20136 0.3429 0.0
C2090 C 0.19515 0.2032 0.32208 0.0
H2091 H 0.30689 0.69442 0.81544 0.0
H2092 H 0.27798 0.72689 0.87924 0.0
H2093 H 0.23943 0.70772 0.87132 0.0
H2094 H 0.25702 0.70315 0.78012 0.0
H2095 H 0.25937 0.67552 0.76407 0.0
H2096 H 0.28557 0.68918 0.77626 0.0
H2097 H 0.29511 0.65057 0.79941 0.0
H2098 H 0.26892 0.63674 0.78723 0.0
H2099 H 0.27308 0.638 0.81896 0.0
H2100 H 0.20314 0.68901 0.85441 0.0
H2101 H 0.17144 0.67178 0.82976 0.0
H2102 H 0.22361 0.65086 0.77699 0.0
C2103 C 0.29265 0.69712 0.82807 0.0
C2104 C 0.29558 0.71213 0.84806 0.0
C2105 C 0.27627 0.71544 0.86386 0.0
C2106 C 0.25429 0.70457 0.85955 0.0
C2107 C 0.25189 0.69033 0.83944 0.0
C2108 C 0.27055 0.68647 0.824 0.0
C2109 C 0.26275 0.67188 0.80271 0.0
C2110 C 0.26639 0.68577 0.77942 0.0
C2111 C 0.27574 0.64786 0.80205 0.0
C2112 C 0.23662 0.66868 0.80831 0.0
C2113 C 0.23082 0.6793 0.82968 0.0
C2114 C 0.20752 0.68028 0.83785 0.0
C2115 C 0.1896 0.67048 0.82366 0.0
C2116 C 0.19502 0.65975 0.80153 0.0
C2117 C 0.21895 0.65847 0.79403 0.0
H2118 H 0.81265 0.69382 0.29961 0.0
H2119 H 0.88211 0.72136 0.28041 0.0
H2120 H 0.87334 0.75837 0.30221 0.0
H2121 H 0.78199 0.74665 0.29058 0.0
H2122 H 0.76149 0.74275 0.31486 0.0
H2123 H 0.7744 0.71719 0.30066 0.0
H2124 H 0.79023 0.70248 0.34129 0.0
H2125 H 0.77737 0.72808 0.35564 0.0
H2126 H 0.80858 0.72182 0.35904 0.0
H2127 H 0.85582 0.79356 0.3223 0.0
H2128 H 0.83018 0.82536 0.33773 0.0
H2129 H 0.77179 0.77533 0.34392 0.0
C2130 C 0.82625 0.7074 0.30039 0.0
C2131 C 0.84816 0.70459 0.2884 0.0
C2132 C 0.86524 0.72305 0.28948 0.0
C2133 C 0.86047 0.74409 0.30194 0.0
C2134 C 0.83857 0.7464 0.31324 0.0
C2135 C 0.82171 0.72858 0.31257 0.0
C2136 C 0.79875 0.73642 0.32427 0.0
C2137 C 0.77794 0.73572 0.30653 0.0
C2138 C 0.79343 0.7213 0.34638 0.0
C2139 C 0.80513 0.76169 0.33104 0.0
C2140 C 0.82831 0.76692 0.32481 0.0
C2141 C 0.83777 0.78959 0.32759 0.0
C2142 C 0.82302 0.80757 0.33637 0.0
C2143 C 0.79898 0.80285 0.34223 0.0
C2144 C 0.79018 0.77942 0.34009 0.0
H2145 H 0.81461 0.30934 0.80056 0.0
H2146 H 0.79164 0.38211 0.78921 0.0
H2147 H 0.75574 0.37432 0.81324 0.0
H2148 H 0.75891 0.28393 0.79294 0.0
H2149 H 0.76286 0.26088 0.81483 0.0
H2150 H 0.78826 0.27317 0.79986 0.0
H2151 H 0.80713 0.2837 0.84049 0.0
H2152 H 0.78165 0.27155 0.85563 0.0
H2153 H 0.7908 0.30173 0.86133 0.0
H2154 H 0.721 0.35785 0.83495 0.0
H2155 H 0.68814 0.33316 0.85001 0.0
H2156 H 0.73299 0.27068 0.84659 0.0
C2157 C 0.80231 0.32382 0.80353 0.0
C2158 C 0.80603 0.34643 0.79319 0.0
C2159 C 0.78918 0.36469 0.79702 0.0
C2160 C 0.76885 0.36047 0.81078 0.0
C2161 C 0.76563 0.3379 0.82052 0.0
C2162 C 0.78181 0.31982 0.81695 0.0
C2163 C 0.77293 0.29649 0.8271 0.0
C2164 C 0.77059 0.27751 0.80752 0.0
C2165 C 0.78909 0.28787 0.84735 0.0
C2166 C 0.74888 0.30412 0.83642 0.0
C2167 C 0.74526 0.32819 0.8328 0.0
C2168 C 0.72374 0.33909 0.83816 0.0
C2169 C 0.70518 0.32492 0.84664 0.0
C2170 C 0.70817 0.30012 0.84957 0.0
C2171 C 0.73051 0.28971 0.84511 0.0
H2172 H 0.1871 0.8069 0.69075 0.0
H2173 H 0.21545 0.77562 0.62615 0.0
H2174 H 0.19783 0.73711 0.63707 0.0
H2175 H 0.19973 0.75912 0.72738 0.0
H2176 H 0.17337 0.76121 0.74542 0.0
H2177 H 0.18499 0.78732 0.73109 0.0
H2178 H 0.14446 0.79443 0.71056 0.0
H2179 H 0.13262 0.76838 0.72498 0.0
H2180 H 0.13127 0.77103 0.6931 0.0
H2181 H 0.182 0.70129 0.65688 0.0
H2182 H 0.16791 0.67017 0.68407 0.0
H2183 H 0.14909 0.72393 0.73607 0.0
C2184 C 0.18903 0.79213 0.67857 0.0
C2185 C 0.20258 0.79434 0.65751 0.0
C2186 C 0.20514 0.7744 0.64235 0.0
C2187 C 0.19512 0.75245 0.64835 0.0
C2188 C 0.18249 0.75068 0.66954 0.0
C2189 C 0.17923 0.76997 0.68438 0.0
C2190 C 0.16664 0.76267 0.70709 0.0
C2191 C 0.18211 0.76789 0.72903 0.0
C2192 C 0.1423 0.77485 0.70904 0.0
C2193 C 0.16401 0.73616 0.70295 0.0
C2194 C 0.17311 0.72974 0.68107 0.0
C2195 C 0.17443 0.70612 0.67388 0.0
C2196 C 0.16646 0.68853 0.68953 0.0
C2197 C 0.1572 0.69457 0.71213 0.0
C2198 C 0.15563 0.71878 0.71873 0.0
H2199 H 0.69528 0.69506 0.18291 0.0
H2200 H 0.72601 0.72834 0.12039 0.0
H2201 H 0.765 0.71129 0.13068 0.0
H2202 H 0.74255 0.70633 0.22093 0.0
H2203 H 0.7406 0.67866 0.23695 0.0
H2204 H 0.71451 0.69104 0.22325 0.0
H2205 H 0.70806 0.65199 0.19971 0.0
H2206 H 0.73409 0.63941 0.21346 0.0
H2207 H 0.73174 0.6404 0.18154 0.0
H2208 H 0.80135 0.69477 0.15017 0.0
H2209 H 0.83223 0.67851 0.17654 0.0
H2210 H 0.77778 0.65502 0.22586 0.0
C2211 C 0.71005 0.69839 0.17105 0.0
C2212 C 0.70747 0.71303 0.15076 0.0
C2213 C 0.72742 0.71711 0.13595 0.0
C2214 C 0.74967 0.70749 0.14165 0.0
C2215 C 0.75167 0.69367 0.16209 0.0
C2216 C 0.73236 0.68892 0.17645 0.0
C2217 C 0.73955 0.67477 0.19819 0.0
C2218 C 0.73398 0.68853 0.22118 0.0
C2219 C 0.72765 0.65018 0.19821 0.0
C2220 C 0.76606 0.67279 0.1941 0.0
C2221 C 0.77266 0.68373 0.17313 0.0
C2222 C 0.79636 0.68575 0.1664 0.0
C2223 C 0.8138 0.67648 0.18155 0.0
C2224 C 0.80747 0.66519 0.20316 0.0
C2225 C 0.78321 0.6631 0.20927 0.0
H2226 H 0.80974 0.19378 0.68456 0.0
H2227 H 0.77148 0.22688 0.62625 0.0
H2228 H 0.78965 0.2654 0.63626 0.0
H2229 H 0.8019 0.23988 0.72487 0.0
H2230 H 0.83074 0.23746 0.73854 0.0
H2231 H 0.81728 0.21178 0.72506 0.0
H2232 H 0.85425 0.20613 0.69826 0.0
H2233 H 0.86792 0.23176 0.71177 0.0
H2234 H 0.86435 0.23041 0.67997 0.0
H2235 H 0.80798 0.30092 0.65514 0.0
H2236 H 0.82615 0.33105 0.68111 0.0
H2237 H 0.8532 0.27512 0.72691 0.0
C2238 C 0.80559 0.20898 0.67352 0.0
C2239 C 0.78921 0.20721 0.65453 0.0
C2240 C 0.78399 0.2277 0.64083 0.0
C2241 C 0.79427 0.24969 0.64635 0.0
C2242 C 0.80983 0.25093 0.66552 0.0
C2243 C 0.81563 0.23112 0.67882 0.0
C2244 C 0.83149 0.23765 0.69958 0.0
C2245 C 0.81964 0.23132 0.72341 0.0
C2246 C 0.85596 0.22578 0.69725 0.0
C2247 C 0.83318 0.26431 0.6962 0.0
C2248 C 0.82069 0.27155 0.67635 0.0
C2249 C 0.8182 0.29546 0.67049 0.0
C2250 C 0.82857 0.31246 0.6854 0.0
C2251 C 0.84138 0.30551 0.70595 0.0
C2252 C 0.84393 0.28104 0.71114 0.0
H2253 H 0.22361 0.34237 0.23165 0.0
H2254 H 0.17615 0.34132 0.17103 0.0
H2255 H 0.20873 0.32715 0.14551 0.0
H2256 H 0.27903 0.35918 0.19804 0.0
H2257 H 0.2972 0.33986 0.21598 0.0
H2258 H 0.2713 0.35379 0.22866 0.0
H2259 H 0.25535 0.31243 0.2411 0.0
H2260 H 0.28102 0.29839 0.22827 0.0
H2261 H 0.25169 0.28965 0.21886 0.0
H2262 H 0.24417 0.30767 0.128 0.0
H2263 H 0.28107 0.28572 0.11917 0.0
H2264 H 0.30613 0.29963 0.19083 0.0
C2265 C 0.2204 0.33999 0.21283 0.0
C2266 C 0.19745 0.34303 0.20322 0.0
C2267 C 0.19361 0.33902 0.1787 0.0
C2268 C 0.21203 0.33108 0.16404 0.0
C2269 C 0.23425 0.3273 0.17417 0.0
C2270 C 0.23864 0.33185 0.19794 0.0
C2271 C 0.26349 0.32407 0.20479 0.0
C2272 C 0.27865 0.34551 0.21231 0.0
C2273 C 0.26283 0.30501 0.2244 0.0
C2274 C 0.27199 0.31381 0.18138 0.0
C2275 C 0.25493 0.31605 0.16391 0.0
C2276 C 0.2579 0.30622 0.14137 0.0
C2277 C 0.27886 0.29367 0.13656 0.0
C2278 C 0.29659 0.29108 0.15421 0.0
C2279 C 0.29313 0.30161 0.17679 0.0
H2280 H 0.34579 0.2265 0.22458 0.0
H2281 H 0.31852 0.18037 0.16904 0.0
H2282 H 0.30074 0.15439 0.19932 0.0
H2283 H 0.35747 0.1797 0.26936 0.0
H2284 H 0.3475 0.1981 0.29361 0.0
H2285 H 0.36085 0.21153 0.26779 0.0
H2286 H 0.32367 0.23806 0.26226 0.0
H2287 H 0.3102 0.2247 0.288 0.0
H2288 H 0.29483 0.22433 0.25991 0.0
H2289 H 0.28295 0.13536 0.23487 0.0
H2290 H 0.26536 0.12497 0.27351 0.0
H2291 H 0.30323 0.1837 0.30643 0.0
C2292 C 0.33656 0.21064 0.2188 0.0
C2293 C 0.33384 0.20536 0.19437 0.0
C2294 C 0.32108 0.18473 0.18758 0.0
C2295 C 0.31093 0.16979 0.20468 0.0
C2296 C 0.31356 0.17573 0.22853 0.0
C2297 C 0.32604 0.19565 0.23566 0.0
C2298 C 0.32442 0.19907 0.26234 0.0
C2299 C 0.34903 0.19697 0.27396 0.0
C2300 C 0.31257 0.22295 0.26848 0.0
C2301 C 0.30868 0.17823 0.26897 0.0
C2302 C 0.30288 0.16488 0.24921 0.0
C2303 C 0.28757 0.1455 0.25054 0.0
C2304 C 0.27762 0.13978 0.27261 0.0
C2305 C 0.28293 0.15344 0.29311 0.0
C2306 C 0.299 0.1727 0.29122 0.0
H2307 H 0.34237 0.7695 0.77315 0.0
H2308 H 0.32411 0.82161 0.82709 0.0
H2309 H 0.30542 0.84666 0.79663 0.0
H2310 H 0.35312 0.81228 0.72396 0.0
H2311 H 0.33966 0.79304 0.70217 0.0
H2312 H 0.35448 0.78047 0.72763 0.0
H2313 H 0.31629 0.7572 0.73843 0.0
H2314 H 0.30134 0.76975 0.71311 0.0
H2315 H 0.2888 0.77315 0.74237 0.0
H2316 H 0.28519 0.86412 0.76174 0.0
H2317 H 0.26475 0.87315 0.72415 0.0
H2318 H 0.29557 0.80993 0.69229 0.0
C2319 C 0.33499 0.78646 0.77846 0.0
C2320 C 0.33496 0.79366 0.80254 0.0
C2321 C 0.32455 0.81573 0.8088 0.0
C2322 C 0.31389 0.83015 0.79159 0.0
C2323 C 0.31374 0.82231 0.76816 0.0
C2324 C 0.32406 0.80105 0.76148 0.0
C2325 C 0.31966 0.79593 0.73539 0.0
C2326 C 0.34313 0.79541 0.72147 0.0
C2327 C 0.30569 0.77264 0.73215 0.0
C2328 C 0.3048 0.81738 0.72866 0.0
C2329 C 0.30181 0.83244 0.74781 0.0
C2330 C 0.28765 0.85267 0.74649 0.0
C2331 C 0.27604 0.85759 0.72506 0.0
C2332 C 0.27861 0.84232 0.7052 0.0
C2333 C 0.29349 0.82214 0.70701 0.0
H2334 H 0.70143 0.81965 0.30109 0.0
H2335 H 0.74638 0.87257 0.26731 0.0
H2336 H 0.72875 0.86221 0.22837 0.0
H2337 H 0.70711 0.77637 0.25694 0.0
H2338 H 0.67704 0.7657 0.25958 0.0
H2339 H 0.69153 0.77894 0.28481 0.0
H2340 H 0.65722 0.80937 0.28876 0.0
H2341 H 0.64258 0.79622 0.2635 0.0
H2342 H 0.64925 0.82756 0.26362 0.0
H2343 H 0.70819 0.84391 0.19295 0.0
H2344 H 0.68741 0.81874 0.1638 0.0
H2345 H 0.65621 0.77786 0.22137 0.0
C2346 C 0.70744 0.8294 0.28564 0.0
C2347 C 0.72527 0.84706 0.28734 0.0
C2348 C 0.73269 0.85907 0.26651 0.0
C2349 C 0.72274 0.85334 0.24433 0.0
C2350 C 0.70539 0.83564 0.24337 0.0
C2351 C 0.69784 0.82387 0.26351 0.0
C2352 C 0.68011 0.80452 0.25768 0.0
C2353 C 0.68952 0.77994 0.26519 0.0
C2354 C 0.65585 0.80974 0.26906 0.0
C2355 C 0.67909 0.80692 0.23096 0.0
C2356 C 0.69364 0.82508 0.22305 0.0
C2357 C 0.69656 0.82983 0.19896 0.0
C2358 C 0.68464 0.81539 0.18254 0.0
C2359 C 0.67001 0.79634 0.19025 0.0
C2360 C 0.66695 0.79243 0.21484 0.0
H2361 H 0.70065 0.19359 0.69272 0.0
H2362 H 0.72885 0.12936 0.72491 0.0
H2363 H 0.71105 0.1408 0.76321 0.0
H2364 H 0.71283 0.23095 0.74083 0.0
H2365 H 0.68645 0.24887 0.73801 0.0
H2366 H 0.69873 0.23441 0.71227 0.0
H2367 H 0.65843 0.2137 0.70434 0.0
H2368 H 0.64595 0.2282 0.73003 0.0
H2369 H 0.64481 0.19628 0.72751 0.0
H2370 H 0.69392 0.16058 0.79854 0.0
H2371 H 0.67827 0.18747 0.82909 0.0
H2372 H 0.66087 0.23939 0.77468 0.0
C2373 C 0.70261 0.18165 0.70768 0.0
C2374 C 0.71604 0.16048 0.70575 0.0
C2375 C 0.71862 0.14563 0.72591 0.0
C2376 C 0.7085 0.15193 0.74774 0.0
C2377 C 0.69585 0.17315 0.74918 0.0
C2378 C 0.69277 0.18779 0.72972 0.0
C2379 C 0.67992 0.21048 0.7366 0.0
C2380 C 0.69541 0.23247 0.73164 0.0
C2381 C 0.65584 0.21226 0.72386 0.0
C2382 C 0.67672 0.20648 0.76306 0.0
C2383 C 0.68588 0.18472 0.76982 0.0
C2384 C 0.68636 0.17751 0.79344 0.0
C2385 C 0.67744 0.193 0.81071 0.0
C2386 C 0.66809 0.21553 0.80436 0.0
C2387 C 0.6675 0.22216 0.78011 0.0
H2388 H 0.80742 0.81029 0.68561 0.0
H2389 H 0.77374 0.77823 0.62403 0.0
H2390 H 0.79162 0.73966 0.63437 0.0
H2391 H 0.86272 0.77365 0.68456 0.0
H2392 H 0.8637 0.77166 0.71651 0.0
H2393 H 0.8512 0.7976 0.70246 0.0
H2394 H 0.81221 0.79152 0.72607 0.0
H2395 H 0.82448 0.76553 0.74005 0.0
H2396 H 0.79683 0.76348 0.72405 0.0
H2397 H 0.80845 0.70398 0.65369 0.0
H2398 H 0.824 0.67321 0.68043 0.0
H2399 H 0.84742 0.72774 0.72975 0.0
C2400 C 0.80435 0.79533 0.67392 0.0
C2401 C 0.78926 0.79735 0.65391 0.0
C2402 C 0.78526 0.77716 0.6394 0.0
C2403 C 0.7954 0.75517 0.64509 0.0
C2404 C 0.80959 0.75362 0.66529 0.0
C2405 C 0.81423 0.77315 0.67944 0.0
C2406 C 0.82837 0.76612 0.7013 0.0
C2407 C 0.85296 0.77796 0.70119 0.0
C2408 C 0.81465 0.77201 0.72421 0.0
C2409 C 0.8303 0.7395 0.69754 0.0
C2410 C 0.81952 0.73277 0.67653 0.0
C2411 C 0.81734 0.70904 0.66997 0.0
C2412 C 0.82619 0.69165 0.68537 0.0
C2413 C 0.83718 0.69799 0.70711 0.0
C2414 C 0.83956 0.72232 0.71304 0.0
H2415 H 0.72244 0.28755 0.15575 0.0
H2416 H 0.66836 0.33621 0.18141 0.0
H2417 H 0.6991 0.35944 0.20218 0.0
H2418 H 0.75416 0.28495 0.20837 0.0
H2419 H 0.7831 0.28331 0.1948 0.0
H2420 H 0.75749 0.27248 0.17905 0.0
H2421 H 0.76714 0.30032 0.14367 0.0
H2422 H 0.79294 0.31114 0.15925 0.0
H2423 H 0.77077 0.33175 0.14881 0.0
H2424 H 0.73514 0.37496 0.22365 0.0
H2425 H 0.7737 0.38162 0.24358 0.0
H2426 H 0.80371 0.32236 0.2042 0.0
C2427 C 0.71709 0.30345 0.16517 0.0
C2428 C 0.69296 0.31012 0.16674 0.0
C2429 C 0.68672 0.33078 0.17978 0.0
C2430 C 0.70408 0.34413 0.19165 0.0
C2431 C 0.7276 0.33664 0.19032 0.0
C2432 C 0.73414 0.31685 0.1773 0.0
C2433 C 0.76027 0.31138 0.18033 0.0
C2434 C 0.76396 0.28657 0.1913 0.0
C2435 C 0.77356 0.3138 0.1566 0.0
C2436 C 0.76726 0.33087 0.19749 0.0
C2437 C 0.74827 0.34542 0.20289 0.0
C2438 C 0.75025 0.36389 0.21931 0.0
C2439 C 0.77221 0.36751 0.23057 0.0
C2440 C 0.79184 0.35262 0.22544 0.0
C2441 C 0.78921 0.33425 0.20846 0.0
H2442 H 0.15652 0.27187 0.73128 0.0
H2443 H 0.18302 0.32804 0.68544 0.0
H2444 H 0.20061 0.29818 0.65894 0.0
H2445 H 0.20739 0.23625 0.72776 0.0
H2446 H 0.19187 0.20822 0.72778 0.0
H2447 H 0.17873 0.23377 0.74182 0.0
H2448 H 0.14116 0.22894 0.71569 0.0
H2449 H 0.15421 0.20331 0.70157 0.0
H2450 H 0.14411 0.22798 0.68381 0.0
H2451 H 0.21829 0.26298 0.63922 0.0
H2452 H 0.23556 0.22441 0.62787 0.0
H2453 H 0.19813 0.19061 0.68634 0.0
C2454 C 0.16556 0.27787 0.71539 0.0
C2455 C 0.16814 0.30238 0.71038 0.0
C2456 C 0.18062 0.30945 0.68967 0.0
C2457 C 0.19066 0.29259 0.67441 0.0
C2458 C 0.18815 0.26866 0.68006 0.0
C2459 C 0.17591 0.26123 0.70001 0.0
C2460 C 0.17745 0.23447 0.70287 0.0
C2461 C 0.18959 0.2278 0.72645 0.0
C2462 C 0.15276 0.223 0.70086 0.0
C2463 C 0.19288 0.22818 0.68171 0.0
C2464 C 0.19862 0.24816 0.66867 0.0
C2465 C 0.21371 0.24713 0.6491 0.0
C2466 C 0.22346 0.22511 0.64282 0.0
C2467 C 0.21817 0.20439 0.65612 0.0
C2468 C 0.20234 0.206 0.6756 0.0
H2469 H 0.23042 0.64958 0.23149 0.0
H2470 H 0.17774 0.66911 0.17873 0.0
H2471 H 0.20921 0.68501 0.15299 0.0
H2472 H 0.26409 0.70117 0.22598 0.0
H2473 H 0.29265 0.68724 0.22993 0.0
H2474 H 0.26657 0.67405 0.24287 0.0
H2475 H 0.27542 0.63455 0.22097 0.0
H2476 H 0.30162 0.64762 0.20799 0.0
H2477 H 0.27921 0.63463 0.18917 0.0
H2478 H 0.24511 0.70253 0.13487 0.0
H2479 H 0.28348 0.72127 0.12558 0.0
H2480 H 0.31365 0.69117 0.18993 0.0
C2481 C 0.22563 0.6566 0.21423 0.0
C2482 C 0.2016 0.65791 0.20703 0.0
C2483 C 0.19597 0.66786 0.18462 0.0
C2484 C 0.21376 0.67685 0.1698 0.0
C2485 C 0.23717 0.67584 0.17762 0.0
C2486 C 0.24323 0.66596 0.19927 0.0
C2487 C 0.26951 0.6692 0.20431 0.0
C2488 C 0.27342 0.68379 0.22712 0.0
C2489 C 0.28219 0.64506 0.20568 0.0
C2490 C 0.27705 0.68297 0.18239 0.0
C2491 C 0.25813 0.68631 0.16713 0.0
C2492 C 0.26017 0.69976 0.14648 0.0
C2493 C 0.28205 0.71041 0.14141 0.0
C2494 C 0.30166 0.70763 0.15695 0.0
C2495 C 0.29915 0.69334 0.1775 0.0
H2496 H 0.84402 0.27714 0.28307 0.0
H2497 H 0.81958 0.33195 0.3316 0.0
H2498 H 0.79878 0.30154 0.35531 0.0
H2499 H 0.79136 0.2459 0.28121 0.0
H2500 H 0.80464 0.2168 0.2797 0.0
H2501 H 0.82054 0.24219 0.26857 0.0
H2502 H 0.85602 0.23246 0.29623 0.0
H2503 H 0.8403 0.20686 0.30733 0.0
H2504 H 0.85109 0.22911 0.3277 0.0
H2505 H 0.77673 0.26575 0.37104 0.0
H2506 H 0.75634 0.2274 0.37788 0.0
H2507 H 0.7954 0.19664 0.31883 0.0
C2508 C 0.83488 0.28274 0.29904 0.0
C2509 C 0.8336 0.30697 0.30549 0.0
C2510 C 0.82097 0.3135 0.32631 0.0
C2511 C 0.80908 0.29634 0.33993 0.0
C2512 C 0.81006 0.27272 0.3326 0.0
C2513 C 0.82282 0.2659 0.31274 0.0
C2514 C 0.81952 0.23974 0.30749 0.0
C2515 C 0.80835 0.23595 0.28279 0.0
C2516 C 0.84314 0.22625 0.30984 0.0
C2517 C 0.80247 0.23307 0.32714 0.0
C2518 C 0.79734 0.25221 0.34159 0.0
C2519 C 0.7809 0.25052 0.36007 0.0
C2520 C 0.76936 0.22869 0.36379 0.0
C2521 C 0.77428 0.2089 0.34901 0.0
C2522 C 0.79129 0.21125 0.33066 0.0
H2523 H 0.22773 0.3492 0.77663 0.0
H2524 H 0.17597 0.32645 0.829 0.0
H2525 H 0.20792 0.3091 0.85324 0.0
H2526 H 0.26094 0.29798 0.7778 0.0
H2527 H 0.28955 0.31192 0.77433 0.0
H2528 H 0.26338 0.32629 0.76298 0.0
H2529 H 0.27291 0.36396 0.78766 0.0
H2530 H 0.29931 0.34979 0.79894 0.0
H2531 H 0.27747 0.36141 0.81926 0.0
H2532 H 0.24445 0.28955 0.86913 0.0
H2533 H 0.2833 0.27035 0.87598 0.0
H2534 H 0.31124 0.30559 0.81321 0.0
C2535 C 0.22323 0.34132 0.79359 0.0
C2536 C 0.19936 0.33936 0.80099 0.0
C2537 C 0.19412 0.32825 0.82298 0.0
C2538 C 0.21217 0.31836 0.83694 0.0
C2539 C 0.23543 0.31976 0.82872 0.0
C2540 C 0.24106 0.33115 0.80766 0.0
C2541 C 0.26712 0.32816 0.80175 0.0
C2542 C 0.27042 0.31532 0.7778 0.0
C2543 C 0.27996 0.35227 0.80192 0.0
C2544 C 0.275 0.31274 0.82235 0.0
C2545 C 0.25654 0.3083 0.83785 0.0
C2546 C 0.25919 0.29323 0.85735 0.0
C2547 C 0.2813 0.28233 0.86105 0.0
C2548 C 0.30043 0.28649 0.84525 0.0
C2549 C 0.29714 0.30215 0.82583 0.0
H2550 H 0.19757 0.80566 0.31473 0.0
H2551 H 0.23322 0.77495 0.37595 0.0
H2552 H 0.21525 0.73609 0.36676 0.0
H2553 H 0.14264 0.76962 0.31861 0.0
H2554 H 0.14032 0.76693 0.28678 0.0
H2555 H 0.15367 0.79303 0.29972 0.0
H2556 H 0.19165 0.78602 0.27473 0.0
H2557 H 0.17848 0.75992 0.26179 0.0
H2558 H 0.20673 0.75782 0.27668 0.0
H2559 H 0.19731 0.69995 0.34874 0.0
H2560 H 0.18026 0.66883 0.32325 0.0
H2561 H 0.15556 0.7227 0.27387 0.0
C2562 C 0.20125 0.79091 0.32653 0.0
C2563 C 0.21679 0.79346 0.34615 0.0
C2564 C 0.22135 0.77354 0.36087 0.0
C2565 C 0.21117 0.75137 0.35584 0.0
C2566 C 0.19635 0.7494 0.33611 0.0
C2567 C 0.19128 0.76864 0.32174 0.0
C2568 C 0.17619 0.76133 0.30065 0.0
C2569 C 0.15175 0.77345 0.3015 0.0
C2570 C 0.18904 0.76658 0.27708 0.0
C2571 C 0.17413 0.73484 0.30507 0.0
C2572 C 0.18573 0.72842 0.32575 0.0
C2573 C 0.18782 0.70479 0.33273 0.0
C2574 C 0.1781 0.68721 0.31807 0.0
C2575 C 0.16634 0.69328 0.29664 0.0
C2576 C 0.16399 0.7175 0.29035 0.0
H2577 H 0.77234 0.65414 0.77064 0.0
H2578 H 0.82329 0.67229 0.82553 0.0
H2579 H 0.791 0.68796 0.85049 0.0
H2580 H 0.73901 0.70595 0.77589 0.0
H2581 H 0.71052 0.69235 0.77057 0.0
H2582 H 0.73697 0.67921 0.75835 0.0
H2583 H 0.727 0.63932 0.77906 0.0
H2584 H 0.70042 0.65233 0.79129 0.0
H2585 H 0.72198 0.63878 0.81069 0.0
H2586 H 0.75424 0.7052 0.86783 0.0
H2587 H 0.71549 0.72372 0.87608 0.0
H2588 H 0.68807 0.69529 0.8097 0.0
C2589 C 0.77658 0.66079 0.78818 0.0
C2590 C 0.80033 0.66178 0.79624 0.0
C2591 C 0.80526 0.67129 0.81901 0.0
C2592 C 0.787 0.68014 0.83338 0.0
C2593 C 0.76387 0.67948 0.82471 0.0
C2594 C 0.75854 0.67004 0.80266 0.0
C2595 C 0.73253 0.67358 0.79667 0.0
C2596 C 0.7296 0.68867 0.77404 0.0
C2597 C 0.71973 0.64957 0.79429 0.0
C2598 C 0.72426 0.68695 0.81855 0.0
C2599 C 0.74256 0.68987 0.83462 0.0
C2600 C 0.73966 0.70278 0.85554 0.0
C2601 C 0.71755 0.71327 0.86004 0.0
C2602 C 0.69861 0.71095 0.84362 0.0
C2603 C 0.70204 0.69724 0.82279 0.0
H2604 H 0.696 0.8191 0.69297 0.0
H2605 H 0.73916 0.87264 0.72811 0.0
H2606 H 0.72039 0.86226 0.76642 0.0
H2607 H 0.64243 0.82628 0.72919 0.0
H2608 H 0.63629 0.79483 0.72917 0.0
H2609 H 0.6513 0.80822 0.70426 0.0
H2610 H 0.68599 0.77836 0.70906 0.0
H2611 H 0.67115 0.7649 0.73397 0.0
H2612 H 0.70096 0.77609 0.73729 0.0
H2613 H 0.69935 0.84381 0.80115 0.0
H2614 H 0.67856 0.81827 0.82988 0.0
H2615 H 0.6494 0.77661 0.77178 0.0
C2616 C 0.70132 0.82899 0.70859 0.0
C2617 C 0.71901 0.84682 0.70746 0.0
C2618 C 0.72558 0.85901 0.72848 0.0
C2619 C 0.71497 0.85327 0.75031 0.0
C2620 C 0.69784 0.83537 0.75077 0.0
C2621 C 0.69106 0.82343 0.73044 0.0
C2622 C 0.67352 0.80377 0.73588 0.0
C2623 C 0.64946 0.80858 0.72392 0.0
C2624 C 0.68351 0.77935 0.72863 0.0
C2625 C 0.67181 0.80618 0.76258 0.0
C2626 C 0.68579 0.82466 0.77079 0.0
C2627 C 0.68813 0.82949 0.79491 0.0
C2628 C 0.67622 0.81482 0.8111 0.0
C2629 C 0.66217 0.79545 0.80313 0.0
C2630 C 0.65968 0.79143 0.77848 0.0
H2631 H 0.72051 0.16037 0.27262 0.0
H2632 H 0.66655 0.17646 0.32534 0.0
H2633 H 0.64249 0.19619 0.29461 0.0
H2634 H 0.71797 0.21499 0.24403 0.0
H2635 H 0.7226 0.20362 0.21445 0.0
H2636 H 0.73413 0.18767 0.23964 0.0
H2637 H 0.71143 0.14987 0.22644 0.0
H2638 H 0.69992 0.16567 0.20107 0.0
H2639 H 0.67983 0.15134 0.22148 0.0
H2640 H 0.62622 0.21774 0.25946 0.0
H2641 H 0.61868 0.23935 0.22214 0.0
H2642 H 0.68343 0.20987 0.19221 0.0
C2643 C 0.70335 0.16745 0.2776 0.0
C2644 C 0.69536 0.16663 0.30141 0.0
C2645 C 0.67302 0.17668 0.30724 0.0
C2646 C 0.65918 0.18793 0.28988 0.0
C2647 C 0.66788 0.18902 0.26675 0.0
C2648 C 0.68939 0.17897 0.26053 0.0
C2649 C 0.69559 0.18438 0.23488 0.0
C2650 C 0.71895 0.19851 0.23316 0.0
C2651 C 0.69675 0.16144 0.22009 0.0
C2652 C 0.67444 0.19948 0.22786 0.0
C2653 C 0.65858 0.20174 0.24643 0.0
C2654 C 0.63834 0.21586 0.24466 0.0
C2655 C 0.63426 0.22813 0.22338 0.0
C2656 C 0.65039 0.22629 0.20413 0.0
C2657 C 0.67059 0.2115 0.20643 0.0
H2658 H 0.30906 0.1853 0.6896 0.0
H2659 H 0.27685 0.12352 0.72284 0.0
H2660 H 0.29642 0.13377 0.76064 0.0
H2661 H 0.36576 0.18412 0.72322 0.0
H2662 H 0.3669 0.21607 0.72541 0.0
H2663 H 0.35297 0.20223 0.7001 0.0
H2664 H 0.31437 0.2258 0.7085 0.0
H2665 H 0.32811 0.23962 0.73384 0.0
H2666 H 0.3006 0.22362 0.73733 0.0
H2667 H 0.31564 0.15275 0.79562 0.0
H2668 H 0.33315 0.17928 0.82562 0.0
H2669 H 0.35309 0.22898 0.77002 0.0
C2670 C 0.30658 0.17358 0.70466 0.0
C2671 C 0.29151 0.1535 0.70317 0.0
C2672 C 0.28834 0.13896 0.72348 0.0
C2673 C 0.29945 0.14458 0.74504 0.0
C2674 C 0.31371 0.16479 0.74603 0.0
C2675 C 0.31739 0.17905 0.72639 0.0
C2676 C 0.33191 0.20084 0.73277 0.0
C2677 C 0.35581 0.2008 0.71959 0.0
C2678 C 0.31791 0.22382 0.72782 0.0
C2679 C 0.3353 0.19688 0.75919 0.0
C2680 C 0.32486 0.17584 0.76639 0.0
C2681 C 0.32422 0.16907 0.79016 0.0
C2682 C 0.33422 0.18432 0.8071 0.0
C2683 C 0.34474 0.20617 0.80024 0.0
C2684 C 0.34559 0.21224 0.77586 0.0
H2685 H 0.27243 0.84375 0.27361 0.0
H2686 H 0.32596 0.82895 0.32714 0.0
H2687 H 0.35207 0.81223 0.29644 0.0
H2688 H 0.27947 0.79078 0.24272 0.0
H2689 H 0.27505 0.80306 0.21348 0.0
H2690 H 0.26175 0.81719 0.23888 0.0
H2691 H 0.28238 0.85684 0.22792 0.0
H2692 H 0.2957 0.84283 0.20237 0.0
H2693 H 0.31415 0.85755 0.22402 0.0
H2694 H 0.3705 0.79307 0.26147 0.0
H2695 H 0.38031 0.77276 0.22398 0.0
H2696 H 0.31518 0.79952 0.19247 0.0
C2697 C 0.2899 0.8376 0.27876 0.0
C2698 C 0.29719 0.8379 0.30282 0.0
C2699 C 0.31997 0.82908 0.30888 0.0
C2700 C 0.335 0.81957 0.29153 0.0
C2701 C 0.32707 0.81898 0.26813 0.0
C2702 C 0.30511 0.82783 0.26163 0.0
C2703 C 0.30012 0.82307 0.23557 0.0
C2704 C 0.27778 0.8076 0.2325 0.0
C2705 C 0.29797 0.84647 0.22165 0.0
C2706 C 0.32243 0.80963 0.22868 0.0
C2707 C 0.3378 0.80771 0.24771 0.0
C2708 C 0.3588 0.79474 0.2463 0.0
C2709 C 0.36416 0.78318 0.22495 0.0
C2710 C 0.34859 0.78463 0.20523 0.0
C2711 C 0.32764 0.79839 0.20708 0.0
loop_
_geom_bond_atom_site_label_1
_geom_bond_atom_site_label_2
_geom_bond_distance
_geom_bond_site_symmetry_2
_ccdc_geom_bond_type
Co0 O2 2.143 . S
Co0 O8 2.074 . S
Co0 O11 2.093 . S
Co0 O24 2.097 . S
Co0 N41 2.151 . S
Co0 N49 2.214 . S
Co1 O2 2.160 . S
Co1 O7 2.058 . S
Co1 O17 2.057 . S
Co1 O32 2.037 . S
Co1 N36 2.145 . S
Co1 N57 2.257 . S
O2 Co0 2.143 . S
O2 Co1 2.160 . S
C3 O4 1.278 . S
C3 O11 1.224 . S
O4 C3 1.278 . S
C5 O6 1.245 . S
C5 O17 1.232 . S
O6 C5 1.245 . S
O7 Co1 2.058 . S
O7 C33 1.269 . S
O8 Co0 2.074 . S
O8 C33 1.257 . S
H9 C34 0.930 . S
H10 C40 0.930 . S
O11 Co0 2.093 . S
O11 C3 1.224 . S
H12 C44 0.929 . S
H13 C46 0.930 . S
H14 C47 0.930 . S
H15 C45 0.929 . S
H16 C48 0.928 . S
O17 Co1 2.057 . S
O17 C5 1.232 . S
H18 C37 0.929 . S
H19 C38 0.929 . S
H20 C50 0.931 . S
H21 C42 0.929 . S
H22 C51 0.930 . S
H23 C43 0.931 . S
O24 Co0 2.097 . S
O24 C52 1.214 . S
H25 C53 0.929 . S
H26 C54 0.929 . S
H27 C55 0.930 . S
H28 C56 0.929 . S
H29 C58 0.930 . S
H30 C35 0.930 . S
H31 C39 0.930 . S
O32 Co1 2.037 . S
O32 C52 1.234 . S
C33 O7 1.269 . S
C33 O8 1.257 . S
C34 H9 0.930 . S
C34 C37 1.388 . S
C34 C39 1.418 . S
C35 H30 0.930 . S
C35 C38 1.404 . S
C35 C39 1.353 . S
N36 Co1 2.145 . S
N36 C37 1.397 . S
N36 C38 1.334 . S
C37 H18 0.929 . S
C37 C34 1.388 . S
C37 N36 1.397 . S
C38 H19 0.929 . S
C38 C35 1.404 . S
C38 N36 1.334 . S
C39 H31 0.930 . S
C39 C34 1.418 . S
C39 C35 1.353 . S
C40 H10 0.930 . S
C40 N41 1.330 . S
C40 C42 1.446 . S
N41 Co0 2.151 . S
N41 C40 1.330 . S
N41 C45 1.418 . S
C42 H21 0.929 . S
C42 C40 1.446 . S
C42 C43 1.332 . S
C43 H23 0.931 . S
C43 C42 1.332 . S
C43 C44 1.267 . S
C44 H12 0.929 . S
C44 C43 1.267 . S
C44 C45 1.251 . S
C45 H15 0.929 . S
C45 N41 1.418 . S
C45 C44 1.251 . S
C46 H13 0.930 . S
C46 C48 1.406 . S
C46 C51 1.261 . S
C47 H14 0.930 . S
C47 N49 1.325 . S
C47 C50 1.357 . S
C48 H16 0.928 . S
C48 C46 1.406 . S
C48 N49 1.261 . S
N49 Co0 2.214 . S
N49 C47 1.325 . S
N49 C48 1.261 . S
C50 H20 0.931 . S
C50 C47 1.357 . S
C50 C51 1.312 . S
C51 H22 0.930 . S
C51 C46 1.261 . S
C51 C50 1.312 . S
C52 O24 1.214 . S
C52 O32 1.234 . S
C53 H25 0.929 . S
C53 C56 1.391 . S
C53 C58 1.391 . S
C54 H26 0.929 . S
C54 C55 1.390 . S
C54 N57 1.391 . S
C55 H27 0.930 . S
C55 C54 1.390 . S
C55 C56 1.392 . S
C56 H28 0.929 . S
C56 C53 1.391 . S
C56 C55 1.392 . S
N57 Co1 2.257 . S
N57 C54 1.391 . S
N57 C58 1.388 . S
C58 H29 0.930 . S
C58 C53 1.391 . S
C58 N57 1.388 . S
Co59 O61 2.143 . S
Co59 O67 2.074 . S
Co59 O70 2.093 . S
Co59 O83 2.097 . S
Co59 N100 2.151 . S
Co59 N108 2.214 . S
Co60 O61 2.160 . S
Co60 O66 2.058 . S
Co60 O76 2.057 . S
Co60 O91 2.037 . S
Co60 N95 2.145 . S
Co60 N116 2.257 . S
O61 Co59 2.143 . S
O61 Co60 2.160 . S
C62 O63 1.278 . S
C62 O70 1.224 . S
O63 C62 1.278 . S
C64 O65 1.245 . S
C64 O76 1.232 . S
O65 C64 1.245 . S
O66 Co60 2.058 . S
O66 C92 1.269 . S
O67 Co59 2.074 . S
O67 C92 1.257 . S
H68 C93 0.930 . S
H69 C99 0.930 . S
O70 Co59 2.093 . S
O70 C62 1.224 . S
H71 C103 0.929 . S
H72 C105 0.930 . S
H73 C106 0.930 . S
H74 C104 0.929 . S
H75 C107 0.928 . S
O76 Co60 2.057 . S
O76 C64 1.232 . S
H77 C96 0.929 . S
H78 C97 0.929 . S
H79 C109 0.931 . S
H80 C101 0.929 . S
H81 C110 0.930 . S
H82 C102 0.931 . S
O83 Co59 2.097 . S
O83 C111 1.214 . S
H84 C112 0.929 . S
H85 C113 0.929 . S
H86 C114 0.930 . S
H87 C115 0.929 . S
H88 C117 0.930 . S
H89 C94 0.930 . S
H90 C98 0.930 . S
O91 Co60 2.037 . S
O91 C111 1.234 . S
C92 O66 1.269 . S
C92 O67 1.257 . S
C93 H68 0.930 . S
C93 C96 1.388 . S
C93 C98 1.418 . S
C94 H89 0.930 . S
C94 C97 1.404 . S
C94 C98 1.353 . S
N95 Co60 2.145 . S
N95 C96 1.397 . S
N95 C97 1.334 . S
C96 H77 0.929 . S
C96 C93 1.388 . S
C96 N95 1.397 . S
C97 H78 0.929 . S
C97 C94 1.404 . S
C97 N95 1.334 . S
C98 H90 0.930 . S
C98 C93 1.418 . S
C98 C94 1.353 . S
C99 H69 0.930 . S
C99 N100 1.330 . S
C99 C101 1.446 . S
N100 Co59 2.151 . S
N100 C99 1.330 . S
N100 C104 1.418 . S
C101 H80 0.929 . S
C101 C99 1.446 . S
C101 C102 1.332 . S
C102 H82 0.931 . S
C102 C101 1.332 . S
C102 C103 1.267 . S
C103 H71 0.929 . S
C103 C102 1.267 . S
C103 C104 1.251 . S
C104 H74 0.929 . S
C104 N100 1.418 . S
C104 C103 1.251 . S
C105 H72 0.930 . S
C105 C107 1.406 . S
C105 C110 1.261 . S
C106 H73 0.930 . S
C106 N108 1.325 . S
C106 C109 1.357 . S
C107 H75 0.928 . S
C107 C105 1.406 . S
C107 N108 1.261 . S
N108 Co59 2.214 . S
N108 C106 1.325 . S
N108 C107 1.261 . S
C109 H79 0.931 . S
C109 C106 1.357 . S
C109 C110 1.312 . S
C110 H81 0.930 . S
C110 C105 1.261 . S
C110 C109 1.312 . S
C111 O83 1.214 . S
C111 O91 1.234 . S
C112 H84 0.929 . S
C112 C115 1.391 . S
C112 C117 1.391 . S
C113 H85 0.929 . S
C113 C114 1.390 . S
C113 N116 1.391 . S
C114 H86 0.930 . S
C114 C113 1.390 . S
C114 C115 1.392 . S
C115 H87 0.929 . S
C115 C112 1.391 . S
C115 C114 1.392 . S
N116 Co60 2.257 . S
N116 C113 1.391 . S
N116 C117 1.388 . S
C117 H88 0.930 . S
C117 C112 1.391 . S
C117 N116 1.388 . S
Co118 O120 2.143 . S
Co118 O126 2.074 . S
Co118 O129 2.093 . S
Co118 O142 2.097 . S
Co118 N159 2.151 . S
Co118 N167 2.214 . S
Co119 O120 2.160 . S
Co119 O125 2.058 . S
Co119 O135 2.057 . S
Co119 O150 2.037 . S
Co119 N154 2.145 . S
Co119 N175 2.257 . S
O120 Co118 2.143 . S
O120 Co119 2.160 . S
C121 O122 1.278 . S
C121 O129 1.224 . S
O122 C121 1.278 . S
C123 O124 1.245 . S
C123 O135 1.232 . S
O124 C123 1.245 . S
O125 Co119 2.058 . S
O125 C151 1.269 . S
O126 Co118 2.074 . S
O126 C151 1.257 . S
H127 C152 0.930 . S
H128 C158 0.930 . S
O129 Co118 2.093 . S
O129 C121 1.224 . S
H130 C162 0.929 . S
H131 C164 0.930 . S
H132 C165 0.930 . S
H133 C163 0.929 . S
H134 C166 0.928 . S
O135 Co119 2.057 . S
O135 C123 1.232 . S
H136 C155 0.929 . S
H137 C156 0.929 . S
H138 C168 0.931 . S
H139 C160 0.929 . S
H140 C169 0.930 . S
H141 C161 0.931 . S
O142 Co118 2.097 . S
O142 C170 1.214 . S
H143 C171 0.929 . S
H144 C172 0.929 . S
H145 C173 0.930 . S
H146 C174 0.929 . S
H147 C176 0.930 . S
H148 C153 0.930 . S
H149 C157 0.930 . S
O150 Co119 2.037 . S
O150 C170 1.234 . S
C151 O125 1.269 . S
C151 O126 1.257 . S
C152 H127 0.930 . S
C152 C155 1.388 . S
C152 C157 1.418 . S
C153 H148 0.930 . S
C153 C156 1.404 . S
C153 C157 1.353 . S
N154 Co119 2.145 . S
N154 C155 1.397 . S
N154 C156 1.334 . S
C155 H136 0.929 . S
C155 C152 1.388 . S
C155 N154 1.397 . S
C156 H137 0.929 . S
C156 C153 1.404 . S
C156 N154 1.334 . S
C157 H149 0.930 . S
C157 C152 1.418 . S
C157 C153 1.353 . S
C158 H128 0.930 . S
C158 N159 1.330 . S
C158 C160 1.446 . S
N159 Co118 2.151 . S
N159 C158 1.330 . S
N159 C163 1.418 . S
C160 H139 0.929 . S
C160 C158 1.446 . S
C160 C161 1.332 . S
C161 H141 0.931 . S
C161 C160 1.332 . S
C161 C162 1.267 . S
C162 H130 0.929 . S
C162 C161 1.267 . S
C162 C163 1.251 . S
C163 H133 0.929 . S
C163 N159 1.418 . S
C163 C162 1.251 . S
C164 H131 0.930 . S
C164 C166 1.406 . S
C164 C169 1.261 . S
C165 H132 0.930 . S
C165 N167 1.325 . S
C165 C168 1.357 . S
C166 H134 0.928 . S
C166 C164 1.406 . S
C166 N167 1.261 . S
N167 Co118 2.214 . S
N167 C165 1.325 . S
N167 C166 1.261 . S
C168 H138 0.931 . S
C168 C165 1.357 . S
C168 C169 1.312 . S
C169 H140 0.930 . S
C169 C164 1.261 . S
C169 C168 1.312 . S
C170 O142 1.214 . S
C170 O150 1.234 . S
C171 H143 0.929 . S
C171 C174 1.391 . S
C171 C176 1.391 . S
C172 H144 0.929 . S
C172 C173 1.390 . S
C172 N175 1.391 . S
C173 H145 0.930 . S
C173 C172 1.390 . S
C173 C174 1.392 . S
C174 H146 0.929 . S
C174 C171 1.391 . S
C174 C173 1.392 . S
N175 Co119 2.257 . S
N175 C172 1.391 . S
N175 C176 1.388 . S
C176 H147 0.930 . S
C176 C171 1.391 . S
C176 N175 1.388 . S
Co177 O179 2.143 . S
Co177 O185 2.074 . S
Co177 O188 2.093 . S
Co177 O201 2.097 . S
Co177 N218 2.151 . S
Co177 N226 2.214 . S
Co178 O179 2.160 . S
Co178 O184 2.058 . S
Co178 O194 2.057 . S
Co178 O209 2.037 . S
Co178 N213 2.145 . S
Co178 N234 2.257 . S
O179 Co177 2.143 . S
O179 Co178 2.160 . S
C180 O181 1.278 . S
C180 O188 1.224 . S
O181 C180 1.278 . S
C182 O183 1.245 . S
C182 O194 1.232 . S
O183 C182 1.245 . S
O184 Co178 2.058 . S
O184 C210 1.269 . S
O185 Co177 2.074 . S
O185 C210 1.257 . S
H186 C211 0.930 . S
H187 C217 0.930 . S
O188 Co177 2.093 . S
O188 C180 1.224 . S
H189 C221 0.929 . S
H190 C223 0.930 . S
H191 C224 0.930 . S
H192 C222 0.929 . S
H193 C225 0.928 . S
O194 Co178 2.057 . S
O194 C182 1.232 . S
H195 C214 0.929 . S
H196 C215 0.929 . S
H197 C227 0.931 . S
H198 C219 0.929 . S
H199 C228 0.930 . S
H200 C220 0.931 . S
O201 Co177 2.097 . S
O201 C229 1.214 . S
H202 C230 0.929 . S
H203 C231 0.929 . S
H204 C232 0.930 . S
H205 C233 0.929 . S
H206 C235 0.930 . S
H207 C212 0.930 . S
H208 C216 0.930 . S
O209 Co178 2.037 . S
O209 C229 1.234 . S
C210 O184 1.269 . S
C210 O185 1.257 . S
C211 H186 0.930 . S
C211 C214 1.388 . S
C211 C216 1.418 . S
C212 H207 0.930 . S
C212 C215 1.404 . S
C212 C216 1.353 . S
N213 Co178 2.145 . S
N213 C214 1.397 . S
N213 C215 1.334 . S
C214 H195 0.929 . S
C214 C211 1.388 . S
C214 N213 1.397 . S
C215 H196 0.929 . S
C215 C212 1.404 . S
C215 N213 1.334 . S
C216 H208 0.930 . S
C216 C211 1.418 . S
C216 C212 1.353 . S
C217 H187 0.930 . S
C217 N218 1.330 . S
C217 C219 1.446 . S
N218 Co177 2.151 . S
N218 C217 1.330 . S
N218 C222 1.418 . S
C219 H198 0.929 . S
C219 C217 1.446 . S
C219 C220 1.332 . S
C220 H200 0.931 . S
C220 C219 1.332 . S
C220 C221 1.267 . S
C221 H189 0.929 . S
C221 C220 1.267 . S
C221 C222 1.251 . S
C222 H192 0.929 . S
C222 N218 1.418 . S
C222 C221 1.251 . S
C223 H190 0.930 . S
C223 C225 1.406 . S
C223 C228 1.261 . S
C224 H191 0.930 . S
C224 N226 1.325 . S
C224 C227 1.357 . S
C225 H193 0.928 . S
C225 C223 1.406 . S
C225 N226 1.261 . S
N226 Co177 2.214 . S
N226 C224 1.325 . S
N226 C225 1.261 . S
C227 H197 0.931 . S
C227 C224 1.357 . S
C227 C228 1.312 . S
C228 H199 0.930 . S
C228 C223 1.261 . S
C228 C227 1.312 . S
C229 O201 1.214 . S
C229 O209 1.234 . S
C230 H202 0.929 . S
C230 C233 1.391 . S
C230 C235 1.391 . S
C231 H203 0.929 . S
C231 C232 1.390 . S
C231 N234 1.391 . S
C232 H204 0.930 . S
C232 C231 1.390 . S
C232 C233 1.392 . S
C233 H205 0.929 . S
C233 C230 1.391 . S
C233 C232 1.392 . S
N234 Co178 2.257 . S
N234 C231 1.391 . S
N234 C235 1.388 . S
C235 H206 0.930 . S
C235 C230 1.391 . S
C235 N234 1.388 . S
Co236 O238 2.143 . S
Co236 O244 2.074 . S
Co236 O247 2.093 . S
Co236 O260 2.097 . S
Co236 N277 2.151 . S
Co236 N285 2.214 . S
Co237 O238 2.160 . S
Co237 O243 2.058 . S
Co237 O253 2.057 . S
Co237 O268 2.037 . S
Co237 N272 2.145 . S
Co237 N293 2.257 . S
O238 Co236 2.143 . S
O238 Co237 2.160 . S
C239 O240 1.278 . S
C239 O247 1.224 . S
O240 C239 1.278 . S
C241 O242 1.245 . S
C241 O253 1.232 . S
O242 C241 1.245 . S
O243 Co237 2.058 . S
O243 C269 1.269 . S
O244 Co236 2.074 . S
O244 C269 1.257 . S
H245 C270 0.930 . S
H246 C276 0.930 . S
O247 Co236 2.093 . S
O247 C239 1.224 . S
H248 C280 0.929 . S
H249 C282 0.930 . S
H250 C283 0.930 . S
H251 C281 0.929 . S
H252 C284 0.928 . S
O253 Co237 2.057 . S
O253 C241 1.232 . S
H254 C273 0.929 . S
H255 C274 0.929 . S
H256 C286 0.931 . S
H257 C278 0.929 . S
H258 C287 0.930 . S
H259 C279 0.931 . S
O260 Co236 2.097 . S
O260 C288 1.214 . S
H261 C289 0.929 . S
H262 C290 0.929 . S
H263 C291 0.930 . S
H264 C292 0.929 . S
H265 C294 0.930 . S
H266 C271 0.930 . S
H267 C275 0.930 . S
O268 Co237 2.037 . S
O268 C288 1.234 . S
C269 O243 1.269 . S
C269 O244 1.257 . S
C270 H245 0.930 . S
C270 C273 1.388 . S
C270 C275 1.418 . S
C271 H266 0.930 . S
C271 C274 1.404 . S
C271 C275 1.353 . S
N272 Co237 2.145 . S
N272 C273 1.397 . S
N272 C274 1.334 . S
C273 H254 0.929 . S
C273 C270 1.388 . S
C273 N272 1.397 . S
C274 H255 0.929 . S
C274 C271 1.404 . S
C274 N272 1.334 . S
C275 H267 0.930 . S
C275 C270 1.418 . S
C275 C271 1.353 . S
C276 H246 0.930 . S
C276 N277 1.330 . S
C276 C278 1.446 . S
N277 Co236 2.151 . S
N277 C276 1.330 . S
N277 C281 1.418 . S
C278 H257 0.929 . S
C278 C276 1.446 . S
C278 C279 1.332 . S
C279 H259 0.931 . S
C279 C278 1.332 . S
C279 C280 1.267 . S
C280 H248 0.929 . S
C280 C279 1.267 . S
C280 C281 1.251 . S
C281 H251 0.929 . S
C281 N277 1.418 . S
C281 C280 1.251 . S
C282 H249 0.930 . S
C282 C284 1.406 . S
C282 C287 1.261 . S
C283 H250 0.930 . S
C283 N285 1.325 . S
C283 C286 1.357 . S
C284 H252 0.928 . S
C284 C282 1.406 . S
C284 N285 1.261 . S
N285 Co236 2.214 . S
N285 C283 1.325 . S
N285 C284 1.261 . S
C286 H256 0.931 . S
C286 C283 1.357 . S
C286 C287 1.312 . S
C287 H258 0.930 . S
C287 C282 1.261 . S
C287 C286 1.312 . S
C288 O260 1.214 . S
C288 O268 1.234 . S
C289 H261 0.929 . S
C289 C292 1.391 . S
C289 C294 1.391 . S
C290 H262 0.929 . S
C290 C291 1.390 . S
C290 N293 1.391 . S
C291 H263 0.930 . S
C291 C290 1.390 . S
C291 C292 1.392 . S
C292 H264 0.929 . S
C292 C289 1.391 . S
C292 C291 1.392 . S
N293 Co237 2.257 . S
N293 C290 1.391 . S
N293 C294 1.388 . S
C294 H265 0.930 . S
C294 C289 1.391 . S
C294 N293 1.388 . S
Co295 O297 2.143 . S
Co295 O303 2.074 . S
Co295 O306 2.093 . S
Co295 O319 2.097 . S
Co295 N336 2.151 . S
Co295 N344 2.214 . S
Co296 O297 2.160 . S
Co296 O302 2.058 . S
Co296 O312 2.057 . S
Co296 O327 2.037 . S
Co296 N331 2.145 . S
Co296 N352 2.257 . S
O297 Co295 2.143 . S
O297 Co296 2.160 . S
C298 O299 1.278 . S
C298 O306 1.224 . S
O299 C298 1.278 . S
C300 O301 1.245 . S
C300 O312 1.232 . S
O301 C300 1.245 . S
O302 Co296 2.058 . S
O302 C328 1.269 . S
O303 Co295 2.074 . S
O303 C328 1.257 . S
H304 C329 0.930 . S
H305 C335 0.930 . S
O306 Co295 2.093 . S
O306 C298 1.224 . S
H307 C339 0.929 . S
H308 C341 0.930 . S
H309 C342 0.930 . S
H310 C340 0.929 . S
H311 C343 0.928 . S
O312 Co296 2.057 . S
O312 C300 1.232 . S
H313 C332 0.929 . S
H314 C333 0.929 . S
H315 C345 0.931 . S
H316 C337 0.929 . S
H317 C346 0.930 . S
H318 C338 0.931 . S
O319 Co295 2.097 . S
O319 C347 1.214 . S
H320 C348 0.929 . S
H321 C349 0.929 . S
H322 C350 0.930 . S
H323 C351 0.929 . S
H324 C353 0.930 . S
H325 C330 0.930 . S
H326 C334 0.930 . S
O327 Co296 2.037 . S
O327 C347 1.234 . S
C328 O302 1.269 . S
C328 O303 1.257 . S
C329 H304 0.930 . S
C329 C332 1.388 . S
C329 C334 1.418 . S
C330 H325 0.930 . S
C330 C333 1.404 . S
C330 C334 1.353 . S
N331 Co296 2.145 . S
N331 C332 1.397 . S
N331 C333 1.334 . S
C332 H313 0.929 . S
C332 C329 1.388 . S
C332 N331 1.397 . S
C333 H314 0.929 . S
C333 C330 1.404 . S
C333 N331 1.334 . S
C334 H326 0.930 . S
C334 C329 1.418 . S
C334 C330 1.353 . S
C335 H305 0.930 . S
C335 N336 1.330 . S
C335 C337 1.446 . S
N336 Co295 2.151 . S
N336 C335 1.330 . S
N336 C340 1.418 . S
C337 H316 0.929 . S
C337 C335 1.446 . S
C337 C338 1.332 . S
C338 H318 0.931 . S
C338 C337 1.332 . S
C338 C339 1.267 . S
C339 H307 0.929 . S
C339 C338 1.267 . S
C339 C340 1.251 . S
C340 H310 0.929 . S
C340 N336 1.418 . S
C340 C339 1.251 . S
C341 H308 0.930 . S
C341 C343 1.406 . S
C341 C346 1.261 . S
C342 H309 0.930 . S
C342 N344 1.325 . S
C342 C345 1.357 . S
C343 H311 0.928 . S
C343 C341 1.406 . S
C343 N344 1.261 . S
N344 Co295 2.214 . S
N344 C342 1.325 . S
N344 C343 1.261 . S
C345 H315 0.931 . S
C345 C342 1.357 . S
C345 C346 1.312 . S
C346 H317 0.930 . S
C346 C341 1.261 . S
C346 C345 1.312 . S
C347 O319 1.214 . S
C347 O327 1.234 . S
C348 H320 0.929 . S
C348 C351 1.391 . S
C348 C353 1.391 . S
C349 H321 0.929 . S
C349 C350 1.390 . S
C349 N352 1.391 . S
C350 H322 0.930 . S
C350 C349 1.390 . S
C350 C351 1.392 . S
C351 H323 0.929 . S
C351 C348 1.391 . S
C351 C350 1.392 . S
N352 Co296 2.257 . S
N352 C349 1.391 . S
N352 C353 1.388 . S
C353 H324 0.930 . S
C353 C348 1.391 . S
C353 N352 1.388 . S
Co354 O356 2.143 . S
Co354 O362 2.074 . S
Co354 O365 2.093 . S
Co354 O378 2.097 . S
Co354 N395 2.151 . S
Co354 N403 2.214 . S
Co355 O356 2.160 . S
Co355 O361 2.058 . S
Co355 O371 2.057 . S
Co355 O386 2.037 . S
Co355 N390 2.145 . S
Co355 N411 2.257 . S
O356 Co354 2.143 . S
O356 Co355 2.160 . S
C357 O358 1.278 . S
C357 O365 1.224 . S
O358 C357 1.278 . S
C359 O360 1.245 . S
C359 O371 1.232 . S
O360 C359 1.245 . S
O361 Co355 2.058 . S
O361 C387 1.269 . S
O362 Co354 2.074 . S
O362 C387 1.257 . S
H363 C388 0.930 . S
H364 C394 0.930 . S
O365 Co354 2.093 . S
O365 C357 1.224 . S
H366 C398 0.929 . S
H367 C400 0.930 . S
H368 C401 0.930 . S
H369 C399 0.929 . S
H370 C402 0.928 . S
O371 Co355 2.057 . S
O371 C359 1.232 . S
H372 C391 0.929 . S
H373 C392 0.929 . S
H374 C404 0.931 . S
H375 C396 0.929 . S
H376 C405 0.930 . S
H377 C397 0.931 . S
O378 Co354 2.097 . S
O378 C406 1.214 . S
H379 C407 0.929 . S
H380 C408 0.929 . S
H381 C409 0.930 . S
H382 C410 0.929 . S
H383 C412 0.930 . S
H384 C389 0.930 . S
H385 C393 0.930 . S
O386 Co355 2.037 . S
O386 C406 1.234 . S
C387 O361 1.269 . S
C387 O362 1.257 . S
C388 H363 0.930 . S
C388 C391 1.388 . S
C388 C393 1.418 . S
C389 H384 0.930 . S
C389 C392 1.404 . S
C389 C393 1.353 . S
N390 Co355 2.145 . S
N390 C391 1.397 . S
N390 C392 1.334 . S
C391 H372 0.929 . S
C391 C388 1.388 . S
C391 N390 1.397 . S
C392 H373 0.929 . S
C392 C389 1.404 . S
C392 N390 1.334 . S
C393 H385 0.930 . S
C393 C388 1.418 . S
C393 C389 1.353 . S
C394 H364 0.930 . S
C394 N395 1.330 . S
C394 C396 1.446 . S
N395 Co354 2.151 . S
N395 C394 1.330 . S
N395 C399 1.418 . S
C396 H375 0.929 . S
C396 C394 1.446 . S
C396 C397 1.332 . S
C397 H377 0.931 . S
C397 C396 1.332 . S
C397 C398 1.267 . S
C398 H366 0.929 . S
C398 C397 1.267 . S
C398 C399 1.251 . S
C399 H369 0.929 . S
C399 N395 1.418 . S
C399 C398 1.251 . S
C400 H367 0.930 . S
C400 C402 1.406 . S
C400 C405 1.261 . S
C401 H368 0.930 . S
C401 N403 1.325 . S
C401 C404 1.357 . S
C402 H370 0.928 . S
C402 C400 1.406 . S
C402 N403 1.261 . S
N403 Co354 2.214 . S
N403 C401 1.325 . S
N403 C402 1.261 . S
C404 H374 0.931 . S
C404 C401 1.357 . S
C404 C405 1.312 . S
C405 H376 0.930 . S
C405 C400 1.261 . S
C405 C404 1.312 . S
C406 O378 1.214 . S
C406 O386 1.234 . S
C407 H379 0.929 . S
C407 C410 1.391 . S
C407 C412 1.391 . S
C408 H380 0.929 . S
C408 C409 1.390 . S
C408 N411 1.391 . S
C409 H381 0.930 . S
C409 C408 1.390 . S
C409 C410 1.392 . S
C410 H382 0.929 . S
C410 C407 1.391 . S
C410 C409 1.392 . S
N411 Co355 2.257 . S
N411 C408 1.391 . S
N411 C412 1.388 . S
C412 H383 0.930 . S
C412 C407 1.391 . S
C412 N411 1.388 . S
Co413 O415 2.143 . S
Co413 O421 2.074 . S
Co413 O424 2.093 . S
Co413 O437 2.097 . S
Co413 N454 2.151 . S
Co413 N462 2.214 . S
Co414 O415 2.160 . S
Co414 O420 2.058 . S
Co414 O430 2.057 . S
Co414 O445 2.037 . S
Co414 N449 2.145 . S
Co414 N470 2.257 . S
O415 Co413 2.143 . S
O415 Co414 2.160 . S
C416 O417 1.278 . S
C416 O424 1.224 . S
O417 C416 1.278 . S
C418 O419 1.245 . S
C418 O430 1.232 . S
O419 C418 1.245 . S
O420 Co414 2.058 . S
O420 C446 1.269 . S
O421 Co413 2.074 . S
O421 C446 1.257 . S
H422 C447 0.930 . S
H423 C453 0.930 . S
O424 Co413 2.093 . S
O424 C416 1.224 . S
H425 C457 0.929 . S
H426 C459 0.930 . S
H427 C460 0.930 . S
H428 C458 0.929 . S
H429 C461 0.928 . S
O430 Co414 2.057 . S
O430 C418 1.232 . S
H431 C450 0.929 . S
H432 C451 0.929 . S
H433 C463 0.931 . S
H434 C455 0.929 . S
H435 C464 0.930 . S
H436 C456 0.931 . S
O437 Co413 2.097 . S
O437 C465 1.214 . S
H438 C466 0.929 . S
H439 C467 0.929 . S
H440 C468 0.930 . S
H441 C469 0.929 . S
H442 C471 0.930 . S
H443 C448 0.930 . S
H444 C452 0.930 . S
O445 Co414 2.037 . S
O445 C465 1.234 . S
C446 O420 1.269 . S
C446 O421 1.257 . S
C447 H422 0.930 . S
C447 C450 1.388 . S
C447 C452 1.418 . S
C448 H443 0.930 . S
C448 C451 1.404 . S
C448 C452 1.353 . S
N449 Co414 2.145 . S
N449 C450 1.397 . S
N449 C451 1.334 . S
C450 H431 0.929 . S
C450 C447 1.388 . S
C450 N449 1.397 . S
C451 H432 0.929 . S
C451 C448 1.404 . S
C451 N449 1.334 . S
C452 H444 0.930 . S
C452 C447 1.418 . S
C452 C448 1.353 . S
C453 H423 0.930 . S
C453 N454 1.330 . S
C453 C455 1.446 . S
N454 Co413 2.151 . S
N454 C453 1.330 . S
N454 C458 1.418 . S
C455 H434 0.929 . S
C455 C453 1.446 . S
C455 C456 1.332 . S
C456 H436 0.931 . S
C456 C455 1.332 . S
C456 C457 1.267 . S
C457 H425 0.929 . S
C457 C456 1.267 . S
C457 C458 1.251 . S
C458 H428 0.929 . S
C458 N454 1.418 . S
C458 C457 1.251 . S
C459 H426 0.930 . S
C459 C461 1.406 . S
C459 C464 1.261 . S
C460 H427 0.930 . S
C460 N462 1.325 . S
C460 C463 1.357 . S
C461 H429 0.928 . S
C461 C459 1.406 . S
C461 N462 1.261 . S
N462 Co413 2.214 . S
N462 C460 1.325 . S
N462 C461 1.261 . S
C463 H433 0.931 . S
C463 C460 1.357 . S
C463 C464 1.312 . S
C464 H435 0.930 . S
C464 C459 1.261 . S
C464 C463 1.312 . S
C465 O437 1.214 . S
C465 O445 1.234 . S
C466 H438 0.929 . S
C466 C469 1.391 . S
C466 C471 1.391 . S
C467 H439 0.929 . S
C467 C468 1.390 . S
C467 N470 1.391 . S
C468 H440 0.930 . S
C468 C467 1.390 . S
C468 C469 1.392 . S
C469 H441 0.929 . S
C469 C466 1.391 . S
C469 C468 1.392 . S
N470 Co414 2.257 . S
N470 C467 1.391 . S
N470 C471 1.388 . S
C471 H442 0.930 . S
C471 C466 1.391 . S
C471 N470 1.388 . S
Co472 O474 2.143 . S
Co472 O480 2.074 . S
Co472 O483 2.093 . S
Co472 O496 2.097 . S
Co472 N513 2.151 . S
Co472 N521 2.214 . S
Co473 O474 2.160 . S
Co473 O479 2.058 . S
Co473 O489 2.057 . S
Co473 O504 2.037 . S
Co473 N508 2.145 . S
Co473 N529 2.257 . S
O474 Co472 2.143 . S
O474 Co473 2.160 . S
C475 O476 1.278 . S
C475 O483 1.224 . S
O476 C475 1.278 . S
C477 O478 1.245 . S
C477 O489 1.232 . S
O478 C477 1.245 . S
O479 Co473 2.058 . S
O479 C505 1.269 . S
O480 Co472 2.074 . S
O480 C505 1.257 . S
H481 C506 0.930 . S
H482 C512 0.930 . S
O483 Co472 2.093 . S
O483 C475 1.224 . S
H484 C516 0.929 . S
H485 C518 0.930 . S
H486 C519 0.930 . S
H487 C517 0.929 . S
H488 C520 0.928 . S
O489 Co473 2.057 . S
O489 C477 1.232 . S
H490 C509 0.929 . S
H491 C510 0.929 . S
H492 C522 0.931 . S
H493 C514 0.929 . S
H494 C523 0.930 . S
H495 C515 0.931 . S
O496 Co472 2.097 . S
O496 C524 1.214 . S
H497 C525 0.929 . S
H498 C526 0.929 . S
H499 C527 0.930 . S
H500 C528 0.929 . S
H501 C530 0.930 . S
H502 C507 0.930 . S
H503 C511 0.930 . S
O504 Co473 2.037 . S
O504 C524 1.234 . S
C505 O479 1.269 . S
C505 O480 1.257 . S
C506 H481 0.930 . S
C506 C509 1.388 . S
C506 C511 1.418 . S
C507 H502 0.930 . S
C507 C510 1.404 . S
C507 C511 1.353 . S
N508 Co473 2.145 . S
N508 C509 1.397 . S
N508 C510 1.334 . S
C509 H490 0.929 . S
C509 C506 1.388 . S
C509 N508 1.397 . S
C510 H491 0.929 . S
C510 C507 1.404 . S
C510 N508 1.334 . S
C511 H503 0.930 . S
C511 C506 1.418 . S
C511 C507 1.353 . S
C512 H482 0.930 . S
C512 N513 1.330 . S
C512 C514 1.446 . S
N513 Co472 2.151 . S
N513 C512 1.330 . S
N513 C517 1.418 . S
C514 H493 0.929 . S
C514 C512 1.446 . S
C514 C515 1.332 . S
C515 H495 0.931 . S
C515 C514 1.332 . S
C515 C516 1.267 . S
C516 H484 0.929 . S
C516 C515 1.267 . S
C516 C517 1.251 . S
C517 H487 0.929 . S
C517 N513 1.418 . S
C517 C516 1.251 . S
C518 H485 0.930 . S
C518 C520 1.406 . S
C518 C523 1.261 . S
C519 H486 0.930 . S
C519 N521 1.325 . S
C519 C522 1.357 . S
C520 H488 0.928 . S
C520 C518 1.406 . S
C520 N521 1.261 . S
N521 Co472 2.214 . S
N521 C519 1.325 . S
N521 C520 1.261 . S
C522 H492 0.931 . S
C522 C519 1.357 . S
C522 C523 1.312 . S
C523 H494 0.930 . S
C523 C518 1.261 . S
C523 C522 1.312 . S
C524 O496 1.214 . S
C524 O504 1.234 . S
C525 H497 0.929 . S
C525 C528 1.391 . S
C525 C530 1.391 . S
C526 H498 0.929 . S
C526 C527 1.390 . S
C526 N529 1.391 . S
C527 H499 0.930 . S
C527 C526 1.390 . S
C527 C528 1.392 . S
C528 H500 0.929 . S
C528 C525 1.391 . S
C528 C527 1.392 . S
N529 Co473 2.257 . S
N529 C526 1.391 . S
N529 C530 1.388 . S
C530 H501 0.930 . S
C530 C525 1.391 . S
C530 N529 1.388 . S
Co531 O533 2.143 . S
Co531 O539 2.074 . S
Co531 O542 2.093 . S
Co531 O555 2.097 . S
Co531 N572 2.151 . S
Co531 N580 2.214 . S
Co532 O533 2.160 . S
Co532 O538 2.058 . S
Co532 O548 2.057 . S
Co532 O563 2.037 . S
Co532 N567 2.145 . S
Co532 N588 2.257 . S
O533 Co531 2.143 . S
O533 Co532 2.160 . S
C534 O535 1.278 . S
C534 O542 1.224 . S
O535 C534 1.278 . S
C536 O537 1.245 . S
C536 O548 1.232 . S
O537 C536 1.245 . S
O538 Co532 2.058 . S
O538 C564 1.269 . S
O539 Co531 2.074 . S
O539 C564 1.257 . S
H540 C565 0.930 . S
H541 C571 0.930 . S
O542 Co531 2.093 . S
O542 C534 1.224 . S
H543 C575 0.929 . S
H544 C577 0.930 . S
H545 C578 0.930 . S
H546 C576 0.929 . S
H547 C579 0.928 . S
O548 Co532 2.057 . S
O548 C536 1.232 . S
H549 C568 0.929 . S
H550 C569 0.929 . S
H551 C581 0.931 . S
H552 C573 0.929 . S
H553 C582 0.930 . S
H554 C574 0.931 . S
O555 Co531 2.097 . S
O555 C583 1.214 . S
H556 C584 0.929 . S
H557 C585 0.929 . S
H558 C586 0.930 . S
H559 C587 0.929 . S
H560 C589 0.930 . S
H561 C566 0.930 . S
H562 C570 0.930 . S
O563 Co532 2.037 . S
O563 C583 1.234 . S
C564 O538 1.269 . S
C564 O539 1.257 . S
C565 H540 0.930 . S
C565 C568 1.388 . S
C565 C570 1.418 . S
C566 H561 0.930 . S
C566 C569 1.404 . S
C566 C570 1.353 . S
N567 Co532 2.145 . S
N567 C568 1.397 . S
N567 C569 1.334 . S
C568 H549 0.929 . S
C568 C565 1.388 . S
C568 N567 1.397 . S
C569 H550 0.929 . S
C569 C566 1.404 . S
C569 N567 1.334 . S
C570 H562 0.930 . S
C570 C565 1.418 . S
C570 C566 1.353 . S
C571 H541 0.930 . S
C571 N572 1.330 . S
C571 C573 1.446 . S
N572 Co531 2.151 . S
N572 C571 1.330 . S
N572 C576 1.418 . S
C573 H552 0.929 . S
C573 C571 1.446 . S
C573 C574 1.332 . S
C574 H554 0.931 . S
C574 C573 1.332 . S
C574 C575 1.267 . S
C575 H543 0.929 . S
C575 C574 1.267 . S
C575 C576 1.251 . S
C576 H546 0.929 . S
C576 N572 1.418 . S
C576 C575 1.251 . S
C577 H544 0.930 . S
C577 C579 1.406 . S
C577 C582 1.261 . S
C578 H545 0.930 . S
C578 N580 1.325 . S
C578 C581 1.357 . S
C579 H547 0.928 . S
C579 C577 1.406 . S
C579 N580 1.261 . S
N580 Co531 2.214 . S
N580 C578 1.325 . S
N580 C579 1.261 . S
C581 H551 0.931 . S
C581 C578 1.357 . S
C581 C582 1.312 . S
C582 H553 0.930 . S
C582 C577 1.261 . S
C582 C581 1.312 . S
C583 O555 1.214 . S
C583 O563 1.234 . S
C584 H556 0.929 . S
C584 C587 1.391 . S
C584 C589 1.391 . S
C585 H557 0.929 . S
C585 C586 1.390 . S
C585 N588 1.391 . S
C586 H558 0.930 . S
C586 C585 1.390 . S
C586 C587 1.392 . S
C587 H559 0.929 . S
C587 C584 1.391 . S
C587 C586 1.392 . S
N588 Co532 2.257 . S
N588 C585 1.391 . S
N588 C589 1.388 . S
C589 H560 0.930 . S
C589 C584 1.391 . S
C589 N588 1.388 . S
Co590 O592 2.143 . S
Co590 O598 2.074 . S
Co590 O601 2.093 . S
Co590 O614 2.097 . S
Co590 N631 2.151 . S
Co590 N639 2.214 . S
Co591 O592 2.160 . S
Co591 O597 2.058 . S
Co591 O607 2.057 . S
Co591 O622 2.037 . S
Co591 N626 2.145 . S
Co591 N647 2.257 . S
O592 Co590 2.143 . S
O592 Co591 2.160 . S
C593 O594 1.278 . S
C593 O601 1.224 . S
O594 C593 1.278 . S
C595 O596 1.245 . S
C595 O607 1.232 . S
O596 C595 1.245 . S
O597 Co591 2.058 . S
O597 C623 1.269 . S
O598 Co590 2.074 . S
O598 C623 1.257 . S
H599 C624 0.930 . S
H600 C630 0.930 . S
O601 Co590 2.093 . S
O601 C593 1.224 . S
H602 C634 0.929 . S
H603 C636 0.930 . S
H604 C637 0.930 . S
H605 C635 0.929 . S
H606 C638 0.928 . S
O607 Co591 2.057 . S
O607 C595 1.232 . S
H608 C627 0.929 . S
H609 C628 0.929 . S
H610 C640 0.931 . S
H611 C632 0.929 . S
H612 C641 0.930 . S
H613 C633 0.931 . S
O614 Co590 2.097 . S
O614 C642 1.214 . S
H615 C643 0.929 . S
H616 C644 0.929 . S
H617 C645 0.930 . S
H618 C646 0.929 . S
H619 C648 0.930 . S
H620 C625 0.930 . S
H621 C629 0.930 . S
O622 Co591 2.037 . S
O622 C642 1.234 . S
C623 O597 1.269 . S
C623 O598 1.257 . S
C624 H599 0.930 . S
C624 C627 1.388 . S
C624 C629 1.418 . S
C625 H620 0.930 . S
C625 C628 1.404 . S
C625 C629 1.353 . S
N626 Co591 2.145 . S
N626 C627 1.397 . S
N626 C628 1.334 . S
C627 H608 0.929 . S
C627 C624 1.388 . S
C627 N626 1.397 . S
C628 H609 0.929 . S
C628 C625 1.404 . S
C628 N626 1.334 . S
C629 H621 0.930 . S
C629 C624 1.418 . S
C629 C625 1.353 . S
C630 H600 0.930 . S
C630 N631 1.330 . S
C630 C632 1.446 . S
N631 Co590 2.151 . S
N631 C630 1.330 . S
N631 C635 1.418 . S
C632 H611 0.929 . S
C632 C630 1.446 . S
C632 C633 1.332 . S
C633 H613 0.931 . S
C633 C632 1.332 . S
C633 C634 1.267 . S
C634 H602 0.929 . S
C634 C633 1.267 . S
C634 C635 1.251 . S
C635 H605 0.929 . S
C635 N631 1.418 . S
C635 C634 1.251 . S
C636 H603 0.930 . S
C636 C638 1.406 . S
C636 C641 1.261 . S
C637 H604 0.930 . S
C637 N639 1.325 . S
C637 C640 1.357 . S
C638 H606 0.928 . S
C638 C636 1.406 . S
C638 N639 1.261 . S
N639 Co590 2.214 . S
N639 C637 1.325 . S
N639 C638 1.261 . S
C640 H610 0.931 . S
C640 C637 1.357 . S
C640 C641 1.312 . S
C641 H612 0.930 . S
C641 C636 1.261 . S
C641 C640 1.312 . S
C642 O614 1.214 . S
C642 O622 1.234 . S
C643 H615 0.929 . S
C643 C646 1.391 . S
C643 C648 1.391 . S
C644 H616 0.929 . S
C644 C645 1.390 . S
C644 N647 1.391 . S
C645 H617 0.930 . S
C645 C644 1.390 . S
C645 C646 1.392 . S
C646 H618 0.929 . S
C646 C643 1.391 . S
C646 C645 1.392 . S
N647 Co591 2.257 . S
N647 C644 1.391 . S
N647 C648 1.388 . S
C648 H619 0.930 . S
C648 C643 1.391 . S
C648 N647 1.388 . S
Co649 O651 2.143 . S
Co649 O657 2.074 . S
Co649 O660 2.093 . S
Co649 O673 2.097 . S
Co649 N690 2.151 . S
Co649 N698 2.214 . S
Co650 O651 2.160 . S
Co650 O656 2.058 . S
Co650 O666 2.057 . S
Co650 O681 2.037 . S
Co650 N685 2.145 . S
Co650 N706 2.257 . S
O651 Co649 2.143 . S
O651 Co650 2.160 . S
C652 O653 1.278 . S
C652 O660 1.224 . S
O653 C652 1.278 . S
C654 O655 1.245 . S
C654 O666 1.232 . S
O655 C654 1.245 . S
O656 Co650 2.058 . S
O656 C682 1.269 . S
O657 Co649 2.074 . S
O657 C682 1.257 . S
H658 C683 0.930 . S
H659 C689 0.930 . S
O660 Co649 2.093 . S
O660 C652 1.224 . S
H661 C693 0.929 . S
H662 C695 0.930 . S
H663 C696 0.930 . S
H664 C694 0.929 . S
H665 C697 0.928 . S
O666 Co650 2.057 . S
O666 C654 1.232 . S
H667 C686 0.929 . S
H668 C687 0.929 . S
H669 C699 0.931 . S
H670 C691 0.929 . S
H671 C700 0.930 . S
H672 C692 0.931 . S
O673 Co649 2.097 . S
O673 C701 1.214 . S
H674 C702 0.929 . S
H675 C703 0.929 . S
H676 C704 0.930 . S
H677 C705 0.929 . S
H678 C707 0.930 . S
H679 C684 0.930 . S
H680 C688 0.930 . S
O681 Co650 2.037 . S
O681 C701 1.234 . S
C682 O656 1.269 . S
C682 O657 1.257 . S
C683 H658 0.930 . S
C683 C686 1.388 . S
C683 C688 1.418 . S
C684 H679 0.930 . S
C684 C687 1.404 . S
C684 C688 1.353 . S
N685 Co650 2.145 . S
N685 C686 1.397 . S
N685 C687 1.334 . S
C686 H667 0.929 . S
C686 C683 1.388 . S
C686 N685 1.397 . S
C687 H668 0.929 . S
C687 C684 1.404 . S
C687 N685 1.334 . S
C688 H680 0.930 . S
C688 C683 1.418 . S
C688 C684 1.353 . S
C689 H659 0.930 . S
C689 N690 1.330 . S
C689 C691 1.446 . S
N690 Co649 2.151 . S
N690 C689 1.330 . S
N690 C694 1.418 . S
C691 H670 0.929 . S
C691 C689 1.446 . S
C691 C692 1.332 . S
C692 H672 0.931 . S
C692 C691 1.332 . S
C692 C693 1.267 . S
C693 H661 0.929 . S
C693 C692 1.267 . S
C693 C694 1.251 . S
C694 H664 0.929 . S
C694 N690 1.418 . S
C694 C693 1.251 . S
C695 H662 0.930 . S
C695 C697 1.406 . S
C695 C700 1.261 . S
C696 H663 0.930 . S
C696 N698 1.325 . S
C696 C699 1.357 . S
C697 H665 0.928 . S
C697 C695 1.406 . S
C697 N698 1.261 . S
N698 Co649 2.214 . S
N698 C696 1.325 . S
N698 C697 1.261 . S
C699 H669 0.931 . S
C699 C696 1.357 . S
C699 C700 1.312 . S
C700 H671 0.930 . S
C700 C695 1.261 . S
C700 C699 1.312 . S
C701 O673 1.214 . S
C701 O681 1.234 . S
C702 H674 0.929 . S
C702 C705 1.391 . S
C702 C707 1.391 . S
C703 H675 0.929 . S
C703 C704 1.390 . S
C703 N706 1.391 . S
C704 H676 0.930 . S
C704 C703 1.390 . S
C704 C705 1.392 . S
C705 H677 0.929 . S
C705 C702 1.391 . S
C705 C704 1.392 . S
N706 Co650 2.257 . S
N706 C703 1.391 . S
N706 C707 1.388 . S
C707 H678 0.930 . S
C707 C702 1.391 . S
C707 N706 1.388 . S
Co708 O710 2.143 . S
Co708 O716 2.074 . S
Co708 O719 2.093 . S
Co708 O732 2.097 . S
Co708 N749 2.151 . S
Co708 N757 2.214 . S
Co709 O710 2.160 . S
Co709 O715 2.058 . S
Co709 O725 2.057 . S
Co709 O740 2.037 . S
Co709 N744 2.145 . S
Co709 N765 2.257 . S
O710 Co708 2.143 . S
O710 Co709 2.160 . S
C711 O712 1.278 . S
C711 O719 1.224 . S
O712 C711 1.278 . S
C713 O714 1.245 . S
C713 O725 1.232 . S
O714 C713 1.245 . S
O715 Co709 2.058 . S
O715 C741 1.269 . S
O716 Co708 2.074 . S
O716 C741 1.257 . S
H717 C742 0.930 . S
H718 C748 0.930 . S
O719 Co708 2.093 . S
O719 C711 1.224 . S
H720 C752 0.929 . S
H721 C754 0.930 . S
H722 C755 0.930 . S
H723 C753 0.929 . S
H724 C756 0.928 . S
O725 Co709 2.057 . S
O725 C713 1.232 . S
H726 C745 0.929 . S
H727 C746 0.929 . S
H728 C758 0.931 . S
H729 C750 0.929 . S
H730 C759 0.930 . S
H731 C751 0.931 . S
O732 Co708 2.097 . S
O732 C760 1.214 . S
H733 C761 0.929 . S
H734 C762 0.929 . S
H735 C763 0.930 . S
H736 C764 0.929 . S
H737 C766 0.930 . S
H738 C743 0.930 . S
H739 C747 0.930 . S
O740 Co709 2.037 . S
O740 C760 1.234 . S
C741 O715 1.269 . S
C741 O716 1.257 . S
C742 H717 0.930 . S
C742 C745 1.388 . S
C742 C747 1.418 . S
C743 H738 0.930 . S
C743 C746 1.404 . S
C743 C747 1.353 . S
N744 Co709 2.145 . S
N744 C745 1.397 . S
N744 C746 1.334 . S
C745 H726 0.929 . S
C745 C742 1.388 . S
C745 N744 1.397 . S
C746 H727 0.929 . S
C746 C743 1.404 . S
C746 N744 1.334 . S
C747 H739 0.930 . S
C747 C742 1.418 . S
C747 C743 1.353 . S
C748 H718 0.930 . S
C748 N749 1.330 . S
C748 C750 1.446 . S
N749 Co708 2.151 . S
N749 C748 1.330 . S
N749 C753 1.418 . S
C750 H729 0.929 . S
C750 C748 1.446 . S
C750 C751 1.332 . S
C751 H731 0.931 . S
C751 C750 1.332 . S
C751 C752 1.267 . S
C752 H720 0.929 . S
C752 C751 1.267 . S
C752 C753 1.251 . S
C753 H723 0.929 . S
C753 N749 1.418 . S
C753 C752 1.251 . S
C754 H721 0.930 . S
C754 C756 1.406 . S
C754 C759 1.261 . S
C755 H722 0.930 . S
C755 N757 1.325 . S
C755 C758 1.357 . S
C756 H724 0.928 . S
C756 C754 1.406 . S
C756 N757 1.261 . S
N757 Co708 2.214 . S
N757 C755 1.325 . S
N757 C756 1.261 . S
C758 H728 0.931 . S
C758 C755 1.357 . S
C758 C759 1.312 . S
C759 H730 0.930 . S
C759 C754 1.261 . S
C759 C758 1.312 . S
C760 O732 1.214 . S
C760 O740 1.234 . S
C761 H733 0.929 . S
C761 C764 1.391 . S
C761 C766 1.391 . S
C762 H734 0.929 . S
C762 C763 1.390 . S
C762 N765 1.391 . S
C763 H735 0.930 . S
C763 C762 1.390 . S
C763 C764 1.392 . S
C764 H736 0.929 . S
C764 C761 1.391 . S
C764 C763 1.392 . S
N765 Co709 2.257 . S
N765 C762 1.391 . S
N765 C766 1.388 . S
C766 H737 0.930 . S
C766 C761 1.391 . S
C766 N765 1.388 . S
Co767 O769 2.143 . S
Co767 O775 2.074 . S
Co767 O778 2.093 . S
Co767 O791 2.097 . S
Co767 N808 2.151 . S
Co767 N816 2.214 . S
Co768 O769 2.160 . S
Co768 O774 2.058 . S
Co768 O784 2.057 . S
Co768 O799 2.037 . S
Co768 N803 2.145 . S
Co768 N824 2.257 . S
O769 Co767 2.143 . S
O769 Co768 2.160 . S
C770 O771 1.278 . S
C770 O778 1.224 . S
O771 C770 1.278 . S
C772 O773 1.245 . S
C772 O784 1.232 . S
O773 C772 1.245 . S
O774 Co768 2.058 . S
O774 C800 1.269 . S
O775 Co767 2.074 . S
O775 C800 1.257 . S
H776 C801 0.930 . S
H777 C807 0.930 . S
O778 Co767 2.093 . S
O778 C770 1.224 . S
H779 C811 0.929 . S
H780 C813 0.930 . S
H781 C814 0.930 . S
H782 C812 0.929 . S
H783 C815 0.928 . S
O784 Co768 2.057 . S
O784 C772 1.232 . S
H785 C804 0.929 . S
H786 C805 0.929 . S
H787 C817 0.931 . S
H788 C809 0.929 . S
H789 C818 0.930 . S
H790 C810 0.931 . S
O791 Co767 2.097 . S
O791 C819 1.214 . S
H792 C820 0.929 . S
H793 C821 0.929 . S
H794 C822 0.930 . S
H795 C823 0.929 . S
H796 C825 0.930 . S
H797 C802 0.930 . S
H798 C806 0.930 . S
O799 Co768 2.037 . S
O799 C819 1.234 . S
C800 O774 1.269 . S
C800 O775 1.257 . S
C801 H776 0.930 . S
C801 C804 1.388 . S
C801 C806 1.418 . S
C802 H797 0.930 . S
C802 C805 1.404 . S
C802 C806 1.353 . S
N803 Co768 2.145 . S
N803 C804 1.397 . S
N803 C805 1.334 . S
C804 H785 0.929 . S
C804 C801 1.388 . S
C804 N803 1.397 . S
C805 H786 0.929 . S
C805 C802 1.404 . S
C805 N803 1.334 . S
C806 H798 0.930 . S
C806 C801 1.418 . S
C806 C802 1.353 . S
C807 H777 0.930 . S
C807 N808 1.330 . S
C807 C809 1.446 . S
N808 Co767 2.151 . S
N808 C807 1.330 . S
N808 C812 1.418 . S
C809 H788 0.929 . S
C809 C807 1.446 . S
C809 C810 1.332 . S
C810 H790 0.931 . S
C810 C809 1.332 . S
C810 C811 1.267 . S
C811 H779 0.929 . S
C811 C810 1.267 . S
C811 C812 1.251 . S
C812 H782 0.929 . S
C812 N808 1.418 . S
C812 C811 1.251 . S
C813 H780 0.930 . S
C813 C815 1.406 . S
C813 C818 1.261 . S
C814 H781 0.930 . S
C814 N816 1.325 . S
C814 C817 1.357 . S
C815 H783 0.928 . S
C815 C813 1.406 . S
C815 N816 1.261 . S
N816 Co767 2.214 . S
N816 C814 1.325 . S
N816 C815 1.261 . S
C817 H787 0.931 . S
C817 C814 1.357 . S
C817 C818 1.312 . S
C818 H789 0.930 . S
C818 C813 1.261 . S
C818 C817 1.312 . S
C819 O791 1.214 . S
C819 O799 1.234 . S
C820 H792 0.929 . S
C820 C823 1.391 . S
C820 C825 1.391 . S
C821 H793 0.929 . S
C821 C822 1.390 . S
C821 N824 1.391 . S
C822 H794 0.930 . S
C822 C821 1.390 . S
C822 C823 1.392 . S
C823 H795 0.929 . S
C823 C820 1.391 . S
C823 C822 1.392 . S
N824 Co768 2.257 . S
N824 C821 1.391 . S
N824 C825 1.388 . S
C825 H796 0.930 . S
C825 C820 1.391 . S
C825 N824 1.388 . S
Co826 O828 2.143 . S
Co826 O834 2.074 . S
Co826 O837 2.093 . S
Co826 O850 2.097 . S
Co826 N867 2.151 . S
Co826 N875 2.214 . S
Co827 O828 2.160 . S
Co827 O833 2.058 . S
Co827 O843 2.057 . S
Co827 O858 2.037 . S
Co827 N862 2.145 . S
Co827 N883 2.257 . S
O828 Co826 2.143 . S
O828 Co827 2.160 . S
C829 O830 1.278 . S
C829 O837 1.224 . S
O830 C829 1.278 . S
C831 O832 1.245 . S
C831 O843 1.232 . S
O832 C831 1.245 . S
O833 Co827 2.058 . S
O833 C859 1.269 . S
O834 Co826 2.074 . S
O834 C859 1.257 . S
H835 C860 0.930 . S
H836 C866 0.930 . S
O837 Co826 2.093 . S
O837 C829 1.224 . S
H838 C870 0.929 . S
H839 C872 0.930 . S
H840 C873 0.930 . S
H841 C871 0.929 . S
H842 C874 0.928 . S
O843 Co827 2.057 . S
O843 C831 1.232 . S
H844 C863 0.929 . S
H845 C864 0.929 . S
H846 C876 0.931 . S
H847 C868 0.929 . S
H848 C877 0.930 . S
H849 C869 0.931 . S
O850 Co826 2.097 . S
O850 C878 1.214 . S
H851 C879 0.929 . S
H852 C880 0.929 . S
H853 C881 0.930 . S
H854 C882 0.929 . S
H855 C884 0.930 . S
H856 C861 0.930 . S
H857 C865 0.930 . S
O858 Co827 2.037 . S
O858 C878 1.234 . S
C859 O833 1.269 . S
C859 O834 1.257 . S
C860 H835 0.930 . S
C860 C863 1.388 . S
C860 C865 1.418 . S
C861 H856 0.930 . S
C861 C864 1.404 . S
C861 C865 1.353 . S
N862 Co827 2.145 . S
N862 C863 1.397 . S
N862 C864 1.334 . S
C863 H844 0.929 . S
C863 C860 1.388 . S
C863 N862 1.397 . S
C864 H845 0.929 . S
C864 C861 1.404 . S
C864 N862 1.334 . S
C865 H857 0.930 . S
C865 C860 1.418 . S
C865 C861 1.353 . S
C866 H836 0.930 . S
C866 N867 1.330 . S
C866 C868 1.446 . S
N867 Co826 2.151 . S
N867 C866 1.330 . S
N867 C871 1.418 . S
C868 H847 0.929 . S
C868 C866 1.446 . S
C868 C869 1.332 . S
C869 H849 0.931 . S
C869 C868 1.332 . S
C869 C870 1.267 . S
C870 H838 0.929 . S
C870 C869 1.267 . S
C870 C871 1.251 . S
C871 H841 0.929 . S
C871 N867 1.418 . S
C871 C870 1.251 . S
C872 H839 0.930 . S
C872 C874 1.406 . S
C872 C877 1.261 . S
C873 H840 0.930 . S
C873 N875 1.325 . S
C873 C876 1.357 . S
C874 H842 0.928 . S
C874 C872 1.406 . S
C874 N875 1.261 . S
N875 Co826 2.214 . S
N875 C873 1.325 . S
N875 C874 1.261 . S
C876 H846 0.931 . S
C876 C873 1.357 . S
C876 C877 1.312 . S
C877 H848 0.930 . S
C877 C872 1.261 . S
C877 C876 1.312 . S
C878 O850 1.214 . S
C878 O858 1.234 . S
C879 H851 0.929 . S
C879 C882 1.391 . S
C879 C884 1.391 . S
C880 H852 0.929 . S
C880 C881 1.390 . S
C880 N883 1.391 . S
C881 H853 0.930 . S
C881 C880 1.390 . S
C881 C882 1.392 . S
C882 H854 0.929 . S
C882 C879 1.391 . S
C882 C881 1.392 . S
N883 Co827 2.257 . S
N883 C880 1.391 . S
N883 C884 1.388 . S
C884 H855 0.930 . S
C884 C879 1.391 . S
C884 N883 1.388 . S
Co885 O887 2.143 . S
Co885 O893 2.074 . S
Co885 O896 2.093 . S
Co885 O909 2.097 . S
Co885 N926 2.151 . S
Co885 N934 2.214 . S
Co886 O887 2.160 . S
Co886 O892 2.058 . S
Co886 O902 2.057 . S
Co886 O917 2.037 . S
Co886 N921 2.145 . S
Co886 N942 2.257 . S
O887 Co885 2.143 . S
O887 Co886 2.160 . S
C888 O889 1.278 . S
C888 O896 1.224 . S
O889 C888 1.278 . S
C890 O891 1.245 . S
C890 O902 1.232 . S
O891 C890 1.245 . S
O892 Co886 2.058 . S
O892 C918 1.269 . S
O893 Co885 2.074 . S
O893 C918 1.257 . S
H894 C919 0.930 . S
H895 C925 0.930 . S
O896 Co885 2.093 . S
O896 C888 1.224 . S
H897 C929 0.929 . S
H898 C931 0.930 . S
H899 C932 0.930 . S
H900 C930 0.929 . S
H901 C933 0.928 . S
O902 Co886 2.057 . S
O902 C890 1.232 . S
H903 C922 0.929 . S
H904 C923 0.929 . S
H905 C935 0.931 . S
H906 C927 0.929 . S
H907 C936 0.930 . S
H908 C928 0.931 . S
O909 Co885 2.097 . S
O909 C937 1.214 . S
H910 C938 0.929 . S
H911 C939 0.929 . S
H912 C940 0.930 . S
H913 C941 0.929 . S
H914 C943 0.930 . S
H915 C920 0.930 . S
H916 C924 0.930 . S
O917 Co886 2.037 . S
O917 C937 1.234 . S
C918 O892 1.269 . S
C918 O893 1.257 . S
C919 H894 0.930 . S
C919 C922 1.388 . S
C919 C924 1.418 . S
C920 H915 0.930 . S
C920 C923 1.404 . S
C920 C924 1.353 . S
N921 Co886 2.145 . S
N921 C922 1.397 . S
N921 C923 1.334 . S
C922 H903 0.929 . S
C922 C919 1.388 . S
C922 N921 1.397 . S
C923 H904 0.929 . S
C923 C920 1.404 . S
C923 N921 1.334 . S
C924 H916 0.930 . S
C924 C919 1.418 . S
C924 C920 1.353 . S
C925 H895 0.930 . S
C925 N926 1.330 . S
C925 C927 1.446 . S
N926 Co885 2.151 . S
N926 C925 1.330 . S
N926 C930 1.418 . S
C927 H906 0.929 . S
C927 C925 1.446 . S
C927 C928 1.332 . S
C928 H908 0.931 . S
C928 C927 1.332 . S
C928 C929 1.267 . S
C929 H897 0.929 . S
C929 C928 1.267 . S
C929 C930 1.251 . S
C930 H900 0.929 . S
C930 N926 1.418 . S
C930 C929 1.251 . S
C931 H898 0.930 . S
C931 C933 1.406 . S
C931 C936 1.261 . S
C932 H899 0.930 . S
C932 N934 1.325 . S
C932 C935 1.357 . S
C933 H901 0.928 . S
C933 C931 1.406 . S
C933 N934 1.261 . S
N934 Co885 2.214 . S
N934 C932 1.325 . S
N934 C933 1.261 . S
C935 H905 0.931 . S
C935 C932 1.357 . S
C935 C936 1.312 . S
C936 H907 0.930 . S
C936 C931 1.261 . S
C936 C935 1.312 . S
C937 O909 1.214 . S
C937 O917 1.234 . S
C938 H910 0.929 . S
C938 C941 1.391 . S
C938 C943 1.391 . S
C939 H911 0.929 . S
C939 C940 1.390 . S
C939 N942 1.391 . S
C940 H912 0.930 . S
C940 C939 1.390 . S
C940 C941 1.392 . S
C941 H913 0.929 . S
C941 C938 1.391 . S
C941 C940 1.392 . S
N942 Co886 2.257 . S
N942 C939 1.391 . S
N942 C943 1.388 . S
C943 H914 0.930 . S
C943 C938 1.391 . S
C943 N942 1.388 . S
Co944 O946 2.143 . S
Co944 O952 2.074 . S
Co944 O955 2.093 . S
Co944 O968 2.097 . S
Co944 N985 2.151 . S
Co944 N993 2.214 . S
Co945 O946 2.160 . S
Co945 O951 2.058 . S
Co945 O961 2.057 . S
Co945 O976 2.037 . S
Co945 N980 2.145 . S
Co945 N1001 2.257 . S
O946 Co944 2.143 . S
O946 Co945 2.160 . S
C947 O948 1.278 . S
C947 O955 1.224 . S
O948 C947 1.278 . S
C949 O950 1.245 . S
C949 O961 1.232 . S
O950 C949 1.245 . S
O951 Co945 2.058 . S
O951 C977 1.269 . S
O952 Co944 2.074 . S
O952 C977 1.257 . S
H953 C978 0.930 . S
H954 C984 0.930 . S
O955 Co944 2.093 . S
O955 C947 1.224 . S
H956 C988 0.929 . S
H957 C990 0.930 . S
H958 C991 0.930 . S
H959 C989 0.929 . S
H960 C992 0.928 . S
O961 Co945 2.057 . S
O961 C949 1.232 . S
H962 C981 0.929 . S
H963 C982 0.929 . S
H964 C994 0.931 . S
H965 C986 0.929 . S
H966 C995 0.930 . S
H967 C987 0.931 . S
O968 Co944 2.097 . S
O968 C996 1.214 . S
H969 C997 0.929 . S
H970 C998 0.929 . S
H971 C999 0.930 . S
H972 C1000 0.929 . S
H973 C1002 0.930 . S
H974 C979 0.930 . S
H975 C983 0.930 . S
O976 Co945 2.037 . S
O976 C996 1.234 . S
C977 O951 1.269 . S
C977 O952 1.257 . S
C978 H953 0.930 . S
C978 C981 1.388 . S
C978 C983 1.418 . S
C979 H974 0.930 . S
C979 C982 1.404 . S
C979 C983 1.353 . S
N980 Co945 2.145 . S
N980 C981 1.397 . S
N980 C982 1.334 . S
C981 H962 0.929 . S
C981 C978 1.388 . S
C981 N980 1.397 . S
C982 H963 0.929 . S
C982 C979 1.404 . S
C982 N980 1.334 . S
C983 H975 0.930 . S
C983 C978 1.418 . S
C983 C979 1.353 . S
C984 H954 0.930 . S
C984 N985 1.330 . S
C984 C986 1.446 . S
N985 Co944 2.151 . S
N985 C984 1.330 . S
N985 C989 1.418 . S
C986 H965 0.929 . S
C986 C984 1.446 . S
C986 C987 1.332 . S
C987 H967 0.931 . S
C987 C986 1.332 . S
C987 C988 1.267 . S
C988 H956 0.929 . S
C988 C987 1.267 . S
C988 C989 1.251 . S
C989 H959 0.929 . S
C989 N985 1.418 . S
C989 C988 1.251 . S
C990 H957 0.930 . S
C990 C992 1.406 . S
C990 C995 1.261 . S
C991 H958 0.930 . S
C991 N993 1.325 . S
C991 C994 1.357 . S
C992 H960 0.928 . S
C992 C990 1.406 . S
C992 N993 1.261 . S
N993 Co944 2.214 . S
N993 C991 1.325 . S
N993 C992 1.261 . S
C994 H964 0.931 . S
C994 C991 1.357 . S
C994 C995 1.312 . S
C995 H966 0.930 . S
C995 C990 1.261 . S
C995 C994 1.312 . S
C996 O968 1.214 . S
C996 O976 1.234 . S
C997 H969 0.929 . S
C997 C1000 1.391 . S
C997 C1002 1.391 . S
C998 H970 0.929 . S
C998 C999 1.390 . S
C998 N1001 1.391 . S
C999 H971 0.930 . S
C999 C998 1.390 . S
C999 C1000 1.392 . S
C1000 H972 0.929 . S
C1000 C997 1.391 . S
C1000 C999 1.392 . S
N1001 Co945 2.257 . S
N1001 C998 1.391 . S
N1001 C1002 1.388 . S
C1002 H973 0.930 . S
C1002 C997 1.391 . S
C1002 N1001 1.388 . S
Co1003 O1005 2.143 . S
Co1003 O1011 2.074 . S
Co1003 O1014 2.093 . S
Co1003 O1027 2.097 . S
Co1003 N1044 2.151 . S
Co1003 N1052 2.214 . S
Co1004 O1005 2.160 . S
Co1004 O1010 2.058 . S
Co1004 O1020 2.057 . S
Co1004 O1035 2.037 . S
Co1004 N1039 2.145 . S
Co1004 N1060 2.257 . S
O1005 Co1003 2.143 . S
O1005 Co1004 2.160 . S
C1006 O1007 1.278 . S
C1006 O1014 1.224 . S
O1007 C1006 1.278 . S
C1008 O1009 1.245 . S
C1008 O1020 1.232 . S
O1009 C1008 1.245 . S
O1010 Co1004 2.058 . S
O1010 C1036 1.269 . S
O1011 Co1003 2.074 . S
O1011 C1036 1.257 . S
H1012 C1037 0.930 . S
H1013 C1043 0.930 . S
O1014 Co1003 2.093 . S
O1014 C1006 1.224 . S
H1015 C1047 0.929 . S
H1016 C1049 0.930 . S
H1017 C1050 0.930 . S
H1018 C1048 0.929 . S
H1019 C1051 0.928 . S
O1020 Co1004 2.057 . S
O1020 C1008 1.232 . S
H1021 C1040 0.929 . S
H1022 C1041 0.929 . S
H1023 C1053 0.931 . S
H1024 C1045 0.929 . S
H1025 C1054 0.930 . S
H1026 C1046 0.931 . S
O1027 Co1003 2.097 . S
O1027 C1055 1.214 . S
H1028 C1056 0.929 . S
H1029 C1057 0.929 . S
H1030 C1058 0.930 . S
H1031 C1059 0.929 . S
H1032 C1061 0.930 . S
H1033 C1038 0.930 . S
H1034 C1042 0.930 . S
O1035 Co1004 2.037 . S
O1035 C1055 1.234 . S
C1036 O1010 1.269 . S
C1036 O1011 1.257 . S
C1037 H1012 0.930 . S
C1037 C1040 1.388 . S
C1037 C1042 1.418 . S
C1038 H1033 0.930 . S
C1038 C1041 1.404 . S
C1038 C1042 1.353 . S
N1039 Co1004 2.145 . S
N1039 C1040 1.397 . S
N1039 C1041 1.334 . S
C1040 H1021 0.929 . S
C1040 C1037 1.388 . S
C1040 N1039 1.397 . S
C1041 H1022 0.929 . S
C1041 C1038 1.404 . S
C1041 N1039 1.334 . S
C1042 H1034 0.930 . S
C1042 C1037 1.418 . S
C1042 C1038 1.353 . S
C1043 H1013 0.930 . S
C1043 N1044 1.330 . S
C1043 C1045 1.446 . S
N1044 Co1003 2.151 . S
N1044 C1043 1.330 . S
N1044 C1048 1.418 . S
C1045 H1024 0.929 . S
C1045 C1043 1.446 . S
C1045 C1046 1.332 . S
C1046 H1026 0.931 . S
C1046 C1045 1.332 . S
C1046 C1047 1.267 . S
C1047 H1015 0.929 . S
C1047 C1046 1.267 . S
C1047 C1048 1.251 . S
C1048 H1018 0.929 . S
C1048 N1044 1.418 . S
C1048 C1047 1.251 . S
C1049 H1016 0.930 . S
C1049 C1051 1.406 . S
C1049 C1054 1.261 . S
C1050 H1017 0.930 . S
C1050 N1052 1.325 . S
C1050 C1053 1.357 . S
C1051 H1019 0.928 . S
C1051 C1049 1.406 . S
C1051 N1052 1.261 . S
N1052 Co1003 2.214 . S
N1052 C1050 1.325 . S
N1052 C1051 1.261 . S
C1053 H1023 0.931 . S
C1053 C1050 1.357 . S
C1053 C1054 1.312 . S
C1054 H1025 0.930 . S
C1054 C1049 1.261 . S
C1054 C1053 1.312 . S
C1055 O1027 1.214 . S
C1055 O1035 1.234 . S
C1056 H1028 0.929 . S
C1056 C1059 1.391 . S
C1056 C1061 1.391 . S
C1057 H1029 0.929 . S
C1057 C1058 1.390 . S
C1057 N1060 1.391 . S
C1058 H1030 0.930 . S
C1058 C1057 1.390 . S
C1058 C1059 1.392 . S
C1059 H1031 0.929 . S
C1059 C1056 1.391 . S
C1059 C1058 1.392 . S
N1060 Co1004 2.257 . S
N1060 C1057 1.391 . S
N1060 C1061 1.388 . S
C1061 H1032 0.930 . S
C1061 C1056 1.391 . S
C1061 N1060 1.388 . S
Co1062 O1064 2.143 . S
Co1062 O1070 2.074 . S
Co1062 O1073 2.093 . S
Co1062 O1086 2.097 . S
Co1062 N1103 2.151 . S
Co1062 N1111 2.214 . S
Co1063 O1064 2.160 . S
Co1063 O1069 2.058 . S
Co1063 O1079 2.057 . S
Co1063 O1094 2.037 . S
Co1063 N1098 2.145 . S
Co1063 N1119 2.257 . S
O1064 Co1062 2.143 . S
O1064 Co1063 2.160 . S
C1065 O1066 1.278 . S
C1065 O1073 1.224 . S
O1066 C1065 1.278 . S
C1067 O1068 1.245 . S
C1067 O1079 1.232 . S
O1068 C1067 1.245 . S
O1069 Co1063 2.058 . S
O1069 C1095 1.269 . S
O1070 Co1062 2.074 . S
O1070 C1095 1.257 . S
H1071 C1096 0.930 . S
H1072 C1102 0.930 . S
O1073 Co1062 2.093 . S
O1073 C1065 1.224 . S
H1074 C1106 0.929 . S
H1075 C1108 0.930 . S
H1076 C1109 0.930 . S
H1077 C1107 0.929 . S
H1078 C1110 0.928 . S
O1079 Co1063 2.057 . S
O1079 C1067 1.232 . S
H1080 C1099 0.929 . S
H1081 C1100 0.929 . S
H1082 C1112 0.931 . S
H1083 C1104 0.929 . S
H1084 C1113 0.930 . S
H1085 C1105 0.931 . S
O1086 Co1062 2.097 . S
O1086 C1114 1.214 . S
H1087 C1115 0.929 . S
H1088 C1116 0.929 . S
H1089 C1117 0.930 . S
H1090 C1118 0.929 . S
H1091 C1120 0.930 . S
H1092 C1097 0.930 . S
H1093 C1101 0.930 . S
O1094 Co1063 2.037 . S
O1094 C1114 1.234 . S
C1095 O1069 1.269 . S
C1095 O1070 1.257 . S
C1096 H1071 0.930 . S
C1096 C1099 1.388 . S
C1096 C1101 1.418 . S
C1097 H1092 0.930 . S
C1097 C1100 1.404 . S
C1097 C1101 1.353 . S
N1098 Co1063 2.145 . S
N1098 C1099 1.397 . S
N1098 C1100 1.334 . S
C1099 H1080 0.929 . S
C1099 C1096 1.388 . S
C1099 N1098 1.397 . S
C1100 H1081 0.929 . S
C1100 C1097 1.404 . S
C1100 N1098 1.334 . S
C1101 H1093 0.930 . S
C1101 C1096 1.418 . S
C1101 C1097 1.353 . S
C1102 H1072 0.930 . S
C1102 N1103 1.330 . S
C1102 C1104 1.446 . S
N1103 Co1062 2.151 . S
N1103 C1102 1.330 . S
N1103 C1107 1.418 . S
C1104 H1083 0.929 . S
C1104 C1102 1.446 . S
C1104 C1105 1.332 . S
C1105 H1085 0.931 . S
C1105 C1104 1.332 . S
C1105 C1106 1.267 . S
C1106 H1074 0.929 . S
C1106 C1105 1.267 . S
C1106 C1107 1.251 . S
C1107 H1077 0.929 . S
C1107 N1103 1.418 . S
C1107 C1106 1.251 . S
C1108 H1075 0.930 . S
C1108 C1110 1.406 . S
C1108 C1113 1.261 . S
C1109 H1076 0.930 . S
C1109 N1111 1.325 . S
C1109 C1112 1.357 . S
C1110 H1078 0.928 . S
C1110 C1108 1.406 . S
C1110 N1111 1.261 . S
N1111 Co1062 2.214 . S
N1111 C1109 1.325 . S
N1111 C1110 1.261 . S
C1112 H1082 0.931 . S
C1112 C1109 1.357 . S
C1112 C1113 1.312 . S
C1113 H1084 0.930 . S
C1113 C1108 1.261 . S
C1113 C1112 1.312 . S
C1114 O1086 1.214 . S
C1114 O1094 1.234 . S
C1115 H1087 0.929 . S
C1115 C1118 1.391 . S
C1115 C1120 1.391 . S
C1116 H1088 0.929 . S
C1116 C1117 1.390 . S
C1116 N1119 1.391 . S
C1117 H1089 0.930 . S
C1117 C1116 1.390 . S
C1117 C1118 1.392 . S
C1118 H1090 0.929 . S
C1118 C1115 1.391 . S
C1118 C1117 1.392 . S
N1119 Co1063 2.257 . S
N1119 C1116 1.391 . S
N1119 C1120 1.388 . S
C1120 H1091 0.930 . S
C1120 C1115 1.391 . S
C1120 N1119 1.388 . S
Co1121 O1123 2.143 . S
Co1121 O1129 2.074 . S
Co1121 O1132 2.093 . S
Co1121 O1145 2.097 . S
Co1121 N1162 2.151 . S
Co1121 N1170 2.214 . S
Co1122 O1123 2.160 . S
Co1122 O1128 2.058 . S
Co1122 O1138 2.057 . S
Co1122 O1153 2.037 . S
Co1122 N1157 2.145 . S
Co1122 N1178 2.257 . S
O1123 Co1121 2.143 . S
O1123 Co1122 2.160 . S
C1124 O1125 1.278 . S
C1124 O1132 1.224 . S
O1125 C1124 1.278 . S
C1126 O1127 1.245 . S
C1126 O1138 1.232 . S
O1127 C1126 1.245 . S
O1128 Co1122 2.058 . S
O1128 C1154 1.269 . S
O1129 Co1121 2.074 . S
O1129 C1154 1.257 . S
H1130 C1155 0.930 . S
H1131 C1161 0.930 . S
O1132 Co1121 2.093 . S
O1132 C1124 1.224 . S
H1133 C1165 0.929 . S
H1134 C1167 0.930 . S
H1135 C1168 0.930 . S
H1136 C1166 0.929 . S
H1137 C1169 0.928 . S
O1138 Co1122 2.057 . S
O1138 C1126 1.232 . S
H1139 C1158 0.929 . S
H1140 C1159 0.929 . S
H1141 C1171 0.931 . S
H1142 C1163 0.929 . S
H1143 C1172 0.930 . S
H1144 C1164 0.931 . S
O1145 Co1121 2.097 . S
O1145 C1173 1.214 . S
H1146 C1174 0.929 . S
H1147 C1175 0.929 . S
H1148 C1176 0.930 . S
H1149 C1177 0.929 . S
H1150 C1179 0.930 . S
H1151 C1156 0.930 . S
H1152 C1160 0.930 . S
O1153 Co1122 2.037 . S
O1153 C1173 1.234 . S
C1154 O1128 1.269 . S
C1154 O1129 1.257 . S
C1155 H1130 0.930 . S
C1155 C1158 1.388 . S
C1155 C1160 1.418 . S
C1156 H1151 0.930 . S
C1156 C1159 1.404 . S
C1156 C1160 1.353 . S
N1157 Co1122 2.145 . S
N1157 C1158 1.397 . S
N1157 C1159 1.334 . S
C1158 H1139 0.929 . S
C1158 C1155 1.388 . S
C1158 N1157 1.397 . S
C1159 H1140 0.929 . S
C1159 C1156 1.404 . S
C1159 N1157 1.334 . S
C1160 H1152 0.930 . S
C1160 C1155 1.418 . S
C1160 C1156 1.353 . S
C1161 H1131 0.930 . S
C1161 N1162 1.330 . S
C1161 C1163 1.446 . S
N1162 Co1121 2.151 . S
N1162 C1161 1.330 . S
N1162 C1166 1.418 . S
C1163 H1142 0.929 . S
C1163 C1161 1.446 . S
C1163 C1164 1.332 . S
C1164 H1144 0.931 . S
C1164 C1163 1.332 . S
C1164 C1165 1.267 . S
C1165 H1133 0.929 . S
C1165 C1164 1.267 . S
C1165 C1166 1.251 . S
C1166 H1136 0.929 . S
C1166 N1162 1.418 . S
C1166 C1165 1.251 . S
C1167 H1134 0.930 . S
C1167 C1169 1.406 . S
C1167 C1172 1.261 . S
C1168 H1135 0.930 . S
C1168 N1170 1.325 . S
C1168 C1171 1.357 . S
C1169 H1137 0.928 . S
C1169 C1167 1.406 . S
C1169 N1170 1.261 . S
N1170 Co1121 2.214 . S
N1170 C1168 1.325 . S
N1170 C1169 1.261 . S
C1171 H1141 0.931 . S
C1171 C1168 1.357 . S
C1171 C1172 1.312 . S
C1172 H1143 0.930 . S
C1172 C1167 1.261 . S
C1172 C1171 1.312 . S
C1173 O1145 1.214 . S
C1173 O1153 1.234 . S
C1174 H1146 0.929 . S
C1174 C1177 1.391 . S
C1174 C1179 1.391 . S
C1175 H1147 0.929 . S
C1175 C1176 1.390 . S
C1175 N1178 1.391 . S
C1176 H1148 0.930 . S
C1176 C1175 1.390 . S
C1176 C1177 1.392 . S
C1177 H1149 0.929 . S
C1177 C1174 1.391 . S
C1177 C1176 1.392 . S
N1178 Co1122 2.257 . S
N1178 C1175 1.391 . S
N1178 C1179 1.388 . S
C1179 H1150 0.930 . S
C1179 C1174 1.391 . S
C1179 N1178 1.388 . S
Co1180 O1182 2.143 . S
Co1180 O1188 2.074 . S
Co1180 O1191 2.093 . S
Co1180 O1204 2.097 . S
Co1180 N1221 2.151 . S
Co1180 N1229 2.214 . S
Co1181 O1182 2.160 . S
Co1181 O1187 2.058 . S
Co1181 O1197 2.057 . S
Co1181 O1212 2.037 . S
Co1181 N1216 2.145 . S
Co1181 N1237 2.257 . S
O1182 Co1180 2.143 . S
O1182 Co1181 2.160 . S
C1183 O1184 1.278 . S
C1183 O1191 1.224 . S
O1184 C1183 1.278 . S
C1185 O1186 1.245 . S
C1185 O1197 1.232 . S
O1186 C1185 1.245 . S
O1187 Co1181 2.058 . S
O1187 C1213 1.269 . S
O1188 Co1180 2.074 . S
O1188 C1213 1.257 . S
H1189 C1214 0.930 . S
H1190 C1220 0.930 . S
O1191 Co1180 2.093 . S
O1191 C1183 1.224 . S
H1192 C1224 0.929 . S
H1193 C1226 0.930 . S
H1194 C1227 0.930 . S
H1195 C1225 0.929 . S
H1196 C1228 0.928 . S
O1197 Co1181 2.057 . S
O1197 C1185 1.232 . S
H1198 C1217 0.929 . S
H1199 C1218 0.929 . S
H1200 C1230 0.931 . S
H1201 C1222 0.929 . S
H1202 C1231 0.930 . S
H1203 C1223 0.931 . S
O1204 Co1180 2.097 . S
O1204 C1232 1.214 . S
H1205 C1233 0.929 . S
H1206 C1234 0.929 . S
H1207 C1235 0.930 . S
H1208 C1236 0.929 . S
H1209 C1238 0.930 . S
H1210 C1215 0.930 . S
H1211 C1219 0.930 . S
O1212 Co1181 2.037 . S
O1212 C1232 1.234 . S
C1213 O1187 1.269 . S
C1213 O1188 1.257 . S
C1214 H1189 0.930 . S
C1214 C1217 1.388 . S
C1214 C1219 1.418 . S
C1215 H1210 0.930 . S
C1215 C1218 1.404 . S
C1215 C1219 1.353 . S
N1216 Co1181 2.145 . S
N1216 C1217 1.397 . S
N1216 C1218 1.334 . S
C1217 H1198 0.929 . S
C1217 C1214 1.388 . S
C1217 N1216 1.397 . S
C1218 H1199 0.929 . S
C1218 C1215 1.404 . S
C1218 N1216 1.334 . S
C1219 H1211 0.930 . S
C1219 C1214 1.418 . S
C1219 C1215 1.353 . S
C1220 H1190 0.930 . S
C1220 N1221 1.330 . S
C1220 C1222 1.446 . S
N1221 Co1180 2.151 . S
N1221 C1220 1.330 . S
N1221 C1225 1.418 . S
C1222 H1201 0.929 . S
C1222 C1220 1.446 . S
C1222 C1223 1.332 . S
C1223 H1203 0.931 . S
C1223 C1222 1.332 . S
C1223 C1224 1.267 . S
C1224 H1192 0.929 . S
C1224 C1223 1.267 . S
C1224 C1225 1.251 . S
C1225 H1195 0.929 . S
C1225 N1221 1.418 . S
C1225 C1224 1.251 . S
C1226 H1193 0.930 . S
C1226 C1228 1.406 . S
C1226 C1231 1.261 . S
C1227 H1194 0.930 . S
C1227 N1229 1.325 . S
C1227 C1230 1.357 . S
C1228 H1196 0.928 . S
C1228 C1226 1.406 . S
C1228 N1229 1.261 . S
N1229 Co1180 2.214 . S
N1229 C1227 1.325 . S
N1229 C1228 1.261 . S
C1230 H1200 0.931 . S
C1230 C1227 1.357 . S
C1230 C1231 1.312 . S
C1231 H1202 0.930 . S
C1231 C1226 1.261 . S
C1231 C1230 1.312 . S
C1232 O1204 1.214 . S
C1232 O1212 1.234 . S
C1233 H1205 0.929 . S
C1233 C1236 1.391 . S
C1233 C1238 1.391 . S
C1234 H1206 0.929 . S
C1234 C1235 1.390 . S
C1234 N1237 1.391 . S
C1235 H1207 0.930 . S
C1235 C1234 1.390 . S
C1235 C1236 1.392 . S
C1236 H1208 0.929 . S
C1236 C1233 1.391 . S
C1236 C1235 1.392 . S
N1237 Co1181 2.257 . S
N1237 C1234 1.391 . S
N1237 C1238 1.388 . S
C1238 H1209 0.930 . S
C1238 C1233 1.391 . S
C1238 N1237 1.388 . S
Co1239 O1241 2.143 . S
Co1239 O1247 2.074 . S
Co1239 O1250 2.093 . S
Co1239 O1263 2.097 . S
Co1239 N1280 2.151 . S
Co1239 N1288 2.214 . S
Co1240 O1241 2.160 . S
Co1240 O1246 2.058 . S
Co1240 O1256 2.057 . S
Co1240 O1271 2.037 . S
Co1240 N1275 2.145 . S
Co1240 N1296 2.257 . S
O1241 Co1239 2.143 . S
O1241 Co1240 2.160 . S
C1242 O1243 1.278 . S
C1242 O1250 1.224 . S
O1243 C1242 1.278 . S
C1244 O1245 1.245 . S
C1244 O1256 1.232 . S
O1245 C1244 1.245 . S
O1246 Co1240 2.058 . S
O1246 C1272 1.269 . S
O1247 Co1239 2.074 . S
O1247 C1272 1.257 . S
H1248 C1273 0.930 . S
H1249 C1279 0.930 . S
O1250 Co1239 2.093 . S
O1250 C1242 1.224 . S
H1251 C1283 0.929 . S
H1252 C1285 0.930 . S
H1253 C1286 0.930 . S
H1254 C1284 0.929 . S
H1255 C1287 0.928 . S
O1256 Co1240 2.057 . S
O1256 C1244 1.232 . S
H1257 C1276 0.929 . S
H1258 C1277 0.929 . S
H1259 C1289 0.931 . S
H1260 C1281 0.929 . S
H1261 C1290 0.930 . S
H1262 C1282 0.931 . S
O1263 Co1239 2.097 . S
O1263 C1291 1.214 . S
H1264 C1292 0.929 . S
H1265 C1293 0.929 . S
H1266 C1294 0.930 . S
H1267 C1295 0.929 . S
H1268 C1297 0.930 . S
H1269 C1274 0.930 . S
H1270 C1278 0.930 . S
O1271 Co1240 2.037 . S
O1271 C1291 1.234 . S
C1272 O1246 1.269 . S
C1272 O1247 1.257 . S
C1273 H1248 0.930 . S
C1273 C1276 1.388 . S
C1273 C1278 1.418 . S
C1274 H1269 0.930 . S
C1274 C1277 1.404 . S
C1274 C1278 1.353 . S
N1275 Co1240 2.145 . S
N1275 C1276 1.397 . S
N1275 C1277 1.334 . S
C1276 H1257 0.929 . S
C1276 C1273 1.388 . S
C1276 N1275 1.397 . S
C1277 H1258 0.929 . S
C1277 C1274 1.404 . S
C1277 N1275 1.334 . S
C1278 H1270 0.930 . S
C1278 C1273 1.418 . S
C1278 C1274 1.353 . S
C1279 H1249 0.930 . S
C1279 N1280 1.330 . S
C1279 C1281 1.446 . S
N1280 Co1239 2.151 . S
N1280 C1279 1.330 . S
N1280 C1284 1.418 . S
C1281 H1260 0.929 . S
C1281 C1279 1.446 . S
C1281 C1282 1.332 . S
C1282 H1262 0.931 . S
C1282 C1281 1.332 . S
C1282 C1283 1.267 . S
C1283 H1251 0.929 . S
C1283 C1282 1.267 . S
C1283 C1284 1.251 . S
C1284 H1254 0.929 . S
C1284 N1280 1.418 . S
C1284 C1283 1.251 . S
C1285 H1252 0.930 . S
C1285 C1287 1.406 . S
C1285 C1290 1.261 . S
C1286 H1253 0.930 . S
C1286 N1288 1.325 . S
C1286 C1289 1.357 . S
C1287 H1255 0.928 . S
C1287 C1285 1.406 . S
C1287 N1288 1.261 . S
N1288 Co1239 2.214 . S
N1288 C1286 1.325 . S
N1288 C1287 1.261 . S
C1289 H1259 0.931 . S
C1289 C1286 1.357 . S
C1289 C1290 1.312 . S
C1290 H1261 0.930 . S
C1290 C1285 1.261 . S
C1290 C1289 1.312 . S
C1291 O1263 1.214 . S
C1291 O1271 1.234 . S
C1292 H1264 0.929 . S
C1292 C1295 1.391 . S
C1292 C1297 1.391 . S
C1293 H1265 0.929 . S
C1293 C1294 1.390 . S
C1293 N1296 1.391 . S
C1294 H1266 0.930 . S
C1294 C1293 1.390 . S
C1294 C1295 1.392 . S
C1295 H1267 0.929 . S
C1295 C1292 1.391 . S
C1295 C1294 1.392 . S
N1296 Co1240 2.257 . S
N1296 C1293 1.391 . S
N1296 C1297 1.388 . S
C1297 H1268 0.930 . S
C1297 C1292 1.391 . S
C1297 N1296 1.388 . S
Co1298 O1300 2.143 . S
Co1298 O1306 2.074 . S
Co1298 O1309 2.093 . S
Co1298 O1322 2.097 . S
Co1298 N1339 2.151 . S
Co1298 N1347 2.214 . S
Co1299 O1300 2.160 . S
Co1299 O1305 2.058 . S
Co1299 O1315 2.057 . S
Co1299 O1330 2.037 . S
Co1299 N1334 2.145 . S
Co1299 N1355 2.257 . S
O1300 Co1298 2.143 . S
O1300 Co1299 2.160 . S
C1301 O1302 1.278 . S
C1301 O1309 1.224 . S
O1302 C1301 1.278 . S
C1303 O1304 1.245 . S
C1303 O1315 1.232 . S
O1304 C1303 1.245 . S
O1305 Co1299 2.058 . S
O1305 C1331 1.269 . S
O1306 Co1298 2.074 . S
O1306 C1331 1.257 . S
H1307 C1332 0.930 . S
H1308 C1338 0.930 . S
O1309 Co1298 2.093 . S
O1309 C1301 1.224 . S
H1310 C1342 0.929 . S
H1311 C1344 0.930 . S
H1312 C1345 0.930 . S
H1313 C1343 0.929 . S
H1314 C1346 0.928 . S
O1315 Co1299 2.057 . S
O1315 C1303 1.232 . S
H1316 C1335 0.929 . S
H1317 C1336 0.929 . S
H1318 C1348 0.931 . S
H1319 C1340 0.929 . S
H1320 C1349 0.930 . S
H1321 C1341 0.931 . S
O1322 Co1298 2.097 . S
O1322 C1350 1.214 . S
H1323 C1351 0.929 . S
H1324 C1352 0.929 . S
H1325 C1353 0.930 . S
H1326 C1354 0.929 . S
H1327 C1356 0.930 . S
H1328 C1333 0.930 . S
H1329 C1337 0.930 . S
O1330 Co1299 2.037 . S
O1330 C1350 1.234 . S
C1331 O1305 1.269 . S
C1331 O1306 1.257 . S
C1332 H1307 0.930 . S
C1332 C1335 1.388 . S
C1332 C1337 1.418 . S
C1333 H1328 0.930 . S
C1333 C1336 1.404 . S
C1333 C1337 1.353 . S
N1334 Co1299 2.145 . S
N1334 C1335 1.397 . S
N1334 C1336 1.334 . S
C1335 H1316 0.929 . S
C1335 C1332 1.388 . S
C1335 N1334 1.397 . S
C1336 H1317 0.929 . S
C1336 C1333 1.404 . S
C1336 N1334 1.334 . S
C1337 H1329 0.930 . S
C1337 C1332 1.418 . S
C1337 C1333 1.353 . S
C1338 H1308 0.930 . S
C1338 N1339 1.330 . S
C1338 C1340 1.446 . S
N1339 Co1298 2.151 . S
N1339 C1338 1.330 . S
N1339 C1343 1.418 . S
C1340 H1319 0.929 . S
C1340 C1338 1.446 . S
C1340 C1341 1.332 . S
C1341 H1321 0.931 . S
C1341 C1340 1.332 . S
C1341 C1342 1.267 . S
C1342 H1310 0.929 . S
C1342 C1341 1.267 . S
C1342 C1343 1.251 . S
C1343 H1313 0.929 . S
C1343 N1339 1.418 . S
C1343 C1342 1.251 . S
C1344 H1311 0.930 . S
C1344 C1346 1.406 . S
C1344 C1349 1.261 . S
C1345 H1312 0.930 . S
C1345 N1347 1.325 . S
C1345 C1348 1.357 . S
C1346 H1314 0.928 . S
C1346 C1344 1.406 . S
C1346 N1347 1.261 . S
N1347 Co1298 2.214 . S
N1347 C1345 1.325 . S
N1347 C1346 1.261 . S
C1348 H1318 0.931 . S
C1348 C1345 1.357 . S
C1348 C1349 1.312 . S
C1349 H1320 0.930 . S
C1349 C1344 1.261 . S
C1349 C1348 1.312 . S
C1350 O1322 1.214 . S
C1350 O1330 1.234 . S
C1351 H1323 0.929 . S
C1351 C1354 1.391 . S
C1351 C1356 1.391 . S
C1352 H1324 0.929 . S
C1352 C1353 1.390 . S
C1352 N1355 1.391 . S
C1353 H1325 0.930 . S
C1353 C1352 1.390 . S
C1353 C1354 1.392 . S
C1354 H1326 0.929 . S
C1354 C1351 1.391 . S
C1354 C1353 1.392 . S
N1355 Co1299 2.257 . S
N1355 C1352 1.391 . S
N1355 C1356 1.388 . S
C1356 H1327 0.930 . S
C1356 C1351 1.391 . S
C1356 N1355 1.388 . S
Co1357 O1359 2.143 . S
Co1357 O1365 2.074 . S
Co1357 O1368 2.093 . S
Co1357 O1381 2.097 . S
Co1357 N1398 2.151 . S
Co1357 N1406 2.214 . S
Co1358 O1359 2.160 . S
Co1358 O1364 2.058 . S
Co1358 O1374 2.057 . S
Co1358 O1389 2.037 . S
Co1358 N1393 2.145 . S
Co1358 N1414 2.257 . S
O1359 Co1357 2.143 . S
O1359 Co1358 2.160 . S
C1360 O1361 1.278 . S
C1360 O1368 1.224 . S
O1361 C1360 1.278 . S
C1362 O1363 1.245 . S
C1362 O1374 1.232 . S
O1363 C1362 1.245 . S
O1364 Co1358 2.058 . S
O1364 C1390 1.269 . S
O1365 Co1357 2.074 . S
O1365 C1390 1.257 . S
H1366 C1391 0.930 . S
H1367 C1397 0.930 . S
O1368 Co1357 2.093 . S
O1368 C1360 1.224 . S
H1369 C1401 0.929 . S
H1370 C1403 0.930 . S
H1371 C1404 0.930 . S
H1372 C1402 0.929 . S
H1373 C1405 0.928 . S
O1374 Co1358 2.057 . S
O1374 C1362 1.232 . S
H1375 C1394 0.929 . S
H1376 C1395 0.929 . S
H1377 C1407 0.931 . S
H1378 C1399 0.929 . S
H1379 C1408 0.930 . S
H1380 C1400 0.931 . S
O1381 Co1357 2.097 . S
O1381 C1409 1.214 . S
H1382 C1410 0.929 . S
H1383 C1411 0.929 . S
H1384 C1412 0.930 . S
H1385 C1413 0.929 . S
H1386 C1415 0.930 . S
H1387 C1392 0.930 . S
H1388 C1396 0.930 . S
O1389 Co1358 2.037 . S
O1389 C1409 1.234 . S
C1390 O1364 1.269 . S
C1390 O1365 1.257 . S
C1391 H1366 0.930 . S
C1391 C1394 1.388 . S
C1391 C1396 1.418 . S
C1392 H1387 0.930 . S
C1392 C1395 1.404 . S
C1392 C1396 1.353 . S
N1393 Co1358 2.145 . S
N1393 C1394 1.397 . S
N1393 C1395 1.334 . S
C1394 H1375 0.929 . S
C1394 C1391 1.388 . S
C1394 N1393 1.397 . S
C1395 H1376 0.929 . S
C1395 C1392 1.404 . S
C1395 N1393 1.334 . S
C1396 H1388 0.930 . S
C1396 C1391 1.418 . S
C1396 C1392 1.353 . S
C1397 H1367 0.930 . S
C1397 N1398 1.330 . S
C1397 C1399 1.446 . S
N1398 Co1357 2.151 . S
N1398 C1397 1.330 . S
N1398 C1402 1.418 . S
C1399 H1378 0.929 . S
C1399 C1397 1.446 . S
C1399 C1400 1.332 . S
C1400 H1380 0.931 . S
C1400 C1399 1.332 . S
C1400 C1401 1.267 . S
C1401 H1369 0.929 . S
C1401 C1400 1.267 . S
C1401 C1402 1.251 . S
C1402 H1372 0.929 . S
C1402 N1398 1.418 . S
C1402 C1401 1.251 . S
C1403 H1370 0.930 . S
C1403 C1405 1.406 . S
C1403 C1408 1.261 . S
C1404 H1371 0.930 . S
C1404 N1406 1.325 . S
C1404 C1407 1.357 . S
C1405 H1373 0.928 . S
C1405 C1403 1.406 . S
C1405 N1406 1.261 . S
N1406 Co1357 2.214 . S
N1406 C1404 1.325 . S
N1406 C1405 1.261 . S
C1407 H1377 0.931 . S
C1407 C1404 1.357 . S
C1407 C1408 1.312 . S
C1408 H1379 0.930 . S
C1408 C1403 1.261 . S
C1408 C1407 1.312 . S
C1409 O1381 1.214 . S
C1409 O1389 1.234 . S
C1410 H1382 0.929 . S
C1410 C1413 1.391 . S
C1410 C1415 1.391 . S
C1411 H1383 0.929 . S
C1411 C1412 1.390 . S
C1411 N1414 1.391 . S
C1412 H1384 0.930 . S
C1412 C1411 1.390 . S
C1412 C1413 1.392 . S
C1413 H1385 0.929 . S
C1413 C1410 1.391 . S
C1413 C1412 1.392 . S
N1414 Co1358 2.257 . S
N1414 C1411 1.391 . S
N1414 C1415 1.388 . S
C1415 H1386 0.930 . S
C1415 C1410 1.391 . S
C1415 N1414 1.388 . S
H1416 C1428 0.930 . S
H1417 C1430 0.930 . S
H1418 C1431 0.930 . S
H1419 C1435 0.959 . S
H1420 C1435 0.959 . S
H1421 C1435 0.961 . S
H1422 C1436 0.960 . S
H1423 C1436 0.961 . S
H1424 C1436 0.959 . S
H1425 C1439 0.929 . S
H1426 C1440 0.931 . S
H1427 C1442 0.930 . S
C1428 H1416 0.930 . S
C1428 C1429 1.399 . S
C1428 C1433 1.399 . S
C1429 C1428 1.399 . S
C1429 C1430 1.376 . S
C1430 H1417 0.930 . S
C1430 C1429 1.376 . S
C1430 C1431 1.388 . S
C1431 H1418 0.930 . S
C1431 C1430 1.388 . S
C1431 C1432 1.390 . S
C1432 C1431 1.390 . S
C1432 C1433 1.394 . S
C1432 C1438 1.465 . S
C1433 C1428 1.399 . S
C1433 C1432 1.394 . S
C1433 C1434 1.516 . S
C1434 C1433 1.516 . S
C1434 C1435 1.502 . S
C1434 C1436 1.561 . S
C1434 C1437 1.526 . S
C1435 H1419 0.959 . S
C1435 H1420 0.959 . S
C1435 H1421 0.961 . S
C1435 C1434 1.502 . S
C1436 H1422 0.960 . S
C1436 H1423 0.961 . S
C1436 H1424 0.959 . S
C1436 C1434 1.561 . S
C1437 C1434 1.526 . S
C1437 C1438 1.396 . S
C1437 C1442 1.390 . S
C1438 C1432 1.465 . S
C1438 C1437 1.396 . S
C1438 C1439 1.399 . S
C1439 H1425 0.929 . S
C1439 C1438 1.399 . S
C1439 C1440 1.385 . S
C1440 H1426 0.931 . S
C1440 C1439 1.385 . S
C1440 C1441 1.389 . S
C1441 C1440 1.389 . S
C1441 C1442 1.387 . S
C1442 H1427 0.930 . S
C1442 C1437 1.390 . S
C1442 C1441 1.387 . S
H1443 C1455 0.930 . S
H1444 C1457 0.930 . S
H1445 C1458 0.930 . S
H1446 C1462 0.961 . S
H1447 C1462 0.973 . S
H1448 C1462 0.946 1_655 S
H1449 C1463 0.961 1_655 S
H1450 C1463 0.960 . S
H1451 C1463 0.959 . S
H1452 C1466 0.929 . S
H1453 C1467 0.931 . S
H1454 C1469 0.930 . S
C1455 H1443 0.930 . S
C1455 C1456 1.399 . S
C1455 C1460 1.399 . S
C1456 C1455 1.399 . S
C1456 C1457 1.376 . S
C1457 H1444 0.930 . S
C1457 C1456 1.376 . S
C1457 C1458 1.388 . S
C1458 H1445 0.930 . S
C1458 C1457 1.388 . S
C1458 C1459 1.390 . S
C1459 C1458 1.390 . S
C1459 C1460 1.394 . S
C1459 C1465 1.465 1_655 S
C1460 C1455 1.399 . S
C1460 C1459 1.394 . S
C1460 C1461 1.514 . S
C1461 C1460 1.514 . S
C1461 C1462 1.502 1_655 S
C1461 C1463 1.561 1_655 S
C1461 C1464 1.528 1_655 S
C1462 H1446 0.961 . S
C1462 H1447 0.973 . S
C1462 H1448 0.946 1_455 S
C1462 C1461 1.502 1_455 S
C1463 H1449 0.961 1_455 S
C1463 H1450 0.960 . S
C1463 H1451 0.959 . S
C1463 C1461 1.561 1_455 S
C1464 C1461 1.528 1_455 S
C1464 C1465 1.396 . S
C1464 C1469 1.390 . S
C1465 C1459 1.465 1_455 S
C1465 C1464 1.396 . S
C1465 C1466 1.399 . S
C1466 H1452 0.929 . S
C1466 C1465 1.399 . S
C1466 C1467 1.385 . S
C1467 H1453 0.931 . S
C1467 C1466 1.385 . S
C1467 C1468 1.389 . S
C1468 C1467 1.389 . S
C1468 C1469 1.387 . S
C1469 H1454 0.930 . S
C1469 C1464 1.390 . S
C1469 C1468 1.387 . S
H1470 C1482 0.930 . S
H1471 C1484 0.930 . S
H1472 C1485 0.930 . S
H1473 C1489 0.959 . S
H1474 C1489 0.959 . S
H1475 C1489 0.961 . S
H1476 C1490 0.960 . S
H1477 C1490 0.961 . S
H1478 C1490 0.959 . S
H1479 C1493 0.929 . S
H1480 C1494 0.931 . S
H1481 C1496 0.930 . S
C1482 H1470 0.930 . S
C1482 C1483 1.399 . S
C1482 C1487 1.399 . S
C1483 C1482 1.399 . S
C1483 C1484 1.376 . S
C1484 H1471 0.930 . S
C1484 C1483 1.376 . S
C1484 C1485 1.388 . S
C1485 H1472 0.930 . S
C1485 C1484 1.388 . S
C1485 C1486 1.390 . S
C1486 C1485 1.390 . S
C1486 C1487 1.394 . S
C1486 C1492 1.465 . S
C1487 C1482 1.399 . S
C1487 C1486 1.394 . S
C1487 C1488 1.516 . S
C1488 C1487 1.516 . S
C1488 C1489 1.502 . S
C1488 C1490 1.561 . S
C1488 C1491 1.526 . S
C1489 H1473 0.959 . S
C1489 H1474 0.959 . S
C1489 H1475 0.961 . S
C1489 C1488 1.502 . S
C1490 H1476 0.960 . S
C1490 H1477 0.961 . S
C1490 H1478 0.959 . S
C1490 C1488 1.561 . S
C1491 C1488 1.526 . S
C1491 C1492 1.396 . S
C1491 C1496 1.390 . S
C1492 C1486 1.465 . S
C1492 C1491 1.396 . S
C1492 C1493 1.399 . S
C1493 H1479 0.929 . S
C1493 C1492 1.399 . S
C1493 C1494 1.385 . S
C1494 H1480 0.931 . S
C1494 C1493 1.385 . S
C1494 C1495 1.389 . S
C1495 C1494 1.389 . S
C1495 C1496 1.387 . S
C1496 H1481 0.930 . S
C1496 C1491 1.390 . S
C1496 C1495 1.387 . S
H1497 C1509 0.930 . S
H1498 C1511 0.930 . S
H1499 C1512 0.930 . S
H1500 C1516 0.964 . S
H1501 C1516 0.991 . S
H1502 C1516 0.927 1_455 S
H1503 C1517 0.940 1_455 S
H1504 C1517 0.979 . S
H1505 C1517 0.961 . S
H1506 C1520 0.929 . S
H1507 C1521 0.931 . S
H1508 C1523 0.930 . S
C1509 H1497 0.930 . S
C1509 C1510 1.399 . S
C1509 C1514 1.399 . S
C1510 C1509 1.399 . S
C1510 C1511 1.376 . S
C1511 H1498 0.930 . S
C1511 C1510 1.376 . S
C1511 C1512 1.388 . S
C1512 H1499 0.930 . S
C1512 C1511 1.388 . S
C1512 C1513 1.390 . S
C1513 C1512 1.390 . S
C1513 C1514 1.394 . S
C1513 C1519 1.465 1_455 S
C1514 C1509 1.399 . S
C1514 C1513 1.394 . S
C1514 C1515 1.504 1_455 S
C1515 C1514 1.504 1_655 S
C1515 C1516 1.502 . S
C1515 C1517 1.561 . S
C1515 C1518 1.538 . S
C1516 H1500 0.964 . S
C1516 H1501 0.991 . S
C1516 H1502 0.927 1_655 S
C1516 C1515 1.502 . S
C1517 H1503 0.940 1_655 S
C1517 H1504 0.979 . S
C1517 H1505 0.961 . S
C1517 C1515 1.561 . S
C1518 C1515 1.538 . S
C1518 C1519 1.396 . S
C1518 C1523 1.390 . S
C1519 C1513 1.465 1_655 S
C1519 C1518 1.396 . S
C1519 C1520 1.399 . S
C1520 H1506 0.929 . S
C1520 C1519 1.399 . S
C1520 C1521 1.385 . S
C1521 H1507 0.931 . S
C1521 C1520 1.385 . S
C1521 C1522 1.389 . S
C1522 C1521 1.389 . S
C1522 C1523 1.387 . S
C1523 H1508 0.930 . S
C1523 C1518 1.390 . S
C1523 C1522 1.387 . S
H1524 C1536 0.930 . S
H1525 C1538 0.930 . S
H1526 C1539 0.930 . S
H1527 C1543 0.959 . S
H1528 C1543 0.959 . S
H1529 C1543 0.961 . S
H1530 C1544 0.960 . S
H1531 C1544 0.961 . S
H1532 C1544 0.959 . S
H1533 C1547 0.929 . S
H1534 C1548 0.931 . S
H1535 C1550 0.930 . S
C1536 H1524 0.930 . S
C1536 C1537 1.399 . S
C1536 C1541 1.399 . S
C1537 C1536 1.399 . S
C1537 C1538 1.376 . S
C1538 H1525 0.930 . S
C1538 C1537 1.376 . S
C1538 C1539 1.388 . S
C1539 H1526 0.930 . S
C1539 C1538 1.388 . S
C1539 C1540 1.390 . S
C1540 C1539 1.390 . S
C1540 C1541 1.394 . S
C1540 C1546 1.465 . S
C1541 C1536 1.399 . S
C1541 C1540 1.394 . S
C1541 C1542 1.516 . S
C1542 C1541 1.516 . S
C1542 C1543 1.502 . S
C1542 C1544 1.561 . S
C1542 C1545 1.526 . S
C1543 H1527 0.959 . S
C1543 H1528 0.959 . S
C1543 H1529 0.961 . S
C1543 C1542 1.502 . S
C1544 H1530 0.960 . S
C1544 H1531 0.961 . S
C1544 H1532 0.959 . S
C1544 C1542 1.561 . S
C1545 C1542 1.526 . S
C1545 C1546 1.396 . S
C1545 C1550 1.390 . S
C1546 C1540 1.465 . S
C1546 C1545 1.396 . S
C1546 C1547 1.399 . S
C1547 H1533 0.929 . S
C1547 C1546 1.399 . S
C1547 C1548 1.385 . S
C1548 H1534 0.931 . S
C1548 C1547 1.385 . S
C1548 C1549 1.389 . S
C1549 C1548 1.389 . S
C1549 C1550 1.387 . S
C1550 H1535 0.930 . S
C1550 C1545 1.390 . S
C1550 C1549 1.387 . S
H1551 C1563 0.930 . S
H1552 C1565 0.930 . S
H1553 C1566 0.930 . S
H1554 C1570 0.964 . S
H1555 C1570 0.993 . S
H1556 C1570 0.925 1_655 S
H1557 C1571 0.940 1_655 S
H1558 C1571 0.979 . S
H1559 C1571 0.961 . S
H1560 C1574 0.929 . S
H1561 C1575 0.931 . S
H1562 C1577 0.930 . S
C1563 H1551 0.930 . S
C1563 C1564 1.399 . S
C1563 C1568 1.399 . S
C1564 C1563 1.399 . S
C1564 C1565 1.376 . S
C1565 H1552 0.930 . S
C1565 C1564 1.376 . S
C1565 C1566 1.388 . S
C1566 H1553 0.930 . S
C1566 C1565 1.388 . S
C1566 C1567 1.390 . S
C1567 C1566 1.390 . S
C1567 C1568 1.394 . S
C1567 C1573 1.465 1_655 S
C1568 C1563 1.399 . S
C1568 C1567 1.394 . S
C1568 C1569 1.503 1_655 S
C1569 C1568 1.503 1_455 S
C1569 C1570 1.502 . S
C1569 C1571 1.561 . S
C1569 C1572 1.539 . S
C1570 H1554 0.964 . S
C1570 H1555 0.993 . S
C1570 H1556 0.925 1_455 S
C1570 C1569 1.502 . S
C1571 H1557 0.940 1_455 S
C1571 H1558 0.979 . S
C1571 H1559 0.961 . S
C1571 C1569 1.561 . S
C1572 C1569 1.539 . S
C1572 C1573 1.396 . S
C1572 C1577 1.390 . S
C1573 C1567 1.465 1_455 S
C1573 C1572 1.396 . S
C1573 C1574 1.399 . S
C1574 H1560 0.929 . S
C1574 C1573 1.399 . S
C1574 C1575 1.385 . S
C1575 H1561 0.931 . S
C1575 C1574 1.385 . S
C1575 C1576 1.389 . S
C1576 C1575 1.389 . S
C1576 C1577 1.387 . S
C1577 H1562 0.930 . S
C1577 C1572 1.390 . S
C1577 C1576 1.387 . S
H1578 C1590 0.930 . S
H1579 C1592 0.930 . S
H1580 C1593 0.930 . S
H1581 C1597 0.959 . S
H1582 C1597 0.959 . S
H1583 C1597 0.961 . S
H1584 C1598 0.960 . S
H1585 C1598 0.961 . S
H1586 C1598 0.959 . S
H1587 C1601 0.929 . S
H1588 C1602 0.931 . S
H1589 C1604 0.930 . S
C1590 H1578 0.930 . S
C1590 C1591 1.399 . S
C1590 C1595 1.399 . S
C1591 C1590 1.399 . S
C1591 C1592 1.376 . S
C1592 H1579 0.930 . S
C1592 C1591 1.376 . S
C1592 C1593 1.388 . S
C1593 H1580 0.930 . S
C1593 C1592 1.388 . S
C1593 C1594 1.390 . S
C1594 C1593 1.390 . S
C1594 C1595 1.394 . S
C1594 C1600 1.465 . S
C1595 C1590 1.399 . S
C1595 C1594 1.394 . S
C1595 C1596 1.516 . S
C1596 C1595 1.516 . S
C1596 C1597 1.502 . S
C1596 C1598 1.561 . S
C1596 C1599 1.526 . S
C1597 H1581 0.959 . S
C1597 H1582 0.959 . S
C1597 H1583 0.961 . S
C1597 C1596 1.502 . S
C1598 H1584 0.960 . S
C1598 H1585 0.961 . S
C1598 H1586 0.959 . S
C1598 C1596 1.561 . S
C1599 C1596 1.526 . S
C1599 C1600 1.396 . S
C1599 C1604 1.390 . S
C1600 C1594 1.465 . S
C1600 C1599 1.396 . S
C1600 C1601 1.399 . S
C1601 H1587 0.929 . S
C1601 C1600 1.399 . S
C1601 C1602 1.385 . S
C1602 H1588 0.931 . S
C1602 C1601 1.385 . S
C1602 C1603 1.389 . S
C1603 C1602 1.389 . S
C1603 C1604 1.387 . S
C1604 H1589 0.930 . S
C1604 C1599 1.390 . S
C1604 C1603 1.387 . S
H1605 C1617 0.930 . S
H1606 C1619 0.930 . S
H1607 C1620 0.930 . S
H1608 C1624 0.962 . S
H1609 C1624 0.978 . S
H1610 C1624 0.940 1_655 S
H1611 C1625 0.961 1_655 S
H1612 C1625 0.960 . S
H1613 C1625 0.959 . S
H1614 C1628 0.929 . S
H1615 C1629 0.931 . S
H1616 C1631 0.930 . S
C1617 H1605 0.930 . S
C1617 C1618 1.399 . S
C1617 C1622 1.399 . S
C1618 C1617 1.399 . S
C1618 C1619 1.376 . S
C1619 H1606 0.930 . S
C1619 C1618 1.376 . S
C1619 C1620 1.388 . S
C1620 H1607 0.930 . S
C1620 C1619 1.388 . S
C1620 C1621 1.390 . S
C1621 C1620 1.390 . S
C1621 C1622 1.394 . S
C1621 C1627 1.465 1_655 S
C1622 C1617 1.399 . S
C1622 C1621 1.394 . S
C1622 C1623 1.520 1_655 S
C1623 C1622 1.520 1_455 S
C1623 C1624 1.501 . S
C1623 C1625 1.561 . S
C1623 C1626 1.522 . S
C1624 H1608 0.962 . S
C1624 H1609 0.978 . S
C1624 H1610 0.940 1_455 S
C1624 C1623 1.501 . S
C1625 H1611 0.961 1_455 S
C1625 H1612 0.960 . S
C1625 H1613 0.959 . S
C1625 C1623 1.561 . S
C1626 C1623 1.522 . S
C1626 C1627 1.396 . S
C1626 C1631 1.390 . S
C1627 C1621 1.465 1_455 S
C1627 C1626 1.396 . S
C1627 C1628 1.399 . S
C1628 H1614 0.929 . S
C1628 C1627 1.399 . S
C1628 C1629 1.385 . S
C1629 H1615 0.931 . S
C1629 C1628 1.385 . S
C1629 C1630 1.389 . S
C1630 C1629 1.389 . S
C1630 C1631 1.387 . S
C1631 H1616 0.930 . S
C1631 C1626 1.390 . S
C1631 C1630 1.387 . S
H1632 C1644 0.930 . S
H1633 C1646 0.930 . S
H1634 C1647 0.930 . S
H1635 C1651 0.959 . S
H1636 C1651 0.959 . S
H1637 C1651 0.961 . S
H1638 C1652 0.960 . S
H1639 C1652 0.961 . S
H1640 C1652 0.959 . S
H1641 C1655 0.929 . S
H1642 C1656 0.931 . S
H1643 C1658 0.930 . S
C1644 H1632 0.930 . S
C1644 C1645 1.399 . S
C1644 C1649 1.399 . S
C1645 C1644 1.399 . S
C1645 C1646 1.376 . S
C1646 H1633 0.930 . S
C1646 C1645 1.376 . S
C1646 C1647 1.388 . S
C1647 H1634 0.930 . S
C1647 C1646 1.388 . S
C1647 C1648 1.390 . S
C1648 C1647 1.390 . S
C1648 C1649 1.394 . S
C1648 C1654 1.465 . S
C1649 C1644 1.399 . S
C1649 C1648 1.394 . S
C1649 C1650 1.516 . S
C1650 C1649 1.516 . S
C1650 C1651 1.502 . S
C1650 C1652 1.561 . S
C1650 C1653 1.526 . S
C1651 H1635 0.959 . S
C1651 H1636 0.959 . S
C1651 H1637 0.961 . S
C1651 C1650 1.502 . S
C1652 H1638 0.960 . S
C1652 H1639 0.961 . S
C1652 H1640 0.959 . S
C1652 C1650 1.561 . S
C1653 C1650 1.526 . S
C1653 C1654 1.396 . S
C1653 C1658 1.390 . S
C1654 C1648 1.465 . S
C1654 C1653 1.396 . S
C1654 C1655 1.399 . S
C1655 H1641 0.929 . S
C1655 C1654 1.399 . S
C1655 C1656 1.385 . S
C1656 H1642 0.931 . S
C1656 C1655 1.385 . S
C1656 C1657 1.389 . S
C1657 C1656 1.389 . S
C1657 C1658 1.387 . S
C1658 H1643 0.930 . S
C1658 C1653 1.390 . S
C1658 C1657 1.387 . S
H1659 C1671 0.930 . S
H1660 C1673 0.930 . S
H1661 C1674 0.930 . S
H1662 C1678 0.961 . S
H1663 C1678 0.973 . S
H1664 C1678 0.946 1_556 S
H1665 C1679 0.956 . S
H1666 C1679 0.965 1_554 S
H1667 C1679 0.959 1_554 S
H1668 C1682 0.929 . S
H1669 C1683 0.931 . S
H1670 C1685 0.930 . S
C1671 H1659 0.930 . S
C1671 C1672 1.399 . S
C1671 C1676 1.399 . S
C1672 C1671 1.399 . S
C1672 C1673 1.376 . S
C1673 H1660 0.930 . S
C1673 C1672 1.376 . S
C1673 C1674 1.388 . S
C1674 H1661 0.930 . S
C1674 C1673 1.388 . S
C1674 C1675 1.390 . S
C1675 C1674 1.390 . S
C1675 C1676 1.394 . S
C1675 C1681 1.465 1_556 S
C1676 C1671 1.399 . S
C1676 C1675 1.394 . S
C1676 C1677 1.514 . S
C1677 C1676 1.514 . S
C1677 C1678 1.502 1_556 S
C1677 C1679 1.561 . S
C1677 C1680 1.528 1_556 S
C1678 H1662 0.961 . S
C1678 H1663 0.973 . S
C1678 H1664 0.946 1_554 S
C1678 C1677 1.502 1_554 S
C1679 H1665 0.956 . S
C1679 H1666 0.965 1_556 S
C1679 H1667 0.959 1_556 S
C1679 C1677 1.561 . S
C1680 C1677 1.528 1_554 S
C1680 C1681 1.396 . S
C1680 C1685 1.390 . S
C1681 C1675 1.465 1_554 S
C1681 C1680 1.396 . S
C1681 C1682 1.399 . S
C1682 H1668 0.929 . S
C1682 C1681 1.399 . S
C1682 C1683 1.385 . S
C1683 H1669 0.931 . S
C1683 C1682 1.385 . S
C1683 C1684 1.389 . S
C1684 C1683 1.389 . S
C1684 C1685 1.387 . S
C1685 H1670 0.930 . S
C1685 C1680 1.390 . S
C1685 C1684 1.387 . S
H1686 C1698 0.930 . S
H1687 C1700 0.930 . S
H1688 C1701 0.930 . S
H1689 C1705 0.959 . S
H1690 C1705 0.959 . S
H1691 C1705 0.961 . S
H1692 C1706 0.960 . S
H1693 C1706 0.961 . S
H1694 C1706 0.959 . S
H1695 C1709 0.929 . S
H1696 C1710 0.931 . S
H1697 C1712 0.930 . S
C1698 H1686 0.930 . S
C1698 C1699 1.399 . S
C1698 C1703 1.399 . S
C1699 C1698 1.399 . S
C1699 C1700 1.376 . S
C1700 H1687 0.930 . S
C1700 C1699 1.376 . S
C1700 C1701 1.388 . S
C1701 H1688 0.930 . S
C1701 C1700 1.388 . S
C1701 C1702 1.390 . S
C1702 C1701 1.390 . S
C1702 C1703 1.394 . S
C1702 C1708 1.465 . S
C1703 C1698 1.399 . S
C1703 C1702 1.394 . S
C1703 C1704 1.516 . S
C1704 C1703 1.516 . S
C1704 C1705 1.502 . S
C1704 C1706 1.561 . S
C1704 C1707 1.526 . S
C1705 H1689 0.959 . S
C1705 H1690 0.959 . S
C1705 H1691 0.961 . S
C1705 C1704 1.502 . S
C1706 H1692 0.960 . S
C1706 H1693 0.961 . S
C1706 H1694 0.959 . S
C1706 C1704 1.561 . S
C1707 C1704 1.526 . S
C1707 C1708 1.396 . S
C1707 C1712 1.390 . S
C1708 C1702 1.465 . S
C1708 C1707 1.396 . S
C1708 C1709 1.399 . S
C1709 H1695 0.929 . S
C1709 C1708 1.399 . S
C1709 C1710 1.385 . S
C1710 H1696 0.931 . S
C1710 C1709 1.385 . S
C1710 C1711 1.389 . S
C1711 C1710 1.389 . S
C1711 C1712 1.387 . S
C1712 H1697 0.930 . S
C1712 C1707 1.390 . S
C1712 C1711 1.387 . S
H1713 C1725 0.930 . S
H1714 C1727 0.930 . S
H1715 C1728 0.930 . S
H1716 C1732 0.961 . S
H1717 C1732 0.971 . S
H1718 C1732 0.948 1_554 S
H1719 C1733 0.956 . S
H1720 C1733 0.965 1_556 S
H1721 C1733 0.959 1_556 S
H1722 C1736 0.929 . S
H1723 C1737 0.931 . S
H1724 C1739 0.930 . S
C1725 H1713 0.930 . S
C1725 C1726 1.399 . S
C1725 C1730 1.399 . S
C1726 C1725 1.399 . S
C1726 C1727 1.376 . S
C1727 H1714 0.930 . S
C1727 C1726 1.376 . S
C1727 C1728 1.388 . S
C1728 H1715 0.930 . S
C1728 C1727 1.388 . S
C1728 C1729 1.390 . S
C1729 C1728 1.390 . S
C1729 C1730 1.394 . S
C1729 C1735 1.465 1_554 S
C1730 C1725 1.399 . S
C1730 C1729 1.394 . S
C1730 C1731 1.514 . S
C1731 C1730 1.514 . S
C1731 C1732 1.502 1_554 S
C1731 C1733 1.561 . S
C1731 C1734 1.528 1_554 S
C1732 H1716 0.961 . S
C1732 H1717 0.971 . S
C1732 H1718 0.948 1_556 S
C1732 C1731 1.502 1_556 S
C1733 H1719 0.956 . S
C1733 H1720 0.965 1_554 S
C1733 H1721 0.959 1_554 S
C1733 C1731 1.561 . S
C1734 C1731 1.528 1_556 S
C1734 C1735 1.396 . S
C1734 C1739 1.390 . S
C1735 C1729 1.465 1_556 S
C1735 C1734 1.396 . S
C1735 C1736 1.399 . S
C1736 H1722 0.929 . S
C1736 C1735 1.399 . S
C1736 C1737 1.385 . S
C1737 H1723 0.931 . S
C1737 C1736 1.385 . S
C1737 C1738 1.389 . S
C1738 C1737 1.389 . S
C1738 C1739 1.387 . S
C1739 H1724 0.930 . S
C1739 C1734 1.390 . S
C1739 C1738 1.387 . S
H1740 C1752 0.930 . S
H1741 C1754 0.930 . S
H1742 C1755 0.930 . S
H1743 C1759 0.959 . S
H1744 C1759 0.959 . S
H1745 C1759 0.961 . S
H1746 C1760 0.960 . S
H1747 C1760 0.961 . S
H1748 C1760 0.959 . S
H1749 C1763 0.929 . S
H1750 C1764 0.931 . S
H1751 C1766 0.930 . S
C1752 H1740 0.930 . S
C1752 C1753 1.399 . S
C1752 C1757 1.399 . S
C1753 C1752 1.399 . S
C1753 C1754 1.376 . S
C1754 H1741 0.930 . S
C1754 C1753 1.376 . S
C1754 C1755 1.388 . S
C1755 H1742 0.930 . S
C1755 C1754 1.388 . S
C1755 C1756 1.390 . S
C1756 C1755 1.390 . S
C1756 C1757 1.394 . S
C1756 C1762 1.465 . S
C1757 C1752 1.399 . S
C1757 C1756 1.394 . S
C1757 C1758 1.516 . S
C1758 C1757 1.516 . S
C1758 C1759 1.502 . S
C1758 C1760 1.561 . S
C1758 C1761 1.526 . S
C1759 H1743 0.959 . S
C1759 H1744 0.959 . S
C1759 H1745 0.961 . S
C1759 C1758 1.502 . S
C1760 H1746 0.960 . S
C1760 H1747 0.961 . S
C1760 H1748 0.959 . S
C1760 C1758 1.561 . S
C1761 C1758 1.526 . S
C1761 C1762 1.396 . S
C1761 C1766 1.390 . S
C1762 C1756 1.465 . S
C1762 C1761 1.396 . S
C1762 C1763 1.399 . S
C1763 H1749 0.929 . S
C1763 C1762 1.399 . S
C1763 C1764 1.385 . S
C1764 H1750 0.931 . S
C1764 C1763 1.385 . S
C1764 C1765 1.389 . S
C1765 C1764 1.389 . S
C1765 C1766 1.387 . S
C1766 H1751 0.930 . S
C1766 C1761 1.390 . S
C1766 C1765 1.387 . S
H1767 C1779 0.930 . S
H1768 C1781 0.930 . S
H1769 C1782 0.930 . S
H1770 C1786 0.961 . S
H1771 C1786 0.975 . S
H1772 C1786 0.943 1_554 S
H1773 C1787 0.963 1_554 S
H1774 C1787 0.958 . S
H1775 C1787 0.959 . S
H1776 C1790 0.929 . S
H1777 C1791 0.931 . S
H1778 C1793 0.930 . S
C1779 H1767 0.930 . S
C1779 C1780 1.399 . S
C1779 C1784 1.399 . S
C1780 C1779 1.399 . S
C1780 C1781 1.376 . S
C1781 H1768 0.930 . S
C1781 C1780 1.376 . S
C1781 C1782 1.388 . S
C1782 H1769 0.930 . S
C1782 C1781 1.388 . S
C1782 C1783 1.390 . S
C1783 C1782 1.390 . S
C1783 C1784 1.394 . S
C1783 C1789 1.465 1_554 S
C1784 C1779 1.399 . S
C1784 C1783 1.394 . S
C1784 C1785 1.520 1_554 S
C1785 C1784 1.520 1_556 S
C1785 C1786 1.502 . S
C1785 C1787 1.561 . S
C1785 C1788 1.522 . S
C1786 H1770 0.961 . S
C1786 H1771 0.975 . S
C1786 H1772 0.943 1_556 S
C1786 C1785 1.502 . S
C1787 H1773 0.963 1_556 S
C1787 H1774 0.958 . S
C1787 H1775 0.959 . S
C1787 C1785 1.561 . S
C1788 C1785 1.522 . S
C1788 C1789 1.396 . S
C1788 C1793 1.390 . S
C1789 C1783 1.465 1_556 S
C1789 C1788 1.396 . S
C1789 C1790 1.399 . S
C1790 H1776 0.929 . S
C1790 C1789 1.399 . S
C1790 C1791 1.385 . S
C1791 H1777 0.931 . S
C1791 C1790 1.385 . S
C1791 C1792 1.389 . S
C1792 C1791 1.389 . S
C1792 C1793 1.387 . S
C1793 H1778 0.930 . S
C1793 C1788 1.390 . S
C1793 C1792 1.387 . S
H1794 C1806 0.930 . S
H1795 C1808 0.930 . S
H1796 C1809 0.930 . S
H1797 C1813 0.959 . S
H1798 C1813 0.959 . S
H1799 C1813 0.961 . S
H1800 C1814 0.960 . S
H1801 C1814 0.961 . S
H1802 C1814 0.959 . S
H1803 C1817 0.929 . S
H1804 C1818 0.931 . S
H1805 C1820 0.930 . S
C1806 H1794 0.930 . S
C1806 C1807 1.399 . S
C1806 C1811 1.399 . S
C1807 C1806 1.399 . S
C1807 C1808 1.376 . S
C1808 H1795 0.930 . S
C1808 C1807 1.376 . S
C1808 C1809 1.388 . S
C1809 H1796 0.930 . S
C1809 C1808 1.388 . S
C1809 C1810 1.390 . S
C1810 C1809 1.390 . S
C1810 C1811 1.394 . S
C1810 C1816 1.465 . S
C1811 C1806 1.399 . S
C1811 C1810 1.394 . S
C1811 C1812 1.516 . S
C1812 C1811 1.516 . S
C1812 C1813 1.502 . S
C1812 C1814 1.561 . S
C1812 C1815 1.526 . S
C1813 H1797 0.959 . S
C1813 H1798 0.959 . S
C1813 H1799 0.961 . S
C1813 C1812 1.502 . S
C1814 H1800 0.960 . S
C1814 H1801 0.961 . S
C1814 H1802 0.959 . S
C1814 C1812 1.561 . S
C1815 C1812 1.526 . S
C1815 C1816 1.396 . S
C1815 C1820 1.390 . S
C1816 C1810 1.465 . S
C1816 C1815 1.396 . S
C1816 C1817 1.399 . S
C1817 H1803 0.929 . S
C1817 C1816 1.399 . S
C1817 C1818 1.385 . S
C1818 H1804 0.931 . S
C1818 C1817 1.385 . S
C1818 C1819 1.389 . S
C1819 C1818 1.389 . S
C1819 C1820 1.387 . S
C1820 H1805 0.930 . S
C1820 C1815 1.390 . S
C1820 C1819 1.387 . S
H1821 C1833 0.930 . S
H1822 C1835 0.930 . S
H1823 C1836 0.930 . S
H1824 C1840 0.962 . S
H1825 C1840 0.983 . S
H1826 C1840 0.935 1_554 S
H1827 C1841 0.952 1_554 S
H1828 C1841 0.968 . S
H1829 C1841 0.960 . S
H1830 C1844 0.929 . S
H1831 C1845 0.931 . S
H1832 C1847 0.930 . S
C1833 H1821 0.930 . S
C1833 C1834 1.399 . S
C1833 C1838 1.399 . S
C1834 C1833 1.399 . S
C1834 C1835 1.376 . S
C1835 H1822 0.930 . S
C1835 C1834 1.376 . S
C1835 C1836 1.388 . S
C1836 H1823 0.930 . S
C1836 C1835 1.388 . S
C1836 C1837 1.390 . S
C1837 C1836 1.390 . S
C1837 C1838 1.394 . S
C1837 C1843 1.465 1_554 S
C1838 C1833 1.399 . S
C1838 C1837 1.394 . S
C1838 C1839 1.513 1_554 S
C1839 C1838 1.513 1_556 S
C1839 C1840 1.502 . S
C1839 C1841 1.561 . S
C1839 C1842 1.529 . S
C1840 H1824 0.962 . S
C1840 H1825 0.983 . S
C1840 H1826 0.935 1_556 S
C1840 C1839 1.502 . S
C1841 H1827 0.952 1_556 S
C1841 H1828 0.968 . S
C1841 H1829 0.960 . S
C1841 C1839 1.561 . S
C1842 C1839 1.529 . S
C1842 C1843 1.396 . S
C1842 C1847 1.390 . S
C1843 C1837 1.465 1_556 S
C1843 C1842 1.396 . S
C1843 C1844 1.399 . S
C1844 H1830 0.929 . S
C1844 C1843 1.399 . S
C1844 C1845 1.385 . S
C1845 H1831 0.931 . S
C1845 C1844 1.385 . S
C1845 C1846 1.389 . S
C1846 C1845 1.389 . S
C1846 C1847 1.387 . S
C1847 H1832 0.930 . S
C1847 C1842 1.390 . S
C1847 C1846 1.387 . S
H1848 C1860 0.930 . S
H1849 C1862 0.930 . S
H1850 C1863 0.930 . S
H1851 C1867 0.959 . S
H1852 C1867 0.959 . S
H1853 C1867 0.961 . S
H1854 C1868 0.960 . S
H1855 C1868 0.961 . S
H1856 C1868 0.959 . S
H1857 C1871 0.929 . S
H1858 C1872 0.931 . S
H1859 C1874 0.930 . S
C1860 H1848 0.930 . S
C1860 C1861 1.399 . S
C1860 C1865 1.399 . S
C1861 C1860 1.399 . S
C1861 C1862 1.376 . S
C1862 H1849 0.930 . S
C1862 C1861 1.376 . S
C1862 C1863 1.388 . S
C1863 H1850 0.930 . S
C1863 C1862 1.388 . S
C1863 C1864 1.390 . S
C1864 C1863 1.390 . S
C1864 C1865 1.394 . S
C1864 C1870 1.465 . S
C1865 C1860 1.399 . S
C1865 C1864 1.394 . S
C1865 C1866 1.516 . S
C1866 C1865 1.516 . S
C1866 C1867 1.502 . S
C1866 C1868 1.561 . S
C1866 C1869 1.526 . S
C1867 H1851 0.959 . S
C1867 H1852 0.959 . S
C1867 H1853 0.961 . S
C1867 C1866 1.502 . S
C1868 H1854 0.960 . S
C1868 H1855 0.961 . S
C1868 H1856 0.959 . S
C1868 C1866 1.561 . S
C1869 C1866 1.526 . S
C1869 C1870 1.396 . S
C1869 C1874 1.390 . S
C1870 C1864 1.465 . S
C1870 C1869 1.396 . S
C1870 C1871 1.399 . S
C1871 H1857 0.929 . S
C1871 C1870 1.399 . S
C1871 C1872 1.385 . S
C1872 H1858 0.931 . S
C1872 C1871 1.385 . S
C1872 C1873 1.389 . S
C1873 C1872 1.389 . S
C1873 C1874 1.387 . S
C1874 H1859 0.930 . S
C1874 C1869 1.390 . S
C1874 C1873 1.387 . S
H1875 C1887 0.930 . S
H1876 C1889 0.930 . S
H1877 C1890 0.930 . S
H1878 C1894 0.959 . S
H1879 C1894 0.959 . S
H1880 C1894 0.961 . S
H1881 C1895 0.960 . S
H1882 C1895 0.961 . S
H1883 C1895 0.959 . S
H1884 C1898 0.929 . S
H1885 C1899 0.931 . S
H1886 C1901 0.930 . S
C1887 H1875 0.930 . S
C1887 C1888 1.399 . S
C1887 C1892 1.399 . S
C1888 C1887 1.399 . S
C1888 C1889 1.376 . S
C1889 H1876 0.930 . S
C1889 C1888 1.376 . S
C1889 C1890 1.388 . S
C1890 H1877 0.930 . S
C1890 C1889 1.388 . S
C1890 C1891 1.390 . S
C1891 C1890 1.390 . S
C1891 C1892 1.394 . S
C1891 C1897 1.465 . S
C1892 C1887 1.399 . S
C1892 C1891 1.394 . S
C1892 C1893 1.516 . S
C1893 C1892 1.516 . S
C1893 C1894 1.502 . S
C1893 C1895 1.561 . S
C1893 C1896 1.526 . S
C1894 H1878 0.959 . S
C1894 H1879 0.959 . S
C1894 H1880 0.961 . S
C1894 C1893 1.502 . S
C1895 H1881 0.960 . S
C1895 H1882 0.961 . S
C1895 H1883 0.959 . S
C1895 C1893 1.561 . S
C1896 C1893 1.526 . S
C1896 C1897 1.396 . S
C1896 C1901 1.390 . S
C1897 C1891 1.465 . S
C1897 C1896 1.396 . S
C1897 C1898 1.399 . S
C1898 H1884 0.929 . S
C1898 C1897 1.399 . S
C1898 C1899 1.385 . S
C1899 H1885 0.931 . S
C1899 C1898 1.385 . S
C1899 C1900 1.389 . S
C1900 C1899 1.389 . S
C1900 C1901 1.387 . S
C1901 H1886 0.930 . S
C1901 C1896 1.390 . S
C1901 C1900 1.387 . S
H1902 C1914 0.930 . S
H1903 C1916 0.930 . S
H1904 C1917 0.930 . S
H1905 C1921 0.960 . S
H1906 C1921 0.964 . S
H1907 C1921 0.955 1_565 S
H1908 C1922 0.959 . S
H1909 C1922 0.962 1_545 S
H1910 C1922 0.959 1_545 S
H1911 C1925 0.929 . S
H1912 C1926 0.931 . S
H1913 C1928 0.930 . S
C1914 H1902 0.930 . S
C1914 C1915 1.399 . S
C1914 C1919 1.399 . S
C1915 C1914 1.399 . S
C1915 C1916 1.376 . S
C1916 H1903 0.930 . S
C1916 C1915 1.376 . S
C1916 C1917 1.388 . S
C1917 H1904 0.930 . S
C1917 C1916 1.388 . S
C1917 C1918 1.390 . S
C1918 C1917 1.390 . S
C1918 C1919 1.394 . S
C1918 C1924 1.465 1_565 S
C1919 C1914 1.399 . S
C1919 C1918 1.394 . S
C1919 C1920 1.519 . S
C1920 C1919 1.519 . S
C1920 C1921 1.502 1_565 S
C1920 C1922 1.561 . S
C1920 C1923 1.523 1_565 S
C1921 H1905 0.960 . S
C1921 H1906 0.964 . S
C1921 H1907 0.955 1_545 S
C1921 C1920 1.502 1_545 S
C1922 H1908 0.959 . S
C1922 H1909 0.962 1_565 S
C1922 H1910 0.959 1_565 S
C1922 C1920 1.561 . S
C1923 C1920 1.523 1_545 S
C1923 C1924 1.396 . S
C1923 C1928 1.390 . S
C1924 C1918 1.465 1_545 S
C1924 C1923 1.396 . S
C1924 C1925 1.399 . S
C1925 H1911 0.929 . S
C1925 C1924 1.399 . S
C1925 C1926 1.385 . S
C1926 H1912 0.931 . S
C1926 C1925 1.385 . S
C1926 C1927 1.389 . S
C1927 C1926 1.389 . S
C1927 C1928 1.387 . S
C1928 H1913 0.930 . S
C1928 C1923 1.390 . S
C1928 C1927 1.387 . S
H1929 C1941 0.930 . S
H1930 C1943 0.930 . S
H1931 C1944 0.930 . S
H1932 C1948 0.959 . S
H1933 C1948 0.959 . S
H1934 C1948 0.961 . S
H1935 C1949 0.960 . S
H1936 C1949 0.961 . S
H1937 C1949 0.959 . S
H1938 C1952 0.929 . S
H1939 C1953 0.931 . S
H1940 C1955 0.930 . S
C1941 H1929 0.930 . S
C1941 C1942 1.399 . S
C1941 C1946 1.399 . S
C1942 C1941 1.399 . S
C1942 C1943 1.376 . S
C1943 H1930 0.930 . S
C1943 C1942 1.376 . S
C1943 C1944 1.388 . S
C1944 H1931 0.930 . S
C1944 C1943 1.388 . S
C1944 C1945 1.390 . S
C1945 C1944 1.390 . S
C1945 C1946 1.394 . S
C1945 C1951 1.465 . S
C1946 C1941 1.399 . S
C1946 C1945 1.394 . S
C1946 C1947 1.516 . S
C1947 C1946 1.516 . S
C1947 C1948 1.502 . S
C1947 C1949 1.561 . S
C1947 C1950 1.526 . S
C1948 H1932 0.959 . S
C1948 H1933 0.959 . S
C1948 H1934 0.961 . S
C1948 C1947 1.502 . S
C1949 H1935 0.960 . S
C1949 H1936 0.961 . S
C1949 H1937 0.959 . S
C1949 C1947 1.561 . S
C1950 C1947 1.526 . S
C1950 C1951 1.396 . S
C1950 C1955 1.390 . S
C1951 C1945 1.465 . S
C1951 C1950 1.396 . S
C1951 C1952 1.399 . S
C1952 H1938 0.929 . S
C1952 C1951 1.399 . S
C1952 C1953 1.385 . S
C1953 H1939 0.931 . S
C1953 C1952 1.385 . S
C1953 C1954 1.389 . S
C1954 C1953 1.389 . S
C1954 C1955 1.387 . S
C1955 H1940 0.930 . S
C1955 C1950 1.390 . S
C1955 C1954 1.387 . S
H1956 C1968 0.930 . S
H1957 C1970 0.930 . S
H1958 C1971 0.930 . S
H1959 C1975 0.964 . S
H1960 C1975 0.992 . S
H1961 C1975 0.926 1_565 S
H1962 C1976 0.944 1_565 S
H1963 C1976 0.976 . S
H1964 C1976 0.961 . S
H1965 C1979 0.929 . S
H1966 C1980 0.931 . S
H1967 C1982 0.930 . S
C1968 H1956 0.930 . S
C1968 C1969 1.399 . S
C1968 C1973 1.399 . S
C1969 C1968 1.399 . S
C1969 C1970 1.376 . S
C1970 H1957 0.930 . S
C1970 C1969 1.376 . S
C1970 C1971 1.388 . S
C1971 H1958 0.930 . S
C1971 C1970 1.388 . S
C1971 C1972 1.390 . S
C1972 C1971 1.390 . S
C1972 C1973 1.394 . S
C1972 C1978 1.465 1_565 S
C1973 C1968 1.399 . S
C1973 C1972 1.394 . S
C1973 C1974 1.505 1_565 S
C1974 C1973 1.505 1_545 S
C1974 C1975 1.501 . S
C1974 C1976 1.561 . S
C1974 C1977 1.537 . S
C1975 H1959 0.964 . S
C1975 H1960 0.992 . S
C1975 H1961 0.926 1_545 S
C1975 C1974 1.501 . S
C1976 H1962 0.944 1_545 S
C1976 H1963 0.976 . S
C1976 H1964 0.961 . S
C1976 C1974 1.561 . S
C1977 C1974 1.537 . S
C1977 C1978 1.396 . S
C1977 C1982 1.390 . S
C1978 C1972 1.465 1_545 S
C1978 C1977 1.396 . S
C1978 C1979 1.399 . S
C1979 H1965 0.929 . S
C1979 C1978 1.399 . S
C1979 C1980 1.385 . S
C1980 H1966 0.931 . S
C1980 C1979 1.385 . S
C1980 C1981 1.389 . S
C1981 C1980 1.389 . S
C1981 C1982 1.387 . S
C1982 H1967 0.930 . S
C1982 C1977 1.390 . S
C1982 C1981 1.387 . S
H1983 C1995 0.930 . S
H1984 C1997 0.930 . S
H1985 C1998 0.930 . S
H1986 C2002 0.959 . S
H1987 C2002 0.959 . S
H1988 C2002 0.961 . S
H1989 C2003 0.960 . S
H1990 C2003 0.961 . S
H1991 C2003 0.959 . S
H1992 C2006 0.929 . S
H1993 C2007 0.931 . S
H1994 C2009 0.930 . S
C1995 H1983 0.930 . S
C1995 C1996 1.399 . S
C1995 C2000 1.399 . S
C1996 C1995 1.399 . S
C1996 C1997 1.376 . S
C1997 H1984 0.930 . S
C1997 C1996 1.376 . S
C1997 C1998 1.388 . S
C1998 H1985 0.930 . S
C1998 C1997 1.388 . S
C1998 C1999 1.390 . S
C1999 C1998 1.390 . S
C1999 C2000 1.394 . S
C1999 C2005 1.465 . S
C2000 C1995 1.399 . S
C2000 C1999 1.394 . S
C2000 C2001 1.516 . S
C2001 C2000 1.516 . S
C2001 C2002 1.502 . S
C2001 C2003 1.561 . S
C2001 C2004 1.526 . S
C2002 H1986 0.959 . S
C2002 H1987 0.959 . S
C2002 H1988 0.961 . S
C2002 C2001 1.502 . S
C2003 H1989 0.960 . S
C2003 H1990 0.961 . S
C2003 H1991 0.959 . S
C2003 C2001 1.561 . S
C2004 C2001 1.526 . S
C2004 C2005 1.396 . S
C2004 C2009 1.390 . S
C2005 C1999 1.465 . S
C2005 C2004 1.396 . S
C2005 C2006 1.399 . S
C2006 H1992 0.929 . S
C2006 C2005 1.399 . S
C2006 C2007 1.385 . S
C2007 H1993 0.931 . S
C2007 C2006 1.385 . S
C2007 C2008 1.389 . S
C2008 C2007 1.389 . S
C2008 C2009 1.387 . S
C2009 H1994 0.930 . S
C2009 C2004 1.390 . S
C2009 C2008 1.387 . S
H2010 C2022 0.930 . S
H2011 C2024 0.930 . S
H2012 C2025 0.930 . S
H2013 C2029 0.961 . S
H2014 C2029 0.970 . S
H2015 C2029 0.949 1_565 S
H2016 C2030 0.962 . S
H2017 C2030 0.959 1_545 S
H2018 C2030 0.959 1_545 S
H2019 C2033 0.929 . S
H2020 C2034 0.931 . S
H2021 C2036 0.930 . S
C2022 H2010 0.930 . S
C2022 C2023 1.399 . S
C2022 C2027 1.399 . S
C2023 C2022 1.399 . S
C2023 C2024 1.376 . S
C2024 H2011 0.930 . S
C2024 C2023 1.376 . S
C2024 C2025 1.388 . S
C2025 H2012 0.930 . S
C2025 C2024 1.388 . S
C2025 C2026 1.390 . S
C2026 C2025 1.390 . S
C2026 C2027 1.394 . S
C2026 C2032 1.465 1_565 S
C2027 C2022 1.399 . S
C2027 C2026 1.394 . S
C2027 C2028 1.519 . S
C2028 C2027 1.519 . S
C2028 C2029 1.502 1_565 S
C2028 C2030 1.561 . S
C2028 C2031 1.523 1_565 S
C2029 H2013 0.961 . S
C2029 H2014 0.970 . S
C2029 H2015 0.949 1_545 S
C2029 C2028 1.502 1_545 S
C2030 H2016 0.962 . S
C2030 H2017 0.959 1_565 S
C2030 H2018 0.959 1_565 S
C2030 C2028 1.561 . S
C2031 C2028 1.523 1_545 S
C2031 C2032 1.396 . S
C2031 C2036 1.390 . S
C2032 C2026 1.465 1_545 S
C2032 C2031 1.396 . S
C2032 C2033 1.399 . S
C2033 H2019 0.929 . S
C2033 C2032 1.399 . S
C2033 C2034 1.385 . S
C2034 H2020 0.931 . S
C2034 C2033 1.385 . S
C2034 C2035 1.389 . S
C2035 C2034 1.389 . S
C2035 C2036 1.387 . S
C2036 H2021 0.930 . S
C2036 C2031 1.390 . S
C2036 C2035 1.387 . S
H2037 C2049 0.930 . S
H2038 C2051 0.930 . S
H2039 C2052 0.930 . S
H2040 C2056 0.960 . S
H2041 C2056 0.968 . S
H2042 C2056 0.951 1_545 S
H2043 C2057 0.956 . S
H2044 C2057 0.964 1_565 S
H2045 C2057 0.959 1_565 S
H2046 C2060 0.929 . S
H2047 C2061 0.931 . S
H2048 C2063 0.930 . S
C2049 H2037 0.930 . S
C2049 C2050 1.399 . S
C2049 C2054 1.399 . S
C2050 C2049 1.399 . S
C2050 C2051 1.376 . S
C2051 H2038 0.930 . S
C2051 C2050 1.376 . S
C2051 C2052 1.388 . S
C2052 H2039 0.930 . S
C2052 C2051 1.388 . S
C2052 C2053 1.390 . S
C2053 C2052 1.390 . S
C2053 C2054 1.394 . S
C2053 C2059 1.465 1_545 S
C2054 C2049 1.399 . S
C2054 C2053 1.394 . S
C2054 C2055 1.518 . S
C2055 C2054 1.518 . S
C2055 C2056 1.502 1_545 S
C2055 C2057 1.561 . S
C2055 C2058 1.524 1_545 S
C2056 H2040 0.960 . S
C2056 H2041 0.968 . S
C2056 H2042 0.951 1_565 S
C2056 C2055 1.502 1_565 S
C2057 H2043 0.956 . S
C2057 H2044 0.964 1_545 S
C2057 H2045 0.959 1_545 S
C2057 C2055 1.561 . S
C2058 C2055 1.524 1_565 S
C2058 C2059 1.396 . S
C2058 C2063 1.390 . S
C2059 C2053 1.465 1_565 S
C2059 C2058 1.396 . S
C2059 C2060 1.399 . S
C2060 H2046 0.929 . S
C2060 C2059 1.399 . S
C2060 C2061 1.385 . S
C2061 H2047 0.931 . S
C2061 C2060 1.385 . S
C2061 C2062 1.389 . S
C2062 C2061 1.389 . S
C2062 C2063 1.387 . S
C2063 H2048 0.930 . S
C2063 C2058 1.390 . S
C2063 C2062 1.387 . S
H2064 C2076 0.930 . S
H2065 C2078 0.930 . S
H2066 C2079 0.930 . S
H2067 C2083 0.959 . S
H2068 C2083 0.959 . S
H2069 C2083 0.961 . S
H2070 C2084 0.960 . S
H2071 C2084 0.961 . S
H2072 C2084 0.959 . S
H2073 C2087 0.929 . S
H2074 C2088 0.931 . S
H2075 C2090 0.930 . S
C2076 H2064 0.930 . S
C2076 C2077 1.399 . S
C2076 C2081 1.399 . S
C2077 C2076 1.399 . S
C2077 C2078 1.376 . S
C2078 H2065 0.930 . S
C2078 C2077 1.376 . S
C2078 C2079 1.388 . S
C2079 H2066 0.930 . S
C2079 C2078 1.388 . S
C2079 C2080 1.390 . S
C2080 C2079 1.390 . S
C2080 C2081 1.394 . S
C2080 C2086 1.465 . S
C2081 C2076 1.399 . S
C2081 C2080 1.394 . S
C2081 C2082 1.516 . S
C2082 C2081 1.516 . S
C2082 C2083 1.502 . S
C2082 C2084 1.561 . S
C2082 C2085 1.526 . S
C2083 H2067 0.959 . S
C2083 H2068 0.959 . S
C2083 H2069 0.961 . S
C2083 C2082 1.502 . S
C2084 H2070 0.960 . S
C2084 H2071 0.961 . S
C2084 H2072 0.959 . S
C2084 C2082 1.561 . S
C2085 C2082 1.526 . S
C2085 C2086 1.396 . S
C2085 C2090 1.390 . S
C2086 C2080 1.465 . S
C2086 C2085 1.396 . S
C2086 C2087 1.399 . S
C2087 H2073 0.929 . S
C2087 C2086 1.399 . S
C2087 C2088 1.385 . S
C2088 H2074 0.931 . S
C2088 C2087 1.385 . S
C2088 C2089 1.389 . S
C2089 C2088 1.389 . S
C2089 C2090 1.387 . S
C2090 H2075 0.930 . S
C2090 C2085 1.390 . S
C2090 C2089 1.387 . S
H2091 C2103 0.930 . S
H2092 C2105 0.930 . S
H2093 C2106 0.930 . S
H2094 C2110 0.959 . S
H2095 C2110 0.959 . S
H2096 C2110 0.961 . S
H2097 C2111 0.960 . S
H2098 C2111 0.961 . S
H2099 C2111 0.959 . S
H2100 C2114 0.929 . S
H2101 C2115 0.931 . S
H2102 C2117 0.930 . S
C2103 H2091 0.930 . S
C2103 C2104 1.399 . S
C2103 C2108 1.399 . S
C2104 C2103 1.399 . S
C2104 C2105 1.376 . S
C2105 H2092 0.930 . S
C2105 C2104 1.376 . S
C2105 C2106 1.388 . S
C2106 H2093 0.930 . S
C2106 C2105 1.388 . S
C2106 C2107 1.390 . S
C2107 C2106 1.390 . S
C2107 C2108 1.394 . S
C2107 C2113 1.465 . S
C2108 C2103 1.399 . S
C2108 C2107 1.394 . S
C2108 C2109 1.516 . S
C2109 C2108 1.516 . S
C2109 C2110 1.502 . S
C2109 C2111 1.561 . S
C2109 C2112 1.526 . S
C2110 H2094 0.959 . S
C2110 H2095 0.959 . S
C2110 H2096 0.961 . S
C2110 C2109 1.502 . S
C2111 H2097 0.960 . S
C2111 H2098 0.961 . S
C2111 H2099 0.959 . S
C2111 C2109 1.561 . S
C2112 C2109 1.526 . S
C2112 C2113 1.396 . S
C2112 C2117 1.390 . S
C2113 C2107 1.465 . S
C2113 C2112 1.396 . S
C2113 C2114 1.399 . S
C2114 H2100 0.929 . S
C2114 C2113 1.399 . S
C2114 C2115 1.385 . S
C2115 H2101 0.931 . S
C2115 C2114 1.385 . S
C2115 C2116 1.389 . S
C2116 C2115 1.389 . S
C2116 C2117 1.387 . S
C2117 H2102 0.930 . S
C2117 C2112 1.390 . S
C2117 C2116 1.387 . S
H2118 C2130 0.930 . S
H2119 C2132 0.930 . S
H2120 C2133 0.930 . S
H2121 C2137 0.959 . S
H2122 C2137 0.959 . S
H2123 C2137 0.961 . S
H2124 C2138 0.960 . S
H2125 C2138 0.961 . S
H2126 C2138 0.959 . S
H2127 C2141 0.929 . S
H2128 C2142 0.931 . S
H2129 C2144 0.930 . S
C2130 H2118 0.930 . S
C2130 C2131 1.399 . S
C2130 C2135 1.399 . S
C2131 C2130 1.399 . S
C2131 C2132 1.376 . S
C2132 H2119 0.930 . S
C2132 C2131 1.376 . S
C2132 C2133 1.388 . S
C2133 H2120 0.930 . S
C2133 C2132 1.388 . S
C2133 C2134 1.390 . S
C2134 C2133 1.390 . S
C2134 C2135 1.394 . S
C2134 C2140 1.465 . S
C2135 C2130 1.399 . S
C2135 C2134 1.394 . S
C2135 C2136 1.516 . S
C2136 C2135 1.516 . S
C2136 C2137 1.502 . S
C2136 C2138 1.561 . S
C2136 C2139 1.526 . S
C2137 H2121 0.959 . S
C2137 H2122 0.959 . S
C2137 H2123 0.961 . S
C2137 C2136 1.502 . S
C2138 H2124 0.960 . S
C2138 H2125 0.961 . S
C2138 H2126 0.959 . S
C2138 C2136 1.561 . S
C2139 C2136 1.526 . S
C2139 C2140 1.396 . S
C2139 C2144 1.390 . S
C2140 C2134 1.465 . S
C2140 C2139 1.396 . S
C2140 C2141 1.399 . S
C2141 H2127 0.929 . S
C2141 C2140 1.399 . S
C2141 C2142 1.385 . S
C2142 H2128 0.931 . S
C2142 C2141 1.385 . S
C2142 C2143 1.389 . S
C2143 C2142 1.389 . S
C2143 C2144 1.387 . S
C2144 H2129 0.930 . S
C2144 C2139 1.390 . S
C2144 C2143 1.387 . S
H2145 C2157 0.930 . S
H2146 C2159 0.930 . S
H2147 C2160 0.930 . S
H2148 C2164 0.959 . S
H2149 C2164 0.959 . S
H2150 C2164 0.961 . S
H2151 C2165 0.960 . S
H2152 C2165 0.961 . S
H2153 C2165 0.959 . S
H2154 C2168 0.929 . S
H2155 C2169 0.931 . S
H2156 C2171 0.930 . S
C2157 H2145 0.930 . S
C2157 C2158 1.399 . S
C2157 C2162 1.399 . S
C2158 C2157 1.399 . S
C2158 C2159 1.376 . S
C2159 H2146 0.930 . S
C2159 C2158 1.376 . S
C2159 C2160 1.388 . S
C2160 H2147 0.930 . S
C2160 C2159 1.388 . S
C2160 C2161 1.390 . S
C2161 C2160 1.390 . S
C2161 C2162 1.394 . S
C2161 C2167 1.465 . S
C2162 C2157 1.399 . S
C2162 C2161 1.394 . S
C2162 C2163 1.516 . S
C2163 C2162 1.516 . S
C2163 C2164 1.502 . S
C2163 C2165 1.561 . S
C2163 C2166 1.526 . S
C2164 H2148 0.959 . S
C2164 H2149 0.959 . S
C2164 H2150 0.961 . S
C2164 C2163 1.502 . S
C2165 H2151 0.960 . S
C2165 H2152 0.961 . S
C2165 H2153 0.959 . S
C2165 C2163 1.561 . S
C2166 C2163 1.526 . S
C2166 C2167 1.396 . S
C2166 C2171 1.390 . S
C2167 C2161 1.465 . S
C2167 C2166 1.396 . S
C2167 C2168 1.399 . S
C2168 H2154 0.929 . S
C2168 C2167 1.399 . S
C2168 C2169 1.385 . S
C2169 H2155 0.931 . S
C2169 C2168 1.385 . S
C2169 C2170 1.389 . S
C2170 C2169 1.389 . S
C2170 C2171 1.387 . S
C2171 H2156 0.930 . S
C2171 C2166 1.390 . S
C2171 C2170 1.387 . S
H2172 C2184 0.930 . S
H2173 C2186 0.930 . S
H2174 C2187 0.930 . S
H2175 C2191 0.959 . S
H2176 C2191 0.959 . S
H2177 C2191 0.961 . S
H2178 C2192 0.960 . S
H2179 C2192 0.961 . S
H2180 C2192 0.959 . S
H2181 C2195 0.929 . S
H2182 C2196 0.931 . S
H2183 C2198 0.930 . S
C2184 H2172 0.930 . S
C2184 C2185 1.399 . S
C2184 C2189 1.399 . S
C2185 C2184 1.399 . S
C2185 C2186 1.376 . S
C2186 H2173 0.930 . S
C2186 C2185 1.376 . S
C2186 C2187 1.388 . S
C2187 H2174 0.930 . S
C2187 C2186 1.388 . S
C2187 C2188 1.390 . S
C2188 C2187 1.390 . S
C2188 C2189 1.394 . S
C2188 C2194 1.465 . S
C2189 C2184 1.399 . S
C2189 C2188 1.394 . S
C2189 C2190 1.516 . S
C2190 C2189 1.516 . S
C2190 C2191 1.502 . S
C2190 C2192 1.561 . S
C2190 C2193 1.526 . S
C2191 H2175 0.959 . S
C2191 H2176 0.959 . S
C2191 H2177 0.961 . S
C2191 C2190 1.502 . S
C2192 H2178 0.960 . S
C2192 H2179 0.961 . S
C2192 H2180 0.959 . S
C2192 C2190 1.561 . S
C2193 C2190 1.526 . S
C2193 C2194 1.396 . S
C2193 C2198 1.390 . S
C2194 C2188 1.465 . S
C2194 C2193 1.396 . S
C2194 C2195 1.399 . S
C2195 H2181 0.929 . S
C2195 C2194 1.399 . S
C2195 C2196 1.385 . S
C2196 H2182 0.931 . S
C2196 C2195 1.385 . S
C2196 C2197 1.389 . S
C2197 C2196 1.389 . S
C2197 C2198 1.387 . S
C2198 H2183 0.930 . S
C2198 C2193 1.390 . S
C2198 C2197 1.387 . S
H2199 C2211 0.930 . S
H2200 C2213 0.930 . S
H2201 C2214 0.930 . S
H2202 C2218 0.959 . S
H2203 C2218 0.959 . S
H2204 C2218 0.961 . S
H2205 C2219 0.960 . S
H2206 C2219 0.961 . S
H2207 C2219 0.959 . S
H2208 C2222 0.929 . S
H2209 C2223 0.931 . S
H2210 C2225 0.930 . S
C2211 H2199 0.930 . S
C2211 C2212 1.399 . S
C2211 C2216 1.399 . S
C2212 C2211 1.399 . S
C2212 C2213 1.376 . S
C2213 H2200 0.930 . S
C2213 C2212 1.376 . S
C2213 C2214 1.388 . S
C2214 H2201 0.930 . S
C2214 C2213 1.388 . S
C2214 C2215 1.390 . S
C2215 C2214 1.390 . S
C2215 C2216 1.394 . S
C2215 C2221 1.465 . S
C2216 C2211 1.399 . S
C2216 C2215 1.394 . S
C2216 C2217 1.516 . S
C2217 C2216 1.516 . S
C2217 C2218 1.502 . S
C2217 C2219 1.561 . S
C2217 C2220 1.526 . S
C2218 H2202 0.959 . S
C2218 H2203 0.959 . S
C2218 H2204 0.961 . S
C2218 C2217 1.502 . S
C2219 H2205 0.960 . S
C2219 H2206 0.961 . S
C2219 H2207 0.959 . S
C2219 C2217 1.561 . S
C2220 C2217 1.526 . S
C2220 C2221 1.396 . S
C2220 C2225 1.390 . S
C2221 C2215 1.465 . S
C2221 C2220 1.396 . S
C2221 C2222 1.399 . S
C2222 H2208 0.929 . S
C2222 C2221 1.399 . S
C2222 C2223 1.385 . S
C2223 H2209 0.931 . S
C2223 C2222 1.385 . S
C2223 C2224 1.389 . S
C2224 C2223 1.389 . S
C2224 C2225 1.387 . S
C2225 H2210 0.930 . S
C2225 C2220 1.390 . S
C2225 C2224 1.387 . S
H2226 C2238 0.930 . S
H2227 C2240 0.930 . S
H2228 C2241 0.930 . S
H2229 C2245 0.959 . S
H2230 C2245 0.959 . S
H2231 C2245 0.961 . S
H2232 C2246 0.960 . S
H2233 C2246 0.961 . S
H2234 C2246 0.959 . S
H2235 C2249 0.929 . S
H2236 C2250 0.931 . S
H2237 C2252 0.930 . S
C2238 H2226 0.930 . S
C2238 C2239 1.399 . S
C2238 C2243 1.399 . S
C2239 C2238 1.399 . S
C2239 C2240 1.376 . S
C2240 H2227 0.930 . S
C2240 C2239 1.376 . S
C2240 C2241 1.388 . S
C2241 H2228 0.930 . S
C2241 C2240 1.388 . S
C2241 C2242 1.390 . S
C2242 C2241 1.390 . S
C2242 C2243 1.394 . S
C2242 C2248 1.465 . S
C2243 C2238 1.399 . S
C2243 C2242 1.394 . S
C2243 C2244 1.516 . S
C2244 C2243 1.516 . S
C2244 C2245 1.502 . S
C2244 C2246 1.561 . S
C2244 C2247 1.526 . S
C2245 H2229 0.959 . S
C2245 H2230 0.959 . S
C2245 H2231 0.961 . S
C2245 C2244 1.502 . S
C2246 H2232 0.960 . S
C2246 H2233 0.961 . S
C2246 H2234 0.959 . S
C2246 C2244 1.561 . S
C2247 C2244 1.526 . S
C2247 C2248 1.396 . S
C2247 C2252 1.390 . S
C2248 C2242 1.465 . S
C2248 C2247 1.396 . S
C2248 C2249 1.399 . S
C2249 H2235 0.929 . S
C2249 C2248 1.399 . S
C2249 C2250 1.385 . S
C2250 H2236 0.931 . S
C2250 C2249 1.385 . S
C2250 C2251 1.389 . S
C2251 C2250 1.389 . S
C2251 C2252 1.387 . S
C2252 H2237 0.930 . S
C2252 C2247 1.390 . S
C2252 C2251 1.387 . S
H2253 C2265 0.930 . S
H2254 C2267 0.930 . S
H2255 C2268 0.930 . S
H2256 C2272 0.959 . S
H2257 C2272 0.959 . S
H2258 C2272 0.961 . S
H2259 C2273 0.960 . S
H2260 C2273 0.961 . S
H2261 C2273 0.959 . S
H2262 C2276 0.929 . S
H2263 C2277 0.931 . S
H2264 C2279 0.930 . S
C2265 H2253 0.930 . S
C2265 C2266 1.399 . S
C2265 C2270 1.399 . S
C2266 C2265 1.399 . S
C2266 C2267 1.376 . S
C2267 H2254 0.930 . S
C2267 C2266 1.376 . S
C2267 C2268 1.388 . S
C2268 H2255 0.930 . S
C2268 C2267 1.388 . S
C2268 C2269 1.390 . S
C2269 C2268 1.390 . S
C2269 C2270 1.394 . S
C2269 C2275 1.465 . S
C2270 C2265 1.399 . S
C2270 C2269 1.394 . S
C2270 C2271 1.516 . S
C2271 C2270 1.516 . S
C2271 C2272 1.502 . S
C2271 C2273 1.561 . S
C2271 C2274 1.526 . S
C2272 H2256 0.959 . S
C2272 H2257 0.959 . S
C2272 H2258 0.961 . S
C2272 C2271 1.502 . S
C2273 H2259 0.960 . S
C2273 H2260 0.961 . S
C2273 H2261 0.959 . S
C2273 C2271 1.561 . S
C2274 C2271 1.526 . S
C2274 C2275 1.396 . S
C2274 C2279 1.390 . S
C2275 C2269 1.465 . S
C2275 C2274 1.396 . S
C2275 C2276 1.399 . S
C2276 H2262 0.929 . S
C2276 C2275 1.399 . S
C2276 C2277 1.385 . S
C2277 H2263 0.931 . S
C2277 C2276 1.385 . S
C2277 C2278 1.389 . S
C2278 C2277 1.389 . S
C2278 C2279 1.387 . S
C2279 H2264 0.930 . S
C2279 C2274 1.390 . S
C2279 C2278 1.387 . S
H2280 C2292 0.930 . S
H2281 C2294 0.930 . S
H2282 C2295 0.930 . S
H2283 C2299 0.959 . S
H2284 C2299 0.959 . S
H2285 C2299 0.961 . S
H2286 C2300 0.960 . S
H2287 C2300 0.961 . S
H2288 C2300 0.959 . S
H2289 C2303 0.929 . S
H2290 C2304 0.931 . S
H2291 C2306 0.930 . S
C2292 H2280 0.930 . S
C2292 C2293 1.399 . S
C2292 C2297 1.399 . S
C2293 C2292 1.399 . S
C2293 C2294 1.376 . S
C2294 H2281 0.930 . S
C2294 C2293 1.376 . S
C2294 C2295 1.388 . S
C2295 H2282 0.930 . S
C2295 C2294 1.388 . S
C2295 C2296 1.390 . S
C2296 C2295 1.390 . S
C2296 C2297 1.394 . S
C2296 C2302 1.465 . S
C2297 C2292 1.399 . S
C2297 C2296 1.394 . S
C2297 C2298 1.516 . S
C2298 C2297 1.516 . S
C2298 C2299 1.502 . S
C2298 C2300 1.561 . S
C2298 C2301 1.526 . S
C2299 H2283 0.959 . S
C2299 H2284 0.959 . S
C2299 H2285 0.961 . S
C2299 C2298 1.502 . S
C2300 H2286 0.960 . S
C2300 H2287 0.961 . S
C2300 H2288 0.959 . S
C2300 C2298 1.561 . S
C2301 C2298 1.526 . S
C2301 C2302 1.396 . S
C2301 C2306 1.390 . S
C2302 C2296 1.465 . S
C2302 C2301 1.396 . S
C2302 C2303 1.399 . S
C2303 H2289 0.929 . S
C2303 C2302 1.399 . S
C2303 C2304 1.385 . S
C2304 H2290 0.931 . S
C2304 C2303 1.385 . S
C2304 C2305 1.389 . S
C2305 C2304 1.389 . S
C2305 C2306 1.387 . S
C2306 H2291 0.930 . S
C2306 C2301 1.390 . S
C2306 C2305 1.387 . S
H2307 C2319 0.930 . S
H2308 C2321 0.930 . S
H2309 C2322 0.930 . S
H2310 C2326 0.959 . S
H2311 C2326 0.959 . S
H2312 C2326 0.961 . S
H2313 C2327 0.960 . S
H2314 C2327 0.961 . S
H2315 C2327 0.959 . S
H2316 C2330 0.929 . S
H2317 C2331 0.931 . S
H2318 C2333 0.930 . S
C2319 H2307 0.930 . S
C2319 C2320 1.399 . S
C2319 C2324 1.399 . S
C2320 C2319 1.399 . S
C2320 C2321 1.376 . S
C2321 H2308 0.930 . S
C2321 C2320 1.376 . S
C2321 C2322 1.388 . S
C2322 H2309 0.930 . S
C2322 C2321 1.388 . S
C2322 C2323 1.390 . S
C2323 C2322 1.390 . S
C2323 C2324 1.394 . S
C2323 C2329 1.465 . S
C2324 C2319 1.399 . S
C2324 C2323 1.394 . S
C2324 C2325 1.516 . S
C2325 C2324 1.516 . S
C2325 C2326 1.502 . S
C2325 C2327 1.561 . S
C2325 C2328 1.526 . S
C2326 H2310 0.959 . S
C2326 H2311 0.959 . S
C2326 H2312 0.961 . S
C2326 C2325 1.502 . S
C2327 H2313 0.960 . S
C2327 H2314 0.961 . S
C2327 H2315 0.959 . S
C2327 C2325 1.561 . S
C2328 C2325 1.526 . S
C2328 C2329 1.396 . S
C2328 C2333 1.390 . S
C2329 C2323 1.465 . S
C2329 C2328 1.396 . S
C2329 C2330 1.399 . S
C2330 H2316 0.929 . S
C2330 C2329 1.399 . S
C2330 C2331 1.385 . S
C2331 H2317 0.931 . S
C2331 C2330 1.385 . S
C2331 C2332 1.389 . S
C2332 C2331 1.389 . S
C2332 C2333 1.387 . S
C2333 H2318 0.930 . S
C2333 C2328 1.390 . S
C2333 C2332 1.387 . S
H2334 C2346 0.930 . S
H2335 C2348 0.930 . S
H2336 C2349 0.930 . S
H2337 C2353 0.959 . S
H2338 C2353 0.959 . S
H2339 C2353 0.961 . S
H2340 C2354 0.960 . S
H2341 C2354 0.961 . S
H2342 C2354 0.959 . S
H2343 C2357 0.929 . S
H2344 C2358 0.931 . S
H2345 C2360 0.930 . S
C2346 H2334 0.930 . S
C2346 C2347 1.399 . S
C2346 C2351 1.399 . S
C2347 C2346 1.399 . S
C2347 C2348 1.376 . S
C2348 H2335 0.930 . S
C2348 C2347 1.376 . S
C2348 C2349 1.388 . S
C2349 H2336 0.930 . S
C2349 C2348 1.388 . S
C2349 C2350 1.390 . S
C2350 C2349 1.390 . S
C2350 C2351 1.394 . S
C2350 C2356 1.465 . S
C2351 C2346 1.399 . S
C2351 C2350 1.394 . S
C2351 C2352 1.516 . S
C2352 C2351 1.516 . S
C2352 C2353 1.502 . S
C2352 C2354 1.561 . S
C2352 C2355 1.526 . S
C2353 H2337 0.959 . S
C2353 H2338 0.959 . S
C2353 H2339 0.961 . S
C2353 C2352 1.502 . S
C2354 H2340 0.960 . S
C2354 H2341 0.961 . S
C2354 H2342 0.959 . S
C2354 C2352 1.561 . S
C2355 C2352 1.526 . S
C2355 C2356 1.396 . S
C2355 C2360 1.390 . S
C2356 C2350 1.465 . S
C2356 C2355 1.396 . S
C2356 C2357 1.399 . S
C2357 H2343 0.929 . S
C2357 C2356 1.399 . S
C2357 C2358 1.385 . S
C2358 H2344 0.931 . S
C2358 C2357 1.385 . S
C2358 C2359 1.389 . S
C2359 C2358 1.389 . S
C2359 C2360 1.387 . S
C2360 H2345 0.930 . S
C2360 C2355 1.390 . S
C2360 C2359 1.387 . S
H2361 C2373 0.930 . S
H2362 C2375 0.930 . S
H2363 C2376 0.930 . S
H2364 C2380 0.959 . S
H2365 C2380 0.959 . S
H2366 C2380 0.961 . S
H2367 C2381 0.960 . S
H2368 C2381 0.961 . S
H2369 C2381 0.959 . S
H2370 C2384 0.929 . S
H2371 C2385 0.931 . S
H2372 C2387 0.930 . S
C2373 H2361 0.930 . S
C2373 C2374 1.399 . S
C2373 C2378 1.399 . S
C2374 C2373 1.399 . S
C2374 C2375 1.376 . S
C2375 H2362 0.930 . S
C2375 C2374 1.376 . S
C2375 C2376 1.388 . S
C2376 H2363 0.930 . S
C2376 C2375 1.388 . S
C2376 C2377 1.390 . S
C2377 C2376 1.390 . S
C2377 C2378 1.394 . S
C2377 C2383 1.465 . S
C2378 C2373 1.399 . S
C2378 C2377 1.394 . S
C2378 C2379 1.516 . S
C2379 C2378 1.516 . S
C2379 C2380 1.502 . S
C2379 C2381 1.561 . S
C2379 C2382 1.526 . S
C2380 H2364 0.959 . S
C2380 H2365 0.959 . S
C2380 H2366 0.961 . S
C2380 C2379 1.502 . S
C2381 H2367 0.960 . S
C2381 H2368 0.961 . S
C2381 H2369 0.959 . S
C2381 C2379 1.561 . S
C2382 C2379 1.526 . S
C2382 C2383 1.396 . S
C2382 C2387 1.390 . S
C2383 C2377 1.465 . S
C2383 C2382 1.396 . S
C2383 C2384 1.399 . S
C2384 H2370 0.929 . S
C2384 C2383 1.399 . S
C2384 C2385 1.385 . S
C2385 H2371 0.931 . S
C2385 C2384 1.385 . S
C2385 C2386 1.389 . S
C2386 C2385 1.389 . S
C2386 C2387 1.387 . S
C2387 H2372 0.930 . S
C2387 C2382 1.390 . S
C2387 C2386 1.387 . S
H2388 C2400 0.930 . S
H2389 C2402 0.930 . S
H2390 C2403 0.930 . S
H2391 C2407 0.959 . S
H2392 C2407 0.959 . S
H2393 C2407 0.961 . S
H2394 C2408 0.960 . S
H2395 C2408 0.961 . S
H2396 C2408 0.959 . S
H2397 C2411 0.929 . S
H2398 C2412 0.931 . S
H2399 C2414 0.930 . S
C2400 H2388 0.930 . S
C2400 C2401 1.399 . S
C2400 C2405 1.399 . S
C2401 C2400 1.399 . S
C2401 C2402 1.376 . S
C2402 H2389 0.930 . S
C2402 C2401 1.376 . S
C2402 C2403 1.388 . S
C2403 H2390 0.930 . S
C2403 C2402 1.388 . S
C2403 C2404 1.390 . S
C2404 C2403 1.390 . S
C2404 C2405 1.394 . S
C2404 C2410 1.465 . S
C2405 C2400 1.399 . S
C2405 C2404 1.394 . S
C2405 C2406 1.516 . S
C2406 C2405 1.516 . S
C2406 C2407 1.502 . S
C2406 C2408 1.561 . S
C2406 C2409 1.526 . S
C2407 H2391 0.959 . S
C2407 H2392 0.959 . S
C2407 H2393 0.961 . S
C2407 C2406 1.502 . S
C2408 H2394 0.960 . S
C2408 H2395 0.961 . S
C2408 H2396 0.959 . S
C2408 C2406 1.561 . S
C2409 C2406 1.526 . S
C2409 C2410 1.396 . S
C2409 C2414 1.390 . S
C2410 C2404 1.465 . S
C2410 C2409 1.396 . S
C2410 C2411 1.399 . S
C2411 H2397 0.929 . S
C2411 C2410 1.399 . S
C2411 C2412 1.385 . S
C2412 H2398 0.931 . S
C2412 C2411 1.385 . S
C2412 C2413 1.389 . S
C2413 C2412 1.389 . S
C2413 C2414 1.387 . S
C2414 H2399 0.930 . S
C2414 C2409 1.390 . S
C2414 C2413 1.387 . S
H2415 C2427 0.930 . S
H2416 C2429 0.930 . S
H2417 C2430 0.930 . S
H2418 C2434 0.959 . S
H2419 C2434 0.959 . S
H2420 C2434 0.961 . S
H2421 C2435 0.960 . S
H2422 C2435 0.961 . S
H2423 C2435 0.959 . S
H2424 C2438 0.929 . S
H2425 C2439 0.931 . S
H2426 C2441 0.930 . S
C2427 H2415 0.930 . S
C2427 C2428 1.399 . S
C2427 C2432 1.399 . S
C2428 C2427 1.399 . S
C2428 C2429 1.376 . S
C2429 H2416 0.930 . S
C2429 C2428 1.376 . S
C2429 C2430 1.388 . S
C2430 H2417 0.930 . S
C2430 C2429 1.388 . S
C2430 C2431 1.390 . S
C2431 C2430 1.390 . S
C2431 C2432 1.394 . S
C2431 C2437 1.465 . S
C2432 C2427 1.399 . S
C2432 C2431 1.394 . S
C2432 C2433 1.516 . S
C2433 C2432 1.516 . S
C2433 C2434 1.502 . S
C2433 C2435 1.561 . S
C2433 C2436 1.526 . S
C2434 H2418 0.959 . S
C2434 H2419 0.959 . S
C2434 H2420 0.961 . S
C2434 C2433 1.502 . S
C2435 H2421 0.960 . S
C2435 H2422 0.961 . S
C2435 H2423 0.959 . S
C2435 C2433 1.561 . S
C2436 C2433 1.526 . S
C2436 C2437 1.396 . S
C2436 C2441 1.390 . S
C2437 C2431 1.465 . S
C2437 C2436 1.396 . S
C2437 C2438 1.399 . S
C2438 H2424 0.929 . S
C2438 C2437 1.399 . S
C2438 C2439 1.385 . S
C2439 H2425 0.931 . S
C2439 C2438 1.385 . S
C2439 C2440 1.389 . S
C2440 C2439 1.389 . S
C2440 C2441 1.387 . S
C2441 H2426 0.930 . S
C2441 C2436 1.390 . S
C2441 C2440 1.387 . S
H2442 C2454 0.930 . S
H2443 C2456 0.930 . S
H2444 C2457 0.930 . S
H2445 C2461 0.959 . S
H2446 C2461 0.959 . S
H2447 C2461 0.961 . S
H2448 C2462 0.960 . S
H2449 C2462 0.961 . S
H2450 C2462 0.959 . S
H2451 C2465 0.929 . S
H2452 C2466 0.931 . S
H2453 C2468 0.930 . S
C2454 H2442 0.930 . S
C2454 C2455 1.399 . S
C2454 C2459 1.399 . S
C2455 C2454 1.399 . S
C2455 C2456 1.376 . S
C2456 H2443 0.930 . S
C2456 C2455 1.376 . S
C2456 C2457 1.388 . S
C2457 H2444 0.930 . S
C2457 C2456 1.388 . S
C2457 C2458 1.390 . S
C2458 C2457 1.390 . S
C2458 C2459 1.394 . S
C2458 C2464 1.465 . S
C2459 C2454 1.399 . S
C2459 C2458 1.394 . S
C2459 C2460 1.516 . S
C2460 C2459 1.516 . S
C2460 C2461 1.502 . S
C2460 C2462 1.561 . S
C2460 C2463 1.526 . S
C2461 H2445 0.959 . S
C2461 H2446 0.959 . S
C2461 H2447 0.961 . S
C2461 C2460 1.502 . S
C2462 H2448 0.960 . S
C2462 H2449 0.961 . S
C2462 H2450 0.959 . S
C2462 C2460 1.561 . S
C2463 C2460 1.526 . S
C2463 C2464 1.396 . S
C2463 C2468 1.390 . S
C2464 C2458 1.465 . S
C2464 C2463 1.396 . S
C2464 C2465 1.399 . S
C2465 H2451 0.929 . S
C2465 C2464 1.399 . S
C2465 C2466 1.385 . S
C2466 H2452 0.931 . S
C2466 C2465 1.385 . S
C2466 C2467 1.389 . S
C2467 C2466 1.389 . S
C2467 C2468 1.387 . S
C2468 H2453 0.930 . S
C2468 C2463 1.390 . S
C2468 C2467 1.387 . S
H2469 C2481 0.930 . S
H2470 C2483 0.930 . S
H2471 C2484 0.930 . S
H2472 C2488 0.959 . S
H2473 C2488 0.959 . S
H2474 C2488 0.961 . S
H2475 C2489 0.960 . S
H2476 C2489 0.961 . S
H2477 C2489 0.959 . S
H2478 C2492 0.929 . S
H2479 C2493 0.931 . S
H2480 C2495 0.930 . S
C2481 H2469 0.930 . S
C2481 C2482 1.399 . S
C2481 C2486 1.399 . S
C2482 C2481 1.399 . S
C2482 C2483 1.376 . S
C2483 H2470 0.930 . S
C2483 C2482 1.376 . S
C2483 C2484 1.388 . S
C2484 H2471 0.930 . S
C2484 C2483 1.388 . S
C2484 C2485 1.390 . S
C2485 C2484 1.390 . S
C2485 C2486 1.394 . S
C2485 C2491 1.465 . S
C2486 C2481 1.399 . S
C2486 C2485 1.394 . S
C2486 C2487 1.516 . S
C2487 C2486 1.516 . S
C2487 C2488 1.502 . S
C2487 C2489 1.561 . S
C2487 C2490 1.526 . S
C2488 H2472 0.959 . S
C2488 H2473 0.959 . S
C2488 H2474 0.961 . S
C2488 C2487 1.502 . S
C2489 H2475 0.960 . S
C2489 H2476 0.961 . S
C2489 H2477 0.959 . S
C2489 C2487 1.561 . S
C2490 C2487 1.526 . S
C2490 C2491 1.396 . S
C2490 C2495 1.390 . S
C2491 C2485 1.465 . S
C2491 C2490 1.396 . S
C2491 C2492 1.399 . S
C2492 H2478 0.929 . S
C2492 C2491 1.399 . S
C2492 C2493 1.385 . S
C2493 H2479 0.931 . S
C2493 C2492 1.385 . S
C2493 C2494 1.389 . S
C2494 C2493 1.389 . S
C2494 C2495 1.387 . S
C2495 H2480 0.930 . S
C2495 C2490 1.390 . S
C2495 C2494 1.387 . S
H2496 C2508 0.930 . S
H2497 C2510 0.930 . S
H2498 C2511 0.930 . S
H2499 C2515 0.959 . S
H2500 C2515 0.959 . S
H2501 C2515 0.961 . S
H2502 C2516 0.960 . S
H2503 C2516 0.961 . S
H2504 C2516 0.959 . S
H2505 C2519 0.929 . S
H2506 C2520 0.931 . S
H2507 C2522 0.930 . S
C2508 H2496 0.930 . S
C2508 C2509 1.399 . S
C2508 C2513 1.399 . S
C2509 C2508 1.399 . S
C2509 C2510 1.376 . S
C2510 H2497 0.930 . S
C2510 C2509 1.376 . S
C2510 C2511 1.388 . S
C2511 H2498 0.930 . S
C2511 C2510 1.388 . S
C2511 C2512 1.390 . S
C2512 C2511 1.390 . S
C2512 C2513 1.394 . S
C2512 C2518 1.465 . S
C2513 C2508 1.399 . S
C2513 C2512 1.394 . S
C2513 C2514 1.516 . S
C2514 C2513 1.516 . S
C2514 C2515 1.502 . S
C2514 C2516 1.561 . S
C2514 C2517 1.526 . S
C2515 H2499 0.959 . S
C2515 H2500 0.959 . S
C2515 H2501 0.961 . S
C2515 C2514 1.502 . S
C2516 H2502 0.960 . S
C2516 H2503 0.961 . S
C2516 H2504 0.959 . S
C2516 C2514 1.561 . S
C2517 C2514 1.526 . S
C2517 C2518 1.396 . S
C2517 C2522 1.390 . S
C2518 C2512 1.465 . S
C2518 C2517 1.396 . S
C2518 C2519 1.399 . S
C2519 H2505 0.929 . S
C2519 C2518 1.399 . S
C2519 C2520 1.385 . S
C2520 H2506 0.931 . S
C2520 C2519 1.385 . S
C2520 C2521 1.389 . S
C2521 C2520 1.389 . S
C2521 C2522 1.387 . S
C2522 H2507 0.930 . S
C2522 C2517 1.390 . S
C2522 C2521 1.387 . S
H2523 C2535 0.930 . S
H2524 C2537 0.930 . S
H2525 C2538 0.930 . S
H2526 C2542 0.959 . S
H2527 C2542 0.959 . S
H2528 C2542 0.961 . S
H2529 C2543 0.960 . S
H2530 C2543 0.961 . S
H2531 C2543 0.959 . S
H2532 C2546 0.929 . S
H2533 C2547 0.931 . S
H2534 C2549 0.930 . S
C2535 H2523 0.930 . S
C2535 C2536 1.399 . S
C2535 C2540 1.399 . S
C2536 C2535 1.399 . S
C2536 C2537 1.376 . S
C2537 H2524 0.930 . S
C2537 C2536 1.376 . S
C2537 C2538 1.388 . S
C2538 H2525 0.930 . S
C2538 C2537 1.388 . S
C2538 C2539 1.390 . S
C2539 C2538 1.390 . S
C2539 C2540 1.394 . S
C2539 C2545 1.465 . S
C2540 C2535 1.399 . S
C2540 C2539 1.394 . S
C2540 C2541 1.516 . S
C2541 C2540 1.516 . S
C2541 C2542 1.502 . S
C2541 C2543 1.561 . S
C2541 C2544 1.526 . S
C2542 H2526 0.959 . S
C2542 H2527 0.959 . S
C2542 H2528 0.961 . S
C2542 C2541 1.502 . S
C2543 H2529 0.960 . S
C2543 H2530 0.961 . S
C2543 H2531 0.959 . S
C2543 C2541 1.561 . S
C2544 C2541 1.526 . S
C2544 C2545 1.396 . S
C2544 C2549 1.390 . S
C2545 C2539 1.465 . S
C2545 C2544 1.396 . S
C2545 C2546 1.399 . S
C2546 H2532 0.929 . S
C2546 C2545 1.399 . S
C2546 C2547 1.385 . S
C2547 H2533 0.931 . S
C2547 C2546 1.385 . S
C2547 C2548 1.389 . S
C2548 C2547 1.389 . S
C2548 C2549 1.387 . S
C2549 H2534 0.930 . S
C2549 C2544 1.390 . S
C2549 C2548 1.387 . S
H2550 C2562 0.930 . S
H2551 C2564 0.930 . S
H2552 C2565 0.930 . S
H2553 C2569 0.959 . S
H2554 C2569 0.959 . S
H2555 C2569 0.961 . S
H2556 C2570 0.960 . S
H2557 C2570 0.961 . S
H2558 C2570 0.959 . S
H2559 C2573 0.929 . S
H2560 C2574 0.931 . S
H2561 C2576 0.930 . S
C2562 H2550 0.930 . S
C2562 C2563 1.399 . S
C2562 C2567 1.399 . S
C2563 C2562 1.399 . S
C2563 C2564 1.376 . S
C2564 H2551 0.930 . S
C2564 C2563 1.376 . S
C2564 C2565 1.388 . S
C2565 H2552 0.930 . S
C2565 C2564 1.388 . S
C2565 C2566 1.390 . S
C2566 C2565 1.390 . S
C2566 C2567 1.394 . S
C2566 C2572 1.465 . S
C2567 C2562 1.399 . S
C2567 C2566 1.394 . S
C2567 C2568 1.516 . S
C2568 C2567 1.516 . S
C2568 C2569 1.502 . S
C2568 C2570 1.561 . S
C2568 C2571 1.526 . S
C2569 H2553 0.959 . S
C2569 H2554 0.959 . S
C2569 H2555 0.961 . S
C2569 C2568 1.502 . S
C2570 H2556 0.960 . S
C2570 H2557 0.961 . S
C2570 H2558 0.959 . S
C2570 C2568 1.561 . S
C2571 C2568 1.526 . S
C2571 C2572 1.396 . S
C2571 C2576 1.390 . S
C2572 C2566 1.465 . S
C2572 C2571 1.396 . S
C2572 C2573 1.399 . S
C2573 H2559 0.929 . S
C2573 C2572 1.399 . S
C2573 C2574 1.385 . S
C2574 H2560 0.931 . S
C2574 C2573 1.385 . S
C2574 C2575 1.389 . S
C2575 C2574 1.389 . S
C2575 C2576 1.387 . S
C2576 H2561 0.930 . S
C2576 C2571 1.390 . S
C2576 C2575 1.387 . S
H2577 C2589 0.930 . S
H2578 C2591 0.930 . S
H2579 C2592 0.930 . S
H2580 C2596 0.959 . S
H2581 C2596 0.959 . S
H2582 C2596 0.961 . S
H2583 C2597 0.960 . S
H2584 C2597 0.961 . S
H2585 C2597 0.959 . S
H2586 C2600 0.929 . S
H2587 C2601 0.931 . S
H2588 C2603 0.930 . S
C2589 H2577 0.930 . S
C2589 C2590 1.399 . S
C2589 C2594 1.399 . S
C2590 C2589 1.399 . S
C2590 C2591 1.376 . S
C2591 H2578 0.930 . S
C2591 C2590 1.376 . S
C2591 C2592 1.388 . S
C2592 H2579 0.930 . S
C2592 C2591 1.388 . S
C2592 C2593 1.390 . S
C2593 C2592 1.390 . S
C2593 C2594 1.394 . S
C2593 C2599 1.465 . S
C2594 C2589 1.399 . S
C2594 C2593 1.394 . S
C2594 C2595 1.516 . S
C2595 C2594 1.516 . S
C2595 C2596 1.502 . S
C2595 C2597 1.561 . S
C2595 C2598 1.526 . S
C2596 H2580 0.959 . S
C2596 H2581 0.959 . S
C2596 H2582 0.961 . S
C2596 C2595 1.502 . S
C2597 H2583 0.960 . S
C2597 H2584 0.961 . S
C2597 H2585 0.959 . S
C2597 C2595 1.561 . S
C2598 C2595 1.526 . S
C2598 C2599 1.396 . S
C2598 C2603 1.390 . S
C2599 C2593 1.465 . S
C2599 C2598 1.396 . S
C2599 C2600 1.399 . S
C2600 H2586 0.929 . S
C2600 C2599 1.399 . S
C2600 C2601 1.385 . S
C2601 H2587 0.931 . S
C2601 C2600 1.385 . S
C2601 C2602 1.389 . S
C2602 C2601 1.389 . S
C2602 C2603 1.387 . S
C2603 H2588 0.930 . S
C2603 C2598 1.390 . S
C2603 C2602 1.387 . S
H2604 C2616 0.930 . S
H2605 C2618 0.930 . S
H2606 C2619 0.930 . S
H2607 C2623 0.959 . S
H2608 C2623 0.959 . S
H2609 C2623 0.961 . S
H2610 C2624 0.960 . S
H2611 C2624 0.961 . S
H2612 C2624 0.959 . S
H2613 C2627 0.929 . S
H2614 C2628 0.931 . S
H2615 C2630 0.930 . S
C2616 H2604 0.930 . S
C2616 C2617 1.399 . S
C2616 C2621 1.399 . S
C2617 C2616 1.399 . S
C2617 C2618 1.376 . S
C2618 H2605 0.930 . S
C2618 C2617 1.376 . S
C2618 C2619 1.388 . S
C2619 H2606 0.930 . S
C2619 C2618 1.388 . S
C2619 C2620 1.390 . S
C2620 C2619 1.390 . S
C2620 C2621 1.394 . S
C2620 C2626 1.465 . S
C2621 C2616 1.399 . S
C2621 C2620 1.394 . S
C2621 C2622 1.516 . S
C2622 C2621 1.516 . S
C2622 C2623 1.502 . S
C2622 C2624 1.561 . S
C2622 C2625 1.526 . S
C2623 H2607 0.959 . S
C2623 H2608 0.959 . S
C2623 H2609 0.961 . S
C2623 C2622 1.502 . S
C2624 H2610 0.960 . S
C2624 H2611 0.961 . S
C2624 H2612 0.959 . S
C2624 C2622 1.561 . S
C2625 C2622 1.526 . S
C2625 C2626 1.396 . S
C2625 C2630 1.390 . S
C2626 C2620 1.465 . S
C2626 C2625 1.396 . S
C2626 C2627 1.399 . S
C2627 H2613 0.929 . S
C2627 C2626 1.399 . S
C2627 C2628 1.385 . S
C2628 H2614 0.931 . S
C2628 C2627 1.385 . S
C2628 C2629 1.389 . S
C2629 C2628 1.389 . S
C2629 C2630 1.387 . S
C2630 H2615 0.930 . S
C2630 C2625 1.390 . S
C2630 C2629 1.387 . S
H2631 C2643 0.930 . S
H2632 C2645 0.930 . S
H2633 C2646 0.930 . S
H2634 C2650 0.959 . S
H2635 C2650 0.959 . S
H2636 C2650 0.961 . S
H2637 C2651 0.960 . S
H2638 C2651 0.961 . S
H2639 C2651 0.959 . S
H2640 C2654 0.929 . S
H2641 C2655 0.931 . S
H2642 C2657 0.930 . S
C2643 H2631 0.930 . S
C2643 C2644 1.399 . S
C2643 C2648 1.399 . S
C2644 C2643 1.399 . S
C2644 C2645 1.376 . S
C2645 H2632 0.930 . S
C2645 C2644 1.376 . S
C2645 C2646 1.388 . S
C2646 H2633 0.930 . S
C2646 C2645 1.388 . S
C2646 C2647 1.390 . S
C2647 C2646 1.390 . S
C2647 C2648 1.394 . S
C2647 C2653 1.465 . S
C2648 C2643 1.399 . S
C2648 C2647 1.394 . S
C2648 C2649 1.516 . S
C2649 C2648 1.516 . S
C2649 C2650 1.502 . S
C2649 C2651 1.561 . S
C2649 C2652 1.526 . S
C2650 H2634 0.959 . S
C2650 H2635 0.959 . S
C2650 H2636 0.961 . S
C2650 C2649 1.502 . S
C2651 H2637 0.960 . S
C2651 H2638 0.961 . S
C2651 H2639 0.959 . S
C2651 C2649 1.561 . S
C2652 C2649 1.526 . S
C2652 C2653 1.396 . S
C2652 C2657 1.390 . S
C2653 C2647 1.465 . S
C2653 C2652 1.396 . S
C2653 C2654 1.399 . S
C2654 H2640 0.929 . S
C2654 C2653 1.399 . S
C2654 C2655 1.385 . S
C2655 H2641 0.931 . S
C2655 C2654 1.385 . S
C2655 C2656 1.389 . S
C2656 C2655 1.389 . S
C2656 C2657 1.387 . S
C2657 H2642 0.930 . S
C2657 C2652 1.390 . S
C2657 C2656 1.387 . S
H2658 C2670 0.930 . S
H2659 C2672 0.930 . S
H2660 C2673 0.930 . S
H2661 C2677 0.959 . S
H2662 C2677 0.959 . S
H2663 C2677 0.961 . S
H2664 C2678 0.960 . S
H2665 C2678 0.961 . S
H2666 C2678 0.959 . S
H2667 C2681 0.929 . S
H2668 C2682 0.931 . S
H2669 C2684 0.930 . S
C2670 H2658 0.930 . S
C2670 C2671 1.399 . S
C2670 C2675 1.399 . S
C2671 C2670 1.399 . S
C2671 C2672 1.376 . S
C2672 H2659 0.930 . S
C2672 C2671 1.376 . S
C2672 C2673 1.388 . S
C2673 H2660 0.930 . S
C2673 C2672 1.388 . S
C2673 C2674 1.390 . S
C2674 C2673 1.390 . S
C2674 C2675 1.394 . S
C2674 C2680 1.465 . S
C2675 C2670 1.399 . S
C2675 C2674 1.394 . S
C2675 C2676 1.516 . S
C2676 C2675 1.516 . S
C2676 C2677 1.502 . S
C2676 C2678 1.561 . S
C2676 C2679 1.526 . S
C2677 H2661 0.959 . S
C2677 H2662 0.959 . S
C2677 H2663 0.961 . S
C2677 C2676 1.502 . S
C2678 H2664 0.960 . S
C2678 H2665 0.961 . S
C2678 H2666 0.959 . S
C2678 C2676 1.561 . S
C2679 C2676 1.526 . S
C2679 C2680 1.396 . S
C2679 C2684 1.390 . S
C2680 C2674 1.465 . S
C2680 C2679 1.396 . S
C2680 C2681 1.399 . S
C2681 H2667 0.929 . S
C2681 C2680 1.399 . S
C2681 C2682 1.385 . S
C2682 H2668 0.931 . S
C2682 C2681 1.385 . S
C2682 C2683 1.389 . S
C2683 C2682 1.389 . S
C2683 C2684 1.387 . S
C2684 H2669 0.930 . S
C2684 C2679 1.390 . S
C2684 C2683 1.387 . S
H2685 C2697 0.930 . S
H2686 C2699 0.930 . S
H2687 C2700 0.930 . S
H2688 C2704 0.959 . S
H2689 C2704 0.959 . S
H2690 C2704 0.961 . S
H2691 C2705 0.960 . S
H2692 C2705 0.961 . S
H2693 C2705 0.959 . S
H2694 C2708 0.929 . S
H2695 C2709 0.931 . S
H2696 C2711 0.930 . S
C2697 H2685 0.930 . S
C2697 C2698 1.399 . S
C2697 C2702 1.399 . S
C2698 C2697 1.399 . S
C2698 C2699 1.376 . S
C2699 H2686 0.930 . S
C2699 C2698 1.376 . S
C2699 C2700 1.388 . S
C2700 H2687 0.930 . S
C2700 C2699 1.388 . S
C2700 C2701 1.390 . S
C2701 C2700 1.390 . S
C2701 C2702 1.394 . S
C2701 C2707 1.465 . S
C2702 C2697 1.399 . S
C2702 C2701 1.394 . S
C2702 C2703 1.516 . S
C2703 C2702 1.516 . S
C2703 C2704 1.502 . S
C2703 C2705 1.561 . S
C2703 C2706 1.526 . S
C2704 H2688 0.959 . S
C2704 H2689 0.959 . S
C2704 H2690 0.961 . S
C2704 C2703 1.502 . S
C2705 H2691 0.960 . S
C2705 H2692 0.961 . S
C2705 H2693 0.959 . S
C2705 C2703 1.561 . S
C2706 C2703 1.526 . S
C2706 C2707 1.396 . S
C2706 C2711 1.390 . S
C2707 C2701 1.465 . S
C2707 C2706 1.396 . S
C2707 C2708 1.399 . S
C2708 H2694 0.929 . S
C2708 C2707 1.399 . S
C2708 C2709 1.385 . S
C2709 H2695 0.931 . S
C2709 C2708 1.385 . S
C2709 C2710 1.389 . S
C2710 C2709 1.389 . S
C2710 C2711 1.387 . S
C2711 H2696 0.930 . S
C2711 C2706 1.390 . S
C2711 C2710 1.387 . S
C1429 C890 1.386 . S
C1441 C3 1.394 . S
C1456 C711 1.400 . S
C1468 C64 1.389 . S
C1483 C770 1.394 . S
C1495 C121 1.391 . S
C1510 C831 1.395 . S
C1522 C180 1.383 . S
C1537 C829 1.400 . S
C1549 C62 1.397 . S
C1564 C123 1.389 . S
C1576 C888 1.397 . S
C1591 C713 1.379 . S
C1603 C182 1.380 . S
C1618 C772 1.395 . S
C1630 C5 1.396 . S
C1645 C1067 1.383 . S
C1657 C241 1.385 . S
C1672 C298 1.388 . S
C1684 C1124 1.389 . S
C1699 C359 1.390 . S
C1711 C949 1.390 . S
C1726 C1006 1.399 . S
C1738 C416 1.396 . S
C1753 C1301 1.410 . S
C1765 C475 1.409 . S
C1780 C536 1.383 . S
C1792 C1362 1.381 . S
C1807 C593 1.398 . S
C1819 C1183 1.401 . S
C1834 C654 1.383 . S
C1846 C1244 1.382 . S
C1861 C1008 1.386 . S
C1873 C652 1.379 . S
C1888 C1360 1.401 . S
C1900 C300 1.390 . S
C1915 C357 1.392 . S
C1927 C1185 1.400 . S
C1942 C1242 1.396 . S
C1954 C418 1.397 . S
C1969 C1303 1.391 . S
C1981 C239 1.379 . S
C1996 C534 1.392 . S
C2008 C1126 1.388 . S
C2023 C947 1.376 . S
C2035 C595 1.390 . S
C2050 C1065 1.402 . S
C2062 C477 1.393 . S
C2077 C33 1.057 . S
C2089 C269 1.058 . S
C2104 C347 1.049 . S
C2116 C111 1.046 . S
C2131 C151 1.033 . S
C2143 C387 1.031 . S
C2158 C210 1.056 . S
C2170 C465 1.051 . S
C2185 C524 1.059 . S
C2197 C92 1.062 . S
C2212 C564 1.064 . S
C2224 C170 1.058 . S
C2239 C642 1.057 . S
C2251 C229 1.055 . S
C2266 C52 1.050 . S
C2278 C682 1.055 . S
C2293 C701 1.032 . S
C2305 C288 1.035 . S
C2320 C328 1.010 . S
C2332 C505 1.011 . S
C2347 C406 1.052 . S
C2359 C583 1.053 . S
C2374 C623 1.030 . S
C2386 C446 1.029 . S
C2401 C977 1.029 . S
C2413 C760 1.044 . S
C2428 C1055 1.026 . S
C2440 C819 1.023 . S
C2455 C859 1.008 . S
C2467 C1095 1.007 . S
C2482 C918 1.020 . S
C2494 C1173 1.025 . S
C2509 C800 1.065 . S
C2521 C1232 1.058 . S
C2536 C878 1.028 . S
C2548 C1272 1.008 . S
C2563 C1350 1.038 . S
C2575 C937 1.046 . S
C2590 C741 1.018 . S
C2602 C1390 1.007 . S
C2617 C996 1.029 . S
C2629 C1409 1.037 . S
C2644 C1213 1.050 . S
C2656 C1036 1.034 . S
C2671 C1114 1.025 . S
C2683 C1291 1.032 . S
C2698 C1331 1.056 . S
C2710 C1154 1.040 . S
