# Generated by pormake.
# Topology can, (4)-cn, num edge types: 1
# Building blocks:
#     Node 0, Type 0, BuildingBlock: TATPOV_clean_sbu_0, # of connection points: 4
#     Node 1, Type 0, BuildingBlock: TATPOV_clean_sbu_0, # of connection points: 4
#     Node 2, Type 0, BuildingBlock: TATPOV_clean_sbu_0, # of connection points: 4
#     Node 3, Type 0, BuildingBlock: TATPOV_clean_sbu_0, # of connection points: 4
#     Node 4, Type 0, BuildingBlock: TATPOV_clean_sbu_0, # of connection points: 4
#     Node 5, Type 0, BuildingBlock: TATPOV_clean_sbu_0, # of connection points: 4
#     Node 6, Type 0, BuildingBlock: TATPOV_clean_sbu_0, # of connection points: 4
#     Node 7, Type 0, BuildingBlock: TATPOV_clean_sbu_0, # of connection points: 4
#     Node 8, Type 0, BuildingBlock: TATPOV_clean_sbu_0, # of connection points: 4
#     Node 9, Type 0, BuildingBlock: TATPOV_clean_sbu_0, # of connection points: 4
#     Node 10, Type 0, BuildingBlock: TATPOV_clean_sbu_0, # of connection points: 4
#     Node 11, Type 0, BuildingBlock: TATPOV_clean_sbu_0, # of connection points: 4
#     Edge 12, Type (0, 0), BuildingBlock: UVAHIK_clean_linker_0, # of connection points: 2
#     Edge 13, Type (0, 0), BuildingBlock: UVAHIK_clean_linker_0, # of connection points: 2
#     Edge 14, Type (0, 0), BuildingBlock: UVAHIK_clean_linker_0, # of connection points: 2
#     Edge 15, Type (0, 0), BuildingBlock: UVAHIK_clean_linker_0, # of connection points: 2
#     Edge 16, Type (0, 0), BuildingBlock: UVAHIK_clean_linker_0, # of connection points: 2
#     Edge 17, Type (0, 0), BuildingBlock: UVAHIK_clean_linker_0, # of connection points: 2
#     Edge 18, Type (0, 0), BuildingBlock: UVAHIK_clean_linker_0, # of connection points: 2
#     Edge 19, Type (0, 0), BuildingBlock: UVAHIK_clean_linker_0, # of connection points: 2
#     Edge 20, Type (0, 0), BuildingBlock: UVAHIK_clean_linker_0, # of connection points: 2
#     Edge 21, Type (0, 0), BuildingBlock: UVAHIK_clean_linker_0, # of connection points: 2
#     Edge 22, Type (0, 0), BuildingBlock: UVAHIK_clean_linker_0, # of connection points: 2
#     Edge 23, Type (0, 0), BuildingBlock: UVAHIK_clean_linker_0, # of connection points: 2
#     Edge 24, Type (0, 0), BuildingBlock: UVAHIK_clean_linker_0, # of connection points: 2
#     Edge 25, Type (0, 0), BuildingBlock: UVAHIK_clean_linker_0, # of connection points: 2
#     Edge 26, Type (0, 0), BuildingBlock: UVAHIK_clean_linker_0, # of connection points: 2
#     Edge 27, Type (0, 0), BuildingBlock: UVAHIK_clean_linker_0, # of connection points: 2
#     Edge 28, Type (0, 0), BuildingBlock: UVAHIK_clean_linker_0, # of connection points: 2
#     Edge 29, Type (0, 0), BuildingBlock: UVAHIK_clean_linker_0, # of connection points: 2
#     Edge 30, Type (0, 0), BuildingBlock: UVAHIK_clean_linker_0, # of connection points: 2
#     Edge 31, Type (0, 0), BuildingBlock: UVAHIK_clean_linker_0, # of connection points: 2
#     Edge 32, Type (0, 0), BuildingBlock: UVAHIK_clean_linker_0, # of connection points: 2
#     Edge 33, Type (0, 0), BuildingBlock: UVAHIK_clean_linker_0, # of connection points: 2
#     Edge 34, Type (0, 0), BuildingBlock: UVAHIK_clean_linker_0, # of connection points: 2
#     Edge 35, Type (0, 0), BuildingBlock: UVAHIK_clean_linker_0, # of connection points: 2
# Relax obj value: 0.056
# Max RMSD: 0.071
# Mean RMSD: 0.071
data_MOF--net-can--node1-TATPOV_clean_sbu_0--edge1-UVAHIK_clean_linker_0
_symmetry_space_group_name_H-M    P1
_symmetry_Int_Tables_number       1
_symmetry_cell_setting            triclinic
loop_
_symmetry_equiv_pos_as_xyz
'x, y, z'
_cell_length_a     74.383017
_cell_length_b     74.333883
_cell_length_c     34.148225
_cell_angle_alpha  90.016746
_cell_angle_beta   90.080108
_cell_angle_gamma 120.05217
loop_
_atom_site_label
_atom_site_type_symbol
_atom_site_fract_x
_atom_site_fract_y
_atom_site_fract_z
_atom_type_partial_charge
Zn0 Zn 0.03171 0.39321 0.26861 0.0
Zn1 Zn 0.06922 0.3989 0.26219 0.0
O2 O 0.05596 0.37743 0.30743 0.0
O3 O 0.02331 0.36986 0.3059 0.0
O4 O 0.09773 0.40201 0.25783 0.0
O5 O 0.02578 0.38587 0.21225 0.0
O6 O 0.05605 0.38742 0.20783 0.0
C7 C 0.03726 0.36662 0.31934 0.0
C8 C 0.06275 0.43517 0.28511 0.0
O9 O 0.07497 0.42879 0.274 0.0
O10 O 0.04342 0.42258 0.28745 0.0
C11 C 0.11115 0.41376 0.23284 0.0
O12 O 0.10659 0.42473 0.20888 0.0
C13 C 0.03875 0.38337 0.19256 0.0
Zn14 Zn 0.63772 0.03603 0.7622 0.0
Zn15 Zn 0.67119 0.07262 0.74913 0.0
O16 O 0.67985 0.06013 0.79517 0.0
O17 O 0.65243 0.02904 0.80265 0.0
O18 O 0.69705 0.10051 0.74001 0.0
O19 O 0.6383 0.02712 0.70733 0.0
O20 O 0.66668 0.05712 0.69636 0.0
C21 C 0.6708 0.04243 0.81201 0.0
C22 C 0.6299 0.06963 0.77329 0.0
O23 O 0.64868 0.08045 0.76183 0.0
O24 O 0.62168 0.05014 0.777 0.0
C25 C 0.70595 0.11269 0.76875 0.0
O26 O 0.698 0.1069 0.80394 0.0
C27 C 0.65287 0.03909 0.68473 0.0
Zn28 Zn 0.59908 0.63377 0.26325 0.0
Zn29 Zn 0.59824 0.66859 0.25288 0.0
O30 O 0.61783 0.67532 0.30079 0.0
O31 O 0.62032 0.6471 0.3052 0.0
O32 O 0.59789 0.69535 0.24416 0.0
O33 O 0.60915 0.63487 0.20867 0.0
O34 O 0.61093 0.66515 0.20157 0.0
C35 C 0.62567 0.66527 0.3167 0.0
C36 C 0.55826 0.62747 0.2721 0.0
O37 O 0.56716 0.64651 0.26177 0.0
O38 O 0.56877 0.61849 0.27634 0.0
C39 C 0.58734 0.70051 0.26592 0.0
O40 O 0.57639 0.68812 0.29466 0.0
C41 C 0.61403 0.65089 0.18833 0.0
Zn42 Zn 0.9705 0.60446 0.71878 0.0
Zn43 Zn 0.93591 0.60451 0.72964 0.0
O44 O 0.95067 0.61438 0.78337 0.0
O45 O 0.97699 0.60898 0.77599 0.0
O46 O 0.9092 0.60531 0.73561 0.0
O47 O 0.98186 0.62945 0.68442 0.0
O48 O 0.9506 0.62577 0.68464 0.0
C49 C 0.96659 0.61436 0.79734 0.0
C50 C 0.93587 0.5651 0.70185 0.0
O51 O 0.92628 0.5736 0.71694 0.0
O52 O 0.95524 0.57563 0.69609 0.0
C53 C 0.89163 0.5897 0.74404 0.0
O54 O 0.89027 0.57165 0.75065 0.0
C55 C 0.96928 0.63494 0.67228 0.0
Zn56 Zn 0.36991 0.97062 0.22511 0.0
Zn57 Zn 0.33742 0.9327 0.22855 0.0
O58 O 0.33882 0.94397 0.28482 0.0
O59 O 0.36697 0.97489 0.28176 0.0
O60 O 0.31181 0.90408 0.22841 0.0
O61 O 0.35586 0.98 0.1875 0.0
O62 O 0.32999 0.94766 0.18538 0.0
C63 C 0.35173 0.96118 0.30097 0.0
C64 C 0.38036 0.93943 0.20595 0.0
O65 O 0.36142 0.92714 0.21502 0.0
O66 O 0.38762 0.9589 0.20646 0.0
C67 C 0.30862 0.88976 0.25255 0.0
O68 O 0.32258 0.8934 0.27969 0.0
C69 C 0.33844 0.9665 0.17395 0.0
Zn70 Zn 0.39061 0.35883 0.72538 0.0
Zn71 Zn 0.40252 0.3305 0.7301 0.0
O72 O 0.38776 0.32764 0.78339 0.0
O73 O 0.37781 0.35095 0.77819 0.0
O74 O 0.40928 0.30728 0.73028 0.0
O75 O 0.37217 0.34485 0.67977 0.0
O76 O 0.38383 0.32281 0.68057 0.0
C77 C 0.37855 0.3368 0.79738 0.0
C78 C 0.43523 0.37631 0.71953 0.0
O79 O 0.43089 0.35756 0.72479 0.0
O80 O 0.42079 0.38064 0.71807 0.0
C81 C 0.41438 0.3007 0.76027 0.0
O82 O 0.41619 0.30975 0.79427 0.0
C83 C 0.3725 0.32936 0.66542 0.0
Zn84 Zn 0.60834 0.97558 0.21225 0.0
Zn85 Zn 0.60406 0.93824 0.22117 0.0
O86 O 0.62603 0.95151 0.1768 0.0
O87 O 0.63166 0.98357 0.17488 0.0
O88 O 0.60169 0.91014 0.22894 0.0
O89 O 0.61574 0.98242 0.26856 0.0
O90 O 0.61418 0.95221 0.27545 0.0
C91 C 0.63599 0.97001 0.16347 0.0
C92 C 0.56688 0.94285 0.19582 0.0
O93 O 0.57414 0.93137 0.20698 0.0
O94 O 0.57866 0.96237 0.19387 0.0
C95 C 0.59222 0.89529 0.20471 0.0
O96 O 0.5835 0.89817 0.17368 0.0
C97 C 0.61792 0.96964 0.28961 0.0
Zn98 Zn 0.63788 0.61279 0.73313 0.0
Zn99 Zn 0.66807 0.60357 0.73414 0.0
O100 O 0.67556 0.62411 0.68736 0.0
O101 O 0.6513 0.63285 0.68969 0.0
O102 O 0.6919 0.59775 0.73493 0.0
O103 O 0.64518 0.62441 0.78697 0.0
O104 O 0.67027 0.61679 0.78869 0.0
C105 C 0.66771 0.63483 0.6747 0.0
C106 C 0.62268 0.56914 0.72196 0.0
O107 O 0.64179 0.5746 0.72637 0.0
O108 O 0.61711 0.58267 0.72299 0.0
C109 C 0.71034 0.61312 0.73525 0.0
O110 O 0.71312 0.63203 0.73499 0.0
C111 C 0.66019 0.62455 0.80464 0.0
Zn112 Zn 0.03406 0.63628 0.26774 0.0
Zn113 Zn 0.07123 0.66783 0.25764 0.0
O114 O 0.05757 0.66518 0.20318 0.0
O115 O 0.02737 0.63671 0.2114 0.0
O116 O 0.09967 0.69353 0.25381 0.0
O117 O 0.02589 0.65106 0.3059 0.0
O118 O 0.05835 0.6764 0.30302 0.0
C119 C 0.03995 0.65142 0.18966 0.0
C120 C 0.06522 0.62554 0.28289 0.0
O121 O 0.07726 0.64391 0.27026 0.0
O122 O 0.04598 0.61891 0.2865 0.0
C123 C 0.11467 0.6954 0.23298 0.0
O124 O 0.11204 0.67973 0.21108 0.0
C125 C 0.04016 0.66859 0.31753 0.0
Zn126 Zn 0.40403 0.0307 0.76993 0.0
Zn127 Zn 0.40571 0.06662 0.75561 0.0
O128 O 0.39398 0.0505 0.70353 0.0
O129 O 0.39371 0.02122 0.7156 0.0
O130 O 0.40622 0.09396 0.74839 0.0
O131 O 0.38288 0.02344 0.81162 0.0
O132 O 0.38545 0.05396 0.80261 0.0
C133 C 0.3901 0.03245 0.69275 0.0
C134 C 0.44517 0.06518 0.77813 0.0
O135 O 0.4365 0.07535 0.76673 0.0
O136 O 0.43445 0.04571 0.78295 0.0
C137 C 0.42171 0.11058 0.73568 0.0
O138 O 0.43848 0.1103 0.72462 0.0
C139 C 0.37751 0.03658 0.82051 0.0
Zn140 Zn 0.37073 0.40312 0.2545 0.0
Zn141 Zn 0.3363 0.40479 0.2441 0.0
O142 O 0.3391 0.39196 0.19214 0.0
O143 O 0.36936 0.39371 0.19927 0.0
O144 O 0.30941 0.4051 0.23864 0.0
O145 O 0.35718 0.38116 0.29541 0.0
O146 O 0.33009 0.38568 0.29234 0.0
C147 C 0.3534 0.38894 0.17879 0.0
C148 C 0.37729 0.4443 0.26409 0.0
O149 O 0.35842 0.43572 0.25286 0.0
O150 O 0.38592 0.43348 0.26888 0.0
C151 C 0.30683 0.41729 0.21623 0.0
O152 O 0.32232 0.43049 0.19422 0.0
C153 C 0.33946 0.37698 0.30751 0.0
Zn154 Zn 0.97672 0.37173 0.7312 0.0
Zn155 Zn 0.93862 0.34022 0.73822 0.0
O156 O 0.95051 0.3322 0.6905 0.0
O157 O 0.98193 0.35925 0.68433 0.0
O158 O 0.90967 0.31538 0.74437 0.0
O159 O 0.98505 0.36575 0.78255 0.0
O160 O 0.95282 0.34039 0.79079 0.0
C161 C 0.96803 0.34142 0.67312 0.0
C162 C 0.94651 0.38471 0.72637 0.0
O163 O 0.93376 0.36526 0.72978 0.0
O164 O 0.96586 0.3914 0.72668 0.0
C165 C 0.89828 0.30586 0.71504 0.0
O166 O 0.90525 0.31264 0.67961 0.0
C167 C 0.97149 0.35111 0.80308 0.0
C168 C 0.01239 0.36624 0.13988 0.0
C169 C 0.03312 0.37501 0.1524 0.0
C170 C 0.00671 0.35871 0.10191 0.0
C171 C 0.02769 0.36767 0.00406 0.0
H172 H 0.97491 0.31866 0.97925 0.0
C173 C 0.99859 0.35184 0.84654 0.0
C174 C 0.97787 0.34684 0.84117 0.0
C175 C 0.00578 0.35047 0.88343 0.0
C176 C 0.98966 0.3324 0.98572 0.0
H177 H 0.06407 0.38223 0.1352 0.0
H178 H 0.05412 0.36929 0.06802 0.0
H179 H 0.98742 0.32518 0.04688 0.0
H180 H 0.94808 0.33534 0.86947 0.0
H181 H 0.96082 0.33367 0.9347 0.0
H182 H 0.02958 0.37558 0.94364 0.0
C183 C 0.04232 0.36826 0.08795 0.0
C184 C 0.99686 0.33608 0.02434 0.0
C185 C 0.04801 0.37565 0.12629 0.0
C186 C 0.96413 0.33931 0.87295 0.0
C187 C 0.97144 0.33826 0.91019 0.0
C188 C 0.02046 0.36407 0.96556 0.0
C189 C 0.02162 0.35987 0.07538 0.0
C190 C 0.01569 0.35403 0.03398 0.0
C191 C 0.99252 0.34444 0.91599 0.0
C192 C 1.00114 0.34665 0.95606 0.0
H193 H 1.00047 0.36533 0.15934 0.0
H194 H 0.99072 0.35265 0.09291 0.0
H195 H 0.0421 0.38178 0.0107 0.0
H196 H 0.00942 0.3573 0.82229 0.0
H197 H 0.02194 0.35479 0.88665 0.0
C198 C 0.62208 0.96036 0.35845 0.0
C199 C 0.62516 0.97545 0.33038 0.0
C200 C 0.62801 0.96616 0.39742 0.0
C201 C 0.66111 0.01075 0.46116 0.0
H202 H 0.61768 0.9823 0.53819 0.0
C203 C 0.66317 0.04539 0.6139 0.0
C204 C 0.65367 0.03158 0.64515 0.0
C205 C 0.66214 0.03776 0.57598 0.0
C206 C 0.63019 0.99018 0.51735 0.0
H207 H 0.63769 0.00848 0.32066 0.0
H208 H 0.64813 0.0185 0.3883 0.0
H209 H 0.61194 0.96969 0.4711 0.0
H210 H 0.63693 0.99907 0.66192 0.0
H211 H 0.63584 0.98585 0.59648 0.0
H212 H 0.67936 0.03133 0.50732 0.0
C213 C 0.64111 1.00225 0.38033 0.0
C214 C 0.62685 0.98293 0.47886 0.0
C215 C 0.63494 0.99645 0.34167 0.0
C216 C 0.64405 0.0101 0.63822 0.0
C217 C 0.64334 1.00251 0.60063 0.0
C218 C 0.66456 0.01789 0.49982 0.0
C219 C 0.63744 0.98715 0.4087 0.0
C220 C 0.64212 0.99335 0.45027 0.0
C221 C 0.65188 0.01619 0.56883 0.0
C222 C 0.64901 0.00789 0.52827 0.0
H223 H 0.61462 0.94408 0.35053 0.0
H224 H 0.62508 0.95424 0.41883 0.0
H225 H 0.67319 0.01897 0.43962 0.0
H226 H 0.67068 0.06203 0.6185 0.0
H227 H 0.66873 0.04877 0.55214 0.0
C228 C 0.62947 0.63833 0.13798 0.0
C229 C 0.62408 0.65312 0.14992 0.0
C230 C 0.63903 0.64019 0.10199 0.0
C231 C 0.66745 0.65259 0.03143 0.0
H232 H 0.6399 0.66074 0.94258 0.0
C233 C 0.66524 0.65238 0.85059 0.0
C234 C 0.66564 0.63399 0.84374 0.0
C235 C 0.66629 0.6596 0.88862 0.0
C236 C 0.64821 0.65895 0.96694 0.0
H237 H 0.62489 0.68173 0.13369 0.0
H238 H 0.64146 0.68485 0.07024 0.0
H239 H 0.63012 0.66467 0.00829 0.0
H240 H 0.66888 0.60938 0.87045 0.0
H241 H 0.66981 0.62144 0.93754 0.0
H242 H 0.68517 0.64629 0.98987 0.0
C243 C 0.63822 0.67181 0.08896 0.0
C244 C 0.64252 0.66118 0.0047 0.0
C245 C 0.62873 0.67001 0.12521 0.0
C246 C 0.66859 0.62365 0.87521 0.0
C247 C 0.66919 0.63063 0.91354 0.0
C248 C 0.67326 0.65047 -0.00646 0.0
C249 C 0.64336 0.65684 0.07696 0.0
C250 C 0.65169 0.65751 0.03732 0.0
C251 C 0.66719 0.64823 0.92067 0.0
C252 C 0.66335 0.65316 0.96086 0.0
H253 H 0.62622 0.62516 0.15635 0.0
H254 H 0.64247 0.62823 0.09327 0.0
H255 H 0.67496 0.64992 0.05615 0.0
H256 H 0.66327 0.66076 0.82654 0.0
H257 H 0.66536 0.67354 0.89297 0.0
C258 C 0.01491 0.67206 0.36006 0.0
C259 C 0.03566 0.6789 0.34997 0.0
C260 C 0.01015 0.67855 0.39482 0.0
C261 C 1.00253 0.69461 0.47031 0.0
H262 H 0.03191 0.68377 0.5522 0.0
C263 C 0.99712 0.66758 0.64297 0.0
C264 C 0.97647 0.65121 0.6421 0.0
C265 C 0.00572 0.68045 0.61052 0.0
C266 C 0.02379 0.68746 0.53015 0.0
H267 H 0.06776 0.69955 0.36637 0.0
H268 H 0.05942 0.71094 0.42753 0.0
H269 H 0.04564 0.69058 0.48658 0.0
H270 H 0.94802 0.63645 0.6083 0.0
H271 H 0.96324 0.6583 0.55066 0.0
H272 H 0.97994 0.69013 0.5139 0.0
C273 C 0.04684 0.70032 0.40864 0.0
C274 C 0.03175 0.69142 0.49225 0.0
C275 C 0.05162 0.69386 0.37361 0.0
C276 C 0.964 0.64901 0.60959 0.0
C277 C 0.97274 0.66163 0.57665 0.0
C278 C 0.99453 0.69066 0.50839 0.0
C279 C 0.02603 0.692 0.42043 0.0
C280 C 0.0207 0.69401 0.4615 0.0
C281 C 0.99401 0.67683 0.5761 0.0
C282 C 0.00459 0.68607 0.53836 0.0
H283 H 1.00224 0.66077 0.34212 0.0
H284 H 0.99396 0.67167 0.40296 0.0
H285 H 0.99385 0.69694 0.44733 0.0
H286 H 0.00693 0.66977 0.66809 0.0
H287 H 0.02196 0.69239 0.61153 0.0
C288 C 0.36192 0.04724 0.87466 0.0
C289 C 0.36248 0.03157 0.85262 0.0
C290 C 0.35008 0.04217 0.90898 0.0
C291 C 0.31187 0.99732 0.96999 0.0
H292 H 0.34989 0.02837 0.054 0.0
C293 C 0.3196 0.96032 0.11034 0.0
C294 C 0.32891 0.9729 0.14323 0.0
C295 C 0.31539 0.96862 0.07712 0.0
C296 C 0.33864 0.01975 0.0313 0.0
H297 H 0.34949 0.99826 0.84676 0.0
H298 H 0.3292 0.9895 0.90625 0.0
H299 H 0.35742 0.04205 0.98829 0.0
H300 H 0.33865 0.00293 0.16952 0.0
H301 H 0.33049 0.01713 0.11237 0.0
H302 H 0.2938 0.97433 0.01301 0.0
C303 C 0.33774 0.00566 0.89744 0.0
C304 C 0.34301 0.02769 -0.00663 0.0
C305 C 0.34964 0.01072 0.86353 0.0
C306 C 0.33181 0.99306 0.14412 0.0
C307 C 0.32721 1.0012 0.11134 0.0
C308 C 0.30747 0.98936 0.00808 0.0
C309 C 0.33847 0.02135 0.92146 0.0
C310 C 0.33029 0.01605 0.96198 0.0
C311 C 0.32014 0.98952 0.07664 0.0
C312 C 0.32139 1.0 0.03881 0.0
H313 H 0.37155 0.06343 0.86671 0.0
H314 H 0.3508 0.05458 0.92676 0.0
H315 H 0.30157 0.98818 0.94643 0.0
H316 H 0.31723 0.94472 0.10904 0.0
H317 H 0.31004 0.95916 0.05091 0.0
C318 C 0.32827 0.34275 0.33796 0.0
C319 C 0.33043 0.36256 0.34041 0.0
C320 C 0.32401 0.33052 0.37145 0.0
C321 C 0.31467 0.33007 0.47998 0.0
H322 H 0.3482 0.3036 0.48251 0.0
C323 C 0.33979 0.31465 0.62732 0.0
C324 C 0.36078 0.32025 0.62929 0.0
C325 C 0.32979 0.311 0.59114 0.0
C326 C 0.33884 0.311 0.48251 0.0
H327 H 0.32901 0.38495 0.37866 0.0
H328 H 0.32289 0.3644 0.43767 0.0
H329 H 0.34168 0.31506 0.42073 0.0
H330 H 0.3876 0.32536 0.59597 0.0
H331 H 0.37079 0.32032 0.53268 0.0
H332 H 0.31382 0.32819 0.54214 0.0
C333 C 0.32352 0.35764 0.41001 0.0
C334 C 0.33469 0.31726 0.4467 0.0
C335 C 0.32714 0.36957 0.37623 0.0
C336 C 0.3713 0.3208 0.59499 0.0
C337 C 0.36152 0.31781 0.55867 0.0
C338 C 0.31931 0.32434 0.51588 0.0
C339 C 0.32267 0.33824 0.40833 0.0
C340 C 0.32326 0.32767 0.44508 0.0
C341 C 0.34087 0.31375 0.55615 0.0
C342 C 0.33219 0.3155 0.5178 0.0
H343 H 0.33069 0.33708 0.31036 0.0
H344 H 0.32279 0.31545 0.36859 0.0
H345 H 0.30521 0.33736 0.47996 0.0
H346 H 0.33142 0.31408 0.65366 0.0
H347 H 0.31371 0.30717 0.59066 0.0
C348 C 0.96589 0.63182 0.86004 0.0
C349 C 0.97383 0.62146 0.83778 0.0
C350 C 0.97392 0.6395 0.89736 0.0
C351 C 0.98486 0.64177 0.98411 0.0
H352 H 0.04315 0.6617 0.00495 0.0
C353 C 0.01394 0.63685 0.13571 0.0
C354 C 0.03355 0.65238 0.149 0.0
C355 C 0.00737 0.63729 0.09776 0.0
C356 C 0.02693 0.65657 -0.00039 0.0
H357 H 0.99608 0.61065 0.83761 0.0
H358 H 0.00955 0.62345 0.90253 0.0
H359 H 0.03044 0.65515 0.93774 0.0
H360 H 0.06158 0.68074 0.13273 0.0
H361 H 0.04998 0.68152 0.06579 0.0
H362 H 0.98135 0.64315 0.04599 0.0
C363 C 0.99761 0.62625 0.89095 0.0
C364 C 0.01957 0.65253 0.96112 0.0
C365 C 0.98969 0.6187 0.8538 0.0
C366 C 0.04642 0.66851 0.12333 0.0
C367 C 0.03979 0.66894 0.08504 0.0
C368 C 0.99225 0.64593 0.02257 0.0
C369 C 0.98998 0.6369 0.9131 0.0
C370 C 0.99831 0.64436 0.95307 0.0
C371 C 0.02015 0.6533 0.07191 0.0
C372 C 0.01321 0.65263 0.03087 0.0
H373 H 0.95375 0.6343 0.8484 0.0
H374 H 0.96774 0.64769 0.91366 0.0
H375 H 0.96841 0.63551 0.97901 0.0
H376 H 1.00358 0.62413 0.15454 0.0
H377 H 0.99238 0.62471 0.08841 0.0
C378 C 0.33856 0.95014 0.36961 0.0
C379 C 0.34906 0.96591 0.3418 0.0
C380 C 0.33795 0.95528 0.4089 0.0
C381 C 0.35628 0.97312 0.48986 0.0
H382 H 0.34781 0.01855 0.52097 0.0
C383 C 0.37022 1.00226 0.64836 0.0
C384 C 0.38084 0.0239 0.65407 0.0
C385 C 0.36229 0.99376 0.61171 0.0
C386 C 0.35036 0.00593 0.51272 0.0
H387 H 0.36604 0.99929 0.33263 0.0
H388 H 0.36478 0.00814 0.40059 0.0
H389 H 0.34013 0.00544 0.45383 0.0
H390 H 0.39092 0.05359 0.62616 0.0
H391 H 0.37768 0.03877 0.56135 0.0
H392 H 0.36751 0.97418 0.5478 0.0
C393 C 0.35711 0.99188 0.39237 0.0
C394 C 0.34581 0.99834 0.4744 0.0
C395 C 0.35801 0.98678 0.3535 0.0
C396 C 0.38282 0.03687 0.62255 0.0
C397 C 0.37511 0.02833 0.58553 0.0
C398 C 0.361 0.98082 0.52803 0.0
C399 C 0.34744 0.97624 0.42062 0.0
C400 C 0.3491 0.98211 0.46244 0.0
C401 C 0.36503 0.00667 0.57958 0.0
C402 C 0.35843 0.99755 0.53978 0.0
H403 H 0.33151 0.93393 0.36132 0.0
H404 H 0.33035 0.94293 0.4302 0.0
H405 H 0.35929 0.96084 0.48127 0.0
H406 H 0.36809 0.99181 0.67229 0.0
H407 H 0.35416 0.97701 0.60851 0.0
C408 C 0.37966 0.32964 0.86862 0.0
C409 C 0.36915 0.33189 0.83658 0.0
C410 C 0.37298 0.33001 0.9068 0.0
C411 C 0.34524 0.35244 0.95778 0.0
H412 H 0.35433 0.32719 0.04926 0.0
C413 C 0.33452 0.37431 0.11513 0.0
C414 C 0.35129 0.37896 0.14024 0.0
C415 C 0.33279 0.36463 0.079 0.0
C416 C 0.35167 0.33431 0.02391 0.0
H417 H 0.34234 0.33401 0.81857 0.0
H418 H 0.33014 0.33367 0.88479 0.0
H419 H 0.35768 0.31571 0.98396 0.0
H420 H 0.37918 0.37677 0.14732 0.0
H421 H 0.37621 0.36018 0.08467 0.0
H422 H 0.33978 0.3714 -0.00242 0.0
C423 C 0.34398 0.33251 0.88088 0.0
C424 C 0.35362 0.32777 0.98656 0.0
C425 C 0.35085 0.33254 0.84297 0.0
C426 C 0.36609 0.37351 0.1287 0.0
C427 C 0.36428 0.36376 0.09292 0.0
C428 C 0.34319 0.35888 -0.00497 0.0
C429 C 0.35553 0.33233 0.91329 0.0
C430 C 0.35088 0.33709 0.95303 0.0
C431 C 0.34768 0.35927 0.0676 0.0
C432 C 0.34689 0.35026 0.02847 0.0
H433 H 0.39387 0.32921 0.86431 0.0
H434 H 0.38231 0.3299 0.93107 0.0
H435 H 0.3434 0.36029 0.9327 0.0
H436 H 0.32282 0.37822 0.12325 0.0
H437 H 0.31981 0.36131 0.06003 0.0
C438 C 0.95691 0.3154 0.61818 0.0
C439 C 0.97271 0.33166 0.64002 0.0
C440 C 0.96184 0.30815 0.58427 0.0
C441 C 0.00666 0.31293 0.52571 0.0
H442 H 0.97612 0.31796 0.43858 0.0
C443 C 0.04393 0.35529 0.3839 0.0
C444 C 0.03147 0.35104 0.3505 0.0
C445 C 0.03572 0.34324 0.41765 0.0
C446 C 0.98458 0.31587 0.46228 0.0
H447 H 0.00608 0.35179 0.64556 0.0
H448 H 0.01455 0.33952 0.58681 0.0
H449 H 0.96218 0.31352 0.50394 0.0
H450 H 1.0019 0.32947 0.32393 0.0
H451 H 0.98786 0.30799 0.38218 0.0
H452 H 0.02983 0.31685 0.48395 0.0
C453 C 0.99841 0.33217 0.59553 0.0
C454 C 0.97651 0.31328 0.49997 0.0
C455 C 0.9935 0.33947 0.629 0.0
C456 C 0.01167 0.33322 0.3497 0.0
C457 C 0.00361 0.32098 0.38306 0.0
C458 C 0.01479 0.31558 0.4879 0.0
C459 C 0.98264 0.3169 0.57204 0.0
C460 C 0.988 0.31296 0.53232 0.0
C461 C 0.01503 0.32663 0.41814 0.0
C462 C 0.00433 0.31816 0.45604 0.0
H463 H 0.94076 0.30896 0.62624 0.0
H464 H 0.94936 0.29626 0.56685 0.0
H465 H 0.01566 0.31228 0.55006 0.0
H466 H 0.05925 0.36898 0.38512 0.0
H467 H 0.04495 0.34811 0.44417 0.0
C468 C 0.69646 0.0528 0.86734 0.0
C469 C 0.68093 0.03729 0.84383 0.0
C470 C 0.70282 0.04737 0.90186 0.0
C471 C 0.69535 1.00162 0.96156 0.0
H472 H 0.68727 0.0318 0.04565 0.0
C473 C 0.64879 0.96368 0.10025 0.0
C474 C 0.65216 0.97609 0.13342 0.0
C475 C 0.66155 0.97205 0.06734 0.0
C476 C 0.69016 0.0234 0.02293 0.0
H477 H 0.6616 0.00401 0.83545 0.0
H478 H 0.6723 0.99463 0.89524 0.0
H479 H 0.69438 0.04619 0.98049 0.0
H480 H 0.67276 0.0058 0.16056 0.0
H481 H 0.6955 0.02008 0.10398 0.0
H482 H 0.68961 0.97809 0.004 0.0
C483 C 0.67973 0.01093 0.88752 0.0
C484 C 0.69431 0.03176 0.9853 0.0
C485 C 0.67335 0.01633 0.85338 0.0
C486 C 0.66971 0.99606 0.13495 0.0
C487 C 0.68266 0.00426 0.10251 0.0
C488 C 0.69113 0.9932 -0.00068 0.0
C489 C 0.69383 0.02638 0.91313 0.0
C490 C 0.69588 0.02049 0.95379 0.0
C491 C 0.67798 0.99283 0.0675 0.0
C492 C 0.68752 0.00357 0.03005 0.0
H493 H 0.70269 0.06908 0.86046 0.0
H494 H 0.71392 0.05963 0.92074 0.0
H495 H 0.69691 0.99275 0.93799 0.0
H496 H 0.6353 0.94825 0.09846 0.0
H497 H 0.65742 0.9628 0.04085 0.0
C498 C 0.64216 0.69046 0.37248 0.0
C499 C 0.64067 0.67416 0.34933 0.0
C500 C 0.65421 0.69638 0.40671 0.0
C501 C 0.69146 0.68685 0.46502 0.0
H502 H 0.6563 0.68346 0.55152 0.0
C503 C 0.6841 0.64389 0.60838 0.0
C504 C 0.67698 0.64936 0.64178 0.0
C505 C 0.68796 0.65543 0.57389 0.0
C506 C 0.66674 0.68502 0.52801 0.0
H507 H 0.65215 0.65267 0.34163 0.0
H508 H 0.6726 0.6626 0.40099 0.0
H509 H 0.64805 0.68952 0.48621 0.0
H510 H 0.67081 0.67241 0.66729 0.0
H511 H 0.67825 0.69294 0.60775 0.0
H512 H 0.70931 0.68086 0.50694 0.0
C513 C 0.66472 0.671 0.3931 0.0
C514 C 0.66199 0.68856 0.49034 0.0
C515 C 0.65269 0.66507 0.35923 0.0
C516 C 0.67594 0.6677 0.64156 0.0
C517 C 0.68014 0.67941 0.60747 0.0
C518 C 0.6962 0.68323 0.50281 0.0
C519 C 0.66503 0.68617 0.41805 0.0
C520 C 0.67367 0.6885 0.45816 0.0
C521 C 0.685 0.67274 0.57264 0.0
C522 C 0.68333 0.68136 0.53445 0.0
H523 H 0.63322 0.69788 0.36533 0.0
H524 H 0.65432 0.70829 0.42516 0.0
H525 H 0.70102 0.68713 0.44085 0.0
H526 H 0.68501 0.62979 0.60796 0.0
H527 H 0.6916 0.64979 0.54755 0.0
C528 C 0.08825 0.6105 0.26877 0.0
C529 C 0.07286 0.61107 0.2917 0.0
C530 C 0.09188 0.59374 0.27213 0.0
C531 C 0.06163 0.53882 0.29792 0.0
H532 H 0.11332 0.53797 0.29567 0.0
C533 C 0.05959 0.46259 0.32052 0.0
C534 C 0.07038 0.45734 0.29345 0.0
C535 C 0.06377 0.483 0.32378 0.0
C536 C 0.09879 0.53803 0.29607 0.0
H537 H 0.05081 0.59593 0.33871 0.0
H538 H 0.05748 0.56725 0.34527 0.0
H539 H 0.11403 0.57145 0.29516 0.0
H540 H 0.09503 0.46953 0.25037 0.0
H541 H 0.10208 0.50548 0.25534 0.0
H542 H 0.04626 0.50576 0.29816 0.0
C543 C 0.06629 0.57923 0.32387 0.0
C544 C 0.0992 0.55715 0.29578 0.0
C545 C 0.06253 0.59571 0.32024 0.0
C546 C 0.08651 0.47321 0.27152 0.0
C547 C 0.09053 0.49375 0.27439 0.0
C548 C 0.06122 0.51992 0.29811 0.0
C549 C 0.08025 0.5775 0.29863 0.0
C550 C 0.08057 0.55768 0.29744 0.0
C551 C 0.07859 0.49865 0.29948 0.0
C552 C 0.07975 0.51921 0.29792 0.0
H553 H 0.09641 0.62217 0.2465 0.0
H554 H 0.10277 0.59283 0.25236 0.0
H555 H 0.04698 0.53865 0.29792 0.0
H556 H 0.04729 0.45072 0.33824 0.0
H557 H 0.05472 0.48636 0.34424 0.0
C558 C 0.48175 0.09349 0.76392 0.0
C559 C 0.46783 0.0756 0.78488 0.0
C560 C 0.50324 0.10139 0.76696 0.0
C561 C 0.54339 0.09833 0.82689 0.0
H562 H 0.56974 0.10056 0.72771 0.0
C563 C 0.60038 0.06955 0.80745 0.0
C564 C 0.61709 0.07928 0.78126 0.0
C565 C 0.58646 0.07676 0.81192 0.0
C566 C 0.56289 0.10058 0.75567 0.0
H567 H 0.46542 0.05276 0.8272 0.0
H568 H 0.50258 0.06658 0.83291 0.0
H569 H 0.53649 0.09971 0.72845 0.0
H570 H 0.63282 0.10471 0.74024 0.0
H571 H 0.60795 0.11714 0.74743 0.0
H572 H 0.56911 0.09787 0.85402 0.0
C573 C 0.4971 0.07455 0.81404 0.0
C574 C 0.54383 0.10009 0.7561 0.0
C575 C 0.47576 0.0665 0.81051 0.0
C576 C 0.62009 0.09697 0.76073 0.0
C577 C 0.60585 0.10401 0.76471 0.0
C578 C 0.56239 0.09881 0.82647 0.0
C579 C 0.51109 0.09177 0.79168 0.0
C580 C 0.53341 0.09792 0.79164 0.0
C581 C 0.5887 0.09374 0.78994 0.0
C582 C 0.57183 0.0989 0.79079 0.0
H583 H 0.47602 0.10077 0.74388 0.0
H584 H 0.51368 0.11469 0.74941 0.0
H585 H 0.53589 0.09703 0.85476 0.0
H586 H 0.59773 0.05595 0.8238 0.0
H587 H 0.57327 0.06831 0.83117 0.0
C588 C 0.52761 0.59846 0.30455 0.0
C589 C 0.53559 0.61524 0.27836 0.0
C590 C 0.5063 0.58488 0.30728 0.0
C591 C 0.46051 0.56224 0.24644 0.0
H592 H 0.43442 0.53452 0.34362 0.0
C593 C 0.38596 0.48101 0.2499 0.0
C594 C 0.38963 0.46694 0.27108 0.0
C595 C 0.39953 0.5025 0.2536 0.0
C596 C 0.44135 0.54224 0.31625 0.0
H597 H 0.52752 0.63154 0.23556 0.0
H598 H 0.48988 0.60727 0.23966 0.0
H599 H 0.46685 0.56776 0.34546 0.0
H600 H 0.4095 0.46424 0.31434 0.0
H601 H 0.43277 0.50142 0.32128 0.0
H602 H 0.43563 0.53603 0.21725 0.0
C603 C 0.50026 0.60484 0.25831 0.0
C604 C 0.4599 0.56125 0.3173 0.0
C605 C 0.52173 0.61874 0.25609 0.0
C606 C 0.40635 0.47471 0.29747 0.0
C607 C 0.41958 0.49603 0.30171 0.0
C608 C 0.44188 0.54319 0.24539 0.0
C609 C 0.49239 0.58756 0.2835 0.0
C610 C 0.47023 0.57091 0.28241 0.0
C611 C 0.41662 0.51017 0.27926 0.0
C612 C 0.43272 0.53252 0.2803 0.0
H613 H 0.53792 0.59544 0.32221 0.0
H614 H 0.50081 0.57159 0.32656 0.0
H615 H 0.46814 0.56926 0.21906 0.0
H616 H 0.3732 0.47541 0.22926 0.0
H617 H 0.39693 0.51308 0.23591 0.0
C618 C 0.91541 0.52863 0.72567 0.0
C619 C 0.92535 0.54256 0.69479 0.0
C620 C 0.91091 0.50798 0.72267 0.0
C621 C 0.93269 0.4801 0.6695 0.0
H622 H 0.89434 0.43372 0.73395 0.0
C623 C 0.91836 0.39373 0.71401 0.0
C624 C 0.93929 0.39992 0.72152 0.0
C625 C 0.91242 0.40869 0.70715 0.0
C626 C 0.90493 0.44642 0.71532 0.0
H627 H 0.93628 0.54561 0.63521 0.0
H628 H 0.92708 0.50934 0.62869 0.0
H629 H 0.88921 0.46359 0.72519 0.0
H630 H 0.97012 0.42668 0.72963 0.0
H631 H 0.95982 0.45233 0.71819 0.0
H632 H 0.94847 0.46317 0.65977 0.0
C633 C 0.92368 0.51439 0.65603 0.0
C634 C 0.90214 0.46363 0.71058 0.0
C635 C 0.92872 0.53511 0.65948 0.0
C636 C 0.95392 0.42126 0.72331 0.0
C637 C 0.94804 0.43604 0.71656 0.0
C638 C 0.93537 0.46297 0.67402 0.0
C639 C 0.91596 0.50088 0.68841 0.0
C640 C 0.91637 0.48098 0.68849 0.0
C641 C 0.92735 0.43 0.70758 0.0
C642 C 0.92202 0.44629 0.6981 0.0
H643 H 0.91285 0.53414 0.75333 0.0
H644 H 0.90505 0.49818 0.74832 0.0
H645 H 0.94424 0.49313 0.65275 0.0
H646 H 0.9067 0.37741 0.71259 0.0
H647 H 0.89634 0.4036 0.70046 0.0
C648 C 0.41218 0.94382 0.17318 0.0
C649 C 0.39442 0.93145 0.19577 0.0
C650 C 0.42685 0.93773 0.16654 0.0
C651 C 0.44912 0.90968 0.21307 0.0
H652 H 0.47953 0.92184 0.11536 0.0
C653 C 0.52941 0.91498 0.20336 0.0
C654 C 0.54451 0.93394 0.18699 0.0
C655 C 0.50822 0.90831 0.1991 0.0
C656 C 0.47113 0.91821 0.14278 0.0
H657 H 0.37774 0.90261 0.22812 0.0
H658 H 0.40384 0.89208 0.21711 0.0
H659 H 0.44653 0.92142 0.11748 0.0
H660 H 0.54924 0.9601 0.15136 0.0
H661 H 0.5126 0.94852 0.14373 0.0
H662 H 0.47433 0.90766 0.23887 0.0
C663 C 0.40621 0.90645 0.20437 0.0
C664 C 0.45223 0.91796 0.14398 0.0
C665 C 0.39127 0.91242 0.21051 0.0
C666 C 0.538 0.94547 0.16452 0.0
C667 C 0.51695 0.93872 0.15986 0.0
C668 C 0.46809 0.90998 0.21189 0.0
C669 C 0.42428 0.91921 0.18269 0.0
C670 C 0.44148 0.91459 0.17949 0.0
C671 C 0.5018 0.92033 0.17781 0.0
C672 C 0.47972 0.91515 0.17709 0.0
H673 H 0.41501 0.95852 0.16127 0.0
H674 H 0.44071 0.94806 0.15019 0.0
H675 H 0.44125 0.90714 0.24091 0.0
H676 H 0.53398 0.90578 0.22089 0.0
H677 H 0.49688 0.89403 0.21313 0.0
C678 C 0.61023 0.53073 0.72555 0.0
C679 C 0.60663 0.54706 0.71589 0.0
C680 C 0.59428 0.50996 0.72174 0.0
C681 C 0.54389 0.47713 0.67207 0.0
H682 H 0.5294 0.44082 0.76229 0.0
C683 C 0.46097 0.41273 0.70072 0.0
C684 C 0.45702 0.39333 0.71486 0.0
C685 C 0.48124 0.4292 0.69701 0.0
C686 C 0.53348 0.45059 0.73655 0.0
H687 H 0.58367 0.55436 0.69366 0.0
H688 H 0.55621 0.51851 0.68681 0.0
H689 H 0.56196 0.4742 0.76226 0.0
H690 H 0.47141 0.37603 0.7361 0.0
H691 H 0.50716 0.40519 0.73003 0.0
H692 H 0.51515 0.45404 0.64694 0.0
C693 C 0.57126 0.5216 0.69723 0.0
C694 C 0.55212 0.4697 0.73653 0.0
C695 C 0.587 0.5422 0.70147 0.0
C696 C 0.47395 0.39077 0.72502 0.0
C697 C 0.49437 0.40745 0.7217 0.0
C698 C 0.52535 0.45813 0.6721 0.0
C699 C 0.57462 0.50523 0.70755 0.0
C700 C 0.55711 0.48348 0.70485 0.0
C701 C 0.49819 0.42683 0.70755 0.0
C702 C 0.51956 0.44499 0.7049 0.0
H703 H 0.62518 0.53398 0.73685 0.0
H704 H 0.59729 0.49763 0.72987 0.0
H705 H 0.54753 0.48725 0.64692 0.0
H706 H 0.44835 0.41529 0.69255 0.0
H707 H 0.48361 0.44401 0.68665 0.0
C708 C 0.13593 0.40213 0.25467 0.0
C709 C 0.13149 0.41464 0.23026 0.0
C710 C 0.1549 0.4026 0.25179 0.0
C711 C 0.20883 0.43469 0.2168 0.0
H712 H 0.20916 0.38275 0.22213 0.0
C713 C 0.28346 0.43009 0.19099 0.0
C714 C 0.28668 0.41688 0.21586 0.0
C715 C 0.26453 0.42987 0.19127 0.0
C716 C 0.20939 0.39742 0.221 0.0
H717 H 0.14366 0.43761 0.18382 0.0
H718 H 0.17677 0.43837 0.17873 0.0
H719 H 0.1763 0.38244 0.22575 0.0
H720 H 0.27246 0.39309 0.26057 0.0
H721 H 0.23967 0.3929 0.26138 0.0
H722 H 0.24196 0.44969 0.21238 0.0
C723 C 0.1656 0.4283 0.20031 0.0
C724 C 0.19053 0.39724 0.22306 0.0
C725 C 0.14657 0.42778 0.20311 0.0
C726 C 0.27051 0.40341 0.24088 0.0
C727 C 0.25162 0.40321 0.24119 0.0
C728 C 0.22773 0.43488 0.21482 0.0
C729 C 0.16995 0.41563 0.22448 0.0
C730 C 0.19003 0.41587 0.22125 0.0
C731 C 0.24837 0.41643 0.21642 0.0
C732 C 0.22825 0.41625 0.21717 0.0
H733 H 0.12471 0.39187 0.27601 0.0
H734 H 0.15787 0.39287 0.27126 0.0
H735 H 0.20901 0.44934 0.21575 0.0
H736 H 0.29557 0.44063 0.17128 0.0
H737 H 0.26248 0.44008 0.17147 0.0
C738 C 0.8699 0.27985 0.75841 0.0
C739 C 0.87779 0.28682 0.72062 0.0
C740 C 0.85092 0.2615 0.76363 0.0
C741 C 0.80254 0.22399 0.71142 0.0
H742 H 0.79786 0.18704 0.79588 0.0
C743 C 0.73331 0.13984 0.7252 0.0
C744 C 0.72519 0.13298 0.76292 0.0
C745 C 0.7516 0.1589 0.71997 0.0
C746 C 0.79883 0.19728 0.7724 0.0
H747 H 0.87178 0.27999 0.65864 0.0
H748 H 0.83889 0.24788 0.66775 0.0
H749 H 0.83019 0.21974 0.78701 0.0
H750 H 0.7299 0.1409 0.82469 0.0
H751 H 0.76171 0.17408 0.81552 0.0
H752 H 0.77119 0.20133 0.69661 0.0
C753 C 0.84719 0.25674 0.69339 0.0
C754 C 0.81737 0.21608 0.76735 0.0
C755 C 0.86614 0.27513 0.68817 0.0
C756 C 0.73573 0.14566 0.79523 0.0
C757 C 0.75405 0.16465 0.79001 0.0
C758 C 0.78401 0.20514 0.71639 0.0
C759 C 0.83938 0.24961 0.7312 0.0
C760 C 0.81949 0.22969 0.73679 0.0
C761 C 0.76225 0.17148 0.75234 0.0
C762 C 0.78193 0.19156 0.74697 0.0
H763 H 0.87841 0.28852 0.78406 0.0
H764 H 0.84524 0.25668 0.79315 0.0
H765 H 0.80349 0.23421 0.68794 0.0
H766 H 0.72559 0.13047 0.69967 0.0
H767 H 0.75761 0.16362 0.6906 0.0
C768 C 0.57486 0.7254 0.28174 0.0
C769 C 0.58746 0.72029 0.25915 0.0
C770 C 0.57504 0.74409 0.27562 0.0
C771 C 0.58957 0.78616 0.20267 0.0
H772 H 0.58683 0.81674 0.29228 0.0
C773 C 0.57994 0.85831 0.1855 0.0
C774 C 0.59128 0.87509 0.21112 0.0
C775 C 0.5792 0.83932 0.19134 0.0
C776 C 0.58778 0.8085 0.26692 0.0
H777 H 0.61018 0.73091 0.21234 0.0
H778 H 0.61075 0.76364 0.20208 0.0
H779 H 0.58656 0.78418 0.30234 0.0
H780 H 0.61078 0.88503 0.263 0.0
H781 H 0.60974 0.85207 0.27283 0.0
H782 H 0.59135 0.81077 0.16732 0.0
C783 C 0.60045 0.75305 0.22415 0.0
C784 C 0.58735 0.78966 0.27267 0.0
C785 C 0.60022 0.73431 0.2302 0.0
C786 C 0.60182 0.87241 0.24277 0.0
C787 C 0.60113 0.85344 0.24855 0.0
C788 C 0.59004 0.80503 0.19693 0.0
C789 C 0.58788 0.7582 0.24682 0.0
C790 C 0.58825 0.77824 0.24063 0.0
C791 C 0.58982 0.83664 0.2229 0.0
C792 C 0.58917 0.81646 0.22898 0.0
H793 H 0.56476 0.71492 0.30416 0.0
H794 H 0.56492 0.74737 0.29322 0.0
H795 H 0.59006 0.77769 0.17727 0.0
H796 H 0.57156 0.85979 0.16091 0.0
H797 H 0.57008 0.82664 0.17133 0.0
C798 C 0.87425 0.61112 0.73895 0.0
C799 C 0.87275 0.59169 0.74468 0.0
C800 C 0.85641 0.61291 0.73818 0.0
C801 C 0.80079 0.58571 0.76653 0.0
H802 H 0.79792 0.62316 0.69105 0.0
C803 C 0.7259 0.58992 0.73944 0.0
C804 C 0.7285 0.60994 0.73593 0.0
C805 C 0.74317 0.58713 0.74031 0.0
C806 C 0.79855 0.61277 0.71252 0.0
H807 H 0.85127 0.55889 0.75439 0.0
H808 H 0.82014 0.56197 0.7525 0.0
H809 H 0.8286 0.61939 0.69331 0.0
H810 H 0.75133 0.64271 0.73051 0.0
H811 H 0.78133 0.63783 0.73206 0.0
H812 H 0.77061 0.57904 0.78553 0.0
C813 C 0.83514 0.57589 0.74914 0.0
C814 C 0.81617 0.61063 0.7139 0.0
C815 C 0.853 0.57412 0.75004 0.0
C816 C 0.74874 0.62707 0.73318 0.0
C817 C 0.76596 0.62427 0.73383 0.0
C818 C 0.7831 0.58779 0.76504 0.0
C819 C 0.83661 0.5953 0.74296 0.0
C820 C 0.8176 0.5972 0.74111 0.0
C821 C 0.76341 0.60428 0.73741 0.0
C822 C 0.78185 0.60147 0.73821 0.0
H823 H 0.88922 0.625 0.73493 0.0
H824 H 0.85818 0.62815 0.73406 0.0
H825 H 0.80144 0.57541 0.78817 0.0
H826 H 0.71052 0.5764 0.7416 0.0
H827 H 0.74068 0.57152 0.74275 0.0
C828 C 0.27469 0.86516 0.22018 0.0
C829 C 0.2893 0.86924 0.25004 0.0
C830 C 0.25639 0.8459 0.21792 0.0
C831 C 0.22127 0.80042 0.27784 0.0
H832 H 0.19972 0.77427 0.17709 0.0
C833 C 0.13796 0.73133 0.25914 0.0
C834 C 0.135 0.715 0.23422 0.0
C835 C 0.15714 0.74972 0.26088 0.0
C836 C 0.2056 0.78127 0.20548 0.0
H837 H 0.29612 0.85612 0.30079 0.0
H838 H 0.26421 0.8225 0.29675 0.0
H839 H 0.23278 0.80685 0.18044 0.0
H840 H 0.14998 0.70528 0.19146 0.0
H841 H 0.18352 0.73739 0.1946 0.0
H842 H 0.1942 0.77477 0.30293 0.0
C843 C 0.26684 0.83429 0.27529 0.0
C844 C 0.22445 0.80007 0.20737 0.0
C845 C 0.28519 0.85354 0.27749 0.0
C846 C 0.15169 0.71755 0.21092 0.0
C847 C 0.1709 0.736 0.21259 0.0
C848 C 0.2024 0.78167 0.27594 0.0
C849 C 0.2522 0.83024 0.24551 0.0
C850 C 0.23246 0.80993 0.24356 0.0
C851 C 0.17387 0.75228 0.2377 0.0
C852 C 0.19427 0.77192 0.23973 0.0
H853 H 0.27732 0.87688 0.19856 0.0
H854 H 0.24534 0.84342 0.19492 0.0
H855 H 0.22689 0.80766 0.30616 0.0
H856 H 0.12544 0.72995 0.27744 0.0
H857 H 0.15879 0.76205 0.28011 0.0
C858 C 0.41434 0.27214 0.72096 0.0
C859 C 0.41708 0.28228 0.75712 0.0
C860 C 0.41589 0.25419 0.71823 0.0
C861 C 0.41198 0.21108 0.77831 0.0
H862 H 0.43736 0.20103 0.6881 0.0
C863 C 0.40359 0.13079 0.74874 0.0
C864 C 0.42128 0.13034 0.73574 0.0
C865 C 0.40352 0.14955 0.75068 0.0
C866 C 0.43035 0.20365 0.71363 0.0
H867 H 0.42405 0.28167 0.81864 0.0
H868 H 0.42696 0.25047 0.81378 0.0
H869 H 0.43742 0.23378 0.69357 0.0
H870 H 0.45271 0.1493 0.71404 0.0
H871 H 0.45263 0.18203 0.71769 0.0
H872 H 0.40519 0.1811 0.79869 0.0
C873 C 0.4233 0.25625 0.78762 0.0
C874 C 0.43019 0.22235 0.71657 0.0
C875 C 0.42177 0.27422 0.79036 0.0
C876 C 0.4388 0.14906 0.72411 0.0
C877 C 0.43872 0.16784 0.72605 0.0
C878 C 0.41212 0.19238 0.77535 0.0
C879 C 0.42021 0.24591 0.75157 0.0
C880 C 0.42095 0.22627 0.7489 0.0
C881 C 0.42114 0.16834 0.73968 0.0
C882 C 0.42122 0.18838 0.7429 0.0
H883 H 0.41068 0.27788 0.69475 0.0
H884 H 0.41317 0.24652 0.69009 0.0
H885 H 0.40453 0.21346 0.8034 0.0
H886 H 0.38979 0.11666 0.75778 0.0
H887 H 0.38958 0.1493 0.76069 0.0
loop_
_geom_bond_atom_site_label_1
_geom_bond_atom_site_label_2
_geom_bond_distance
_geom_bond_site_symmetry_2
_ccdc_geom_bond_type
Zn0 O3 2.031 . S
Zn0 O5 2.049 . S
Zn0 O10 2.067 . S
Zn1 O2 1.962 . S
Zn1 O4 1.986 . S
Zn1 O6 1.996 . S
Zn1 O9 1.943 . S
O2 Zn1 1.962 . S
O2 C7 1.254 . S
O3 Zn0 2.031 . S
O3 C7 1.269 . S
O4 Zn1 1.986 . S
O4 C11 1.262 . S
O5 Zn0 2.049 . S
O5 C13 1.260 . S
O6 Zn1 1.996 . S
O6 C13 1.257 . S
C7 O2 1.254 . S
C7 O3 1.269 . S
C8 O9 1.249 . S
C8 O10 1.270 . S
O9 Zn1 1.943 . S
O9 C8 1.249 . S
O10 Zn0 2.067 . S
O10 C8 1.270 . S
C11 O4 1.262 . S
C11 O12 1.232 . S
O12 C11 1.232 . S
C13 O5 1.260 . S
C13 O6 1.257 . S
Zn14 O17 2.031 . S
Zn14 O19 2.049 . S
Zn14 O24 2.067 . S
Zn15 O16 1.962 . S
Zn15 O18 1.986 . S
Zn15 O20 1.996 . S
Zn15 O23 1.943 . S
O16 Zn15 1.962 . S
O16 C21 1.254 . S
O17 Zn14 2.031 . S
O17 C21 1.269 . S
O18 Zn15 1.986 . S
O18 C25 1.262 . S
O19 Zn14 2.049 . S
O19 C27 1.260 . S
O20 Zn15 1.996 . S
O20 C27 1.257 . S
C21 O16 1.254 . S
C21 O17 1.269 . S
C22 O23 1.249 . S
C22 O24 1.270 . S
O23 Zn15 1.943 . S
O23 C22 1.249 . S
O24 Zn14 2.067 . S
O24 C22 1.270 . S
C25 O18 1.262 . S
C25 O26 1.232 . S
O26 C25 1.232 . S
C27 O19 1.260 . S
C27 O20 1.257 . S
Zn28 O31 2.031 . S
Zn28 O33 2.049 . S
Zn28 O38 2.067 . S
Zn29 O30 1.962 . S
Zn29 O32 1.986 . S
Zn29 O34 1.996 . S
Zn29 O37 1.943 . S
O30 Zn29 1.962 . S
O30 C35 1.254 . S
O31 Zn28 2.031 . S
O31 C35 1.269 . S
O32 Zn29 1.986 . S
O32 C39 1.262 . S
O33 Zn28 2.049 . S
O33 C41 1.260 . S
O34 Zn29 1.996 . S
O34 C41 1.257 . S
C35 O30 1.254 . S
C35 O31 1.269 . S
C36 O37 1.249 . S
C36 O38 1.270 . S
O37 Zn29 1.943 . S
O37 C36 1.249 . S
O38 Zn28 2.067 . S
O38 C36 1.270 . S
C39 O32 1.262 . S
C39 O40 1.232 . S
O40 C39 1.232 . S
C41 O33 1.260 . S
C41 O34 1.257 . S
Zn42 O45 2.031 . S
Zn42 O47 2.049 . S
Zn42 O52 2.067 . S
Zn43 O44 1.962 . S
Zn43 O46 1.986 . S
Zn43 O48 1.996 . S
Zn43 O51 1.943 . S
O44 Zn43 1.962 . S
O44 C49 1.254 . S
O45 Zn42 2.031 . S
O45 C49 1.269 . S
O46 Zn43 1.986 . S
O46 C53 1.262 . S
O47 Zn42 2.049 . S
O47 C55 1.260 . S
O48 Zn43 1.996 . S
O48 C55 1.257 . S
C49 O44 1.254 . S
C49 O45 1.269 . S
C50 O51 1.249 . S
C50 O52 1.270 . S
O51 Zn43 1.943 . S
O51 C50 1.249 . S
O52 Zn42 2.067 . S
O52 C50 1.270 . S
C53 O46 1.262 . S
C53 O54 1.232 . S
O54 C53 1.232 . S
C55 O47 1.260 . S
C55 O48 1.257 . S
Zn56 O59 2.031 . S
Zn56 O61 2.049 . S
Zn56 O66 2.067 . S
Zn57 O58 1.962 . S
Zn57 O60 1.986 . S
Zn57 O62 1.996 . S
Zn57 O65 1.943 . S
O58 Zn57 1.962 . S
O58 C63 1.254 . S
O59 Zn56 2.031 . S
O59 C63 1.269 . S
O60 Zn57 1.986 . S
O60 C67 1.262 . S
O61 Zn56 2.049 . S
O61 C69 1.260 . S
O62 Zn57 1.996 . S
O62 C69 1.257 . S
C63 O58 1.254 . S
C63 O59 1.269 . S
C64 O65 1.249 . S
C64 O66 1.270 . S
O65 Zn57 1.943 . S
O65 C64 1.249 . S
O66 Zn56 2.067 . S
O66 C64 1.270 . S
C67 O60 1.262 . S
C67 O68 1.232 . S
O68 C67 1.232 . S
C69 O61 1.260 . S
C69 O62 1.257 . S
Zn70 O73 2.031 . S
Zn70 O75 2.049 . S
Zn70 O80 2.067 . S
Zn71 O72 1.962 . S
Zn71 O74 1.986 . S
Zn71 O76 1.996 . S
Zn71 O79 1.943 . S
O72 Zn71 1.962 . S
O72 C77 1.254 . S
O73 Zn70 2.031 . S
O73 C77 1.269 . S
O74 Zn71 1.986 . S
O74 C81 1.262 . S
O75 Zn70 2.049 . S
O75 C83 1.260 . S
O76 Zn71 1.996 . S
O76 C83 1.257 . S
C77 O72 1.254 . S
C77 O73 1.269 . S
C78 O79 1.249 . S
C78 O80 1.270 . S
O79 Zn71 1.943 . S
O79 C78 1.249 . S
O80 Zn70 2.067 . S
O80 C78 1.270 . S
C81 O74 1.262 . S
C81 O82 1.232 . S
O82 C81 1.232 . S
C83 O75 1.260 . S
C83 O76 1.257 . S
Zn84 O87 2.031 . S
Zn84 O89 2.049 . S
Zn84 O94 2.067 . S
Zn85 O86 1.962 . S
Zn85 O88 1.986 . S
Zn85 O90 1.996 . S
Zn85 O93 1.943 . S
O86 Zn85 1.962 . S
O86 C91 1.254 . S
O87 Zn84 2.031 . S
O87 C91 1.269 . S
O88 Zn85 1.986 . S
O88 C95 1.262 . S
O89 Zn84 2.049 . S
O89 C97 1.260 . S
O90 Zn85 1.996 . S
O90 C97 1.257 . S
C91 O86 1.254 . S
C91 O87 1.269 . S
C92 O93 1.249 . S
C92 O94 1.270 . S
O93 Zn85 1.943 . S
O93 C92 1.249 . S
O94 Zn84 2.067 . S
O94 C92 1.270 . S
C95 O88 1.262 . S
C95 O96 1.232 . S
O96 C95 1.232 . S
C97 O89 1.260 . S
C97 O90 1.257 . S
Zn98 O101 2.031 . S
Zn98 O103 2.049 . S
Zn98 O108 2.067 . S
Zn99 O100 1.962 . S
Zn99 O102 1.986 . S
Zn99 O104 1.996 . S
Zn99 O107 1.943 . S
O100 Zn99 1.962 . S
O100 C105 1.254 . S
O101 Zn98 2.031 . S
O101 C105 1.269 . S
O102 Zn99 1.986 . S
O102 C109 1.262 . S
O103 Zn98 2.049 . S
O103 C111 1.260 . S
O104 Zn99 1.996 . S
O104 C111 1.257 . S
C105 O100 1.254 . S
C105 O101 1.269 . S
C106 O107 1.249 . S
C106 O108 1.270 . S
O107 Zn99 1.943 . S
O107 C106 1.249 . S
O108 Zn98 2.067 . S
O108 C106 1.270 . S
C109 O102 1.262 . S
C109 O110 1.232 . S
O110 C109 1.232 . S
C111 O103 1.260 . S
C111 O104 1.257 . S
Zn112 O115 2.031 . S
Zn112 O117 2.049 . S
Zn112 O122 2.067 . S
Zn113 O114 1.962 . S
Zn113 O116 1.986 . S
Zn113 O118 1.996 . S
Zn113 O121 1.943 . S
O114 Zn113 1.962 . S
O114 C119 1.254 . S
O115 Zn112 2.031 . S
O115 C119 1.269 . S
O116 Zn113 1.986 . S
O116 C123 1.262 . S
O117 Zn112 2.049 . S
O117 C125 1.260 . S
O118 Zn113 1.996 . S
O118 C125 1.257 . S
C119 O114 1.254 . S
C119 O115 1.269 . S
C120 O121 1.249 . S
C120 O122 1.270 . S
O121 Zn113 1.943 . S
O121 C120 1.249 . S
O122 Zn112 2.067 . S
O122 C120 1.270 . S
C123 O116 1.262 . S
C123 O124 1.232 . S
O124 C123 1.232 . S
C125 O117 1.260 . S
C125 O118 1.257 . S
Zn126 O129 2.031 . S
Zn126 O131 2.049 . S
Zn126 O136 2.067 . S
Zn127 O128 1.962 . S
Zn127 O130 1.986 . S
Zn127 O132 1.996 . S
Zn127 O135 1.943 . S
O128 Zn127 1.962 . S
O128 C133 1.254 . S
O129 Zn126 2.031 . S
O129 C133 1.269 . S
O130 Zn127 1.986 . S
O130 C137 1.262 . S
O131 Zn126 2.049 . S
O131 C139 1.260 . S
O132 Zn127 1.996 . S
O132 C139 1.257 . S
C133 O128 1.254 . S
C133 O129 1.269 . S
C134 O135 1.249 . S
C134 O136 1.270 . S
O135 Zn127 1.943 . S
O135 C134 1.249 . S
O136 Zn126 2.067 . S
O136 C134 1.270 . S
C137 O130 1.262 . S
C137 O138 1.232 . S
O138 C137 1.232 . S
C139 O131 1.260 . S
C139 O132 1.257 . S
Zn140 O143 2.031 . S
Zn140 O145 2.049 . S
Zn140 O150 2.067 . S
Zn141 O142 1.962 . S
Zn141 O144 1.986 . S
Zn141 O146 1.996 . S
Zn141 O149 1.943 . S
O142 Zn141 1.962 . S
O142 C147 1.254 . S
O143 Zn140 2.031 . S
O143 C147 1.269 . S
O144 Zn141 1.986 . S
O144 C151 1.262 . S
O145 Zn140 2.049 . S
O145 C153 1.260 . S
O146 Zn141 1.996 . S
O146 C153 1.257 . S
C147 O142 1.254 . S
C147 O143 1.269 . S
C148 O149 1.249 . S
C148 O150 1.270 . S
O149 Zn141 1.943 . S
O149 C148 1.249 . S
O150 Zn140 2.067 . S
O150 C148 1.270 . S
C151 O144 1.262 . S
C151 O152 1.232 . S
O152 C151 1.232 . S
C153 O145 1.260 . S
C153 O146 1.257 . S
Zn154 O157 2.031 . S
Zn154 O159 2.049 . S
Zn154 O164 2.067 . S
Zn155 O156 1.962 . S
Zn155 O158 1.986 . S
Zn155 O160 1.996 . S
Zn155 O163 1.943 . S
O156 Zn155 1.962 . S
O156 C161 1.254 . S
O157 Zn154 2.031 . S
O157 C161 1.269 . S
O158 Zn155 1.986 . S
O158 C165 1.262 . S
O159 Zn154 2.049 . S
O159 C167 1.260 . S
O160 Zn155 1.996 . S
O160 C167 1.257 . S
C161 O156 1.254 . S
C161 O157 1.269 . S
C162 O163 1.249 . S
C162 O164 1.270 . S
O163 Zn155 1.943 . S
O163 C162 1.249 . S
O164 Zn154 2.067 . S
O164 C162 1.270 . S
C165 O158 1.262 . S
C165 O166 1.232 . S
O166 C165 1.232 . S
C167 O159 1.260 . S
C167 O160 1.257 . S
C168 C169 1.349 . S
C168 C170 1.327 . S
C168 H193 0.950 . S
C169 C168 1.349 . S
C169 C185 1.349 . S
C170 C168 1.327 . S
C170 C189 1.429 . S
C170 H194 0.974 . S
C171 C188 1.574 1_554 S
C171 C190 1.368 . S
C171 H195 0.949 . S
H172 C176 0.949 . S
C173 C174 1.349 . S
C173 C175 1.327 . S
C173 H196 0.950 . S
C174 C173 1.349 . S
C174 C186 1.349 . S
C175 C173 1.327 . S
C175 C191 1.429 . S
C175 H197 0.974 . S
C176 H172 0.949 . S
C176 C184 1.574 1_556 S
C176 C192 1.368 . S
H177 C185 0.950 . S
H178 C183 0.950 . S
H179 C184 0.949 . S
H180 C186 0.950 . S
H181 C187 0.950 . S
H182 C188 0.949 . S
C183 H178 0.950 . S
C183 C185 1.327 . S
C183 C189 1.429 . S
C184 C176 1.574 1_554 S
C184 H179 0.949 . S
C184 C190 1.368 1_655 S
C185 C169 1.349 . S
C185 H177 0.950 . S
C185 C183 1.327 . S
C186 C174 1.349 . S
C186 H180 0.950 . S
C186 C187 1.327 . S
C187 H181 0.950 . S
C187 C186 1.327 . S
C187 C191 1.429 . S
C188 C171 1.574 1_556 S
C188 H182 0.949 . S
C188 C192 1.368 1_455 S
C189 C170 1.429 . S
C189 C183 1.429 . S
C189 C190 1.523 . S
C190 C171 1.368 . S
C190 C184 1.368 1_455 S
C190 C189 1.523 . S
C191 C175 1.429 . S
C191 C187 1.429 . S
C191 C192 1.523 . S
C192 C176 1.368 . S
C192 C188 1.368 1_655 S
C192 C191 1.523 . S
H193 C168 0.950 . S
H194 C170 0.974 . S
H195 C171 0.949 . S
H196 C173 0.950 . S
H197 C175 0.974 . S
C198 C199 1.349 . S
C198 C200 1.327 . S
C198 H223 0.950 . S
C199 C198 1.349 . S
C199 C215 1.349 . S
C200 C198 1.327 . S
C200 C219 1.429 . S
C200 H224 0.950 . S
C201 C218 1.574 . S
C201 C220 1.368 1_545 S
C201 H225 0.949 . S
H202 C206 0.949 . S
C203 C204 1.349 . S
C203 C205 1.327 . S
C203 H226 0.950 . S
C204 C203 1.349 . S
C204 C216 1.349 . S
C205 C203 1.327 . S
C205 C221 1.429 . S
C205 H227 0.950 . S
C206 H202 0.949 . S
C206 C214 1.574 . S
C206 C222 1.368 1_565 S
H207 C215 0.950 . S
H208 C213 0.950 . S
H209 C214 0.949 . S
H210 C216 0.950 . S
H211 C217 0.950 . S
H212 C218 0.949 . S
C213 H208 0.950 . S
C213 C215 1.327 . S
C213 C219 1.429 . S
C214 C206 1.574 . S
C214 H209 0.949 . S
C214 C220 1.368 . S
C215 C199 1.349 . S
C215 H207 0.950 . S
C215 C213 1.327 . S
C216 C204 1.349 . S
C216 H210 0.950 . S
C216 C217 1.327 . S
C217 H211 0.950 . S
C217 C216 1.327 . S
C217 C221 1.429 . S
C218 C201 1.574 . S
C218 H212 0.949 . S
C218 C222 1.368 . S
C219 C200 1.429 . S
C219 C213 1.429 . S
C219 C220 1.523 . S
C220 C201 1.368 1_565 S
C220 C214 1.368 . S
C220 C219 1.523 . S
C221 C205 1.429 . S
C221 C217 1.429 . S
C221 C222 1.523 . S
C222 C206 1.368 1_545 S
C222 C218 1.368 . S
C222 C221 1.523 . S
H223 C198 0.950 . S
H224 C200 0.950 . S
H225 C201 0.949 . S
H226 C203 0.950 . S
H227 C205 0.950 . S
C228 C229 1.349 . S
C228 C230 1.327 . S
C228 H253 0.950 . S
C229 C228 1.349 . S
C229 C245 1.349 . S
C230 C228 1.327 . S
C230 C249 1.429 . S
C230 H254 0.950 . S
C231 C248 1.574 1_554 S
C231 C250 1.368 . S
C231 H255 0.949 . S
H232 C236 0.949 . S
C233 C234 1.349 . S
C233 C235 1.327 . S
C233 H256 0.950 . S
C234 C233 1.349 . S
C234 C246 1.349 . S
C235 C233 1.327 . S
C235 C251 1.429 . S
C235 H257 0.950 . S
C236 H232 0.949 . S
C236 C244 1.574 1_556 S
C236 C252 1.368 . S
H237 C245 0.950 . S
H238 C243 0.950 . S
H239 C244 0.949 . S
H240 C246 0.950 . S
H241 C247 0.950 . S
H242 C248 0.949 . S
C243 H238 0.950 . S
C243 C245 1.327 . S
C243 C249 1.429 . S
C244 C236 1.574 1_554 S
C244 H239 0.949 . S
C244 C250 1.368 . S
C245 C229 1.349 . S
C245 H237 0.950 . S
C245 C243 1.327 . S
C246 C234 1.349 . S
C246 H240 0.950 . S
C246 C247 1.327 . S
C247 H241 0.950 . S
C247 C246 1.327 . S
C247 C251 1.429 . S
C248 C231 1.574 1_556 S
C248 H242 0.949 . S
C248 C252 1.368 . S
C249 C230 1.429 . S
C249 C243 1.429 . S
C249 C250 1.523 . S
C250 C231 1.368 . S
C250 C244 1.368 . S
C250 C249 1.523 . S
C251 C235 1.429 . S
C251 C247 1.429 . S
C251 C252 1.523 . S
C252 C236 1.368 . S
C252 C248 1.368 . S
C252 C251 1.523 . S
H253 C228 0.950 . S
H254 C230 0.950 . S
H255 C231 0.949 . S
H256 C233 0.950 . S
H257 C235 0.950 . S
C258 C259 1.349 . S
C258 C260 1.327 . S
C258 H283 0.950 . S
C259 C258 1.349 . S
C259 C275 1.349 . S
C260 C258 1.327 . S
C260 C279 1.429 . S
C260 H284 0.950 . S
C261 C278 1.574 1_455 S
C261 C280 1.368 . S
C261 H285 0.949 . S
H262 C266 0.949 . S
C263 C264 1.349 . S
C263 C265 1.327 . S
C263 H286 0.950 . S
C264 C263 1.349 . S
C264 C276 1.349 . S
C265 C263 1.327 . S
C265 C281 1.429 . S
C265 H287 0.950 . S
C266 H262 0.949 . S
C266 C274 1.574 1_655 S
C266 C282 1.368 . S
H267 C275 0.950 . S
H268 C273 0.950 . S
H269 C274 0.949 . S
H270 C276 0.950 . S
H271 C277 0.950 . S
H272 C278 0.949 . S
C273 H268 0.950 . S
C273 C275 1.327 . S
C273 C279 1.429 . S
C274 C266 1.574 1_455 S
C274 H269 0.949 . S
C274 C280 1.368 . S
C275 C259 1.349 . S
C275 H267 0.950 . S
C275 C273 1.327 . S
C276 C264 1.349 . S
C276 H270 0.950 . S
C276 C277 1.327 . S
C277 H271 0.950 . S
C277 C276 1.327 . S
C277 C281 1.429 . S
C278 C261 1.574 1_655 S
C278 H272 0.949 . S
C278 C282 1.368 . S
C279 C260 1.429 . S
C279 C273 1.429 . S
C279 C280 1.523 . S
C280 C261 1.368 . S
C280 C274 1.368 . S
C280 C279 1.523 . S
C281 C265 1.429 . S
C281 C277 1.429 . S
C281 C282 1.523 . S
C282 C266 1.368 . S
C282 C278 1.368 . S
C282 C281 1.523 . S
H283 C258 0.950 . S
H284 C260 0.950 . S
H285 C261 0.949 . S
H286 C263 0.950 . S
H287 C265 0.950 . S
C288 C289 1.349 . S
C288 C290 1.327 . S
C288 H313 0.950 . S
C289 C288 1.349 . S
C289 C305 1.349 . S
C290 C288 1.327 . S
C290 C309 1.429 . S
C290 H314 0.950 . S
C291 C308 1.574 1_556 S
C291 C310 1.368 1_565 S
C291 H315 0.949 . S
H292 C296 0.949 . S
C293 C294 1.349 . S
C293 C295 1.327 . S
C293 H316 0.950 . S
C294 C293 1.349 . S
C294 C306 1.349 . S
C295 C293 1.327 . S
C295 C311 1.429 . S
C295 H317 0.950 . S
C296 H292 0.949 . S
C296 C304 1.574 1_554 S
C296 C312 1.368 1_545 S
H297 C305 0.950 . S
H298 C303 0.950 . S
H299 C304 0.949 . S
H300 C306 0.950 . S
H301 C307 0.950 . S
H302 C308 0.949 . S
C303 H298 0.950 . S
C303 C305 1.327 . S
C303 C309 1.429 . S
C304 C296 1.574 1_556 S
C304 H299 0.949 . S
C304 C310 1.368 . S
C305 C289 1.349 . S
C305 H297 0.950 . S
C305 C303 1.327 . S
C306 C294 1.349 . S
C306 H300 0.950 . S
C306 C307 1.327 . S
C307 H301 0.950 . S
C307 C306 1.327 . S
C307 C311 1.429 . S
C308 C291 1.574 1_554 S
C308 H302 0.949 . S
C308 C312 1.368 . S
C309 C290 1.429 . S
C309 C303 1.429 . S
C309 C310 1.523 . S
C310 C291 1.368 1_545 S
C310 C304 1.368 . S
C310 C309 1.523 . S
C311 C295 1.429 . S
C311 C307 1.429 . S
C311 C312 1.523 . S
C312 C296 1.368 1_565 S
C312 C308 1.368 . S
C312 C311 1.523 . S
H313 C288 0.950 . S
H314 C290 0.950 . S
H315 C291 0.949 . S
H316 C293 0.950 . S
H317 C295 0.950 . S
C318 C319 1.349 . S
C318 C320 1.327 . S
C318 H343 0.950 . S
C319 C318 1.349 . S
C319 C335 1.349 . S
C320 C318 1.327 . S
C320 C339 1.429 . S
C320 H344 0.950 . S
C321 C338 1.574 . S
C321 C340 1.368 . S
C321 H345 0.949 . S
H322 C326 0.949 . S
C323 C324 1.349 . S
C323 C325 1.327 . S
C323 H346 0.950 . S
C324 C323 1.349 . S
C324 C336 1.349 . S
C325 C323 1.327 . S
C325 C341 1.429 . S
C325 H347 0.950 . S
C326 H322 0.949 . S
C326 C334 1.574 . S
C326 C342 1.368 . S
H327 C335 0.950 . S
H328 C333 0.950 . S
H329 C334 0.949 . S
H330 C336 0.950 . S
H331 C337 0.950 . S
H332 C338 0.949 . S
C333 H328 0.950 . S
C333 C335 1.327 . S
C333 C339 1.429 . S
C334 C326 1.574 . S
C334 H329 0.949 . S
C334 C340 1.368 . S
C335 C319 1.349 . S
C335 H327 0.950 . S
C335 C333 1.327 . S
C336 C324 1.349 . S
C336 H330 0.950 . S
C336 C337 1.327 . S
C337 H331 0.950 . S
C337 C336 1.327 . S
C337 C341 1.429 . S
C338 C321 1.574 . S
C338 H332 0.949 . S
C338 C342 1.368 . S
C339 C320 1.429 . S
C339 C333 1.429 . S
C339 C340 1.523 . S
C340 C321 1.368 . S
C340 C334 1.368 . S
C340 C339 1.523 . S
C341 C325 1.429 . S
C341 C337 1.429 . S
C341 C342 1.523 . S
C342 C326 1.368 . S
C342 C338 1.368 . S
C342 C341 1.523 . S
H343 C318 0.950 . S
H344 C320 0.950 . S
H345 C321 0.949 . S
H346 C323 0.950 . S
H347 C325 0.950 . S
C348 C349 1.349 . S
C348 C350 1.327 . S
C348 H373 0.950 . S
C349 C348 1.349 . S
C349 C365 1.349 . S
C350 C348 1.327 . S
C350 C369 1.429 . S
C350 H374 0.950 . S
C351 C368 1.574 1_656 S
C351 C370 1.368 . S
C351 H375 0.949 . S
H352 C356 0.949 . S
C353 C354 1.349 . S
C353 C355 1.327 . S
C353 H376 0.950 . S
C354 C353 1.349 . S
C354 C366 1.349 . S
C355 C353 1.327 . S
C355 C371 1.429 . S
C355 H377 0.950 . S
C356 H352 0.949 . S
C356 C364 1.574 1_454 S
C356 C372 1.368 . S
H357 C365 0.950 . S
H358 C363 0.950 . S
H359 C364 0.949 . S
H360 C366 0.950 . S
H361 C367 0.950 . S
H362 C368 0.949 . S
C363 H358 0.950 . S
C363 C365 1.327 . S
C363 C369 1.429 . S
C364 C356 1.574 1_656 S
C364 H359 0.949 . S
C364 C370 1.368 . S
C365 C349 1.349 . S
C365 H357 0.950 . S
C365 C363 1.327 . S
C366 C354 1.349 . S
C366 H360 0.950 . S
C366 C367 1.327 . S
C367 H361 0.950 . S
C367 C366 1.327 . S
C367 C371 1.429 . S
C368 C351 1.574 1_454 S
C368 H362 0.949 . S
C368 C372 1.368 . S
C369 C350 1.429 . S
C369 C363 1.429 . S
C369 C370 1.523 . S
C370 C351 1.368 . S
C370 C364 1.368 . S
C370 C369 1.523 . S
C371 C355 1.429 . S
C371 C367 1.429 . S
C371 C372 1.523 . S
C372 C356 1.368 . S
C372 C368 1.368 . S
C372 C371 1.523 . S
H373 C348 0.950 . S
H374 C350 0.950 . S
H375 C351 0.949 . S
H376 C353 0.950 . S
H377 C355 0.950 . S
C378 C379 1.349 . S
C378 C380 1.327 . S
C378 H403 0.950 . S
C379 C378 1.349 . S
C379 C395 1.349 . S
C380 C378 1.327 . S
C380 C399 1.429 . S
C380 H404 0.947 . S
C381 C398 1.574 . S
C381 C400 1.368 . S
C381 H405 0.949 . S
H382 C386 0.949 . S
C383 C384 1.349 . S
C383 C385 1.327 . S
C383 H406 0.950 . S
C384 C383 1.349 . S
C384 C396 1.349 . S
C385 C383 1.327 . S
C385 C401 1.429 . S
C385 H407 0.948 . S
C386 H382 0.949 . S
C386 C394 1.574 . S
C386 C402 1.368 . S
H387 C395 0.950 . S
H388 C393 0.950 . S
H389 C394 0.949 . S
H390 C396 0.950 . S
H391 C397 0.950 . S
H392 C398 0.949 . S
C393 H388 0.950 . S
C393 C395 1.327 . S
C393 C399 1.429 . S
C394 C386 1.574 . S
C394 H389 0.949 . S
C394 C400 1.368 1_545 S
C395 C379 1.349 . S
C395 H387 0.950 . S
C395 C393 1.327 . S
C396 C384 1.349 . S
C396 H390 0.950 . S
C396 C397 1.327 . S
C397 H391 0.950 . S
C397 C396 1.327 . S
C397 C401 1.429 . S
C398 C381 1.574 . S
C398 H392 0.949 . S
C398 C402 1.368 1_565 S
C399 C380 1.429 . S
C399 C393 1.429 . S
C399 C400 1.523 . S
C400 C381 1.368 . S
C400 C394 1.368 1_565 S
C400 C399 1.523 . S
C401 C385 1.429 . S
C401 C397 1.429 . S
C401 C402 1.523 . S
C402 C386 1.368 . S
C402 C398 1.368 1_545 S
C402 C401 1.523 . S
H403 C378 0.950 . S
H404 C380 0.947 . S
H405 C381 0.949 . S
H406 C383 0.950 . S
H407 C385 0.948 . S
C408 C409 1.349 . S
C408 C410 1.327 . S
C408 H433 0.950 . S
C409 C408 1.349 . S
C409 C425 1.349 . S
C410 C408 1.327 . S
C410 C429 1.429 . S
C410 H434 0.950 . S
C411 C428 1.574 1_556 S
C411 C430 1.368 . S
C411 H435 0.949 . S
H412 C416 0.949 . S
C413 C414 1.349 . S
C413 C415 1.327 . S
C413 H436 0.950 . S
C414 C413 1.349 . S
C414 C426 1.349 . S
C415 C413 1.327 . S
C415 C431 1.429 . S
C415 H437 0.950 . S
C416 H412 0.949 . S
C416 C424 1.574 1_554 S
C416 C432 1.368 . S
H417 C425 0.950 . S
H418 C423 0.950 . S
H419 C424 0.949 . S
H420 C426 0.950 . S
H421 C427 0.950 . S
H422 C428 0.949 . S
C423 H418 0.950 . S
C423 C425 1.327 . S
C423 C429 1.429 . S
C424 C416 1.574 1_556 S
C424 H419 0.949 . S
C424 C430 1.368 . S
C425 C409 1.349 . S
C425 H417 0.950 . S
C425 C423 1.327 . S
C426 C414 1.349 . S
C426 H420 0.950 . S
C426 C427 1.327 . S
C427 H421 0.950 . S
C427 C426 1.327 . S
C427 C431 1.429 . S
C428 C411 1.574 1_554 S
C428 H422 0.949 . S
C428 C432 1.368 . S
C429 C410 1.429 . S
C429 C423 1.429 . S
C429 C430 1.523 . S
C430 C411 1.368 . S
C430 C424 1.368 . S
C430 C429 1.523 . S
C431 C415 1.429 . S
C431 C427 1.429 . S
C431 C432 1.523 . S
C432 C416 1.368 . S
C432 C428 1.368 . S
C432 C431 1.523 . S
H433 C408 0.950 . S
H434 C410 0.950 . S
H435 C411 0.949 . S
H436 C413 0.950 . S
H437 C415 0.950 . S
C438 C439 1.349 . S
C438 C440 1.327 . S
C438 H463 0.950 . S
C439 C438 1.349 . S
C439 C455 1.349 . S
C440 C438 1.327 . S
C440 C459 1.429 . S
C440 H464 0.950 . S
C441 C458 1.574 . S
C441 C460 1.368 1_455 S
C441 H465 0.949 . S
H442 C446 0.949 . S
C443 C444 1.349 . S
C443 C445 1.327 . S
C443 H466 0.950 . S
C444 C443 1.349 . S
C444 C456 1.349 . S
C445 C443 1.327 . S
C445 C461 1.429 . S
C445 H467 0.950 . S
C446 H442 0.949 . S
C446 C454 1.574 . S
C446 C462 1.368 1_655 S
H447 C455 0.950 . S
H448 C453 0.950 1_455 S
H449 C454 0.949 . S
H450 C456 0.950 . S
H451 C457 0.950 1_655 S
H452 C458 0.949 . S
C453 H448 0.950 1_655 S
C453 C455 1.327 . S
C453 C459 1.429 . S
C454 C446 1.574 . S
C454 H449 0.949 . S
C454 C460 1.368 . S
C455 C439 1.349 . S
C455 H447 0.950 . S
C455 C453 1.327 . S
C456 C444 1.349 . S
C456 H450 0.950 . S
C456 C457 1.327 . S
C457 H451 0.950 1_455 S
C457 C456 1.327 . S
C457 C461 1.429 . S
C458 C441 1.574 . S
C458 H452 0.949 . S
C458 C462 1.368 . S
C459 C440 1.429 . S
C459 C453 1.429 . S
C459 C460 1.523 . S
C460 C441 1.368 1_655 S
C460 C454 1.368 . S
C460 C459 1.523 . S
C461 C445 1.429 . S
C461 C457 1.429 . S
C461 C462 1.523 . S
C462 C446 1.368 1_455 S
C462 C458 1.368 . S
C462 C461 1.523 . S
H463 C438 0.950 . S
H464 C440 0.950 . S
H465 C441 0.949 . S
H466 C443 0.950 . S
H467 C445 0.950 . S
C468 C469 1.349 . S
C468 C470 1.327 . S
C468 H493 0.950 . S
C469 C468 1.349 . S
C469 C485 1.349 . S
C470 C468 1.327 . S
C470 C489 1.429 . S
C470 H494 0.950 . S
C471 C488 1.574 1_556 S
C471 C490 1.368 1_565 S
C471 H495 0.949 . S
H472 C476 0.949 . S
C473 C474 1.349 . S
C473 C475 1.327 . S
C473 H496 0.950 . S
C474 C473 1.349 . S
C474 C486 1.349 . S
C475 C473 1.327 . S
C475 C491 1.429 . S
C475 H497 0.950 . S
C476 H472 0.949 . S
C476 C484 1.574 1_554 S
C476 C492 1.368 1_545 S
H477 C485 0.950 . S
H478 C483 0.950 1_565 S
H479 C484 0.949 . S
H480 C486 0.950 . S
H481 C487 0.950 1_545 S
H482 C488 0.949 . S
C483 H478 0.950 1_545 S
C483 C485 1.327 . S
C483 C489 1.429 . S
C484 C476 1.574 1_556 S
C484 H479 0.949 . S
C484 C490 1.368 . S
C485 C469 1.349 . S
C485 H477 0.950 . S
C485 C483 1.327 . S
C486 C474 1.349 . S
C486 H480 0.950 . S
C486 C487 1.327 . S
C487 H481 0.950 1_565 S
C487 C486 1.327 . S
C487 C491 1.429 . S
C488 C471 1.574 1_554 S
C488 H482 0.949 . S
C488 C492 1.368 . S
C489 C470 1.429 . S
C489 C483 1.429 . S
C489 C490 1.523 . S
C490 C471 1.368 1_545 S
C490 C484 1.368 . S
C490 C489 1.523 . S
C491 C475 1.429 . S
C491 C487 1.429 . S
C491 C492 1.523 . S
C492 C476 1.368 1_565 S
C492 C488 1.368 . S
C492 C491 1.523 . S
H493 C468 0.950 . S
H494 C470 0.950 . S
H495 C471 0.949 . S
H496 C473 0.950 . S
H497 C475 0.950 . S
C498 C499 1.349 . S
C498 C500 1.327 . S
C498 H523 0.950 . S
C499 C498 1.349 . S
C499 C515 1.349 . S
C500 C498 1.327 . S
C500 C519 1.429 . S
C500 H524 0.950 . S
C501 C518 1.574 . S
C501 C520 1.368 . S
C501 H525 0.949 . S
H502 C506 0.949 . S
C503 C504 1.349 . S
C503 C505 1.327 . S
C503 H526 0.950 . S
C504 C503 1.349 . S
C504 C516 1.349 . S
C505 C503 1.327 . S
C505 C521 1.429 . S
C505 H527 0.950 . S
C506 H502 0.949 . S
C506 C514 1.574 . S
C506 C522 1.368 . S
H507 C515 0.950 . S
H508 C513 0.950 . S
H509 C514 0.949 . S
H510 C516 0.950 . S
H511 C517 0.950 . S
H512 C518 0.949 . S
C513 H508 0.950 . S
C513 C515 1.327 . S
C513 C519 1.429 . S
C514 C506 1.574 . S
C514 H509 0.949 . S
C514 C520 1.368 . S
C515 C499 1.349 . S
C515 H507 0.950 . S
C515 C513 1.327 . S
C516 C504 1.349 . S
C516 H510 0.950 . S
C516 C517 1.327 . S
C517 H511 0.950 . S
C517 C516 1.327 . S
C517 C521 1.429 . S
C518 C501 1.574 . S
C518 H512 0.949 . S
C518 C522 1.368 . S
C519 C500 1.429 . S
C519 C513 1.429 . S
C519 C520 1.523 . S
C520 C501 1.368 . S
C520 C514 1.368 . S
C520 C519 1.523 . S
C521 C505 1.429 . S
C521 C517 1.429 . S
C521 C522 1.523 . S
C522 C506 1.368 . S
C522 C518 1.368 . S
C522 C521 1.523 . S
H523 C498 0.950 . S
H524 C500 0.950 . S
H525 C501 0.949 . S
H526 C503 0.950 . S
H527 C505 0.950 . S
C528 C529 1.349 . S
C528 C530 1.327 . S
C528 H553 0.950 . S
C529 C528 1.349 . S
C529 C545 1.349 . S
C530 C528 1.327 . S
C530 C549 1.429 . S
C530 H554 0.950 . S
C531 C548 1.574 . S
C531 C550 1.368 . S
C531 H555 0.949 . S
H532 C536 0.949 . S
C533 C534 1.349 . S
C533 C535 1.327 . S
C533 H556 0.950 . S
C534 C533 1.349 . S
C534 C546 1.349 . S
C535 C533 1.327 . S
C535 C551 1.429 . S
C535 H557 0.950 . S
C536 H532 0.949 . S
C536 C544 1.574 . S
C536 C552 1.368 . S
H537 C545 0.950 . S
H538 C543 0.950 . S
H539 C544 0.949 . S
H540 C546 0.950 . S
H541 C547 0.950 . S
H542 C548 0.949 . S
C543 H538 0.950 . S
C543 C545 1.327 . S
C543 C549 1.429 . S
C544 C536 1.574 . S
C544 H539 0.949 . S
C544 C550 1.368 . S
C545 C529 1.349 . S
C545 H537 0.950 . S
C545 C543 1.327 . S
C546 C534 1.349 . S
C546 H540 0.950 . S
C546 C547 1.327 . S
C547 H541 0.950 . S
C547 C546 1.327 . S
C547 C551 1.429 . S
C548 C531 1.574 . S
C548 H542 0.949 . S
C548 C552 1.368 . S
C549 C530 1.429 . S
C549 C543 1.429 . S
C549 C550 1.523 . S
C550 C531 1.368 . S
C550 C544 1.368 . S
C550 C549 1.523 . S
C551 C535 1.429 . S
C551 C547 1.429 . S
C551 C552 1.523 . S
C552 C536 1.368 . S
C552 C548 1.368 . S
C552 C551 1.523 . S
H553 C528 0.950 . S
H554 C530 0.950 . S
H555 C531 0.949 . S
H556 C533 0.950 . S
H557 C535 0.950 . S
C558 C559 1.349 . S
C558 C560 1.327 . S
C558 H583 0.950 . S
C559 C558 1.349 . S
C559 C575 1.349 . S
C560 C558 1.327 . S
C560 C579 1.429 . S
C560 H584 0.950 . S
C561 C578 1.574 . S
C561 C580 1.368 . S
C561 H585 0.949 . S
H562 C566 0.949 . S
C563 C564 1.349 . S
C563 C565 1.327 . S
C563 H586 0.950 . S
C564 C563 1.349 . S
C564 C576 1.349 . S
C565 C563 1.327 . S
C565 C581 1.429 . S
C565 H587 0.950 . S
C566 H562 0.949 . S
C566 C574 1.574 . S
C566 C582 1.368 . S
H567 C575 0.950 . S
H568 C573 0.950 . S
H569 C574 0.949 . S
H570 C576 0.950 . S
H571 C577 0.950 . S
H572 C578 0.949 . S
C573 H568 0.950 . S
C573 C575 1.327 . S
C573 C579 1.429 . S
C574 C566 1.574 . S
C574 H569 0.949 . S
C574 C580 1.368 . S
C575 C559 1.349 . S
C575 H567 0.950 . S
C575 C573 1.327 . S
C576 C564 1.349 . S
C576 H570 0.950 . S
C576 C577 1.327 . S
C577 H571 0.950 . S
C577 C576 1.327 . S
C577 C581 1.429 . S
C578 C561 1.574 . S
C578 H572 0.949 . S
C578 C582 1.368 . S
C579 C560 1.429 . S
C579 C573 1.429 . S
C579 C580 1.523 . S
C580 C561 1.368 . S
C580 C574 1.368 . S
C580 C579 1.523 . S
C581 C565 1.429 . S
C581 C577 1.429 . S
C581 C582 1.523 . S
C582 C566 1.368 . S
C582 C578 1.368 . S
C582 C581 1.523 . S
H583 C558 0.950 . S
H584 C560 0.950 . S
H585 C561 0.949 . S
H586 C563 0.950 . S
H587 C565 0.950 . S
C588 C589 1.349 . S
C588 C590 1.327 . S
C588 H613 0.950 . S
C589 C588 1.349 . S
C589 C605 1.349 . S
C590 C588 1.327 . S
C590 C609 1.429 . S
C590 H614 0.950 . S
C591 C608 1.574 . S
C591 C610 1.368 . S
C591 H615 0.949 . S
H592 C596 0.949 . S
C593 C594 1.349 . S
C593 C595 1.327 . S
C593 H616 0.950 . S
C594 C593 1.349 . S
C594 C606 1.349 . S
C595 C593 1.327 . S
C595 C611 1.429 . S
C595 H617 0.950 . S
C596 H592 0.949 . S
C596 C604 1.574 . S
C596 C612 1.368 . S
H597 C605 0.950 . S
H598 C603 0.950 . S
H599 C604 0.949 . S
H600 C606 0.950 . S
H601 C607 0.950 . S
H602 C608 0.949 . S
C603 H598 0.950 . S
C603 C605 1.327 . S
C603 C609 1.429 . S
C604 C596 1.574 . S
C604 H599 0.949 . S
C604 C610 1.368 . S
C605 C589 1.349 . S
C605 H597 0.950 . S
C605 C603 1.327 . S
C606 C594 1.349 . S
C606 H600 0.950 . S
C606 C607 1.327 . S
C607 H601 0.950 . S
C607 C606 1.327 . S
C607 C611 1.429 . S
C608 C591 1.574 . S
C608 H602 0.949 . S
C608 C612 1.368 . S
C609 C590 1.429 . S
C609 C603 1.429 . S
C609 C610 1.523 . S
C610 C591 1.368 . S
C610 C604 1.368 . S
C610 C609 1.523 . S
C611 C595 1.429 . S
C611 C607 1.429 . S
C611 C612 1.523 . S
C612 C596 1.368 . S
C612 C608 1.368 . S
C612 C611 1.523 . S
H613 C588 0.950 . S
H614 C590 0.950 . S
H615 C591 0.949 . S
H616 C593 0.950 . S
H617 C595 0.950 . S
C618 C619 1.349 . S
C618 C620 1.327 . S
C618 H643 0.950 . S
C619 C618 1.349 . S
C619 C635 1.349 . S
C620 C618 1.327 . S
C620 C639 1.429 . S
C620 H644 0.950 . S
C621 C638 1.574 . S
C621 C640 1.368 . S
C621 H645 0.949 . S
H622 C626 0.949 . S
C623 C624 1.349 . S
C623 C625 1.327 . S
C623 H646 0.950 . S
C624 C623 1.349 . S
C624 C636 1.349 . S
C625 C623 1.327 . S
C625 C641 1.429 . S
C625 H647 0.950 . S
C626 H622 0.949 . S
C626 C634 1.574 . S
C626 C642 1.368 . S
H627 C635 0.950 . S
H628 C633 0.950 . S
H629 C634 0.949 . S
H630 C636 0.950 . S
H631 C637 0.950 . S
H632 C638 0.949 . S
C633 H628 0.950 . S
C633 C635 1.327 . S
C633 C639 1.429 . S
C634 C626 1.574 . S
C634 H629 0.949 . S
C634 C640 1.368 . S
C635 C619 1.349 . S
C635 H627 0.950 . S
C635 C633 1.327 . S
C636 C624 1.349 . S
C636 H630 0.950 . S
C636 C637 1.327 . S
C637 H631 0.950 . S
C637 C636 1.327 . S
C637 C641 1.429 . S
C638 C621 1.574 . S
C638 H632 0.949 . S
C638 C642 1.368 . S
C639 C620 1.429 . S
C639 C633 1.429 . S
C639 C640 1.523 . S
C640 C621 1.368 . S
C640 C634 1.368 . S
C640 C639 1.523 . S
C641 C625 1.429 . S
C641 C637 1.429 . S
C641 C642 1.523 . S
C642 C626 1.368 . S
C642 C638 1.368 . S
C642 C641 1.523 . S
H643 C618 0.950 . S
H644 C620 0.950 . S
H645 C621 0.949 . S
H646 C623 0.950 . S
H647 C625 0.950 . S
C648 C649 1.349 . S
C648 C650 1.327 . S
C648 H673 0.950 . S
C649 C648 1.349 . S
C649 C665 1.349 . S
C650 C648 1.327 . S
C650 C669 1.429 . S
C650 H674 0.950 . S
C651 C668 1.574 . S
C651 C670 1.368 . S
C651 H675 0.949 . S
H652 C656 0.949 . S
C653 C654 1.349 . S
C653 C655 1.327 . S
C653 H676 0.950 . S
C654 C653 1.349 . S
C654 C666 1.349 . S
C655 C653 1.327 . S
C655 C671 1.429 . S
C655 H677 0.950 . S
C656 H652 0.949 . S
C656 C664 1.574 . S
C656 C672 1.368 . S
H657 C665 0.950 . S
H658 C663 0.950 . S
H659 C664 0.949 . S
H660 C666 0.950 . S
H661 C667 0.950 . S
H662 C668 0.949 . S
C663 H658 0.950 . S
C663 C665 1.327 . S
C663 C669 1.429 . S
C664 C656 1.574 . S
C664 H659 0.949 . S
C664 C670 1.368 . S
C665 C649 1.349 . S
C665 H657 0.950 . S
C665 C663 1.327 . S
C666 C654 1.349 . S
C666 H660 0.950 . S
C666 C667 1.327 . S
C667 H661 0.950 . S
C667 C666 1.327 . S
C667 C671 1.429 . S
C668 C651 1.574 . S
C668 H662 0.949 . S
C668 C672 1.368 . S
C669 C650 1.429 . S
C669 C663 1.429 . S
C669 C670 1.523 . S
C670 C651 1.368 . S
C670 C664 1.368 . S
C670 C669 1.523 . S
C671 C655 1.429 . S
C671 C667 1.429 . S
C671 C672 1.523 . S
C672 C656 1.368 . S
C672 C668 1.368 . S
C672 C671 1.523 . S
H673 C648 0.950 . S
H674 C650 0.950 . S
H675 C651 0.949 . S
H676 C653 0.950 . S
H677 C655 0.950 . S
C678 C679 1.349 . S
C678 C680 1.327 . S
C678 H703 0.950 . S
C679 C678 1.349 . S
C679 C695 1.349 . S
C680 C678 1.327 . S
C680 C699 1.429 . S
C680 H704 0.950 . S
C681 C698 1.574 . S
C681 C700 1.368 . S
C681 H705 0.949 . S
H682 C686 0.949 . S
C683 C684 1.349 . S
C683 C685 1.327 . S
C683 H706 0.950 . S
C684 C683 1.349 . S
C684 C696 1.349 . S
C685 C683 1.327 . S
C685 C701 1.429 . S
C685 H707 0.950 . S
C686 H682 0.949 . S
C686 C694 1.574 . S
C686 C702 1.368 . S
H687 C695 0.950 . S
H688 C693 0.950 . S
H689 C694 0.949 . S
H690 C696 0.950 . S
H691 C697 0.950 . S
H692 C698 0.949 . S
C693 H688 0.950 . S
C693 C695 1.327 . S
C693 C699 1.429 . S
C694 C686 1.574 . S
C694 H689 0.949 . S
C694 C700 1.368 . S
C695 C679 1.349 . S
C695 H687 0.950 . S
C695 C693 1.327 . S
C696 C684 1.349 . S
C696 H690 0.950 . S
C696 C697 1.327 . S
C697 H691 0.950 . S
C697 C696 1.327 . S
C697 C701 1.429 . S
C698 C681 1.574 . S
C698 H692 0.949 . S
C698 C702 1.368 . S
C699 C680 1.429 . S
C699 C693 1.429 . S
C699 C700 1.523 . S
C700 C681 1.368 . S
C700 C694 1.368 . S
C700 C699 1.523 . S
C701 C685 1.429 . S
C701 C697 1.429 . S
C701 C702 1.523 . S
C702 C686 1.368 . S
C702 C698 1.368 . S
C702 C701 1.523 . S
H703 C678 0.950 . S
H704 C680 0.950 . S
H705 C681 0.949 . S
H706 C683 0.950 . S
H707 C685 0.950 . S
C708 C709 1.349 . S
C708 C710 1.327 . S
C708 H733 0.950 . S
C709 C708 1.349 . S
C709 C725 1.349 . S
C710 C708 1.327 . S
C710 C729 1.429 . S
C710 H734 0.950 . S
C711 C728 1.574 . S
C711 C730 1.368 . S
C711 H735 0.949 . S
H712 C716 0.949 . S
C713 C714 1.349 . S
C713 C715 1.327 . S
C713 H736 0.950 . S
C714 C713 1.349 . S
C714 C726 1.349 . S
C715 C713 1.327 . S
C715 C731 1.429 . S
C715 H737 0.950 . S
C716 H712 0.949 . S
C716 C724 1.574 . S
C716 C732 1.368 . S
H717 C725 0.950 . S
H718 C723 0.950 . S
H719 C724 0.949 . S
H720 C726 0.950 . S
H721 C727 0.950 . S
H722 C728 0.949 . S
C723 H718 0.950 . S
C723 C725 1.327 . S
C723 C729 1.429 . S
C724 C716 1.574 . S
C724 H719 0.949 . S
C724 C730 1.368 . S
C725 C709 1.349 . S
C725 H717 0.950 . S
C725 C723 1.327 . S
C726 C714 1.349 . S
C726 H720 0.950 . S
C726 C727 1.327 . S
C727 H721 0.950 . S
C727 C726 1.327 . S
C727 C731 1.429 . S
C728 C711 1.574 . S
C728 H722 0.949 . S
C728 C732 1.368 . S
C729 C710 1.429 . S
C729 C723 1.429 . S
C729 C730 1.523 . S
C730 C711 1.368 . S
C730 C724 1.368 . S
C730 C729 1.523 . S
C731 C715 1.429 . S
C731 C727 1.429 . S
C731 C732 1.523 . S
C732 C716 1.368 . S
C732 C728 1.368 . S
C732 C731 1.523 . S
H733 C708 0.950 . S
H734 C710 0.950 . S
H735 C711 0.949 . S
H736 C713 0.950 . S
H737 C715 0.950 . S
C738 C739 1.349 . S
C738 C740 1.327 . S
C738 H763 0.950 . S
C739 C738 1.349 . S
C739 C755 1.349 . S
C740 C738 1.327 . S
C740 C759 1.429 . S
C740 H764 0.950 . S
C741 C758 1.574 . S
C741 C760 1.368 . S
C741 H765 0.949 . S
H742 C746 0.949 . S
C743 C744 1.349 . S
C743 C745 1.327 . S
C743 H766 0.950 . S
C744 C743 1.349 . S
C744 C756 1.349 . S
C745 C743 1.327 . S
C745 C761 1.429 . S
C745 H767 0.950 . S
C746 H742 0.949 . S
C746 C754 1.574 . S
C746 C762 1.368 . S
H747 C755 0.950 . S
H748 C753 0.950 . S
H749 C754 0.949 . S
H750 C756 0.950 . S
H751 C757 0.950 . S
H752 C758 0.949 . S
C753 H748 0.950 . S
C753 C755 1.327 . S
C753 C759 1.429 . S
C754 C746 1.574 . S
C754 H749 0.949 . S
C754 C760 1.368 . S
C755 C739 1.349 . S
C755 H747 0.950 . S
C755 C753 1.327 . S
C756 C744 1.349 . S
C756 H750 0.950 . S
C756 C757 1.327 . S
C757 H751 0.950 . S
C757 C756 1.327 . S
C757 C761 1.429 . S
C758 C741 1.574 . S
C758 H752 0.949 . S
C758 C762 1.368 . S
C759 C740 1.429 . S
C759 C753 1.429 . S
C759 C760 1.523 . S
C760 C741 1.368 . S
C760 C754 1.368 . S
C760 C759 1.523 . S
C761 C745 1.429 . S
C761 C757 1.429 . S
C761 C762 1.523 . S
C762 C746 1.368 . S
C762 C758 1.368 . S
C762 C761 1.523 . S
H763 C738 0.950 . S
H764 C740 0.950 . S
H765 C741 0.949 . S
H766 C743 0.950 . S
H767 C745 0.950 . S
C768 C769 1.349 . S
C768 C770 1.327 . S
C768 H793 0.950 . S
C769 C768 1.349 . S
C769 C785 1.349 . S
C770 C768 1.327 . S
C770 C789 1.429 . S
C770 H794 0.950 . S
C771 C788 1.574 . S
C771 C790 1.368 . S
C771 H795 0.949 . S
H772 C776 0.949 . S
C773 C774 1.349 . S
C773 C775 1.327 . S
C773 H796 0.950 . S
C774 C773 1.349 . S
C774 C786 1.349 . S
C775 C773 1.327 . S
C775 C791 1.429 . S
C775 H797 0.950 . S
C776 H772 0.949 . S
C776 C784 1.574 . S
C776 C792 1.368 . S
H777 C785 0.950 . S
H778 C783 0.950 . S
H779 C784 0.949 . S
H780 C786 0.950 . S
H781 C787 0.950 . S
H782 C788 0.949 . S
C783 H778 0.950 . S
C783 C785 1.327 . S
C783 C789 1.429 . S
C784 C776 1.574 . S
C784 H779 0.949 . S
C784 C790 1.368 . S
C785 C769 1.349 . S
C785 H777 0.950 . S
C785 C783 1.327 . S
C786 C774 1.349 . S
C786 H780 0.950 . S
C786 C787 1.327 . S
C787 H781 0.950 . S
C787 C786 1.327 . S
C787 C791 1.429 . S
C788 C771 1.574 . S
C788 H782 0.949 . S
C788 C792 1.368 . S
C789 C770 1.429 . S
C789 C783 1.429 . S
C789 C790 1.523 . S
C790 C771 1.368 . S
C790 C784 1.368 . S
C790 C789 1.523 . S
C791 C775 1.429 . S
C791 C787 1.429 . S
C791 C792 1.523 . S
C792 C776 1.368 . S
C792 C788 1.368 . S
C792 C791 1.523 . S
H793 C768 0.950 . S
H794 C770 0.950 . S
H795 C771 0.949 . S
H796 C773 0.950 . S
H797 C775 0.950 . S
C798 C799 1.349 . S
C798 C800 1.327 . S
C798 H823 0.950 . S
C799 C798 1.349 . S
C799 C815 1.349 . S
C800 C798 1.327 . S
C800 C819 1.429 . S
C800 H824 0.950 . S
C801 C818 1.574 . S
C801 C820 1.368 . S
C801 H825 0.949 . S
H802 C806 0.949 . S
C803 C804 1.349 . S
C803 C805 1.327 . S
C803 H826 0.950 . S
C804 C803 1.349 . S
C804 C816 1.349 . S
C805 C803 1.327 . S
C805 C821 1.429 . S
C805 H827 0.950 . S
C806 H802 0.949 . S
C806 C814 1.574 . S
C806 C822 1.368 . S
H807 C815 0.950 . S
H808 C813 0.950 . S
H809 C814 0.949 . S
H810 C816 0.950 . S
H811 C817 0.950 . S
H812 C818 0.949 . S
C813 H808 0.950 . S
C813 C815 1.327 . S
C813 C819 1.429 . S
C814 C806 1.574 . S
C814 H809 0.949 . S
C814 C820 1.368 . S
C815 C799 1.349 . S
C815 H807 0.950 . S
C815 C813 1.327 . S
C816 C804 1.349 . S
C816 H810 0.950 . S
C816 C817 1.327 . S
C817 H811 0.950 . S
C817 C816 1.327 . S
C817 C821 1.429 . S
C818 C801 1.574 . S
C818 H812 0.949 . S
C818 C822 1.368 . S
C819 C800 1.429 . S
C819 C813 1.429 . S
C819 C820 1.523 . S
C820 C801 1.368 . S
C820 C814 1.368 . S
C820 C819 1.523 . S
C821 C805 1.429 . S
C821 C817 1.429 . S
C821 C822 1.523 . S
C822 C806 1.368 . S
C822 C818 1.368 . S
C822 C821 1.523 . S
H823 C798 0.950 . S
H824 C800 0.950 . S
H825 C801 0.949 . S
H826 C803 0.950 . S
H827 C805 0.950 . S
C828 C829 1.349 . S
C828 C830 1.327 . S
C828 H853 0.950 . S
C829 C828 1.349 . S
C829 C845 1.349 . S
C830 C828 1.327 . S
C830 C849 1.429 . S
C830 H854 0.950 . S
C831 C848 1.574 . S
C831 C850 1.368 . S
C831 H855 0.949 . S
H832 C836 0.949 . S
C833 C834 1.349 . S
C833 C835 1.327 . S
C833 H856 0.950 . S
C834 C833 1.349 . S
C834 C846 1.349 . S
C835 C833 1.327 . S
C835 C851 1.429 . S
C835 H857 0.950 . S
C836 H832 0.949 . S
C836 C844 1.574 . S
C836 C852 1.368 . S
H837 C845 0.950 . S
H838 C843 0.950 . S
H839 C844 0.949 . S
H840 C846 0.950 . S
H841 C847 0.950 . S
H842 C848 0.949 . S
C843 H838 0.950 . S
C843 C845 1.327 . S
C843 C849 1.429 . S
C844 C836 1.574 . S
C844 H839 0.949 . S
C844 C850 1.368 . S
C845 C829 1.349 . S
C845 H837 0.950 . S
C845 C843 1.327 . S
C846 C834 1.349 . S
C846 H840 0.950 . S
C846 C847 1.327 . S
C847 H841 0.950 . S
C847 C846 1.327 . S
C847 C851 1.429 . S
C848 C831 1.574 . S
C848 H842 0.949 . S
C848 C852 1.368 . S
C849 C830 1.429 . S
C849 C843 1.429 . S
C849 C850 1.523 . S
C850 C831 1.368 . S
C850 C844 1.368 . S
C850 C849 1.523 . S
C851 C835 1.429 . S
C851 C847 1.429 . S
C851 C852 1.523 . S
C852 C836 1.368 . S
C852 C848 1.368 . S
C852 C851 1.523 . S
H853 C828 0.950 . S
H854 C830 0.950 . S
H855 C831 0.949 . S
H856 C833 0.950 . S
H857 C835 0.950 . S
C858 C859 1.349 . S
C858 C860 1.327 . S
C858 H883 0.950 . S
C859 C858 1.349 . S
C859 C875 1.349 . S
C860 C858 1.327 . S
C860 C879 1.429 . S
C860 H884 0.950 . S
C861 C878 1.574 . S
C861 C880 1.368 . S
C861 H885 0.949 . S
H862 C866 0.949 . S
C863 C864 1.349 . S
C863 C865 1.327 . S
C863 H886 0.950 . S
C864 C863 1.349 . S
C864 C876 1.349 . S
C865 C863 1.327 . S
C865 C881 1.429 . S
C865 H887 0.950 . S
C866 H862 0.949 . S
C866 C874 1.574 . S
C866 C882 1.368 . S
H867 C875 0.950 . S
H868 C873 0.950 . S
H869 C874 0.949 . S
H870 C876 0.950 . S
H871 C877 0.950 . S
H872 C878 0.949 . S
C873 H868 0.950 . S
C873 C875 1.327 . S
C873 C879 1.429 . S
C874 C866 1.574 . S
C874 H869 0.949 . S
C874 C880 1.368 . S
C875 C859 1.349 . S
C875 H867 0.950 . S
C875 C873 1.327 . S
C876 C864 1.349 . S
C876 H870 0.950 . S
C876 C877 1.327 . S
C877 H871 0.950 . S
C877 C876 1.327 . S
C877 C881 1.429 . S
C878 C861 1.574 . S
C878 H872 0.949 . S
C878 C882 1.368 . S
C879 C860 1.429 . S
C879 C873 1.429 . S
C879 C880 1.523 . S
C880 C861 1.368 . S
C880 C874 1.368 . S
C880 C879 1.523 . S
C881 C865 1.429 . S
C881 C877 1.429 . S
C881 C882 1.523 . S
C882 C866 1.368 . S
C882 C878 1.368 . S
C882 C881 1.523 . S
H883 C858 0.950 . S
H884 C860 0.950 . S
H885 C861 0.949 . S
H886 C863 0.950 . S
H887 C865 0.950 . S
C169 C13 1.237 . S
C174 C167 1.237 . S
C199 C97 1.237 . S
C204 C27 1.237 . S
C229 C41 1.237 . S
C234 C111 1.237 . S
C259 C125 1.237 . S
C264 C55 1.237 . S
C289 C139 1.237 . S
C294 C69 1.237 . S
C319 C153 1.237 . S
C324 C83 1.237 . S
C349 C49 1.439 . S
C354 C119 1.439 . S
C379 C63 1.439 . S
C384 C133 1.439 . S
C409 C77 1.439 . S
C414 C147 1.439 . S
C439 C161 1.439 . S
C444 C7 1.439 . S
C469 C21 1.439 . S
C474 C91 1.439 . S
C499 C35 1.439 . S
C504 C105 1.439 . S
C529 C120 1.396 . S
C534 C8 1.396 . S
C559 C134 1.396 . S
C564 C22 1.396 . S
C589 C36 1.396 . S
C594 C148 1.396 . S
C619 C50 1.396 . S
C624 C162 1.396 . S
C649 C64 1.396 . S
C654 C92 1.396 . S
C679 C106 1.396 . S
C684 C78 1.396 . S
C709 C11 1.305 . S
C714 C151 1.305 . S
C739 C165 1.305 . S
C744 C25 1.305 . S
C769 C39 1.305 . S
C774 C95 1.305 . S
C799 C53 1.305 . S
C804 C109 1.305 . S
C829 C67 1.305 . S
C834 C123 1.305 . S
C859 C81 1.305 . S
C864 C137 1.305 . S
