# Generated by pormake.
# Topology wlq, (5)-cn, num edge types: 1
# Building blocks:
#     Node 0, Type 0, BuildingBlock: BEQFEK_clean_sbu_0, # of connection points: 5
#     Node 1, Type 0, BuildingBlock: BEQFEK_clean_sbu_0, # of connection points: 5
#     Node 2, Type 0, BuildingBlock: BEQFEK_clean_sbu_0, # of connection points: 5
#     Node 3, Type 0, BuildingBlock: BEQFEK_clean_sbu_0, # of connection points: 5
#     Node 4, Type 0, BuildingBlock: BEQFEK_clean_sbu_0, # of connection points: 5
#     Node 5, Type 0, BuildingBlock: BEQFEK_clean_sbu_0, # of connection points: 5
#     Node 6, Type 0, BuildingBlock: BEQFEK_clean_sbu_0, # of connection points: 5
#     Node 7, Type 0, BuildingBlock: BEQFEK_clean_sbu_0, # of connection points: 5
#     Node 8, Type 0, BuildingBlock: BEQFEK_clean_sbu_0, # of connection points: 5
#     Node 9, Type 0, BuildingBlock: BEQFEK_clean_sbu_0, # of connection points: 5
#     Node 10, Type 0, BuildingBlock: BEQFEK_clean_sbu_0, # of connection points: 5
#     Node 11, Type 0, BuildingBlock: BEQFEK_clean_sbu_0, # of connection points: 5
#     Node 12, Type 0, BuildingBlock: BEQFEK_clean_sbu_0, # of connection points: 5
#     Node 13, Type 0, BuildingBlock: BEQFEK_clean_sbu_0, # of connection points: 5
#     Node 14, Type 0, BuildingBlock: BEQFEK_clean_sbu_0, # of connection points: 5
#     Node 15, Type 0, BuildingBlock: BEQFEK_clean_sbu_0, # of connection points: 5
#     Node 16, Type 0, BuildingBlock: BEQFEK_clean_sbu_0, # of connection points: 5
#     Node 17, Type 0, BuildingBlock: BEQFEK_clean_sbu_0, # of connection points: 5
#     Node 18, Type 0, BuildingBlock: BEQFEK_clean_sbu_0, # of connection points: 5
#     Node 19, Type 0, BuildingBlock: BEQFEK_clean_sbu_0, # of connection points: 5
#     Node 20, Type 0, BuildingBlock: BEQFEK_clean_sbu_0, # of connection points: 5
#     Node 21, Type 0, BuildingBlock: BEQFEK_clean_sbu_0, # of connection points: 5
#     Node 22, Type 0, BuildingBlock: BEQFEK_clean_sbu_0, # of connection points: 5
#     Node 23, Type 0, BuildingBlock: BEQFEK_clean_sbu_0, # of connection points: 5
#     Node 24, Type 0, BuildingBlock: BEQFEK_clean_sbu_0, # of connection points: 5
#     Node 25, Type 0, BuildingBlock: BEQFEK_clean_sbu_0, # of connection points: 5
#     Node 26, Type 0, BuildingBlock: BEQFEK_clean_sbu_0, # of connection points: 5
#     Node 27, Type 0, BuildingBlock: BEQFEK_clean_sbu_0, # of connection points: 5
#     Node 28, Type 0, BuildingBlock: BEQFEK_clean_sbu_0, # of connection points: 5
#     Node 29, Type 0, BuildingBlock: BEQFEK_clean_sbu_0, # of connection points: 5
#     Node 30, Type 0, BuildingBlock: BEQFEK_clean_sbu_0, # of connection points: 5
#     Node 31, Type 0, BuildingBlock: BEQFEK_clean_sbu_0, # of connection points: 5
#     Node 32, Type 0, BuildingBlock: BEQFEK_clean_sbu_0, # of connection points: 5
#     Node 33, Type 0, BuildingBlock: BEQFEK_clean_sbu_0, # of connection points: 5
#     Node 34, Type 0, BuildingBlock: BEQFEK_clean_sbu_0, # of connection points: 5
#     Node 35, Type 0, BuildingBlock: BEQFEK_clean_sbu_0, # of connection points: 5
#     Edge 36, Type (0, 0), BuildingBlock: KIFKEQ_clean_linker_1, # of connection points: 2
#     Edge 37, Type (0, 0), BuildingBlock: KIFKEQ_clean_linker_1, # of connection points: 2
#     Edge 38, Type (0, 0), BuildingBlock: KIFKEQ_clean_linker_1, # of connection points: 2
#     Edge 39, Type (0, 0), BuildingBlock: KIFKEQ_clean_linker_1, # of connection points: 2
#     Edge 40, Type (0, 0), BuildingBlock: KIFKEQ_clean_linker_1, # of connection points: 2
#     Edge 41, Type (0, 0), BuildingBlock: KIFKEQ_clean_linker_1, # of connection points: 2
#     Edge 42, Type (0, 0), BuildingBlock: KIFKEQ_clean_linker_1, # of connection points: 2
#     Edge 43, Type (0, 0), BuildingBlock: KIFKEQ_clean_linker_1, # of connection points: 2
#     Edge 44, Type (0, 0), BuildingBlock: KIFKEQ_clean_linker_1, # of connection points: 2
#     Edge 45, Type (0, 0), BuildingBlock: KIFKEQ_clean_linker_1, # of connection points: 2
#     Edge 46, Type (0, 0), BuildingBlock: KIFKEQ_clean_linker_1, # of connection points: 2
#     Edge 47, Type (0, 0), BuildingBlock: KIFKEQ_clean_linker_1, # of connection points: 2
#     Edge 48, Type (0, 0), BuildingBlock: KIFKEQ_clean_linker_1, # of connection points: 2
#     Edge 49, Type (0, 0), BuildingBlock: KIFKEQ_clean_linker_1, # of connection points: 2
#     Edge 50, Type (0, 0), BuildingBlock: KIFKEQ_clean_linker_1, # of connection points: 2
#     Edge 51, Type (0, 0), BuildingBlock: KIFKEQ_clean_linker_1, # of connection points: 2
#     Edge 52, Type (0, 0), BuildingBlock: KIFKEQ_clean_linker_1, # of connection points: 2
#     Edge 53, Type (0, 0), BuildingBlock: KIFKEQ_clean_linker_1, # of connection points: 2
#     Edge 54, Type (0, 0), BuildingBlock: KIFKEQ_clean_linker_1, # of connection points: 2
#     Edge 55, Type (0, 0), BuildingBlock: KIFKEQ_clean_linker_1, # of connection points: 2
#     Edge 56, Type (0, 0), BuildingBlock: KIFKEQ_clean_linker_1, # of connection points: 2
#     Edge 57, Type (0, 0), BuildingBlock: KIFKEQ_clean_linker_1, # of connection points: 2
#     Edge 58, Type (0, 0), BuildingBlock: KIFKEQ_clean_linker_1, # of connection points: 2
#     Edge 59, Type (0, 0), BuildingBlock: KIFKEQ_clean_linker_1, # of connection points: 2
#     Edge 60, Type (0, 0), BuildingBlock: KIFKEQ_clean_linker_1, # of connection points: 2
#     Edge 61, Type (0, 0), BuildingBlock: KIFKEQ_clean_linker_1, # of connection points: 2
#     Edge 62, Type (0, 0), BuildingBlock: KIFKEQ_clean_linker_1, # of connection points: 2
#     Edge 63, Type (0, 0), BuildingBlock: KIFKEQ_clean_linker_1, # of connection points: 2
#     Edge 64, Type (0, 0), BuildingBlock: KIFKEQ_clean_linker_1, # of connection points: 2
#     Edge 65, Type (0, 0), BuildingBlock: KIFKEQ_clean_linker_1, # of connection points: 2
#     Edge 66, Type (0, 0), BuildingBlock: KIFKEQ_clean_linker_1, # of connection points: 2
#     Edge 67, Type (0, 0), BuildingBlock: KIFKEQ_clean_linker_1, # of connection points: 2
#     Edge 68, Type (0, 0), BuildingBlock: KIFKEQ_clean_linker_1, # of connection points: 2
#     Edge 69, Type (0, 0), BuildingBlock: KIFKEQ_clean_linker_1, # of connection points: 2
#     Edge 70, Type (0, 0), BuildingBlock: KIFKEQ_clean_linker_1, # of connection points: 2
#     Edge 71, Type (0, 0), BuildingBlock: KIFKEQ_clean_linker_1, # of connection points: 2
#     Edge 72, Type (0, 0), BuildingBlock: KIFKEQ_clean_linker_1, # of connection points: 2
#     Edge 73, Type (0, 0), BuildingBlock: KIFKEQ_clean_linker_1, # of connection points: 2
#     Edge 74, Type (0, 0), BuildingBlock: KIFKEQ_clean_linker_1, # of connection points: 2
#     Edge 75, Type (0, 0), BuildingBlock: KIFKEQ_clean_linker_1, # of connection points: 2
#     Edge 76, Type (0, 0), BuildingBlock: KIFKEQ_clean_linker_1, # of connection points: 2
#     Edge 77, Type (0, 0), BuildingBlock: KIFKEQ_clean_linker_1, # of connection points: 2
#     Edge 78, Type (0, 0), BuildingBlock: KIFKEQ_clean_linker_1, # of connection points: 2
#     Edge 79, Type (0, 0), BuildingBlock: KIFKEQ_clean_linker_1, # of connection points: 2
#     Edge 80, Type (0, 0), BuildingBlock: KIFKEQ_clean_linker_1, # of connection points: 2
#     Edge 81, Type (0, 0), BuildingBlock: KIFKEQ_clean_linker_1, # of connection points: 2
#     Edge 82, Type (0, 0), BuildingBlock: KIFKEQ_clean_linker_1, # of connection points: 2
#     Edge 83, Type (0, 0), BuildingBlock: KIFKEQ_clean_linker_1, # of connection points: 2
#     Edge 84, Type (0, 0), BuildingBlock: KIFKEQ_clean_linker_1, # of connection points: 2
#     Edge 85, Type (0, 0), BuildingBlock: KIFKEQ_clean_linker_1, # of connection points: 2
#     Edge 86, Type (0, 0), BuildingBlock: KIFKEQ_clean_linker_1, # of connection points: 2
#     Edge 87, Type (0, 0), BuildingBlock: KIFKEQ_clean_linker_1, # of connection points: 2
#     Edge 88, Type (0, 0), BuildingBlock: KIFKEQ_clean_linker_1, # of connection points: 2
#     Edge 89, Type (0, 0), BuildingBlock: KIFKEQ_clean_linker_1, # of connection points: 2
#     Edge 90, Type (0, 0), BuildingBlock: KIFKEQ_clean_linker_1, # of connection points: 2
#     Edge 91, Type (0, 0), BuildingBlock: KIFKEQ_clean_linker_1, # of connection points: 2
#     Edge 92, Type (0, 0), BuildingBlock: KIFKEQ_clean_linker_1, # of connection points: 2
#     Edge 93, Type (0, 0), BuildingBlock: KIFKEQ_clean_linker_1, # of connection points: 2
#     Edge 94, Type (0, 0), BuildingBlock: KIFKEQ_clean_linker_1, # of connection points: 2
#     Edge 95, Type (0, 0), BuildingBlock: KIFKEQ_clean_linker_1, # of connection points: 2
#     Edge 96, Type (0, 0), BuildingBlock: KIFKEQ_clean_linker_1, # of connection points: 2
#     Edge 97, Type (0, 0), BuildingBlock: KIFKEQ_clean_linker_1, # of connection points: 2
#     Edge 98, Type (0, 0), BuildingBlock: KIFKEQ_clean_linker_1, # of connection points: 2
#     Edge 99, Type (0, 0), BuildingBlock: KIFKEQ_clean_linker_1, # of connection points: 2
#     Edge 100, Type (0, 0), BuildingBlock: KIFKEQ_clean_linker_1, # of connection points: 2
#     Edge 101, Type (0, 0), BuildingBlock: KIFKEQ_clean_linker_1, # of connection points: 2
#     Edge 102, Type (0, 0), BuildingBlock: KIFKEQ_clean_linker_1, # of connection points: 2
#     Edge 103, Type (0, 0), BuildingBlock: KIFKEQ_clean_linker_1, # of connection points: 2
#     Edge 104, Type (0, 0), BuildingBlock: KIFKEQ_clean_linker_1, # of connection points: 2
#     Edge 105, Type (0, 0), BuildingBlock: KIFKEQ_clean_linker_1, # of connection points: 2
#     Edge 106, Type (0, 0), BuildingBlock: KIFKEQ_clean_linker_1, # of connection points: 2
#     Edge 107, Type (0, 0), BuildingBlock: KIFKEQ_clean_linker_1, # of connection points: 2
#     Edge 108, Type (0, 0), BuildingBlock: KIFKEQ_clean_linker_1, # of connection points: 2
#     Edge 109, Type (0, 0), BuildingBlock: KIFKEQ_clean_linker_1, # of connection points: 2
#     Edge 110, Type (0, 0), BuildingBlock: KIFKEQ_clean_linker_1, # of connection points: 2
#     Edge 111, Type (0, 0), BuildingBlock: KIFKEQ_clean_linker_1, # of connection points: 2
#     Edge 112, Type (0, 0), BuildingBlock: KIFKEQ_clean_linker_1, # of connection points: 2
#     Edge 113, Type (0, 0), BuildingBlock: KIFKEQ_clean_linker_1, # of connection points: 2
#     Edge 114, Type (0, 0), BuildingBlock: KIFKEQ_clean_linker_1, # of connection points: 2
#     Edge 115, Type (0, 0), BuildingBlock: KIFKEQ_clean_linker_1, # of connection points: 2
#     Edge 116, Type (0, 0), BuildingBlock: KIFKEQ_clean_linker_1, # of connection points: 2
#     Edge 117, Type (0, 0), BuildingBlock: KIFKEQ_clean_linker_1, # of connection points: 2
#     Edge 118, Type (0, 0), BuildingBlock: KIFKEQ_clean_linker_1, # of connection points: 2
#     Edge 119, Type (0, 0), BuildingBlock: KIFKEQ_clean_linker_1, # of connection points: 2
#     Edge 120, Type (0, 0), BuildingBlock: KIFKEQ_clean_linker_1, # of connection points: 2
#     Edge 121, Type (0, 0), BuildingBlock: KIFKEQ_clean_linker_1, # of connection points: 2
#     Edge 122, Type (0, 0), BuildingBlock: KIFKEQ_clean_linker_1, # of connection points: 2
#     Edge 123, Type (0, 0), BuildingBlock: KIFKEQ_clean_linker_1, # of connection points: 2
#     Edge 124, Type (0, 0), BuildingBlock: KIFKEQ_clean_linker_1, # of connection points: 2
#     Edge 125, Type (0, 0), BuildingBlock: KIFKEQ_clean_linker_1, # of connection points: 2
# Relax obj value: 0.130
# Max RMSD: 0.144
# Mean RMSD: 0.144
data_MOF--net-wlq--node1-BEQFEK_clean_sbu_0--edge1-KIFKEQ_clean_linker_1
_symmetry_space_group_name_H-M    P1
_symmetry_Int_Tables_number       1
_symmetry_cell_setting            triclinic
loop_
_symmetry_equiv_pos_as_xyz
'x, y, z'
_cell_length_a     75.8336
_cell_length_b     75.833845
_cell_length_c     38.437568
_cell_angle_alpha  90.007927
_cell_angle_beta   89.992122
_cell_angle_gamma 119.9961
loop_
_atom_site_label
_atom_site_type_symbol
_atom_site_fract_x
_atom_site_fract_y
_atom_site_fract_z
_atom_type_partial_charge
Co0 Co 0.21945 0.19575 0.96869 0.0
Co1 Co 0.23322 0.20381 0.04685 0.0
C2 C 0.26211 0.22745 0.9903 0.0
O3 O 0.24801 0.21692 0.96879 0.0
O4 O 0.25903 0.22491 0.02309 0.0
C5 C 0.2145 0.21009 0.90401 0.0
O6 O 0.22277 0.22753 0.92074 0.0
C7 C 0.24332 0.22047 0.11999 0.0
C8 C 0.23124 0.19144 0.14863 0.0
C9 C 0.24061 0.21228 0.15335 0.0
N10 N 0.23573 0.20502 0.0968 0.0
N11 N 0.22865 0.18779 0.1143 0.0
C12 C 0.25402 0.24252 0.11029 0.0
H13 H 0.25644 0.24441 0.08175 0.0
H14 H 0.24486 0.24947 0.11856 0.0
H15 H 0.26885 0.25068 0.12406 0.0
C16 C 0.18764 0.20373 0.99477 0.0
N17 N 0.20433 0.20213 0.99973 0.0
N18 N 0.20992 0.20581 0.03261 0.0
C19 C 0.19672 0.20984 0.04963 0.0
C20 C 0.18238 0.20889 0.02602 0.0
C21 C 0.17615 0.19917 0.96122 0.0
H22 H 0.17674 0.18667 0.9473 0.0
H23 H 0.18318 0.21297 0.94461 0.0
H24 H 0.16 0.19473 0.96578 0.0
O25 O 0.21745 0.16987 0.98036 0.0
O26 O 0.22867 0.17602 0.03473 0.0
H27 H 0.19869 0.20295 0.10297 0.0
H28 H 0.18498 0.21652 0.09617 0.0
C29 C 0.19807 0.21495 0.08745 0.0
H30 H 0.21226 0.22954 0.09213 0.0
H31 H 0.22178 0.17341 0.10281 0.0
O32 O 0.21067 0.194 0.92025 0.0
C33 C 0.22226 0.16434 0.00823 0.0
Co34 Co 0.80321 0.02496 0.96259 0.0
Co35 Co 0.79596 0.0306 0.04142 0.0
C36 C 0.77153 0.03536 0.98481 0.0
O37 O 0.78181 0.03186 0.96268 0.0
O38 O 0.77462 0.03498 0.01742 0.0
C39 C 0.78936 0.00755 0.89638 0.0
O40 O 0.77154 -2e-05 0.91172 0.0
C41 C 0.77782 0.02048 0.11298 0.0
C42 C 0.80405 0.04282 0.14404 0.0
C43 C 0.78414 0.02709 0.14691 0.0
N44 N 0.79344 0.03174 0.09121 0.0
N45 N 0.80897 0.04511 0.11009 0.0
C46 C 0.75698 0.00482 0.10121 0.0
H47 H 0.75673 0.00254 0.07263 0.0
H48 H 0.75199 0.99017 0.11471 0.0
H49 H 0.74604 0.00993 0.10814 0.0
C50 C 0.79633 0.98549 0.98832 0.0
N51 N 0.79727 0.00347 0.99371 0.0
N52 N 0.79467 0.00558 0.02705 0.0
C53 C 0.79243 0.98896 0.04405 0.0
C54 C 0.79327 0.97568 0.02003 0.0
C55 C 0.7974 0.97767 0.95304 0.0
H56 H 0.8116 0.98893 0.93976 0.0
H57 H 0.7843 0.9757 0.93736 0.0
H58 H 0.79668 0.96274 0.95399 0.0
O59 O 0.82895 0.04927 0.97467 0.0
O60 O 0.82373 0.0539 0.02992 0.0
H61 H 0.80103 0.00149 0.09548 0.0
H62 H 0.79687 0.976 0.09094 0.0
C63 C 0.7915 0.98656 0.08274 0.0
H64 H 0.77552 0.9801 0.09142 0.0
H65 H 0.82309 0.05573 0.09983 0.0
O66 O 0.80546 0.01817 0.91393 0.0
C67 C 0.83493 0.05937 0.00281 0.0
Co68 Co 0.97345 0.7779 0.96886 0.0
Co69 Co 0.96821 0.7638 0.04711 0.0
C70 C 0.96334 0.73547 0.98945 0.0
O71 O 0.9665 0.74952 0.96812 0.0
O72 O 0.96403 0.73845 0.02227 0.0
C73 C 0.99263 0.78353 0.90372 0.0
O74 O 0.00188 0.77524 0.92013 0.0
C75 C 0.97747 0.75458 0.1187 0.0
C76 C 0.9568 0.76092 0.14991 0.0
C77 C 0.97137 0.75512 0.15267 0.0
N78 N 0.96704 0.76001 0.09693 0.0
N79 N 0.95461 0.76358 0.11592 0.0
C80 C 0.99197 0.74782 0.10705 0.0
H81 H 0.99505 0.75053 0.07874 0.0
H82 H 0.0064 0.75589 0.12191 0.0
H83 H 0.9852 0.73131 0.11248 0.0
C84 C 0.01311 0.80993 0.9948 0.0
N85 N 0.99499 0.79305 0.99997 0.0
N86 N 0.99324 0.7876 0.03295 0.0
C87 C 0.01037 0.80123 0.04982 0.0
C88 C 0.02354 0.81552 0.02597 0.0
C89 C 0.01983 0.82136 0.96116 0.0
H90 H 0.00666 0.82075 0.94754 0.0
H91 H 0.02651 0.81431 0.94438 0.0
H92 H 0.03157 0.83753 0.96554 0.0
O93 O 0.94935 0.77935 0.98166 0.0
O94 O 0.94468 0.76811 0.03606 0.0
H95 H 0.00025 0.79676 0.10286 0.0
H96 H 0.02685 0.8154 0.09718 0.0
C97 C 0.0142 0.80063 0.08784 0.0
H98 H 0.01848 0.78887 0.09256 0.0
H99 H 0.94481 0.76819 0.10573 0.0
O100 O 0.98022 0.78706 0.92026 0.0
C101 C 0.93918 0.77445 0.00976 0.0
Co102 Co 0.196 0.22051 0.57886 0.0
Co103 Co 0.20321 0.23276 0.5 0.0
C104 C 0.22721 0.26278 0.55508 0.0
O105 O 0.21713 0.24899 0.57734 0.0
O106 O 0.22415 0.25918 0.52247 0.0
C107 C 0.21034 0.21639 0.64431 0.0
O108 O 0.22785 0.22446 0.62783 0.0
C109 C 0.22013 0.24166 0.42737 0.0
C110 C 0.19145 0.22467 0.39787 0.0
C111 C 0.21235 0.23588 0.39396 0.0
N112 N 0.20444 0.23412 0.45002 0.0
N113 N 0.18737 0.22435 0.43196 0.0
C114 C 0.24208 0.25271 0.43763 0.0
H115 H 0.24372 0.25177 0.46617 0.0
H116 H 0.25038 0.24628 0.4236 0.0
H117 H 0.24895 0.26893 0.42993 0.0
C118 C 0.20402 0.18838 0.55467 0.0
N119 N 0.20228 0.20492 0.54882 0.0
N120 N 0.20579 0.21001 0.51572 0.0
C121 C 0.20991 0.19666 0.49946 0.0
C122 C 0.20911 0.1827 0.52377 0.0
C123 C 0.19953 0.17735 0.5887 0.0
H124 H 0.18708 0.17814 0.60236 0.0
H125 H 0.21338 0.1846 0.6052 0.0
H126 H 0.19507 0.16113 0.58485 0.0
O127 O 0.17008 0.21829 0.56693 0.0
O128 O 0.17519 0.22779 0.51156 0.0
H129 H 0.2024 0.19671 0.44584 0.0
H130 H 0.21764 0.18492 0.45403 0.0
C131 C 0.21499 0.19749 0.46168 0.0
H132 H 0.22897 0.21212 0.45614 0.0
H133 H 0.17289 0.21657 0.4431 0.0
O134 O 0.19433 0.21244 0.62771 0.0
C135 C 0.16398 0.22207 0.53866 0.0
Co136 Co 0.77609 0.97569 0.57199 0.0
Co137 Co 0.76206 0.96887 0.49371 0.0
C138 C 0.73411 0.96612 0.55147 0.0
O139 O 0.74812 0.96981 0.57316 0.0
O140 O 0.73702 0.96556 0.51881 0.0
C141 C 0.78136 0.99409 0.63787 0.0
O142 O 0.77126 0.00197 0.62303 0.0
C143 C 0.75445 0.97918 0.42213 0.0
C144 C 0.75556 0.95507 0.39159 0.0
C145 C 0.75326 0.97198 0.38837 0.0
N146 N 0.75755 0.96714 0.44413 0.0
N147 N 0.75799 0.95268 0.42559 0.0
C148 C 0.75129 0.99625 0.4336 0.0
H149 H 0.75442 -0.0008 0.46186 0.0
H150 H 0.76119 0.01028 0.41866 0.0
H151 H 0.73529 0.9921 0.42831 0.0
C152 C 0.80925 0.01388 0.54389 0.0
N153 N 0.79161 0.99634 0.53965 0.0
N154 N 0.78659 0.99365 0.50644 0.0
C155 C 0.80145 0.00939 0.48835 0.0
C156 C 0.81617 0.02272 0.51154 0.0
C157 C 0.8188 0.02214 0.57863 0.0
H158 H 0.80801 0.02442 0.59476 0.0
H159 H 0.83304 0.037 0.57676 0.0
H160 H 0.82186 0.01098 0.59197 0.0
O161 O 0.77639 0.95068 0.56057 0.0
O162 O 0.76569 0.94518 0.5058 0.0
H163 H 0.79626 0.99523 0.43806 0.0
H164 H 0.81906 0.01984 0.44108 0.0
C165 C 0.80295 0.01065 0.44954 0.0
H166 H 0.79466 0.01821 0.43973 0.0
H167 H 0.76031 0.94131 0.43608 0.0
O168 O 0.78611 0.98296 0.62009 0.0
C169 C 0.77157 0.93998 0.53304 0.0
Co170 Co 0.02492 0.80178 0.57866 0.0
Co171 Co 0.03015 0.79486 0.49936 0.0
C172 C 0.03347 0.76908 0.55523 0.0
O173 O 0.02999 0.77907 0.57798 0.0
O174 O 0.0342 0.77326 0.52287 0.0
C175 C 0.00587 0.78854 0.64432 0.0
O176 O 0.99602 0.77092 0.62824 0.0
C177 C 0.02015 0.77679 0.42763 0.0
C178 C 0.04136 0.80356 0.39647 0.0
C179 C 0.02633 0.78336 0.39367 0.0
N180 N 0.03099 0.79252 0.44943 0.0
N181 N 0.04372 0.80839 0.43048 0.0
C182 C 0.00522 0.75566 0.43926 0.0
H183 H 0.00237 0.75533 0.46766 0.0
H184 H 0.99072 0.74977 0.42476 0.0
H185 H 0.01145 0.7455 0.43337 0.0
C186 C 0.98588 0.79631 0.5534 0.0
N187 N 0.00371 0.797 0.54774 0.0
N188 N 0.00542 0.79396 0.51441 0.0
C189 C 0.98859 0.7915 0.49781 0.0
C190 C 0.97561 0.79257 0.52217 0.0
C191 C 0.9793 0.80047 0.58767 0.0
H192 H 0.99258 0.81263 0.60172 0.0
H193 H 0.97246 0.78641 0.60361 0.0
H194 H 0.96774 0.80523 0.58418 0.0
O195 O 0.04992 0.82696 0.5668 0.0
O196 O 0.05376 0.82236 0.51089 0.0
H197 H -0.00096 0.79822 0.44503 0.0
H198 H 0.97264 0.79103 0.45079 0.0
C199 C 0.98489 0.78813 0.45954 0.0
H200 H 0.9801 0.77209 0.45348 0.0
H201 H 0.05391 0.82267 0.44072 0.0
O202 O 0.01851 0.80421 0.62747 0.0
C203 C 0.05974 0.83315 0.53844 0.0
Co204 Co 0.77767 0.80422 0.07949 0.0
Co205 Co 0.76475 0.79558 1.00077 0.0
C206 C 0.73545 0.77205 0.05714 0.0
O207 O 0.7493 0.78272 0.07895 0.0
O208 O 0.7388 0.77454 0.0244 0.0
C209 C 0.7828 0.7907 0.14495 0.0
O210 O 0.7749 0.77315 0.12862 0.0
C211 C 0.75506 0.77802 0.92801 0.0
C212 C 0.76929 0.80679 0.89823 0.0
C213 C 0.75903 0.78585 0.89423 0.0
N214 N 0.76289 0.79376 0.95067 0.0
N215 N 0.77122 0.81083 0.93247 0.0
C216 C 0.74313 0.75612 0.93852 0.0
H217 H 0.73783 0.7547 0.96581 0.0
H218 H 0.75282 0.74904 0.93648 0.0
H219 H 0.72993 0.74772 0.92084 0.0
C220 C 0.81007 0.79655 0.0552 0.0
N221 N 0.79331 0.79793 0.04943 0.0
N222 N 0.78798 0.79392 0.01648 0.0
C223 C 0.80139 0.78988 1.00027 0.0
C224 C 0.81562 0.79119 0.02445 0.0
C225 C 0.82138 0.80155 0.08899 0.0
H226 H 0.82045 0.814 0.10238 0.0
H227 H 0.81449 0.78786 0.10587 0.0
H228 H 0.83763 0.80624 0.08481 0.0
O229 O 0.7792 0.82975 0.06656 0.0
O230 O 0.7692 0.82353 0.01147 0.0
H231 H 0.80063 0.79669 0.94648 0.0
H232 H 0.81306 0.78203 0.95489 0.0
C233 C 0.80033 0.78443 0.96265 0.0
H234 H 0.78581 0.77023 0.95772 0.0
H235 H 0.77855 0.82534 0.94345 0.0
O236 O 0.78622 0.80654 0.12828 0.0
C237 C 0.77496 0.83519 0.03802 0.0
Co238 Co 0.1941 0.97439 0.07794 0.0
Co239 Co 0.2023 0.96915 0.99949 0.0
C240 C 0.22644 0.96441 0.05565 0.0
O241 O 0.21576 0.96764 0.0774 0.0
O242 O 0.22374 0.96489 0.0229 0.0
C243 C 0.20792 0.99405 0.1427 0.0
O244 O 0.22533 0.00382 0.126 0.0
C245 C 0.21876 0.97501 0.92618 0.0
C246 C 0.1897 0.9625 0.89754 0.0
C247 C 0.21052 0.9715 0.89267 0.0
N248 N 0.2034 0.96854 0.94943 0.0
N249 N 0.18613 0.96098 0.93192 0.0
C250 C 0.24062 0.9835 0.93601 0.0
H251 H 0.24185 0.97832 0.9624 0.0
H252 H 0.2484 0.00036 0.93622 0.0
H253 H 0.24843 0.97879 0.91684 0.0
C254 C 0.20144 0.01405 0.05225 0.0
N255 N 0.20004 0.99585 0.04716 0.0
N256 N 0.20399 0.99417 0.01433 0.0
C257 C 0.20815 0.01149 0.99755 0.0
C258 C 0.20685 0.02466 0.0212 0.0
C259 C 0.19644 0.02072 0.08568 0.0
H260 H 0.1842 0.00744 0.09963 0.0
H261 H 0.21022 0.02799 0.10233 0.0
H262 H 0.19146 0.032 0.08087 0.0
O263 O 0.16851 0.95028 0.06594 0.0
O264 O 0.17466 0.94551 0.01138 0.0
H265 H 0.20098 0.00435 0.94379 0.0
H266 H 0.21766 0.03118 0.9523 0.0
C267 C 0.21382 0.01556 0.95996 0.0
H268 H 0.22714 0.01364 0.95495 0.0
H269 H 0.17183 0.95503 0.94352 0.0
O270 O 0.19209 0.98117 0.12651 0.0
C271 C 0.16304 0.94002 0.03797 0.0
Co272 Co 0.02349 0.22177 0.07618 0.0
Co273 Co 0.02983 0.23515 0.99776 0.0
C274 C 0.03534 0.2644 0.05424 0.0
O275 O 0.03179 0.25046 0.07597 0.0
O276 O 0.0344 0.261 0.02155 0.0
C277 C 0.00697 0.22067 0.14161 0.0
O278 O 0.00192 0.23275 0.12536 0.0
C279 C 0.01944 0.24263 0.92645 0.0
C280 C 0.0415 0.23845 0.8951 0.0
C281 C 0.02555 0.24232 0.89237 0.0
N282 N 0.03114 0.23884 0.94811 0.0
N283 N 0.04442 0.23661 0.92911 0.0
C284 C 0.0038 0.24779 0.9385 0.0
H285 H 0.00245 0.24687 0.96729 0.0
H286 H 0.98878 0.23742 0.92674 0.0
H287 H 0.00831 0.26346 0.92989 0.0
C288 C 0.98394 0.19005 0.05003 0.0
N289 N 0.00202 0.20696 0.04486 0.0
N290 N 0.00453 0.21152 0.01148 0.0
C291 C 0.98812 0.19699 0.99418 0.0
C292 C 0.97453 0.18304 0.01809 0.0
C293 C 0.97576 0.1813 0.08524 0.0
H294 H 0.97562 0.19321 0.10171 0.0
H295 H 0.96 0.16827 0.08421 0.0
H296 H 0.98589 0.1765 0.09767 0.0
O297 O 0.04723 0.21922 0.06446 0.0
O298 O 0.05291 0.23046 0.00997 0.0
H299 H 0.97644 0.17881 0.94769 0.0
H300 H 0.97954 0.20382 0.94535 0.0
C301 C 0.98641 0.19494 0.95544 0.0
H302 H 0.00162 0.20068 0.94358 0.0
H303 H 0.05523 0.23335 0.9393 0.0
O304 O 0.01575 0.21283 0.12471 0.0
C305 C 0.05779 0.2239 0.03676 0.0
Co306 Co 0.80532 0.78155 0.46926 0.0
Co307 Co 0.79686 0.76795 0.54765 0.0
C308 C 0.77423 0.73867 0.49105 0.0
O309 O 0.78471 0.75277 0.4695 0.0
O310 O 0.77639 0.74187 0.52384 0.0
C311 C 0.79094 0.78598 0.40431 0.0
O312 O 0.77351 0.7775 0.42109 0.0
C313 C 0.77959 0.75719 0.62048 0.0
C314 C 0.80837 0.77304 0.65008 0.0
C315 C 0.78747 0.76158 0.65422 0.0
N316 N 0.79524 0.76594 0.59772 0.0
N317 N 0.81232 0.77523 0.61581 0.0
C318 C 0.75778 0.74411 0.61006 0.0
H319 H 0.75668 0.7384 0.58314 0.0
H320 H 0.74994 0.75312 0.61105 0.0
H321 H 0.7499 0.73113 0.62837 0.0
C322 C 0.79587 0.81258 0.49416 0.0
N323 N 0.7981 0.79629 0.49962 0.0
N324 N 0.79419 0.79069 0.53246 0.0
C325 C 0.78929 0.80342 0.54892 0.0
C326 C 0.78998 0.81749 0.52501 0.0
C327 C 0.80056 0.82408 0.4606 0.0
H328 H 0.81329 0.82374 0.44708 0.0
H329 H 0.7869 0.81692 0.44367 0.0
H330 H 0.80471 0.84016 0.46514 0.0
O331 O 0.83139 0.78435 0.48207 0.0
O332 O 0.82504 0.77312 0.53645 0.0
H333 H 0.7962 0.80297 0.60273 0.0
H334 H 0.78012 0.81384 0.59431 0.0
C335 C 0.78358 0.80182 0.58649 0.0
H336 H 0.76997 0.78677 0.59122 0.0
H337 H 0.82678 0.78339 0.60471 0.0
O338 O 0.80712 0.79008 0.42056 0.0
C339 C 0.83691 0.77978 0.51021 0.0
Co340 Co 0.22042 0.0236 0.46817 0.0
Co341 Co 0.23384 0.02867 0.54658 0.0
C342 C 0.26254 0.0333 0.48951 0.0
O343 O 0.24865 0.03017 0.46786 0.0
O344 O 0.25935 0.03277 0.52225 0.0
C345 C 0.2166 0.00656 0.40169 0.0
O346 O 0.22677 0.99879 0.41667 0.0
C347 C 0.24287 0.0194 0.61832 0.0
C348 C 0.23423 0.03847 0.64925 0.0
C349 C 0.24113 0.02474 0.6524 0.0
N350 N 0.23699 0.0294 0.59638 0.0
N351 N 0.23203 0.04086 0.61521 0.0
C352 C 0.25098 0.00601 0.6066 0.0
H353 H 0.2562 0.00938 0.57919 0.0
H354 H 0.23885 0.98983 0.60824 0.0
H355 H 0.26371 0.00816 0.62369 0.0
C356 C 0.1877 0.98418 0.49365 0.0
N357 N 0.20485 0.00205 0.49899 0.0
N358 N 0.20985 0.00393 0.53217 0.0
C359 C 0.19557 0.98725 0.54916 0.0
C360 C 0.18118 0.97418 0.52527 0.0
C361 C 0.1785 0.9766 0.45846 0.0
H362 H 0.1757 0.98808 0.44564 0.0
H363 H 0.18941 0.97452 0.4423 0.0
H364 H 0.16417 0.96179 0.45945 0.0
O365 O 0.21927 0.04794 0.48095 0.0
O366 O 0.23006 0.05245 0.53559 0.0
H367 H 0.19933 -0.00072 0.60091 0.0
H368 H 0.17888 0.97334 0.59635 0.0
C369 C 0.19453 0.98456 0.5878 0.0
H370 H 0.20485 0.97891 0.59576 0.0
H371 H 0.22676 0.05008 0.60485 0.0
O372 O 0.21123 0.01714 0.4196 0.0
C373 C 0.22404 0.05809 0.50907 0.0
Co374 Co 0.97531 0.19471 0.46589 0.0
Co375 Co 0.9676 0.19931 0.5449 0.0
C376 C 0.96297 0.22467 0.4904 0.0
O377 O 0.96706 0.21506 0.46787 0.0
O378 O 0.96315 0.2211 0.52284 0.0
C379 C 0.99274 0.21186 0.40152 0.0
O380 O 0.99733 0.22862 0.41863 0.0
C381 C 0.97538 0.21423 0.61871 0.0
C382 C 0.9529 0.18619 0.64557 0.0
C383 C 0.96827 0.20601 0.65184 0.0
N384 N 0.96487 0.19971 0.59469 0.0
N385 N 0.9513 0.18314 0.61107 0.0
C386 C 0.99242 0.23498 0.60957 0.0
H387 H 0.99679 0.23554 0.58184 0.0
H388 H 0.00579 0.23915 0.6265 0.0
H389 H 0.98737 0.24626 0.61361 0.0
C390 C 0.01442 0.20194 0.49292 0.0
N391 N 0.99619 0.20044 0.498 0.0
N392 N 0.99324 0.20166 0.53151 0.0
C393 C 0.00953 0.20334 0.54892 0.0
C394 C 0.02347 0.20369 0.52498 0.0
C395 C 0.0231 0.20239 0.4577 0.0
H396 H 0.01315 0.18785 0.444 0.0
H397 H 0.0235 0.21492 0.44231 0.0
H398 H 0.03883 0.20505 0.45894 0.0
O399 O 0.95142 0.16809 0.47484 0.0
O400 O 0.94513 0.17181 0.52997 0.0
H401 H 0.99562 0.19286 0.59908 0.0
H402 H 0.02064 0.19575 0.59489 0.0
C403 C 0.01094 0.2023 0.58761 0.0
H404 H 0.01803 0.2179 0.59848 0.0
H405 H 0.94122 0.1695 0.59873 0.0
O406 O 0.98391 0.19492 0.41745 0.0
C407 C 0.94064 0.16126 0.50214 0.0
Co408 Co 0.88417 0.52725 0.29973 0.0
Co409 Co 0.89753 0.53416 0.37835 0.0
C410 C 0.92626 0.55897 0.32128 0.0
O411 O 0.9124 0.54887 0.29918 0.0
O412 O 0.92295 0.55556 0.35386 0.0
C413 C 0.87984 0.54089 0.23371 0.0
O414 O 0.89007 0.55877 0.24885 0.0
C415 C 0.90575 0.5524 0.44968 0.0
C416 C 0.90319 0.5267 0.4807 0.0
C417 C 0.90665 0.54636 0.48354 0.0
N418 N 0.90174 0.53686 0.42797 0.0
N419 N 0.90039 0.52164 0.4468 0.0
C420 C 0.91005 0.57296 0.43784 0.0
H421 H 0.90766 0.573 0.40934 0.0
H422 H 0.90016 0.57753 0.4517 0.0
H423 H 0.92605 0.58435 0.44424 0.0
C424 C 0.85139 0.53339 0.32702 0.0
N425 N 0.86869 0.53285 0.33165 0.0
N426 N 0.87355 0.53517 0.36493 0.0
C427 C 0.85897 0.53671 0.38266 0.0
C428 C 0.84456 0.53577 0.35919 0.0
C429 C 0.84217 0.53239 0.29208 0.0
H430 H 0.83889 0.51809 0.27873 0.0
H431 H 0.85325 0.54537 0.27612 0.0
H432 H 0.82811 0.53335 0.29362 0.0
O433 O 0.88319 0.50162 0.31131 0.0
O434 O 0.89315 0.50653 0.36652 0.0
H435 H 0.86346 0.52755 0.43326 0.0
H436 H 0.84144 0.53067 0.42987 0.0
C437 C 0.85747 0.53682 0.42146 0.0
H438 H 0.86645 0.55269 0.43098 0.0
H439 H 0.8973 0.50764 0.43655 0.0
O440 O 0.87464 0.52487 0.25134 0.0
C441 C 0.88742 0.49551 0.3392 0.0
Co442 Co 0.46939 0.3572 0.29948 0.0
Co443 Co 0.46207 0.36258 0.37843 0.0
C444 C 0.43734 0.36718 0.32282 0.0
O445 O 0.44756 0.36368 0.30056 0.0
O446 O 0.4408 0.36731 0.35539 0.0
C447 C 0.45393 0.33872 0.23521 0.0
O448 O 0.4368 0.33151 0.25267 0.0
C449 C 0.44504 0.3554 0.45124 0.0
C450 C 0.47389 0.36999 0.48077 0.0
C451 C 0.45295 0.35939 0.48495 0.0
N452 N 0.4607 0.36313 0.42847 0.0
N453 N 0.47783 0.37193 0.44649 0.0
C454 C 0.42311 0.3454 0.44085 0.0
H455 H 0.42161 0.34984 0.41401 0.0
H456 H 0.41628 0.32863 0.44159 0.0
H457 H 0.41454 0.34961 0.45927 0.0
C458 C 0.46221 0.3176 0.32477 0.0
N459 N 0.46365 0.33578 0.33027 0.0
N460 N 0.46027 0.33753 0.36337 0.0
C461 C 0.45672 0.32036 0.38003 0.0
C462 C 0.45759 0.30713 0.35595 0.0
C463 C 0.4663 0.31083 0.29062 0.0
H464 H 0.47912 0.32387 0.27717 0.0
H465 H 0.45254 0.30495 0.27402 0.0
H466 H 0.47006 0.29856 0.29415 0.0
O467 O 0.49516 0.38162 0.31104 0.0
O468 O 0.48974 0.38584 0.36639 0.0
H469 H 0.46479 0.3289 0.4332 0.0
H470 H 0.45035 0.30166 0.42616 0.0
C471 C 0.45225 0.31655 0.41804 0.0
H472 H 0.43805 0.31667 0.42395 0.0
H473 H 0.49231 0.379 0.43535 0.0
O474 O 0.47066 0.34979 0.25087 0.0
C475 C 0.50101 0.39155 0.33936 0.0
Co476 Co 0.64156 0.11109 0.29909 0.0
Co477 Co 0.63565 0.09672 0.37723 0.0
C478 C 0.63111 0.06856 0.31913 0.0
O479 O 0.63465 0.08271 0.29777 0.0
O480 O 0.63142 0.07147 0.35195 0.0
C481 C 0.66049 0.1172 0.23328 0.0
O482 O 0.66976 0.10857 0.24858 0.0
C483 C 0.64482 0.08744 0.44883 0.0
C484 C 0.62342 0.0928 0.47983 0.0
C485 C 0.63842 0.08759 0.48273 0.0
N486 N 0.63417 0.09255 0.42698 0.0
N487 N 0.62129 0.09551 0.44584 0.0
C488 C 0.65986 0.08135 0.43728 0.0
H489 H 0.66322 0.08448 0.40911 0.0
H490 H 0.67409 0.0895 0.45263 0.0
H491 H 0.6534 0.06482 0.44208 0.0
C492 C 0.68106 0.14298 0.32586 0.0
N493 N 0.6629 0.12609 0.33064 0.0
N494 N 0.6608 0.12064 0.36366 0.0
C495 C 0.6777 0.13434 0.38096 0.0
C496 C 0.69113 0.14863 0.35736 0.0
C497 C 0.68815 0.15433 0.2922 0.0
H498 H 0.67521 0.15411 0.27843 0.0
H499 H 0.69449 0.14689 0.27556 0.0
H500 H 0.70021 0.17038 0.29653 0.0
O501 O 0.61735 0.11241 0.31165 0.0
O502 O 0.61218 0.10105 0.36597 0.0
H503 H 0.66676 0.12949 0.43355 0.0
H504 H 0.69313 0.14896 0.42881 0.0
C505 C 0.68106 0.13394 0.41922 0.0
H506 H 0.686 0.12273 0.42457 0.0
H507 H 0.61124 0.09978 0.43558 0.0
O508 O 0.64837 0.1207 0.25074 0.0
C509 C 0.60692 0.10746 0.33947 0.0
Co510 Co 0.86218 0.55334 0.90869 0.0
Co511 Co 0.86968 0.56722 0.83036 0.0
C512 C 0.89478 0.59529 0.88773 0.0
O513 O 0.88425 0.58138 0.90949 0.0
O514 O 0.89153 0.59228 0.85505 0.0
C515 C 0.87524 0.54845 0.97499 0.0
O516 O 0.89327 0.55864 0.96036 0.0
C517 C 0.88766 0.57527 0.75876 0.0
C518 C 0.86179 0.5726 0.7281 0.0
C519 C 0.88141 0.57596 0.72496 0.0
N520 N 0.87227 0.57144 0.78072 0.0
N521 N 0.85697 0.57005 0.7621 0.0
C522 C 0.90826 0.57952 0.77026 0.0
H523 H 0.90825 0.5765 0.79853 0.0
H524 H 0.91309 0.57015 0.75536 0.0
H525 H 0.9195 0.59573 0.76494 0.0
C526 C 0.86801 0.52047 0.88129 0.0
N527 N 0.86747 0.53776 0.87667 0.0
N528 N 0.87011 0.54284 0.84348 0.0
C529 C 0.87197 0.52842 0.8258 0.0
C530 C 0.87085 0.51392 0.84922 0.0
C531 C 0.86687 0.51118 0.91622 0.0
H532 H 0.85274 0.50827 0.92971 0.0
H533 H 0.88004 0.52207 0.93206 0.0
H534 H 0.8674 0.49689 0.91467 0.0
O535 O 0.83688 0.55292 0.8971 0.0
O536 O 0.84237 0.56376 0.84244 0.0
H537 H 0.86378 0.53329 0.77466 0.0
H538 H 0.8671 0.51139 0.77834 0.0
C539 C 0.87292 0.52731 0.78705 0.0
H540 H 0.88897 0.53649 0.77852 0.0
H541 H 0.84304 0.56704 0.77254 0.0
O542 O 0.85942 0.54354 0.95696 0.0
C543 C 0.83115 0.55785 0.86953 0.0
Co544 Co 0.44582 0.30964 0.91011 0.0
Co545 Co 0.43221 0.30395 0.83171 0.0
C546 C 0.40278 0.29725 0.88788 0.0
O547 O 0.41689 0.3009 0.90942 0.0
O548 O 0.40605 0.29846 0.85511 0.0
C549 C 0.44748 0.32717 0.97479 0.0
O550 O 0.43622 0.33299 0.95784 0.0
C551 C 0.42191 0.31043 0.75873 0.0
C552 C 0.43693 0.29646 0.72956 0.0
C553 C 0.42609 0.30654 0.72512 0.0
N554 N 0.43018 0.30314 0.7817 0.0
N555 N 0.43896 0.29471 0.76388 0.0
C556 C 0.40941 0.31986 0.76885 0.0
H557 H 0.40364 0.31552 0.79581 0.0
H558 H 0.41886 0.33667 0.76763 0.0
H559 H 0.39649 0.31507 0.75051 0.0
C560 C 0.47665 0.34988 0.88482 0.0
N561 N 0.46032 0.3314 0.87943 0.0
N562 N 0.45498 0.32946 0.84643 0.0
C563 C 0.46808 0.34684 0.82968 0.0
C564 C 0.48202 0.36037 0.85364 0.0
C565 C 0.48768 0.35682 0.91879 0.0
H566 H 0.4883 0.34405 0.93163 0.0
H567 H 0.47933 0.36189 0.93602 0.0
H568 H 0.50343 0.36967 0.91518 0.0
O569 O 0.44903 0.28645 0.89805 0.0
O570 O 0.4374 0.2811 0.84387 0.0
H571 H 0.46772 0.33839 0.77649 0.0
H572 H 0.47975 0.36559 0.78347 0.0
C573 C 0.46713 0.35051 0.7917 0.0
H574 H 0.45252 0.34984 0.78599 0.0
H575 H 0.4467 0.28803 0.7752 0.0
O576 O 0.45444 0.31733 0.95867 0.0
C577 C 0.44426 0.27611 0.87013 0.0
Co578 Co 0.68918 0.13705 0.90802 0.0
Co579 Co 0.69513 0.1291 0.82966 0.0
C580 C 0.69999 0.10534 0.88708 0.0
O581 O 0.69639 0.11578 0.90875 0.0
O582 O 0.69958 0.10806 0.85434 0.0
C583 C 0.67022 0.1236 0.97359 0.0
O584 O 0.66102 0.10588 0.95772 0.0
C585 C 0.68614 0.11059 0.7582 0.0
C586 C 0.70696 0.13747 0.72691 0.0
C587 C 0.69239 0.1171 0.72424 0.0
N588 N 0.69648 0.12651 0.77987 0.0
N589 N 0.709 0.14245 0.76085 0.0
C590 C 0.67161 0.08937 0.77 0.0
H591 H 0.66845 0.0891 0.79826 0.0
H592 H 0.65721 0.08295 0.75505 0.0
H593 H 0.67839 0.07961 0.76486 0.0
C594 C 0.64954 0.12924 0.88159 0.0
N595 N 0.66776 0.13067 0.87664 0.0
N596 N 0.66987 0.12748 0.84355 0.0
C597 C 0.65289 0.12416 0.82638 0.0
C598 C 0.63942 0.12484 0.85013 0.0
C599 C 0.64247 0.1334 0.91536 0.0
H600 H 0.65543 0.14604 0.92926 0.0
H601 H 0.63608 0.11955 0.93183 0.0
H602 H 0.63045 0.13746 0.91118 0.0
O603 O 0.71318 0.16278 0.89567 0.0
O604 O 0.71843 0.15701 0.84114 0.0
H605 H 0.66366 0.13066 0.77374 0.0
H606 H 0.63703 0.1228 0.77874 0.0
C607 C 0.64951 0.12041 0.78812 0.0
H608 H 0.64518 0.10442 0.78261 0.0
H609 H 0.71878 0.15688 0.77098 0.0
O610 O 0.68233 0.13943 0.95655 0.0
C611 C 0.72358 0.16853 0.86784 0.0
Co612 Co 0.44585 0.13618 0.409 0.0
Co613 Co 0.43184 0.12819 0.33068 0.0
C614 C 0.403 0.10505 0.38771 0.0
O615 O 0.41708 0.11566 0.40916 0.0
O616 O 0.40615 0.10725 0.35494 0.0
C617 C 0.44815 0.12064 0.47372 0.0
O618 O 0.43714 0.1035 0.45676 0.0
C619 C 0.4224 0.11016 0.25897 0.0
C620 C 0.42902 0.13736 0.22812 0.0
C621 C 0.42294 0.11693 0.22513 0.0
N622 N 0.42809 0.12599 0.28091 0.0
N623 N 0.43184 0.14211 0.26215 0.0
C624 C 0.4154 0.08881 0.2704 0.0
H625 H 0.41826 0.08834 0.29862 0.0
H626 H 0.42319 0.08227 0.2552 0.0
H627 H 0.39884 0.07929 0.26525 0.0
C628 C 0.47682 0.1272 0.38292 0.0
N629 N 0.46038 0.12917 0.37769 0.0
N630 N 0.45517 0.12607 0.34457 0.0
C631 C 0.46863 0.12236 0.32759 0.0
C632 C 0.48249 0.12263 0.35155 0.0
C633 C 0.48768 0.13089 0.417 0.0
H634 H 0.48847 0.1443 0.43007 0.0
H635 H 0.47909 0.11739 0.43395 0.0
H636 H 0.50335 0.13355 0.41351 0.0
O637 O 0.44843 0.16237 0.39694 0.0
O638 O 0.43683 0.15615 0.3427 0.0
H639 H 0.46466 0.12904 0.2749 0.0
H640 H 0.48316 0.12086 0.28009 0.0
C641 C 0.46834 0.11865 0.28933 0.0
H642 H 0.45658 0.10272 0.28373 0.0
H643 H 0.43665 0.15653 0.27253 0.0
O644 O 0.45483 0.1374 0.45756 0.0
C645 C 0.44358 0.16792 0.36907 0.0
Co646 Co 0.86194 0.30743 0.41217 0.0
Co647 Co 0.87025 0.30158 0.33421 0.0
C648 C 0.8938 0.29683 0.39213 0.0
O649 O 0.8831 0.3002 0.41349 0.0
O650 O 0.89138 0.29743 0.35935 0.0
C651 C 0.87558 0.32491 0.47791 0.0
O652 O 0.89333 0.33236 0.46239 0.0
C653 C 0.88933 0.31242 0.26373 0.0
C654 C 0.86381 0.29012 0.23137 0.0
C655 C 0.88356 0.3063 0.22943 0.0
N656 N 0.87356 0.30051 0.28474 0.0
N657 N 0.85849 0.28709 0.26514 0.0
C658 C 0.90983 0.32827 0.27665 0.0
H659 H 0.90965 0.32981 0.30535 0.0
H660 H 0.91462 0.34318 0.2643 0.0
H661 H 0.92124 0.32381 0.26942 0.0
C662 C 0.86892 0.34669 0.38558 0.0
N663 N 0.86838 0.32887 0.38081 0.0
N664 N 0.87114 0.32656 0.34763 0.0
C665 C 0.87299 0.34287 0.33006 0.0
C666 C 0.87178 0.35617 0.35358 0.0
C667 C 0.86734 0.35459 0.4205 0.0
H668 H 0.85288 0.3434 0.43321 0.0
H669 H 0.88011 0.35643 0.437 0.0
H670 H 0.86824 0.36958 0.41908 0.0
O671 O 0.83625 0.28331 0.39939 0.0
O672 O 0.84248 0.27811 0.34506 0.0
H673 H 0.86439 0.32962 0.27908 0.0
H674 H 0.86748 0.35473 0.2828 0.0
C675 C 0.87353 0.34478 0.29129 0.0
H676 H 0.8895 0.35175 0.28228 0.0
H677 H 0.84433 0.27611 0.27474 0.0
O678 O 0.8594 0.31435 0.46052 0.0
C679 C 0.83077 0.2729 0.37152 0.0
Co680 Co 0.68927 0.55427 0.4152 0.0
Co681 Co 0.69592 0.56679 0.33631 0.0
C682 C 0.70287 0.59708 0.39176 0.0
O683 O 0.69861 0.58317 0.41396 0.0
O684 O 0.70197 0.59336 0.35919 0.0
C685 C 0.67347 0.55469 0.48074 0.0
O686 O 0.6692 0.5673 0.46433 0.0
C687 C 0.68769 0.57594 0.26435 0.0
C688 C 0.70589 0.56602 0.2339 0.0
C689 C 0.69281 0.57371 0.23039 0.0
N690 N 0.69714 0.56958 0.28653 0.0
N691 N 0.7081 0.56386 0.26802 0.0
C692 C 0.67496 0.58489 0.27579 0.0
H693 H 0.67894 0.59076 0.30277 0.0
H694 H 0.65866 0.57302 0.27534 0.0
H695 H 0.67714 0.59733 0.25792 0.0
C696 C 0.64925 0.52326 0.38937 0.0
N697 N 0.66758 0.53982 0.38407 0.0
N698 N 0.67016 0.54419 0.35063 0.0
C699 C 0.65356 0.52994 0.33342 0.0
C700 C 0.63975 0.5163 0.35747 0.0
C701 C 0.64102 0.51467 0.42464 0.0
H702 H 0.64167 0.52686 0.44137 0.0
H703 H 0.62499 0.50216 0.4237 0.0
H704 H 0.65066 0.50914 0.43669 0.0
O705 O 0.71236 0.55048 0.40399 0.0
O706 O 0.71793 0.56061 0.34886 0.0
H707 H 0.64061 0.51205 0.28684 0.0
H708 H 0.64694 0.53823 0.28409 0.0
C709 C 0.65191 0.52783 0.29466 0.0
H710 H 0.66687 0.53188 0.28325 0.0
H711 H 0.71685 0.5581 0.27868 0.0
O712 O 0.68139 0.54596 0.46392 0.0
C713 C 0.72256 0.55413 0.37602 0.0
Co714 Co 0.4678 0.112 0.79943 0.0
Co715 Co 0.46044 0.09837 0.87793 0.0
C716 C 0.4368 0.0693 0.82127 0.0
O717 O 0.44718 0.08325 0.79947 0.0
O718 O 0.43936 0.07266 0.85397 0.0
C719 C 0.45237 0.11437 0.73446 0.0
O720 O 0.43513 0.10314 0.75105 0.0
C721 C 0.44255 0.08943 0.94963 0.0
C722 C 0.46944 0.09498 0.98042 0.0
C723 C 0.4492 0.08963 0.98345 0.0
N724 N 0.45827 0.09461 0.92769 0.0
N725 N 0.47421 0.09771 0.94639 0.0
C726 C 0.42137 0.08318 0.93822 0.0
H727 H 0.42106 0.08632 0.91008 0.0
H728 H 0.4152 0.09122 0.95368 0.0
H729 H 0.41142 0.06663 0.94299 0.0
C730 C 0.45949 0.14338 0.82572 0.0
N731 N 0.46112 0.12673 0.83087 0.0
N732 N 0.45844 0.12178 0.86412 0.0
C733 C 0.45545 0.13566 0.88127 0.0
C734 C 0.45567 0.1495 0.85731 0.0
C735 C 0.46303 0.1541 0.79153 0.0
H736 H 0.47644 0.1549 0.77842 0.0
H737 H 0.44951 0.14536 0.77468 0.0
H738 H 0.46563 0.16976 0.79479 0.0
O739 O 0.49402 0.11452 0.81115 0.0
O740 O 0.48831 0.10325 0.8656 0.0
H741 H 0.46295 0.13179 0.93349 0.0
H742 H 0.45585 0.15113 0.92885 0.0
C743 C 0.45271 0.13596 0.91976 0.0
H744 H 0.43673 0.12481 0.92645 0.0
H745 H 0.4885 0.10202 0.93598 0.0
O746 O 0.46903 0.12105 0.75092 0.0
C747 C 0.49984 0.10985 0.83892 0.0
Co748 Co 0.88786 0.35767 0.80183 0.0
Co749 Co 0.89935 0.36377 0.88115 0.0
C750 C 0.92891 0.36622 0.82728 0.0
O751 O 0.91562 0.36265 0.80408 0.0
O752 O 0.92526 0.36731 0.85945 0.0
C753 C 0.88245 0.33786 0.73691 0.0
O754 O 0.89001 0.32799 0.75353 0.0
C755 C 0.9068 0.35635 0.95539 0.0
C756 C 0.89689 0.3757 0.98197 0.0
C757 C 0.90391 0.36228 0.98854 0.0
N758 N 0.90135 0.36564 0.93118 0.0
N759 N 0.8957 0.37733 0.94745 0.0
C760 C 0.91378 0.34165 0.94628 0.0
H761 H 0.91183 0.33818 0.91801 0.0
H762 H 0.90505 0.32735 0.96134 0.0
H763 H 0.93016 0.34846 0.95286 0.0
C764 C 0.8541 0.31885 0.8274 0.0
N765 N 0.87105 0.33685 0.833 0.0
N766 N 0.87566 0.3388 0.86639 0.0
C767 C 0.86147 0.3219 0.88306 0.0
C768 C 0.84761 0.30867 0.85871 0.0
C769 C 0.84361 0.31189 0.79299 0.0
H770 H 0.84483 0.32501 0.77823 0.0
H771 H 0.85092 0.30485 0.77782 0.0
H772 H 0.82727 0.30038 0.79639 0.0
O773 O 0.8875 0.38276 0.8114 0.0
O774 O 0.89578 0.3873 0.86728 0.0
H775 H 0.86457 0.3321 0.93588 0.0
H776 H 0.84656 0.30533 0.92998 0.0
C777 C 0.86135 0.31821 0.92128 0.0
H778 H 0.87335 0.31441 0.92724 0.0
H779 H 0.89054 0.38613 0.935 0.0
O780 O 0.87947 0.35069 0.75317 0.0
C781 C 0.89109 0.39297 0.83927 0.0
Co782 Co 0.64181 0.53156 0.80477 0.0
Co783 Co 0.6359 0.53796 0.88378 0.0
C784 C 0.63141 0.56318 0.82917 0.0
O785 O 0.63515 0.55331 0.80652 0.0
O786 O 0.63109 0.55934 0.8616 0.0
C787 C 0.66071 0.54755 0.74095 0.0
O788 O 0.66782 0.56459 0.75866 0.0
C789 C 0.6421 0.55388 0.95723 0.0
C790 C 0.62879 0.52463 0.98549 0.0
C791 C 0.63845 0.54548 0.99058 0.0
N792 N 0.63511 0.53858 0.93379 0.0
N793 N 0.62706 0.5212 0.95105 0.0
C794 C 0.65115 0.57586 0.94774 0.0
H795 H 0.64609 0.57742 0.92144 0.0
H796 H 0.66798 0.58327 0.94753 0.0
H797 H 0.64676 0.58383 0.96714 0.0
C798 C 0.68147 0.53899 0.83013 0.0
N799 N 0.66311 0.53713 0.83563 0.0
N800 N 0.66118 0.54025 0.86878 0.0
C801 C 0.67847 0.54415 0.88545 0.0
C802 C 0.69191 0.54371 0.86133 0.0
C803 C 0.68847 0.53524 0.79593 0.0
H804 H 0.67556 0.52251 0.7821 0.0
H805 H 0.69443 0.54915 0.7797 0.0
H806 H 0.70077 0.53151 0.79948 0.0
O807 O 0.61751 0.50556 0.81551 0.0
O808 O 0.61269 0.51046 0.87077 0.0
H809 H 0.67036 0.53577 0.93864 0.0
H810 H 0.69748 0.55151 0.93138 0.0
C811 C 0.68223 0.5487 0.92345 0.0
H812 H 0.68115 0.56239 0.9295 0.0
H813 H 0.62066 0.50692 0.93927 0.0
O814 O 0.64949 0.53074 0.75625 0.0
C815 C 0.60727 0.49942 0.84347 0.0
Co816 Co 0.55175 0.86093 0.63323 0.0
Co817 Co 0.56471 0.86792 0.71183 0.0
C818 C 0.59463 0.89089 0.65638 0.0
O819 O 0.58071 0.88055 0.63455 0.0
O820 O 0.59106 0.88891 0.68905 0.0
C821 C 0.5519 0.87718 0.56805 0.0
O822 O 0.56415 0.89405 0.58481 0.0
C823 C 0.57381 0.88463 0.78454 0.0
C824 C 0.56202 0.85587 0.81389 0.0
C825 C 0.5707 0.87671 0.81824 0.0
N826 N 0.567 0.86905 0.76172 0.0
N827 N 0.56016 0.85198 0.7796 0.0
C828 C 0.58392 0.90653 0.77398 0.0
H829 H 0.59002 0.90849 0.74715 0.0
H830 H 0.57267 0.9118 0.77442 0.0
H831 H 0.59638 0.91608 0.79236 0.0
C832 C 0.52065 0.86993 0.65844 0.0
N833 N 0.5372 0.86819 0.66397 0.0
N834 N 0.54183 0.87058 0.69731 0.0
C835 C 0.52784 0.87348 0.71424 0.0
C836 C 0.51402 0.87321 0.6901 0.0
C837 C 0.5119 0.86907 0.62311 0.0
H838 H 0.50719 0.85408 0.61098 0.0
H839 H 0.52379 0.88104 0.60651 0.0
H840 H 0.49882 0.87173 0.62384 0.0
O841 O 0.548 0.83422 0.64479 0.0
O842 O 0.55951 0.84 0.69907 0.0
H843 H 0.52958 0.86309 0.76534 0.0
H844 H 0.51112 0.87134 0.76118 0.0
C845 C 0.52642 0.87441 0.75296 0.0
H846 H 0.53788 0.88979 0.76211 0.0
H847 H 0.55381 0.83755 0.76839 0.0
O848 O 0.54353 0.86041 0.58451 0.0
C849 C 0.55261 0.82836 0.67256 0.0
Co850 Co 0.13376 0.68901 0.63892 0.0
Co851 Co 0.12734 0.69541 0.71774 0.0
C852 C 0.10243 0.69997 0.66251 0.0
O853 O 0.11227 0.69603 0.6401 0.0
O854 O 0.1062 0.70036 0.69499 0.0
C855 C 0.11788 0.67053 0.57466 0.0
O856 O 0.10075 0.66376 0.59198 0.0
C857 C 0.11073 0.68893 0.79065 0.0
C858 C 0.1397 0.70321 0.81986 0.0
C859 C 0.11878 0.6929 0.82425 0.0
N860 N 0.1263 0.69638 0.76771 0.0
N861 N 0.1435 0.70502 0.78553 0.0
C862 C 0.08878 0.67928 0.78054 0.0
H863 H 0.08727 0.68375 0.75373 0.0
H864 H 0.08164 0.66248 0.78137 0.0
H865 H 0.08048 0.68376 0.79908 0.0
C866 C 0.12553 0.6492 0.66488 0.0
N867 N 0.12778 0.66774 0.67012 0.0
N868 N 0.12482 0.66993 0.70324 0.0
C869 C 0.12074 0.65266 0.7202 0.0
C870 C 0.1208 0.63894 0.69627 0.0
C871 C 0.1288 0.64181 0.6307 0.0
H872 H 0.14178 0.65442 0.61678 0.0
H873 H 0.11492 0.63634 0.61454 0.0
H874 H 0.13191 0.62909 0.63427 0.0
O875 O 0.15991 0.71311 0.64979 0.0
O876 O 0.15507 0.71833 0.70488 0.0
H877 H 0.12894 0.66163 0.7732 0.0
H878 H 0.11446 0.63434 0.76679 0.0
C879 C 0.11638 0.64917 0.75828 0.0
H880 H 0.10217 0.64933 0.76407 0.0
H881 H 0.15794 0.71185 0.77421 0.0
O882 O 0.13465 0.68123 0.59043 0.0
C883 C 0.16615 0.72346 0.67764 0.0
Co884 Co 0.30709 0.44715 0.63302 0.0
Co885 Co 0.29981 0.43321 0.71124 0.0
C886 C 0.29364 0.40398 0.65458 0.0
O887 O 0.2979 0.41816 0.63289 0.0
O888 O 0.29431 0.4072 0.6873 0.0
C889 C 0.32626 0.44939 0.57009 0.0
O890 O 0.33215 0.4386 0.58835 0.0
C891 C 0.30746 0.4229 0.78259 0.0
C892 C 0.28949 0.43269 0.81401 0.0
C893 C 0.30241 0.42481 0.81669 0.0
N894 N 0.2981 0.42962 0.76094 0.0
N895 N 0.2872 0.43519 0.78 0.0
C896 C 0.31983 0.41367 0.77056 0.0
H897 H 0.32245 0.41566 0.74206 0.0
H898 H 0.33463 0.42052 0.7843 0.0
H899 H 0.31152 0.39717 0.7768 0.0
C900 C 0.34716 0.47733 0.66038 0.0
N901 N 0.32844 0.4612 0.66496 0.0
N902 N 0.32581 0.45583 0.698 0.0
C903 C 0.34295 0.46877 0.71556 0.0
C904 C 0.35705 0.48254 0.6921 0.0
C905 C 0.35496 0.48843 0.62664 0.0
H906 H 0.3426 0.48927 0.61273 0.0
H907 H 0.36031 0.48003 0.61015 0.0
H908 H 0.36786 0.50409 0.63082 0.0
O909 O 0.28385 0.45055 0.64389 0.0
O910 O 0.27777 0.4395 0.69852 0.0
H911 H 0.33222 0.46597 0.76799 0.0
H912 H 0.35946 0.48203 0.76336 0.0
C913 C 0.34587 0.46802 0.7539 0.0
H914 H 0.34806 0.45495 0.75972 0.0
H915 H 0.27857 0.44121 0.76982 0.0
O916 O 0.3157 0.45599 0.58481 0.0
C917 C 0.27333 0.44634 0.67156 0.0
Co918 Co 0.52786 0.88475 0.24347 0.0
Co919 Co 0.53346 0.89721 0.16459 0.0
C920 C 0.55774 0.92732 0.21968 0.0
O921 O 0.54801 0.9135 0.24199 0.0
O922 O 0.55464 0.92362 0.18714 0.0
C923 C 0.54444 0.88433 0.30814 0.0
O924 O 0.56131 0.89638 0.2912 0.0
C925 C 0.55026 0.90633 0.09215 0.0
C926 C 0.52175 0.89548 0.06244 0.0
C927 C 0.54255 0.90366 0.05835 0.0
N928 N 0.5346 0.89974 0.11475 0.0
N929 N 0.51768 0.89346 0.09668 0.0
C930 C 0.57206 0.91581 0.10307 0.0
H931 H 0.57405 0.92185 0.12994 0.0
H932 H 0.57683 0.90417 0.10272 0.0
H933 H 0.58198 0.92822 0.08489 0.0
C934 C 0.53559 0.85297 0.21712 0.0
N935 N 0.53424 0.86978 0.21202 0.0
N936 N 0.53609 0.87425 0.17863 0.0
C937 C 0.53818 0.85988 0.16124 0.0
C938 C 0.53798 0.84598 0.18512 0.0
C939 C 0.53511 0.84423 0.2523 0.0
H940 H 0.54736 0.85607 0.26855 0.0
H941 H 0.53759 0.83104 0.25115 0.0
H942 H 0.52032 0.83968 0.26506 0.0
O943 O 0.50126 0.88178 0.23311 0.0
O944 O 0.50558 0.89182 0.17794 0.0
H945 H 0.52677 0.86162 0.11106 0.0
H946 H 0.5344 0.84264 0.11422 0.0
C947 C 0.5381 0.85814 0.12246 0.0
H948 H 0.55336 0.86922 0.11225 0.0
H949 H 0.50323 0.88741 0.10771 0.0
O950 O 0.52758 0.87633 0.29199 0.0
C951 C 0.49469 0.88566 0.20541 0.0
Co952 Co 0.11131 0.64289 0.24928 0.0
Co953 Co 0.09873 0.63683 0.17036 0.0
C954 C 0.06843 0.62958 0.22561 0.0
O955 O 0.08231 0.63371 0.24789 0.0
O956 O 0.07216 0.63062 0.19301 0.0
C957 C 0.11223 0.66013 0.31407 0.0
O958 O 0.10072 0.66565 0.29713 0.0
C959 C 0.08841 0.64319 0.09749 0.0
C960 C 0.1039 0.62977 0.06816 0.0
C961 C 0.09277 0.63955 0.06386 0.0
N962 N 0.09688 0.63608 0.12037 0.0
N963 N 0.10593 0.62796 0.10247 0.0
C964 C 0.07561 0.65228 0.10769 0.0
H965 H 0.06963 0.64759 0.13446 0.0
H966 H 0.08491 0.66912 0.10706 0.0
H967 H 0.06282 0.64755 0.08909 0.0
C968 C 0.14192 0.68337 0.2241 0.0
N969 N 0.12584 0.66473 0.21859 0.0
N970 N 0.12089 0.66259 0.18539 0.0
C971 C 0.134 0.67994 0.16863 0.0
C972 C 0.14755 0.69371 0.19275 0.0
C973 C 0.15256 0.69057 0.25834 0.0
H974 H 0.15345 0.67802 0.27149 0.0
H975 H 0.14373 0.69527 0.27514 0.0
H976 H 0.16818 0.70371 0.25511 0.0
O977 O 0.11498 0.61987 0.23791 0.0
O978 O 0.10488 0.61468 0.18278 0.0
H979 H 0.13462 0.67126 0.11589 0.0
H980 H 0.14603 0.69846 0.1222 0.0
C981 C 0.13352 0.68331 0.13039 0.0
H982 H 0.11885 0.68227 0.12371 0.0
H983 H 0.11387 0.62147 0.11373 0.0
O984 O 0.11957 0.65066 0.29791 0.0
C985 C 0.11127 0.60981 0.2098 0.0
Co986 Co 0.35537 0.46552 0.24365 0.0
Co987 Co 0.36235 0.46142 0.16397 0.0
C988 C 0.36619 0.43484 0.21782 0.0
O989 O 0.3621 0.44397 0.24134 0.0
O990 O 0.36685 0.43962 0.18577 0.0
C991 C 0.33916 0.45012 0.31007 0.0
O992 O 0.33403 0.43276 0.29463 0.0
C993 C 0.35308 0.44646 0.09013 0.0
C994 C 0.37683 0.47366 0.06307 0.0
C995 C 0.3604 0.45438 0.05688 0.0
N996 N 0.3645 0.46066 0.11407 0.0
N997 N 0.37881 0.47671 0.09755 0.0
C998 C 0.33523 0.42627 0.09958 0.0
H999 H 0.33157 0.42585 0.12764 0.0
H1000 H 0.32177 0.42323 0.08372 0.0
H1001 H 0.33897 0.41413 0.0943 0.0
C1002 C 0.31628 0.45922 0.2179 0.0
N1003 N 0.33434 0.46045 0.21215 0.0
N1004 N 0.33709 0.45961 0.17845 0.0
C1005 C 0.32094 0.45865 0.16163 0.0
C1006 C 0.3072 0.45819 0.18612 0.0
C1007 C 0.30774 0.45831 0.25342 0.0
H1008 H 0.30817 0.44614 0.26862 0.0
H1009 H 0.29173 0.45489 0.25261 0.0
H1010 H 0.31728 0.473 0.267 0.0
O1011 O 0.3799 0.49187 0.23394 0.0
O1012 O 0.38508 0.48869 0.17805 0.0
H1013 H 0.31101 0.46861 0.11709 0.0
H1014 H 0.31141 0.44539 0.11128 0.0
C1015 C 0.31966 0.46073 0.12316 0.0
H1016 H 0.33506 0.46945 0.11165 0.0
H1017 H 0.38971 0.49002 0.10978 0.0
O1018 O 0.34767 0.46646 0.29241 0.0
C1019 C 0.3902 0.49894 0.20619 0.0
Co1020 Co 0.10799 0.46719 0.74351 0.0
Co1021 Co 0.09513 0.46079 0.66472 0.0
C1022 C 0.0668 0.43419 0.72111 0.0
O1023 O 0.08037 0.44423 0.74368 0.0
O1024 O 0.07002 0.43856 0.68876 0.0
C1025 C 0.11325 0.45446 0.80999 0.0
O1026 O 0.10338 0.43634 0.79559 0.0
C1027 C 0.08818 0.44326 0.59294 0.0
C1028 C 0.08956 0.46863 0.5625 0.0
C1029 C 0.08719 0.4494 0.5592 0.0
N1030 N 0.09122 0.45834 0.61503 0.0
N1031 N 0.09186 0.47336 0.59655 0.0
C1032 C 0.08486 0.42296 0.6043 0.0
H1033 H 0.08721 0.42283 0.6328 0.0
H1034 H 0.0953 0.41915 0.59033 0.0
H1035 H 0.06908 0.41107 0.59765 0.0
C1036 C 0.14198 0.46312 0.71639 0.0
N1037 N 0.12436 0.46298 0.71159 0.0
N1038 N 0.11974 0.46091 0.67821 0.0
C1039 C 0.13485 0.46024 0.66059 0.0
C1040 C 0.14932 0.46149 0.68424 0.0
C1041 C 0.15094 0.46384 0.75146 0.0
H1042 H 0.15388 0.47791 0.76525 0.0
H1043 H 0.13985 0.45059 0.76689 0.0
H1044 H 0.16516 0.46315 0.75009 0.0
O1045 O 0.1076 0.49224 0.73241 0.0
O1046 O 0.09804 0.48772 0.67708 0.0
H1047 H 0.13006 0.46929 0.6101 0.0
H1048 H 0.15284 0.46749 0.61375 0.0
C1049 C 0.13667 0.46055 0.62182 0.0
H1050 H 0.12843 0.44472 0.61191 0.0
H1051 H 0.09414 0.48701 0.60713 0.0
O1052 O 0.11776 0.47012 0.79179 0.0
C1053 C 0.10319 0.4984 0.70477 0.0
Co1054 Co 0.52911 0.64081 0.7433 0.0
Co1055 Co 0.53583 0.63416 0.66464 0.0
C1056 C 0.56125 0.63092 0.7208 0.0
O1057 O 0.55114 0.63461 0.74304 0.0
O1058 O 0.55746 0.6303 0.6883 0.0
C1059 C 0.54435 0.65997 0.80747 0.0
O1060 O 0.56158 0.66708 0.79033 0.0
C1061 C 0.55328 0.64294 0.59268 0.0
C1062 C 0.52611 0.62177 0.56229 0.0
C1063 C 0.54637 0.63658 0.55894 0.0
N1064 N 0.53768 0.63245 0.61488 0.0
N1065 N 0.52158 0.61972 0.59641 0.0
C1066 C 0.57457 0.65772 0.60382 0.0
H1067 H 0.5751 0.66097 0.63209 0.0
H1068 H 0.5807 0.67206 0.58878 0.0
H1069 H 0.58443 0.65109 0.59832 0.0
C1070 C 0.53563 0.67978 0.7162 0.0
N1071 N 0.53443 0.66166 0.71138 0.0
N1072 N 0.53713 0.6593 0.67817 0.0
C1073 C 0.53979 0.67598 0.66076 0.0
C1074 C 0.53925 0.68953 0.68448 0.0
C1075 C 0.53218 0.68713 0.7503 0.0
H1076 H 0.51935 0.6744 0.76428 0.0
H1077 H 0.5461 0.69287 0.76645 0.0
H1078 H 0.52874 0.69961 0.74666 0.0
O1079 O 0.50336 0.61612 0.73247 0.0
O1080 O 0.50846 0.61083 0.67753 0.0
H1081 H 0.53243 0.66462 0.60854 0.0
H1082 H 0.53988 0.69117 0.61303 0.0
C1083 C 0.54276 0.67899 0.6223 0.0
H1084 H 0.55871 0.68356 0.61589 0.0
H1085 H 0.50733 0.60982 0.60705 0.0
O1086 O 0.52771 0.64875 0.79165 0.0
C1087 C 0.49736 0.60559 0.70475 0.0
Co1088 Co 0.35589 0.88579 0.7445 0.0
Co1089 Co 0.36141 0.89937 0.66605 0.0
C1090 C 0.36561 0.92793 0.72308 0.0
O1091 O 0.3622 0.91402 0.74489 0.0
O1092 O 0.36546 0.92479 0.69038 0.0
C1093 C 0.33635 0.87945 0.80971 0.0
O1094 O 0.32663 0.88735 0.79363 0.0
C1095 C 0.35291 0.90893 0.59424 0.0
C1096 C 0.37309 0.90167 0.56352 0.0
C1097 C 0.35912 0.90823 0.56042 0.0
N1098 N 0.36273 0.90289 0.61624 0.0
N1099 N 0.37484 0.89872 0.59754 0.0
C1100 C 0.33901 0.9165 0.6056 0.0
H1101 H 0.33635 0.91455 0.6341 0.0
H1102 H 0.32429 0.9083 0.5916 0.0
H1103 H 0.34599 0.93287 0.59886 0.0
C1104 C 0.31654 0.85318 0.71813 0.0
N1105 N 0.33461 0.87016 0.71312 0.0
N1106 N 0.33642 0.87558 0.68013 0.0
C1107 C 0.31938 0.86193 0.66312 0.0
C1108 C 0.30619 0.84755 0.68686 0.0
C1109 C 0.30972 0.84179 0.75178 0.0
H1110 H 0.3229 0.84264 0.76579 0.0
H1111 H 0.30273 0.84867 0.76822 0.0
H1112 H 0.2982 0.82556 0.74734 0.0
O1113 O 0.3805 0.88504 0.73261 0.0
O1114 O 0.38495 0.89524 0.6776 0.0
H1115 H 0.32929 0.86593 0.61004 0.0
H1116 H 0.30239 0.84836 0.61587 0.0
C1117 C 0.31557 0.86277 0.62516 0.0
H1118 H 0.31223 0.87521 0.62055 0.0
H1119 H 0.38417 0.89361 0.60797 0.0
O1120 O 0.34908 0.87652 0.79297 0.0
C1121 C 0.39063 0.88956 0.7045 0.0
Co1122 Co 0.13667 0.44738 0.13406 0.0
Co1123 Co 0.12933 0.43363 0.21241 0.0
C1124 C 0.10466 0.40522 0.15499 0.0
O1125 O 0.11501 0.4192 0.13326 0.0
O1126 O 0.10782 0.4083 0.18767 0.0
C1127 C 0.12291 0.45184 0.06849 0.0
O1128 O 0.10514 0.44182 0.08403 0.0
C1129 C 0.1111 0.42531 0.28379 0.0
C1130 C 0.13687 0.42796 0.31471 0.0
C1131 C 0.11719 0.42445 0.31764 0.0
N1132 N 0.12662 0.42936 0.26202 0.0
N1133 N 0.14188 0.43076 0.28079 0.0
C1134 C 0.0905 0.42094 0.27202 0.0
H1135 H 0.09038 0.42314 0.24348 0.0
H1136 H 0.08598 0.43093 0.28568 0.0
H1137 H 0.07912 0.40499 0.27875 0.0
C1138 C 0.13073 0.48021 0.16145 0.0
N1139 N 0.13106 0.4628 0.16599 0.0
N1140 N 0.12852 0.45778 0.1992 0.0
C1141 C 0.12699 0.47236 0.21698 0.0
C1142 C 0.12822 0.48693 0.1936 0.0
C1143 C 0.13206 0.48964 0.12658 0.0
H1144 H 0.14624 0.49256 0.11326 0.0
H1145 H 0.11895 0.47884 0.11054 0.0
H1146 H 0.13154 0.50393 0.1282 0.0
O1147 O 0.16224 0.44832 0.14569 0.0
O1148 O 0.15694 0.43784 0.2006 0.0
H1149 H 0.13577 0.46762 0.26773 0.0
H1150 H 0.13261 0.48963 0.2644 0.0
C1151 C 0.12657 0.47365 0.25578 0.0
H1152 H 0.11063 0.46458 0.26492 0.0
H1153 H 0.15588 0.43389 0.2705 0.0
O1154 O 0.13903 0.45694 0.08576 0.0
C1155 C 0.16814 0.44379 0.1735 0.0
Co1156 Co 0.55146 0.68742 0.13379 0.0
Co1157 Co 0.56482 0.69458 0.21249 0.0
C1158 C 0.5941 0.69976 0.15595 0.0
O1159 O 0.58014 0.69572 0.13399 0.0
O1160 O 0.59069 0.69936 0.18857 0.0
C1161 C 0.55049 0.67091 0.06807 0.0
O1162 O 0.56286 0.66618 0.08411 0.0
C1163 C 0.57279 0.68477 0.28395 0.0
C1164 C 0.57027 0.708 0.31477 0.0
C1165 C 0.5736 0.69171 0.31775 0.0
N1166 N 0.56895 0.69635 0.2621 0.0
N1167 N 0.56764 0.71029 0.28079 0.0
C1168 C 0.57696 0.66838 0.27231 0.0
H1169 H 0.57382 0.66534 0.24407 0.0
H1170 H 0.56763 0.65421 0.28731 0.0
H1171 H 0.59318 0.67332 0.27742 0.0
C1172 C 0.5199 0.64808 0.16114 0.0
N1173 N 0.53678 0.66624 0.16585 0.0
N1174 N 0.54138 0.66909 0.19921 0.0
C1175 C 0.52691 0.65286 0.21694 0.0
C1176 C 0.51294 0.63901 0.19335 0.0
C1177 C 0.51104 0.63958 0.12615 0.0
H1178 H 0.52304 0.63988 0.10935 0.0
H1179 H 0.49838 0.62363 0.12757 0.0
H1180 H 0.50562 0.64925 0.11386 0.0
O1181 O 0.54902 0.71136 0.14489 0.0
O1182 O 0.55954 0.71718 0.19984 0.0
H1183 H 0.5087 0.64189 0.26352 0.0
H1184 H 0.53355 0.64465 0.2663 0.0
C1185 C 0.52486 0.65161 0.25571 0.0
H1186 H 0.53079 0.66698 0.26704 0.0
H1187 H 0.56466 0.72125 0.2704 0.0
O1188 O 0.54236 0.67933 0.08521 0.0
C1189 C 0.55322 0.7219 0.17256 0.0
Co1190 Co 0.3076 0.86314 0.13544 0.0
Co1191 Co 0.30225 0.87176 0.21367 0.0
C1192 C 0.29872 0.89616 0.15567 0.0
O1193 O 0.30165 0.88522 0.13414 0.0
O1194 O 0.29902 0.89343 0.18842 0.0
C1195 C 0.32489 0.87568 0.06879 0.0
O1196 O 0.33283 0.89375 0.08333 0.0
C1197 C 0.31324 0.89043 0.28472 0.0
C1198 C 0.289 0.86578 0.31596 0.0
C1199 C 0.30605 0.88492 0.31858 0.0
N1200 N 0.30103 0.87509 0.26318 0.0
N1201 N 0.2865 0.86052 0.28214 0.0
C1202 C 0.33048 0.91041 0.27272 0.0
H1203 H 0.33346 0.90982 0.24458 0.0
H1204 H 0.34443 0.91455 0.28794 0.0
H1205 H 0.32651 0.92246 0.27725 0.0
C1206 C 0.34632 0.86861 0.16204 0.0
N1207 N 0.32882 0.86871 0.16692 0.0
N1208 N 0.3267 0.87158 0.20015 0.0
C1209 C 0.34278 0.87281 0.21761 0.0
C1210 C 0.35575 0.87111 0.19399 0.0
C1211 C 0.35403 0.86693 0.12701 0.0
H1212 H 0.35588 0.8797 0.11051 0.0
H1213 H 0.369 0.86774 0.12825 0.0
H1214 H 0.34274 0.85247 0.11443 0.0
O1215 O 0.28279 0.838 0.1483 0.0
O1216 O 0.27818 0.84444 0.20281 0.0
H1217 H 0.35392 0.86635 0.26476 0.0
H1218 H 0.35268 0.88935 0.26529 0.0
C1219 C 0.34476 0.87331 0.25637 0.0
H1220 H 0.32955 0.86499 0.26872 0.0
H1221 H 0.27496 0.8468 0.27207 0.0
O1222 O 0.31414 0.85991 0.08704 0.0
C1223 C 0.27249 0.83278 0.17629 0.0
H1224 H 0.39042 0.28568 0.95439 0.0
H1225 H 0.36867 0.29354 0.85492 0.0
H1226 H 0.35694 0.27236 0.9789 0.0
H1227 H 0.33486 0.28106 0.88028 0.0
H1228 H 0.27366 0.23091 0.92257 0.0
H1229 H 0.30724 0.2506 0.89815 0.0
H1230 H 0.33078 0.27691 0.99927 0.0
H1231 H 0.29687 0.25599 0.0244 0.0
C1232 C 0.37852 0.28491 0.93776 0.0
C1233 C 0.38225 0.29052 0.90244 0.0
C1234 C 0.35922 0.27743 0.95211 0.0
C1235 C 0.34299 0.27555 0.93179 0.0
C1236 C 0.34686 0.28189 0.89668 0.0
C1237 C 0.36625 0.28914 0.88207 0.0
C1238 C 0.2859 0.24098 0.93978 0.0
C1239 C 0.28255 0.24161 0.97571 0.0
C1240 C 0.30528 0.25253 0.92551 0.0
C1241 C 0.32194 0.26537 0.94656 0.0
C1242 C 0.31843 0.26685 0.98227 0.0
C1243 C 0.29897 0.25496 0.99675 0.0
H1244 H 0.70402 0.07547 0.85302 0.0
H1245 H 0.71012 0.103 0.95401 0.0
H1246 H 0.71668 0.05411 0.87738 0.0
H1247 H 0.72375 0.08288 0.97761 0.0
H1248 H 0.74246 0.0402 0.0202 0.0
H1249 H 0.72071 0.05258 0.99642 0.0
H1250 H 0.74734 0.05764 0.89476 0.0
H1251 H 0.76781 0.04433 0.9178 0.0
C1252 C 0.70803 0.07695 0.88033 0.0
C1253 C 0.70621 0.09108 0.90136 0.0
C1254 C 0.71542 0.06481 0.89437 0.0
C1255 C 0.72152 0.06682 0.92957 0.0
C1256 C 0.71896 0.0805 0.95066 0.0
C1257 C 0.71129 0.09229 0.93687 0.0
C1258 C 0.74338 0.04371 0.99272 0.0
C1259 C 0.75701 0.04141 0.9711 0.0
C1260 C 0.73101 0.05093 0.97901 0.0
C1261 C 0.73229 0.05635 0.94354 0.0
C1262 C 0.74549 0.05335 0.92194 0.0
C1263 C 0.7575 0.04587 0.93542 0.0
H1264 H 0.90065 0.60663 0.95574 0.0
H1265 H 0.92247 0.63 0.85253 0.0
H1266 H 0.92057 0.64026 0.97974 0.0
H1267 H 0.94376 0.66396 0.87713 0.0
H1268 H 0.95128 0.72286 0.92326 0.0
H1269 H 0.93888 0.68955 0.89863 0.0
H1270 H 0.95057 0.66864 0.99603 0.0
H1271 H 0.96201 0.70221 0.02158 0.0
C1272 C 0.91009 0.61892 0.9381 0.0
C1273 C 0.90961 0.61561 0.90196 0.0
C1274 C 0.92181 0.63834 0.95211 0.0
C1275 C 0.93374 0.65508 0.93054 0.0
C1276 C 0.93435 0.65157 0.89457 0.0
C1277 C 0.92227 0.63206 0.88038 0.0
C1278 C 0.95139 0.71126 0.93955 0.0
C1279 C 0.95745 0.7152 0.97464 0.0
C1280 C 0.94444 0.69206 0.92514 0.0
C1281 C 0.94363 0.67617 0.94512 0.0
C1282 C 0.95055 0.68033 0.97991 0.0
C1283 C 0.95721 0.69959 0.99462 0.0
H1284 H 0.23384 0.27451 0.62287 0.0
H1285 H 0.25252 0.29803 0.5187 0.0
H1286 H 0.2525 0.3084 0.64624 0.0
H1287 H 0.27253 0.33238 0.54262 0.0
H1288 H 0.27861 0.39037 0.59012 0.0
H1289 H 0.26632 0.35695 0.56566 0.0
H1290 H 0.2822 0.33766 0.66079 0.0
H1291 H 0.29355 0.37126 0.68616 0.0
C1292 C 0.24231 0.28691 0.60484 0.0
C1293 C 0.24133 0.2835 0.56867 0.0
C1294 C 0.25329 0.3065 0.61848 0.0
C1295 C 0.26398 0.32336 0.59649 0.0
C1296 C 0.26407 0.31985 0.5604 0.0
C1297 C 0.25274 0.30014 0.5466 0.0
C1298 C 0.27958 0.37905 0.60591 0.0
C1299 C 0.28692 0.38344 0.64028 0.0
C1300 C 0.27271 0.35983 0.59161 0.0
C1301 C 0.27326 0.34442 0.61099 0.0
C1302 C 0.28118 0.34898 0.64516 0.0
C1303 C 0.28774 0.36824 0.65978 0.0
H1304 H 0.609 0.88737 0.59408 0.0
H1305 H 0.62666 0.92538 0.68575 0.0
H1306 H 0.64192 0.90896 0.56844 0.0
H1307 H 0.65986 0.948 0.65906 0.0
H1308 H 0.72395 0.96493 0.6197 0.0
H1309 H 0.69039 0.94953 0.6449 0.0
H1310 H 0.66411 0.93962 0.54192 0.0
H1311 H 0.69805 0.95406 0.51639 0.0
C1312 C 0.6199 0.90059 0.60866 0.0
C1313 C 0.6152 0.90462 0.64209 0.0
C1314 C 0.63882 0.91321 0.59363 0.0
C1315 C 0.65365 0.9305 0.61127 0.0
C1316 C 0.64892 0.93472 0.64473 0.0
C1317 C 0.62992 0.92179 0.66012 0.0
C1318 C 0.71108 0.95967 0.60222 0.0
C1319 C 0.71373 0.96033 0.56584 0.0
C1320 C 0.6917 0.95096 0.61687 0.0
C1321 C 0.67434 0.94291 0.59563 0.0
C1322 C 0.67708 0.94508 0.5592 0.0
C1323 C 0.69656 0.95355 0.54445 0.0
H1324 H 0.08786 0.72266 0.69421 0.0
H1325 H 0.08321 0.68952 0.60001 0.0
H1326 H 0.06777 0.73599 0.66696 0.0
H1327 H 0.06287 0.70237 0.5732 0.0
H1328 H 0.02228 0.74904 0.61696 0.0
H1329 H 0.03531 0.72878 0.6437 0.0
H1330 H 0.06971 0.73474 0.55044 0.0
H1331 H 0.05625 0.75473 0.52333 0.0
C1332 C 0.08214 0.71784 0.66806 0.0
C1333 C 0.08735 0.70527 0.64918 0.0
C1334 C 0.07061 0.72544 0.65238 0.0
C1335 C 0.06394 0.72048 0.61762 0.0
C1336 C 0.06815 0.7069 0.59963 0.0
C1337 C 0.07972 0.69943 0.61517 0.0
C1338 C 0.03236 0.74573 0.60188 0.0
C1339 C 0.03841 0.75365 0.56809 0.0
C1340 C 0.03994 0.73424 0.61738 0.0
C1341 C 0.05383 0.73041 0.59954 0.0
C1342 C 0.05893 0.73729 0.56491 0.0
C1343 C 0.05123 0.74874 0.54928 0.0
H1344 H 0.70175 0.74172 0.02316 0.0
H1345 H 0.7228 0.76989 0.12385 0.0
H1346 H 0.66783 0.71992 0.0477 0.0
H1347 H 0.68919 0.74932 0.14756 0.0
H1348 H 0.6285 0.70564 0.19097 0.0
H1349 H 0.66263 0.71867 0.16675 0.0
H1350 H 0.6402 0.72269 0.06528 0.0
H1351 H 0.60643 0.70875 0.08877 0.0
C1352 C 0.69916 0.74326 0.05042 0.0
C1353 C 0.71498 0.75767 0.07134 0.0
C1354 C 0.6797 0.73086 0.06456 0.0
C1355 C 0.67556 0.73288 0.09974 0.0
C1356 C 0.69165 0.7469 0.12067 0.0
C1357 C 0.71104 0.75896 0.10678 0.0
C1358 C 0.6309 0.70907 0.16344 0.0
C1359 C 0.61473 0.7063 0.14201 0.0
C1360 C 0.65049 0.71666 0.14948 0.0
C1361 C 0.65438 0.72198 0.11393 0.0
C1362 C 0.63796 0.71851 0.09251 0.0
C1363 C 0.61847 0.71066 0.10625 0.0
H1364 H 0.29105 0.90021 0.08796 0.0
H1365 H 0.29361 0.92532 0.19003 0.0
H1366 H 0.27736 0.92016 0.06404 0.0
H1367 H 0.28094 0.9466 0.16538 0.0
H1368 H 0.22904 0.95443 0.12249 0.0
H1369 H 0.25016 0.94207 0.14629 0.0
H1370 H 0.2794 0.95014 0.04623 0.0
H1371 H 0.25703 0.96154 0.02163 0.0
C1372 C 0.28913 0.91038 0.10531 0.0
C1373 C 0.29313 0.91086 0.1412 0.0
C1374 C 0.28142 0.9221 0.09133 0.0
C1375 C 0.27777 0.93498 0.11263 0.0
C1376 C 0.28302 0.93647 0.14821 0.0
C1377 C 0.29044 0.92439 0.16241 0.0
C1378 C 0.24005 0.95375 0.10541 0.0
C1379 C 0.24112 0.95875 0.06989 0.0
C1380 C 0.25244 0.94683 0.11933 0.0
C1381 C 0.26659 0.94497 0.09838 0.0
C1382 C 0.26839 0.95092 0.06312 0.0
C1383 C 0.25565 0.95756 0.04895 0.0
H1384 H 0.04747 0.27725 0.12029 0.0
H1385 H 0.03785 0.29801 0.02117 0.0
H1386 H 0.06034 0.31071 0.14445 0.0
H1387 H 0.04983 0.3318 0.04625 0.0
H1388 H 0.09968 0.39368 0.0871 0.0
H1389 H 0.07989 0.36002 0.06309 0.0
H1390 H 0.0556 0.33652 0.16529 0.0
H1391 H 0.07672 0.3705 0.18994 0.0
C1392 C 0.04774 0.28892 0.10368 0.0
C1393 C 0.04178 0.28493 0.06853 0.0
C1394 C 0.05496 0.30822 0.11785 0.0
C1395 C 0.05619 0.32419 0.09755 0.0
C1396 C 0.04949 0.32003 0.06263 0.0
C1397 C 0.04253 0.30065 0.04818 0.0
C1398 C 0.09003 0.38143 0.10464 0.0
C1399 C 0.09011 0.38481 0.14071 0.0
C1400 C 0.0784 0.36199 0.09062 0.0
C1401 C 0.06617 0.3453 0.11208 0.0
C1402 C 0.06524 0.34887 0.14795 0.0
C1403 C 0.07723 0.36839 0.16217 0.0
H1404 H 0.70941 0.63162 0.35635 0.0
H1405 H 0.71243 0.60964 0.45869 0.0
H1406 H 0.72269 0.66585 0.38044 0.0
H1407 H 0.7265 0.64345 0.48203 0.0
H1408 H 0.74394 0.70463 0.5242 0.0
H1409 H 0.72285 0.6707 0.49924 0.0
H1410 H 0.75336 0.69258 0.40035 0.0
H1411 H 0.77331 0.72623 0.4245 0.0
C1412 C 0.71289 0.63407 0.38386 0.0
C1413 C 0.70996 0.61788 0.4054 0.0
C1414 C 0.7206 0.65369 0.39774 0.0
C1415 C 0.72582 0.65758 0.43332 0.0
C1416 C 0.72235 0.64118 0.45478 0.0
C1417 C 0.71443 0.62167 0.44112 0.0
C1418 C 0.74591 0.70215 0.49707 0.0
C1419 C 0.76042 0.71813 0.47655 0.0
C1420 C 0.73391 0.68269 0.48269 0.0
C1421 C 0.73643 0.67872 0.44767 0.0
C1422 C 0.75059 0.69494 0.42711 0.0
C1423 C 0.76227 0.71433 0.44124 0.0
H1424 H 0.29727 0.03988 0.52421 0.0
H1425 H 0.27404 0.04018 0.42164 0.0
H1426 H 0.33124 0.05284 0.49939 0.0
H1427 H 0.30765 0.0541 0.39751 0.0
H1428 H 0.36937 0.07387 0.35504 0.0
H1429 H 0.33571 0.05198 0.38043 0.0
H1430 H 0.35708 0.08355 0.47861 0.0
H1431 H 0.39047 0.10426 0.45408 0.0
C1432 C 0.29936 0.04262 0.49646 0.0
C1433 C 0.28293 0.03921 0.47513 0.0
C1434 C 0.31887 0.0502 0.48216 0.0
C1435 C 0.3224 0.05485 0.44634 0.0
C1436 C 0.3057 0.05052 0.425 0.0
C1437 C 0.28629 0.04269 0.4391 0.0
C1438 C 0.36683 0.0759 0.38211 0.0
C1439 C 0.38259 0.09091 0.40234 0.0
C1440 C 0.34752 0.06343 0.39674 0.0
C1441 C 0.34348 0.06597 0.43171 0.0
C1442 C 0.3595 0.0807 0.45193 0.0
C1443 C 0.37874 0.09284 0.43758 0.0
H1444 H 0.89503 0.28581 0.45887 0.0
H1445 H 0.92449 0.29364 0.35924 0.0
H1446 H 0.91491 0.27206 0.48302 0.0
H1447 H 0.94562 0.28089 0.38426 0.0
H1448 H 0.95481 0.22928 0.42341 0.0
H1449 H 0.94175 0.24998 0.40059 0.0
H1450 H 0.94487 0.27484 0.50321 0.0
H1451 H 0.95703 0.25282 0.52675 0.0
C1452 C 0.90612 0.285 0.44217 0.0
C1453 C 0.90793 0.29058 0.40683 0.0
C1454 C 0.91777 0.27726 0.45631 0.0
C1455 C 0.9319 0.27515 0.43575 0.0
C1456 C 0.93454 0.28179 0.4008 0.0
C1457 C 0.92253 0.28922 0.38639 0.0
C1458 C 0.95288 0.23923 0.44133 0.0
C1459 C 0.95676 0.23916 0.47716 0.0
C1460 C 0.94556 0.25139 0.42797 0.0
C1461 C 0.94215 0.2642 0.44985 0.0
C1462 C 0.9469 0.26487 0.48556 0.0
C1463 C 0.95397 0.25234 0.49914 0.0
H1464 H 0.96058 0.58665 0.35727 0.0
H1465 H 0.93857 0.56406 0.25378 0.0
H1466 H 0.99486 0.60774 0.33377 0.0
H1467 H 0.97254 0.58386 0.2309 0.0
H1468 H 0.03508 0.62679 0.19135 0.0
H1469 H 0.0009 0.61422 0.21512 0.0
H1470 H 0.02086 0.60291 0.31382 0.0
H1471 H 0.05473 0.61634 0.2909 0.0
C1472 C 0.96302 0.58622 0.32959 0.0
C1473 C 0.94683 0.57347 0.30761 0.0
C1474 C 0.9827 0.59819 0.31605 0.0
C1475 C 0.98668 0.59737 0.28035 0.0
C1476 C 0.97024 0.58525 0.25833 0.0
C1477 C 0.95063 0.57363 0.27169 0.0
C1478 C 0.0321 0.62177 0.21818 0.0
C1479 C 0.04763 0.62251 0.23908 0.0
C1480 C 0.0125 0.61449 0.23187 0.0
C1481 C 0.00795 0.60745 0.26656 0.0
C1482 C 0.02368 0.60856 0.28737 0.0
C1483 C 0.0432 0.61611 0.27395 0.0
H1484 H 0.35422 0.41265 0.27732 0.0
H1485 H 0.39111 0.42316 0.18564 0.0
H1486 H 0.3681 0.39294 0.30309 0.0
H1487 H 0.40537 0.40359 0.21179 0.0
H1488 H 0.42105 0.38819 0.3552 0.0
H1489 H 0.40071 0.40126 0.32798 0.0
H1490 H 0.39919 0.37076 0.23212 0.0
H1491 H 0.41967 0.35809 0.25894 0.0
C1492 C 0.36514 0.41053 0.26244 0.0
C1493 C 0.37174 0.41965 0.22954 0.0
C1494 C 0.3732 0.39933 0.27739 0.0
C1495 C 0.38812 0.39698 0.25986 0.0
C1496 C 0.39382 0.40503 0.22598 0.0
C1497 C 0.38564 0.41622 0.2109 0.0
C1498 C 0.41603 0.38399 0.32857 0.0
C1499 C 0.42219 0.37233 0.30919 0.0
C1500 C 0.40437 0.39145 0.31289 0.0
C1501 C 0.39855 0.38728 0.27763 0.0
C1502 C 0.40378 0.37465 0.259 0.0
C1503 C 0.41544 0.36729 0.27455 0.0
H1504 H 0.55966 0.94056 0.28579 0.0
H1505 H 0.58774 0.96096 0.18487 0.0
H1506 H 0.58057 0.97418 0.30912 0.0
H1507 H 0.60987 0.99497 0.20903 0.0
H1508 H 0.62274 0.05698 0.2514 0.0
H1509 H 0.60829 0.02327 0.22718 0.0
H1510 H 0.61175 -9e-05 0.32808 0.0
H1511 H 0.62522 0.0339 0.353 0.0
C1512 C 0.57062 0.9522 0.26857 0.0
C1513 C 0.57187 0.94803 0.23323 0.0
C1514 C 0.58289 0.97159 0.28224 0.0
C1515 C 0.5971 0.98749 0.26122 0.0
C1516 C 0.59887 0.98322 0.226 0.0
C1517 C 0.58626 0.96372 0.21207 0.0
C1518 C 0.62061 0.04474 0.26857 0.0
C1519 C 0.62485 0.04816 0.30442 0.0
C1520 C 0.61245 0.02529 0.25443 0.0
C1521 C 0.60856 0.00863 0.27554 0.0
C1522 C 0.614 0.01224 0.31107 0.0
C1523 C 0.62187 0.03176 0.32543 0.0
H1524 H 0.37118 0.96215 0.68797 0.0
H1525 H 0.37342 0.94006 0.7906 0.0
H1526 H 0.38395 0.99625 0.71202 0.0
H1527 H 0.38716 0.97386 0.81399 0.0
H1528 H 0.40639 0.03571 0.85525 0.0
H1529 H 0.38465 0.00172 0.83095 0.0
H1530 H 0.41463 0.02268 0.7314 0.0
H1531 H 0.43515 0.05638 0.75489 0.0
C1532 C 0.37432 0.96453 0.71558 0.0
C1533 C 0.37147 0.94838 0.73715 0.0
C1534 C 0.38179 0.98411 0.72944 0.0
C1535 C 0.3869 0.98803 0.76505 0.0
C1536 C 0.38318 0.9716 0.78666 0.0
C1537 C 0.37545 0.95209 0.77301 0.0
C1538 C 0.40809 0.03302 0.82811 0.0
C1539 C 0.42262 0.04875 0.8072 0.0
C1540 C 0.39571 0.01351 0.81411 0.0
C1541 C 0.39787 0.00925 0.77908 0.0
C1542 C 0.41208 0.02525 0.75817 0.0
C1543 C 0.42411 0.04468 0.77191 0.0
H1544 H 0.93774 0.35383 0.76679 0.0
H1545 H 0.96603 0.38911 0.85927 0.0
H1546 H 0.97102 0.36619 0.74045 0.0
H1547 H -0.00049 0.40185 0.83255 0.0
H1548 H 0.05824 0.41479 0.78353 0.0
H1549 H 0.02504 0.39444 0.8105 0.0
H1550 H 0.9962 0.3986 0.71636 0.0
H1551 H 0.02956 0.41876 0.68906 0.0
C1552 C 0.95113 0.36404 0.78173 0.0
C1553 C 0.94925 0.37069 0.81503 0.0
C1554 C 0.9702 0.37122 0.76647 0.0
C1555 C 0.98793 0.38528 0.78405 0.0
C1556 C 0.98616 0.39093 0.8183 0.0
C1557 C 0.96698 0.38364 0.8337 0.0
C1558 C 0.0448 0.41107 0.7683 0.0
C1559 C 0.04654 0.41859 0.7342 0.0
C1560 C 0.02577 0.39951 0.78392 0.0
C1561 C 0.00796 0.39515 0.76589 0.0
C1562 C 0.00961 0.40157 0.73099 0.0
C1563 C 0.02873 0.41312 0.71525 0.0
H1564 H 0.57642 0.60871 0.68938 0.0
H1565 H 0.5802 0.64149 0.78359 0.0
H1566 H 0.59661 0.59562 0.71694 0.0
H1567 H 0.60067 0.62887 0.81076 0.0
H1568 H 0.64227 0.58308 0.76731 0.0
H1569 H 0.62896 0.60304 0.74048 0.0
H1570 H 0.59427 0.59666 0.83355 0.0
H1571 H 0.60807 0.57699 0.86081 0.0
C1572 C 0.58199 0.61353 0.7156 0.0
C1573 C 0.57651 0.62593 0.73437 0.0
C1574 C 0.59358 0.60605 0.73148 0.0
C1575 C 0.60004 0.61097 0.76633 0.0
C1576 C 0.59556 0.62438 0.78424 0.0
C1577 C 0.58393 0.63172 0.7685 0.0
C1578 C 0.63204 0.5862 0.78232 0.0
C1579 C 0.62604 0.57827 0.81612 0.0
C1580 C 0.62431 0.59754 0.76678 0.0
C1581 C 0.61027 0.60118 0.78453 0.0
C1582 C 0.60516 0.59426 0.81914 0.0
C1583 C 0.61305 0.58297 0.83484 0.0
H1584 H 0.21216 0.20393 0.36347 0.0
H1585 H 0.23559 0.26836 0.3514 0.0
H1586 H 0.22456 0.20239 0.30575 0.0
H1587 H 0.2482 0.267 0.29294 0.0
H1588 H 0.23241 0.24191 0.17568 0.0
H1589 H 0.23107 0.25133 0.23602 0.0
H1590 H 0.25489 0.21305 0.27008 0.0
H1591 H 0.25609 0.20359 0.20987 0.0
C1592 C 0.22044 0.21787 0.34859 0.0
C1593 C 0.22307 0.23626 0.36173 0.0
C1594 C 0.22763 0.21705 0.31557 0.0
C1595 C 0.23745 0.2346 0.29467 0.0
C1596 C 0.24065 0.25322 0.30835 0.0
C1597 C 0.23361 0.25406 0.34179 0.0
C1598 C 0.23819 0.23622 0.19587 0.0
C1599 C 0.24446 0.22209 0.18801 0.0
C1600 C 0.23731 0.24152 0.23055 0.0
C1601 C 0.24261 0.23272 0.25793 0.0
C1602 C 0.25037 0.21984 0.24968 0.0
C1603 C 0.25116 0.2145 0.21518 0.0
H1604 H 0.7779 0.01114 0.36682 0.0
H1605 H 0.72883 0.95299 0.33299 0.0
H1606 H 0.78153 0.02436 0.30801 0.0
H1607 H 0.73191 0.96626 0.27403 0.0
H1608 H 0.76543 0.98744 0.16826 0.0
H1609 H 0.75445 0.9746 0.22696 0.0
H1610 H 0.7695 0.03493 0.26079 0.0
H1611 H 0.78108 0.04774 0.20204 0.0
C1612 C 0.76727 0.00146 0.34709 0.0
C1613 C 0.75279 0.98117 0.35464 0.0
C1614 C 0.7694 0.00899 0.31315 0.0
C1615 C 0.75706 0.99641 0.28591 0.0
C1616 C 0.74194 0.97634 0.29402 0.0
C1617 C 0.73999 0.96877 0.32789 0.0
C1618 C 0.76568 0.99777 0.18793 0.0
C1619 C 0.77375 0.01851 0.18044 0.0
C1620 C 0.75947 0.99045 0.22181 0.0
C1621 C 0.76114 0.0037 0.24899 0.0
C1622 C 0.76832 0.0243 0.24087 0.0
C1623 C 0.77475 0.03163 0.20711 0.0
H1624 H 0.95111 0.73135 0.20802 0.0
H1625 H 0.01097 0.77648 0.17336 0.0
H1626 H 0.96416 0.73328 0.26679 0.0
H1627 H 0.024 0.7794 0.23216 0.0
H1628 H 0.0465 0.77931 0.33869 0.0
H1629 H 0.03344 0.76774 0.28007 0.0
H1630 H 0.97377 0.75496 0.31394 0.0
H1631 H 0.9868 0.76553 0.37264 0.0
C1632 C 0.96719 0.74141 0.21296 0.0
C1633 C 0.98012 0.75347 0.18608 0.0
C1634 C 0.97466 0.74276 0.24676 0.0
C1635 C 0.99517 0.75669 0.25476 0.0
C1636 C 0.00824 0.76819 0.22728 0.0
C1637 C 0.00081 0.76651 0.19335 0.0
C1638 C 0.03046 0.77343 0.33363 0.0
C1639 C 0.01757 0.77295 0.36027 0.0
C1640 C 0.02298 0.76704 0.29991 0.0
C1641 C 0.00251 0.76055 0.29174 0.0
C1642 C 0.98949 0.75942 0.31898 0.0
C1643 C 0.99692 0.76544 0.35284 0.0
H1644 H 0.80055 0.75433 0.71525 0.0
H1645 H 0.75172 0.76082 0.67137 0.0
H1646 H 0.78836 0.75488 0.77346 0.0
H1647 H 0.73897 0.7606 0.72974 0.0
H1648 H 0.74967 0.79717 0.83334 0.0
H1649 H 0.75158 0.78576 0.77512 0.0
H1650 H 0.7633 0.74012 0.81882 0.0
H1651 H 0.76211 0.75213 0.87721 0.0
C1652 C 0.78681 0.75525 0.71801 0.0
C1653 C 0.7771 0.75745 0.68854 0.0
C1654 C 0.7797 0.75541 0.75149 0.0
C1655 C 0.7627 0.75789 0.75648 0.0
C1656 C 0.75223 0.75885 0.72691 0.0
C1657 C 0.75936 0.75867 0.6933 0.0
C1658 C 0.75218 0.78437 0.83057 0.0
C1659 C 0.75565 0.77553 0.86001 0.0
C1660 C 0.75313 0.7777 0.79709 0.0
C1661 C 0.75772 0.76206 0.79209 0.0
C1662 C 0.75994 0.75235 0.82166 0.0
C1663 C 0.75893 0.75902 0.85527 0.0
H1664 H 0.19536 0.95181 0.83163 0.0
H1665 H 0.2476 0.0048 0.8745 0.0
H1666 H 0.20743 0.96402 0.77327 0.0
H1667 H 0.26034 0.01654 0.81596 0.0
H1668 H 0.2535 0.04527 0.71335 0.0
H1669 H 0.25045 0.03132 0.77127 0.0
H1670 H 0.23079 0.97198 0.72684 0.0
H1671 H 0.23291 0.98586 0.66884 0.0
C1672 C 0.20977 0.9658 0.82863 0.0
C1673 C 0.22049 0.97725 0.85794 0.0
C1674 C 0.21683 0.97274 0.79501 0.0
C1675 C 0.23486 0.99138 0.78965 0.0
C1676 C 0.24625 0.00224 0.81902 0.0
C1677 C 0.23911 0.99531 0.85277 0.0
C1678 C 0.24892 0.02932 0.71587 0.0
C1679 C 0.24351 0.01674 0.68632 0.0
C1680 C 0.24732 0.02131 0.7492 0.0
C1681 C 0.24022 0.00043 0.75399 0.0
C1682 C 0.23606 0.98808 0.72425 0.0
C1683 C 0.23762 0.99613 0.69079 0.0
H1684 H 0.96255 0.18415 0.71077 0.0
H1685 H 0.99061 0.24649 0.67495 0.0
H1686 H 0.97475 0.196 0.76897 0.0
H1687 H 0.00348 0.25827 0.73359 0.0
H1688 H 0.04399 0.26237 0.83283 0.0
H1689 H 0.029 0.25623 0.77457 0.0
H1690 H 0.97008 0.21449 0.81805 0.0
H1691 H 0.98514 0.22022 0.87587 0.0
C1692 C 0.97129 0.20043 0.71509 0.0
C1693 C 0.97588 0.21426 0.68745 0.0
C1694 C 0.97822 0.20721 0.74874 0.0
C1695 C 0.99005 0.22808 0.75599 0.0
C1696 C 0.99454 0.24206 0.7287 0.0
C1697 C 0.98734 0.23524 0.69485 0.0
C1698 C 0.02772 0.25236 0.82997 0.0
C1699 C 0.01567 0.24213 0.85903 0.0
C1700 C 0.01914 0.24888 0.79665 0.0
C1701 C 0.99837 0.2348 0.79167 0.0
C1702 C 0.98614 0.22538 0.82103 0.0
C1703 C 0.9947 0.22896 0.85433 0.0
H1704 H 0.8845 0.56369 0.50527 0.0
H1705 H 0.93109 0.55062 0.53825 0.0
H1706 H 0.88248 0.57458 0.56394 0.0
H1707 H 0.92967 0.56211 0.59701 0.0
H1708 H 0.89758 0.55274 0.70354 0.0
H1709 H 0.90743 0.54954 0.64467 0.0
H1710 H 0.89626 0.59744 0.61062 0.0
H1711 H 0.88579 0.60004 0.66961 0.0
C1712 C 0.89496 0.56401 0.52475 0.0
C1713 C 0.90823 0.55668 0.51704 0.0
C1714 C 0.89376 0.57016 0.55861 0.0
C1715 C 0.90586 0.56919 0.58558 0.0
C1716 C 0.91984 0.56275 0.57725 0.0
C1717 C 0.92084 0.55637 0.54349 0.0
C1718 C 0.89799 0.5631 0.68377 0.0
C1719 C 0.89132 0.57692 0.69129 0.0
C1720 C 0.90354 0.56122 0.6498 0.0
C1721 C 0.9026 0.57316 0.62253 0.0
C1722 C 0.89685 0.5877 0.63064 0.0
C1723 C 0.89107 0.58939 0.66452 0.0
H1724 H 0.4185 0.32317 0.50197 0.0
H1725 H 0.46499 0.37988 0.54601 0.0
H1726 H 0.40603 0.31025 0.56025 0.0
H1727 H 0.45313 0.36676 0.60417 0.0
H1728 H 0.42716 0.34237 0.70767 0.0
H1729 H 0.42782 0.35517 0.6492 0.0
H1730 H 0.41967 0.29899 0.6059 0.0
H1731 H 0.41822 0.286 0.66422 0.0
C1732 C 0.42566 0.33315 0.52392 0.0
C1733 C 0.44267 0.35264 0.51924 0.0
C1734 C 0.4187 0.32561 0.55747 0.0
C1735 C 0.42864 0.33736 0.58708 0.0
C1736 C 0.44488 0.35731 0.58216 0.0
C1737 C 0.45181 0.3648 0.54872 0.0
C1738 C 0.42464 0.33243 0.6858 0.0
C1739 C 0.42248 0.31308 0.6907 0.0
C1740 C 0.42535 0.3399 0.65214 0.0
C1741 C 0.42398 0.32822 0.62267 0.0
C1742 C 0.42054 0.30839 0.62779 0.0
C1743 C 0.41986 0.30096 0.66133 0.0
H1744 H 0.65289 0.09821 0.70277 0.0
H1745 H 0.71322 0.11368 0.66967 0.0
H1746 H 0.64023 0.08735 0.64398 0.0
H1747 H 0.70056 0.10186 0.61095 0.0
H1748 H 0.67786 0.10988 0.50388 0.0
H1749 H 0.69078 0.1131 0.56284 0.0
H1750 H 0.63138 0.0657 0.59681 0.0
H1751 H 0.61842 0.06344 0.53787 0.0
C1752 C 0.66325 0.09843 0.68316 0.0
C1753 C 0.68395 0.10648 0.69085 0.0
C1754 C 0.65603 0.09224 0.64923 0.0
C1755 C 0.66933 0.09378 0.62219 0.0
C1756 C 0.68988 0.10082 0.63063 0.0
C1757 C 0.69713 0.10736 0.66441 0.0
C1758 C 0.66779 0.09971 0.52376 0.0
C1759 C 0.64724 0.08619 0.51625 0.0
C1760 C 0.67516 0.10155 0.55778 0.0
C1761 C 0.66216 0.08977 0.58512 0.0
C1762 C 0.64182 0.0754 0.57689 0.0
C1763 C 0.6344 0.07385 0.54299 0.0
H1764 H 0.4318 0.1116 0.00501 0.0
H1765 H 0.44504 0.06518 0.03812 0.0
H1766 H 0.42162 0.11419 0.06392 0.0
H1767 H 0.43383 0.06678 0.09699 0.0
H1768 H 0.44376 0.09828 0.20371 0.0
H1769 H 0.44607 0.08794 0.14477 0.0
H1770 H 0.40023 0.10238 0.11145 0.0
H1771 H 0.39894 0.11373 0.17034 0.0
C1772 C 0.43166 0.1013 0.02468 0.0
C1773 C 0.43891 0.08798 0.01696 0.0
C1774 C 0.42585 0.10278 0.05866 0.0
C1775 C 0.42696 0.09079 0.08573 0.0
C1776 C 0.43316 0.07662 0.07728 0.0
C1777 C 0.43934 0.07546 0.04343 0.0
C1778 C 0.43373 0.0986 0.18398 0.0
C1779 C 0.42096 0.10651 0.19163 0.0
C1780 C 0.43504 0.0927 0.14997 0.0
C1781 C 0.42344 0.0944 0.12283 0.0
C1782 C 0.40978 0.10125 0.13122 0.0
C1783 C 0.40879 0.10752 0.16509 0.0
H1784 H 0.92369 0.34147 0.01254 0.0
H1785 H 0.88755 0.36773 0.04752 0.0
H1786 H 0.92314 0.32921 0.07137 0.0
H1787 H 0.88776 0.35615 0.10582 0.0
H1788 H 0.90139 0.34667 0.21293 0.0
H1789 H 0.91105 0.36176 0.15519 0.0
H1790 H 0.89575 0.30319 0.11231 0.0
H1791 H 0.88657 0.28818 0.17052 0.0
C1792 C 0.91545 0.34453 0.0322 0.0
C1793 C 0.90521 0.35527 0.0244 0.0
C1794 C 0.91538 0.33766 0.06622 0.0
C1795 C 0.9055 0.3418 0.09333 0.0
C1796 C 0.89582 0.35297 0.08575 0.0
C1797 C 0.89564 0.35954 0.05196 0.0
C1798 C 0.90108 0.33722 0.19159 0.0
C1799 C 0.89366 0.31632 0.19642 0.0
C1800 C 0.90626 0.34579 0.15831 0.0
C1801 C 0.90402 0.33364 0.12911 0.0
C1802 C 0.89782 0.313 0.13427 0.0
C1803 C 0.89252 0.3044 0.16756 0.0
H1804 H 0.67313 0.5814 0.00844 0.0
H1805 H 0.61861 0.53112 0.05173 0.0
H1806 H 0.68563 0.59366 0.06691 0.0
H1807 H 0.63148 0.5427 0.11002 0.0
H1808 H 0.65472 0.56783 0.21414 0.0
H1809 H 0.64103 0.56653 0.15631 0.0
H1810 H 0.69925 0.58206 0.11125 0.0
H1811 H 0.71313 0.58438 0.16904 0.0
C1812 C 0.6635 0.57329 0.03029 0.0
C1813 C 0.64476 0.55533 0.02528 0.0
C1814 C 0.67084 0.58014 0.06396 0.0
C1815 C 0.65969 0.56911 0.09338 0.0
C1816 C 0.64044 0.55181 0.08821 0.0
C1817 C 0.63311 0.54503 0.05466 0.0
C1818 C 0.66485 0.57182 0.1921 0.0
C1819 C 0.68511 0.57637 0.19638 0.0
C1820 C 0.65688 0.57073 0.15875 0.0
C1821 C 0.66893 0.57399 0.1289 0.0
C1822 C 0.68951 0.57968 0.13344 0.0
C1823 C 0.69745 0.58084 0.16669 0.0
H1824 H 0.56784 0.91066 0.83557 0.0
H1825 H 0.57862 0.86452 0.87962 0.0
H1826 H 0.56681 0.92275 0.89374 0.0
H1827 H 0.57636 0.87571 0.93766 0.0
H1828 H 0.57619 0.90017 0.04138 0.0
H1829 H 0.58867 0.89948 0.98343 0.0
H1830 H 0.5426 0.91033 0.93895 0.0
H1831 H 0.53103 0.91228 0.99687 0.0
C1832 C 0.5706 0.90344 0.85747 0.0
C1833 C 0.57348 0.88668 0.85273 0.0
C1834 C 0.56962 0.91015 0.89104 0.0
C1835 C 0.57127 0.90011 0.92066 0.0
C1836 C 0.57527 0.88407 0.91572 0.0
C1837 C 0.57638 0.87748 0.88227 0.0
C1838 C 0.56927 0.90328 0.01945 0.0
C1839 C 0.55267 0.90646 0.024 0.0
C1840 C 0.5762 0.90251 0.98598 0.0
C1841 C 0.56655 0.90462 0.95624 0.0
C1842 C 0.55066 0.90887 0.961 0.0
C1843 C 0.54386 0.9098 0.99437 0.0
H1844 H 0.09346 0.67525 0.04701 0.0
H1845 H 0.08505 0.61925 0.00273 0.0
H1846 H 0.09389 0.6882 0.98874 0.0
H1847 H 0.08623 0.63239 0.9446 0.0
H1848 H 0.08436 0.6567 0.84124 0.0
H1849 H 0.07208 0.64362 0.89952 0.0
H1850 H 0.11928 0.70004 0.94354 0.0
H1851 H 0.13099 0.71331 0.88536 0.0
C1852 C 0.09101 0.66541 0.02499 0.0
C1853 C 0.08905 0.64613 0.02959 0.0
C1854 C 0.09158 0.67297 0.99147 0.0
C1855 C 0.09026 0.66143 0.96184 0.0
C1856 C 0.08705 0.64165 0.96665 0.0
C1857 C 0.08652 0.63415 1.00006 0.0
C1858 C 0.09157 0.66663 0.86322 0.0
C1859 C 0.10857 0.68614 0.85857 0.0
C1860 C 0.08472 0.65901 0.89676 0.0
C1861 C 0.09477 0.67069 0.92636 0.0
C1862 C 0.11098 0.69065 0.9215 0.0
C1863 C 0.11781 0.69823 0.88807 0.0
H1864 H 0.34264 0.44103 0.83275 0.0
H1865 H 0.28232 0.40664 0.87637 0.0
H1866 H 0.35735 0.44456 0.89049 0.0
H1867 H 0.29705 0.41056 0.93452 0.0
H1868 H 0.3336 0.41442 0.03387 0.0
H1869 H 0.31994 0.40376 0.97538 0.0
H1870 H 0.35639 0.46563 0.93938 0.0
H1871 H 0.36942 0.47653 0.99744 0.0
C1872 C 0.33254 0.43342 0.85442 0.0
C1873 C 0.31133 0.42312 0.84992 0.0
C1874 C 0.34096 0.43577 0.88765 0.0
C1875 C 0.32836 0.42794 0.91712 0.0
C1876 C 0.30716 0.41659 0.91234 0.0
C1877 C 0.29874 0.41438 0.87909 0.0
C1878 C 0.33846 0.42591 0.01394 0.0
C1879 C 0.35232 0.44655 0.02122 0.0
C1880 C 0.33078 0.41967 0.98013 0.0
C1881 C 0.33715 0.43383 0.95271 0.0
C1882 C 0.35139 0.45425 0.95975 0.0
C1883 C 0.35879 0.4605 0.99336 0.0
H1884 H 0.06299 0.44455 0.50381 0.0
H1885 H 0.1112 0.43411 0.53762 0.0
H1886 H 0.06581 0.43422 0.44484 0.0
H1887 H 0.11455 0.42433 0.47877 0.0
H1888 H 0.11339 0.4003 0.37254 0.0
H1889 H 0.102 0.40176 0.43135 0.0
H1890 H 0.08867 0.44832 0.39804 0.0
H1891 H 0.09952 0.44631 0.33933 0.0
C1892 C 0.0739 0.43961 0.4987 0.0
C1893 C 0.08655 0.43969 0.52545 0.0
C1894 C 0.07569 0.4339 0.46483 0.0
C1895 C 0.09051 0.42852 0.45671 0.0
C1896 C 0.10267 0.42793 0.48394 0.0
C1897 C 0.10069 0.43343 0.51789 0.0
C1898 C 0.10748 0.41043 0.37773 0.0
C1899 C 0.10691 0.42286 0.3512 0.0
C1900 C 0.10115 0.41144 0.41152 0.0
C1901 C 0.09449 0.42526 0.41978 0.0
C1902 C 0.09326 0.43717 0.39274 0.0
C1903 C 0.09939 0.43596 0.35886 0.0
H1904 H 0.54889 0.61599 0.50319 0.0
H1905 H 0.5649 0.67619 0.53806 0.0
H1906 H 0.5598 0.62893 0.44428 0.0
H1907 H 0.57503 0.68915 0.4792 0.0
H1908 H 0.59845 0.71113 0.37249 0.0
H1909 H 0.59651 0.69787 0.43113 0.0
H1910 H 0.54735 0.63926 0.39791 0.0
H1911 H 0.55002 0.65246 0.33933 0.0
C1912 C 0.55516 0.6321 0.49828 0.0
C1913 C 0.55646 0.64517 0.52526 0.0
C1914 C 0.56119 0.63952 0.46444 0.0
C1915 C 0.56818 0.66012 0.45657 0.0
C1916 C 0.57015 0.6733 0.48408 0.0
C1917 C 0.56441 0.66591 0.51802 0.0
C1918 C 0.58764 0.69526 0.37769 0.0
C1919 C 0.57469 0.6827 0.35124 0.0
C1920 C 0.58634 0.68768 0.41138 0.0
C1921 C 0.57167 0.66746 0.41966 0.0
C1922 C 0.55916 0.65475 0.39267 0.0
C1923 C 0.56071 0.66228 0.35887 0.0
H1924 H 0.34487 0.89846 0.34078 0.0
H1925 H 0.28754 0.89229 0.37254 0.0
H1926 H 0.3579 0.90826 0.39964 0.0
H1927 H 0.30069 0.9029 0.43143 0.0
H1928 H 0.31964 0.88993 0.53867 0.0
H1929 H 0.30755 0.88862 0.47958 0.0
H1930 H 0.36914 0.93073 0.44649 0.0
H1931 H 0.38115 0.9312 0.5056 0.0
C1932 C 0.33538 0.90011 0.36006 0.0
C1933 C 0.31533 0.89498 0.35198 0.0
C1934 C 0.34279 0.90566 0.39402 0.0
C1935 C 0.33037 0.90632 0.42072 0.0
C1936 C 0.31063 0.9022 0.41194 0.0
C1937 C 0.30313 0.89635 0.37809 0.0
C1938 C 0.33045 0.89944 0.51901 0.0
C1939 C 0.35127 0.91091 0.52679 0.0
C1940 C 0.32356 0.89867 0.48492 0.0
C1941 C 0.33734 0.90947 0.45783 0.0
C1942 C 0.35808 0.92185 0.4663 0.0
C1943 C 0.36497 0.92235 0.50026 0.0
H1944 H 0.2246 0.14389 0.06522 0.0
H1945 H 0.21623 0.13889 0.95369 0.0
H1946 H 0.22144 0.11031 0.06668 0.0
H1947 H 0.21383 0.10573 0.95497 0.0
H1948 H 0.18793 0.03745 0.97598 0.0
H1949 H 0.19186 0.07145 0.97242 0.0
H1950 H 0.23885 0.0927 0.05116 0.0
H1951 H 0.23426 0.05854 0.05528 0.0
C1952 C 0.22224 0.1357 0.041 0.0
C1953 C 0.22061 0.14406 0.00939 0.0
C1954 C 0.22057 0.11649 0.04177 0.0
C1955 C 0.21743 0.10529 0.01089 0.0
C1956 C 0.21592 0.11375 0.97929 0.0
C1957 C 0.2174 0.13284 0.97857 0.0
C1958 C 0.19925 0.04955 0.99206 0.0
C1959 C 0.21083 0.04557 0.01581 0.0
C1960 C 0.20155 0.06901 0.99009 0.0
C1961 C 0.21559 0.08483 0.01172 0.0
C1962 C 0.2276 0.08082 0.03468 0.0
C1963 C 0.22514 0.06136 0.03683 0.0
H1964 H 0.94277 0.17928 0.97911 0.0
H1965 H 0.96208 0.14479 0.04176 0.0
H1966 H 0.90877 0.14909 0.9737 0.0
H1967 H 0.92803 0.11491 0.03742 0.0
H1968 H 0.85834 0.07828 0.05993 0.0
H1969 H 0.89266 0.108 0.06091 0.0
H1970 H 0.8919 0.11181 0.94895 0.0
H1971 H 0.85774 0.08196 0.94775 0.0
C1972 C 0.93977 0.16518 0.99137 0.0
C1973 C 0.95482 0.16438 0.01139 0.0
C1974 C 0.92037 0.14799 0.98841 0.0
C1975 C 0.91575 0.12984 0.00569 0.0
C1976 C 0.93111 0.12885 0.02445 0.0
C1977 C 0.95053 0.1459 0.02692 0.0
C1978 C 0.86547 0.08549 0.03555 0.0
C1979 C 0.85538 0.07774 0.00378 0.0
C1980 C 0.88512 0.1024 0.03611 0.0
C1981 C 0.89488 0.11208 0.00497 0.0
C1982 C 0.88465 0.10463 0.97328 0.0
C1983 C 0.86517 0.08751 0.97265 0.0
H1984 H 0.84775 0.81037 0.9801 0.0
H1985 H 0.822 0.76383 0.059 0.0
H1986 H 0.87758 0.80605 0.97643 0.0
H1987 H 0.85139 0.7589 0.05484 0.0
H1988 H 0.91675 0.77209 0.06736 0.0
H1989 H 0.88658 0.77569 0.06975 0.0
H1990 H 0.88898 0.78346 0.95811 0.0
H1991 H 0.91945 0.78059 0.95589 0.0
C1992 C 0.84838 0.79894 0.99612 0.0
C1993 C 0.83269 0.78734 0.01966 0.0
C1994 C 0.8654 0.79642 0.99408 0.0
C1995 C 0.86695 0.78216 0.01545 0.0
C1996 C 0.85091 0.77028 0.03848 0.0
C1997 C 0.83402 0.77294 0.04067 0.0
C1998 C 0.91082 0.77456 0.04335 0.0
C1999 C 0.92057 0.77613 0.01149 0.0
C2000 C 0.89344 0.7765 0.04466 0.0
C2001 C 0.88532 0.77988 0.0141 0.0
C2002 C 0.89499 0.78123 0.98223 0.0
C2003 C 0.91243 0.77947 0.98096 0.0
H2004 H 0.14117 0.2216 0.59377 0.0
H2005 H 0.14034 0.21719 0.48159 0.0
H2006 H 0.1068 0.21663 0.59292 0.0
H2007 H 0.10578 0.212 0.48093 0.0
H2008 H 0.03647 0.17857 0.5003 0.0
H2009 H 0.0708 0.1834 0.50408 0.0
H2010 H 0.08916 0.2361 0.56935 0.0
H2011 H 0.05485 0.23158 0.56465 0.0
C2012 C 0.13365 0.21956 0.56892 0.0
C2013 C 0.14342 0.21971 0.53771 0.0
C2014 C 0.11403 0.21682 0.5685 0.0
C2015 C 0.10367 0.21385 0.53691 0.0
C2016 C 0.11343 0.21409 0.50566 0.0
C2017 C 0.13321 0.21717 0.50602 0.0
C2018 C 0.04787 0.19117 0.51545 0.0
C2019 C 0.04325 0.20496 0.53163 0.0
C2020 C 0.06746 0.19395 0.51753 0.0
C2021 C 0.08264 0.21031 0.5365 0.0
C2022 C 0.07769 0.22341 0.55446 0.0
C2023 C 0.05812 0.22079 0.55192 0.0
H2024 H 0.80785 0.84954 0.56985 0.0
H2025 H 0.76177 0.82248 0.49039 0.0
H2026 H 0.80257 0.87881 0.57263 0.0
H2027 H 0.7559 0.85129 0.49366 0.0
H2028 H 0.76934 0.91653 0.47716 0.0
H2029 H 0.77276 0.88625 0.47723 0.0
H2030 H 0.77961 0.89026 0.58908 0.0
H2031 H 0.77689 0.92087 0.58887 0.0
C2032 C 0.79627 0.84972 0.55359 0.0
C2033 C 0.78516 0.83389 0.53001 0.0
C2034 C 0.79321 0.86642 0.55511 0.0
C2035 C 0.77889 0.86749 0.53317 0.0
C2036 C 0.76733 0.85119 0.51041 0.0
C2037 C 0.77052 0.83463 0.50873 0.0
C2038 C 0.77153 0.91091 0.50176 0.0
C2039 C 0.77293 0.92118 0.53296 0.0
C2040 C 0.77336 0.89347 0.50186 0.0
C2041 C 0.77646 0.88578 0.5332 0.0
C2042 C 0.77758 0.89592 0.56442 0.0
C2043 C 0.77591 0.91344 0.5643 0.0
H2044 H 0.14212 0.96132 0.50581 0.0
H2045 H 0.17946 0.94185 0.55936 0.0
H2046 H 0.11297 0.92671 0.50938 0.0
H2047 H 0.15003 0.90731 0.56416 0.0
H2048 H 0.0836 0.85484 0.59322 0.0
H2049 H 0.11313 0.88924 0.59244 0.0
H2050 H 0.10676 0.89212 0.48134 0.0
H2051 H 0.07741 0.85756 0.48186 0.0
C2052 C 0.14401 0.94961 0.51849 0.0
C2053 C 0.16305 0.95403 0.53164 0.0
C2054 C 0.12739 0.92989 0.52052 0.0
C2055 C 0.12941 0.91437 0.53656 0.0
C2056 C 0.14816 0.91905 0.55156 0.0
C2057 C 0.16491 0.93875 0.54895 0.0
C2058 C 0.08857 0.86277 0.56859 0.0
C2059 C 0.07817 0.85353 0.53758 0.0
C2060 C 0.10548 0.88239 0.56819 0.0
C2061 C 0.11206 0.89328 0.53689 0.0
C2062 C 0.10182 0.88403 0.50585 0.0
C2063 C 0.08514 0.86425 0.50613 0.0
H2064 H 0.78057 0.85837 0.98002 0.0
H2065 H 0.77377 0.858 0.0917 0.0
H2066 H 0.7854 0.89281 0.97775 0.0
H2067 H 0.77826 0.8922 0.08921 0.0
H2068 H 0.76339 0.94365 0.05583 0.0
H2069 H 0.75858 0.90926 0.06127 0.0
H2070 H 0.81392 0.92818 0.00319 0.0
H2071 H 0.81911 0.96266 0.99898 0.0
C2072 C 0.77994 0.86556 0.00398 0.0
C2073 C 0.77689 0.85555 0.03603 0.0
C2074 C 0.78281 0.88526 0.00271 0.0
C2075 C 0.78226 0.89509 0.03335 0.0
C2076 C 0.77869 0.8849 0.06525 0.0
C2077 C 0.77622 0.86539 0.06662 0.0
C2078 C 0.77465 0.94048 0.04478 0.0
C2079 C 0.79141 0.9556 0.02644 0.0
C2080 C 0.77187 0.92086 0.04774 0.0
C2081 C 0.7857 0.91607 0.03207 0.0
C2082 C 0.80284 0.93141 0.01485 0.0
C2083 C 0.80579 0.95107 0.01247 0.0
H2084 H 0.05778 0.82099 0.99461 0.0
H2085 H 0.03577 0.84866 0.06771 0.0
H2086 H 0.09195 0.85067 0.99826 0.0
H2087 H 0.06982 0.87868 0.07097 0.0
H2088 H 0.13705 0.92134 0.09219 0.0
H2089 H 0.10391 0.89059 0.091 0.0
H2090 H 0.10973 0.88567 0.98007 0.0
H2091 H 0.14329 0.91622 0.98139 0.0
C2092 C 0.06041 0.83344 0.0117 0.0
C2093 C 0.04439 0.83259 0.03123 0.0
C2094 C 0.07987 0.85049 0.01355 0.0
C2095 C 0.08362 0.86712 0.03474 0.0
C2096 C 0.06754 0.86603 0.05476 0.0
C2097 C 0.04808 0.84889 0.05301 0.0
C2098 C 0.13131 0.91372 0.06749 0.0
C2099 C 0.14284 0.92128 0.03683 0.0
C2100 C 0.11222 0.89612 0.06682 0.0
C2101 C 0.10411 0.88567 0.03547 0.0
C2102 C 0.11565 0.89318 0.00478 0.0
C2103 C 0.13484 0.91077 0.00547 0.0
H2104 H 0.15001 0.18896 0.06973 0.0
H2105 H 0.17644 0.23712 0.99371 0.0
H2106 H 0.11984 0.19276 0.07302 0.0
H2107 H 0.14674 0.24152 0.99752 0.0
H2108 H 0.08147 0.22705 0.98064 0.0
H2109 H 0.11197 0.22403 0.98004 0.0
H2110 H 0.10699 0.21431 0.09126 0.0
H2111 H 0.07615 0.21663 0.09168 0.0
C2112 C 0.14948 0.20067 0.05437 0.0
C2113 C 0.16543 0.21282 0.03161 0.0
C2114 C 0.13226 0.20288 0.05617 0.0
C2115 C 0.13076 0.21735 0.0353 0.0
C2116 C 0.14715 0.22994 0.0134 0.0
C2117 C 0.16425 0.2276 0.01144 0.0
C2118 C 0.08687 0.22424 0.00494 0.0
C2119 C 0.07633 0.22205 0.03616 0.0
C2120 C 0.10445 0.22265 0.00467 0.0
C2121 C 0.11202 0.21901 0.03565 0.0
C2122 C 0.10147 0.21684 0.06686 0.0
C2123 C 0.08381 0.21827 0.06709 0.0
H2124 H 0.96463 0.81537 0.4827 0.0
H2125 H 0.94079 0.76386 0.55208 0.0
H2126 H 0.93106 0.81254 0.47991 0.0
H2127 H 0.9071 0.76057 0.54888 0.0
H2128 H 0.85618 0.77495 0.56679 0.0
H2129 H 0.88974 0.77795 0.56848 0.0
H2130 H 0.89708 0.79149 0.45846 0.0
H2131 H 0.86395 0.78909 0.45694 0.0
C2132 C 0.95203 0.80318 0.4967 0.0
C2133 C 0.95506 0.78968 0.51726 0.0
C2134 C 0.93284 0.80155 0.49523 0.0
C2135 C 0.91638 0.78636 0.51431 0.0
C2136 C 0.91949 0.77265 0.53436 0.0
C2137 C 0.93867 0.77437 0.53593 0.0
C2138 C 0.86499 0.77862 0.54301 0.0
C2139 C 0.85736 0.7818 0.51177 0.0
C2140 C 0.88417 0.78021 0.5439 0.0
C2141 C 0.89609 0.78491 0.51355 0.0
C2142 C 0.88846 0.78814 0.4824 0.0
C2143 C 0.86937 0.78666 0.48153 0.0
H2144 H 0.18946 0.15052 0.47967 0.0
H2145 H 0.23656 0.17612 0.55765 0.0
H2146 H 0.19342 0.12049 0.47579 0.0
H2147 H 0.24108 0.14649 0.55333 0.0
H2148 H 0.22682 0.0808 0.56647 0.0
H2149 H 0.22377 0.11128 0.5687 0.0
H2150 H 0.2157 0.10867 0.45712 0.0
H2151 H 0.21807 0.07789 0.45505 0.0
C2152 C 0.20094 0.14982 0.49543 0.0
C2153 C 0.21279 0.16553 0.51879 0.0
C2154 C 0.20324 0.13268 0.49327 0.0
C2155 C 0.21753 0.13101 0.51437 0.0
C2156 C 0.22969 0.14707 0.53718 0.0
C2157 C 0.22726 0.1641 0.53947 0.0
C2158 C 0.22441 0.08674 0.54243 0.0
C2159 C 0.22262 0.07685 0.51063 0.0
C2160 C 0.22278 0.1043 0.54365 0.0
C2161 C 0.2195 0.11247 0.51306 0.0
C2162 C 0.2179 0.10264 0.48125 0.0
C2163 C 0.21936 0.08502 0.48006 0.0
H2164 H 0.9212 0.13619 0.55717 0.0
H2165 H 0.91918 0.1398 0.44514 0.0
H2166 H 0.89162 0.10184 0.55541 0.0
H2167 H 0.88937 0.10555 0.44362 0.0
H2168 H 0.82067 0.0551 0.47368 0.0
H2169 H 0.85151 0.08867 0.46862 0.0
H2170 H 0.88502 0.0669 0.52824 0.0
H2171 H 0.85446 0.03327 0.5322 0.0
C2172 C 0.9144 0.1297 0.53224 0.0
C2173 C 0.92253 0.14066 0.50131 0.0
C2174 C 0.89758 0.11003 0.53122 0.0
C2175 C 0.88835 0.10111 0.49935 0.0
C2176 C 0.89624 0.11215 0.46848 0.0
C2177 C 0.91331 0.13167 0.4694 0.0
C2178 C 0.83477 0.05744 0.48496 0.0
C2179 C 0.83521 0.04186 0.50394 0.0
C2180 C 0.85233 0.07658 0.48219 0.0
C2181 C 0.87045 0.08037 0.49862 0.0
C2182 C 0.87111 0.06442 0.51592 0.0
C2183 C 0.85369 0.04525 0.51817 0.0
H2184 H 0.88817 0.47343 0.28376 0.0
H2185 H 0.88209 0.47149 0.39571 0.0
H2186 H 0.88394 0.43926 0.28431 0.0
H2187 H 0.8775 0.43717 0.39601 0.0
H2188 H 0.84483 0.36792 0.37377 0.0
H2189 H 0.84891 0.40196 0.36936 0.0
H2190 H 0.90454 0.42239 0.31134 0.0
H2191 H 0.90084 0.38843 0.31697 0.0
C2192 C 0.88591 0.4657 0.30846 0.0
C2193 C 0.88542 0.4751 0.33972 0.0
C2194 C 0.88358 0.44622 0.30871 0.0
C2195 C 0.8803 0.43564 0.34014 0.0
C2196 C 0.87985 0.44501 0.37141 0.0
C2197 C 0.88259 0.46465 0.37125 0.0
C2198 C 0.85794 0.37973 0.36016 0.0
C2199 C 0.87279 0.3758 0.34643 0.0
C2200 C 0.86026 0.39912 0.35763 0.0
C2201 C 0.87719 0.41479 0.34051 0.0
C2202 C 0.89139 0.41053 0.32479 0.0
C2203 C 0.88925 0.39117 0.32788 0.0
H2204 H 0.52417 0.41447 0.28477 0.0
H2205 H 0.5238 0.41048 0.39698 0.0
H2206 H 0.55808 0.44469 0.28686 0.0
H2207 H 0.55782 0.44056 0.39886 0.0
H2208 H 0.62732 0.47821 0.38179 0.0
H2209 H 0.59349 0.4481 0.3767 0.0
H2210 H 0.57427 0.48186 0.31182 0.0
H2211 H 0.60806 0.51229 0.31793 0.0
C2212 C 0.53133 0.42002 0.30986 0.0
C2213 C 0.52134 0.41006 0.34074 0.0
C2214 C 0.55066 0.43735 0.311 0.0
C2215 C 0.56052 0.44484 0.34297 0.0
C2216 C 0.55056 0.43494 0.37384 0.0
C2217 C 0.53108 0.41782 0.37277 0.0
C2218 C 0.61582 0.47919 0.36658 0.0
C2219 C 0.62007 0.49761 0.35084 0.0
C2220 C 0.59652 0.46201 0.36366 0.0
C2221 C 0.58125 0.46279 0.34429 0.0
C2222 C 0.58581 0.48091 0.32696 0.0
C2223 C 0.60508 0.49825 0.33036 0.0
H2224 H 0.58238 0.10228 0.39553 0.0
H2225 H 0.58905 0.1161 0.28555 0.0
H2226 H 0.55182 0.10528 0.39671 0.0
H2227 H 0.5583 0.11851 0.28657 0.0
H2228 H 0.51612 0.14431 0.31127 0.0
H2229 H 0.54612 0.14025 0.30788 0.0
H2230 H 0.51705 0.08846 0.37709 0.0
H2231 H 0.48738 0.09298 0.38087 0.0
C2232 C 0.57728 0.10583 0.37159 0.0
C2233 C 0.58822 0.10902 0.34051 0.0
C2234 C 0.55968 0.10742 0.37219 0.0
C2235 C 0.55259 0.11213 0.3417 0.0
C2236 C 0.56349 0.11517 0.31062 0.0
C2237 C 0.5811 0.11369 0.31005 0.0
C2238 C 0.51611 0.13187 0.32514 0.0
C2239 C 0.49952 0.11881 0.346 0.0
C2240 C 0.53324 0.12953 0.32332 0.0
C2241 C 0.53403 0.11407 0.34235 0.0
C2242 C 0.5171 0.10073 0.36258 0.0
C2243 C 0.50005 0.10315 0.36448 0.0
H2244 H 0.72594 0.5722 0.82889 0.0
H2245 H 0.70467 0.52376 0.90433 0.0
H2246 H 0.76012 0.57673 0.83207 0.0
H2247 H 0.73873 0.52776 0.90705 0.0
H2248 H 0.80612 0.55149 0.92495 0.0
H2249 H 0.77317 0.5496 0.92514 0.0
H2250 H 0.77742 0.55921 0.8139 0.0
H2251 H 0.81075 0.56175 0.81386 0.0
C2252 C 0.72873 0.56264 0.84636 0.0
C2253 C 0.71287 0.54772 0.86651 0.0
C2254 C 0.74821 0.56507 0.84796 0.0
C2255 C 0.75216 0.55249 0.86956 0.0
C2256 C 0.7363 0.53788 0.89044 0.0
C2257 C 0.71682 0.53556 0.88896 0.0
C2258 C 0.80006 0.55323 0.90049 0.0
C2259 C 0.81109 0.55675 0.86934 0.0
C2260 C 0.78109 0.55204 0.90061 0.0
C2261 C 0.77259 0.55422 0.86956 0.0
C2262 C 0.78364 0.55779 0.8384 0.0
C2263 C 0.80271 0.55912 0.83831 0.0
H2264 H 0.4382 0.25124 0.81422 0.0
H2265 H 0.45446 0.25895 0.92323 0.0
H2266 H 0.44066 0.22039 0.81286 0.0
H2267 H 0.45635 0.2279 0.92203 0.0
H2268 H 0.47927 0.18342 0.89592 0.0
H2269 H 0.47667 0.21427 0.89936 0.0
H2270 H 0.42313 0.18589 0.83396 0.0
H2271 H 0.42617 0.15536 0.83011 0.0
C2272 C 0.44224 0.24634 0.8379 0.0
C2273 C 0.44614 0.2576 0.8688 0.0
C2274 C 0.4435 0.22857 0.8372 0.0
C2275 C 0.44861 0.22161 0.8674 0.0
C2276 C 0.45263 0.23295 0.89821 0.0
C2277 C 0.45145 0.25073 0.89889 0.0
C2278 C 0.46677 0.18376 0.88292 0.0
C2279 C 0.45277 0.16709 0.86311 0.0
C2280 C 0.46527 0.20138 0.88476 0.0
C2281 C 0.44974 0.2026 0.86676 0.0
C2282 C 0.43547 0.18561 0.84762 0.0
C2283 C 0.43704 0.16807 0.84571 0.0
H2284 H 0.7481 0.18845 0.81201 0.0
H2285 H 0.74102 0.19489 0.9221 0.0
H2286 H 0.77838 0.22222 0.81133 0.0
H2287 H 0.77148 0.22826 0.92157 0.0
H2288 H 0.81367 0.29642 0.89849 0.0
H2289 H 0.78363 0.26233 0.90095 0.0
H2290 H 0.81305 0.24019 0.83131 0.0
H2291 H 0.84274 0.27437 0.82848 0.0
C2292 C 0.75305 0.19699 0.83607 0.0
C2293 C 0.74209 0.18895 0.86705 0.0
C2294 C 0.77048 0.21631 0.83576 0.0
C2295 C 0.77739 0.22796 0.86644 0.0
C2296 C 0.76644 0.21986 0.89738 0.0
C2297 C 0.749 0.20063 0.89768 0.0
C2298 C 0.81373 0.28411 0.88428 0.0
C2299 C 0.83043 0.28781 0.86357 0.0
C2300 C 0.79657 0.26462 0.88557 0.0
C2301 C 0.79588 0.24852 0.86616 0.0
C2302 C 0.81291 0.25229 0.84607 0.0
C2303 C 0.82997 0.27176 0.84469 0.0
H2304 H 0.45135 0.19422 0.42309 0.0
H2305 H 0.43993 0.18777 0.31234 0.0
H2306 H 0.45366 0.22736 0.42168 0.0
H2307 H 0.44293 0.22128 0.31074 0.0
H2308 H 0.42951 0.27268 0.32399 0.0
H2309 H 0.42554 0.23875 0.32805 0.0
H2310 H 0.47501 0.2615 0.40225 0.0
H2311 H 0.4784 0.29528 0.39871 0.0
C2312 C 0.44949 0.19994 0.39835 0.0
C2313 C 0.44544 0.18831 0.3678 0.0
C2314 C 0.45092 0.21902 0.39754 0.0
C2315 C 0.44847 0.22703 0.36613 0.0
C2316 C 0.44454 0.21545 0.33552 0.0
C2317 C 0.44296 0.19627 0.33637 0.0
C2318 C 0.43932 0.27025 0.34144 0.0
C2319 C 0.45415 0.28639 0.36123 0.0
C2320 C 0.43721 0.25092 0.34355 0.0
C2321 C 0.45007 0.24739 0.36525 0.0
C2322 C 0.46467 0.26358 0.3856 0.0
C2323 C 0.46665 0.28291 0.38364 0.0
H2324 H 0.70281 0.18205 0.3982 0.0
H2325 H 0.72578 0.15387 0.32809 0.0
H2326 H 0.73683 0.21209 0.40216 0.0
H2327 H 0.7599 0.18355 0.33247 0.0
H2328 H 0.81145 0.24873 0.31514 0.0
H2329 H 0.77783 0.21833 0.31346 0.0
H2330 H 0.77075 0.22432 0.42366 0.0
H2331 H 0.80402 0.25496 0.42518 0.0
C2332 C 0.71531 0.18218 0.38432 0.0
C2333 C 0.7119 0.16573 0.36316 0.0
C2334 C 0.73476 0.19933 0.38649 0.0
C2335 C 0.7511 0.20028 0.36749 0.0
C2336 C 0.74762 0.18349 0.34695 0.0
C2337 C 0.72819 0.16644 0.34469 0.0
C2338 C 0.80272 0.24356 0.339 0.0
C2339 C 0.81043 0.25432 0.37025 0.0
C2340 C 0.78349 0.22605 0.3381 0.0
C2341 C 0.77159 0.21884 0.36847 0.0
C2342 C 0.77936 0.22959 0.39971 0.0
C2343 C 0.79852 0.24713 0.40058 0.0
H2344 H 0.7405 0.54803 0.31918 0.0
H2345 H 0.74452 0.5529 0.43128 0.0
H2346 H 0.76953 0.54235 0.31831 0.0
H2347 H 0.77376 0.54756 0.43018 0.0
H2348 H 0.8413 0.56426 0.39742 0.0
H2349 H 0.81113 0.568 0.40383 0.0
H2350 H 0.77603 0.51349 0.34303 0.0
H2351 H 0.80593 0.50935 0.33781 0.0
C2352 C 0.74761 0.54796 0.34358 0.0
C2353 C 0.74021 0.55087 0.37529 0.0
C2354 C 0.76412 0.5446 0.34308 0.0
C2355 C 0.77377 0.54447 0.37421 0.0
C2356 C 0.76658 0.54764 0.40587 0.0
C2357 C 0.74981 0.5506 0.40644 0.0
C2358 C 0.82701 0.55291 0.38606 0.0
C2359 C 0.82595 0.53677 0.36653 0.0
C2360 C 0.80983 0.55506 0.38962 0.0
C2361 C 0.79142 0.5412 0.37341 0.0
C2362 C 0.79016 0.52457 0.35521 0.0
C2363 C 0.80722 0.52223 0.3522 0.0
H2364 H 0.51962 0.10516 0.89474 0.0
H2365 H 0.52635 0.11891 0.78475 0.0
H2366 H 0.55322 0.10833 0.89557 0.0
H2367 H 0.55961 0.12148 0.7854 0.0
H2368 H 0.62769 0.14662 0.8095 0.0
H2369 H 0.59374 0.14288 0.8062 0.0
H2370 H 0.57076 0.09126 0.87583 0.0
H2371 H 0.60482 0.09548 0.87957 0.0
C2372 C 0.5282 0.10875 0.87071 0.0
C2373 C 0.52028 0.11181 0.83972 0.0
C2374 C 0.54742 0.11043 0.87112 0.0
C2375 C 0.5591 0.11509 0.8405 0.0
C2376 C 0.55116 0.11814 0.80954 0.0
C2377 C 0.53201 0.11657 0.80916 0.0
C2378 C 0.61522 0.13429 0.82349 0.0
C2379 C 0.61864 0.1212 0.84449 0.0
C2380 C 0.59581 0.13213 0.82172 0.0
C2381 C 0.57952 0.11683 0.84094 0.0
C2382 C 0.583 0.10343 0.86122 0.0
C2383 C 0.6024 0.10568 0.8631 0.0
H2384 H 0.89298 0.41599 0.78329 0.0
H2385 H 0.88441 0.41137 0.89478 0.0
H2386 H 0.88772 0.44529 0.78249 0.0
H2387 H 0.87885 0.44048 0.89373 0.0
H2388 H 0.84461 0.4749 0.86866 0.0
H2389 H 0.85012 0.44579 0.86521 0.0
H2390 H 0.90618 0.48263 0.8092 0.0
H2391 H 0.90098 0.51202 0.81377 0.0
C2392 C 0.89002 0.42126 0.80761 0.0
C2393 C 0.88906 0.41136 0.83912 0.0
C2394 C 0.88709 0.43803 0.8071 0.0
C2395 C 0.88274 0.44496 0.83798 0.0
C2396 C 0.88199 0.43525 0.86953 0.0
C2397 C 0.88531 0.41871 0.87014 0.0
C2398 C 0.85808 0.47672 0.85559 0.0
C2399 C 0.87262 0.49571 0.84216 0.0
C2400 C 0.86123 0.46013 0.85366 0.0
C2401 C 0.87873 0.46213 0.83747 0.0
C2402 C 0.89261 0.48077 0.82194 0.0
C2403 C 0.88961 0.4975 0.82441 0.0
H2404 H 0.58847 0.47418 0.78825 0.0
H2405 H 0.58359 0.47883 0.89955 0.0
H2406 H 0.55742 0.44118 0.78853 0.0
H2407 H 0.55283 0.44551 0.89994 0.0
H2408 H 0.48804 0.39461 0.88594 0.0
H2409 H 0.51788 0.42865 0.88223 0.0
H2410 H 0.54467 0.40663 0.80683 0.0
H2411 H 0.51444 0.37271 0.81012 0.0
C2412 C 0.58086 0.46811 0.81285 0.0
C2413 C 0.58854 0.47918 0.84391 0.0
C2414 C 0.56308 0.44912 0.81299 0.0
C2415 C 0.55259 0.44068 0.84422 0.0
C2416 C 0.56032 0.45171 0.87531 0.0
C2417 C 0.57805 0.47077 0.87514 0.0
C2418 C 0.50025 0.39723 0.86826 0.0
C2419 C 0.49904 0.38124 0.84814 0.0
C2420 C 0.5174 0.41662 0.86635 0.0
C2421 C 0.53378 0.42036 0.84449 0.0
C2422 C 0.53225 0.40437 0.82365 0.0
C2423 C 0.51499 0.38497 0.82544 0.0
H2424 H 0.55807 0.809 0.72818 0.0
H2425 H 0.54226 0.80124 0.61898 0.0
H2426 H 0.55511 0.7755 0.72911 0.0
H2427 H 0.53986 0.76804 0.61974 0.0
H2428 H 0.51613 0.70028 0.64537 0.0
H2429 H 0.51919 0.73395 0.64192 0.0
H2430 H 0.57247 0.75844 0.7079 0.0
H2431 H 0.56896 0.72468 0.71178 0.0
C2432 C 0.55403 0.8002 0.70436 0.0
C2433 C 0.55041 0.80783 0.67353 0.0
C2434 C 0.55247 0.78104 0.70482 0.0
C2435 C 0.54737 0.76912 0.67443 0.0
C2436 C 0.5436 0.77671 0.64369 0.0
C2437 C 0.54507 0.79581 0.64326 0.0
C2438 C 0.52867 0.71302 0.65851 0.0
C2439 C 0.54243 0.71011 0.67855 0.0
C2440 C 0.53043 0.73226 0.65665 0.0
C2441 C 0.546 0.74888 0.67486 0.0
C2442 C 0.56008 0.74592 0.69411 0.0
C2443 C 0.55824 0.7267 0.69606 0.0
H2444 H 0.29371 0.81451 0.6446 0.0
H2445 H 0.27204 0.84212 0.71845 0.0
H2446 H 0.25962 0.78447 0.64164 0.0
H2447 H 0.23787 0.81248 0.71508 0.0
H2448 H 0.18683 0.74739 0.73345 0.0
H2449 H 0.22049 0.77771 0.73372 0.0
H2450 H 0.22517 0.77202 0.62268 0.0
H2451 H 0.19181 0.74141 0.62254 0.0
C2452 C 0.28147 0.81427 0.65954 0.0
C2453 C 0.28529 0.83053 0.68154 0.0
C2454 C 0.26198 0.79711 0.65795 0.0
C2455 C 0.24601 0.79599 0.67833 0.0
C2456 C 0.24987 0.81264 0.69957 0.0
C2457 C 0.26934 0.82968 0.70126 0.0
C2458 C 0.19504 0.7526 0.7091 0.0
C2459 C 0.18661 0.74194 0.67801 0.0
C2460 C 0.2143 0.77007 0.70919 0.0
C2461 C 0.22553 0.77737 0.67817 0.0
C2462 C 0.21708 0.76669 0.6471 0.0
C2463 C 0.19788 0.74917 0.64703 0.0
H2464 H 0.25192 0.44773 0.61573 0.0
H2465 H 0.25421 0.45124 0.72802 0.0
H2466 H 0.22226 0.45236 0.61586 0.0
H2467 H 0.2247 0.45623 0.72792 0.0
H2468 H 0.18747 0.48838 0.70709 0.0
H2469 H 0.21786 0.48499 0.70316 0.0
H2470 H 0.18458 0.43096 0.64043 0.0
H2471 H 0.1539 0.43393 0.64553 0.0
C2472 C 0.24615 0.44958 0.64042 0.0
C2473 C 0.2554 0.44915 0.6719 0.0
C2474 C 0.22915 0.45214 0.64043 0.0
C2475 C 0.22132 0.45472 0.67185 0.0
C2476 C 0.2306 0.45443 0.70333 0.0
C2477 C 0.24738 0.45147 0.70339 0.0
C2478 C 0.1867 0.47579 0.69248 0.0
C2479 C 0.16832 0.46115 0.67725 0.0
C2480 C 0.20402 0.47386 0.69026 0.0
C2481 C 0.2034 0.45756 0.67196 0.0
C2482 C 0.18538 0.44364 0.65478 0.0
C2483 C 0.16791 0.44537 0.65755 0.0
H2484 H 0.47009 0.8799 0.14951 0.0
H2485 H 0.47269 0.88567 0.26153 0.0
H2486 H 0.43572 0.87519 0.15011 0.0
H2487 H 0.43849 0.88133 0.26188 0.0
H2488 H 0.38835 0.89946 0.23089 0.0
H2489 H 0.42199 0.90239 0.23593 0.0
H2490 H 0.40042 0.84697 0.1768 0.0
H2491 H 0.36667 0.84364 0.17297 0.0
C2492 C 0.46337 0.88024 0.17419 0.0
C2493 C 0.47405 0.8831 0.20546 0.0
C2494 C 0.4437 0.87744 0.17454 0.0
C2495 C 0.43453 0.87785 0.20607 0.0
C2496 C 0.44528 0.881 0.23727 0.0
C2497 C 0.46479 0.88339 0.23701 0.0
C2498 C 0.39075 0.88773 0.21965 0.0
C2499 C 0.37515 0.87156 0.20094 0.0
C2500 C 0.40994 0.88943 0.2224 0.0
C2501 C 0.4138 0.87509 0.2062 0.0
C2502 C 0.39789 0.85842 0.18894 0.0
C2503 C 0.37866 0.85654 0.18674 0.0
H2504 H 0.1174 0.59187 0.15289 0.0
H2505 H 0.11168 0.58739 0.26487 0.0
H2506 H 0.12264 0.56253 0.15209 0.0
H2507 H 0.11655 0.55787 0.26382 0.0
H2508 H 0.09946 0.4903 0.23085 0.0
H2509 H 0.0959 0.52061 0.23682 0.0
H2510 H 0.15121 0.55564 0.17792 0.0
H2511 H 0.15516 0.52561 0.17317 0.0
C2512 C 0.11719 0.58459 0.17726 0.0
C2513 C 0.11419 0.59196 0.20893 0.0
C2514 C 0.12029 0.5679 0.17681 0.0
C2515 C 0.12004 0.55805 0.20793 0.0
C2516 C 0.11676 0.56521 0.23952 0.0
C2517 C 0.11407 0.58213 0.24006 0.0
C2518 C 0.11102 0.5046 0.21982 0.0
C2519 C 0.12735 0.50562 0.20095 0.0
C2520 C 0.10896 0.52186 0.22311 0.0
C2521 C 0.12311 0.54028 0.20726 0.0
C2522 C 0.13991 0.54149 0.18977 0.0
C2523 C 0.14215 0.52436 0.18706 0.0
H2524 H 0.41184 0.52129 0.26264 0.0
H2525 H 0.40933 0.52341 0.15045 0.0
H2526 H 0.44129 0.5558 0.26294 0.0
H2527 H 0.43855 0.55789 0.15097 0.0
H2528 H 0.47472 0.62656 0.16968 0.0
H2529 H 0.44478 0.59261 0.17462 0.0
H2530 H 0.47883 0.57365 0.23936 0.0
H2531 H 0.50906 0.6076 0.23353 0.0
C2532 C 0.41754 0.52911 0.23808 0.0
C2533 C 0.40824 0.51963 0.2065 0.0
C2534 C 0.43442 0.5488 0.23831 0.0
C2535 C 0.44205 0.55949 0.20702 0.0
C2536 C 0.43279 0.55003 0.17548 0.0
C2537 C 0.41616 0.53025 0.17519 0.0
C2538 C 0.47577 0.61511 0.18497 0.0
C2539 C 0.49424 0.61945 0.20058 0.0
C2540 C 0.45869 0.59575 0.1878 0.0
C2541 C 0.45964 0.58048 0.20692 0.0
C2542 C 0.47775 0.58518 0.22442 0.0
C2543 C 0.49497 0.60455 0.22117 0.0
H2544 H 0.0913 0.60514 0.66482 0.0
H2545 H 0.14034 0.62553 0.73892 0.0
H2546 H 0.08562 0.57053 0.66846 0.0
H2547 H 0.13512 0.591 0.74218 0.0
H2548 H 0.1097 0.5233 0.76055 0.0
H2549 H 0.11231 0.55661 0.76093 0.0
H2550 H 0.10258 0.55263 0.64974 0.0
H2551 H 0.0994 0.51905 0.64947 0.0
C2552 C 0.10074 0.60207 0.68211 0.0
C2553 C 0.11616 0.61781 0.70173 0.0
C2554 C 0.09763 0.58234 0.684 0.0
C2555 C 0.11003 0.578 0.70537 0.0
C2556 C 0.12514 0.59375 0.72577 0.0
C2557 C 0.12816 0.61349 0.72397 0.0
C2558 C 0.10804 0.52948 0.73617 0.0
C2559 C 0.10436 0.51849 0.70494 0.0
C2560 C 0.10964 0.54865 0.73639 0.0
C2561 C 0.10768 0.55733 0.70539 0.0
C2562 C 0.10385 0.54627 0.6742 0.0
C2563 C 0.10215 0.52705 0.67399 0.0
H2564 H 0.36949 0.5158 0.73364 0.0
H2565 H 0.39146 0.48679 0.66334 0.0
H2566 H 0.40386 0.54527 0.73795 0.0
H2567 H 0.42593 0.51591 0.66804 0.0
H2568 H 0.47749 0.58101 0.64918 0.0
H2569 H 0.4439 0.55065 0.64853 0.0
H2570 H 0.43796 0.55715 0.75893 0.0
H2571 H 0.4713 0.58781 0.75946 0.0
C2572 C 0.38184 0.5156 0.71982 0.0
C2573 C 0.37804 0.49912 0.6984 0.0
C2574 C 0.40149 0.53242 0.7222 0.0
C2575 C 0.41764 0.53301 0.70314 0.0
C2576 C 0.41379 0.51612 0.68255 0.0
C2577 C 0.39416 0.49939 0.68009 0.0
C2578 C 0.46904 0.57596 0.67333 0.0
C2579 C 0.47709 0.5869 0.70433 0.0
C2580 C 0.44982 0.55846 0.67302 0.0
C2581 C 0.43824 0.55142 0.70372 0.0
C2582 C 0.44635 0.56229 0.73475 0.0
C2583 C 0.46553 0.57983 0.73505 0.0
H2584 H 0.4755 0.84732 0.66808 0.0
H2585 H 0.51128 0.9027 0.72635 0.0
H2586 H 0.44596 0.85211 0.67178 0.0
H2587 H 0.48141 0.90712 0.73121 0.0
H2588 H 0.41398 0.89064 0.75924 0.0
H2589 H 0.4441 0.88678 0.7579 0.0
H2590 H 0.43936 0.88073 0.64616 0.0
H2591 H 0.40937 0.88493 0.64727 0.0
C2592 C 0.47696 0.86047 0.68182 0.0
C2593 C 0.49568 0.87487 0.69635 0.0
C2594 C 0.46012 0.8632 0.6839 0.0
C2595 C 0.46157 0.88013 0.70131 0.0
C2596 C 0.47998 0.89398 0.71754 0.0
C2597 C 0.49698 0.89142 0.71491 0.0
C2598 C 0.41941 0.88857 0.73435 0.0
C2599 C 0.40928 0.888 0.70333 0.0
C2600 C 0.43668 0.88647 0.73364 0.0
C2601 C 0.44391 0.88337 0.70198 0.0
C2602 C 0.43393 0.88296 0.67093 0.0
C2603 C 0.41687 0.88545 0.67155 0.0
H2604 H 0.29458 0.48288 0.21437 0.0
H2605 H 0.2759 0.43217 0.14422 0.0
H2606 H 0.26068 0.47914 0.21064 0.0
H2607 H 0.24207 0.42878 0.13959 0.0
H2608 H 0.19138 0.4456 0.11792 0.0
H2609 H 0.22543 0.44968 0.11863 0.0
H2610 H 0.22516 0.45058 0.23091 0.0
H2611 H 0.19099 0.4463 0.23037 0.0
C2612 C 0.2832 0.47099 0.19803 0.0
C2613 C 0.28763 0.45754 0.18012 0.0
C2614 C 0.26386 0.46885 0.19593 0.0
C2615 C 0.24873 0.45349 0.17526 0.0
C2616 C 0.2535 0.44074 0.15576 0.0
C2617 C 0.27281 0.44271 0.15828 0.0
C2618 C 0.19856 0.44662 0.14278 0.0
C2619 C 0.18852 0.44568 0.17412 0.0
C2620 C 0.21799 0.44887 0.14313 0.0
C2621 C 0.22791 0.45054 0.17479 0.0
C2622 C 0.21788 0.44952 0.20613 0.0
C2623 C 0.1983 0.44695 0.20582 0.0
H2624 H 0.54862 0.74124 0.22889 0.0
H2625 H 0.55243 0.74368 0.11663 0.0
H2626 H 0.54405 0.77098 0.22885 0.0
H2627 H 0.54821 0.77361 0.11681 0.0
H2628 H 0.566 0.84188 0.14671 0.0
H2629 H 0.56935 0.81138 0.14154 0.0
H2630 H 0.51538 0.77766 0.20423 0.0
H2631 H 0.51165 0.80782 0.20829 0.0
C2632 C 0.54857 0.74816 0.20426 0.0
C2633 C 0.55081 0.74008 0.17278 0.0
C2634 C 0.54586 0.76509 0.20424 0.0
C2635 C 0.54573 0.77448 0.1728 0.0
C2636 C 0.54831 0.76665 0.14136 0.0
C2637 C 0.55063 0.74949 0.14132 0.0
C2638 C 0.55469 0.82781 0.15876 0.0
C2639 C 0.53879 0.8272 0.17841 0.0
C2640 C 0.55662 0.81045 0.15592 0.0
C2641 C 0.5428 0.79234 0.17301 0.0
C2642 C 0.52643 0.79156 0.19137 0.0
C2643 C 0.52432 0.80876 0.19368 0.0
H2644 H 0.2489 0.81366 0.23329 0.0
H2645 H 0.25313 0.80653 0.12254 0.0
H2646 H 0.21818 0.78033 0.23558 0.0
H2647 H 0.22213 0.77354 0.12468 0.0
H2648 H 0.18018 0.70562 0.14998 0.0
H2649 H 0.21013 0.73961 0.14531 0.0
H2650 H 0.18308 0.76244 0.21867 0.0
H2651 H 0.15348 0.72829 0.22377 0.0
C2652 C 0.2432 0.80507 0.2094 0.0
C2653 C 0.25353 0.81275 0.17778 0.0
C2654 C 0.2255 0.786 0.21065 0.0
C2655 C 0.21766 0.77423 0.18029 0.0
C2656 C 0.2279 0.78204 0.14864 0.0
C2657 C 0.24564 0.80103 0.14741 0.0
C2658 C 0.18062 0.71805 0.1646 0.0
C2659 C 0.16463 0.71453 0.18705 0.0
C2660 C 0.19771 0.73749 0.16199 0.0
C2661 C 0.19907 0.75377 0.18175 0.0
C2662 C 0.18272 0.75021 0.20357 0.0
C2663 C 0.16571 0.73075 0.20629 0.0
H2664 H 0.23739 0.21227 0.68536 0.0
H2665 H 0.18133 0.21408 0.68866 0.0
H2666 H 0.23665 0.20926 0.74889 0.0
H2667 H 0.18095 0.21155 0.75209 0.0
H2668 H 0.21086 0.23767 0.86365 0.0
H2669 H 0.20836 0.23762 0.80008 0.0
H2670 H 0.20973 0.18146 0.79553 0.0
H2671 H 0.21175 0.18116 0.85898 0.0
C2672 C 0.22491 0.21195 0.69964 0.0
C2673 C 0.20943 0.21339 0.68221 0.0
C2674 C 0.22447 0.21017 0.73582 0.0
C2675 C 0.20876 0.21025 0.75503 0.0
C2676 C 0.19321 0.21154 0.73765 0.0
C2677 C 0.19342 0.21288 0.70147 0.0
C2678 C 0.21041 0.22522 0.84906 0.0
C2679 C 0.2115 0.20943 0.86613 0.0
C2680 C 0.20893 0.22518 0.81286 0.0
C2681 C 0.20895 0.20957 0.79326 0.0
C2682 C 0.20979 0.19367 0.81028 0.0
C2683 C 0.21083 0.19347 0.84648 0.0
H2684 H 0.76157 0.97671 0.85589 0.0
H2685 H 0.81973 0.03238 0.85211 0.0
H2686 H 0.76236 0.97364 0.79253 0.0
H2687 H 0.82012 0.02953 0.78864 0.0
H2688 H 0.78567 0.0254 0.67853 0.0
H2689 H 0.79017 0.02854 0.7418 0.0
H2690 H 0.79061 0.9719 0.74503 0.0
H2691 H 0.78673 0.96897 0.68167 0.0
C2692 C 0.77455 0.98818 0.84153 0.0
C2693 C 0.79057 0.00478 0.85876 0.0
C2694 C 0.77502 0.98637 0.80546 0.0
C2695 C 0.7913 0.00138 0.7861 0.0
C2696 C 0.80746 0.01781 0.80326 0.0
C2697 C 0.80724 0.01937 0.83943 0.0
C2698 C 0.78703 0.01379 0.69272 0.0
C2699 C 0.78584 0.99695 0.67534 0.0
C2700 C 0.78966 0.01563 0.72873 0.0
C2701 C 0.79069 0.00043 0.74789 0.0
C2702 C 0.78986 0.98377 0.73056 0.0
C2703 C 0.78772 0.98217 0.69445 0.0
H2704 H 0.03234 0.81763 0.68899 0.0
H2705 H 0.97385 0.76236 0.68478 0.0
H2706 H 0.02947 0.81837 0.7523 0.0
H2707 H 0.97086 0.76344 0.74808 0.0
H2708 H 0.96674 0.78665 0.85833 0.0
H2709 H 0.9697 0.78947 0.79493 0.0
H2710 H 0.02754 0.79152 0.80052 0.0
H2711 H 0.02444 0.78825 0.8639 0.0
C2712 C 0.01876 0.80582 0.70154 0.0
C2713 C 0.00333 0.78988 0.68206 0.0
C2714 C 0.01719 0.80623 0.73768 0.0
C2715 C -3e-05 0.79097 0.7548 0.0
C2716 C 0.98422 0.77542 0.73529 0.0
C2717 C 0.98598 0.77477 0.6992 0.0
C2718 C 0.98019 0.78792 0.84606 0.0
C2719 C 0.99535 0.78717 0.86595 0.0
C2720 C 0.9818 0.78943 0.80987 0.0
C2721 C -0.00119 0.79067 0.7931 0.0
C2722 C 0.01433 0.79068 0.81302 0.0
C2723 C 0.01252 0.78874 0.84916 0.0
H2724 H 0.76319 0.78967 0.3646 0.0
H2725 H 0.8199 0.78925 0.35876 0.0
H2726 H 0.76309 0.7926 0.30114 0.0
H2727 H 0.81947 0.79171 0.29535 0.0
H2728 H 0.78819 0.76421 0.1853 0.0
H2729 H 0.79192 0.76506 0.24868 0.0
H2730 H 0.7884 0.82007 0.25308 0.0
H2731 H 0.78513 0.81958 0.18973 0.0
C2732 C 0.77565 0.79032 0.34977 0.0
C2733 C 0.79153 0.78922 0.36649 0.0
C2734 C 0.77562 0.79206 0.31362 0.0
C2735 C 0.79125 0.7923 0.29368 0.0
C2736 C 0.80725 0.79146 0.31035 0.0
C2737 C 0.80752 0.79016 0.34653 0.0
C2738 C 0.78841 0.77657 0.1998 0.0
C2739 C 0.78636 0.79181 0.18272 0.0
C2740 C 0.79062 0.77709 0.2359 0.0
C2741 C 0.79038 0.7926 0.25544 0.0
C2742 C 0.78855 0.80795 0.2384 0.0
C2743 C 0.78678 0.80768 0.20225 0.0
H2744 H 0.21393 0.97623 0.36024 0.0
H2745 H 0.21058 0.03147 0.35838 0.0
H2746 H 0.20969 0.97345 0.29697 0.0
H2747 H 0.20689 0.02889 0.29498 0.0
H2748 H 0.23422 0.02646 0.18233 0.0
H2749 H 0.23404 0.02942 0.24581 0.0
H2750 H 0.17995 0.97023 0.25159 0.0
H2751 H 0.17973 0.96738 0.1882 0.0
C2752 C 0.21218 0.98768 0.34632 0.0
C2753 C 0.21259 0.00405 0.36407 0.0
C2754 C 0.20969 0.98605 0.31028 0.0
C2755 C 0.20803 0.001 0.29145 0.0
C2756 C 0.20819 0.01724 0.30915 0.0
C2757 C 0.21021 0.01863 0.34529 0.0
C2758 C 0.22217 0.01421 0.19716 0.0
C2759 C 0.20703 0.99668 0.18046 0.0
C2760 C 0.22203 0.01595 0.23331 0.0
C2761 C 0.207 1e-05 0.25323 0.0
C2762 C 0.19168 0.98266 0.23657 0.0
C2763 C 0.19155 0.9811 0.20041 0.0
H2764 H 0.99052 0.23694 0.18502 0.0
H2765 H 0.01626 0.19732 0.18367 0.0
H2766 H 0.9877 0.23409 0.24803 0.0
H2767 H 0.01362 0.19469 0.24704 0.0
H2768 H 0.9845 0.1801 0.35797 0.0
H2769 H 0.98758 0.18116 0.29464 0.0
H2770 H 0.01246 0.24631 0.29668 0.0
H2771 H 0.00918 0.2453 0.35971 0.0
C2772 C 0.99548 0.22754 0.19814 0.0
C2773 C 0.00373 0.21746 0.17941 0.0
C2774 C 0.99401 0.22604 0.23425 0.0
C2775 C 0.0007 0.2144 0.25239 0.0
C2776 C 0.00832 0.20374 0.23365 0.0
C2777 C 0.00986 0.20529 0.19743 0.0
C2778 C 0.99078 0.19467 0.34489 0.0
C2779 C 0.99644 0.2126 0.36376 0.0
C2780 C 0.99259 0.19526 0.3087 0.0
C2781 C 1e-05 0.21378 0.29081 0.0
C2782 C 0.00631 0.23177 0.3098 0.0
C2783 C 0.00457 0.2312 0.34591 0.0
H2784 H 0.84447 0.54296 0.01824 0.0
H2785 H 0.90219 0.54445 0.01632 0.0
H2786 H 0.84323 0.53917 0.08164 0.0
H2787 H 0.90054 0.54004 0.07963 0.0
H2788 H 0.87459 0.51052 0.18968 0.0
H2789 H 0.87153 0.51003 0.12617 0.0
H2790 H 0.87276 0.5675 0.12953 0.0
H2791 H 0.87644 0.56839 0.19294 0.0
C2792 C 0.85668 0.5421 0.0313 0.0
C2793 C 0.87347 0.54406 0.01252 0.0
C2794 C 0.85597 0.54 0.06743 0.0
C2795 C 0.87177 0.53931 0.08512 0.0
C2796 C 0.88815 0.54044 0.06629 0.0
C2797 C 0.88912 0.54303 0.03025 0.0
C2798 C 0.87395 0.52292 0.17688 0.0
C2799 C 0.87581 0.53954 0.19608 0.0
C2800 C 0.87228 0.52264 0.14069 0.0
C2801 C 0.87191 0.53871 0.12335 0.0
C2802 C 0.87292 0.55491 0.14258 0.0
C2803 C 0.87509 0.55544 0.17869 0.0
H2804 H 0.42074 0.32105 0.19278 0.0
H2805 H 0.4864 0.34966 0.19193 0.0
H2806 H 0.42031 0.31874 0.12956 0.0
H2807 H 0.48589 0.34741 0.12849 0.0
H2808 H 0.47145 0.31891 0.0171 0.0
H2809 H 0.47355 0.32113 0.08052 0.0
H2810 H 0.43197 0.34447 0.08137 0.0
H2811 H 0.42974 0.34218 0.01816 0.0
C2812 C 0.43507 0.3267 0.17914 0.0
C2813 C 0.45362 0.33564 0.1973 0.0
C2814 C 0.43482 0.32551 0.14294 0.0
C2815 C 0.45309 0.33312 0.1242 0.0
C2816 C 0.4716 0.34141 0.14237 0.0
C2817 C 0.47187 0.34273 0.17862 0.0
C2818 C 0.46288 0.32467 0.03083 0.0
C2819 C 0.45033 0.33026 0.01269 0.0
C2820 C 0.46414 0.32598 0.06707 0.0
C2821 C 0.45274 0.33275 0.08577 0.0
C2822 C 0.44064 0.33887 0.06757 0.0
C2823 C 0.4395 0.3377 0.03138 0.0
H2824 H 0.63899 0.09683 0.01481 0.0
H2825 H 0.6967 0.15303 0.01774 0.0
H2826 H 0.63683 0.0976 0.07833 0.0
H2827 H 0.69468 0.15344 0.08124 0.0
H2828 H 0.69175 0.12221 0.19154 0.0
H2829 H 0.69391 0.1259 0.12812 0.0
H2830 H 0.63597 0.12375 0.12647 0.0
H2831 H 0.63396 0.12056 0.18988 0.0
C2832 C 0.6511 0.10939 0.029 0.0
C2833 C 0.668 0.12485 0.01144 0.0
C2834 C 0.64983 0.10985 0.06521 0.0
C2835 C 0.66563 0.12555 0.08439 0.0
C2836 C 0.68237 0.14118 0.06686 0.0
C2837 C 0.68344 0.14096 0.03062 0.0
C2838 C 0.67961 0.12277 0.17766 0.0
C2839 C 0.66269 0.12108 0.19554 0.0
C2840 C 0.68089 0.12495 0.14151 0.0
C2841 C 0.66506 0.12503 0.12271 0.0
C2842 C 0.6483 0.12366 0.14056 0.0
C2843 C 0.64723 0.12193 0.17675 0.0
H2844 H 0.41973 0.0978 0.69074 0.0
H2845 H 0.48505 0.13759 0.69238 0.0
H2846 H 0.41997 0.10012 0.62756 0.0
H2847 H 0.48522 0.13977 0.62892 0.0
H2848 H 0.47077 0.15308 0.51667 0.0
H2849 H 0.4724 0.15278 0.58017 0.0
H2850 H 0.43326 0.08745 0.57991 0.0
H2851 H 0.43149 0.08768 0.51669 0.0
C2852 C 0.43413 0.10717 0.67766 0.0
C2853 C 0.45239 0.11741 0.69654 0.0
C2854 C 0.43427 0.10837 0.64146 0.0
C2855 C 0.45265 0.11991 0.62338 0.0
C2856 C 0.47084 0.13078 0.64225 0.0
C2857 C 0.47073 0.12948 0.67853 0.0
C2858 C 0.46266 0.13864 0.53017 0.0
C2859 C 0.45089 0.12042 0.5117 0.0
C2860 C 0.46364 0.13848 0.56647 0.0
C2861 C 0.45275 0.12013 0.5849 0.0
C2862 C 0.44151 0.10186 0.56635 0.0
C2863 C 0.44064 0.102 0.53014 0.0
H2864 H 0.88071 0.36453 0.69179 0.0
H2865 H 0.87626 0.30549 0.69697 0.0
H2866 H 0.87742 0.36159 0.62851 0.0
H2867 H 0.87246 0.30244 0.63355 0.0
H2868 H 0.84514 0.30029 0.52226 0.0
H2869 H 0.84499 0.30298 0.58576 0.0
H2870 H 0.90339 0.35817 0.58183 0.0
H2871 H 0.90388 0.35528 0.51844 0.0
C2872 C 0.87872 0.35081 0.67946 0.0
C2873 C 0.87881 0.33525 0.69918 0.0
C2874 C 0.87691 0.3492 0.64335 0.0
C2875 C 0.8747 0.33182 0.62652 0.0
C2876 C 0.87406 0.31593 0.64621 0.0
C2877 C 0.87631 0.31772 0.68232 0.0
C2878 C 0.85783 0.3131 0.53495 0.0
C2879 C 0.87456 0.32758 0.51559 0.0
C2880 C 0.85777 0.31455 0.57115 0.0
C2881 C 0.87418 0.33074 0.58832 0.0
C2882 C 0.89055 0.3456 0.56893 0.0
C2883 C 0.89084 0.34391 0.53283 0.0
H2884 H 0.66051 0.57409 0.52453 0.0
H2885 H 0.68005 0.52941 0.52272 0.0
H2886 H 0.65822 0.57179 0.58766 0.0
H2887 H 0.67791 0.52729 0.58616 0.0
H2888 H 0.64904 0.5152 0.69712 0.0
H2889 H 0.65192 0.51606 0.63381 0.0
H2890 H 0.68315 0.58179 0.63621 0.0
H2891 H 0.68013 0.581 0.69935 0.0
C2892 C 0.66421 0.56369 0.53758 0.0
C2893 C 0.67055 0.55199 0.51868 0.0
C2894 C 0.66305 0.56251 0.57375 0.0
C2895 C 0.66813 0.54955 0.59175 0.0
C2896 C 0.67388 0.53738 0.57286 0.0
C2897 C 0.67514 0.53863 0.53661 0.0
C2898 C 0.65667 0.52983 0.68415 0.0
C2899 C 0.66422 0.54803 0.70316 0.0
C2900 C 0.65837 0.53031 0.64795 0.0
C2901 C 0.66755 0.54897 0.63017 0.0
C2902 C 0.67568 0.56717 0.64928 0.0
C2903 C 0.67408 0.56671 0.68543 0.0
H2904 H 0.51239 0.86122 0.35138 0.0
H2905 H 0.57776 0.90076 0.35026 0.0
H2906 H 0.5132 0.85893 0.41467 0.0
H2907 H 0.57853 0.89821 0.41328 0.0
H2908 H 0.56925 0.91023 0.52538 0.0
H2909 H 0.56675 0.91077 0.46235 0.0
H2910 H 0.52599 0.84568 0.46186 0.0
H2911 H 0.52824 0.84511 0.52519 0.0
C2912 C 0.52694 0.86924 0.36459 0.0
C2913 C 0.545 0.8813 0.3459 0.0
C2914 C 0.52739 0.86786 0.40077 0.0
C2915 C 0.54589 0.87858 0.41883 0.0
C2916 C 0.564 0.8901 0.40003 0.0
C2917 C 0.56356 0.89144 0.36392 0.0
C2918 C 0.55963 0.89604 0.51192 0.0
C2919 C 0.54904 0.87761 0.53021 0.0
C2920 C 0.55833 0.89634 0.4758 0.0
C2921 C 0.54638 0.87822 0.45724 0.0
C2922 C 0.53527 0.85986 0.47557 0.0
C2923 C 0.53661 0.85955 0.51177 0.0
H2924 H 0.08475 0.65327 0.53202 0.0
H2925 H 0.15036 0.68127 0.53154 0.0
H2926 H 0.08444 0.65122 0.46876 0.0
H2927 H 0.14998 0.67934 0.46811 0.0
H2928 H 0.13609 0.65179 0.35645 0.0
H2929 H 0.13787 0.65363 0.41987 0.0
H2930 H 0.09616 0.67682 0.42074 0.0
H2931 H 0.0942 0.67484 0.35749 0.0
C2932 C 0.09909 0.65884 0.51845 0.0
C2933 C 0.11759 0.66754 0.53673 0.0
C2934 C 0.09891 0.65781 0.48223 0.0
C2935 C 0.11721 0.66535 0.4636 0.0
C2936 C 0.13566 0.67338 0.48189 0.0
C2937 C 0.13586 0.67452 0.51815 0.0
C2938 C 0.12742 0.65743 0.37018 0.0
C2939 C 0.1149 0.66306 0.35202 0.0
C2940 C 0.12849 0.65852 0.40644 0.0
C2941 C 0.11698 0.66514 0.42515 0.0
C2942 C 0.10492 0.67131 0.40694 0.0
C2943 C 0.10394 0.67034 0.37072 0.0
H2944 H 0.32524 0.41853 0.35578 0.0
H2945 H 0.34694 0.48314 0.34997 0.0
H2946 H 0.32304 0.41986 0.41879 0.0
H2947 H 0.34488 0.48443 0.41329 0.0
H2948 H 0.3159 0.47044 0.52454 0.0
H2949 H 0.3189 0.47137 0.46122 0.0
H2950 H 0.34812 0.43504 0.46706 0.0
H2951 H 0.345 0.43391 0.53016 0.0
C2952 C 0.32944 0.433 0.36792 0.0
C2953 C 0.33635 0.45075 0.34793 0.0
C2954 C 0.32833 0.43377 0.40403 0.0
C2955 C 0.33403 0.45229 0.42089 0.0
C2956 C 0.34036 0.46995 0.4009 0.0
C2957 C 0.34158 0.4692 0.36471 0.0
C2958 C 0.32314 0.46282 0.51232 0.0
C2959 C 0.33005 0.45195 0.5323 0.0
C2960 C 0.3249 0.46341 0.47611 0.0
C2961 C 0.3335 0.45306 0.45929 0.0
C2962 C 0.34108 0.44284 0.47936 0.0
C2963 C 0.33942 0.44232 0.51551 0.0
H2964 H 0.11863 0.48537 0.85273 0.0
H2965 H 0.11794 0.42804 0.85161 0.0
H2966 H 0.12301 0.48717 0.91601 0.0
H2967 H 0.12291 0.43024 0.91479 0.0
H2968 H 0.15287 0.45663 0.02389 0.0
H2969 H 0.15284 0.45924 0.96036 0.0
H2970 H 0.09561 0.45847 0.96481 0.0
H2971 H 0.09525 0.45525 0.02827 0.0
C2972 C 0.11978 0.47336 0.86594 0.0
C2973 C 0.11787 0.45651 0.84743 0.0
C2974 C 0.12221 0.47439 0.902 0.0
C2975 C 0.12329 0.45886 0.91988 0.0
C2976 C 0.12221 0.44242 0.9013 0.0
C2977 C 0.11929 0.44114 0.86534 0.0
C2978 C 0.14042 0.45728 0.01132 0.0
C2979 C 0.12401 0.45567 0.03084 0.0
C2980 C 0.1404 0.45869 0.97512 0.0
C2981 C 0.12424 0.45905 0.95809 0.0
C2982 C 0.10827 0.45832 0.97762 0.0
C2983 C 0.10803 0.45641 0.01376 0.0
H2984 H 0.5774 0.67896 0.84999 0.0
H2985 H 0.51162 0.6483 0.85059 0.0
H2986 H 0.57768 0.68141 0.91316 0.0
H2987 H 0.51198 0.65069 0.91404 0.0
H2988 H 0.52556 0.67832 0.02646 0.0
H2989 H 0.52343 0.67654 0.96292 0.0
H2990 H 0.56683 0.65547 0.96063 0.0
H2991 H 0.56909 0.65732 0.02376 0.0
C2992 C 0.56301 0.6729 0.86355 0.0
C2993 C 0.54448 0.66329 0.84533 0.0
C2994 C 0.56318 0.67419 0.89974 0.0
C2995 C 0.54484 0.666 0.91845 0.0
C2996 C 0.52633 0.65715 0.90021 0.0
C2997 C 0.52614 0.65574 0.86394 0.0
C2998 C 0.53451 0.67316 0.01237 0.0
C2999 C 0.54758 0.66808 0.03009 0.0
C3000 C 0.53325 0.67211 0.97606 0.0
C3001 C 0.54517 0.66613 0.95692 0.0
C3002 C 0.55777 0.6605 0.97473 0.0
C3003 C 0.55892 0.66141 0.01092 0.0
H3004 H 0.36311 0.87747 0.85444 0.0
H3005 H 0.30414 0.87319 0.85007 0.0
H3006 H 0.36057 0.87459 0.91784 0.0
H3007 H 0.30147 0.8698 0.91354 0.0
H3008 H 0.29966 0.84463 0.02588 0.0
H3009 H 0.30199 0.84325 0.96245 0.0
H3010 H 0.35791 0.90106 0.96372 0.0
H3011 H 0.35538 0.90279 0.02699 0.0
C3012 C 0.34947 0.87556 0.86697 0.0
C3013 C 0.33384 0.87564 0.84744 0.0
C3014 C 0.34808 0.87399 0.90315 0.0
C3015 C 0.33085 0.87199 0.92025 0.0
C3016 C 0.31485 0.87122 0.90071 0.0
C3017 C 0.31642 0.87324 0.86456 0.0
C3018 C 0.31256 0.85692 0.01263 0.0
C3019 C 0.32733 0.87386 0.03121 0.0
C3020 C 0.31381 0.85615 0.97647 0.0
C3021 C 0.3301 0.87204 0.95853 0.0
C3022 C 0.34527 0.88859 0.97718 0.0
C3023 C 0.34378 0.8896 0.01323 0.0
loop_
_geom_bond_atom_site_label_1
_geom_bond_atom_site_label_2
_geom_bond_distance
_geom_bond_site_symmetry_2
_ccdc_geom_bond_type
Co0 O3 1.970 . S
Co0 N17 1.989 . S
Co0 O25 1.967 . S
Co0 O32 1.920 . S
Co1 O4 1.966 . S
Co1 N10 2.022 . S
Co1 N18 1.993 . S
Co1 O26 1.941 . S
C2 O3 1.258 . S
C2 O4 1.263 1_556 S
O3 Co0 1.970 . S
O3 C2 1.258 . S
O4 Co1 1.966 . S
O4 C2 1.263 1_554 S
C5 O6 1.235 . S
C5 O32 1.289 . S
O6 C5 1.235 . S
C7 C9 1.400 . S
C7 N10 1.351 . S
C7 C12 1.501 . S
C8 C9 1.387 . S
C8 N11 1.341 . S
C9 C7 1.400 . S
C9 C8 1.387 . S
N10 Co1 2.022 . S
N10 C7 1.351 . S
N10 N11 1.365 . S
N11 C8 1.341 . S
N11 N10 1.365 . S
N11 H31 0.862 . S
C12 C7 1.501 . S
C12 H13 0.961 . S
C12 H14 0.961 . S
C12 H15 0.960 . S
H13 C12 0.961 . S
H14 C12 0.961 . S
H15 C12 0.960 . S
C16 N17 1.342 . S
C16 C20 1.401 1_556 S
C16 C21 1.499 . S
N17 Co0 1.989 . S
N17 C16 1.342 . S
N17 N18 1.388 1_556 S
N18 Co1 1.993 . S
N18 N17 1.388 1_554 S
N18 C19 1.346 . S
C19 N18 1.346 . S
C19 C20 1.396 . S
C19 C29 1.510 . S
C20 C16 1.401 1_554 S
C20 C19 1.396 . S
C21 C16 1.499 . S
C21 H22 0.959 . S
C21 H23 0.960 . S
C21 H24 0.961 . S
H22 C21 0.959 . S
H23 C21 0.960 . S
H24 C21 0.961 . S
O25 Co0 1.967 . S
O25 C33 1.258 1_556 S
O26 Co1 1.941 . S
O26 C33 1.266 . S
H27 C29 0.959 . S
H28 C29 0.961 . S
C29 C19 1.510 . S
C29 H27 0.959 . S
C29 H28 0.961 . S
C29 H30 0.960 . S
H30 C29 0.960 . S
H31 N11 0.862 . S
O32 Co0 1.920 . S
O32 C5 1.289 . S
C33 O25 1.258 1_554 S
C33 O26 1.266 . S
Co34 O37 1.970 . S
Co34 N51 1.989 1_545 S
Co34 O59 1.967 . S
Co34 O66 1.920 . S
Co35 O38 1.966 . S
Co35 N44 2.022 . S
Co35 N52 1.993 1_545 S
Co35 O60 1.941 . S
C36 O37 1.258 . S
C36 O38 1.263 1_556 S
O37 Co34 1.970 . S
O37 C36 1.258 . S
O38 Co35 1.966 . S
O38 C36 1.263 1_554 S
C39 O40 1.235 1_545 S
C39 O66 1.289 . S
O40 C39 1.235 1_565 S
C41 C43 1.400 . S
C41 N44 1.351 . S
C41 C46 1.501 . S
C42 C43 1.387 . S
C42 N45 1.341 . S
C43 C41 1.400 . S
C43 C42 1.387 . S
N44 Co35 2.022 . S
N44 C41 1.351 . S
N44 N45 1.365 . S
N45 C42 1.341 . S
N45 N44 1.365 . S
N45 H65 0.862 . S
C46 C41 1.501 . S
C46 H47 0.961 . S
C46 H48 0.961 . S
C46 H49 0.960 . S
H47 C46 0.961 . S
H48 C46 0.961 . S
H49 C46 0.960 . S
C50 N51 1.342 . S
C50 C54 1.401 1_556 S
C50 C55 1.499 . S
N51 Co34 1.989 1_565 S
N51 C50 1.342 . S
N51 N52 1.388 1_556 S
N52 Co35 1.993 1_565 S
N52 N51 1.388 1_554 S
N52 C53 1.346 . S
C53 N52 1.346 . S
C53 C54 1.396 . S
C53 C63 1.510 . S
C54 C50 1.401 1_554 S
C54 C53 1.396 . S
C55 C50 1.499 . S
C55 H56 0.959 . S
C55 H57 0.960 . S
C55 H58 0.961 . S
H56 C55 0.959 . S
H57 C55 0.960 . S
H58 C55 0.961 . S
O59 Co34 1.967 . S
O59 C67 1.258 1_556 S
O60 Co35 1.941 . S
O60 C67 1.266 . S
H61 C63 0.959 . S
H62 C63 0.961 . S
C63 C53 1.510 . S
C63 H61 0.959 . S
C63 H62 0.961 . S
C63 H64 0.960 . S
H64 C63 0.960 . S
H65 N45 0.862 . S
O66 Co34 1.920 . S
O66 C39 1.289 . S
C67 O59 1.258 1_554 S
C67 O60 1.266 . S
Co68 O71 1.970 . S
Co68 N85 1.989 1_655 S
Co68 O93 1.967 . S
Co68 O100 1.920 . S
Co69 O72 1.966 . S
Co69 N78 2.022 . S
Co69 N86 1.993 1_655 S
Co69 O94 1.941 . S
C70 O71 1.258 . S
C70 O72 1.263 1_556 S
O71 Co68 1.970 . S
O71 C70 1.258 . S
O72 Co69 1.966 . S
O72 C70 1.263 1_554 S
C73 O74 1.235 1_655 S
C73 O100 1.289 . S
O74 C73 1.235 1_455 S
C75 C77 1.400 . S
C75 N78 1.351 . S
C75 C80 1.501 . S
C76 C77 1.387 . S
C76 N79 1.341 . S
C77 C75 1.400 . S
C77 C76 1.387 . S
N78 Co69 2.022 . S
N78 C75 1.351 . S
N78 N79 1.365 . S
N79 C76 1.341 . S
N79 N78 1.365 . S
N79 H99 0.862 . S
C80 C75 1.501 . S
C80 H81 0.961 . S
C80 H82 0.961 . S
C80 H83 0.960 . S
H81 C80 0.961 . S
H82 C80 0.961 . S
H83 C80 0.960 . S
C84 N85 1.342 . S
C84 C88 1.401 1_556 S
C84 C89 1.499 . S
N85 Co68 1.989 1_455 S
N85 C84 1.342 . S
N85 N86 1.388 1_556 S
N86 Co69 1.993 1_455 S
N86 N85 1.388 1_554 S
N86 C87 1.346 . S
C87 N86 1.346 . S
C87 C88 1.396 . S
C87 C97 1.510 . S
C88 C84 1.401 1_554 S
C88 C87 1.396 . S
C89 C84 1.499 . S
C89 H90 0.959 . S
C89 H91 0.960 . S
C89 H92 0.961 . S
H90 C89 0.959 . S
H91 C89 0.960 . S
H92 C89 0.961 . S
O93 Co68 1.967 . S
O93 C101 1.258 1_556 S
O94 Co69 1.941 . S
O94 C101 1.266 . S
H95 C97 0.959 . S
H96 C97 0.961 . S
C97 C87 1.510 . S
C97 H95 0.959 . S
C97 H96 0.961 . S
C97 H98 0.960 . S
H98 C97 0.960 . S
H99 N79 0.862 . S
O100 Co68 1.920 . S
O100 C73 1.289 . S
C101 O93 1.258 1_554 S
C101 O94 1.266 . S
Co102 O105 1.970 . S
Co102 N119 1.989 . S
Co102 O127 1.967 . S
Co102 O134 1.920 . S
Co103 O106 1.966 . S
Co103 N112 2.022 . S
Co103 N120 1.993 . S
Co103 O128 1.941 . S
C104 O105 1.258 . S
C104 O106 1.263 . S
O105 Co102 1.970 . S
O105 C104 1.258 . S
O106 Co103 1.966 . S
O106 C104 1.263 . S
C107 O108 1.235 . S
C107 O134 1.289 . S
O108 C107 1.235 . S
C109 C111 1.400 . S
C109 N112 1.351 . S
C109 C114 1.501 . S
C110 C111 1.387 . S
C110 N113 1.341 . S
C111 C109 1.400 . S
C111 C110 1.387 . S
N112 Co103 2.022 . S
N112 C109 1.351 . S
N112 N113 1.365 . S
N113 C110 1.341 . S
N113 N112 1.365 . S
N113 H133 0.862 . S
C114 C109 1.501 . S
C114 H115 0.961 . S
C114 H116 0.961 . S
C114 H117 0.960 . S
H115 C114 0.961 . S
H116 C114 0.961 . S
H117 C114 0.960 . S
C118 N119 1.342 . S
C118 C122 1.401 . S
C118 C123 1.499 . S
N119 Co102 1.989 . S
N119 C118 1.342 . S
N119 N120 1.388 . S
N120 Co103 1.993 . S
N120 N119 1.388 . S
N120 C121 1.346 . S
C121 N120 1.346 . S
C121 C122 1.396 . S
C121 C131 1.510 . S
C122 C118 1.401 . S
C122 C121 1.396 . S
C123 C118 1.499 . S
C123 H124 0.959 . S
C123 H125 0.960 . S
C123 H126 0.961 . S
H124 C123 0.959 . S
H125 C123 0.960 . S
H126 C123 0.961 . S
O127 Co102 1.967 . S
O127 C135 1.258 . S
O128 Co103 1.941 . S
O128 C135 1.266 . S
H129 C131 0.959 . S
H130 C131 0.961 . S
C131 C121 1.510 . S
C131 H129 0.959 . S
C131 H130 0.961 . S
C131 H132 0.960 . S
H132 C131 0.960 . S
H133 N113 0.862 . S
O134 Co102 1.920 . S
O134 C107 1.289 . S
C135 O127 1.258 . S
C135 O128 1.266 . S
Co136 O139 1.970 . S
Co136 N153 1.989 1_565 S
Co136 O161 1.967 . S
Co136 O168 1.920 . S
Co137 O140 1.966 . S
Co137 N146 2.022 . S
Co137 N154 1.993 1_565 S
Co137 O162 1.941 . S
C138 O139 1.258 . S
C138 O140 1.263 . S
O139 Co136 1.970 . S
O139 C138 1.258 . S
O140 Co137 1.966 . S
O140 C138 1.263 . S
C141 O142 1.235 1_565 S
C141 O168 1.289 . S
O142 C141 1.235 1_545 S
C143 C145 1.400 . S
C143 N146 1.351 . S
C143 C148 1.501 . S
C144 C145 1.387 . S
C144 N147 1.341 . S
C145 C143 1.400 . S
C145 C144 1.387 . S
N146 Co137 2.022 . S
N146 C143 1.351 . S
N146 N147 1.365 . S
N147 C144 1.341 . S
N147 N146 1.365 . S
N147 H167 0.862 . S
C148 C143 1.501 . S
C148 H149 0.961 . S
C148 H150 0.961 . S
C148 H151 0.960 . S
H149 C148 0.961 . S
H150 C148 0.961 . S
H151 C148 0.960 . S
C152 N153 1.342 . S
C152 C156 1.401 . S
C152 C157 1.499 . S
N153 Co136 1.989 1_545 S
N153 C152 1.342 . S
N153 N154 1.388 . S
N154 Co137 1.993 1_545 S
N154 N153 1.388 . S
N154 C155 1.346 . S
C155 N154 1.346 . S
C155 C156 1.396 . S
C155 C165 1.510 . S
C156 C152 1.401 . S
C156 C155 1.396 . S
C157 C152 1.499 . S
C157 H158 0.959 . S
C157 H159 0.960 . S
C157 H160 0.961 . S
H158 C157 0.959 . S
H159 C157 0.960 . S
H160 C157 0.961 . S
O161 Co136 1.967 . S
O161 C169 1.258 . S
O162 Co137 1.941 . S
O162 C169 1.266 . S
H163 C165 0.959 . S
H164 C165 0.961 . S
C165 C155 1.510 . S
C165 H163 0.959 . S
C165 H164 0.961 . S
C165 H166 0.960 . S
H166 C165 0.960 . S
H167 N147 0.862 . S
O168 Co136 1.920 . S
O168 C141 1.289 . S
C169 O161 1.258 . S
C169 O162 1.266 . S
Co170 O173 1.970 . S
Co170 N187 1.989 1_455 S
Co170 O195 1.967 . S
Co170 O202 1.920 . S
Co171 O174 1.966 . S
Co171 N180 2.022 . S
Co171 N188 1.993 1_455 S
Co171 O196 1.941 . S
C172 O173 1.258 . S
C172 O174 1.263 . S
O173 Co170 1.970 . S
O173 C172 1.258 . S
O174 Co171 1.966 . S
O174 C172 1.263 . S
C175 O176 1.235 1_455 S
C175 O202 1.289 . S
O176 C175 1.235 1_655 S
C177 C179 1.400 . S
C177 N180 1.351 . S
C177 C182 1.501 . S
C178 C179 1.387 . S
C178 N181 1.341 . S
C179 C177 1.400 . S
C179 C178 1.387 . S
N180 Co171 2.022 . S
N180 C177 1.351 . S
N180 N181 1.365 . S
N181 C178 1.341 . S
N181 N180 1.365 . S
N181 H201 0.862 . S
C182 C177 1.501 . S
C182 H183 0.961 . S
C182 H184 0.961 . S
C182 H185 0.960 . S
H183 C182 0.961 . S
H184 C182 0.961 . S
H185 C182 0.960 . S
C186 N187 1.342 . S
C186 C190 1.401 . S
C186 C191 1.499 . S
N187 Co170 1.989 1_655 S
N187 C186 1.342 . S
N187 N188 1.388 . S
N188 Co171 1.993 1_655 S
N188 N187 1.388 . S
N188 C189 1.346 . S
C189 N188 1.346 . S
C189 C190 1.396 . S
C189 C199 1.510 . S
C190 C186 1.401 . S
C190 C189 1.396 . S
C191 C186 1.499 . S
C191 H192 0.959 . S
C191 H193 0.960 . S
C191 H194 0.961 . S
H192 C191 0.959 . S
H193 C191 0.960 . S
H194 C191 0.961 . S
O195 Co170 1.967 . S
O195 C203 1.258 . S
O196 Co171 1.941 . S
O196 C203 1.266 . S
H197 C199 0.959 . S
H198 C199 0.961 . S
C199 C189 1.510 . S
C199 H197 0.959 . S
C199 H198 0.961 . S
C199 H200 0.960 . S
H200 C199 0.960 . S
H201 N181 0.862 . S
O202 Co170 1.920 . S
O202 C175 1.289 . S
C203 O195 1.258 . S
C203 O196 1.266 . S
Co204 O207 1.970 . S
Co204 N221 1.989 . S
Co204 O229 1.967 . S
Co204 O236 1.920 . S
Co205 O208 1.966 1_556 S
Co205 N214 2.022 . S
Co205 N222 1.993 1_556 S
Co205 O230 1.941 1_556 S
C206 O207 1.258 . S
C206 O208 1.263 . S
O207 Co204 1.970 . S
O207 C206 1.258 . S
O208 Co205 1.966 1_554 S
O208 C206 1.263 . S
C209 O210 1.235 . S
C209 O236 1.289 . S
O210 C209 1.235 . S
C211 C213 1.400 . S
C211 N214 1.351 . S
C211 C216 1.501 . S
C212 C213 1.387 . S
C212 N215 1.341 . S
C213 C211 1.400 . S
C213 C212 1.387 . S
N214 Co205 2.022 . S
N214 C211 1.351 . S
N214 N215 1.365 . S
N215 C212 1.341 . S
N215 N214 1.365 . S
N215 H235 0.862 . S
C216 C211 1.501 . S
C216 H217 0.961 . S
C216 H218 0.961 . S
C216 H219 0.960 . S
H217 C216 0.961 . S
H218 C216 0.961 . S
H219 C216 0.960 . S
C220 N221 1.342 . S
C220 C224 1.401 . S
C220 C225 1.499 . S
N221 Co204 1.989 . S
N221 C220 1.342 . S
N221 N222 1.388 . S
N222 Co205 1.993 1_554 S
N222 N221 1.388 . S
N222 C223 1.346 . S
C223 N222 1.346 . S
C223 C224 1.396 . S
C223 C233 1.510 1_554 S
C224 C220 1.401 . S
C224 C223 1.396 . S
C225 C220 1.499 . S
C225 H226 0.959 . S
C225 H227 0.960 . S
C225 H228 0.961 . S
H226 C225 0.959 . S
H227 C225 0.960 . S
H228 C225 0.961 . S
O229 Co204 1.967 . S
O229 C237 1.258 . S
O230 Co205 1.941 1_554 S
O230 C237 1.266 . S
H231 C233 0.959 . S
H232 C233 0.961 . S
C233 C223 1.510 1_556 S
C233 H231 0.959 . S
C233 H232 0.961 . S
C233 H234 0.960 . S
H234 C233 0.960 . S
H235 N215 0.862 . S
O236 Co204 1.920 . S
O236 C209 1.289 . S
C237 O229 1.258 . S
C237 O230 1.266 . S
Co238 O241 1.970 . S
Co238 N255 1.989 1_565 S
Co238 O263 1.967 . S
Co238 O270 1.920 . S
Co239 O242 1.966 1_556 S
Co239 N248 2.022 . S
Co239 N256 1.993 1_566 S
Co239 O264 1.941 1_556 S
C240 O241 1.258 . S
C240 O242 1.263 . S
O241 Co238 1.970 . S
O241 C240 1.258 . S
O242 Co239 1.966 1_554 S
O242 C240 1.263 . S
C243 O244 1.235 1_565 S
C243 O270 1.289 . S
O244 C243 1.235 1_545 S
C245 C247 1.400 . S
C245 N248 1.351 . S
C245 C250 1.501 . S
C246 C247 1.387 . S
C246 N249 1.341 . S
C247 C245 1.400 . S
C247 C246 1.387 . S
N248 Co239 2.022 . S
N248 C245 1.351 . S
N248 N249 1.365 . S
N249 C246 1.341 . S
N249 N248 1.365 . S
N249 H269 0.862 . S
C250 C245 1.501 . S
C250 H251 0.961 . S
C250 H252 0.961 . S
C250 H253 0.960 . S
H251 C250 0.961 . S
H252 C250 0.961 . S
H253 C250 0.960 . S
C254 N255 1.342 . S
C254 C258 1.401 . S
C254 C259 1.499 . S
N255 Co238 1.989 1_545 S
N255 C254 1.342 . S
N255 N256 1.388 . S
N256 Co239 1.993 1_544 S
N256 N255 1.388 . S
N256 C257 1.346 . S
C257 N256 1.346 . S
C257 C258 1.396 . S
C257 C267 1.510 1_554 S
C258 C254 1.401 . S
C258 C257 1.396 . S
C259 C254 1.499 . S
C259 H260 0.959 . S
C259 H261 0.960 . S
C259 H262 0.961 . S
H260 C259 0.959 . S
H261 C259 0.960 . S
H262 C259 0.961 . S
O263 Co238 1.967 . S
O263 C271 1.258 . S
O264 Co239 1.941 1_554 S
O264 C271 1.266 . S
H265 C267 0.959 . S
H266 C267 0.961 . S
C267 C257 1.510 1_556 S
C267 H265 0.959 . S
C267 H266 0.961 . S
C267 H268 0.960 . S
H268 C267 0.960 . S
H269 N249 0.862 . S
O270 Co238 1.920 . S
O270 C243 1.289 . S
C271 O263 1.258 . S
C271 O264 1.266 . S
Co272 O275 1.970 . S
Co272 N289 1.989 1_455 S
Co272 O297 1.967 . S
Co272 O304 1.920 . S
Co273 O276 1.966 1_556 S
Co273 N282 2.022 . S
Co273 N290 1.993 1_456 S
Co273 O298 1.941 1_556 S
C274 O275 1.258 . S
C274 O276 1.263 . S
O275 Co272 1.970 . S
O275 C274 1.258 . S
O276 Co273 1.966 1_554 S
O276 C274 1.263 . S
C277 O278 1.235 1_455 S
C277 O304 1.289 . S
O278 C277 1.235 1_655 S
C279 C281 1.400 . S
C279 N282 1.351 . S
C279 C284 1.501 . S
C280 C281 1.387 . S
C280 N283 1.341 . S
C281 C279 1.400 . S
C281 C280 1.387 . S
N282 Co273 2.022 . S
N282 C279 1.351 . S
N282 N283 1.365 . S
N283 C280 1.341 . S
N283 N282 1.365 . S
N283 H303 0.862 . S
C284 C279 1.501 . S
C284 H285 0.961 . S
C284 H286 0.961 . S
C284 H287 0.960 . S
H285 C284 0.961 . S
H286 C284 0.961 . S
H287 C284 0.960 . S
C288 N289 1.342 . S
C288 C292 1.401 . S
C288 C293 1.499 . S
N289 Co272 1.989 1_655 S
N289 C288 1.342 . S
N289 N290 1.388 . S
N290 Co273 1.993 1_654 S
N290 N289 1.388 . S
N290 C291 1.346 . S
C291 N290 1.346 . S
C291 C292 1.396 . S
C291 C301 1.510 1_554 S
C292 C288 1.401 . S
C292 C291 1.396 . S
C293 C288 1.499 . S
C293 H294 0.959 . S
C293 H295 0.960 . S
C293 H296 0.961 . S
H294 C293 0.959 . S
H295 C293 0.960 . S
H296 C293 0.961 . S
O297 Co272 1.967 . S
O297 C305 1.258 . S
O298 Co273 1.941 1_554 S
O298 C305 1.266 . S
H299 C301 0.959 . S
H300 C301 0.961 . S
C301 C291 1.510 1_556 S
C301 H299 0.959 . S
C301 H300 0.961 . S
C301 H302 0.960 . S
H302 C301 0.960 . S
H303 N283 0.862 . S
O304 Co272 1.920 . S
O304 C277 1.289 . S
C305 O297 1.258 . S
C305 O298 1.266 . S
Co306 O309 1.970 . S
Co306 N323 1.989 . S
Co306 O331 1.967 . S
Co306 O338 1.920 . S
Co307 O310 1.966 . S
Co307 N316 2.022 . S
Co307 N324 1.993 . S
Co307 O332 1.941 . S
C308 O309 1.258 . S
C308 O310 1.263 . S
O309 Co306 1.970 . S
O309 C308 1.258 . S
O310 Co307 1.966 . S
O310 C308 1.263 . S
C311 O312 1.235 . S
C311 O338 1.289 . S
O312 C311 1.235 . S
C313 C315 1.400 . S
C313 N316 1.351 . S
C313 C318 1.501 . S
C314 C315 1.387 . S
C314 N317 1.341 . S
C315 C313 1.400 . S
C315 C314 1.387 . S
N316 Co307 2.022 . S
N316 C313 1.351 . S
N316 N317 1.365 . S
N317 C314 1.341 . S
N317 N316 1.365 . S
N317 H337 0.862 . S
C318 C313 1.501 . S
C318 H319 0.961 . S
C318 H320 0.961 . S
C318 H321 0.960 . S
H319 C318 0.961 . S
H320 C318 0.961 . S
H321 C318 0.960 . S
C322 N323 1.342 . S
C322 C326 1.401 . S
C322 C327 1.499 . S
N323 Co306 1.989 . S
N323 C322 1.342 . S
N323 N324 1.388 . S
N324 Co307 1.993 . S
N324 N323 1.388 . S
N324 C325 1.346 . S
C325 N324 1.346 . S
C325 C326 1.396 . S
C325 C335 1.510 . S
C326 C322 1.401 . S
C326 C325 1.396 . S
C327 C322 1.499 . S
C327 H328 0.959 . S
C327 H329 0.960 . S
C327 H330 0.961 . S
H328 C327 0.959 . S
H329 C327 0.960 . S
H330 C327 0.961 . S
O331 Co306 1.967 . S
O331 C339 1.258 . S
O332 Co307 1.941 . S
O332 C339 1.266 . S
H333 C335 0.959 . S
H334 C335 0.961 . S
C335 C325 1.510 . S
C335 H333 0.959 . S
C335 H334 0.961 . S
C335 H336 0.960 . S
H336 C335 0.960 . S
H337 N317 0.862 . S
O338 Co306 1.920 . S
O338 C311 1.289 . S
C339 O331 1.258 . S
C339 O332 1.266 . S
Co340 O343 1.970 . S
Co340 N357 1.989 1_545 S
Co340 O365 1.967 . S
Co340 O372 1.920 . S
Co341 O344 1.966 . S
Co341 N350 2.022 . S
Co341 N358 1.993 1_545 S
Co341 O366 1.941 . S
C342 O343 1.258 . S
C342 O344 1.263 . S
O343 Co340 1.970 . S
O343 C342 1.258 . S
O344 Co341 1.966 . S
O344 C342 1.263 . S
C345 O346 1.235 1_545 S
C345 O372 1.289 . S
O346 C345 1.235 1_565 S
C347 C349 1.400 . S
C347 N350 1.351 . S
C347 C352 1.501 . S
C348 C349 1.387 . S
C348 N351 1.341 . S
C349 C347 1.400 . S
C349 C348 1.387 . S
N350 Co341 2.022 . S
N350 C347 1.351 . S
N350 N351 1.365 . S
N351 C348 1.341 . S
N351 N350 1.365 . S
N351 H371 0.862 . S
C352 C347 1.501 . S
C352 H353 0.961 . S
C352 H354 0.961 . S
C352 H355 0.960 . S
H353 C352 0.961 . S
H354 C352 0.961 . S
H355 C352 0.960 . S
C356 N357 1.342 . S
C356 C360 1.401 . S
C356 C361 1.499 . S
N357 Co340 1.989 1_565 S
N357 C356 1.342 . S
N357 N358 1.388 . S
N358 Co341 1.993 1_565 S
N358 N357 1.388 . S
N358 C359 1.346 . S
C359 N358 1.346 . S
C359 C360 1.396 . S
C359 C369 1.510 . S
C360 C356 1.401 . S
C360 C359 1.396 . S
C361 C356 1.499 . S
C361 H362 0.959 . S
C361 H363 0.960 . S
C361 H364 0.961 . S
H362 C361 0.959 . S
H363 C361 0.960 . S
H364 C361 0.961 . S
O365 Co340 1.967 . S
O365 C373 1.258 . S
O366 Co341 1.941 . S
O366 C373 1.266 . S
H367 C369 0.959 . S
H368 C369 0.961 . S
C369 C359 1.510 . S
C369 H367 0.959 . S
C369 H368 0.961 . S
C369 H370 0.960 . S
H370 C369 0.960 . S
H371 N351 0.862 . S
O372 Co340 1.920 . S
O372 C345 1.289 . S
C373 O365 1.258 . S
C373 O366 1.266 . S
Co374 O377 1.970 . S
Co374 N391 1.989 1_655 S
Co374 O399 1.967 . S
Co374 O406 1.920 . S
Co375 O378 1.966 . S
Co375 N384 2.022 . S
Co375 N392 1.993 1_655 S
Co375 O400 1.941 . S
C376 O377 1.258 . S
C376 O378 1.263 . S
O377 Co374 1.970 . S
O377 C376 1.258 . S
O378 Co375 1.966 . S
O378 C376 1.263 . S
C379 O380 1.235 1_655 S
C379 O406 1.289 . S
O380 C379 1.235 1_455 S
C381 C383 1.400 . S
C381 N384 1.351 . S
C381 C386 1.501 . S
C382 C383 1.387 . S
C382 N385 1.341 . S
C383 C381 1.400 . S
C383 C382 1.387 . S
N384 Co375 2.022 . S
N384 C381 1.351 . S
N384 N385 1.365 . S
N385 C382 1.341 . S
N385 N384 1.365 . S
N385 H405 0.862 . S
C386 C381 1.501 . S
C386 H387 0.961 . S
C386 H388 0.961 . S
C386 H389 0.960 . S
H387 C386 0.961 . S
H388 C386 0.961 . S
H389 C386 0.960 . S
C390 N391 1.342 . S
C390 C394 1.401 . S
C390 C395 1.499 . S
N391 Co374 1.989 1_455 S
N391 C390 1.342 . S
N391 N392 1.388 . S
N392 Co375 1.993 1_455 S
N392 N391 1.388 . S
N392 C393 1.346 . S
C393 N392 1.346 . S
C393 C394 1.396 . S
C393 C403 1.510 . S
C394 C390 1.401 . S
C394 C393 1.396 . S
C395 C390 1.499 . S
C395 H396 0.959 . S
C395 H397 0.960 . S
C395 H398 0.961 . S
H396 C395 0.959 . S
H397 C395 0.960 . S
H398 C395 0.961 . S
O399 Co374 1.967 . S
O399 C407 1.258 . S
O400 Co375 1.941 . S
O400 C407 1.266 . S
H401 C403 0.959 . S
H402 C403 0.961 . S
C403 C393 1.510 . S
C403 H401 0.959 . S
C403 H402 0.961 . S
C403 H404 0.960 . S
H404 C403 0.960 . S
H405 N385 0.862 . S
O406 Co374 1.920 . S
O406 C379 1.289 . S
C407 O399 1.258 . S
C407 O400 1.266 . S
Co408 O411 1.970 . S
Co408 N425 1.989 . S
Co408 O433 1.967 . S
Co408 O440 1.920 . S
Co409 O412 1.966 . S
Co409 N418 2.022 . S
Co409 N426 1.993 . S
Co409 O434 1.941 . S
C410 O411 1.258 . S
C410 O412 1.263 . S
O411 Co408 1.970 . S
O411 C410 1.258 . S
O412 Co409 1.966 . S
O412 C410 1.263 . S
C413 O414 1.235 . S
C413 O440 1.289 . S
O414 C413 1.235 . S
C415 C417 1.400 . S
C415 N418 1.351 . S
C415 C420 1.501 . S
C416 C417 1.387 . S
C416 N419 1.341 . S
C417 C415 1.400 . S
C417 C416 1.387 . S
N418 Co409 2.022 . S
N418 C415 1.351 . S
N418 N419 1.365 . S
N419 C416 1.341 . S
N419 N418 1.365 . S
N419 H439 0.862 . S
C420 C415 1.501 . S
C420 H421 0.961 . S
C420 H422 0.961 . S
C420 H423 0.960 . S
H421 C420 0.961 . S
H422 C420 0.961 . S
H423 C420 0.960 . S
C424 N425 1.342 . S
C424 C428 1.401 . S
C424 C429 1.499 . S
N425 Co408 1.989 . S
N425 C424 1.342 . S
N425 N426 1.388 . S
N426 Co409 1.993 . S
N426 N425 1.388 . S
N426 C427 1.346 . S
C427 N426 1.346 . S
C427 C428 1.396 . S
C427 C437 1.510 . S
C428 C424 1.401 . S
C428 C427 1.396 . S
C429 C424 1.499 . S
C429 H430 0.959 . S
C429 H431 0.960 . S
C429 H432 0.961 . S
H430 C429 0.959 . S
H431 C429 0.960 . S
H432 C429 0.961 . S
O433 Co408 1.967 . S
O433 C441 1.258 . S
O434 Co409 1.941 . S
O434 C441 1.266 . S
H435 C437 0.959 . S
H436 C437 0.961 . S
C437 C427 1.510 . S
C437 H435 0.959 . S
C437 H436 0.961 . S
C437 H438 0.960 . S
H438 C437 0.960 . S
H439 N419 0.862 . S
O440 Co408 1.920 . S
O440 C413 1.289 . S
C441 O433 1.258 . S
C441 O434 1.266 . S
Co442 O445 1.970 . S
Co442 N459 1.989 . S
Co442 O467 1.967 . S
Co442 O474 1.920 . S
Co443 O446 1.966 . S
Co443 N452 2.022 . S
Co443 N460 1.993 . S
Co443 O468 1.941 . S
C444 O445 1.258 . S
C444 O446 1.263 . S
O445 Co442 1.970 . S
O445 C444 1.258 . S
O446 Co443 1.966 . S
O446 C444 1.263 . S
C447 O448 1.235 . S
C447 O474 1.289 . S
O448 C447 1.235 . S
C449 C451 1.400 . S
C449 N452 1.351 . S
C449 C454 1.501 . S
C450 C451 1.387 . S
C450 N453 1.341 . S
C451 C449 1.400 . S
C451 C450 1.387 . S
N452 Co443 2.022 . S
N452 C449 1.351 . S
N452 N453 1.365 . S
N453 C450 1.341 . S
N453 N452 1.365 . S
N453 H473 0.862 . S
C454 C449 1.501 . S
C454 H455 0.961 . S
C454 H456 0.961 . S
C454 H457 0.960 . S
H455 C454 0.961 . S
H456 C454 0.961 . S
H457 C454 0.960 . S
C458 N459 1.342 . S
C458 C462 1.401 . S
C458 C463 1.499 . S
N459 Co442 1.989 . S
N459 C458 1.342 . S
N459 N460 1.388 . S
N460 Co443 1.993 . S
N460 N459 1.388 . S
N460 C461 1.346 . S
C461 N460 1.346 . S
C461 C462 1.396 . S
C461 C471 1.510 . S
C462 C458 1.401 . S
C462 C461 1.396 . S
C463 C458 1.499 . S
C463 H464 0.959 . S
C463 H465 0.960 . S
C463 H466 0.961 . S
H464 C463 0.959 . S
H465 C463 0.960 . S
H466 C463 0.961 . S
O467 Co442 1.967 . S
O467 C475 1.258 . S
O468 Co443 1.941 . S
O468 C475 1.266 . S
H469 C471 0.959 . S
H470 C471 0.961 . S
C471 C461 1.510 . S
C471 H469 0.959 . S
C471 H470 0.961 . S
C471 H472 0.960 . S
H472 C471 0.960 . S
H473 N453 0.862 . S
O474 Co442 1.920 . S
O474 C447 1.289 . S
C475 O467 1.258 . S
C475 O468 1.266 . S
Co476 O479 1.970 . S
Co476 N493 1.989 . S
Co476 O501 1.967 . S
Co476 O508 1.920 . S
Co477 O480 1.966 . S
Co477 N486 2.022 . S
Co477 N494 1.993 . S
Co477 O502 1.941 . S
C478 O479 1.258 . S
C478 O480 1.263 . S
O479 Co476 1.970 . S
O479 C478 1.258 . S
O480 Co477 1.966 . S
O480 C478 1.263 . S
C481 O482 1.235 . S
C481 O508 1.289 . S
O482 C481 1.235 . S
C483 C485 1.400 . S
C483 N486 1.351 . S
C483 C488 1.501 . S
C484 C485 1.387 . S
C484 N487 1.341 . S
C485 C483 1.400 . S
C485 C484 1.387 . S
N486 Co477 2.022 . S
N486 C483 1.351 . S
N486 N487 1.365 . S
N487 C484 1.341 . S
N487 N486 1.365 . S
N487 H507 0.862 . S
C488 C483 1.501 . S
C488 H489 0.961 . S
C488 H490 0.961 . S
C488 H491 0.960 . S
H489 C488 0.961 . S
H490 C488 0.961 . S
H491 C488 0.960 . S
C492 N493 1.342 . S
C492 C496 1.401 . S
C492 C497 1.499 . S
N493 Co476 1.989 . S
N493 C492 1.342 . S
N493 N494 1.388 . S
N494 Co477 1.993 . S
N494 N493 1.388 . S
N494 C495 1.346 . S
C495 N494 1.346 . S
C495 C496 1.396 . S
C495 C505 1.510 . S
C496 C492 1.401 . S
C496 C495 1.396 . S
C497 C492 1.499 . S
C497 H498 0.959 . S
C497 H499 0.960 . S
C497 H500 0.961 . S
H498 C497 0.959 . S
H499 C497 0.960 . S
H500 C497 0.961 . S
O501 Co476 1.967 . S
O501 C509 1.258 . S
O502 Co477 1.941 . S
O502 C509 1.266 . S
H503 C505 0.959 . S
H504 C505 0.961 . S
C505 C495 1.510 . S
C505 H503 0.959 . S
C505 H504 0.961 . S
C505 H506 0.960 . S
H506 C505 0.960 . S
H507 N487 0.862 . S
O508 Co476 1.920 . S
O508 C481 1.289 . S
C509 O501 1.258 . S
C509 O502 1.266 . S
Co510 O513 1.970 . S
Co510 N527 1.989 . S
Co510 O535 1.967 . S
Co510 O542 1.920 . S
Co511 O514 1.966 . S
Co511 N520 2.022 . S
Co511 N528 1.993 . S
Co511 O536 1.941 . S
C512 O513 1.258 . S
C512 O514 1.263 . S
O513 Co510 1.970 . S
O513 C512 1.258 . S
O514 Co511 1.966 . S
O514 C512 1.263 . S
C515 O516 1.235 . S
C515 O542 1.289 . S
O516 C515 1.235 . S
C517 C519 1.400 . S
C517 N520 1.351 . S
C517 C522 1.501 . S
C518 C519 1.387 . S
C518 N521 1.341 . S
C519 C517 1.400 . S
C519 C518 1.387 . S
N520 Co511 2.022 . S
N520 C517 1.351 . S
N520 N521 1.365 . S
N521 C518 1.341 . S
N521 N520 1.365 . S
N521 H541 0.862 . S
C522 C517 1.501 . S
C522 H523 0.961 . S
C522 H524 0.961 . S
C522 H525 0.960 . S
H523 C522 0.961 . S
H524 C522 0.961 . S
H525 C522 0.960 . S
C526 N527 1.342 . S
C526 C530 1.401 . S
C526 C531 1.499 . S
N527 Co510 1.989 . S
N527 C526 1.342 . S
N527 N528 1.388 . S
N528 Co511 1.993 . S
N528 N527 1.388 . S
N528 C529 1.346 . S
C529 N528 1.346 . S
C529 C530 1.396 . S
C529 C539 1.510 . S
C530 C526 1.401 . S
C530 C529 1.396 . S
C531 C526 1.499 . S
C531 H532 0.959 . S
C531 H533 0.960 . S
C531 H534 0.961 . S
H532 C531 0.959 . S
H533 C531 0.960 . S
H534 C531 0.961 . S
O535 Co510 1.967 . S
O535 C543 1.258 . S
O536 Co511 1.941 . S
O536 C543 1.266 . S
H537 C539 0.959 . S
H538 C539 0.961 . S
C539 C529 1.510 . S
C539 H537 0.959 . S
C539 H538 0.961 . S
C539 H540 0.960 . S
H540 C539 0.960 . S
H541 N521 0.862 . S
O542 Co510 1.920 . S
O542 C515 1.289 . S
C543 O535 1.258 . S
C543 O536 1.266 . S
Co544 O547 1.970 . S
Co544 N561 1.989 . S
Co544 O569 1.967 . S
Co544 O576 1.920 . S
Co545 O548 1.966 . S
Co545 N554 2.022 . S
Co545 N562 1.993 . S
Co545 O570 1.941 . S
C546 O547 1.258 . S
C546 O548 1.263 . S
O547 Co544 1.970 . S
O547 C546 1.258 . S
O548 Co545 1.966 . S
O548 C546 1.263 . S
C549 O550 1.235 . S
C549 O576 1.289 . S
O550 C549 1.235 . S
C551 C553 1.400 . S
C551 N554 1.351 . S
C551 C556 1.501 . S
C552 C553 1.387 . S
C552 N555 1.341 . S
C553 C551 1.400 . S
C553 C552 1.387 . S
N554 Co545 2.022 . S
N554 C551 1.351 . S
N554 N555 1.365 . S
N555 C552 1.341 . S
N555 N554 1.365 . S
N555 H575 0.862 . S
C556 C551 1.501 . S
C556 H557 0.961 . S
C556 H558 0.961 . S
C556 H559 0.960 . S
H557 C556 0.961 . S
H558 C556 0.961 . S
H559 C556 0.960 . S
C560 N561 1.342 . S
C560 C564 1.401 . S
C560 C565 1.499 . S
N561 Co544 1.989 . S
N561 C560 1.342 . S
N561 N562 1.388 . S
N562 Co545 1.993 . S
N562 N561 1.388 . S
N562 C563 1.346 . S
C563 N562 1.346 . S
C563 C564 1.396 . S
C563 C573 1.510 . S
C564 C560 1.401 . S
C564 C563 1.396 . S
C565 C560 1.499 . S
C565 H566 0.959 . S
C565 H567 0.960 . S
C565 H568 0.961 . S
H566 C565 0.959 . S
H567 C565 0.960 . S
H568 C565 0.961 . S
O569 Co544 1.967 . S
O569 C577 1.258 . S
O570 Co545 1.941 . S
O570 C577 1.266 . S
H571 C573 0.959 . S
H572 C573 0.961 . S
C573 C563 1.510 . S
C573 H571 0.959 . S
C573 H572 0.961 . S
C573 H574 0.960 . S
H574 C573 0.960 . S
H575 N555 0.862 . S
O576 Co544 1.920 . S
O576 C549 1.289 . S
C577 O569 1.258 . S
C577 O570 1.266 . S
Co578 O581 1.970 . S
Co578 N595 1.989 . S
Co578 O603 1.967 . S
Co578 O610 1.920 . S
Co579 O582 1.966 . S
Co579 N588 2.022 . S
Co579 N596 1.993 . S
Co579 O604 1.941 . S
C580 O581 1.258 . S
C580 O582 1.263 . S
O581 Co578 1.970 . S
O581 C580 1.258 . S
O582 Co579 1.966 . S
O582 C580 1.263 . S
C583 O584 1.235 . S
C583 O610 1.289 . S
O584 C583 1.235 . S
C585 C587 1.400 . S
C585 N588 1.351 . S
C585 C590 1.501 . S
C586 C587 1.387 . S
C586 N589 1.341 . S
C587 C585 1.400 . S
C587 C586 1.387 . S
N588 Co579 2.022 . S
N588 C585 1.351 . S
N588 N589 1.365 . S
N589 C586 1.341 . S
N589 N588 1.365 . S
N589 H609 0.862 . S
C590 C585 1.501 . S
C590 H591 0.961 . S
C590 H592 0.961 . S
C590 H593 0.960 . S
H591 C590 0.961 . S
H592 C590 0.961 . S
H593 C590 0.960 . S
C594 N595 1.342 . S
C594 C598 1.401 . S
C594 C599 1.499 . S
N595 Co578 1.989 . S
N595 C594 1.342 . S
N595 N596 1.388 . S
N596 Co579 1.993 . S
N596 N595 1.388 . S
N596 C597 1.346 . S
C597 N596 1.346 . S
C597 C598 1.396 . S
C597 C607 1.510 . S
C598 C594 1.401 . S
C598 C597 1.396 . S
C599 C594 1.499 . S
C599 H600 0.959 . S
C599 H601 0.960 . S
C599 H602 0.961 . S
H600 C599 0.959 . S
H601 C599 0.960 . S
H602 C599 0.961 . S
O603 Co578 1.967 . S
O603 C611 1.258 . S
O604 Co579 1.941 . S
O604 C611 1.266 . S
H605 C607 0.959 . S
H606 C607 0.961 . S
C607 C597 1.510 . S
C607 H605 0.959 . S
C607 H606 0.961 . S
C607 H608 0.960 . S
H608 C607 0.960 . S
H609 N589 0.862 . S
O610 Co578 1.920 . S
O610 C583 1.289 . S
C611 O603 1.258 . S
C611 O604 1.266 . S
Co612 O615 1.970 . S
Co612 N629 1.989 . S
Co612 O637 1.967 . S
Co612 O644 1.920 . S
Co613 O616 1.966 . S
Co613 N622 2.022 . S
Co613 N630 1.993 . S
Co613 O638 1.941 . S
C614 O615 1.258 . S
C614 O616 1.263 . S
O615 Co612 1.970 . S
O615 C614 1.258 . S
O616 Co613 1.966 . S
O616 C614 1.263 . S
C617 O618 1.235 . S
C617 O644 1.289 . S
O618 C617 1.235 . S
C619 C621 1.400 . S
C619 N622 1.351 . S
C619 C624 1.501 . S
C620 C621 1.387 . S
C620 N623 1.341 . S
C621 C619 1.400 . S
C621 C620 1.387 . S
N622 Co613 2.022 . S
N622 C619 1.351 . S
N622 N623 1.365 . S
N623 C620 1.341 . S
N623 N622 1.365 . S
N623 H643 0.862 . S
C624 C619 1.501 . S
C624 H625 0.961 . S
C624 H626 0.961 . S
C624 H627 0.960 . S
H625 C624 0.961 . S
H626 C624 0.961 . S
H627 C624 0.960 . S
C628 N629 1.342 . S
C628 C632 1.401 . S
C628 C633 1.499 . S
N629 Co612 1.989 . S
N629 C628 1.342 . S
N629 N630 1.388 . S
N630 Co613 1.993 . S
N630 N629 1.388 . S
N630 C631 1.346 . S
C631 N630 1.346 . S
C631 C632 1.396 . S
C631 C641 1.510 . S
C632 C628 1.401 . S
C632 C631 1.396 . S
C633 C628 1.499 . S
C633 H634 0.959 . S
C633 H635 0.960 . S
C633 H636 0.961 . S
H634 C633 0.959 . S
H635 C633 0.960 . S
H636 C633 0.961 . S
O637 Co612 1.967 . S
O637 C645 1.258 . S
O638 Co613 1.941 . S
O638 C645 1.266 . S
H639 C641 0.959 . S
H640 C641 0.961 . S
C641 C631 1.510 . S
C641 H639 0.959 . S
C641 H640 0.961 . S
C641 H642 0.960 . S
H642 C641 0.960 . S
H643 N623 0.862 . S
O644 Co612 1.920 . S
O644 C617 1.289 . S
C645 O637 1.258 . S
C645 O638 1.266 . S
Co646 O649 1.970 . S
Co646 N663 1.989 . S
Co646 O671 1.967 . S
Co646 O678 1.920 . S
Co647 O650 1.966 . S
Co647 N656 2.022 . S
Co647 N664 1.993 . S
Co647 O672 1.941 . S
C648 O649 1.258 . S
C648 O650 1.263 . S
O649 Co646 1.970 . S
O649 C648 1.258 . S
O650 Co647 1.966 . S
O650 C648 1.263 . S
C651 O652 1.235 . S
C651 O678 1.289 . S
O652 C651 1.235 . S
C653 C655 1.400 . S
C653 N656 1.351 . S
C653 C658 1.501 . S
C654 C655 1.387 . S
C654 N657 1.341 . S
C655 C653 1.400 . S
C655 C654 1.387 . S
N656 Co647 2.022 . S
N656 C653 1.351 . S
N656 N657 1.365 . S
N657 C654 1.341 . S
N657 N656 1.365 . S
N657 H677 0.862 . S
C658 C653 1.501 . S
C658 H659 0.961 . S
C658 H660 0.961 . S
C658 H661 0.960 . S
H659 C658 0.961 . S
H660 C658 0.961 . S
H661 C658 0.960 . S
C662 N663 1.342 . S
C662 C666 1.401 . S
C662 C667 1.499 . S
N663 Co646 1.989 . S
N663 C662 1.342 . S
N663 N664 1.388 . S
N664 Co647 1.993 . S
N664 N663 1.388 . S
N664 C665 1.346 . S
C665 N664 1.346 . S
C665 C666 1.396 . S
C665 C675 1.510 . S
C666 C662 1.401 . S
C666 C665 1.396 . S
C667 C662 1.499 . S
C667 H668 0.959 . S
C667 H669 0.960 . S
C667 H670 0.961 . S
H668 C667 0.959 . S
H669 C667 0.960 . S
H670 C667 0.961 . S
O671 Co646 1.967 . S
O671 C679 1.258 . S
O672 Co647 1.941 . S
O672 C679 1.266 . S
H673 C675 0.959 . S
H674 C675 0.961 . S
C675 C665 1.510 . S
C675 H673 0.959 . S
C675 H674 0.961 . S
C675 H676 0.960 . S
H676 C675 0.960 . S
H677 N657 0.862 . S
O678 Co646 1.920 . S
O678 C651 1.289 . S
C679 O671 1.258 . S
C679 O672 1.266 . S
Co680 O683 1.970 . S
Co680 N697 1.989 . S
Co680 O705 1.967 . S
Co680 O712 1.920 . S
Co681 O684 1.966 . S
Co681 N690 2.022 . S
Co681 N698 1.993 . S
Co681 O706 1.941 . S
C682 O683 1.258 . S
C682 O684 1.263 . S
O683 Co680 1.970 . S
O683 C682 1.258 . S
O684 Co681 1.966 . S
O684 C682 1.263 . S
C685 O686 1.235 . S
C685 O712 1.289 . S
O686 C685 1.235 . S
C687 C689 1.400 . S
C687 N690 1.351 . S
C687 C692 1.501 . S
C688 C689 1.387 . S
C688 N691 1.341 . S
C689 C687 1.400 . S
C689 C688 1.387 . S
N690 Co681 2.022 . S
N690 C687 1.351 . S
N690 N691 1.365 . S
N691 C688 1.341 . S
N691 N690 1.365 . S
N691 H711 0.862 . S
C692 C687 1.501 . S
C692 H693 0.961 . S
C692 H694 0.961 . S
C692 H695 0.960 . S
H693 C692 0.961 . S
H694 C692 0.961 . S
H695 C692 0.960 . S
C696 N697 1.342 . S
C696 C700 1.401 . S
C696 C701 1.499 . S
N697 Co680 1.989 . S
N697 C696 1.342 . S
N697 N698 1.388 . S
N698 Co681 1.993 . S
N698 N697 1.388 . S
N698 C699 1.346 . S
C699 N698 1.346 . S
C699 C700 1.396 . S
C699 C709 1.510 . S
C700 C696 1.401 . S
C700 C699 1.396 . S
C701 C696 1.499 . S
C701 H702 0.959 . S
C701 H703 0.960 . S
C701 H704 0.961 . S
H702 C701 0.959 . S
H703 C701 0.960 . S
H704 C701 0.961 . S
O705 Co680 1.967 . S
O705 C713 1.258 . S
O706 Co681 1.941 . S
O706 C713 1.266 . S
H707 C709 0.959 . S
H708 C709 0.961 . S
C709 C699 1.510 . S
C709 H707 0.959 . S
C709 H708 0.961 . S
C709 H710 0.960 . S
H710 C709 0.960 . S
H711 N691 0.862 . S
O712 Co680 1.920 . S
O712 C685 1.289 . S
C713 O705 1.258 . S
C713 O706 1.266 . S
Co714 O717 1.970 . S
Co714 N731 1.989 . S
Co714 O739 1.967 . S
Co714 O746 1.920 . S
Co715 O718 1.966 . S
Co715 N724 2.022 . S
Co715 N732 1.993 . S
Co715 O740 1.941 . S
C716 O717 1.258 . S
C716 O718 1.263 . S
O717 Co714 1.970 . S
O717 C716 1.258 . S
O718 Co715 1.966 . S
O718 C716 1.263 . S
C719 O720 1.235 . S
C719 O746 1.289 . S
O720 C719 1.235 . S
C721 C723 1.400 . S
C721 N724 1.351 . S
C721 C726 1.501 . S
C722 C723 1.387 . S
C722 N725 1.341 . S
C723 C721 1.400 . S
C723 C722 1.387 . S
N724 Co715 2.022 . S
N724 C721 1.351 . S
N724 N725 1.365 . S
N725 C722 1.341 . S
N725 N724 1.365 . S
N725 H745 0.862 . S
C726 C721 1.501 . S
C726 H727 0.961 . S
C726 H728 0.961 . S
C726 H729 0.960 . S
H727 C726 0.961 . S
H728 C726 0.961 . S
H729 C726 0.960 . S
C730 N731 1.342 . S
C730 C734 1.401 . S
C730 C735 1.499 . S
N731 Co714 1.989 . S
N731 C730 1.342 . S
N731 N732 1.388 . S
N732 Co715 1.993 . S
N732 N731 1.388 . S
N732 C733 1.346 . S
C733 N732 1.346 . S
C733 C734 1.396 . S
C733 C743 1.510 . S
C734 C730 1.401 . S
C734 C733 1.396 . S
C735 C730 1.499 . S
C735 H736 0.959 . S
C735 H737 0.960 . S
C735 H738 0.961 . S
H736 C735 0.959 . S
H737 C735 0.960 . S
H738 C735 0.961 . S
O739 Co714 1.967 . S
O739 C747 1.258 . S
O740 Co715 1.941 . S
O740 C747 1.266 . S
H741 C743 0.959 . S
H742 C743 0.961 . S
C743 C733 1.510 . S
C743 H741 0.959 . S
C743 H742 0.961 . S
C743 H744 0.960 . S
H744 C743 0.960 . S
H745 N725 0.862 . S
O746 Co714 1.920 . S
O746 C719 1.289 . S
C747 O739 1.258 . S
C747 O740 1.266 . S
Co748 O751 1.970 . S
Co748 N765 1.989 . S
Co748 O773 1.967 . S
Co748 O780 1.920 . S
Co749 O752 1.966 . S
Co749 N758 2.022 . S
Co749 N766 1.993 . S
Co749 O774 1.941 . S
C750 O751 1.258 . S
C750 O752 1.263 . S
O751 Co748 1.970 . S
O751 C750 1.258 . S
O752 Co749 1.966 . S
O752 C750 1.263 . S
C753 O754 1.235 . S
C753 O780 1.289 . S
O754 C753 1.235 . S
C755 C757 1.400 . S
C755 N758 1.351 . S
C755 C760 1.501 . S
C756 C757 1.387 . S
C756 N759 1.341 . S
C757 C755 1.400 . S
C757 C756 1.387 . S
N758 Co749 2.022 . S
N758 C755 1.351 . S
N758 N759 1.365 . S
N759 C756 1.341 . S
N759 N758 1.365 . S
N759 H779 0.862 . S
C760 C755 1.501 . S
C760 H761 0.961 . S
C760 H762 0.961 . S
C760 H763 0.960 . S
H761 C760 0.961 . S
H762 C760 0.961 . S
H763 C760 0.960 . S
C764 N765 1.342 . S
C764 C768 1.401 . S
C764 C769 1.499 . S
N765 Co748 1.989 . S
N765 C764 1.342 . S
N765 N766 1.388 . S
N766 Co749 1.993 . S
N766 N765 1.388 . S
N766 C767 1.346 . S
C767 N766 1.346 . S
C767 C768 1.396 . S
C767 C777 1.510 . S
C768 C764 1.401 . S
C768 C767 1.396 . S
C769 C764 1.499 . S
C769 H770 0.959 . S
C769 H771 0.960 . S
C769 H772 0.961 . S
H770 C769 0.959 . S
H771 C769 0.960 . S
H772 C769 0.961 . S
O773 Co748 1.967 . S
O773 C781 1.258 . S
O774 Co749 1.941 . S
O774 C781 1.266 . S
H775 C777 0.959 . S
H776 C777 0.961 . S
C777 C767 1.510 . S
C777 H775 0.959 . S
C777 H776 0.961 . S
C777 H778 0.960 . S
H778 C777 0.960 . S
H779 N759 0.862 . S
O780 Co748 1.920 . S
O780 C753 1.289 . S
C781 O773 1.258 . S
C781 O774 1.266 . S
Co782 O785 1.970 . S
Co782 N799 1.989 . S
Co782 O807 1.967 . S
Co782 O814 1.920 . S
Co783 O786 1.966 . S
Co783 N792 2.022 . S
Co783 N800 1.993 . S
Co783 O808 1.941 . S
C784 O785 1.258 . S
C784 O786 1.263 . S
O785 Co782 1.970 . S
O785 C784 1.258 . S
O786 Co783 1.966 . S
O786 C784 1.263 . S
C787 O788 1.235 . S
C787 O814 1.289 . S
O788 C787 1.235 . S
C789 C791 1.400 . S
C789 N792 1.351 . S
C789 C794 1.501 . S
C790 C791 1.387 . S
C790 N793 1.341 . S
C791 C789 1.400 . S
C791 C790 1.387 . S
N792 Co783 2.022 . S
N792 C789 1.351 . S
N792 N793 1.365 . S
N793 C790 1.341 . S
N793 N792 1.365 . S
N793 H813 0.862 . S
C794 C789 1.501 . S
C794 H795 0.961 . S
C794 H796 0.961 . S
C794 H797 0.960 . S
H795 C794 0.961 . S
H796 C794 0.961 . S
H797 C794 0.960 . S
C798 N799 1.342 . S
C798 C802 1.401 . S
C798 C803 1.499 . S
N799 Co782 1.989 . S
N799 C798 1.342 . S
N799 N800 1.388 . S
N800 Co783 1.993 . S
N800 N799 1.388 . S
N800 C801 1.346 . S
C801 N800 1.346 . S
C801 C802 1.396 . S
C801 C811 1.510 . S
C802 C798 1.401 . S
C802 C801 1.396 . S
C803 C798 1.499 . S
C803 H804 0.959 . S
C803 H805 0.960 . S
C803 H806 0.961 . S
H804 C803 0.959 . S
H805 C803 0.960 . S
H806 C803 0.961 . S
O807 Co782 1.967 . S
O807 C815 1.258 . S
O808 Co783 1.941 . S
O808 C815 1.266 . S
H809 C811 0.959 . S
H810 C811 0.961 . S
C811 C801 1.510 . S
C811 H809 0.959 . S
C811 H810 0.961 . S
C811 H812 0.960 . S
H812 C811 0.960 . S
H813 N793 0.862 . S
O814 Co782 1.920 . S
O814 C787 1.289 . S
C815 O807 1.258 . S
C815 O808 1.266 . S
Co816 O819 1.970 . S
Co816 N833 1.989 . S
Co816 O841 1.967 . S
Co816 O848 1.920 . S
Co817 O820 1.966 . S
Co817 N826 2.022 . S
Co817 N834 1.993 . S
Co817 O842 1.941 . S
C818 O819 1.258 . S
C818 O820 1.263 . S
O819 Co816 1.970 . S
O819 C818 1.258 . S
O820 Co817 1.966 . S
O820 C818 1.263 . S
C821 O822 1.235 . S
C821 O848 1.289 . S
O822 C821 1.235 . S
C823 C825 1.400 . S
C823 N826 1.351 . S
C823 C828 1.501 . S
C824 C825 1.387 . S
C824 N827 1.341 . S
C825 C823 1.400 . S
C825 C824 1.387 . S
N826 Co817 2.022 . S
N826 C823 1.351 . S
N826 N827 1.365 . S
N827 C824 1.341 . S
N827 N826 1.365 . S
N827 H847 0.862 . S
C828 C823 1.501 . S
C828 H829 0.961 . S
C828 H830 0.961 . S
C828 H831 0.960 . S
H829 C828 0.961 . S
H830 C828 0.961 . S
H831 C828 0.960 . S
C832 N833 1.342 . S
C832 C836 1.401 . S
C832 C837 1.499 . S
N833 Co816 1.989 . S
N833 C832 1.342 . S
N833 N834 1.388 . S
N834 Co817 1.993 . S
N834 N833 1.388 . S
N834 C835 1.346 . S
C835 N834 1.346 . S
C835 C836 1.396 . S
C835 C845 1.510 . S
C836 C832 1.401 . S
C836 C835 1.396 . S
C837 C832 1.499 . S
C837 H838 0.959 . S
C837 H839 0.960 . S
C837 H840 0.961 . S
H838 C837 0.959 . S
H839 C837 0.960 . S
H840 C837 0.961 . S
O841 Co816 1.967 . S
O841 C849 1.258 . S
O842 Co817 1.941 . S
O842 C849 1.266 . S
H843 C845 0.959 . S
H844 C845 0.961 . S
C845 C835 1.510 . S
C845 H843 0.959 . S
C845 H844 0.961 . S
C845 H846 0.960 . S
H846 C845 0.960 . S
H847 N827 0.862 . S
O848 Co816 1.920 . S
O848 C821 1.289 . S
C849 O841 1.258 . S
C849 O842 1.266 . S
Co850 O853 1.970 . S
Co850 N867 1.989 . S
Co850 O875 1.967 . S
Co850 O882 1.920 . S
Co851 O854 1.966 . S
Co851 N860 2.022 . S
Co851 N868 1.993 . S
Co851 O876 1.941 . S
C852 O853 1.258 . S
C852 O854 1.263 . S
O853 Co850 1.970 . S
O853 C852 1.258 . S
O854 Co851 1.966 . S
O854 C852 1.263 . S
C855 O856 1.235 . S
C855 O882 1.289 . S
O856 C855 1.235 . S
C857 C859 1.400 . S
C857 N860 1.351 . S
C857 C862 1.501 . S
C858 C859 1.387 . S
C858 N861 1.341 . S
C859 C857 1.400 . S
C859 C858 1.387 . S
N860 Co851 2.022 . S
N860 C857 1.351 . S
N860 N861 1.365 . S
N861 C858 1.341 . S
N861 N860 1.365 . S
N861 H881 0.862 . S
C862 C857 1.501 . S
C862 H863 0.961 . S
C862 H864 0.961 . S
C862 H865 0.960 . S
H863 C862 0.961 . S
H864 C862 0.961 . S
H865 C862 0.960 . S
C866 N867 1.342 . S
C866 C870 1.401 . S
C866 C871 1.499 . S
N867 Co850 1.989 . S
N867 C866 1.342 . S
N867 N868 1.388 . S
N868 Co851 1.993 . S
N868 N867 1.388 . S
N868 C869 1.346 . S
C869 N868 1.346 . S
C869 C870 1.396 . S
C869 C879 1.510 . S
C870 C866 1.401 . S
C870 C869 1.396 . S
C871 C866 1.499 . S
C871 H872 0.959 . S
C871 H873 0.960 . S
C871 H874 0.961 . S
H872 C871 0.959 . S
H873 C871 0.960 . S
H874 C871 0.961 . S
O875 Co850 1.967 . S
O875 C883 1.258 . S
O876 Co851 1.941 . S
O876 C883 1.266 . S
H877 C879 0.959 . S
H878 C879 0.961 . S
C879 C869 1.510 . S
C879 H877 0.959 . S
C879 H878 0.961 . S
C879 H880 0.960 . S
H880 C879 0.960 . S
H881 N861 0.862 . S
O882 Co850 1.920 . S
O882 C855 1.289 . S
C883 O875 1.258 . S
C883 O876 1.266 . S
Co884 O887 1.970 . S
Co884 N901 1.989 . S
Co884 O909 1.967 . S
Co884 O916 1.920 . S
Co885 O888 1.966 . S
Co885 N894 2.022 . S
Co885 N902 1.993 . S
Co885 O910 1.941 . S
C886 O887 1.258 . S
C886 O888 1.263 . S
O887 Co884 1.970 . S
O887 C886 1.258 . S
O888 Co885 1.966 . S
O888 C886 1.263 . S
C889 O890 1.235 . S
C889 O916 1.289 . S
O890 C889 1.235 . S
C891 C893 1.400 . S
C891 N894 1.351 . S
C891 C896 1.501 . S
C892 C893 1.387 . S
C892 N895 1.341 . S
C893 C891 1.400 . S
C893 C892 1.387 . S
N894 Co885 2.022 . S
N894 C891 1.351 . S
N894 N895 1.365 . S
N895 C892 1.341 . S
N895 N894 1.365 . S
N895 H915 0.862 . S
C896 C891 1.501 . S
C896 H897 0.961 . S
C896 H898 0.961 . S
C896 H899 0.960 . S
H897 C896 0.961 . S
H898 C896 0.961 . S
H899 C896 0.960 . S
C900 N901 1.342 . S
C900 C904 1.401 . S
C900 C905 1.499 . S
N901 Co884 1.989 . S
N901 C900 1.342 . S
N901 N902 1.388 . S
N902 Co885 1.993 . S
N902 N901 1.388 . S
N902 C903 1.346 . S
C903 N902 1.346 . S
C903 C904 1.396 . S
C903 C913 1.510 . S
C904 C900 1.401 . S
C904 C903 1.396 . S
C905 C900 1.499 . S
C905 H906 0.959 . S
C905 H907 0.960 . S
C905 H908 0.961 . S
H906 C905 0.959 . S
H907 C905 0.960 . S
H908 C905 0.961 . S
O909 Co884 1.967 . S
O909 C917 1.258 . S
O910 Co885 1.941 . S
O910 C917 1.266 . S
H911 C913 0.959 . S
H912 C913 0.961 . S
C913 C903 1.510 . S
C913 H911 0.959 . S
C913 H912 0.961 . S
C913 H914 0.960 . S
H914 C913 0.960 . S
H915 N895 0.862 . S
O916 Co884 1.920 . S
O916 C889 1.289 . S
C917 O909 1.258 . S
C917 O910 1.266 . S
Co918 O921 1.970 . S
Co918 N935 1.989 . S
Co918 O943 1.967 . S
Co918 O950 1.920 . S
Co919 O922 1.966 . S
Co919 N928 2.022 . S
Co919 N936 1.993 . S
Co919 O944 1.941 . S
C920 O921 1.258 . S
C920 O922 1.263 . S
O921 Co918 1.970 . S
O921 C920 1.258 . S
O922 Co919 1.966 . S
O922 C920 1.263 . S
C923 O924 1.235 . S
C923 O950 1.289 . S
O924 C923 1.235 . S
C925 C927 1.400 . S
C925 N928 1.351 . S
C925 C930 1.501 . S
C926 C927 1.387 . S
C926 N929 1.341 . S
C927 C925 1.400 . S
C927 C926 1.387 . S
N928 Co919 2.022 . S
N928 C925 1.351 . S
N928 N929 1.365 . S
N929 C926 1.341 . S
N929 N928 1.365 . S
N929 H949 0.862 . S
C930 C925 1.501 . S
C930 H931 0.961 . S
C930 H932 0.961 . S
C930 H933 0.960 . S
H931 C930 0.961 . S
H932 C930 0.961 . S
H933 C930 0.960 . S
C934 N935 1.342 . S
C934 C938 1.401 . S
C934 C939 1.499 . S
N935 Co918 1.989 . S
N935 C934 1.342 . S
N935 N936 1.388 . S
N936 Co919 1.993 . S
N936 N935 1.388 . S
N936 C937 1.346 . S
C937 N936 1.346 . S
C937 C938 1.396 . S
C937 C947 1.510 . S
C938 C934 1.401 . S
C938 C937 1.396 . S
C939 C934 1.499 . S
C939 H940 0.959 . S
C939 H941 0.960 . S
C939 H942 0.961 . S
H940 C939 0.959 . S
H941 C939 0.960 . S
H942 C939 0.961 . S
O943 Co918 1.967 . S
O943 C951 1.258 . S
O944 Co919 1.941 . S
O944 C951 1.266 . S
H945 C947 0.959 . S
H946 C947 0.961 . S
C947 C937 1.510 . S
C947 H945 0.959 . S
C947 H946 0.961 . S
C947 H948 0.960 . S
H948 C947 0.960 . S
H949 N929 0.862 . S
O950 Co918 1.920 . S
O950 C923 1.289 . S
C951 O943 1.258 . S
C951 O944 1.266 . S
Co952 O955 1.970 . S
Co952 N969 1.989 . S
Co952 O977 1.967 . S
Co952 O984 1.920 . S
Co953 O956 1.966 . S
Co953 N962 2.022 . S
Co953 N970 1.993 . S
Co953 O978 1.941 . S
C954 O955 1.258 . S
C954 O956 1.263 . S
O955 Co952 1.970 . S
O955 C954 1.258 . S
O956 Co953 1.966 . S
O956 C954 1.263 . S
C957 O958 1.235 . S
C957 O984 1.289 . S
O958 C957 1.235 . S
C959 C961 1.400 . S
C959 N962 1.351 . S
C959 C964 1.501 . S
C960 C961 1.387 . S
C960 N963 1.341 . S
C961 C959 1.400 . S
C961 C960 1.387 . S
N962 Co953 2.022 . S
N962 C959 1.351 . S
N962 N963 1.365 . S
N963 C960 1.341 . S
N963 N962 1.365 . S
N963 H983 0.862 . S
C964 C959 1.501 . S
C964 H965 0.961 . S
C964 H966 0.961 . S
C964 H967 0.960 . S
H965 C964 0.961 . S
H966 C964 0.961 . S
H967 C964 0.960 . S
C968 N969 1.342 . S
C968 C972 1.401 . S
C968 C973 1.499 . S
N969 Co952 1.989 . S
N969 C968 1.342 . S
N969 N970 1.388 . S
N970 Co953 1.993 . S
N970 N969 1.388 . S
N970 C971 1.346 . S
C971 N970 1.346 . S
C971 C972 1.396 . S
C971 C981 1.510 . S
C972 C968 1.401 . S
C972 C971 1.396 . S
C973 C968 1.499 . S
C973 H974 0.959 . S
C973 H975 0.960 . S
C973 H976 0.961 . S
H974 C973 0.959 . S
H975 C973 0.960 . S
H976 C973 0.961 . S
O977 Co952 1.967 . S
O977 C985 1.258 . S
O978 Co953 1.941 . S
O978 C985 1.266 . S
H979 C981 0.959 . S
H980 C981 0.961 . S
C981 C971 1.510 . S
C981 H979 0.959 . S
C981 H980 0.961 . S
C981 H982 0.960 . S
H982 C981 0.960 . S
H983 N963 0.862 . S
O984 Co952 1.920 . S
O984 C957 1.289 . S
C985 O977 1.258 . S
C985 O978 1.266 . S
Co986 O989 1.970 . S
Co986 N1003 1.989 . S
Co986 O1011 1.967 . S
Co986 O1018 1.920 . S
Co987 O990 1.966 . S
Co987 N996 2.022 . S
Co987 N1004 1.993 . S
Co987 O1012 1.941 . S
C988 O989 1.258 . S
C988 O990 1.263 . S
O989 Co986 1.970 . S
O989 C988 1.258 . S
O990 Co987 1.966 . S
O990 C988 1.263 . S
C991 O992 1.235 . S
C991 O1018 1.289 . S
O992 C991 1.235 . S
C993 C995 1.400 . S
C993 N996 1.351 . S
C993 C998 1.501 . S
C994 C995 1.387 . S
C994 N997 1.341 . S
C995 C993 1.400 . S
C995 C994 1.387 . S
N996 Co987 2.022 . S
N996 C993 1.351 . S
N996 N997 1.365 . S
N997 C994 1.341 . S
N997 N996 1.365 . S
N997 H1017 0.862 . S
C998 C993 1.501 . S
C998 H999 0.961 . S
C998 H1000 0.961 . S
C998 H1001 0.960 . S
H999 C998 0.961 . S
H1000 C998 0.961 . S
H1001 C998 0.960 . S
C1002 N1003 1.342 . S
C1002 C1006 1.401 . S
C1002 C1007 1.499 . S
N1003 Co986 1.989 . S
N1003 C1002 1.342 . S
N1003 N1004 1.388 . S
N1004 Co987 1.993 . S
N1004 N1003 1.388 . S
N1004 C1005 1.346 . S
C1005 N1004 1.346 . S
C1005 C1006 1.396 . S
C1005 C1015 1.510 . S
C1006 C1002 1.401 . S
C1006 C1005 1.396 . S
C1007 C1002 1.499 . S
C1007 H1008 0.959 . S
C1007 H1009 0.960 . S
C1007 H1010 0.961 . S
H1008 C1007 0.959 . S
H1009 C1007 0.960 . S
H1010 C1007 0.961 . S
O1011 Co986 1.967 . S
O1011 C1019 1.258 . S
O1012 Co987 1.941 . S
O1012 C1019 1.266 . S
H1013 C1015 0.959 . S
H1014 C1015 0.961 . S
C1015 C1005 1.510 . S
C1015 H1013 0.959 . S
C1015 H1014 0.961 . S
C1015 H1016 0.960 . S
H1016 C1015 0.960 . S
H1017 N997 0.862 . S
O1018 Co986 1.920 . S
O1018 C991 1.289 . S
C1019 O1011 1.258 . S
C1019 O1012 1.266 . S
Co1020 O1023 1.970 . S
Co1020 N1037 1.989 . S
Co1020 O1045 1.967 . S
Co1020 O1052 1.920 . S
Co1021 O1024 1.966 . S
Co1021 N1030 2.022 . S
Co1021 N1038 1.993 . S
Co1021 O1046 1.941 . S
C1022 O1023 1.258 . S
C1022 O1024 1.263 . S
O1023 Co1020 1.970 . S
O1023 C1022 1.258 . S
O1024 Co1021 1.966 . S
O1024 C1022 1.263 . S
C1025 O1026 1.235 . S
C1025 O1052 1.289 . S
O1026 C1025 1.235 . S
C1027 C1029 1.400 . S
C1027 N1030 1.351 . S
C1027 C1032 1.501 . S
C1028 C1029 1.387 . S
C1028 N1031 1.341 . S
C1029 C1027 1.400 . S
C1029 C1028 1.387 . S
N1030 Co1021 2.022 . S
N1030 C1027 1.351 . S
N1030 N1031 1.365 . S
N1031 C1028 1.341 . S
N1031 N1030 1.365 . S
N1031 H1051 0.862 . S
C1032 C1027 1.501 . S
C1032 H1033 0.961 . S
C1032 H1034 0.961 . S
C1032 H1035 0.960 . S
H1033 C1032 0.961 . S
H1034 C1032 0.961 . S
H1035 C1032 0.960 . S
C1036 N1037 1.342 . S
C1036 C1040 1.401 . S
C1036 C1041 1.499 . S
N1037 Co1020 1.989 . S
N1037 C1036 1.342 . S
N1037 N1038 1.388 . S
N1038 Co1021 1.993 . S
N1038 N1037 1.388 . S
N1038 C1039 1.346 . S
C1039 N1038 1.346 . S
C1039 C1040 1.396 . S
C1039 C1049 1.510 . S
C1040 C1036 1.401 . S
C1040 C1039 1.396 . S
C1041 C1036 1.499 . S
C1041 H1042 0.959 . S
C1041 H1043 0.960 . S
C1041 H1044 0.961 . S
H1042 C1041 0.959 . S
H1043 C1041 0.960 . S
H1044 C1041 0.961 . S
O1045 Co1020 1.967 . S
O1045 C1053 1.258 . S
O1046 Co1021 1.941 . S
O1046 C1053 1.266 . S
H1047 C1049 0.959 . S
H1048 C1049 0.961 . S
C1049 C1039 1.510 . S
C1049 H1047 0.959 . S
C1049 H1048 0.961 . S
C1049 H1050 0.960 . S
H1050 C1049 0.960 . S
H1051 N1031 0.862 . S
O1052 Co1020 1.920 . S
O1052 C1025 1.289 . S
C1053 O1045 1.258 . S
C1053 O1046 1.266 . S
Co1054 O1057 1.970 . S
Co1054 N1071 1.989 . S
Co1054 O1079 1.967 . S
Co1054 O1086 1.920 . S
Co1055 O1058 1.966 . S
Co1055 N1064 2.022 . S
Co1055 N1072 1.993 . S
Co1055 O1080 1.941 . S
C1056 O1057 1.258 . S
C1056 O1058 1.263 . S
O1057 Co1054 1.970 . S
O1057 C1056 1.258 . S
O1058 Co1055 1.966 . S
O1058 C1056 1.263 . S
C1059 O1060 1.235 . S
C1059 O1086 1.289 . S
O1060 C1059 1.235 . S
C1061 C1063 1.400 . S
C1061 N1064 1.351 . S
C1061 C1066 1.501 . S
C1062 C1063 1.387 . S
C1062 N1065 1.341 . S
C1063 C1061 1.400 . S
C1063 C1062 1.387 . S
N1064 Co1055 2.022 . S
N1064 C1061 1.351 . S
N1064 N1065 1.365 . S
N1065 C1062 1.341 . S
N1065 N1064 1.365 . S
N1065 H1085 0.862 . S
C1066 C1061 1.501 . S
C1066 H1067 0.961 . S
C1066 H1068 0.961 . S
C1066 H1069 0.960 . S
H1067 C1066 0.961 . S
H1068 C1066 0.961 . S
H1069 C1066 0.960 . S
C1070 N1071 1.342 . S
C1070 C1074 1.401 . S
C1070 C1075 1.499 . S
N1071 Co1054 1.989 . S
N1071 C1070 1.342 . S
N1071 N1072 1.388 . S
N1072 Co1055 1.993 . S
N1072 N1071 1.388 . S
N1072 C1073 1.346 . S
C1073 N1072 1.346 . S
C1073 C1074 1.396 . S
C1073 C1083 1.510 . S
C1074 C1070 1.401 . S
C1074 C1073 1.396 . S
C1075 C1070 1.499 . S
C1075 H1076 0.959 . S
C1075 H1077 0.960 . S
C1075 H1078 0.961 . S
H1076 C1075 0.959 . S
H1077 C1075 0.960 . S
H1078 C1075 0.961 . S
O1079 Co1054 1.967 . S
O1079 C1087 1.258 . S
O1080 Co1055 1.941 . S
O1080 C1087 1.266 . S
H1081 C1083 0.959 . S
H1082 C1083 0.961 . S
C1083 C1073 1.510 . S
C1083 H1081 0.959 . S
C1083 H1082 0.961 . S
C1083 H1084 0.960 . S
H1084 C1083 0.960 . S
H1085 N1065 0.862 . S
O1086 Co1054 1.920 . S
O1086 C1059 1.289 . S
C1087 O1079 1.258 . S
C1087 O1080 1.266 . S
Co1088 O1091 1.970 . S
Co1088 N1105 1.989 . S
Co1088 O1113 1.967 . S
Co1088 O1120 1.920 . S
Co1089 O1092 1.966 . S
Co1089 N1098 2.022 . S
Co1089 N1106 1.993 . S
Co1089 O1114 1.941 . S
C1090 O1091 1.258 . S
C1090 O1092 1.263 . S
O1091 Co1088 1.970 . S
O1091 C1090 1.258 . S
O1092 Co1089 1.966 . S
O1092 C1090 1.263 . S
C1093 O1094 1.235 . S
C1093 O1120 1.289 . S
O1094 C1093 1.235 . S
C1095 C1097 1.400 . S
C1095 N1098 1.351 . S
C1095 C1100 1.501 . S
C1096 C1097 1.387 . S
C1096 N1099 1.341 . S
C1097 C1095 1.400 . S
C1097 C1096 1.387 . S
N1098 Co1089 2.022 . S
N1098 C1095 1.351 . S
N1098 N1099 1.365 . S
N1099 C1096 1.341 . S
N1099 N1098 1.365 . S
N1099 H1119 0.862 . S
C1100 C1095 1.501 . S
C1100 H1101 0.961 . S
C1100 H1102 0.961 . S
C1100 H1103 0.960 . S
H1101 C1100 0.961 . S
H1102 C1100 0.961 . S
H1103 C1100 0.960 . S
C1104 N1105 1.342 . S
C1104 C1108 1.401 . S
C1104 C1109 1.499 . S
N1105 Co1088 1.989 . S
N1105 C1104 1.342 . S
N1105 N1106 1.388 . S
N1106 Co1089 1.993 . S
N1106 N1105 1.388 . S
N1106 C1107 1.346 . S
C1107 N1106 1.346 . S
C1107 C1108 1.396 . S
C1107 C1117 1.510 . S
C1108 C1104 1.401 . S
C1108 C1107 1.396 . S
C1109 C1104 1.499 . S
C1109 H1110 0.959 . S
C1109 H1111 0.960 . S
C1109 H1112 0.961 . S
H1110 C1109 0.959 . S
H1111 C1109 0.960 . S
H1112 C1109 0.961 . S
O1113 Co1088 1.967 . S
O1113 C1121 1.258 . S
O1114 Co1089 1.941 . S
O1114 C1121 1.266 . S
H1115 C1117 0.959 . S
H1116 C1117 0.961 . S
C1117 C1107 1.510 . S
C1117 H1115 0.959 . S
C1117 H1116 0.961 . S
C1117 H1118 0.960 . S
H1118 C1117 0.960 . S
H1119 N1099 0.862 . S
O1120 Co1088 1.920 . S
O1120 C1093 1.289 . S
C1121 O1113 1.258 . S
C1121 O1114 1.266 . S
Co1122 O1125 1.970 . S
Co1122 N1139 1.989 . S
Co1122 O1147 1.967 . S
Co1122 O1154 1.920 . S
Co1123 O1126 1.966 . S
Co1123 N1132 2.022 . S
Co1123 N1140 1.993 . S
Co1123 O1148 1.941 . S
C1124 O1125 1.258 . S
C1124 O1126 1.263 . S
O1125 Co1122 1.970 . S
O1125 C1124 1.258 . S
O1126 Co1123 1.966 . S
O1126 C1124 1.263 . S
C1127 O1128 1.235 . S
C1127 O1154 1.289 . S
O1128 C1127 1.235 . S
C1129 C1131 1.400 . S
C1129 N1132 1.351 . S
C1129 C1134 1.501 . S
C1130 C1131 1.387 . S
C1130 N1133 1.341 . S
C1131 C1129 1.400 . S
C1131 C1130 1.387 . S
N1132 Co1123 2.022 . S
N1132 C1129 1.351 . S
N1132 N1133 1.365 . S
N1133 C1130 1.341 . S
N1133 N1132 1.365 . S
N1133 H1153 0.862 . S
C1134 C1129 1.501 . S
C1134 H1135 0.961 . S
C1134 H1136 0.961 . S
C1134 H1137 0.960 . S
H1135 C1134 0.961 . S
H1136 C1134 0.961 . S
H1137 C1134 0.960 . S
C1138 N1139 1.342 . S
C1138 C1142 1.401 . S
C1138 C1143 1.499 . S
N1139 Co1122 1.989 . S
N1139 C1138 1.342 . S
N1139 N1140 1.388 . S
N1140 Co1123 1.993 . S
N1140 N1139 1.388 . S
N1140 C1141 1.346 . S
C1141 N1140 1.346 . S
C1141 C1142 1.396 . S
C1141 C1151 1.510 . S
C1142 C1138 1.401 . S
C1142 C1141 1.396 . S
C1143 C1138 1.499 . S
C1143 H1144 0.959 . S
C1143 H1145 0.960 . S
C1143 H1146 0.961 . S
H1144 C1143 0.959 . S
H1145 C1143 0.960 . S
H1146 C1143 0.961 . S
O1147 Co1122 1.967 . S
O1147 C1155 1.258 . S
O1148 Co1123 1.941 . S
O1148 C1155 1.266 . S
H1149 C1151 0.959 . S
H1150 C1151 0.961 . S
C1151 C1141 1.510 . S
C1151 H1149 0.959 . S
C1151 H1150 0.961 . S
C1151 H1152 0.960 . S
H1152 C1151 0.960 . S
H1153 N1133 0.862 . S
O1154 Co1122 1.920 . S
O1154 C1127 1.289 . S
C1155 O1147 1.258 . S
C1155 O1148 1.266 . S
Co1156 O1159 1.970 . S
Co1156 N1173 1.989 . S
Co1156 O1181 1.967 . S
Co1156 O1188 1.920 . S
Co1157 O1160 1.966 . S
Co1157 N1166 2.022 . S
Co1157 N1174 1.993 . S
Co1157 O1182 1.941 . S
C1158 O1159 1.258 . S
C1158 O1160 1.263 . S
O1159 Co1156 1.970 . S
O1159 C1158 1.258 . S
O1160 Co1157 1.966 . S
O1160 C1158 1.263 . S
C1161 O1162 1.235 . S
C1161 O1188 1.289 . S
O1162 C1161 1.235 . S
C1163 C1165 1.400 . S
C1163 N1166 1.351 . S
C1163 C1168 1.501 . S
C1164 C1165 1.387 . S
C1164 N1167 1.341 . S
C1165 C1163 1.400 . S
C1165 C1164 1.387 . S
N1166 Co1157 2.022 . S
N1166 C1163 1.351 . S
N1166 N1167 1.365 . S
N1167 C1164 1.341 . S
N1167 N1166 1.365 . S
N1167 H1187 0.862 . S
C1168 C1163 1.501 . S
C1168 H1169 0.961 . S
C1168 H1170 0.961 . S
C1168 H1171 0.960 . S
H1169 C1168 0.961 . S
H1170 C1168 0.961 . S
H1171 C1168 0.960 . S
C1172 N1173 1.342 . S
C1172 C1176 1.401 . S
C1172 C1177 1.499 . S
N1173 Co1156 1.989 . S
N1173 C1172 1.342 . S
N1173 N1174 1.388 . S
N1174 Co1157 1.993 . S
N1174 N1173 1.388 . S
N1174 C1175 1.346 . S
C1175 N1174 1.346 . S
C1175 C1176 1.396 . S
C1175 C1185 1.510 . S
C1176 C1172 1.401 . S
C1176 C1175 1.396 . S
C1177 C1172 1.499 . S
C1177 H1178 0.959 . S
C1177 H1179 0.960 . S
C1177 H1180 0.961 . S
H1178 C1177 0.959 . S
H1179 C1177 0.960 . S
H1180 C1177 0.961 . S
O1181 Co1156 1.967 . S
O1181 C1189 1.258 . S
O1182 Co1157 1.941 . S
O1182 C1189 1.266 . S
H1183 C1185 0.959 . S
H1184 C1185 0.961 . S
C1185 C1175 1.510 . S
C1185 H1183 0.959 . S
C1185 H1184 0.961 . S
C1185 H1186 0.960 . S
H1186 C1185 0.960 . S
H1187 N1167 0.862 . S
O1188 Co1156 1.920 . S
O1188 C1161 1.289 . S
C1189 O1181 1.258 . S
C1189 O1182 1.266 . S
Co1190 O1193 1.970 . S
Co1190 N1207 1.989 . S
Co1190 O1215 1.967 . S
Co1190 O1222 1.920 . S
Co1191 O1194 1.966 . S
Co1191 N1200 2.022 . S
Co1191 N1208 1.993 . S
Co1191 O1216 1.941 . S
C1192 O1193 1.258 . S
C1192 O1194 1.263 . S
O1193 Co1190 1.970 . S
O1193 C1192 1.258 . S
O1194 Co1191 1.966 . S
O1194 C1192 1.263 . S
C1195 O1196 1.235 . S
C1195 O1222 1.289 . S
O1196 C1195 1.235 . S
C1197 C1199 1.400 . S
C1197 N1200 1.351 . S
C1197 C1202 1.501 . S
C1198 C1199 1.387 . S
C1198 N1201 1.341 . S
C1199 C1197 1.400 . S
C1199 C1198 1.387 . S
N1200 Co1191 2.022 . S
N1200 C1197 1.351 . S
N1200 N1201 1.365 . S
N1201 C1198 1.341 . S
N1201 N1200 1.365 . S
N1201 H1221 0.862 . S
C1202 C1197 1.501 . S
C1202 H1203 0.961 . S
C1202 H1204 0.961 . S
C1202 H1205 0.960 . S
H1203 C1202 0.961 . S
H1204 C1202 0.961 . S
H1205 C1202 0.960 . S
C1206 N1207 1.342 . S
C1206 C1210 1.401 . S
C1206 C1211 1.499 . S
N1207 Co1190 1.989 . S
N1207 C1206 1.342 . S
N1207 N1208 1.388 . S
N1208 Co1191 1.993 . S
N1208 N1207 1.388 . S
N1208 C1209 1.346 . S
C1209 N1208 1.346 . S
C1209 C1210 1.396 . S
C1209 C1219 1.510 . S
C1210 C1206 1.401 . S
C1210 C1209 1.396 . S
C1211 C1206 1.499 . S
C1211 H1212 0.959 . S
C1211 H1213 0.960 . S
C1211 H1214 0.961 . S
H1212 C1211 0.959 . S
H1213 C1211 0.960 . S
H1214 C1211 0.961 . S
O1215 Co1190 1.967 . S
O1215 C1223 1.258 . S
O1216 Co1191 1.941 . S
O1216 C1223 1.266 . S
H1217 C1219 0.959 . S
H1218 C1219 0.961 . S
C1219 C1209 1.510 . S
C1219 H1217 0.959 . S
C1219 H1218 0.961 . S
C1219 H1220 0.960 . S
H1220 C1219 0.960 . S
H1221 N1201 0.862 . S
O1222 Co1190 1.920 . S
O1222 C1195 1.289 . S
C1223 O1215 1.258 . S
C1223 O1216 1.266 . S
H1224 C1232 0.950 . S
H1225 C1237 0.950 . S
H1226 C1234 0.950 . S
H1227 C1236 0.950 . S
H1228 C1238 0.950 . S
H1229 C1240 0.950 . S
H1230 C1242 0.950 . S
H1231 C1243 0.950 1_554 S
C1232 H1224 0.950 . S
C1232 C1233 1.386 . S
C1232 C1234 1.391 . S
C1233 C1232 1.386 . S
C1233 C1237 1.393 . S
C1234 H1226 0.950 . S
C1234 C1232 1.391 . S
C1234 C1235 1.400 . S
C1235 C1234 1.400 . S
C1235 C1236 1.398 . S
C1235 C1241 1.491 . S
C1236 H1227 0.950 . S
C1236 C1235 1.398 . S
C1236 C1237 1.391 . S
C1237 H1225 0.950 . S
C1237 C1233 1.393 . S
C1237 C1236 1.391 . S
C1238 H1228 0.950 . S
C1238 C1239 1.386 . S
C1238 C1240 1.391 . S
C1239 C1238 1.386 . S
C1239 C1243 1.393 . S
C1240 H1229 0.950 . S
C1240 C1238 1.391 . S
C1240 C1241 1.400 . S
C1241 C1235 1.491 . S
C1241 C1240 1.400 . S
C1241 C1242 1.398 . S
C1242 H1230 0.950 . S
C1242 C1241 1.398 . S
C1242 C1243 1.391 . S
C1243 H1231 0.950 1_556 S
C1243 C1239 1.393 . S
C1243 C1242 1.391 . S
H1244 C1252 0.950 . S
H1245 C1257 0.950 . S
H1246 C1254 0.950 . S
H1247 C1256 0.950 . S
H1248 C1258 0.950 . S
H1249 C1260 0.950 . S
H1250 C1262 0.950 . S
H1251 C1263 0.950 . S
C1252 H1244 0.950 . S
C1252 C1253 1.386 . S
C1252 C1254 1.391 . S
C1253 C1252 1.386 . S
C1253 C1257 1.393 . S
C1254 H1246 0.950 . S
C1254 C1252 1.391 . S
C1254 C1255 1.400 . S
C1255 C1254 1.400 . S
C1255 C1256 1.398 . S
C1255 C1261 1.491 . S
C1256 H1247 0.950 . S
C1256 C1255 1.398 . S
C1256 C1257 1.391 . S
C1257 H1245 0.950 . S
C1257 C1253 1.393 . S
C1257 C1256 1.391 . S
C1258 H1248 0.950 . S
C1258 C1259 1.386 . S
C1258 C1260 1.391 . S
C1259 C1258 1.386 . S
C1259 C1263 1.393 . S
C1260 H1249 0.950 . S
C1260 C1258 1.391 . S
C1260 C1261 1.400 . S
C1261 C1255 1.491 . S
C1261 C1260 1.400 . S
C1261 C1262 1.398 . S
C1262 H1250 0.950 . S
C1262 C1261 1.398 . S
C1262 C1263 1.391 . S
C1263 H1251 0.950 . S
C1263 C1259 1.393 . S
C1263 C1262 1.391 . S
H1264 C1272 0.950 . S
H1265 C1277 0.950 . S
H1266 C1274 0.950 . S
H1267 C1276 0.950 . S
H1268 C1278 0.950 . S
H1269 C1280 0.950 . S
H1270 C1282 0.950 . S
H1271 C1283 0.950 . S
C1272 H1264 0.950 . S
C1272 C1273 1.386 . S
C1272 C1274 1.391 . S
C1273 C1272 1.386 . S
C1273 C1277 1.393 . S
C1274 H1266 0.950 . S
C1274 C1272 1.391 . S
C1274 C1275 1.400 . S
C1275 C1274 1.400 . S
C1275 C1276 1.398 . S
C1275 C1281 1.491 . S
C1276 H1267 0.950 . S
C1276 C1275 1.398 . S
C1276 C1277 1.391 . S
C1277 H1265 0.950 . S
C1277 C1273 1.393 . S
C1277 C1276 1.391 . S
C1278 H1268 0.950 . S
C1278 C1279 1.386 . S
C1278 C1280 1.391 . S
C1279 C1278 1.386 . S
C1279 C1283 1.393 . S
C1280 H1269 0.950 . S
C1280 C1278 1.391 . S
C1280 C1281 1.400 . S
C1281 C1275 1.491 . S
C1281 C1280 1.400 . S
C1281 C1282 1.398 . S
C1282 H1270 0.950 . S
C1282 C1281 1.398 . S
C1282 C1283 1.391 . S
C1283 H1271 0.950 . S
C1283 C1279 1.393 . S
C1283 C1282 1.391 . S
H1284 C1292 0.950 . S
H1285 C1297 0.950 . S
H1286 C1294 0.950 . S
H1287 C1296 0.950 . S
H1288 C1298 0.950 . S
H1289 C1300 0.950 . S
H1290 C1302 0.950 . S
H1291 C1303 0.950 . S
C1292 H1284 0.950 . S
C1292 C1293 1.386 . S
C1292 C1294 1.391 . S
C1293 C1292 1.386 . S
C1293 C1297 1.393 . S
C1294 H1286 0.950 . S
C1294 C1292 1.391 . S
C1294 C1295 1.400 . S
C1295 C1294 1.400 . S
C1295 C1296 1.398 . S
C1295 C1301 1.491 . S
C1296 H1287 0.950 . S
C1296 C1295 1.398 . S
C1296 C1297 1.391 . S
C1297 H1285 0.950 . S
C1297 C1293 1.393 . S
C1297 C1296 1.391 . S
C1298 H1288 0.950 . S
C1298 C1299 1.386 . S
C1298 C1300 1.391 . S
C1299 C1298 1.386 . S
C1299 C1303 1.393 . S
C1300 H1289 0.950 . S
C1300 C1298 1.391 . S
C1300 C1301 1.400 . S
C1301 C1295 1.491 . S
C1301 C1300 1.400 . S
C1301 C1302 1.398 . S
C1302 H1290 0.950 . S
C1302 C1301 1.398 . S
C1302 C1303 1.391 . S
C1303 H1291 0.950 . S
C1303 C1299 1.393 . S
C1303 C1302 1.391 . S
H1304 C1312 0.950 . S
H1305 C1317 0.950 . S
H1306 C1314 0.950 . S
H1307 C1316 0.950 . S
H1308 C1318 0.950 . S
H1309 C1320 0.950 . S
H1310 C1322 0.950 . S
H1311 C1323 0.950 . S
C1312 H1304 0.950 . S
C1312 C1313 1.386 . S
C1312 C1314 1.391 . S
C1313 C1312 1.386 . S
C1313 C1317 1.393 . S
C1314 H1306 0.950 . S
C1314 C1312 1.391 . S
C1314 C1315 1.400 . S
C1315 C1314 1.400 . S
C1315 C1316 1.398 . S
C1315 C1321 1.491 . S
C1316 H1307 0.950 . S
C1316 C1315 1.398 . S
C1316 C1317 1.391 . S
C1317 H1305 0.950 . S
C1317 C1313 1.393 . S
C1317 C1316 1.391 . S
C1318 H1308 0.950 . S
C1318 C1319 1.386 . S
C1318 C1320 1.391 . S
C1319 C1318 1.386 . S
C1319 C1323 1.393 . S
C1320 H1309 0.950 . S
C1320 C1318 1.391 . S
C1320 C1321 1.400 . S
C1321 C1315 1.491 . S
C1321 C1320 1.400 . S
C1321 C1322 1.398 . S
C1322 H1310 0.950 . S
C1322 C1321 1.398 . S
C1322 C1323 1.391 . S
C1323 H1311 0.950 . S
C1323 C1319 1.393 . S
C1323 C1322 1.391 . S
H1324 C1332 0.950 . S
H1325 C1337 0.950 . S
H1326 C1334 0.950 . S
H1327 C1336 0.950 . S
H1328 C1338 0.950 . S
H1329 C1340 0.950 . S
H1330 C1342 0.950 . S
H1331 C1343 0.950 . S
C1332 H1324 0.950 . S
C1332 C1333 1.386 . S
C1332 C1334 1.391 . S
C1333 C1332 1.386 . S
C1333 C1337 1.393 . S
C1334 H1326 0.950 . S
C1334 C1332 1.391 . S
C1334 C1335 1.400 . S
C1335 C1334 1.400 . S
C1335 C1336 1.398 . S
C1335 C1341 1.491 . S
C1336 H1327 0.950 . S
C1336 C1335 1.398 . S
C1336 C1337 1.391 . S
C1337 H1325 0.950 . S
C1337 C1333 1.393 . S
C1337 C1336 1.391 . S
C1338 H1328 0.950 . S
C1338 C1339 1.386 . S
C1338 C1340 1.391 . S
C1339 C1338 1.386 . S
C1339 C1343 1.393 . S
C1340 H1329 0.950 . S
C1340 C1338 1.391 . S
C1340 C1341 1.400 . S
C1341 C1335 1.491 . S
C1341 C1340 1.400 . S
C1341 C1342 1.398 . S
C1342 H1330 0.950 . S
C1342 C1341 1.398 . S
C1342 C1343 1.391 . S
C1343 H1331 0.950 . S
C1343 C1339 1.393 . S
C1343 C1342 1.391 . S
H1344 C1352 0.950 . S
H1345 C1357 0.950 . S
H1346 C1354 0.950 . S
H1347 C1356 0.950 . S
H1348 C1358 0.950 . S
H1349 C1360 0.950 . S
H1350 C1362 0.950 . S
H1351 C1363 0.950 . S
C1352 H1344 0.950 . S
C1352 C1353 1.386 . S
C1352 C1354 1.391 . S
C1353 C1352 1.386 . S
C1353 C1357 1.393 . S
C1354 H1346 0.950 . S
C1354 C1352 1.391 . S
C1354 C1355 1.400 . S
C1355 C1354 1.400 . S
C1355 C1356 1.398 . S
C1355 C1361 1.491 . S
C1356 H1347 0.950 . S
C1356 C1355 1.398 . S
C1356 C1357 1.391 . S
C1357 H1345 0.950 . S
C1357 C1353 1.393 . S
C1357 C1356 1.391 . S
C1358 H1348 0.950 . S
C1358 C1359 1.386 . S
C1358 C1360 1.391 . S
C1359 C1358 1.386 . S
C1359 C1363 1.393 . S
C1360 H1349 0.950 . S
C1360 C1358 1.391 . S
C1360 C1361 1.400 . S
C1361 C1355 1.491 . S
C1361 C1360 1.400 . S
C1361 C1362 1.398 . S
C1362 H1350 0.950 . S
C1362 C1361 1.398 . S
C1362 C1363 1.391 . S
C1363 H1351 0.950 . S
C1363 C1359 1.393 . S
C1363 C1362 1.391 . S
H1364 C1372 0.950 . S
H1365 C1377 0.950 . S
H1366 C1374 0.950 . S
H1367 C1376 0.950 . S
H1368 C1378 0.950 . S
H1369 C1380 0.950 . S
H1370 C1382 0.950 . S
H1371 C1383 0.950 . S
C1372 H1364 0.950 . S
C1372 C1373 1.386 . S
C1372 C1374 1.391 . S
C1373 C1372 1.386 . S
C1373 C1377 1.393 . S
C1374 H1366 0.950 . S
C1374 C1372 1.391 . S
C1374 C1375 1.400 . S
C1375 C1374 1.400 . S
C1375 C1376 1.398 . S
C1375 C1381 1.491 . S
C1376 H1367 0.950 . S
C1376 C1375 1.398 . S
C1376 C1377 1.391 . S
C1377 H1365 0.950 . S
C1377 C1373 1.393 . S
C1377 C1376 1.391 . S
C1378 H1368 0.950 . S
C1378 C1379 1.386 . S
C1378 C1380 1.391 . S
C1379 C1378 1.386 . S
C1379 C1383 1.393 . S
C1380 H1369 0.950 . S
C1380 C1378 1.391 . S
C1380 C1381 1.400 . S
C1381 C1375 1.491 . S
C1381 C1380 1.400 . S
C1381 C1382 1.398 . S
C1382 H1370 0.950 . S
C1382 C1381 1.398 . S
C1382 C1383 1.391 . S
C1383 H1371 0.950 . S
C1383 C1379 1.393 . S
C1383 C1382 1.391 . S
H1384 C1392 0.950 . S
H1385 C1397 0.950 . S
H1386 C1394 0.950 . S
H1387 C1396 0.950 . S
H1388 C1398 0.950 . S
H1389 C1400 0.950 . S
H1390 C1402 0.950 . S
H1391 C1403 0.950 . S
C1392 H1384 0.950 . S
C1392 C1393 1.386 . S
C1392 C1394 1.391 . S
C1393 C1392 1.386 . S
C1393 C1397 1.393 . S
C1394 H1386 0.950 . S
C1394 C1392 1.391 . S
C1394 C1395 1.400 . S
C1395 C1394 1.400 . S
C1395 C1396 1.398 . S
C1395 C1401 1.491 . S
C1396 H1387 0.950 . S
C1396 C1395 1.398 . S
C1396 C1397 1.391 . S
C1397 H1385 0.950 . S
C1397 C1393 1.393 . S
C1397 C1396 1.391 . S
C1398 H1388 0.950 . S
C1398 C1399 1.386 . S
C1398 C1400 1.391 . S
C1399 C1398 1.386 . S
C1399 C1403 1.393 . S
C1400 H1389 0.950 . S
C1400 C1398 1.391 . S
C1400 C1401 1.400 . S
C1401 C1395 1.491 . S
C1401 C1400 1.400 . S
C1401 C1402 1.398 . S
C1402 H1390 0.950 . S
C1402 C1401 1.398 . S
C1402 C1403 1.391 . S
C1403 H1391 0.950 . S
C1403 C1399 1.393 . S
C1403 C1402 1.391 . S
H1404 C1412 0.950 . S
H1405 C1417 0.950 . S
H1406 C1414 0.950 . S
H1407 C1416 0.950 . S
H1408 C1418 0.950 . S
H1409 C1420 0.950 . S
H1410 C1422 0.950 . S
H1411 C1423 0.950 . S
C1412 H1404 0.950 . S
C1412 C1413 1.386 . S
C1412 C1414 1.391 . S
C1413 C1412 1.386 . S
C1413 C1417 1.393 . S
C1414 H1406 0.950 . S
C1414 C1412 1.391 . S
C1414 C1415 1.400 . S
C1415 C1414 1.400 . S
C1415 C1416 1.398 . S
C1415 C1421 1.491 . S
C1416 H1407 0.950 . S
C1416 C1415 1.398 . S
C1416 C1417 1.391 . S
C1417 H1405 0.950 . S
C1417 C1413 1.393 . S
C1417 C1416 1.391 . S
C1418 H1408 0.950 . S
C1418 C1419 1.386 . S
C1418 C1420 1.391 . S
C1419 C1418 1.386 . S
C1419 C1423 1.393 . S
C1420 H1409 0.950 . S
C1420 C1418 1.391 . S
C1420 C1421 1.400 . S
C1421 C1415 1.491 . S
C1421 C1420 1.400 . S
C1421 C1422 1.398 . S
C1422 H1410 0.950 . S
C1422 C1421 1.398 . S
C1422 C1423 1.391 . S
C1423 H1411 0.950 . S
C1423 C1419 1.393 . S
C1423 C1422 1.391 . S
H1424 C1432 0.950 . S
H1425 C1437 0.950 . S
H1426 C1434 0.950 . S
H1427 C1436 0.950 . S
H1428 C1438 0.950 . S
H1429 C1440 0.950 . S
H1430 C1442 0.950 . S
H1431 C1443 0.950 . S
C1432 H1424 0.950 . S
C1432 C1433 1.386 . S
C1432 C1434 1.391 . S
C1433 C1432 1.386 . S
C1433 C1437 1.393 . S
C1434 H1426 0.950 . S
C1434 C1432 1.391 . S
C1434 C1435 1.400 . S
C1435 C1434 1.400 . S
C1435 C1436 1.398 . S
C1435 C1441 1.491 . S
C1436 H1427 0.950 . S
C1436 C1435 1.398 . S
C1436 C1437 1.391 . S
C1437 H1425 0.950 . S
C1437 C1433 1.393 . S
C1437 C1436 1.391 . S
C1438 H1428 0.950 . S
C1438 C1439 1.386 . S
C1438 C1440 1.391 . S
C1439 C1438 1.386 . S
C1439 C1443 1.393 . S
C1440 H1429 0.950 . S
C1440 C1438 1.391 . S
C1440 C1441 1.400 . S
C1441 C1435 1.491 . S
C1441 C1440 1.400 . S
C1441 C1442 1.398 . S
C1442 H1430 0.950 . S
C1442 C1441 1.398 . S
C1442 C1443 1.391 . S
C1443 H1431 0.950 . S
C1443 C1439 1.393 . S
C1443 C1442 1.391 . S
H1444 C1452 0.950 . S
H1445 C1457 0.950 . S
H1446 C1454 0.950 . S
H1447 C1456 0.950 . S
H1448 C1458 0.950 . S
H1449 C1460 0.950 . S
H1450 C1462 0.950 . S
H1451 C1463 0.950 . S
C1452 H1444 0.950 . S
C1452 C1453 1.386 . S
C1452 C1454 1.391 . S
C1453 C1452 1.386 . S
C1453 C1457 1.393 . S
C1454 H1446 0.950 . S
C1454 C1452 1.391 . S
C1454 C1455 1.400 . S
C1455 C1454 1.400 . S
C1455 C1456 1.398 . S
C1455 C1461 1.491 . S
C1456 H1447 0.950 . S
C1456 C1455 1.398 . S
C1456 C1457 1.391 . S
C1457 H1445 0.950 . S
C1457 C1453 1.393 . S
C1457 C1456 1.391 . S
C1458 H1448 0.950 . S
C1458 C1459 1.386 . S
C1458 C1460 1.391 . S
C1459 C1458 1.386 . S
C1459 C1463 1.393 . S
C1460 H1449 0.950 . S
C1460 C1458 1.391 . S
C1460 C1461 1.400 . S
C1461 C1455 1.491 . S
C1461 C1460 1.400 . S
C1461 C1462 1.398 . S
C1462 H1450 0.950 . S
C1462 C1461 1.398 . S
C1462 C1463 1.391 . S
C1463 H1451 0.950 . S
C1463 C1459 1.393 . S
C1463 C1462 1.391 . S
H1464 C1472 0.950 . S
H1465 C1477 0.950 . S
H1466 C1474 0.950 . S
H1467 C1476 0.950 . S
H1468 C1478 0.950 . S
H1469 C1480 0.950 . S
H1470 C1482 0.950 . S
H1471 C1483 0.950 . S
C1472 H1464 0.950 . S
C1472 C1473 1.386 . S
C1472 C1474 1.391 . S
C1473 C1472 1.386 . S
C1473 C1477 1.393 . S
C1474 H1466 0.950 . S
C1474 C1472 1.391 . S
C1474 C1475 1.400 . S
C1475 C1474 1.400 . S
C1475 C1476 1.398 . S
C1475 C1481 1.491 1_655 S
C1476 H1467 0.950 . S
C1476 C1475 1.398 . S
C1476 C1477 1.391 . S
C1477 H1465 0.950 . S
C1477 C1473 1.393 . S
C1477 C1476 1.391 . S
C1478 H1468 0.950 . S
C1478 C1479 1.386 . S
C1478 C1480 1.391 . S
C1479 C1478 1.386 . S
C1479 C1483 1.393 . S
C1480 H1469 0.950 . S
C1480 C1478 1.391 . S
C1480 C1481 1.400 . S
C1481 C1475 1.491 1_455 S
C1481 C1480 1.400 . S
C1481 C1482 1.398 . S
C1482 H1470 0.950 . S
C1482 C1481 1.398 . S
C1482 C1483 1.391 . S
C1483 H1471 0.950 . S
C1483 C1479 1.393 . S
C1483 C1482 1.391 . S
H1484 C1492 0.950 . S
H1485 C1497 0.950 . S
H1486 C1494 0.950 . S
H1487 C1496 0.950 . S
H1488 C1498 0.950 . S
H1489 C1500 0.950 . S
H1490 C1502 0.950 . S
H1491 C1503 0.950 . S
C1492 H1484 0.950 . S
C1492 C1493 1.386 . S
C1492 C1494 1.391 . S
C1493 C1492 1.386 . S
C1493 C1497 1.393 . S
C1494 H1486 0.950 . S
C1494 C1492 1.391 . S
C1494 C1495 1.400 . S
C1495 C1494 1.400 . S
C1495 C1496 1.398 . S
C1495 C1501 1.491 . S
C1496 H1487 0.950 . S
C1496 C1495 1.398 . S
C1496 C1497 1.391 . S
C1497 H1485 0.950 . S
C1497 C1493 1.393 . S
C1497 C1496 1.391 . S
C1498 H1488 0.950 . S
C1498 C1499 1.386 . S
C1498 C1500 1.391 . S
C1499 C1498 1.386 . S
C1499 C1503 1.393 . S
C1500 H1489 0.950 . S
C1500 C1498 1.391 . S
C1500 C1501 1.400 . S
C1501 C1495 1.491 . S
C1501 C1500 1.400 . S
C1501 C1502 1.398 . S
C1502 H1490 0.950 . S
C1502 C1501 1.398 . S
C1502 C1503 1.391 . S
C1503 H1491 0.950 . S
C1503 C1499 1.393 . S
C1503 C1502 1.391 . S
H1504 C1512 0.950 . S
H1505 C1517 0.950 . S
H1506 C1514 0.950 . S
H1507 C1516 0.950 . S
H1508 C1518 0.950 . S
H1509 C1520 0.950 . S
H1510 C1522 0.950 . S
H1511 C1523 0.950 . S
C1512 H1504 0.950 . S
C1512 C1513 1.386 . S
C1512 C1514 1.391 . S
C1513 C1512 1.386 . S
C1513 C1517 1.393 . S
C1514 H1506 0.950 . S
C1514 C1512 1.391 . S
C1514 C1515 1.400 . S
C1515 C1514 1.400 . S
C1515 C1516 1.398 . S
C1515 C1521 1.491 1_565 S
C1516 H1507 0.950 . S
C1516 C1515 1.398 . S
C1516 C1517 1.391 . S
C1517 H1505 0.950 . S
C1517 C1513 1.393 . S
C1517 C1516 1.391 . S
C1518 H1508 0.950 . S
C1518 C1519 1.386 . S
C1518 C1520 1.391 . S
C1519 C1518 1.386 . S
C1519 C1523 1.393 . S
C1520 H1509 0.950 . S
C1520 C1518 1.391 . S
C1520 C1521 1.400 . S
C1521 C1515 1.491 1_545 S
C1521 C1520 1.400 . S
C1521 C1522 1.398 . S
C1522 H1510 0.950 . S
C1522 C1521 1.398 . S
C1522 C1523 1.391 . S
C1523 H1511 0.950 . S
C1523 C1519 1.393 . S
C1523 C1522 1.391 . S
H1524 C1532 0.950 . S
H1525 C1537 0.950 . S
H1526 C1534 0.950 1_545 S
H1527 C1536 0.950 . S
H1528 C1538 0.950 . S
H1529 C1540 0.924 1_565 S
H1530 C1542 0.950 . S
H1531 C1543 0.950 . S
C1532 H1524 0.950 . S
C1532 C1533 1.386 . S
C1532 C1534 1.391 . S
C1533 C1532 1.386 . S
C1533 C1537 1.393 . S
C1534 H1526 0.950 1_565 S
C1534 C1532 1.391 . S
C1534 C1535 1.400 . S
C1535 C1534 1.400 . S
C1535 C1536 1.398 . S
C1535 C1541 1.491 1_565 S
C1536 H1527 0.950 . S
C1536 C1535 1.398 . S
C1536 C1537 1.391 . S
C1537 H1525 0.950 . S
C1537 C1533 1.393 . S
C1537 C1536 1.391 . S
C1538 H1528 0.950 . S
C1538 C1539 1.386 . S
C1538 C1540 1.391 . S
C1539 C1538 1.386 . S
C1539 C1543 1.393 . S
C1540 H1529 0.924 1_545 S
C1540 C1538 1.391 . S
C1540 C1541 1.400 . S
C1541 C1535 1.491 1_545 S
C1541 C1540 1.400 . S
C1541 C1542 1.398 . S
C1542 H1530 0.950 . S
C1542 C1541 1.398 . S
C1542 C1543 1.391 . S
C1543 H1531 0.950 . S
C1543 C1539 1.393 . S
C1543 C1542 1.391 . S
H1544 C1552 0.950 . S
H1545 C1557 0.950 . S
H1546 C1554 0.950 . S
H1547 C1556 0.950 1_455 S
H1548 C1558 0.950 . S
H1549 C1560 0.950 . S
H1550 C1562 0.950 1_655 S
H1551 C1563 0.950 . S
C1552 H1544 0.950 . S
C1552 C1553 1.386 . S
C1552 C1554 1.391 . S
C1553 C1552 1.386 . S
C1553 C1557 1.393 . S
C1554 H1546 0.950 . S
C1554 C1552 1.391 . S
C1554 C1555 1.400 . S
C1555 C1554 1.400 . S
C1555 C1556 1.398 . S
C1555 C1561 1.491 1_655 S
C1556 H1547 0.950 1_655 S
C1556 C1555 1.398 . S
C1556 C1557 1.391 . S
C1557 H1545 0.950 . S
C1557 C1553 1.393 . S
C1557 C1556 1.391 . S
C1558 H1548 0.950 . S
C1558 C1559 1.386 . S
C1558 C1560 1.391 . S
C1559 C1558 1.386 . S
C1559 C1563 1.393 . S
C1560 H1549 0.950 . S
C1560 C1558 1.391 . S
C1560 C1561 1.400 . S
C1561 C1555 1.491 1_455 S
C1561 C1560 1.400 . S
C1561 C1562 1.398 . S
C1562 H1550 0.950 1_455 S
C1562 C1561 1.398 . S
C1562 C1563 1.391 . S
C1563 H1551 0.950 . S
C1563 C1559 1.393 . S
C1563 C1562 1.391 . S
H1564 C1572 0.950 . S
H1565 C1577 0.950 . S
H1566 C1574 0.950 . S
H1567 C1576 0.950 . S
H1568 C1578 0.950 . S
H1569 C1580 0.950 . S
H1570 C1582 0.950 . S
H1571 C1583 0.950 . S
C1572 H1564 0.950 . S
C1572 C1573 1.386 . S
C1572 C1574 1.391 . S
C1573 C1572 1.386 . S
C1573 C1577 1.393 . S
C1574 H1566 0.950 . S
C1574 C1572 1.391 . S
C1574 C1575 1.400 . S
C1575 C1574 1.400 . S
C1575 C1576 1.398 . S
C1575 C1581 1.491 . S
C1576 H1567 0.950 . S
C1576 C1575 1.398 . S
C1576 C1577 1.391 . S
C1577 H1565 0.950 . S
C1577 C1573 1.393 . S
C1577 C1576 1.391 . S
C1578 H1568 0.950 . S
C1578 C1579 1.386 . S
C1578 C1580 1.391 . S
C1579 C1578 1.386 . S
C1579 C1583 1.393 . S
C1580 H1569 0.950 . S
C1580 C1578 1.391 . S
C1580 C1581 1.400 . S
C1581 C1575 1.491 . S
C1581 C1580 1.400 . S
C1581 C1582 1.398 . S
C1582 H1570 0.950 . S
C1582 C1581 1.398 . S
C1582 C1583 1.391 . S
C1583 H1571 0.950 . S
C1583 C1579 1.393 . S
C1583 C1582 1.391 . S
H1584 C1592 0.950 . S
H1585 C1597 0.950 . S
H1586 C1594 0.950 . S
H1587 C1596 0.950 . S
H1588 C1598 0.950 . S
H1589 C1600 0.950 . S
H1590 C1602 0.950 . S
H1591 C1603 0.950 . S
C1592 H1584 0.950 . S
C1592 C1593 1.386 . S
C1592 C1594 1.391 . S
C1593 C1592 1.386 . S
C1593 C1597 1.393 . S
C1594 H1586 0.950 . S
C1594 C1592 1.391 . S
C1594 C1595 1.400 . S
C1595 C1594 1.400 . S
C1595 C1596 1.398 . S
C1595 C1601 1.491 . S
C1596 H1587 0.950 . S
C1596 C1595 1.398 . S
C1596 C1597 1.391 . S
C1597 H1585 0.950 . S
C1597 C1593 1.393 . S
C1597 C1596 1.391 . S
C1598 H1588 0.950 . S
C1598 C1599 1.386 . S
C1598 C1600 1.391 . S
C1599 C1598 1.386 . S
C1599 C1603 1.393 . S
C1600 H1589 0.950 . S
C1600 C1598 1.391 . S
C1600 C1601 1.400 . S
C1601 C1595 1.491 . S
C1601 C1600 1.400 . S
C1601 C1602 1.398 . S
C1602 H1590 0.950 . S
C1602 C1601 1.398 . S
C1602 C1603 1.391 . S
C1603 H1591 0.950 . S
C1603 C1599 1.393 . S
C1603 C1602 1.391 . S
H1604 C1612 0.950 . S
H1605 C1617 0.950 . S
H1606 C1614 0.950 . S
H1607 C1616 0.950 . S
H1608 C1618 0.950 . S
H1609 C1620 0.950 . S
H1610 C1622 0.950 . S
H1611 C1623 0.950 . S
C1612 H1604 0.950 . S
C1612 C1613 1.386 1_545 S
C1612 C1614 1.391 . S
C1613 C1612 1.386 1_565 S
C1613 C1617 1.393 . S
C1614 H1606 0.950 . S
C1614 C1612 1.391 . S
C1614 C1615 1.389 1_545 S
C1615 C1614 1.389 1_565 S
C1615 C1616 1.411 . S
C1615 C1621 1.488 1_565 S
C1616 H1607 0.950 . S
C1616 C1615 1.411 . S
C1616 C1617 1.391 . S
C1617 H1605 0.950 . S
C1617 C1613 1.393 . S
C1617 C1616 1.391 . S
C1618 H1608 0.950 . S
C1618 C1619 1.386 1_565 S
C1618 C1620 1.391 . S
C1619 C1618 1.386 1_545 S
C1619 C1623 1.393 . S
C1620 H1609 0.950 . S
C1620 C1618 1.391 . S
C1620 C1621 1.377 1_565 S
C1621 C1615 1.488 1_545 S
C1621 C1620 1.377 1_545 S
C1621 C1622 1.426 . S
C1622 H1610 0.950 . S
C1622 C1621 1.426 . S
C1622 C1623 1.391 . S
C1623 H1611 0.950 . S
C1623 C1619 1.393 . S
C1623 C1622 1.391 . S
H1624 C1632 0.950 . S
H1625 C1637 0.950 . S
H1626 C1634 0.950 . S
H1627 C1636 0.950 . S
H1628 C1638 0.950 . S
H1629 C1640 0.950 . S
H1630 C1642 0.950 . S
H1631 C1643 0.950 . S
C1632 H1624 0.950 . S
C1632 C1633 1.386 . S
C1632 C1634 1.391 . S
C1633 C1632 1.386 . S
C1633 C1637 1.393 1_655 S
C1634 H1626 0.950 . S
C1634 C1632 1.391 . S
C1634 C1635 1.408 . S
C1635 C1634 1.408 . S
C1635 C1636 1.391 1_655 S
C1635 C1641 1.491 1_655 S
C1636 H1627 0.950 . S
C1636 C1635 1.391 1_455 S
C1636 C1637 1.391 . S
C1637 H1625 0.950 . S
C1637 C1633 1.393 1_455 S
C1637 C1636 1.391 . S
C1638 H1628 0.950 . S
C1638 C1639 1.386 . S
C1638 C1640 1.391 . S
C1639 C1638 1.386 . S
C1639 C1643 1.393 1_455 S
C1640 H1629 0.950 . S
C1640 C1638 1.391 . S
C1640 C1641 1.426 . S
C1641 C1635 1.491 1_455 S
C1641 C1640 1.426 . S
C1641 C1642 1.373 1_455 S
C1642 H1630 0.950 . S
C1642 C1641 1.373 1_655 S
C1642 C1643 1.391 . S
C1643 H1631 0.950 . S
C1643 C1639 1.393 1_655 S
C1643 C1642 1.391 . S
H1644 C1652 0.950 . S
H1645 C1657 0.950 . S
H1646 C1654 0.950 . S
H1647 C1656 0.950 . S
H1648 C1658 0.950 . S
H1649 C1660 0.950 . S
H1650 C1662 0.950 . S
H1651 C1663 0.950 . S
C1652 H1644 0.950 . S
C1652 C1653 1.386 . S
C1652 C1654 1.391 . S
C1653 C1652 1.386 . S
C1653 C1657 1.393 . S
C1654 H1646 0.950 . S
C1654 C1652 1.391 . S
C1654 C1655 1.400 . S
C1655 C1654 1.400 . S
C1655 C1656 1.398 . S
C1655 C1661 1.491 . S
C1656 H1647 0.950 . S
C1656 C1655 1.398 . S
C1656 C1657 1.391 . S
C1657 H1645 0.950 . S
C1657 C1653 1.393 . S
C1657 C1656 1.391 . S
C1658 H1648 0.950 . S
C1658 C1659 1.386 . S
C1658 C1660 1.391 . S
C1659 C1658 1.386 . S
C1659 C1663 1.393 . S
C1660 H1649 0.950 . S
C1660 C1658 1.391 . S
C1660 C1661 1.400 . S
C1661 C1655 1.491 . S
C1661 C1660 1.400 . S
C1661 C1662 1.398 . S
C1662 H1650 0.950 . S
C1662 C1661 1.398 . S
C1662 C1663 1.391 . S
C1663 H1651 0.950 . S
C1663 C1659 1.393 . S
C1663 C1662 1.391 . S
H1664 C1672 0.950 . S
H1665 C1677 0.954 . S
H1666 C1674 0.955 . S
H1667 C1676 0.950 . S
H1668 C1678 0.950 . S
H1669 C1680 0.926 . S
H1670 C1682 0.935 . S
H1671 C1683 0.954 . S
C1672 H1664 0.950 . S
C1672 C1673 1.359 . S
C1672 C1674 1.392 . S
C1673 C1672 1.359 . S
C1673 C1677 1.420 1_565 S
C1674 H1666 0.955 . S
C1674 C1672 1.392 . S
C1674 C1675 1.416 1_565 S
C1675 C1674 1.416 1_545 S
C1675 C1676 1.397 . S
C1675 C1681 1.491 . S
C1676 H1667 0.950 . S
C1676 C1675 1.397 . S
C1676 C1677 1.391 . S
C1677 H1665 0.954 . S
C1677 C1673 1.420 1_545 S
C1677 C1676 1.391 . S
C1678 H1668 0.950 . S
C1678 C1679 1.386 . S
C1678 C1680 1.394 . S
C1679 C1678 1.386 . S
C1679 C1683 1.390 . S
C1680 H1669 0.926 . S
C1680 C1678 1.394 . S
C1680 C1681 1.423 . S
C1681 C1675 1.491 . S
C1681 C1680 1.423 . S
C1681 C1682 1.418 1_545 S
C1682 H1670 0.935 . S
C1682 C1681 1.418 1_565 S
C1682 C1683 1.390 1_565 S
C1683 H1671 0.954 . S
C1683 C1679 1.390 . S
C1683 C1682 1.390 1_545 S
H1684 C1692 0.950 . S
H1685 C1697 0.942 . S
H1686 C1694 0.950 1_455 S
H1687 C1696 0.940 . S
H1688 C1698 0.950 . S
H1689 C1700 0.943 . S
H1690 C1702 0.947 . S
H1691 C1703 0.942 . S
C1692 H1684 0.950 . S
C1692 C1693 1.370 . S
C1692 C1694 1.391 . S
C1693 C1692 1.370 . S
C1693 C1697 1.411 . S
C1694 H1686 0.950 1_655 S
C1694 C1692 1.391 . S
C1694 C1695 1.400 1_655 S
C1695 C1694 1.400 1_455 S
C1695 C1696 1.409 . S
C1695 C1701 1.491 . S
C1696 H1687 0.940 . S
C1696 C1695 1.409 . S
C1696 C1697 1.390 1_455 S
C1697 H1685 0.942 . S
C1697 C1693 1.411 . S
C1697 C1696 1.390 1_655 S
C1698 H1688 0.950 . S
C1698 C1699 1.411 . S
C1698 C1700 1.391 . S
C1699 C1698 1.411 . S
C1699 C1703 1.375 . S
C1700 H1689 0.943 . S
C1700 C1698 1.391 . S
C1700 C1701 1.407 . S
C1701 C1695 1.491 . S
C1701 C1700 1.407 . S
C1701 C1702 1.402 1_455 S
C1702 H1690 0.947 . S
C1702 C1701 1.402 1_655 S
C1702 C1703 1.390 1_655 S
C1703 H1691 0.942 . S
C1703 C1699 1.375 . S
C1703 C1702 1.390 1_455 S
H1704 C1712 0.950 . S
H1705 C1717 0.950 . S
H1706 C1714 0.950 . S
H1707 C1716 0.950 . S
H1708 C1718 0.950 . S
H1709 C1720 0.950 . S
H1710 C1722 0.950 . S
H1711 C1723 0.950 . S
C1712 H1704 0.950 . S
C1712 C1713 1.386 . S
C1712 C1714 1.391 . S
C1713 C1712 1.386 . S
C1713 C1717 1.393 . S
C1714 H1706 0.950 . S
C1714 C1712 1.391 . S
C1714 C1715 1.400 . S
C1715 C1714 1.400 . S
C1715 C1716 1.398 . S
C1715 C1721 1.491 . S
C1716 H1707 0.950 . S
C1716 C1715 1.398 . S
C1716 C1717 1.391 . S
C1717 H1705 0.950 . S
C1717 C1713 1.393 . S
C1717 C1716 1.391 . S
C1718 H1708 0.950 . S
C1718 C1719 1.386 . S
C1718 C1720 1.391 . S
C1719 C1718 1.386 . S
C1719 C1723 1.393 . S
C1720 H1709 0.950 . S
C1720 C1718 1.391 . S
C1720 C1721 1.400 . S
C1721 C1715 1.491 . S
C1721 C1720 1.400 . S
C1721 C1722 1.398 . S
C1722 H1710 0.950 . S
C1722 C1721 1.398 . S
C1722 C1723 1.391 . S
C1723 H1711 0.950 . S
C1723 C1719 1.393 . S
C1723 C1722 1.391 . S
H1724 C1732 0.950 . S
H1725 C1737 0.950 . S
H1726 C1734 0.950 . S
H1727 C1736 0.950 . S
H1728 C1738 0.950 . S
H1729 C1740 0.950 . S
H1730 C1742 0.950 . S
H1731 C1743 0.950 . S
C1732 H1724 0.950 . S
C1732 C1733 1.386 . S
C1732 C1734 1.391 . S
C1733 C1732 1.386 . S
C1733 C1737 1.393 . S
C1734 H1726 0.950 . S
C1734 C1732 1.391 . S
C1734 C1735 1.400 . S
C1735 C1734 1.400 . S
C1735 C1736 1.398 . S
C1735 C1741 1.491 . S
C1736 H1727 0.950 . S
C1736 C1735 1.398 . S
C1736 C1737 1.391 . S
C1737 H1725 0.950 . S
C1737 C1733 1.393 . S
C1737 C1736 1.391 . S
C1738 H1728 0.950 . S
C1738 C1739 1.386 . S
C1738 C1740 1.391 . S
C1739 C1738 1.386 . S
C1739 C1743 1.393 . S
C1740 H1729 0.950 . S
C1740 C1738 1.391 . S
C1740 C1741 1.400 . S
C1741 C1735 1.491 . S
C1741 C1740 1.400 . S
C1741 C1742 1.398 . S
C1742 H1730 0.950 . S
C1742 C1741 1.398 . S
C1742 C1743 1.391 . S
C1743 H1731 0.950 . S
C1743 C1739 1.393 . S
C1743 C1742 1.391 . S
H1744 C1752 0.950 . S
H1745 C1757 0.950 . S
H1746 C1754 0.950 . S
H1747 C1756 0.950 . S
H1748 C1758 0.950 . S
H1749 C1760 0.950 . S
H1750 C1762 0.950 . S
H1751 C1763 0.950 . S
C1752 H1744 0.950 . S
C1752 C1753 1.386 . S
C1752 C1754 1.391 . S
C1753 C1752 1.386 . S
C1753 C1757 1.393 . S
C1754 H1746 0.950 . S
C1754 C1752 1.391 . S
C1754 C1755 1.400 . S
C1755 C1754 1.400 . S
C1755 C1756 1.398 . S
C1755 C1761 1.491 . S
C1756 H1747 0.950 . S
C1756 C1755 1.398 . S
C1756 C1757 1.391 . S
C1757 H1745 0.950 . S
C1757 C1753 1.393 . S
C1757 C1756 1.391 . S
C1758 H1748 0.950 . S
C1758 C1759 1.386 . S
C1758 C1760 1.391 . S
C1759 C1758 1.386 . S
C1759 C1763 1.393 . S
C1760 H1749 0.950 . S
C1760 C1758 1.391 . S
C1760 C1761 1.400 . S
C1761 C1755 1.491 . S
C1761 C1760 1.400 . S
C1761 C1762 1.398 . S
C1762 H1750 0.950 . S
C1762 C1761 1.398 . S
C1762 C1763 1.391 . S
C1763 H1751 0.950 . S
C1763 C1759 1.393 . S
C1763 C1762 1.391 . S
H1764 C1772 0.950 . S
H1765 C1777 0.950 . S
H1766 C1774 0.950 . S
H1767 C1776 0.950 . S
H1768 C1778 0.950 . S
H1769 C1780 0.950 . S
H1770 C1782 0.950 . S
H1771 C1783 0.950 . S
C1772 H1764 0.950 . S
C1772 C1773 1.386 . S
C1772 C1774 1.391 . S
C1773 C1772 1.386 . S
C1773 C1777 1.393 . S
C1774 H1766 0.950 . S
C1774 C1772 1.391 . S
C1774 C1775 1.400 . S
C1775 C1774 1.400 . S
C1775 C1776 1.398 . S
C1775 C1781 1.491 . S
C1776 H1767 0.950 . S
C1776 C1775 1.398 . S
C1776 C1777 1.391 . S
C1777 H1765 0.950 . S
C1777 C1773 1.393 . S
C1777 C1776 1.391 . S
C1778 H1768 0.950 . S
C1778 C1779 1.386 . S
C1778 C1780 1.391 . S
C1779 C1778 1.386 . S
C1779 C1783 1.393 . S
C1780 H1769 0.950 . S
C1780 C1778 1.391 . S
C1780 C1781 1.400 . S
C1781 C1775 1.491 . S
C1781 C1780 1.400 . S
C1781 C1782 1.398 . S
C1782 H1770 0.950 . S
C1782 C1781 1.398 . S
C1782 C1783 1.391 . S
C1783 H1771 0.950 . S
C1783 C1779 1.393 . S
C1783 C1782 1.391 . S
H1784 C1792 0.950 . S
H1785 C1797 0.950 . S
H1786 C1794 0.950 . S
H1787 C1796 0.950 . S
H1788 C1798 0.950 . S
H1789 C1800 0.950 . S
H1790 C1802 0.950 . S
H1791 C1803 0.950 . S
C1792 H1784 0.950 . S
C1792 C1793 1.386 . S
C1792 C1794 1.391 . S
C1793 C1792 1.386 . S
C1793 C1797 1.393 . S
C1794 H1786 0.950 . S
C1794 C1792 1.391 . S
C1794 C1795 1.400 . S
C1795 C1794 1.400 . S
C1795 C1796 1.398 . S
C1795 C1801 1.491 . S
C1796 H1787 0.950 . S
C1796 C1795 1.398 . S
C1796 C1797 1.391 . S
C1797 H1785 0.950 . S
C1797 C1793 1.393 . S
C1797 C1796 1.391 . S
C1798 H1788 0.950 . S
C1798 C1799 1.386 . S
C1798 C1800 1.391 . S
C1799 C1798 1.386 . S
C1799 C1803 1.393 . S
C1800 H1789 0.950 . S
C1800 C1798 1.391 . S
C1800 C1801 1.400 . S
C1801 C1795 1.491 . S
C1801 C1800 1.400 . S
C1801 C1802 1.398 . S
C1802 H1790 0.950 . S
C1802 C1801 1.398 . S
C1802 C1803 1.391 . S
C1803 H1791 0.950 . S
C1803 C1799 1.393 . S
C1803 C1802 1.391 . S
H1804 C1812 0.950 . S
H1805 C1817 0.950 . S
H1806 C1814 0.950 . S
H1807 C1816 0.950 . S
H1808 C1818 0.950 . S
H1809 C1820 0.950 . S
H1810 C1822 0.950 . S
H1811 C1823 0.950 . S
C1812 H1804 0.950 . S
C1812 C1813 1.386 . S
C1812 C1814 1.391 . S
C1813 C1812 1.386 . S
C1813 C1817 1.393 . S
C1814 H1806 0.950 . S
C1814 C1812 1.391 . S
C1814 C1815 1.400 . S
C1815 C1814 1.400 . S
C1815 C1816 1.398 . S
C1815 C1821 1.491 . S
C1816 H1807 0.950 . S
C1816 C1815 1.398 . S
C1816 C1817 1.391 . S
C1817 H1805 0.950 . S
C1817 C1813 1.393 . S
C1817 C1816 1.391 . S
C1818 H1808 0.950 . S
C1818 C1819 1.386 . S
C1818 C1820 1.391 . S
C1819 C1818 1.386 . S
C1819 C1823 1.393 . S
C1820 H1809 0.950 . S
C1820 C1818 1.391 . S
C1820 C1821 1.400 . S
C1821 C1815 1.491 . S
C1821 C1820 1.400 . S
C1821 C1822 1.398 . S
C1822 H1810 0.950 . S
C1822 C1821 1.398 . S
C1822 C1823 1.391 . S
C1823 H1811 0.950 . S
C1823 C1819 1.393 . S
C1823 C1822 1.391 . S
H1824 C1832 0.950 . S
H1825 C1837 0.950 . S
H1826 C1834 0.950 . S
H1827 C1836 0.950 . S
H1828 C1838 0.950 . S
H1829 C1840 0.950 . S
H1830 C1842 0.950 . S
H1831 C1843 0.950 . S
C1832 H1824 0.950 . S
C1832 C1833 1.386 . S
C1832 C1834 1.391 . S
C1833 C1832 1.386 . S
C1833 C1837 1.393 . S
C1834 H1826 0.950 . S
C1834 C1832 1.391 . S
C1834 C1835 1.400 . S
C1835 C1834 1.400 . S
C1835 C1836 1.398 . S
C1835 C1841 1.491 . S
C1836 H1827 0.950 . S
C1836 C1835 1.398 . S
C1836 C1837 1.391 . S
C1837 H1825 0.950 . S
C1837 C1833 1.393 . S
C1837 C1836 1.391 . S
C1838 H1828 0.950 . S
C1838 C1839 1.386 . S
C1838 C1840 1.391 1_554 S
C1839 C1838 1.386 . S
C1839 C1843 1.393 . S
C1840 H1829 0.950 . S
C1840 C1838 1.391 1_556 S
C1840 C1841 1.400 . S
C1841 C1835 1.491 . S
C1841 C1840 1.400 . S
C1841 C1842 1.398 . S
C1842 H1830 0.950 . S
C1842 C1841 1.398 . S
C1842 C1843 1.391 1_556 S
C1843 H1831 0.950 . S
C1843 C1839 1.393 . S
C1843 C1842 1.391 1_554 S
H1844 C1852 0.950 . S
H1845 C1857 0.950 . S
H1846 C1854 0.950 . S
H1847 C1856 0.950 . S
H1848 C1858 0.950 . S
H1849 C1860 0.950 . S
H1850 C1862 0.950 . S
H1851 C1863 0.950 . S
C1852 H1844 0.950 . S
C1852 C1853 1.386 . S
C1852 C1854 1.391 1_554 S
C1853 C1852 1.386 . S
C1853 C1857 1.393 . S
C1854 H1846 0.950 . S
C1854 C1852 1.391 1_556 S
C1854 C1855 1.400 . S
C1855 C1854 1.400 . S
C1855 C1856 1.398 . S
C1855 C1861 1.491 . S
C1856 H1847 0.950 . S
C1856 C1855 1.398 . S
C1856 C1857 1.391 1_556 S
C1857 H1845 0.950 . S
C1857 C1853 1.393 . S
C1857 C1856 1.391 1_554 S
C1858 H1848 0.950 . S
C1858 C1859 1.386 . S
C1858 C1860 1.391 . S
C1859 C1858 1.386 . S
C1859 C1863 1.393 . S
C1860 H1849 0.950 . S
C1860 C1858 1.391 . S
C1860 C1861 1.400 . S
C1861 C1855 1.491 . S
C1861 C1860 1.400 . S
C1861 C1862 1.398 . S
C1862 H1850 0.950 . S
C1862 C1861 1.398 . S
C1862 C1863 1.391 . S
C1863 H1851 0.950 . S
C1863 C1859 1.393 . S
C1863 C1862 1.391 . S
H1864 C1872 0.950 . S
H1865 C1877 0.950 . S
H1866 C1874 0.950 . S
H1867 C1876 0.950 . S
H1868 C1878 0.950 . S
H1869 C1880 0.950 . S
H1870 C1882 0.950 . S
H1871 C1883 0.950 . S
C1872 H1864 0.950 . S
C1872 C1873 1.386 . S
C1872 C1874 1.391 . S
C1873 C1872 1.386 . S
C1873 C1877 1.393 . S
C1874 H1866 0.950 . S
C1874 C1872 1.391 . S
C1874 C1875 1.400 . S
C1875 C1874 1.400 . S
C1875 C1876 1.398 . S
C1875 C1881 1.491 . S
C1876 H1867 0.950 . S
C1876 C1875 1.398 . S
C1876 C1877 1.391 . S
C1877 H1865 0.950 . S
C1877 C1873 1.393 . S
C1877 C1876 1.391 . S
C1878 H1868 0.950 . S
C1878 C1879 1.386 . S
C1878 C1880 1.391 1_554 S
C1879 C1878 1.386 . S
C1879 C1883 1.393 . S
C1880 H1869 0.950 . S
C1880 C1878 1.391 1_556 S
C1880 C1881 1.400 . S
C1881 C1875 1.491 . S
C1881 C1880 1.400 . S
C1881 C1882 1.398 . S
C1882 H1870 0.950 . S
C1882 C1881 1.398 . S
C1882 C1883 1.391 1_556 S
C1883 H1871 0.950 . S
C1883 C1879 1.393 . S
C1883 C1882 1.391 1_554 S
H1884 C1892 0.950 . S
H1885 C1897 0.950 . S
H1886 C1894 0.950 . S
H1887 C1896 0.950 . S
H1888 C1898 0.950 . S
H1889 C1900 0.950 . S
H1890 C1902 0.950 . S
H1891 C1903 0.950 . S
C1892 H1884 0.950 . S
C1892 C1893 1.386 . S
C1892 C1894 1.391 . S
C1893 C1892 1.386 . S
C1893 C1897 1.393 . S
C1894 H1886 0.950 . S
C1894 C1892 1.391 . S
C1894 C1895 1.400 . S
C1895 C1894 1.400 . S
C1895 C1896 1.398 . S
C1895 C1901 1.491 . S
C1896 H1887 0.950 . S
C1896 C1895 1.398 . S
C1896 C1897 1.391 . S
C1897 H1885 0.950 . S
C1897 C1893 1.393 . S
C1897 C1896 1.391 . S
C1898 H1888 0.950 . S
C1898 C1899 1.386 . S
C1898 C1900 1.391 . S
C1899 C1898 1.386 . S
C1899 C1903 1.393 . S
C1900 H1889 0.950 . S
C1900 C1898 1.391 . S
C1900 C1901 1.400 . S
C1901 C1895 1.491 . S
C1901 C1900 1.400 . S
C1901 C1902 1.398 . S
C1902 H1890 0.950 . S
C1902 C1901 1.398 . S
C1902 C1903 1.391 . S
C1903 H1891 0.950 . S
C1903 C1899 1.393 . S
C1903 C1902 1.391 . S
H1904 C1912 0.950 . S
H1905 C1917 0.950 . S
H1906 C1914 0.950 . S
H1907 C1916 0.950 . S
H1908 C1918 0.950 . S
H1909 C1920 0.950 . S
H1910 C1922 0.950 . S
H1911 C1923 0.950 . S
C1912 H1904 0.950 . S
C1912 C1913 1.386 . S
C1912 C1914 1.391 . S
C1913 C1912 1.386 . S
C1913 C1917 1.393 . S
C1914 H1906 0.950 . S
C1914 C1912 1.391 . S
C1914 C1915 1.400 . S
C1915 C1914 1.400 . S
C1915 C1916 1.398 . S
C1915 C1921 1.491 . S
C1916 H1907 0.950 . S
C1916 C1915 1.398 . S
C1916 C1917 1.391 . S
C1917 H1905 0.950 . S
C1917 C1913 1.393 . S
C1917 C1916 1.391 . S
C1918 H1908 0.950 . S
C1918 C1919 1.386 . S
C1918 C1920 1.391 . S
C1919 C1918 1.386 . S
C1919 C1923 1.393 . S
C1920 H1909 0.950 . S
C1920 C1918 1.391 . S
C1920 C1921 1.400 . S
C1921 C1915 1.491 . S
C1921 C1920 1.400 . S
C1921 C1922 1.398 . S
C1922 H1910 0.950 . S
C1922 C1921 1.398 . S
C1922 C1923 1.391 . S
C1923 H1911 0.950 . S
C1923 C1919 1.393 . S
C1923 C1922 1.391 . S
H1924 C1932 0.950 . S
H1925 C1937 0.950 . S
H1926 C1934 0.950 . S
H1927 C1936 0.950 . S
H1928 C1938 0.950 . S
H1929 C1940 0.950 . S
H1930 C1942 0.950 . S
H1931 C1943 0.950 . S
C1932 H1924 0.950 . S
C1932 C1933 1.386 . S
C1932 C1934 1.391 . S
C1933 C1932 1.386 . S
C1933 C1937 1.393 . S
C1934 H1926 0.950 . S
C1934 C1932 1.391 . S
C1934 C1935 1.400 . S
C1935 C1934 1.400 . S
C1935 C1936 1.398 . S
C1935 C1941 1.491 . S
C1936 H1927 0.950 . S
C1936 C1935 1.398 . S
C1936 C1937 1.391 . S
C1937 H1925 0.950 . S
C1937 C1933 1.393 . S
C1937 C1936 1.391 . S
C1938 H1928 0.950 . S
C1938 C1939 1.386 . S
C1938 C1940 1.391 . S
C1939 C1938 1.386 . S
C1939 C1943 1.393 . S
C1940 H1929 0.950 . S
C1940 C1938 1.391 . S
C1940 C1941 1.400 . S
C1941 C1935 1.491 . S
C1941 C1940 1.400 . S
C1941 C1942 1.398 . S
C1942 H1930 0.950 . S
C1942 C1941 1.398 . S
C1942 C1943 1.391 . S
C1943 H1931 0.950 . S
C1943 C1939 1.393 . S
C1943 C1942 1.391 . S
H1944 C1952 0.950 . S
H1945 C1957 0.950 . S
H1946 C1954 0.950 . S
H1947 C1956 0.950 . S
H1948 C1958 0.950 . S
H1949 C1960 0.950 . S
H1950 C1962 0.950 . S
H1951 C1963 0.950 . S
C1952 H1944 0.950 . S
C1952 C1953 1.386 . S
C1952 C1954 1.391 . S
C1953 C1952 1.386 . S
C1953 C1957 1.393 . S
C1954 H1946 0.950 . S
C1954 C1952 1.391 . S
C1954 C1955 1.400 . S
C1955 C1954 1.400 . S
C1955 C1956 1.398 . S
C1955 C1961 1.491 . S
C1956 H1947 0.950 . S
C1956 C1955 1.398 . S
C1956 C1957 1.391 . S
C1957 H1945 0.950 . S
C1957 C1953 1.393 . S
C1957 C1956 1.391 . S
C1958 H1948 0.950 . S
C1958 C1959 1.386 . S
C1958 C1960 1.391 . S
C1959 C1958 1.386 . S
C1959 C1963 1.393 . S
C1960 H1949 0.950 . S
C1960 C1958 1.391 . S
C1960 C1961 1.400 . S
C1961 C1955 1.491 . S
C1961 C1960 1.400 . S
C1961 C1962 1.398 . S
C1962 H1950 0.950 . S
C1962 C1961 1.398 . S
C1962 C1963 1.391 . S
C1963 H1951 0.950 . S
C1963 C1959 1.393 . S
C1963 C1962 1.391 . S
H1964 C1972 0.950 . S
H1965 C1977 0.950 . S
H1966 C1974 0.950 . S
H1967 C1976 0.950 . S
H1968 C1978 0.950 . S
H1969 C1980 0.950 . S
H1970 C1982 0.950 . S
H1971 C1983 0.950 . S
C1972 H1964 0.950 . S
C1972 C1973 1.386 1_556 S
C1972 C1974 1.391 . S
C1973 C1972 1.386 1_554 S
C1973 C1977 1.393 . S
C1974 H1966 0.950 . S
C1974 C1972 1.391 . S
C1974 C1975 1.400 1_556 S
C1975 C1974 1.400 1_554 S
C1975 C1976 1.398 . S
C1975 C1981 1.491 . S
C1976 H1967 0.950 . S
C1976 C1975 1.398 . S
C1976 C1977 1.391 . S
C1977 H1965 0.950 . S
C1977 C1973 1.393 . S
C1977 C1976 1.391 . S
C1978 H1968 0.950 . S
C1978 C1979 1.386 . S
C1978 C1980 1.391 . S
C1979 C1978 1.386 . S
C1979 C1983 1.393 1_554 S
C1980 H1969 0.950 . S
C1980 C1978 1.391 . S
C1980 C1981 1.400 . S
C1981 C1975 1.491 . S
C1981 C1980 1.400 . S
C1981 C1982 1.398 1_554 S
C1982 H1970 0.950 . S
C1982 C1981 1.398 1_556 S
C1982 C1983 1.391 . S
C1983 H1971 0.950 . S
C1983 C1979 1.393 1_556 S
C1983 C1982 1.391 . S
H1984 C1992 0.968 . S
H1985 C1997 0.950 . S
H1986 C1994 0.950 . S
H1987 C1996 0.950 . S
H1988 C1998 0.950 . S
H1989 C2000 0.950 . S
H1990 C2002 0.950 . S
H1991 C2003 0.950 . S
C1992 H1984 0.968 . S
C1992 C1993 1.365 1_556 S
C1992 C1994 1.395 . S
C1993 C1992 1.365 1_554 S
C1993 C1997 1.393 . S
C1994 H1986 0.950 . S
C1994 C1992 1.395 . S
C1994 C1995 1.400 1_556 S
C1995 C1994 1.400 1_554 S
C1995 C1996 1.398 . S
C1995 C2001 1.491 . S
C1996 H1987 0.950 . S
C1996 C1995 1.398 . S
C1996 C1997 1.391 . S
C1997 H1985 0.950 . S
C1997 C1993 1.393 . S
C1997 C1996 1.391 . S
C1998 H1988 0.950 . S
C1998 C1999 1.386 . S
C1998 C2000 1.391 . S
C1999 C1998 1.386 . S
C1999 C2003 1.393 1_554 S
C2000 H1989 0.950 . S
C2000 C1998 1.391 . S
C2000 C2001 1.400 . S
C2001 C1995 1.491 . S
C2001 C2000 1.400 . S
C2001 C2002 1.398 1_554 S
C2002 H1990 0.950 . S
C2002 C2001 1.398 1_556 S
C2002 C2003 1.391 . S
C2003 H1991 0.950 . S
C2003 C1999 1.393 1_556 S
C2003 C2002 1.391 . S
H2004 C2012 0.950 . S
H2005 C2017 0.950 . S
H2006 C2014 0.950 . S
H2007 C2016 0.950 . S
H2008 C2018 0.950 . S
H2009 C2020 0.950 . S
H2010 C2022 0.950 . S
H2011 C2023 0.950 . S
C2012 H2004 0.950 . S
C2012 C2013 1.386 . S
C2012 C2014 1.391 . S
C2013 C2012 1.386 . S
C2013 C2017 1.393 . S
C2014 H2006 0.950 . S
C2014 C2012 1.391 . S
C2014 C2015 1.400 . S
C2015 C2014 1.400 . S
C2015 C2016 1.398 . S
C2015 C2021 1.491 . S
C2016 H2007 0.950 . S
C2016 C2015 1.398 . S
C2016 C2017 1.391 . S
C2017 H2005 0.950 . S
C2017 C2013 1.393 . S
C2017 C2016 1.391 . S
C2018 H2008 0.950 . S
C2018 C2019 1.386 . S
C2018 C2020 1.391 . S
C2019 C2018 1.386 . S
C2019 C2023 1.393 . S
C2020 H2009 0.950 . S
C2020 C2018 1.391 . S
C2020 C2021 1.400 . S
C2021 C2015 1.491 . S
C2021 C2020 1.400 . S
C2021 C2022 1.398 . S
C2022 H2010 0.950 . S
C2022 C2021 1.398 . S
C2022 C2023 1.391 . S
C2023 H2011 0.950 . S
C2023 C2019 1.393 . S
C2023 C2022 1.391 . S
H2024 C2032 0.950 . S
H2025 C2037 0.950 . S
H2026 C2034 0.950 . S
H2027 C2036 0.950 . S
H2028 C2038 0.950 . S
H2029 C2040 0.950 . S
H2030 C2042 0.950 . S
H2031 C2043 0.950 . S
C2032 H2024 0.950 . S
C2032 C2033 1.386 . S
C2032 C2034 1.391 . S
C2033 C2032 1.386 . S
C2033 C2037 1.393 . S
C2034 H2026 0.950 . S
C2034 C2032 1.391 . S
C2034 C2035 1.400 . S
C2035 C2034 1.400 . S
C2035 C2036 1.398 . S
C2035 C2041 1.491 . S
C2036 H2027 0.950 . S
C2036 C2035 1.398 . S
C2036 C2037 1.391 . S
C2037 H2025 0.950 . S
C2037 C2033 1.393 . S
C2037 C2036 1.391 . S
C2038 H2028 0.950 . S
C2038 C2039 1.386 . S
C2038 C2040 1.391 . S
C2039 C2038 1.386 . S
C2039 C2043 1.393 . S
C2040 H2029 0.950 . S
C2040 C2038 1.391 . S
C2040 C2041 1.400 . S
C2041 C2035 1.491 . S
C2041 C2040 1.400 . S
C2041 C2042 1.398 . S
C2042 H2030 0.950 . S
C2042 C2041 1.398 . S
C2042 C2043 1.391 . S
C2043 H2031 0.950 . S
C2043 C2039 1.393 . S
C2043 C2042 1.391 . S
H2044 C2052 0.950 . S
H2045 C2057 0.950 . S
H2046 C2054 0.950 . S
H2047 C2056 0.950 . S
H2048 C2058 0.950 . S
H2049 C2060 0.950 . S
H2050 C2062 0.950 . S
H2051 C2063 0.950 . S
C2052 H2044 0.950 . S
C2052 C2053 1.386 . S
C2052 C2054 1.391 . S
C2053 C2052 1.386 . S
C2053 C2057 1.393 . S
C2054 H2046 0.950 . S
C2054 C2052 1.391 . S
C2054 C2055 1.400 . S
C2055 C2054 1.400 . S
C2055 C2056 1.398 . S
C2055 C2061 1.491 . S
C2056 H2047 0.950 . S
C2056 C2055 1.398 . S
C2056 C2057 1.391 . S
C2057 H2045 0.950 . S
C2057 C2053 1.393 . S
C2057 C2056 1.391 . S
C2058 H2048 0.950 . S
C2058 C2059 1.386 . S
C2058 C2060 1.391 . S
C2059 C2058 1.386 . S
C2059 C2063 1.393 . S
C2060 H2049 0.950 . S
C2060 C2058 1.391 . S
C2060 C2061 1.400 . S
C2061 C2055 1.491 . S
C2061 C2060 1.400 . S
C2061 C2062 1.398 . S
C2062 H2050 0.950 . S
C2062 C2061 1.398 . S
C2062 C2063 1.391 . S
C2063 H2051 0.950 . S
C2063 C2059 1.393 . S
C2063 C2062 1.391 . S
H2064 C2072 0.950 . S
H2065 C2077 0.950 . S
H2066 C2074 0.937 1_556 S
H2067 C2076 0.950 . S
H2068 C2078 0.950 . S
H2069 C2080 0.950 . S
H2070 C2082 0.950 1_556 S
H2071 C2083 0.950 1_556 S
C2072 H2064 0.950 . S
C2072 C2073 1.386 . S
C2072 C2074 1.391 . S
C2073 C2072 1.386 . S
C2073 C2077 1.393 . S
C2074 H2066 0.937 1_554 S
C2074 C2072 1.391 . S
C2074 C2075 1.400 . S
C2075 C2074 1.400 . S
C2075 C2076 1.398 . S
C2075 C2081 1.491 . S
C2076 H2067 0.950 . S
C2076 C2075 1.398 . S
C2076 C2077 1.391 . S
C2077 H2065 0.950 . S
C2077 C2073 1.393 . S
C2077 C2076 1.391 . S
C2078 H2068 0.950 . S
C2078 C2079 1.386 . S
C2078 C2080 1.391 . S
C2079 C2078 1.386 . S
C2079 C2083 1.393 . S
C2080 H2069 0.950 . S
C2080 C2078 1.391 . S
C2080 C2081 1.400 . S
C2081 C2075 1.491 . S
C2081 C2080 1.400 . S
C2081 C2082 1.398 . S
C2082 H2070 0.950 1_554 S
C2082 C2081 1.398 . S
C2082 C2083 1.391 . S
C2083 H2071 0.950 1_554 S
C2083 C2079 1.393 . S
C2083 C2082 1.391 . S
H2084 C2092 0.940 1_556 S
H2085 C2097 0.950 . S
H2086 C2094 0.950 . S
H2087 C2096 0.950 . S
H2088 C2098 0.950 . S
H2089 C2100 0.950 . S
H2090 C2102 0.950 . S
H2091 C2103 0.950 . S
C2092 H2084 0.940 1_554 S
C2092 C2093 1.386 . S
C2092 C2094 1.391 . S
C2093 C2092 1.386 . S
C2093 C2097 1.393 . S
C2094 H2086 0.950 . S
C2094 C2092 1.391 . S
C2094 C2095 1.400 . S
C2095 C2094 1.400 . S
C2095 C2096 1.398 . S
C2095 C2101 1.491 . S
C2096 H2087 0.950 . S
C2096 C2095 1.398 . S
C2096 C2097 1.391 . S
C2097 H2085 0.950 . S
C2097 C2093 1.393 . S
C2097 C2096 1.391 . S
C2098 H2088 0.950 . S
C2098 C2099 1.386 . S
C2098 C2100 1.391 . S
C2099 C2098 1.386 . S
C2099 C2103 1.393 . S
C2100 H2089 0.950 . S
C2100 C2098 1.391 . S
C2100 C2101 1.400 . S
C2101 C2095 1.491 . S
C2101 C2100 1.400 . S
C2101 C2102 1.398 . S
C2102 H2090 0.950 . S
C2102 C2101 1.398 . S
C2102 C2103 1.391 . S
C2103 H2091 0.950 . S
C2103 C2099 1.393 . S
C2103 C2102 1.391 . S
H2104 C2112 0.950 . S
H2105 C2117 0.950 . S
H2106 C2114 0.950 . S
H2107 C2116 0.950 1_556 S
H2108 C2118 0.950 1_556 S
H2109 C2120 0.950 1_556 S
H2110 C2122 0.950 . S
H2111 C2123 0.950 . S
C2112 H2104 0.950 . S
C2112 C2113 1.386 . S
C2112 C2114 1.391 . S
C2113 C2112 1.386 . S
C2113 C2117 1.393 1_554 S
C2114 H2106 0.950 . S
C2114 C2112 1.391 . S
C2114 C2115 1.400 . S
C2115 C2114 1.400 . S
C2115 C2116 1.398 . S
C2115 C2121 1.491 . S
C2116 H2107 0.950 1_554 S
C2116 C2115 1.398 . S
C2116 C2117 1.391 1_554 S
C2117 H2105 0.950 . S
C2117 C2113 1.393 1_556 S
C2117 C2116 1.391 1_556 S
C2118 H2108 0.950 1_554 S
C2118 C2119 1.386 . S
C2118 C2120 1.391 . S
C2119 C2118 1.386 . S
C2119 C2123 1.393 . S
C2120 H2109 0.950 1_554 S
C2120 C2118 1.391 . S
C2120 C2121 1.400 . S
C2121 C2115 1.491 . S
C2121 C2120 1.400 . S
C2121 C2122 1.398 . S
C2122 H2110 0.950 . S
C2122 C2121 1.398 . S
C2122 C2123 1.391 . S
C2123 H2111 0.950 . S
C2123 C2119 1.393 . S
C2123 C2122 1.391 . S
H2124 C2132 0.950 . S
H2125 C2137 0.950 . S
H2126 C2134 0.950 . S
H2127 C2136 0.950 . S
H2128 C2138 0.950 . S
H2129 C2140 0.950 . S
H2130 C2142 0.950 . S
H2131 C2143 0.950 . S
C2132 H2124 0.950 . S
C2132 C2133 1.386 . S
C2132 C2134 1.391 . S
C2133 C2132 1.386 . S
C2133 C2137 1.393 . S
C2134 H2126 0.950 . S
C2134 C2132 1.391 . S
C2134 C2135 1.400 . S
C2135 C2134 1.400 . S
C2135 C2136 1.398 . S
C2135 C2141 1.491 . S
C2136 H2127 0.950 . S
C2136 C2135 1.398 . S
C2136 C2137 1.391 . S
C2137 H2125 0.950 . S
C2137 C2133 1.393 . S
C2137 C2136 1.391 . S
C2138 H2128 0.950 . S
C2138 C2139 1.386 . S
C2138 C2140 1.391 . S
C2139 C2138 1.386 . S
C2139 C2143 1.393 . S
C2140 H2129 0.950 . S
C2140 C2138 1.391 . S
C2140 C2141 1.400 . S
C2141 C2135 1.491 . S
C2141 C2140 1.400 . S
C2141 C2142 1.398 . S
C2142 H2130 0.950 . S
C2142 C2141 1.398 . S
C2142 C2143 1.391 . S
C2143 H2131 0.950 . S
C2143 C2139 1.393 . S
C2143 C2142 1.391 . S
H2144 C2152 0.950 . S
H2145 C2157 0.950 . S
H2146 C2154 0.950 . S
H2147 C2156 0.950 . S
H2148 C2158 0.950 . S
H2149 C2160 0.950 . S
H2150 C2162 0.950 . S
H2151 C2163 0.950 . S
C2152 H2144 0.950 . S
C2152 C2153 1.386 . S
C2152 C2154 1.391 . S
C2153 C2152 1.386 . S
C2153 C2157 1.393 . S
C2154 H2146 0.950 . S
C2154 C2152 1.391 . S
C2154 C2155 1.400 . S
C2155 C2154 1.400 . S
C2155 C2156 1.398 . S
C2155 C2161 1.491 . S
C2156 H2147 0.950 . S
C2156 C2155 1.398 . S
C2156 C2157 1.391 . S
C2157 H2145 0.950 . S
C2157 C2153 1.393 . S
C2157 C2156 1.391 . S
C2158 H2148 0.950 . S
C2158 C2159 1.386 . S
C2158 C2160 1.391 . S
C2159 C2158 1.386 . S
C2159 C2163 1.393 . S
C2160 H2149 0.950 . S
C2160 C2158 1.391 . S
C2160 C2161 1.400 . S
C2161 C2155 1.491 . S
C2161 C2160 1.400 . S
C2161 C2162 1.398 . S
C2162 H2150 0.950 . S
C2162 C2161 1.398 . S
C2162 C2163 1.391 . S
C2163 H2151 0.950 . S
C2163 C2159 1.393 . S
C2163 C2162 1.391 . S
H2164 C2172 0.950 . S
H2165 C2177 0.950 . S
H2166 C2174 0.950 . S
H2167 C2176 0.950 . S
H2168 C2178 0.950 . S
H2169 C2180 0.950 . S
H2170 C2182 0.950 . S
H2171 C2183 0.950 . S
C2172 H2164 0.950 . S
C2172 C2173 1.386 . S
C2172 C2174 1.391 . S
C2173 C2172 1.386 . S
C2173 C2177 1.393 . S
C2174 H2166 0.950 . S
C2174 C2172 1.391 . S
C2174 C2175 1.400 . S
C2175 C2174 1.400 . S
C2175 C2176 1.398 . S
C2175 C2181 1.491 . S
C2176 H2167 0.950 . S
C2176 C2175 1.398 . S
C2176 C2177 1.391 . S
C2177 H2165 0.950 . S
C2177 C2173 1.393 . S
C2177 C2176 1.391 . S
C2178 H2168 0.950 . S
C2178 C2179 1.386 . S
C2178 C2180 1.391 . S
C2179 C2178 1.386 . S
C2179 C2183 1.393 . S
C2180 H2169 0.950 . S
C2180 C2178 1.391 . S
C2180 C2181 1.400 . S
C2181 C2175 1.491 . S
C2181 C2180 1.400 . S
C2181 C2182 1.398 . S
C2182 H2170 0.950 . S
C2182 C2181 1.398 . S
C2182 C2183 1.391 . S
C2183 H2171 0.950 . S
C2183 C2179 1.393 . S
C2183 C2182 1.391 . S
H2184 C2192 0.950 . S
H2185 C2197 0.950 . S
H2186 C2194 0.950 . S
H2187 C2196 0.950 . S
H2188 C2198 0.950 . S
H2189 C2200 0.950 . S
H2190 C2202 0.950 . S
H2191 C2203 0.950 . S
C2192 H2184 0.950 . S
C2192 C2193 1.386 . S
C2192 C2194 1.391 . S
C2193 C2192 1.386 . S
C2193 C2197 1.393 . S
C2194 H2186 0.950 . S
C2194 C2192 1.391 . S
C2194 C2195 1.400 . S
C2195 C2194 1.400 . S
C2195 C2196 1.398 . S
C2195 C2201 1.491 . S
C2196 H2187 0.950 . S
C2196 C2195 1.398 . S
C2196 C2197 1.391 . S
C2197 H2185 0.950 . S
C2197 C2193 1.393 . S
C2197 C2196 1.391 . S
C2198 H2188 0.950 . S
C2198 C2199 1.386 . S
C2198 C2200 1.391 . S
C2199 C2198 1.386 . S
C2199 C2203 1.393 . S
C2200 H2189 0.950 . S
C2200 C2198 1.391 . S
C2200 C2201 1.400 . S
C2201 C2195 1.491 . S
C2201 C2200 1.400 . S
C2201 C2202 1.398 . S
C2202 H2190 0.950 . S
C2202 C2201 1.398 . S
C2202 C2203 1.391 . S
C2203 H2191 0.950 . S
C2203 C2199 1.393 . S
C2203 C2202 1.391 . S
H2204 C2212 0.950 . S
H2205 C2217 0.950 . S
H2206 C2214 0.950 . S
H2207 C2216 0.950 . S
H2208 C2218 0.950 . S
H2209 C2220 0.950 . S
H2210 C2222 0.950 . S
H2211 C2223 0.950 . S
C2212 H2204 0.950 . S
C2212 C2213 1.386 . S
C2212 C2214 1.391 . S
C2213 C2212 1.386 . S
C2213 C2217 1.393 . S
C2214 H2206 0.950 . S
C2214 C2212 1.391 . S
C2214 C2215 1.400 . S
C2215 C2214 1.400 . S
C2215 C2216 1.398 . S
C2215 C2221 1.491 . S
C2216 H2207 0.950 . S
C2216 C2215 1.398 . S
C2216 C2217 1.391 . S
C2217 H2205 0.950 . S
C2217 C2213 1.393 . S
C2217 C2216 1.391 . S
C2218 H2208 0.950 . S
C2218 C2219 1.386 . S
C2218 C2220 1.391 . S
C2219 C2218 1.386 . S
C2219 C2223 1.393 . S
C2220 H2209 0.950 . S
C2220 C2218 1.391 . S
C2220 C2221 1.400 . S
C2221 C2215 1.491 . S
C2221 C2220 1.400 . S
C2221 C2222 1.398 . S
C2222 H2210 0.950 . S
C2222 C2221 1.398 . S
C2222 C2223 1.391 . S
C2223 H2211 0.950 . S
C2223 C2219 1.393 . S
C2223 C2222 1.391 . S
H2224 C2232 0.950 . S
H2225 C2237 0.950 . S
H2226 C2234 0.950 . S
H2227 C2236 0.950 . S
H2228 C2238 0.950 . S
H2229 C2240 0.950 . S
H2230 C2242 0.950 . S
H2231 C2243 0.950 . S
C2232 H2224 0.950 . S
C2232 C2233 1.386 . S
C2232 C2234 1.391 . S
C2233 C2232 1.386 . S
C2233 C2237 1.393 . S
C2234 H2226 0.950 . S
C2234 C2232 1.391 . S
C2234 C2235 1.400 . S
C2235 C2234 1.400 . S
C2235 C2236 1.398 . S
C2235 C2241 1.491 . S
C2236 H2227 0.950 . S
C2236 C2235 1.398 . S
C2236 C2237 1.391 . S
C2237 H2225 0.950 . S
C2237 C2233 1.393 . S
C2237 C2236 1.391 . S
C2238 H2228 0.950 . S
C2238 C2239 1.386 . S
C2238 C2240 1.391 . S
C2239 C2238 1.386 . S
C2239 C2243 1.393 . S
C2240 H2229 0.950 . S
C2240 C2238 1.391 . S
C2240 C2241 1.400 . S
C2241 C2235 1.491 . S
C2241 C2240 1.400 . S
C2241 C2242 1.398 . S
C2242 H2230 0.950 . S
C2242 C2241 1.398 . S
C2242 C2243 1.391 . S
C2243 H2231 0.950 . S
C2243 C2239 1.393 . S
C2243 C2242 1.391 . S
H2244 C2252 0.950 . S
H2245 C2257 0.950 . S
H2246 C2254 0.950 . S
H2247 C2256 0.950 . S
H2248 C2258 0.950 . S
H2249 C2260 0.950 . S
H2250 C2262 0.950 . S
H2251 C2263 0.950 . S
C2252 H2244 0.950 . S
C2252 C2253 1.386 . S
C2252 C2254 1.391 . S
C2253 C2252 1.386 . S
C2253 C2257 1.393 . S
C2254 H2246 0.950 . S
C2254 C2252 1.391 . S
C2254 C2255 1.400 . S
C2255 C2254 1.400 . S
C2255 C2256 1.398 . S
C2255 C2261 1.491 . S
C2256 H2247 0.950 . S
C2256 C2255 1.398 . S
C2256 C2257 1.391 . S
C2257 H2245 0.950 . S
C2257 C2253 1.393 . S
C2257 C2256 1.391 . S
C2258 H2248 0.950 . S
C2258 C2259 1.386 . S
C2258 C2260 1.391 . S
C2259 C2258 1.386 . S
C2259 C2263 1.393 . S
C2260 H2249 0.950 . S
C2260 C2258 1.391 . S
C2260 C2261 1.400 . S
C2261 C2255 1.491 . S
C2261 C2260 1.400 . S
C2261 C2262 1.398 . S
C2262 H2250 0.950 . S
C2262 C2261 1.398 . S
C2262 C2263 1.391 . S
C2263 H2251 0.950 . S
C2263 C2259 1.393 . S
C2263 C2262 1.391 . S
H2264 C2272 0.950 . S
H2265 C2277 0.950 . S
H2266 C2274 0.950 . S
H2267 C2276 0.950 . S
H2268 C2278 0.950 . S
H2269 C2280 0.950 . S
H2270 C2282 0.950 . S
H2271 C2283 0.950 . S
C2272 H2264 0.950 . S
C2272 C2273 1.386 . S
C2272 C2274 1.391 . S
C2273 C2272 1.386 . S
C2273 C2277 1.393 . S
C2274 H2266 0.950 . S
C2274 C2272 1.391 . S
C2274 C2275 1.400 . S
C2275 C2274 1.400 . S
C2275 C2276 1.398 . S
C2275 C2281 1.491 . S
C2276 H2267 0.950 . S
C2276 C2275 1.398 . S
C2276 C2277 1.391 . S
C2277 H2265 0.950 . S
C2277 C2273 1.393 . S
C2277 C2276 1.391 . S
C2278 H2268 0.950 . S
C2278 C2279 1.386 . S
C2278 C2280 1.391 . S
C2279 C2278 1.386 . S
C2279 C2283 1.393 . S
C2280 H2269 0.950 . S
C2280 C2278 1.391 . S
C2280 C2281 1.400 . S
C2281 C2275 1.491 . S
C2281 C2280 1.400 . S
C2281 C2282 1.398 . S
C2282 H2270 0.950 . S
C2282 C2281 1.398 . S
C2282 C2283 1.391 . S
C2283 H2271 0.950 . S
C2283 C2279 1.393 . S
C2283 C2282 1.391 . S
H2284 C2292 0.950 . S
H2285 C2297 0.950 . S
H2286 C2294 0.950 . S
H2287 C2296 0.950 . S
H2288 C2298 0.950 . S
H2289 C2300 0.950 . S
H2290 C2302 0.950 . S
H2291 C2303 0.950 . S
C2292 H2284 0.950 . S
C2292 C2293 1.386 . S
C2292 C2294 1.391 . S
C2293 C2292 1.386 . S
C2293 C2297 1.393 . S
C2294 H2286 0.950 . S
C2294 C2292 1.391 . S
C2294 C2295 1.400 . S
C2295 C2294 1.400 . S
C2295 C2296 1.398 . S
C2295 C2301 1.491 . S
C2296 H2287 0.950 . S
C2296 C2295 1.398 . S
C2296 C2297 1.391 . S
C2297 H2285 0.950 . S
C2297 C2293 1.393 . S
C2297 C2296 1.391 . S
C2298 H2288 0.950 . S
C2298 C2299 1.386 . S
C2298 C2300 1.391 . S
C2299 C2298 1.386 . S
C2299 C2303 1.393 . S
C2300 H2289 0.950 . S
C2300 C2298 1.391 . S
C2300 C2301 1.400 . S
C2301 C2295 1.491 . S
C2301 C2300 1.400 . S
C2301 C2302 1.398 . S
C2302 H2290 0.950 . S
C2302 C2301 1.398 . S
C2302 C2303 1.391 . S
C2303 H2291 0.950 . S
C2303 C2299 1.393 . S
C2303 C2302 1.391 . S
H2304 C2312 0.950 . S
H2305 C2317 0.950 . S
H2306 C2314 0.950 . S
H2307 C2316 0.950 . S
H2308 C2318 0.950 . S
H2309 C2320 0.950 . S
H2310 C2322 0.950 . S
H2311 C2323 0.950 . S
C2312 H2304 0.950 . S
C2312 C2313 1.386 . S
C2312 C2314 1.391 . S
C2313 C2312 1.386 . S
C2313 C2317 1.393 . S
C2314 H2306 0.950 . S
C2314 C2312 1.391 . S
C2314 C2315 1.400 . S
C2315 C2314 1.400 . S
C2315 C2316 1.398 . S
C2315 C2321 1.491 . S
C2316 H2307 0.950 . S
C2316 C2315 1.398 . S
C2316 C2317 1.391 . S
C2317 H2305 0.950 . S
C2317 C2313 1.393 . S
C2317 C2316 1.391 . S
C2318 H2308 0.950 . S
C2318 C2319 1.386 . S
C2318 C2320 1.391 . S
C2319 C2318 1.386 . S
C2319 C2323 1.393 . S
C2320 H2309 0.950 . S
C2320 C2318 1.391 . S
C2320 C2321 1.400 . S
C2321 C2315 1.491 . S
C2321 C2320 1.400 . S
C2321 C2322 1.398 . S
C2322 H2310 0.950 . S
C2322 C2321 1.398 . S
C2322 C2323 1.391 . S
C2323 H2311 0.950 . S
C2323 C2319 1.393 . S
C2323 C2322 1.391 . S
H2324 C2332 0.950 . S
H2325 C2337 0.950 . S
H2326 C2334 0.950 . S
H2327 C2336 0.950 . S
H2328 C2338 0.950 . S
H2329 C2340 0.950 . S
H2330 C2342 0.950 . S
H2331 C2343 0.950 . S
C2332 H2324 0.950 . S
C2332 C2333 1.386 . S
C2332 C2334 1.391 . S
C2333 C2332 1.386 . S
C2333 C2337 1.393 . S
C2334 H2326 0.950 . S
C2334 C2332 1.391 . S
C2334 C2335 1.400 . S
C2335 C2334 1.400 . S
C2335 C2336 1.398 . S
C2335 C2341 1.491 . S
C2336 H2327 0.950 . S
C2336 C2335 1.398 . S
C2336 C2337 1.391 . S
C2337 H2325 0.950 . S
C2337 C2333 1.393 . S
C2337 C2336 1.391 . S
C2338 H2328 0.950 . S
C2338 C2339 1.386 . S
C2338 C2340 1.391 . S
C2339 C2338 1.386 . S
C2339 C2343 1.393 . S
C2340 H2329 0.950 . S
C2340 C2338 1.391 . S
C2340 C2341 1.400 . S
C2341 C2335 1.491 . S
C2341 C2340 1.400 . S
C2341 C2342 1.398 . S
C2342 H2330 0.950 . S
C2342 C2341 1.398 . S
C2342 C2343 1.391 . S
C2343 H2331 0.950 . S
C2343 C2339 1.393 . S
C2343 C2342 1.391 . S
H2344 C2352 0.950 . S
H2345 C2357 0.950 . S
H2346 C2354 0.950 . S
H2347 C2356 0.950 . S
H2348 C2358 0.950 . S
H2349 C2360 0.950 . S
H2350 C2362 0.950 . S
H2351 C2363 0.950 . S
C2352 H2344 0.950 . S
C2352 C2353 1.386 . S
C2352 C2354 1.391 . S
C2353 C2352 1.386 . S
C2353 C2357 1.393 . S
C2354 H2346 0.950 . S
C2354 C2352 1.391 . S
C2354 C2355 1.400 . S
C2355 C2354 1.400 . S
C2355 C2356 1.398 . S
C2355 C2361 1.491 . S
C2356 H2347 0.950 . S
C2356 C2355 1.398 . S
C2356 C2357 1.391 . S
C2357 H2345 0.950 . S
C2357 C2353 1.393 . S
C2357 C2356 1.391 . S
C2358 H2348 0.950 . S
C2358 C2359 1.386 . S
C2358 C2360 1.391 . S
C2359 C2358 1.386 . S
C2359 C2363 1.393 . S
C2360 H2349 0.950 . S
C2360 C2358 1.391 . S
C2360 C2361 1.400 . S
C2361 C2355 1.491 . S
C2361 C2360 1.400 . S
C2361 C2362 1.398 . S
C2362 H2350 0.950 . S
C2362 C2361 1.398 . S
C2362 C2363 1.391 . S
C2363 H2351 0.950 . S
C2363 C2359 1.393 . S
C2363 C2362 1.391 . S
H2364 C2372 0.950 . S
H2365 C2377 0.950 . S
H2366 C2374 0.950 . S
H2367 C2376 0.950 . S
H2368 C2378 0.950 . S
H2369 C2380 0.950 . S
H2370 C2382 0.950 . S
H2371 C2383 0.950 . S
C2372 H2364 0.950 . S
C2372 C2373 1.386 . S
C2372 C2374 1.391 . S
C2373 C2372 1.386 . S
C2373 C2377 1.393 . S
C2374 H2366 0.950 . S
C2374 C2372 1.391 . S
C2374 C2375 1.400 . S
C2375 C2374 1.400 . S
C2375 C2376 1.398 . S
C2375 C2381 1.491 . S
C2376 H2367 0.950 . S
C2376 C2375 1.398 . S
C2376 C2377 1.391 . S
C2377 H2365 0.950 . S
C2377 C2373 1.393 . S
C2377 C2376 1.391 . S
C2378 H2368 0.950 . S
C2378 C2379 1.386 . S
C2378 C2380 1.391 . S
C2379 C2378 1.386 . S
C2379 C2383 1.393 . S
C2380 H2369 0.950 . S
C2380 C2378 1.391 . S
C2380 C2381 1.400 . S
C2381 C2375 1.491 . S
C2381 C2380 1.400 . S
C2381 C2382 1.398 . S
C2382 H2370 0.950 . S
C2382 C2381 1.398 . S
C2382 C2383 1.391 . S
C2383 H2371 0.950 . S
C2383 C2379 1.393 . S
C2383 C2382 1.391 . S
H2384 C2392 0.950 . S
H2385 C2397 0.950 . S
H2386 C2394 0.950 . S
H2387 C2396 0.950 . S
H2388 C2398 0.950 . S
H2389 C2400 0.950 . S
H2390 C2402 0.950 . S
H2391 C2403 0.950 . S
C2392 H2384 0.950 . S
C2392 C2393 1.386 . S
C2392 C2394 1.391 . S
C2393 C2392 1.386 . S
C2393 C2397 1.393 . S
C2394 H2386 0.950 . S
C2394 C2392 1.391 . S
C2394 C2395 1.400 . S
C2395 C2394 1.400 . S
C2395 C2396 1.398 . S
C2395 C2401 1.491 . S
C2396 H2387 0.950 . S
C2396 C2395 1.398 . S
C2396 C2397 1.391 . S
C2397 H2385 0.950 . S
C2397 C2393 1.393 . S
C2397 C2396 1.391 . S
C2398 H2388 0.950 . S
C2398 C2399 1.386 . S
C2398 C2400 1.391 . S
C2399 C2398 1.386 . S
C2399 C2403 1.393 . S
C2400 H2389 0.950 . S
C2400 C2398 1.391 . S
C2400 C2401 1.400 . S
C2401 C2395 1.491 . S
C2401 C2400 1.400 . S
C2401 C2402 1.398 . S
C2402 H2390 0.950 . S
C2402 C2401 1.398 . S
C2402 C2403 1.391 . S
C2403 H2391 0.950 . S
C2403 C2399 1.393 . S
C2403 C2402 1.391 . S
H2404 C2412 0.950 . S
H2405 C2417 0.950 . S
H2406 C2414 0.950 . S
H2407 C2416 0.950 . S
H2408 C2418 0.950 . S
H2409 C2420 0.950 . S
H2410 C2422 0.950 . S
H2411 C2423 0.950 . S
C2412 H2404 0.950 . S
C2412 C2413 1.386 . S
C2412 C2414 1.391 . S
C2413 C2412 1.386 . S
C2413 C2417 1.393 . S
C2414 H2406 0.950 . S
C2414 C2412 1.391 . S
C2414 C2415 1.400 . S
C2415 C2414 1.400 . S
C2415 C2416 1.398 . S
C2415 C2421 1.491 . S
C2416 H2407 0.950 . S
C2416 C2415 1.398 . S
C2416 C2417 1.391 . S
C2417 H2405 0.950 . S
C2417 C2413 1.393 . S
C2417 C2416 1.391 . S
C2418 H2408 0.950 . S
C2418 C2419 1.386 . S
C2418 C2420 1.391 . S
C2419 C2418 1.386 . S
C2419 C2423 1.393 . S
C2420 H2409 0.950 . S
C2420 C2418 1.391 . S
C2420 C2421 1.400 . S
C2421 C2415 1.491 . S
C2421 C2420 1.400 . S
C2421 C2422 1.398 . S
C2422 H2410 0.950 . S
C2422 C2421 1.398 . S
C2422 C2423 1.391 . S
C2423 H2411 0.950 . S
C2423 C2419 1.393 . S
C2423 C2422 1.391 . S
H2424 C2432 0.950 . S
H2425 C2437 0.950 . S
H2426 C2434 0.950 . S
H2427 C2436 0.950 . S
H2428 C2438 0.950 . S
H2429 C2440 0.950 . S
H2430 C2442 0.950 . S
H2431 C2443 0.950 . S
C2432 H2424 0.950 . S
C2432 C2433 1.386 . S
C2432 C2434 1.391 . S
C2433 C2432 1.386 . S
C2433 C2437 1.393 . S
C2434 H2426 0.950 . S
C2434 C2432 1.391 . S
C2434 C2435 1.400 . S
C2435 C2434 1.400 . S
C2435 C2436 1.398 . S
C2435 C2441 1.491 . S
C2436 H2427 0.950 . S
C2436 C2435 1.398 . S
C2436 C2437 1.391 . S
C2437 H2425 0.950 . S
C2437 C2433 1.393 . S
C2437 C2436 1.391 . S
C2438 H2428 0.950 . S
C2438 C2439 1.386 . S
C2438 C2440 1.391 . S
C2439 C2438 1.386 . S
C2439 C2443 1.393 . S
C2440 H2429 0.950 . S
C2440 C2438 1.391 . S
C2440 C2441 1.400 . S
C2441 C2435 1.491 . S
C2441 C2440 1.400 . S
C2441 C2442 1.398 . S
C2442 H2430 0.950 . S
C2442 C2441 1.398 . S
C2442 C2443 1.391 . S
C2443 H2431 0.950 . S
C2443 C2439 1.393 . S
C2443 C2442 1.391 . S
H2444 C2452 0.950 . S
H2445 C2457 0.950 . S
H2446 C2454 0.950 . S
H2447 C2456 0.950 . S
H2448 C2458 0.950 . S
H2449 C2460 0.950 . S
H2450 C2462 0.950 . S
H2451 C2463 0.950 . S
C2452 H2444 0.950 . S
C2452 C2453 1.386 . S
C2452 C2454 1.391 . S
C2453 C2452 1.386 . S
C2453 C2457 1.393 . S
C2454 H2446 0.950 . S
C2454 C2452 1.391 . S
C2454 C2455 1.400 . S
C2455 C2454 1.400 . S
C2455 C2456 1.398 . S
C2455 C2461 1.491 . S
C2456 H2447 0.950 . S
C2456 C2455 1.398 . S
C2456 C2457 1.391 . S
C2457 H2445 0.950 . S
C2457 C2453 1.393 . S
C2457 C2456 1.391 . S
C2458 H2448 0.950 . S
C2458 C2459 1.386 . S
C2458 C2460 1.391 . S
C2459 C2458 1.386 . S
C2459 C2463 1.393 . S
C2460 H2449 0.950 . S
C2460 C2458 1.391 . S
C2460 C2461 1.400 . S
C2461 C2455 1.491 . S
C2461 C2460 1.400 . S
C2461 C2462 1.398 . S
C2462 H2450 0.950 . S
C2462 C2461 1.398 . S
C2462 C2463 1.391 . S
C2463 H2451 0.950 . S
C2463 C2459 1.393 . S
C2463 C2462 1.391 . S
H2464 C2472 0.950 . S
H2465 C2477 0.950 . S
H2466 C2474 0.950 . S
H2467 C2476 0.950 . S
H2468 C2478 0.950 . S
H2469 C2480 0.950 . S
H2470 C2482 0.950 . S
H2471 C2483 0.950 . S
C2472 H2464 0.950 . S
C2472 C2473 1.386 . S
C2472 C2474 1.391 . S
C2473 C2472 1.386 . S
C2473 C2477 1.393 . S
C2474 H2466 0.950 . S
C2474 C2472 1.391 . S
C2474 C2475 1.400 . S
C2475 C2474 1.400 . S
C2475 C2476 1.398 . S
C2475 C2481 1.491 . S
C2476 H2467 0.950 . S
C2476 C2475 1.398 . S
C2476 C2477 1.391 . S
C2477 H2465 0.950 . S
C2477 C2473 1.393 . S
C2477 C2476 1.391 . S
C2478 H2468 0.950 . S
C2478 C2479 1.386 . S
C2478 C2480 1.391 . S
C2479 C2478 1.386 . S
C2479 C2483 1.393 . S
C2480 H2469 0.950 . S
C2480 C2478 1.391 . S
C2480 C2481 1.400 . S
C2481 C2475 1.491 . S
C2481 C2480 1.400 . S
C2481 C2482 1.398 . S
C2482 H2470 0.950 . S
C2482 C2481 1.398 . S
C2482 C2483 1.391 . S
C2483 H2471 0.950 . S
C2483 C2479 1.393 . S
C2483 C2482 1.391 . S
H2484 C2492 0.950 . S
H2485 C2497 0.950 . S
H2486 C2494 0.950 . S
H2487 C2496 0.950 . S
H2488 C2498 0.950 . S
H2489 C2500 0.950 . S
H2490 C2502 0.950 . S
H2491 C2503 0.950 . S
C2492 H2484 0.950 . S
C2492 C2493 1.386 . S
C2492 C2494 1.391 . S
C2493 C2492 1.386 . S
C2493 C2497 1.393 . S
C2494 H2486 0.950 . S
C2494 C2492 1.391 . S
C2494 C2495 1.400 . S
C2495 C2494 1.400 . S
C2495 C2496 1.398 . S
C2495 C2501 1.491 . S
C2496 H2487 0.950 . S
C2496 C2495 1.398 . S
C2496 C2497 1.391 . S
C2497 H2485 0.950 . S
C2497 C2493 1.393 . S
C2497 C2496 1.391 . S
C2498 H2488 0.950 . S
C2498 C2499 1.386 . S
C2498 C2500 1.391 . S
C2499 C2498 1.386 . S
C2499 C2503 1.393 . S
C2500 H2489 0.950 . S
C2500 C2498 1.391 . S
C2500 C2501 1.400 . S
C2501 C2495 1.491 . S
C2501 C2500 1.400 . S
C2501 C2502 1.398 . S
C2502 H2490 0.950 . S
C2502 C2501 1.398 . S
C2502 C2503 1.391 . S
C2503 H2491 0.950 . S
C2503 C2499 1.393 . S
C2503 C2502 1.391 . S
H2504 C2512 0.950 . S
H2505 C2517 0.950 . S
H2506 C2514 0.950 . S
H2507 C2516 0.950 . S
H2508 C2518 0.950 . S
H2509 C2520 0.950 . S
H2510 C2522 0.950 . S
H2511 C2523 0.950 . S
C2512 H2504 0.950 . S
C2512 C2513 1.386 . S
C2512 C2514 1.391 . S
C2513 C2512 1.386 . S
C2513 C2517 1.393 . S
C2514 H2506 0.950 . S
C2514 C2512 1.391 . S
C2514 C2515 1.400 . S
C2515 C2514 1.400 . S
C2515 C2516 1.398 . S
C2515 C2521 1.491 . S
C2516 H2507 0.950 . S
C2516 C2515 1.398 . S
C2516 C2517 1.391 . S
C2517 H2505 0.950 . S
C2517 C2513 1.393 . S
C2517 C2516 1.391 . S
C2518 H2508 0.950 . S
C2518 C2519 1.386 . S
C2518 C2520 1.391 . S
C2519 C2518 1.386 . S
C2519 C2523 1.393 . S
C2520 H2509 0.950 . S
C2520 C2518 1.391 . S
C2520 C2521 1.400 . S
C2521 C2515 1.491 . S
C2521 C2520 1.400 . S
C2521 C2522 1.398 . S
C2522 H2510 0.950 . S
C2522 C2521 1.398 . S
C2522 C2523 1.391 . S
C2523 H2511 0.950 . S
C2523 C2519 1.393 . S
C2523 C2522 1.391 . S
H2524 C2532 0.950 . S
H2525 C2537 0.950 . S
H2526 C2534 0.950 . S
H2527 C2536 0.950 . S
H2528 C2538 0.950 . S
H2529 C2540 0.950 . S
H2530 C2542 0.950 . S
H2531 C2543 0.950 . S
C2532 H2524 0.950 . S
C2532 C2533 1.386 . S
C2532 C2534 1.391 . S
C2533 C2532 1.386 . S
C2533 C2537 1.393 . S
C2534 H2526 0.950 . S
C2534 C2532 1.391 . S
C2534 C2535 1.400 . S
C2535 C2534 1.400 . S
C2535 C2536 1.398 . S
C2535 C2541 1.491 . S
C2536 H2527 0.950 . S
C2536 C2535 1.398 . S
C2536 C2537 1.391 . S
C2537 H2525 0.950 . S
C2537 C2533 1.393 . S
C2537 C2536 1.391 . S
C2538 H2528 0.950 . S
C2538 C2539 1.386 . S
C2538 C2540 1.391 . S
C2539 C2538 1.386 . S
C2539 C2543 1.393 . S
C2540 H2529 0.950 . S
C2540 C2538 1.391 . S
C2540 C2541 1.400 . S
C2541 C2535 1.491 . S
C2541 C2540 1.400 . S
C2541 C2542 1.398 . S
C2542 H2530 0.950 . S
C2542 C2541 1.398 . S
C2542 C2543 1.391 . S
C2543 H2531 0.950 . S
C2543 C2539 1.393 . S
C2543 C2542 1.391 . S
H2544 C2552 0.950 . S
H2545 C2557 0.950 . S
H2546 C2554 0.950 . S
H2547 C2556 0.950 . S
H2548 C2558 0.950 . S
H2549 C2560 0.950 . S
H2550 C2562 0.950 . S
H2551 C2563 0.950 . S
C2552 H2544 0.950 . S
C2552 C2553 1.386 . S
C2552 C2554 1.391 . S
C2553 C2552 1.386 . S
C2553 C2557 1.393 . S
C2554 H2546 0.950 . S
C2554 C2552 1.391 . S
C2554 C2555 1.400 . S
C2555 C2554 1.400 . S
C2555 C2556 1.398 . S
C2555 C2561 1.491 . S
C2556 H2547 0.950 . S
C2556 C2555 1.398 . S
C2556 C2557 1.391 . S
C2557 H2545 0.950 . S
C2557 C2553 1.393 . S
C2557 C2556 1.391 . S
C2558 H2548 0.950 . S
C2558 C2559 1.386 . S
C2558 C2560 1.391 . S
C2559 C2558 1.386 . S
C2559 C2563 1.393 . S
C2560 H2549 0.950 . S
C2560 C2558 1.391 . S
C2560 C2561 1.400 . S
C2561 C2555 1.491 . S
C2561 C2560 1.400 . S
C2561 C2562 1.398 . S
C2562 H2550 0.950 . S
C2562 C2561 1.398 . S
C2562 C2563 1.391 . S
C2563 H2551 0.950 . S
C2563 C2559 1.393 . S
C2563 C2562 1.391 . S
H2564 C2572 0.950 . S
H2565 C2577 0.950 . S
H2566 C2574 0.950 . S
H2567 C2576 0.950 . S
H2568 C2578 0.950 . S
H2569 C2580 0.950 . S
H2570 C2582 0.950 . S
H2571 C2583 0.950 . S
C2572 H2564 0.950 . S
C2572 C2573 1.386 . S
C2572 C2574 1.391 . S
C2573 C2572 1.386 . S
C2573 C2577 1.393 . S
C2574 H2566 0.950 . S
C2574 C2572 1.391 . S
C2574 C2575 1.400 . S
C2575 C2574 1.400 . S
C2575 C2576 1.398 . S
C2575 C2581 1.491 . S
C2576 H2567 0.950 . S
C2576 C2575 1.398 . S
C2576 C2577 1.391 . S
C2577 H2565 0.950 . S
C2577 C2573 1.393 . S
C2577 C2576 1.391 . S
C2578 H2568 0.950 . S
C2578 C2579 1.386 . S
C2578 C2580 1.391 . S
C2579 C2578 1.386 . S
C2579 C2583 1.393 . S
C2580 H2569 0.950 . S
C2580 C2578 1.391 . S
C2580 C2581 1.400 . S
C2581 C2575 1.491 . S
C2581 C2580 1.400 . S
C2581 C2582 1.398 . S
C2582 H2570 0.950 . S
C2582 C2581 1.398 . S
C2582 C2583 1.391 . S
C2583 H2571 0.950 . S
C2583 C2579 1.393 . S
C2583 C2582 1.391 . S
H2584 C2592 0.950 . S
H2585 C2597 0.950 . S
H2586 C2594 0.950 . S
H2587 C2596 0.950 . S
H2588 C2598 0.950 . S
H2589 C2600 0.950 . S
H2590 C2602 0.950 . S
H2591 C2603 0.950 . S
C2592 H2584 0.950 . S
C2592 C2593 1.386 . S
C2592 C2594 1.391 . S
C2593 C2592 1.386 . S
C2593 C2597 1.393 . S
C2594 H2586 0.950 . S
C2594 C2592 1.391 . S
C2594 C2595 1.400 . S
C2595 C2594 1.400 . S
C2595 C2596 1.398 . S
C2595 C2601 1.491 . S
C2596 H2587 0.950 . S
C2596 C2595 1.398 . S
C2596 C2597 1.391 . S
C2597 H2585 0.950 . S
C2597 C2593 1.393 . S
C2597 C2596 1.391 . S
C2598 H2588 0.950 . S
C2598 C2599 1.386 . S
C2598 C2600 1.391 . S
C2599 C2598 1.386 . S
C2599 C2603 1.393 . S
C2600 H2589 0.950 . S
C2600 C2598 1.391 . S
C2600 C2601 1.400 . S
C2601 C2595 1.491 . S
C2601 C2600 1.400 . S
C2601 C2602 1.398 . S
C2602 H2590 0.950 . S
C2602 C2601 1.398 . S
C2602 C2603 1.391 . S
C2603 H2591 0.950 . S
C2603 C2599 1.393 . S
C2603 C2602 1.391 . S
H2604 C2612 0.950 . S
H2605 C2617 0.950 . S
H2606 C2614 0.950 . S
H2607 C2616 0.950 . S
H2608 C2618 0.950 . S
H2609 C2620 0.950 . S
H2610 C2622 0.950 . S
H2611 C2623 0.950 . S
C2612 H2604 0.950 . S
C2612 C2613 1.386 . S
C2612 C2614 1.391 . S
C2613 C2612 1.386 . S
C2613 C2617 1.393 . S
C2614 H2606 0.950 . S
C2614 C2612 1.391 . S
C2614 C2615 1.400 . S
C2615 C2614 1.400 . S
C2615 C2616 1.398 . S
C2615 C2621 1.491 . S
C2616 H2607 0.950 . S
C2616 C2615 1.398 . S
C2616 C2617 1.391 . S
C2617 H2605 0.950 . S
C2617 C2613 1.393 . S
C2617 C2616 1.391 . S
C2618 H2608 0.950 . S
C2618 C2619 1.386 . S
C2618 C2620 1.391 . S
C2619 C2618 1.386 . S
C2619 C2623 1.393 . S
C2620 H2609 0.950 . S
C2620 C2618 1.391 . S
C2620 C2621 1.400 . S
C2621 C2615 1.491 . S
C2621 C2620 1.400 . S
C2621 C2622 1.398 . S
C2622 H2610 0.950 . S
C2622 C2621 1.398 . S
C2622 C2623 1.391 . S
C2623 H2611 0.950 . S
C2623 C2619 1.393 . S
C2623 C2622 1.391 . S
H2624 C2632 0.950 . S
H2625 C2637 0.950 . S
H2626 C2634 0.950 . S
H2627 C2636 0.950 . S
H2628 C2638 0.950 . S
H2629 C2640 0.950 . S
H2630 C2642 0.950 . S
H2631 C2643 0.950 . S
C2632 H2624 0.950 . S
C2632 C2633 1.386 . S
C2632 C2634 1.391 . S
C2633 C2632 1.386 . S
C2633 C2637 1.393 . S
C2634 H2626 0.950 . S
C2634 C2632 1.391 . S
C2634 C2635 1.400 . S
C2635 C2634 1.400 . S
C2635 C2636 1.398 . S
C2635 C2641 1.491 . S
C2636 H2627 0.950 . S
C2636 C2635 1.398 . S
C2636 C2637 1.391 . S
C2637 H2625 0.950 . S
C2637 C2633 1.393 . S
C2637 C2636 1.391 . S
C2638 H2628 0.950 . S
C2638 C2639 1.386 . S
C2638 C2640 1.391 . S
C2639 C2638 1.386 . S
C2639 C2643 1.393 . S
C2640 H2629 0.950 . S
C2640 C2638 1.391 . S
C2640 C2641 1.400 . S
C2641 C2635 1.491 . S
C2641 C2640 1.400 . S
C2641 C2642 1.398 . S
C2642 H2630 0.950 . S
C2642 C2641 1.398 . S
C2642 C2643 1.391 . S
C2643 H2631 0.950 . S
C2643 C2639 1.393 . S
C2643 C2642 1.391 . S
H2644 C2652 0.950 . S
H2645 C2657 0.950 . S
H2646 C2654 0.950 . S
H2647 C2656 0.950 . S
H2648 C2658 0.950 . S
H2649 C2660 0.950 . S
H2650 C2662 0.950 . S
H2651 C2663 0.950 . S
C2652 H2644 0.950 . S
C2652 C2653 1.386 . S
C2652 C2654 1.391 . S
C2653 C2652 1.386 . S
C2653 C2657 1.393 . S
C2654 H2646 0.950 . S
C2654 C2652 1.391 . S
C2654 C2655 1.400 . S
C2655 C2654 1.400 . S
C2655 C2656 1.398 . S
C2655 C2661 1.491 . S
C2656 H2647 0.950 . S
C2656 C2655 1.398 . S
C2656 C2657 1.391 . S
C2657 H2645 0.950 . S
C2657 C2653 1.393 . S
C2657 C2656 1.391 . S
C2658 H2648 0.950 . S
C2658 C2659 1.386 . S
C2658 C2660 1.391 . S
C2659 C2658 1.386 . S
C2659 C2663 1.393 . S
C2660 H2649 0.950 . S
C2660 C2658 1.391 . S
C2660 C2661 1.400 . S
C2661 C2655 1.491 . S
C2661 C2660 1.400 . S
C2661 C2662 1.398 . S
C2662 H2650 0.950 . S
C2662 C2661 1.398 . S
C2662 C2663 1.391 . S
C2663 H2651 0.950 . S
C2663 C2659 1.393 . S
C2663 C2662 1.391 . S
H2664 C2672 0.950 . S
H2665 C2677 0.950 . S
H2666 C2674 0.950 . S
H2667 C2676 0.950 . S
H2668 C2678 0.950 . S
H2669 C2680 0.950 . S
H2670 C2682 0.950 . S
H2671 C2683 0.950 . S
C2672 H2664 0.950 . S
C2672 C2673 1.386 . S
C2672 C2674 1.391 . S
C2673 C2672 1.386 . S
C2673 C2677 1.393 . S
C2674 H2666 0.950 . S
C2674 C2672 1.391 . S
C2674 C2675 1.400 . S
C2675 C2674 1.400 . S
C2675 C2676 1.398 . S
C2675 C2681 1.491 . S
C2676 H2667 0.950 . S
C2676 C2675 1.398 . S
C2676 C2677 1.391 . S
C2677 H2665 0.950 . S
C2677 C2673 1.393 . S
C2677 C2676 1.391 . S
C2678 H2668 0.950 . S
C2678 C2679 1.386 . S
C2678 C2680 1.391 . S
C2679 C2678 1.386 . S
C2679 C2683 1.393 . S
C2680 H2669 0.950 . S
C2680 C2678 1.391 . S
C2680 C2681 1.400 . S
C2681 C2675 1.491 . S
C2681 C2680 1.400 . S
C2681 C2682 1.398 . S
C2682 H2670 0.950 . S
C2682 C2681 1.398 . S
C2682 C2683 1.391 . S
C2683 H2671 0.950 . S
C2683 C2679 1.393 . S
C2683 C2682 1.391 . S
H2684 C2692 0.950 . S
H2685 C2697 0.950 . S
H2686 C2694 0.950 . S
H2687 C2696 0.950 . S
H2688 C2698 0.950 . S
H2689 C2700 0.950 . S
H2690 C2702 0.950 . S
H2691 C2703 0.950 . S
C2692 H2684 0.950 . S
C2692 C2693 1.386 1_565 S
C2692 C2694 1.391 . S
C2693 C2692 1.386 1_545 S
C2693 C2697 1.393 . S
C2694 H2686 0.950 . S
C2694 C2692 1.391 . S
C2694 C2695 1.400 1_565 S
C2695 C2694 1.400 1_545 S
C2695 C2696 1.398 . S
C2695 C2701 1.487 1_545 S
C2696 H2687 0.950 . S
C2696 C2695 1.398 . S
C2696 C2697 1.391 . S
C2697 H2685 0.950 . S
C2697 C2693 1.393 . S
C2697 C2696 1.391 . S
C2698 H2688 0.950 . S
C2698 C2699 1.386 1_545 S
C2698 C2700 1.391 . S
C2699 C2698 1.386 1_565 S
C2699 C2703 1.393 . S
C2700 H2689 0.950 . S
C2700 C2698 1.391 . S
C2700 C2701 1.387 1_545 S
C2701 C2695 1.487 1_565 S
C2701 C2700 1.387 1_565 S
C2701 C2702 1.418 . S
C2702 H2690 0.950 . S
C2702 C2701 1.418 . S
C2702 C2703 1.391 . S
C2703 H2691 0.950 . S
C2703 C2699 1.393 . S
C2703 C2702 1.391 . S
H2704 C2712 0.950 . S
H2705 C2717 0.950 . S
H2706 C2714 0.950 . S
H2707 C2716 0.950 . S
H2708 C2718 0.950 . S
H2709 C2720 0.950 . S
H2710 C2722 0.950 . S
H2711 C2723 0.950 . S
C2712 H2704 0.950 . S
C2712 C2713 1.386 . S
C2712 C2714 1.391 . S
C2713 C2712 1.386 . S
C2713 C2717 1.393 1_455 S
C2714 H2706 0.950 . S
C2714 C2712 1.391 . S
C2714 C2715 1.419 . S
C2715 C2714 1.419 . S
C2715 C2716 1.381 1_455 S
C2715 C2721 1.490 1_455 S
C2716 H2707 0.950 . S
C2716 C2715 1.381 1_655 S
C2716 C2717 1.391 . S
C2717 H2705 0.950 . S
C2717 C2713 1.393 1_655 S
C2717 C2716 1.391 . S
C2718 H2708 0.950 . S
C2718 C2719 1.386 . S
C2718 C2720 1.391 . S
C2719 C2718 1.386 . S
C2719 C2723 1.393 1_655 S
C2720 H2709 0.950 . S
C2720 C2718 1.391 . S
C2720 C2721 1.408 . S
C2721 C2715 1.490 1_655 S
C2721 C2720 1.408 . S
C2721 C2722 1.391 1_655 S
C2722 H2710 0.950 . S
C2722 C2721 1.391 1_455 S
C2722 C2723 1.391 . S
C2723 H2711 0.950 . S
C2723 C2719 1.393 1_455 S
C2723 C2722 1.391 . S
H2724 C2732 0.950 . S
H2725 C2737 0.950 . S
H2726 C2734 0.950 . S
H2727 C2736 0.950 . S
H2728 C2738 0.950 . S
H2729 C2740 0.950 . S
H2730 C2742 0.950 . S
H2731 C2743 0.950 . S
C2732 H2724 0.950 . S
C2732 C2733 1.386 . S
C2732 C2734 1.391 . S
C2733 C2732 1.386 . S
C2733 C2737 1.393 . S
C2734 H2726 0.950 . S
C2734 C2732 1.391 . S
C2734 C2735 1.400 . S
C2735 C2734 1.400 . S
C2735 C2736 1.398 . S
C2735 C2741 1.491 . S
C2736 H2727 0.950 . S
C2736 C2735 1.398 . S
C2736 C2737 1.391 . S
C2737 H2725 0.950 . S
C2737 C2733 1.393 . S
C2737 C2736 1.391 . S
C2738 H2728 0.950 . S
C2738 C2739 1.386 . S
C2738 C2740 1.391 . S
C2739 C2738 1.386 . S
C2739 C2743 1.393 . S
C2740 H2729 0.950 . S
C2740 C2738 1.391 . S
C2740 C2741 1.400 . S
C2741 C2735 1.491 . S
C2741 C2740 1.400 . S
C2741 C2742 1.398 . S
C2742 H2730 0.950 . S
C2742 C2741 1.398 . S
C2742 C2743 1.391 . S
C2743 H2731 0.950 . S
C2743 C2739 1.393 . S
C2743 C2742 1.391 . S
H2744 C2752 0.950 . S
H2745 C2757 0.950 . S
H2746 C2754 0.950 . S
H2747 C2756 0.950 . S
H2748 C2758 0.950 . S
H2749 C2760 0.950 . S
H2750 C2762 0.950 . S
H2751 C2763 0.950 . S
C2752 H2744 0.950 . S
C2752 C2753 1.386 1_565 S
C2752 C2754 1.391 . S
C2753 C2752 1.386 1_545 S
C2753 C2757 1.393 . S
C2754 H2746 0.950 . S
C2754 C2752 1.391 . S
C2754 C2755 1.360 1_565 S
C2755 C2754 1.360 1_545 S
C2755 C2756 1.443 . S
C2755 C2761 1.488 1_545 S
C2756 H2747 0.950 . S
C2756 C2755 1.443 . S
C2756 C2757 1.391 . S
C2757 H2745 0.950 . S
C2757 C2753 1.393 . S
C2757 C2756 1.391 . S
C2758 H2748 0.950 . S
C2758 C2759 1.386 1_545 S
C2758 C2760 1.391 . S
C2759 C2758 1.386 1_565 S
C2759 C2763 1.393 . S
C2760 H2749 0.950 . S
C2760 C2758 1.391 . S
C2760 C2761 1.379 1_545 S
C2761 C2755 1.488 1_565 S
C2761 C2760 1.379 1_565 S
C2761 C2762 1.422 . S
C2762 H2750 0.950 . S
C2762 C2761 1.422 . S
C2762 C2763 1.391 . S
C2763 H2751 0.950 . S
C2763 C2759 1.393 . S
C2763 C2762 1.391 . S
H2764 C2772 0.950 . S
H2765 C2777 0.950 . S
H2766 C2774 0.950 . S
H2767 C2776 0.950 . S
H2768 C2778 0.950 . S
H2769 C2780 0.950 . S
H2770 C2782 0.950 . S
H2771 C2783 0.950 . S
C2772 H2764 0.950 . S
C2772 C2773 1.386 . S
C2772 C2774 1.391 . S
C2773 C2772 1.386 . S
C2773 C2777 1.393 1_455 S
C2774 H2766 0.950 . S
C2774 C2772 1.391 . S
C2774 C2775 1.398 . S
C2775 C2774 1.398 . S
C2775 C2776 1.402 1_455 S
C2775 C2781 1.490 1_455 S
C2776 H2767 0.950 . S
C2776 C2775 1.402 1_655 S
C2776 C2777 1.391 . S
C2777 H2765 0.950 . S
C2777 C2773 1.393 1_655 S
C2777 C2776 1.391 . S
C2778 H2768 0.950 . S
C2778 C2779 1.386 . S
C2778 C2780 1.391 . S
C2779 C2778 1.386 . S
C2779 C2783 1.393 1_655 S
C2780 H2769 0.950 . S
C2780 C2778 1.391 . S
C2780 C2781 1.400 . S
C2781 C2775 1.490 1_655 S
C2781 C2780 1.400 . S
C2781 C2782 1.399 1_655 S
C2782 H2770 0.950 . S
C2782 C2781 1.399 1_455 S
C2782 C2783 1.391 . S
C2783 H2771 0.950 . S
C2783 C2779 1.393 1_455 S
C2783 C2782 1.391 . S
H2784 C2792 0.950 . S
H2785 C2797 0.950 . S
H2786 C2794 0.950 . S
H2787 C2796 0.950 . S
H2788 C2798 0.950 . S
H2789 C2800 0.950 . S
H2790 C2802 0.950 . S
H2791 C2803 0.950 . S
C2792 H2784 0.950 . S
C2792 C2793 1.386 . S
C2792 C2794 1.391 . S
C2793 C2792 1.386 . S
C2793 C2797 1.393 . S
C2794 H2786 0.950 . S
C2794 C2792 1.391 . S
C2794 C2795 1.400 . S
C2795 C2794 1.400 . S
C2795 C2796 1.398 . S
C2795 C2801 1.491 . S
C2796 H2787 0.950 . S
C2796 C2795 1.398 . S
C2796 C2797 1.391 . S
C2797 H2785 0.950 . S
C2797 C2793 1.393 . S
C2797 C2796 1.391 . S
C2798 H2788 0.950 . S
C2798 C2799 1.386 . S
C2798 C2800 1.391 . S
C2799 C2798 1.386 . S
C2799 C2803 1.393 . S
C2800 H2789 0.950 . S
C2800 C2798 1.391 . S
C2800 C2801 1.400 . S
C2801 C2795 1.491 . S
C2801 C2800 1.400 . S
C2801 C2802 1.398 . S
C2802 H2790 0.950 . S
C2802 C2801 1.398 . S
C2802 C2803 1.391 . S
C2803 H2791 0.950 . S
C2803 C2799 1.393 . S
C2803 C2802 1.391 . S
H2804 C2812 0.950 . S
H2805 C2817 0.950 . S
H2806 C2814 0.950 . S
H2807 C2816 0.950 . S
H2808 C2818 0.950 . S
H2809 C2820 0.950 . S
H2810 C2822 0.950 . S
H2811 C2823 0.950 . S
C2812 H2804 0.950 . S
C2812 C2813 1.386 . S
C2812 C2814 1.391 . S
C2813 C2812 1.386 . S
C2813 C2817 1.393 . S
C2814 H2806 0.950 . S
C2814 C2812 1.391 . S
C2814 C2815 1.400 . S
C2815 C2814 1.400 . S
C2815 C2816 1.398 . S
C2815 C2821 1.491 . S
C2816 H2807 0.950 . S
C2816 C2815 1.398 . S
C2816 C2817 1.391 . S
C2817 H2805 0.950 . S
C2817 C2813 1.393 . S
C2817 C2816 1.391 . S
C2818 H2808 0.950 . S
C2818 C2819 1.386 . S
C2818 C2820 1.391 . S
C2819 C2818 1.386 . S
C2819 C2823 1.393 . S
C2820 H2809 0.950 . S
C2820 C2818 1.391 . S
C2820 C2821 1.400 . S
C2821 C2815 1.491 . S
C2821 C2820 1.400 . S
C2821 C2822 1.398 . S
C2822 H2810 0.950 . S
C2822 C2821 1.398 . S
C2822 C2823 1.391 . S
C2823 H2811 0.950 . S
C2823 C2819 1.393 . S
C2823 C2822 1.391 . S
H2824 C2832 0.950 . S
H2825 C2837 0.950 . S
H2826 C2834 0.950 . S
H2827 C2836 0.950 . S
H2828 C2838 0.950 . S
H2829 C2840 0.950 . S
H2830 C2842 0.950 . S
H2831 C2843 0.950 . S
C2832 H2824 0.950 . S
C2832 C2833 1.386 . S
C2832 C2834 1.391 . S
C2833 C2832 1.386 . S
C2833 C2837 1.393 . S
C2834 H2826 0.950 . S
C2834 C2832 1.391 . S
C2834 C2835 1.400 . S
C2835 C2834 1.400 . S
C2835 C2836 1.398 . S
C2835 C2841 1.491 . S
C2836 H2827 0.950 . S
C2836 C2835 1.398 . S
C2836 C2837 1.391 . S
C2837 H2825 0.950 . S
C2837 C2833 1.393 . S
C2837 C2836 1.391 . S
C2838 H2828 0.950 . S
C2838 C2839 1.386 . S
C2838 C2840 1.391 . S
C2839 C2838 1.386 . S
C2839 C2843 1.393 . S
C2840 H2829 0.950 . S
C2840 C2838 1.391 . S
C2840 C2841 1.400 . S
C2841 C2835 1.491 . S
C2841 C2840 1.400 . S
C2841 C2842 1.398 . S
C2842 H2830 0.950 . S
C2842 C2841 1.398 . S
C2842 C2843 1.391 . S
C2843 H2831 0.950 . S
C2843 C2839 1.393 . S
C2843 C2842 1.391 . S
H2844 C2852 0.950 . S
H2845 C2857 0.950 . S
H2846 C2854 0.950 . S
H2847 C2856 0.950 . S
H2848 C2858 0.950 . S
H2849 C2860 0.950 . S
H2850 C2862 0.950 . S
H2851 C2863 0.950 . S
C2852 H2844 0.950 . S
C2852 C2853 1.386 . S
C2852 C2854 1.391 . S
C2853 C2852 1.386 . S
C2853 C2857 1.393 . S
C2854 H2846 0.950 . S
C2854 C2852 1.391 . S
C2854 C2855 1.400 . S
C2855 C2854 1.400 . S
C2855 C2856 1.398 . S
C2855 C2861 1.491 . S
C2856 H2847 0.950 . S
C2856 C2855 1.398 . S
C2856 C2857 1.391 . S
C2857 H2845 0.950 . S
C2857 C2853 1.393 . S
C2857 C2856 1.391 . S
C2858 H2848 0.950 . S
C2858 C2859 1.386 . S
C2858 C2860 1.391 . S
C2859 C2858 1.386 . S
C2859 C2863 1.393 . S
C2860 H2849 0.950 . S
C2860 C2858 1.391 . S
C2860 C2861 1.400 . S
C2861 C2855 1.491 . S
C2861 C2860 1.400 . S
C2861 C2862 1.398 . S
C2862 H2850 0.950 . S
C2862 C2861 1.398 . S
C2862 C2863 1.391 . S
C2863 H2851 0.950 . S
C2863 C2859 1.393 . S
C2863 C2862 1.391 . S
H2864 C2872 0.950 . S
H2865 C2877 0.950 . S
H2866 C2874 0.950 . S
H2867 C2876 0.950 . S
H2868 C2878 0.950 . S
H2869 C2880 0.950 . S
H2870 C2882 0.950 . S
H2871 C2883 0.950 . S
C2872 H2864 0.950 . S
C2872 C2873 1.386 . S
C2872 C2874 1.391 . S
C2873 C2872 1.386 . S
C2873 C2877 1.393 . S
C2874 H2866 0.950 . S
C2874 C2872 1.391 . S
C2874 C2875 1.400 . S
C2875 C2874 1.400 . S
C2875 C2876 1.398 . S
C2875 C2881 1.491 . S
C2876 H2867 0.950 . S
C2876 C2875 1.398 . S
C2876 C2877 1.391 . S
C2877 H2865 0.950 . S
C2877 C2873 1.393 . S
C2877 C2876 1.391 . S
C2878 H2868 0.950 . S
C2878 C2879 1.386 . S
C2878 C2880 1.391 . S
C2879 C2878 1.386 . S
C2879 C2883 1.393 . S
C2880 H2869 0.950 . S
C2880 C2878 1.391 . S
C2880 C2881 1.400 . S
C2881 C2875 1.491 . S
C2881 C2880 1.400 . S
C2881 C2882 1.398 . S
C2882 H2870 0.950 . S
C2882 C2881 1.398 . S
C2882 C2883 1.391 . S
C2883 H2871 0.950 . S
C2883 C2879 1.393 . S
C2883 C2882 1.391 . S
H2884 C2892 0.950 . S
H2885 C2897 0.950 . S
H2886 C2894 0.950 . S
H2887 C2896 0.950 . S
H2888 C2898 0.950 . S
H2889 C2900 0.950 . S
H2890 C2902 0.950 . S
H2891 C2903 0.950 . S
C2892 H2884 0.950 . S
C2892 C2893 1.386 . S
C2892 C2894 1.391 . S
C2893 C2892 1.386 . S
C2893 C2897 1.393 . S
C2894 H2886 0.950 . S
C2894 C2892 1.391 . S
C2894 C2895 1.400 . S
C2895 C2894 1.400 . S
C2895 C2896 1.398 . S
C2895 C2901 1.491 . S
C2896 H2887 0.950 . S
C2896 C2895 1.398 . S
C2896 C2897 1.391 . S
C2897 H2885 0.950 . S
C2897 C2893 1.393 . S
C2897 C2896 1.391 . S
C2898 H2888 0.950 . S
C2898 C2899 1.386 . S
C2898 C2900 1.391 . S
C2899 C2898 1.386 . S
C2899 C2903 1.393 . S
C2900 H2889 0.950 . S
C2900 C2898 1.391 . S
C2900 C2901 1.400 . S
C2901 C2895 1.491 . S
C2901 C2900 1.400 . S
C2901 C2902 1.398 . S
C2902 H2890 0.950 . S
C2902 C2901 1.398 . S
C2902 C2903 1.391 . S
C2903 H2891 0.950 . S
C2903 C2899 1.393 . S
C2903 C2902 1.391 . S
H2904 C2912 0.950 . S
H2905 C2917 0.950 . S
H2906 C2914 0.950 . S
H2907 C2916 0.950 . S
H2908 C2918 0.950 . S
H2909 C2920 0.950 . S
H2910 C2922 0.950 . S
H2911 C2923 0.950 . S
C2912 H2904 0.950 . S
C2912 C2913 1.386 . S
C2912 C2914 1.391 . S
C2913 C2912 1.386 . S
C2913 C2917 1.393 . S
C2914 H2906 0.950 . S
C2914 C2912 1.391 . S
C2914 C2915 1.400 . S
C2915 C2914 1.400 . S
C2915 C2916 1.398 . S
C2915 C2921 1.491 . S
C2916 H2907 0.950 . S
C2916 C2915 1.398 . S
C2916 C2917 1.391 . S
C2917 H2905 0.950 . S
C2917 C2913 1.393 . S
C2917 C2916 1.391 . S
C2918 H2908 0.950 . S
C2918 C2919 1.386 . S
C2918 C2920 1.391 . S
C2919 C2918 1.386 . S
C2919 C2923 1.393 . S
C2920 H2909 0.950 . S
C2920 C2918 1.391 . S
C2920 C2921 1.400 . S
C2921 C2915 1.491 . S
C2921 C2920 1.400 . S
C2921 C2922 1.398 . S
C2922 H2910 0.950 . S
C2922 C2921 1.398 . S
C2922 C2923 1.391 . S
C2923 H2911 0.950 . S
C2923 C2919 1.393 . S
C2923 C2922 1.391 . S
H2924 C2932 0.950 . S
H2925 C2937 0.950 . S
H2926 C2934 0.950 . S
H2927 C2936 0.950 . S
H2928 C2938 0.950 . S
H2929 C2940 0.950 . S
H2930 C2942 0.950 . S
H2931 C2943 0.950 . S
C2932 H2924 0.950 . S
C2932 C2933 1.386 . S
C2932 C2934 1.391 . S
C2933 C2932 1.386 . S
C2933 C2937 1.393 . S
C2934 H2926 0.950 . S
C2934 C2932 1.391 . S
C2934 C2935 1.400 . S
C2935 C2934 1.400 . S
C2935 C2936 1.398 . S
C2935 C2941 1.491 . S
C2936 H2927 0.950 . S
C2936 C2935 1.398 . S
C2936 C2937 1.391 . S
C2937 H2925 0.950 . S
C2937 C2933 1.393 . S
C2937 C2936 1.391 . S
C2938 H2928 0.950 . S
C2938 C2939 1.386 . S
C2938 C2940 1.391 . S
C2939 C2938 1.386 . S
C2939 C2943 1.393 . S
C2940 H2929 0.950 . S
C2940 C2938 1.391 . S
C2940 C2941 1.400 . S
C2941 C2935 1.491 . S
C2941 C2940 1.400 . S
C2941 C2942 1.398 . S
C2942 H2930 0.950 . S
C2942 C2941 1.398 . S
C2942 C2943 1.391 . S
C2943 H2931 0.950 . S
C2943 C2939 1.393 . S
C2943 C2942 1.391 . S
H2944 C2952 0.950 . S
H2945 C2957 0.950 . S
H2946 C2954 0.950 . S
H2947 C2956 0.950 . S
H2948 C2958 0.950 . S
H2949 C2960 0.950 . S
H2950 C2962 0.950 . S
H2951 C2963 0.950 . S
C2952 H2944 0.950 . S
C2952 C2953 1.386 . S
C2952 C2954 1.391 . S
C2953 C2952 1.386 . S
C2953 C2957 1.393 . S
C2954 H2946 0.950 . S
C2954 C2952 1.391 . S
C2954 C2955 1.400 . S
C2955 C2954 1.400 . S
C2955 C2956 1.398 . S
C2955 C2961 1.491 . S
C2956 H2947 0.950 . S
C2956 C2955 1.398 . S
C2956 C2957 1.391 . S
C2957 H2945 0.950 . S
C2957 C2953 1.393 . S
C2957 C2956 1.391 . S
C2958 H2948 0.950 . S
C2958 C2959 1.386 . S
C2958 C2960 1.391 . S
C2959 C2958 1.386 . S
C2959 C2963 1.393 . S
C2960 H2949 0.950 . S
C2960 C2958 1.391 . S
C2960 C2961 1.400 . S
C2961 C2955 1.491 . S
C2961 C2960 1.400 . S
C2961 C2962 1.398 . S
C2962 H2950 0.950 . S
C2962 C2961 1.398 . S
C2962 C2963 1.391 . S
C2963 H2951 0.950 . S
C2963 C2959 1.393 . S
C2963 C2962 1.391 . S
H2964 C2972 0.950 . S
H2965 C2977 0.950 . S
H2966 C2974 0.950 . S
H2967 C2976 0.950 . S
H2968 C2978 0.950 . S
H2969 C2980 0.950 . S
H2970 C2982 0.950 . S
H2971 C2983 0.950 . S
C2972 H2964 0.950 . S
C2972 C2973 1.386 . S
C2972 C2974 1.391 . S
C2973 C2972 1.386 . S
C2973 C2977 1.393 . S
C2974 H2966 0.950 . S
C2974 C2972 1.391 . S
C2974 C2975 1.400 . S
C2975 C2974 1.400 . S
C2975 C2976 1.398 . S
C2975 C2981 1.491 . S
C2976 H2967 0.950 . S
C2976 C2975 1.398 . S
C2976 C2977 1.391 . S
C2977 H2965 0.950 . S
C2977 C2973 1.393 . S
C2977 C2976 1.391 . S
C2978 H2968 0.950 . S
C2978 C2979 1.386 . S
C2978 C2980 1.391 1_554 S
C2979 C2978 1.386 . S
C2979 C2983 1.393 . S
C2980 H2969 0.950 . S
C2980 C2978 1.391 1_556 S
C2980 C2981 1.400 . S
C2981 C2975 1.491 . S
C2981 C2980 1.400 . S
C2981 C2982 1.398 . S
C2982 H2970 0.950 . S
C2982 C2981 1.398 . S
C2982 C2983 1.391 1_556 S
C2983 H2971 0.950 . S
C2983 C2979 1.393 . S
C2983 C2982 1.391 1_554 S
H2984 C2992 0.950 . S
H2985 C2997 0.950 . S
H2986 C2994 0.950 . S
H2987 C2996 0.950 . S
H2988 C2998 0.950 . S
H2989 C3000 0.950 . S
H2990 C3002 0.950 . S
H2991 C3003 0.950 . S
C2992 H2984 0.950 . S
C2992 C2993 1.386 . S
C2992 C2994 1.391 . S
C2993 C2992 1.386 . S
C2993 C2997 1.393 . S
C2994 H2986 0.950 . S
C2994 C2992 1.391 . S
C2994 C2995 1.400 . S
C2995 C2994 1.400 . S
C2995 C2996 1.398 . S
C2995 C3001 1.491 . S
C2996 H2987 0.950 . S
C2996 C2995 1.398 . S
C2996 C2997 1.391 . S
C2997 H2985 0.950 . S
C2997 C2993 1.393 . S
C2997 C2996 1.391 . S
C2998 H2988 0.950 . S
C2998 C2999 1.386 . S
C2998 C3000 1.391 1_554 S
C2999 C2998 1.386 . S
C2999 C3003 1.393 . S
C3000 H2989 0.950 . S
C3000 C2998 1.391 1_556 S
C3000 C3001 1.400 . S
C3001 C2995 1.491 . S
C3001 C3000 1.400 . S
C3001 C3002 1.398 . S
C3002 H2990 0.950 . S
C3002 C3001 1.398 . S
C3002 C3003 1.391 1_556 S
C3003 H2991 0.950 . S
C3003 C2999 1.393 . S
C3003 C3002 1.391 1_554 S
H3004 C3012 0.950 . S
H3005 C3017 0.950 . S
H3006 C3014 0.950 . S
H3007 C3016 0.950 . S
H3008 C3018 0.950 . S
H3009 C3020 0.950 . S
H3010 C3022 0.950 . S
H3011 C3023 0.950 . S
C3012 H3004 0.950 . S
C3012 C3013 1.386 . S
C3012 C3014 1.391 . S
C3013 C3012 1.386 . S
C3013 C3017 1.393 . S
C3014 H3006 0.950 . S
C3014 C3012 1.391 . S
C3014 C3015 1.400 . S
C3015 C3014 1.400 . S
C3015 C3016 1.398 . S
C3015 C3021 1.491 . S
C3016 H3007 0.950 . S
C3016 C3015 1.398 . S
C3016 C3017 1.391 . S
C3017 H3005 0.950 . S
C3017 C3013 1.393 . S
C3017 C3016 1.391 . S
C3018 H3008 0.950 . S
C3018 C3019 1.386 . S
C3018 C3020 1.391 1_554 S
C3019 C3018 1.386 . S
C3019 C3023 1.393 . S
C3020 H3009 0.950 . S
C3020 C3018 1.391 1_556 S
C3020 C3021 1.400 . S
C3021 C3015 1.491 . S
C3021 C3020 1.400 . S
C3021 C3022 1.398 . S
C3022 H3010 0.950 . S
C3022 C3021 1.398 . S
C3022 C3023 1.391 1_556 S
C3023 H3011 0.950 . S
C3023 C3019 1.393 . S
C3023 C3022 1.391 1_554 S
C1233 C546 1.617 . S
C1239 C2 1.615 . S
C1253 C580 1.612 . S
C1259 C36 1.612 . S
C1273 C512 1.633 . S
C1279 C70 1.633 . S
C1293 C104 1.633 . S
C1299 C886 1.633 . S
C1313 C818 1.613 . S
C1319 C138 1.612 . S
C1333 C852 1.612 . S
C1339 C172 1.612 . S
C1353 C206 1.618 . S
C1359 C1158 1.615 . S
C1373 C1192 1.631 . S
C1379 C240 1.632 . S
C1393 C274 1.628 . S
C1399 C1124 1.630 . S
C1413 C682 1.627 . S
C1419 C308 1.624 . S
C1433 C342 1.618 . S
C1439 C614 1.616 . S
C1453 C648 1.632 . S
C1459 C376 1.632 . S
C1473 C410 1.628 . S
C1479 C954 1.630 . S
C1493 C988 1.632 . S
C1499 C444 1.632 . S
C1513 C920 1.616 . S
C1519 C478 1.614 . S
C1533 C1090 1.627 . S
C1539 C716 1.624 . S
C1553 C750 1.620 . S
C1559 C1022 1.623 . S
C1573 C1056 1.633 . S
C1579 C784 1.632 . S
C1593 C111 1.253 . S
C1599 C9 1.265 . S
C1613 C145 1.247 . S
C1619 C43 1.279 . S
C1633 C77 1.286 . S
C1639 C179 1.250 . S
C1653 C315 1.276 . S
C1659 C213 1.276 . S
C1673 C247 1.281 . S
C1679 C349 1.274 . S
C1693 C383 1.282 . S
C1699 C281 1.274 . S
C1713 C417 1.258 . S
C1719 C519 1.287 . S
C1733 C451 1.257 . S
C1739 C553 1.261 . S
C1753 C587 1.251 . S
C1759 C485 1.287 . S
C1773 C723 1.287 1_554 S
C1779 C621 1.252 . S
C1793 C757 1.257 1_554 S
C1799 C655 1.261 . S
C1813 C791 1.286 1_554 S
C1819 C689 1.262 . S
C1833 C825 1.263 . S
C1839 C927 1.285 . S
C1853 C961 1.262 . S
C1859 C859 1.286 . S
C1873 C893 1.260 . S
C1879 C995 1.257 . S
C1893 C1029 1.247 . S
C1899 C1131 1.278 . S
C1913 C1063 1.249 . S
C1919 C1165 1.272 . S
C1933 C1199 1.278 . S
C1939 C1097 1.247 . S
C1953 C33 1.525 . S
C1959 C258 1.536 . S
C1973 C292 1.539 . S
C1979 C67 1.526 . S
C1993 C224 1.537 . S
C1999 C101 1.531 . S
C2013 C135 1.524 . S
C2019 C394 1.538 . S
C2033 C326 1.536 . S
C2039 C169 1.533 . S
C2053 C360 1.535 . S
C2059 C203 1.534 . S
C2073 C237 1.524 . S
C2079 C54 1.538 . S
C2093 C88 1.537 . S
C2099 C271 1.533 . S
C2113 C20 1.535 . S
C2119 C305 1.527 . S
C2133 C190 1.536 . S
C2139 C339 1.525 . S
C2153 C122 1.534 . S
C2159 C373 1.529 . S
C2173 C407 1.525 . S
C2179 C156 1.538 . S
C2193 C441 1.524 . S
C2199 C666 1.537 . S
C2213 C475 1.525 . S
C2219 C700 1.538 . S
C2233 C509 1.527 . S
C2239 C632 1.535 . S
C2253 C802 1.536 . S
C2259 C543 1.526 . S
C2273 C577 1.532 . S
C2279 C734 1.534 . S
C2293 C611 1.524 . S
C2299 C768 1.537 . S
C2313 C645 1.524 . S
C2319 C462 1.537 . S
C2333 C496 1.535 . S
C2339 C679 1.529 . S
C2353 C713 1.524 . S
C2359 C428 1.538 . S
C2373 C747 1.533 . S
C2379 C598 1.537 . S
C2393 C781 1.533 . S
C2399 C530 1.534 . S
C2413 C815 1.526 . S
C2419 C564 1.536 . S
C2433 C849 1.524 . S
C2439 C1074 1.537 . S
C2453 C1108 1.535 . S
C2459 C883 1.534 . S
C2473 C917 1.524 . S
C2479 C1040 1.538 . S
C2493 C951 1.533 . S
C2499 C1210 1.534 . S
C2513 C985 1.534 . S
C2519 C1142 1.535 . S
C2533 C1019 1.525 . S
C2539 C1176 1.538 . S
C2553 C870 1.535 . S
C2559 C1053 1.534 . S
C2573 C904 1.536 . S
C2579 C1087 1.525 . S
C2593 C836 1.538 . S
C2599 C1121 1.524 . S
C2613 C1006 1.538 . S
C2619 C1155 1.525 . S
C2633 C1189 1.524 . S
C2639 C938 1.538 . S
C2653 C1223 1.529 . S
C2659 C972 1.538 . S
C2673 C107 1.166 . S
C2679 C5 1.181 . S
C2693 C39 1.170 . S
C2699 C141 1.181 . S
C2713 C175 1.177 . S
C2719 C73 1.164 . S
C2733 C311 1.181 . S
C2739 C209 1.165 . S
C2753 C345 1.180 . S
C2759 C243 1.165 . S
C2773 C277 1.167 . S
C2779 C379 1.171 . S
C2793 C515 1.180 1_554 S
C2799 C413 1.165 . S
C2813 C447 1.176 . S
C2819 C549 1.177 1_554 S
C2833 C583 1.165 1_554 S
C2839 C481 1.180 . S
C2853 C719 1.176 . S
C2859 C617 1.165 . S
C2873 C753 1.164 . S
C2879 C651 1.176 . S
C2893 C685 1.165 . S
C2899 C787 1.175 . S
C2913 C923 1.164 . S
C2919 C821 1.177 . S
C2933 C855 1.175 . S
C2939 C957 1.178 . S
C2953 C991 1.181 . S
C2959 C889 1.170 . S
C2973 C1025 1.164 . S
C2979 C1127 1.177 . S
C2993 C1059 1.165 . S
C2999 C1161 1.175 . S
C3013 C1093 1.167 . S
C3019 C1195 1.182 . S
