# Generated by pormake.
# Topology wjy, (5)-cn, num edge types: 1
# Building blocks:
#     Node 0, Type 0, BuildingBlock: XOMCOT_clean_sbu_1, # of connection points: 5
#     Node 1, Type 0, BuildingBlock: XOMCOT_clean_sbu_1, # of connection points: 5
#     Node 2, Type 0, BuildingBlock: XOMCOT_clean_sbu_1, # of connection points: 5
#     Node 3, Type 0, BuildingBlock: XOMCOT_clean_sbu_1, # of connection points: 5
#     Node 4, Type 0, BuildingBlock: XOMCOT_clean_sbu_1, # of connection points: 5
#     Node 5, Type 0, BuildingBlock: XOMCOT_clean_sbu_1, # of connection points: 5
#     Node 6, Type 0, BuildingBlock: XOMCOT_clean_sbu_1, # of connection points: 5
#     Node 7, Type 0, BuildingBlock: XOMCOT_clean_sbu_1, # of connection points: 5
#     Node 8, Type 0, BuildingBlock: XOMCOT_clean_sbu_1, # of connection points: 5
#     Node 9, Type 0, BuildingBlock: XOMCOT_clean_sbu_1, # of connection points: 5
#     Node 10, Type 0, BuildingBlock: XOMCOT_clean_sbu_1, # of connection points: 5
#     Node 11, Type 0, BuildingBlock: XOMCOT_clean_sbu_1, # of connection points: 5
#     Edge 12, Type (0, 0), BuildingBlock: XUDNAN_clean_linker_2, # of connection points: 2
#     Edge 13, Type (0, 0), BuildingBlock: XUDNAN_clean_linker_2, # of connection points: 2
#     Edge 14, Type (0, 0), BuildingBlock: XUDNAN_clean_linker_2, # of connection points: 2
#     Edge 15, Type (0, 0), BuildingBlock: XUDNAN_clean_linker_2, # of connection points: 2
#     Edge 16, Type (0, 0), BuildingBlock: XUDNAN_clean_linker_2, # of connection points: 2
#     Edge 17, Type (0, 0), BuildingBlock: XUDNAN_clean_linker_2, # of connection points: 2
#     Edge 18, Type (0, 0), BuildingBlock: XUDNAN_clean_linker_2, # of connection points: 2
#     Edge 19, Type (0, 0), BuildingBlock: XUDNAN_clean_linker_2, # of connection points: 2
#     Edge 20, Type (0, 0), BuildingBlock: XUDNAN_clean_linker_2, # of connection points: 2
#     Edge 21, Type (0, 0), BuildingBlock: XUDNAN_clean_linker_2, # of connection points: 2
#     Edge 22, Type (0, 0), BuildingBlock: XUDNAN_clean_linker_2, # of connection points: 2
#     Edge 23, Type (0, 0), BuildingBlock: XUDNAN_clean_linker_2, # of connection points: 2
#     Edge 24, Type (0, 0), BuildingBlock: XUDNAN_clean_linker_2, # of connection points: 2
#     Edge 25, Type (0, 0), BuildingBlock: XUDNAN_clean_linker_2, # of connection points: 2
#     Edge 26, Type (0, 0), BuildingBlock: XUDNAN_clean_linker_2, # of connection points: 2
#     Edge 27, Type (0, 0), BuildingBlock: XUDNAN_clean_linker_2, # of connection points: 2
#     Edge 28, Type (0, 0), BuildingBlock: XUDNAN_clean_linker_2, # of connection points: 2
#     Edge 29, Type (0, 0), BuildingBlock: XUDNAN_clean_linker_2, # of connection points: 2
#     Edge 30, Type (0, 0), BuildingBlock: XUDNAN_clean_linker_2, # of connection points: 2
#     Edge 31, Type (0, 0), BuildingBlock: XUDNAN_clean_linker_2, # of connection points: 2
#     Edge 32, Type (0, 0), BuildingBlock: XUDNAN_clean_linker_2, # of connection points: 2
#     Edge 33, Type (0, 0), BuildingBlock: XUDNAN_clean_linker_2, # of connection points: 2
#     Edge 34, Type (0, 0), BuildingBlock: XUDNAN_clean_linker_2, # of connection points: 2
#     Edge 35, Type (0, 0), BuildingBlock: XUDNAN_clean_linker_2, # of connection points: 2
#     Edge 36, Type (0, 0), BuildingBlock: XUDNAN_clean_linker_2, # of connection points: 2
#     Edge 37, Type (0, 0), BuildingBlock: XUDNAN_clean_linker_2, # of connection points: 2
#     Edge 38, Type (0, 0), BuildingBlock: XUDNAN_clean_linker_2, # of connection points: 2
#     Edge 39, Type (0, 0), BuildingBlock: XUDNAN_clean_linker_2, # of connection points: 2
#     Edge 40, Type (0, 0), BuildingBlock: XUDNAN_clean_linker_2, # of connection points: 2
#     Edge 41, Type (0, 0), BuildingBlock: XUDNAN_clean_linker_2, # of connection points: 2
# Relax obj value: 0.189
# Max RMSD: 0.171
# Mean RMSD: 0.171
data_MOF--net-wjy--node1-XOMCOT_clean_sbu_1--edge1-XUDNAN_clean_linker_2
_symmetry_space_group_name_H-M    P1
_symmetry_Int_Tables_number       1
_symmetry_cell_setting            triclinic
loop_
_symmetry_equiv_pos_as_xyz
'x, y, z'
_cell_length_a     71.785145
_cell_length_b     71.78951
_cell_length_c     17.520208
_cell_angle_alpha  90.001996
_cell_angle_beta   89.862108
_cell_angle_gamma 119.92161
loop_
_atom_site_label
_atom_site_type_symbol
_atom_site_fract_x
_atom_site_fract_y
_atom_site_fract_z
_atom_type_partial_charge
C0 C 0.4253 0.11701 0.22497 0.0
C1 C 0.42354 0.11432 0.30283 0.0
N2 N 0.43916 0.11059 0.32686 0.0
N3 N 0.44222 0.11537 0.2 0.0
C4 C 0.45016 0.11107 0.26349 0.0
H5 H 0.41544 0.1209 0.18924 0.0
Co6 Co 0.45331 0.12174 0.10048 0.0
C7 C 0.43875 0.15131 0.04674 0.0
O8 O 0.43098 0.13941 0.98533 0.0
N9 N 0.46447 0.12858 0.99997 0.0
C10 C 0.48127 0.14844 0.89791 0.0
C11 C 0.4789 0.14856 0.9757 0.0
C12 C 0.45869 0.11648 0.93566 0.0
N13 N 0.46853 0.12826 0.87284 0.0
O14 O 0.42511 0.10179 0.06133 0.0
H15 H 0.48642 0.16263 0.01183 0.0
H16 H 0.44661 0.09966 0.93372 0.0
O17 O 0.44792 0.14598 0.09782 0.0
C18 C 0.42357 0.0833 0.06267 0.0
O19 O 0.44007 0.08188 0.08771 0.0
N20 N 0.48096 0.13893 0.13999 0.0
C21 C 0.52076 0.15579 0.21264 0.0
C22 C 0.50768 0.16506 0.22363 0.0
C23 C 0.48772 0.15636 0.1866 0.0
C24 C 0.49362 0.13009 0.12734 0.0
C25 C 0.51355 0.1383 0.16255 0.0
H26 H 0.47732 0.16289 0.19833 0.0
H27 H 0.48771 0.11588 0.09213 0.0
H28 H 0.46453 0.10975 0.26405 0.0
H29 H 0.41209 0.11567 0.33944 0.0
H30 H 0.4911 0.16223 0.86213 0.0
H31 H 0.51256 0.17856 0.26187 0.0
H32 H 0.52269 0.1302 0.15356 0.0
C33 C 0.34635 0.42728 0.37991 0.0
C34 C 0.34295 0.42529 0.45741 0.0
N35 N 0.33226 0.43553 0.47754 0.0
N36 N 0.33772 0.43858 0.35007 0.0
C37 C 0.3291 0.44324 0.41102 0.0
H38 H 0.35582 0.422 0.34866 0.0
Co39 Co 0.34223 0.44953 0.24967 0.0
C40 C 0.30388 0.4535 0.21086 0.0
O41 O 0.31625 0.47073 0.17024 0.0
N42 N 0.34739 0.46063 0.14798 0.0
C43 C 0.36075 0.48264 0.04794 0.0
C44 C 0.36254 0.48051 0.12494 0.0
C45 C 0.337 0.45078 0.08248 0.0
N46 N 0.34471 0.46398 0.0212 0.0
O47 O 0.33379 0.4212 0.20962 0.0
H48 H 0.37416 0.49304 0.16111 0.0
H49 H 0.32355 0.43452 0.0802 0.0
O50 O 0.31214 0.44372 0.24619 0.0
C51 C 0.35115 0.42095 0.19566 0.0
O52 O 0.36951 0.43879 0.2059 0.0
N53 N 0.35341 0.47742 0.29114 0.0
C54 C 0.37929 0.51905 0.34767 0.0
C55 C 0.35703 0.51052 0.33891 0.0
C56 C 0.34425 0.48949 0.31115 0.0
C57 C 0.37465 0.48495 0.30508 0.0
C58 C 0.38788 0.50568 0.33231 0.0
H59 H 0.32718 0.48313 0.30718 0.0
H60 H 0.38152 0.4749 0.29235 0.0
H61 H 0.32157 0.45302 0.40698 0.0
H62 H 0.34935 0.41821 0.49638 0.0
H63 H 0.37051 0.49687 0.01397 0.0
H64 H 0.34962 0.52008 0.3522 0.0
H65 H 0.40477 0.51119 0.34101 0.0
C66 C 0.92615 0.34309 0.57436 0.0
C67 C 0.92606 0.34017 0.65157 0.0
N68 N 0.90596 0.32564 0.67297 0.0
N69 N 0.90624 0.33042 0.54651 0.0
C70 C 0.89417 0.31984 0.60826 0.0
H71 H 0.93954 0.3551 0.54194 0.0
Co72 Co 0.899 0.33377 0.4475 0.0
C73 C 0.8571 0.295 0.41009 0.0
O74 O 0.85218 0.30724 0.369 0.0
N75 N 0.89262 0.33809 0.34632 0.0
C76 C 0.88701 0.35241 0.24231 0.0
C77 C 0.88942 0.35399 0.32004 0.0
C78 C 0.8922 0.32714 0.28261 0.0
N79 N 0.88877 0.33553 0.21872 0.0
O80 O 0.91914 0.32544 0.40823 0.0
H81 H 0.8892 0.36638 0.35401 0.0
H82 H 0.89487 0.31357 0.28291 0.0
O83 O 0.87496 0.30346 0.44663 0.0
C84 C 0.93667 0.34247 0.39085 0.0
O85 O 0.93713 0.36098 0.39473 0.0
N86 N 0.88201 0.34457 0.48898 0.0
C87 C 0.86586 0.36838 0.56085 0.0
C88 C 0.85319 0.34594 0.5543 0.0
C89 C 0.86163 0.33423 0.51843 0.0
C90 C 0.89474 0.36619 0.49839 0.0
C91 C 0.88691 0.37843 0.53255 0.0
H92 H 0.85201 0.31697 0.51752 0.0
H93 H 0.91122 0.37401 0.47859 0.0
H94 H 0.87688 0.30963 0.60699 0.0
H95 H 0.93939 0.34916 0.69002 0.0
H96 H 0.88433 0.36301 0.20577 0.0
H97 H 0.83702 0.33751 0.57729 0.0
H98 H 0.89751 0.39559 0.53868 0.0
C99 C 0.5673 0.91917 0.74607 0.0
C100 C 0.57103 0.92467 0.8218 0.0
N101 N 0.58016 0.91408 0.8531 0.0
N102 N 0.57402 0.90513 0.72914 0.0
C103 C 0.58209 0.90253 0.79575 0.0
H104 H 0.55961 0.92464 0.70604 0.0
Co105 Co 0.57168 0.89424 0.62957 0.0
C106 C 0.57256 0.85663 0.70809 0.0
O107 O 0.55761 0.85337 0.75796 0.0
N108 N 0.57078 0.88471 0.52778 0.0
C109 C 0.57031 0.86643 0.42419 0.0
C110 C 0.5681 0.86574 0.5025 0.0
C111 C 0.57439 0.8965 0.46341 0.0
N112 N 0.57442 0.8859 0.39956 0.0
O113 O 0.60159 0.91574 0.61355 0.0
H114 H 0.56487 0.8522 0.53838 0.0
H115 H 0.5768 0.91257 0.46315 0.0
O116 O 0.57948 0.87251 0.6616 0.0
C117 C 0.60207 0.93291 0.59107 0.0
O118 O 0.58376 0.93276 0.58453 0.0
N119 N 0.54063 0.8745 0.64376 0.0
C120 C 0.4956 0.85708 0.66212 0.0
C121 C 0.50929 0.86217 0.72517 0.0
C122 C 0.53133 0.8704 0.71493 0.0
C123 C 0.52724 0.86854 0.58172 0.0
C124 C 0.50494 0.85925 0.58969 0.0
H125 H 0.54069 0.87475 0.76626 0.0
H126 H 0.53333 0.87199 0.52432 0.0
H127 H 0.58918 0.89242 0.80251 0.0
H128 H 0.56672 0.9351 0.85228 0.0
H129 H 0.56949 0.85372 0.38864 0.0
H130 H 0.5036 0.86121 0.78294 0.0
H131 H 0.49541 0.85486 0.53823 0.0
C132 C 0.65917 0.56529 0.83276 0.0
C133 C 0.6545 0.56152 0.90902 0.0
N134 N 0.67064 0.56029 0.94314 0.0
N135 N 0.67816 0.56646 0.81849 0.0
C136 C 0.68496 0.56354 0.8871 0.0
H137 H 0.64898 0.56633 0.78963 0.0
Co138 Co 0.68739 0.56797 0.71882 0.0
C139 C 0.72862 0.56842 0.71962 0.0
O140 O 0.72111 0.55491 0.66212 0.0
N141 N 0.69609 0.56998 0.61551 0.0
C142 C 0.71416 0.58509 0.5086 0.0
C143 C 0.7138 0.58708 0.58635 0.0
C144 C 0.68583 0.5579 0.55372 0.0
N145 N 0.69648 0.56673 0.48767 0.0
O146 O 0.69571 0.5981 0.71663 0.0
H147 H 0.72543 0.6006 0.6195 0.0
H148 H 0.67052 0.54328 0.55667 0.0
O149 O 0.71664 0.57469 0.75225 0.0
C150 C 0.68189 0.60055 0.67884 0.0
O151 O 0.66602 0.58364 0.64595 0.0
N152 N 0.67641 0.53802 0.72261 0.0
C153 C 0.64873 0.4952 0.76423 0.0
C154 C 0.67024 0.50589 0.78791 0.0
C155 C 0.68374 0.52747 0.76781 0.0
C156 C 0.65579 0.52746 0.69657 0.0
C157 C 0.64176 0.50606 0.71602 0.0
H158 H 0.6992 0.53596 0.79512 0.0
H159 H 0.64956 0.5363 0.66623 0.0
H160 H 0.69945 0.56266 0.89522 0.0
H161 H 0.64016 0.55949 0.93709 0.0
H162 H 0.72601 0.59693 0.47045 0.0
H163 H 0.67605 0.49826 0.82703 0.0
H164 H 0.62521 0.49846 0.69714 0.0
C165 C 0.09398 0.67212 0.04705 0.0
C166 C 0.09427 0.67501 0.12428 0.0
N167 N 0.11437 0.68975 0.14454 0.0
N168 N 0.11373 0.68508 0.01822 0.0
C169 C 0.12599 0.69567 0.07924 0.0
H170 H 0.08074 0.65981 0.01505 0.0
Co171 Co 0.12022 0.68171 0.91876 0.0
C172 C 0.16131 0.72149 0.87487 0.0
O173 O 0.16563 0.7104 0.82546 0.0
N174 N 0.12568 0.6771 0.81732 0.0
C175 C 0.13083 0.66216 0.71421 0.0
C176 C 0.12866 0.66098 0.79208 0.0
C177 C 0.12567 0.6876 0.75304 0.0
N178 N 0.12901 0.67893 0.68968 0.0
O179 O 0.10037 0.69074 0.88329 0.0
H180 H 0.12897 0.64882 0.82732 0.0
H181 H 0.12311 0.70124 0.75274 0.0
O182 O 0.14446 0.71196 0.91713 0.0
C183 C 0.08256 0.67473 0.86187 0.0
O184 O 0.08079 0.65562 0.86047 0.0
N185 N 0.13714 0.67048 0.9565 0.0
C186 C 0.15366 0.64498 0.00966 0.0
C187 C 0.16749 0.66658 0.99008 0.0
C188 C 0.15886 0.67928 0.96487 0.0
C189 C 0.12361 0.6497 0.97755 0.0
C190 C 0.13147 0.63672 1.00436 0.0
H191 H 0.16974 0.69593 0.95231 0.0
H192 H 0.10645 0.64297 0.97111 0.0
H193 H 0.14328 0.7059 0.07689 0.0
H194 H 0.08114 0.66579 0.1635 0.0
H195 H 0.13358 0.65148 0.67837 0.0
H196 H 0.18475 0.67358 0.99458 0.0
H197 H 0.12023 0.62009 0.01832 0.0
C198 C 0.92254 0.56286 0.71828 0.0
C199 C 0.92701 0.56599 0.64167 0.0
N200 N 0.91178 0.56885 0.60835 0.0
N201 N 0.90479 0.56414 0.73366 0.0
C202 C 0.89835 0.56747 0.66493 0.0
H203 H 0.93175 0.55993 0.76039 0.0
Co204 Co 0.89508 0.56225 0.83368 0.0
C205 C 0.87103 0.58372 0.77745 0.0
O206 O 0.88839 0.60089 0.75287 0.0
N207 N 0.88561 0.56025 0.93507 0.0
C208 C 0.86451 0.55302 0.037 0.0
C209 C 0.86501 0.55123 0.95893 0.0
C210 C 0.89728 0.56712 0.99985 0.0
N211 N 0.88489 0.5631 0.06274 0.0
O212 O 0.91534 0.59254 0.84568 0.0
H213 H 0.85115 0.5438 0.92186 0.0
H214 H 0.91453 0.57459 1.00144 0.0
O215 O 0.87218 0.56791 0.80522 0.0
C216 C 0.93376 0.59622 0.86831 0.0
O217 O 0.93625 0.57986 0.88683 0.0
N218 N 0.87708 0.53261 0.82104 0.0
C219 C 0.8599 0.48918 0.78642 0.0
C220 C 0.85383 0.50196 0.74461 0.0
C221 C 0.86247 0.5237 0.76338 0.0
C222 C 0.88252 0.52023 0.864 0.0
C223 C 0.87387 0.49838 0.84838 0.0
H224 H 0.85852 0.53362 0.72833 0.0
H225 H 0.89461 0.52763 0.90791 0.0
H226 H 0.88437 0.56916 0.65617 0.0
H227 H 0.94035 0.56605 0.61245 0.0
H228 H 0.85023 0.54754 0.07173 0.0
H229 H 0.84314 0.49541 0.69616 0.0
H230 H 0.8792 0.48913 0.88123 0.0
C231 C 0.36037 0.90495 0.77398 0.0
C232 C 0.36116 0.90946 0.69761 0.0
N233 N 0.34321 0.90993 0.67887 0.0
N234 N 0.34177 0.90197 0.80419 0.0
C235 C 0.33213 0.90613 0.7454 0.0
H236 H 0.37248 0.90333 0.80499 0.0
Co237 Co 0.33389 0.89383 0.90763 0.0
C238 C 0.28961 0.86363 0.83081 0.0
O239 O 0.296 0.86598 0.75945 0.0
N240 N 0.32655 0.88599 0.01063 0.0
C241 C 0.30958 0.86555 0.11122 0.0
C242 C 0.31325 0.86564 0.03431 0.0
C243 C 0.33113 0.898 0.07501 0.0
N244 N 0.3208 0.88587 0.13682 0.0
O245 O 0.32898 0.91777 0.92048 0.0
H246 H 0.30617 0.8517 0.99746 0.0
H247 H 0.34111 0.91532 0.0762 0.0
O248 O 0.30319 0.87383 0.88379 0.0
C249 C 0.34753 0.93451 0.92635 0.0
O250 O 0.36444 0.93197 0.92515 0.0
N251 N 0.34121 0.87207 0.89631 0.0
C252 C 0.36506 0.85348 0.84555 0.0
C253 C 0.34434 0.84646 0.81735 0.0
C254 C 0.33263 0.85596 0.84352 0.0
C255 C 0.36013 0.87714 0.93121 0.0
C256 C 0.37238 0.86802 0.90666 0.0
H257 H 0.31779 0.85167 0.81555 0.0
H258 H 0.36694 0.89012 0.97221 0.0
H259 H 0.31701 0.9059 0.75096 0.0
H260 H 0.37353 0.91107 0.65835 0.0
H261 H 0.29924 0.85164 0.14576 0.0
H262 H 0.33794 0.83498 0.77101 0.0
H263 H 0.38831 0.87396 0.92999 0.0
C264 C 0.46508 0.36132 0.92991 0.0
C265 C 0.46164 0.36228 0.85354 0.0
N266 N 0.44524 0.34314 0.83222 0.0
N267 N 0.45146 0.34137 0.95644 0.0
C268 C 0.43897 0.33084 0.8958 0.0
H269 H 0.47737 0.3742 0.9635 0.0
Co270 Co 0.45296 0.3338 0.05759 0.0
C271 C 0.4425 0.28964 0.98361 0.0
O272 O 0.44546 0.29459 0.91077 0.0
N273 N 0.45472 0.3269 0.15976 0.0
C274 C 0.46386 0.31512 0.26257 0.0
C275 C 0.46577 0.31741 0.18466 0.0
C276 C 0.44619 0.33019 0.22385 0.0
N277 N 0.45149 0.32313 0.28711 0.0
O278 O 0.42321 0.32595 0.07172 0.0
H279 H 0.47474 0.31249 0.14834 0.0
H280 H 0.43665 0.338 0.22481 0.0
O281 O 0.44523 0.30391 0.03312 0.0
C282 C 0.42323 0.34332 0.08771 0.0
O283 O 0.44185 0.36117 0.09295 0.0
N284 N 0.48259 0.34394 0.04438 0.0
C285 C 0.52555 0.37032 1.00267 0.0
C286 C 0.51296 0.35031 0.96738 0.0
C287 C 0.4914 0.33737 0.98877 0.0
C288 C 0.4951 0.36248 0.08355 0.0
C289 C 0.51661 0.37591 0.06363 0.0
H290 H 0.48154 0.32318 0.95589 0.0
H291 H 0.48785 0.36779 0.12618 0.0
H292 H 0.426 0.31436 0.89733 0.0
H293 H 0.47108 0.37567 0.8156 0.0
H294 H 0.47088 0.30795 0.29833 0.0
H295 H 0.51917 0.34548 0.91954 0.0
H296 H 0.52582 0.39113 0.09283 0.0
C297 C 0.09394 0.4223 0.12514 0.0
C298 C 0.0931 0.41766 0.04887 0.0
N299 N 0.11333 0.42695 0.02193 0.0
N300 N 0.11462 0.43416 0.14714 0.0
C301 C 0.12616 0.437 0.08238 0.0
H302 H 0.08019 0.41756 0.16187 0.0
Co303 Co 0.12259 0.44415 0.24726 0.0
C304 C 0.16572 0.44923 0.2733 0.0
O305 O 0.17058 0.46641 0.31407 0.0
N306 N 0.12992 0.45407 0.35003 0.0
C307 C 0.13596 0.47237 0.45862 0.0
C308 C 0.13365 0.47288 0.38089 0.0
C309 C 0.13013 0.44247 0.41087 0.0
N310 N 0.1336 0.45315 0.47784 0.0
O311 O 0.10337 0.41523 0.28452 0.0
H312 H 0.134 0.48606 0.35013 0.0
H313 H 0.12732 0.42626 0.40601 0.0
O314 O 0.14719 0.43877 0.24166 0.0
C315 C 0.08672 0.41461 0.31366 0.0
O316 O 0.08622 0.43264 0.31833 0.0
N317 N 0.1384 0.47236 0.20883 0.0
C318 C 0.1529 0.51428 0.15697 0.0
C319 C 0.16648 0.50538 0.15526 0.0
C320 C 0.15878 0.48416 0.18014 0.0
C321 C 0.12467 0.48025 0.20558 0.0
C322 C 0.13155 0.50108 0.18056 0.0
H323 H 0.16916 0.47741 0.17488 0.0
H324 H 0.10822 0.47029 0.22437 0.0
H325 H 0.14353 0.44618 0.07949 0.0
H326 H 0.07871 0.40861 0.01511 0.0
H327 H 0.1381 0.48487 0.49814 0.0
H328 H 0.18293 0.5147 0.13543 0.0
H329 H 0.12007 0.50669 0.17948 0.0
C330 C 0.65565 0.10886 0.33448 0.0
C331 C 0.65511 0.10469 0.25779 0.0
N332 N 0.67371 0.10564 0.2379 0.0
N333 N 0.67471 0.11295 0.36359 0.0
C334 C 0.68497 0.10995 0.30396 0.0
H335 H 0.64311 0.10953 0.36652 0.0
Co336 Co 0.683 0.12095 0.4664 0.0
C337 C 0.72471 0.1549 0.38323 0.0
O338 O 0.71684 0.1527 0.31415 0.0
N339 N 0.69095 0.12867 0.56887 0.0
C340 C 0.70759 0.14905 0.66955 0.0
C341 C 0.70381 0.14906 0.59285 0.0
C342 C 0.68671 0.11653 0.63282 0.0
N343 N 0.69685 0.12864 0.6947 0.0
O344 O 0.69133 0.09922 0.47406 0.0
H345 H 0.71029 0.16312 0.55657 0.0
H346 H 0.67696 0.09918 0.63368 0.0
O347 O 0.71267 0.14336 0.43819 0.0
C348 C 0.67423 0.0809 0.47865 0.0
O349 O 0.65557 0.08018 0.47711 0.0
N350 N 0.67239 0.14034 0.46164 0.0
C351 C 0.64548 0.15766 0.43936 0.0
C352 C 0.66452 0.16515 0.39697 0.0
C353 C 0.67784 0.15635 0.40922 0.0
C354 C 0.65464 0.13383 0.50644 0.0
C355 C 0.64107 0.14238 0.49673 0.0
H356 H 0.69147 0.16134 0.37245 0.0
H357 H 0.65007 0.12073 0.54626 0.0
H358 H 0.70073 0.11157 0.3087 0.0
H359 H 0.64235 0.10228 0.21923 0.0
H360 H 0.71751 0.16299 0.7044 0.0
H361 H 0.66859 0.17701 0.35232 0.0
H362 H 0.62643 0.13589 0.53014 0.0
C363 C 0.60062 0.71662 0.46712 0.0
C364 C 0.60335 0.71734 0.38901 0.0
N365 N 0.59205 0.69717 0.36179 0.0
N366 N 0.58734 0.69613 0.48928 0.0
C367 C 0.58267 0.68468 0.42374 0.0
H368 H 0.60831 0.73016 0.50528 0.0
Co369 Co 0.57812 0.68549 0.5892 0.0
C370 C 0.57352 0.72044 0.6689 0.0
O371 O 0.55839 0.70657 0.71449 0.0
N372 N 0.56921 0.67441 0.68937 0.0
C373 C 0.5527 0.65162 0.78531 0.0
C374 C 0.55247 0.65497 0.70842 0.0
C375 C 0.57953 0.68247 0.75668 0.0
N376 N 0.5697 0.66888 0.81579 0.0
O377 O 0.60728 0.69411 0.61735 0.0
H378 H 0.54104 0.6433 0.66944 0.0
H379 H 0.59437 0.69764 0.76179 0.0
O380 O 0.58188 0.71376 0.6189 0.0
C381 C 0.61102 0.67955 0.59285 0.0
O382 O 0.59598 0.66364 0.55318 0.0
N383 N 0.54933 0.67446 0.55809 0.0
C384 C 0.50707 0.64961 0.50596 0.0
C385 C 0.51467 0.6707 0.53229 0.0
C386 C 0.53612 0.6831 0.55696 0.0
C387 C 0.54219 0.65426 0.53079 0.0
C388 C 0.52128 0.64161 0.50492 0.0
H389 H 0.54184 0.69945 0.57438 0.0
H390 H 0.5528 0.64762 0.53148 0.0
H391 H 0.57262 0.66742 0.42129 0.0
H392 H 0.61337 0.73153 0.35525 0.0
H393 H 0.54144 0.63734 0.8164 0.0
H394 H 0.50425 0.67758 0.53293 0.0
H395 H 0.51614 0.62537 0.4862 0.0
H396 H 0.43768 0.25583 0.89464 0.0
H397 H 0.44017 0.27519 0.13081 0.0
H398 H 0.43893 0.24181 0.17301 0.0
H399 H 0.40035 0.19851 0.92769 0.0
H400 H 0.41313 0.19019 0.85755 0.0
H401 H 0.41362 0.21538 0.84629 0.0
H402 H 0.45518 0.23525 0.83754 0.0
H403 H 0.45483 0.21016 0.84927 0.0
H404 H 0.47035 0.23216 0.91342 0.0
H405 H 0.4405 0.20743 0.18907 0.0
H406 H 0.44122 0.1734 0.17763 0.0
H407 H 0.43528 0.17535 0.93183 0.0
C408 C 0.43774 0.253 0.95532 0.0
C409 C 0.43936 0.26844 0.00928 0.0
C410 C 0.43927 0.26389 0.08812 0.0
C411 C 0.43851 0.24489 0.11275 0.0
C412 C 0.43746 0.2303 0.05801 0.0
C413 C 0.4367 0.23397 0.98094 0.0
C414 C 0.43555 0.21571 0.93369 0.0
C415 C 0.4144 0.20427 0.88866 0.0
C416 C 0.45515 0.22381 0.88035 0.0
C417 C 0.43613 0.20137 0.99609 0.0
C418 C 0.43737 0.21011 0.06744 0.0
C419 C 0.43922 0.20029 0.13353 0.0
C420 C 0.43969 0.18101 0.1265 0.0
C421 C 0.43806 0.17157 0.05402 0.0
C422 C 0.43618 0.18194 0.98819 0.0
H423 H 0.20762 0.47787 0.2465 0.0
H424 H 0.16302 0.40952 0.26524 0.0
H425 H 0.19352 0.40246 0.25248 0.0
H426 H 0.24214 0.47357 0.10349 0.0
H427 H 0.2661 0.49595 0.14223 0.0
H428 H 0.24064 0.49496 0.15185 0.0
H429 H 0.24584 0.49888 0.29851 0.0
H430 H 0.27119 0.49963 0.28946 0.0
H431 H 0.25051 0.47993 0.35057 0.0
H432 H 0.23053 0.40392 0.24877 0.0
H433 H 0.26877 0.41323 0.23676 0.0
H434 H 0.28749 0.48037 0.21111 0.0
C435 C 0.20423 0.46138 0.24736 0.0
C436 C 0.18303 0.44422 0.25732 0.0
C437 C 0.17918 0.42287 0.2573 0.0
C438 C 0.19642 0.41876 0.25058 0.0
C439 C 0.21728 0.43619 0.24236 0.0
C440 C 0.22107 0.45704 0.23909 0.0
C441 C 0.24469 0.47305 0.22817 0.0
C442 C 0.24862 0.48509 0.15189 0.0
C443 C 0.25357 0.48879 0.29571 0.0
C444 C 0.25382 0.4581 0.22697 0.0
C445 C 0.23793 0.43689 0.23611 0.0
C446 C 0.24299 0.42046 0.24044 0.0
C447 C 0.26473 0.42587 0.23402 0.0
C448 C 0.28104 0.44746 0.22207 0.0
C449 C 0.27536 0.46366 0.21889 0.0
H450 H 0.74962 0.18933 0.29106 0.0
H451 H 0.74928 0.16217 0.51256 0.0
H452 H 0.78486 0.19383 0.54077 0.0
H453 H 0.80722 0.21459 0.25268 0.0
H454 H 0.8083 0.23783 0.20888 0.0
H455 H 0.78399 0.21212 0.20401 0.0
H456 H 0.7626 0.22872 0.26444 0.0
H457 H 0.7868 0.25444 0.26944 0.0
H458 H 0.77119 0.24251 0.35459 0.0
H459 H 0.8206 0.22994 0.54548 0.0
H460 H 0.85084 0.26733 0.52968 0.0
H461 H 0.82603 0.27057 0.30775 0.0
C462 C 0.75714 0.18977 0.34505 0.0
C463 C 0.74669 0.17307 0.39923 0.0
C464 C 0.75699 0.17466 0.46987 0.0
C465 C 0.77724 0.19258 0.48631 0.0
C466 C 0.78697 0.20888 0.43176 0.0
C467 C 0.77712 0.2076 0.36267 0.0
C468 C 0.78997 0.22779 0.31569 0.0
C469 C 0.79784 0.22277 0.24089 0.0
C470 C 0.77686 0.23903 0.30018 0.0
C471 C 0.8085 0.24082 0.36928 0.0
C472 C 0.80678 0.22962 0.43555 0.0
C473 C 0.82207 0.23877 0.49363 0.0
C474 C 0.83925 0.25997 0.48412 0.0
C475 C 0.84077 0.27187 0.41761 0.0
C476 C 0.82529 0.26193 0.3594 0.0
H477 H 0.55656 0.73926 0.76143 0.0
H478 H 0.60249 0.75376 0.57789 0.0
H479 H 0.60939 0.79103 0.57371 0.0
H480 H 0.53374 0.76913 0.69004 0.0
H481 H 0.53032 0.77824 0.78213 0.0
H482 H 0.53029 0.75324 0.77416 0.0
H483 H 0.56113 0.76662 0.87296 0.0
H484 H 0.56126 0.79171 0.88119 0.0
H485 H 0.58563 0.79165 0.85653 0.0
H486 H 0.60926 0.82645 0.5838 0.0
H487 H 0.60208 0.85629 0.60761 0.0
H488 H 0.55681 0.81857 0.78607 0.0
C489 C 0.56829 0.75029 0.7209 0.0
C490 C 0.57894 0.7434 0.66981 0.0
C491 C 0.59406 0.75848 0.61754 0.0
C492 C 0.59814 0.77978 0.61487 0.0
C493 C 0.58711 0.78592 0.66529 0.0
C494 C 0.57259 0.77161 0.71764 0.0
C495 C 0.56219 0.7819 0.76356 0.0
C496 C 0.53769 0.76991 0.75172 0.0
C497 C 0.5679 0.78304 0.8486 0.0
C498 C 0.57279 0.8041 0.72788 0.0
C499 C 0.58722 0.80621 0.6716 0.0
C500 C 0.59816 0.82502 0.6284 0.0
C501 C 0.59401 0.84193 0.6424 0.0
C502 C 0.57899 0.83995 0.69907 0.0
C503 C 0.56858 0.82082 0.7429 0.0
H504 H 0.76304 0.57743 0.63087 0.0
H505 H 0.74351 0.57375 0.86714 0.0
H506 H 0.77898 0.57919 0.90845 0.0
H507 H 0.79051 0.54934 0.6476 0.0
H508 H 0.81192 0.56584 0.58232 0.0
H509 H 0.78597 0.56364 0.57197 0.0
H510 H 0.80334 0.60503 0.58023 0.0
H511 H 0.82944 0.6074 0.58964 0.0
H512 H 0.82015 0.61911 0.66055 0.0
H513 H 0.81466 0.57994 0.92188 0.0
H514 H 0.84933 0.58062 0.90782 0.0
H515 H 0.8466 0.58656 0.6627 0.0
C516 C 0.76643 0.57823 0.69139 0.0
C517 C 0.75064 0.57521 0.74605 0.0
C518 C 0.75553 0.57629 0.82459 0.0
C519 C 0.77556 0.57924 0.84835 0.0
C520 C 0.7906 0.58157 0.79273 0.0
C521 C 0.78642 0.58161 0.71584 0.0
C522 C 0.80502 0.58401 0.66725 0.0
C523 C 0.79792 0.56454 0.61419 0.0
C524 C 0.81508 0.60515 0.62174 0.0
C525 C 0.82014 0.58462 0.72857 0.0
C526 C 0.81148 0.58307 0.80061 0.0
C527 C 0.82174 0.5816 0.8659 0.0
C528 C 0.84132 0.58186 0.85738 0.0
C529 C 0.8506 0.58384 0.78433 0.0
C530 C 0.83997 0.58542 0.71923 0.0
H531 H 0.26211 0.83063 0.73857 0.0
H532 H 0.26846 0.85487 0.96946 0.0
H533 H 0.23417 0.82237 1.00466 0.0
H534 H 0.20329 0.8039 0.72457 0.0
H535 H 0.20178 0.78167 0.67154 0.0
H536 H 0.22521 0.80798 0.6632 0.0
H537 H 0.24941 0.79224 0.70201 0.0
H538 H 0.2261 0.76595 0.71069 0.0
H539 H 0.24413 0.77755 0.79036 0.0
H540 H 0.19953 0.78533 0.01536 0.0
H541 H 0.1701 0.74745 1.00186 0.0
H542 H 0.18844 0.74793 0.76566 0.0
C543 C 0.25611 0.82944 0.79617 0.0
C544 C 0.26794 0.84549 0.85098 0.0
C545 C 0.25965 0.84289 0.92622 0.0
C546 C 0.24014 0.82448 0.9467 0.0
C547 C 0.22912 0.80875 0.8914 0.0
C548 C 0.23693 0.81113 0.81766 0.0
C549 C 0.22327 0.79131 0.7702 0.0
C550 C 0.21277 0.79654 0.70344 0.0
C551 C 0.23652 0.78117 0.74169 0.0
C552 C 0.20672 0.77718 0.82881 0.0
C553 C 0.21002 0.78752 0.89818 0.0
C554 C 0.1968 0.77719 0.96107 0.0
C555 C 0.18008 0.75572 0.95293 0.0
C556 C 0.17703 0.74475 0.88284 0.0
C557 C 0.1904 0.75584 0.82011 0.0
H558 H 0.46261 0.14958 0.75718 0.0
H559 H 0.46434 0.09166 0.81164 0.0
H560 H 0.45815 0.08093 0.67499 0.0
H561 H 0.41963 0.1248 0.62126 0.0
H562 H 0.43037 0.14811 0.5602 0.0
H563 H 0.43581 0.15128 0.66107 0.0
H564 H 0.47672 0.17247 0.63293 0.0
H565 H 0.47142 0.16928 0.53195 0.0
H566 H 0.48854 0.16042 0.57427 0.0
H567 H 0.45358 0.07792 0.52905 0.0
H568 H 0.44626 0.08046 0.39174 0.0
H569 H 0.44464 0.13884 0.43777 0.0
C570 C 0.46184 0.13473 0.74007 0.0
C571 C 0.46427 0.12156 0.7943 0.0
C572 C 0.4626 0.10195 0.77052 0.0
C573 C 0.4592 0.09583 0.69318 0.0
C574 C 0.45711 0.10935 0.64082 0.0
C575 C 0.458 0.12821 0.66376 0.0
C576 C 0.45415 0.13942 0.59763 0.0
C577 C 0.43378 0.14098 0.61084 0.0
C578 C 0.47389 0.16171 0.58337 0.0
C579 C 0.45108 0.12405 0.53351 0.0
C580 C 0.45317 0.10695 0.55897 0.0
C581 C 0.45169 0.09113 0.50885 0.0
C582 C 0.44765 0.0927 0.43117 0.0
C583 C 0.4447 0.10969 0.40504 0.0
C584 C 0.44657 0.12555 0.4569 0.0
H585 H 0.33044 0.41372 0.60808 0.0
H586 H 0.32682 0.46879 0.52449 0.0
H587 H 0.32511 0.47931 0.65679 0.0
H588 H 0.29579 0.4029 0.77889 0.0
H589 H 0.31219 0.39596 0.8367 0.0
H590 H 0.3101 0.39094 0.73538 0.0
H591 H 0.35155 0.41319 0.72302 0.0
H592 H 0.35375 0.41828 0.82406 0.0
H593 H 0.3656 0.44045 0.75777 0.0
H594 H 0.32851 0.48663 0.79702 0.0
H595 H 0.33619 0.4898 0.93534 0.0
H596 H 0.33766 0.43027 0.93058 0.0
C597 C 0.32901 0.42785 0.61725 0.0
C598 C 0.32871 0.44033 0.55488 0.0
C599 C 0.32673 0.45866 0.57033 0.0
C600 C 0.32584 0.46486 0.64568 0.0
C601 C 0.32676 0.45252 0.70546 0.0
C602 C 0.32815 0.4343 0.69219 0.0
C603 C 0.33048 0.42476 0.76661 0.0
C604 C 0.31097 0.40231 0.78018 0.0
C605 C 0.3516 0.42414 0.76791 0.0
C606 C 0.3309 0.44088 0.82368 0.0
C607 C 0.32852 0.45664 0.78703 0.0
C608 C 0.33 0.47418 0.82641 0.0
C609 C 0.3344 0.47589 0.90481 0.0
C610 C 0.33721 0.46015 0.94346 0.0
C611 C 0.335 0.44219 0.90259 0.0
H612 H 0.91307 0.35582 0.7769 0.0
H613 H 0.88229 0.2871 0.74341 0.0
H614 H 0.87348 0.28136 0.88221 0.0
H615 H 0.93741 0.3583 0.95208 0.0
H616 H 0.93319 0.37911 0.99145 0.0
H617 H 0.93555 0.3773 0.88982 0.0
H618 H 0.89863 0.37495 0.87035 0.0
H619 H 0.89626 0.377 0.97198 0.0
H620 H 0.87536 0.35463 0.92041 0.0
H621 H 0.87138 0.28416 0.02882 0.0
H622 H 0.87278 0.29484 0.16461 0.0
H623 H 0.90426 0.36173 0.0963 0.0
C624 C 0.90423 0.33957 0.79889 0.0
C625 C 0.89838 0.32186 0.75041 0.0
C626 C 0.88674 0.30079 0.78027 0.0
C627 C 0.88182 0.29746 0.85878 0.0
C628 C 0.88839 0.31542 0.9057 0.0
C629 C 0.89903 0.33605 0.87622 0.0
C630 C 0.90467 0.35277 0.93762 0.0
C631 C 0.92915 0.36774 0.94304 0.0
C632 C 0.89303 0.36559 0.92429 0.0
C633 C 0.89594 0.33846 1.00695 0.0
C634 C 0.88666 0.31695 0.98799 0.0
C635 C 0.87837 0.30094 0.04395 0.0
C636 C 0.87937 0.30712 0.12083 0.0
C637 C 0.88843 0.32907 0.14067 0.0
C638 C 0.89685 0.34481 0.08271 0.0
H639 H 0.56899 0.87934 0.94368 0.0
H640 H 0.60068 0.94882 0.94318 0.0
H641 H 0.60462 0.94919 0.08356 0.0
H642 H 0.53815 0.87219 0.10864 0.0
H643 H 0.53963 0.8495 0.14526 0.0
H644 H 0.54176 0.85466 0.04416 0.0
H645 H 0.57828 0.85559 0.04078 0.0
H646 H 0.57618 0.85024 0.14189 0.0
H647 H 0.59955 0.8735 0.10372 0.0
H648 H 0.60303 0.94199 0.2239 0.0
H649 H 0.59598 0.92791 0.35503 0.0
H650 H 0.56334 0.8627 0.26663 0.0
C651 C 0.57732 0.89458 0.97325 0.0
C652 C 0.5849 0.91411 0.93291 0.0
C653 C 0.59501 0.93377 0.97336 0.0
C654 C 0.59729 0.9341 0.0529 0.0
C655 C 0.5892 0.91459 0.09142 0.0
C656 C 0.57942 0.89516 0.05309 0.0
C657 C 0.57062 0.87648 0.10893 0.0
C658 C 0.54609 0.86239 0.10127 0.0
C659 C 0.58183 0.86317 0.09818 0.0
C660 C 0.57675 0.88844 0.18444 0.0
C661 C 0.58762 0.9104 0.17287 0.0
C662 C 0.59454 0.92481 0.23365 0.0
C663 C 0.59024 0.9166 0.30826 0.0
C664 C 0.57891 0.89411 0.32207 0.0
C665 C 0.57221 0.87994 0.25872 0.0
H666 H 0.70563 0.5766 0.03571 0.0
H667 H 0.63688 0.53273 0.02963 0.0
H668 H 0.63675 0.52677 0.16829 0.0
H669 H 0.71786 0.54786 0.18831 0.0
H670 H 0.73795 0.57263 0.23099 0.0
H671 H 0.73315 0.57133 0.12966 0.0
H672 H 0.72628 0.60341 0.14044 0.0
H673 H 0.73091 0.60472 0.24165 0.0
H674 H 0.70605 0.60172 0.20581 0.0
H675 H 0.64321 0.52862 0.30836 0.0
H676 H 0.65578 0.53793 0.44042 0.0
H677 H 0.72075 0.57988 0.3572 0.0
C678 C 0.69071 0.56533 0.06349 0.0
C679 C 0.67126 0.55515 0.02218 0.0
C680 C 0.65191 0.54084 0.0605 0.0
C681 C 0.6517 0.53724 0.1391 0.0
C682 C 0.67101 0.54798 0.17872 0.0
C683 C 0.69021 0.56163 0.14232 0.0
C684 C 0.70836 0.57241 0.19943 0.0
C685 C 0.72534 0.56565 0.18631 0.0
C686 C 0.71849 0.59702 0.19665 0.0
C687 C 0.69621 0.56321 0.2735 0.0
C688 C 0.67476 0.54897 0.26015 0.0
C689 C 0.66007 0.53946 0.31962 0.0
C690 C 0.66745 0.54484 0.39486 0.0
C691 C 0.68936 0.5597 0.41035 0.0
C692 C 0.7039 0.5686 0.34823 0.0
H693 H 0.10863 0.65963 0.24663 0.0
H694 H 0.13687 0.72823 0.2156 0.0
H695 H 0.14523 0.73377 0.35455 0.0
H696 H 0.08298 0.65551 0.41919 0.0
H697 H 0.08788 0.63523 0.45922 0.0
H698 H 0.08622 0.63723 0.35741 0.0
H699 H 0.12397 0.64124 0.34106 0.0
H700 H 0.12564 0.63896 0.4429 0.0
H701 H 0.14642 0.66193 0.39299 0.0
H702 H 0.14671 0.73063 0.50065 0.0
H703 H 0.14444 0.71965 0.63632 0.0
H704 H 0.11546 0.65307 0.56628 0.0
C705 C 0.11693 0.67583 0.26916 0.0
C706 C 0.12216 0.69355 0.22144 0.0
C707 C 0.13298 0.71456 0.25193 0.0
C708 C 0.13763 0.71776 0.33048 0.0
C709 C 0.13161 0.69976 0.37672 0.0
C710 C 0.12182 0.67923 0.34658 0.0
C711 C 0.11629 0.66241 0.40756 0.0
C712 C 0.0919 0.64668 0.41102 0.0
C713 C 0.12884 0.65044 0.3954 0.0
C714 C 0.12402 0.67653 0.47741 0.0
C715 C 0.13281 0.69803 0.45901 0.0
C716 C 0.1401 0.71385 0.51539 0.0
C717 C 0.13858 0.70749 0.5922 0.0
C718 C 0.12993 0.68554 0.61156 0.0
C719 C 0.12254 0.66999 0.55314 0.0
H720 H 0.86177 0.54467 0.19271 0.0
H721 H 0.92442 0.59397 0.11109 0.0
H722 H 0.93729 0.60205 0.24339 0.0
H723 H 0.86098 0.57409 0.3632 0.0
H724 H 0.84762 0.55011 0.4208 0.0
H725 H 0.84289 0.54864 0.31941 0.0
H726 H 0.85421 0.51968 0.30724 0.0
H727 H 0.85898 0.52106 0.40844 0.0
H728 H 0.88009 0.52536 0.34256 0.0
H729 H 0.94435 0.60301 0.38284 0.0
H730 H 0.94464 0.59742 0.52209 0.0
H731 H 0.87709 0.54935 0.51548 0.0
C732 C 0.87808 0.55742 0.20242 0.0
C733 C 0.89208 0.56851 0.14076 0.0
C734 C 0.91343 0.58488 0.15666 0.0
C735 C 0.92087 0.58976 0.23189 0.0
C736 C 0.90674 0.57837 0.29096 0.0
C737 C 0.88574 0.56265 0.27731 0.0
C738 C 0.87407 0.5524 0.35126 0.0
C739 C 0.85528 0.55657 0.36443 0.0
C740 C 0.86639 0.52819 0.35241 0.0
C741 C 0.89193 0.56454 0.4084 0.0
C742 C 0.91063 0.57945 0.37221 0.0
C743 C 0.92974 0.59163 0.41198 0.0
C744 C 0.92979 0.58834 0.49073 0.0
C745 C 0.91085 0.57317 0.52892 0.0
C746 C 0.89161 0.56136 0.48746 0.0
H747 H 0.3679 0.92557 0.55013 0.0
H748 H 0.30187 0.89385 0.63083 0.0
H749 H 0.28925 0.88865 0.49788 0.0
H750 H 0.35979 0.95108 0.37688 0.0
H751 H 0.37818 0.94639 0.32104 0.0
H752 H 0.3822 0.9509 0.42241 0.0
H753 H 0.38212 0.91496 0.4373 0.0
H754 H 0.378 0.91029 0.33632 0.0
H755 H 0.35949 0.89048 0.40274 0.0
H756 H 0.28355 0.88165 0.35758 0.0
H757 H 0.28532 0.87476 0.22019 0.0
H758 H 0.3548 0.91101 0.22815 0.0
C759 C 0.35078 0.91786 0.54022 0.0
C760 C 0.33594 0.91012 0.60187 0.0
C761 C 0.31367 0.90022 0.58547 0.0
C762 C 0.30631 0.8971 0.50976 0.0
C763 C 0.32137 0.90416 0.45064 0.0
C764 C 0.34317 0.91458 0.46494 0.0
C765 C 0.35594 0.91899 0.3913 0.0
C766 C 0.36985 0.94328 0.37708 0.0
C767 C 0.36969 0.90802 0.39199 0.0
C768 C 0.33788 0.90866 0.3335 0.0
C769 C 0.31807 0.9004 0.36903 0.0
C770 C 0.29895 0.88846 0.329 0.0
C771 C 0.30009 0.88457 0.25116 0.0
C772 C 0.32016 0.89264 0.21372 0.0
C773 C 0.33928 0.90521 0.25515 0.0
H774 H 0.47586 0.32922 0.4122 0.0
H775 H 0.41427 0.32005 0.3384 0.0
H776 H 0.40444 0.3216 0.47314 0.0
H777 H 0.45777 0.29816 0.5865 0.0
H778 H 0.48153 0.31647 0.63884 0.0
H779 H 0.48304 0.31357 0.53724 0.0
H780 H 0.49895 0.35461 0.51937 0.0
H781 H 0.49763 0.35765 0.62085 0.0
H782 H 0.48461 0.36727 0.55704 0.0
H783 H 0.40174 0.32436 0.61835 0.0
H784 H 0.40805 0.33161 0.75778 0.0
H785 H 0.47164 0.33989 0.73239 0.0
C786 C 0.46019 0.32725 0.42443 0.0
C787 C 0.44573 0.3243 0.36506 0.0
C788 C 0.42559 0.32238 0.38317 0.0
C789 C 0.41983 0.32308 0.45948 0.0
C790 C 0.43447 0.32586 0.51679 0.0
C791 C 0.45433 0.32814 0.49983 0.0
C792 C 0.46775 0.33221 0.57077 0.0
C793 C 0.47281 0.31401 0.5841 0.0
C794 C 0.48845 0.35424 0.56675 0.0
C795 C 0.45243 0.33195 0.63054 0.0
C796 C 0.43317 0.32801 0.59884 0.0
C797 C 0.41673 0.3274 0.64364 0.0
C798 C 0.42033 0.33139 0.72246 0.0
C799 C 0.44022 0.33612 0.7547 0.0
C800 C 0.45627 0.33612 0.70838 0.0
H801 H 0.1501 0.47648 0.60862 0.0
H802 H 0.11354 0.41119 0.52287 0.0
H803 H 0.10855 0.39742 0.65428 0.0
H804 H 0.1756 0.46478 0.77114 0.0
H805 H 0.17326 0.48357 0.83302 0.0
H806 H 0.17643 0.48836 0.73155 0.0
H807 H 0.14168 0.49088 0.72836 0.0
H808 H 0.13845 0.48616 0.82963 0.0
H809 H 0.11705 0.46897 0.76581 0.0
H810 H 0.10357 0.39075 0.79473 0.0
H811 H 0.09918 0.39182 0.93446 0.0
H812 H 0.13897 0.46108 0.93156 0.0
C813 C 0.14123 0.45927 0.61713 0.0
C814 C 0.13233 0.44499 0.55449 0.0
C815 C 0.1209 0.42255 0.56896 0.0
C816 C 0.11789 0.41453 0.64378 0.0
C817 C 0.12652 0.42908 0.70396 0.0
C818 C 0.13806 0.45098 0.69155 0.0
C819 C 0.14432 0.4632 0.76661 0.0
C820 C 0.16887 0.47572 0.77612 0.0
C821 C 0.1348 0.47818 0.77295 0.0
C822 C 0.13389 0.44475 0.82318 0.0
C823 C 0.12388 0.4252 0.78563 0.0
C824 C 0.11169 0.40591 0.82478 0.0
C825 C 0.10928 0.40665 0.90396 0.0
C826 C 0.11908 0.42645 0.94351 0.0
C827 C 0.13191 0.44572 0.90277 0.0
H828 H 0.66277 0.10349 0.78621 0.0
H829 H 0.73223 0.14 0.77803 0.0
H830 H 0.73386 0.13372 0.916 0.0
H831 H 0.65768 0.12462 0.95712 0.0
H832 H 0.63511 0.10035 0.99367 0.0
H833 H 0.63929 0.10424 0.89233 0.0
H834 H 0.63953 0.06839 0.88086 0.0
H835 H 0.63521 0.06431 0.98236 0.0
H836 H 0.65783 0.0641 0.93848 0.0
H837 H 0.72799 0.12749 0.05649 0.0
H838 H 0.71523 0.12261 0.18928 0.0
H839 H 0.64924 0.08993 0.10883 0.0
C840 C 0.67824 0.10942 0.81332 0.0
C841 C 0.69742 0.12191 0.77167 0.0
C842 C 0.71744 0.13021 0.80917 0.0
C843 C 0.71849 0.12668 0.88735 0.0
C844 C 0.69932 0.11483 0.9276 0.0
C845 C 0.67954 0.10624 0.89195 0.0
C846 C 0.66142 0.09614 0.95003 0.0
C847 C 0.64757 0.10699 0.94816 0.0
C848 C 0.64769 0.07178 0.93716 0.0
C849 C 0.67412 0.10108 0.02376 0.0
C850 C 0.69593 0.11154 0.0094 0.0
C851 C 0.71092 0.11897 0.06844 0.0
C852 C 0.70346 0.11601 0.14412 0.0
C853 C 0.68115 0.10584 0.16063 0.0
C854 C 0.66639 0.09786 0.09902 0.0
H855 H 0.59495 0.71991 0.23276 0.0
H856 H 0.58569 0.65862 0.31246 0.0
H857 H 0.58178 0.64603 0.17952 0.0
H858 H 0.55659 0.69905 0.08386 0.0
H859 H 0.57194 0.72062 0.01767 0.0
H860 H 0.57545 0.72548 0.11882 0.0
H861 H 0.61628 0.73976 0.10391 0.0
H862 H 0.61287 0.73489 1.00259 0.0
H863 H 0.62535 0.72311 0.05884 0.0
H864 H 0.57685 0.63918 0.03998 0.0
H865 H 0.57023 0.63811 0.90149 0.0
H866 H 0.58314 0.70382 0.90847 0.0
C867 C 0.59245 0.70398 0.22214 0.0
C868 C 0.5906 0.69024 0.28342 0.0
C869 C 0.5869 0.66935 0.26692 0.0
C870 C 0.58484 0.66211 0.19142 0.0
C871 C 0.58657 0.67595 0.13259 0.0
C872 C 0.59029 0.69645 0.14681 0.0
C873 C 0.5904 0.70763 0.07293 0.0
C874 C 0.57253 0.71354 0.07337 0.0
C875 C 0.61254 0.72753 0.05874 0.0
C876 C 0.58579 0.69007 0.01519 0.0
C877 C 0.58382 0.67201 0.05115 0.0
C878 C 0.57854 0.65328 0.01113 0.0
C879 C 0.57477 0.65279 0.93259 0.0
C880 C 0.5763 0.67089 0.89442 0.0
C881 C 0.58229 0.68993 0.93611 0.0
H882 H 0.55875 0.15915 0.16327 0.0
H883 H 0.52797 0.16722 0.36405 0.0
H884 H 0.5591 0.17325 0.44213 0.0
H885 H 0.57727 0.12843 0.25098 0.0
H886 H 0.60224 0.13954 0.19883 0.0
H887 H 0.57938 0.13947 0.15684 0.0
H888 H 0.60183 0.18071 0.13729 0.0
H889 H 0.62484 0.18089 0.17915 0.0
H890 H 0.61523 0.19784 0.21773 0.0
H891 H 0.59121 0.17326 0.50139 0.0
H892 H 0.62182 0.16818 0.53553 0.0
H893 H 0.63123 0.15955 0.29636 0.0
C894 C 0.55869 0.16257 0.22342 0.0
C895 C 0.54087 0.16279 0.25728 0.0
C896 C 0.54153 0.16735 0.33629 0.0
C897 C 0.55913 0.17069 0.38128 0.0
C898 C 0.57607 0.16961 0.34644 0.0
C899 C 0.57607 0.16587 0.26906 0.0
C900 C 0.59528 0.16368 0.24644 0.0
C901 C 0.58811 0.14147 0.21124 0.0
C902 C 0.61018 0.18187 0.19193 0.0
C903 C 0.60575 0.16606 0.32352 0.0
C904 C 0.59457 0.1697 0.38045 0.0
C905 C 0.60029 0.17079 0.45706 0.0
C906 C 0.61764 0.16781 0.47598 0.0
C907 C 0.6291 0.16374 0.4186 0.0
C908 C 0.62321 0.16325 0.34135 0.0
H909 H 0.41885 0.54732 0.28983 0.0
H910 H 0.37294 0.54168 0.46248 0.0
H911 H 0.39932 0.57776 0.51158 0.0
H912 H 0.46332 0.56954 0.40649 0.0
H913 H 0.48187 0.58702 0.33483 0.0
H914 H 0.45826 0.56259 0.30684 0.0
H915 H 0.44696 0.58431 0.21905 0.0
H916 H 0.4706 0.60888 0.24699 0.0
H917 H 0.44437 0.60611 0.25846 0.0
H918 H 0.43292 0.61274 0.55155 0.0
H919 H 0.46997 0.64195 0.57945 0.0
H920 H 0.49317 0.62408 0.37962 0.0
C921 C 0.41419 0.55377 0.33736 0.0
C922 C 0.39384 0.54164 0.37243 0.0
C923 C 0.38835 0.55076 0.43416 0.0
C924 C 0.40326 0.57124 0.46247 0.0
C925 C 0.42347 0.58249 0.42776 0.0
C926 C 0.4288 0.57406 0.36607 0.0
C927 C 0.45201 0.58829 0.34255 0.0
C928 C 0.46459 0.57613 0.34806 0.0
C929 C 0.45357 0.59744 0.26198 0.0
C930 C 0.45925 0.60571 0.40236 0.0
C931 C 0.44256 0.60238 0.45044 0.0
C932 C 0.44598 0.61566 0.51337 0.0
C933 C 0.46705 0.6323 0.52862 0.0
C934 C 0.48443 0.63531 0.48163 0.0
C935 C 0.4802 0.62221 0.41648 0.0
H936 H 0.86965 0.40644 0.5134 0.0
H937 H 0.84522 0.36035 0.69911 0.0
H938 H 0.837 0.38481 0.77283 0.0
H939 H 0.8962 0.45204 0.62426 0.0
H940 H 0.89011 0.46889 0.56537 0.0
H941 H 0.89125 0.4466 0.52365 0.0
H942 H 0.85254 0.43133 0.47198 0.0
H943 H 0.8513 0.45367 0.51343 0.0
H944 H 0.83108 0.42653 0.53695 0.0
H945 H 0.8366 0.41667 0.8332 0.0
H946 H 0.84211 0.45227 0.87192 0.0
H947 H 0.86554 0.47692 0.64499 0.0
C948 C 0.86215 0.40131 0.56898 0.0
C949 C 0.85799 0.38147 0.6005 0.0
C950 C 0.84825 0.37534 0.67346 0.0
C951 C 0.84361 0.38918 0.71581 0.0
C952 C 0.84848 0.40892 0.68385 0.0
C953 C 0.85725 0.41482 0.61154 0.0
C954 C 0.86225 0.43741 0.59191 0.0
C955 C 0.88638 0.45209 0.57537 0.0
C956 C 0.84846 0.43721 0.52458 0.0
C957 C 0.85566 0.44364 0.66546 0.0
C958 C 0.84765 0.42697 0.71775 0.0
C959 C 0.84237 0.42964 0.79211 0.0
C960 C 0.84558 0.44989 0.81369 0.0
C961 C 0.85383 0.46715 0.76098 0.0
C962 C 0.85857 0.4638 0.68566 0.0
H963 H 0.39428 0.84244 0.90206 0.0
H964 H 0.37108 0.85568 0.69199 0.0
H965 H 0.39946 0.85367 0.61987 0.0
H966 H 0.44854 0.87361 0.86337 0.0
H967 H 0.45665 0.85566 0.90362 0.0
H968 H 0.43282 0.85518 0.93832 0.0
H969 H 0.41028 0.81449 0.90854 0.0
H970 H 0.43414 0.8148 0.87426 0.0
H971 H 0.41086 0.80504 0.81371 0.0
H972 H 0.43357 0.85665 0.57439 0.0
H973 H 0.46931 0.86146 0.55579 0.0
H974 H 0.46895 0.84176 0.79151 0.0
C975 C 0.39488 0.84435 0.84065 0.0
C976 C 0.38025 0.84892 0.8026 0.0
C977 C 0.38174 0.85165 0.72225 0.0
C978 C 0.39791 0.85066 0.68071 0.0
C979 C 0.41233 0.84657 0.71997 0.0
C980 C 0.41077 0.84304 0.79788 0.0
C981 C 0.4291 0.84009 0.82627 0.0
C982 C 0.44257 0.85715 0.88643 0.0
C983 C 0.42058 0.81724 0.85753 0.0
C984 C 0.44166 0.84352 0.75276 0.0
C985 C 0.43165 0.84719 0.6923 0.0
C986 C 0.44125 0.85308 0.62069 0.0
C987 C 0.46175 0.85556 0.61064 0.0
C988 C 0.47257 0.85181 0.67152 0.0
C989 C 0.4618 0.84511 0.74307 0.0
H990 H 0.53947 0.41245 0.97156 0.0
H991 H 0.55895 0.36429 0.95678 0.0
H992 H 0.59319 0.39105 0.8955 0.0
H993 H 0.55986 0.43627 0.79147 0.0
H994 H 0.56817 0.46322 0.82272 0.0
H995 H 0.54602 0.44067 0.86926 0.0
H996 H 0.56508 0.45357 0.99994 0.0
H997 H 0.58723 0.47627 0.95388 0.0
H998 H 0.59204 0.45824 0.01117 0.0
H999 H 0.62561 0.42383 0.83515 0.0
H1000 H 0.65212 0.45875 0.77713 0.0
H1001 H 0.61001 0.48421 0.82875 0.0
C1002 C 0.55111 0.40761 0.95685 0.0
C1003 C 0.54671 0.38637 0.97001 0.0
C1004 C 0.56206 0.38051 0.94755 0.0
C1005 C 0.58154 0.39561 0.91289 0.0
C1006 C 0.58529 0.41642 0.90043 0.0
C1007 C 0.57041 0.42234 0.92163 0.0
C1008 C 0.5777 0.44533 0.89933 0.0
C1009 C 0.56201 0.44643 0.8423 0.0
C1010 C 0.5807 0.45916 0.97031 0.0
C1011 C 0.59902 0.4515 0.86194 0.0
C1012 C 0.6033 0.43475 0.86359 0.0
C1013 C 0.62233 0.43699 0.83333 0.0
C1014 C 0.63729 0.45684 0.80058 0.0
C1015 C 0.63296 0.47403 0.79742 0.0
C1016 C 0.61357 0.47121 0.82882 0.0
H1017 H 0.14157 0.54225 0.21948 0.0
H1018 H 0.1808 0.53757 0.03992 0.0
H1019 H 0.18993 0.57374 0.99414 0.0
H1020 H 0.11791 0.56388 0.10557 0.0
H1021 H 0.11664 0.58093 0.17849 0.0
H1022 H 0.1165 0.55667 0.20486 0.0
H1023 H 0.14962 0.57865 0.29154 0.0
H1024 H 0.14989 0.60305 0.26513 0.0
H1025 H 0.17362 0.60084 0.25168 0.0
H1026 H 0.19137 0.6089 0.9593 0.0
H1027 H 0.18321 0.63809 0.93473 0.0
H1028 H 0.14155 0.6183 0.13321 0.0
C1029 C 0.15225 0.54882 0.17085 0.0
C1030 C 0.16042 0.53693 0.13336 0.0
C1031 C 0.17455 0.54639 0.07049 0.0
C1032 C 0.17979 0.56695 0.04392 0.0
C1033 C 0.17087 0.5779 0.08099 0.0
C1034 C 0.1574 0.56909 0.14322 0.0
C1035 C 0.14804 0.5829 0.16841 0.0
C1036 C 0.12332 0.57035 0.16401 0.0
C1037 C 0.15576 0.59189 0.24897 0.0
C1038 C 0.15772 0.60051 0.10899 0.0
C1039 C 0.17124 0.59769 0.06 0.0
C1040 C 0.18105 0.6114 0.99799 0.0
C1041 C 0.17642 0.62799 0.98463 0.0
C1042 C 0.16185 0.63045 0.0323 0.0
C1043 C 0.15286 0.61684 0.0962 0.0
H1044 H 0.42685 0.05826 0.95644 0.0
H1045 H 0.38031 0.06396 0.09676 0.0
H1046 H 0.35258 0.0267 0.06125 0.0
H1047 H 0.38826 0.02242 0.80466 0.0
H1048 H 0.40279 0.00806 0.79561 0.0
H1049 H 0.41689 0.03621 0.81999 0.0
H1050 H 0.43213 0.02763 0.94052 0.0
H1051 H 0.41793 0.99956 0.91733 0.0
H1052 H 0.41382 0.0084 0.00892 0.0
H1053 H 0.33206 0.98603 0.02654 0.0
H1054 H 0.32157 0.94819 0.99549 0.0
H1055 H 0.38228 0.97083 0.87813 0.0
C1056 C 0.41055 0.05196 0.9771 0.0
C1057 C 0.40553 0.06398 0.02813 0.0
C1058 C 0.38426 0.05512 0.05598 0.0
C1059 C 0.36849 0.03393 0.03636 0.0
C1060 C 0.37426 0.0221 0.98796 0.0
C1061 C 0.39479 0.03111 0.95766 0.0
C1062 C 0.398 0.01484 0.91361 0.0
C1063 C 0.4017 0.02073 0.82841 0.0
C1064 C 0.41655 0.01247 0.94716 0.0
C1065 C 0.3765 0.99489 0.92684 0.0
C1066 C 0.36273 0.99923 0.96859 0.0
C1067 C 0.3426 0.98262 0.99247 0.0
C1068 C 0.33671 0.96118 0.97451 0.0
C1069 C 0.35109 0.95662 0.93426 0.0
C1070 C 0.37089 0.97381 0.9087 0.0
H1071 H 0.41776 0.36245 0.21005 0.0
H1072 H 0.38592 0.32838 1.00409 0.0
H1073 H 0.35858 0.33972 0.02109 0.0
H1074 H 0.36808 0.35407 0.31664 0.0
H1075 H 0.38294 0.38068 0.35668 0.0
H1076 H 0.39631 0.36558 0.33693 0.0
H1077 H 0.42435 0.39708 0.25406 0.0
H1078 H 0.41104 0.41212 0.27276 0.0
H1079 H 0.41527 0.40676 0.17564 0.0
H1080 H 0.33898 0.36121 0.04971 0.0
H1081 H 0.33003 0.38938 0.08634 0.0
H1082 H 0.37566 0.4088 0.27169 0.0
C1083 C 0.40445 0.35658 0.17042 0.0
C1084 C 0.40365 0.34427 0.10662 0.0
C1085 C 0.38643 0.33736 0.0545 0.0
C1086 C 0.37094 0.34386 0.06362 0.0
C1087 C 0.37278 0.35694 0.12578 0.0
C1088 C 0.389 0.36284 0.17899 0.0
C1089 C 0.38943 0.37893 0.23554 0.0
C1090 C 0.38385 0.36923 0.31623 0.0
C1091 C 0.4113 0.39995 0.23431 0.0
C1092 C 0.37172 0.38221 0.20385 0.0
C1093 C 0.36185 0.36915 0.14155 0.0
C1094 C 0.34629 0.37107 0.09955 0.0
C1095 C 0.34119 0.38702 0.12079 0.0
C1096 C 0.35192 0.40098 0.18251 0.0
C1097 C 0.36689 0.39805 0.22519 0.0
H1098 H 0.06096 0.40826 0.4336 0.0
H1099 H 0.06648 0.37697 0.23098 0.0
H1100 H 0.02785 0.34934 0.24204 0.0
H1101 H 0.01757 0.35817 0.53485 0.0
H1102 H 1.0053 0.37316 0.5696 0.0
H1103 H 0.03404 0.38633 0.55684 0.0
H1104 H 0.03245 0.41476 0.47016 0.0
H1105 H 1.00386 0.40163 0.4817 0.0
H1106 H 0.01533 0.40602 0.38727 0.0
H1107 H 0.98652 0.32986 0.26143 0.0
H1108 H 0.94893 0.32129 0.28769 0.0
H1109 H 0.97183 0.36666 0.47449 0.0
C1110 C 0.05427 0.39493 0.39388 0.0
C1111 C 0.06671 0.39446 0.3324 0.0
C1112 C 0.05735 0.37724 0.27983 0.0
C1113 C 0.03534 0.36158 0.28547 0.0
C1114 C 0.02311 0.36325 0.34465 0.0
C1115 C 0.03251 0.37937 0.39881 0.0
C1116 C 0.01588 0.37987 0.45051 0.0
C1117 C 0.01834 0.37403 0.53283 0.0
C1118 C 0.01695 0.40185 0.44709 0.0
C1119 C 0.99551 0.36237 0.41473 0.0
C1120 C 0.99977 0.35248 0.35488 0.0
C1121 C 0.9831 0.33716 0.30948 0.0
C1122 C 0.96178 0.33229 0.32479 0.0
C1123 C 0.95749 0.34303 0.38399 0.0
C1124 C 0.97456 0.3578 0.4301 0.0
H1125 H 0.60697 0.95654 0.46651 0.0
H1126 H 0.6406 0.95484 0.66846 0.0
H1127 H 0.66859 0.99294 0.64585 0.0
H1128 H 0.65598 0.99641 0.35179 0.0
H1129 H 0.64107 0.00839 0.31392 0.0
H1130 H 0.62749 0.98005 0.33554 0.0
H1131 H 0.60076 0.98464 0.42217 0.0
H1132 H 0.61428 0.01286 0.40169 0.0
H1133 H 0.61098 1.00378 0.49931 0.0
H1134 H 0.68844 0.03348 0.61447 0.0
H1135 H 0.69703 0.07053 0.57974 0.0
H1136 H 0.64955 0.04469 0.40018 0.0
C1137 C 0.62079 0.96391 0.50396 0.0
C1138 C 0.6219 0.95275 0.5684 0.0
C1139 C 0.63981 0.963 0.61761 0.0
C1140 C 0.65569 0.98467 0.60526 0.0
C1141 C 0.65352 0.99564 0.54284 0.0
C1142 C 0.63659 0.98533 0.49229 0.0
C1143 C 0.63585 1.00088 0.43586 0.0
C1144 C 0.64038 0.99615 0.35445 0.0
C1145 C 0.6142 1.00052 0.44013 0.0
C1146 C 0.65415 0.02186 0.46503 0.0
C1147 C 0.66462 0.01865 0.52548 0.0
C1148 C 0.68069 0.03607 0.56595 0.0
C1149 C 0.6856 0.05708 0.54567 0.0
C1150 C 0.67418 0.06037 0.48648 0.0
C1151 C 0.65882 0.04257 0.44456 0.0
H1152 H 0.63024 0.66341 0.50466 0.0
H1153 H 0.63422 0.69126 0.72724 0.0
H1154 H 0.66006 0.67973 0.76816 0.0
H1155 H 0.62617 0.61773 0.56598 0.0
H1156 H 0.64144 0.61453 0.49044 0.0
H1157 H 0.62824 0.62976 0.47371 0.0
H1158 H 0.66443 0.66269 0.43268 0.0
H1159 H 0.67781 0.64744 0.44885 0.0
H1160 H 0.68722 0.67291 0.49586 0.0
H1161 H 0.67972 0.6584 0.79106 0.0
H1162 H 0.68987 0.62997 0.79325 0.0
H1163 H 0.67195 0.61615 0.55571 0.0
C1164 C 0.63726 0.66789 0.56102 0.0
C1165 C 0.6305 0.67844 0.6125 0.0
C1166 C 0.63961 0.68362 0.68636 0.0
C1167 C 0.65422 0.67702 0.71005 0.0
C1168 C 0.65974 0.66559 0.65871 0.0
C1169 C 0.6517 0.66142 0.58513 0.0
C1170 C 0.65744 0.6465 0.54358 0.0
C1171 C 0.63712 0.62593 0.51698 0.0
C1172 C 0.67264 0.65809 0.47627 0.0
C1173 C 0.66891 0.6418 0.60631 0.0
C1174 C 0.67066 0.6533 0.67193 0.0
C1175 C 0.67889 0.64978 0.73934 0.0
C1176 C 0.68475 0.6337 0.7401 0.0
C1177 C 0.68194 0.62114 0.67429 0.0
C1178 C 0.67461 0.62582 0.60635 0.0
H1179 H 0.05361 0.66511 0.97427 0.0
H1180 H 0.06533 0.68313 0.73634 0.0
H1181 H 0.02688 0.67219 0.72033 0.0
H1182 H 1.01034 0.6184 0.94407 0.0
H1183 H 0.99562 0.61748 0.02885 0.0
H1184 H 0.02436 0.6333 0.02801 0.0
H1185 H 0.02237 0.66715 0.06568 0.0
H1186 H 0.99342 0.65132 0.06725 0.0
H1187 H 1.00663 0.67517 0.00897 0.0
H1188 H 0.9861 0.65201 0.72445 0.0
H1189 H 0.94843 0.62305 0.74493 0.0
H1190 H 0.96368 0.61577 0.97765 0.0
C1191 C 0.04835 0.6679 0.91997 0.0
C1192 C 0.06255 0.6757 0.85724 0.0
C1193 C 0.05484 0.67801 0.78579 0.0
C1194 C 0.03298 0.67171 0.77629 0.0
C1195 C 0.01906 0.66297 0.83875 0.0
C1196 C 0.02659 0.66121 0.90951 0.0
C1197 C 1.00828 0.64755 0.9636 0.0
C1198 C 1.00975 0.62804 0.99271 0.0
C1199 C 1.00764 0.66111 0.03032 0.0
C1200 C 0.98924 0.64077 0.91123 0.0
C1201 C 0.99562 0.65042 0.84024 0.0
C1202 C 0.98092 0.64485 0.7804 0.0
C1203 C 0.9595 0.6285 0.79256 0.0
C1204 C 0.95318 0.61762 0.86338 0.0
C1205 C 0.96807 0.62434 0.9238 0.0
loop_
_geom_bond_atom_site_label_1
_geom_bond_atom_site_label_2
_geom_bond_distance
_geom_bond_site_symmetry_2
_ccdc_geom_bond_type
C0 C1 1.351 . S
C0 N3 1.368 . S
C0 H5 0.931 . S
C1 C0 1.351 . S
C1 N2 1.373 . S
C1 H29 0.930 . S
N2 C1 1.373 . S
N2 C4 1.340 . S
N3 C0 1.368 . S
N3 C4 1.321 . S
N3 Co6 2.135 . S
C4 N2 1.340 . S
C4 N3 1.321 . S
C4 H28 0.930 . S
H5 C0 0.931 . S
Co6 N3 2.135 . S
Co6 N9 2.121 1_554 S
Co6 O14 2.055 . S
Co6 O17 2.039 . S
Co6 N20 2.140 . S
C7 O8 1.227 . S
C7 O17 1.265 . S
O8 C7 1.227 . S
N9 Co6 2.121 1_556 S
N9 C11 1.375 . S
N9 C12 1.313 . S
C10 C11 1.338 . S
C10 N13 1.377 . S
C10 H30 0.930 . S
C11 N9 1.375 . S
C11 C10 1.338 . S
C11 H15 0.931 . S
C12 N9 1.313 . S
C12 N13 1.344 . S
C12 H16 0.930 . S
N13 C10 1.377 . S
N13 C12 1.344 . S
O14 Co6 2.055 . S
O14 C18 1.253 . S
H15 C11 0.931 . S
H16 C12 0.930 . S
O17 Co6 2.039 . S
O17 C7 1.265 . S
C18 O14 1.253 . S
C18 O19 1.227 . S
O19 C18 1.227 . S
N20 Co6 2.140 . S
N20 C23 1.346 . S
N20 C24 1.345 . S
C21 C22 1.387 . S
C21 C25 1.391 . S
C22 C21 1.387 . S
C22 C23 1.369 . S
C22 H31 0.929 . S
C23 N20 1.346 . S
C23 C22 1.369 . S
C23 H26 0.928 . S
C24 N20 1.345 . S
C24 C25 1.371 . S
C24 H27 0.931 . S
C25 C21 1.391 . S
C25 C24 1.371 . S
C25 H32 0.930 . S
H26 C23 0.928 . S
H27 C24 0.931 . S
H28 C4 0.930 . S
H29 C1 0.930 . S
H30 C10 0.930 . S
H31 C22 0.929 . S
H32 C25 0.930 . S
C33 C34 1.351 . S
C33 N36 1.368 . S
C33 H38 0.931 . S
C34 C33 1.351 . S
C34 N35 1.373 . S
C34 H62 0.930 . S
N35 C34 1.373 . S
N35 C37 1.340 . S
N36 C33 1.368 . S
N36 C37 1.321 . S
N36 Co39 2.135 . S
C37 N35 1.340 . S
C37 N36 1.321 . S
C37 H61 0.930 . S
H38 C33 0.931 . S
Co39 N36 2.135 . S
Co39 N42 2.121 . S
Co39 O47 2.055 . S
Co39 O50 2.039 . S
Co39 N53 2.140 . S
C40 O41 1.227 . S
C40 O50 1.265 . S
O41 C40 1.227 . S
N42 Co39 2.121 . S
N42 C44 1.375 . S
N42 C45 1.313 . S
C43 C44 1.338 . S
C43 N46 1.377 . S
C43 H63 0.930 . S
C44 N42 1.375 . S
C44 C43 1.338 . S
C44 H48 0.931 . S
C45 N42 1.313 . S
C45 N46 1.344 . S
C45 H49 0.930 . S
N46 C43 1.377 . S
N46 C45 1.344 . S
O47 Co39 2.055 . S
O47 C51 1.253 . S
H48 C44 0.931 . S
H49 C45 0.930 . S
O50 Co39 2.039 . S
O50 C40 1.265 . S
C51 O47 1.253 . S
C51 O52 1.227 . S
O52 C51 1.227 . S
N53 Co39 2.140 . S
N53 C56 1.346 . S
N53 C57 1.345 . S
C54 C55 1.387 . S
C54 C58 1.391 . S
C55 C54 1.387 . S
C55 C56 1.369 . S
C55 H64 0.929 . S
C56 N53 1.346 . S
C56 C55 1.369 . S
C56 H59 0.928 . S
C57 N53 1.345 . S
C57 C58 1.371 . S
C57 H60 0.931 . S
C58 C54 1.391 . S
C58 C57 1.371 . S
C58 H65 0.930 . S
H59 C56 0.928 . S
H60 C57 0.931 . S
H61 C37 0.930 . S
H62 C34 0.930 . S
H63 C43 0.930 . S
H64 C55 0.929 . S
H65 C58 0.930 . S
C66 C67 1.351 . S
C66 N69 1.368 . S
C66 H71 0.931 . S
C67 C66 1.351 . S
C67 N68 1.373 . S
C67 H95 0.930 . S
N68 C67 1.373 . S
N68 C70 1.340 . S
N69 C66 1.368 . S
N69 C70 1.321 . S
N69 Co72 2.135 . S
C70 N68 1.340 . S
C70 N69 1.321 . S
C70 H94 0.930 . S
H71 C66 0.931 . S
Co72 N69 2.135 . S
Co72 N75 2.121 . S
Co72 O80 2.055 . S
Co72 O83 2.039 . S
Co72 N86 2.140 . S
C73 O74 1.227 . S
C73 O83 1.265 . S
O74 C73 1.227 . S
N75 Co72 2.121 . S
N75 C77 1.375 . S
N75 C78 1.313 . S
C76 C77 1.338 . S
C76 N79 1.377 . S
C76 H96 0.930 . S
C77 N75 1.375 . S
C77 C76 1.338 . S
C77 H81 0.931 . S
C78 N75 1.313 . S
C78 N79 1.344 . S
C78 H82 0.930 . S
N79 C76 1.377 . S
N79 C78 1.344 . S
O80 Co72 2.055 . S
O80 C84 1.253 . S
H81 C77 0.931 . S
H82 C78 0.930 . S
O83 Co72 2.039 . S
O83 C73 1.265 . S
C84 O80 1.253 . S
C84 O85 1.227 . S
O85 C84 1.227 . S
N86 Co72 2.140 . S
N86 C89 1.346 . S
N86 C90 1.345 . S
C87 C88 1.387 . S
C87 C91 1.391 . S
C88 C87 1.387 . S
C88 C89 1.369 . S
C88 H97 0.929 . S
C89 N86 1.346 . S
C89 C88 1.369 . S
C89 H92 0.928 . S
C90 N86 1.345 . S
C90 C91 1.371 . S
C90 H93 0.931 . S
C91 C87 1.391 . S
C91 C90 1.371 . S
C91 H98 0.930 . S
H92 C89 0.928 . S
H93 C90 0.931 . S
H94 C70 0.930 . S
H95 C67 0.930 . S
H96 C76 0.930 . S
H97 C88 0.929 . S
H98 C91 0.930 . S
C99 C100 1.351 . S
C99 N102 1.368 . S
C99 H104 0.931 . S
C100 C99 1.351 . S
C100 N101 1.373 . S
C100 H128 0.930 . S
N101 C100 1.373 . S
N101 C103 1.340 . S
N102 C99 1.368 . S
N102 C103 1.321 . S
N102 Co105 2.135 . S
C103 N101 1.340 . S
C103 N102 1.321 . S
C103 H127 0.930 . S
H104 C99 0.931 . S
Co105 N102 2.135 . S
Co105 N108 2.121 . S
Co105 O113 2.055 . S
Co105 O116 2.039 . S
Co105 N119 2.140 . S
C106 O107 1.227 . S
C106 O116 1.265 . S
O107 C106 1.227 . S
N108 Co105 2.121 . S
N108 C110 1.375 . S
N108 C111 1.313 . S
C109 C110 1.338 . S
C109 N112 1.377 . S
C109 H129 0.930 . S
C110 N108 1.375 . S
C110 C109 1.338 . S
C110 H114 0.931 . S
C111 N108 1.313 . S
C111 N112 1.344 . S
C111 H115 0.930 . S
N112 C109 1.377 . S
N112 C111 1.344 . S
O113 Co105 2.055 . S
O113 C117 1.253 . S
H114 C110 0.931 . S
H115 C111 0.930 . S
O116 Co105 2.039 . S
O116 C106 1.265 . S
C117 O113 1.253 . S
C117 O118 1.227 . S
O118 C117 1.227 . S
N119 Co105 2.140 . S
N119 C122 1.346 . S
N119 C123 1.345 . S
C120 C121 1.387 . S
C120 C124 1.391 . S
C121 C120 1.387 . S
C121 C122 1.369 . S
C121 H130 0.929 . S
C122 N119 1.346 . S
C122 C121 1.369 . S
C122 H125 0.928 . S
C123 N119 1.345 . S
C123 C124 1.371 . S
C123 H126 0.931 . S
C124 C120 1.391 . S
C124 C123 1.371 . S
C124 H131 0.930 . S
H125 C122 0.928 . S
H126 C123 0.931 . S
H127 C103 0.930 . S
H128 C100 0.930 . S
H129 C109 0.930 . S
H130 C121 0.929 . S
H131 C124 0.930 . S
C132 C133 1.351 1_556 S
C132 N135 1.368 . S
C132 H137 0.931 . S
C133 C132 1.351 1_554 S
C133 N134 1.373 . S
C133 H161 0.930 . S
N134 C133 1.373 . S
N134 C136 1.340 1_554 S
N135 C132 1.368 . S
N135 C136 1.321 . S
N135 Co138 2.135 . S
C136 N134 1.340 1_556 S
C136 N135 1.321 . S
C136 H160 0.930 . S
H137 C132 0.931 . S
Co138 N135 2.135 . S
Co138 N141 2.121 . S
Co138 O146 2.055 . S
Co138 O149 2.039 . S
Co138 N152 2.140 . S
C139 O140 1.227 . S
C139 O149 1.265 . S
O140 C139 1.227 . S
N141 Co138 2.121 . S
N141 C143 1.375 . S
N141 C144 1.313 . S
C142 C143 1.338 . S
C142 N145 1.377 . S
C142 H162 0.930 . S
C143 N141 1.375 . S
C143 C142 1.338 . S
C143 H147 0.931 . S
C144 N141 1.313 . S
C144 N145 1.344 . S
C144 H148 0.930 . S
N145 C142 1.377 . S
N145 C144 1.344 . S
O146 Co138 2.055 . S
O146 C150 1.253 . S
H147 C143 0.931 . S
H148 C144 0.930 . S
O149 Co138 2.039 . S
O149 C139 1.265 . S
C150 O146 1.253 . S
C150 O151 1.227 . S
O151 C150 1.227 . S
N152 Co138 2.140 . S
N152 C155 1.346 . S
N152 C156 1.345 . S
C153 C154 1.387 . S
C153 C157 1.391 . S
C154 C153 1.387 . S
C154 C155 1.369 . S
C154 H163 0.929 . S
C155 N152 1.346 . S
C155 C154 1.369 . S
C155 H158 0.928 . S
C156 N152 1.345 . S
C156 C157 1.371 . S
C156 H159 0.931 . S
C157 C153 1.391 . S
C157 C156 1.371 . S
C157 H164 0.930 . S
H158 C155 0.928 . S
H159 C156 0.931 . S
H160 C136 0.930 . S
H161 C133 0.930 . S
H162 C142 0.930 . S
H163 C154 0.929 . S
H164 C157 0.930 . S
C165 C166 1.351 . S
C165 N168 1.368 . S
C165 H170 0.931 . S
C166 C165 1.351 . S
C166 N167 1.373 . S
C166 H194 0.930 . S
N167 C166 1.373 . S
N167 C169 1.340 . S
N168 C165 1.368 . S
N168 C169 1.321 . S
N168 Co171 2.135 1_554 S
C169 N167 1.340 . S
C169 N168 1.321 . S
C169 H193 0.930 . S
H170 C165 0.931 . S
Co171 N168 2.135 1_556 S
Co171 N174 2.121 . S
Co171 O179 2.055 . S
Co171 O182 2.039 . S
Co171 N185 2.140 . S
C172 O173 1.227 . S
C172 O182 1.265 . S
O173 C172 1.227 . S
N174 Co171 2.121 . S
N174 C176 1.375 . S
N174 C177 1.313 . S
C175 C176 1.338 . S
C175 N178 1.377 . S
C175 H195 0.930 . S
C176 N174 1.375 . S
C176 C175 1.338 . S
C176 H180 0.931 . S
C177 N174 1.313 . S
C177 N178 1.344 . S
C177 H181 0.930 . S
N178 C175 1.377 . S
N178 C177 1.344 . S
O179 Co171 2.055 . S
O179 C183 1.253 . S
H180 C176 0.931 . S
H181 C177 0.930 . S
O182 Co171 2.039 . S
O182 C172 1.265 . S
C183 O179 1.253 . S
C183 O184 1.227 . S
O184 C183 1.227 . S
N185 Co171 2.140 . S
N185 C188 1.346 1_556 S
N185 C189 1.345 . S
C186 C187 1.387 1_556 S
C186 C190 1.391 . S
C187 C186 1.387 1_554 S
C187 C188 1.369 . S
C187 H196 0.929 . S
C188 N185 1.346 1_554 S
C188 C187 1.369 . S
C188 H191 0.928 . S
C189 N185 1.345 . S
C189 C190 1.371 . S
C189 H192 0.931 . S
C190 C186 1.391 . S
C190 C189 1.371 . S
C190 H197 0.930 . S
H191 C188 0.928 . S
H192 C189 0.931 . S
H193 C169 0.930 . S
H194 C166 0.930 . S
H195 C175 0.930 . S
H196 C187 0.929 . S
H197 C190 0.930 . S
C198 C199 1.351 . S
C198 N201 1.368 . S
C198 H203 0.931 . S
C199 C198 1.351 . S
C199 N200 1.373 . S
C199 H227 0.930 . S
N200 C199 1.373 . S
N200 C202 1.340 . S
N201 C198 1.368 . S
N201 C202 1.321 . S
N201 Co204 2.135 . S
C202 N200 1.340 . S
C202 N201 1.321 . S
C202 H226 0.930 . S
H203 C198 0.931 . S
Co204 N201 2.135 . S
Co204 N207 2.121 . S
Co204 O212 2.055 . S
Co204 O215 2.039 . S
Co204 N218 2.140 . S
C205 O206 1.227 . S
C205 O215 1.265 . S
O206 C205 1.227 . S
N207 Co204 2.121 . S
N207 C209 1.375 . S
N207 C210 1.313 . S
C208 C209 1.338 . S
C208 N211 1.377 . S
C208 H228 0.930 . S
C209 N207 1.375 . S
C209 C208 1.338 . S
C209 H213 0.931 . S
C210 N207 1.313 . S
C210 N211 1.344 . S
C210 H214 0.930 . S
N211 C208 1.377 . S
N211 C210 1.344 . S
O212 Co204 2.055 . S
O212 C216 1.253 . S
H213 C209 0.931 . S
H214 C210 0.930 . S
O215 Co204 2.039 . S
O215 C205 1.265 . S
C216 O212 1.253 . S
C216 O217 1.227 . S
O217 C216 1.227 . S
N218 Co204 2.140 . S
N218 C221 1.346 . S
N218 C222 1.345 . S
C219 C220 1.387 . S
C219 C223 1.391 . S
C220 C219 1.387 . S
C220 C221 1.369 . S
C220 H229 0.929 . S
C221 N218 1.346 . S
C221 C220 1.369 . S
C221 H224 0.928 . S
C222 N218 1.345 . S
C222 C223 1.371 . S
C222 H225 0.931 . S
C223 C219 1.391 . S
C223 C222 1.371 . S
C223 H230 0.930 . S
H224 C221 0.928 . S
H225 C222 0.931 . S
H226 C202 0.930 . S
H227 C199 0.930 . S
H228 C208 0.930 . S
H229 C220 0.929 . S
H230 C223 0.930 . S
C231 C232 1.351 . S
C231 N234 1.368 . S
C231 H236 0.931 . S
C232 C231 1.351 . S
C232 N233 1.373 . S
C232 H260 0.930 . S
N233 C232 1.373 . S
N233 C235 1.340 . S
N234 C231 1.368 . S
N234 C235 1.321 . S
N234 Co237 2.135 . S
C235 N233 1.340 . S
C235 N234 1.321 . S
C235 H259 0.930 . S
H236 C231 0.931 . S
Co237 N234 2.135 . S
Co237 N240 2.121 1_556 S
Co237 O245 2.055 . S
Co237 O248 2.039 . S
Co237 N251 2.140 . S
C238 O239 1.227 . S
C238 O248 1.265 . S
O239 C238 1.227 . S
N240 Co237 2.121 1_554 S
N240 C242 1.375 . S
N240 C243 1.313 . S
C241 C242 1.338 . S
C241 N244 1.377 . S
C241 H261 0.930 . S
C242 N240 1.375 . S
C242 C241 1.338 . S
C242 H246 0.931 . S
C243 N240 1.313 . S
C243 N244 1.344 . S
C243 H247 0.930 . S
N244 C241 1.377 . S
N244 C243 1.344 . S
O245 Co237 2.055 . S
O245 C249 1.253 . S
H246 C242 0.931 . S
H247 C243 0.930 . S
O248 Co237 2.039 . S
O248 C238 1.265 . S
C249 O245 1.253 . S
C249 O250 1.227 . S
O250 C249 1.227 . S
N251 Co237 2.140 . S
N251 C254 1.346 . S
N251 C255 1.345 . S
C252 C253 1.387 . S
C252 C256 1.391 . S
C253 C252 1.387 . S
C253 C254 1.369 . S
C253 H262 0.929 . S
C254 N251 1.346 . S
C254 C253 1.369 . S
C254 H257 0.928 . S
C255 N251 1.345 . S
C255 C256 1.371 . S
C255 H258 0.931 . S
C256 C252 1.391 . S
C256 C255 1.371 . S
C256 H263 0.930 . S
H257 C254 0.928 . S
H258 C255 0.931 . S
H259 C235 0.930 . S
H260 C232 0.930 . S
H261 C241 0.930 . S
H262 C253 0.929 . S
H263 C256 0.930 . S
C264 C265 1.351 . S
C264 N267 1.368 . S
C264 H269 0.931 . S
C265 C264 1.351 . S
C265 N266 1.373 . S
C265 H293 0.930 . S
N266 C265 1.373 . S
N266 C268 1.340 . S
N267 C264 1.368 . S
N267 C268 1.321 . S
N267 Co270 2.135 1_556 S
C268 N266 1.340 . S
C268 N267 1.321 . S
C268 H292 0.930 . S
H269 C264 0.931 . S
Co270 N267 2.135 1_554 S
Co270 N273 2.121 . S
Co270 O278 2.055 . S
Co270 O281 2.039 . S
Co270 N284 2.140 . S
C271 O272 1.227 . S
C271 O281 1.265 . S
O272 C271 1.227 . S
N273 Co270 2.121 . S
N273 C275 1.375 . S
N273 C276 1.313 . S
C274 C275 1.338 . S
C274 N277 1.377 . S
C274 H294 0.930 . S
C275 N273 1.375 . S
C275 C274 1.338 . S
C275 H279 0.931 . S
C276 N273 1.313 . S
C276 N277 1.344 . S
C276 H280 0.930 . S
N277 C274 1.377 . S
N277 C276 1.344 . S
O278 Co270 2.055 . S
O278 C282 1.253 . S
H279 C275 0.931 . S
H280 C276 0.930 . S
O281 Co270 2.039 . S
O281 C271 1.265 . S
C282 O278 1.253 . S
C282 O283 1.227 . S
O283 C282 1.227 . S
N284 Co270 2.140 . S
N284 C287 1.346 1_554 S
N284 C288 1.345 . S
C285 C286 1.387 1_554 S
C285 C289 1.391 . S
C286 C285 1.387 1_556 S
C286 C287 1.369 . S
C286 H295 0.929 . S
C287 N284 1.346 1_556 S
C287 C286 1.369 . S
C287 H290 0.928 . S
C288 N284 1.345 . S
C288 C289 1.371 . S
C288 H291 0.931 . S
C289 C285 1.391 . S
C289 C288 1.371 . S
C289 H296 0.930 . S
H290 C287 0.928 . S
H291 C288 0.931 . S
H292 C268 0.930 . S
H293 C265 0.930 . S
H294 C274 0.930 . S
H295 C286 0.929 . S
H296 C289 0.930 . S
C297 C298 1.351 1_554 S
C297 N300 1.368 . S
C297 H302 0.931 . S
C298 C297 1.351 1_556 S
C298 N299 1.373 . S
C298 H326 0.930 . S
N299 C298 1.373 . S
N299 C301 1.340 1_556 S
N300 C297 1.368 . S
N300 C301 1.321 . S
N300 Co303 2.135 . S
C301 N299 1.340 1_554 S
C301 N300 1.321 . S
C301 H325 0.930 . S
H302 C297 0.931 . S
Co303 N300 2.135 . S
Co303 N306 2.121 . S
Co303 O311 2.055 . S
Co303 O314 2.039 . S
Co303 N317 2.140 . S
C304 O305 1.227 . S
C304 O314 1.265 . S
O305 C304 1.227 . S
N306 Co303 2.121 . S
N306 C308 1.375 . S
N306 C309 1.313 . S
C307 C308 1.338 . S
C307 N310 1.377 . S
C307 H327 0.930 . S
C308 N306 1.375 . S
C308 C307 1.338 . S
C308 H312 0.931 . S
C309 N306 1.313 . S
C309 N310 1.344 . S
C309 H313 0.930 . S
N310 C307 1.377 . S
N310 C309 1.344 . S
O311 Co303 2.055 . S
O311 C315 1.253 . S
H312 C308 0.931 . S
H313 C309 0.930 . S
O314 Co303 2.039 . S
O314 C304 1.265 . S
C315 O311 1.253 . S
C315 O316 1.227 . S
O316 C315 1.227 . S
N317 Co303 2.140 . S
N317 C320 1.346 . S
N317 C321 1.345 . S
C318 C319 1.387 . S
C318 C322 1.391 . S
C319 C318 1.387 . S
C319 C320 1.369 . S
C319 H328 0.929 . S
C320 N317 1.346 . S
C320 C319 1.369 . S
C320 H323 0.928 . S
C321 N317 1.345 . S
C321 C322 1.371 . S
C321 H324 0.931 . S
C322 C318 1.391 . S
C322 C321 1.371 . S
C322 H329 0.930 . S
H323 C320 0.928 . S
H324 C321 0.931 . S
H325 C301 0.930 . S
H326 C298 0.930 . S
H327 C307 0.930 . S
H328 C319 0.929 . S
H329 C322 0.930 . S
C330 C331 1.351 . S
C330 N333 1.368 . S
C330 H335 0.931 . S
C331 C330 1.351 . S
C331 N332 1.373 . S
C331 H359 0.930 . S
N332 C331 1.373 . S
N332 C334 1.340 . S
N333 C330 1.368 . S
N333 C334 1.321 . S
N333 Co336 2.135 . S
C334 N332 1.340 . S
C334 N333 1.321 . S
C334 H358 0.930 . S
H335 C330 0.931 . S
Co336 N333 2.135 . S
Co336 N339 2.121 . S
Co336 O344 2.055 . S
Co336 O347 2.039 . S
Co336 N350 2.140 . S
C337 O338 1.227 . S
C337 O347 1.265 . S
O338 C337 1.227 . S
N339 Co336 2.121 . S
N339 C341 1.375 . S
N339 C342 1.313 . S
C340 C341 1.338 . S
C340 N343 1.377 . S
C340 H360 0.930 . S
C341 N339 1.375 . S
C341 C340 1.338 . S
C341 H345 0.931 . S
C342 N339 1.313 . S
C342 N343 1.344 . S
C342 H346 0.930 . S
N343 C340 1.377 . S
N343 C342 1.344 . S
O344 Co336 2.055 . S
O344 C348 1.253 . S
H345 C341 0.931 . S
H346 C342 0.930 . S
O347 Co336 2.039 . S
O347 C337 1.265 . S
C348 O344 1.253 . S
C348 O349 1.227 . S
O349 C348 1.227 . S
N350 Co336 2.140 . S
N350 C353 1.346 . S
N350 C354 1.345 . S
C351 C352 1.387 . S
C351 C355 1.391 . S
C352 C351 1.387 . S
C352 C353 1.369 . S
C352 H361 0.929 . S
C353 N350 1.346 . S
C353 C352 1.369 . S
C353 H356 0.928 . S
C354 N350 1.345 . S
C354 C355 1.371 . S
C354 H357 0.931 . S
C355 C351 1.391 . S
C355 C354 1.371 . S
C355 H362 0.930 . S
H356 C353 0.928 . S
H357 C354 0.931 . S
H358 C334 0.930 . S
H359 C331 0.930 . S
H360 C340 0.930 . S
H361 C352 0.929 . S
H362 C355 0.930 . S
C363 C364 1.351 . S
C363 N366 1.368 . S
C363 H368 0.931 . S
C364 C363 1.351 . S
C364 N365 1.373 . S
C364 H392 0.930 . S
N365 C364 1.373 . S
N365 C367 1.340 . S
N366 C363 1.368 . S
N366 C367 1.321 . S
N366 Co369 2.135 . S
C367 N365 1.340 . S
C367 N366 1.321 . S
C367 H391 0.930 . S
H368 C363 0.931 . S
Co369 N366 2.135 . S
Co369 N372 2.121 . S
Co369 O377 2.055 . S
Co369 O380 2.039 . S
Co369 N383 2.140 . S
C370 O371 1.227 . S
C370 O380 1.265 . S
O371 C370 1.227 . S
N372 Co369 2.121 . S
N372 C374 1.375 . S
N372 C375 1.313 . S
C373 C374 1.338 . S
C373 N376 1.377 . S
C373 H393 0.930 . S
C374 N372 1.375 . S
C374 C373 1.338 . S
C374 H378 0.931 . S
C375 N372 1.313 . S
C375 N376 1.344 . S
C375 H379 0.930 . S
N376 C373 1.377 . S
N376 C375 1.344 . S
O377 Co369 2.055 . S
O377 C381 1.253 . S
H378 C374 0.931 . S
H379 C375 0.930 . S
O380 Co369 2.039 . S
O380 C370 1.265 . S
C381 O377 1.253 . S
C381 O382 1.227 . S
O382 C381 1.227 . S
N383 Co369 2.140 . S
N383 C386 1.346 . S
N383 C387 1.345 . S
C384 C385 1.387 . S
C384 C388 1.391 . S
C385 C384 1.387 . S
C385 C386 1.369 . S
C385 H394 0.929 . S
C386 N383 1.346 . S
C386 C385 1.369 . S
C386 H389 0.928 . S
C387 N383 1.345 . S
C387 C388 1.371 . S
C387 H390 0.931 . S
C388 C384 1.391 . S
C388 C387 1.371 . S
C388 H395 0.930 . S
H389 C386 0.928 . S
H390 C387 0.931 . S
H391 C367 0.930 . S
H392 C364 0.930 . S
H393 C373 0.930 . S
H394 C385 0.929 . S
H395 C388 0.930 . S
H396 C408 0.930 1_556 S
H397 C410 0.930 . S
H398 C411 0.930 . S
H399 C415 0.959 1_554 S
H400 C415 0.959 . S
H401 C415 0.961 . S
H402 C416 0.960 . S
H403 C416 0.961 . S
H404 C416 0.959 . S
H405 C419 0.929 . S
H406 C420 0.931 . S
H407 C422 0.930 . S
C408 H396 0.930 1_554 S
C408 C409 1.399 . S
C408 C413 1.399 . S
C409 C408 1.399 . S
C409 C410 1.376 . S
C410 H397 0.930 . S
C410 C409 1.376 . S
C410 C411 1.388 . S
C411 H398 0.930 . S
C411 C410 1.388 . S
C411 C412 1.390 . S
C412 C411 1.390 . S
C412 C413 1.394 . S
C412 C418 1.465 . S
C413 C408 1.399 . S
C413 C412 1.394 . S
C413 C414 1.516 . S
C414 C413 1.516 . S
C414 C415 1.502 1_554 S
C414 C416 1.561 1_554 S
C414 C417 1.526 . S
C415 H399 0.959 1_556 S
C415 H400 0.959 . S
C415 H401 0.961 . S
C415 C414 1.502 1_556 S
C416 H402 0.960 . S
C416 H403 0.961 . S
C416 H404 0.959 . S
C416 C414 1.561 1_556 S
C417 C414 1.526 . S
C417 C418 1.396 . S
C417 C422 1.390 . S
C418 C412 1.465 . S
C418 C417 1.396 . S
C418 C419 1.399 . S
C419 H405 0.929 . S
C419 C418 1.399 . S
C419 C420 1.385 . S
C420 H406 0.931 . S
C420 C419 1.385 . S
C420 C421 1.389 . S
C421 C420 1.389 . S
C421 C422 1.387 . S
C422 H407 0.930 . S
C422 C417 1.390 . S
C422 C421 1.387 . S
H423 C435 0.930 . S
H424 C437 0.930 . S
H425 C438 0.930 . S
H426 C442 0.959 . S
H427 C442 0.959 . S
H428 C442 0.961 . S
H429 C443 0.960 . S
H430 C443 0.961 . S
H431 C443 0.959 . S
H432 C446 0.929 . S
H433 C447 0.931 . S
H434 C449 0.930 . S
C435 H423 0.930 . S
C435 C436 1.399 . S
C435 C440 1.399 . S
C436 C435 1.399 . S
C436 C437 1.376 . S
C437 H424 0.930 . S
C437 C436 1.376 . S
C437 C438 1.388 . S
C438 H425 0.930 . S
C438 C437 1.388 . S
C438 C439 1.390 . S
C439 C438 1.390 . S
C439 C440 1.394 . S
C439 C445 1.465 . S
C440 C435 1.399 . S
C440 C439 1.394 . S
C440 C441 1.516 . S
C441 C440 1.516 . S
C441 C442 1.502 . S
C441 C443 1.561 . S
C441 C444 1.526 . S
C442 H426 0.959 . S
C442 H427 0.959 . S
C442 H428 0.961 . S
C442 C441 1.502 . S
C443 H429 0.960 . S
C443 H430 0.961 . S
C443 H431 0.959 . S
C443 C441 1.561 . S
C444 C441 1.526 . S
C444 C445 1.396 . S
C444 C449 1.390 . S
C445 C439 1.465 . S
C445 C444 1.396 . S
C445 C446 1.399 . S
C446 H432 0.929 . S
C446 C445 1.399 . S
C446 C447 1.385 . S
C447 H433 0.931 . S
C447 C446 1.385 . S
C447 C448 1.389 . S
C448 C447 1.389 . S
C448 C449 1.387 . S
C449 H434 0.930 . S
C449 C444 1.390 . S
C449 C448 1.387 . S
H450 C462 0.930 . S
H451 C464 0.930 . S
H452 C465 0.930 . S
H453 C469 0.959 . S
H454 C469 0.959 . S
H455 C469 0.961 . S
H456 C470 0.960 . S
H457 C470 0.961 . S
H458 C470 0.959 . S
H459 C473 0.929 . S
H460 C474 0.931 . S
H461 C476 0.930 . S
C462 H450 0.930 . S
C462 C463 1.399 . S
C462 C467 1.399 . S
C463 C462 1.399 . S
C463 C464 1.376 . S
C464 H451 0.930 . S
C464 C463 1.376 . S
C464 C465 1.388 . S
C465 H452 0.930 . S
C465 C464 1.388 . S
C465 C466 1.390 . S
C466 C465 1.390 . S
C466 C467 1.394 . S
C466 C472 1.465 . S
C467 C462 1.399 . S
C467 C466 1.394 . S
C467 C468 1.516 . S
C468 C467 1.516 . S
C468 C469 1.502 . S
C468 C470 1.561 . S
C468 C471 1.526 . S
C469 H453 0.959 . S
C469 H454 0.959 . S
C469 H455 0.961 . S
C469 C468 1.502 . S
C470 H456 0.960 . S
C470 H457 0.961 . S
C470 H458 0.959 . S
C470 C468 1.561 . S
C471 C468 1.526 . S
C471 C472 1.396 . S
C471 C476 1.390 . S
C472 C466 1.465 . S
C472 C471 1.396 . S
C472 C473 1.399 . S
C473 H459 0.929 . S
C473 C472 1.399 . S
C473 C474 1.385 . S
C474 H460 0.931 . S
C474 C473 1.385 . S
C474 C475 1.389 . S
C475 C474 1.389 . S
C475 C476 1.387 . S
C476 H461 0.930 . S
C476 C471 1.390 . S
C476 C475 1.387 . S
H477 C489 0.930 . S
H478 C491 0.930 . S
H479 C492 0.930 . S
H480 C496 0.959 . S
H481 C496 0.959 . S
H482 C496 0.961 . S
H483 C497 0.960 . S
H484 C497 0.961 . S
H485 C497 0.959 . S
H486 C500 0.929 . S
H487 C501 0.931 . S
H488 C503 0.930 . S
C489 H477 0.930 . S
C489 C490 1.399 . S
C489 C494 1.399 . S
C490 C489 1.399 . S
C490 C491 1.376 . S
C491 H478 0.930 . S
C491 C490 1.376 . S
C491 C492 1.388 . S
C492 H479 0.930 . S
C492 C491 1.388 . S
C492 C493 1.390 . S
C493 C492 1.390 . S
C493 C494 1.394 . S
C493 C499 1.465 . S
C494 C489 1.399 . S
C494 C493 1.394 . S
C494 C495 1.516 . S
C495 C494 1.516 . S
C495 C496 1.502 . S
C495 C497 1.561 . S
C495 C498 1.526 . S
C496 H480 0.959 . S
C496 H481 0.959 . S
C496 H482 0.961 . S
C496 C495 1.502 . S
C497 H483 0.960 . S
C497 H484 0.961 . S
C497 H485 0.959 . S
C497 C495 1.561 . S
C498 C495 1.526 . S
C498 C499 1.396 . S
C498 C503 1.390 . S
C499 C493 1.465 . S
C499 C498 1.396 . S
C499 C500 1.399 . S
C500 H486 0.929 . S
C500 C499 1.399 . S
C500 C501 1.385 . S
C501 H487 0.931 . S
C501 C500 1.385 . S
C501 C502 1.389 . S
C502 C501 1.389 . S
C502 C503 1.387 . S
C503 H488 0.930 . S
C503 C498 1.390 . S
C503 C502 1.387 . S
H504 C516 0.930 . S
H505 C518 0.930 . S
H506 C519 0.930 . S
H507 C523 0.959 . S
H508 C523 0.959 . S
H509 C523 0.961 . S
H510 C524 0.960 . S
H511 C524 0.961 . S
H512 C524 0.959 . S
H513 C527 0.929 . S
H514 C528 0.931 . S
H515 C530 0.930 . S
C516 H504 0.930 . S
C516 C517 1.399 . S
C516 C521 1.399 . S
C517 C516 1.399 . S
C517 C518 1.376 . S
C518 H505 0.930 . S
C518 C517 1.376 . S
C518 C519 1.388 . S
C519 H506 0.930 . S
C519 C518 1.388 . S
C519 C520 1.390 . S
C520 C519 1.390 . S
C520 C521 1.394 . S
C520 C526 1.465 . S
C521 C516 1.399 . S
C521 C520 1.394 . S
C521 C522 1.516 . S
C522 C521 1.516 . S
C522 C523 1.502 . S
C522 C524 1.561 . S
C522 C525 1.526 . S
C523 H507 0.959 . S
C523 H508 0.959 . S
C523 H509 0.961 . S
C523 C522 1.502 . S
C524 H510 0.960 . S
C524 H511 0.961 . S
C524 H512 0.959 . S
C524 C522 1.561 . S
C525 C522 1.526 . S
C525 C526 1.396 . S
C525 C530 1.390 . S
C526 C520 1.465 . S
C526 C525 1.396 . S
C526 C527 1.399 . S
C527 H513 0.929 . S
C527 C526 1.399 . S
C527 C528 1.385 . S
C528 H514 0.931 . S
C528 C527 1.385 . S
C528 C529 1.389 . S
C529 C528 1.389 . S
C529 C530 1.387 . S
C530 H515 0.930 . S
C530 C525 1.390 . S
C530 C529 1.387 . S
H531 C543 0.930 . S
H532 C545 0.930 . S
H533 C546 0.930 . S
H534 C550 0.959 . S
H535 C550 0.959 . S
H536 C550 0.961 . S
H537 C551 0.960 . S
H538 C551 0.961 . S
H539 C551 0.959 . S
H540 C554 0.929 1_554 S
H541 C555 0.931 1_554 S
H542 C557 0.930 . S
C543 H531 0.930 . S
C543 C544 1.399 . S
C543 C548 1.399 . S
C544 C543 1.399 . S
C544 C545 1.376 . S
C545 H532 0.930 . S
C545 C544 1.376 . S
C545 C546 1.388 . S
C546 H533 0.930 . S
C546 C545 1.388 . S
C546 C547 1.390 . S
C547 C546 1.390 . S
C547 C548 1.394 . S
C547 C553 1.465 . S
C548 C543 1.399 . S
C548 C547 1.394 . S
C548 C549 1.516 . S
C549 C548 1.516 . S
C549 C550 1.502 . S
C549 C551 1.561 . S
C549 C552 1.526 . S
C550 H534 0.959 . S
C550 H535 0.959 . S
C550 H536 0.961 . S
C550 C549 1.502 . S
C551 H537 0.960 . S
C551 H538 0.961 . S
C551 H539 0.959 . S
C551 C549 1.561 . S
C552 C549 1.526 . S
C552 C553 1.396 . S
C552 C557 1.390 . S
C553 C547 1.465 . S
C553 C552 1.396 . S
C553 C554 1.399 . S
C554 H540 0.929 1_556 S
C554 C553 1.399 . S
C554 C555 1.385 . S
C555 H541 0.931 1_556 S
C555 C554 1.385 . S
C555 C556 1.389 . S
C556 C555 1.389 . S
C556 C557 1.387 . S
C557 H542 0.930 . S
C557 C552 1.390 . S
C557 C556 1.387 . S
H558 C570 0.930 . S
H559 C572 0.930 . S
H560 C573 0.930 . S
H561 C577 0.959 . S
H562 C577 0.959 . S
H563 C577 0.961 . S
H564 C578 0.960 . S
H565 C578 0.961 . S
H566 C578 0.959 . S
H567 C581 0.929 . S
H568 C582 0.931 . S
H569 C584 0.930 . S
C570 H558 0.930 . S
C570 C571 1.399 . S
C570 C575 1.399 . S
C571 C570 1.399 . S
C571 C572 1.376 . S
C572 H559 0.930 . S
C572 C571 1.376 . S
C572 C573 1.388 . S
C573 H560 0.930 . S
C573 C572 1.388 . S
C573 C574 1.390 . S
C574 C573 1.390 . S
C574 C575 1.394 . S
C574 C580 1.465 . S
C575 C570 1.399 . S
C575 C574 1.394 . S
C575 C576 1.516 . S
C576 C575 1.516 . S
C576 C577 1.502 . S
C576 C578 1.561 . S
C576 C579 1.526 . S
C577 H561 0.959 . S
C577 H562 0.959 . S
C577 H563 0.961 . S
C577 C576 1.502 . S
C578 H564 0.960 . S
C578 H565 0.961 . S
C578 H566 0.959 . S
C578 C576 1.561 . S
C579 C576 1.526 . S
C579 C580 1.396 . S
C579 C584 1.390 . S
C580 C574 1.465 . S
C580 C579 1.396 . S
C580 C581 1.399 . S
C581 H567 0.929 . S
C581 C580 1.399 . S
C581 C582 1.385 . S
C582 H568 0.931 . S
C582 C581 1.385 . S
C582 C583 1.389 . S
C583 C582 1.389 . S
C583 C584 1.387 . S
C584 H569 0.930 . S
C584 C579 1.390 . S
C584 C583 1.387 . S
H585 C597 0.930 . S
H586 C599 0.930 . S
H587 C600 0.930 . S
H588 C604 0.959 . S
H589 C604 0.959 . S
H590 C604 0.961 . S
H591 C605 0.960 . S
H592 C605 0.961 . S
H593 C605 0.959 . S
H594 C608 0.929 . S
H595 C609 0.931 . S
H596 C611 0.930 . S
C597 H585 0.930 . S
C597 C598 1.399 . S
C597 C602 1.399 . S
C598 C597 1.399 . S
C598 C599 1.376 . S
C599 H586 0.930 . S
C599 C598 1.376 . S
C599 C600 1.388 . S
C600 H587 0.930 . S
C600 C599 1.388 . S
C600 C601 1.390 . S
C601 C600 1.390 . S
C601 C602 1.394 . S
C601 C607 1.465 . S
C602 C597 1.399 . S
C602 C601 1.394 . S
C602 C603 1.516 . S
C603 C602 1.516 . S
C603 C604 1.502 . S
C603 C605 1.561 . S
C603 C606 1.526 . S
C604 H588 0.959 . S
C604 H589 0.959 . S
C604 H590 0.961 . S
C604 C603 1.502 . S
C605 H591 0.960 . S
C605 H592 0.961 . S
C605 H593 0.959 . S
C605 C603 1.561 . S
C606 C603 1.526 . S
C606 C607 1.396 . S
C606 C611 1.390 . S
C607 C601 1.465 . S
C607 C606 1.396 . S
C607 C608 1.399 . S
C608 H594 0.929 . S
C608 C607 1.399 . S
C608 C609 1.385 . S
C609 H595 0.931 . S
C609 C608 1.385 . S
C609 C610 1.389 . S
C610 C609 1.389 . S
C610 C611 1.387 . S
C611 H596 0.930 . S
C611 C606 1.390 . S
C611 C610 1.387 . S
H612 C624 0.930 . S
H613 C626 0.930 . S
H614 C627 0.930 . S
H615 C631 0.959 . S
H616 C631 0.959 . S
H617 C631 0.961 . S
H618 C632 0.960 . S
H619 C632 0.961 . S
H620 C632 0.959 . S
H621 C635 0.929 . S
H622 C636 0.931 . S
H623 C638 0.930 . S
C624 H612 0.930 . S
C624 C625 1.399 . S
C624 C629 1.399 . S
C625 C624 1.399 . S
C625 C626 1.376 . S
C626 H613 0.930 . S
C626 C625 1.376 . S
C626 C627 1.388 . S
C627 H614 0.930 . S
C627 C626 1.388 . S
C627 C628 1.390 . S
C628 C627 1.390 . S
C628 C629 1.394 . S
C628 C634 1.465 . S
C629 C624 1.399 . S
C629 C628 1.394 . S
C629 C630 1.516 . S
C630 C629 1.516 . S
C630 C631 1.502 . S
C630 C632 1.561 . S
C630 C633 1.526 1_556 S
C631 H615 0.959 . S
C631 H616 0.959 . S
C631 H617 0.961 . S
C631 C630 1.502 . S
C632 H618 0.960 . S
C632 H619 0.961 . S
C632 H620 0.959 . S
C632 C630 1.561 . S
C633 C630 1.526 1_554 S
C633 C634 1.396 1_554 S
C633 C638 1.390 . S
C634 C628 1.465 . S
C634 C633 1.396 1_556 S
C634 C635 1.399 1_556 S
C635 H621 0.929 . S
C635 C634 1.399 1_554 S
C635 C636 1.385 . S
C636 H622 0.931 . S
C636 C635 1.385 . S
C636 C637 1.389 . S
C637 C636 1.389 . S
C637 C638 1.387 . S
C638 H623 0.930 . S
C638 C633 1.390 . S
C638 C637 1.387 . S
H639 C651 0.930 . S
H640 C653 0.930 . S
H641 C654 0.930 . S
H642 C658 0.959 . S
H643 C658 0.959 . S
H644 C658 0.961 . S
H645 C659 0.960 . S
H646 C659 0.961 . S
H647 C659 0.959 . S
H648 C662 0.929 . S
H649 C663 0.931 . S
H650 C665 0.930 . S
C651 H639 0.930 . S
C651 C652 1.399 . S
C651 C656 1.399 1_556 S
C652 C651 1.399 . S
C652 C653 1.376 . S
C653 H640 0.930 . S
C653 C652 1.376 . S
C653 C654 1.388 1_556 S
C654 H641 0.930 . S
C654 C653 1.388 1_554 S
C654 C655 1.390 . S
C655 C654 1.390 . S
C655 C656 1.394 . S
C655 C661 1.465 . S
C656 C651 1.399 1_554 S
C656 C655 1.394 . S
C656 C657 1.516 . S
C657 C656 1.516 . S
C657 C658 1.502 . S
C657 C659 1.561 . S
C657 C660 1.526 . S
C658 H642 0.959 . S
C658 H643 0.959 . S
C658 H644 0.961 . S
C658 C657 1.502 . S
C659 H645 0.960 . S
C659 H646 0.961 . S
C659 H647 0.959 . S
C659 C657 1.561 . S
C660 C657 1.526 . S
C660 C661 1.396 . S
C660 C665 1.390 . S
C661 C655 1.465 . S
C661 C660 1.396 . S
C661 C662 1.399 . S
C662 H648 0.929 . S
C662 C661 1.399 . S
C662 C663 1.385 . S
C663 H649 0.931 . S
C663 C662 1.385 . S
C663 C664 1.389 . S
C664 C663 1.389 . S
C664 C665 1.387 . S
C665 H650 0.930 . S
C665 C660 1.390 . S
C665 C664 1.387 . S
H666 C678 0.930 . S
H667 C680 0.930 . S
H668 C681 0.930 . S
H669 C685 0.959 . S
H670 C685 0.959 . S
H671 C685 0.961 . S
H672 C686 0.960 . S
H673 C686 0.961 . S
H674 C686 0.959 . S
H675 C689 0.929 . S
H676 C690 0.931 . S
H677 C692 0.930 . S
C678 H666 0.930 . S
C678 C679 1.399 . S
C678 C683 1.399 . S
C679 C678 1.399 . S
C679 C680 1.376 . S
C680 H667 0.930 . S
C680 C679 1.376 . S
C680 C681 1.388 . S
C681 H668 0.930 . S
C681 C680 1.388 . S
C681 C682 1.390 . S
C682 C681 1.390 . S
C682 C683 1.394 . S
C682 C688 1.465 . S
C683 C678 1.399 . S
C683 C682 1.394 . S
C683 C684 1.516 . S
C684 C683 1.516 . S
C684 C685 1.502 . S
C684 C686 1.561 . S
C684 C687 1.526 . S
C685 H669 0.959 . S
C685 H670 0.959 . S
C685 H671 0.961 . S
C685 C684 1.502 . S
C686 H672 0.960 . S
C686 H673 0.961 . S
C686 H674 0.959 . S
C686 C684 1.561 . S
C687 C684 1.526 . S
C687 C688 1.396 . S
C687 C692 1.390 . S
C688 C682 1.465 . S
C688 C687 1.396 . S
C688 C689 1.399 . S
C689 H675 0.929 . S
C689 C688 1.399 . S
C689 C690 1.385 . S
C690 H676 0.931 . S
C690 C689 1.385 . S
C690 C691 1.389 . S
C691 C690 1.389 . S
C691 C692 1.387 . S
C692 H677 0.930 . S
C692 C687 1.390 . S
C692 C691 1.387 . S
H693 C705 0.930 . S
H694 C707 0.930 . S
H695 C708 0.930 . S
H696 C712 0.959 . S
H697 C712 0.959 . S
H698 C712 0.961 . S
H699 C713 0.960 . S
H700 C713 0.961 . S
H701 C713 0.959 . S
H702 C716 0.929 . S
H703 C717 0.931 . S
H704 C719 0.930 . S
C705 H693 0.930 . S
C705 C706 1.399 . S
C705 C710 1.399 . S
C706 C705 1.399 . S
C706 C707 1.376 . S
C707 H694 0.930 . S
C707 C706 1.376 . S
C707 C708 1.388 . S
C708 H695 0.930 . S
C708 C707 1.388 . S
C708 C709 1.390 . S
C709 C708 1.390 . S
C709 C710 1.394 . S
C709 C715 1.465 . S
C710 C705 1.399 . S
C710 C709 1.394 . S
C710 C711 1.516 . S
C711 C710 1.516 . S
C711 C712 1.502 . S
C711 C713 1.561 . S
C711 C714 1.526 . S
C712 H696 0.959 . S
C712 H697 0.959 . S
C712 H698 0.961 . S
C712 C711 1.502 . S
C713 H699 0.960 . S
C713 H700 0.961 . S
C713 H701 0.959 . S
C713 C711 1.561 . S
C714 C711 1.526 . S
C714 C715 1.396 . S
C714 C719 1.390 . S
C715 C709 1.465 . S
C715 C714 1.396 . S
C715 C716 1.399 . S
C716 H702 0.929 . S
C716 C715 1.399 . S
C716 C717 1.385 . S
C717 H703 0.931 . S
C717 C716 1.385 . S
C717 C718 1.389 . S
C718 C717 1.389 . S
C718 C719 1.387 . S
C719 H704 0.930 . S
C719 C714 1.390 . S
C719 C718 1.387 . S
H720 C732 0.930 . S
H721 C734 0.930 . S
H722 C735 0.930 . S
H723 C739 0.959 . S
H724 C739 0.959 . S
H725 C739 0.961 . S
H726 C740 0.960 . S
H727 C740 0.961 . S
H728 C740 0.959 . S
H729 C743 0.929 . S
H730 C744 0.931 . S
H731 C746 0.930 . S
C732 H720 0.930 . S
C732 C733 1.399 . S
C732 C737 1.399 . S
C733 C732 1.399 . S
C733 C734 1.376 . S
C734 H721 0.930 . S
C734 C733 1.376 . S
C734 C735 1.388 . S
C735 H722 0.930 . S
C735 C734 1.388 . S
C735 C736 1.390 . S
C736 C735 1.390 . S
C736 C737 1.394 . S
C736 C742 1.465 . S
C737 C732 1.399 . S
C737 C736 1.394 . S
C737 C738 1.516 . S
C738 C737 1.516 . S
C738 C739 1.502 . S
C738 C740 1.561 . S
C738 C741 1.526 . S
C739 H723 0.959 . S
C739 H724 0.959 . S
C739 H725 0.961 . S
C739 C738 1.502 . S
C740 H726 0.960 . S
C740 H727 0.961 . S
C740 H728 0.959 . S
C740 C738 1.561 . S
C741 C738 1.526 . S
C741 C742 1.396 . S
C741 C746 1.390 . S
C742 C736 1.465 . S
C742 C741 1.396 . S
C742 C743 1.399 . S
C743 H729 0.929 . S
C743 C742 1.399 . S
C743 C744 1.385 . S
C744 H730 0.931 . S
C744 C743 1.385 . S
C744 C745 1.389 . S
C745 C744 1.389 . S
C745 C746 1.387 . S
C746 H731 0.930 . S
C746 C741 1.390 . S
C746 C745 1.387 . S
H747 C759 0.930 . S
H748 C761 0.930 . S
H749 C762 0.930 . S
H750 C766 0.959 . S
H751 C766 0.959 . S
H752 C766 0.961 . S
H753 C767 0.960 . S
H754 C767 0.961 . S
H755 C767 0.959 . S
H756 C770 0.929 . S
H757 C771 0.931 . S
H758 C773 0.930 . S
C759 H747 0.930 . S
C759 C760 1.399 . S
C759 C764 1.399 . S
C760 C759 1.399 . S
C760 C761 1.376 . S
C761 H748 0.930 . S
C761 C760 1.376 . S
C761 C762 1.388 . S
C762 H749 0.930 . S
C762 C761 1.388 . S
C762 C763 1.390 . S
C763 C762 1.390 . S
C763 C764 1.394 . S
C763 C769 1.465 . S
C764 C759 1.399 . S
C764 C763 1.394 . S
C764 C765 1.516 . S
C765 C764 1.516 . S
C765 C766 1.502 . S
C765 C767 1.561 . S
C765 C768 1.526 . S
C766 H750 0.959 . S
C766 H751 0.959 . S
C766 H752 0.961 . S
C766 C765 1.502 . S
C767 H753 0.960 . S
C767 H754 0.961 . S
C767 H755 0.959 . S
C767 C765 1.561 . S
C768 C765 1.526 . S
C768 C769 1.396 . S
C768 C773 1.390 . S
C769 C763 1.465 . S
C769 C768 1.396 . S
C769 C770 1.399 . S
C770 H756 0.929 . S
C770 C769 1.399 . S
C770 C771 1.385 . S
C771 H757 0.931 . S
C771 C770 1.385 . S
C771 C772 1.389 . S
C772 C771 1.389 . S
C772 C773 1.387 . S
C773 H758 0.930 . S
C773 C768 1.390 . S
C773 C772 1.387 . S
H774 C786 0.930 . S
H775 C788 0.930 . S
H776 C789 0.930 . S
H777 C793 0.959 . S
H778 C793 0.959 . S
H779 C793 0.961 . S
H780 C794 0.960 . S
H781 C794 0.961 . S
H782 C794 0.959 . S
H783 C797 0.929 . S
H784 C798 0.931 . S
H785 C800 0.930 . S
C786 H774 0.930 . S
C786 C787 1.399 . S
C786 C791 1.399 . S
C787 C786 1.399 . S
C787 C788 1.376 . S
C788 H775 0.930 . S
C788 C787 1.376 . S
C788 C789 1.388 . S
C789 H776 0.930 . S
C789 C788 1.388 . S
C789 C790 1.390 . S
C790 C789 1.390 . S
C790 C791 1.394 . S
C790 C796 1.465 . S
C791 C786 1.399 . S
C791 C790 1.394 . S
C791 C792 1.516 . S
C792 C791 1.516 . S
C792 C793 1.502 . S
C792 C794 1.561 . S
C792 C795 1.526 . S
C793 H777 0.959 . S
C793 H778 0.959 . S
C793 H779 0.961 . S
C793 C792 1.502 . S
C794 H780 0.960 . S
C794 H781 0.961 . S
C794 H782 0.959 . S
C794 C792 1.561 . S
C795 C792 1.526 . S
C795 C796 1.396 . S
C795 C800 1.390 . S
C796 C790 1.465 . S
C796 C795 1.396 . S
C796 C797 1.399 . S
C797 H783 0.929 . S
C797 C796 1.399 . S
C797 C798 1.385 . S
C798 H784 0.931 . S
C798 C797 1.385 . S
C798 C799 1.389 . S
C799 C798 1.389 . S
C799 C800 1.387 . S
C800 H785 0.930 . S
C800 C795 1.390 . S
C800 C799 1.387 . S
H801 C813 0.930 . S
H802 C815 0.930 . S
H803 C816 0.930 . S
H804 C820 0.959 . S
H805 C820 0.959 . S
H806 C820 0.961 . S
H807 C821 0.960 . S
H808 C821 0.961 . S
H809 C821 0.959 . S
H810 C824 0.929 . S
H811 C825 0.931 . S
H812 C827 0.930 . S
C813 H801 0.930 . S
C813 C814 1.399 . S
C813 C818 1.399 . S
C814 C813 1.399 . S
C814 C815 1.376 . S
C815 H802 0.930 . S
C815 C814 1.376 . S
C815 C816 1.388 . S
C816 H803 0.930 . S
C816 C815 1.388 . S
C816 C817 1.390 . S
C817 C816 1.390 . S
C817 C818 1.394 . S
C817 C823 1.465 . S
C818 C813 1.399 . S
C818 C817 1.394 . S
C818 C819 1.516 . S
C819 C818 1.516 . S
C819 C820 1.502 . S
C819 C821 1.561 . S
C819 C822 1.526 . S
C820 H804 0.959 . S
C820 H805 0.959 . S
C820 H806 0.961 . S
C820 C819 1.502 . S
C821 H807 0.960 . S
C821 H808 0.961 . S
C821 H809 0.959 . S
C821 C819 1.561 . S
C822 C819 1.526 . S
C822 C823 1.396 . S
C822 C827 1.390 . S
C823 C817 1.465 . S
C823 C822 1.396 . S
C823 C824 1.399 . S
C824 H810 0.929 . S
C824 C823 1.399 . S
C824 C825 1.385 . S
C825 H811 0.931 . S
C825 C824 1.385 . S
C825 C826 1.389 . S
C826 C825 1.389 . S
C826 C827 1.387 . S
C827 H812 0.930 . S
C827 C822 1.390 . S
C827 C826 1.387 . S
H828 C840 0.930 . S
H829 C842 0.930 . S
H830 C843 0.930 . S
H831 C847 0.959 . S
H832 C847 0.959 . S
H833 C847 0.961 . S
H834 C848 0.960 . S
H835 C848 0.961 . S
H836 C848 0.959 . S
H837 C851 0.929 . S
H838 C852 0.931 . S
H839 C854 0.930 . S
C840 H828 0.930 . S
C840 C841 1.399 . S
C840 C845 1.399 . S
C841 C840 1.399 . S
C841 C842 1.376 . S
C842 H829 0.930 . S
C842 C841 1.376 . S
C842 C843 1.388 . S
C843 H830 0.930 . S
C843 C842 1.388 . S
C843 C844 1.390 . S
C844 C843 1.390 . S
C844 C845 1.394 . S
C844 C850 1.465 . S
C845 C840 1.399 . S
C845 C844 1.394 . S
C845 C846 1.516 . S
C846 C845 1.516 . S
C846 C847 1.502 . S
C846 C848 1.561 . S
C846 C849 1.526 . S
C847 H831 0.959 . S
C847 H832 0.959 . S
C847 H833 0.961 . S
C847 C846 1.502 . S
C848 H834 0.960 . S
C848 H835 0.961 . S
C848 H836 0.959 . S
C848 C846 1.561 . S
C849 C846 1.526 . S
C849 C850 1.396 . S
C849 C854 1.390 1_556 S
C850 C844 1.465 . S
C850 C849 1.396 . S
C850 C851 1.399 . S
C851 H837 0.929 . S
C851 C850 1.399 . S
C851 C852 1.385 1_556 S
C852 H838 0.931 . S
C852 C851 1.385 1_554 S
C852 C853 1.389 . S
C853 C852 1.389 . S
C853 C854 1.387 . S
C854 H839 0.930 . S
C854 C849 1.390 1_554 S
C854 C853 1.387 . S
H855 C867 0.930 . S
H856 C869 0.930 . S
H857 C870 0.930 . S
H858 C874 0.959 . S
H859 C874 0.959 1_556 S
H860 C874 0.961 . S
H861 C875 0.960 . S
H862 C875 0.961 1_556 S
H863 C875 0.959 . S
H864 C878 0.929 1_554 S
H865 C879 0.931 . S
H866 C881 0.930 . S
C867 H855 0.930 . S
C867 C868 1.399 . S
C867 C872 1.399 . S
C868 C867 1.399 . S
C868 C869 1.376 . S
C869 H856 0.930 . S
C869 C868 1.376 . S
C869 C870 1.388 . S
C870 H857 0.930 . S
C870 C869 1.388 . S
C870 C871 1.390 . S
C871 C870 1.390 . S
C871 C872 1.394 . S
C871 C877 1.465 . S
C872 C867 1.399 . S
C872 C871 1.394 . S
C872 C873 1.516 . S
C873 C872 1.516 . S
C873 C874 1.502 . S
C873 C875 1.561 . S
C873 C876 1.526 1_554 S
C874 H858 0.959 . S
C874 H859 0.959 1_554 S
C874 H860 0.961 . S
C874 C873 1.502 . S
C875 H861 0.960 . S
C875 H862 0.961 1_554 S
C875 H863 0.959 . S
C875 C873 1.561 . S
C876 C873 1.526 1_556 S
C876 C877 1.396 1_556 S
C876 C881 1.390 . S
C877 C871 1.465 . S
C877 C876 1.396 1_554 S
C877 C878 1.399 1_554 S
C878 H864 0.929 1_556 S
C878 C877 1.399 1_556 S
C878 C879 1.385 . S
C879 H865 0.931 . S
C879 C878 1.385 . S
C879 C880 1.389 . S
C880 C879 1.389 . S
C880 C881 1.387 . S
C881 H866 0.930 . S
C881 C876 1.390 . S
C881 C880 1.387 . S
H882 C894 0.930 . S
H883 C896 0.930 . S
H884 C897 0.930 . S
H885 C901 0.959 . S
H886 C901 0.959 . S
H887 C901 0.961 . S
H888 C902 0.960 . S
H889 C902 0.961 . S
H890 C902 0.959 . S
H891 C905 0.929 . S
H892 C906 0.931 . S
H893 C908 0.930 . S
C894 H882 0.930 . S
C894 C895 1.399 . S
C894 C899 1.399 . S
C895 C894 1.399 . S
C895 C896 1.376 . S
C896 H883 0.930 . S
C896 C895 1.376 . S
C896 C897 1.388 . S
C897 H884 0.930 . S
C897 C896 1.388 . S
C897 C898 1.390 . S
C898 C897 1.390 . S
C898 C899 1.394 . S
C898 C904 1.465 . S
C899 C894 1.399 . S
C899 C898 1.394 . S
C899 C900 1.516 . S
C900 C899 1.516 . S
C900 C901 1.502 . S
C900 C902 1.561 . S
C900 C903 1.526 . S
C901 H885 0.959 . S
C901 H886 0.959 . S
C901 H887 0.961 . S
C901 C900 1.502 . S
C902 H888 0.960 . S
C902 H889 0.961 . S
C902 H890 0.959 . S
C902 C900 1.561 . S
C903 C900 1.526 . S
C903 C904 1.396 . S
C903 C908 1.390 . S
C904 C898 1.465 . S
C904 C903 1.396 . S
C904 C905 1.399 . S
C905 H891 0.929 . S
C905 C904 1.399 . S
C905 C906 1.385 . S
C906 H892 0.931 . S
C906 C905 1.385 . S
C906 C907 1.389 . S
C907 C906 1.389 . S
C907 C908 1.387 . S
C908 H893 0.930 . S
C908 C903 1.390 . S
C908 C907 1.387 . S
H909 C921 0.930 . S
H910 C923 0.930 . S
H911 C924 0.930 . S
H912 C928 0.959 . S
H913 C928 0.959 . S
H914 C928 0.961 . S
H915 C929 0.960 . S
H916 C929 0.961 . S
H917 C929 0.959 . S
H918 C932 0.929 . S
H919 C933 0.931 . S
H920 C935 0.930 . S
C921 H909 0.930 . S
C921 C922 1.399 . S
C921 C926 1.399 . S
C922 C921 1.399 . S
C922 C923 1.376 . S
C923 H910 0.930 . S
C923 C922 1.376 . S
C923 C924 1.388 . S
C924 H911 0.930 . S
C924 C923 1.388 . S
C924 C925 1.390 . S
C925 C924 1.390 . S
C925 C926 1.394 . S
C925 C931 1.465 . S
C926 C921 1.399 . S
C926 C925 1.394 . S
C926 C927 1.516 . S
C927 C926 1.516 . S
C927 C928 1.502 . S
C927 C929 1.561 . S
C927 C930 1.526 . S
C928 H912 0.959 . S
C928 H913 0.959 . S
C928 H914 0.961 . S
C928 C927 1.502 . S
C929 H915 0.960 . S
C929 H916 0.961 . S
C929 H917 0.959 . S
C929 C927 1.561 . S
C930 C927 1.526 . S
C930 C931 1.396 . S
C930 C935 1.390 . S
C931 C925 1.465 . S
C931 C930 1.396 . S
C931 C932 1.399 . S
C932 H918 0.929 . S
C932 C931 1.399 . S
C932 C933 1.385 . S
C933 H919 0.931 . S
C933 C932 1.385 . S
C933 C934 1.389 . S
C934 C933 1.389 . S
C934 C935 1.387 . S
C935 H920 0.930 . S
C935 C930 1.390 . S
C935 C934 1.387 . S
H936 C948 0.930 . S
H937 C950 0.930 . S
H938 C951 0.930 . S
H939 C955 0.959 . S
H940 C955 0.959 . S
H941 C955 0.961 . S
H942 C956 0.960 . S
H943 C956 0.961 . S
H944 C956 0.959 . S
H945 C959 0.929 . S
H946 C960 0.931 . S
H947 C962 0.930 . S
C948 H936 0.930 . S
C948 C949 1.399 . S
C948 C953 1.399 . S
C949 C948 1.399 . S
C949 C950 1.376 . S
C950 H937 0.930 . S
C950 C949 1.376 . S
C950 C951 1.388 . S
C951 H938 0.930 . S
C951 C950 1.388 . S
C951 C952 1.390 . S
C952 C951 1.390 . S
C952 C953 1.394 . S
C952 C958 1.465 . S
C953 C948 1.399 . S
C953 C952 1.394 . S
C953 C954 1.516 . S
C954 C953 1.516 . S
C954 C955 1.502 . S
C954 C956 1.561 . S
C954 C957 1.526 . S
C955 H939 0.959 . S
C955 H940 0.959 . S
C955 H941 0.961 . S
C955 C954 1.502 . S
C956 H942 0.960 . S
C956 H943 0.961 . S
C956 H944 0.959 . S
C956 C954 1.561 . S
C957 C954 1.526 . S
C957 C958 1.396 . S
C957 C962 1.390 . S
C958 C952 1.465 . S
C958 C957 1.396 . S
C958 C959 1.399 . S
C959 H945 0.929 . S
C959 C958 1.399 . S
C959 C960 1.385 . S
C960 H946 0.931 . S
C960 C959 1.385 . S
C960 C961 1.389 . S
C961 C960 1.389 . S
C961 C962 1.387 . S
C962 H947 0.930 . S
C962 C957 1.390 . S
C962 C961 1.387 . S
H963 C975 0.930 . S
H964 C977 0.930 . S
H965 C978 0.930 . S
H966 C982 0.959 . S
H967 C982 0.959 . S
H968 C982 0.961 . S
H969 C983 0.960 . S
H970 C983 0.961 . S
H971 C983 0.959 . S
H972 C986 0.929 . S
H973 C987 0.931 . S
H974 C989 0.930 . S
C975 H963 0.930 . S
C975 C976 1.399 . S
C975 C980 1.399 . S
C976 C975 1.399 . S
C976 C977 1.376 . S
C977 H964 0.930 . S
C977 C976 1.376 . S
C977 C978 1.388 . S
C978 H965 0.930 . S
C978 C977 1.388 . S
C978 C979 1.390 . S
C979 C978 1.390 . S
C979 C980 1.394 . S
C979 C985 1.465 . S
C980 C975 1.399 . S
C980 C979 1.394 . S
C980 C981 1.516 . S
C981 C980 1.516 . S
C981 C982 1.502 . S
C981 C983 1.561 . S
C981 C984 1.526 . S
C982 H966 0.959 . S
C982 H967 0.959 . S
C982 H968 0.961 . S
C982 C981 1.502 . S
C983 H969 0.960 . S
C983 H970 0.961 . S
C983 H971 0.959 . S
C983 C981 1.561 . S
C984 C981 1.526 . S
C984 C985 1.396 . S
C984 C989 1.390 . S
C985 C979 1.465 . S
C985 C984 1.396 . S
C985 C986 1.399 . S
C986 H972 0.929 . S
C986 C985 1.399 . S
C986 C987 1.385 . S
C987 H973 0.931 . S
C987 C986 1.385 . S
C987 C988 1.389 . S
C988 C987 1.389 . S
C988 C989 1.387 . S
C989 H974 0.930 . S
C989 C984 1.390 . S
C989 C988 1.387 . S
H990 C1002 0.930 . S
H991 C1004 0.930 . S
H992 C1005 0.930 . S
H993 C1009 0.959 . S
H994 C1009 0.959 . S
H995 C1009 0.961 1_554 S
H996 C1010 0.960 . S
H997 C1010 0.961 . S
H998 C1010 0.959 . S
H999 C1013 0.929 . S
H1000 C1014 0.931 . S
H1001 C1016 0.930 . S
C1002 H990 0.930 . S
C1002 C1003 1.399 1_554 S
C1002 C1007 1.399 1_554 S
C1003 C1002 1.399 1_556 S
C1003 C1004 1.376 . S
C1004 H991 0.930 . S
C1004 C1003 1.376 . S
C1004 C1005 1.388 . S
C1005 H992 0.930 . S
C1005 C1004 1.388 . S
C1005 C1006 1.390 . S
C1006 C1005 1.390 . S
C1006 C1007 1.394 . S
C1006 C1012 1.465 . S
C1007 C1002 1.399 1_556 S
C1007 C1006 1.394 . S
C1007 C1008 1.516 . S
C1008 C1007 1.516 . S
C1008 C1009 1.502 . S
C1008 C1010 1.561 1_556 S
C1008 C1011 1.526 . S
C1009 H993 0.959 . S
C1009 H994 0.959 . S
C1009 H995 0.961 1_556 S
C1009 C1008 1.502 . S
C1010 H996 0.960 . S
C1010 H997 0.961 . S
C1010 H998 0.959 . S
C1010 C1008 1.561 1_554 S
C1011 C1008 1.526 . S
C1011 C1012 1.396 . S
C1011 C1016 1.390 . S
C1012 C1006 1.465 . S
C1012 C1011 1.396 . S
C1012 C1013 1.399 . S
C1013 H999 0.929 . S
C1013 C1012 1.399 . S
C1013 C1014 1.385 . S
C1014 H1000 0.931 . S
C1014 C1013 1.385 . S
C1014 C1015 1.389 . S
C1015 C1014 1.389 . S
C1015 C1016 1.387 . S
C1016 H1001 0.930 . S
C1016 C1011 1.390 . S
C1016 C1015 1.387 . S
H1017 C1029 0.930 . S
H1018 C1031 0.930 . S
H1019 C1032 0.930 1_556 S
H1020 C1036 0.959 . S
H1021 C1036 0.959 . S
H1022 C1036 0.961 . S
H1023 C1037 0.960 . S
H1024 C1037 0.961 . S
H1025 C1037 0.959 . S
H1026 C1040 0.929 . S
H1027 C1041 0.931 . S
H1028 C1043 0.930 . S
C1029 H1017 0.930 . S
C1029 C1030 1.399 . S
C1029 C1034 1.399 . S
C1030 C1029 1.399 . S
C1030 C1031 1.376 . S
C1031 H1018 0.930 . S
C1031 C1030 1.376 . S
C1031 C1032 1.388 . S
C1032 H1019 0.930 1_554 S
C1032 C1031 1.388 . S
C1032 C1033 1.390 . S
C1033 C1032 1.390 . S
C1033 C1034 1.394 . S
C1033 C1039 1.465 . S
C1034 C1029 1.399 . S
C1034 C1033 1.394 . S
C1034 C1035 1.516 . S
C1035 C1034 1.516 . S
C1035 C1036 1.502 . S
C1035 C1037 1.561 . S
C1035 C1038 1.526 . S
C1036 H1020 0.959 . S
C1036 H1021 0.959 . S
C1036 H1022 0.961 . S
C1036 C1035 1.502 . S
C1037 H1023 0.960 . S
C1037 H1024 0.961 . S
C1037 H1025 0.959 . S
C1037 C1035 1.561 . S
C1038 C1035 1.526 . S
C1038 C1039 1.396 . S
C1038 C1043 1.390 . S
C1039 C1033 1.465 . S
C1039 C1038 1.396 . S
C1039 C1040 1.399 1_554 S
C1040 H1026 0.929 . S
C1040 C1039 1.399 1_556 S
C1040 C1041 1.385 . S
C1041 H1027 0.931 . S
C1041 C1040 1.385 . S
C1041 C1042 1.389 1_556 S
C1042 C1041 1.389 1_554 S
C1042 C1043 1.387 . S
C1043 H1028 0.930 . S
C1043 C1038 1.390 . S
C1043 C1042 1.387 . S
H1044 C1056 0.930 1_556 S
H1045 C1058 0.930 . S
H1046 C1059 0.930 . S
H1047 C1063 0.959 . S
H1048 C1063 0.961 1_565 S
H1049 C1063 0.961 . S
H1050 C1064 0.960 . S
H1051 C1064 0.961 . S
H1052 C1064 0.959 . S
H1053 C1067 0.929 . S
H1054 C1068 0.931 . S
H1055 C1070 0.930 . S
C1056 H1044 0.930 1_554 S
C1056 C1057 1.399 . S
C1056 C1061 1.399 1_554 S
C1057 C1056 1.399 . S
C1057 C1058 1.376 . S
C1058 H1045 0.930 . S
C1058 C1057 1.376 . S
C1058 C1059 1.388 . S
C1059 H1046 0.930 . S
C1059 C1058 1.388 . S
C1059 C1060 1.390 . S
C1060 C1059 1.390 . S
C1060 C1061 1.394 1_554 S
C1060 C1066 1.465 1_545 S
C1061 C1056 1.399 1_556 S
C1061 C1060 1.394 1_556 S
C1061 C1062 1.516 . S
C1062 C1061 1.516 . S
C1062 C1063 1.502 . S
C1062 C1064 1.561 . S
C1062 C1065 1.526 1_545 S
C1063 H1047 0.959 . S
C1063 H1048 0.961 1_545 S
C1063 H1049 0.961 . S
C1063 C1062 1.502 . S
C1064 H1050 0.960 . S
C1064 H1051 0.961 . S
C1064 H1052 0.959 . S
C1064 C1062 1.561 . S
C1065 C1062 1.526 1_565 S
C1065 C1066 1.396 1_556 S
C1065 C1070 1.390 . S
C1066 C1060 1.465 1_565 S
C1066 C1065 1.396 1_554 S
C1066 C1067 1.399 . S
C1067 H1053 0.929 . S
C1067 C1066 1.399 . S
C1067 C1068 1.385 . S
C1068 H1054 0.931 . S
C1068 C1067 1.385 . S
C1068 C1069 1.389 1_554 S
C1069 C1068 1.389 1_556 S
C1069 C1070 1.387 . S
C1070 H1055 0.930 . S
C1070 C1065 1.390 . S
C1070 C1069 1.387 . S
H1071 C1083 0.930 . S
H1072 C1085 0.930 1_556 S
H1073 C1086 0.930 . S
H1074 C1090 0.959 . S
H1075 C1090 0.959 . S
H1076 C1090 0.961 . S
H1077 C1091 0.960 . S
H1078 C1091 0.961 . S
H1079 C1091 0.959 . S
H1080 C1094 0.929 . S
H1081 C1095 0.931 . S
H1082 C1097 0.930 . S
C1083 H1071 0.930 . S
C1083 C1084 1.399 . S
C1083 C1088 1.399 . S
C1084 C1083 1.399 . S
C1084 C1085 1.376 . S
C1085 H1072 0.930 1_554 S
C1085 C1084 1.376 . S
C1085 C1086 1.388 . S
C1086 H1073 0.930 . S
C1086 C1085 1.388 . S
C1086 C1087 1.390 . S
C1087 C1086 1.390 . S
C1087 C1088 1.394 . S
C1087 C1093 1.465 . S
C1088 C1083 1.399 . S
C1088 C1087 1.394 . S
C1088 C1089 1.516 . S
C1089 C1088 1.516 . S
C1089 C1090 1.502 . S
C1089 C1091 1.561 . S
C1089 C1092 1.526 . S
C1090 H1074 0.959 . S
C1090 H1075 0.959 . S
C1090 H1076 0.961 . S
C1090 C1089 1.502 . S
C1091 H1077 0.960 . S
C1091 H1078 0.961 . S
C1091 H1079 0.959 . S
C1091 C1089 1.561 . S
C1092 C1089 1.526 . S
C1092 C1093 1.396 . S
C1092 C1097 1.390 . S
C1093 C1087 1.465 . S
C1093 C1092 1.396 . S
C1093 C1094 1.399 . S
C1094 H1080 0.929 . S
C1094 C1093 1.399 . S
C1094 C1095 1.385 . S
C1095 H1081 0.931 . S
C1095 C1094 1.385 . S
C1095 C1096 1.389 . S
C1096 C1095 1.389 . S
C1096 C1097 1.387 . S
C1097 H1082 0.930 . S
C1097 C1092 1.390 . S
C1097 C1096 1.387 . S
H1098 C1110 0.930 . S
H1099 C1112 0.930 . S
H1100 C1113 0.930 . S
H1101 C1117 0.959 1_655 S
H1102 C1117 0.959 1_655 S
H1103 C1117 0.961 . S
H1104 C1118 0.960 . S
H1105 C1118 0.961 . S
H1106 C1118 0.959 . S
H1107 C1121 0.929 . S
H1108 C1122 0.931 . S
H1109 C1124 0.930 . S
C1110 H1098 0.930 . S
C1110 C1111 1.399 . S
C1110 C1115 1.399 . S
C1111 C1110 1.399 . S
C1111 C1112 1.376 . S
C1112 H1099 0.930 . S
C1112 C1111 1.376 . S
C1112 C1113 1.388 . S
C1113 H1100 0.930 . S
C1113 C1112 1.388 . S
C1113 C1114 1.390 . S
C1114 C1113 1.390 . S
C1114 C1115 1.394 . S
C1114 C1120 1.465 1_455 S
C1115 C1110 1.399 . S
C1115 C1114 1.394 . S
C1115 C1116 1.516 . S
C1116 C1115 1.516 . S
C1116 C1117 1.502 . S
C1116 C1118 1.561 . S
C1116 C1119 1.526 1_455 S
C1117 H1101 0.959 1_455 S
C1117 H1102 0.959 1_455 S
C1117 H1103 0.961 . S
C1117 C1116 1.502 . S
C1118 H1104 0.960 . S
C1118 H1105 0.961 . S
C1118 H1106 0.959 . S
C1118 C1116 1.561 . S
C1119 C1116 1.526 1_655 S
C1119 C1120 1.396 . S
C1119 C1124 1.390 . S
C1120 C1114 1.465 1_655 S
C1120 C1119 1.396 . S
C1120 C1121 1.399 . S
C1121 H1107 0.929 . S
C1121 C1120 1.399 . S
C1121 C1122 1.385 . S
C1122 H1108 0.931 . S
C1122 C1121 1.385 . S
C1122 C1123 1.389 . S
C1123 C1122 1.389 . S
C1123 C1124 1.387 . S
C1124 H1109 0.930 . S
C1124 C1119 1.390 . S
C1124 C1123 1.387 . S
H1125 C1137 0.930 . S
H1126 C1139 0.930 . S
H1127 C1140 0.930 . S
H1128 C1144 0.959 . S
H1129 C1144 0.959 . S
H1130 C1144 0.961 . S
H1131 C1145 0.960 . S
H1132 C1145 0.961 . S
H1133 C1145 0.959 . S
H1134 C1148 0.929 . S
H1135 C1149 0.931 . S
H1136 C1151 0.930 . S
C1137 H1125 0.930 . S
C1137 C1138 1.399 . S
C1137 C1142 1.399 . S
C1138 C1137 1.399 . S
C1138 C1139 1.376 . S
C1139 H1126 0.930 . S
C1139 C1138 1.376 . S
C1139 C1140 1.388 . S
C1140 H1127 0.930 . S
C1140 C1139 1.388 . S
C1140 C1141 1.390 . S
C1141 C1140 1.390 . S
C1141 C1142 1.394 . S
C1141 C1147 1.465 1_565 S
C1142 C1137 1.399 . S
C1142 C1141 1.394 . S
C1142 C1143 1.516 . S
C1143 C1142 1.516 . S
C1143 C1144 1.502 . S
C1143 C1145 1.561 . S
C1143 C1146 1.526 1_565 S
C1144 H1128 0.959 . S
C1144 H1129 0.959 . S
C1144 H1130 0.961 . S
C1144 C1143 1.502 . S
C1145 H1131 0.960 . S
C1145 H1132 0.961 . S
C1145 H1133 0.959 . S
C1145 C1143 1.561 . S
C1146 C1143 1.526 1_545 S
C1146 C1147 1.396 . S
C1146 C1151 1.390 . S
C1147 C1141 1.465 1_545 S
C1147 C1146 1.396 . S
C1147 C1148 1.399 . S
C1148 H1134 0.929 . S
C1148 C1147 1.399 . S
C1148 C1149 1.385 . S
C1149 H1135 0.931 . S
C1149 C1148 1.385 . S
C1149 C1150 1.389 . S
C1150 C1149 1.389 . S
C1150 C1151 1.387 . S
C1151 H1136 0.930 . S
C1151 C1146 1.390 . S
C1151 C1150 1.387 . S
H1152 C1164 0.930 . S
H1153 C1166 0.930 . S
H1154 C1167 0.930 . S
H1155 C1171 0.959 . S
H1156 C1171 0.959 . S
H1157 C1171 0.961 . S
H1158 C1172 0.960 . S
H1159 C1172 0.961 . S
H1160 C1172 0.959 . S
H1161 C1175 0.929 . S
H1162 C1176 0.931 . S
H1163 C1178 0.930 . S
C1164 H1152 0.930 . S
C1164 C1165 1.399 . S
C1164 C1169 1.399 . S
C1165 C1164 1.399 . S
C1165 C1166 1.376 . S
C1166 H1153 0.930 . S
C1166 C1165 1.376 . S
C1166 C1167 1.388 . S
C1167 H1154 0.930 . S
C1167 C1166 1.388 . S
C1167 C1168 1.390 . S
C1168 C1167 1.390 . S
C1168 C1169 1.394 . S
C1168 C1174 1.465 . S
C1169 C1164 1.399 . S
C1169 C1168 1.394 . S
C1169 C1170 1.516 . S
C1170 C1169 1.516 . S
C1170 C1171 1.502 . S
C1170 C1172 1.561 . S
C1170 C1173 1.526 . S
C1171 H1155 0.959 . S
C1171 H1156 0.959 . S
C1171 H1157 0.961 . S
C1171 C1170 1.502 . S
C1172 H1158 0.960 . S
C1172 H1159 0.961 . S
C1172 H1160 0.959 . S
C1172 C1170 1.561 . S
C1173 C1170 1.526 . S
C1173 C1174 1.396 . S
C1173 C1178 1.390 . S
C1174 C1168 1.465 . S
C1174 C1173 1.396 . S
C1174 C1175 1.399 . S
C1175 H1161 0.929 . S
C1175 C1174 1.399 . S
C1175 C1176 1.385 . S
C1176 H1162 0.931 . S
C1176 C1175 1.385 . S
C1176 C1177 1.389 . S
C1177 C1176 1.389 . S
C1177 C1178 1.387 . S
C1178 H1163 0.930 . S
C1178 C1173 1.390 . S
C1178 C1177 1.387 . S
H1179 C1191 0.930 . S
H1180 C1193 0.930 . S
H1181 C1194 0.930 . S
H1182 C1198 0.959 . S
H1183 C1198 0.959 . S
H1184 C1198 0.961 1_455 S
H1185 C1199 0.960 1_554 S
H1186 C1199 0.961 . S
H1187 C1199 0.959 . S
H1188 C1202 0.929 . S
H1189 C1203 0.931 . S
H1190 C1205 0.930 . S
C1191 H1179 0.930 . S
C1191 C1192 1.399 . S
C1191 C1196 1.399 . S
C1192 C1191 1.399 . S
C1192 C1193 1.376 . S
C1193 H1180 0.930 . S
C1193 C1192 1.376 . S
C1193 C1194 1.388 . S
C1194 H1181 0.930 . S
C1194 C1193 1.388 . S
C1194 C1195 1.390 . S
C1195 C1194 1.390 . S
C1195 C1196 1.394 . S
C1195 C1201 1.465 1_455 S
C1196 C1191 1.399 . S
C1196 C1195 1.394 . S
C1196 C1197 1.516 1_455 S
C1197 C1196 1.516 1_655 S
C1197 C1198 1.502 . S
C1197 C1199 1.561 . S
C1197 C1200 1.526 . S
C1198 H1182 0.959 . S
C1198 H1183 0.959 . S
C1198 H1184 0.961 1_655 S
C1198 C1197 1.502 . S
C1199 H1185 0.960 1_556 S
C1199 H1186 0.961 . S
C1199 H1187 0.959 . S
C1199 C1197 1.561 . S
C1200 C1197 1.526 . S
C1200 C1201 1.396 . S
C1200 C1205 1.390 . S
C1201 C1195 1.465 1_655 S
C1201 C1200 1.396 . S
C1201 C1202 1.399 . S
C1202 H1188 0.929 . S
C1202 C1201 1.399 . S
C1202 C1203 1.385 . S
C1203 H1189 0.931 . S
C1203 C1202 1.385 . S
C1203 C1204 1.389 . S
C1204 C1203 1.389 . S
C1204 C1205 1.387 . S
C1205 H1190 0.930 . S
C1205 C1200 1.390 . S
C1205 C1204 1.387 . S
C409 C271 1.169 . S
C421 C7 1.185 . S
C436 C304 1.192 . S
C448 C40 1.207 . S
C463 C337 1.170 . S
C475 C73 1.190 . S
C490 C370 1.206 . S
C502 C106 1.188 . S
C517 C139 1.183 . S
C529 C205 1.170 . S
C544 C238 1.170 . S
C556 C172 1.177 . S
C571 N13 1.351 . S
C583 N2 1.272 . S
C598 N35 1.287 . S
C610 N46 1.330 1_556 S
C625 N68 1.353 . S
C637 N79 1.274 . S
C652 N101 1.323 . S
C664 N112 1.317 . S
C679 N134 1.271 . S
C691 N145 1.354 . S
C706 N167 1.352 . S
C718 N178 1.274 . S
C733 N211 1.342 1_554 S
C745 N200 1.296 . S
C760 N233 1.314 . S
C772 N244 1.303 . S
C787 N277 1.305 . S
C799 N266 1.333 . S
C814 N310 1.340 . S
C826 N299 1.298 . S
C841 N343 1.274 . S
C853 N332 1.349 . S
C868 N365 1.273 . S
C880 N376 1.348 . S
C895 C21 1.552 . S
C907 C351 1.564 . S
C922 C54 1.568 . S
C934 C384 1.588 . S
C949 C87 1.571 . S
C961 C219 1.589 . S
C976 C252 1.553 . S
C988 C120 1.574 . S
C1003 C285 1.578 1_556 S
C1015 C153 1.588 . S
C1030 C318 1.566 . S
C1042 C186 1.588 1_554 S
C1057 C18 1.332 . S
C1069 C249 1.325 . S
C1084 C282 1.349 . S
C1096 C51 1.338 . S
C1111 C315 1.325 . S
C1123 C84 1.321 . S
C1138 C117 1.342 . S
C1150 C348 1.331 . S
C1165 C381 1.326 . S
C1177 C150 1.336 . S
C1192 C183 1.373 . S
C1204 C216 1.378 . S
