# Generated by pormake.
# Topology uob, (4)-cn, num edge types: 1
# Building blocks:
#     Node 0, Type 0, BuildingBlock: MUDLON_clean_sbu_0, # of connection points: 4
#     Node 1, Type 0, BuildingBlock: MUDLON_clean_sbu_0, # of connection points: 4
#     Node 2, Type 0, BuildingBlock: MUDLON_clean_sbu_0, # of connection points: 4
#     Node 3, Type 0, BuildingBlock: MUDLON_clean_sbu_0, # of connection points: 4
#     Node 4, Type 0, BuildingBlock: MUDLON_clean_sbu_0, # of connection points: 4
#     Node 5, Type 0, BuildingBlock: MUDLON_clean_sbu_0, # of connection points: 4
#     Node 6, Type 0, BuildingBlock: MUDLON_clean_sbu_0, # of connection points: 4
#     Node 7, Type 0, BuildingBlock: MUDLON_clean_sbu_0, # of connection points: 4
#     Node 8, Type 0, BuildingBlock: MUDLON_clean_sbu_0, # of connection points: 4
#     Node 9, Type 0, BuildingBlock: MUDLON_clean_sbu_0, # of connection points: 4
#     Node 10, Type 0, BuildingBlock: MUDLON_clean_sbu_0, # of connection points: 4
#     Node 11, Type 0, BuildingBlock: MUDLON_clean_sbu_0, # of connection points: 4
#     Node 12, Type 0, BuildingBlock: MUDLON_clean_sbu_0, # of connection points: 4
#     Node 13, Type 0, BuildingBlock: MUDLON_clean_sbu_0, # of connection points: 4
#     Node 14, Type 0, BuildingBlock: MUDLON_clean_sbu_0, # of connection points: 4
#     Node 15, Type 0, BuildingBlock: MUDLON_clean_sbu_0, # of connection points: 4
#     Edge 16, Type (0, 0), BuildingBlock: AJUNOK_clean_linker_0, # of connection points: 2
#     Edge 17, Type (0, 0), BuildingBlock: AJUNOK_clean_linker_0, # of connection points: 2
#     Edge 18, Type (0, 0), BuildingBlock: AJUNOK_clean_linker_0, # of connection points: 2
#     Edge 19, Type (0, 0), BuildingBlock: AJUNOK_clean_linker_0, # of connection points: 2
#     Edge 20, Type (0, 0), BuildingBlock: AJUNOK_clean_linker_0, # of connection points: 2
#     Edge 21, Type (0, 0), BuildingBlock: AJUNOK_clean_linker_0, # of connection points: 2
#     Edge 22, Type (0, 0), BuildingBlock: AJUNOK_clean_linker_0, # of connection points: 2
#     Edge 23, Type (0, 0), BuildingBlock: AJUNOK_clean_linker_0, # of connection points: 2
#     Edge 24, Type (0, 0), BuildingBlock: AJUNOK_clean_linker_0, # of connection points: 2
#     Edge 25, Type (0, 0), BuildingBlock: AJUNOK_clean_linker_0, # of connection points: 2
#     Edge 26, Type (0, 0), BuildingBlock: AJUNOK_clean_linker_0, # of connection points: 2
#     Edge 27, Type (0, 0), BuildingBlock: AJUNOK_clean_linker_0, # of connection points: 2
#     Edge 28, Type (0, 0), BuildingBlock: AJUNOK_clean_linker_0, # of connection points: 2
#     Edge 29, Type (0, 0), BuildingBlock: AJUNOK_clean_linker_0, # of connection points: 2
#     Edge 30, Type (0, 0), BuildingBlock: AJUNOK_clean_linker_0, # of connection points: 2
#     Edge 31, Type (0, 0), BuildingBlock: AJUNOK_clean_linker_0, # of connection points: 2
#     Edge 32, Type (0, 0), BuildingBlock: AJUNOK_clean_linker_0, # of connection points: 2
#     Edge 33, Type (0, 0), BuildingBlock: AJUNOK_clean_linker_0, # of connection points: 2
#     Edge 34, Type (0, 0), BuildingBlock: AJUNOK_clean_linker_0, # of connection points: 2
#     Edge 35, Type (0, 0), BuildingBlock: AJUNOK_clean_linker_0, # of connection points: 2
#     Edge 36, Type (0, 0), BuildingBlock: AJUNOK_clean_linker_0, # of connection points: 2
#     Edge 37, Type (0, 0), BuildingBlock: AJUNOK_clean_linker_0, # of connection points: 2
#     Edge 38, Type (0, 0), BuildingBlock: AJUNOK_clean_linker_0, # of connection points: 2
#     Edge 39, Type (0, 0), BuildingBlock: AJUNOK_clean_linker_0, # of connection points: 2
#     Edge 40, Type (0, 0), BuildingBlock: AJUNOK_clean_linker_0, # of connection points: 2
#     Edge 41, Type (0, 0), BuildingBlock: AJUNOK_clean_linker_0, # of connection points: 2
#     Edge 42, Type (0, 0), BuildingBlock: AJUNOK_clean_linker_0, # of connection points: 2
#     Edge 43, Type (0, 0), BuildingBlock: AJUNOK_clean_linker_0, # of connection points: 2
#     Edge 44, Type (0, 0), BuildingBlock: AJUNOK_clean_linker_0, # of connection points: 2
#     Edge 45, Type (0, 0), BuildingBlock: AJUNOK_clean_linker_0, # of connection points: 2
#     Edge 46, Type (0, 0), BuildingBlock: AJUNOK_clean_linker_0, # of connection points: 2
#     Edge 47, Type (0, 0), BuildingBlock: AJUNOK_clean_linker_0, # of connection points: 2
# Relax obj value: 0.170
# Max RMSD: 0.256
# Mean RMSD: 0.256
data_MOF--net-uob--node1-MUDLON_clean_sbu_0--edge1-AJUNOK_clean_linker_0
_symmetry_space_group_name_H-M    P1
_symmetry_Int_Tables_number       1
_symmetry_cell_setting            triclinic
loop_
_symmetry_equiv_pos_as_xyz
'x, y, z'
_cell_length_a     40.892192
_cell_length_b     40.931442
_cell_length_c     21.488253
_cell_angle_alpha  90.128828
_cell_angle_beta   90.10967
_cell_angle_gamma 90.056569
loop_
_atom_site_label
_atom_site_type_symbol
_atom_site_fract_x
_atom_site_fract_y
_atom_site_fract_z
_atom_type_partial_charge
Mg0 Mg 0.1409 0.07921 0.33745 0.0
C1 C 0.1324 0.09685 0.46705 0.0
O2 O 0.1432 0.0667 0.46873 0.0
C3 C 0.14519 0.0969 0.20001 0.0
O4 O 0.16403 0.07093 0.19864 0.0
C5 C 0.2026 0.04487 0.39401 0.0
O6 O 0.18277 0.02093 0.40921 0.0
O7 O 0.19204 0.06779 0.3593 0.0
O8 O 0.12821 0.11037 0.41455 0.0
O9 O 0.10239 0.04226 0.33945 0.0
C10 C 0.07422 0.05564 0.34017 0.0
O11 O 0.07277 0.08769 0.33869 0.0
O12 O 0.13384 0.10647 0.25193 0.0
Mg13 Mg 0.95493 0.64118 0.58106 0.0
C14 C 0.93706 0.63966 0.71187 0.0
O15 O 0.9662 0.65316 0.71207 0.0
C16 C 0.93674 0.64819 0.44504 0.0
O17 O 0.96526 0.66297 0.44382 0.0
C18 C 0.95004 0.70996 0.61217 0.0
O19 O 0.92063 0.70076 0.59465 0.0
O20 O 0.9734 0.68975 0.60529 0.0
O21 O 0.92463 0.63082 0.6603 0.0
O22 O 0.98844 0.59994 0.57807 0.0
C23 C 0.97339 0.57264 0.57884 0.0
O24 O 0.94129 0.57301 0.58053 0.0
O25 O 0.92566 0.63837 0.49693 0.0
Mg26 Mg 0.38465 0.45076 0.83008 0.0
C27 C 0.39072 0.43578 0.9608 0.0
O28 O 0.37872 0.46553 0.95927 0.0
C29 C 0.38612 0.43536 0.6929 0.0
O30 O 0.3776 0.46629 0.69089 0.0
C31 C 0.31877 0.44033 0.8739 0.0
O32 O 0.33107 0.41147 0.86077 0.0
O33 O 0.33513 0.46541 0.8577 0.0
O34 O 0.39738 0.4216 0.90971 0.0
O35 O 0.42421 0.48649 0.82845 0.0
C36 C 0.45216 0.47269 0.82975 0.0
O37 O 0.45314 0.44062 0.82989 0.0
O38 O 0.38874 0.42162 0.74565 0.0
Mg39 Mg 0.56988 0.88192 0.07952 0.0
C40 C 0.5877 0.88965 0.20907 0.0
O41 O 0.55722 0.87947 0.20958 0.0
C42 C 0.57463 0.89489 0.94566 0.0
O43 O 0.54332 0.89781 0.95802 0.0
C44 C 0.57205 0.81569 0.13246 0.0
O45 O 0.60249 0.82588 0.13492 0.0
O46 O 0.5509 0.83344 0.10499 0.0
O47 O 0.6017 0.89382 0.15686 0.0
O48 O 0.53531 0.92255 0.0813 0.0
C49 C 0.54869 0.95064 0.07768 0.0
O50 O 0.58074 0.95219 0.07428 0.0
O51 O 0.59367 0.88521 0.98873 0.0
Mg52 Mg 0.13942 0.44956 0.08141 0.0
C53 C 0.13537 0.43131 0.94798 0.0
O54 O 0.15538 0.45641 0.94736 0.0
C55 C 0.10919 0.41287 0.18624 0.0
O56 O 0.08473 0.41653 0.14711 0.0
C57 C 0.20672 0.44021 0.04317 0.0
O58 O 0.19516 0.41122 0.0576 0.0
O59 O 0.189 0.46495 0.0556 0.0
O60 O 0.12438 0.42134 1.0001 0.0
O61 O 0.10088 0.48607 0.09102 0.0
C62 C 0.08589 0.49778 0.04421 0.0
O63 O 0.09728 0.49223 0.98812 0.0
O64 O 0.13738 0.42273 0.16953 0.0
Mg65 Mg 0.58256 0.63803 0.33727 0.0
C66 C 0.62424 0.64327 0.22007 0.0
O67 O 0.61895 0.67479 0.22528 0.0
C68 C 0.59623 0.64134 0.47651 0.0
O69 O 0.5662 0.65273 0.47741 0.0
C70 C 0.55084 0.69291 0.26151 0.0
O71 O 0.5414 0.66813 0.22689 0.0
O72 O 0.56525 0.68703 0.31294 0.0
O73 O 0.61553 0.62443 0.26383 0.0
O74 O 0.5482 0.59699 0.33488 0.0
C75 C 0.54541 0.58181 0.28329 0.0
O76 O 0.55819 0.59507 0.23338 0.0
O77 O 0.60938 0.63503 0.42435 0.0
Mg78 Mg 0.38721 0.07169 0.5868 0.0
C79 C 0.39012 0.08864 0.45272 0.0
O80 O 0.37239 0.06187 0.45152 0.0
C81 C 0.38081 0.09114 0.72206 0.0
O82 O 0.36806 0.0617 0.72447 0.0
C83 C 0.31925 0.07297 0.54293 0.0
O84 O 0.32818 0.10379 0.54644 0.0
O85 O 0.33893 0.05147 0.56377 0.0
O86 O 0.39984 0.09967 0.50496 0.0
O87 O 0.42835 0.0382 0.59754 0.0
C88 C 0.44188 0.02473 0.55083 0.0
O89 O 0.42787 0.02694 0.49601 0.0
O90 O 0.389 0.10258 0.66936 0.0
Mg91 Mg 0.95761 0.88383 0.83118 0.0
C92 C 0.93681 0.88621 0.70028 0.0
O93 O 0.96457 0.87014 0.69832 0.0
C94 C 0.9506 0.89674 0.96514 0.0
O95 O 0.98179 0.90161 0.95395 0.0
C96 C 0.94993 0.817 0.79028 0.0
O97 O 0.92075 0.82706 0.80715 0.0
O98 O 0.9744 0.83492 0.80407 0.0
O99 O 0.9262 0.8959 0.75288 0.0
O100 O 0.99234 0.92458 0.83496 0.0
C101 C 0.9995 0.94222 0.78825 0.0
O102 O 0.99026 0.93301 0.73242 0.0
O103 O 0.93252 0.88625 0.92109 0.0
Mg104 Mg 0.64015 0.57363 0.84521 0.0
C105 C 0.63118 0.58441 0.97496 0.0
O106 O 0.63716 0.5531 0.9677 0.0
C107 C 0.64822 0.59226 0.71025 0.0
O108 O 0.66378 0.56419 0.70987 0.0
C109 C 0.70515 0.58071 0.89682 0.0
O110 O 0.69382 0.61045 0.88896 0.0
O111 O 0.689 0.55697 0.87365 0.0
O112 O 0.62819 0.60193 0.92655 0.0
O113 O 0.60091 0.53773 0.83995 0.0
C114 C 0.57248 0.55004 0.83351 0.0
O115 O 0.56992 0.58195 0.82898 0.0
O116 O 0.63741 0.60318 0.76164 0.0
Mg117 Mg 0.45571 0.14131 0.08611 0.0
C118 C 0.44251 0.13215 0.2172 0.0
O119 O 0.47246 0.14375 0.21564 0.0
C120 C 0.43688 0.1441 0.94966 0.0
O121 O 0.46731 0.15415 0.9453 0.0
C122 C 0.4481 0.20583 0.14026 0.0
O123 O 0.41852 0.19383 0.13274 0.0
O124 O 0.47198 0.19006 0.11683 0.0
O125 O 0.4276 0.12696 0.16618 0.0
O126 O 0.49033 0.10091 0.07931 0.0
C127 C 0.47558 0.07351 0.07482 0.0
O128 O 0.44348 0.0737 0.07265 0.0
O129 O 0.42491 0.13922 1.00341 0.0
Mg130 Mg 0.88656 0.95353 0.33479 0.0
C131 C 0.89241 0.93626 0.46375 0.0
O132 O 0.88121 0.96633 0.46272 0.0
C133 C 0.90175 0.94722 0.2009 0.0
O134 O 0.9077 0.97812 0.21314 0.0
C135 C 0.82071 0.94346 0.37937 0.0
O136 O 0.83272 0.91445 0.36649 0.0
O137 O 0.83714 0.9684 0.3627 0.0
O138 O 0.89886 0.92226 0.41228 0.0
O139 O 0.92573 0.98972 0.3396 0.0
C140 C 0.95437 0.97751 0.3365 0.0
O141 O 0.95714 0.94568 0.33035 0.0
O142 O 0.89027 0.92934 0.24405 0.0
Mg143 Mg 0.06789 0.38198 0.57929 0.0
C144 C 0.08152 0.39508 0.70751 0.0
O145 O 0.05039 0.38739 0.70353 0.0
C146 C 0.07285 0.37986 0.44139 0.0
O147 O 0.04134 0.37675 0.45183 0.0
C148 C 0.07375 0.31891 0.63978 0.0
O149 O 0.10379 0.32922 0.63064 0.0
O150 O 0.05039 0.33473 0.61467 0.0
O151 O 0.09811 0.39679 0.65749 0.0
O152 O 0.03263 0.42168 0.57629 0.0
C153 C 0.04579 0.44968 0.56953 0.0
O154 O 0.07769 0.4512 0.56273 0.0
O155 O 0.09199 0.3811 0.48816 0.0
Mg156 Mg 0.63986 0.9486 0.57727 0.0
C157 C 0.63916 0.93062 0.44703 0.0
O158 O 0.65114 0.9604 0.44874 0.0
C159 C 0.62466 0.94384 0.70978 0.0
O160 O 0.62136 0.97497 0.69645 0.0
C161 C 0.70829 0.94351 0.54646 0.0
O162 O 0.69855 0.91422 0.56331 0.0
O163 O 0.68863 0.96722 0.55484 0.0
O164 O 0.63158 0.91684 0.49805 0.0
O165 O 0.5977 0.98127 0.57243 0.0
C166 C 0.57123 0.96605 0.56013 0.0
O167 O 0.5724 0.93444 0.54989 0.0
O168 O 0.63541 0.92474 0.66774 0.0
Mg169 Mg 0.06924 0.14199 0.83386 0.0
C170 C 0.0859 0.14556 0.70225 0.0
O171 O 0.05562 0.15618 0.7039 0.0
C172 C 0.08601 0.14361 0.97054 0.0
O173 O 0.05496 0.15173 0.97342 0.0
C174 C 0.06793 0.21211 0.8153 0.0
O175 O 0.09702 0.20546 0.83807 0.0
O176 O 0.04672 0.18934 0.81462 0.0
O177 O 0.09981 0.13763 0.75293 0.0
O178 O 0.03975 0.09737 0.83179 0.0
C179 C 0.05495 0.07253 0.8106 0.0
O180 O 0.08525 0.07604 0.79169 0.0
O181 O 0.09906 0.13989 0.91741 0.0
Mg182 Mg 0.88858 0.57567 0.07842 0.0
C183 C 0.88745 0.59369 0.94687 0.0
O184 O 0.87474 0.56419 0.94663 0.0
C185 C 0.8852 0.59348 0.21517 0.0
O186 O 0.87332 0.56369 0.21843 0.0
C187 C 0.81811 0.57654 0.05957 0.0
O188 O 0.82565 0.60557 0.08159 0.0
O189 O 0.84041 0.5549 0.05826 0.0
O190 O 0.89529 0.60652 0.99863 0.0
O191 O 0.93181 0.54427 0.07789 0.0
C192 C 0.95776 0.55884 0.06023 0.0
O193 O 0.95591 0.58965 0.0437 0.0
O194 O 0.89172 0.6053 0.16202 0.0
Mg195 Mg 0.45905 0.38934 0.32666 0.0
C196 C 0.43516 0.3847 0.19644 0.0
O197 O 0.46119 0.36597 0.19467 0.0
C198 C 0.43948 0.38172 0.46344 0.0
O199 O 0.46598 0.36363 0.46522 0.0
C200 C 0.45431 0.31911 0.30507 0.0
O201 O 0.42554 0.32805 0.32629 0.0
O202 O 0.47735 0.34005 0.30682 0.0
O203 O 0.42719 0.39787 0.24789 0.0
O204 O 0.49282 0.43108 0.32673 0.0
C205 C 0.49676 0.44742 0.27691 0.0
O206 O 0.48409 0.43614 0.22501 0.0
O207 O 0.4305 0.39377 0.41168 0.0
C208 C 0.27583 0.08786 0.46622 0.0
C209 C 0.28991 0.06407 0.50521 0.0
C210 C 0.24873 0.08084 0.4286 0.0
C211 C 0.23396 0.04975 0.42855 0.0
H212 H 0.28585 0.11234 0.46433 0.0
H213 H 0.23879 0.10043 0.40056 0.0
S214 S 0.26195 0.97818 0.52033 0.0
N215 N 0.28774 1.0076 0.53971 0.0
N216 N 0.23625 0.99446 0.46978 0.0
C217 C 0.24805 0.02544 0.46653 0.0
C218 C 0.27608 0.03256 0.50456 0.0
C219 C 0.97728 0.76767 0.74215 0.0
C220 C 0.95242 0.7914 0.74144 0.0
C221 C 0.97774 0.74217 0.69782 0.0
C222 C 0.95361 0.73992 0.65091 0.0
H223 H 0.99564 0.76805 0.77855 0.0
H224 H 0.99619 0.72334 0.7021 0.0
S225 S 0.88696 0.79957 0.6224 0.0
N226 N 0.9055 0.81319 0.68559 0.0
N227 N 0.90684 0.76613 0.6022 0.0
C228 C 0.93009 0.76487 0.64748 0.0
C229 C 0.92936 0.79036 0.69276 0.0
C230 C 0.27722 0.41316 0.94094 0.0
C231 C 0.28981 0.44233 0.91593 0.0
C232 C 0.25133 0.4132 0.98327 0.0
C233 C 0.23625 0.44239 1.00262 0.0
H234 H 0.28756 0.38973 0.9282 0.0
H235 H 0.24283 0.38978 1.00021 0.0
S236 S 0.25989 0.52585 0.95209 0.0
N237 N 0.2855 0.50159 0.91468 0.0
N238 N 0.23613 0.50165 0.99372 0.0
C239 C 0.24855 0.47195 0.97842 0.0
C240 C 0.27539 0.47192 0.93527 0.0
C241 C 0.54254 0.76202 0.14352 0.0
C242 C 0.56264 0.78649 0.16893 0.0
C243 C 0.53742 0.73239 0.17531 0.0
C244 C 0.55174 0.72642 0.23411 0.0
H245 H 0.53206 0.76511 0.09758 0.0
H246 H 0.52305 0.7136 0.1525 0.0
S247 S 0.60233 0.78543 0.32432 0.0
N248 N 0.59416 0.80449 0.25853 0.0
N249 N 0.58406 0.74955 0.31885 0.0
C250 C 0.57001 0.75186 0.26163 0.0
C251 C 0.57561 0.78166 0.22885 0.0
C252 C 0.75757 0.5535 0.93157 0.0
C253 C 0.73182 0.57551 0.94267 0.0
C254 C 0.78476 0.55207 0.97206 0.0
C255 C 0.78679 0.57237 0.02516 0.0
H256 H 0.7575 0.53859 0.88986 0.0
H257 H 0.80505 0.53634 0.9598 0.0
S258 S 0.72258 0.62927 0.08094 0.0
N259 N 0.70811 0.6147 0.01471 0.0
N260 N 0.75846 0.61157 0.09074 0.0
C261 C 0.75992 0.59245 0.03898 0.0
C262 C 0.73264 0.59415 0.99775 0.0
C263 C 0.43041 0.26616 0.27 0.0
C264 C 0.45676 0.28826 0.26819 0.0
C265 C 0.42842 0.23966 0.22899 0.0
C266 C 0.4528 0.23364 0.18423 0.0
H267 H 0.41043 0.26981 0.3023 0.0
H268 H 0.40722 0.22386 0.23227 0.0
S269 S 0.52838 0.28241 0.16256 0.0
N270 N 0.50894 0.30124 0.21964 0.0
N271 N 0.50531 0.25083 0.14295 0.0
C272 C 0.48019 0.25446 0.18361 0.0
C273 C 0.48215 0.28186 0.22543 0.0
C274 C 0.78489 0.9186 0.45989 0.0
C275 C 0.7925 0.94587 0.42285 0.0
C276 C 0.75873 0.91901 0.50162 0.0
C277 C 0.73852 0.9466 0.50821 0.0
H278 H 0.79929 0.89645 0.45688 0.0
H279 H 0.75397 0.89699 0.52801 0.0
S280 S 0.74854 0.02509 0.42389 0.0
N281 N 0.77852 1.00195 0.39724 0.0
N282 N 0.72863 1.00258 0.47514 0.0
C283 C 0.74625 0.97451 0.47272 0.0
C284 C 0.77335 0.97417 0.43024 0.0
C285 C 0.04573 0.26818 0.68032 0.0
C286 C 0.06787 0.29413 0.68882 0.0
C287 C 0.04382 0.24253 0.72399 0.0
C288 C 0.06375 0.24231 0.77774 0.0
H289 H 0.03117 0.26677 0.63824 0.0
H290 H 0.02808 0.22191 0.7137 0.0
S291 S 0.1209 0.30799 0.82684 0.0
N292 N 0.10688 0.32011 0.75865 0.0
N293 N 0.10273 0.27273 0.84071 0.0
C294 C 0.08388 0.26955 0.78883 0.0
C295 C 0.08612 0.29523 0.74435 0.0
C296 C 0.04422 1.00219 0.3312 0.0
C297 C 0.04345 0.03612 0.34124 0.0
C298 C 0.01533 0.98362 0.32993 0.0
C299 C 0.98439 0.99813 0.33878 0.0
H300 H 0.06728 0.98984 0.32351 0.0
H301 H 0.0174 0.95761 0.32148 0.0
S302 S 0.96891 0.08595 0.37015 0.0
N303 N 1.00897 0.08339 0.36256 0.0
N304 N 0.95495 0.04848 0.36003 0.0
C305 C 0.98327 0.03197 0.34978 0.0
C306 C 0.01269 0.05093 0.35106 0.0
C307 C 0.02491 0.54025 0.56424 0.0
C308 C 0.99122 0.54097 0.57703 0.0
C309 C 0.04208 0.51063 0.5614 0.0
C310 C 0.02637 0.4804 0.57141 0.0
H311 H 0.03818 0.56273 0.55595 0.0
H312 H 0.068 0.51158 0.55128 0.0
S313 S 0.93853 0.46874 0.60854 0.0
N314 N 0.94279 0.50864 0.60108 0.0
N315 N 0.97512 0.45318 0.59575 0.0
C316 C 0.9927 0.48073 0.58454 0.0
C317 C 0.97515 0.51092 0.58736 0.0
C318 C 0.48279 0.52568 0.82009 0.0
C319 C 0.48314 0.49185 0.83121 0.0
C320 C 0.51179 0.54407 0.82057 0.0
C321 C 0.54242 0.52947 0.83237 0.0
H322 H 0.45996 0.53811 0.81051 0.0
H323 H 0.51005 0.57002 0.8115 0.0
S324 S 0.55673 0.44183 0.86688 0.0
N325 N 0.51686 0.44456 0.85607 0.0
N326 N 0.57111 0.47913 0.85694 0.0
C327 C 0.54312 0.49569 0.84401 0.0
C328 C 0.51359 0.47692 0.84346 0.0
C329 C 0.54535 0.01185 0.07889 0.0
C330 C 0.52921 0.98138 0.07664 0.0
C331 C 0.52796 0.0414 0.07789 0.0
C332 C 0.49363 0.04185 0.07438 0.0
H333 H 0.57177 0.01302 0.08178 0.0
H334 H 0.54163 0.06406 0.08012 0.0
S335 S 0.43949 0.96879 0.06594 0.0
N336 N 0.47679 0.95358 0.0698 0.0
N337 N 0.44405 1.00885 0.0677 0.0
C338 C 0.47713 1.01152 0.0716 0.0
C339 C 0.49489 0.98141 0.07282 0.0
C340 C 0.04352 0.53726 1.00785 0.0
C341 C 0.05369 0.51389 0.0516 0.0
C342 C 0.0124 0.55147 1.01119 0.0
C343 C 0.98984 0.54219 0.05731 0.0
H344 H 0.0598 0.54475 0.9708 0.0
H345 H 1.00582 0.56963 0.97678 0.0
S346 S 1.00407 0.48157 0.18236 0.0
N347 N 0.03864 0.48204 0.14272 0.0
N348 N 0.97974 0.50815 0.14771 0.0
C349 C 0.99948 0.51861 0.10101 0.0
C350 C 0.03152 0.50467 0.09856 0.0
C351 C 0.51249 0.49876 0.33437 0.0
C352 C 0.51098 0.48091 0.2783 0.0
C353 C 0.5229 0.53152 0.33549 0.0
C354 C 0.5324 0.54776 0.28065 0.0
H355 H 0.50494 0.48758 0.37767 0.0
H356 H 0.52363 0.54411 0.37986 0.0
S357 S 0.53447 0.51137 0.12188 0.0
N358 N 0.52094 0.48165 0.16677 0.0
N359 N 0.54043 0.54283 0.16865 0.0
C360 C 0.53139 0.52998 0.22435 0.0
C361 C 0.52076 0.49671 0.22325 0.0
C362 C 0.48436 0.98588 0.51255 0.0
C363 C 0.47474 1.00966 0.55612 0.0
C364 C 0.51579 0.9723 0.51401 0.0
C365 C 0.53916 0.98262 0.55796 0.0
H366 H 0.46738 0.97747 0.4772 0.0
H367 H 0.52191 0.95368 0.48007 0.0
S368 S 0.52667 0.04429 0.68211 0.0
N369 N 0.49126 0.04285 0.64503 0.0
N370 N 0.55069 0.01782 0.6464 0.0
C371 C 0.53013 1.00659 0.60145 0.0
C372 C 0.4978 0.01993 0.60096 0.0
C373 C 0.04696 0.01978 0.75485 0.0
C374 C 0.03955 0.03992 0.80607 0.0
C375 C 0.03418 0.9881 0.74988 0.0
C376 C 0.01434 0.97494 0.79691 0.0
H377 H 0.06253 0.02873 0.71784 0.0
H378 H 0.04005 0.97372 0.70901 0.0
S379 S 0.98829 0.0174 0.94143 0.0
N380 N 1.01115 0.04454 0.90485 0.0
N381 N 0.98788 0.98452 0.89669 0.0
C382 C 1.00709 0.99466 0.84892 0.0
C383 C 0.01945 0.02729 0.85315 0.0
C384 C 0.12532 0.11338 0.63916 0.0
C385 C 0.10108 0.13761 0.642 0.0
C386 C 0.13619 0.10133 0.58199 0.0
C387 C 0.1235 0.11332 0.52562 0.0
H388 H 0.13484 0.10241 0.6813 0.0
H389 H 0.15402 0.08176 0.58214 0.0
S390 S 0.06271 0.17987 0.50783 0.0
N391 N 0.06694 0.1755 0.58379 0.0
N392 N 0.08759 0.15287 0.47597 0.0
C393 C 0.10083 0.13907 0.52767 0.0
C394 C 0.08953 0.15118 0.58602 0.0
C395 C 0.89848 0.60582 0.77392 0.0
C396 C 0.92097 0.63171 0.7712 0.0
C397 C 0.88654 0.59473 0.83102 0.0
C398 C 0.89648 0.60928 0.88739 0.0
H399 H 0.8912 0.59297 0.73198 0.0
H400 H 0.87027 0.57382 0.83092 0.0
S401 S 0.95109 0.68134 0.90424 0.0
N402 N 0.94991 0.67412 0.82867 0.0
N403 N 0.92742 0.65336 0.93622 0.0
C404 C 0.91721 0.63671 0.88491 0.0
C405 C 0.92952 0.64787 0.82671 0.0
C406 C 0.43146 0.38214 0.08082 0.0
C407 C 0.41957 0.3948 0.13742 0.0
C408 C 0.42098 0.39462 0.02367 0.0
C409 C 0.39828 0.42028 0.02098 0.0
H410 H 0.44997 0.36322 0.08041 0.0
H411 H 0.4318 0.38496 0.98149 0.0
S412 S 0.35569 0.45855 0.15502 0.0
N413 N 0.38098 0.43194 0.1868 0.0
N414 N 0.36122 0.45536 0.07919 0.0
C415 C 0.38456 0.43175 0.07692 0.0
C416 C 0.39518 0.41898 0.13521 0.0
C417 C 0.60344 0.89463 0.38244 0.0
C418 C 0.63009 0.91617 0.38646 0.0
C419 C 0.5907 0.88531 0.32457 0.0
C420 C 0.60436 0.89689 0.26865 0.0
H421 H 0.59123 0.88624 0.42416 0.0
H422 H 0.56937 0.86959 0.32385 0.0
S423 S 0.67737 0.95022 0.2543 0.0
N424 N 0.6719 0.94624 0.33001 0.0
N425 N 0.64805 0.92852 0.2211 0.0
C426 C 0.6324 0.91669 0.27205 0.0
C427 C 0.64521 0.92641 0.33104 0.0
C428 C 0.12573 0.41905 0.77403 0.0
C429 C 0.09639 0.40139 0.76924 0.0
C430 C 0.13874 0.42745 0.83225 0.0
C431 C 0.12313 0.41821 0.88797 0.0
H432 H 0.13821 0.42739 0.73257 0.0
H433 H 0.1609 0.44196 0.83342 0.0
S434 S 0.04782 0.36808 0.90071 0.0
N435 N 0.05353 0.37237 0.82517 0.0
N436 N 0.07819 0.38799 0.93445 0.0
C437 C 0.09471 0.39901 0.88384 0.0
C438 C 0.08126 0.39073 0.82452 0.0
C439 C 0.62737 0.64762 0.10427 0.0
C440 C 0.63108 0.62868 0.1584 0.0
C441 C 0.62741 0.63314 0.04515 0.0
C442 C 0.63124 0.59919 0.03789 0.0
H443 H 0.62307 0.67368 0.10748 0.0
H444 H 0.62396 0.64869 1.00495 0.0
S445 S 0.6449 0.53907 0.16471 0.0
N446 N 0.64116 0.5745 0.2007 0.0
N447 N 0.64094 0.54725 0.08996 0.0
C448 C 0.63632 0.58014 0.09155 0.0
C449 C 0.63641 0.5949 0.15164 0.0
C450 C 0.38968 0.09015 0.33682 0.0
C451 C 0.40134 0.10309 0.39348 0.0
C452 C 0.40231 0.10053 0.27978 0.0
C453 C 0.42723 0.12408 0.27727 0.0
H454 H 0.37119 0.07118 0.33634 0.0
H455 H 0.39327 0.08913 0.23755 0.0
S456 S 0.46335 0.16881 0.41125 0.0
N457 N 0.43716 0.14305 0.44294 0.0
N458 N 0.46093 0.16252 0.33549 0.0
C459 C 0.438 0.13847 0.33318 0.0
C460 C 0.425 0.12803 0.39136 0.0
C461 C 0.9331 0.88307 0.5847 0.0
C462 C 0.9211 0.89595 0.6411 0.0
C463 C 0.92249 0.89509 0.52722 0.0
C464 C 0.89958 0.92053 0.52401 0.0
H465 H 0.95172 0.86426 0.58473 0.0
H466 H 0.93346 0.88537 0.48523 0.0
S467 S 0.85648 0.95893 0.65739 0.0
N468 N 0.88211 0.93283 0.68975 0.0
N469 N 0.86202 0.95538 0.58161 0.0
C470 C 0.88564 0.93204 0.57979 0.0
C471 C 0.89638 0.91972 0.63839 0.0
C472 C 0.09025 0.14212 0.08667 0.0
C473 C 0.10409 0.13496 0.02831 0.0
C474 C 0.10458 0.131 0.14199 0.0
C475 C 0.13322 0.11191 0.14134 0.0
H476 H 0.06762 0.15577 0.08977 0.0
H477 H 0.09229 0.13638 0.18543 0.0
S478 S 0.18102 0.08881 1.00133 0.0
N479 N 0.14962 0.10956 0.97364 0.0
N480 N 0.17631 0.08842 0.07761 0.0
C481 C 0.14815 0.10575 0.08356 0.0
C482 C 0.1337 0.11735 0.02712 0.0
C483 C 0.89781 0.61208 0.38673 0.0
C484 C 0.92043 0.63805 0.38624 0.0
C485 C 0.88554 0.59875 0.33125 0.0
C486 C 0.89506 0.61104 0.27291 0.0
H487 H 0.89054 0.6009 0.43022 0.0
H488 H 0.86917 0.578 0.33424 0.0
S489 S 0.95069 0.6815 0.24626 0.0
N490 N 0.94971 0.67742 0.32264 0.0
N491 N 0.92646 0.65268 0.21837 0.0
C492 C 0.91618 0.63829 0.27184 0.0
C493 C 0.92892 0.65168 0.32844 0.0
C494 C 0.3891 0.4322 0.57673 0.0
C495 C 0.39656 0.41838 0.63495 0.0
C496 C 0.40184 0.41921 0.52143 0.0
C497 C 0.42295 0.39203 0.52194 0.0
H498 H 0.3739 0.45381 0.57378 0.0
H499 H 0.39603 0.43147 0.47818 0.0
S500 S 0.44799 0.34493 0.6616 0.0
N501 N 0.42467 0.37445 0.68931 0.0
N502 N 0.44883 0.35026 0.58549 0.0
C503 C 0.4295 0.37707 0.57957 0.0
C504 C 0.41624 0.39014 0.63596 0.0
C505 C 0.6265 0.90406 0.7992 0.0
C506 C 0.61212 0.93124 0.76986 0.0
C507 C 0.61469 0.89251 0.85669 0.0
C508 C 0.58751 0.90715 0.88562 0.0
H509 H 0.64727 0.89198 0.77808 0.0
H510 H 0.62657 0.87173 0.87813 0.0
S511 S 0.54086 0.97866 0.82736 0.0
N512 N 0.56924 0.97234 0.77422 0.0
N513 N 0.5468 0.95035 0.88072 0.0
C514 C 0.57282 0.93412 0.85633 0.0
C515 C 0.58518 0.94622 0.79885 0.0
C516 C 0.06223 0.38199 0.32679 0.0
C517 C 0.08463 0.38492 0.37636 0.0
C518 C 0.07095 0.38984 0.2656 0.0
C519 C 0.10255 0.40102 0.25069 0.0
H520 H 0.03729 0.37429 0.33529 0.0
H521 H 0.0523 0.38785 0.22992 0.0
S522 S 0.17137 0.41087 0.36231 0.0
N523 N 0.14061 0.39813 0.40569 0.0
N524 N 0.15705 0.41288 0.29051 0.0
C525 C 0.12573 0.4028 0.29926 0.0
C526 C 0.11678 0.39478 0.36199 0.0
C527 C 0.6115 0.62934 0.64944 0.0
C528 C 0.63852 0.60805 0.65085 0.0
C529 C 0.59881 0.64096 0.59301 0.0
C530 C 0.6128 0.63208 0.53561 0.0
H531 H 0.59907 0.63602 0.69208 0.0
H532 H 0.57727 0.65631 0.59447 0.0
S533 S 0.68639 0.58001 0.51425 0.0
N534 N 0.68058 0.58074 0.59024 0.0
N535 N 0.65706 0.60278 0.48425 0.0
C536 C 0.64102 0.6123 0.53658 0.0
C537 C 0.65375 0.60022 0.59411 0.0
C538 C 0.41643 0.13128 0.77874 0.0
C539 C 0.391 0.10807 0.78028 0.0
C540 C 0.43014 0.14384 0.83374 0.0
C541 C 0.41871 0.13409 0.89262 0.0
H542 H 0.42698 0.13871 0.73479 0.0
H543 H 0.45054 0.16061 0.82997 0.0
S544 S 0.35 0.07674 0.92214 0.0
N545 N 0.35312 0.07786 0.84559 0.0
N546 N 0.37852 0.10169 0.94884 0.0
C547 C 0.39196 0.11238 0.89477 0.0
C548 C 0.37824 0.09931 0.8387 0.0
C549 C 0.93941 0.9479 0.1103 0.0
C550 C 0.91272 0.93329 0.14066 0.0
C551 C 0.95136 0.93554 0.05409 0.0
C552 C 0.93674 0.90842 0.02487 0.0
H553 H 0.95165 0.96886 0.13061 0.0
H554 H 0.97209 0.9477 0.03296 0.0
S555 S 0.86574 0.86153 0.08408 0.0
N556 N 0.87189 0.89008 0.13737 0.0
N557 N 0.89381 0.86742 0.02999 0.0
C558 C 0.9097 0.89375 0.05399 0.0
C559 C 0.8979 0.90596 0.11238 0.0
loop_
_geom_bond_atom_site_label_1
_geom_bond_atom_site_label_2
_geom_bond_distance
_geom_bond_site_symmetry_2
_ccdc_geom_bond_type
Mg0 O7 2.141 . S
Mg0 O8 2.048 . S
Mg0 O9 2.048 . S
Mg0 O12 2.141 . S
C1 O2 1.313 . S
C1 O8 1.195 . S
O2 C1 1.313 . S
C3 O4 1.245 . S
C3 O12 1.289 . S
O4 C3 1.245 . S
C5 O6 1.245 . S
C5 O7 1.289 . S
O6 C5 1.245 . S
O7 Mg0 2.141 . S
O7 C5 1.289 . S
O8 Mg0 2.048 . S
O8 C1 1.195 . S
O9 Mg0 2.048 . S
O9 C10 1.195 . S
C10 O9 1.195 . S
C10 O11 1.313 . S
O11 C10 1.313 . S
O12 Mg0 2.141 . S
O12 C3 1.289 . S
Mg13 O20 2.141 . S
Mg13 O21 2.048 . S
Mg13 O22 2.048 . S
Mg13 O25 2.141 . S
C14 O15 1.313 . S
C14 O21 1.195 . S
O15 C14 1.313 . S
C16 O17 1.245 . S
C16 O25 1.289 . S
O17 C16 1.245 . S
C18 O19 1.245 . S
C18 O20 1.289 . S
O19 C18 1.245 . S
O20 Mg13 2.141 . S
O20 C18 1.289 . S
O21 Mg13 2.048 . S
O21 C14 1.195 . S
O22 Mg13 2.048 . S
O22 C23 1.195 . S
C23 O22 1.195 . S
C23 O24 1.313 . S
O24 C23 1.313 . S
O25 Mg13 2.141 . S
O25 C16 1.289 . S
Mg26 O33 2.141 . S
Mg26 O34 2.048 . S
Mg26 O35 2.048 . S
Mg26 O38 2.141 . S
C27 O28 1.313 . S
C27 O34 1.195 . S
O28 C27 1.313 . S
C29 O30 1.245 . S
C29 O38 1.289 . S
O30 C29 1.245 . S
C31 O32 1.245 . S
C31 O33 1.289 . S
O32 C31 1.245 . S
O33 Mg26 2.141 . S
O33 C31 1.289 . S
O34 Mg26 2.048 . S
O34 C27 1.195 . S
O35 Mg26 2.048 . S
O35 C36 1.195 . S
C36 O35 1.195 . S
C36 O37 1.313 . S
O37 C36 1.313 . S
O38 Mg26 2.141 . S
O38 C29 1.289 . S
Mg39 O46 2.141 . S
Mg39 O47 2.048 . S
Mg39 O48 2.048 . S
Mg39 O51 2.141 1_554 S
C40 O41 1.313 . S
C40 O47 1.195 . S
O41 C40 1.313 . S
C42 O43 1.245 . S
C42 O51 1.289 . S
O43 C42 1.245 . S
C44 O45 1.245 . S
C44 O46 1.289 . S
O45 C44 1.245 . S
O46 Mg39 2.141 . S
O46 C44 1.289 . S
O47 Mg39 2.048 . S
O47 C40 1.195 . S
O48 Mg39 2.048 . S
O48 C49 1.195 . S
C49 O48 1.195 . S
C49 O50 1.313 . S
O50 C49 1.313 . S
O51 Mg39 2.141 1_556 S
O51 C42 1.289 . S
Mg52 O59 2.141 . S
Mg52 O60 2.048 1_554 S
Mg52 O61 2.048 . S
Mg52 O64 2.141 . S
C53 O54 1.313 . S
C53 O60 1.195 . S
O54 C53 1.313 . S
C55 O56 1.245 . S
C55 O64 1.289 . S
O56 C55 1.245 . S
C57 O58 1.245 . S
C57 O59 1.289 . S
O58 C57 1.245 . S
O59 Mg52 2.141 . S
O59 C57 1.289 . S
O60 Mg52 2.048 1_556 S
O60 C53 1.195 . S
O61 Mg52 2.048 . S
O61 C62 1.195 . S
C62 O61 1.195 . S
C62 O63 1.313 . S
O63 C62 1.313 . S
O64 Mg52 2.141 . S
O64 C55 1.289 . S
Mg65 O72 2.141 . S
Mg65 O73 2.048 . S
Mg65 O74 2.048 . S
Mg65 O77 2.141 . S
C66 O67 1.313 . S
C66 O73 1.195 . S
O67 C66 1.313 . S
C68 O69 1.245 . S
C68 O77 1.289 . S
O69 C68 1.245 . S
C70 O71 1.245 . S
C70 O72 1.289 . S
O71 C70 1.245 . S
O72 Mg65 2.141 . S
O72 C70 1.289 . S
O73 Mg65 2.048 . S
O73 C66 1.195 . S
O74 Mg65 2.048 . S
O74 C75 1.195 . S
C75 O74 1.195 . S
C75 O76 1.313 . S
O76 C75 1.313 . S
O77 Mg65 2.141 . S
O77 C68 1.289 . S
Mg78 O85 2.141 . S
Mg78 O86 2.048 . S
Mg78 O87 2.048 . S
Mg78 O90 2.141 . S
C79 O80 1.313 . S
C79 O86 1.195 . S
O80 C79 1.313 . S
C81 O82 1.245 . S
C81 O90 1.289 . S
O82 C81 1.245 . S
C83 O84 1.245 . S
C83 O85 1.289 . S
O84 C83 1.245 . S
O85 Mg78 2.141 . S
O85 C83 1.289 . S
O86 Mg78 2.048 . S
O86 C79 1.195 . S
O87 Mg78 2.048 . S
O87 C88 1.195 . S
C88 O87 1.195 . S
C88 O89 1.313 . S
O89 C88 1.313 . S
O90 Mg78 2.141 . S
O90 C81 1.289 . S
Mg91 O98 2.141 . S
Mg91 O99 2.048 . S
Mg91 O100 2.048 . S
Mg91 O103 2.141 . S
C92 O93 1.313 . S
C92 O99 1.195 . S
O93 C92 1.313 . S
C94 O95 1.245 . S
C94 O103 1.289 . S
O95 C94 1.245 . S
C96 O97 1.245 . S
C96 O98 1.289 . S
O97 C96 1.245 . S
O98 Mg91 2.141 . S
O98 C96 1.289 . S
O99 Mg91 2.048 . S
O99 C92 1.195 . S
O100 Mg91 2.048 . S
O100 C101 1.195 . S
C101 O100 1.195 . S
C101 O102 1.313 . S
O102 C101 1.313 . S
O103 Mg91 2.141 . S
O103 C94 1.289 . S
Mg104 O111 2.141 . S
Mg104 O112 2.048 . S
Mg104 O113 2.048 . S
Mg104 O116 2.141 . S
C105 O106 1.313 . S
C105 O112 1.195 . S
O106 C105 1.313 . S
C107 O108 1.245 . S
C107 O116 1.289 . S
O108 C107 1.245 . S
C109 O110 1.245 . S
C109 O111 1.289 . S
O110 C109 1.245 . S
O111 Mg104 2.141 . S
O111 C109 1.289 . S
O112 Mg104 2.048 . S
O112 C105 1.195 . S
O113 Mg104 2.048 . S
O113 C114 1.195 . S
C114 O113 1.195 . S
C114 O115 1.313 . S
O115 C114 1.313 . S
O116 Mg104 2.141 . S
O116 C107 1.289 . S
Mg117 O124 2.141 . S
Mg117 O125 2.048 . S
Mg117 O126 2.048 . S
Mg117 O129 2.141 1_554 S
C118 O119 1.313 . S
C118 O125 1.195 . S
O119 C118 1.313 . S
C120 O121 1.245 . S
C120 O129 1.289 . S
O121 C120 1.245 . S
C122 O123 1.245 . S
C122 O124 1.289 . S
O123 C122 1.245 . S
O124 Mg117 2.141 . S
O124 C122 1.289 . S
O125 Mg117 2.048 . S
O125 C118 1.195 . S
O126 Mg117 2.048 . S
O126 C127 1.195 . S
C127 O126 1.195 . S
C127 O128 1.313 . S
O128 C127 1.313 . S
O129 Mg117 2.141 1_556 S
O129 C120 1.289 . S
Mg130 O137 2.141 . S
Mg130 O138 2.048 . S
Mg130 O139 2.048 . S
Mg130 O142 2.141 . S
C131 O132 1.313 . S
C131 O138 1.195 . S
O132 C131 1.313 . S
C133 O134 1.245 . S
C133 O142 1.289 . S
O134 C133 1.245 . S
C135 O136 1.245 . S
C135 O137 1.289 . S
O136 C135 1.245 . S
O137 Mg130 2.141 . S
O137 C135 1.289 . S
O138 Mg130 2.048 . S
O138 C131 1.195 . S
O139 Mg130 2.048 . S
O139 C140 1.195 . S
C140 O139 1.195 . S
C140 O141 1.313 . S
O141 C140 1.313 . S
O142 Mg130 2.141 . S
O142 C133 1.289 . S
Mg143 O150 2.141 . S
Mg143 O151 2.048 . S
Mg143 O152 2.048 . S
Mg143 O155 2.141 . S
C144 O145 1.313 . S
C144 O151 1.195 . S
O145 C144 1.313 . S
C146 O147 1.245 . S
C146 O155 1.289 . S
O147 C146 1.245 . S
C148 O149 1.245 . S
C148 O150 1.289 . S
O149 C148 1.245 . S
O150 Mg143 2.141 . S
O150 C148 1.289 . S
O151 Mg143 2.048 . S
O151 C144 1.195 . S
O152 Mg143 2.048 . S
O152 C153 1.195 . S
C153 O152 1.195 . S
C153 O154 1.313 . S
O154 C153 1.313 . S
O155 Mg143 2.141 . S
O155 C146 1.289 . S
Mg156 O163 2.141 . S
Mg156 O164 2.048 . S
Mg156 O165 2.048 . S
Mg156 O168 2.141 . S
C157 O158 1.313 . S
C157 O164 1.195 . S
O158 C157 1.313 . S
C159 O160 1.245 . S
C159 O168 1.289 . S
O160 C159 1.245 . S
C161 O162 1.245 . S
C161 O163 1.289 . S
O162 C161 1.245 . S
O163 Mg156 2.141 . S
O163 C161 1.289 . S
O164 Mg156 2.048 . S
O164 C157 1.195 . S
O165 Mg156 2.048 . S
O165 C166 1.195 . S
C166 O165 1.195 . S
C166 O167 1.313 . S
O167 C166 1.313 . S
O168 Mg156 2.141 . S
O168 C159 1.289 . S
Mg169 O176 2.141 . S
Mg169 O177 2.048 . S
Mg169 O178 2.048 . S
Mg169 O181 2.141 . S
C170 O171 1.313 . S
C170 O177 1.195 . S
O171 C170 1.313 . S
C172 O173 1.245 . S
C172 O181 1.289 . S
O173 C172 1.245 . S
C174 O175 1.245 . S
C174 O176 1.289 . S
O175 C174 1.245 . S
O176 Mg169 2.141 . S
O176 C174 1.289 . S
O177 Mg169 2.048 . S
O177 C170 1.195 . S
O178 Mg169 2.048 . S
O178 C179 1.195 . S
C179 O178 1.195 . S
C179 O180 1.313 . S
O180 C179 1.313 . S
O181 Mg169 2.141 . S
O181 C172 1.289 . S
Mg182 O189 2.141 . S
Mg182 O190 2.048 1_554 S
Mg182 O191 2.048 . S
Mg182 O194 2.141 . S
C183 O184 1.313 . S
C183 O190 1.195 . S
O184 C183 1.313 . S
C185 O186 1.245 . S
C185 O194 1.289 . S
O186 C185 1.245 . S
C187 O188 1.245 . S
C187 O189 1.289 . S
O188 C187 1.245 . S
O189 Mg182 2.141 . S
O189 C187 1.289 . S
O190 Mg182 2.048 1_556 S
O190 C183 1.195 . S
O191 Mg182 2.048 . S
O191 C192 1.195 . S
C192 O191 1.195 . S
C192 O193 1.313 . S
O193 C192 1.313 . S
O194 Mg182 2.141 . S
O194 C185 1.289 . S
Mg195 O202 2.141 . S
Mg195 O203 2.048 . S
Mg195 O204 2.048 . S
Mg195 O207 2.141 . S
C196 O197 1.313 . S
C196 O203 1.195 . S
O197 C196 1.313 . S
C198 O199 1.245 . S
C198 O207 1.289 . S
O199 C198 1.245 . S
C200 O201 1.245 . S
C200 O202 1.289 . S
O201 C200 1.245 . S
O202 Mg195 2.141 . S
O202 C200 1.289 . S
O203 Mg195 2.048 . S
O203 C196 1.195 . S
O204 Mg195 2.048 . S
O204 C205 1.195 . S
C205 O204 1.195 . S
C205 O206 1.313 . S
O206 C205 1.313 . S
O207 Mg195 2.141 . S
O207 C198 1.289 . S
C208 C209 1.369 . S
C208 C210 1.419 . S
C208 H212 0.930 . S
C209 C208 1.369 . S
C209 C218 1.429 . S
C210 C208 1.419 . S
C210 C211 1.363 . S
C210 H213 0.929 . S
C211 C210 1.363 . S
C211 C217 1.428 . S
H212 C208 0.930 . S
H213 C210 0.929 . S
S214 N215 1.613 . S
S214 N216 1.610 . S
N215 S214 1.613 . S
N215 C218 1.350 . S
N216 S214 1.610 . S
N216 C217 1.351 . S
C217 C211 1.428 . S
C217 N216 1.351 . S
C217 C218 1.434 . S
C218 C209 1.429 . S
C218 N215 1.350 . S
C218 C217 1.434 . S
C219 C220 1.369 . S
C219 C221 1.419 . S
C219 H223 0.930 . S
C220 C219 1.369 . S
C220 C229 1.429 . S
C221 C219 1.419 . S
C221 C222 1.363 . S
C221 H224 0.929 . S
C222 C221 1.363 . S
C222 C228 1.428 . S
H223 C219 0.930 . S
H224 C221 0.929 . S
S225 N226 1.613 . S
S225 N227 1.610 . S
N226 S225 1.613 . S
N226 C229 1.350 . S
N227 S225 1.610 . S
N227 C228 1.351 . S
C228 C222 1.428 . S
C228 N227 1.351 . S
C228 C229 1.434 . S
C229 C220 1.429 . S
C229 N226 1.350 . S
C229 C228 1.434 . S
C230 C231 1.369 . S
C230 C232 1.419 . S
C230 H234 0.930 . S
C231 C230 1.369 . S
C231 C240 1.429 . S
C232 C230 1.419 . S
C232 C233 1.363 . S
C232 H235 0.929 . S
C233 C232 1.363 . S
C233 C239 1.428 . S
H234 C230 0.930 . S
H235 C232 0.929 . S
S236 N237 1.613 . S
S236 N238 1.610 . S
N237 S236 1.613 . S
N237 C240 1.350 . S
N238 S236 1.610 . S
N238 C239 1.351 . S
C239 C233 1.428 . S
C239 N238 1.351 . S
C239 C240 1.434 . S
C240 C231 1.429 . S
C240 N237 1.350 . S
C240 C239 1.434 . S
C241 C242 1.369 . S
C241 C243 1.419 . S
C241 H245 0.930 . S
C242 C241 1.369 . S
C242 C251 1.429 . S
C243 C241 1.419 . S
C243 C244 1.363 . S
C243 H246 0.929 . S
C244 C243 1.363 . S
C244 C250 1.428 . S
H245 C241 0.930 . S
H246 C243 0.929 . S
S247 N248 1.613 . S
S247 N249 1.610 . S
N248 S247 1.613 . S
N248 C251 1.350 . S
N249 S247 1.610 . S
N249 C250 1.351 . S
C250 C244 1.428 . S
C250 N249 1.351 . S
C250 C251 1.434 . S
C251 C242 1.429 . S
C251 N248 1.350 . S
C251 C250 1.434 . S
C252 C253 1.369 . S
C252 C254 1.419 . S
C252 H256 0.930 . S
C253 C252 1.369 . S
C253 C262 1.429 . S
C254 C252 1.419 . S
C254 C255 1.363 . S
C254 H257 0.929 . S
C255 C254 1.363 . S
C255 C261 1.428 1_556 S
H256 C252 0.930 . S
H257 C254 0.929 . S
S258 N259 1.613 1_554 S
S258 N260 1.610 . S
N259 S258 1.613 1_556 S
N259 C262 1.350 . S
N260 S258 1.610 . S
N260 C261 1.351 . S
C261 C255 1.428 1_554 S
C261 N260 1.351 . S
C261 C262 1.434 1_554 S
C262 C253 1.429 . S
C262 N259 1.350 . S
C262 C261 1.434 1_556 S
C263 C264 1.369 . S
C263 C265 1.419 . S
C263 H267 0.930 . S
C264 C263 1.369 . S
C264 C273 1.429 . S
C265 C263 1.419 . S
C265 C266 1.363 . S
C265 H268 0.929 . S
C266 C265 1.363 . S
C266 C272 1.428 . S
H267 C263 0.930 . S
H268 C265 0.929 . S
S269 N270 1.613 . S
S269 N271 1.610 . S
N270 S269 1.613 . S
N270 C273 1.350 . S
N271 S269 1.610 . S
N271 C272 1.351 . S
C272 C266 1.428 . S
C272 N271 1.351 . S
C272 C273 1.434 . S
C273 C264 1.429 . S
C273 N270 1.350 . S
C273 C272 1.434 . S
C274 C275 1.369 . S
C274 C276 1.419 . S
C274 H278 0.930 . S
C275 C274 1.369 . S
C275 C284 1.429 . S
C276 C274 1.419 . S
C276 C277 1.363 . S
C276 H279 0.929 . S
C277 C276 1.363 . S
C277 C283 1.428 . S
H278 C274 0.930 . S
H279 C276 0.929 . S
S280 N281 1.613 . S
S280 N282 1.610 . S
N281 S280 1.613 . S
N281 C284 1.350 . S
N282 S280 1.610 . S
N282 C283 1.351 . S
C283 C277 1.428 . S
C283 N282 1.351 . S
C283 C284 1.434 . S
C284 C275 1.429 . S
C284 N281 1.350 . S
C284 C283 1.434 . S
C285 C286 1.369 . S
C285 C287 1.419 . S
C285 H289 0.930 . S
C286 C285 1.369 . S
C286 C295 1.429 . S
C287 C285 1.419 . S
C287 C288 1.363 . S
C287 H290 0.929 . S
C288 C287 1.363 . S
C288 C294 1.428 . S
H289 C285 0.930 . S
H290 C287 0.929 . S
S291 N292 1.613 . S
S291 N293 1.610 . S
N292 S291 1.613 . S
N292 C295 1.350 . S
N293 S291 1.610 . S
N293 C294 1.351 . S
C294 C288 1.428 . S
C294 N293 1.351 . S
C294 C295 1.434 . S
C295 C286 1.429 . S
C295 N292 1.350 . S
C295 C294 1.434 . S
C296 C297 1.369 . S
C296 C298 1.419 1_445 S
C296 H300 0.930 . S
C297 C296 1.369 . S
C297 C306 1.429 . S
C298 C296 1.419 1_665 S
C298 C299 1.363 . S
C298 H301 0.929 . S
C299 C298 1.363 . S
C299 C305 1.428 . S
H300 C296 0.930 . S
H301 C298 0.929 . S
S302 N303 1.611 1_655 S
S302 N304 1.612 1_545 S
N303 S302 1.611 1_455 S
N303 C306 1.350 . S
N304 S302 1.612 1_565 S
N304 C305 1.351 . S
C305 C299 1.428 . S
C305 N304 1.351 . S
C305 C306 1.434 1_665 S
C306 C297 1.429 . S
C306 N303 1.350 . S
C306 C305 1.434 1_445 S
C307 C308 1.369 . S
C307 C309 1.419 1_655 S
C307 H311 0.930 . S
C308 C307 1.369 . S
C308 C317 1.429 . S
C309 C307 1.419 1_455 S
C309 C310 1.363 . S
C309 H312 0.929 . S
C310 C309 1.363 . S
C310 C316 1.428 . S
H311 C307 0.930 . S
H312 C309 0.929 . S
S313 N314 1.625 . S
S313 N315 1.610 . S
N314 S313 1.625 . S
N314 C317 1.349 1_455 S
N315 S313 1.610 . S
N315 C316 1.351 . S
C316 C310 1.428 . S
C316 N315 1.351 . S
C316 C317 1.434 1_455 S
C317 C308 1.429 . S
C317 N314 1.349 1_655 S
C317 C316 1.434 1_655 S
C318 C319 1.369 . S
C318 C320 1.419 . S
C318 H322 0.930 . S
C319 C318 1.369 . S
C319 C328 1.429 . S
C320 C318 1.419 . S
C320 C321 1.363 . S
C320 H323 0.929 . S
C321 C320 1.363 . S
C321 C327 1.428 . S
H322 C318 0.930 . S
H323 C320 0.929 . S
S324 N325 1.613 . S
S324 N326 1.610 . S
N325 S324 1.613 . S
N325 C328 1.350 . S
N326 S324 1.610 . S
N326 C327 1.351 . S
C327 C321 1.428 . S
C327 N326 1.351 . S
C327 C328 1.434 . S
C328 C319 1.429 . S
C328 N325 1.350 . S
C328 C327 1.434 . S
C329 C330 1.369 1_545 S
C329 C331 1.419 . S
C329 H333 0.930 . S
C330 C329 1.369 1_565 S
C330 C339 1.429 . S
C331 C329 1.419 . S
C331 C332 1.363 . S
C331 H334 0.929 . S
C332 C331 1.363 . S
C332 C338 1.428 1_545 S
H333 C329 0.930 . S
H334 C331 0.929 . S
S335 N336 1.613 . S
S335 N337 1.610 . S
N336 S335 1.613 . S
N336 C339 1.350 . S
N337 S335 1.610 . S
N337 C338 1.351 . S
C338 C332 1.428 1_565 S
C338 N337 1.351 . S
C338 C339 1.434 . S
C339 C330 1.429 . S
C339 N336 1.350 . S
C339 C338 1.434 . S
C340 C341 1.369 . S
C340 C342 1.419 . S
C340 H344 0.930 . S
C341 C340 1.369 . S
C341 C350 1.429 1_455 S
C342 C340 1.419 . S
C342 C343 1.363 1_455 S
C342 H345 0.929 . S
C343 C342 1.363 1_655 S
C343 C349 1.428 . S
H344 C340 0.930 . S
H345 C342 0.929 . S
S346 N347 1.613 . S
S346 N348 1.610 . S
N347 S346 1.613 . S
N347 C350 1.350 . S
N348 S346 1.610 . S
N348 C349 1.351 . S
C349 C343 1.428 . S
C349 N348 1.351 . S
C349 C350 1.434 . S
C350 C341 1.429 1_655 S
C350 N347 1.350 . S
C350 C349 1.434 . S
C351 C352 1.369 . S
C351 C353 1.419 . S
C351 H355 0.930 . S
C352 C351 1.369 . S
C352 C361 1.429 . S
C353 C351 1.419 . S
C353 C354 1.363 . S
C353 H356 0.929 . S
C354 C353 1.363 . S
C354 C360 1.428 . S
H355 C351 0.930 . S
H356 C353 0.929 . S
S357 N358 1.613 . S
S357 N359 1.610 . S
N358 S357 1.613 . S
N358 C361 1.350 . S
N359 S357 1.610 . S
N359 C360 1.351 . S
C360 C354 1.428 . S
C360 N359 1.351 . S
C360 C361 1.434 . S
C361 C352 1.429 . S
C361 N358 1.350 . S
C361 C360 1.434 . S
C362 C363 1.369 . S
C362 C364 1.419 1_545 S
C362 H366 0.930 . S
C363 C362 1.369 . S
C363 C372 1.429 . S
C364 C362 1.419 1_565 S
C364 C365 1.363 . S
C364 H367 0.929 . S
C365 C364 1.363 . S
C365 C371 1.428 . S
H366 C362 0.930 . S
H367 C364 0.929 . S
S368 N369 1.613 . S
S368 N370 1.584 1_545 S
N369 S368 1.613 . S
N369 C372 1.350 . S
N370 S368 1.584 1_565 S
N370 C371 1.353 . S
C371 C365 1.428 . S
C371 N370 1.353 . S
C371 C372 1.434 1_565 S
C372 C363 1.429 . S
C372 N369 1.350 . S
C372 C371 1.434 1_545 S
C373 C374 1.369 1_565 S
C373 C375 1.419 1_455 S
C373 H377 0.930 . S
C374 C373 1.369 1_545 S
C374 C383 1.429 . S
C375 C373 1.419 1_655 S
C375 C376 1.363 . S
C375 H378 0.929 . S
C376 C375 1.363 . S
C376 C382 1.428 1_565 S
H377 C373 0.930 . S
H378 C375 0.929 . S
S379 N380 1.598 1_655 S
S379 N381 1.610 . S
N380 S379 1.598 1_455 S
N380 C383 1.351 . S
N381 S379 1.610 . S
N381 C382 1.351 . S
C382 C376 1.428 1_545 S
C382 N381 1.351 . S
C382 C383 1.434 1_655 S
C383 C374 1.429 . S
C383 N380 1.351 . S
C383 C382 1.434 1_455 S
C384 C385 1.369 . S
C384 C386 1.419 . S
C384 H388 0.930 . S
C385 C384 1.369 . S
C385 C394 1.429 . S
C386 C384 1.419 . S
C386 C387 1.363 . S
C386 H389 0.929 . S
C387 C386 1.363 . S
C387 C393 1.428 . S
H388 C384 0.930 . S
H389 C386 0.929 . S
S390 N391 1.613 . S
S390 N392 1.610 . S
N391 S390 1.613 . S
N391 C394 1.350 . S
N392 S390 1.610 . S
N392 C393 1.351 . S
C393 C387 1.428 . S
C393 N392 1.351 . S
C393 C394 1.434 . S
C394 C385 1.429 . S
C394 N391 1.350 . S
C394 C393 1.434 . S
C395 C396 1.369 . S
C395 C397 1.419 . S
C395 H399 0.930 . S
C396 C395 1.369 . S
C396 C405 1.429 . S
C397 C395 1.419 . S
C397 C398 1.363 . S
C397 H400 0.929 . S
C398 C397 1.363 . S
C398 C404 1.428 . S
H399 C395 0.930 . S
H400 C397 0.929 . S
S401 N402 1.613 . S
S401 N403 1.610 . S
N402 S401 1.613 . S
N402 C405 1.350 . S
N403 S401 1.610 . S
N403 C404 1.351 . S
C404 C398 1.428 . S
C404 N403 1.351 . S
C404 C405 1.434 . S
C405 C396 1.429 . S
C405 N402 1.350 . S
C405 C404 1.434 . S
C406 C407 1.369 . S
C406 C408 1.419 . S
C406 H410 0.930 . S
C407 C406 1.369 . S
C407 C416 1.429 . S
C408 C406 1.419 . S
C408 C409 1.363 . S
C408 H411 0.929 1_554 S
C409 C408 1.363 . S
C409 C415 1.428 . S
H410 C406 0.930 . S
H411 C408 0.929 1_556 S
S412 N413 1.613 . S
S412 N414 1.610 . S
N413 S412 1.613 . S
N413 C416 1.350 . S
N414 S412 1.610 . S
N414 C415 1.351 . S
C415 C409 1.428 . S
C415 N414 1.351 . S
C415 C416 1.434 . S
C416 C407 1.429 . S
C416 N413 1.350 . S
C416 C415 1.434 . S
C417 C418 1.369 . S
C417 C419 1.419 . S
C417 H421 0.930 . S
C418 C417 1.369 . S
C418 C427 1.429 . S
C419 C417 1.419 . S
C419 C420 1.363 . S
C419 H422 0.929 . S
C420 C419 1.363 . S
C420 C426 1.428 . S
H421 C417 0.930 . S
H422 C419 0.929 . S
S423 N424 1.613 . S
S423 N425 1.610 . S
N424 S423 1.613 . S
N424 C427 1.350 . S
N425 S423 1.610 . S
N425 C426 1.351 . S
C426 C420 1.428 . S
C426 N425 1.351 . S
C426 C427 1.434 . S
C427 C418 1.429 . S
C427 N424 1.350 . S
C427 C426 1.434 . S
C428 C429 1.369 . S
C428 C430 1.419 . S
C428 H432 0.930 . S
C429 C428 1.369 . S
C429 C438 1.429 . S
C430 C428 1.419 . S
C430 C431 1.363 . S
C430 H433 0.929 . S
C431 C430 1.363 . S
C431 C437 1.428 . S
H432 C428 0.930 . S
H433 C430 0.929 . S
S434 N435 1.613 . S
S434 N436 1.610 . S
N435 S434 1.613 . S
N435 C438 1.350 . S
N436 S434 1.610 . S
N436 C437 1.351 . S
C437 C431 1.428 . S
C437 N436 1.351 . S
C437 C438 1.434 . S
C438 C429 1.429 . S
C438 N435 1.350 . S
C438 C437 1.434 . S
C439 C440 1.369 . S
C439 C441 1.419 . S
C439 H443 0.930 . S
C440 C439 1.369 . S
C440 C449 1.429 . S
C441 C439 1.419 . S
C441 C442 1.363 . S
C441 H444 0.929 1_554 S
C442 C441 1.363 . S
C442 C448 1.428 . S
H443 C439 0.930 . S
H444 C441 0.929 1_556 S
S445 N446 1.613 . S
S445 N447 1.610 . S
N446 S445 1.613 . S
N446 C449 1.350 . S
N447 S445 1.610 . S
N447 C448 1.351 . S
C448 C442 1.428 . S
C448 N447 1.351 . S
C448 C449 1.434 . S
C449 C440 1.429 . S
C449 N446 1.350 . S
C449 C448 1.434 . S
C450 C451 1.369 . S
C450 C452 1.419 . S
C450 H454 0.930 . S
C451 C450 1.369 . S
C451 C460 1.429 . S
C452 C450 1.419 . S
C452 C453 1.363 . S
C452 H455 0.929 . S
C453 C452 1.363 . S
C453 C459 1.428 . S
H454 C450 0.930 . S
H455 C452 0.929 . S
S456 N457 1.613 . S
S456 N458 1.610 . S
N457 S456 1.613 . S
N457 C460 1.350 . S
N458 S456 1.610 . S
N458 C459 1.351 . S
C459 C453 1.428 . S
C459 N458 1.351 . S
C459 C460 1.434 . S
C460 C451 1.429 . S
C460 N457 1.350 . S
C460 C459 1.434 . S
C461 C462 1.369 . S
C461 C463 1.419 . S
C461 H465 0.930 . S
C462 C461 1.369 . S
C462 C471 1.429 . S
C463 C461 1.419 . S
C463 C464 1.363 . S
C463 H466 0.929 . S
C464 C463 1.363 . S
C464 C470 1.428 . S
H465 C461 0.930 . S
H466 C463 0.929 . S
S467 N468 1.613 . S
S467 N469 1.610 . S
N468 S467 1.613 . S
N468 C471 1.350 . S
N469 S467 1.610 . S
N469 C470 1.351 . S
C470 C464 1.428 . S
C470 N469 1.351 . S
C470 C471 1.434 . S
C471 C462 1.429 . S
C471 N468 1.350 . S
C471 C470 1.434 . S
C472 C473 1.369 . S
C472 C474 1.419 . S
C472 H476 0.930 . S
C473 C472 1.369 . S
C473 C482 1.429 . S
C474 C472 1.419 . S
C474 C475 1.363 . S
C474 H477 0.929 . S
C475 C474 1.363 . S
C475 C481 1.428 . S
H476 C472 0.930 . S
H477 C474 0.929 . S
S478 N479 1.613 1_554 S
S478 N480 1.610 . S
N479 S478 1.613 1_556 S
N479 C482 1.350 1_556 S
N480 S478 1.610 . S
N480 C481 1.351 . S
C481 C475 1.428 . S
C481 N480 1.351 . S
C481 C482 1.434 . S
C482 C473 1.429 . S
C482 N479 1.350 1_554 S
C482 C481 1.434 . S
C483 C484 1.369 . S
C483 C485 1.419 . S
C483 H487 0.930 . S
C484 C483 1.369 . S
C484 C493 1.429 . S
C485 C483 1.419 . S
C485 C486 1.363 . S
C485 H488 0.929 . S
C486 C485 1.363 . S
C486 C492 1.428 . S
H487 C483 0.930 . S
H488 C485 0.929 . S
S489 N490 1.613 . S
S489 N491 1.610 . S
N490 S489 1.613 . S
N490 C493 1.350 . S
N491 S489 1.610 . S
N491 C492 1.351 . S
C492 C486 1.428 . S
C492 N491 1.351 . S
C492 C493 1.434 . S
C493 C484 1.429 . S
C493 N490 1.350 . S
C493 C492 1.434 . S
C494 C495 1.369 . S
C494 C496 1.419 . S
C494 H498 0.930 . S
C495 C494 1.369 . S
C495 C504 1.429 . S
C496 C494 1.419 . S
C496 C497 1.363 . S
C496 H499 0.929 . S
C497 C496 1.363 . S
C497 C503 1.428 . S
H498 C494 0.930 . S
H499 C496 0.929 . S
S500 N501 1.613 . S
S500 N502 1.610 . S
N501 S500 1.613 . S
N501 C504 1.350 . S
N502 S500 1.610 . S
N502 C503 1.351 . S
C503 C497 1.428 . S
C503 N502 1.351 . S
C503 C504 1.434 . S
C504 C495 1.429 . S
C504 N501 1.350 . S
C504 C503 1.434 . S
C505 C506 1.369 . S
C505 C507 1.419 . S
C505 H509 0.930 . S
C506 C505 1.369 . S
C506 C515 1.429 . S
C507 C505 1.419 . S
C507 C508 1.363 . S
C507 H510 0.929 . S
C508 C507 1.363 . S
C508 C514 1.428 . S
H509 C505 0.930 . S
H510 C507 0.929 . S
S511 N512 1.613 . S
S511 N513 1.610 . S
N512 S511 1.613 . S
N512 C515 1.350 . S
N513 S511 1.610 . S
N513 C514 1.351 . S
C514 C508 1.428 . S
C514 N513 1.351 . S
C514 C515 1.434 . S
C515 C506 1.429 . S
C515 N512 1.350 . S
C515 C514 1.434 . S
C516 C517 1.369 . S
C516 C518 1.419 . S
C516 H520 0.930 . S
C517 C516 1.369 . S
C517 C526 1.429 . S
C518 C516 1.419 . S
C518 C519 1.363 . S
C518 H521 0.929 . S
C519 C518 1.363 . S
C519 C525 1.428 . S
H520 C516 0.930 . S
H521 C518 0.929 . S
S522 N523 1.613 . S
S522 N524 1.610 . S
N523 S522 1.613 . S
N523 C526 1.350 . S
N524 S522 1.610 . S
N524 C525 1.351 . S
C525 C519 1.428 . S
C525 N524 1.351 . S
C525 C526 1.434 . S
C526 C517 1.429 . S
C526 N523 1.350 . S
C526 C525 1.434 . S
C527 C528 1.369 . S
C527 C529 1.419 . S
C527 H531 0.930 . S
C528 C527 1.369 . S
C528 C537 1.429 . S
C529 C527 1.419 . S
C529 C530 1.363 . S
C529 H532 0.929 . S
C530 C529 1.363 . S
C530 C536 1.428 . S
H531 C527 0.930 . S
H532 C529 0.929 . S
S533 N534 1.613 . S
S533 N535 1.610 . S
N534 S533 1.613 . S
N534 C537 1.350 . S
N535 S533 1.610 . S
N535 C536 1.351 . S
C536 C530 1.428 . S
C536 N535 1.351 . S
C536 C537 1.434 . S
C537 C528 1.429 . S
C537 N534 1.350 . S
C537 C536 1.434 . S
C538 C539 1.369 . S
C538 C540 1.419 . S
C538 H542 0.930 . S
C539 C538 1.369 . S
C539 C548 1.429 . S
C540 C538 1.419 . S
C540 C541 1.363 . S
C540 H543 0.929 . S
C541 C540 1.363 . S
C541 C547 1.428 . S
H542 C538 0.930 . S
H543 C540 0.929 . S
S544 N545 1.613 . S
S544 N546 1.610 . S
N545 S544 1.613 . S
N545 C548 1.350 . S
N546 S544 1.610 . S
N546 C547 1.351 . S
C547 C541 1.428 . S
C547 N546 1.351 . S
C547 C548 1.434 . S
C548 C539 1.429 . S
C548 N545 1.350 . S
C548 C547 1.434 . S
C549 C550 1.369 . S
C549 C551 1.419 . S
C549 H553 0.930 . S
C550 C549 1.369 . S
C550 C559 1.429 . S
C551 C549 1.419 . S
C551 C552 1.363 . S
C551 H554 0.929 . S
C552 C551 1.363 . S
C552 C558 1.428 . S
H553 C549 0.930 . S
H554 C551 0.929 . S
S555 N556 1.613 . S
S555 N557 1.610 . S
N556 S555 1.613 . S
N556 C559 1.350 . S
N557 S555 1.610 . S
N557 C558 1.351 . S
C558 C552 1.428 . S
C558 N557 1.351 . S
C558 C559 1.434 . S
C559 C550 1.429 . S
C559 N556 1.350 . S
C559 C558 1.434 . S
C209 C83 2.014 . S
C211 C5 2.017 . S
C220 C96 2.017 . S
C222 C18 2.021 . S
C231 C31 2.014 . S
C233 C57 2.016 1_556 S
C242 C44 2.023 . S
C244 C70 2.019 . S
C253 C109 2.017 . S
C255 C187 2.021 1_556 S
C264 C200 2.017 . S
C266 C122 2.021 . S
C275 C135 2.015 . S
C277 C161 2.016 . S
C286 C148 2.016 . S
C288 C174 2.021 . S
C297 C10 1.940 . S
C299 C140 1.944 . S
C308 C23 1.938 . S
C310 C153 1.947 . S
C319 C36 1.941 . S
C321 C114 1.943 . S
C330 C49 1.940 . S
C332 C127 1.947 . S
C341 C62 1.948 . S
C343 C192 1.939 . S
C352 C205 1.938 . S
C354 C75 1.946 . S
C363 C88 1.949 . S
C365 C166 1.939 . S
C374 C179 1.940 . S
C376 C101 1.947 . S
C385 C170 0.737 . S
C387 C1 0.733 . S
C396 C14 0.737 . S
C398 C183 0.734 . S
C407 C196 0.734 . S
C409 C27 0.736 1_554 S
C418 C157 0.737 . S
C420 C40 0.733 . S
C429 C144 0.733 . S
C431 C53 0.734 . S
C440 C66 0.732 . S
C442 C105 0.736 1_554 S
C451 C79 0.734 . S
C453 C118 0.737 . S
C462 C92 0.732 . S
C464 C131 0.735 . S
C473 C172 1.810 1_554 S
C475 C3 1.811 . S
C484 C16 1.813 . S
C486 C185 1.810 . S
C495 C29 1.810 . S
C497 C198 1.812 . S
C506 C159 1.811 . S
C508 C42 1.810 . S
C517 C146 1.811 . S
C519 C55 1.813 . S
C528 C107 1.812 . S
C530 C68 1.812 . S
C539 C81 1.813 . S
C541 C120 1.811 . S
C550 C133 1.811 . S
C552 C94 1.812 1_554 S
