# Generated by pormake.
# Topology unr, (4)-cn, num edge types: 1
# Building blocks:
#     Node 0, Type 0, BuildingBlock: QUQFOY_clean_sbu_1, # of connection points: 4
#     Node 1, Type 0, BuildingBlock: QUQFOY_clean_sbu_1, # of connection points: 4
#     Node 2, Type 0, BuildingBlock: QUQFOY_clean_sbu_1, # of connection points: 4
#     Node 3, Type 0, BuildingBlock: QUQFOY_clean_sbu_1, # of connection points: 4
#     Node 4, Type 0, BuildingBlock: QUQFOY_clean_sbu_1, # of connection points: 4
#     Node 5, Type 0, BuildingBlock: QUQFOY_clean_sbu_1, # of connection points: 4
#     Node 6, Type 0, BuildingBlock: QUQFOY_clean_sbu_1, # of connection points: 4
#     Node 7, Type 0, BuildingBlock: QUQFOY_clean_sbu_1, # of connection points: 4
#     Node 8, Type 0, BuildingBlock: QUQFOY_clean_sbu_1, # of connection points: 4
#     Node 9, Type 0, BuildingBlock: QUQFOY_clean_sbu_1, # of connection points: 4
#     Node 10, Type 0, BuildingBlock: QUQFOY_clean_sbu_1, # of connection points: 4
#     Node 11, Type 0, BuildingBlock: QUQFOY_clean_sbu_1, # of connection points: 4
#     Node 12, Type 0, BuildingBlock: QUQFOY_clean_sbu_1, # of connection points: 4
#     Node 13, Type 0, BuildingBlock: QUQFOY_clean_sbu_1, # of connection points: 4
#     Node 14, Type 0, BuildingBlock: QUQFOY_clean_sbu_1, # of connection points: 4
#     Node 15, Type 0, BuildingBlock: QUQFOY_clean_sbu_1, # of connection points: 4
#     Node 16, Type 0, BuildingBlock: QUQFOY_clean_sbu_1, # of connection points: 4
#     Node 17, Type 0, BuildingBlock: QUQFOY_clean_sbu_1, # of connection points: 4
#     Node 18, Type 0, BuildingBlock: QUQFOY_clean_sbu_1, # of connection points: 4
#     Node 19, Type 0, BuildingBlock: QUQFOY_clean_sbu_1, # of connection points: 4
#     Node 20, Type 0, BuildingBlock: QUQFOY_clean_sbu_1, # of connection points: 4
#     Node 21, Type 0, BuildingBlock: QUQFOY_clean_sbu_1, # of connection points: 4
#     Node 22, Type 0, BuildingBlock: QUQFOY_clean_sbu_1, # of connection points: 4
#     Node 23, Type 0, BuildingBlock: QUQFOY_clean_sbu_1, # of connection points: 4
#     Node 24, Type 0, BuildingBlock: QUQFOY_clean_sbu_1, # of connection points: 4
#     Node 25, Type 0, BuildingBlock: QUQFOY_clean_sbu_1, # of connection points: 4
#     Node 26, Type 0, BuildingBlock: QUQFOY_clean_sbu_1, # of connection points: 4
#     Node 27, Type 0, BuildingBlock: QUQFOY_clean_sbu_1, # of connection points: 4
#     Node 28, Type 0, BuildingBlock: QUQFOY_clean_sbu_1, # of connection points: 4
#     Node 29, Type 0, BuildingBlock: QUQFOY_clean_sbu_1, # of connection points: 4
#     Node 30, Type 0, BuildingBlock: QUQFOY_clean_sbu_1, # of connection points: 4
#     Node 31, Type 0, BuildingBlock: QUQFOY_clean_sbu_1, # of connection points: 4
#     Node 32, Type 0, BuildingBlock: QUQFOY_clean_sbu_1, # of connection points: 4
#     Node 33, Type 0, BuildingBlock: QUQFOY_clean_sbu_1, # of connection points: 4
#     Node 34, Type 0, BuildingBlock: QUQFOY_clean_sbu_1, # of connection points: 4
#     Node 35, Type 0, BuildingBlock: QUQFOY_clean_sbu_1, # of connection points: 4
#     Edge 36, Type (0, 0), BuildingBlock: ZUJKAS_clean_linker_0, # of connection points: 2
#     Edge 37, Type (0, 0), BuildingBlock: ZUJKAS_clean_linker_0, # of connection points: 2
#     Edge 38, Type (0, 0), BuildingBlock: ZUJKAS_clean_linker_0, # of connection points: 2
#     Edge 39, Type (0, 0), BuildingBlock: ZUJKAS_clean_linker_0, # of connection points: 2
#     Edge 40, Type (0, 0), BuildingBlock: ZUJKAS_clean_linker_0, # of connection points: 2
#     Edge 41, Type (0, 0), BuildingBlock: ZUJKAS_clean_linker_0, # of connection points: 2
#     Edge 42, Type (0, 0), BuildingBlock: ZUJKAS_clean_linker_0, # of connection points: 2
#     Edge 43, Type (0, 0), BuildingBlock: ZUJKAS_clean_linker_0, # of connection points: 2
#     Edge 44, Type (0, 0), BuildingBlock: ZUJKAS_clean_linker_0, # of connection points: 2
#     Edge 45, Type (0, 0), BuildingBlock: ZUJKAS_clean_linker_0, # of connection points: 2
#     Edge 46, Type (0, 0), BuildingBlock: ZUJKAS_clean_linker_0, # of connection points: 2
#     Edge 47, Type (0, 0), BuildingBlock: ZUJKAS_clean_linker_0, # of connection points: 2
#     Edge 48, Type (0, 0), BuildingBlock: ZUJKAS_clean_linker_0, # of connection points: 2
#     Edge 49, Type (0, 0), BuildingBlock: ZUJKAS_clean_linker_0, # of connection points: 2
#     Edge 50, Type (0, 0), BuildingBlock: ZUJKAS_clean_linker_0, # of connection points: 2
#     Edge 51, Type (0, 0), BuildingBlock: ZUJKAS_clean_linker_0, # of connection points: 2
#     Edge 52, Type (0, 0), BuildingBlock: ZUJKAS_clean_linker_0, # of connection points: 2
#     Edge 53, Type (0, 0), BuildingBlock: ZUJKAS_clean_linker_0, # of connection points: 2
#     Edge 54, Type (0, 0), BuildingBlock: ZUJKAS_clean_linker_0, # of connection points: 2
#     Edge 55, Type (0, 0), BuildingBlock: ZUJKAS_clean_linker_0, # of connection points: 2
#     Edge 56, Type (0, 0), BuildingBlock: ZUJKAS_clean_linker_0, # of connection points: 2
#     Edge 57, Type (0, 0), BuildingBlock: ZUJKAS_clean_linker_0, # of connection points: 2
#     Edge 58, Type (0, 0), BuildingBlock: ZUJKAS_clean_linker_0, # of connection points: 2
#     Edge 59, Type (0, 0), BuildingBlock: ZUJKAS_clean_linker_0, # of connection points: 2
#     Edge 60, Type (0, 0), BuildingBlock: ZUJKAS_clean_linker_0, # of connection points: 2
#     Edge 61, Type (0, 0), BuildingBlock: ZUJKAS_clean_linker_0, # of connection points: 2
#     Edge 62, Type (0, 0), BuildingBlock: ZUJKAS_clean_linker_0, # of connection points: 2
#     Edge 63, Type (0, 0), BuildingBlock: ZUJKAS_clean_linker_0, # of connection points: 2
#     Edge 64, Type (0, 0), BuildingBlock: ZUJKAS_clean_linker_0, # of connection points: 2
#     Edge 65, Type (0, 0), BuildingBlock: ZUJKAS_clean_linker_0, # of connection points: 2
#     Edge 66, Type (0, 0), BuildingBlock: ZUJKAS_clean_linker_0, # of connection points: 2
#     Edge 67, Type (0, 0), BuildingBlock: ZUJKAS_clean_linker_0, # of connection points: 2
#     Edge 68, Type (0, 0), BuildingBlock: ZUJKAS_clean_linker_0, # of connection points: 2
#     Edge 69, Type (0, 0), BuildingBlock: ZUJKAS_clean_linker_0, # of connection points: 2
#     Edge 70, Type (0, 0), BuildingBlock: ZUJKAS_clean_linker_0, # of connection points: 2
#     Edge 71, Type (0, 0), BuildingBlock: ZUJKAS_clean_linker_0, # of connection points: 2
#     Edge 72, Type (0, 0), BuildingBlock: ZUJKAS_clean_linker_0, # of connection points: 2
#     Edge 73, Type (0, 0), BuildingBlock: ZUJKAS_clean_linker_0, # of connection points: 2
#     Edge 74, Type (0, 0), BuildingBlock: ZUJKAS_clean_linker_0, # of connection points: 2
#     Edge 75, Type (0, 0), BuildingBlock: ZUJKAS_clean_linker_0, # of connection points: 2
#     Edge 76, Type (0, 0), BuildingBlock: ZUJKAS_clean_linker_0, # of connection points: 2
#     Edge 77, Type (0, 0), BuildingBlock: ZUJKAS_clean_linker_0, # of connection points: 2
#     Edge 78, Type (0, 0), BuildingBlock: ZUJKAS_clean_linker_0, # of connection points: 2
#     Edge 79, Type (0, 0), BuildingBlock: ZUJKAS_clean_linker_0, # of connection points: 2
#     Edge 80, Type (0, 0), BuildingBlock: ZUJKAS_clean_linker_0, # of connection points: 2
#     Edge 81, Type (0, 0), BuildingBlock: ZUJKAS_clean_linker_0, # of connection points: 2
#     Edge 82, Type (0, 0), BuildingBlock: ZUJKAS_clean_linker_0, # of connection points: 2
#     Edge 83, Type (0, 0), BuildingBlock: ZUJKAS_clean_linker_0, # of connection points: 2
#     Edge 84, Type (0, 0), BuildingBlock: ZUJKAS_clean_linker_0, # of connection points: 2
#     Edge 85, Type (0, 0), BuildingBlock: ZUJKAS_clean_linker_0, # of connection points: 2
#     Edge 86, Type (0, 0), BuildingBlock: ZUJKAS_clean_linker_0, # of connection points: 2
#     Edge 87, Type (0, 0), BuildingBlock: ZUJKAS_clean_linker_0, # of connection points: 2
#     Edge 88, Type (0, 0), BuildingBlock: ZUJKAS_clean_linker_0, # of connection points: 2
#     Edge 89, Type (0, 0), BuildingBlock: ZUJKAS_clean_linker_0, # of connection points: 2
#     Edge 90, Type (0, 0), BuildingBlock: ZUJKAS_clean_linker_0, # of connection points: 2
#     Edge 91, Type (0, 0), BuildingBlock: ZUJKAS_clean_linker_0, # of connection points: 2
#     Edge 92, Type (0, 0), BuildingBlock: ZUJKAS_clean_linker_0, # of connection points: 2
#     Edge 93, Type (0, 0), BuildingBlock: ZUJKAS_clean_linker_0, # of connection points: 2
#     Edge 94, Type (0, 0), BuildingBlock: ZUJKAS_clean_linker_0, # of connection points: 2
#     Edge 95, Type (0, 0), BuildingBlock: ZUJKAS_clean_linker_0, # of connection points: 2
#     Edge 96, Type (0, 0), BuildingBlock: ZUJKAS_clean_linker_0, # of connection points: 2
#     Edge 97, Type (0, 0), BuildingBlock: ZUJKAS_clean_linker_0, # of connection points: 2
#     Edge 98, Type (0, 0), BuildingBlock: ZUJKAS_clean_linker_0, # of connection points: 2
#     Edge 99, Type (0, 0), BuildingBlock: ZUJKAS_clean_linker_0, # of connection points: 2
#     Edge 100, Type (0, 0), BuildingBlock: ZUJKAS_clean_linker_0, # of connection points: 2
#     Edge 101, Type (0, 0), BuildingBlock: ZUJKAS_clean_linker_0, # of connection points: 2
#     Edge 102, Type (0, 0), BuildingBlock: ZUJKAS_clean_linker_0, # of connection points: 2
#     Edge 103, Type (0, 0), BuildingBlock: ZUJKAS_clean_linker_0, # of connection points: 2
#     Edge 104, Type (0, 0), BuildingBlock: ZUJKAS_clean_linker_0, # of connection points: 2
#     Edge 105, Type (0, 0), BuildingBlock: ZUJKAS_clean_linker_0, # of connection points: 2
#     Edge 106, Type (0, 0), BuildingBlock: ZUJKAS_clean_linker_0, # of connection points: 2
#     Edge 107, Type (0, 0), BuildingBlock: ZUJKAS_clean_linker_0, # of connection points: 2
# Relax obj value: 0.309
# Max RMSD: 0.102
# Mean RMSD: 0.102
data_MOF--net-unr--node1-QUQFOY_clean_sbu_1--edge1-ZUJKAS_clean_linker_0
_symmetry_space_group_name_H-M    P1
_symmetry_Int_Tables_number       1
_symmetry_cell_setting            triclinic
loop_
_symmetry_equiv_pos_as_xyz
'x, y, z'
_cell_length_a     63.15027
_cell_length_b     63.149583
_cell_length_c     170.63429
_cell_angle_alpha  89.98781
_cell_angle_beta   90.00273
_cell_angle_gamma 120.00644
loop_
_atom_site_label
_atom_site_type_symbol
_atom_site_fract_x
_atom_site_fract_y
_atom_site_fract_z
_atom_type_partial_charge
O0 O 0.16842 0.10993 0.18568 0.0
Cd1 Cd 0.18534 0.14738 0.18551 0.0
Cd2 Cd 0.17903 0.14271 0.2009 0.0
O3 O 0.17437 0.10858 0.19832 0.0
O4 O 0.20755 0.15815 0.17636 0.0
O5 O 0.22036 0.16473 0.18872 0.0
C6 C 0.22534 0.1657 0.18132 0.0
C7 C 0.1965 0.15998 0.21303 0.0
C8 C 0.16803 0.09798 0.19171 0.0
C9 C 0.14917 0.1591 0.19128 0.0
O10 O 0.15175 0.14998 0.19761 0.0
O11 O 0.16313 0.16247 0.18549 0.0
O12 O 0.17537 0.1406 0.21249 0.0
O13 O 0.20838 0.16951 0.20663 0.0
O14 O 0.88833 0.06146 0.18581 0.0
Cd15 Cd 0.85106 0.03918 0.18613 0.0
Cd16 Cd 0.8588 0.03634 0.20135 0.0
O17 O 0.8923 0.06644 0.19859 0.0
O18 O 0.83867 0.04964 0.17716 0.0
O19 O 0.83235 0.0553 0.18959 0.0
C20 C 0.83062 0.05911 0.18222 0.0
C21 C 0.84231 0.03451 0.21378 0.0
C22 C 0.90141 0.07218 0.19175 0.0
C23 C 0.84205 0.99124 0.19114 0.0
O24 O 0.85178 0.00243 0.19749 0.0
O25 O 0.83761 0.00211 0.18568 0.0
O26 O 0.86195 0.03343 0.21283 0.0
O27 O 0.83222 0.03761 0.20764 0.0
O28 O 0.9372 0.82666 0.18258 0.0
Cd29 Cd 0.95907 0.81129 0.18261 0.0
Cd30 Cd 0.95857 0.81616 0.19827 0.0
O31 O 0.92987 0.8217 0.19526 0.0
O32 O 0.94927 0.78953 0.17337 0.0
O33 O 0.94224 0.77617 0.18567 0.0
C34 C 0.939 0.77148 0.17824 0.0
C35 C 0.95695 0.79894 0.21057 0.0
C36 C 0.92554 0.82737 0.18854 0.0
C37 C 0.00609 0.8471 0.18919 0.0
O38 O 0.99375 0.84297 0.19545 0.0
O39 O 0.99616 0.83478 0.18304 0.0
O40 O 0.95902 0.82015 0.20982 0.0
O41 O 0.95487 0.78673 0.20428 0.0
O42 O 0.11046 0.17211 0.31607 0.0
Cd43 Cd 0.14742 0.1862 0.31665 0.0
Cd44 Cd 0.14367 0.17711 0.30106 0.0
O45 O 0.10847 0.1705 0.30318 0.0
O46 O 0.15805 0.20803 0.32588 0.0
O47 O 0.16777 0.22131 0.31364 0.0
C48 C 0.16774 0.22609 0.32101 0.0
C49 C 0.16085 0.19371 0.28884 0.0
C50 C 0.09825 0.16808 0.3098 0.0
C51 C 0.15883 0.14844 0.31181 0.0
O52 O 0.15272 0.15169 0.30502 0.0
O53 O 0.15915 0.16131 0.31757 0.0
O54 O 0.14236 0.17203 0.28954 0.0
O55 O 0.16958 0.20658 0.29512 0.0
O56 O 0.82818 0.93498 0.3178 0.0
Cd57 Cd 0.81248 0.95642 0.31655 0.0
Cd58 Cd 0.82107 0.95457 0.30153 0.0
O59 O 0.82493 0.92546 0.30528 0.0
O60 O 0.78863 0.94713 0.3252 0.0
O61 O 0.77814 0.93868 0.31268 0.0
C62 C 0.77178 0.93606 0.31998 0.0
C63 C 0.80386 0.95307 0.28926 0.0
C64 C 0.82955 0.92221 0.31229 0.0
C65 C 0.85032 0.0027 0.31018 0.0
O66 O 0.8484 0.98951 0.30429 0.0
O67 O 0.83555 0.99359 0.31589 0.0
O68 O 0.8246 0.95402 0.28997 0.0
O69 O 0.792 0.9517 0.29559 0.0
O70 O 0.05796 0.88379 0.31451 0.0
Cd71 Cd 0.03609 0.84661 0.31564 0.0
Cd72 Cd 0.02521 0.84996 0.3001 0.0
O73 O 0.05171 0.88605 0.30188 0.0
O74 O 0.0492 0.83906 0.32511 0.0
O75 O 0.05211 0.8269 0.31318 0.0
C76 C 0.0577 0.82882 0.32054 0.0
C77 C 0.02278 0.83395 0.28753 0.0
C78 C 0.06229 0.89616 0.30826 0.0
C79 C 0.98442 0.83193 0.31221 0.0
O80 O 0.99166 0.83822 0.30521 0.0
O81 O -0.00084 0.83286 0.31745 0.0
O82 O 0.01751 0.85082 0.28886 0.0
O83 O 0.03003 0.82619 0.29337 0.0
O84 O 0.82706 0.88785 0.81724 0.0
Cd85 Cd 0.81187 0.85063 0.81705 0.0
Cd86 Cd 0.81661 0.85673 0.80147 0.0
O87 O 0.82161 0.89067 0.80462 0.0
O88 O 0.7902 0.83824 0.82631 0.0
O89 O 0.77673 0.83238 0.81402 0.0
C90 C 0.77211 0.83065 0.82146 0.0
C91 C 0.79901 0.84067 0.78925 0.0
C92 C 0.82741 0.9004 0.81138 0.0
C93 C 0.84793 0.84017 0.81029 0.0
O94 O 0.84385 0.84883 0.80412 0.0
O95 O 0.83544 0.83716 0.81645 0.0
O96 O 0.82001 0.86014 0.7899 0.0
O97 O 0.78714 0.83057 0.79561 0.0
O98 O 0.10955 0.93955 0.81517 0.0
Cd99 Cd 0.14681 0.9606 0.81595 0.0
Cd100 Cd 0.14473 0.96091 0.80023 0.0
O101 O 0.11011 0.9318 0.80262 0.0
O102 O 0.15641 0.94995 0.82556 0.0
O103 O 0.16508 0.94329 0.8135 0.0
C104 C 0.16493 0.93967 0.82098 0.0
C105 C 0.16251 0.96008 0.78826 0.0
C106 C 0.09855 0.92775 0.80906 0.0
C107 C 0.1596 0.00797 0.80938 0.0
O108 O 0.15222 0.99586 0.80304 0.0
O109 O 0.16119 0.99778 0.8156 0.0
O110 O 0.14314 0.96189 0.78861 0.0
O111 O 0.17168 0.95789 0.79476 0.0
O112 O 0.05742 0.16823 0.81474 0.0
Cd113 Cd 0.03678 0.18495 0.81551 0.0
Cd114 Cd 0.03286 0.17813 0.79995 0.0
O115 O 0.06284 0.17384 0.80201 0.0
O116 O 0.04885 0.20599 0.82491 0.0
O117 O 0.05412 0.2204 0.81277 0.0
C118 C 0.05862 0.22442 0.82018 0.0
C119 C 0.03076 0.19368 0.78768 0.0
C120 C 0.06812 0.16776 0.80851 0.0
C121 C 0.98815 0.14858 0.81032 0.0
O122 O -0.00108 0.15107 0.8038 0.0
O123 O -0.00044 0.16263 0.81601 0.0
O124 O 0.02913 0.17267 0.78845 0.0
O125 O 0.03435 0.20659 0.79392 0.0
O126 O 0.88752 0.82727 0.68606 0.0
Cd127 Cd 0.85016 0.81134 0.68614 0.0
Cd128 Cd 0.8566 0.82077 0.70147 0.0
O129 O 0.89081 0.82565 0.69886 0.0
O130 O 0.83899 0.78921 0.67698 0.0
O131 O 0.83204 0.77621 0.6893 0.0
C132 C 0.83104 0.77131 0.6819 0.0
C133 C 0.83959 0.80465 0.71374 0.0
C134 C 0.90036 0.82968 0.69207 0.0
C135 C 0.83926 0.84885 0.69135 0.0
O136 O 0.84858 0.84713 0.69776 0.0
O137 O 0.83585 0.83423 0.68575 0.0
O138 O 0.8588 0.82583 0.71299 0.0
O139 O 0.83024 0.79187 0.70747 0.0
O140 O 0.17002 0.06009 0.68678 0.0
Cd141 Cd 0.18621 0.03889 0.68646 0.0
Cd142 Cd 0.17999 0.03696 0.70185 0.0
O143 O 0.17555 0.06668 0.69947 0.0
O144 O 0.20789 0.04998 0.67718 0.0
O145 O 0.22142 0.05599 0.68945 0.0
C146 C 0.22599 0.05996 0.68203 0.0
C147 C 0.19813 0.03646 0.71376 0.0
C148 C 0.16955 0.0714 0.69286 0.0
C149 C 0.14936 0.99109 0.69218 0.0
O150 O 0.15225 0.0027 0.69854 0.0
O151 O 0.16333 0.00166 0.68638 0.0
O152 O 0.17712 0.03507 0.71346 0.0
O153 O 0.20954 0.03895 0.70725 0.0
O154 O 0.93634 0.10927 0.6839 0.0
Cd155 Cd 0.95834 0.14649 0.68388 0.0
Cd156 Cd 0.95838 0.14115 0.69955 0.0
O157 O 0.92999 0.10663 0.69665 0.0
O158 O 0.94849 0.15834 0.67462 0.0
O159 O 0.94173 0.16502 0.68691 0.0
C160 C 0.93839 0.16633 0.67947 0.0
C161 C 0.95691 0.15704 0.71182 0.0
C162 C 0.92524 0.09675 0.6899 0.0
C163 C 0.00566 0.15792 0.69032 0.0
O164 O 0.9936 0.14995 0.69665 0.0
O165 O 0.99543 0.15993 0.68418 0.0
O166 O 0.9593 0.13808 0.71112 0.0
O167 O 0.95435 0.16677 0.7055 0.0
O168 O 0.83812 0.44525 0.51771 0.0
Cd169 Cd 0.8539 0.48253 0.51808 0.0
Cd170 Cd 0.84757 0.47575 0.53356 0.0
O171 O 0.84156 0.44144 0.53041 0.0
O172 O 0.8768 0.49515 0.50912 0.0
O173 O 0.88862 0.49999 0.52158 0.0
C174 C 0.8942 0.50207 0.51421 0.0
C175 C 0.86485 0.49145 0.54584 0.0
C176 C 0.8365 0.43216 0.52358 0.0
C177 C 0.81782 0.49362 0.52447 0.0
O178 O 0.82123 0.48466 0.53069 0.0
O179 O 0.83069 0.49651 0.51841 0.0
O180 O 0.84357 0.47238 0.54512 0.0
O181 O 0.87716 0.5013 0.53953 0.0
O182 O 0.55544 0.39367 0.51928 0.0
Cd183 Cd 0.51806 0.37306 0.51862 0.0
Cd184 Cd 0.52162 0.36831 0.53416 0.0
O185 O 0.55589 0.39826 0.53207 0.0
O186 O 0.50907 0.3853 0.50926 0.0
O187 O 0.49988 0.39032 0.52142 0.0
C188 C 0.50034 0.39494 0.51401 0.0
C189 C 0.5046 0.36572 0.54658 0.0
C190 C 0.56694 0.40393 0.52551 0.0
C191 C 0.50596 0.32413 0.52347 0.0
O192 O 0.51439 0.33453 0.53003 0.0
O193 O 0.50322 0.33587 0.5179 0.0
O194 O 0.52384 0.36396 0.54561 0.0
O195 O 0.49506 0.3697 0.54047 0.0
O196 O 0.60509 0.16237 0.51619 0.0
Cd197 Cd 0.62661 0.14659 0.51677 0.0
Cd198 Cd 0.62788 0.15553 0.532 0.0
O199 O 0.59864 0.16006 0.52891 0.0
O200 O 0.61549 0.12222 0.50823 0.0
O201 O 0.6098 0.11251 0.52087 0.0
C202 C 0.60564 0.10569 0.51361 0.0
C203 C 0.62746 0.13932 0.54437 0.0
C204 C 0.59383 0.16432 0.52205 0.0
C205 C 0.67435 0.18407 0.52236 0.0
O206 O 0.6626 0.18208 0.52863 0.0
O207 O 0.66381 0.16961 0.51667 0.0
O208 O 0.62935 0.16043 0.54353 0.0
O209 O 0.62488 0.12666 0.53814 0.0
O210 O 0.77491 0.50436 0.64851 0.0
Cd211 Cd 0.81226 0.52011 0.64884 0.0
Cd212 Cd 0.80758 0.51385 0.63337 0.0
O213 O 0.77392 0.51047 0.63586 0.0
O214 O 0.8228 0.54116 0.65825 0.0
O215 O 0.83078 0.55551 0.64608 0.0
C216 C 0.83121 0.55959 0.65353 0.0
C217 C 0.82534 0.53025 0.62119 0.0
C218 C 0.76323 0.50444 0.64247 0.0
C219 C 0.82245 0.48288 0.64306 0.0
O220 O 0.81357 0.48583 0.63674 0.0
O221 O 0.82628 0.49697 0.64885 0.0
O222 O 0.80544 0.50959 0.62181 0.0
O223 O 0.83502 0.54241 0.62753 0.0
O224 O 0.49391 0.27329 0.65139 0.0
Cd225 Cd 0.47814 0.29478 0.65132 0.0
Cd226 Cd 0.48438 0.29546 0.63563 0.0
O227 O 0.49101 0.26743 0.63861 0.0
O228 O 0.4557 0.28424 0.6604 0.0
O229 O 0.44322 0.27785 0.64801 0.0
C230 C 0.43801 0.27418 0.6554 0.0
C231 C 0.46802 0.29394 0.62317 0.0
C232 C 0.49589 0.26256 0.64538 0.0
C233 C 0.51357 0.3426 0.64508 0.0
O234 O 0.50994 0.33083 0.63871 0.0
O235 O 0.5013 0.33196 0.65118 0.0
O236 O 0.48951 0.29687 0.62411 0.0
O237 O 0.45504 0.29091 0.62936 0.0
O238 O 0.72558 0.2212 0.6487 0.0
Cd239 Cd 0.70395 0.18387 0.64855 0.0
Cd240 Cd 0.70061 0.1907 0.63323 0.0
O241 O 0.73006 0.22476 0.63589 0.0
O242 O 0.71504 0.17234 0.65759 0.0
O243 O 0.72068 0.16566 0.6452 0.0
C244 C 0.72477 0.16444 0.65257 0.0
C245 C 0.69953 0.17452 0.62079 0.0
C246 C 0.73586 0.23416 0.6427 0.0
C247 C 0.65551 0.17344 0.64352 0.0
O248 O 0.66638 0.1827 0.63708 0.0
O249 O 0.6668 0.16989 0.64906 0.0
O250 O 0.69755 0.19366 0.62175 0.0
O251 O 0.70297 0.1647 0.62694 0.0
O252 O 0.49381 0.21984 0.15101 0.0
Cd253 Cd 0.47787 0.18254 0.15114 0.0
Cd254 Cd 0.48399 0.18745 0.13539 0.0
O255 O 0.4902 0.22204 0.13824 0.0
O256 O 0.45552 0.17109 0.16024 0.0
O257 O 0.44292 0.16452 0.14786 0.0
C258 C 0.43778 0.16329 0.15525 0.0
C259 C 0.46834 0.17261 0.12287 0.0
C260 C 0.49539 0.23218 0.14495 0.0
C261 C 0.51317 0.16983 0.14504 0.0
O262 O 0.50963 0.17789 0.13864 0.0
O263 O 0.50081 0.16829 0.1511 0.0
O264 O 0.48972 0.19127 0.1239 0.0
O265 O 0.45508 0.16254 0.12899 0.0
O266 O 0.77443 0.27078 0.14943 0.0
Cd267 Cd 0.81183 0.29178 0.14976 0.0
Cd268 Cd 0.80746 0.29258 0.13425 0.0
O269 O 0.77374 0.26255 0.13687 0.0
O270 O 0.82222 0.2812 0.15921 0.0
O271 O 0.82976 0.27428 0.14704 0.0
C272 C 0.83029 0.27082 0.1545 0.0
C273 C 0.82457 0.29309 0.12201 0.0
C274 C 0.76287 0.25856 0.14344 0.0
C275 C 0.82291 0.33908 0.14368 0.0
O276 O 0.8139 0.32694 0.13742 0.0
O277 O 0.82652 0.329 0.14957 0.0
O278 O 0.80483 0.29411 0.12268 0.0
O279 O 0.8345 0.29089 0.12834 0.0
O280 O 0.72748 0.50461 0.14756 0.0
Cd281 Cd 0.70538 0.51978 0.14719 0.0
Cd282 Cd 0.70323 0.50997 0.13204 0.0
O283 O 0.73309 0.50617 0.1348 0.0
O284 O 0.71571 0.54246 0.15621 0.0
O285 O 0.72185 0.55467 0.1438 0.0
C286 C 0.72554 0.56006 0.15118 0.0
C287 C 0.70244 0.5269 0.11993 0.0
C288 C 0.73844 0.50243 0.14165 0.0
C289 C 0.65769 0.48092 0.14194 0.0
O290 O 0.66916 0.48265 0.13563 0.0
O291 O 0.66827 0.49612 0.14746 0.0
O292 O 0.70124 0.506 0.12047 0.0
O293 O 0.70496 0.5389 0.12632 0.0
O294 O 0.554 0.16124 0.0183 0.0
Cd295 Cd 0.51661 0.14497 0.01859 0.0
Cd296 Cd 0.52391 0.15556 0.03385 0.0
O297 O 0.55809 0.16064 0.03109 0.0
O298 O 0.50514 0.12212 0.00961 0.0
O299 O 0.49915 0.1101 0.02204 0.0
C300 C 0.4978 0.10465 0.01468 0.0
C301 C 0.50774 0.14017 0.04626 0.0
C302 C 0.56724 0.16423 0.02425 0.0
C303 C 0.50559 0.18255 0.02362 0.0
O304 O 0.51539 0.1814 0.02999 0.0
O305 O 0.5019 0.16754 0.01812 0.0
O306 O 0.52674 0.16142 0.04534 0.0
O307 O 0.49811 0.12694 0.0401 0.0
O308 O 0.83721 0.39244 0.01848 0.0
Cd309 Cd 0.85309 0.37096 0.01853 0.0
Cd310 Cd 0.84429 0.36851 0.03395 0.0
O311 O 0.83913 0.39762 0.03127 0.0
O312 O 0.87478 0.38153 0.00925 0.0
O313 O 0.88835 0.38806 0.02151 0.0
C314 C 0.8929 0.39166 0.01409 0.0
C315 C 0.86056 0.36815 0.04625 0.0
C316 C 0.83491 0.40297 0.02448 0.0
C317 C 0.81576 0.32275 0.02399 0.0
O318 O 0.81787 0.334 0.03038 0.0
O319 O 0.83006 0.33375 0.0183 0.0
O320 O 0.83932 0.36603 0.04548 0.0
O321 O 0.8733 0.37139 0.03998 0.0
O322 O 0.6016 0.44179 0.01729 0.0
Cd323 Cd 0.62396 0.479 0.01794 0.0
Cd324 Cd 0.62373 0.47074 0.03311 0.0
O325 O 0.59392 0.4375 0.02995 0.0
O326 O 0.61447 0.49268 0.00908 0.0
O327 O 0.60759 0.49722 0.02156 0.0
C328 C 0.60442 0.49992 0.01422 0.0
C329 C 0.62327 0.48801 0.04519 0.0
C330 C 0.58954 0.42859 0.02307 0.0
C331 C 0.67062 0.48719 0.02394 0.0
O332 O 0.65813 0.47721 0.03008 0.0
O333 O 0.66102 0.49219 0.01822 0.0
O334 O 0.62403 0.46807 0.04471 0.0
O335 O 0.6218 0.49794 0.03875 0.0
O336 O 0.5037 0.77535 0.85162 0.0
Cd337 Cd 0.5194 0.81267 0.85214 0.0
Cd338 Cd 0.50974 0.80452 0.86734 0.0
O339 O 0.50538 0.77078 0.86435 0.0
O340 O 0.54232 0.82515 0.84319 0.0
O341 O 0.55419 0.83028 0.85564 0.0
C342 C 0.55975 0.83226 0.84827 0.0
C343 C 0.52596 0.82108 0.87964 0.0
C344 C 0.50145 0.76195 0.85746 0.0
C345 C 0.48135 0.82232 0.85763 0.0
O346 O 0.48298 0.81219 0.86386 0.0
O347 O 0.49631 0.82681 0.85204 0.0
O348 O 0.50497 0.80162 0.87888 0.0
O349 O 0.53853 0.83089 0.87337 0.0
O350 O 0.22125 0.72842 0.85162 0.0
Cd351 Cd 0.18398 0.7064 0.85197 0.0
Cd352 Cd 0.19136 0.70379 0.86718 0.0
O353 O 0.22519 0.73344 0.86441 0.0
O354 O 0.17149 0.71711 0.84308 0.0
O355 O 0.1656 0.7227 0.85556 0.0
C356 C 0.16374 0.72667 0.84822 0.0
C357 C 0.17436 0.703 0.87943 0.0
C358 C 0.23436 0.73905 0.85757 0.0
C359 C 0.17444 0.65837 0.85714 0.0
O360 O 0.1839 0.66956 0.86351 0.0
O361 O 0.17043 0.66929 0.85158 0.0
O362 O 0.19386 0.70152 0.87873 0.0
O363 O 0.16468 0.70582 0.87314 0.0
O364 O 0.27256 0.49463 0.85042 0.0
Cd365 Cd 0.29353 0.47822 0.85077 0.0
Cd366 Cd 0.29597 0.48762 0.86612 0.0
O367 O 0.26767 0.49382 0.86322 0.0
O368 O 0.28233 0.45516 0.84185 0.0
O369 O 0.27617 0.44347 0.85432 0.0
C370 C 0.27222 0.43781 0.84696 0.0
C371 C 0.29515 0.47136 0.87852 0.0
C372 C 0.26237 0.49772 0.85638 0.0
C373 C 0.34209 0.51486 0.85621 0.0
O374 O 0.33092 0.5131 0.86259 0.0
O375 O 0.33083 0.5007 0.85052 0.0
O376 O 0.29815 0.49292 0.87763 0.0
O377 O 0.29178 0.45836 0.87232 0.0
O378 O 0.44141 0.8372 0.98323 0.0
Cd379 Cd 0.47859 0.85205 0.98338 0.0
Cd380 Cd 0.47331 0.84593 0.96767 0.0
O381 O 0.43893 0.8404 0.97045 0.0
O382 O 0.49004 0.87327 0.99276 0.0
O383 O 0.49763 0.88737 0.98055 0.0
C384 C 0.49852 0.89163 0.988 0.0
C385 C 0.48931 0.86226 0.9553 0.0
C386 C 0.42901 0.83567 0.97719 0.0
C387 C 0.48945 0.81545 0.97721 0.0
O388 O 0.48157 0.81932 0.97083 0.0
O389 O 0.49165 0.82809 0.98326 0.0
O390 O 0.47014 0.84112 0.95613 0.0
O391 O 0.4992 0.87495 0.96154 0.0
O392 O 0.15921 0.60428 0.98296 0.0
Cd393 Cd 0.14342 0.62577 0.98229 0.0
Cd394 Cd 0.15288 0.62672 0.96707 0.0
O395 O 0.15765 0.59771 0.97025 0.0
O396 O 0.1208 0.61586 0.99132 0.0
O397 O 0.10849 0.60839 0.97893 0.0
C398 C 0.10319 0.60528 0.98632 0.0
C399 C 0.13582 0.62588 0.95483 0.0
C400 C 0.1616 0.59303 0.97717 0.0
C401 C 0.18114 0.67341 0.97654 0.0
O402 O 0.17946 0.66151 0.97034 0.0
O403 O 0.16643 0.663 0.98219 0.0
O404 O 0.15695 0.62768 0.95551 0.0
O405 O 0.12364 0.62359 0.96116 0.0
O406 O 0.3885 0.55255 0.98296 0.0
Cd407 Cd 0.36785 0.5152 0.98363 0.0
Cd408 Cd 0.36354 0.51835 0.96797 0.0
O409 O 0.39302 0.55284 0.97016 0.0
O410 O 0.38008 0.50599 0.99295 0.0
O411 O 0.3852 0.49722 0.98074 0.0
C412 C 0.38984 0.49753 0.98814 0.0
C413 C 0.36189 0.50207 0.95549 0.0
C414 C 0.39869 0.56397 0.9767 0.0
C415 C 0.31886 0.50225 0.9785 0.0
O416 O 0.32934 0.51029 0.97193 0.0
O417 O 0.33063 0.50028 0.98422 0.0
O418 O 0.35962 0.52099 0.95652 0.0
O419 O 0.36579 0.49239 0.96158 0.0
O420 O 0.16118 0.55314 0.48374 0.0
Cd421 Cd 0.14516 0.51583 0.48375 0.0
Cd422 Cd 0.14703 0.52047 0.46813 0.0
O423 O 0.15209 0.55439 0.47135 0.0
O424 O 0.12341 0.50384 0.493 0.0
O425 O 0.11008 0.49841 0.4807 0.0
C426 C 0.10542 0.49676 0.48813 0.0
C427 C 0.12839 0.50461 0.45601 0.0
C428 C 0.15979 0.56495 0.47793 0.0
C429 C 0.17953 0.50421 0.47642 0.0
O430 O 0.17462 0.51266 0.47036 0.0
O431 O 0.16797 0.50157 0.48277 0.0
O432 O 0.14947 0.52404 0.45655 0.0
O433 O 0.1171 0.49434 0.46242 0.0
O434 O 0.44089 0.60331 0.47924 0.0
Cd435 Cd 0.47806 0.62513 0.48009 0.0
Cd436 Cd 0.47547 0.62764 0.46441 0.0
O437 O 0.44114 0.59767 0.46652 0.0
O438 O 0.4875 0.61429 0.48968 0.0
O439 O 0.49747 0.60892 0.47766 0.0
C440 C 0.49694 0.60489 0.48511 0.0
C441 C 0.4941 0.62935 0.45236 0.0
C442 C 0.42979 0.59238 0.47302 0.0
C443 C 0.48922 0.67298 0.47435 0.0
O444 O 0.48193 0.66178 0.46785 0.0
O445 O 0.49137 0.66214 0.4803 0.0
O446 O 0.47434 0.63043 0.45283 0.0
O447 O 0.50312 0.62634 0.45878 0.0
O448 O 0.38775 0.83342 0.48495 0.0
Cd449 Cd 0.36685 0.84959 0.4863 0.0
Cd450 Cd 0.36274 0.84584 0.47032 0.0
O451 O 0.39167 0.83966 0.47221 0.0
O452 O 0.37958 0.87081 0.49565 0.0
O453 O 0.38344 0.88489 0.48348 0.0
C454 C 0.38869 0.88912 0.49085 0.0
C455 C 0.36165 0.86087 0.45783 0.0
C456 C 0.3976 0.83316 0.4785 0.0
C457 C 0.31776 0.81546 0.48075 0.0
O458 O 0.32811 0.82003 0.47408 0.0
O459 O 0.32973 0.82682 0.4868 0.0
O460 O 0.35872 0.83942 0.45886 0.0
O461 O 0.36579 0.87447 0.46392 0.0
O462 O 0.21956 0.49396 0.35324 0.0
Cd463 Cd 0.18288 0.47843 0.35126 0.0
Cd464 Cd 0.18104 0.48674 0.36708 0.0
O465 O 0.21698 0.49432 0.36611 0.0
O466 O 0.1767 0.45819 0.34177 0.0
O467 O 0.16269 0.44273 0.35357 0.0
C468 C 0.16568 0.43931 0.34627 0.0
C469 C 0.16316 0.4729 0.37947 0.0
C470 C 0.22956 0.49776 0.35993 0.0
C471 C 0.16788 0.51435 0.35504 0.0
O472 O 0.17181 0.51093 0.3621 0.0
O473 O 0.17017 0.50221 0.34951 0.0
O474 O 0.18101 0.49469 0.37835 0.0
O475 O 0.15532 0.45835 0.37352 0.0
O476 O 0.50481 0.73208 0.35115 0.0
Cd477 Cd 0.51851 0.70885 0.35208 0.0
Cd478 Cd 0.51515 0.71426 0.36731 0.0
O479 O 0.51195 0.74374 0.36349 0.0
O480 O 0.54008 0.71542 0.34289 0.0
O481 O 0.55355 0.72502 0.35514 0.0
C482 C 0.55822 0.72629 0.34771 0.0
C483 C 0.53554 0.71667 0.37901 0.0
C484 C 0.50577 0.74621 0.35661 0.0
C485 C 0.48101 0.66504 0.3598 0.0
O486 O 0.48586 0.67953 0.36556 0.0
O487 O 0.4937 0.67234 0.35358 0.0
O488 O 0.51541 0.71715 0.37892 0.0
O489 O 0.54507 0.71621 0.37237 0.0
O490 O 0.27222 0.77905 0.35281 0.0
Cd491 Cd 0.29429 0.81636 0.35234 0.0
Cd492 Cd 0.302 0.81099 0.36784 0.0
O493 O 0.27549 0.77526 0.36555 0.0
O494 O 0.28243 0.82587 0.343 0.0
O495 O 0.27803 0.83557 0.35514 0.0
C496 C 0.27331 0.8351 0.34775 0.0
C497 C 0.30207 0.82641 0.38033 0.0
C498 C 0.26636 0.76594 0.35893 0.0
C499 C 0.34507 0.83008 0.35662 0.0
O500 O 0.33639 0.82263 0.36343 0.0
O501 O 0.3315 0.83037 0.35117 0.0
O502 O 0.30723 0.80934 0.37925 0.0
O503 O 0.29627 0.83469 0.37428 0.0
H504 H 0.11747 0.15585 0.2027 0.0
H505 H 0.07775 0.15272 0.20086 0.0
H506 H 0.09253 0.16737 0.17619 0.0
H507 H 0.13235 0.17013 0.17793 0.0
H508 H 0.05894 0.18166 0.19423 0.0
H509 H 0.03391 0.09705 0.17715 0.0
H510 H 0.06162 0.11238 0.18284 0.0
H511 H 0.05945 0.12502 0.17365 0.0
C512 C 0.11255 0.1589 0.19689 0.0
C513 C 0.12786 0.16271 0.19043 0.0
C514 C 0.08986 0.15722 0.19587 0.0
C515 C 0.08205 0.15933 0.18837 0.0
C516 C 0.09812 0.1653 0.182 0.0
H517 H 0.926 0.09113 0.17801 0.0
H518 H 0.97002 0.1178 0.17625 0.0
C519 C 0.12089 0.16695 0.18302 0.0
C520 C 0.05607 0.15204 0.18719 0.0
H521 H 0.00247 0.10458 0.18043 0.0
C522 C 0.04659 0.16506 0.1911 0.0
C523 C 0.04005 0.13036 0.18309 0.0
C524 C 0.04911 0.11522 0.17898 0.0
C525 C 0.02133 0.15644 0.19125 0.0
C526 C 0.00523 0.13401 0.18754 0.0
C527 C 0.01486 0.12177 0.18327 0.0
C528 C 0.97837 0.12143 0.18864 0.0
C529 C 0.01214 0.17118 0.19551 0.0
C530 C 0.9684 0.11484 0.1962 0.0
C531 C 0.94324 0.09963 0.19723 0.0
C532 C 0.92761 0.09044 0.19071 0.0
C533 C 0.93754 0.09777 0.18316 0.0
C534 C 0.96269 0.11309 0.18213 0.0
H535 H 0.02608 0.19095 0.19551 0.0
H536 H 0.99506 0.1688 0.19283 0.0
H537 H 0.0083 0.16506 0.20171 0.0
H538 H 0.98017 0.12049 0.2013 0.0
H539 H 0.93621 0.0943 0.20313 0.0
H540 H 0.84561 0.96159 0.20202 0.0
H541 H 0.84839 0.92505 0.19957 0.0
H542 H 0.83362 0.92815 0.17505 0.0
H543 H 0.83111 0.96511 0.17742 0.0
H544 H 0.81831 0.87794 0.19227 0.0
H545 H 0.9039 0.93884 0.1758 0.0
H546 H 0.88896 0.95084 0.18186 0.0
H547 H 0.87626 0.93758 0.17251 0.0
C548 C 0.84248 0.9543 0.19612 0.0
C549 C 0.83863 0.96654 0.18989 0.0
C550 C 0.84395 0.93331 0.19474 0.0
C551 C 0.84163 0.9242 0.18712 0.0
C552 C 0.83579 0.93515 0.18097 0.0
H553 H 0.90815 0.83611 0.17497 0.0
H554 H 0.88226 0.8545 0.17361 0.0
C555 C 0.83429 0.95621 0.18234 0.0
C556 C 0.8485 0.90538 0.18558 0.0
H557 H 0.89568 0.89929 0.17853 0.0
C558 C 0.83497 0.88237 0.18915 0.0
C559 C 0.87025 0.91127 0.18149 0.0
C560 C 0.88585 0.93599 0.17772 0.0
C561 C 0.84314 0.86538 0.18897 0.0
C562 C 0.86565 0.87187 0.18528 0.0
C563 C 0.87843 0.89434 0.18135 0.0
C564 C 0.87775 0.85703 0.18608 0.0
C565 C 0.82781 0.84086 0.19285 0.0
C566 C 0.88357 0.85207 0.19355 0.0
C567 C 0.89829 0.84148 0.19435 0.0
C568 C 0.90778 0.83601 0.18769 0.0
C569 C 0.90125 0.84024 0.18022 0.0
C570 C 0.88638 0.85066 0.17942 0.0
H571 H 0.80812 0.83535 0.19278 0.0
H572 H 0.83009 0.8264 0.18993 0.0
H573 H 0.83346 0.8421 0.19907 0.0
H574 H 0.87772 0.85744 0.19877 0.0
H575 H 0.90303 0.83855 0.20019 0.0
H576 H 0.14891 0.06863 0.17882 0.0
H577 H 0.12899 0.02403 0.17833 0.0
H578 H 0.14648 0.02251 0.20267 0.0
H579 H 0.16615 0.06707 0.20328 0.0
H580 H 0.14389 0.98836 0.18228 0.0
H581 H 0.07074 0.98418 0.20152 0.0
H582 H 0.0928 0.01192 0.19667 0.0
H583 H 0.10129 0.00162 0.2053 0.0
C584 C 0.14881 0.05886 0.18405 0.0
C585 C 0.15875 0.07138 0.19113 0.0
C586 C 0.13753 0.03339 0.18374 0.0
C587 C 0.13602 0.02004 0.19049 0.0
C588 C 0.14722 0.03253 0.19743 0.0
H589 H 0.03711 0.86848 0.20144 0.0
H590 H 0.07349 0.90905 0.20162 0.0
C591 C 0.15842 0.05799 0.19776 0.0
C592 C 0.12064 0.99311 0.19047 0.0
H593 H 0.06729 0.94686 0.1978 0.0
C594 C 0.1272 0.97918 0.18571 0.0
C595 C 0.09883 0.98131 0.1949 0.0
C596 C 0.09029 0.99546 0.19984 0.0
C597 C 0.1125 0.95358 0.18531 0.0
C598 C 0.0906 0.94185 0.18971 0.0
C599 C 0.08424 0.95585 0.19451 0.0
C600 C 0.07296 0.91528 0.18917 0.0
C601 C 0.12059 0.93936 0.18025 0.0
C602 C 0.06125 0.90484 0.18205 0.0
C603 C 0.04055 0.88147 0.18191 0.0
C604 C 0.03105 0.86846 0.18893 0.0
C605 C 0.04392 0.87819 0.19595 0.0
C606 C 0.06473 0.90135 0.19606 0.0
H607 H 0.14067 0.94966 0.17926 0.0
H608 H 0.11549 0.92139 0.18292 0.0
H609 H 0.1115 0.93602 0.17445 0.0
H610 H 0.06696 0.91541 0.17668 0.0
H611 H 0.03091 0.87449 0.17642 0.0
H612 H 0.1866 0.13369 0.30381 0.0
H613 H 0.18184 0.09268 0.30413 0.0
H614 H 0.12764 0.07197 0.32239 0.0
H615 H 0.13432 0.11346 0.32261 0.0
H616 H 0.14808 0.04705 0.32429 0.0
H617 H 0.12647 0.0418 0.29254 0.0
H618 H 0.15761 0.06373 0.29475 0.0
H619 H 0.13325 0.06821 0.29834 0.0
C620 C 0.17439 0.12052 0.30808 0.0
C621 C 0.16075 0.12652 0.31317 0.0
C622 C 0.17134 0.09701 0.30817 0.0
C623 C 0.15353 0.07881 0.31302 0.0
C624 C 0.14135 0.0855 0.31853 0.0
H625 H 0.05513 0.93086 0.30153 0.0
H626 H 0.08045 0.97514 0.30289 0.0
C627 C 0.14518 0.10925 0.31867 0.0
C628 C 0.14558 0.05248 0.31194 0.0
H629 H 0.12221 0.00651 0.2984 0.0
C630 C 0.14244 0.03818 0.31862 0.0
C631 C 0.13802 0.04079 0.30454 0.0
C632 C 0.13877 0.05436 0.29715 0.0
C633 C 0.13068 0.01255 0.31821 0.0
C634 C 0.12322 0.00092 0.31081 0.0
C635 C 0.12783 0.01537 0.30407 0.0
C636 C 0.10845 0.97389 0.30992 0.0
C637 C 0.12499 0.99835 0.32578 0.0
C638 C 0.11573 0.95826 0.31332 0.0
C639 C 0.1007 0.93288 0.31279 0.0
C640 C 0.07875 0.92277 0.30854 0.0
C641 C 0.07206 0.9383 0.30481 0.0
C642 C 0.08658 0.9636 0.30558 0.0
H643 H 0.12564 0.00956 0.33089 0.0
H644 H 0.10661 0.98173 0.3256 0.0
H645 H 0.13883 0.99271 0.32678 0.0
H646 H 0.13291 0.96562 0.31644 0.0
H647 H 0.10631 0.92114 0.31564 0.0
H648 H 0.86812 0.03243 0.32308 0.0
H649 H 0.9076 0.07029 0.32415 0.0
H650 H 0.92002 0.06696 0.29944 0.0
H651 H 0.88073 0.02951 0.2983 0.0
H652 H 0.94935 0.06916 0.32097 0.0
H653 H 0.94689 0.13967 0.30247 0.0
H654 H 0.91945 0.11295 0.3059 0.0
H655 H 0.93528 0.11118 0.29736 0.0
C656 C 0.87893 0.04019 0.31783 0.0
C657 C 0.87144 0.02784 0.31062 0.0
C658 C 0.90147 0.06182 0.31846 0.0
C659 C 0.91665 0.07156 0.31186 0.0
C660 C 0.90842 0.0601 0.30457 0.0
H661 H 0.06427 0.14821 0.29808 0.0
H662 H 0.01983 0.12868 0.29937 0.0
C663 C 0.88602 0.03851 0.30395 0.0
C664 C 0.94253 0.09093 0.31275 0.0
H665 H 0.98692 0.14392 0.3045 0.0
C666 C 0.95752 0.08584 0.31753 0.0
C667 C 0.95312 0.11255 0.30821 0.0
C668 C 0.93777 0.11953 0.30326 0.0
C669 C 0.983 0.1009 0.31749 0.0
C670 C 0.99371 0.12195 0.31266 0.0
C671 C 0.97865 0.12773 0.30817 0.0
C672 C 0.02055 0.13685 0.31171 0.0
C673 C -0.00173 0.09326 0.32222 0.0
C674 C 0.03565 0.14863 0.31817 0.0
C675 C 0.06101 0.15954 0.31747 0.0
C676 C 0.07171 0.15915 0.31028 0.0
C677 C 0.0566 0.14872 0.3037 0.0
C678 C 0.03121 0.13762 0.30442 0.0
H679 H 0.98744 0.07407 0.32431 0.0
H680 H 0.01393 0.09511 0.31872 0.0
H681 H 0.00569 0.10526 0.32744 0.0
H682 H 0.02778 0.14866 0.3238 0.0
H683 H 0.07217 0.16775 0.32263 0.0
H684 H 0.83673 0.90761 0.32667 0.0
H685 H 0.85389 0.88122 0.32945 0.0
H686 H 0.85815 0.8704 0.30468 0.0
H687 H 0.84059 0.89635 0.30183 0.0
H688 H 0.84317 0.82743 0.31398 0.0
H689 H 0.92713 0.90862 0.3255 0.0
H690 H 0.89874 0.90145 0.33012 0.0
H691 H 0.90416 0.91147 0.32009 0.0
C692 C 0.84108 0.89942 0.32181 0.0
C693 C 0.83765 0.90439 0.31401 0.0
C694 C 0.85087 0.88435 0.32342 0.0
C695 C 0.85762 0.87421 0.31727 0.0
C696 C 0.85307 0.8781 0.30951 0.0
H697 H 0.94679 0.82237 0.30235 0.0
H698 H 0.91093 0.82557 0.30538 0.0
C699 C 0.84314 0.89303 0.30789 0.0
C700 C 0.87144 0.86141 0.31881 0.0
H701 H 0.92798 0.87232 0.32423 0.0
C702 C 0.86158 0.83707 0.31634 0.0
C703 C 0.89536 0.87398 0.32196 0.0
C704 C 0.90714 0.90036 0.32453 0.0
C705 C 0.87547 0.82532 0.3166 0.0
C706 C 0.89993 0.83845 0.31927 0.0
C707 C 0.90918 0.86223 0.32221 0.0
C708 C 0.9176 0.82989 0.31788 0.0
C709 C 0.86403 0.79922 0.31382 0.0
C710 C 0.93307 0.8306 0.32393 0.0
C711 C 0.95389 0.82902 0.32219 0.0
C712 C 0.95966 0.82699 0.31436 0.0
C713 C 0.94298 0.82412 0.30843 0.0
C714 C 0.92223 0.82567 0.31017 0.0
H715 H 0.84404 0.78912 0.31499 0.0
H716 H 0.86659 0.79907 0.30739 0.0
H717 H 0.87245 0.78944 0.3167 0.0
H718 H 0.9299 0.83398 0.32992 0.0
H719 H 0.96636 0.83127 0.32689 0.0
H720 H 0.86959 0.83168 0.79787 0.0
H721 H 0.90996 0.83538 0.79761 0.0
H722 H 0.91577 0.84601 0.82267 0.0
H723 H 0.87503 0.84156 0.82298 0.0
H724 H 0.94818 0.87833 0.80166 0.0
H725 H 0.9489 0.80588 0.81974 0.0
H726 H 0.92095 0.80372 0.81616 0.0
H727 H 0.93579 0.82156 0.82475 0.0
C728 C 0.87914 0.834 0.80335 0.0
C729 C 0.8693 0.83659 0.81044 0.0
C730 C 0.90218 0.83608 0.8032 0.0
C731 C 0.91589 0.84095 0.81011 0.0
C732 C 0.90536 0.84176 0.81728 0.0
H733 H 0.06778 0.91662 0.8216 0.0
H734 H 0.02319 0.89191 0.82159 0.0
C735 C 0.8821 0.83935 0.81745 0.0
C736 C 0.94238 0.84943 0.80962 0.0
H737 H 0.98808 0.84153 0.81716 0.0
C738 C 0.95682 0.86998 0.80494 0.0
C739 C 0.95366 0.83871 0.81398 0.0
C740 C 0.93898 0.8161 0.81888 0.0
C741 C 0.98228 0.8806 0.80467 0.0
C742 C 0.99362 0.87016 0.80912 0.0
C743 C 0.97924 0.84938 0.81373 0.0
C744 C 0.02054 0.8817 0.80938 0.0
C745 C 0.99691 0.90353 0.79987 0.0
C746 C 0.03377 0.88347 0.80257 0.0
C747 C 0.05926 0.89773 0.80253 0.0
C748 C 0.07191 0.91036 0.80932 0.0
C749 C 0.05861 0.90732 0.81625 0.0
C750 C 0.03313 0.89309 0.81627 0.0
H751 H 0.98582 0.91191 0.79808 0.0
H752 H 0.01305 0.9173 0.80322 0.0
H753 H 0.00362 0.89897 0.79448 0.0
H754 H 0.02432 0.87454 0.79721 0.0
H755 H 0.06895 0.89947 0.79711 0.0
H756 H 0.096 0.16625 0.79647 0.0
H757 H 0.12153 0.14723 0.79655 0.0
H758 H 0.10538 0.1296 0.82103 0.0
H759 H 0.08014 0.14892 0.82107 0.0
H760 H 0.15521 0.14505 0.81665 0.0
H761 H 0.08606 0.07186 0.79746 0.0
H762 H 0.09861 0.10245 0.79376 0.0
H763 H 0.08019 0.09354 0.80248 0.0
C764 C 0.09811 0.15861 0.8019 0.0
C765 C 0.08571 0.15876 0.80873 0.0
C766 C 0.11271 0.14776 0.80193 0.0
C767 C 0.11499 0.13671 0.80877 0.0
C768 C 0.10378 0.13801 0.8157 0.0
H769 H 0.1571 0.03276 0.82216 0.0
H770 H 0.15203 0.06867 0.82195 0.0
C771 C 0.08927 0.14896 0.81569 0.0
C772 C 0.12701 0.12176 0.80852 0.0
H773 H 0.12037 0.06888 0.80092 0.0
C774 C 0.14777 0.12848 0.81317 0.0
C775 C 0.11711 0.1001 0.80402 0.0
C776 C 0.09415 0.09136 0.7992 0.0
C777 C 0.15895 0.11403 0.81342 0.0
C778 C 0.14882 0.09221 0.80898 0.0
C779 C 0.12828 0.08577 0.80426 0.0
C780 C 0.15786 0.07464 0.80945 0.0
C781 C 0.18147 0.12225 0.81839 0.0
C782 C 0.16343 0.06643 0.80254 0.0
C783 C 0.16592 0.0457 0.80262 0.0
C784 C 0.16299 0.03286 0.80964 0.0
C785 C 0.15957 0.04234 0.81667 0.0
C786 C 0.1568 0.06297 0.81657 0.0
H787 H 0.19121 0.14234 0.81936 0.0
H788 H 0.17598 0.11321 0.8242 0.0
H789 H 0.1943 0.11722 0.81565 0.0
H790 H 0.16432 0.07516 0.79698 0.0
H791 H 0.16876 0.03893 0.79712 0.0
H792 H 0.83621 0.92577 0.82511 0.0
H793 H 0.85396 0.96988 0.82673 0.0
H794 H 0.85592 0.97865 0.80162 0.0
H795 H 0.83768 0.93457 0.79994 0.0
H796 H 0.8985 0.00202 0.82167 0.0
H797 H 0.83282 0.02493 0.80832 0.0
H798 H 0.82452 0.99402 0.81095 0.0
H799 H 0.83977 0.00696 0.8018 0.0
C800 C 0.83999 0.93703 0.81993 0.0
C801 C 0.83569 0.92668 0.81239 0.0
C802 C 0.85005 0.96223 0.82087 0.0
C803 C 0.85596 0.97755 0.81431 0.0
C804 C 0.85091 0.96716 0.80678 0.0
H805 H 0.95802 0.1168 0.7992 0.0
H806 H 0.92184 0.07699 0.8014 0.0
C807 C 0.8407 0.94194 0.80583 0.0
C808 C 0.87045 0.00446 0.81524 0.0
H809 H 0.87506 0.0579 0.80891 0.0
C810 C 0.89312 0.01428 0.81905 0.0
C811 C 0.86338 0.0204 0.81183 0.0
C812 C 0.83866 0.01101 0.80807 0.0
C813 C 0.90965 0.03949 0.81907 0.0
C814 C 0.90313 0.05534 0.81528 0.0
C815 C 0.87996 0.04568 0.81182 0.0
C816 C 0.92146 0.08135 0.81396 0.0
C817 C 0.93459 0.04875 0.82269 0.0
C818 C 0.93248 0.09748 0.82026 0.0
C819 C 0.95336 0.12029 0.81903 0.0
C820 C 0.96341 0.12725 0.81148 0.0
C821 C 0.95096 0.11189 0.80511 0.0
C822 C 0.93018 0.08915 0.80634 0.0
H823 H 0.93799 0.03365 0.82428 0.0
H824 H 0.94917 0.06127 0.81859 0.0
H825 H 0.93605 0.05915 0.8281 0.0
H826 H 0.92575 0.09188 0.82618 0.0
H827 H 0.96238 0.13179 0.82406 0.0
H828 H 0.90554 0.06237 0.7015 0.0
H829 H 0.88045 0.01808 0.69992 0.0
H830 H 0.87949 0.02701 0.67489 0.0
H831 H 0.90515 0.0713 0.67638 0.0
H832 H 0.83494 0.98634 0.69314 0.0
H833 H 0.91107 0.9848 0.67716 0.0
H834 H 0.91514 0.01157 0.68226 0.0
H835 H 0.90018 0.00356 0.67289 0.0
C836 C 0.8998 0.05495 0.69566 0.0
C837 C 0.90769 0.07031 0.68905 0.0
C838 C 0.88539 0.02965 0.69477 0.0
C839 C 0.87851 0.01928 0.68728 0.0
C840 C 0.88506 0.03464 0.68071 0.0
H841 H 0.83159 0.86624 0.67755 0.0
H842 H 0.83402 0.90579 0.67553 0.0
C843 C 0.89969 0.05994 0.68158 0.0
C844 C 0.86628 0.9924 0.68636 0.0
H845 H 0.87622 0.94716 0.67974 0.0
C846 C 0.84378 0.97772 0.69012 0.0
C847 C 0.87783 0.98122 0.68239 0.0
C848 C 0.90246 0.99602 0.67849 0.0
C849 C 0.83293 0.95214 0.69024 0.0
C850 C 0.84507 0.94109 0.68659 0.0
C851 C 0.86688 0.95569 0.68249 0.0
C852 C 0.83768 0.9151 0.68785 0.0
C853 C 0.80886 0.93722 0.69442 0.0
C854 C 0.83823 0.90697 0.69546 0.0
C855 C 0.83697 0.88451 0.69662 0.0
C856 C 0.83527 0.8698 0.6902 0.0
C857 C 0.83291 0.87715 0.68262 0.0
C858 C 0.83428 0.89973 0.68146 0.0
H859 H 0.79807 0.94674 0.69442 0.0
H860 H 0.79778 0.91894 0.69169 0.0
H861 H 0.81242 0.93463 0.70062 0.0
H862 H 0.84135 0.91871 0.70047 0.0
H863 H 0.83871 0.87933 0.70254 0.0
H864 H 0.1319 0.96364 0.67877 0.0
H865 H 0.09175 0.92699 0.67704 0.0
H866 H 0.07757 0.92654 0.70177 0.0
H867 H 0.11762 0.96272 0.7036 0.0
H868 H 0.05814 0.87891 0.69506 0.0
H869 H 0.03362 0.93938 0.67827 0.0
H870 H 0.05894 0.93677 0.67465 0.0
H871 H 0.06144 0.9514 0.6839 0.0
C872 C 0.12049 0.95538 0.68387 0.0
C873 C 0.12775 0.96638 0.6913 0.0
C874 C 0.09753 0.9345 0.68286 0.0
C875 C 0.08155 0.92443 0.68925 0.0
C876 C 0.0896 0.93413 0.69676 0.0
H877 H 0.93471 0.84263 0.70363 0.0
H878 H 0.97885 0.86108 0.70202 0.0
C879 C 0.11249 0.95491 0.69778 0.0
C880 C 0.05548 0.90595 0.6881 0.0
H881 H 0.00204 0.90026 0.68136 0.0
C882 C 0.04587 0.88335 0.69195 0.0
C883 C 0.03956 0.91185 0.68405 0.0
C884 C 0.04876 0.9362 0.68002 0.0
C885 C 0.02059 0.86678 0.69207 0.0
C886 C 0.0046 0.87328 0.68837 0.0
C887 C 0.01435 0.89532 0.68419 0.0
C888 C 0.9777 0.85885 0.68935 0.0
C889 C 0.01126 0.84269 0.69625 0.0
C890 C 0.96235 0.8516 0.68276 0.0
C891 C 0.93711 0.84138 0.68366 0.0
C892 C 0.92675 0.83828 0.69116 0.0
C893 C 0.94208 0.84471 0.69776 0.0
C894 C 0.96733 0.85505 0.69686 0.0
H895 H 0.02524 0.83692 0.69631 0.0
H896 H 0.00707 0.84473 0.70243 0.0
H897 H 0.99434 0.82806 0.69347 0.0
H898 H 0.96999 0.85455 0.67691 0.0
H899 H 0.92582 0.8365 0.67845 0.0
H900 H 0.02947 0.15351 0.67759 0.0
H901 H 0.06551 0.1485 0.67793 0.0
H902 H 0.07415 0.16541 0.70261 0.0
H903 H 0.0378 0.16974 0.70237 0.0
H904 H 0.11565 0.17469 0.68315 0.0
H905 H 0.0564 0.09329 0.70144 0.0
H906 H 0.04469 0.11011 0.69623 0.0
H907 H 0.06091 0.12169 0.70531 0.0
C908 C 0.03949 0.15689 0.68303 0.0
C909 C 0.03061 0.16154 0.68999 0.0
C910 C 0.06006 0.15401 0.68322 0.0
C911 C 0.07206 0.156 0.69034 0.0
C912 C 0.06479 0.1633 0.6971 0.0
H913 H 0.1643 0.09746 0.70476 0.0
H914 H 0.14474 0.12242 0.7041 0.0
C915 C 0.04407 0.16581 0.69695 0.0
C916 C 0.08966 0.14708 0.69094 0.0
H917 H 0.09653 0.10167 0.69919 0.0
C918 C 0.1116 0.15881 0.68668 0.0
C919 C 0.08412 0.12618 0.69549 0.0
C920 C 0.06017 0.1119 0.69982 0.0
C921 C 0.12833 0.15027 0.68693 0.0
C922 C 0.12272 0.12939 0.69149 0.0
C923 C 0.10088 0.11785 0.69578 0.0
C924 C 0.13832 0.11806 0.6916 0.0
C925 C 0.15185 0.16365 0.68236 0.0
C926 C 0.14148 0.10763 0.68476 0.0
C927 C 0.15257 0.09327 0.68512 0.0
C928 C 0.16053 0.08895 0.69233 0.0
C929 C 0.15829 0.10033 0.69912 0.0
C930 C 0.1472 0.11467 0.69875 0.0
H931 H 0.15647 0.18268 0.68097 0.0
H932 H 0.16727 0.16417 0.68566 0.0
H933 H 0.14982 0.15395 0.67675 0.0
H934 H 0.13429 0.10958 0.67921 0.0
H935 H 0.15404 0.08481 0.67978 0.0
H936 H 0.59721 0.41637 0.51279 0.0
H937 H 0.64181 0.44122 0.51265 0.0
H938 H 0.64156 0.45625 0.53729 0.0
H939 H 0.59697 0.43109 0.53753 0.0
H940 H 0.67694 0.49066 0.51719 0.0
H941 H 0.68047 0.41991 0.53567 0.0
H942 H 0.65288 0.41472 0.53084 0.0
H943 H 0.66289 0.43256 0.53968 0.0
C944 C 0.60659 0.42519 0.51816 0.0
C945 C 0.59356 0.42139 0.52521 0.0
C946 C 0.63207 0.43948 0.51806 0.0
C947 C 0.64492 0.45024 0.52498 0.0
C948 C 0.63192 0.44777 0.53191 0.0
H949 H 0.7959 0.50278 0.53666 0.0
H950 H 0.75532 0.49857 0.53667 0.0
C951 C 0.60646 0.43338 0.53204 0.0
C952 C 0.67188 0.46192 0.52511 0.0
H953 H 0.71791 0.45441 0.53241 0.0
C954 C 0.686 0.4829 0.52055 0.0
C955 C 0.68353 0.45157 0.52945 0.0
C956 C 0.66923 0.42834 0.53414 0.0
C957 C 0.71162 0.49392 0.52027 0.0
C958 C 0.7232 0.48344 0.52458 0.0
C959 C 0.70902 0.4626 0.52918 0.0
C960 C 0.74982 0.49257 0.52417 0.0
C961 C 0.72604 0.51668 0.51541 0.0
C962 C 0.76068 0.49176 0.51708 0.0
C963 C 0.78405 0.49442 0.51704 0.0
C964 C 0.79663 0.49747 0.52412 0.0
C965 C 0.78652 0.50023 0.53112 0.0
C966 C 0.76336 0.49788 0.53114 0.0
H967 H 0.71565 0.52637 0.51443 0.0
H968 H 0.74375 0.52944 0.51825 0.0
H969 H 0.72995 0.5115 0.5096 0.0
H970 H 0.75041 0.48723 0.51166 0.0
H971 H 0.79134 0.49207 0.51157 0.0
H972 H 0.50741 0.29324 0.53434 0.0
H973 H 0.51101 0.2572 0.53183 0.0
H974 H 0.50029 0.26273 0.50712 0.0
H975 H 0.49707 0.29927 0.50955 0.0
H976 H 0.48341 0.21104 0.52412 0.0
H977 H 0.5705 0.27446 0.50877 0.0
H978 H 0.55416 0.28549 0.51457 0.0
H979 H 0.543 0.27261 0.50505 0.0
C980 C 0.50532 0.28657 0.52838 0.0
C981 C 0.5025 0.29945 0.52212 0.0
C982 C 0.50726 0.26586 0.52697 0.0
C983 C 0.50641 0.25764 0.51928 0.0
C984 C 0.50139 0.26909 0.51308 0.0
H985 H 0.57737 0.1727 0.50821 0.0
H986 H 0.55088 0.19026 0.50641 0.0
C987 C 0.49947 0.2899 0.51449 0.0
C988 C 0.51403 0.23934 0.5178 0.0
H989 H 0.56287 0.23504 0.51137 0.0
C990 C 0.50055 0.21606 0.5212 0.0
C991 C 0.53641 0.24599 0.51399 0.0
C992 C 0.55202 0.27101 0.51042 0.0
C993 C 0.50937 0.19958 0.52116 0.0
C994 C 0.53245 0.20684 0.51777 0.0
C995 C 0.54519 0.22954 0.51397 0.0
C996 C 0.54511 0.19262 0.5188 0.0
C997 C 0.49413 0.1748 0.52489 0.0
C998 C 0.55049 0.18791 0.52636 0.0
C999 C 0.5656 0.17788 0.52742 0.0
C1000 C 0.5759 0.17264 0.52092 0.0
C1001 C 0.56984 0.17664 0.51334 0.0
C1002 C 0.55463 0.18658 0.51229 0.0
H1003 H 0.47434 0.16881 0.52461 0.0
H1004 H 0.49717 0.16078 0.52201 0.0
H1005 H 0.4992 0.17588 0.53117 0.0
H1006 H 0.54392 0.19304 0.53148 0.0
H1007 H 0.56992 0.17509 0.53334 0.0
H1008 H 0.70048 0.20278 0.50881 0.0
H1009 H 0.73768 0.24258 0.50725 0.0
H1010 H 0.74124 0.25313 0.53229 0.0
H1011 H 0.70441 0.21352 0.5339 0.0
H1012 H 0.73634 0.28354 0.51182 0.0
H1013 H 0.81308 0.28178 0.52674 0.0
H1014 H 0.78584 0.25426 0.52364 0.0
H1015 H 0.78611 0.26894 0.53272 0.0
C1016 C 0.70966 0.21322 0.514 0.0
C1017 C 0.69936 0.20515 0.52147 0.0
C1018 C 0.7309 0.23595 0.5131 0.0
C1019 C 0.74233 0.25073 0.51966 0.0
C1020 C 0.73305 0.24186 0.52716 0.0
H1021 H 0.82104 0.39665 0.53483 0.0
H1022 H 0.80181 0.35252 0.53281 0.0
C1023 C 0.71181 0.21927 0.52806 0.0
C1024 C 0.76098 0.27683 0.51868 0.0
H1025 H 0.81585 0.32144 0.52579 0.0
C1026 C 0.75402 0.29182 0.51469 0.0
C1027 C 0.7839 0.28753 0.5225 0.0
C1028 C 0.79278 0.27223 0.52657 0.0
C1029 C 0.76857 0.31735 0.51487 0.0
C1030 C 0.79102 0.32815 0.519 0.0
C1031 C 0.79861 0.31312 0.52265 0.0
C1032 C 0.8056 0.35493 0.52019 0.0
C1033 C 0.75896 0.3325 0.51109 0.0
C1034 C 0.81479 0.37093 0.51377 0.0
C1035 C 0.82548 0.39613 0.5149 0.0
C1036 C 0.8275 0.40578 0.52247 0.0
C1037 C 0.81965 0.38979 0.52892 0.0
C1038 C 0.80873 0.36458 0.52778 0.0
H1039 H 0.73921 0.32141 0.50963 0.0
H1040 H 0.76161 0.3477 0.515 0.0
H1041 H 0.7691 0.34055 0.50556 0.0
H1042 H 0.81304 0.36387 0.50788 0.0
H1043 H 0.8317 0.408 0.50982 0.0
H1044 H 0.81843 0.45105 0.63159 0.0
H1045 H 0.81481 0.41108 0.63332 0.0
H1046 H 0.82965 0.4253 0.65801 0.0
H1047 H 0.83291 0.46538 0.65638 0.0
H1048 H 0.84371 0.39211 0.63977 0.0
H1049 H 0.75935 0.36671 0.65705 0.0
H1050 H 0.77464 0.39456 0.65142 0.0
H1051 H 0.78734 0.39219 0.66057 0.0
C1052 C 0.82138 0.44594 0.63738 0.0
C1053 C 0.82545 0.4612 0.64388 0.0
C1054 C 0.81943 0.4231 0.63834 0.0
C1055 C 0.8215 0.4151 0.64581 0.0
C1056 C 0.8276 0.43106 0.65222 0.0
H1057 H 0.75507 0.25932 0.65633 0.0
H1058 H 0.78117 0.30347 0.65793 0.0
C1059 C 0.82954 0.45397 0.65126 0.0
C1060 C 0.81422 0.3891 0.64692 0.0
H1061 H 0.76706 0.33538 0.65375 0.0
C1062 C 0.82719 0.37971 0.64294 0.0
C1063 C 0.79263 0.373 0.65105 0.0
C1064 C 0.77751 0.38197 0.65523 0.0
C1065 C 0.81867 0.35447 0.64277 0.0
C1066 C 0.79639 0.3383 0.64655 0.0
C1067 C 0.78415 0.34783 0.65086 0.0
C1068 C 0.78403 0.31143 0.64551 0.0
C1069 C 0.83337 0.34537 0.63843 0.0
C1070 C 0.77719 0.30122 0.63799 0.0
C1071 C 0.7623 0.27598 0.63705 0.0
C1072 C 0.7537 0.26052 0.64362 0.0
C1073 C 0.76126 0.27072 0.65114 0.0
C1074 C 0.77625 0.29595 0.65207 0.0
H1075 H 0.8531 0.35945 0.63832 0.0
H1076 H 0.83131 0.32844 0.64113 0.0
H1077 H 0.82691 0.34129 0.63228 0.0
H1078 H 0.78241 0.31284 0.63286 0.0
H1079 H 0.75677 0.26873 0.63118 0.0
H1080 H 0.53287 0.3757 0.63324 0.0
H1081 H 0.57333 0.41237 0.63302 0.0
H1082 H 0.58285 0.40218 0.65749 0.0
H1083 H 0.54199 0.36585 0.65782 0.0
H1084 H 0.6067 0.45258 0.65265 0.0
H1085 H 0.62753 0.39441 0.63332 0.0
H1086 H 0.60361 0.39942 0.6298 0.0
H1087 H 0.59926 0.38244 0.63869 0.0
C1088 C 0.54328 0.38172 0.63863 0.0
C1089 C 0.53452 0.36774 0.64551 0.0
C1090 C 0.56638 0.40263 0.6385 0.0
C1091 C 0.58127 0.40953 0.64518 0.0
C1092 C 0.57164 0.39702 0.65226 0.0
H1093 H 0.73431 0.48861 0.65554 0.0
H1094 H 0.68988 0.46981 0.65615 0.0
C1095 C 0.5483 0.37629 0.65244 0.0
C1096 C 0.60777 0.4271 0.6445 0.0
H1097 H 0.6596 0.43411 0.63585 0.0
C1098 C 0.61831 0.44869 0.64894 0.0
C1099 C 0.62285 0.42177 0.63972 0.0
C1100 C 0.61285 0.39817 0.63516 0.0
C1101 C 0.64362 0.46523 0.64868 0.0
C1102 C 0.65862 0.45978 0.64392 0.0
C1103 C 0.64799 0.43835 0.63943 0.0
C1104 C 0.6856 0.47498 0.64383 0.0
C1105 C 0.65411 0.48835 0.65348 0.0
C1106 C 0.69794 0.4842 0.63671 0.0
C1107 C 0.72333 0.49472 0.63632 0.0
C1108 C 0.73681 0.49606 0.64305 0.0
C1109 C 0.72448 0.48782 0.65025 0.0
C1110 C 0.69909 0.47729 0.65063 0.0
H1111 H 0.63993 0.49319 0.65498 0.0
H1112 H 0.66155 0.4856 0.65904 0.0
H1113 H 0.66924 0.50392 0.6503 0.0
H1114 H 0.68781 0.4824 0.63139 0.0
H1115 H 0.73224 0.50098 0.63069 0.0
H1116 H 0.63125 0.16666 0.65744 0.0
H1117 H 0.59467 0.16997 0.65961 0.0
H1118 H 0.58795 0.17641 0.63468 0.0
H1119 H 0.62412 0.17288 0.63246 0.0
H1120 H 0.59611 0.21239 0.65531 0.0
H1121 H 0.51684 0.13445 0.64113 0.0
H1122 H 0.54421 0.13372 0.64374 0.0
H1123 H 0.54297 0.14813 0.63478 0.0
C1124 C 0.62149 0.16795 0.6524 0.0
C1125 C 0.63074 0.16981 0.64478 0.0
C1126 C 0.60061 0.16985 0.65366 0.0
C1127 C 0.58849 0.17326 0.64731 0.0
C1128 C 0.59667 0.17329 0.63966 0.0
H1129 H 0.51035 0.24262 0.63379 0.0
H1130 H 0.52937 0.21738 0.63537 0.0
C1131 C 0.61755 0.17151 0.63841 0.0
C1132 C 0.5703 0.18116 0.64862 0.0
H1133 H 0.51499 0.17182 0.64231 0.0
C1134 C 0.57809 0.20321 0.65265 0.0
C1135 C 0.54693 0.16923 0.64509 0.0
C1136 C 0.53716 0.14494 0.64101 0.0
C1137 C 0.56389 0.21457 0.65277 0.0
C1138 C 0.54098 0.20323 0.64891 0.0
C1139 C 0.53259 0.18051 0.64524 0.0
C1140 C 0.52668 0.21583 0.64802 0.0
C1141 C 0.57428 0.23939 0.65659 0.0
C1142 C 0.51823 0.22271 0.6546 0.0
C1143 C 0.50762 0.2374 0.65373 0.0
C1144 C 0.50499 0.24517 0.64625 0.0
C1145 C 0.51222 0.23706 0.63964 0.0
C1146 C 0.52302 0.22256 0.64053 0.0
H1147 H 0.59413 0.24771 0.65785 0.0
H1148 H 0.57156 0.25212 0.65279 0.0
H1149 H 0.56471 0.23748 0.66222 0.0
H1150 H 0.52044 0.21728 0.66043 0.0
H1151 H 0.50192 0.24304 0.65894 0.0
H1152 H 0.73289 0.22759 0.13204 0.0
H1153 H 0.68838 0.20183 0.13251 0.0
H1154 H 0.68832 0.22367 0.15645 0.0
H1155 H 0.73285 0.24916 0.15609 0.0
H1156 H 0.65352 0.17274 0.15313 0.0
H1157 H 0.64889 0.23789 0.13218 0.0
H1158 H 0.66666 0.22447 0.12898 0.0
H1159 H 0.67663 0.24473 0.13727 0.0
C1160 C 0.72347 0.22667 0.13744 0.0
C1161 C 0.73638 0.24076 0.14399 0.0
C1162 C 0.69805 0.21193 0.1377 0.0
C1163 C 0.68512 0.21119 0.14448 0.0
C1164 C 0.69802 0.22405 0.15116 0.0
H1165 H 0.54045 0.17352 0.15795 0.0
H1166 H 0.58098 0.17745 0.15789 0.0
C1167 C 0.72346 0.23871 0.15093 0.0
C1168 C 0.65815 0.19922 0.14434 0.0
H1169 H 0.61174 0.20467 0.13629 0.0
C1170 C 0.64427 0.17951 0.14941 0.0
C1171 C 0.64625 0.20827 0.13952 0.0
C1172 C 0.6603 0.23012 0.13422 0.0
C1173 C 0.61867 0.16857 0.14976 0.0
C1174 C 0.60685 0.17789 0.14501 0.0
C1175 C 0.62079 0.19735 0.13987 0.0
C1176 C 0.58034 0.16924 0.14554 0.0
C1177 C 0.60454 0.14717 0.15519 0.0
C1178 C 0.56621 0.16266 0.13867 0.0
C1179 C 0.5433 0.16089 0.13867 0.0
C1180 C 0.53401 0.16547 0.14554 0.0
C1181 C 0.54711 0.16976 0.15257 0.0
C1182 C 0.57025 0.17188 0.15256 0.0
H1183 H 0.61477 0.13745 0.15642 0.0
H1184 H 0.60157 0.15394 0.16084 0.0
H1185 H 0.58641 0.13396 0.15269 0.0
H1186 H 0.57364 0.16054 0.1332 0.0
H1187 H 0.5335 0.15736 0.13317 0.0
H1188 H 0.83372 0.3678 0.15682 0.0
H1189 H 0.83107 0.40505 0.15816 0.0
H1190 H 0.81642 0.40336 0.13342 0.0
H1191 H 0.81942 0.36657 0.13198 0.0
H1192 H 0.84586 0.45159 0.13969 0.0
H1193 H 0.76098 0.39401 0.15692 0.0
H1194 H 0.78877 0.39628 0.16055 0.0
H1195 H 0.77605 0.38094 0.15143 0.0
C1196 C 0.83053 0.3757 0.15163 0.0
C1197 C 0.82629 0.36395 0.14432 0.0
C1198 C 0.82895 0.39692 0.15242 0.0
C1199 C 0.82307 0.40661 0.14591 0.0
C1200 C 0.82087 0.39609 0.13851 0.0
H1201 H 0.75999 0.48879 0.13035 0.0
H1202 H 0.78555 0.47035 0.13231 0.0
C1203 C 0.82247 0.37496 0.13772 0.0
C1204 C 0.81608 0.42559 0.14685 0.0
H1205 H 0.76917 0.43302 0.15338 0.0
C1206 C 0.82934 0.44778 0.1428 0.0
C1207 C 0.79448 0.4205 0.1509 0.0
C1208 C 0.77908 0.39661 0.15517 0.0
C1209 C 0.82109 0.4647 0.14247 0.0
C1210 C 0.7988 0.45898 0.14616 0.0
C1211 C 0.78627 0.43738 0.15055 0.0
C1212 C 0.78669 0.47365 0.14496 0.0
C1213 C 0.83612 0.48832 0.13806 0.0
C1214 C 0.7787 0.48155 0.15141 0.0
C1215 C 0.76374 0.49175 0.15032 0.0
C1216 C 0.75644 0.49419 0.14274 0.0
C1217 C 0.76533 0.48723 0.13627 0.0
C1218 C 0.78016 0.4769 0.13737 0.0
H1219 H 0.8558 0.49379 0.13805 0.0
H1220 H 0.8299 0.48576 0.13188 0.0
H1221 H 0.83412 0.50338 0.14063 0.0
H1222 H 0.78338 0.47906 0.15732 0.0
H1223 H 0.75733 0.49705 0.15543 0.0
H1224 H 0.50433 0.25896 0.15839 0.0
H1225 H 0.52279 0.3033 0.15955 0.0
H1226 H 0.52601 0.30977 0.13435 0.0
H1227 H 0.50709 0.26549 0.13314 0.0
H1228 H 0.56771 0.33488 0.15455 0.0
H1229 H 0.50292 0.35684 0.14002 0.0
H1230 H 0.49434 0.32617 0.14306 0.0
H1231 H 0.50997 0.33815 0.13389 0.0
C1232 C 0.50856 0.26977 0.15309 0.0
C1233 C 0.50436 0.25869 0.14567 0.0
C1234 C 0.51904 0.2951 0.15377 0.0
C1235 C 0.52545 0.30983 0.14704 0.0
C1236 C 0.52061 0.29875 0.13963 0.0
H1237 H 0.62868 0.44756 0.13099 0.0
H1238 H 0.59262 0.40778 0.13338 0.0
C1239 C 0.51 0.27341 0.13894 0.0
C1240 C 0.54004 0.33682 0.14773 0.0
H1241 H 0.5452 0.38971 0.14058 0.0
C1242 C 0.56253 0.34693 0.15167 0.0
C1243 C 0.53322 0.35248 0.14397 0.0
C1244 C 0.50866 0.34284 0.14007 0.0
C1245 C 0.57914 0.37212 0.15148 0.0
C1246 C 0.57291 0.38764 0.14734 0.0
C1247 C 0.54989 0.37773 0.14375 0.0
C1248 C 0.59135 0.41349 0.14583 0.0
C1249 C 0.60389 0.38169 0.15527 0.0
C1250 C 0.60187 0.43031 0.15199 0.0
C1251 C 0.62263 0.45313 0.15065 0.0
C1252 C 0.63311 0.45937 0.14313 0.0
C1253 C 0.62126 0.44322 0.13687 0.0
C1254 C 0.60056 0.42049 0.13822 0.0
H1255 H 0.6071 0.36673 0.15721 0.0
H1256 H 0.61869 0.39365 0.15115 0.0
H1257 H 0.60519 0.39277 0.16049 0.0
H1258 H 0.59477 0.42531 0.15789 0.0
H1259 H 0.63123 0.46524 0.15559 0.0
H1260 H 0.57301 0.4045 0.00912 0.0
H1261 H 0.54654 0.36055 0.00711 0.0
H1262 H 0.53925 0.34962 0.03214 0.0
H1263 H 0.56518 0.39348 0.0342 0.0
H1264 H 0.55878 0.32799 0.01175 0.0
H1265 H 0.4701 0.30373 0.02524 0.0
H1266 H 0.49263 0.33488 0.02283 0.0
H1267 H 0.49479 0.32132 0.03187 0.0
C1268 C 0.56538 0.3928 0.01419 0.0
C1269 C 0.57135 0.40248 0.02182 0.0
C1270 C 0.55017 0.3677 0.01303 0.0
C1271 C 0.54061 0.35181 0.01946 0.0
C1272 C 0.54583 0.36155 0.02708 0.0
H1273 H 0.50701 0.21463 0.03456 0.0
H1274 H 0.50931 0.25375 0.03215 0.0
C1275 C 0.56091 0.38665 0.02825 0.0
C1276 C 0.52826 0.32498 0.01831 0.0
H1277 H 0.48006 0.2711 0.02465 0.0
C1278 C 0.54123 0.31551 0.01438 0.0
C1279 C 0.50536 0.30873 0.02173 0.0
C1280 C 0.48983 0.31772 0.02558 0.0
C1281 C 0.5329 0.29036 0.01431 0.0
C1282 C 0.51078 0.27423 0.01818 0.0
C1283 C 0.49702 0.28353 0.02169 0.0
C1284 C 0.50385 0.24847 0.01963 0.0
C1285 C 0.54876 0.28147 0.0106 0.0
C1286 C 0.4988 0.23203 0.01343 0.0
C1287 C 0.49759 0.20959 0.01478 0.0
C1288 C 0.50142 0.20336 0.02235 0.0
C1289 C 0.50431 0.219 0.02863 0.0
C1290 C 0.5055 0.24134 0.02728 0.0
H1291 H 0.56696 0.29679 0.00884 0.0
H1292 H 0.55155 0.26945 0.01471 0.0
H1293 H 0.53957 0.27065 0.00528 0.0
H1294 H 0.49712 0.23711 0.00749 0.0
H1295 H 0.49515 0.19785 0.00982 0.0
H1296 H 0.78577 0.29216 0.03535 0.0
H1297 H 0.746 0.25578 0.03351 0.0
H1298 H 0.75748 0.26053 0.0085 0.0
H1299 H 0.79743 0.29735 0.01029 0.0
H1300 H 0.71688 0.26216 0.01283 0.0
H1301 H 0.71625 0.18427 0.02774 0.0
H1302 H 0.729 0.21086 0.03388 0.0
H1303 H 0.74424 0.21141 0.0249 0.0
C1304 C 0.78019 0.28512 0.02947 0.0
C1305 C 0.79462 0.29784 0.02296 0.0
C1306 C 0.7575 0.26411 0.02843 0.0
C1307 C 0.74883 0.2553 0.02088 0.0
C1308 C 0.76393 0.26695 0.01439 0.0
H1309 H 0.59155 0.16805 0.01059 0.0
H1310 H 0.63565 0.18597 0.00876 0.0
C1311 C 0.78675 0.28798 0.01543 0.0
C1312 C 0.72265 0.23703 0.01977 0.0
H1313 H 0.67698 0.18258 0.02677 0.0
C1314 C 0.70818 0.24445 0.0157 0.0
C1315 C 0.71137 0.21404 0.02357 0.0
C1316 C 0.72609 0.20459 0.0277 0.0
C1317 C 0.6826 0.23035 0.01578 0.0
C1318 C 0.67124 0.20792 0.01992 0.0
C1319 C 0.68575 0.19983 0.02364 0.0
C1320 C 0.64442 0.19393 0.02105 0.0
C1321 C 0.66798 0.2404 0.01188 0.0
C1322 C 0.63469 0.19146 0.02861 0.0
C1323 C 0.6095 0.18104 0.02969 0.0
C1324 C 0.59361 0.17298 0.02321 0.0
C1325 C 0.60333 0.1744 0.01569 0.0
C1326 C 0.62852 0.18466 0.01462 0.0
H1327 H 0.6795 0.26003 0.01033 0.0
H1328 H 0.65971 0.23007 0.00641 0.0
H1329 H 0.65296 0.23835 0.01576 0.0
H1330 H 0.64668 0.19848 0.03365 0.0
H1331 H 0.6026 0.18009 0.03557 0.0
H1332 H 0.82862 0.42205 0.01088 0.0
H1333 H 0.81009 0.44773 0.00931 0.0
H1334 H 0.80193 0.44867 0.03438 0.0
H1335 H 0.82092 0.42349 0.03602 0.0
H1336 H 0.76416 0.4333 0.01339 0.0
H1337 H 0.82504 0.51911 0.02909 0.0
H1338 H 0.83464 0.49761 0.02628 0.0
H1339 H 0.81714 0.49291 0.0351 0.0
C1340 C 0.8233 0.42809 0.01607 0.0
C1341 C 0.82611 0.42059 0.02358 0.0
C1342 C 0.81279 0.44285 0.01516 0.0
C1343 C 0.80494 0.45042 0.02173 0.0
C1344 C 0.80845 0.44362 0.02924 0.0
H1345 H 0.69764 0.48214 0.03547 0.0
H1346 H 0.73427 0.47894 0.03385 0.0
C1347 C 0.8191 0.429 0.03016 0.0
C1348 C 0.79018 0.46253 0.02072 0.0
H1349 H 0.7828 0.50919 0.02761 0.0
C1350 C 0.76853 0.45023 0.01633 0.0
C1351 C 0.79592 0.48461 0.02456 0.0
C1352 C 0.8196 0.49944 0.02895 0.0
C1353 C 0.75164 0.45846 0.01613 0.0
C1354 C 0.75675 0.4798 0.02034 0.0
C1355 C 0.77897 0.49284 0.02439 0.0
C1356 C 0.73779 0.48674 0.02143 0.0
C1357 C 0.72775 0.44334 0.01185 0.0
C1358 C 0.7283 0.4933 0.01503 0.0
C1359 C 0.70719 0.49505 0.01592 0.0
C1360 C 0.69535 0.49026 0.02323 0.0
C1361 C 0.70612 0.48564 0.02974 0.0
C1362 C 0.72715 0.48392 0.02884 0.0
H1363 H 0.72517 0.4254 0.00992 0.0
H1364 H 0.71209 0.44 0.01565 0.0
H1365 H 0.72735 0.45343 0.00658 0.0
H1366 H 0.7365 0.49588 0.00928 0.0
H1367 H 0.69946 0.49881 0.01081 0.0
H1368 H 0.26923 0.76068 0.86895 0.0
H1369 H 0.31326 0.7863 0.86713 0.0
H1370 H 0.30318 0.78389 0.84207 0.0
H1371 H 0.25908 0.75778 0.84383 0.0
H1372 H 0.33514 0.77002 0.84622 0.0
H1373 H 0.35997 0.85658 0.86139 0.0
H1374 H 0.34188 0.83074 0.86757 0.0
H1375 H 0.32884 0.83479 0.85869 0.0
C1376 C 0.2763 0.76596 0.86306 0.0
C1377 C 0.26065 0.757 0.85654 0.0
C1378 C 0.30149 0.78084 0.86203 0.0
C1379 C 0.3115 0.78734 0.85447 0.0
C1380 C 0.29582 0.77924 0.84796 0.0
H1381 H 0.4654 0.83386 0.84417 0.0
H1382 H 0.42592 0.83175 0.84224 0.0
C1383 C 0.27063 0.76425 0.84898 0.0
C1384 C 0.33834 0.79958 0.85337 0.0
H1385 H 0.39235 0.84655 0.86016 0.0
C1386 C 0.3477 0.7871 0.84909 0.0
C1387 C 0.35467 0.82187 0.85711 0.0
C1388 C 0.3458 0.83688 0.86138 0.0
C1389 C 0.37282 0.79529 0.84894 0.0
C1390 C 0.38904 0.81679 0.85309 0.0
C1391 C 0.37985 0.83008 0.85699 0.0
C1392 C 0.41481 0.8235 0.85437 0.0
C1393 C 0.38157 0.7799 0.84482 0.0
C1394 C 0.42214 0.82097 0.8619 0.0
C1395 C 0.4446 0.82225 0.86303 0.0
C1396 C 0.4602 0.8261 0.85664 0.0
C1397 C 0.45372 0.83068 0.8492 0.0
C1398 C 0.43114 0.82939 0.84808 0.0
H1399 H 0.36619 0.76196 0.8429 0.0
H1400 H 0.39227 0.78977 0.83956 0.0
H1401 H 0.39368 0.77657 0.84873 0.0
H1402 H 0.40982 0.81651 0.86683 0.0
H1403 H 0.44915 0.81895 0.86885 0.0
H1404 H 0.16737 0.63357 0.84331 0.0
H1405 H 0.17051 0.59684 0.84127 0.0
H1406 H 0.17781 0.59122 0.86621 0.0
H1407 H 0.17448 0.62756 0.8683 0.0
H1408 H 0.21288 0.59796 0.84548 0.0
H1409 H 0.13497 0.51989 0.86012 0.0
H1410 H 0.13447 0.54728 0.85738 0.0
H1411 H 0.14903 0.54632 0.86634 0.0
C1412 C 0.16884 0.62404 0.84838 0.0
C1413 C 0.17095 0.63362 0.85596 0.0
C1414 C 0.17063 0.60307 0.8472 0.0
C1415 C 0.17419 0.59119 0.85359 0.0
C1416 C 0.17457 0.59976 0.8612 0.0
H1417 H 0.24293 0.51344 0.86775 0.0
H1418 H 0.21789 0.53255 0.86591 0.0
C1419 C 0.1729 0.62073 0.86238 0.0
C1420 C 0.18178 0.57274 0.85234 0.0
H1421 H 0.17217 0.51765 0.85899 0.0
C1422 C 0.20366 0.58011 0.84825 0.0
C1423 C 0.16978 0.54956 0.856 0.0
C1424 C 0.14562 0.5402 0.86014 0.0
C1425 C 0.21483 0.56572 0.84822 0.0
C1426 C 0.20348 0.54308 0.85223 0.0
C1427 C 0.18087 0.53506 0.85594 0.0
C1428 C 0.21602 0.52878 0.85329 0.0
C1429 C 0.2395 0.57569 0.84433 0.0
C1430 C 0.22268 0.51971 0.84681 0.0
C1431 C 0.23725 0.50902 0.84783 0.0
C1432 C 0.24514 0.50696 0.85536 0.0
C1433 C 0.23729 0.51486 0.86187 0.0
C1434 C 0.22289 0.52571 0.86083 0.0
H1435 H 0.24785 0.59542 0.84288 0.0
H1436 H 0.25232 0.57325 0.84817 0.0
H1437 H 0.23737 0.56559 0.8388 0.0
H1438 H 0.21714 0.52147 0.84095 0.0
H1439 H 0.24271 0.50282 0.8427 0.0
H1440 H 0.36756 0.53297 0.84251 0.0
H1441 H 0.4049 0.57251 0.84077 0.0
H1442 H 0.41014 0.58342 0.8658 0.0
H1443 H 0.37322 0.54404 0.8676 0.0
H1444 H 0.40397 0.61331 0.84526 0.0
H1445 H 0.48148 0.61254 0.85991 0.0
H1446 H 0.45412 0.58479 0.85704 0.0
H1447 H 0.45498 0.59986 0.8661 0.0
C1448 C 0.37715 0.54341 0.84766 0.0
C1449 C 0.36727 0.53553 0.85519 0.0
C1450 C 0.39848 0.566 0.84665 0.0
C1451 C 0.4104 0.58085 0.85315 0.0
C1452 C 0.40158 0.5721 0.8607 0.0
H1453 H 0.48609 0.72598 0.86856 0.0
H1454 H 0.46794 0.68205 0.86635 0.0
C1455 C 0.38027 0.54964 0.86172 0.0
C1456 C 0.42892 0.60698 0.8521 0.0
H1457 H 0.48354 0.65205 0.8592 0.0
C1458 C 0.42168 0.62176 0.84812 0.0
C1459 C 0.45191 0.61793 0.85588 0.0
C1460 C 0.46117 0.60288 0.85991 0.0
C1461 C 0.43594 0.64732 0.84831 0.0
C1462 C 0.45836 0.65835 0.85246 0.0
C1463 C 0.4663 0.64354 0.85605 0.0
C1464 C 0.47242 0.6851 0.85376 0.0
C1465 C 0.42603 0.66224 0.84454 0.0
C1466 C 0.48163 0.7014 0.84742 0.0
C1467 C 0.49172 0.7265 0.84865 0.0
C1468 C 0.49308 0.73573 0.85625 0.0
C1469 C 0.48519 0.71946 0.86263 0.0
C1470 C 0.4749 0.69435 0.86138 0.0
H1471 H 0.40639 0.65089 0.84297 0.0
H1472 H 0.42816 0.6771 0.84851 0.0
H1473 H 0.43639 0.67073 0.83909 0.0
H1474 H 0.48034 0.69465 0.84151 0.0
H1475 H 0.49797 0.73859 0.84362 0.0
H1476 H 0.42335 0.59435 0.96446 0.0
H1477 H 0.44878 0.63886 0.96474 0.0
H1478 H 0.43878 0.63843 0.98975 0.0
H1479 H 0.41358 0.5939 0.98956 0.0
H1480 H 0.42957 0.66744 0.96974 0.0
H1481 H 0.51187 0.68813 0.98718 0.0
H1482 H 0.49236 0.65854 0.98279 0.0
H1483 H 0.48341 0.66687 0.99175 0.0
C1484 C 0.42691 0.60365 0.97004 0.0
C1485 C 0.41625 0.59057 0.97698 0.0
C1486 C 0.44152 0.62908 0.9702 0.0
C1487 C 0.44589 0.6419 0.97728 0.0
C1488 C 0.43609 0.62886 0.98425 0.0
H1489 H 0.4852 0.78814 0.99018 0.0
H1490 H 0.47931 0.74673 0.99018 0.0
C1491 C 0.42148 0.6034 0.98411 0.0
C1492 C 0.45771 0.66888 0.97721 0.0
H1493 H 0.50458 0.72139 0.98494 0.0
C1494 C 0.44617 0.67926 0.97297 0.0
C1495 C 0.47916 0.68416 0.98153 0.0
C1496 C 0.49258 0.67392 0.98602 0.0
C1497 C 0.45509 0.70448 0.97307 0.0
C1498 C 0.47654 0.71984 0.97738 0.0
C1499 C 0.48826 0.70954 0.98159 0.0
C1500 C 0.48611 0.7465 0.97777 0.0
C1501 C 0.4409 0.71434 0.96877 0.0
C1502 C 0.4933 0.76049 0.97088 0.0
C1503 C 0.49634 0.78393 0.97084 0.0
C1504 C 0.49265 0.79389 0.97772 0.0
C1505 C 0.48812 0.7809 0.98479 0.0
C1506 C 0.48474 0.75725 0.9848 0.0
H1507 H 0.42203 0.69968 0.96733 0.0
H1508 H 0.43976 0.72847 0.97232 0.0
H1509 H 0.45036 0.72289 0.9632 0.0
H1510 H 0.49489 0.75262 0.96542 0.0
H1511 H 0.50016 0.79368 0.96532 0.0
H1512 H 0.19862 0.70015 0.99004 0.0
H1513 H 0.23818 0.73751 0.99175 0.0
H1514 H 0.25097 0.74003 0.96685 0.0
H1515 H 0.21159 0.70302 0.96509 0.0
H1516 H 0.27961 0.73616 0.98782 0.0
H1517 H 0.27885 0.81208 0.97197 0.0
H1518 H 0.25113 0.78491 0.97498 0.0
H1519 H 0.26664 0.78486 0.96613 0.0
C1520 C 0.20951 0.70911 0.9849 0.0
C1521 C 0.20212 0.69847 0.97744 0.0
C1522 C 0.2321 0.73046 0.98589 0.0
C1523 C 0.24743 0.74165 0.97942 0.0
C1524 C 0.23926 0.73202 0.9719 0.0
H1525 H 0.39461 0.82006 0.96558 0.0
H1526 H 0.35033 0.80101 0.96714 0.0
C1527 C 0.21681 0.71067 0.97092 0.0
C1528 C 0.27341 0.76043 0.98057 0.0
H1529 H 0.31849 0.81513 0.97351 0.0
C1530 C 0.28808 0.75373 0.98486 0.0
C1531 C 0.28437 0.7832 0.97665 0.0
C1532 C 0.26936 0.79179 0.97224 0.0
C1533 C 0.3136 0.76838 0.98491 0.0
C1534 C 0.3247 0.79068 0.98069 0.0
C1535 C 0.30994 0.79801 0.97673 0.0
C1536 C 0.35157 0.80531 0.97974 0.0
C1537 C 0.32848 0.75902 0.98903 0.0
C1538 C 0.36697 0.81476 0.98628 0.0
C1539 C 0.39226 0.82534 0.98543 0.0
C1540 C 0.40259 0.82699 0.97799 0.0
C1541 C 0.38722 0.81894 0.97139 0.0
C1542 C 0.36192 0.80813 0.97227 0.0
H1543 H 0.31732 0.73932 0.99055 0.0
H1544 H 0.34405 0.7616 0.98533 0.0
H1545 H 0.33598 0.76939 0.99455 0.0
H1546 H 0.35937 0.81325 0.99208 0.0
H1547 H 0.40365 0.83171 0.99061 0.0
H1548 H 0.16617 0.57444 0.99114 0.0
H1549 H 0.18379 0.54818 0.99337 0.0
H1550 H 0.1942 0.54562 0.96849 0.0
H1551 H 0.17611 0.5714 0.96617 0.0
H1552 H 0.17848 0.50044 0.97614 0.0
H1553 H 0.25766 0.57761 0.99126 0.0
H1554 H 0.22808 0.5683 0.99535 0.0
H1555 H 0.23567 0.58182 0.98576 0.0
C1556 C 0.17199 0.5681 0.98613 0.0
C1557 C 0.17008 0.57531 0.97848 0.0
C1558 C 0.18206 0.55312 0.98742 0.0
C1559 C 0.19068 0.54535 0.98111 0.0
C1560 C 0.18769 0.55149 0.97344 0.0
H1561 H 0.28688 0.49937 0.96727 0.0
H1562 H 0.25063 0.50294 0.96917 0.0
C1563 C 0.17744 0.56631 0.97213 0.0
C1564 C 0.20459 0.53253 0.98244 0.0
H1565 H 0.25936 0.54193 0.98928 0.0
C1566 C 0.19602 0.50932 0.97911 0.0
C1567 C 0.22739 0.54412 0.98636 0.0
C1568 C 0.23792 0.5694 0.98984 0.0
C1569 C 0.21012 0.4978 0.97933 0.0
C1570 C 0.23347 0.50999 0.98288 0.0
C1571 C 0.24138 0.53255 0.9866 0.0
C1572 C 0.25156 0.50182 0.98184 0.0
C1573 C 0.20014 0.47295 0.97561 0.0
C1574 C 0.26393 0.4995 0.98833 0.0
C1575 C 0.2849 0.49763 0.98726 0.0
C1576 C 0.29396 0.49839 0.97967 0.0
C1577 C 0.28047 0.49888 0.97319 0.0
C1578 C 0.25953 0.50067 0.97427 0.0
H1579 H 0.17983 0.46257 0.97581 0.0
H1580 H 0.2057 0.47527 0.96935 0.0
H1581 H 0.20722 0.46206 0.97855 0.0
H1582 H 0.25816 0.50054 0.99423 0.0
H1583 H 0.29487 0.49727 0.99237 0.0
H1584 H 0.19983 0.49584 0.46359 0.0
H1585 H 0.24008 0.49943 0.46275 0.0
H1586 H 0.24849 0.50953 0.4878 0.0
H1587 H 0.20789 0.50526 0.4887 0.0
H1588 H 0.27885 0.54232 0.46666 0.0
H1589 H 0.28103 0.4692 0.48393 0.0
H1590 H 0.2528 0.4672 0.48074 0.0
H1591 H 0.26842 0.48473 0.4893 0.0
C1592 C 0.20992 0.49803 0.46895 0.0
C1593 C 0.20085 0.50053 0.4762 0.0
C1594 C 0.2329 0.50003 0.46846 0.0
C1595 C 0.2473 0.50472 0.47521 0.0
C1596 C 0.23754 0.50543 0.48253 0.0
H1597 H 0.39948 0.57923 0.48574 0.0
H1598 H 0.35494 0.55421 0.48585 0.0
C1599 C 0.21436 0.50312 0.48304 0.0
C1600 C 0.27371 0.51313 0.47439 0.0
H1601 H 0.31999 0.50495 0.48119 0.0
C1602 C 0.28776 0.53384 0.46972 0.0
C1603 C 0.28534 0.50224 0.47846 0.0
C1604 C 0.27107 0.47947 0.48333 0.0
C1605 C 0.31319 0.5445 0.46922 0.0
C1606 C 0.32491 0.5339 0.4734 0.0
C1607 C 0.31089 0.51292 0.47797 0.0
C1608 C 0.35187 0.5456 0.47349 0.0
C1609 C 0.32741 0.56769 0.46451 0.0
C1610 C 0.36489 0.54835 0.46655 0.0
C1611 C 0.39037 0.56283 0.46644 0.0
C1612 C 0.40322 0.57466 0.47329 0.0
C1613 C 0.39016 0.57056 0.48034 0.0
C1614 C 0.3647 0.55616 0.48043 0.0
H1615 H 0.31617 0.57615 0.463 0.0
H1616 H 0.34383 0.5813 0.46778 0.0
H1617 H 0.33363 0.56342 0.45896 0.0
H1618 H 0.35528 0.54002 0.46115 0.0
H1619 H 0.39988 0.56538 0.46093 0.0
H1620 H 0.48587 0.69512 0.48769 0.0
H1621 H 0.47955 0.7303 0.48833 0.0
H1622 H 0.49201 0.74126 0.46344 0.0
H1623 H 0.49772 0.70579 0.4627 0.0
H1624 H 0.50396 0.78083 0.48352 0.0
H1625 H 0.41977 0.72176 0.46635 0.0
H1626 H 0.43793 0.71021 0.47076 0.0
H1627 H 0.44767 0.7273 0.46177 0.0
C1628 C 0.48795 0.70544 0.48239 0.0
C1629 C 0.49179 0.69744 0.47512 0.0
C1630 C 0.48434 0.72554 0.48277 0.0
C1631 C 0.48474 0.73795 0.4759 0.0
C1632 C 0.49114 0.73156 0.46878 0.0
H1633 H 0.42124 0.82895 0.46569 0.0
H1634 H 0.44656 0.80979 0.46505 0.0
C1635 C 0.49443 0.71133 0.46837 0.0
C1636 C 0.47522 0.7551 0.47599 0.0
H1637 H 0.4276 0.76128 0.4694 0.0
C1638 C 0.48735 0.77669 0.48041 0.0
C1639 C 0.45339 0.74944 0.47198 0.0
C1640 C 0.43876 0.72583 0.4675 0.0
C1641 C 0.47826 0.79294 0.48086 0.0
C1642 C 0.45643 0.7872 0.47686 0.0
C1643 C 0.44449 0.76573 0.47239 0.0
C1644 C 0.44462 0.8023 0.47749 0.0
C1645 C 0.4921 0.81613 0.48557 0.0
C1646 C 0.4354 0.80466 0.48471 0.0
C1647 C 0.42084 0.81553 0.48509 0.0
C1648 C 0.41511 0.82406 0.47824 0.0
C1649 C 0.4252 0.8225 0.47106 0.0
C1650 C 0.43975 0.81164 0.47069 0.0
H1651 H 0.51147 0.82108 0.48647 0.0
H1652 H 0.49164 0.83161 0.48265 0.0
H1653 H 0.48342 0.81341 0.49142 0.0
H1654 H 0.4385 0.7971 0.48999 0.0
H1655 H 0.41338 0.81646 0.49071 0.0
H1656 H 0.29728 0.78605 0.49351 0.0
H1657 H 0.26151 0.74486 0.49337 0.0
H1658 H 0.24626 0.75565 0.46953 0.0
H1659 H 0.28239 0.79651 0.46954 0.0
H1660 H 0.21038 0.72019 0.48959 0.0
H1661 H 0.26591 0.70283 0.46797 0.0
H1662 H 0.27831 0.73067 0.4736 0.0
H1663 H 0.25937 0.72639 0.4652 0.0
C1664 C 0.28586 0.77995 0.48832 0.0
C1665 C 0.29286 0.79424 0.48148 0.0
C1666 C 0.26543 0.7564 0.48825 0.0
C1667 C 0.25169 0.74706 0.48137 0.0
C1668 C 0.25699 0.7624 0.47484 0.0
H1669 H 0.16042 0.59612 0.46668 0.0
H1670 H 0.17836 0.64044 0.46765 0.0
C1671 C 0.27759 0.78573 0.47486 0.0
C1672 C 0.23452 0.72048 0.48062 0.0
H1673 H 0.22735 0.66978 0.47112 0.0
C1674 C 0.21392 0.70914 0.48552 0.0
C1675 C 0.23942 0.70612 0.47536 0.0
C1676 C 0.26205 0.71701 0.47028 0.0
C1677 C 0.19798 0.68371 0.48525 0.0
C1678 C 0.20302 0.66942 0.48002 0.0
C1679 C 0.22341 0.68085 0.47507 0.0
C1680 C 0.18853 0.6424 0.47985 0.0
C1681 C 0.17591 0.67234 0.49055 0.0
C1682 C 0.18808 0.62881 0.48642 0.0
C1683 C 0.17793 0.60349 0.48587 0.0
C1684 C 0.16822 0.59133 0.47873 0.0
C1685 C 0.16784 0.60491 0.47225 0.0
C1686 C 0.17799 0.63022 0.47281 0.0
H1687 H 0.17082 0.68599 0.49249 0.0
H1688 H 0.15997 0.65704 0.48756 0.0
H1689 H 0.18015 0.66493 0.49584 0.0
H1690 H 0.19662 0.63791 0.49186 0.0
H1691 H 0.17849 0.59359 0.49098 0.0
H1692 H 0.27132 0.73012 0.36584 0.0
H1693 H 0.24549 0.68605 0.36408 0.0
H1694 H 0.19681 0.69803 0.34934 0.0
H1695 H 0.22401 0.74233 0.35057 0.0
H1696 H 0.20261 0.65542 0.36783 0.0
H1697 H 0.20515 0.65373 0.33534 0.0
H1698 H 0.22375 0.68118 0.34087 0.0
H1699 H 0.19196 0.67107 0.33907 0.0
C1700 C 0.25514 0.72327 0.36221 0.0
C1701 C 0.24967 0.73944 0.35829 0.0
C1702 C 0.24032 0.69809 0.36121 0.0
C1703 C 0.21935 0.68855 0.35644 0.0
C1704 C 0.21331 0.70481 0.3528 0.0
H1705 H 0.13816 0.52869 0.362 0.0
H1706 H 0.14297 0.56968 0.36132 0.0
C1707 C 0.22867 0.73009 0.35357 0.0
C1708 C 0.20414 0.6616 0.35539 0.0
H1709 H 0.18101 0.61608 0.34169 0.0
C1710 C 0.19791 0.64683 0.36211 0.0
C1711 C 0.19786 0.65032 0.34792 0.0
C1712 C 0.20521 0.66488 0.34039 0.0
C1713 C 0.18732 0.62137 0.36158 0.0
C1714 C 0.18101 0.61002 0.35411 0.0
C1715 C 0.18569 0.62469 0.34741 0.0
C1716 C 0.17298 0.58367 0.35303 0.0
C1717 C 0.18486 0.60737 0.36904 0.0
C1718 C 0.18613 0.57704 0.3479 0.0
C1719 C 0.18234 0.5533 0.34795 0.0
C1720 C 0.16581 0.53599 0.35326 0.0
C1721 C 0.15113 0.54189 0.35789 0.0
C1722 C 0.15419 0.5654 0.3576 0.0
H1723 H 0.19627 0.61961 0.37385 0.0
H1724 H 0.16557 0.59807 0.37103 0.0
H1725 H 0.19039 0.59342 0.36809 0.0
H1726 H 0.20059 0.59063 0.34425 0.0
H1727 H 0.194 0.5492 0.34436 0.0
H1728 H 0.2618 0.50758 0.34791 0.0
H1729 H 0.30631 0.52875 0.34866 0.0
H1730 H 0.30254 0.53173 0.37384 0.0
H1731 H 0.25791 0.51081 0.37316 0.0
H1732 H 0.33073 0.57666 0.36688 0.0
H1733 H 0.35735 0.51092 0.35562 0.0
H1734 H 0.33636 0.51432 0.34937 0.0
H1735 H 0.32679 0.50152 0.35901 0.0
C1736 C 0.27037 0.51232 0.35363 0.0
C1737 C 0.25628 0.50769 0.36047 0.0
C1738 C 0.29585 0.52422 0.35405 0.0
C1739 C 0.30771 0.53153 0.36131 0.0
C1740 C 0.29369 0.52605 0.36818 0.0
H1741 H 0.45743 0.63944 0.37288 0.0
H1742 H 0.41648 0.60362 0.37357 0.0
C1743 C 0.26819 0.51415 0.36777 0.0
C1744 C 0.33455 0.54774 0.36164 0.0
H1745 H 0.38901 0.55302 0.35613 0.0
C1746 C 0.34351 0.57137 0.36464 0.0
C1747 C 0.35109 0.54085 0.35862 0.0
C1748 C 0.34246 0.51544 0.35554 0.0
C1749 C 0.3685 0.58859 0.3645 0.0
C1750 C 0.38509 0.5818 0.36144 0.0
C1751 C 0.37622 0.55808 0.35851 0.0
C1752 C 0.41155 0.59968 0.36101 0.0
C1753 C 0.37682 0.61422 0.36736 0.0
C1754 C 0.42289 0.60824 0.35371 0.0
C1755 C 0.44646 0.62857 0.35329 0.0
C1756 C 0.45884 0.64064 0.36017 0.0
C1757 C 0.44817 0.63073 0.36747 0.0
C1758 C 0.42479 0.61029 0.36789 0.0
H1759 H 0.36141 0.61791 0.36779 0.0
H1760 H 0.38499 0.61662 0.37328 0.0
H1761 H 0.39092 0.62803 0.3634 0.0
H1762 H 0.41295 0.60017 0.34834 0.0
H1763 H 0.45425 0.63577 0.34758 0.0
H1764 H 0.36708 0.83618 0.34225 0.0
H1765 H 0.40427 0.8344 0.33953 0.0
H1766 H 0.41631 0.83262 0.36434 0.0
H1767 H 0.37974 0.83496 0.36711 0.0
H1768 H 0.46014 0.85773 0.35561 0.0
H1769 H 0.39506 0.76608 0.34315 0.0
H1770 H 0.39569 0.79207 0.33862 0.0
H1771 H 0.38468 0.78381 0.34848 0.0
C1772 C 0.37805 0.83616 0.34712 0.0
C1773 C 0.37014 0.83512 0.35489 0.0
C1774 C 0.39923 0.83503 0.34555 0.0
C1775 C 0.41264 0.83275 0.35173 0.0
C1776 C 0.40612 0.8342 0.35948 0.0
H1777 H 0.49824 0.77436 0.36718 0.0
H1778 H 0.48056 0.80032 0.36463 0.0
C1779 C 0.38509 0.8354 0.36105 0.0
C1780 C 0.43104 0.82519 0.35031 0.0
H1781 H 0.43504 0.77503 0.34531 0.0
C1782 C 0.45486 0.83986 0.35321 0.0
C1783 C 0.42406 0.80183 0.34719 0.0
C1784 C 0.39847 0.78489 0.34422 0.0
C1785 C 0.47157 0.83133 0.35337 0.0
C1786 C 0.46405 0.8074 0.35069 0.0
C1787 C 0.44077 0.79338 0.34736 0.0
C1788 C 0.47868 0.79529 0.35204 0.0
C1789 C 0.4969 0.8478 0.35657 0.0
C1790 C 0.48347 0.78375 0.34582 0.0
C1791 C 0.49321 0.76856 0.34728 0.0
C1792 C 0.49829 0.76457 0.35499 0.0
C1793 C 0.49458 0.77707 0.36117 0.0
C1794 C 0.4847 0.79215 0.35971 0.0
H1795 H 0.5026 0.86737 0.35569 0.0
H1796 H 0.49691 0.84465 0.36297 0.0
H1797 H 0.51056 0.84407 0.35376 0.0
H1798 H 0.47881 0.78578 0.33987 0.0
H1799 H 0.49601 0.75934 0.34238 0.0
H1800 H 0.20857 0.22742 0.28542 0.0
H1801 H 0.22797 0.23621 0.27239 0.0
H1802 H 0.15792 0.18802 0.26186 0.0
H1803 H 0.13868 0.17902 0.27473 0.0
H1804 H 0.22576 0.19775 0.26272 0.0
H1805 H 0.188 0.24843 0.24725 0.0
H1806 H 0.18942 0.24744 0.25782 0.0
H1807 H 0.16488 0.22263 0.25254 0.0
C1808 C 0.19729 0.21924 0.28028 0.0
C1809 C 0.17215 0.2025 0.28107 0.0
C1810 C 0.20838 0.22422 0.27287 0.0
C1811 C 0.19431 0.21299 0.26616 0.0
C1812 C 0.16904 0.19724 0.26693 0.0
H1813 H 0.1845 0.13751 0.22716 0.0
H1814 H 0.19316 0.15668 0.24003 0.0
C1815 C 0.15809 0.19198 0.2743 0.0
C1816 C 0.20584 0.21486 0.25844 0.0
H1817 H 0.19784 0.22279 0.23912 0.0
C1818 C 0.22037 0.20396 0.25757 0.0
C1819 C 0.19909 0.22325 0.25174 0.0
C1820 C 0.18469 0.23633 0.25238 0.0
C1821 C 0.2261 0.19891 0.2501 0.0
C1822 C 0.21692 0.20479 0.2434 0.0
C1823 C 0.20467 0.21805 0.24427 0.0
C1824 C 0.21574 0.19355 0.23567 0.0
C1825 C 0.24065 0.18599 0.24946 0.0
C1826 C 0.22577 0.20789 0.22892 0.0
C1827 C 0.22096 0.19686 0.22151 0.0
C1828 C 0.20558 0.17144 0.22076 0.0
C1829 C 0.19641 0.15713 0.22755 0.0
C1830 C 0.2015 0.16806 0.23493 0.0
H1831 H 0.25313 0.1903 0.25455 0.0
H1832 H 0.22792 0.16593 0.24942 0.0
H1833 H 0.25158 0.19109 0.24398 0.0
H1834 H 0.23656 0.22762 0.22938 0.0
H1835 H 0.22808 0.20832 0.21635 0.0
H1836 H 0.86451 0.0387 0.22775 0.0
H1837 H 0.84519 0.02509 0.24052 0.0
H1838 H 0.7753 0.00646 0.2305 0.0
H1839 H 0.79468 0.02015 0.21756 0.0
H1840 H 0.81472 0.03769 0.25001 0.0
H1841 H 0.76736 0.94104 0.23956 0.0
H1842 H 0.79254 0.96505 0.23419 0.0
H1843 H 0.76332 0.96333 0.2342 0.0
C1844 C 0.8451 0.03211 0.22826 0.0
C1845 C 0.83106 0.03028 0.22164 0.0
C1846 C 0.83409 0.0244 0.23558 0.0
C1847 C 0.8088 0.01451 0.23643 0.0
C1848 C 0.79484 0.01386 0.22993 0.0
H1849 H 0.77007 0.96692 0.28574 0.0
H1850 H 0.76304 0.97957 0.27282 0.0
C1851 C 0.80594 0.02181 0.22257 0.0
C1852 C 0.79739 0.00312 0.24401 0.0
H1853 H 0.76971 0.94751 0.25311 0.0
C1854 C 0.80419 0.01799 0.25071 0.0
C1855 C 0.78381 0.9774 0.24487 0.0
C1856 C 0.77631 0.96062 0.23785 0.0
C1857 C 0.79937 0.00781 0.25826 0.0
C1858 C 0.78727 0.98209 0.25911 0.0
C1859 C 0.77885 0.96721 0.25242 0.0
C1860 C 0.78757 0.97071 0.26667 0.0
C1861 C 0.80907 0.02465 0.26525 0.0
C1862 C 0.80275 0.96053 0.2674 0.0
C1863 C 0.80678 0.95335 0.27471 0.0
C1864 C 0.79557 0.95605 0.28145 0.0
C1865 C 0.77895 0.96461 0.28064 0.0
C1866 C 0.77503 0.97198 0.27329 0.0
H1867 H 0.81997 0.04419 0.26352 0.0
H1868 H 0.79357 0.02229 0.26894 0.0
H1869 H 0.82074 0.01998 0.2689 0.0
H1870 H 0.81257 0.95935 0.26237 0.0
H1871 H 0.81956 0.94667 0.27513 0.0
H1872 H 0.02 0.85454 0.27394 0.0
H1873 H 0.00971 0.83601 0.26096 0.0
H1874 H 0.00691 0.77093 0.27003 0.0
H1875 H 0.01753 0.7896 0.28318 0.0
H1876 H 0.03447 0.81161 0.25167 0.0
H1877 H 0.93634 0.75313 0.25985 0.0
H1878 H 0.95563 0.78094 0.26519 0.0
H1879 H 0.96031 0.75532 0.26615 0.0
C1880 C 0.01752 0.8364 0.27318 0.0
C1881 C 0.01944 0.82346 0.27958 0.0
C1882 C 0.01171 0.82588 0.26576 0.0
C1883 C 0.00746 0.80212 0.26457 0.0
C1884 C 0.01013 0.78932 0.27087 0.0
H1885 H 0.97161 0.76595 0.21439 0.0
H1886 H 0.9824 0.7584 0.22755 0.0
C1887 C 0.01625 0.80001 0.27834 0.0
C1888 C -0.00127 0.79079 0.25679 0.0
H1889 H 0.94563 0.76014 0.24641 0.0
C1890 C 0.01517 0.7996 0.25049 0.0
C1891 C 0.97352 0.7753 0.25534 0.0
C1892 C 0.95526 0.7655 0.26196 0.0
C1893 C 0.0068 0.79487 0.24272 0.0
C1894 C 0.98137 0.781 0.24125 0.0
C1895 C 0.96512 0.77062 0.24756 0.0
C1896 C 0.97131 0.78158 0.23348 0.0
C1897 C 0.02497 0.80655 0.23613 0.0
C1898 C 0.9607 0.79632 0.23252 0.0
C1899 C 0.95471 0.80073 0.22508 0.0
C1900 C 0.95899 0.7903 0.21843 0.0
C1901 C 0.96805 0.77415 0.21942 0.0
C1902 C 0.97432 0.76992 0.22691 0.0
H1903 H 0.04404 0.81773 0.2383 0.0
H1904 H 0.02409 0.79213 0.2322 0.0
H1905 H 0.02033 0.81844 0.23259 0.0
H1906 H 0.95825 0.80548 0.23752 0.0
H1907 H 0.94763 0.81314 0.2245 0.0
H1908 H 0.79221 0.76968 0.71715 0.0
H1909 H 0.77201 0.76197 0.73002 0.0
H1910 H 0.84059 0.81418 0.74058 0.0
H1911 H 0.86072 0.8219 0.72788 0.0
H1912 H 0.81092 0.76972 0.74961 0.0
H1913 H 0.76083 0.81681 0.73968 0.0
H1914 H 0.75823 0.79147 0.73406 0.0
H1915 H 0.78678 0.8197 0.73431 0.0
C1916 C 0.80302 0.77908 0.72226 0.0
C1917 C 0.82799 0.79656 0.72151 0.0
C1918 C 0.79145 0.77476 0.72958 0.0
C1919 C 0.80478 0.78773 0.73622 0.0
C1920 C 0.82997 0.80401 0.73553 0.0
H1921 H 0.81362 0.86307 0.77515 0.0
H1922 H 0.80639 0.8437 0.76233 0.0
C1923 C 0.84143 0.80845 0.72826 0.0
C1924 C 0.79279 0.78645 0.7438 0.0
H1925 H 0.76344 0.81219 0.75319 0.0
C1926 C 0.79983 0.77825 0.75041 0.0
C1927 C 0.77844 0.79773 0.74478 0.0
C1928 C 0.77059 0.80705 0.73786 0.0
C1929 C 0.79461 0.78281 0.75801 0.0
C1930 C 0.78187 0.79575 0.759 0.0
C1931 C 0.7731 0.80217 0.75239 0.0
C1932 C 0.7821 0.80711 0.76662 0.0
C1933 C 0.80467 0.77571 0.76492 0.0
C1934 C 0.77001 0.79307 0.77325 0.0
C1935 C 0.77406 0.8042 0.78064 0.0
C1936 C 0.79038 0.82944 0.78146 0.0
C1937 C 0.8011 0.84356 0.77472 0.0
C1938 C 0.79692 0.83252 0.76738 0.0
H1939 H 0.81581 0.76743 0.7631 0.0
H1940 H 0.81619 0.792 0.7686 0.0
H1941 H 0.78934 0.76227 0.76861 0.0
H1942 H 0.75831 0.77344 0.77277 0.0
H1943 H 0.7656 0.79287 0.78574 0.0
H1944 H 0.14095 0.94971 0.77399 0.0
H1945 H 0.16098 0.96114 0.76127 0.0
H1946 H 0.23125 0.98861 0.77239 0.0
H1947 H 0.21107 0.97699 0.78527 0.0
H1948 H 0.22784 0.02289 0.76299 0.0
H1949 H 0.19521 0.9371 0.74647 0.0
H1950 H 0.1703 0.93742 0.75141 0.0
H1951 H 0.19466 0.93792 0.75706 0.0
C1952 C 0.16061 0.95756 0.77372 0.0
C1953 C 0.17447 0.96251 0.78061 0.0
C1954 C 0.17205 0.96392 0.76643 0.0
C1955 C 0.1976 0.97546 0.76586 0.0
C1956 C 0.21149 0.97946 0.7727 0.0
H1957 H 0.23041 0.02013 0.71647 0.0
H1958 H 0.23956 0.00822 0.72921 0.0
C1959 C 0.19995 0.97276 0.78004 0.0
C1960 C 0.20934 0.98636 0.75825 0.0
H1961 H 0.20255 0.97292 0.73874 0.0
C1962 C 0.22304 0.01195 0.7577 0.0
C1963 C 0.20349 0.97215 0.75134 0.0
C1964 C 0.19032 0.9446 0.75161 0.0
C1965 C 0.22862 0.02368 0.75038 0.0
C1966 C 0.22006 0.00944 0.74349 0.0
C1967 C 0.20882 0.98388 0.74403 0.0
C1968 C 0.21842 0.02017 0.73594 0.0
C1969 C 0.24233 0.05124 0.75011 0.0
C1970 C 0.20378 0.03105 0.73554 0.0
C1971 C 0.19836 0.03757 0.72833 0.0
C1972 C 0.20753 0.03342 0.72135 0.0
C1973 C 0.22327 0.02371 0.72177 0.0
C1974 C 0.22845 0.01685 0.72902 0.0
H1975 H 0.25492 0.05904 0.75519 0.0
H1976 H 0.25304 0.05815 0.74461 0.0
H1977 H 0.22907 0.05788 0.75041 0.0
H1978 H 0.19539 0.0333 0.74077 0.0
H1979 H 0.18617 0.045 0.72819 0.0
H1980 H 0.96944 0.20433 0.71542 0.0
H1981 H 0.98068 0.2236 0.72844 0.0
H1982 H 0.96143 0.15388 0.73875 0.0
H1983 H 0.95023 0.13467 0.72589 0.0
H1984 H 0.94742 0.18393 0.74782 0.0
H1985 H 0.04517 0.23231 0.73844 0.0
H1986 H 0.02329 0.23619 0.73277 0.0
H1987 H 0.02193 0.20713 0.73285 0.0
C1988 C 0.96706 0.19307 0.7205 0.0
C1989 C 0.95921 0.16805 0.71964 0.0
C1990 C 0.97361 0.20411 0.72792 0.0
C1991 C 0.97215 0.19019 0.73453 0.0
C1992 C 0.9627 0.16495 0.73372 0.0
H1993 H 0.03519 0.1767 0.77356 0.0
H1994 H 0.02278 0.18413 0.76082 0.0
C1995 C 0.95639 0.15401 0.72635 0.0
C1996 C 0.98261 0.20163 0.7422 0.0
H1997 H 0.03721 0.22911 0.7519 0.0
C1998 C 0.96703 0.19454 0.74873 0.0
C1999 C 0.00822 0.21535 0.74333 0.0
C2000 C 0.02577 0.22321 0.73651 0.0
C2001 C 0.97641 0.1991 0.75639 0.0
C2002 C 0.00202 0.21114 0.75751 0.0
C2003 C 0.01759 0.22 0.75099 0.0
C2004 C 0.01257 0.20999 0.76514 0.0
C2005 C 0.95892 0.1891 0.76321 0.0
C2006 C 0.01166 0.2227 0.77177 0.0
C2007 C 0.01893 0.21856 0.77911 0.0
C2008 C 0.02694 0.2015 0.77989 0.0
C2009 C 0.02894 0.18982 0.77316 0.0
C2010 C 0.02193 0.19411 0.76587 0.0
H2011 H 0.9395 0.17907 0.7613 0.0
H2012 H 0.96267 0.17653 0.76672 0.0
H2013 H 0.96161 0.20436 0.76709 0.0
H2014 H 0.00462 0.23516 0.7713 0.0
H2015 H 0.01716 0.22777 0.78421 0.0
H2016 H 0.84863 0.46936 0.55993 0.0
H2017 H 0.85622 0.48888 0.57273 0.0
H2018 H 0.90737 0.55827 0.56238 0.0
H2019 H 0.89973 0.53871 0.54942 0.0
H2020 H 0.89941 0.51855 0.58197 0.0
H2021 H 0.85197 0.56812 0.57186 0.0
H2022 H 0.85018 0.54285 0.56638 0.0
H2023 H 0.87804 0.57178 0.56643 0.0
C2024 C 0.86187 0.48869 0.56038 0.0
C2025 C 0.87339 0.50256 0.55366 0.0
C2026 C 0.86625 0.49981 0.56771 0.0
C2027 C 0.88209 0.52506 0.56848 0.0
C2028 C 0.89488 0.53879 0.56188 0.0
H2029 H 0.87352 0.56325 0.61795 0.0
H2030 H 0.89387 0.57034 0.60513 0.0
C2031 C 0.89062 0.52757 0.5545 0.0
C2032 C 0.88283 0.53672 0.57609 0.0
H2033 H 0.85626 0.56543 0.58537 0.0
C2034 C 0.89072 0.5295 0.58273 0.0
C2035 C 0.87133 0.55088 0.57703 0.0
C2036 C 0.86226 0.55888 0.57008 0.0
C2037 C 0.88565 0.53438 0.59032 0.0
C2038 C 0.87252 0.54695 0.59125 0.0
C2039 C 0.86642 0.5559 0.58461 0.0
C2040 C 0.86066 0.54639 0.5988 0.0
C2041 C 0.89243 0.52418 0.59727 0.0
C2042 C 0.83522 0.53143 0.5994 0.0
C2043 C 0.82367 0.52735 0.60665 0.0
C2044 C 0.83728 0.5383 0.61345 0.0
C2045 C 0.86258 0.5546 0.61279 0.0
C2046 C 0.87424 0.55854 0.6055 0.0
H2047 H 0.90107 0.51332 0.59548 0.0
H2048 H 0.90547 0.53942 0.60106 0.0
H2049 H 0.87592 0.51234 0.60082 0.0
H2050 H 0.82441 0.52189 0.5943 0.0
H2051 H 0.80414 0.51484 0.60695 0.0
H2052 H 0.52669 0.3694 0.56052 0.0
H2053 H 0.50759 0.35715 0.57338 0.0
H2054 H 0.43807 0.34008 0.56342 0.0
H2055 H 0.45725 0.35253 0.5504 0.0
H2056 H 0.47739 0.37277 0.58246 0.0
H2057 H 0.4296 0.27465 0.57352 0.0
H2058 H 0.45545 0.2975 0.56806 0.0
H2059 H 0.42669 0.29666 0.56758 0.0
C2060 C 0.50741 0.36341 0.56106 0.0
C2061 C 0.49342 0.36175 0.55445 0.0
C2062 C 0.49654 0.35648 0.56842 0.0
C2063 C 0.47142 0.34754 0.56933 0.0
C2064 C 0.45749 0.34684 0.56282 0.0
H2065 H 0.43305 0.30575 0.61913 0.0
H2066 H 0.42564 0.3166 0.60595 0.0
C2067 C 0.46847 0.35405 0.55541 0.0
C2068 C 0.46013 0.33731 0.57703 0.0
H2069 H 0.4331 0.28317 0.58698 0.0
C2070 C 0.46697 0.35319 0.58347 0.0
C2071 C 0.4467 0.31176 0.57827 0.0
C2072 C 0.43913 0.29399 0.57153 0.0
C2073 C 0.46233 0.34417 0.59117 0.0
C2074 C 0.45049 0.31862 0.59243 0.0
C2075 C 0.44203 0.30273 0.58598 0.0
C2076 C 0.45132 0.30854 0.60018 0.0
C2077 C 0.47199 0.36201 0.59791 0.0
C2078 C 0.46743 0.29957 0.60122 0.0
C2079 C 0.47173 0.29351 0.60867 0.0
C2080 C 0.45983 0.2961 0.61525 0.0
C2081 C 0.44242 0.30353 0.61416 0.0
C2082 C 0.43828 0.30985 0.60666 0.0
H2083 H 0.48211 0.38133 0.5959 0.0
H2084 H 0.45654 0.35952 0.60165 0.0
H2085 H 0.48439 0.35847 0.60159 0.0
H2086 H 0.47767 0.29843 0.5963 0.0
H2087 H 0.48513 0.28769 0.60932 0.0
H2088 H 0.62152 0.15601 0.55835 0.0
H2089 H 0.63277 0.14839 0.57127 0.0
H2090 H 0.65151 0.09724 0.56123 0.0
H2091 H 0.64016 0.10482 0.54816 0.0
H2092 H 0.61803 0.10362 0.58037 0.0
H2093 H 0.71609 0.15357 0.57134 0.0
H2094 H 0.69305 0.15581 0.56574 0.0
H2095 H 0.69434 0.12809 0.56554 0.0
C2096 C 0.62761 0.14279 0.55889 0.0
C2097 C 0.63018 0.13118 0.55224 0.0
C2098 C 0.63395 0.1384 0.56628 0.0
C2099 C 0.6432 0.12247 0.56718 0.0
C2100 C 0.64455 0.10974 0.56063 0.0
H2101 H 0.68671 0.12734 0.61691 0.0
H2102 H 0.67478 0.10844 0.60385 0.0
C2103 C 0.63796 0.11399 0.55319 0.0
C2104 C 0.65343 0.12145 0.57489 0.0
H2105 H 0.70768 0.1484 0.58478 0.0
C2106 C 0.63761 0.11266 0.58135 0.0
C2107 C 0.679 0.13342 0.57611 0.0
C2108 C 0.69676 0.14339 0.56935 0.0
C2109 C 0.64672 0.11718 0.58905 0.0
C2110 C 0.67228 0.13076 0.59027 0.0
C2111 C 0.6881 0.13788 0.5838 0.0
C2112 C 0.68252 0.14193 0.59798 0.0
C2113 C 0.62898 0.10928 0.59581 0.0
C2114 C 0.69155 0.16706 0.59891 0.0
C2115 C 0.6982 0.17778 0.6063 0.0
C2116 C 0.69618 0.16362 0.61291 0.0
C2117 C 0.68851 0.13868 0.61191 0.0
C2118 C 0.68158 0.12786 0.60448 0.0
H2119 H 0.60963 0.09991 0.59383 0.0
H2120 H 0.63162 0.0966 0.59965 0.0
H2121 H 0.63253 0.12542 0.59939 0.0
H2122 H 0.6924 0.17823 0.59396 0.0
H2123 H 0.70419 0.19705 0.60687 0.0
H2124 H 0.46068 0.10524 0.05004 0.0
H2125 H 0.44143 0.09785 0.06306 0.0
H2126 H 0.51064 0.15071 0.07311 0.0
H2127 H 0.52982 0.15819 0.06024 0.0
H2128 H 0.48088 0.10496 0.08217 0.0
H2129 H 0.43184 0.15395 0.07312 0.0
H2130 H 0.42917 0.12909 0.06721 0.0
H2131 H 0.45779 0.15719 0.06767 0.0
C2132 C 0.47184 0.11486 0.05507 0.0
C2133 C 0.49671 0.13244 0.05413 0.0
C2134 C 0.46081 0.11072 0.06247 0.0
C2135 C 0.47461 0.12392 0.06901 0.0
C2136 C 0.49969 0.14035 0.06813 0.0
H2137 H 0.48578 0.19633 0.10909 0.0
H2138 H 0.47916 0.17843 0.09605 0.0
C2139 C 0.51061 0.14466 0.06077 0.0
C2140 C 0.46314 0.12261 0.07669 0.0
H2141 H 0.4349 0.14861 0.08658 0.0
C2142 C 0.47011 0.11376 0.08315 0.0
C2143 C 0.44925 0.13427 0.0779 0.0
C2144 C 0.44153 0.14428 0.07114 0.0
C2145 C 0.4651 0.11785 0.09084 0.0
C2146 C 0.45276 0.13109 0.09207 0.0
C2147 C 0.44421 0.13834 0.0856 0.0
C2148 C 0.4531 0.14173 0.09983 0.0
C2149 C 0.47486 0.10987 0.09761 0.0
C2150 C 0.43993 0.12714 0.10624 0.0
C2151 C 0.44358 0.13744 0.11376 0.0
C2152 C 0.46062 0.16235 0.11491 0.0
C2153 C 0.47266 0.17705 0.10839 0.0
C2154 C 0.46884 0.16686 0.10092 0.0
H2155 H 0.48531 0.101 0.09563 0.0
H2156 H 0.48697 0.12588 0.10132 0.0
H2157 H 0.45943 0.0967 0.10132 0.0
H2158 H 0.42758 0.10772 0.10549 0.0
H2159 H 0.43412 0.12568 0.11869 0.0
H2160 H 0.89575 0.35616 0.0498 0.0
H2161 H 0.9037 0.34438 0.06275 0.0
H2162 H 0.85131 0.36083 0.07312 0.0
H2163 H 0.84337 0.37255 0.06034 0.0
H2164 H 0.89582 0.37621 0.08217 0.0
H2165 H 0.84919 0.27865 0.07264 0.0
H2166 H 0.87447 0.30125 0.06697 0.0
H2167 H 0.84616 0.3014 0.06714 0.0
C2168 C 0.88637 0.35775 0.05488 0.0
C2169 C 0.86877 0.36505 0.05406 0.0
C2170 C 0.89083 0.3509 0.06225 0.0
C2171 C 0.87788 0.35149 0.06886 0.0
C2172 C 0.86148 0.36023 0.06809 0.0
H2173 H 0.80253 0.28611 0.10788 0.0
H2174 H 0.82207 0.29843 0.0951 0.0
C2175 C 0.8569 0.36684 0.06077 0.0
C2176 C 0.87925 0.34111 0.0765 0.0
H2177 H 0.85373 0.28641 0.08612 0.0
C2178 C 0.88738 0.35662 0.08305 0.0
C2179 C 0.8681 0.31554 0.07759 0.0
C2180 C 0.85886 0.29809 0.07075 0.0
C2181 C 0.88285 0.34714 0.0907 0.0
C2182 C 0.87 0.32149 0.09179 0.0
C2183 C 0.86368 0.30606 0.08524 0.0
C2184 C 0.85858 0.31061 0.09942 0.0
C2185 C 0.88987 0.36452 0.09754 0.0
C2186 C 0.87256 0.31255 0.10607 0.0
C2187 C 0.86133 0.30536 0.11345 0.0
C2188 C 0.83607 0.29637 0.11423 0.0
C2189 C 0.82205 0.29315 0.10748 0.0
C2190 C 0.83318 0.30011 0.10015 0.0
H2191 H 0.8983 0.3839 0.09564 0.0
H2192 H 0.8735 0.35994 0.10115 0.0
H2193 H 0.90315 0.36265 0.10131 0.0
H2194 H 0.89218 0.32044 0.10561 0.0
H2195 H 0.87257 0.30807 0.11856 0.0
H2196 H 0.71043 0.51355 0.10564 0.0
H2197 H 0.6982 0.52153 0.09295 0.0
H2198 H 0.67344 0.56667 0.10403 0.0
H2199 H 0.68589 0.5588 0.11686 0.0
H2200 H 0.6378 0.52838 0.0948 0.0
H2201 H 0.72352 0.58018 0.07805 0.0
H2202 H 0.72255 0.55478 0.08309 0.0
H2203 H 0.72283 0.57917 0.08865 0.0
C2204 C 0.70295 0.52568 0.10537 0.0
C2205 C 0.69907 0.53551 0.11224 0.0
C2206 C 0.69613 0.53038 0.0981 0.0
C2207 C 0.68518 0.54494 0.09753 0.0
C2208 C 0.68211 0.55561 0.10434 0.0
H2209 H 0.64041 0.53651 0.04832 0.0
H2210 H 0.65252 0.55652 0.0612 0.0
C2211 C 0.68928 0.55116 0.11165 0.0
C2212 C 0.6742 0.54591 0.08996 0.0
H2213 H 0.6872 0.55295 0.07042 0.0
C2214 C 0.64862 0.53447 0.08948 0.0
C2215 C 0.68828 0.55418 0.08303 0.0
C2216 C 0.71584 0.56801 0.08324 0.0
C2217 C 0.63672 0.52878 0.08219 0.0
C2218 C 0.65078 0.5345 0.07525 0.0
C2219 C 0.67638 0.54828 0.07574 0.0
C2220 C 0.63971 0.52279 0.06766 0.0
C2221 C 0.60916 0.51547 0.08198 0.0
C2222 C 0.6282 0.49725 0.06705 0.0
C2223 C 0.62154 0.4859 0.05975 0.0
C2224 C 0.62618 0.49983 0.05289 0.0
C2225 C 0.63644 0.52532 0.05352 0.0
C2226 C 0.64342 0.53676 0.06086 0.0
H2227 H 0.60169 0.52023 0.08716 0.0
H2228 H 0.60232 0.51979 0.07657 0.0
H2229 H 0.6021 0.49547 0.08215 0.0
H2230 H 0.62562 0.48614 0.07219 0.0
H2231 H 0.61368 0.46624 0.05945 0.0
H2232 H 0.4668 0.84589 0.94129 0.0
H2233 H 0.48593 0.85257 0.92845 0.0
H2234 H 0.55605 0.90268 0.93858 0.0
H2235 H 0.53685 0.896 0.95158 0.0
H2236 H 0.51665 0.89585 0.91912 0.0
H2237 H 0.56321 0.8453 0.92912 0.0
H2238 H 0.53829 0.8443 0.9346 0.0
H2239 H 0.56768 0.8716 0.93459 0.0
C2240 C 0.48621 0.85871 0.94079 0.0
C2241 C 0.50038 0.87024 0.94745 0.0
C2242 C 0.49711 0.86257 0.93343 0.0
C2243 C 0.52243 0.87787 0.93259 0.0
C2244 C 0.5365 0.89063 0.93914 0.0
H2245 H 0.56029 0.86861 0.88313 0.0
H2246 H 0.56759 0.88852 0.89603 0.0
C2247 C 0.5255 0.88692 0.94654 0.0
C2248 C 0.53372 0.87808 0.92496 0.0
H2249 H 0.56053 0.84972 0.91561 0.0
C2250 C 0.52696 0.88649 0.91833 0.0
C2251 C 0.54703 0.8657 0.92399 0.0
C2252 C 0.5545 0.85607 0.93092 0.0
C2253 C 0.5315 0.88118 0.91073 0.0
C2254 C 0.54321 0.86724 0.90977 0.0
C2255 C 0.55167 0.8605 0.91639 0.0
C2256 C 0.54233 0.85543 0.90219 0.0
C2257 C 0.52185 0.88865 0.90381 0.0
C2258 C 0.5265 0.83016 0.90147 0.0
C2259 C 0.52229 0.81885 0.89417 0.0
C2260 C 0.53397 0.83254 0.88744 0.0
C2261 C 0.55106 0.8576 0.88823 0.0
C2262 C 0.55514 0.86902 0.89557 0.0
H2263 H 0.51163 0.89794 0.90561 0.0
H2264 H 0.53733 0.90133 0.90002 0.0
H2265 H 0.50955 0.87235 0.90024 0.0
H2266 H 0.51645 0.81934 0.9065 0.0
H2267 H 0.50914 0.79948 0.89377 0.0
H2268 H 0.1036 0.64169 0.95136 0.0
H2269 H 0.09598 0.65332 0.93835 0.0
H2270 H 0.14171 0.62831 0.92786 0.0
H2271 H 0.14947 0.61693 0.94073 0.0
H2272 H 0.13494 0.68869 0.92916 0.0
H2273 H 0.08344 0.60227 0.9127 0.0
H2274 H 0.08402 0.60343 0.9233 0.0
H2275 H 0.10867 0.60353 0.91795 0.0
C2276 C 0.11141 0.63804 0.94624 0.0
C2277 C 0.12718 0.62847 0.94704 0.0
C2278 C 0.1071 0.64474 0.93883 0.0
C2279 C 0.11805 0.64142 0.93213 0.0
C2280 C 0.13267 0.6306 0.93291 0.0
H2281 H 0.19652 0.71107 0.89359 0.0
H2282 H 0.17703 0.69893 0.9064 0.0
C2283 C 0.13724 0.62425 0.94029 0.0
C2284 C 0.11735 0.6521 0.92447 0.0
H2285 H 0.11042 0.63836 0.90498 0.0
C2286 C 0.12888 0.67767 0.92388 0.0
C2287 C 0.10918 0.63775 0.91759 0.0
C2288 C 0.0954 0.6102 0.91792 0.0
C2289 C 0.13463 0.68928 0.91654 0.0
C2290 C 0.12883 0.67495 0.90967 0.0
C2291 C 0.1151 0.64937 0.91026 0.0
C2292 C 0.14035 0.68578 0.90204 0.0
C2293 C 0.14809 0.71683 0.91621 0.0
C2294 C 0.12621 0.68264 0.89532 0.0
C2295 C 0.13742 0.6898 0.88795 0.0
C2296 C 0.16281 0.69963 0.88721 0.0
C2297 C 0.17693 0.70355 0.89398 0.0
C2298 C 0.16582 0.69676 0.90132 0.0
H2299 H 0.14391 0.72465 0.92142 0.0
H2300 H 0.16807 0.72374 0.91618 0.0
H2301 H 0.14334 0.72346 0.91083 0.0
H2302 H 0.1065 0.67395 0.89576 0.0
H2303 H 0.12609 0.68637 0.88281 0.0
H2304 H 0.28994 0.48886 0.89244 0.0
H2305 H 0.29992 0.48034 0.90543 0.0
H2306 H 0.31593 0.42703 0.89557 0.0
H2307 H 0.30581 0.43547 0.88243 0.0
H2308 H 0.2824 0.43425 0.9144 0.0
H2309 H 0.38114 0.48188 0.90618 0.0
H2310 H 0.35921 0.48573 0.90048 0.0
H2311 H 0.35914 0.45732 0.90013 0.0
C2312 C 0.29517 0.475 0.89303 0.0
C2313 C 0.2973 0.46298 0.88641 0.0
C2314 C 0.30078 0.4701 0.90047 0.0
C2315 C 0.30886 0.45324 0.90144 0.0
C2316 C 0.30984 0.44021 0.89491 0.0
H2317 H 0.34902 0.45497 0.95143 0.0
H2318 H 0.33755 0.43664 0.93827 0.0
C2319 C 0.30396 0.44496 0.88743 0.0
C2320 C 0.31823 0.45147 0.90922 0.0
H2321 H 0.37163 0.47672 0.91956 0.0
C2322 C 0.30186 0.44274 0.91554 0.0
C2323 C 0.34365 0.46273 0.91065 0.0
C2324 C 0.36196 0.47256 0.90404 0.0
C2325 C 0.31034 0.44667 0.92331 0.0
C2326 C 0.33581 0.45963 0.92474 0.0
C2327 C 0.35212 0.46666 0.91842 0.0
C2328 C 0.34556 0.47041 0.93253 0.0
C2329 C 0.29213 0.43889 0.92993 0.0
C2330 C 0.35449 0.49547 0.93358 0.0
C2331 C 0.36083 0.50585 0.94102 0.0
C2332 C 0.35861 0.49141 0.94757 0.0
C2333 C 0.35097 0.46652 0.94647 0.0
C2334 C 0.34433 0.45603 0.93898 0.0
H2335 H 0.27293 0.42959 0.92781 0.0
H2336 H 0.29442 0.4262 0.93388 0.0
H2337 H 0.29552 0.45509 0.93345 0.0
H2338 H 0.35555 0.50686 0.92867 0.0
H2339 H 0.3668 0.5251 0.94166 0.0
H2340 H 0.09517 0.45681 0.45243 0.0
H2341 H 0.08663 0.43808 0.43932 0.0
H2342 H 0.13255 0.5091 0.42903 0.0
H2343 H 0.14108 0.52777 0.44198 0.0
H2344 H 0.08806 0.47679 0.42028 0.0
H2345 H 0.14448 0.43474 0.42844 0.0
H2346 H 0.11868 0.42885 0.43446 0.0
H2347 H 0.14503 0.45892 0.43423 0.0
C2348 C 0.10288 0.46844 0.44734 0.0
C2349 C 0.119 0.4937 0.44822 0.0
C2350 C 0.0981 0.45772 0.43988 0.0
C2351 C 0.10921 0.4722 0.43323 0.0
C2352 C 0.1238 0.4976 0.43408 0.0
H2353 H 0.18337 0.49488 0.39325 0.0
H2354 H 0.16404 0.48657 0.40609 0.0
C2355 C 0.12874 0.50824 0.4415 0.0
C2356 C 0.10835 0.46134 0.42546 0.0
H2357 H 0.13819 0.43794 0.41509 0.0
C2358 C 0.09824 0.46747 0.41914 0.0
C2359 C 0.12182 0.44934 0.42402 0.0
C2360 C 0.13325 0.44256 0.43061 0.0
C2361 C 0.10291 0.46368 0.41137 0.0
C2362 C 0.11805 0.45355 0.40993 0.0
C2363 C 0.12646 0.44556 0.41625 0.0
C2364 C 0.12963 0.4562 0.40219 0.0
C2365 C 0.09353 0.47255 0.40474 0.0
C2366 C 0.11677 0.44146 0.39576 0.0
C2367 C 0.12792 0.44608 0.38836 0.0
C2368 C 0.1519 0.46566 0.38732 0.0
C2369 C 0.16483 0.47977 0.39384 0.0
C2370 C 0.15385 0.47501 0.4012 0.0
H2371 H 0.08161 0.47965 0.40684 0.0
H2372 H 0.10919 0.48732 0.40148 0.0
H2373 H 0.08298 0.45736 0.40057 0.0
H2374 H 0.09805 0.42682 0.39645 0.0
H2375 H 0.11752 0.43498 0.38342 0.0
H2376 H 0.52585 0.72714 0.39354 0.0
H2377 H 0.53416 0.7141 0.40602 0.0
H2378 H 0.57496 0.68567 0.39412 0.0
H2379 H 0.56653 0.6987 0.38151 0.0
H2380 H 0.53801 0.65129 0.4031 0.0
H2381 H 0.59089 0.73418 0.42092 0.0
H2382 H 0.56564 0.7348 0.41635 0.0
H2383 H 0.58937 0.73525 0.41035 0.0
C2384 C 0.53721 0.71878 0.39358 0.0
C2385 C 0.54544 0.71385 0.38654 0.0
C2386 C 0.54214 0.71148 0.40074 0.0
C2387 C 0.55543 0.69913 0.40103 0.0
C2388 C 0.56487 0.69538 0.39404 0.0
H2389 H 0.54288 0.64681 0.44956 0.0
H2390 H 0.56402 0.66098 0.4369 0.0
C2391 C 0.56011 0.7029 0.38685 0.0
C2392 C 0.55581 0.68702 0.40844 0.0
H2393 H 0.56199 0.6972 0.42815 0.0
C2394 C 0.54397 0.66137 0.40856 0.0
C2395 C 0.56396 0.70007 0.41557 0.0
C2396 C 0.57841 0.72762 0.41578 0.0
C2397 C 0.53775 0.64844 0.41566 0.0
C2398 C 0.54324 0.66151 0.4228 0.0
C2399 C 0.55743 0.68714 0.42268 0.0
C2400 C 0.53089 0.64945 0.43022 0.0
C2401 C 0.52412 0.62088 0.41546 0.0
C2402 C 0.50532 0.63801 0.43063 0.0
C2403 C 0.49333 0.63016 0.43781 0.0
C2404 C 0.50664 0.63353 0.44474 0.0
C2405 C 0.53216 0.64379 0.4443 0.0
C2406 C 0.54424 0.65195 0.43709 0.0
H2407 H 0.52921 0.61405 0.4102 0.0
H2408 H 0.52781 0.61312 0.42078 0.0
H2409 H 0.50419 0.6141 0.41514 0.0
H2410 H 0.49466 0.63635 0.42546 0.0
H2411 H 0.47366 0.62235 0.43796 0.0
H2412 H 0.34873 0.89498 0.45366 0.0
H2413 H 0.33813 0.90215 0.44039 0.0
H2414 H 0.35761 0.85083 0.43097 0.0
H2415 H 0.36791 0.84347 0.44407 0.0
H2416 H 0.374 0.89876 0.42209 0.0
H2417 H 0.27475 0.84276 0.42929 0.0
H2418 H 0.29528 0.86706 0.43573 0.0
H2419 H 0.29723 0.83978 0.43498 0.0
C2420 C 0.35121 0.88567 0.44872 0.0
C2421 C 0.35896 0.86854 0.44989 0.0
C2422 C 0.34508 0.88971 0.44118 0.0
C2423 C 0.347 0.8769 0.43474 0.0
C2424 C 0.35604 0.8609 0.43587 0.0
H2425 H 0.30135 0.80486 0.39412 0.0
H2426 H 0.30983 0.823 0.40716 0.0
C2427 C 0.36184 0.85666 0.44336 0.0
C2428 C 0.33775 0.87802 0.42688 0.0
H2429 H 0.28566 0.84795 0.41598 0.0
C2430 C 0.35463 0.88847 0.42074 0.0
C2431 C 0.31248 0.86439 0.42518 0.0
C2432 C 0.29373 0.85277 0.43161 0.0
C2433 C 0.34699 0.88401 0.41288 0.0
C2434 C 0.3219 0.86866 0.41119 0.0
C2435 C 0.30486 0.85983 0.41732 0.0
C2436 C 0.31391 0.85751 0.40334 0.0
C2437 C 0.36592 0.89384 0.40645 0.0
C2438 C 0.3128 0.87077 0.39691 0.0
C2439 C 0.30773 0.8603 0.3894 0.0
C2440 C 0.30404 0.83662 0.38826 0.0
C2441 C 0.30427 0.82319 0.3948 0.0
C2442 C 0.30903 0.83349 0.40226 0.0
H2443 H 0.38471 0.90568 0.40876 0.0
H2444 H 0.36543 0.87842 0.40317 0.0
H2445 H 0.36168 0.90462 0.40225 0.0
H2446 H 0.31651 0.88934 0.39766 0.0
H2447 H 0.30774 0.87108 0.38446 0.0
H2448 H 0.2647 0.17419 0.1903 0.0
H2449 H 0.30181 0.17485 0.1858 0.0
H2450 H 0.27813 0.1699 0.16183 0.0
H2451 H 0.24121 0.16952 0.16624 0.0
H2452 H 0.29936 0.13544 0.17745 0.0
H2453 H 0.35055 0.2219 0.16068 0.0
H2454 H 0.32682 0.21673 0.16761 0.0
H2455 H 0.31896 0.20381 0.15794 0.0
C2456 C 0.26773 0.174 0.18406 0.0
C2457 C 0.24996 0.17171 0.17863 0.0
C2458 C 0.28888 0.17423 0.18151 0.0
C2459 C 0.2927 0.17246 0.17349 0.0
C2460 C 0.2757 0.17164 0.16804 0.0
H2461 H 0.39837 0.15435 0.14623 0.0
H2462 H 0.36101 0.15324 0.15069 0.0
C2463 C 0.25456 0.17136 0.17058 0.0
C2464 C 0.31304 0.16889 0.17087 0.0
H2465 H 0.36324 0.19249 0.15903 0.0
C2466 C 0.31346 0.148 0.17347 0.0
C2467 C 0.33118 0.18516 0.16561 0.0
C2468 C 0.33206 0.20828 0.16284 0.0
C2469 C 0.33141 0.14276 0.17086 0.0
C2470 C 0.34957 0.15904 0.16561 0.0
C2471 C 0.34914 0.17993 0.16301 0.0
C2472 C 0.36996 0.15554 0.16301 0.0
C2473 C 0.33055 0.11965 0.17364 0.0
C2474 C 0.38694 0.15641 0.16848 0.0
C2475 C 0.40823 0.15694 0.16596 0.0
C2476 C 0.41299 0.15681 0.15791 0.0
C2477 C 0.39522 0.15439 0.15246 0.0
C2478 C 0.37393 0.1539 0.155 0.0
H2479 H 0.31204 0.106 0.17578 0.0
H2480 H 0.33587 0.11124 0.16888 0.0
H2481 H 0.34359 0.12413 0.17856 0.0
H2482 H 0.38441 0.15805 0.17468 0.0
H2483 H 0.42158 0.15887 0.17031 0.0
H2484 H 0.82187 0.08951 0.19136 0.0
H2485 H 0.81963 0.12519 0.18691 0.0
H2486 H 0.82228 0.10552 0.16288 0.0
H2487 H 0.82417 0.06976 0.16724 0.0
H2488 H 0.85755 0.16201 0.17831 0.0
H2489 H 0.77001 0.12523 0.16213 0.0
H2490 H 0.77606 0.10699 0.16894 0.0
H2491 H 0.78806 0.11194 0.15913 0.0
C2492 C 0.82116 0.09233 0.18513 0.0
C2493 C 0.82332 0.07688 0.17965 0.0
C2494 C 0.82003 0.1128 0.1826 0.0
C2495 C 0.82075 0.11795 0.17457 0.0
C2496 C 0.82131 0.10169 0.16909 0.0
H2497 H 0.83906 0.23916 0.14608 0.0
H2498 H 0.83961 0.20318 0.15114 0.0
C2499 C 0.82248 0.08127 0.17161 0.0
C2500 C 0.8238 0.14163 0.17191 0.0
H2501 H 0.79957 0.16718 0.15988 0.0
C2502 C 0.84475 0.16319 0.17434 0.0
C2503 C 0.8072 0.14305 0.16669 0.0
C2504 C 0.78395 0.12058 0.16412 0.0
C2505 C 0.84981 0.18614 0.17154 0.0
C2506 C 0.83333 0.18752 0.16625 0.0
C2507 C 0.8123 0.16599 0.16388 0.0
C2508 C 0.83697 0.21114 0.16332 0.0
C2509 C 0.873 0.20866 0.17412 0.0
C2510 C 0.83607 0.22786 0.16851 0.0
C2511 C 0.83583 0.24845 0.16565 0.0
C2512 C 0.83633 0.25257 0.15753 0.0
C2513 C 0.83875 0.23657 0.15237 0.0
C2514 C 0.83892 0.21593 0.15524 0.0
H2515 H 0.88655 0.20403 0.1765 0.0
H2516 H 0.88149 0.22166 0.16917 0.0
H2517 H 0.86859 0.21803 0.1788 0.0
H2518 H 0.83424 0.22433 0.17476 0.0
H2519 H 0.8339 0.26039 0.16979 0.0
H2520 H 0.90773 0.7316 0.18695 0.0
H2521 H 0.87158 0.69475 0.18215 0.0
H2522 H 0.8922 0.71946 0.15835 0.0
H2523 H 0.92844 0.75615 0.16306 0.0
H2524 H 0.83558 0.69837 0.17351 0.0
H2525 H 0.87089 0.64674 0.157 0.0
H2526 H 0.88912 0.66997 0.16411 0.0
H2527 H 0.88502 0.67852 0.15443 0.0
C2528 C 0.905 0.72883 0.18069 0.0
C2529 C 0.92088 0.74686 0.17539 0.0
C2530 C 0.88426 0.70783 0.17796 0.0
C2531 C 0.87925 0.70441 0.1699 0.0
C2532 C 0.8959 0.72159 0.16458 0.0
H2533 H 0.75638 0.5992 0.1421 0.0
H2534 H 0.79253 0.63663 0.14659 0.0
C2535 C 0.9166 0.7426 0.1673 0.0
C2536 C 0.85541 0.68441 0.1671 0.0
H2537 H 0.82899 0.63444 0.15516 0.0
C2538 C 0.83409 0.68427 0.16954 0.0
C2539 C 0.85361 0.66629 0.16186 0.0
C2540 C 0.87585 0.66517 0.15924 0.0
C2541 C 0.81097 0.66657 0.1668 0.0
C2542 C 0.80915 0.64837 0.16158 0.0
C2543 C 0.83048 0.64857 0.15912 0.0
C2544 C 0.78528 0.62806 0.15892 0.0
C2545 C 0.78876 0.66776 0.16941 0.0
C2546 C 0.76884 0.6113 0.16438 0.0
C2547 C 0.74814 0.59 0.16184 0.0
C2548 C 0.74363 0.58498 0.15379 0.0
C2549 C 0.75928 0.60256 0.14834 0.0
C2550 C 0.78002 0.62388 0.15089 0.0
H2551 H 0.79372 0.68638 0.17145 0.0
H2552 H 0.77519 0.66238 0.1646 0.0
H2553 H 0.77995 0.65492 0.17437 0.0
H2554 H 0.77273 0.61399 0.1706 0.0
H2555 H 0.73649 0.5768 0.16619 0.0
H2556 H 0.16696 0.4261 0.33114 0.0
H2557 H 0.16658 0.38918 0.32668 0.0
H2558 H 0.15296 0.36135 0.35033 0.0
H2559 H 0.15289 0.39804 0.35483 0.0
H2560 H 0.20028 0.37684 0.33186 0.0
H2561 H 0.10599 0.3014 0.33772 0.0
H2562 H 0.11379 0.33307 0.33743 0.0
H2563 H 0.12028 0.32082 0.34603 0.0
C2564 C 0.16321 0.41183 0.33536 0.0
C2565 C 0.16003 0.41502 0.34335 0.0
C2566 C 0.16311 0.3908 0.3328 0.0
C2567 C 0.15974 0.37254 0.33817 0.0
C2568 C 0.15521 0.37504 0.34607 0.0
H2569 H 0.17019 0.24158 0.33607 0.0
H2570 H 0.17158 0.27916 0.34032 0.0
C2571 C 0.15519 0.39604 0.34864 0.0
C2572 C 0.16334 0.35215 0.33563 0.0
H2573 H 0.13582 0.28998 0.33486 0.0
C2574 C 0.18614 0.35783 0.33246 0.0
C2575 C 0.14491 0.32742 0.33646 0.0
C2576 C 0.11979 0.32025 0.33953 0.0
C2577 C 0.19112 0.3394 0.33022 0.0
C2578 C 0.17274 0.31469 0.33111 0.0
C2579 C 0.14994 0.309 0.33425 0.0
C2580 C 0.17639 0.29428 0.32865 0.0
C2581 C 0.21612 0.34645 0.32707 0.0
C2582 C 0.17956 0.29081 0.32071 0.0
C2583 C 0.17889 0.26936 0.31825 0.0
C2584 C 0.17478 0.25099 0.32371 0.0
C2585 C 0.17331 0.25533 0.33172 0.0
C2586 C 0.174 0.27675 0.33416 0.0
H2587 H 0.22985 0.36565 0.32856 0.0
H2588 H 0.22248 0.33417 0.32941 0.0
H2589 H 0.21516 0.3447 0.32059 0.0
H2590 H 0.18112 0.304 0.31636 0.0
H2591 H 0.17994 0.26651 0.31204 0.0
H2592 H 0.57357 0.73347 0.33248 0.0
H2593 H 0.611 0.76806 0.32733 0.0
H2594 H 0.63573 0.7928 0.35088 0.0
H2595 H 0.59858 0.75811 0.3561 0.0
H2596 H 0.6215 0.81536 0.32997 0.0
H2597 H 0.69783 0.80299 0.34032 0.0
H2598 H 0.6665 0.77829 0.34017 0.0
H2599 H 0.67721 0.8003 0.348 0.0
C2600 C 0.58731 0.74583 0.33658 0.0
C2601 C 0.58304 0.74312 0.3447 0.0
C2602 C 0.60864 0.76565 0.33361 0.0
C2603 C 0.62612 0.78299 0.33872 0.0
C2604 C 0.62266 0.77944 0.34684 0.0
H2605 H 0.75321 0.92625 0.33482 0.0
H2606 H 0.71586 0.8899 0.33914 0.0
C2607 C 0.60137 0.75958 0.34981 0.0
C2608 C 0.64641 0.80613 0.33558 0.0
H2609 H 0.70842 0.84283 0.33575 0.0
C2610 C 0.64054 0.82128 0.33116 0.0
C2611 C 0.67117 0.81384 0.33719 0.0
C2612 C 0.67862 0.79791 0.34162 0.0
C2613 C 0.65877 0.84423 0.32847 0.0
C2614 C 0.68348 0.85206 0.33018 0.0
C2615 C 0.68938 0.83682 0.33452 0.0
C2616 C 0.7037 0.87587 0.32745 0.0
C2617 C 0.65143 0.86018 0.324 0.0
C2618 C 0.70873 0.88042 0.31942 0.0
C2619 C 0.73003 0.90128 0.31692 0.0
C2620 C 0.74672 0.91775 0.32242 0.0
C2621 C 0.74077 0.91392 0.33043 0.0
C2622 C 0.71949 0.89309 0.33292 0.0
H2623 H 0.63176 0.85415 0.32481 0.0
H2624 H 0.66251 0.87957 0.32587 0.0
H2625 H 0.65471 0.85922 0.31766 0.0
H2626 H 0.6969 0.86719 0.31511 0.0
H2627 H 0.73414 0.90362 0.31071 0.0
H2628 H 0.08791 0.81827 0.312 0.0
H2629 H 0.12458 0.81859 0.31676 0.0
H2630 H 0.10659 0.82751 0.34046 0.0
H2631 H 0.07012 0.82757 0.33575 0.0
H2632 H 0.1529 0.86332 0.33589 0.0
H2633 H 0.13799 0.77097 0.32897 0.0
H2634 H 0.13302 0.78599 0.32083 0.0
H2635 H 0.11332 0.77763 0.32925 0.0
C2636 C 0.09135 0.81954 0.31825 0.0
C2637 C 0.0762 0.82303 0.3235 0.0
C2638 C 0.11233 0.81972 0.32096 0.0
C2639 C 0.11828 0.82307 0.32897 0.0
C2640 C 0.10234 0.82497 0.33426 0.0
H2641 H 0.24292 0.84505 0.35644 0.0
H2642 H 0.20633 0.84503 0.35174 0.0
C2643 C 0.08145 0.82489 0.33156 0.0
C2644 C 0.14225 0.82714 0.33172 0.0
H2645 H 0.17833 0.80121 0.33259 0.0
C2646 C 0.15843 0.84969 0.33522 0.0
C2647 C 0.14942 0.80939 0.33078 0.0
C2648 C 0.13247 0.78454 0.32732 0.0
C2649 C 0.18178 0.85512 0.33772 0.0
C2650 C 0.18896 0.83739 0.33676 0.0
C2651 C 0.17279 0.81483 0.33326 0.0
C2652 C 0.21295 0.84148 0.33949 0.0
C2653 C 0.19872 0.87991 0.34121 0.0
C2654 C 0.22906 0.84008 0.33415 0.0
C2655 C 0.24993 0.84005 0.33681 0.0
C2656 C 0.25496 0.84124 0.34488 0.0
C2657 C 0.23964 0.84427 0.35018 0.0
C2658 C 0.21871 0.84426 0.34751 0.0
H2659 H 0.19301 0.89343 0.33969 0.0
H2660 H 0.19848 0.87828 0.34769 0.0
H2661 H 0.2178 0.88697 0.33918 0.0
H2662 H 0.22493 0.83798 0.32794 0.0
H2663 H 0.26138 0.83774 0.33257 0.0
H2664 H 0.73227 0.82273 0.81286 0.0
H2665 H 0.69577 0.82243 0.8178 0.0
H2666 H 0.72003 0.82422 0.84154 0.0
H2667 H 0.75671 0.82481 0.83667 0.0
H2668 H 0.6578 0.79283 0.82855 0.0
H2669 H 0.71675 0.88771 0.83945 0.0
H2670 H 0.72781 0.87313 0.83282 0.0
H2671 H 0.72447 0.86571 0.84308 0.0
C2672 C 0.72957 0.82244 0.81913 0.0
C2673 C 0.74755 0.82415 0.82437 0.0
C2674 C 0.70875 0.82239 0.82194 0.0
C2675 C 0.70563 0.82401 0.83002 0.0
C2676 C 0.72247 0.82358 0.83527 0.0
H2677 H 0.59826 0.8389 0.85738 0.0
H2678 H 0.63501 0.83879 0.85288 0.0
C2679 C 0.74331 0.82371 0.83248 0.0
C2680 C 0.68565 0.82775 0.83289 0.0
H2681 H 0.67449 0.86901 0.84226 0.0
C2682 C 0.66141 0.80947 0.83154 0.0
C2683 C 0.69052 0.84957 0.83676 0.0
C2684 C 0.71628 0.87028 0.83807 0.0
C2685 C 0.6418 0.81226 0.83406 0.0
C2686 C 0.64667 0.83411 0.8379 0.0
C2687 C 0.6709 0.85235 0.83929 0.0
C2688 C 0.62667 0.83811 0.84056 0.0
C2689 C 0.61602 0.79164 0.83271 0.0
C2690 C 0.61064 0.83917 0.8351 0.0
C2691 C 0.58971 0.83933 0.83764 0.0
C2692 C 0.58453 0.83849 0.84568 0.0
C2693 C 0.60171 0.83952 0.85114 0.0
C2694 C 0.62266 0.83933 0.84859 0.0
H2695 H 0.61549 0.77416 0.83136 0.0
H2696 H 0.6044 0.78888 0.83792 0.0
H2697 H 0.60799 0.79626 0.82766 0.0
H2698 H 0.61378 0.8388 0.82887 0.0
H2699 H 0.57695 0.83873 0.83328 0.0
H2700 H 0.15482 0.75662 0.85754 0.0
H2701 H 0.15271 0.79256 0.8533 0.0
H2702 H 0.15617 0.77435 0.82916 0.0
H2703 H 0.15789 0.73832 0.8333 0.0
H2704 H 0.19052 0.83003 0.84505 0.0
H2705 H 0.10393 0.79383 0.8284 0.0
H2706 H 0.10985 0.77516 0.83506 0.0
H2707 H 0.12227 0.78099 0.8253 0.0
C2708 C 0.15433 0.75983 0.85132 0.0
C2709 C 0.15663 0.74468 0.84575 0.0
C2710 C 0.15327 0.78045 0.84892 0.0
C2711 C 0.15423 0.78608 0.84092 0.0
C2712 C 0.155 0.77015 0.83535 0.0
H2713 H 0.17478 0.90844 0.81275 0.0
H2714 H 0.17486 0.87232 0.81789 0.0
C2715 C 0.15606 0.74957 0.83774 0.0
C2716 C 0.15725 0.80987 0.8384 0.0
H2717 H 0.13364 0.83591 0.82631 0.0
C2718 C 0.17794 0.83136 0.84102 0.0
C2719 C 0.14093 0.81151 0.8331 0.0
C2720 C 0.11788 0.78915 0.83036 0.0
C2721 C 0.18307 0.85444 0.83832 0.0
C2722 C 0.16694 0.85601 0.83293 0.0
C2723 C 0.14611 0.83457 0.83038 0.0
C2724 C 0.17081 0.87974 0.83001 0.0
C2725 C 0.20597 0.87689 0.8411 0.0
C2726 C 0.16927 0.89621 0.83515 0.0
C2727 C 0.16928 0.91689 0.83225 0.0
C2728 C 0.17069 0.92134 0.82413 0.0
C2729 C 0.17375 0.90559 0.81903 0.0
C2730 C 0.17366 0.88486 0.82195 0.0
H2731 H 0.21928 0.87222 0.84367 0.0
H2732 H 0.21496 0.88998 0.8362 0.0
H2733 H 0.20108 0.88618 0.84567 0.0
H2734 H 0.16676 0.89241 0.84138 0.0
H2735 H 0.16684 0.92862 0.83633 0.0
H2736 H 0.26 0.42077 0.83201 0.0
H2737 H 0.22343 0.38342 0.82784 0.0
H2738 H 0.20558 0.36123 0.85196 0.0
H2739 H 0.24201 0.39882 0.85622 0.0
H2740 H 0.20476 0.33313 0.83031 0.0
H2741 H 0.14652 0.36599 0.844 0.0
H2742 H 0.17901 0.38554 0.84262 0.0
H2743 H 0.16769 0.36381 0.85052 0.0
C2744 C 0.24859 0.40774 0.83643 0.0
C2745 C 0.25372 0.41292 0.84445 0.0
C2746 C 0.22767 0.38642 0.83403 0.0
C2747 C 0.21152 0.36995 0.8396 0.0
C2748 C 0.21757 0.37406 0.84759 0.0
H2749 H 0.07075 0.23862 0.8354 0.0
H2750 H 0.10731 0.27519 0.84008 0.0
C2751 C 0.23852 0.39542 0.85 0.0
C2752 C 0.18772 0.34936 0.83704 0.0
H2753 H 0.12609 0.32698 0.83805 0.0
C2754 C 0.18755 0.33175 0.832 0.0
C2755 C 0.16534 0.34779 0.83922 0.0
C2756 C 0.16451 0.36687 0.84433 0.0
C2757 C 0.16552 0.31235 0.82915 0.0
C2758 C 0.14317 0.31084 0.83131 0.0
C2759 C 0.14331 0.32835 0.83639 0.0
C2760 C 0.11944 0.29068 0.82853 0.0
C2761 C 0.16629 0.29339 0.82397 0.0
C2762 C 0.1136 0.28797 0.82052 0.0
C2763 C 0.09264 0.26714 0.81782 0.0
C2764 C 0.07727 0.24872 0.8231 0.0
C2765 C 0.08229 0.25241 0.83118 0.0
C2766 C 0.10319 0.27326 0.83387 0.0
H2767 H 0.18429 0.29428 0.82424 0.0
H2768 H 0.15181 0.27469 0.82566 0.0
H2769 H 0.16298 0.29655 0.8178 0.0
H2770 H 0.12575 0.30151 0.81634 0.0
H2771 H 0.08927 0.26487 0.81157 0.0
H2772 H 0.83452 0.57376 0.66879 0.0
H2773 H 0.83484 0.61029 0.67366 0.0
H2774 H 0.84152 0.6369 0.65 0.0
H2775 H 0.84099 0.60026 0.64505 0.0
H2776 H 0.86721 0.66188 0.6718 0.0
H2777 H 0.77608 0.62931 0.65817 0.0
H2778 H 0.78923 0.60987 0.65935 0.0
H2779 H 0.79964 0.63214 0.65161 0.0
C2780 C 0.8366 0.58761 0.66463 0.0
C2781 C 0.83741 0.58397 0.65652 0.0
C2782 C 0.83672 0.60845 0.66742 0.0
C2783 C 0.83758 0.62591 0.66216 0.0
C2784 C 0.84034 0.62331 0.65412 0.0
H2785 H 0.82669 0.75561 0.66679 0.0
H2786 H 0.82614 0.71868 0.66226 0.0
C2787 C 0.84026 0.60248 0.65132 0.0
C2788 C 0.83395 0.64591 0.66507 0.0
H2789 H 0.79436 0.6679 0.66441 0.0
C2790 C 0.85129 0.66322 0.67021 0.0
C2791 C 0.81302 0.64739 0.66301 0.0
C2792 C 0.79327 0.6286 0.65779 0.0
C2793 C 0.84855 0.6824 0.6732 0.0
C2794 C 0.82765 0.68392 0.67112 0.0
C2795 C 0.81026 0.66655 0.66601 0.0
C2796 C 0.82424 0.70421 0.67389 0.0
C2797 C 0.86837 0.70125 0.6784 0.0
C2798 C 0.82202 0.70759 0.68191 0.0
C2799 C 0.82227 0.72869 0.68453 0.0
C2800 C 0.82471 0.74665 0.67916 0.0
C2801 C 0.82495 0.7422 0.67109 0.0
C2802 C 0.82469 0.72113 0.66848 0.0
H2803 H 0.88553 0.70047 0.67802 0.0
H2804 H 0.87246 0.71997 0.6768 0.0
H2805 H 0.86207 0.69782 0.68458 0.0
H2806 H 0.8211 0.69441 0.68616 0.0
H2807 H 0.82197 0.73154 0.69078 0.0
H2808 H 0.39861 0.24363 0.64638 0.0
H2809 H 0.36122 0.20743 0.65086 0.0
H2810 H 0.38457 0.2263 0.67485 0.0
H2811 H 0.42173 0.2626 0.67046 0.0
H2812 H 0.36321 0.17047 0.65919 0.0
H2813 H 0.31235 0.20596 0.676 0.0
H2814 H 0.33627 0.22456 0.66912 0.0
H2815 H 0.34386 0.21931 0.67881 0.0
C2816 C 0.39543 0.2405 0.65262 0.0
C2817 C 0.41319 0.25593 0.65806 0.0
C2818 C 0.37413 0.21973 0.65517 0.0
C2819 C 0.37013 0.21422 0.66319 0.0
C2820 C 0.38711 0.2304 0.66865 0.0
H2821 H 0.26592 0.09073 0.69081 0.0
H2822 H 0.30289 0.12703 0.68614 0.0
C2823 C 0.4084 0.25113 0.66611 0.0
C2824 C 0.34974 0.19035 0.66581 0.0
H2825 H 0.29984 0.16388 0.67779 0.0
C2826 C 0.34921 0.16899 0.6632 0.0
C2827 C 0.3317 0.18853 0.6711 0.0
C2828 C 0.33087 0.21079 0.67387 0.0
C2829 C 0.33131 0.14583 0.66586 0.0
C2830 C 0.31333 0.14402 0.67117 0.0
C2831 C 0.31382 0.16537 0.67376 0.0
C2832 C 0.29312 0.12016 0.67387 0.0
C2833 C 0.33207 0.12354 0.66308 0.0
C2834 C 0.27582 0.10394 0.6685 0.0
C2835 C 0.25475 0.08316 0.67114 0.0
C2836 C 0.25055 0.07836 0.67921 0.0
C2837 C 0.26865 0.09385 0.68456 0.0
C2838 C 0.28971 0.11468 0.6819 0.0
H2839 H 0.35042 0.12836 0.66079 0.0
H2840 H 0.32713 0.10999 0.66788 0.0
H2841 H 0.31866 0.11474 0.65826 0.0
H2842 H 0.27794 0.10801 0.66229 0.0
H2843 H 0.24114 0.07163 0.66687 0.0
H2844 H 0.75556 0.15613 0.64348 0.0
H2845 H 0.79185 0.15502 0.64793 0.0
H2846 H 0.7726 0.15852 0.67195 0.0
H2847 H 0.73624 0.1593 0.66759 0.0
H2848 H 0.82862 0.19376 0.65639 0.0
H2849 H 0.79319 0.10683 0.67287 0.0
H2850 H 0.77463 0.11229 0.66602 0.0
H2851 H 0.77962 0.12471 0.67577 0.0
C2852 C 0.75863 0.15587 0.64971 0.0
C2853 C 0.74308 0.15791 0.65518 0.0
C2854 C 0.77944 0.15539 0.65224 0.0
C2855 C 0.78487 0.15665 0.66026 0.0
C2856 C 0.76857 0.15715 0.66574 0.0
H2857 H 0.90743 0.1754 0.68818 0.0
H2858 H 0.87138 0.1763 0.68339 0.0
C2859 C 0.74781 0.15767 0.66322 0.0
C2860 C 0.80874 0.16015 0.66289 0.0
H2861 H 0.83513 0.1366 0.67485 0.0
C2862 C 0.8301 0.18116 0.66037 0.0
C2863 C 0.81054 0.14381 0.66814 0.0
C2864 C 0.78829 0.12053 0.67081 0.0
C2865 C 0.85323 0.1865 0.66308 0.0
C2866 C 0.855 0.17023 0.66836 0.0
C2867 C 0.83366 0.14917 0.67085 0.0
C2868 C 0.87883 0.17399 0.67114 0.0
C2869 C 0.87551 0.20973 0.6604 0.0
C2870 C 0.89534 0.17323 0.66582 0.0
C2871 C 0.91599 0.1728 0.66853 0.0
C2872 C 0.92036 0.17295 0.67662 0.0
C2873 C 0.90464 0.17534 0.68192 0.0
C2874 C 0.88395 0.17571 0.6792 0.0
H2875 H 0.87062 0.22323 0.65814 0.0
H2876 H 0.88887 0.21827 0.66526 0.0
H2877 H 0.88456 0.20538 0.6556 0.0
H2878 H 0.89156 0.17155 0.65959 0.0
H2879 H 0.92771 0.1709 0.66429 0.0
H2880 H 0.06581 0.48906 0.47944 0.0
H2881 H 0.02964 0.48969 0.48423 0.0
H2882 H 0.05375 0.49257 0.50805 0.0
H2883 H 0.09012 0.49224 0.50333 0.0
H2884 H 0.99156 0.46102 0.49501 0.0
H2885 H 0.05115 0.55626 0.5055 0.0
H2886 H 0.06204 0.54115 0.49903 0.0
H2887 H 0.05853 0.53423 0.50933 0.0
C2888 C 0.06315 0.48923 0.4857 0.0
C2889 C 0.081 0.49094 0.491 0.0
C2890 C 0.04252 0.48971 0.48843 0.0
C2891 C 0.03945 0.49188 0.49647 0.0
C2892 C 0.05616 0.49151 0.5018 0.0
H2893 H 0.93273 0.50901 0.52336 0.0
H2894 H 0.96936 0.50853 0.51895 0.0
C2895 C 0.07681 0.4911 0.49909 0.0
C2896 C 0.01961 0.49601 0.49923 0.0
H2897 H 0.00888 0.53804 0.50827 0.0
C2898 C 0.9953 0.47785 0.49789 0.0
C2899 C 0.02465 0.51808 0.50297 0.0
C2900 C 0.05049 0.53867 0.50425 0.0
C2901 C 0.97581 0.48098 0.50031 0.0
C2902 C 0.98086 0.50307 0.50402 0.0
C2903 C 0.00515 0.5212 0.50539 0.0
C2904 C 0.96098 0.50737 0.50661 0.0
C2905 C 0.94997 0.46046 0.49899 0.0
C2906 C 0.94498 0.50829 0.50111 0.0
C2907 C 0.92411 0.50865 0.5036 0.0
C2908 C 0.91896 0.50816 0.51164 0.0
C2909 C 0.93614 0.50935 0.51713 0.0
C2910 C 0.95702 0.50896 0.51462 0.0
H2911 H 0.94926 0.44285 0.49775 0.0
H2912 H 0.93835 0.45801 0.50419 0.0
H2913 H 0.94204 0.46498 0.4939 0.0
H2914 H 0.94807 0.50763 0.49489 0.0
H2915 H 0.91134 0.50791 0.49922 0.0
H2916 H 0.49875 0.40752 0.49883 0.0
H2917 H 0.49793 0.44369 0.4942 0.0
H2918 H 0.4883 0.46082 0.51793 0.0
H2919 H 0.48941 0.42476 0.52265 0.0
H2920 H 0.46435 0.46061 0.49573 0.0
H2921 H 0.55252 0.52133 0.51075 0.0
H2922 H 0.54092 0.48901 0.50942 0.0
H2923 H 0.52851 0.49952 0.51696 0.0
C2924 C 0.496 0.4187 0.50306 0.0
C2925 C 0.49444 0.41344 0.51112 0.0
C2926 C 0.49559 0.43939 0.5004 0.0
C2927 C 0.49368 0.4552 0.50575 0.0
C2928 C 0.49034 0.44908 0.51374 0.0
H2929 H 0.49827 0.59329 0.50044 0.0
H2930 H 0.49949 0.55763 0.5054 0.0
C2931 C 0.49074 0.42835 0.51641 0.0
C2932 C 0.49648 0.47864 0.50297 0.0
H2933 H 0.53374 0.54058 0.50416 0.0
C2934 C 0.4795 0.4781 0.49756 0.0
C2935 C 0.5164 0.5014 0.50535 0.0
C2936 C 0.53579 0.50299 0.51088 0.0
C2937 C 0.48169 0.49978 0.49455 0.0
C2938 C 0.50165 0.52252 0.49691 0.0
C2939 C 0.51857 0.52308 0.50234 0.0
C2940 C 0.50463 0.54591 0.494 0.0
C2941 C 0.46235 0.4982 0.48899 0.0
C2942 C 0.50839 0.55176 0.486 0.0
C2943 C 0.50778 0.57219 0.48314 0.0
C2944 C 0.50341 0.58705 0.48825 0.0
C2945 C 0.50153 0.58214 0.49634 0.0
C2946 C 0.50218 0.56174 0.49919 0.0
H2947 H 0.44559 0.47988 0.48913 0.0
H2948 H 0.45725 0.51222 0.49043 0.0
H2949 H 0.46966 0.50162 0.48293 0.0
H2950 H 0.5108 0.53997 0.48193 0.0
H2951 H 0.50937 0.57552 0.47688 0.0
H2952 H 0.59242 0.08633 0.49893 0.0
H2953 H 0.55537 0.04848 0.49536 0.0
H2954 H 0.53894 0.03039 0.5198 0.0
H2955 H 0.57606 0.06823 0.52346 0.0
H2956 H 0.52907 0.98958 0.50908 0.0
H2957 H 0.48853 0.04586 0.49953 0.0
H2958 H 0.51777 0.05408 0.49534 0.0
H2959 H 0.51536 0.0578 0.50568 0.0
C2960 C 0.58127 0.07405 0.50356 0.0
C2961 C 0.58701 0.08043 0.51149 0.0
C2962 C 0.56004 0.05252 0.5015 0.0
C2963 C 0.54423 0.03705 0.50733 0.0
C2964 C 0.55087 0.04229 0.51523 0.0
H2965 H 0.40229 0.90399 0.50596 0.0
H2966 H 0.43909 0.941 0.51028 0.0
C2967 C 0.57213 0.06386 0.51731 0.0
C2968 C 0.51997 0.01644 0.50518 0.0
H2969 H 0.46517 0.0033 0.49718 0.0
C2970 C 0.51502 0.9925 0.50651 0.0
C2971 C 0.50177 0.02047 0.50185 0.0
C2972 C 0.50594 0.04592 0.50056 0.0
C2973 C 0.49243 0.97234 0.5044 0.0
C2974 C 0.47421 0.97636 0.50105 0.0
C2975 C 0.47915 0.00033 0.49977 0.0
C2976 C 0.4502 0.95583 0.4986 0.0
C2977 C 0.48852 0.94694 0.50557 0.0
C2978 C 0.44347 0.95277 0.49067 0.0
C2979 C 0.42227 0.9318 0.48818 0.0
C2980 C 0.40753 0.91357 0.49361 0.0
C2981 C 0.41338 0.9176 0.50162 0.0
C2982 C 0.43451 0.93862 0.5041 0.0
H2983 H 0.50608 0.94715 0.5064 0.0
H2984 H 0.4772 0.93872 0.51088 0.0
H2985 H 0.47876 0.93502 0.50049 0.0
H2986 H 0.45524 0.96603 0.48635 0.0
H2987 H 0.41826 0.92925 0.48197 0.0
H2988 H 0.49069 0.06605 0.02384 0.0
H2989 H 0.49092 0.02926 0.01944 0.0
H2990 H 0.49252 0.05085 0.99538 0.0
H2991 H 0.49247 0.08769 0.99969 0.0
H2992 H 0.46094 0.99003 0.00866 0.0
H2993 H 0.5566 0.04826 0.99835 0.0
H2994 H 0.54176 0.05951 0.0048 0.0
H2995 H 0.53503 0.05624 0.99449 0.0
C2996 C 0.49048 0.06268 0.01761 0.0
C2997 C 0.49188 0.07994 0.01212 0.0
C2998 C 0.49073 0.04171 0.01511 0.0
C2999 C 0.4924 0.03777 0.0071 0.0
C3000 C 0.49179 0.05392 0.0016 0.0
H3001 H 0.50766 0.93203 0.97949 0.0
H3002 H 0.50831 0.96867 0.98448 0.0
C3003 C 0.49157 0.07486 0.00408 0.0
C3004 C 0.49626 0.01762 0.00452 0.0
H3005 H 0.53756 0.00598 0.99542 0.0
C3006 C 0.4777 0.99345 0.0058 0.0
C3007 C 0.51823 0.02228 0.00081 0.0
C3008 C 0.53917 0.04796 0.99958 0.0
C3009 C 0.48027 0.9737 0.00329 0.0
C3010 C 0.50221 0.97835 0.99955 0.0
C3011 C 0.52083 0.00254 0.99831 0.0
C3012 C 0.50572 0.95823 0.99667 0.0
C3013 C 0.45922 0.94804 0.00446 0.0
C3014 C 0.50546 0.941 0.00191 0.0
C3015 C 0.50511 0.92009 0.99908 0.0
C3016 C 0.50517 0.91616 0.99097 0.0
C3017 C 0.50756 0.9345 0.98577 0.0
C3018 C 0.50782 0.95539 0.9886 0.0
H3019 H 0.44186 0.94782 0.00574 0.0
H3020 H 0.45651 0.93663 0.9992 0.0
H3021 H 0.4633 0.93954 0.0095 0.0
H3022 H 0.50445 0.94322 0.00817 0.0
H3023 H 0.50348 0.9064 0.00325 0.0
H3024 H 0.90827 0.40157 0.9989 0.0
H3025 H 0.94499 0.43762 0.99406 0.0
H3026 H 0.96903 0.45997 0.01783 0.0
H3027 H 0.93252 0.42377 0.02273 0.0
H3028 H 0.95412 0.4843 0.99745 0.0
H3029 H 0.0318 0.47275 0.00692 0.0
H3030 H 0.00072 0.44759 0.00656 0.0
H3031 H 0.01079 0.46865 0.01465 0.0
C3032 C 0.9217 0.41376 0.0031 0.0
C3033 C 0.91744 0.40988 0.01121 0.0
C3034 C 0.94262 0.43441 1.00032 0.0
C3035 C 0.9597 0.45145 0.00558 0.0
C3036 C 0.95626 0.44686 0.01366 0.0
H3037 H 0.0866 0.59542 0.00138 0.0
H3038 H 0.0497 0.55918 0.00602 0.0
C3039 C 0.93536 0.42614 0.01646 0.0
C3040 C 0.97963 0.47515 0.00264 0.0
H3041 H 0.04156 0.51233 0.00247 0.0
C3042 C 0.97326 0.49038 0.99849 0.0
C3043 C 0.00452 0.48306 0.00407 0.0
C3044 C 0.01245 0.46709 0.00823 0.0
C3045 C 0.99116 0.51353 0.99583 0.0
C3046 C 0.01604 0.52147 0.99728 0.0
C3047 C 0.02241 0.50622 0.00142 0.0
C3048 C 0.03595 0.54528 0.99443 0.0
C3049 C 0.9833 0.52949 0.99163 0.0
C3050 C 0.03995 0.54988 0.98636 0.0
C3051 C 0.06098 0.57068 0.98368 0.0
C3052 C 0.07844 0.58704 0.98903 0.0
C3053 C 0.07354 0.58316 0.9971 0.0
C3054 C 0.05252 0.56241 0.99977 0.0
H3055 H 0.96377 0.52352 0.99276 0.0
H3056 H 0.99468 0.5489 0.99344 0.0
H3057 H 0.98562 0.52839 0.98522 0.0
H3058 H 0.02754 0.53671 0.98214 0.0
H3059 H 0.06429 0.57306 0.97742 0.0
H3060 H 0.42091 0.48882 0.97936 0.0
H3061 H 0.45759 0.48885 0.98402 0.0
H3062 H 0.43875 0.49509 0.00786 0.0
H3063 H 0.40202 0.49486 0.00329 0.0
H3064 H 0.4944 0.52933 0.99242 0.0
H3065 H 0.45945 0.443 0.00929 0.0
H3066 H 0.44107 0.44772 0.00215 0.0
H3067 H 0.4455 0.46089 0.01177 0.0
C3068 C 0.42418 0.48945 0.98561 0.0
C3069 C 0.40861 0.49193 0.99096 0.0
C3070 C 0.44522 0.48962 0.98825 0.0
C3071 C 0.45083 0.49195 0.99627 0.0
C3072 C 0.43458 0.49296 0.00165 0.0
H3073 H 0.57433 0.50879 0.02347 0.0
H3074 H 0.53835 0.51066 0.01917 0.0
C3075 C 0.41361 0.49287 0.99902 0.0
C3076 C 0.47476 0.4958 0.99896 0.0
H3077 H 0.50151 0.47236 0.0108 0.0
C3078 C 0.49601 0.51682 0.9964 0.0
C3079 C 0.4767 0.47959 0.00422 0.0
C3080 C 0.4545 0.45641 0.00698 0.0
C3081 C 0.51923 0.5222 0.99903 0.0
C3082 C 0.5212 0.5059 0.00426 0.0
C3083 C 0.49992 0.48493 0.00684 0.0
C3084 C 0.54513 0.50936 0.00679 0.0
C3085 C 0.54138 0.54545 0.9963 0.0
C3086 C 0.56128 0.50888 0.00125 0.0
C3087 C 0.5819 0.50795 0.00368 0.0
C3088 C 0.58659 0.50722 0.01171 0.0
C3089 C 0.57127 0.50937 0.01724 0.0
C3090 C 0.55063 0.5103 0.0148 0.0
H3091 H 0.53643 0.55918 0.99431 0.0
H3092 H 0.55528 0.55366 0.00102 0.0
H3093 H 0.54978 0.54124 0.99126 0.0
H3094 H 0.55719 0.50775 0.99505 0.0
H3095 H 0.59329 0.50625 0.99927 0.0
loop_
_geom_bond_atom_site_label_1
_geom_bond_atom_site_label_2
_geom_bond_distance
_geom_bond_site_symmetry_2
_ccdc_geom_bond_type
O0 Cd1 2.223 . S
O0 C8 1.315 . S
Cd1 O0 2.223 . S
Cd1 O4 2.297 . S
Cd1 O5 2.439 . S
Cd1 O11 2.240 . S
Cd2 O3 2.240 . S
Cd2 O10 2.223 . S
Cd2 O12 2.297 . S
Cd2 O13 2.439 . S
O3 Cd2 2.240 . S
O3 C8 1.279 . S
O4 Cd1 2.297 . S
O4 C6 1.247 . S
O5 Cd1 2.439 . S
O5 C6 1.208 . S
C6 O4 1.247 . S
C6 O5 1.208 . S
C7 O12 1.247 . S
C7 O13 1.208 . S
C8 O0 1.315 . S
C8 O3 1.279 . S
C9 O10 1.315 . S
C9 O11 1.279 . S
O10 Cd2 2.223 . S
O10 C9 1.315 . S
O11 Cd1 2.240 . S
O11 C9 1.279 . S
O12 Cd2 2.297 . S
O12 C7 1.247 . S
O13 Cd2 2.439 . S
O13 C7 1.208 . S
O14 Cd15 2.223 . S
O14 C22 1.315 . S
Cd15 O14 2.223 . S
Cd15 O18 2.297 . S
Cd15 O19 2.439 . S
Cd15 O25 2.240 1_545 S
Cd16 O17 2.240 . S
Cd16 O24 2.223 1_545 S
Cd16 O26 2.297 1_545 S
Cd16 O27 2.439 . S
O17 Cd16 2.240 . S
O17 C22 1.279 . S
O18 Cd15 2.297 . S
O18 C20 1.247 . S
O19 Cd15 2.439 . S
O19 C20 1.208 . S
C20 O18 1.247 . S
C20 O19 1.208 . S
C21 O26 1.247 . S
C21 O27 1.208 1_565 S
C22 O14 1.315 . S
C22 O17 1.279 . S
C23 O24 1.315 . S
C23 O25 1.279 . S
O24 Cd16 2.223 1_565 S
O24 C23 1.315 . S
O25 Cd15 2.240 1_565 S
O25 C23 1.279 . S
O26 Cd16 2.297 1_565 S
O26 C21 1.247 . S
O27 Cd16 2.439 . S
O27 C21 1.208 1_545 S
O28 Cd29 2.223 . S
O28 C36 1.315 . S
Cd29 O28 2.223 . S
Cd29 O32 2.297 . S
Cd29 O33 2.439 . S
Cd29 O39 2.240 1_655 S
Cd30 O31 2.240 . S
Cd30 O38 2.223 1_655 S
Cd30 O40 2.297 1_655 S
Cd30 O41 2.439 . S
O31 Cd30 2.240 . S
O31 C36 1.279 . S
O32 Cd29 2.297 . S
O32 C34 1.247 . S
O33 Cd29 2.439 . S
O33 C34 1.208 . S
C34 O32 1.247 . S
C34 O33 1.208 . S
C35 O40 1.247 . S
C35 O41 1.208 1_455 S
C36 O28 1.315 . S
C36 O31 1.279 . S
C37 O38 1.315 . S
C37 O39 1.279 . S
O38 Cd30 2.223 1_455 S
O38 C37 1.315 . S
O39 Cd29 2.240 1_455 S
O39 C37 1.279 . S
O40 Cd30 2.297 1_455 S
O40 C35 1.247 . S
O41 Cd30 2.439 . S
O41 C35 1.208 1_655 S
O42 Cd43 2.223 . S
O42 C50 1.315 . S
Cd43 O42 2.223 . S
Cd43 O46 2.297 . S
Cd43 O47 2.439 . S
Cd43 O53 2.240 . S
Cd44 O45 2.240 . S
Cd44 O52 2.223 . S
Cd44 O54 2.297 . S
Cd44 O55 2.439 . S
O45 Cd44 2.240 . S
O45 C50 1.279 . S
O46 Cd43 2.297 . S
O46 C48 1.247 . S
O47 Cd43 2.439 . S
O47 C48 1.208 . S
C48 O46 1.247 . S
C48 O47 1.208 . S
C49 O54 1.247 . S
C49 O55 1.208 . S
C50 O42 1.315 . S
C50 O45 1.279 . S
C51 O52 1.315 . S
C51 O53 1.279 . S
O52 Cd44 2.223 . S
O52 C51 1.315 . S
O53 Cd43 2.240 . S
O53 C51 1.279 . S
O54 Cd44 2.297 . S
O54 C49 1.247 . S
O55 Cd44 2.439 . S
O55 C49 1.208 . S
O56 Cd57 2.223 . S
O56 C64 1.315 . S
Cd57 O56 2.223 . S
Cd57 O60 2.297 . S
Cd57 O61 2.439 . S
Cd57 O67 2.240 1_565 S
Cd58 O59 2.240 . S
Cd58 O66 2.223 1_565 S
Cd58 O68 2.297 1_565 S
Cd58 O69 2.439 . S
O59 Cd58 2.240 . S
O59 C64 1.279 . S
O60 Cd57 2.297 . S
O60 C62 1.247 . S
O61 Cd57 2.439 . S
O61 C62 1.208 . S
C62 O60 1.247 . S
C62 O61 1.208 . S
C63 O68 1.247 . S
C63 O69 1.208 1_545 S
C64 O56 1.315 . S
C64 O59 1.279 . S
C65 O66 1.315 . S
C65 O67 1.279 . S
O66 Cd58 2.223 1_545 S
O66 C65 1.315 . S
O67 Cd57 2.240 1_545 S
O67 C65 1.279 . S
O68 Cd58 2.297 1_545 S
O68 C63 1.247 . S
O69 Cd58 2.439 . S
O69 C63 1.208 1_565 S
O70 Cd71 2.223 . S
O70 C78 1.315 . S
Cd71 O70 2.223 . S
Cd71 O74 2.297 . S
Cd71 O75 2.439 . S
Cd71 O81 2.240 1_455 S
Cd72 O73 2.240 . S
Cd72 O80 2.223 1_455 S
Cd72 O82 2.297 1_455 S
Cd72 O83 2.439 . S
O73 Cd72 2.240 . S
O73 C78 1.279 . S
O74 Cd71 2.297 . S
O74 C76 1.247 . S
O75 Cd71 2.439 . S
O75 C76 1.208 . S
C76 O74 1.247 . S
C76 O75 1.208 . S
C77 O82 1.247 . S
C77 O83 1.208 1_655 S
C78 O70 1.315 . S
C78 O73 1.279 . S
C79 O80 1.315 . S
C79 O81 1.279 . S
O80 Cd72 2.223 1_655 S
O80 C79 1.315 . S
O81 Cd71 2.240 1_655 S
O81 C79 1.279 . S
O82 Cd72 2.297 1_655 S
O82 C77 1.247 . S
O83 Cd72 2.439 . S
O83 C77 1.208 1_455 S
O84 Cd85 2.223 . S
O84 C92 1.315 . S
Cd85 O84 2.223 . S
Cd85 O88 2.297 . S
Cd85 O89 2.439 . S
Cd85 O95 2.240 . S
Cd86 O87 2.240 . S
Cd86 O94 2.223 . S
Cd86 O96 2.297 . S
Cd86 O97 2.439 . S
O87 Cd86 2.240 . S
O87 C92 1.279 . S
O88 Cd85 2.297 . S
O88 C90 1.247 . S
O89 Cd85 2.439 . S
O89 C90 1.208 . S
C90 O88 1.247 . S
C90 O89 1.208 . S
C91 O96 1.247 . S
C91 O97 1.208 . S
C92 O84 1.315 . S
C92 O87 1.279 . S
C93 O94 1.315 . S
C93 O95 1.279 . S
O94 Cd86 2.223 . S
O94 C93 1.315 . S
O95 Cd85 2.240 . S
O95 C93 1.279 . S
O96 Cd86 2.297 . S
O96 C91 1.247 . S
O97 Cd86 2.439 . S
O97 C91 1.208 . S
O98 Cd99 2.223 . S
O98 C106 1.315 . S
Cd99 O98 2.223 . S
Cd99 O102 2.297 . S
Cd99 O103 2.439 . S
Cd99 O109 2.240 1_565 S
Cd100 O101 2.240 . S
Cd100 O108 2.223 1_565 S
Cd100 O110 2.297 1_565 S
Cd100 O111 2.439 . S
O101 Cd100 2.240 . S
O101 C106 1.279 . S
O102 Cd99 2.297 . S
O102 C104 1.247 . S
O103 Cd99 2.439 . S
O103 C104 1.208 . S
C104 O102 1.247 . S
C104 O103 1.208 . S
C105 O110 1.247 . S
C105 O111 1.208 1_545 S
C106 O98 1.315 . S
C106 O101 1.279 . S
C107 O108 1.315 . S
C107 O109 1.279 . S
O108 Cd100 2.223 1_545 S
O108 C107 1.315 . S
O109 Cd99 2.240 1_545 S
O109 C107 1.279 . S
O110 Cd100 2.297 1_545 S
O110 C105 1.247 . S
O111 Cd100 2.439 . S
O111 C105 1.208 1_565 S
O112 Cd113 2.223 . S
O112 C120 1.315 . S
Cd113 O112 2.223 . S
Cd113 O116 2.297 . S
Cd113 O117 2.439 . S
Cd113 O123 2.240 1_455 S
Cd114 O115 2.240 . S
Cd114 O122 2.223 1_455 S
Cd114 O124 2.297 1_455 S
Cd114 O125 2.439 . S
O115 Cd114 2.240 . S
O115 C120 1.279 . S
O116 Cd113 2.297 . S
O116 C118 1.247 . S
O117 Cd113 2.439 . S
O117 C118 1.208 . S
C118 O116 1.247 . S
C118 O117 1.208 . S
C119 O124 1.247 . S
C119 O125 1.208 1_655 S
C120 O112 1.315 . S
C120 O115 1.279 . S
C121 O122 1.315 . S
C121 O123 1.279 . S
O122 Cd114 2.223 1_655 S
O122 C121 1.315 . S
O123 Cd113 2.240 1_655 S
O123 C121 1.279 . S
O124 Cd114 2.297 1_655 S
O124 C119 1.247 . S
O125 Cd114 2.439 . S
O125 C119 1.208 1_455 S
O126 Cd127 2.223 . S
O126 C134 1.315 . S
Cd127 O126 2.223 . S
Cd127 O130 2.297 . S
Cd127 O131 2.439 . S
Cd127 O137 2.240 . S
Cd128 O129 2.240 . S
Cd128 O136 2.223 . S
Cd128 O138 2.297 . S
Cd128 O139 2.439 . S
O129 Cd128 2.240 . S
O129 C134 1.279 . S
O130 Cd127 2.297 . S
O130 C132 1.247 . S
O131 Cd127 2.439 . S
O131 C132 1.208 . S
C132 O130 1.247 . S
C132 O131 1.208 . S
C133 O138 1.247 . S
C133 O139 1.208 . S
C134 O126 1.315 . S
C134 O129 1.279 . S
C135 O136 1.315 . S
C135 O137 1.279 . S
O136 Cd128 2.223 . S
O136 C135 1.315 . S
O137 Cd127 2.240 . S
O137 C135 1.279 . S
O138 Cd128 2.297 . S
O138 C133 1.247 . S
O139 Cd128 2.439 . S
O139 C133 1.208 . S
O140 Cd141 2.223 . S
O140 C148 1.315 . S
Cd141 O140 2.223 . S
Cd141 O144 2.297 . S
Cd141 O145 2.439 . S
Cd141 O151 2.240 1_545 S
Cd142 O143 2.240 . S
Cd142 O150 2.223 1_545 S
Cd142 O152 2.297 1_545 S
Cd142 O153 2.439 . S
O143 Cd142 2.240 . S
O143 C148 1.279 . S
O144 Cd141 2.297 . S
O144 C146 1.247 . S
O145 Cd141 2.439 . S
O145 C146 1.208 . S
C146 O144 1.247 . S
C146 O145 1.208 . S
C147 O152 1.247 . S
C147 O153 1.208 1_565 S
C148 O140 1.315 . S
C148 O143 1.279 . S
C149 O150 1.315 . S
C149 O151 1.279 . S
O150 Cd142 2.223 1_565 S
O150 C149 1.315 . S
O151 Cd141 2.240 1_565 S
O151 C149 1.279 . S
O152 Cd142 2.297 1_565 S
O152 C147 1.247 . S
O153 Cd142 2.439 . S
O153 C147 1.208 1_545 S
O154 Cd155 2.223 . S
O154 C162 1.315 . S
Cd155 O154 2.223 . S
Cd155 O158 2.297 . S
Cd155 O159 2.439 . S
Cd155 O165 2.240 1_655 S
Cd156 O157 2.240 . S
Cd156 O164 2.223 1_655 S
Cd156 O166 2.297 1_655 S
Cd156 O167 2.439 . S
O157 Cd156 2.240 . S
O157 C162 1.279 . S
O158 Cd155 2.297 . S
O158 C160 1.247 . S
O159 Cd155 2.439 . S
O159 C160 1.208 . S
C160 O158 1.247 . S
C160 O159 1.208 . S
C161 O166 1.247 . S
C161 O167 1.208 1_455 S
C162 O154 1.315 . S
C162 O157 1.279 . S
C163 O164 1.315 . S
C163 O165 1.279 . S
O164 Cd156 2.223 1_455 S
O164 C163 1.315 . S
O165 Cd155 2.240 1_455 S
O165 C163 1.279 . S
O166 Cd156 2.297 1_455 S
O166 C161 1.247 . S
O167 Cd156 2.439 . S
O167 C161 1.208 1_655 S
O168 Cd169 2.223 . S
O168 C176 1.315 . S
Cd169 O168 2.223 . S
Cd169 O172 2.297 . S
Cd169 O173 2.439 . S
Cd169 O179 2.240 . S
Cd170 O171 2.240 . S
Cd170 O178 2.223 . S
Cd170 O180 2.297 . S
Cd170 O181 2.439 . S
O171 Cd170 2.240 . S
O171 C176 1.279 . S
O172 Cd169 2.297 . S
O172 C174 1.247 . S
O173 Cd169 2.439 . S
O173 C174 1.208 . S
C174 O172 1.247 . S
C174 O173 1.208 . S
C175 O180 1.247 . S
C175 O181 1.208 . S
C176 O168 1.315 . S
C176 O171 1.279 . S
C177 O178 1.315 . S
C177 O179 1.279 . S
O178 Cd170 2.223 . S
O178 C177 1.315 . S
O179 Cd169 2.240 . S
O179 C177 1.279 . S
O180 Cd170 2.297 . S
O180 C175 1.247 . S
O181 Cd170 2.439 . S
O181 C175 1.208 . S
O182 Cd183 2.223 . S
O182 C190 1.315 . S
Cd183 O182 2.223 . S
Cd183 O186 2.297 . S
Cd183 O187 2.439 . S
Cd183 O193 2.240 . S
Cd184 O185 2.240 . S
Cd184 O192 2.223 . S
Cd184 O194 2.297 . S
Cd184 O195 2.439 . S
O185 Cd184 2.240 . S
O185 C190 1.279 . S
O186 Cd183 2.297 . S
O186 C188 1.247 . S
O187 Cd183 2.439 . S
O187 C188 1.208 . S
C188 O186 1.247 . S
C188 O187 1.208 . S
C189 O194 1.247 . S
C189 O195 1.208 . S
C190 O182 1.315 . S
C190 O185 1.279 . S
C191 O192 1.315 . S
C191 O193 1.279 . S
O192 Cd184 2.223 . S
O192 C191 1.315 . S
O193 Cd183 2.240 . S
O193 C191 1.279 . S
O194 Cd184 2.297 . S
O194 C189 1.247 . S
O195 Cd184 2.439 . S
O195 C189 1.208 . S
O196 Cd197 2.223 . S
O196 C204 1.315 . S
Cd197 O196 2.223 . S
Cd197 O200 2.297 . S
Cd197 O201 2.439 . S
Cd197 O207 2.240 . S
Cd198 O199 2.240 . S
Cd198 O206 2.223 . S
Cd198 O208 2.297 . S
Cd198 O209 2.439 . S
O199 Cd198 2.240 . S
O199 C204 1.279 . S
O200 Cd197 2.297 . S
O200 C202 1.247 . S
O201 Cd197 2.439 . S
O201 C202 1.208 . S
C202 O200 1.247 . S
C202 O201 1.208 . S
C203 O208 1.247 . S
C203 O209 1.208 . S
C204 O196 1.315 . S
C204 O199 1.279 . S
C205 O206 1.315 . S
C205 O207 1.279 . S
O206 Cd198 2.223 . S
O206 C205 1.315 . S
O207 Cd197 2.240 . S
O207 C205 1.279 . S
O208 Cd198 2.297 . S
O208 C203 1.247 . S
O209 Cd198 2.439 . S
O209 C203 1.208 . S
O210 Cd211 2.223 . S
O210 C218 1.315 . S
Cd211 O210 2.223 . S
Cd211 O214 2.297 . S
Cd211 O215 2.439 . S
Cd211 O221 2.240 . S
Cd212 O213 2.240 . S
Cd212 O220 2.223 . S
Cd212 O222 2.297 . S
Cd212 O223 2.439 . S
O213 Cd212 2.240 . S
O213 C218 1.279 . S
O214 Cd211 2.297 . S
O214 C216 1.247 . S
O215 Cd211 2.439 . S
O215 C216 1.208 . S
C216 O214 1.247 . S
C216 O215 1.208 . S
C217 O222 1.247 . S
C217 O223 1.208 . S
C218 O210 1.315 . S
C218 O213 1.279 . S
C219 O220 1.315 . S
C219 O221 1.279 . S
O220 Cd212 2.223 . S
O220 C219 1.315 . S
O221 Cd211 2.240 . S
O221 C219 1.279 . S
O222 Cd212 2.297 . S
O222 C217 1.247 . S
O223 Cd212 2.439 . S
O223 C217 1.208 . S
O224 Cd225 2.223 . S
O224 C232 1.315 . S
Cd225 O224 2.223 . S
Cd225 O228 2.297 . S
Cd225 O229 2.439 . S
Cd225 O235 2.240 . S
Cd226 O227 2.240 . S
Cd226 O234 2.223 . S
Cd226 O236 2.297 . S
Cd226 O237 2.439 . S
O227 Cd226 2.240 . S
O227 C232 1.279 . S
O228 Cd225 2.297 . S
O228 C230 1.247 . S
O229 Cd225 2.439 . S
O229 C230 1.208 . S
C230 O228 1.247 . S
C230 O229 1.208 . S
C231 O236 1.247 . S
C231 O237 1.208 . S
C232 O224 1.315 . S
C232 O227 1.279 . S
C233 O234 1.315 . S
C233 O235 1.279 . S
O234 Cd226 2.223 . S
O234 C233 1.315 . S
O235 Cd225 2.240 . S
O235 C233 1.279 . S
O236 Cd226 2.297 . S
O236 C231 1.247 . S
O237 Cd226 2.439 . S
O237 C231 1.208 . S
O238 Cd239 2.223 . S
O238 C246 1.315 . S
Cd239 O238 2.223 . S
Cd239 O242 2.297 . S
Cd239 O243 2.439 . S
Cd239 O249 2.240 . S
Cd240 O241 2.240 . S
Cd240 O248 2.223 . S
Cd240 O250 2.297 . S
Cd240 O251 2.439 . S
O241 Cd240 2.240 . S
O241 C246 1.279 . S
O242 Cd239 2.297 . S
O242 C244 1.247 . S
O243 Cd239 2.439 . S
O243 C244 1.208 . S
C244 O242 1.247 . S
C244 O243 1.208 . S
C245 O250 1.247 . S
C245 O251 1.208 . S
C246 O238 1.315 . S
C246 O241 1.279 . S
C247 O248 1.315 . S
C247 O249 1.279 . S
O248 Cd240 2.223 . S
O248 C247 1.315 . S
O249 Cd239 2.240 . S
O249 C247 1.279 . S
O250 Cd240 2.297 . S
O250 C245 1.247 . S
O251 Cd240 2.439 . S
O251 C245 1.208 . S
O252 Cd253 2.223 . S
O252 C260 1.315 . S
Cd253 O252 2.223 . S
Cd253 O256 2.297 . S
Cd253 O257 2.439 . S
Cd253 O263 2.240 . S
Cd254 O255 2.240 . S
Cd254 O262 2.223 . S
Cd254 O264 2.297 . S
Cd254 O265 2.439 . S
O255 Cd254 2.240 . S
O255 C260 1.279 . S
O256 Cd253 2.297 . S
O256 C258 1.247 . S
O257 Cd253 2.439 . S
O257 C258 1.208 . S
C258 O256 1.247 . S
C258 O257 1.208 . S
C259 O264 1.247 . S
C259 O265 1.208 . S
C260 O252 1.315 . S
C260 O255 1.279 . S
C261 O262 1.315 . S
C261 O263 1.279 . S
O262 Cd254 2.223 . S
O262 C261 1.315 . S
O263 Cd253 2.240 . S
O263 C261 1.279 . S
O264 Cd254 2.297 . S
O264 C259 1.247 . S
O265 Cd254 2.439 . S
O265 C259 1.208 . S
O266 Cd267 2.223 . S
O266 C274 1.315 . S
Cd267 O266 2.223 . S
Cd267 O270 2.297 . S
Cd267 O271 2.439 . S
Cd267 O277 2.240 . S
Cd268 O269 2.240 . S
Cd268 O276 2.223 . S
Cd268 O278 2.297 . S
Cd268 O279 2.439 . S
O269 Cd268 2.240 . S
O269 C274 1.279 . S
O270 Cd267 2.297 . S
O270 C272 1.247 . S
O271 Cd267 2.439 . S
O271 C272 1.208 . S
C272 O270 1.247 . S
C272 O271 1.208 . S
C273 O278 1.247 . S
C273 O279 1.208 . S
C274 O266 1.315 . S
C274 O269 1.279 . S
C275 O276 1.315 . S
C275 O277 1.279 . S
O276 Cd268 2.223 . S
O276 C275 1.315 . S
O277 Cd267 2.240 . S
O277 C275 1.279 . S
O278 Cd268 2.297 . S
O278 C273 1.247 . S
O279 Cd268 2.439 . S
O279 C273 1.208 . S
O280 Cd281 2.223 . S
O280 C288 1.315 . S
Cd281 O280 2.223 . S
Cd281 O284 2.297 . S
Cd281 O285 2.439 . S
Cd281 O291 2.240 . S
Cd282 O283 2.240 . S
Cd282 O290 2.223 . S
Cd282 O292 2.297 . S
Cd282 O293 2.439 . S
O283 Cd282 2.240 . S
O283 C288 1.279 . S
O284 Cd281 2.297 . S
O284 C286 1.247 . S
O285 Cd281 2.439 . S
O285 C286 1.208 . S
C286 O284 1.247 . S
C286 O285 1.208 . S
C287 O292 1.247 . S
C287 O293 1.208 . S
C288 O280 1.315 . S
C288 O283 1.279 . S
C289 O290 1.315 . S
C289 O291 1.279 . S
O290 Cd282 2.223 . S
O290 C289 1.315 . S
O291 Cd281 2.240 . S
O291 C289 1.279 . S
O292 Cd282 2.297 . S
O292 C287 1.247 . S
O293 Cd282 2.439 . S
O293 C287 1.208 . S
O294 Cd295 2.223 . S
O294 C302 1.315 . S
Cd295 O294 2.223 . S
Cd295 O298 2.297 . S
Cd295 O299 2.439 . S
Cd295 O305 2.240 . S
Cd296 O297 2.240 . S
Cd296 O304 2.223 . S
Cd296 O306 2.297 . S
Cd296 O307 2.439 . S
O297 Cd296 2.240 . S
O297 C302 1.279 . S
O298 Cd295 2.297 . S
O298 C300 1.247 . S
O299 Cd295 2.439 . S
O299 C300 1.208 . S
C300 O298 1.247 . S
C300 O299 1.208 . S
C301 O306 1.247 . S
C301 O307 1.208 . S
C302 O294 1.315 . S
C302 O297 1.279 . S
C303 O304 1.315 . S
C303 O305 1.279 . S
O304 Cd296 2.223 . S
O304 C303 1.315 . S
O305 Cd295 2.240 . S
O305 C303 1.279 . S
O306 Cd296 2.297 . S
O306 C301 1.247 . S
O307 Cd296 2.439 . S
O307 C301 1.208 . S
O308 Cd309 2.223 . S
O308 C316 1.315 . S
Cd309 O308 2.223 . S
Cd309 O312 2.297 . S
Cd309 O313 2.439 . S
Cd309 O319 2.240 . S
Cd310 O311 2.240 . S
Cd310 O318 2.223 . S
Cd310 O320 2.297 . S
Cd310 O321 2.439 . S
O311 Cd310 2.240 . S
O311 C316 1.279 . S
O312 Cd309 2.297 . S
O312 C314 1.247 . S
O313 Cd309 2.439 . S
O313 C314 1.208 . S
C314 O312 1.247 . S
C314 O313 1.208 . S
C315 O320 1.247 . S
C315 O321 1.208 . S
C316 O308 1.315 . S
C316 O311 1.279 . S
C317 O318 1.315 . S
C317 O319 1.279 . S
O318 Cd310 2.223 . S
O318 C317 1.315 . S
O319 Cd309 2.240 . S
O319 C317 1.279 . S
O320 Cd310 2.297 . S
O320 C315 1.247 . S
O321 Cd310 2.439 . S
O321 C315 1.208 . S
O322 Cd323 2.223 . S
O322 C330 1.315 . S
Cd323 O322 2.223 . S
Cd323 O326 2.297 . S
Cd323 O327 2.439 . S
Cd323 O333 2.240 . S
Cd324 O325 2.240 . S
Cd324 O332 2.223 . S
Cd324 O334 2.297 . S
Cd324 O335 2.439 . S
O325 Cd324 2.240 . S
O325 C330 1.279 . S
O326 Cd323 2.297 . S
O326 C328 1.247 . S
O327 Cd323 2.439 . S
O327 C328 1.208 . S
C328 O326 1.247 . S
C328 O327 1.208 . S
C329 O334 1.247 . S
C329 O335 1.208 . S
C330 O322 1.315 . S
C330 O325 1.279 . S
C331 O332 1.315 . S
C331 O333 1.279 . S
O332 Cd324 2.223 . S
O332 C331 1.315 . S
O333 Cd323 2.240 . S
O333 C331 1.279 . S
O334 Cd324 2.297 . S
O334 C329 1.247 . S
O335 Cd324 2.439 . S
O335 C329 1.208 . S
O336 Cd337 2.223 . S
O336 C344 1.315 . S
Cd337 O336 2.223 . S
Cd337 O340 2.297 . S
Cd337 O341 2.439 . S
Cd337 O347 2.240 . S
Cd338 O339 2.240 . S
Cd338 O346 2.223 . S
Cd338 O348 2.297 . S
Cd338 O349 2.439 . S
O339 Cd338 2.240 . S
O339 C344 1.279 . S
O340 Cd337 2.297 . S
O340 C342 1.247 . S
O341 Cd337 2.439 . S
O341 C342 1.208 . S
C342 O340 1.247 . S
C342 O341 1.208 . S
C343 O348 1.247 . S
C343 O349 1.208 . S
C344 O336 1.315 . S
C344 O339 1.279 . S
C345 O346 1.315 . S
C345 O347 1.279 . S
O346 Cd338 2.223 . S
O346 C345 1.315 . S
O347 Cd337 2.240 . S
O347 C345 1.279 . S
O348 Cd338 2.297 . S
O348 C343 1.247 . S
O349 Cd338 2.439 . S
O349 C343 1.208 . S
O350 Cd351 2.223 . S
O350 C358 1.315 . S
Cd351 O350 2.223 . S
Cd351 O354 2.297 . S
Cd351 O355 2.439 . S
Cd351 O361 2.240 . S
Cd352 O353 2.240 . S
Cd352 O360 2.223 . S
Cd352 O362 2.297 . S
Cd352 O363 2.439 . S
O353 Cd352 2.240 . S
O353 C358 1.279 . S
O354 Cd351 2.297 . S
O354 C356 1.247 . S
O355 Cd351 2.439 . S
O355 C356 1.208 . S
C356 O354 1.247 . S
C356 O355 1.208 . S
C357 O362 1.247 . S
C357 O363 1.208 . S
C358 O350 1.315 . S
C358 O353 1.279 . S
C359 O360 1.315 . S
C359 O361 1.279 . S
O360 Cd352 2.223 . S
O360 C359 1.315 . S
O361 Cd351 2.240 . S
O361 C359 1.279 . S
O362 Cd352 2.297 . S
O362 C357 1.247 . S
O363 Cd352 2.439 . S
O363 C357 1.208 . S
O364 Cd365 2.223 . S
O364 C372 1.315 . S
Cd365 O364 2.223 . S
Cd365 O368 2.297 . S
Cd365 O369 2.439 . S
Cd365 O375 2.240 . S
Cd366 O367 2.240 . S
Cd366 O374 2.223 . S
Cd366 O376 2.297 . S
Cd366 O377 2.439 . S
O367 Cd366 2.240 . S
O367 C372 1.279 . S
O368 Cd365 2.297 . S
O368 C370 1.247 . S
O369 Cd365 2.439 . S
O369 C370 1.208 . S
C370 O368 1.247 . S
C370 O369 1.208 . S
C371 O376 1.247 . S
C371 O377 1.208 . S
C372 O364 1.315 . S
C372 O367 1.279 . S
C373 O374 1.315 . S
C373 O375 1.279 . S
O374 Cd366 2.223 . S
O374 C373 1.315 . S
O375 Cd365 2.240 . S
O375 C373 1.279 . S
O376 Cd366 2.297 . S
O376 C371 1.247 . S
O377 Cd366 2.439 . S
O377 C371 1.208 . S
O378 Cd379 2.223 . S
O378 C386 1.315 . S
Cd379 O378 2.223 . S
Cd379 O382 2.297 . S
Cd379 O383 2.439 . S
Cd379 O389 2.240 . S
Cd380 O381 2.240 . S
Cd380 O388 2.223 . S
Cd380 O390 2.297 . S
Cd380 O391 2.439 . S
O381 Cd380 2.240 . S
O381 C386 1.279 . S
O382 Cd379 2.297 . S
O382 C384 1.247 . S
O383 Cd379 2.439 . S
O383 C384 1.208 . S
C384 O382 1.247 . S
C384 O383 1.208 . S
C385 O390 1.247 . S
C385 O391 1.208 . S
C386 O378 1.315 . S
C386 O381 1.279 . S
C387 O388 1.315 . S
C387 O389 1.279 . S
O388 Cd380 2.223 . S
O388 C387 1.315 . S
O389 Cd379 2.240 . S
O389 C387 1.279 . S
O390 Cd380 2.297 . S
O390 C385 1.247 . S
O391 Cd380 2.439 . S
O391 C385 1.208 . S
O392 Cd393 2.223 . S
O392 C400 1.315 . S
Cd393 O392 2.223 . S
Cd393 O396 2.297 . S
Cd393 O397 2.439 . S
Cd393 O403 2.240 . S
Cd394 O395 2.240 . S
Cd394 O402 2.223 . S
Cd394 O404 2.297 . S
Cd394 O405 2.439 . S
O395 Cd394 2.240 . S
O395 C400 1.279 . S
O396 Cd393 2.297 . S
O396 C398 1.247 . S
O397 Cd393 2.439 . S
O397 C398 1.208 . S
C398 O396 1.247 . S
C398 O397 1.208 . S
C399 O404 1.247 . S
C399 O405 1.208 . S
C400 O392 1.315 . S
C400 O395 1.279 . S
C401 O402 1.315 . S
C401 O403 1.279 . S
O402 Cd394 2.223 . S
O402 C401 1.315 . S
O403 Cd393 2.240 . S
O403 C401 1.279 . S
O404 Cd394 2.297 . S
O404 C399 1.247 . S
O405 Cd394 2.439 . S
O405 C399 1.208 . S
O406 Cd407 2.223 . S
O406 C414 1.315 . S
Cd407 O406 2.223 . S
Cd407 O410 2.297 . S
Cd407 O411 2.439 . S
Cd407 O417 2.240 . S
Cd408 O409 2.240 . S
Cd408 O416 2.223 . S
Cd408 O418 2.297 . S
Cd408 O419 2.439 . S
O409 Cd408 2.240 . S
O409 C414 1.279 . S
O410 Cd407 2.297 . S
O410 C412 1.247 . S
O411 Cd407 2.439 . S
O411 C412 1.208 . S
C412 O410 1.247 . S
C412 O411 1.208 . S
C413 O418 1.247 . S
C413 O419 1.208 . S
C414 O406 1.315 . S
C414 O409 1.279 . S
C415 O416 1.315 . S
C415 O417 1.279 . S
O416 Cd408 2.223 . S
O416 C415 1.315 . S
O417 Cd407 2.240 . S
O417 C415 1.279 . S
O418 Cd408 2.297 . S
O418 C413 1.247 . S
O419 Cd408 2.439 . S
O419 C413 1.208 . S
O420 Cd421 2.223 . S
O420 C428 1.315 . S
Cd421 O420 2.223 . S
Cd421 O424 2.297 . S
Cd421 O425 2.439 . S
Cd421 O431 2.240 . S
Cd422 O423 2.240 . S
Cd422 O430 2.223 . S
Cd422 O432 2.297 . S
Cd422 O433 2.439 . S
O423 Cd422 2.240 . S
O423 C428 1.279 . S
O424 Cd421 2.297 . S
O424 C426 1.247 . S
O425 Cd421 2.439 . S
O425 C426 1.208 . S
C426 O424 1.247 . S
C426 O425 1.208 . S
C427 O432 1.247 . S
C427 O433 1.208 . S
C428 O420 1.315 . S
C428 O423 1.279 . S
C429 O430 1.315 . S
C429 O431 1.279 . S
O430 Cd422 2.223 . S
O430 C429 1.315 . S
O431 Cd421 2.240 . S
O431 C429 1.279 . S
O432 Cd422 2.297 . S
O432 C427 1.247 . S
O433 Cd422 2.439 . S
O433 C427 1.208 . S
O434 Cd435 2.223 . S
O434 C442 1.315 . S
Cd435 O434 2.223 . S
Cd435 O438 2.297 . S
Cd435 O439 2.439 . S
Cd435 O445 2.240 . S
Cd436 O437 2.240 . S
Cd436 O444 2.223 . S
Cd436 O446 2.297 . S
Cd436 O447 2.439 . S
O437 Cd436 2.240 . S
O437 C442 1.279 . S
O438 Cd435 2.297 . S
O438 C440 1.247 . S
O439 Cd435 2.439 . S
O439 C440 1.208 . S
C440 O438 1.247 . S
C440 O439 1.208 . S
C441 O446 1.247 . S
C441 O447 1.208 . S
C442 O434 1.315 . S
C442 O437 1.279 . S
C443 O444 1.315 . S
C443 O445 1.279 . S
O444 Cd436 2.223 . S
O444 C443 1.315 . S
O445 Cd435 2.240 . S
O445 C443 1.279 . S
O446 Cd436 2.297 . S
O446 C441 1.247 . S
O447 Cd436 2.439 . S
O447 C441 1.208 . S
O448 Cd449 2.223 . S
O448 C456 1.315 . S
Cd449 O448 2.223 . S
Cd449 O452 2.297 . S
Cd449 O453 2.439 . S
Cd449 O459 2.240 . S
Cd450 O451 2.240 . S
Cd450 O458 2.223 . S
Cd450 O460 2.297 . S
Cd450 O461 2.439 . S
O451 Cd450 2.240 . S
O451 C456 1.279 . S
O452 Cd449 2.297 . S
O452 C454 1.247 . S
O453 Cd449 2.439 . S
O453 C454 1.208 . S
C454 O452 1.247 . S
C454 O453 1.208 . S
C455 O460 1.247 . S
C455 O461 1.208 . S
C456 O448 1.315 . S
C456 O451 1.279 . S
C457 O458 1.315 . S
C457 O459 1.279 . S
O458 Cd450 2.223 . S
O458 C457 1.315 . S
O459 Cd449 2.240 . S
O459 C457 1.279 . S
O460 Cd450 2.297 . S
O460 C455 1.247 . S
O461 Cd450 2.439 . S
O461 C455 1.208 . S
O462 Cd463 2.223 . S
O462 C470 1.315 . S
Cd463 O462 2.223 . S
Cd463 O466 2.297 . S
Cd463 O467 2.439 . S
Cd463 O473 2.240 . S
Cd464 O465 2.240 . S
Cd464 O472 2.223 . S
Cd464 O474 2.297 . S
Cd464 O475 2.439 . S
O465 Cd464 2.240 . S
O465 C470 1.279 . S
O466 Cd463 2.297 . S
O466 C468 1.247 . S
O467 Cd463 2.439 . S
O467 C468 1.208 . S
C468 O466 1.247 . S
C468 O467 1.208 . S
C469 O474 1.247 . S
C469 O475 1.208 . S
C470 O462 1.315 . S
C470 O465 1.279 . S
C471 O472 1.315 . S
C471 O473 1.279 . S
O472 Cd464 2.223 . S
O472 C471 1.315 . S
O473 Cd463 2.240 . S
O473 C471 1.279 . S
O474 Cd464 2.297 . S
O474 C469 1.247 . S
O475 Cd464 2.439 . S
O475 C469 1.208 . S
O476 Cd477 2.223 . S
O476 C484 1.315 . S
Cd477 O476 2.223 . S
Cd477 O480 2.297 . S
Cd477 O481 2.439 . S
Cd477 O487 2.240 . S
Cd478 O479 2.240 . S
Cd478 O486 2.223 . S
Cd478 O488 2.297 . S
Cd478 O489 2.439 . S
O479 Cd478 2.240 . S
O479 C484 1.279 . S
O480 Cd477 2.297 . S
O480 C482 1.247 . S
O481 Cd477 2.439 . S
O481 C482 1.208 . S
C482 O480 1.247 . S
C482 O481 1.208 . S
C483 O488 1.247 . S
C483 O489 1.208 . S
C484 O476 1.315 . S
C484 O479 1.279 . S
C485 O486 1.315 . S
C485 O487 1.279 . S
O486 Cd478 2.223 . S
O486 C485 1.315 . S
O487 Cd477 2.240 . S
O487 C485 1.279 . S
O488 Cd478 2.297 . S
O488 C483 1.247 . S
O489 Cd478 2.439 . S
O489 C483 1.208 . S
O490 Cd491 2.223 . S
O490 C498 1.315 . S
Cd491 O490 2.223 . S
Cd491 O494 2.297 . S
Cd491 O495 2.439 . S
Cd491 O501 2.240 . S
Cd492 O493 2.240 . S
Cd492 O500 2.223 . S
Cd492 O502 2.297 . S
Cd492 O503 2.439 . S
O493 Cd492 2.240 . S
O493 C498 1.279 . S
O494 Cd491 2.297 . S
O494 C496 1.247 . S
O495 Cd491 2.439 . S
O495 C496 1.208 . S
C496 O494 1.247 . S
C496 O495 1.208 . S
C497 O502 1.247 . S
C497 O503 1.208 . S
C498 O490 1.315 . S
C498 O493 1.279 . S
C499 O500 1.315 . S
C499 O501 1.279 . S
O500 Cd492 2.223 . S
O500 C499 1.315 . S
O501 Cd491 2.240 . S
O501 C499 1.279 . S
O502 Cd492 2.297 . S
O502 C497 1.247 . S
O503 Cd492 2.439 . S
O503 C497 1.208 . S
H504 C512 0.929 . S
H505 C514 0.930 . S
H506 C516 0.930 . S
H507 C519 0.929 . S
H508 C522 0.930 . S
H509 C524 0.960 . S
H510 C524 0.960 . S
H511 C524 0.960 . S
C512 H504 0.929 . S
C512 C513 1.377 . S
C512 C514 1.384 . S
C513 C512 1.377 . S
C513 C519 1.390 . S
C514 H505 0.930 . S
C514 C512 1.384 . S
C514 C515 1.372 . S
C515 C514 1.372 . S
C515 C516 1.400 . S
C515 C520 1.490 . S
C516 H506 0.930 . S
C516 C515 1.400 . S
C516 C519 1.386 . S
H517 C533 0.930 . S
H518 C534 0.931 . S
C519 H507 0.929 . S
C519 C513 1.390 . S
C519 C516 1.386 . S
C520 C515 1.490 . S
C520 C522 1.395 . S
C520 C523 1.403 . S
H521 C527 0.930 . S
C522 H508 0.930 . S
C522 C520 1.395 . S
C522 C525 1.403 1_455 S
C523 C520 1.403 . S
C523 C524 1.524 . S
C523 C527 1.400 1_455 S
C524 H509 0.960 . S
C524 H510 0.960 . S
C524 H511 0.960 . S
C524 C523 1.524 . S
C525 C522 1.403 1_655 S
C525 C526 1.392 . S
C525 C529 1.495 . S
C526 C525 1.392 . S
C526 C527 1.385 . S
C526 C528 1.478 . S
C527 H521 0.930 . S
C527 C523 1.400 1_655 S
C527 C526 1.385 . S
C528 C526 1.478 . S
C528 C530 1.381 . S
C528 C534 1.383 . S
C529 C525 1.495 . S
C529 H535 0.959 . S
C529 H536 0.961 . S
C529 H537 0.960 . S
C530 C528 1.381 . S
C530 C531 1.394 . S
C530 H538 0.930 . S
C531 C530 1.394 . S
C531 C532 1.383 . S
C531 H539 0.929 . S
C532 C531 1.383 . S
C532 C533 1.377 . S
C533 H517 0.930 . S
C533 C532 1.377 . S
C533 C534 1.379 . S
C534 H518 0.931 . S
C534 C528 1.383 . S
C534 C533 1.379 . S
H535 C529 0.959 . S
H536 C529 0.961 . S
H537 C529 0.960 . S
H538 C530 0.930 . S
H539 C531 0.929 . S
H540 C548 0.929 . S
H541 C550 0.930 . S
H542 C552 0.930 . S
H543 C555 0.929 . S
H544 C558 0.930 . S
H545 C560 0.960 . S
H546 C560 0.960 . S
H547 C560 0.960 . S
C548 H540 0.929 . S
C548 C549 1.377 . S
C548 C550 1.384 . S
C549 C548 1.377 . S
C549 C555 1.390 . S
C550 H541 0.930 . S
C550 C548 1.384 . S
C550 C551 1.372 . S
C551 C550 1.372 . S
C551 C552 1.400 . S
C551 C556 1.490 . S
C552 H542 0.930 . S
C552 C551 1.400 . S
C552 C555 1.386 . S
H553 C569 0.930 . S
H554 C570 0.931 . S
C555 H543 0.929 . S
C555 C549 1.390 . S
C555 C552 1.386 . S
C556 C551 1.490 . S
C556 C558 1.395 . S
C556 C559 1.403 . S
H557 C563 0.930 . S
C558 H544 0.930 . S
C558 C556 1.395 . S
C558 C561 1.403 . S
C559 C556 1.403 . S
C559 C560 1.524 . S
C559 C563 1.400 . S
C560 H545 0.960 . S
C560 H546 0.960 . S
C560 H547 0.960 . S
C560 C559 1.524 . S
C561 C558 1.403 . S
C561 C562 1.392 . S
C561 C565 1.495 . S
C562 C561 1.392 . S
C562 C563 1.385 . S
C562 C564 1.478 . S
C563 H557 0.930 . S
C563 C559 1.400 . S
C563 C562 1.385 . S
C564 C562 1.478 . S
C564 C566 1.381 . S
C564 C570 1.383 . S
C565 C561 1.495 . S
C565 H571 0.959 . S
C565 H572 0.961 . S
C565 H573 0.960 . S
C566 C564 1.381 . S
C566 C567 1.394 . S
C566 H574 0.930 . S
C567 C566 1.394 . S
C567 C568 1.383 . S
C567 H575 0.929 . S
C568 C567 1.383 . S
C568 C569 1.377 . S
C569 H553 0.930 . S
C569 C568 1.377 . S
C569 C570 1.379 . S
C570 H554 0.931 . S
C570 C564 1.383 . S
C570 C569 1.379 . S
H571 C565 0.959 . S
H572 C565 0.961 . S
H573 C565 0.960 . S
H574 C566 0.930 . S
H575 C567 0.929 . S
H576 C584 0.929 . S
H577 C586 0.930 . S
H578 C588 0.930 . S
H579 C591 0.929 . S
H580 C594 0.930 . S
H581 C596 0.960 . S
H582 C596 0.960 . S
H583 C596 0.960 . S
C584 H576 0.929 . S
C584 C585 1.377 . S
C584 C586 1.384 . S
C585 C584 1.377 . S
C585 C591 1.390 . S
C586 H577 0.930 . S
C586 C584 1.384 . S
C586 C587 1.372 . S
C587 C586 1.372 . S
C587 C588 1.400 . S
C587 C592 1.490 . S
C588 H578 0.930 . S
C588 C587 1.400 . S
C588 C591 1.386 . S
H589 C605 0.930 . S
H590 C606 0.931 . S
C591 H579 0.929 . S
C591 C585 1.390 . S
C591 C588 1.386 . S
C592 C587 1.490 . S
C592 C594 1.395 . S
C592 C595 1.403 . S
H593 C599 0.930 . S
C594 H580 0.930 . S
C594 C592 1.395 . S
C594 C597 1.403 1_545 S
C595 C592 1.403 . S
C595 C596 1.524 . S
C595 C599 1.400 1_545 S
C596 H581 0.960 . S
C596 H582 0.960 . S
C596 H583 0.960 . S
C596 C595 1.524 . S
C597 C594 1.403 1_565 S
C597 C598 1.392 . S
C597 C601 1.495 . S
C598 C597 1.392 . S
C598 C599 1.385 . S
C598 C600 1.478 . S
C599 H593 0.930 . S
C599 C595 1.400 1_565 S
C599 C598 1.385 . S
C600 C598 1.478 . S
C600 C602 1.381 . S
C600 C606 1.383 . S
C601 C597 1.495 . S
C601 H607 0.959 . S
C601 H608 0.961 . S
C601 H609 0.960 . S
C602 C600 1.381 . S
C602 C603 1.394 . S
C602 H610 0.930 . S
C603 C602 1.394 . S
C603 C604 1.383 . S
C603 H611 0.929 . S
C604 C603 1.383 . S
C604 C605 1.377 . S
C605 H589 0.930 . S
C605 C604 1.377 . S
C605 C606 1.379 . S
C606 H590 0.931 . S
C606 C600 1.383 . S
C606 C605 1.379 . S
H607 C601 0.959 . S
H608 C601 0.961 . S
H609 C601 0.960 . S
H610 C602 0.930 . S
H611 C603 0.929 . S
H612 C620 0.929 . S
H613 C622 0.930 . S
H614 C624 0.930 . S
H615 C627 0.929 . S
H616 C630 0.930 . S
H617 C632 0.960 . S
H618 C632 0.960 . S
H619 C632 0.960 . S
C620 H612 0.929 . S
C620 C621 1.377 . S
C620 C622 1.384 . S
C621 C620 1.377 . S
C621 C627 1.390 . S
C622 H613 0.930 . S
C622 C620 1.384 . S
C622 C623 1.372 . S
C623 C622 1.372 . S
C623 C624 1.400 . S
C623 C628 1.490 . S
C624 H614 0.930 . S
C624 C623 1.400 . S
C624 C627 1.386 . S
H625 C641 0.930 . S
H626 C642 0.931 . S
C627 H615 0.929 . S
C627 C621 1.390 . S
C627 C624 1.386 . S
C628 C623 1.490 . S
C628 C630 1.395 . S
C628 C631 1.403 . S
H629 C635 0.930 . S
C630 H616 0.930 . S
C630 C628 1.395 . S
C630 C633 1.411 . S
C631 C628 1.403 . S
C631 C632 1.524 . S
C631 C635 1.400 1_545 S
C632 H617 0.960 . S
C632 H618 0.960 . S
C632 H619 0.960 . S
C632 C631 1.524 . S
C633 C630 1.411 . S
C633 C634 1.388 1_545 S
C633 C637 1.492 1_545 S
C634 C633 1.388 1_565 S
C634 C635 1.385 . S
C634 C636 1.478 . S
C635 H629 0.930 . S
C635 C631 1.400 1_565 S
C635 C634 1.385 . S
C636 C634 1.478 . S
C636 C638 1.381 . S
C636 C642 1.383 . S
C637 C633 1.492 1_565 S
C637 H643 0.959 1_565 S
C637 H644 0.961 . S
C637 H645 0.960 . S
C638 C636 1.381 . S
C638 C639 1.394 . S
C638 H646 0.930 . S
C639 C638 1.394 . S
C639 C640 1.383 . S
C639 H647 0.929 . S
C640 C639 1.383 . S
C640 C641 1.377 . S
C641 H625 0.930 . S
C641 C640 1.377 . S
C641 C642 1.379 . S
C642 H626 0.931 . S
C642 C636 1.383 . S
C642 C641 1.379 . S
H643 C637 0.959 1_545 S
H644 C637 0.961 . S
H645 C637 0.960 . S
H646 C638 0.930 . S
H647 C639 0.929 . S
H648 C656 0.929 . S
H649 C658 0.930 . S
H650 C660 0.930 . S
H651 C663 0.929 . S
H652 C666 0.930 . S
H653 C668 0.960 . S
H654 C668 0.960 . S
H655 C668 0.960 . S
C656 H648 0.929 . S
C656 C657 1.377 . S
C656 C658 1.384 . S
C657 C656 1.377 . S
C657 C663 1.390 . S
C658 H649 0.930 . S
C658 C656 1.384 . S
C658 C659 1.372 . S
C659 C658 1.372 . S
C659 C660 1.400 . S
C659 C664 1.490 . S
C660 H650 0.930 . S
C660 C659 1.400 . S
C660 C663 1.386 . S
H661 C677 0.930 . S
H662 C678 0.931 . S
C663 H651 0.929 . S
C663 C657 1.390 . S
C663 C660 1.386 . S
C664 C659 1.490 . S
C664 C666 1.395 . S
C664 C667 1.403 . S
H665 C671 0.930 . S
C666 H652 0.930 . S
C666 C664 1.395 . S
C666 C669 1.387 1_655 S
C667 C664 1.403 . S
C667 C668 1.524 . S
C667 C671 1.400 1_655 S
C668 H653 0.960 . S
C668 H654 0.960 . S
C668 H655 0.960 . S
C668 C667 1.524 . S
C669 C666 1.387 1_455 S
C669 C670 1.395 . S
C669 C673 1.509 . S
C670 C669 1.395 . S
C670 C671 1.385 . S
C670 C672 1.478 . S
C671 H665 0.930 . S
C671 C667 1.400 1_455 S
C671 C670 1.385 . S
C672 C670 1.478 . S
C672 C674 1.381 . S
C672 C678 1.383 . S
C673 C669 1.509 . S
C673 H679 0.959 1_455 S
C673 H680 0.961 . S
C673 H681 0.960 . S
C674 C672 1.381 . S
C674 C675 1.394 . S
C674 H682 0.930 . S
C675 C674 1.394 . S
C675 C676 1.383 . S
C675 H683 0.929 . S
C676 C675 1.383 . S
C676 C677 1.377 . S
C677 H661 0.930 . S
C677 C676 1.377 . S
C677 C678 1.379 . S
C678 H662 0.931 . S
C678 C672 1.383 . S
C678 C677 1.379 . S
H679 C673 0.959 1_655 S
H680 C673 0.961 . S
H681 C673 0.960 . S
H682 C674 0.930 . S
H683 C675 0.929 . S
H684 C692 0.929 . S
H685 C694 0.930 . S
H686 C696 0.930 . S
H687 C699 0.929 . S
H688 C702 0.930 . S
H689 C704 0.960 . S
H690 C704 0.960 . S
H691 C704 0.960 . S
C692 H684 0.929 . S
C692 C693 1.377 . S
C692 C694 1.384 . S
C693 C692 1.377 . S
C693 C699 1.390 . S
C694 H685 0.930 . S
C694 C692 1.384 . S
C694 C695 1.372 . S
C695 C694 1.372 . S
C695 C696 1.400 . S
C695 C700 1.490 . S
C696 H686 0.930 . S
C696 C695 1.400 . S
C696 C699 1.386 . S
H697 C713 0.930 . S
H698 C714 0.931 . S
C699 H687 0.929 . S
C699 C693 1.390 . S
C699 C696 1.386 . S
C700 C695 1.490 . S
C700 C702 1.395 . S
C700 C703 1.403 . S
H701 C707 0.930 . S
C702 H688 0.930 . S
C702 C700 1.395 . S
C702 C705 1.403 . S
C703 C700 1.403 . S
C703 C704 1.524 . S
C703 C707 1.400 . S
C704 H689 0.960 . S
C704 H690 0.960 . S
C704 H691 0.960 . S
C704 C703 1.524 . S
C705 C702 1.403 . S
C705 C706 1.392 . S
C705 C709 1.495 . S
C706 C705 1.392 . S
C706 C707 1.385 . S
C706 C708 1.478 . S
C707 H701 0.930 . S
C707 C703 1.400 . S
C707 C706 1.385 . S
C708 C706 1.478 . S
C708 C710 1.381 . S
C708 C714 1.383 . S
C709 C705 1.495 . S
C709 H715 0.959 . S
C709 H716 0.961 . S
C709 H717 0.960 . S
C710 C708 1.381 . S
C710 C711 1.394 . S
C710 H718 0.930 . S
C711 C710 1.394 . S
C711 C712 1.383 . S
C711 H719 0.929 . S
C712 C711 1.383 . S
C712 C713 1.377 . S
C713 H697 0.930 . S
C713 C712 1.377 . S
C713 C714 1.379 . S
C714 H698 0.931 . S
C714 C708 1.383 . S
C714 C713 1.379 . S
H715 C709 0.959 . S
H716 C709 0.961 . S
H717 C709 0.960 . S
H718 C710 0.930 . S
H719 C711 0.929 . S
H720 C728 0.929 . S
H721 C730 0.930 . S
H722 C732 0.930 . S
H723 C735 0.929 . S
H724 C738 0.930 . S
H725 C740 0.960 . S
H726 C740 0.960 . S
H727 C740 0.960 . S
C728 H720 0.929 . S
C728 C729 1.377 . S
C728 C730 1.384 . S
C729 C728 1.377 . S
C729 C735 1.390 . S
C730 H721 0.930 . S
C730 C728 1.384 . S
C730 C731 1.372 . S
C731 C730 1.372 . S
C731 C732 1.400 . S
C731 C736 1.490 . S
C732 H722 0.930 . S
C732 C731 1.400 . S
C732 C735 1.386 . S
H733 C749 0.930 . S
H734 C750 0.931 . S
C735 H723 0.929 . S
C735 C729 1.390 . S
C735 C732 1.386 . S
C736 C731 1.490 . S
C736 C738 1.395 . S
C736 C739 1.403 . S
H737 C743 0.930 . S
C738 H724 0.930 . S
C738 C736 1.395 . S
C738 C741 1.403 1_655 S
C739 C736 1.403 . S
C739 C740 1.524 . S
C739 C743 1.400 1_655 S
C740 H725 0.960 . S
C740 H726 0.960 . S
C740 H727 0.960 . S
C740 C739 1.524 . S
C741 C738 1.403 1_455 S
C741 C742 1.392 . S
C741 C745 1.495 . S
C742 C741 1.392 . S
C742 C743 1.385 . S
C742 C744 1.478 . S
C743 H737 0.930 . S
C743 C739 1.400 1_455 S
C743 C742 1.385 . S
C744 C742 1.478 . S
C744 C746 1.381 . S
C744 C750 1.383 . S
C745 C741 1.495 . S
C745 H751 0.959 . S
C745 H752 0.961 . S
C745 H753 0.960 . S
C746 C744 1.381 . S
C746 C747 1.394 . S
C746 H754 0.930 . S
C747 C746 1.394 . S
C747 C748 1.383 . S
C747 H755 0.929 . S
C748 C747 1.383 . S
C748 C749 1.377 . S
C749 H733 0.930 . S
C749 C748 1.377 . S
C749 C750 1.379 . S
C750 H734 0.931 . S
C750 C744 1.383 . S
C750 C749 1.379 . S
H751 C745 0.959 . S
H752 C745 0.961 . S
H753 C745 0.960 . S
H754 C746 0.930 . S
H755 C747 0.929 . S
H756 C764 0.929 . S
H757 C766 0.930 . S
H758 C768 0.930 . S
H759 C771 0.929 . S
H760 C774 0.930 . S
H761 C776 0.960 . S
H762 C776 0.960 . S
H763 C776 0.960 . S
C764 H756 0.929 . S
C764 C765 1.377 . S
C764 C766 1.384 . S
C765 C764 1.377 . S
C765 C771 1.390 . S
C766 H757 0.930 . S
C766 C764 1.384 . S
C766 C767 1.372 . S
C767 C766 1.372 . S
C767 C768 1.400 . S
C767 C772 1.490 . S
C768 H758 0.930 . S
C768 C767 1.400 . S
C768 C771 1.386 . S
H769 C785 0.930 . S
H770 C786 0.931 . S
C771 H759 0.929 . S
C771 C765 1.390 . S
C771 C768 1.386 . S
C772 C767 1.490 . S
C772 C774 1.395 . S
C772 C775 1.403 . S
H773 C779 0.930 . S
C774 H760 0.930 . S
C774 C772 1.395 . S
C774 C777 1.403 . S
C775 C772 1.403 . S
C775 C776 1.524 . S
C775 C779 1.400 . S
C776 H761 0.960 . S
C776 H762 0.960 . S
C776 H763 0.960 . S
C776 C775 1.524 . S
C777 C774 1.403 . S
C777 C778 1.392 . S
C777 C781 1.495 . S
C778 C777 1.392 . S
C778 C779 1.385 . S
C778 C780 1.478 . S
C779 H773 0.930 . S
C779 C775 1.400 . S
C779 C778 1.385 . S
C780 C778 1.478 . S
C780 C782 1.381 . S
C780 C786 1.383 . S
C781 C777 1.495 . S
C781 H787 0.959 . S
C781 H788 0.961 . S
C781 H789 0.960 . S
C782 C780 1.381 . S
C782 C783 1.394 . S
C782 H790 0.930 . S
C783 C782 1.394 . S
C783 C784 1.383 . S
C783 H791 0.929 . S
C784 C783 1.383 . S
C784 C785 1.377 . S
C785 H769 0.930 . S
C785 C784 1.377 . S
C785 C786 1.379 . S
C786 H770 0.931 . S
C786 C780 1.383 . S
C786 C785 1.379 . S
H787 C781 0.959 . S
H788 C781 0.961 . S
H789 C781 0.960 . S
H790 C782 0.930 . S
H791 C783 0.929 . S
H792 C800 0.929 . S
H793 C802 0.930 . S
H794 C804 0.930 . S
H795 C807 0.929 . S
H796 C810 0.930 . S
H797 C812 0.916 1_545 S
H798 C812 0.960 . S
H799 C812 0.960 . S
C800 H792 0.929 . S
C800 C801 1.377 . S
C800 C802 1.384 . S
C801 C800 1.377 . S
C801 C807 1.390 . S
C802 H793 0.930 . S
C802 C800 1.384 . S
C802 C803 1.372 . S
C803 C802 1.372 . S
C803 C804 1.400 . S
C803 C808 1.490 . S
C804 H794 0.930 . S
C804 C803 1.400 . S
C804 C807 1.386 . S
H805 C821 0.930 . S
H806 C822 0.931 . S
C807 H795 0.929 . S
C807 C801 1.390 . S
C807 C804 1.386 . S
C808 C803 1.490 . S
C808 C810 1.395 . S
C808 C811 1.422 . S
H809 C815 0.930 . S
C810 H796 0.930 . S
C810 C808 1.395 . S
C810 C813 1.403 1_565 S
C811 C808 1.422 . S
C811 C812 1.522 . S
C811 C815 1.381 1_565 S
C812 H797 0.916 1_565 S
C812 H798 0.960 . S
C812 H799 0.960 . S
C812 C811 1.522 . S
C813 C810 1.403 1_545 S
C813 C814 1.392 . S
C813 C817 1.495 . S
C814 C813 1.392 . S
C814 C815 1.385 . S
C814 C816 1.478 . S
C815 H809 0.930 . S
C815 C811 1.381 1_545 S
C815 C814 1.385 . S
C816 C814 1.478 . S
C816 C818 1.381 . S
C816 C822 1.383 . S
C817 C813 1.495 . S
C817 H823 0.959 . S
C817 H824 0.961 . S
C817 H825 0.960 . S
C818 C816 1.381 . S
C818 C819 1.394 . S
C818 H826 0.930 . S
C819 C818 1.394 . S
C819 C820 1.383 . S
C819 H827 0.929 . S
C820 C819 1.383 . S
C820 C821 1.377 . S
C821 H805 0.930 . S
C821 C820 1.377 . S
C821 C822 1.379 . S
C822 H806 0.931 . S
C822 C816 1.383 . S
C822 C821 1.379 . S
H823 C817 0.959 . S
H824 C817 0.961 . S
H825 C817 0.960 . S
H826 C818 0.930 . S
H827 C819 0.929 . S
H828 C836 0.929 . S
H829 C838 0.930 . S
H830 C840 0.930 . S
H831 C843 0.929 . S
H832 C846 0.930 . S
H833 C848 0.960 1_565 S
H834 C848 0.960 . S
H835 C848 0.960 . S
C836 H828 0.929 . S
C836 C837 1.377 . S
C836 C838 1.384 . S
C837 C836 1.377 . S
C837 C843 1.390 . S
C838 H829 0.930 . S
C838 C836 1.384 . S
C838 C839 1.372 . S
C839 C838 1.372 . S
C839 C840 1.400 . S
C839 C844 1.490 . S
C840 H830 0.930 . S
C840 C839 1.400 . S
C840 C843 1.386 . S
H841 C857 0.930 . S
H842 C858 0.931 . S
C843 H831 0.929 . S
C843 C837 1.390 . S
C843 C840 1.386 . S
C844 C839 1.490 . S
C844 C846 1.395 . S
C844 C847 1.398 . S
H845 C851 0.930 . S
C846 H832 0.930 . S
C846 C844 1.395 . S
C846 C849 1.403 1_545 S
C847 C844 1.398 . S
C847 C848 1.524 . S
C847 C851 1.404 1_545 S
C848 H833 0.960 1_545 S
C848 H834 0.960 . S
C848 H835 0.960 . S
C848 C847 1.524 . S
C849 C846 1.403 1_565 S
C849 C850 1.392 . S
C849 C853 1.495 . S
C850 C849 1.392 . S
C850 C851 1.385 . S
C850 C852 1.478 . S
C851 H845 0.930 . S
C851 C847 1.404 1_565 S
C851 C850 1.385 . S
C852 C850 1.478 . S
C852 C854 1.381 . S
C852 C858 1.383 . S
C853 C849 1.495 . S
C853 H859 0.959 . S
C853 H860 0.961 . S
C853 H861 0.960 . S
C854 C852 1.381 . S
C854 C855 1.394 . S
C854 H862 0.930 . S
C855 C854 1.394 . S
C855 C856 1.383 . S
C855 H863 0.929 . S
C856 C855 1.383 . S
C856 C857 1.377 . S
C857 H841 0.930 . S
C857 C856 1.377 . S
C857 C858 1.379 . S
C858 H842 0.931 . S
C858 C852 1.383 . S
C858 C857 1.379 . S
H859 C853 0.959 . S
H860 C853 0.961 . S
H861 C853 0.960 . S
H862 C854 0.930 . S
H863 C855 0.929 . S
H864 C872 0.929 . S
H865 C874 0.930 . S
H866 C876 0.930 . S
H867 C879 0.929 . S
H868 C882 0.930 . S
H869 C884 0.960 . S
H870 C884 0.960 . S
H871 C884 0.960 . S
C872 H864 0.929 . S
C872 C873 1.377 . S
C872 C874 1.384 . S
C873 C872 1.377 . S
C873 C879 1.390 . S
C874 H865 0.930 . S
C874 C872 1.384 . S
C874 C875 1.372 . S
C875 C874 1.372 . S
C875 C876 1.400 . S
C875 C880 1.490 . S
C876 H866 0.930 . S
C876 C875 1.400 . S
C876 C879 1.386 . S
H877 C893 0.930 . S
H878 C894 0.931 . S
C879 H867 0.929 . S
C879 C873 1.390 . S
C879 C876 1.386 . S
C880 C875 1.490 . S
C880 C882 1.395 . S
C880 C883 1.403 . S
H881 C887 0.930 . S
C882 H868 0.930 . S
C882 C880 1.395 . S
C882 C885 1.403 1_455 S
C883 C880 1.403 . S
C883 C884 1.524 . S
C883 C887 1.400 1_455 S
C884 H869 0.960 . S
C884 H870 0.960 . S
C884 H871 0.960 . S
C884 C883 1.524 . S
C885 C882 1.403 1_655 S
C885 C886 1.392 . S
C885 C889 1.495 . S
C886 C885 1.392 . S
C886 C887 1.385 . S
C886 C888 1.478 . S
C887 H881 0.930 . S
C887 C883 1.400 1_655 S
C887 C886 1.385 . S
C888 C886 1.478 . S
C888 C890 1.381 . S
C888 C894 1.383 . S
C889 C885 1.495 . S
C889 H895 0.958 1_655 S
C889 H896 0.961 . S
C889 H897 0.960 . S
C890 C888 1.381 . S
C890 C891 1.394 . S
C890 H898 0.930 . S
C891 C890 1.394 . S
C891 C892 1.383 . S
C891 H899 0.929 . S
C892 C891 1.383 . S
C892 C893 1.377 . S
C893 H877 0.930 . S
C893 C892 1.377 . S
C893 C894 1.379 . S
C894 H878 0.931 . S
C894 C888 1.383 . S
C894 C893 1.379 . S
H895 C889 0.958 1_455 S
H896 C889 0.961 . S
H897 C889 0.960 . S
H898 C890 0.930 . S
H899 C891 0.929 . S
H900 C908 0.929 . S
H901 C910 0.930 . S
H902 C912 0.930 . S
H903 C915 0.929 . S
H904 C918 0.930 . S
H905 C920 0.960 . S
H906 C920 0.960 . S
H907 C920 0.960 . S
C908 H900 0.929 . S
C908 C909 1.377 . S
C908 C910 1.384 . S
C909 C908 1.377 . S
C909 C915 1.390 . S
C910 H901 0.930 . S
C910 C908 1.384 . S
C910 C911 1.372 . S
C911 C910 1.372 . S
C911 C912 1.400 . S
C911 C916 1.490 . S
C912 H902 0.930 . S
C912 C911 1.400 . S
C912 C915 1.386 . S
H913 C929 0.930 . S
H914 C930 0.931 . S
C915 H903 0.929 . S
C915 C909 1.390 . S
C915 C912 1.386 . S
C916 C911 1.490 . S
C916 C918 1.395 . S
C916 C919 1.403 . S
H917 C923 0.930 . S
C918 H904 0.930 . S
C918 C916 1.395 . S
C918 C921 1.403 . S
C919 C916 1.403 . S
C919 C920 1.524 . S
C919 C923 1.400 . S
C920 H905 0.960 . S
C920 H906 0.960 . S
C920 H907 0.960 . S
C920 C919 1.524 . S
C921 C918 1.403 . S
C921 C922 1.392 . S
C921 C925 1.495 . S
C922 C921 1.392 . S
C922 C923 1.385 . S
C922 C924 1.478 . S
C923 H917 0.930 . S
C923 C919 1.400 . S
C923 C922 1.385 . S
C924 C922 1.478 . S
C924 C926 1.381 . S
C924 C930 1.383 . S
C925 C921 1.495 . S
C925 H931 0.959 . S
C925 H932 0.961 . S
C925 H933 0.960 . S
C926 C924 1.381 . S
C926 C927 1.394 . S
C926 H934 0.930 . S
C927 C926 1.394 . S
C927 C928 1.383 . S
C927 H935 0.929 . S
C928 C927 1.383 . S
C928 C929 1.377 . S
C929 H913 0.930 . S
C929 C928 1.377 . S
C929 C930 1.379 . S
C930 H914 0.931 . S
C930 C924 1.383 . S
C930 C929 1.379 . S
H931 C925 0.959 . S
H932 C925 0.961 . S
H933 C925 0.960 . S
H934 C926 0.930 . S
H935 C927 0.929 . S
H936 C944 0.929 . S
H937 C946 0.930 . S
H938 C948 0.930 . S
H939 C951 0.929 . S
H940 C954 0.930 . S
H941 C956 0.960 . S
H942 C956 0.960 . S
H943 C956 0.960 . S
C944 H936 0.929 . S
C944 C945 1.377 . S
C944 C946 1.384 . S
C945 C944 1.377 . S
C945 C951 1.390 . S
C946 H937 0.930 . S
C946 C944 1.384 . S
C946 C947 1.372 . S
C947 C946 1.372 . S
C947 C948 1.400 . S
C947 C952 1.490 . S
C948 H938 0.930 . S
C948 C947 1.400 . S
C948 C951 1.386 . S
H949 C965 0.930 . S
H950 C966 0.931 . S
C951 H939 0.929 . S
C951 C945 1.390 . S
C951 C948 1.386 . S
C952 C947 1.490 . S
C952 C954 1.395 . S
C952 C955 1.403 . S
H953 C959 0.930 . S
C954 H940 0.930 . S
C954 C952 1.395 . S
C954 C957 1.403 . S
C955 C952 1.403 . S
C955 C956 1.524 . S
C955 C959 1.400 . S
C956 H941 0.960 . S
C956 H942 0.960 . S
C956 H943 0.960 . S
C956 C955 1.524 . S
C957 C954 1.403 . S
C957 C958 1.392 . S
C957 C961 1.495 . S
C958 C957 1.392 . S
C958 C959 1.385 . S
C958 C960 1.478 . S
C959 H953 0.930 . S
C959 C955 1.400 . S
C959 C958 1.385 . S
C960 C958 1.478 . S
C960 C962 1.381 . S
C960 C966 1.383 . S
C961 C957 1.495 . S
C961 H967 0.959 . S
C961 H968 0.961 . S
C961 H969 0.960 . S
C962 C960 1.381 . S
C962 C963 1.394 . S
C962 H970 0.930 . S
C963 C962 1.394 . S
C963 C964 1.383 . S
C963 H971 0.929 . S
C964 C963 1.383 . S
C964 C965 1.377 . S
C965 H949 0.930 . S
C965 C964 1.377 . S
C965 C966 1.379 . S
C966 H950 0.931 . S
C966 C960 1.383 . S
C966 C965 1.379 . S
H967 C961 0.959 . S
H968 C961 0.961 . S
H969 C961 0.960 . S
H970 C962 0.930 . S
H971 C963 0.929 . S
H972 C980 0.929 . S
H973 C982 0.930 . S
H974 C984 0.930 . S
H975 C987 0.929 . S
H976 C990 0.930 . S
H977 C992 0.960 . S
H978 C992 0.960 . S
H979 C992 0.960 . S
C980 H972 0.929 . S
C980 C981 1.377 . S
C980 C982 1.384 . S
C981 C980 1.377 . S
C981 C987 1.390 . S
C982 H973 0.930 . S
C982 C980 1.384 . S
C982 C983 1.372 . S
C983 C982 1.372 . S
C983 C984 1.400 . S
C983 C988 1.490 . S
C984 H974 0.930 . S
C984 C983 1.400 . S
C984 C987 1.386 . S
H985 C1001 0.930 . S
H986 C1002 0.931 . S
C987 H975 0.929 . S
C987 C981 1.390 . S
C987 C984 1.386 . S
C988 C983 1.490 . S
C988 C990 1.395 . S
C988 C991 1.403 . S
H989 C995 0.930 . S
C990 H976 0.930 . S
C990 C988 1.395 . S
C990 C993 1.403 . S
C991 C988 1.403 . S
C991 C992 1.524 . S
C991 C995 1.400 . S
C992 H977 0.960 . S
C992 H978 0.960 . S
C992 H979 0.960 . S
C992 C991 1.524 . S
C993 C990 1.403 . S
C993 C994 1.392 . S
C993 C997 1.495 . S
C994 C993 1.392 . S
C994 C995 1.385 . S
C994 C996 1.478 . S
C995 H989 0.930 . S
C995 C991 1.400 . S
C995 C994 1.385 . S
C996 C994 1.478 . S
C996 C998 1.381 . S
C996 C1002 1.383 . S
C997 C993 1.495 . S
C997 H1003 0.959 . S
C997 H1004 0.961 . S
C997 H1005 0.960 . S
C998 C996 1.381 . S
C998 C999 1.394 . S
C998 H1006 0.930 . S
C999 C998 1.394 . S
C999 C1000 1.383 . S
C999 H1007 0.929 . S
C1000 C999 1.383 . S
C1000 C1001 1.377 . S
C1001 H985 0.930 . S
C1001 C1000 1.377 . S
C1001 C1002 1.379 . S
C1002 H986 0.931 . S
C1002 C996 1.383 . S
C1002 C1001 1.379 . S
H1003 C997 0.959 . S
H1004 C997 0.961 . S
H1005 C997 0.960 . S
H1006 C998 0.930 . S
H1007 C999 0.929 . S
H1008 C1016 0.929 . S
H1009 C1018 0.930 . S
H1010 C1020 0.930 . S
H1011 C1023 0.929 . S
H1012 C1026 0.930 . S
H1013 C1028 0.960 . S
H1014 C1028 0.960 . S
H1015 C1028 0.960 . S
C1016 H1008 0.929 . S
C1016 C1017 1.377 . S
C1016 C1018 1.384 . S
C1017 C1016 1.377 . S
C1017 C1023 1.390 . S
C1018 H1009 0.930 . S
C1018 C1016 1.384 . S
C1018 C1019 1.372 . S
C1019 C1018 1.372 . S
C1019 C1020 1.400 . S
C1019 C1024 1.490 . S
C1020 H1010 0.930 . S
C1020 C1019 1.400 . S
C1020 C1023 1.386 . S
H1021 C1037 0.930 . S
H1022 C1038 0.931 . S
C1023 H1011 0.929 . S
C1023 C1017 1.390 . S
C1023 C1020 1.386 . S
C1024 C1019 1.490 . S
C1024 C1026 1.395 . S
C1024 C1027 1.403 . S
H1025 C1031 0.930 . S
C1026 H1012 0.930 . S
C1026 C1024 1.395 . S
C1026 C1029 1.403 . S
C1027 C1024 1.403 . S
C1027 C1028 1.524 . S
C1027 C1031 1.400 . S
C1028 H1013 0.960 . S
C1028 H1014 0.960 . S
C1028 H1015 0.960 . S
C1028 C1027 1.524 . S
C1029 C1026 1.403 . S
C1029 C1030 1.392 . S
C1029 C1033 1.495 . S
C1030 C1029 1.392 . S
C1030 C1031 1.385 . S
C1030 C1032 1.478 . S
C1031 H1025 0.930 . S
C1031 C1027 1.400 . S
C1031 C1030 1.385 . S
C1032 C1030 1.478 . S
C1032 C1034 1.381 . S
C1032 C1038 1.383 . S
C1033 C1029 1.495 . S
C1033 H1039 0.959 . S
C1033 H1040 0.961 . S
C1033 H1041 0.960 . S
C1034 C1032 1.381 . S
C1034 C1035 1.394 . S
C1034 H1042 0.930 . S
C1035 C1034 1.394 . S
C1035 C1036 1.383 . S
C1035 H1043 0.929 . S
C1036 C1035 1.383 . S
C1036 C1037 1.377 . S
C1037 H1021 0.930 . S
C1037 C1036 1.377 . S
C1037 C1038 1.379 . S
C1038 H1022 0.931 . S
C1038 C1032 1.383 . S
C1038 C1037 1.379 . S
H1039 C1033 0.959 . S
H1040 C1033 0.961 . S
H1041 C1033 0.960 . S
H1042 C1034 0.930 . S
H1043 C1035 0.929 . S
H1044 C1052 0.929 . S
H1045 C1054 0.930 . S
H1046 C1056 0.930 . S
H1047 C1059 0.929 . S
H1048 C1062 0.930 . S
H1049 C1064 0.960 . S
H1050 C1064 0.960 . S
H1051 C1064 0.960 . S
C1052 H1044 0.929 . S
C1052 C1053 1.377 . S
C1052 C1054 1.384 . S
C1053 C1052 1.377 . S
C1053 C1059 1.390 . S
C1054 H1045 0.930 . S
C1054 C1052 1.384 . S
C1054 C1055 1.372 . S
C1055 C1054 1.372 . S
C1055 C1056 1.400 . S
C1055 C1060 1.490 . S
C1056 H1046 0.930 . S
C1056 C1055 1.400 . S
C1056 C1059 1.386 . S
H1057 C1073 0.930 . S
H1058 C1074 0.931 . S
C1059 H1047 0.929 . S
C1059 C1053 1.390 . S
C1059 C1056 1.386 . S
C1060 C1055 1.490 . S
C1060 C1062 1.395 . S
C1060 C1063 1.403 . S
H1061 C1067 0.930 . S
C1062 H1048 0.930 . S
C1062 C1060 1.395 . S
C1062 C1065 1.403 . S
C1063 C1060 1.403 . S
C1063 C1064 1.524 . S
C1063 C1067 1.400 . S
C1064 H1049 0.960 . S
C1064 H1050 0.960 . S
C1064 H1051 0.960 . S
C1064 C1063 1.524 . S
C1065 C1062 1.403 . S
C1065 C1066 1.392 . S
C1065 C1069 1.495 . S
C1066 C1065 1.392 . S
C1066 C1067 1.385 . S
C1066 C1068 1.478 . S
C1067 H1061 0.930 . S
C1067 C1063 1.400 . S
C1067 C1066 1.385 . S
C1068 C1066 1.478 . S
C1068 C1070 1.381 . S
C1068 C1074 1.383 . S
C1069 C1065 1.495 . S
C1069 H1075 0.959 . S
C1069 H1076 0.961 . S
C1069 H1077 0.960 . S
C1070 C1068 1.381 . S
C1070 C1071 1.394 . S
C1070 H1078 0.930 . S
C1071 C1070 1.394 . S
C1071 C1072 1.383 . S
C1071 H1079 0.929 . S
C1072 C1071 1.383 . S
C1072 C1073 1.377 . S
C1073 H1057 0.930 . S
C1073 C1072 1.377 . S
C1073 C1074 1.379 . S
C1074 H1058 0.931 . S
C1074 C1068 1.383 . S
C1074 C1073 1.379 . S
H1075 C1069 0.959 . S
H1076 C1069 0.961 . S
H1077 C1069 0.960 . S
H1078 C1070 0.930 . S
H1079 C1071 0.929 . S
H1080 C1088 0.929 . S
H1081 C1090 0.930 . S
H1082 C1092 0.930 . S
H1083 C1095 0.929 . S
H1084 C1098 0.930 . S
H1085 C1100 0.960 . S
H1086 C1100 0.960 . S
H1087 C1100 0.960 . S
C1088 H1080 0.929 . S
C1088 C1089 1.377 . S
C1088 C1090 1.384 . S
C1089 C1088 1.377 . S
C1089 C1095 1.390 . S
C1090 H1081 0.930 . S
C1090 C1088 1.384 . S
C1090 C1091 1.372 . S
C1091 C1090 1.372 . S
C1091 C1092 1.400 . S
C1091 C1096 1.490 . S
C1092 H1082 0.930 . S
C1092 C1091 1.400 . S
C1092 C1095 1.386 . S
H1093 C1109 0.930 . S
H1094 C1110 0.931 . S
C1095 H1083 0.929 . S
C1095 C1089 1.390 . S
C1095 C1092 1.386 . S
C1096 C1091 1.490 . S
C1096 C1098 1.395 . S
C1096 C1099 1.403 . S
H1097 C1103 0.930 . S
C1098 H1084 0.930 . S
C1098 C1096 1.395 . S
C1098 C1101 1.403 . S
C1099 C1096 1.403 . S
C1099 C1100 1.524 . S
C1099 C1103 1.400 . S
C1100 H1085 0.960 . S
C1100 H1086 0.960 . S
C1100 H1087 0.960 . S
C1100 C1099 1.524 . S
C1101 C1098 1.403 . S
C1101 C1102 1.392 . S
C1101 C1105 1.495 . S
C1102 C1101 1.392 . S
C1102 C1103 1.385 . S
C1102 C1104 1.478 . S
C1103 H1097 0.930 . S
C1103 C1099 1.400 . S
C1103 C1102 1.385 . S
C1104 C1102 1.478 . S
C1104 C1106 1.381 . S
C1104 C1110 1.383 . S
C1105 C1101 1.495 . S
C1105 H1111 0.959 . S
C1105 H1112 0.961 . S
C1105 H1113 0.960 . S
C1106 C1104 1.381 . S
C1106 C1107 1.394 . S
C1106 H1114 0.930 . S
C1107 C1106 1.394 . S
C1107 C1108 1.383 . S
C1107 H1115 0.929 . S
C1108 C1107 1.383 . S
C1108 C1109 1.377 . S
C1109 H1093 0.930 . S
C1109 C1108 1.377 . S
C1109 C1110 1.379 . S
C1110 H1094 0.931 . S
C1110 C1104 1.383 . S
C1110 C1109 1.379 . S
H1111 C1105 0.959 . S
H1112 C1105 0.961 . S
H1113 C1105 0.960 . S
H1114 C1106 0.930 . S
H1115 C1107 0.929 . S
H1116 C1124 0.929 . S
H1117 C1126 0.930 . S
H1118 C1128 0.930 . S
H1119 C1131 0.929 . S
H1120 C1134 0.930 . S
H1121 C1136 0.960 . S
H1122 C1136 0.960 . S
H1123 C1136 0.960 . S
C1124 H1116 0.929 . S
C1124 C1125 1.377 . S
C1124 C1126 1.384 . S
C1125 C1124 1.377 . S
C1125 C1131 1.390 . S
C1126 H1117 0.930 . S
C1126 C1124 1.384 . S
C1126 C1127 1.372 . S
C1127 C1126 1.372 . S
C1127 C1128 1.400 . S
C1127 C1132 1.490 . S
C1128 H1118 0.930 . S
C1128 C1127 1.400 . S
C1128 C1131 1.386 . S
H1129 C1145 0.930 . S
H1130 C1146 0.931 . S
C1131 H1119 0.929 . S
C1131 C1125 1.390 . S
C1131 C1128 1.386 . S
C1132 C1127 1.490 . S
C1132 C1134 1.395 . S
C1132 C1135 1.403 . S
H1133 C1139 0.930 . S
C1134 H1120 0.930 . S
C1134 C1132 1.395 . S
C1134 C1137 1.403 . S
C1135 C1132 1.403 . S
C1135 C1136 1.524 . S
C1135 C1139 1.400 . S
C1136 H1121 0.960 . S
C1136 H1122 0.960 . S
C1136 H1123 0.960 . S
C1136 C1135 1.524 . S
C1137 C1134 1.403 . S
C1137 C1138 1.392 . S
C1137 C1141 1.495 . S
C1138 C1137 1.392 . S
C1138 C1139 1.385 . S
C1138 C1140 1.478 . S
C1139 H1133 0.930 . S
C1139 C1135 1.400 . S
C1139 C1138 1.385 . S
C1140 C1138 1.478 . S
C1140 C1142 1.381 . S
C1140 C1146 1.383 . S
C1141 C1137 1.495 . S
C1141 H1147 0.959 . S
C1141 H1148 0.961 . S
C1141 H1149 0.960 . S
C1142 C1140 1.381 . S
C1142 C1143 1.394 . S
C1142 H1150 0.930 . S
C1143 C1142 1.394 . S
C1143 C1144 1.383 . S
C1143 H1151 0.929 . S
C1144 C1143 1.383 . S
C1144 C1145 1.377 . S
C1145 H1129 0.930 . S
C1145 C1144 1.377 . S
C1145 C1146 1.379 . S
C1146 H1130 0.931 . S
C1146 C1140 1.383 . S
C1146 C1145 1.379 . S
H1147 C1141 0.959 . S
H1148 C1141 0.961 . S
H1149 C1141 0.960 . S
H1150 C1142 0.930 . S
H1151 C1143 0.929 . S
H1152 C1160 0.929 . S
H1153 C1162 0.930 . S
H1154 C1164 0.930 . S
H1155 C1167 0.929 . S
H1156 C1170 0.930 . S
H1157 C1172 0.960 . S
H1158 C1172 0.960 . S
H1159 C1172 0.960 . S
C1160 H1152 0.929 . S
C1160 C1161 1.377 . S
C1160 C1162 1.384 . S
C1161 C1160 1.377 . S
C1161 C1167 1.390 . S
C1162 H1153 0.930 . S
C1162 C1160 1.384 . S
C1162 C1163 1.372 . S
C1163 C1162 1.372 . S
C1163 C1164 1.400 . S
C1163 C1168 1.490 . S
C1164 H1154 0.930 . S
C1164 C1163 1.400 . S
C1164 C1167 1.386 . S
H1165 C1181 0.930 . S
H1166 C1182 0.931 . S
C1167 H1155 0.929 . S
C1167 C1161 1.390 . S
C1167 C1164 1.386 . S
C1168 C1163 1.490 . S
C1168 C1170 1.395 . S
C1168 C1171 1.403 . S
H1169 C1175 0.930 . S
C1170 H1156 0.930 . S
C1170 C1168 1.395 . S
C1170 C1173 1.403 . S
C1171 C1168 1.403 . S
C1171 C1172 1.524 . S
C1171 C1175 1.400 . S
C1172 H1157 0.960 . S
C1172 H1158 0.960 . S
C1172 H1159 0.960 . S
C1172 C1171 1.524 . S
C1173 C1170 1.403 . S
C1173 C1174 1.392 . S
C1173 C1177 1.495 . S
C1174 C1173 1.392 . S
C1174 C1175 1.385 . S
C1174 C1176 1.478 . S
C1175 H1169 0.930 . S
C1175 C1171 1.400 . S
C1175 C1174 1.385 . S
C1176 C1174 1.478 . S
C1176 C1178 1.381 . S
C1176 C1182 1.383 . S
C1177 C1173 1.495 . S
C1177 H1183 0.959 . S
C1177 H1184 0.961 . S
C1177 H1185 0.960 . S
C1178 C1176 1.381 . S
C1178 C1179 1.394 . S
C1178 H1186 0.930 . S
C1179 C1178 1.394 . S
C1179 C1180 1.383 . S
C1179 H1187 0.929 . S
C1180 C1179 1.383 . S
C1180 C1181 1.377 . S
C1181 H1165 0.930 . S
C1181 C1180 1.377 . S
C1181 C1182 1.379 . S
C1182 H1166 0.931 . S
C1182 C1176 1.383 . S
C1182 C1181 1.379 . S
H1183 C1177 0.959 . S
H1184 C1177 0.961 . S
H1185 C1177 0.960 . S
H1186 C1178 0.930 . S
H1187 C1179 0.929 . S
H1188 C1196 0.929 . S
H1189 C1198 0.930 . S
H1190 C1200 0.930 . S
H1191 C1203 0.929 . S
H1192 C1206 0.930 . S
H1193 C1208 0.960 . S
H1194 C1208 0.960 . S
H1195 C1208 0.960 . S
C1196 H1188 0.929 . S
C1196 C1197 1.377 . S
C1196 C1198 1.384 . S
C1197 C1196 1.377 . S
C1197 C1203 1.390 . S
C1198 H1189 0.930 . S
C1198 C1196 1.384 . S
C1198 C1199 1.372 . S
C1199 C1198 1.372 . S
C1199 C1200 1.400 . S
C1199 C1204 1.490 . S
C1200 H1190 0.930 . S
C1200 C1199 1.400 . S
C1200 C1203 1.386 . S
H1201 C1217 0.930 . S
H1202 C1218 0.931 . S
C1203 H1191 0.929 . S
C1203 C1197 1.390 . S
C1203 C1200 1.386 . S
C1204 C1199 1.490 . S
C1204 C1206 1.395 . S
C1204 C1207 1.403 . S
H1205 C1211 0.930 . S
C1206 H1192 0.930 . S
C1206 C1204 1.395 . S
C1206 C1209 1.403 . S
C1207 C1204 1.403 . S
C1207 C1208 1.524 . S
C1207 C1211 1.400 . S
C1208 H1193 0.960 . S
C1208 H1194 0.960 . S
C1208 H1195 0.960 . S
C1208 C1207 1.524 . S
C1209 C1206 1.403 . S
C1209 C1210 1.392 . S
C1209 C1213 1.495 . S
C1210 C1209 1.392 . S
C1210 C1211 1.385 . S
C1210 C1212 1.478 . S
C1211 H1205 0.930 . S
C1211 C1207 1.400 . S
C1211 C1210 1.385 . S
C1212 C1210 1.478 . S
C1212 C1214 1.381 . S
C1212 C1218 1.383 . S
C1213 C1209 1.495 . S
C1213 H1219 0.959 . S
C1213 H1220 0.961 . S
C1213 H1221 0.960 . S
C1214 C1212 1.381 . S
C1214 C1215 1.394 . S
C1214 H1222 0.930 . S
C1215 C1214 1.394 . S
C1215 C1216 1.383 . S
C1215 H1223 0.929 . S
C1216 C1215 1.383 . S
C1216 C1217 1.377 . S
C1217 H1201 0.930 . S
C1217 C1216 1.377 . S
C1217 C1218 1.379 . S
C1218 H1202 0.931 . S
C1218 C1212 1.383 . S
C1218 C1217 1.379 . S
H1219 C1213 0.959 . S
H1220 C1213 0.961 . S
H1221 C1213 0.960 . S
H1222 C1214 0.930 . S
H1223 C1215 0.929 . S
H1224 C1232 0.929 . S
H1225 C1234 0.930 . S
H1226 C1236 0.930 . S
H1227 C1239 0.929 . S
H1228 C1242 0.930 . S
H1229 C1244 0.960 . S
H1230 C1244 0.960 . S
H1231 C1244 0.960 . S
C1232 H1224 0.929 . S
C1232 C1233 1.377 . S
C1232 C1234 1.384 . S
C1233 C1232 1.377 . S
C1233 C1239 1.390 . S
C1234 H1225 0.930 . S
C1234 C1232 1.384 . S
C1234 C1235 1.372 . S
C1235 C1234 1.372 . S
C1235 C1236 1.400 . S
C1235 C1240 1.490 . S
C1236 H1226 0.930 . S
C1236 C1235 1.400 . S
C1236 C1239 1.386 . S
H1237 C1253 0.930 . S
H1238 C1254 0.931 . S
C1239 H1227 0.929 . S
C1239 C1233 1.390 . S
C1239 C1236 1.386 . S
C1240 C1235 1.490 . S
C1240 C1242 1.395 . S
C1240 C1243 1.403 . S
H1241 C1247 0.930 . S
C1242 H1228 0.930 . S
C1242 C1240 1.395 . S
C1242 C1245 1.403 . S
C1243 C1240 1.403 . S
C1243 C1244 1.524 . S
C1243 C1247 1.400 . S
C1244 H1229 0.960 . S
C1244 H1230 0.960 . S
C1244 H1231 0.960 . S
C1244 C1243 1.524 . S
C1245 C1242 1.403 . S
C1245 C1246 1.392 . S
C1245 C1249 1.495 . S
C1246 C1245 1.392 . S
C1246 C1247 1.385 . S
C1246 C1248 1.478 . S
C1247 H1241 0.930 . S
C1247 C1243 1.400 . S
C1247 C1246 1.385 . S
C1248 C1246 1.478 . S
C1248 C1250 1.381 . S
C1248 C1254 1.383 . S
C1249 C1245 1.495 . S
C1249 H1255 0.959 . S
C1249 H1256 0.961 . S
C1249 H1257 0.960 . S
C1250 C1248 1.381 . S
C1250 C1251 1.394 . S
C1250 H1258 0.930 . S
C1251 C1250 1.394 . S
C1251 C1252 1.383 . S
C1251 H1259 0.929 . S
C1252 C1251 1.383 . S
C1252 C1253 1.377 . S
C1253 H1237 0.930 . S
C1253 C1252 1.377 . S
C1253 C1254 1.379 . S
C1254 H1238 0.931 . S
C1254 C1248 1.383 . S
C1254 C1253 1.379 . S
H1255 C1249 0.959 . S
H1256 C1249 0.961 . S
H1257 C1249 0.960 . S
H1258 C1250 0.930 . S
H1259 C1251 0.929 . S
H1260 C1268 0.929 . S
H1261 C1270 0.930 . S
H1262 C1272 0.930 . S
H1263 C1275 0.929 . S
H1264 C1278 0.930 . S
H1265 C1280 0.960 . S
H1266 C1280 0.960 . S
H1267 C1280 0.960 . S
C1268 H1260 0.929 . S
C1268 C1269 1.377 . S
C1268 C1270 1.384 . S
C1269 C1268 1.377 . S
C1269 C1275 1.390 . S
C1270 H1261 0.930 . S
C1270 C1268 1.384 . S
C1270 C1271 1.372 . S
C1271 C1270 1.372 . S
C1271 C1272 1.400 . S
C1271 C1276 1.490 . S
C1272 H1262 0.930 . S
C1272 C1271 1.400 . S
C1272 C1275 1.386 . S
H1273 C1289 0.930 . S
H1274 C1290 0.931 . S
C1275 H1263 0.929 . S
C1275 C1269 1.390 . S
C1275 C1272 1.386 . S
C1276 C1271 1.490 . S
C1276 C1278 1.395 . S
C1276 C1279 1.403 . S
H1277 C1283 0.930 . S
C1278 H1264 0.930 . S
C1278 C1276 1.395 . S
C1278 C1281 1.403 . S
C1279 C1276 1.403 . S
C1279 C1280 1.524 . S
C1279 C1283 1.400 . S
C1280 H1265 0.960 . S
C1280 H1266 0.960 . S
C1280 H1267 0.960 . S
C1280 C1279 1.524 . S
C1281 C1278 1.403 . S
C1281 C1282 1.392 . S
C1281 C1285 1.495 . S
C1282 C1281 1.392 . S
C1282 C1283 1.385 . S
C1282 C1284 1.478 . S
C1283 H1277 0.930 . S
C1283 C1279 1.400 . S
C1283 C1282 1.385 . S
C1284 C1282 1.478 . S
C1284 C1286 1.381 . S
C1284 C1290 1.383 . S
C1285 C1281 1.495 . S
C1285 H1291 0.959 . S
C1285 H1292 0.961 . S
C1285 H1293 0.960 . S
C1286 C1284 1.381 . S
C1286 C1287 1.394 . S
C1286 H1294 0.930 . S
C1287 C1286 1.394 . S
C1287 C1288 1.383 . S
C1287 H1295 0.929 . S
C1288 C1287 1.383 . S
C1288 C1289 1.377 . S
C1289 H1273 0.930 . S
C1289 C1288 1.377 . S
C1289 C1290 1.379 . S
C1290 H1274 0.931 . S
C1290 C1284 1.383 . S
C1290 C1289 1.379 . S
H1291 C1285 0.959 . S
H1292 C1285 0.961 . S
H1293 C1285 0.960 . S
H1294 C1286 0.930 . S
H1295 C1287 0.929 . S
H1296 C1304 0.929 . S
H1297 C1306 0.930 . S
H1298 C1308 0.930 . S
H1299 C1311 0.929 . S
H1300 C1314 0.930 . S
H1301 C1316 0.960 . S
H1302 C1316 0.960 . S
H1303 C1316 0.960 . S
C1304 H1296 0.929 . S
C1304 C1305 1.377 . S
C1304 C1306 1.384 . S
C1305 C1304 1.377 . S
C1305 C1311 1.390 . S
C1306 H1297 0.930 . S
C1306 C1304 1.384 . S
C1306 C1307 1.372 . S
C1307 C1306 1.372 . S
C1307 C1308 1.400 . S
C1307 C1312 1.490 . S
C1308 H1298 0.930 . S
C1308 C1307 1.400 . S
C1308 C1311 1.386 . S
H1309 C1325 0.930 . S
H1310 C1326 0.931 . S
C1311 H1299 0.929 . S
C1311 C1305 1.390 . S
C1311 C1308 1.386 . S
C1312 C1307 1.490 . S
C1312 C1314 1.395 . S
C1312 C1315 1.403 . S
H1313 C1319 0.930 . S
C1314 H1300 0.930 . S
C1314 C1312 1.395 . S
C1314 C1317 1.403 . S
C1315 C1312 1.403 . S
C1315 C1316 1.524 . S
C1315 C1319 1.400 . S
C1316 H1301 0.960 . S
C1316 H1302 0.960 . S
C1316 H1303 0.960 . S
C1316 C1315 1.524 . S
C1317 C1314 1.403 . S
C1317 C1318 1.392 . S
C1317 C1321 1.495 . S
C1318 C1317 1.392 . S
C1318 C1319 1.385 . S
C1318 C1320 1.478 . S
C1319 H1313 0.930 . S
C1319 C1315 1.400 . S
C1319 C1318 1.385 . S
C1320 C1318 1.478 . S
C1320 C1322 1.381 . S
C1320 C1326 1.383 . S
C1321 C1317 1.495 . S
C1321 H1327 0.959 . S
C1321 H1328 0.961 . S
C1321 H1329 0.960 . S
C1322 C1320 1.381 . S
C1322 C1323 1.394 . S
C1322 H1330 0.930 . S
C1323 C1322 1.394 . S
C1323 C1324 1.383 . S
C1323 H1331 0.929 . S
C1324 C1323 1.383 . S
C1324 C1325 1.377 . S
C1325 H1309 0.930 . S
C1325 C1324 1.377 . S
C1325 C1326 1.379 . S
C1326 H1310 0.931 . S
C1326 C1320 1.383 . S
C1326 C1325 1.379 . S
H1327 C1321 0.959 . S
H1328 C1321 0.961 . S
H1329 C1321 0.960 . S
H1330 C1322 0.930 . S
H1331 C1323 0.929 . S
H1332 C1340 0.929 . S
H1333 C1342 0.930 . S
H1334 C1344 0.930 . S
H1335 C1347 0.929 . S
H1336 C1350 0.930 . S
H1337 C1352 0.960 . S
H1338 C1352 0.960 . S
H1339 C1352 0.960 . S
C1340 H1332 0.929 . S
C1340 C1341 1.377 . S
C1340 C1342 1.384 . S
C1341 C1340 1.377 . S
C1341 C1347 1.390 . S
C1342 H1333 0.930 . S
C1342 C1340 1.384 . S
C1342 C1343 1.372 . S
C1343 C1342 1.372 . S
C1343 C1344 1.400 . S
C1343 C1348 1.490 . S
C1344 H1334 0.930 . S
C1344 C1343 1.400 . S
C1344 C1347 1.386 . S
H1345 C1361 0.930 . S
H1346 C1362 0.931 . S
C1347 H1335 0.929 . S
C1347 C1341 1.390 . S
C1347 C1344 1.386 . S
C1348 C1343 1.490 . S
C1348 C1350 1.395 . S
C1348 C1351 1.403 . S
H1349 C1355 0.930 . S
C1350 H1336 0.930 . S
C1350 C1348 1.395 . S
C1350 C1353 1.403 . S
C1351 C1348 1.403 . S
C1351 C1352 1.524 . S
C1351 C1355 1.400 . S
C1352 H1337 0.960 . S
C1352 H1338 0.960 . S
C1352 H1339 0.960 . S
C1352 C1351 1.524 . S
C1353 C1350 1.403 . S
C1353 C1354 1.392 . S
C1353 C1357 1.495 . S
C1354 C1353 1.392 . S
C1354 C1355 1.385 . S
C1354 C1356 1.478 . S
C1355 H1349 0.930 . S
C1355 C1351 1.400 . S
C1355 C1354 1.385 . S
C1356 C1354 1.478 . S
C1356 C1358 1.381 . S
C1356 C1362 1.383 . S
C1357 C1353 1.495 . S
C1357 H1363 0.959 . S
C1357 H1364 0.961 . S
C1357 H1365 0.960 . S
C1358 C1356 1.381 . S
C1358 C1359 1.394 . S
C1358 H1366 0.930 . S
C1359 C1358 1.394 . S
C1359 C1360 1.383 . S
C1359 H1367 0.929 . S
C1360 C1359 1.383 . S
C1360 C1361 1.377 . S
C1361 H1345 0.930 . S
C1361 C1360 1.377 . S
C1361 C1362 1.379 . S
C1362 H1346 0.931 . S
C1362 C1356 1.383 . S
C1362 C1361 1.379 . S
H1363 C1357 0.959 . S
H1364 C1357 0.961 . S
H1365 C1357 0.960 . S
H1366 C1358 0.930 . S
H1367 C1359 0.929 . S
H1368 C1376 0.929 . S
H1369 C1378 0.930 . S
H1370 C1380 0.930 . S
H1371 C1383 0.929 . S
H1372 C1386 0.930 . S
H1373 C1388 0.960 . S
H1374 C1388 0.960 . S
H1375 C1388 0.960 . S
C1376 H1368 0.929 . S
C1376 C1377 1.377 . S
C1376 C1378 1.384 . S
C1377 C1376 1.377 . S
C1377 C1383 1.390 . S
C1378 H1369 0.930 . S
C1378 C1376 1.384 . S
C1378 C1379 1.372 . S
C1379 C1378 1.372 . S
C1379 C1380 1.400 . S
C1379 C1384 1.490 . S
C1380 H1370 0.930 . S
C1380 C1379 1.400 . S
C1380 C1383 1.386 . S
H1381 C1397 0.930 . S
H1382 C1398 0.931 . S
C1383 H1371 0.929 . S
C1383 C1377 1.390 . S
C1383 C1380 1.386 . S
C1384 C1379 1.490 . S
C1384 C1386 1.395 . S
C1384 C1387 1.403 . S
H1385 C1391 0.930 . S
C1386 H1372 0.930 . S
C1386 C1384 1.395 . S
C1386 C1389 1.403 . S
C1387 C1384 1.403 . S
C1387 C1388 1.524 . S
C1387 C1391 1.400 . S
C1388 H1373 0.960 . S
C1388 H1374 0.960 . S
C1388 H1375 0.960 . S
C1388 C1387 1.524 . S
C1389 C1386 1.403 . S
C1389 C1390 1.392 . S
C1389 C1393 1.495 . S
C1390 C1389 1.392 . S
C1390 C1391 1.385 . S
C1390 C1392 1.478 . S
C1391 H1385 0.930 . S
C1391 C1387 1.400 . S
C1391 C1390 1.385 . S
C1392 C1390 1.478 . S
C1392 C1394 1.381 . S
C1392 C1398 1.383 . S
C1393 C1389 1.495 . S
C1393 H1399 0.959 . S
C1393 H1400 0.961 . S
C1393 H1401 0.960 . S
C1394 C1392 1.381 . S
C1394 C1395 1.394 . S
C1394 H1402 0.930 . S
C1395 C1394 1.394 . S
C1395 C1396 1.383 . S
C1395 H1403 0.929 . S
C1396 C1395 1.383 . S
C1396 C1397 1.377 . S
C1397 H1381 0.930 . S
C1397 C1396 1.377 . S
C1397 C1398 1.379 . S
C1398 H1382 0.931 . S
C1398 C1392 1.383 . S
C1398 C1397 1.379 . S
H1399 C1393 0.959 . S
H1400 C1393 0.961 . S
H1401 C1393 0.960 . S
H1402 C1394 0.930 . S
H1403 C1395 0.929 . S
H1404 C1412 0.929 . S
H1405 C1414 0.930 . S
H1406 C1416 0.930 . S
H1407 C1419 0.929 . S
H1408 C1422 0.930 . S
H1409 C1424 0.960 . S
H1410 C1424 0.960 . S
H1411 C1424 0.960 . S
C1412 H1404 0.929 . S
C1412 C1413 1.377 . S
C1412 C1414 1.384 . S
C1413 C1412 1.377 . S
C1413 C1419 1.390 . S
C1414 H1405 0.930 . S
C1414 C1412 1.384 . S
C1414 C1415 1.372 . S
C1415 C1414 1.372 . S
C1415 C1416 1.400 . S
C1415 C1420 1.490 . S
C1416 H1406 0.930 . S
C1416 C1415 1.400 . S
C1416 C1419 1.386 . S
H1417 C1433 0.930 . S
H1418 C1434 0.931 . S
C1419 H1407 0.929 . S
C1419 C1413 1.390 . S
C1419 C1416 1.386 . S
C1420 C1415 1.490 . S
C1420 C1422 1.395 . S
C1420 C1423 1.403 . S
H1421 C1427 0.930 . S
C1422 H1408 0.930 . S
C1422 C1420 1.395 . S
C1422 C1425 1.403 . S
C1423 C1420 1.403 . S
C1423 C1424 1.524 . S
C1423 C1427 1.400 . S
C1424 H1409 0.960 . S
C1424 H1410 0.960 . S
C1424 H1411 0.960 . S
C1424 C1423 1.524 . S
C1425 C1422 1.403 . S
C1425 C1426 1.392 . S
C1425 C1429 1.495 . S
C1426 C1425 1.392 . S
C1426 C1427 1.385 . S
C1426 C1428 1.478 . S
C1427 H1421 0.930 . S
C1427 C1423 1.400 . S
C1427 C1426 1.385 . S
C1428 C1426 1.478 . S
C1428 C1430 1.381 . S
C1428 C1434 1.383 . S
C1429 C1425 1.495 . S
C1429 H1435 0.959 . S
C1429 H1436 0.961 . S
C1429 H1437 0.960 . S
C1430 C1428 1.381 . S
C1430 C1431 1.394 . S
C1430 H1438 0.930 . S
C1431 C1430 1.394 . S
C1431 C1432 1.383 . S
C1431 H1439 0.929 . S
C1432 C1431 1.383 . S
C1432 C1433 1.377 . S
C1433 H1417 0.930 . S
C1433 C1432 1.377 . S
C1433 C1434 1.379 . S
C1434 H1418 0.931 . S
C1434 C1428 1.383 . S
C1434 C1433 1.379 . S
H1435 C1429 0.959 . S
H1436 C1429 0.961 . S
H1437 C1429 0.960 . S
H1438 C1430 0.930 . S
H1439 C1431 0.929 . S
H1440 C1448 0.929 . S
H1441 C1450 0.930 . S
H1442 C1452 0.930 . S
H1443 C1455 0.929 . S
H1444 C1458 0.930 . S
H1445 C1460 0.960 . S
H1446 C1460 0.960 . S
H1447 C1460 0.960 . S
C1448 H1440 0.929 . S
C1448 C1449 1.377 . S
C1448 C1450 1.384 . S
C1449 C1448 1.377 . S
C1449 C1455 1.390 . S
C1450 H1441 0.930 . S
C1450 C1448 1.384 . S
C1450 C1451 1.372 . S
C1451 C1450 1.372 . S
C1451 C1452 1.400 . S
C1451 C1456 1.490 . S
C1452 H1442 0.930 . S
C1452 C1451 1.400 . S
C1452 C1455 1.386 . S
H1453 C1469 0.930 . S
H1454 C1470 0.931 . S
C1455 H1443 0.929 . S
C1455 C1449 1.390 . S
C1455 C1452 1.386 . S
C1456 C1451 1.490 . S
C1456 C1458 1.395 . S
C1456 C1459 1.403 . S
H1457 C1463 0.930 . S
C1458 H1444 0.930 . S
C1458 C1456 1.395 . S
C1458 C1461 1.403 . S
C1459 C1456 1.403 . S
C1459 C1460 1.524 . S
C1459 C1463 1.400 . S
C1460 H1445 0.960 . S
C1460 H1446 0.960 . S
C1460 H1447 0.960 . S
C1460 C1459 1.524 . S
C1461 C1458 1.403 . S
C1461 C1462 1.392 . S
C1461 C1465 1.495 . S
C1462 C1461 1.392 . S
C1462 C1463 1.385 . S
C1462 C1464 1.478 . S
C1463 H1457 0.930 . S
C1463 C1459 1.400 . S
C1463 C1462 1.385 . S
C1464 C1462 1.478 . S
C1464 C1466 1.381 . S
C1464 C1470 1.383 . S
C1465 C1461 1.495 . S
C1465 H1471 0.959 . S
C1465 H1472 0.961 . S
C1465 H1473 0.960 . S
C1466 C1464 1.381 . S
C1466 C1467 1.394 . S
C1466 H1474 0.930 . S
C1467 C1466 1.394 . S
C1467 C1468 1.383 . S
C1467 H1475 0.929 . S
C1468 C1467 1.383 . S
C1468 C1469 1.377 . S
C1469 H1453 0.930 . S
C1469 C1468 1.377 . S
C1469 C1470 1.379 . S
C1470 H1454 0.931 . S
C1470 C1464 1.383 . S
C1470 C1469 1.379 . S
H1471 C1465 0.959 . S
H1472 C1465 0.961 . S
H1473 C1465 0.960 . S
H1474 C1466 0.930 . S
H1475 C1467 0.929 . S
H1476 C1484 0.929 . S
H1477 C1486 0.930 . S
H1478 C1488 0.930 . S
H1479 C1491 0.929 . S
H1480 C1494 0.930 . S
H1481 C1496 0.960 1_554 S
H1482 C1496 0.960 . S
H1483 C1496 0.986 . S
C1484 H1476 0.929 . S
C1484 C1485 1.377 . S
C1484 C1486 1.384 . S
C1485 C1484 1.377 . S
C1485 C1491 1.390 . S
C1486 H1477 0.930 . S
C1486 C1484 1.384 . S
C1486 C1487 1.372 . S
C1487 C1486 1.372 . S
C1487 C1488 1.400 . S
C1487 C1492 1.490 . S
C1488 H1478 0.930 . S
C1488 C1487 1.400 . S
C1488 C1491 1.386 . S
H1489 C1505 0.930 . S
H1490 C1506 0.931 . S
C1491 H1479 0.929 . S
C1491 C1485 1.390 . S
C1491 C1488 1.386 . S
C1492 C1487 1.490 . S
C1492 C1494 1.395 . S
C1492 C1495 1.403 . S
H1493 C1499 0.930 . S
C1494 H1480 0.930 . S
C1494 C1492 1.395 . S
C1494 C1497 1.403 . S
C1495 C1492 1.403 . S
C1495 C1496 1.524 . S
C1495 C1499 1.400 . S
C1496 H1481 0.960 1_556 S
C1496 H1482 0.960 . S
C1496 H1483 0.986 . S
C1496 C1495 1.524 . S
C1497 C1494 1.403 . S
C1497 C1498 1.392 . S
C1497 C1501 1.495 . S
C1498 C1497 1.392 . S
C1498 C1499 1.385 . S
C1498 C1500 1.478 . S
C1499 H1493 0.930 . S
C1499 C1495 1.400 . S
C1499 C1498 1.385 . S
C1500 C1498 1.478 . S
C1500 C1502 1.381 . S
C1500 C1506 1.383 . S
C1501 C1497 1.495 . S
C1501 H1507 0.959 . S
C1501 H1508 0.961 . S
C1501 H1509 0.960 . S
C1502 C1500 1.381 . S
C1502 C1503 1.394 . S
C1502 H1510 0.930 . S
C1503 C1502 1.394 . S
C1503 C1504 1.383 . S
C1503 H1511 0.929 . S
C1504 C1503 1.383 . S
C1504 C1505 1.377 . S
C1505 H1489 0.930 . S
C1505 C1504 1.377 . S
C1505 C1506 1.379 . S
C1506 H1490 0.931 . S
C1506 C1500 1.383 . S
C1506 C1505 1.379 . S
H1507 C1501 0.959 . S
H1508 C1501 0.961 . S
H1509 C1501 0.960 . S
H1510 C1502 0.930 . S
H1511 C1503 0.929 . S
H1512 C1520 0.929 . S
H1513 C1522 0.930 . S
H1514 C1524 0.930 . S
H1515 C1527 0.929 . S
H1516 C1530 0.930 . S
H1517 C1532 0.960 . S
H1518 C1532 0.960 . S
H1519 C1532 0.960 . S
C1520 H1512 0.929 . S
C1520 C1521 1.377 . S
C1520 C1522 1.384 . S
C1521 C1520 1.377 . S
C1521 C1527 1.390 . S
C1522 H1513 0.930 . S
C1522 C1520 1.384 . S
C1522 C1523 1.372 . S
C1523 C1522 1.372 . S
C1523 C1524 1.400 . S
C1523 C1528 1.490 . S
C1524 H1514 0.930 . S
C1524 C1523 1.400 . S
C1524 C1527 1.386 . S
H1525 C1541 0.930 . S
H1526 C1542 0.931 . S
C1527 H1515 0.929 . S
C1527 C1521 1.390 . S
C1527 C1524 1.386 . S
C1528 C1523 1.490 . S
C1528 C1530 1.395 . S
C1528 C1531 1.403 . S
H1529 C1535 0.930 . S
C1530 H1516 0.930 . S
C1530 C1528 1.395 . S
C1530 C1533 1.403 . S
C1531 C1528 1.403 . S
C1531 C1532 1.524 . S
C1531 C1535 1.400 . S
C1532 H1517 0.960 . S
C1532 H1518 0.960 . S
C1532 H1519 0.960 . S
C1532 C1531 1.524 . S
C1533 C1530 1.403 . S
C1533 C1534 1.392 . S
C1533 C1537 1.495 . S
C1534 C1533 1.392 . S
C1534 C1535 1.385 . S
C1534 C1536 1.478 . S
C1535 H1529 0.930 . S
C1535 C1531 1.400 . S
C1535 C1534 1.385 . S
C1536 C1534 1.478 . S
C1536 C1538 1.381 . S
C1536 C1542 1.383 . S
C1537 C1533 1.495 . S
C1537 H1543 0.959 . S
C1537 H1544 0.961 . S
C1537 H1545 0.960 . S
C1538 C1536 1.381 . S
C1538 C1539 1.394 . S
C1538 H1546 0.930 . S
C1539 C1538 1.394 . S
C1539 C1540 1.383 . S
C1539 H1547 0.929 . S
C1540 C1539 1.383 . S
C1540 C1541 1.377 . S
C1541 H1525 0.930 . S
C1541 C1540 1.377 . S
C1541 C1542 1.379 . S
C1542 H1526 0.931 . S
C1542 C1536 1.383 . S
C1542 C1541 1.379 . S
H1543 C1537 0.959 . S
H1544 C1537 0.961 . S
H1545 C1537 0.960 . S
H1546 C1538 0.930 . S
H1547 C1539 0.929 . S
H1548 C1556 0.929 . S
H1549 C1558 0.930 . S
H1550 C1560 0.930 . S
H1551 C1563 0.929 . S
H1552 C1566 0.930 . S
H1553 C1568 0.960 . S
H1554 C1568 0.960 . S
H1555 C1568 0.960 . S
C1556 H1548 0.929 . S
C1556 C1557 1.377 . S
C1556 C1558 1.384 . S
C1557 C1556 1.377 . S
C1557 C1563 1.390 . S
C1558 H1549 0.930 . S
C1558 C1556 1.384 . S
C1558 C1559 1.372 . S
C1559 C1558 1.372 . S
C1559 C1560 1.400 . S
C1559 C1564 1.490 . S
C1560 H1550 0.930 . S
C1560 C1559 1.400 . S
C1560 C1563 1.386 . S
H1561 C1577 0.930 . S
H1562 C1578 0.931 . S
C1563 H1551 0.929 . S
C1563 C1557 1.390 . S
C1563 C1560 1.386 . S
C1564 C1559 1.490 . S
C1564 C1566 1.395 . S
C1564 C1567 1.403 . S
H1565 C1571 0.930 . S
C1566 H1552 0.930 . S
C1566 C1564 1.395 . S
C1566 C1569 1.403 . S
C1567 C1564 1.403 . S
C1567 C1568 1.524 . S
C1567 C1571 1.400 . S
C1568 H1553 0.960 . S
C1568 H1554 0.960 . S
C1568 H1555 0.960 . S
C1568 C1567 1.524 . S
C1569 C1566 1.403 . S
C1569 C1570 1.392 . S
C1569 C1573 1.495 . S
C1570 C1569 1.392 . S
C1570 C1571 1.385 . S
C1570 C1572 1.478 . S
C1571 H1565 0.930 . S
C1571 C1567 1.400 . S
C1571 C1570 1.385 . S
C1572 C1570 1.478 . S
C1572 C1574 1.381 . S
C1572 C1578 1.383 . S
C1573 C1569 1.495 . S
C1573 H1579 0.959 . S
C1573 H1580 0.961 . S
C1573 H1581 0.960 . S
C1574 C1572 1.381 . S
C1574 C1575 1.394 . S
C1574 H1582 0.930 . S
C1575 C1574 1.394 . S
C1575 C1576 1.383 . S
C1575 H1583 0.929 . S
C1576 C1575 1.383 . S
C1576 C1577 1.377 . S
C1577 H1561 0.930 . S
C1577 C1576 1.377 . S
C1577 C1578 1.379 . S
C1578 H1562 0.931 . S
C1578 C1572 1.383 . S
C1578 C1577 1.379 . S
H1579 C1573 0.959 . S
H1580 C1573 0.961 . S
H1581 C1573 0.960 . S
H1582 C1574 0.930 . S
H1583 C1575 0.929 . S
H1584 C1592 0.929 . S
H1585 C1594 0.930 . S
H1586 C1596 0.930 . S
H1587 C1599 0.929 . S
H1588 C1602 0.930 . S
H1589 C1604 0.960 . S
H1590 C1604 0.960 . S
H1591 C1604 0.960 . S
C1592 H1584 0.929 . S
C1592 C1593 1.377 . S
C1592 C1594 1.384 . S
C1593 C1592 1.377 . S
C1593 C1599 1.390 . S
C1594 H1585 0.930 . S
C1594 C1592 1.384 . S
C1594 C1595 1.372 . S
C1595 C1594 1.372 . S
C1595 C1596 1.400 . S
C1595 C1600 1.490 . S
C1596 H1586 0.930 . S
C1596 C1595 1.400 . S
C1596 C1599 1.386 . S
H1597 C1613 0.930 . S
H1598 C1614 0.931 . S
C1599 H1587 0.929 . S
C1599 C1593 1.390 . S
C1599 C1596 1.386 . S
C1600 C1595 1.490 . S
C1600 C1602 1.395 . S
C1600 C1603 1.403 . S
H1601 C1607 0.930 . S
C1602 H1588 0.930 . S
C1602 C1600 1.395 . S
C1602 C1605 1.403 . S
C1603 C1600 1.403 . S
C1603 C1604 1.524 . S
C1603 C1607 1.400 . S
C1604 H1589 0.960 . S
C1604 H1590 0.960 . S
C1604 H1591 0.960 . S
C1604 C1603 1.524 . S
C1605 C1602 1.403 . S
C1605 C1606 1.392 . S
C1605 C1609 1.495 . S
C1606 C1605 1.392 . S
C1606 C1607 1.385 . S
C1606 C1608 1.478 . S
C1607 H1601 0.930 . S
C1607 C1603 1.400 . S
C1607 C1606 1.385 . S
C1608 C1606 1.478 . S
C1608 C1610 1.381 . S
C1608 C1614 1.383 . S
C1609 C1605 1.495 . S
C1609 H1615 0.959 . S
C1609 H1616 0.961 . S
C1609 H1617 0.960 . S
C1610 C1608 1.381 . S
C1610 C1611 1.394 . S
C1610 H1618 0.930 . S
C1611 C1610 1.394 . S
C1611 C1612 1.383 . S
C1611 H1619 0.929 . S
C1612 C1611 1.383 . S
C1612 C1613 1.377 . S
C1613 H1597 0.930 . S
C1613 C1612 1.377 . S
C1613 C1614 1.379 . S
C1614 H1598 0.931 . S
C1614 C1608 1.383 . S
C1614 C1613 1.379 . S
H1615 C1609 0.959 . S
H1616 C1609 0.961 . S
H1617 C1609 0.960 . S
H1618 C1610 0.930 . S
H1619 C1611 0.929 . S
H1620 C1628 0.929 . S
H1621 C1630 0.930 . S
H1622 C1632 0.930 . S
H1623 C1635 0.929 . S
H1624 C1638 0.930 . S
H1625 C1640 0.960 . S
H1626 C1640 0.960 . S
H1627 C1640 0.960 . S
C1628 H1620 0.929 . S
C1628 C1629 1.377 . S
C1628 C1630 1.384 . S
C1629 C1628 1.377 . S
C1629 C1635 1.390 . S
C1630 H1621 0.930 . S
C1630 C1628 1.384 . S
C1630 C1631 1.372 . S
C1631 C1630 1.372 . S
C1631 C1632 1.400 . S
C1631 C1636 1.490 . S
C1632 H1622 0.930 . S
C1632 C1631 1.400 . S
C1632 C1635 1.386 . S
H1633 C1649 0.930 . S
H1634 C1650 0.931 . S
C1635 H1623 0.929 . S
C1635 C1629 1.390 . S
C1635 C1632 1.386 . S
C1636 C1631 1.490 . S
C1636 C1638 1.395 . S
C1636 C1639 1.403 . S
H1637 C1643 0.930 . S
C1638 H1624 0.930 . S
C1638 C1636 1.395 . S
C1638 C1641 1.403 . S
C1639 C1636 1.403 . S
C1639 C1640 1.524 . S
C1639 C1643 1.400 . S
C1640 H1625 0.960 . S
C1640 H1626 0.960 . S
C1640 H1627 0.960 . S
C1640 C1639 1.524 . S
C1641 C1638 1.403 . S
C1641 C1642 1.392 . S
C1641 C1645 1.495 . S
C1642 C1641 1.392 . S
C1642 C1643 1.385 . S
C1642 C1644 1.478 . S
C1643 H1637 0.930 . S
C1643 C1639 1.400 . S
C1643 C1642 1.385 . S
C1644 C1642 1.478 . S
C1644 C1646 1.381 . S
C1644 C1650 1.383 . S
C1645 C1641 1.495 . S
C1645 H1651 0.959 . S
C1645 H1652 0.961 . S
C1645 H1653 0.960 . S
C1646 C1644 1.381 . S
C1646 C1647 1.394 . S
C1646 H1654 0.930 . S
C1647 C1646 1.394 . S
C1647 C1648 1.383 . S
C1647 H1655 0.929 . S
C1648 C1647 1.383 . S
C1648 C1649 1.377 . S
C1649 H1633 0.930 . S
C1649 C1648 1.377 . S
C1649 C1650 1.379 . S
C1650 H1634 0.931 . S
C1650 C1644 1.383 . S
C1650 C1649 1.379 . S
H1651 C1645 0.959 . S
H1652 C1645 0.961 . S
H1653 C1645 0.960 . S
H1654 C1646 0.930 . S
H1655 C1647 0.929 . S
H1656 C1664 0.929 . S
H1657 C1666 0.930 . S
H1658 C1668 0.930 . S
H1659 C1671 0.929 . S
H1660 C1674 0.930 . S
H1661 C1676 0.960 . S
H1662 C1676 0.960 . S
H1663 C1676 0.960 . S
C1664 H1656 0.929 . S
C1664 C1665 1.377 . S
C1664 C1666 1.384 . S
C1665 C1664 1.377 . S
C1665 C1671 1.390 . S
C1666 H1657 0.930 . S
C1666 C1664 1.384 . S
C1666 C1667 1.372 . S
C1667 C1666 1.372 . S
C1667 C1668 1.400 . S
C1667 C1672 1.490 . S
C1668 H1658 0.930 . S
C1668 C1667 1.400 . S
C1668 C1671 1.386 . S
H1669 C1685 0.930 . S
H1670 C1686 0.931 . S
C1671 H1659 0.929 . S
C1671 C1665 1.390 . S
C1671 C1668 1.386 . S
C1672 C1667 1.490 . S
C1672 C1674 1.395 . S
C1672 C1675 1.403 . S
H1673 C1679 0.930 . S
C1674 H1660 0.930 . S
C1674 C1672 1.395 . S
C1674 C1677 1.403 . S
C1675 C1672 1.403 . S
C1675 C1676 1.524 . S
C1675 C1679 1.400 . S
C1676 H1661 0.960 . S
C1676 H1662 0.960 . S
C1676 H1663 0.960 . S
C1676 C1675 1.524 . S
C1677 C1674 1.403 . S
C1677 C1678 1.392 . S
C1677 C1681 1.495 . S
C1678 C1677 1.392 . S
C1678 C1679 1.385 . S
C1678 C1680 1.478 . S
C1679 H1673 0.930 . S
C1679 C1675 1.400 . S
C1679 C1678 1.385 . S
C1680 C1678 1.478 . S
C1680 C1682 1.381 . S
C1680 C1686 1.383 . S
C1681 C1677 1.495 . S
C1681 H1687 0.959 . S
C1681 H1688 0.961 . S
C1681 H1689 0.960 . S
C1682 C1680 1.381 . S
C1682 C1683 1.394 . S
C1682 H1690 0.930 . S
C1683 C1682 1.394 . S
C1683 C1684 1.383 . S
C1683 H1691 0.929 . S
C1684 C1683 1.383 . S
C1684 C1685 1.377 . S
C1685 H1669 0.930 . S
C1685 C1684 1.377 . S
C1685 C1686 1.379 . S
C1686 H1670 0.931 . S
C1686 C1680 1.383 . S
C1686 C1685 1.379 . S
H1687 C1681 0.959 . S
H1688 C1681 0.961 . S
H1689 C1681 0.960 . S
H1690 C1682 0.930 . S
H1691 C1683 0.929 . S
H1692 C1700 0.929 . S
H1693 C1702 0.930 . S
H1694 C1704 0.930 . S
H1695 C1707 0.929 . S
H1696 C1710 0.930 . S
H1697 C1712 0.960 . S
H1698 C1712 0.960 . S
H1699 C1712 0.960 . S
C1700 H1692 0.929 . S
C1700 C1701 1.377 . S
C1700 C1702 1.384 . S
C1701 C1700 1.377 . S
C1701 C1707 1.390 . S
C1702 H1693 0.930 . S
C1702 C1700 1.384 . S
C1702 C1703 1.372 . S
C1703 C1702 1.372 . S
C1703 C1704 1.400 . S
C1703 C1708 1.490 . S
C1704 H1694 0.930 . S
C1704 C1703 1.400 . S
C1704 C1707 1.386 . S
H1705 C1721 0.930 . S
H1706 C1722 0.931 . S
C1707 H1695 0.929 . S
C1707 C1701 1.390 . S
C1707 C1704 1.386 . S
C1708 C1703 1.490 . S
C1708 C1710 1.395 . S
C1708 C1711 1.403 . S
H1709 C1715 0.930 . S
C1710 H1696 0.930 . S
C1710 C1708 1.395 . S
C1710 C1713 1.403 . S
C1711 C1708 1.403 . S
C1711 C1712 1.524 . S
C1711 C1715 1.400 . S
C1712 H1697 0.960 . S
C1712 H1698 0.960 . S
C1712 H1699 0.960 . S
C1712 C1711 1.524 . S
C1713 C1710 1.403 . S
C1713 C1714 1.392 . S
C1713 C1717 1.495 . S
C1714 C1713 1.392 . S
C1714 C1715 1.385 . S
C1714 C1716 1.478 . S
C1715 H1709 0.930 . S
C1715 C1711 1.400 . S
C1715 C1714 1.385 . S
C1716 C1714 1.478 . S
C1716 C1718 1.381 . S
C1716 C1722 1.383 . S
C1717 C1713 1.495 . S
C1717 H1723 0.959 . S
C1717 H1724 0.961 . S
C1717 H1725 0.960 . S
C1718 C1716 1.381 . S
C1718 C1719 1.394 . S
C1718 H1726 0.930 . S
C1719 C1718 1.394 . S
C1719 C1720 1.383 . S
C1719 H1727 0.929 . S
C1720 C1719 1.383 . S
C1720 C1721 1.377 . S
C1721 H1705 0.930 . S
C1721 C1720 1.377 . S
C1721 C1722 1.379 . S
C1722 H1706 0.931 . S
C1722 C1716 1.383 . S
C1722 C1721 1.379 . S
H1723 C1717 0.959 . S
H1724 C1717 0.961 . S
H1725 C1717 0.960 . S
H1726 C1718 0.930 . S
H1727 C1719 0.929 . S
H1728 C1736 0.929 . S
H1729 C1738 0.930 . S
H1730 C1740 0.930 . S
H1731 C1743 0.929 . S
H1732 C1746 0.930 . S
H1733 C1748 0.960 . S
H1734 C1748 0.960 . S
H1735 C1748 0.960 . S
C1736 H1728 0.929 . S
C1736 C1737 1.377 . S
C1736 C1738 1.384 . S
C1737 C1736 1.377 . S
C1737 C1743 1.390 . S
C1738 H1729 0.930 . S
C1738 C1736 1.384 . S
C1738 C1739 1.372 . S
C1739 C1738 1.372 . S
C1739 C1740 1.400 . S
C1739 C1744 1.490 . S
C1740 H1730 0.930 . S
C1740 C1739 1.400 . S
C1740 C1743 1.386 . S
H1741 C1757 0.930 . S
H1742 C1758 0.931 . S
C1743 H1731 0.929 . S
C1743 C1737 1.390 . S
C1743 C1740 1.386 . S
C1744 C1739 1.490 . S
C1744 C1746 1.395 . S
C1744 C1747 1.403 . S
H1745 C1751 0.930 . S
C1746 H1732 0.930 . S
C1746 C1744 1.395 . S
C1746 C1749 1.403 . S
C1747 C1744 1.403 . S
C1747 C1748 1.524 . S
C1747 C1751 1.400 . S
C1748 H1733 0.960 . S
C1748 H1734 0.960 . S
C1748 H1735 0.960 . S
C1748 C1747 1.524 . S
C1749 C1746 1.403 . S
C1749 C1750 1.392 . S
C1749 C1753 1.495 . S
C1750 C1749 1.392 . S
C1750 C1751 1.385 . S
C1750 C1752 1.478 . S
C1751 H1745 0.930 . S
C1751 C1747 1.400 . S
C1751 C1750 1.385 . S
C1752 C1750 1.478 . S
C1752 C1754 1.381 . S
C1752 C1758 1.383 . S
C1753 C1749 1.495 . S
C1753 H1759 0.959 . S
C1753 H1760 0.961 . S
C1753 H1761 0.960 . S
C1754 C1752 1.381 . S
C1754 C1755 1.394 . S
C1754 H1762 0.930 . S
C1755 C1754 1.394 . S
C1755 C1756 1.383 . S
C1755 H1763 0.929 . S
C1756 C1755 1.383 . S
C1756 C1757 1.377 . S
C1757 H1741 0.930 . S
C1757 C1756 1.377 . S
C1757 C1758 1.379 . S
C1758 H1742 0.931 . S
C1758 C1752 1.383 . S
C1758 C1757 1.379 . S
H1759 C1753 0.959 . S
H1760 C1753 0.961 . S
H1761 C1753 0.960 . S
H1762 C1754 0.930 . S
H1763 C1755 0.929 . S
H1764 C1772 0.929 . S
H1765 C1774 0.930 . S
H1766 C1776 0.930 . S
H1767 C1779 0.929 . S
H1768 C1782 0.930 . S
H1769 C1784 0.960 . S
H1770 C1784 0.960 . S
H1771 C1784 0.960 . S
C1772 H1764 0.929 . S
C1772 C1773 1.377 . S
C1772 C1774 1.384 . S
C1773 C1772 1.377 . S
C1773 C1779 1.390 . S
C1774 H1765 0.930 . S
C1774 C1772 1.384 . S
C1774 C1775 1.372 . S
C1775 C1774 1.372 . S
C1775 C1776 1.400 . S
C1775 C1780 1.490 . S
C1776 H1766 0.930 . S
C1776 C1775 1.400 . S
C1776 C1779 1.386 . S
H1777 C1793 0.930 . S
H1778 C1794 0.931 . S
C1779 H1767 0.929 . S
C1779 C1773 1.390 . S
C1779 C1776 1.386 . S
C1780 C1775 1.490 . S
C1780 C1782 1.395 . S
C1780 C1783 1.403 . S
H1781 C1787 0.930 . S
C1782 H1768 0.930 . S
C1782 C1780 1.395 . S
C1782 C1785 1.403 . S
C1783 C1780 1.403 . S
C1783 C1784 1.524 . S
C1783 C1787 1.400 . S
C1784 H1769 0.960 . S
C1784 H1770 0.960 . S
C1784 H1771 0.960 . S
C1784 C1783 1.524 . S
C1785 C1782 1.403 . S
C1785 C1786 1.392 . S
C1785 C1789 1.495 . S
C1786 C1785 1.392 . S
C1786 C1787 1.385 . S
C1786 C1788 1.478 . S
C1787 H1781 0.930 . S
C1787 C1783 1.400 . S
C1787 C1786 1.385 . S
C1788 C1786 1.478 . S
C1788 C1790 1.381 . S
C1788 C1794 1.383 . S
C1789 C1785 1.495 . S
C1789 H1795 0.959 . S
C1789 H1796 0.961 . S
C1789 H1797 0.960 . S
C1790 C1788 1.381 . S
C1790 C1791 1.394 . S
C1790 H1798 0.930 . S
C1791 C1790 1.394 . S
C1791 C1792 1.383 . S
C1791 H1799 0.929 . S
C1792 C1791 1.383 . S
C1792 C1793 1.377 . S
C1793 H1777 0.930 . S
C1793 C1792 1.377 . S
C1793 C1794 1.379 . S
C1794 H1778 0.931 . S
C1794 C1788 1.383 . S
C1794 C1793 1.379 . S
H1795 C1789 0.959 . S
H1796 C1789 0.961 . S
H1797 C1789 0.960 . S
H1798 C1790 0.930 . S
H1799 C1791 0.929 . S
H1800 C1808 0.929 . S
H1801 C1810 0.930 . S
H1802 C1812 0.930 . S
H1803 C1815 0.929 . S
H1804 C1818 0.930 . S
H1805 C1820 0.960 . S
H1806 C1820 0.960 . S
H1807 C1820 0.960 . S
C1808 H1800 0.929 . S
C1808 C1809 1.377 . S
C1808 C1810 1.384 . S
C1809 C1808 1.377 . S
C1809 C1815 1.390 . S
C1810 H1801 0.930 . S
C1810 C1808 1.384 . S
C1810 C1811 1.372 . S
C1811 C1810 1.372 . S
C1811 C1812 1.400 . S
C1811 C1816 1.490 . S
C1812 H1802 0.930 . S
C1812 C1811 1.400 . S
C1812 C1815 1.386 . S
H1813 C1829 0.930 . S
H1814 C1830 0.931 . S
C1815 H1803 0.929 . S
C1815 C1809 1.390 . S
C1815 C1812 1.386 . S
C1816 C1811 1.490 . S
C1816 C1818 1.395 . S
C1816 C1819 1.403 . S
H1817 C1823 0.930 . S
C1818 H1804 0.930 . S
C1818 C1816 1.395 . S
C1818 C1821 1.403 . S
C1819 C1816 1.403 . S
C1819 C1820 1.524 . S
C1819 C1823 1.400 . S
C1820 H1805 0.960 . S
C1820 H1806 0.960 . S
C1820 H1807 0.960 . S
C1820 C1819 1.524 . S
C1821 C1818 1.403 . S
C1821 C1822 1.392 . S
C1821 C1825 1.495 . S
C1822 C1821 1.392 . S
C1822 C1823 1.385 . S
C1822 C1824 1.478 . S
C1823 H1817 0.930 . S
C1823 C1819 1.400 . S
C1823 C1822 1.385 . S
C1824 C1822 1.478 . S
C1824 C1826 1.381 . S
C1824 C1830 1.383 . S
C1825 C1821 1.495 . S
C1825 H1831 0.959 . S
C1825 H1832 0.961 . S
C1825 H1833 0.960 . S
C1826 C1824 1.381 . S
C1826 C1827 1.394 . S
C1826 H1834 0.930 . S
C1827 C1826 1.394 . S
C1827 C1828 1.383 . S
C1827 H1835 0.929 . S
C1828 C1827 1.383 . S
C1828 C1829 1.377 . S
C1829 H1813 0.930 . S
C1829 C1828 1.377 . S
C1829 C1830 1.379 . S
C1830 H1814 0.931 . S
C1830 C1824 1.383 . S
C1830 C1829 1.379 . S
H1831 C1825 0.959 . S
H1832 C1825 0.961 . S
H1833 C1825 0.960 . S
H1834 C1826 0.930 . S
H1835 C1827 0.929 . S
H1836 C1844 0.929 . S
H1837 C1846 0.930 . S
H1838 C1848 0.930 . S
H1839 C1851 0.929 . S
H1840 C1854 0.930 . S
H1841 C1856 0.960 . S
H1842 C1856 0.960 . S
H1843 C1856 0.960 . S
C1844 H1836 0.929 . S
C1844 C1845 1.377 1_545 S
C1844 C1846 1.384 . S
C1845 C1844 1.377 1_565 S
C1845 C1851 1.390 . S
C1846 H1837 0.930 . S
C1846 C1844 1.384 . S
C1846 C1847 1.372 1_545 S
C1847 C1846 1.372 1_565 S
C1847 C1848 1.400 . S
C1847 C1852 1.489 1_565 S
C1848 H1838 0.930 . S
C1848 C1847 1.400 . S
C1848 C1851 1.386 . S
H1849 C1865 0.930 . S
H1850 C1866 0.931 . S
C1851 H1839 0.929 . S
C1851 C1845 1.390 . S
C1851 C1848 1.386 . S
C1852 C1847 1.489 1_545 S
C1852 C1854 1.409 . S
C1852 C1855 1.389 1_545 S
H1853 C1859 0.930 . S
C1854 H1840 0.930 . S
C1854 C1852 1.409 . S
C1854 C1857 1.403 . S
C1855 C1852 1.389 1_565 S
C1855 C1856 1.524 . S
C1855 C1859 1.400 . S
C1856 H1841 0.960 . S
C1856 H1842 0.960 . S
C1856 H1843 0.960 . S
C1856 C1855 1.524 . S
C1857 C1854 1.403 . S
C1857 C1858 1.392 . S
C1857 C1861 1.495 . S
C1858 C1857 1.392 . S
C1858 C1859 1.385 1_545 S
C1858 C1860 1.478 . S
C1859 H1853 0.930 . S
C1859 C1855 1.400 . S
C1859 C1858 1.385 1_565 S
C1860 C1858 1.478 . S
C1860 C1862 1.381 . S
C1860 C1866 1.383 1_545 S
C1861 C1857 1.495 . S
C1861 H1867 0.959 . S
C1861 H1868 0.961 . S
C1861 H1869 0.960 . S
C1862 C1860 1.381 . S
C1862 C1863 1.394 . S
C1862 H1870 0.930 . S
C1863 C1862 1.394 . S
C1863 C1864 1.383 . S
C1863 H1871 0.929 . S
C1864 C1863 1.383 . S
C1864 C1865 1.377 1_545 S
C1865 H1849 0.930 . S
C1865 C1864 1.377 1_565 S
C1865 C1866 1.379 . S
C1866 H1850 0.931 . S
C1866 C1860 1.383 1_565 S
C1866 C1865 1.379 . S
H1867 C1861 0.959 . S
H1868 C1861 0.961 . S
H1869 C1861 0.960 . S
H1870 C1862 0.930 . S
H1871 C1863 0.929 . S
H1872 C1880 0.929 . S
H1873 C1882 0.930 . S
H1874 C1884 0.930 . S
H1875 C1887 0.929 . S
H1876 C1890 0.930 . S
H1877 C1892 0.960 . S
H1878 C1892 0.960 . S
H1879 C1892 0.960 . S
C1880 H1872 0.929 . S
C1880 C1881 1.377 . S
C1880 C1882 1.384 . S
C1881 C1880 1.377 . S
C1881 C1887 1.390 1_655 S
C1882 H1873 0.930 . S
C1882 C1880 1.384 . S
C1882 C1883 1.372 . S
C1883 C1882 1.372 . S
C1883 C1884 1.400 1_655 S
C1883 C1888 1.490 . S
C1884 H1874 0.930 . S
C1884 C1883 1.400 1_455 S
C1884 C1887 1.386 . S
H1885 C1901 0.930 . S
H1886 C1902 0.931 . S
C1887 H1875 0.929 . S
C1887 C1881 1.390 1_455 S
C1887 C1884 1.386 . S
C1888 C1883 1.490 . S
C1888 C1890 1.395 1_655 S
C1888 C1891 1.403 . S
H1889 C1895 0.930 . S
C1890 H1876 0.930 . S
C1890 C1888 1.395 1_455 S
C1890 C1893 1.403 . S
C1891 C1888 1.403 . S
C1891 C1892 1.524 . S
C1891 C1895 1.400 . S
C1892 H1877 0.960 . S
C1892 H1878 0.960 . S
C1892 H1879 0.960 . S
C1892 C1891 1.524 . S
C1893 C1890 1.403 . S
C1893 C1894 1.392 . S
C1893 C1897 1.495 . S
C1894 C1893 1.392 . S
C1894 C1895 1.385 1_455 S
C1894 C1896 1.478 . S
C1895 H1889 0.930 . S
C1895 C1891 1.400 . S
C1895 C1894 1.385 1_655 S
C1896 C1894 1.478 . S
C1896 C1898 1.381 1_455 S
C1896 C1902 1.383 . S
C1897 C1893 1.495 . S
C1897 H1903 0.959 . S
C1897 H1904 0.961 . S
C1897 H1905 0.960 . S
C1898 C1896 1.381 1_655 S
C1898 C1899 1.394 . S
C1898 H1906 0.930 . S
C1899 C1898 1.394 . S
C1899 C1900 1.383 1_655 S
C1899 H1907 0.929 . S
C1900 C1899 1.383 1_455 S
C1900 C1901 1.377 . S
C1901 H1885 0.930 . S
C1901 C1900 1.377 . S
C1901 C1902 1.379 . S
C1902 H1886 0.931 . S
C1902 C1896 1.383 . S
C1902 C1901 1.379 . S
H1903 C1897 0.959 . S
H1904 C1897 0.961 . S
H1905 C1897 0.960 . S
H1906 C1898 0.930 . S
H1907 C1899 0.929 . S
H1908 C1916 0.929 . S
H1909 C1918 0.930 . S
H1910 C1920 0.930 . S
H1911 C1923 0.929 . S
H1912 C1926 0.930 . S
H1913 C1928 0.960 . S
H1914 C1928 0.960 . S
H1915 C1928 0.960 . S
C1916 H1908 0.929 . S
C1916 C1917 1.377 . S
C1916 C1918 1.384 . S
C1917 C1916 1.377 . S
C1917 C1923 1.390 . S
C1918 H1909 0.930 . S
C1918 C1916 1.384 . S
C1918 C1919 1.372 . S
C1919 C1918 1.372 . S
C1919 C1920 1.400 . S
C1919 C1924 1.490 . S
C1920 H1910 0.930 . S
C1920 C1919 1.400 . S
C1920 C1923 1.386 . S
H1921 C1937 0.930 . S
H1922 C1938 0.931 . S
C1923 H1911 0.929 . S
C1923 C1917 1.390 . S
C1923 C1920 1.386 . S
C1924 C1919 1.490 . S
C1924 C1926 1.395 . S
C1924 C1927 1.403 . S
H1925 C1931 0.930 . S
C1926 H1912 0.930 . S
C1926 C1924 1.395 . S
C1926 C1929 1.403 . S
C1927 C1924 1.403 . S
C1927 C1928 1.524 . S
C1927 C1931 1.400 . S
C1928 H1913 0.960 . S
C1928 H1914 0.960 . S
C1928 H1915 0.960 . S
C1928 C1927 1.524 . S
C1929 C1926 1.403 . S
C1929 C1930 1.392 . S
C1929 C1933 1.495 . S
C1930 C1929 1.392 . S
C1930 C1931 1.385 . S
C1930 C1932 1.478 . S
C1931 H1925 0.930 . S
C1931 C1927 1.400 . S
C1931 C1930 1.385 . S
C1932 C1930 1.478 . S
C1932 C1934 1.381 . S
C1932 C1938 1.383 . S
C1933 C1929 1.495 . S
C1933 H1939 0.959 . S
C1933 H1940 0.961 . S
C1933 H1941 0.960 . S
C1934 C1932 1.381 . S
C1934 C1935 1.394 . S
C1934 H1942 0.930 . S
C1935 C1934 1.394 . S
C1935 C1936 1.383 . S
C1935 H1943 0.929 . S
C1936 C1935 1.383 . S
C1936 C1937 1.377 . S
C1937 H1921 0.930 . S
C1937 C1936 1.377 . S
C1937 C1938 1.379 . S
C1938 H1922 0.931 . S
C1938 C1932 1.383 . S
C1938 C1937 1.379 . S
H1939 C1933 0.959 . S
H1940 C1933 0.961 . S
H1941 C1933 0.960 . S
H1942 C1934 0.930 . S
H1943 C1935 0.929 . S
H1944 C1952 0.929 . S
H1945 C1954 0.930 . S
H1946 C1956 0.930 . S
H1947 C1959 0.929 . S
H1948 C1962 0.930 . S
H1949 C1964 0.960 . S
H1950 C1964 0.960 . S
H1951 C1964 0.960 . S
C1952 H1944 0.929 . S
C1952 C1953 1.377 . S
C1952 C1954 1.384 . S
C1953 C1952 1.377 . S
C1953 C1959 1.390 1_545 S
C1954 H1945 0.930 . S
C1954 C1952 1.384 . S
C1954 C1955 1.372 . S
C1955 C1954 1.372 . S
C1955 C1956 1.400 1_545 S
C1955 C1960 1.490 . S
C1956 H1946 0.930 . S
C1956 C1955 1.400 1_565 S
C1956 C1959 1.386 . S
H1957 C1973 0.930 . S
H1958 C1974 0.931 . S
C1959 H1947 0.929 . S
C1959 C1953 1.390 1_565 S
C1959 C1956 1.386 . S
C1960 C1955 1.490 . S
C1960 C1962 1.395 . S
C1960 C1963 1.403 1_545 S
H1961 C1967 0.930 . S
C1962 H1948 0.930 . S
C1962 C1960 1.395 . S
C1962 C1965 1.403 . S
C1963 C1960 1.403 1_565 S
C1963 C1964 1.524 . S
C1963 C1967 1.400 . S
C1964 H1949 0.960 . S
C1964 H1950 0.960 . S
C1964 H1951 0.960 . S
C1964 C1963 1.524 . S
C1965 C1962 1.403 . S
C1965 C1966 1.392 . S
C1965 C1969 1.495 . S
C1966 C1965 1.392 . S
C1966 C1967 1.385 1_545 S
C1966 C1968 1.478 . S
C1967 H1961 0.930 . S
C1967 C1963 1.400 . S
C1967 C1966 1.385 1_565 S
C1968 C1966 1.478 . S
C1968 C1970 1.381 . S
C1968 C1974 1.383 1_545 S
C1969 C1965 1.495 . S
C1969 H1975 0.959 . S
C1969 H1976 0.961 . S
C1969 H1977 0.960 . S
C1970 C1968 1.381 . S
C1970 C1971 1.394 . S
C1970 H1978 0.930 . S
C1971 C1970 1.394 . S
C1971 C1972 1.383 1_545 S
C1971 H1979 0.929 . S
C1972 C1971 1.383 1_565 S
C1972 C1973 1.377 . S
C1973 H1957 0.930 . S
C1973 C1972 1.377 . S
C1973 C1974 1.379 . S
C1974 H1958 0.931 . S
C1974 C1968 1.383 1_565 S
C1974 C1973 1.379 . S
H1975 C1969 0.959 . S
H1976 C1969 0.961 . S
H1977 C1969 0.960 . S
H1978 C1970 0.930 . S
H1979 C1971 0.929 . S
H1980 C1988 0.929 . S
H1981 C1990 0.930 . S
H1982 C1992 0.930 . S
H1983 C1995 0.929 . S
H1984 C1998 0.930 . S
H1985 C2000 0.960 . S
H1986 C2000 0.960 . S
H1987 C2000 0.960 1_655 S
C1988 H1980 0.929 . S
C1988 C1989 1.377 . S
C1988 C1990 1.384 . S
C1989 C1988 1.377 . S
C1989 C1995 1.390 1_455 S
C1990 H1981 0.930 . S
C1990 C1988 1.384 . S
C1990 C1991 1.372 . S
C1991 C1990 1.372 . S
C1991 C1992 1.400 1_455 S
C1991 C1996 1.490 . S
C1992 H1982 0.930 . S
C1992 C1991 1.400 1_655 S
C1992 C1995 1.386 . S
H1993 C2009 0.930 . S
H1994 C2010 0.931 . S
C1995 H1983 0.929 . S
C1995 C1989 1.390 1_655 S
C1995 C1992 1.386 . S
C1996 C1991 1.490 . S
C1996 C1998 1.395 1_455 S
C1996 C1999 1.403 . S
H1997 C2003 0.930 . S
C1998 H1984 0.930 . S
C1998 C1996 1.395 1_655 S
C1998 C2001 1.403 . S
C1999 C1996 1.403 . S
C1999 C2000 1.524 . S
C1999 C2003 1.400 . S
C2000 H1985 0.960 . S
C2000 H1986 0.960 . S
C2000 H1987 0.960 1_455 S
C2000 C1999 1.524 . S
C2001 C1998 1.403 . S
C2001 C2002 1.392 . S
C2001 C2005 1.495 . S
C2002 C2001 1.392 . S
C2002 C2003 1.385 1_655 S
C2002 C2004 1.478 . S
C2003 H1997 0.930 . S
C2003 C1999 1.400 . S
C2003 C2002 1.385 1_455 S
C2004 C2002 1.478 . S
C2004 C2006 1.381 1_655 S
C2004 C2010 1.383 . S
C2005 C2001 1.495 . S
C2005 H2011 0.959 . S
C2005 H2012 0.961 . S
C2005 H2013 0.960 1_655 S
C2006 C2004 1.381 1_455 S
C2006 C2007 1.394 . S
C2006 H2014 0.930 . S
C2007 C2006 1.394 . S
C2007 C2008 1.383 1_455 S
C2007 H2015 0.929 . S
C2008 C2007 1.383 1_655 S
C2008 C2009 1.377 . S
C2009 H1993 0.930 . S
C2009 C2008 1.377 . S
C2009 C2010 1.379 . S
C2010 H1994 0.931 . S
C2010 C2004 1.383 . S
C2010 C2009 1.379 . S
H2011 C2005 0.959 . S
H2012 C2005 0.961 . S
H2013 C2005 0.960 1_455 S
H2014 C2006 0.930 . S
H2015 C2007 0.929 . S
H2016 C2024 0.929 . S
H2017 C2026 0.930 . S
H2018 C2028 0.930 . S
H2019 C2031 0.929 . S
H2020 C2034 0.930 . S
H2021 C2036 0.960 . S
H2022 C2036 0.960 . S
H2023 C2036 0.960 . S
C2024 H2016 0.929 . S
C2024 C2025 1.377 . S
C2024 C2026 1.384 . S
C2025 C2024 1.377 . S
C2025 C2031 1.390 . S
C2026 H2017 0.930 . S
C2026 C2024 1.384 . S
C2026 C2027 1.372 . S
C2027 C2026 1.372 . S
C2027 C2028 1.400 . S
C2027 C2032 1.490 . S
C2028 H2018 0.930 . S
C2028 C2027 1.400 . S
C2028 C2031 1.386 . S
H2029 C2045 0.930 . S
H2030 C2046 0.931 . S
C2031 H2019 0.929 . S
C2031 C2025 1.390 . S
C2031 C2028 1.386 . S
C2032 C2027 1.490 . S
C2032 C2034 1.395 . S
C2032 C2035 1.403 . S
H2033 C2039 0.930 . S
C2034 H2020 0.930 . S
C2034 C2032 1.395 . S
C2034 C2037 1.403 . S
C2035 C2032 1.403 . S
C2035 C2036 1.524 . S
C2035 C2039 1.400 . S
C2036 H2021 0.960 . S
C2036 H2022 0.960 . S
C2036 H2023 0.960 . S
C2036 C2035 1.524 . S
C2037 C2034 1.403 . S
C2037 C2038 1.392 . S
C2037 C2041 1.495 . S
C2038 C2037 1.392 . S
C2038 C2039 1.385 . S
C2038 C2040 1.478 . S
C2039 H2033 0.930 . S
C2039 C2035 1.400 . S
C2039 C2038 1.385 . S
C2040 C2038 1.478 . S
C2040 C2042 1.381 . S
C2040 C2046 1.383 . S
C2041 C2037 1.495 . S
C2041 H2047 0.959 . S
C2041 H2048 0.961 . S
C2041 H2049 0.960 . S
C2042 C2040 1.381 . S
C2042 C2043 1.394 . S
C2042 H2050 0.930 . S
C2043 C2042 1.394 . S
C2043 C2044 1.383 . S
C2043 H2051 0.929 . S
C2044 C2043 1.383 . S
C2044 C2045 1.377 . S
C2045 H2029 0.930 . S
C2045 C2044 1.377 . S
C2045 C2046 1.379 . S
C2046 H2030 0.931 . S
C2046 C2040 1.383 . S
C2046 C2045 1.379 . S
H2047 C2041 0.959 . S
H2048 C2041 0.961 . S
H2049 C2041 0.960 . S
H2050 C2042 0.930 . S
H2051 C2043 0.929 . S
H2052 C2060 0.929 . S
H2053 C2062 0.930 . S
H2054 C2064 0.930 . S
H2055 C2067 0.929 . S
H2056 C2070 0.930 . S
H2057 C2072 0.960 . S
H2058 C2072 0.960 . S
H2059 C2072 0.960 . S
C2060 H2052 0.929 . S
C2060 C2061 1.377 . S
C2060 C2062 1.384 . S
C2061 C2060 1.377 . S
C2061 C2067 1.390 . S
C2062 H2053 0.930 . S
C2062 C2060 1.384 . S
C2062 C2063 1.372 . S
C2063 C2062 1.372 . S
C2063 C2064 1.400 . S
C2063 C2068 1.490 . S
C2064 H2054 0.930 . S
C2064 C2063 1.400 . S
C2064 C2067 1.386 . S
H2065 C2081 0.930 . S
H2066 C2082 0.931 . S
C2067 H2055 0.929 . S
C2067 C2061 1.390 . S
C2067 C2064 1.386 . S
C2068 C2063 1.490 . S
C2068 C2070 1.395 . S
C2068 C2071 1.403 . S
H2069 C2075 0.930 . S
C2070 H2056 0.930 . S
C2070 C2068 1.395 . S
C2070 C2073 1.403 . S
C2071 C2068 1.403 . S
C2071 C2072 1.524 . S
C2071 C2075 1.400 . S
C2072 H2057 0.960 . S
C2072 H2058 0.960 . S
C2072 H2059 0.960 . S
C2072 C2071 1.524 . S
C2073 C2070 1.403 . S
C2073 C2074 1.392 . S
C2073 C2077 1.495 . S
C2074 C2073 1.392 . S
C2074 C2075 1.385 . S
C2074 C2076 1.478 . S
C2075 H2069 0.930 . S
C2075 C2071 1.400 . S
C2075 C2074 1.385 . S
C2076 C2074 1.478 . S
C2076 C2078 1.381 . S
C2076 C2082 1.383 . S
C2077 C2073 1.495 . S
C2077 H2083 0.959 . S
C2077 H2084 0.961 . S
C2077 H2085 0.960 . S
C2078 C2076 1.381 . S
C2078 C2079 1.394 . S
C2078 H2086 0.930 . S
C2079 C2078 1.394 . S
C2079 C2080 1.383 . S
C2079 H2087 0.929 . S
C2080 C2079 1.383 . S
C2080 C2081 1.377 . S
C2081 H2065 0.930 . S
C2081 C2080 1.377 . S
C2081 C2082 1.379 . S
C2082 H2066 0.931 . S
C2082 C2076 1.383 . S
C2082 C2081 1.379 . S
H2083 C2077 0.959 . S
H2084 C2077 0.961 . S
H2085 C2077 0.960 . S
H2086 C2078 0.930 . S
H2087 C2079 0.929 . S
H2088 C2096 0.929 . S
H2089 C2098 0.930 . S
H2090 C2100 0.930 . S
H2091 C2103 0.929 . S
H2092 C2106 0.930 . S
H2093 C2108 0.960 . S
H2094 C2108 0.960 . S
H2095 C2108 0.960 . S
C2096 H2088 0.929 . S
C2096 C2097 1.377 . S
C2096 C2098 1.384 . S
C2097 C2096 1.377 . S
C2097 C2103 1.390 . S
C2098 H2089 0.930 . S
C2098 C2096 1.384 . S
C2098 C2099 1.372 . S
C2099 C2098 1.372 . S
C2099 C2100 1.400 . S
C2099 C2104 1.490 . S
C2100 H2090 0.930 . S
C2100 C2099 1.400 . S
C2100 C2103 1.386 . S
H2101 C2117 0.930 . S
H2102 C2118 0.931 . S
C2103 H2091 0.929 . S
C2103 C2097 1.390 . S
C2103 C2100 1.386 . S
C2104 C2099 1.490 . S
C2104 C2106 1.395 . S
C2104 C2107 1.403 . S
H2105 C2111 0.930 . S
C2106 H2092 0.930 . S
C2106 C2104 1.395 . S
C2106 C2109 1.403 . S
C2107 C2104 1.403 . S
C2107 C2108 1.524 . S
C2107 C2111 1.400 . S
C2108 H2093 0.960 . S
C2108 H2094 0.960 . S
C2108 H2095 0.960 . S
C2108 C2107 1.524 . S
C2109 C2106 1.403 . S
C2109 C2110 1.392 . S
C2109 C2113 1.495 . S
C2110 C2109 1.392 . S
C2110 C2111 1.385 . S
C2110 C2112 1.478 . S
C2111 H2105 0.930 . S
C2111 C2107 1.400 . S
C2111 C2110 1.385 . S
C2112 C2110 1.478 . S
C2112 C2114 1.381 . S
C2112 C2118 1.383 . S
C2113 C2109 1.495 . S
C2113 H2119 0.959 . S
C2113 H2120 0.961 . S
C2113 H2121 0.960 . S
C2114 C2112 1.381 . S
C2114 C2115 1.394 . S
C2114 H2122 0.930 . S
C2115 C2114 1.394 . S
C2115 C2116 1.383 . S
C2115 H2123 0.929 . S
C2116 C2115 1.383 . S
C2116 C2117 1.377 . S
C2117 H2101 0.930 . S
C2117 C2116 1.377 . S
C2117 C2118 1.379 . S
C2118 H2102 0.931 . S
C2118 C2112 1.383 . S
C2118 C2117 1.379 . S
H2119 C2113 0.959 . S
H2120 C2113 0.961 . S
H2121 C2113 0.960 . S
H2122 C2114 0.930 . S
H2123 C2115 0.929 . S
H2124 C2132 0.929 . S
H2125 C2134 0.930 . S
H2126 C2136 0.930 . S
H2127 C2139 0.929 . S
H2128 C2142 0.930 . S
H2129 C2144 0.960 . S
H2130 C2144 0.960 . S
H2131 C2144 0.960 . S
C2132 H2124 0.929 . S
C2132 C2133 1.377 . S
C2132 C2134 1.384 . S
C2133 C2132 1.377 . S
C2133 C2139 1.390 . S
C2134 H2125 0.930 . S
C2134 C2132 1.384 . S
C2134 C2135 1.372 . S
C2135 C2134 1.372 . S
C2135 C2136 1.400 . S
C2135 C2140 1.490 . S
C2136 H2126 0.930 . S
C2136 C2135 1.400 . S
C2136 C2139 1.386 . S
H2137 C2153 0.930 . S
H2138 C2154 0.931 . S
C2139 H2127 0.929 . S
C2139 C2133 1.390 . S
C2139 C2136 1.386 . S
C2140 C2135 1.490 . S
C2140 C2142 1.395 . S
C2140 C2143 1.403 . S
H2141 C2147 0.930 . S
C2142 H2128 0.930 . S
C2142 C2140 1.395 . S
C2142 C2145 1.403 . S
C2143 C2140 1.403 . S
C2143 C2144 1.524 . S
C2143 C2147 1.400 . S
C2144 H2129 0.960 . S
C2144 H2130 0.960 . S
C2144 H2131 0.960 . S
C2144 C2143 1.524 . S
C2145 C2142 1.403 . S
C2145 C2146 1.392 . S
C2145 C2149 1.495 . S
C2146 C2145 1.392 . S
C2146 C2147 1.385 . S
C2146 C2148 1.478 . S
C2147 H2141 0.930 . S
C2147 C2143 1.400 . S
C2147 C2146 1.385 . S
C2148 C2146 1.478 . S
C2148 C2150 1.381 . S
C2148 C2154 1.383 . S
C2149 C2145 1.495 . S
C2149 H2155 0.959 . S
C2149 H2156 0.961 . S
C2149 H2157 0.960 . S
C2150 C2148 1.381 . S
C2150 C2151 1.394 . S
C2150 H2158 0.930 . S
C2151 C2150 1.394 . S
C2151 C2152 1.383 . S
C2151 H2159 0.929 . S
C2152 C2151 1.383 . S
C2152 C2153 1.377 . S
C2153 H2137 0.930 . S
C2153 C2152 1.377 . S
C2153 C2154 1.379 . S
C2154 H2138 0.931 . S
C2154 C2148 1.383 . S
C2154 C2153 1.379 . S
H2155 C2149 0.959 . S
H2156 C2149 0.961 . S
H2157 C2149 0.960 . S
H2158 C2150 0.930 . S
H2159 C2151 0.929 . S
H2160 C2168 0.929 . S
H2161 C2170 0.930 . S
H2162 C2172 0.930 . S
H2163 C2175 0.929 . S
H2164 C2178 0.930 . S
H2165 C2180 0.960 . S
H2166 C2180 0.960 . S
H2167 C2180 0.960 . S
C2168 H2160 0.929 . S
C2168 C2169 1.377 . S
C2168 C2170 1.384 . S
C2169 C2168 1.377 . S
C2169 C2175 1.390 . S
C2170 H2161 0.930 . S
C2170 C2168 1.384 . S
C2170 C2171 1.372 . S
C2171 C2170 1.372 . S
C2171 C2172 1.400 . S
C2171 C2176 1.490 . S
C2172 H2162 0.930 . S
C2172 C2171 1.400 . S
C2172 C2175 1.386 . S
H2173 C2189 0.930 . S
H2174 C2190 0.931 . S
C2175 H2163 0.929 . S
C2175 C2169 1.390 . S
C2175 C2172 1.386 . S
C2176 C2171 1.490 . S
C2176 C2178 1.395 . S
C2176 C2179 1.403 . S
H2177 C2183 0.930 . S
C2178 H2164 0.930 . S
C2178 C2176 1.395 . S
C2178 C2181 1.403 . S
C2179 C2176 1.403 . S
C2179 C2180 1.524 . S
C2179 C2183 1.400 . S
C2180 H2165 0.960 . S
C2180 H2166 0.960 . S
C2180 H2167 0.960 . S
C2180 C2179 1.524 . S
C2181 C2178 1.403 . S
C2181 C2182 1.392 . S
C2181 C2185 1.495 . S
C2182 C2181 1.392 . S
C2182 C2183 1.385 . S
C2182 C2184 1.478 . S
C2183 H2177 0.930 . S
C2183 C2179 1.400 . S
C2183 C2182 1.385 . S
C2184 C2182 1.478 . S
C2184 C2186 1.381 . S
C2184 C2190 1.383 . S
C2185 C2181 1.495 . S
C2185 H2191 0.959 . S
C2185 H2192 0.961 . S
C2185 H2193 0.960 . S
C2186 C2184 1.381 . S
C2186 C2187 1.394 . S
C2186 H2194 0.930 . S
C2187 C2186 1.394 . S
C2187 C2188 1.383 . S
C2187 H2195 0.929 . S
C2188 C2187 1.383 . S
C2188 C2189 1.377 . S
C2189 H2173 0.930 . S
C2189 C2188 1.377 . S
C2189 C2190 1.379 . S
C2190 H2174 0.931 . S
C2190 C2184 1.383 . S
C2190 C2189 1.379 . S
H2191 C2185 0.959 . S
H2192 C2185 0.961 . S
H2193 C2185 0.960 . S
H2194 C2186 0.930 . S
H2195 C2187 0.929 . S
H2196 C2204 0.929 . S
H2197 C2206 0.930 . S
H2198 C2208 0.930 . S
H2199 C2211 0.929 . S
H2200 C2214 0.930 . S
H2201 C2216 0.960 . S
H2202 C2216 0.960 . S
H2203 C2216 0.960 . S
C2204 H2196 0.929 . S
C2204 C2205 1.377 . S
C2204 C2206 1.384 . S
C2205 C2204 1.377 . S
C2205 C2211 1.390 . S
C2206 H2197 0.930 . S
C2206 C2204 1.384 . S
C2206 C2207 1.372 . S
C2207 C2206 1.372 . S
C2207 C2208 1.400 . S
C2207 C2212 1.490 . S
C2208 H2198 0.930 . S
C2208 C2207 1.400 . S
C2208 C2211 1.386 . S
H2209 C2225 0.930 . S
H2210 C2226 0.931 . S
C2211 H2199 0.929 . S
C2211 C2205 1.390 . S
C2211 C2208 1.386 . S
C2212 C2207 1.490 . S
C2212 C2214 1.395 . S
C2212 C2215 1.403 . S
H2213 C2219 0.930 . S
C2214 H2200 0.930 . S
C2214 C2212 1.395 . S
C2214 C2217 1.403 . S
C2215 C2212 1.403 . S
C2215 C2216 1.524 . S
C2215 C2219 1.400 . S
C2216 H2201 0.960 . S
C2216 H2202 0.960 . S
C2216 H2203 0.960 . S
C2216 C2215 1.524 . S
C2217 C2214 1.403 . S
C2217 C2218 1.392 . S
C2217 C2221 1.495 . S
C2218 C2217 1.392 . S
C2218 C2219 1.385 . S
C2218 C2220 1.478 . S
C2219 H2213 0.930 . S
C2219 C2215 1.400 . S
C2219 C2218 1.385 . S
C2220 C2218 1.478 . S
C2220 C2222 1.381 . S
C2220 C2226 1.383 . S
C2221 C2217 1.495 . S
C2221 H2227 0.959 . S
C2221 H2228 0.961 . S
C2221 H2229 0.960 . S
C2222 C2220 1.381 . S
C2222 C2223 1.394 . S
C2222 H2230 0.930 . S
C2223 C2222 1.394 . S
C2223 C2224 1.383 . S
C2223 H2231 0.929 . S
C2224 C2223 1.383 . S
C2224 C2225 1.377 . S
C2225 H2209 0.930 . S
C2225 C2224 1.377 . S
C2225 C2226 1.379 . S
C2226 H2210 0.931 . S
C2226 C2220 1.383 . S
C2226 C2225 1.379 . S
H2227 C2221 0.959 . S
H2228 C2221 0.961 . S
H2229 C2221 0.960 . S
H2230 C2222 0.930 . S
H2231 C2223 0.929 . S
H2232 C2240 0.929 . S
H2233 C2242 0.930 . S
H2234 C2244 0.930 . S
H2235 C2247 0.929 . S
H2236 C2250 0.930 . S
H2237 C2252 0.960 . S
H2238 C2252 0.960 . S
H2239 C2252 0.960 . S
C2240 H2232 0.929 . S
C2240 C2241 1.377 . S
C2240 C2242 1.384 . S
C2241 C2240 1.377 . S
C2241 C2247 1.390 . S
C2242 H2233 0.930 . S
C2242 C2240 1.384 . S
C2242 C2243 1.372 . S
C2243 C2242 1.372 . S
C2243 C2244 1.400 . S
C2243 C2248 1.490 . S
C2244 H2234 0.930 . S
C2244 C2243 1.400 . S
C2244 C2247 1.386 . S
H2245 C2261 0.930 . S
H2246 C2262 0.931 . S
C2247 H2235 0.929 . S
C2247 C2241 1.390 . S
C2247 C2244 1.386 . S
C2248 C2243 1.490 . S
C2248 C2250 1.395 . S
C2248 C2251 1.403 . S
H2249 C2255 0.930 . S
C2250 H2236 0.930 . S
C2250 C2248 1.395 . S
C2250 C2253 1.403 . S
C2251 C2248 1.403 . S
C2251 C2252 1.524 . S
C2251 C2255 1.400 . S
C2252 H2237 0.960 . S
C2252 H2238 0.960 . S
C2252 H2239 0.960 . S
C2252 C2251 1.524 . S
C2253 C2250 1.403 . S
C2253 C2254 1.392 . S
C2253 C2257 1.495 . S
C2254 C2253 1.392 . S
C2254 C2255 1.385 . S
C2254 C2256 1.478 . S
C2255 H2249 0.930 . S
C2255 C2251 1.400 . S
C2255 C2254 1.385 . S
C2256 C2254 1.478 . S
C2256 C2258 1.381 . S
C2256 C2262 1.383 . S
C2257 C2253 1.495 . S
C2257 H2263 0.959 . S
C2257 H2264 0.961 . S
C2257 H2265 0.960 . S
C2258 C2256 1.381 . S
C2258 C2259 1.394 . S
C2258 H2266 0.930 . S
C2259 C2258 1.394 . S
C2259 C2260 1.383 . S
C2259 H2267 0.929 . S
C2260 C2259 1.383 . S
C2260 C2261 1.377 . S
C2261 H2245 0.930 . S
C2261 C2260 1.377 . S
C2261 C2262 1.379 . S
C2262 H2246 0.931 . S
C2262 C2256 1.383 . S
C2262 C2261 1.379 . S
H2263 C2257 0.959 . S
H2264 C2257 0.961 . S
H2265 C2257 0.960 . S
H2266 C2258 0.930 . S
H2267 C2259 0.929 . S
H2268 C2276 0.929 . S
H2269 C2278 0.930 . S
H2270 C2280 0.930 . S
H2271 C2283 0.929 . S
H2272 C2286 0.930 . S
H2273 C2288 0.960 . S
H2274 C2288 0.960 . S
H2275 C2288 0.960 . S
C2276 H2268 0.929 . S
C2276 C2277 1.377 . S
C2276 C2278 1.384 . S
C2277 C2276 1.377 . S
C2277 C2283 1.390 . S
C2278 H2269 0.930 . S
C2278 C2276 1.384 . S
C2278 C2279 1.372 . S
C2279 C2278 1.372 . S
C2279 C2280 1.400 . S
C2279 C2284 1.490 . S
C2280 H2270 0.930 . S
C2280 C2279 1.400 . S
C2280 C2283 1.386 . S
H2281 C2297 0.930 . S
H2282 C2298 0.931 . S
C2283 H2271 0.929 . S
C2283 C2277 1.390 . S
C2283 C2280 1.386 . S
C2284 C2279 1.490 . S
C2284 C2286 1.395 . S
C2284 C2287 1.403 . S
H2285 C2291 0.930 . S
C2286 H2272 0.930 . S
C2286 C2284 1.395 . S
C2286 C2289 1.403 . S
C2287 C2284 1.403 . S
C2287 C2288 1.524 . S
C2287 C2291 1.400 . S
C2288 H2273 0.960 . S
C2288 H2274 0.960 . S
C2288 H2275 0.960 . S
C2288 C2287 1.524 . S
C2289 C2286 1.403 . S
C2289 C2290 1.392 . S
C2289 C2293 1.495 . S
C2290 C2289 1.392 . S
C2290 C2291 1.385 . S
C2290 C2292 1.478 . S
C2291 H2285 0.930 . S
C2291 C2287 1.400 . S
C2291 C2290 1.385 . S
C2292 C2290 1.478 . S
C2292 C2294 1.381 . S
C2292 C2298 1.383 . S
C2293 C2289 1.495 . S
C2293 H2299 0.959 . S
C2293 H2300 0.961 . S
C2293 H2301 0.960 . S
C2294 C2292 1.381 . S
C2294 C2295 1.394 . S
C2294 H2302 0.930 . S
C2295 C2294 1.394 . S
C2295 C2296 1.383 . S
C2295 H2303 0.929 . S
C2296 C2295 1.383 . S
C2296 C2297 1.377 . S
C2297 H2281 0.930 . S
C2297 C2296 1.377 . S
C2297 C2298 1.379 . S
C2298 H2282 0.931 . S
C2298 C2292 1.383 . S
C2298 C2297 1.379 . S
H2299 C2293 0.959 . S
H2300 C2293 0.961 . S
H2301 C2293 0.960 . S
H2302 C2294 0.930 . S
H2303 C2295 0.929 . S
H2304 C2312 0.929 . S
H2305 C2314 0.930 . S
H2306 C2316 0.930 . S
H2307 C2319 0.929 . S
H2308 C2322 0.930 . S
H2309 C2324 0.960 . S
H2310 C2324 0.960 . S
H2311 C2324 0.960 . S
C2312 H2304 0.929 . S
C2312 C2313 1.377 . S
C2312 C2314 1.384 . S
C2313 C2312 1.377 . S
C2313 C2319 1.390 . S
C2314 H2305 0.930 . S
C2314 C2312 1.384 . S
C2314 C2315 1.372 . S
C2315 C2314 1.372 . S
C2315 C2316 1.400 . S
C2315 C2320 1.490 . S
C2316 H2306 0.930 . S
C2316 C2315 1.400 . S
C2316 C2319 1.386 . S
H2317 C2333 0.930 . S
H2318 C2334 0.931 . S
C2319 H2307 0.929 . S
C2319 C2313 1.390 . S
C2319 C2316 1.386 . S
C2320 C2315 1.490 . S
C2320 C2322 1.395 . S
C2320 C2323 1.403 . S
H2321 C2327 0.930 . S
C2322 H2308 0.930 . S
C2322 C2320 1.395 . S
C2322 C2325 1.403 . S
C2323 C2320 1.403 . S
C2323 C2324 1.524 . S
C2323 C2327 1.400 . S
C2324 H2309 0.960 . S
C2324 H2310 0.960 . S
C2324 H2311 0.960 . S
C2324 C2323 1.524 . S
C2325 C2322 1.403 . S
C2325 C2326 1.392 . S
C2325 C2329 1.495 . S
C2326 C2325 1.392 . S
C2326 C2327 1.385 . S
C2326 C2328 1.478 . S
C2327 H2321 0.930 . S
C2327 C2323 1.400 . S
C2327 C2326 1.385 . S
C2328 C2326 1.478 . S
C2328 C2330 1.381 . S
C2328 C2334 1.383 . S
C2329 C2325 1.495 . S
C2329 H2335 0.959 . S
C2329 H2336 0.961 . S
C2329 H2337 0.960 . S
C2330 C2328 1.381 . S
C2330 C2331 1.394 . S
C2330 H2338 0.930 . S
C2331 C2330 1.394 . S
C2331 C2332 1.383 . S
C2331 H2339 0.929 . S
C2332 C2331 1.383 . S
C2332 C2333 1.377 . S
C2333 H2317 0.930 . S
C2333 C2332 1.377 . S
C2333 C2334 1.379 . S
C2334 H2318 0.931 . S
C2334 C2328 1.383 . S
C2334 C2333 1.379 . S
H2335 C2329 0.959 . S
H2336 C2329 0.961 . S
H2337 C2329 0.960 . S
H2338 C2330 0.930 . S
H2339 C2331 0.929 . S
H2340 C2348 0.929 . S
H2341 C2350 0.930 . S
H2342 C2352 0.930 . S
H2343 C2355 0.929 . S
H2344 C2358 0.930 . S
H2345 C2360 0.960 . S
H2346 C2360 0.960 . S
H2347 C2360 0.960 . S
C2348 H2340 0.929 . S
C2348 C2349 1.377 . S
C2348 C2350 1.384 . S
C2349 C2348 1.377 . S
C2349 C2355 1.390 . S
C2350 H2341 0.930 . S
C2350 C2348 1.384 . S
C2350 C2351 1.372 . S
C2351 C2350 1.372 . S
C2351 C2352 1.400 . S
C2351 C2356 1.490 . S
C2352 H2342 0.930 . S
C2352 C2351 1.400 . S
C2352 C2355 1.386 . S
H2353 C2369 0.930 . S
H2354 C2370 0.931 . S
C2355 H2343 0.929 . S
C2355 C2349 1.390 . S
C2355 C2352 1.386 . S
C2356 C2351 1.490 . S
C2356 C2358 1.395 . S
C2356 C2359 1.403 . S
H2357 C2363 0.930 . S
C2358 H2344 0.930 . S
C2358 C2356 1.395 . S
C2358 C2361 1.403 . S
C2359 C2356 1.403 . S
C2359 C2360 1.524 . S
C2359 C2363 1.400 . S
C2360 H2345 0.960 . S
C2360 H2346 0.960 . S
C2360 H2347 0.960 . S
C2360 C2359 1.524 . S
C2361 C2358 1.403 . S
C2361 C2362 1.392 . S
C2361 C2365 1.495 . S
C2362 C2361 1.392 . S
C2362 C2363 1.385 . S
C2362 C2364 1.478 . S
C2363 H2357 0.930 . S
C2363 C2359 1.400 . S
C2363 C2362 1.385 . S
C2364 C2362 1.478 . S
C2364 C2366 1.381 . S
C2364 C2370 1.383 . S
C2365 C2361 1.495 . S
C2365 H2371 0.959 . S
C2365 H2372 0.961 . S
C2365 H2373 0.960 . S
C2366 C2364 1.381 . S
C2366 C2367 1.394 . S
C2366 H2374 0.930 . S
C2367 C2366 1.394 . S
C2367 C2368 1.383 . S
C2367 H2375 0.929 . S
C2368 C2367 1.383 . S
C2368 C2369 1.377 . S
C2369 H2353 0.930 . S
C2369 C2368 1.377 . S
C2369 C2370 1.379 . S
C2370 H2354 0.931 . S
C2370 C2364 1.383 . S
C2370 C2369 1.379 . S
H2371 C2365 0.959 . S
H2372 C2365 0.961 . S
H2373 C2365 0.960 . S
H2374 C2366 0.930 . S
H2375 C2367 0.929 . S
H2376 C2384 0.929 . S
H2377 C2386 0.930 . S
H2378 C2388 0.930 . S
H2379 C2391 0.929 . S
H2380 C2394 0.930 . S
H2381 C2396 0.960 . S
H2382 C2396 0.960 . S
H2383 C2396 0.960 . S
C2384 H2376 0.929 . S
C2384 C2385 1.377 . S
C2384 C2386 1.384 . S
C2385 C2384 1.377 . S
C2385 C2391 1.390 . S
C2386 H2377 0.930 . S
C2386 C2384 1.384 . S
C2386 C2387 1.372 . S
C2387 C2386 1.372 . S
C2387 C2388 1.400 . S
C2387 C2392 1.490 . S
C2388 H2378 0.930 . S
C2388 C2387 1.400 . S
C2388 C2391 1.386 . S
H2389 C2405 0.930 . S
H2390 C2406 0.931 . S
C2391 H2379 0.929 . S
C2391 C2385 1.390 . S
C2391 C2388 1.386 . S
C2392 C2387 1.490 . S
C2392 C2394 1.395 . S
C2392 C2395 1.403 . S
H2393 C2399 0.930 . S
C2394 H2380 0.930 . S
C2394 C2392 1.395 . S
C2394 C2397 1.403 . S
C2395 C2392 1.403 . S
C2395 C2396 1.524 . S
C2395 C2399 1.400 . S
C2396 H2381 0.960 . S
C2396 H2382 0.960 . S
C2396 H2383 0.960 . S
C2396 C2395 1.524 . S
C2397 C2394 1.403 . S
C2397 C2398 1.392 . S
C2397 C2401 1.495 . S
C2398 C2397 1.392 . S
C2398 C2399 1.385 . S
C2398 C2400 1.478 . S
C2399 H2393 0.930 . S
C2399 C2395 1.400 . S
C2399 C2398 1.385 . S
C2400 C2398 1.478 . S
C2400 C2402 1.381 . S
C2400 C2406 1.383 . S
C2401 C2397 1.495 . S
C2401 H2407 0.959 . S
C2401 H2408 0.961 . S
C2401 H2409 0.960 . S
C2402 C2400 1.381 . S
C2402 C2403 1.394 . S
C2402 H2410 0.930 . S
C2403 C2402 1.394 . S
C2403 C2404 1.383 . S
C2403 H2411 0.929 . S
C2404 C2403 1.383 . S
C2404 C2405 1.377 . S
C2405 H2389 0.930 . S
C2405 C2404 1.377 . S
C2405 C2406 1.379 . S
C2406 H2390 0.931 . S
C2406 C2400 1.383 . S
C2406 C2405 1.379 . S
H2407 C2401 0.959 . S
H2408 C2401 0.961 . S
H2409 C2401 0.960 . S
H2410 C2402 0.930 . S
H2411 C2403 0.929 . S
H2412 C2420 0.929 . S
H2413 C2422 0.930 . S
H2414 C2424 0.930 . S
H2415 C2427 0.929 . S
H2416 C2430 0.930 . S
H2417 C2432 0.960 . S
H2418 C2432 0.960 . S
H2419 C2432 0.960 . S
C2420 H2412 0.929 . S
C2420 C2421 1.377 . S
C2420 C2422 1.384 . S
C2421 C2420 1.377 . S
C2421 C2427 1.390 . S
C2422 H2413 0.930 . S
C2422 C2420 1.384 . S
C2422 C2423 1.372 . S
C2423 C2422 1.372 . S
C2423 C2424 1.400 . S
C2423 C2428 1.490 . S
C2424 H2414 0.930 . S
C2424 C2423 1.400 . S
C2424 C2427 1.386 . S
H2425 C2441 0.930 . S
H2426 C2442 0.931 . S
C2427 H2415 0.929 . S
C2427 C2421 1.390 . S
C2427 C2424 1.386 . S
C2428 C2423 1.490 . S
C2428 C2430 1.395 . S
C2428 C2431 1.403 . S
H2429 C2435 0.930 . S
C2430 H2416 0.930 . S
C2430 C2428 1.395 . S
C2430 C2433 1.403 . S
C2431 C2428 1.403 . S
C2431 C2432 1.524 . S
C2431 C2435 1.400 . S
C2432 H2417 0.960 . S
C2432 H2418 0.960 . S
C2432 H2419 0.960 . S
C2432 C2431 1.524 . S
C2433 C2430 1.403 . S
C2433 C2434 1.392 . S
C2433 C2437 1.495 . S
C2434 C2433 1.392 . S
C2434 C2435 1.385 . S
C2434 C2436 1.478 . S
C2435 H2429 0.930 . S
C2435 C2431 1.400 . S
C2435 C2434 1.385 . S
C2436 C2434 1.478 . S
C2436 C2438 1.381 . S
C2436 C2442 1.383 . S
C2437 C2433 1.495 . S
C2437 H2443 0.959 . S
C2437 H2444 0.961 . S
C2437 H2445 0.960 . S
C2438 C2436 1.381 . S
C2438 C2439 1.394 . S
C2438 H2446 0.930 . S
C2439 C2438 1.394 . S
C2439 C2440 1.383 . S
C2439 H2447 0.929 . S
C2440 C2439 1.383 . S
C2440 C2441 1.377 . S
C2441 H2425 0.930 . S
C2441 C2440 1.377 . S
C2441 C2442 1.379 . S
C2442 H2426 0.931 . S
C2442 C2436 1.383 . S
C2442 C2441 1.379 . S
H2443 C2437 0.959 . S
H2444 C2437 0.961 . S
H2445 C2437 0.960 . S
H2446 C2438 0.930 . S
H2447 C2439 0.929 . S
H2448 C2456 0.929 . S
H2449 C2458 0.930 . S
H2450 C2460 0.930 . S
H2451 C2463 0.929 . S
H2452 C2466 0.930 . S
H2453 C2468 0.960 . S
H2454 C2468 0.960 . S
H2455 C2468 0.960 . S
C2456 H2448 0.929 . S
C2456 C2457 1.377 . S
C2456 C2458 1.384 . S
C2457 C2456 1.377 . S
C2457 C2463 1.390 . S
C2458 H2449 0.930 . S
C2458 C2456 1.384 . S
C2458 C2459 1.372 . S
C2459 C2458 1.372 . S
C2459 C2460 1.400 . S
C2459 C2464 1.490 . S
C2460 H2450 0.930 . S
C2460 C2459 1.400 . S
C2460 C2463 1.386 . S
H2461 C2477 0.930 . S
H2462 C2478 0.931 . S
C2463 H2451 0.929 . S
C2463 C2457 1.390 . S
C2463 C2460 1.386 . S
C2464 C2459 1.490 . S
C2464 C2466 1.395 . S
C2464 C2467 1.403 . S
H2465 C2471 0.930 . S
C2466 H2452 0.930 . S
C2466 C2464 1.395 . S
C2466 C2469 1.403 . S
C2467 C2464 1.403 . S
C2467 C2468 1.524 . S
C2467 C2471 1.400 . S
C2468 H2453 0.960 . S
C2468 H2454 0.960 . S
C2468 H2455 0.960 . S
C2468 C2467 1.524 . S
C2469 C2466 1.403 . S
C2469 C2470 1.392 . S
C2469 C2473 1.495 . S
C2470 C2469 1.392 . S
C2470 C2471 1.385 . S
C2470 C2472 1.478 . S
C2471 H2465 0.930 . S
C2471 C2467 1.400 . S
C2471 C2470 1.385 . S
C2472 C2470 1.478 . S
C2472 C2474 1.381 . S
C2472 C2478 1.383 . S
C2473 C2469 1.495 . S
C2473 H2479 0.959 . S
C2473 H2480 0.961 . S
C2473 H2481 0.960 . S
C2474 C2472 1.381 . S
C2474 C2475 1.394 . S
C2474 H2482 0.930 . S
C2475 C2474 1.394 . S
C2475 C2476 1.383 . S
C2475 H2483 0.929 . S
C2476 C2475 1.383 . S
C2476 C2477 1.377 . S
C2477 H2461 0.930 . S
C2477 C2476 1.377 . S
C2477 C2478 1.379 . S
C2478 H2462 0.931 . S
C2478 C2472 1.383 . S
C2478 C2477 1.379 . S
H2479 C2473 0.959 . S
H2480 C2473 0.961 . S
H2481 C2473 0.960 . S
H2482 C2474 0.930 . S
H2483 C2475 0.929 . S
H2484 C2492 0.929 . S
H2485 C2494 0.930 . S
H2486 C2496 0.930 . S
H2487 C2499 0.929 . S
H2488 C2502 0.930 . S
H2489 C2504 0.960 . S
H2490 C2504 0.960 . S
H2491 C2504 0.960 . S
C2492 H2484 0.929 . S
C2492 C2493 1.377 . S
C2492 C2494 1.384 . S
C2493 C2492 1.377 . S
C2493 C2499 1.390 . S
C2494 H2485 0.930 . S
C2494 C2492 1.384 . S
C2494 C2495 1.372 . S
C2495 C2494 1.372 . S
C2495 C2496 1.400 . S
C2495 C2500 1.490 . S
C2496 H2486 0.930 . S
C2496 C2495 1.400 . S
C2496 C2499 1.386 . S
H2497 C2513 0.930 . S
H2498 C2514 0.931 . S
C2499 H2487 0.929 . S
C2499 C2493 1.390 . S
C2499 C2496 1.386 . S
C2500 C2495 1.490 . S
C2500 C2502 1.395 . S
C2500 C2503 1.403 . S
H2501 C2507 0.930 . S
C2502 H2488 0.930 . S
C2502 C2500 1.395 . S
C2502 C2505 1.403 . S
C2503 C2500 1.403 . S
C2503 C2504 1.524 . S
C2503 C2507 1.400 . S
C2504 H2489 0.960 . S
C2504 H2490 0.960 . S
C2504 H2491 0.960 . S
C2504 C2503 1.524 . S
C2505 C2502 1.403 . S
C2505 C2506 1.392 . S
C2505 C2509 1.495 . S
C2506 C2505 1.392 . S
C2506 C2507 1.385 . S
C2506 C2508 1.478 . S
C2507 H2501 0.930 . S
C2507 C2503 1.400 . S
C2507 C2506 1.385 . S
C2508 C2506 1.478 . S
C2508 C2510 1.381 . S
C2508 C2514 1.383 . S
C2509 C2505 1.495 . S
C2509 H2515 0.959 . S
C2509 H2516 0.961 . S
C2509 H2517 0.960 . S
C2510 C2508 1.381 . S
C2510 C2511 1.394 . S
C2510 H2518 0.930 . S
C2511 C2510 1.394 . S
C2511 C2512 1.383 . S
C2511 H2519 0.929 . S
C2512 C2511 1.383 . S
C2512 C2513 1.377 . S
C2513 H2497 0.930 . S
C2513 C2512 1.377 . S
C2513 C2514 1.379 . S
C2514 H2498 0.931 . S
C2514 C2508 1.383 . S
C2514 C2513 1.379 . S
H2515 C2509 0.959 . S
H2516 C2509 0.961 . S
H2517 C2509 0.960 . S
H2518 C2510 0.930 . S
H2519 C2511 0.929 . S
H2520 C2528 0.929 . S
H2521 C2530 0.930 . S
H2522 C2532 0.930 . S
H2523 C2535 0.929 . S
H2524 C2538 0.930 . S
H2525 C2540 0.960 . S
H2526 C2540 0.960 . S
H2527 C2540 0.960 . S
C2528 H2520 0.929 . S
C2528 C2529 1.377 . S
C2528 C2530 1.384 . S
C2529 C2528 1.377 . S
C2529 C2535 1.390 . S
C2530 H2521 0.930 . S
C2530 C2528 1.384 . S
C2530 C2531 1.372 . S
C2531 C2530 1.372 . S
C2531 C2532 1.400 . S
C2531 C2536 1.490 . S
C2532 H2522 0.930 . S
C2532 C2531 1.400 . S
C2532 C2535 1.386 . S
H2533 C2549 0.930 . S
H2534 C2550 0.931 . S
C2535 H2523 0.929 . S
C2535 C2529 1.390 . S
C2535 C2532 1.386 . S
C2536 C2531 1.490 . S
C2536 C2538 1.395 . S
C2536 C2539 1.403 . S
H2537 C2543 0.930 . S
C2538 H2524 0.930 . S
C2538 C2536 1.395 . S
C2538 C2541 1.403 . S
C2539 C2536 1.403 . S
C2539 C2540 1.524 . S
C2539 C2543 1.400 . S
C2540 H2525 0.960 . S
C2540 H2526 0.960 . S
C2540 H2527 0.960 . S
C2540 C2539 1.524 . S
C2541 C2538 1.403 . S
C2541 C2542 1.392 . S
C2541 C2545 1.495 . S
C2542 C2541 1.392 . S
C2542 C2543 1.385 . S
C2542 C2544 1.478 . S
C2543 H2537 0.930 . S
C2543 C2539 1.400 . S
C2543 C2542 1.385 . S
C2544 C2542 1.478 . S
C2544 C2546 1.381 . S
C2544 C2550 1.383 . S
C2545 C2541 1.495 . S
C2545 H2551 0.959 . S
C2545 H2552 0.961 . S
C2545 H2553 0.960 . S
C2546 C2544 1.381 . S
C2546 C2547 1.394 . S
C2546 H2554 0.930 . S
C2547 C2546 1.394 . S
C2547 C2548 1.383 . S
C2547 H2555 0.929 . S
C2548 C2547 1.383 . S
C2548 C2549 1.377 . S
C2549 H2533 0.930 . S
C2549 C2548 1.377 . S
C2549 C2550 1.379 . S
C2550 H2534 0.931 . S
C2550 C2544 1.383 . S
C2550 C2549 1.379 . S
H2551 C2545 0.959 . S
H2552 C2545 0.961 . S
H2553 C2545 0.960 . S
H2554 C2546 0.930 . S
H2555 C2547 0.929 . S
H2556 C2564 0.929 . S
H2557 C2566 0.930 . S
H2558 C2568 0.930 . S
H2559 C2571 0.929 . S
H2560 C2574 0.930 . S
H2561 C2576 0.960 . S
H2562 C2576 0.960 . S
H2563 C2576 0.960 . S
C2564 H2556 0.929 . S
C2564 C2565 1.377 . S
C2564 C2566 1.384 . S
C2565 C2564 1.377 . S
C2565 C2571 1.390 . S
C2566 H2557 0.930 . S
C2566 C2564 1.384 . S
C2566 C2567 1.372 . S
C2567 C2566 1.372 . S
C2567 C2568 1.400 . S
C2567 C2572 1.490 . S
C2568 H2558 0.930 . S
C2568 C2567 1.400 . S
C2568 C2571 1.386 . S
H2569 C2585 0.930 . S
H2570 C2586 0.931 . S
C2571 H2559 0.929 . S
C2571 C2565 1.390 . S
C2571 C2568 1.386 . S
C2572 C2567 1.490 . S
C2572 C2574 1.395 . S
C2572 C2575 1.403 . S
H2573 C2579 0.930 . S
C2574 H2560 0.930 . S
C2574 C2572 1.395 . S
C2574 C2577 1.403 . S
C2575 C2572 1.403 . S
C2575 C2576 1.524 . S
C2575 C2579 1.400 . S
C2576 H2561 0.960 . S
C2576 H2562 0.960 . S
C2576 H2563 0.960 . S
C2576 C2575 1.524 . S
C2577 C2574 1.403 . S
C2577 C2578 1.392 . S
C2577 C2581 1.495 . S
C2578 C2577 1.392 . S
C2578 C2579 1.385 . S
C2578 C2580 1.478 . S
C2579 H2573 0.930 . S
C2579 C2575 1.400 . S
C2579 C2578 1.385 . S
C2580 C2578 1.478 . S
C2580 C2582 1.381 . S
C2580 C2586 1.383 . S
C2581 C2577 1.495 . S
C2581 H2587 0.959 . S
C2581 H2588 0.961 . S
C2581 H2589 0.960 . S
C2582 C2580 1.381 . S
C2582 C2583 1.394 . S
C2582 H2590 0.930 . S
C2583 C2582 1.394 . S
C2583 C2584 1.383 . S
C2583 H2591 0.929 . S
C2584 C2583 1.383 . S
C2584 C2585 1.377 . S
C2585 H2569 0.930 . S
C2585 C2584 1.377 . S
C2585 C2586 1.379 . S
C2586 H2570 0.931 . S
C2586 C2580 1.383 . S
C2586 C2585 1.379 . S
H2587 C2581 0.959 . S
H2588 C2581 0.961 . S
H2589 C2581 0.960 . S
H2590 C2582 0.930 . S
H2591 C2583 0.929 . S
H2592 C2600 0.929 . S
H2593 C2602 0.930 . S
H2594 C2604 0.930 . S
H2595 C2607 0.929 . S
H2596 C2610 0.930 . S
H2597 C2612 0.960 . S
H2598 C2612 0.960 . S
H2599 C2612 0.960 . S
C2600 H2592 0.929 . S
C2600 C2601 1.377 . S
C2600 C2602 1.384 . S
C2601 C2600 1.377 . S
C2601 C2607 1.390 . S
C2602 H2593 0.930 . S
C2602 C2600 1.384 . S
C2602 C2603 1.372 . S
C2603 C2602 1.372 . S
C2603 C2604 1.400 . S
C2603 C2608 1.490 . S
C2604 H2594 0.930 . S
C2604 C2603 1.400 . S
C2604 C2607 1.386 . S
H2605 C2621 0.930 . S
H2606 C2622 0.931 . S
C2607 H2595 0.929 . S
C2607 C2601 1.390 . S
C2607 C2604 1.386 . S
C2608 C2603 1.490 . S
C2608 C2610 1.395 . S
C2608 C2611 1.403 . S
H2609 C2615 0.930 . S
C2610 H2596 0.930 . S
C2610 C2608 1.395 . S
C2610 C2613 1.403 . S
C2611 C2608 1.403 . S
C2611 C2612 1.524 . S
C2611 C2615 1.400 . S
C2612 H2597 0.960 . S
C2612 H2598 0.960 . S
C2612 H2599 0.960 . S
C2612 C2611 1.524 . S
C2613 C2610 1.403 . S
C2613 C2614 1.392 . S
C2613 C2617 1.495 . S
C2614 C2613 1.392 . S
C2614 C2615 1.385 . S
C2614 C2616 1.478 . S
C2615 H2609 0.930 . S
C2615 C2611 1.400 . S
C2615 C2614 1.385 . S
C2616 C2614 1.478 . S
C2616 C2618 1.381 . S
C2616 C2622 1.383 . S
C2617 C2613 1.495 . S
C2617 H2623 0.959 . S
C2617 H2624 0.961 . S
C2617 H2625 0.960 . S
C2618 C2616 1.381 . S
C2618 C2619 1.394 . S
C2618 H2626 0.930 . S
C2619 C2618 1.394 . S
C2619 C2620 1.383 . S
C2619 H2627 0.929 . S
C2620 C2619 1.383 . S
C2620 C2621 1.377 . S
C2621 H2605 0.930 . S
C2621 C2620 1.377 . S
C2621 C2622 1.379 . S
C2622 H2606 0.931 . S
C2622 C2616 1.383 . S
C2622 C2621 1.379 . S
H2623 C2617 0.959 . S
H2624 C2617 0.961 . S
H2625 C2617 0.960 . S
H2626 C2618 0.930 . S
H2627 C2619 0.929 . S
H2628 C2636 0.929 . S
H2629 C2638 0.930 . S
H2630 C2640 0.930 . S
H2631 C2643 0.929 . S
H2632 C2646 0.930 . S
H2633 C2648 0.960 . S
H2634 C2648 0.960 . S
H2635 C2648 0.960 . S
C2636 H2628 0.929 . S
C2636 C2637 1.377 . S
C2636 C2638 1.384 . S
C2637 C2636 1.377 . S
C2637 C2643 1.390 . S
C2638 H2629 0.930 . S
C2638 C2636 1.384 . S
C2638 C2639 1.372 . S
C2639 C2638 1.372 . S
C2639 C2640 1.400 . S
C2639 C2644 1.490 . S
C2640 H2630 0.930 . S
C2640 C2639 1.400 . S
C2640 C2643 1.386 . S
H2641 C2657 0.930 . S
H2642 C2658 0.931 . S
C2643 H2631 0.929 . S
C2643 C2637 1.390 . S
C2643 C2640 1.386 . S
C2644 C2639 1.490 . S
C2644 C2646 1.395 . S
C2644 C2647 1.403 . S
H2645 C2651 0.930 . S
C2646 H2632 0.930 . S
C2646 C2644 1.395 . S
C2646 C2649 1.403 . S
C2647 C2644 1.403 . S
C2647 C2648 1.524 . S
C2647 C2651 1.400 . S
C2648 H2633 0.960 . S
C2648 H2634 0.960 . S
C2648 H2635 0.960 . S
C2648 C2647 1.524 . S
C2649 C2646 1.403 . S
C2649 C2650 1.392 . S
C2649 C2653 1.495 . S
C2650 C2649 1.392 . S
C2650 C2651 1.385 . S
C2650 C2652 1.478 . S
C2651 H2645 0.930 . S
C2651 C2647 1.400 . S
C2651 C2650 1.385 . S
C2652 C2650 1.478 . S
C2652 C2654 1.381 . S
C2652 C2658 1.383 . S
C2653 C2649 1.495 . S
C2653 H2659 0.959 . S
C2653 H2660 0.961 . S
C2653 H2661 0.960 . S
C2654 C2652 1.381 . S
C2654 C2655 1.394 . S
C2654 H2662 0.930 . S
C2655 C2654 1.394 . S
C2655 C2656 1.383 . S
C2655 H2663 0.929 . S
C2656 C2655 1.383 . S
C2656 C2657 1.377 . S
C2657 H2641 0.930 . S
C2657 C2656 1.377 . S
C2657 C2658 1.379 . S
C2658 H2642 0.931 . S
C2658 C2652 1.383 . S
C2658 C2657 1.379 . S
H2659 C2653 0.959 . S
H2660 C2653 0.961 . S
H2661 C2653 0.960 . S
H2662 C2654 0.930 . S
H2663 C2655 0.929 . S
H2664 C2672 0.929 . S
H2665 C2674 0.930 . S
H2666 C2676 0.930 . S
H2667 C2679 0.929 . S
H2668 C2682 0.930 . S
H2669 C2684 0.960 . S
H2670 C2684 0.960 . S
H2671 C2684 0.960 . S
C2672 H2664 0.929 . S
C2672 C2673 1.377 . S
C2672 C2674 1.384 . S
C2673 C2672 1.377 . S
C2673 C2679 1.390 . S
C2674 H2665 0.930 . S
C2674 C2672 1.384 . S
C2674 C2675 1.372 . S
C2675 C2674 1.372 . S
C2675 C2676 1.400 . S
C2675 C2680 1.490 . S
C2676 H2666 0.930 . S
C2676 C2675 1.400 . S
C2676 C2679 1.386 . S
H2677 C2693 0.930 . S
H2678 C2694 0.931 . S
C2679 H2667 0.929 . S
C2679 C2673 1.390 . S
C2679 C2676 1.386 . S
C2680 C2675 1.490 . S
C2680 C2682 1.395 . S
C2680 C2683 1.403 . S
H2681 C2687 0.930 . S
C2682 H2668 0.930 . S
C2682 C2680 1.395 . S
C2682 C2685 1.403 . S
C2683 C2680 1.403 . S
C2683 C2684 1.524 . S
C2683 C2687 1.400 . S
C2684 H2669 0.960 . S
C2684 H2670 0.960 . S
C2684 H2671 0.960 . S
C2684 C2683 1.524 . S
C2685 C2682 1.403 . S
C2685 C2686 1.392 . S
C2685 C2689 1.495 . S
C2686 C2685 1.392 . S
C2686 C2687 1.385 . S
C2686 C2688 1.478 . S
C2687 H2681 0.930 . S
C2687 C2683 1.400 . S
C2687 C2686 1.385 . S
C2688 C2686 1.478 . S
C2688 C2690 1.381 . S
C2688 C2694 1.383 . S
C2689 C2685 1.495 . S
C2689 H2695 0.959 . S
C2689 H2696 0.961 . S
C2689 H2697 0.960 . S
C2690 C2688 1.381 . S
C2690 C2691 1.394 . S
C2690 H2698 0.930 . S
C2691 C2690 1.394 . S
C2691 C2692 1.383 . S
C2691 H2699 0.929 . S
C2692 C2691 1.383 . S
C2692 C2693 1.377 . S
C2693 H2677 0.930 . S
C2693 C2692 1.377 . S
C2693 C2694 1.379 . S
C2694 H2678 0.931 . S
C2694 C2688 1.383 . S
C2694 C2693 1.379 . S
H2695 C2689 0.959 . S
H2696 C2689 0.961 . S
H2697 C2689 0.960 . S
H2698 C2690 0.930 . S
H2699 C2691 0.929 . S
H2700 C2708 0.929 . S
H2701 C2710 0.930 . S
H2702 C2712 0.930 . S
H2703 C2715 0.929 . S
H2704 C2718 0.930 . S
H2705 C2720 0.960 . S
H2706 C2720 0.960 . S
H2707 C2720 0.960 . S
C2708 H2700 0.929 . S
C2708 C2709 1.377 . S
C2708 C2710 1.384 . S
C2709 C2708 1.377 . S
C2709 C2715 1.390 . S
C2710 H2701 0.930 . S
C2710 C2708 1.384 . S
C2710 C2711 1.372 . S
C2711 C2710 1.372 . S
C2711 C2712 1.400 . S
C2711 C2716 1.490 . S
C2712 H2702 0.930 . S
C2712 C2711 1.400 . S
C2712 C2715 1.386 . S
H2713 C2729 0.930 . S
H2714 C2730 0.931 . S
C2715 H2703 0.929 . S
C2715 C2709 1.390 . S
C2715 C2712 1.386 . S
C2716 C2711 1.490 . S
C2716 C2718 1.395 . S
C2716 C2719 1.403 . S
H2717 C2723 0.930 . S
C2718 H2704 0.930 . S
C2718 C2716 1.395 . S
C2718 C2721 1.403 . S
C2719 C2716 1.403 . S
C2719 C2720 1.524 . S
C2719 C2723 1.400 . S
C2720 H2705 0.960 . S
C2720 H2706 0.960 . S
C2720 H2707 0.960 . S
C2720 C2719 1.524 . S
C2721 C2718 1.403 . S
C2721 C2722 1.392 . S
C2721 C2725 1.495 . S
C2722 C2721 1.392 . S
C2722 C2723 1.385 . S
C2722 C2724 1.478 . S
C2723 H2717 0.930 . S
C2723 C2719 1.400 . S
C2723 C2722 1.385 . S
C2724 C2722 1.478 . S
C2724 C2726 1.381 . S
C2724 C2730 1.383 . S
C2725 C2721 1.495 . S
C2725 H2731 0.959 . S
C2725 H2732 0.961 . S
C2725 H2733 0.960 . S
C2726 C2724 1.381 . S
C2726 C2727 1.394 . S
C2726 H2734 0.930 . S
C2727 C2726 1.394 . S
C2727 C2728 1.383 . S
C2727 H2735 0.929 . S
C2728 C2727 1.383 . S
C2728 C2729 1.377 . S
C2729 H2713 0.930 . S
C2729 C2728 1.377 . S
C2729 C2730 1.379 . S
C2730 H2714 0.931 . S
C2730 C2724 1.383 . S
C2730 C2729 1.379 . S
H2731 C2725 0.959 . S
H2732 C2725 0.961 . S
H2733 C2725 0.960 . S
H2734 C2726 0.930 . S
H2735 C2727 0.929 . S
H2736 C2744 0.929 . S
H2737 C2746 0.930 . S
H2738 C2748 0.930 . S
H2739 C2751 0.929 . S
H2740 C2754 0.930 . S
H2741 C2756 0.960 . S
H2742 C2756 0.960 . S
H2743 C2756 0.960 . S
C2744 H2736 0.929 . S
C2744 C2745 1.377 . S
C2744 C2746 1.384 . S
C2745 C2744 1.377 . S
C2745 C2751 1.390 . S
C2746 H2737 0.930 . S
C2746 C2744 1.384 . S
C2746 C2747 1.372 . S
C2747 C2746 1.372 . S
C2747 C2748 1.400 . S
C2747 C2752 1.490 . S
C2748 H2738 0.930 . S
C2748 C2747 1.400 . S
C2748 C2751 1.386 . S
H2749 C2765 0.930 . S
H2750 C2766 0.931 . S
C2751 H2739 0.929 . S
C2751 C2745 1.390 . S
C2751 C2748 1.386 . S
C2752 C2747 1.490 . S
C2752 C2754 1.395 . S
C2752 C2755 1.403 . S
H2753 C2759 0.930 . S
C2754 H2740 0.930 . S
C2754 C2752 1.395 . S
C2754 C2757 1.403 . S
C2755 C2752 1.403 . S
C2755 C2756 1.524 . S
C2755 C2759 1.400 . S
C2756 H2741 0.960 . S
C2756 H2742 0.960 . S
C2756 H2743 0.960 . S
C2756 C2755 1.524 . S
C2757 C2754 1.403 . S
C2757 C2758 1.392 . S
C2757 C2761 1.495 . S
C2758 C2757 1.392 . S
C2758 C2759 1.385 . S
C2758 C2760 1.478 . S
C2759 H2753 0.930 . S
C2759 C2755 1.400 . S
C2759 C2758 1.385 . S
C2760 C2758 1.478 . S
C2760 C2762 1.381 . S
C2760 C2766 1.383 . S
C2761 C2757 1.495 . S
C2761 H2767 0.959 . S
C2761 H2768 0.961 . S
C2761 H2769 0.960 . S
C2762 C2760 1.381 . S
C2762 C2763 1.394 . S
C2762 H2770 0.930 . S
C2763 C2762 1.394 . S
C2763 C2764 1.383 . S
C2763 H2771 0.929 . S
C2764 C2763 1.383 . S
C2764 C2765 1.377 . S
C2765 H2749 0.930 . S
C2765 C2764 1.377 . S
C2765 C2766 1.379 . S
C2766 H2750 0.931 . S
C2766 C2760 1.383 . S
C2766 C2765 1.379 . S
H2767 C2761 0.959 . S
H2768 C2761 0.961 . S
H2769 C2761 0.960 . S
H2770 C2762 0.930 . S
H2771 C2763 0.929 . S
H2772 C2780 0.929 . S
H2773 C2782 0.930 . S
H2774 C2784 0.930 . S
H2775 C2787 0.929 . S
H2776 C2790 0.930 . S
H2777 C2792 0.960 . S
H2778 C2792 0.960 . S
H2779 C2792 0.960 . S
C2780 H2772 0.929 . S
C2780 C2781 1.377 . S
C2780 C2782 1.384 . S
C2781 C2780 1.377 . S
C2781 C2787 1.390 . S
C2782 H2773 0.930 . S
C2782 C2780 1.384 . S
C2782 C2783 1.372 . S
C2783 C2782 1.372 . S
C2783 C2784 1.400 . S
C2783 C2788 1.490 . S
C2784 H2774 0.930 . S
C2784 C2783 1.400 . S
C2784 C2787 1.386 . S
H2785 C2801 0.930 . S
H2786 C2802 0.931 . S
C2787 H2775 0.929 . S
C2787 C2781 1.390 . S
C2787 C2784 1.386 . S
C2788 C2783 1.490 . S
C2788 C2790 1.395 . S
C2788 C2791 1.403 . S
H2789 C2795 0.930 . S
C2790 H2776 0.930 . S
C2790 C2788 1.395 . S
C2790 C2793 1.403 . S
C2791 C2788 1.403 . S
C2791 C2792 1.524 . S
C2791 C2795 1.400 . S
C2792 H2777 0.960 . S
C2792 H2778 0.960 . S
C2792 H2779 0.960 . S
C2792 C2791 1.524 . S
C2793 C2790 1.403 . S
C2793 C2794 1.392 . S
C2793 C2797 1.495 . S
C2794 C2793 1.392 . S
C2794 C2795 1.385 . S
C2794 C2796 1.478 . S
C2795 H2789 0.930 . S
C2795 C2791 1.400 . S
C2795 C2794 1.385 . S
C2796 C2794 1.478 . S
C2796 C2798 1.381 . S
C2796 C2802 1.383 . S
C2797 C2793 1.495 . S
C2797 H2803 0.959 . S
C2797 H2804 0.961 . S
C2797 H2805 0.960 . S
C2798 C2796 1.381 . S
C2798 C2799 1.394 . S
C2798 H2806 0.930 . S
C2799 C2798 1.394 . S
C2799 C2800 1.383 . S
C2799 H2807 0.929 . S
C2800 C2799 1.383 . S
C2800 C2801 1.377 . S
C2801 H2785 0.930 . S
C2801 C2800 1.377 . S
C2801 C2802 1.379 . S
C2802 H2786 0.931 . S
C2802 C2796 1.383 . S
C2802 C2801 1.379 . S
H2803 C2797 0.959 . S
H2804 C2797 0.961 . S
H2805 C2797 0.960 . S
H2806 C2798 0.930 . S
H2807 C2799 0.929 . S
H2808 C2816 0.929 . S
H2809 C2818 0.930 . S
H2810 C2820 0.930 . S
H2811 C2823 0.929 . S
H2812 C2826 0.930 . S
H2813 C2828 0.960 . S
H2814 C2828 0.960 . S
H2815 C2828 0.960 . S
C2816 H2808 0.929 . S
C2816 C2817 1.377 . S
C2816 C2818 1.384 . S
C2817 C2816 1.377 . S
C2817 C2823 1.390 . S
C2818 H2809 0.930 . S
C2818 C2816 1.384 . S
C2818 C2819 1.372 . S
C2819 C2818 1.372 . S
C2819 C2820 1.400 . S
C2819 C2824 1.490 . S
C2820 H2810 0.930 . S
C2820 C2819 1.400 . S
C2820 C2823 1.386 . S
H2821 C2837 0.930 . S
H2822 C2838 0.931 . S
C2823 H2811 0.929 . S
C2823 C2817 1.390 . S
C2823 C2820 1.386 . S
C2824 C2819 1.490 . S
C2824 C2826 1.395 . S
C2824 C2827 1.403 . S
H2825 C2831 0.930 . S
C2826 H2812 0.930 . S
C2826 C2824 1.395 . S
C2826 C2829 1.403 . S
C2827 C2824 1.403 . S
C2827 C2828 1.524 . S
C2827 C2831 1.400 . S
C2828 H2813 0.960 . S
C2828 H2814 0.960 . S
C2828 H2815 0.960 . S
C2828 C2827 1.524 . S
C2829 C2826 1.403 . S
C2829 C2830 1.392 . S
C2829 C2833 1.495 . S
C2830 C2829 1.392 . S
C2830 C2831 1.385 . S
C2830 C2832 1.478 . S
C2831 H2825 0.930 . S
C2831 C2827 1.400 . S
C2831 C2830 1.385 . S
C2832 C2830 1.478 . S
C2832 C2834 1.381 . S
C2832 C2838 1.383 . S
C2833 C2829 1.495 . S
C2833 H2839 0.959 . S
C2833 H2840 0.961 . S
C2833 H2841 0.960 . S
C2834 C2832 1.381 . S
C2834 C2835 1.394 . S
C2834 H2842 0.930 . S
C2835 C2834 1.394 . S
C2835 C2836 1.383 . S
C2835 H2843 0.929 . S
C2836 C2835 1.383 . S
C2836 C2837 1.377 . S
C2837 H2821 0.930 . S
C2837 C2836 1.377 . S
C2837 C2838 1.379 . S
C2838 H2822 0.931 . S
C2838 C2832 1.383 . S
C2838 C2837 1.379 . S
H2839 C2833 0.959 . S
H2840 C2833 0.961 . S
H2841 C2833 0.960 . S
H2842 C2834 0.930 . S
H2843 C2835 0.929 . S
H2844 C2852 0.929 . S
H2845 C2854 0.930 . S
H2846 C2856 0.930 . S
H2847 C2859 0.929 . S
H2848 C2862 0.930 . S
H2849 C2864 0.960 . S
H2850 C2864 0.960 . S
H2851 C2864 0.960 . S
C2852 H2844 0.929 . S
C2852 C2853 1.377 . S
C2852 C2854 1.384 . S
C2853 C2852 1.377 . S
C2853 C2859 1.390 . S
C2854 H2845 0.930 . S
C2854 C2852 1.384 . S
C2854 C2855 1.372 . S
C2855 C2854 1.372 . S
C2855 C2856 1.400 . S
C2855 C2860 1.490 . S
C2856 H2846 0.930 . S
C2856 C2855 1.400 . S
C2856 C2859 1.386 . S
H2857 C2873 0.930 . S
H2858 C2874 0.931 . S
C2859 H2847 0.929 . S
C2859 C2853 1.390 . S
C2859 C2856 1.386 . S
C2860 C2855 1.490 . S
C2860 C2862 1.395 . S
C2860 C2863 1.403 . S
H2861 C2867 0.930 . S
C2862 H2848 0.930 . S
C2862 C2860 1.395 . S
C2862 C2865 1.403 . S
C2863 C2860 1.403 . S
C2863 C2864 1.524 . S
C2863 C2867 1.400 . S
C2864 H2849 0.960 . S
C2864 H2850 0.960 . S
C2864 H2851 0.960 . S
C2864 C2863 1.524 . S
C2865 C2862 1.403 . S
C2865 C2866 1.392 . S
C2865 C2869 1.495 . S
C2866 C2865 1.392 . S
C2866 C2867 1.385 . S
C2866 C2868 1.478 . S
C2867 H2861 0.930 . S
C2867 C2863 1.400 . S
C2867 C2866 1.385 . S
C2868 C2866 1.478 . S
C2868 C2870 1.381 . S
C2868 C2874 1.383 . S
C2869 C2865 1.495 . S
C2869 H2875 0.959 . S
C2869 H2876 0.961 . S
C2869 H2877 0.960 . S
C2870 C2868 1.381 . S
C2870 C2871 1.394 . S
C2870 H2878 0.930 . S
C2871 C2870 1.394 . S
C2871 C2872 1.383 . S
C2871 H2879 0.929 . S
C2872 C2871 1.383 . S
C2872 C2873 1.377 . S
C2873 H2857 0.930 . S
C2873 C2872 1.377 . S
C2873 C2874 1.379 . S
C2874 H2858 0.931 . S
C2874 C2868 1.383 . S
C2874 C2873 1.379 . S
H2875 C2869 0.959 . S
H2876 C2869 0.961 . S
H2877 C2869 0.960 . S
H2878 C2870 0.930 . S
H2879 C2871 0.929 . S
H2880 C2888 0.929 . S
H2881 C2890 0.930 . S
H2882 C2892 0.930 . S
H2883 C2895 0.929 . S
H2884 C2898 0.930 . S
H2885 C2900 0.960 . S
H2886 C2900 0.960 . S
H2887 C2900 0.960 . S
C2888 H2880 0.929 . S
C2888 C2889 1.377 . S
C2888 C2890 1.384 . S
C2889 C2888 1.377 . S
C2889 C2895 1.390 . S
C2890 H2881 0.930 . S
C2890 C2888 1.384 . S
C2890 C2891 1.372 . S
C2891 C2890 1.372 . S
C2891 C2892 1.400 . S
C2891 C2896 1.490 . S
C2892 H2882 0.930 . S
C2892 C2891 1.400 . S
C2892 C2895 1.386 . S
H2893 C2909 0.930 . S
H2894 C2910 0.931 . S
C2895 H2883 0.929 . S
C2895 C2889 1.390 . S
C2895 C2892 1.386 . S
C2896 C2891 1.490 . S
C2896 C2898 1.395 1_455 S
C2896 C2899 1.403 . S
H2897 C2903 0.928 1_455 S
C2898 H2884 0.930 . S
C2898 C2896 1.395 1_655 S
C2898 C2901 1.403 . S
C2899 C2896 1.403 . S
C2899 C2900 1.524 . S
C2899 C2903 1.406 1_455 S
C2900 H2885 0.960 . S
C2900 H2886 0.960 . S
C2900 H2887 0.960 . S
C2900 C2899 1.524 . S
C2901 C2898 1.403 . S
C2901 C2902 1.392 . S
C2901 C2905 1.495 . S
C2902 C2901 1.392 . S
C2902 C2903 1.381 . S
C2902 C2904 1.478 . S
C2903 H2897 0.928 1_655 S
C2903 C2899 1.406 1_655 S
C2903 C2902 1.381 . S
C2904 C2902 1.478 . S
C2904 C2906 1.381 . S
C2904 C2910 1.383 . S
C2905 C2901 1.495 . S
C2905 H2911 0.959 . S
C2905 H2912 0.961 . S
C2905 H2913 0.960 . S
C2906 C2904 1.381 . S
C2906 C2907 1.394 . S
C2906 H2914 0.930 . S
C2907 C2906 1.394 . S
C2907 C2908 1.383 . S
C2907 H2915 0.929 . S
C2908 C2907 1.383 . S
C2908 C2909 1.377 . S
C2909 H2893 0.930 . S
C2909 C2908 1.377 . S
C2909 C2910 1.379 . S
C2910 H2894 0.931 . S
C2910 C2904 1.383 . S
C2910 C2909 1.379 . S
H2911 C2905 0.959 . S
H2912 C2905 0.961 . S
H2913 C2905 0.960 . S
H2914 C2906 0.930 . S
H2915 C2907 0.929 . S
H2916 C2924 0.929 . S
H2917 C2926 0.930 . S
H2918 C2928 0.930 . S
H2919 C2931 0.929 . S
H2920 C2934 0.930 . S
H2921 C2936 0.960 . S
H2922 C2936 0.960 . S
H2923 C2936 0.960 . S
C2924 H2916 0.929 . S
C2924 C2925 1.377 . S
C2924 C2926 1.384 . S
C2925 C2924 1.377 . S
C2925 C2931 1.390 . S
C2926 H2917 0.930 . S
C2926 C2924 1.384 . S
C2926 C2927 1.372 . S
C2927 C2926 1.372 . S
C2927 C2928 1.400 . S
C2927 C2932 1.490 . S
C2928 H2918 0.930 . S
C2928 C2927 1.400 . S
C2928 C2931 1.386 . S
H2929 C2945 0.930 . S
H2930 C2946 0.931 . S
C2931 H2919 0.929 . S
C2931 C2925 1.390 . S
C2931 C2928 1.386 . S
C2932 C2927 1.490 . S
C2932 C2934 1.395 . S
C2932 C2935 1.403 . S
H2933 C2939 0.930 . S
C2934 H2920 0.930 . S
C2934 C2932 1.395 . S
C2934 C2937 1.403 . S
C2935 C2932 1.403 . S
C2935 C2936 1.524 . S
C2935 C2939 1.400 . S
C2936 H2921 0.960 . S
C2936 H2922 0.960 . S
C2936 H2923 0.960 . S
C2936 C2935 1.524 . S
C2937 C2934 1.403 . S
C2937 C2938 1.392 . S
C2937 C2941 1.495 . S
C2938 C2937 1.392 . S
C2938 C2939 1.385 . S
C2938 C2940 1.478 . S
C2939 H2933 0.930 . S
C2939 C2935 1.400 . S
C2939 C2938 1.385 . S
C2940 C2938 1.478 . S
C2940 C2942 1.381 . S
C2940 C2946 1.383 . S
C2941 C2937 1.495 . S
C2941 H2947 0.959 . S
C2941 H2948 0.961 . S
C2941 H2949 0.960 . S
C2942 C2940 1.381 . S
C2942 C2943 1.394 . S
C2942 H2950 0.930 . S
C2943 C2942 1.394 . S
C2943 C2944 1.383 . S
C2943 H2951 0.929 . S
C2944 C2943 1.383 . S
C2944 C2945 1.377 . S
C2945 H2929 0.930 . S
C2945 C2944 1.377 . S
C2945 C2946 1.379 . S
C2946 H2930 0.931 . S
C2946 C2940 1.383 . S
C2946 C2945 1.379 . S
H2947 C2941 0.959 . S
H2948 C2941 0.961 . S
H2949 C2941 0.960 . S
H2950 C2942 0.930 . S
H2951 C2943 0.929 . S
H2952 C2960 0.929 . S
H2953 C2962 0.930 . S
H2954 C2964 0.930 . S
H2955 C2967 0.929 . S
H2956 C2970 0.930 . S
H2957 C2972 0.960 . S
H2958 C2972 0.960 . S
H2959 C2972 0.960 . S
C2960 H2952 0.929 . S
C2960 C2961 1.377 . S
C2960 C2962 1.384 . S
C2961 C2960 1.377 . S
C2961 C2967 1.390 . S
C2962 H2953 0.930 . S
C2962 C2960 1.384 . S
C2962 C2963 1.372 . S
C2963 C2962 1.372 . S
C2963 C2964 1.400 . S
C2963 C2968 1.490 . S
C2964 H2954 0.930 . S
C2964 C2963 1.400 . S
C2964 C2967 1.386 . S
H2965 C2981 0.930 . S
H2966 C2982 0.931 . S
C2967 H2955 0.929 . S
C2967 C2961 1.390 . S
C2967 C2964 1.386 . S
C2968 C2963 1.490 . S
C2968 C2970 1.395 1_545 S
C2968 C2971 1.403 . S
H2969 C2975 0.928 1_545 S
C2970 H2956 0.930 . S
C2970 C2968 1.395 1_565 S
C2970 C2973 1.403 . S
C2971 C2968 1.403 . S
C2971 C2972 1.524 . S
C2971 C2975 1.398 1_545 S
C2972 H2957 0.960 . S
C2972 H2958 0.960 . S
C2972 H2959 0.960 . S
C2972 C2971 1.524 . S
C2973 C2970 1.403 . S
C2973 C2974 1.392 . S
C2973 C2977 1.495 . S
C2974 C2973 1.392 . S
C2974 C2975 1.389 . S
C2974 C2976 1.478 . S
C2975 H2969 0.928 1_565 S
C2975 C2971 1.398 1_565 S
C2975 C2974 1.389 . S
C2976 C2974 1.478 . S
C2976 C2978 1.381 . S
C2976 C2982 1.383 . S
C2977 C2973 1.495 . S
C2977 H2983 0.959 . S
C2977 H2984 0.961 . S
C2977 H2985 0.960 . S
C2978 C2976 1.381 . S
C2978 C2979 1.394 . S
C2978 H2986 0.930 . S
C2979 C2978 1.394 . S
C2979 C2980 1.383 . S
C2979 H2987 0.929 . S
C2980 C2979 1.383 . S
C2980 C2981 1.377 . S
C2981 H2965 0.930 . S
C2981 C2980 1.377 . S
C2981 C2982 1.379 . S
C2982 H2966 0.931 . S
C2982 C2976 1.383 . S
C2982 C2981 1.379 . S
H2983 C2977 0.959 . S
H2984 C2977 0.961 . S
H2985 C2977 0.960 . S
H2986 C2978 0.930 . S
H2987 C2979 0.929 . S
H2988 C2996 0.929 . S
H2989 C2998 0.930 . S
H2990 C3000 0.930 . S
H2991 C3003 0.849 1_556 S
H2992 C3006 0.930 . S
H2993 C3008 0.960 . S
H2994 C3008 0.875 1_554 S
H2995 C3008 0.960 . S
C2996 H2988 0.929 . S
C2996 C2997 1.377 . S
C2996 C2998 1.384 . S
C2997 C2996 1.377 . S
C2997 C3003 1.501 . S
C2998 H2989 0.930 . S
C2998 C2996 1.384 . S
C2998 C2999 1.372 . S
C2999 C2998 1.372 . S
C2999 C3000 1.400 1_554 S
C2999 C3004 1.490 . S
C3000 H2990 0.930 . S
C3000 C2999 1.400 1_556 S
C3000 C3003 1.363 1_556 S
H3001 C3017 0.930 . S
H3002 C3018 0.931 . S
C3003 H2991 0.849 1_554 S
C3003 C2997 1.501 . S
C3003 C3000 1.363 1_554 S
C3004 C2999 1.490 . S
C3004 C3006 1.395 1_545 S
C3004 C3007 1.403 1_554 S
H3005 C3011 0.929 1_545 S
C3006 H2992 0.930 . S
C3006 C3004 1.395 1_565 S
C3006 C3009 1.403 . S
C3007 C3004 1.403 1_556 S
C3007 C3008 1.524 . S
C3007 C3011 1.403 1_545 S
C3008 H2993 0.960 . S
C3008 H2994 0.875 1_556 S
C3008 H2995 0.960 . S
C3008 C3007 1.524 . S
C3009 C3006 1.403 . S
C3009 C3010 1.392 1_554 S
C3009 C3013 1.495 . S
C3010 C3009 1.392 1_556 S
C3010 C3011 1.383 . S
C3010 C3012 1.478 . S
C3011 H3005 0.929 1_565 S
C3011 C3007 1.403 1_565 S
C3011 C3010 1.383 . S
C3012 C3010 1.478 . S
C3012 C3014 1.381 1_556 S
C3012 C3018 1.383 . S
C3013 C3009 1.495 . S
C3013 H3019 0.959 . S
C3013 H3020 1.086 . S
C3013 H3021 0.960 . S
C3014 C3012 1.381 1_554 S
C3014 C3015 1.379 1_554 S
C3014 H3022 0.930 . S
C3015 C3014 1.379 1_556 S
C3015 C3016 1.438 . S
C3015 H3023 0.891 1_556 S
C3016 C3015 1.438 . S
C3016 C3017 1.377 . S
C3017 H3001 0.930 . S
C3017 C3016 1.377 . S
C3017 C3018 1.379 . S
C3018 H3002 0.931 . S
C3018 C3012 1.383 . S
C3018 C3017 1.379 . S
H3019 C3013 0.959 . S
H3020 C3013 1.086 . S
H3021 C3013 0.960 . S
H3022 C3014 0.930 . S
H3023 C3015 0.891 1_554 S
H3024 C3032 0.930 . S
H3025 C3034 0.894 1_556 S
H3026 C3036 0.930 . S
H3027 C3039 0.929 . S
H3028 C3042 0.930 . S
H3029 C3044 0.986 . S
H3030 C3044 0.987 . S
H3031 C3044 0.920 1_655 S
C3032 H3024 0.930 . S
C3032 C3033 1.377 . S
C3032 C3034 1.398 . S
C3033 C3032 1.377 . S
C3033 C3039 1.390 . S
C3034 H3025 0.894 1_554 S
C3034 C3032 1.398 . S
C3034 C3035 1.395 . S
C3035 C3034 1.395 . S
C3035 C3036 1.400 . S
C3035 C3040 1.490 . S
C3036 H3026 0.930 . S
C3036 C3035 1.400 . S
C3036 C3039 1.386 . S
H3037 C3053 0.930 . S
H3038 C3054 0.931 1_554 S
C3039 H3027 0.929 . S
C3039 C3033 1.390 . S
C3039 C3036 1.386 . S
C3040 C3035 1.490 . S
C3040 C3042 1.395 1_554 S
C3040 C3043 1.419 . S
H3041 C3047 0.930 . S
C3042 H3028 0.930 . S
C3042 C3040 1.395 1_556 S
C3042 C3045 1.404 1_655 S
C3043 C3040 1.419 . S
C3043 C3044 1.509 1_655 S
C3043 C3047 1.390 1_655 S
C3044 H3029 0.986 . S
C3044 H3030 0.987 . S
C3044 H3031 0.920 1_455 S
C3044 C3043 1.509 1_455 S
C3045 C3042 1.404 1_455 S
C3045 C3046 1.392 . S
C3045 C3049 1.491 1_455 S
C3046 C3045 1.392 . S
C3046 C3047 1.385 1_556 S
C3046 C3048 1.478 . S
C3047 H3041 0.930 . S
C3047 C3043 1.390 1_455 S
C3047 C3046 1.385 1_554 S
C3048 C3046 1.478 . S
C3048 C3050 1.381 . S
C3048 C3054 1.383 . S
C3049 C3045 1.491 1_655 S
C3049 H3055 0.972 . S
C3049 H3056 0.974 . S
C3049 H3057 0.939 1_655 S
C3050 C3048 1.381 . S
C3050 C3051 1.394 . S
C3050 H3058 0.930 . S
C3051 C3050 1.394 . S
C3051 C3052 1.383 . S
C3051 H3059 0.929 . S
C3052 C3051 1.383 . S
C3052 C3053 1.377 . S
C3053 H3037 0.930 . S
C3053 C3052 1.377 . S
C3053 C3054 1.379 . S
C3054 H3038 0.931 1_556 S
C3054 C3048 1.383 . S
C3054 C3053 1.379 . S
H3055 C3049 0.972 . S
H3056 C3049 0.974 . S
H3057 C3049 0.939 1_455 S
H3058 C3050 0.930 . S
H3059 C3051 0.929 . S
H3060 C3068 0.929 . S
H3061 C3070 0.930 . S
H3062 C3072 0.930 1_554 S
H3063 C3075 0.929 . S
H3064 C3078 0.930 . S
H3065 C3080 0.960 . S
H3066 C3080 0.960 . S
H3067 C3080 0.960 . S
C3068 H3060 0.929 . S
C3068 C3069 1.377 . S
C3068 C3070 1.384 . S
C3069 C3068 1.377 . S
C3069 C3075 1.390 . S
C3070 H3061 0.930 . S
C3070 C3068 1.384 . S
C3070 C3071 1.372 . S
C3071 C3070 1.372 . S
C3071 C3072 1.400 . S
C3071 C3076 1.490 . S
C3072 H3062 0.930 1_556 S
C3072 C3071 1.400 . S
C3072 C3075 1.386 . S
H3073 C3089 0.930 . S
H3074 C3090 0.931 . S
C3075 H3063 0.929 . S
C3075 C3069 1.390 . S
C3075 C3072 1.386 . S
C3076 C3071 1.490 . S
C3076 C3078 1.395 . S
C3076 C3079 1.403 1_556 S
H3077 C3083 0.930 . S
C3078 H3064 0.930 . S
C3078 C3076 1.395 . S
C3078 C3081 1.403 . S
C3079 C3076 1.403 1_554 S
C3079 C3080 1.524 . S
C3079 C3083 1.400 . S
C3080 H3065 0.960 . S
C3080 H3066 0.960 . S
C3080 H3067 0.960 . S
C3080 C3079 1.524 . S
C3081 C3078 1.403 . S
C3081 C3082 1.316 1_556 S
C3081 C3085 1.495 . S
C3082 C3081 1.316 1_554 S
C3082 C3083 1.446 . S
C3082 C3084 1.500 . S
C3083 H3077 0.930 . S
C3083 C3079 1.400 . S
C3083 C3082 1.446 . S
C3084 C3082 1.500 . S
C3084 C3086 1.408 . S
C3084 C3090 1.383 . S
C3085 C3081 1.495 . S
C3085 H3091 0.959 . S
C3085 H3092 0.961 . S
C3085 H3093 0.960 . S
C3086 C3084 1.408 . S
C3086 C3087 1.426 . S
C3086 H3094 0.879 1_554 S
C3087 C3086 1.426 . S
C3087 C3088 1.383 . S
C3087 H3095 0.929 . S
C3088 C3087 1.383 . S
C3088 C3089 1.377 . S
C3089 H3073 0.930 . S
C3089 C3088 1.377 . S
C3089 C3090 1.379 . S
C3090 H3074 0.931 . S
C3090 C3084 1.383 . S
C3090 C3089 1.379 . S
H3091 C3085 0.959 . S
H3092 C3085 0.961 . S
H3093 C3085 0.960 . S
H3094 C3086 0.879 1_556 S
H3095 C3087 0.929 . S
C513 C9 1.221 . S
C532 C22 1.318 . S
C549 C23 1.220 . S
C568 C36 1.318 . S
C585 C8 1.326 . S
C604 C37 1.266 . S
C621 C51 1.232 . S
C640 C78 1.325 . S
C657 C65 1.238 . S
C676 C50 1.326 . S
C693 C64 1.326 . S
C712 C79 1.259 . S
C729 C93 1.231 . S
C748 C106 1.324 . S
C765 C120 1.324 . S
C784 C107 1.269 . S
C801 C92 1.325 . S
C820 C121 1.205 . S
C837 C162 1.325 . S
C856 C135 1.245 . S
C873 C149 1.234 . S
C892 C134 1.318 . S
C909 C163 1.231 . S
C928 C148 1.319 . S
C945 C190 1.326 . S
C964 C177 1.268 . S
C981 C191 1.222 . S
C1000 C204 1.320 . S
C1017 C205 1.238 . S
C1036 C176 1.326 . S
C1053 C219 1.227 . S
C1072 C246 1.319 . S
C1089 C233 1.230 . S
C1108 C218 1.324 . S
C1125 C247 1.238 . S
C1144 C232 1.327 . S
C1161 C274 1.324 . S
C1180 C261 1.266 . S
C1197 C275 1.237 . S
C1216 C288 1.318 . S
C1233 C260 1.325 . S
C1252 C289 1.196 . S
C1269 C330 1.325 . S
C1288 C303 1.200 . S
C1305 C317 1.224 . S
C1324 C302 1.326 . S
C1341 C316 1.325 . S
C1360 C331 1.214 . S
C1377 C358 1.325 . S
C1396 C345 1.232 . S
C1413 C359 1.237 . S
C1432 C372 1.325 . S
C1449 C373 1.238 . S
C1468 C344 1.326 . S
C1485 C414 1.324 . S
C1504 C387 1.195 . S
C1521 C401 1.238 . S
C1540 C386 1.326 . S
C1557 C400 1.326 . S
C1576 C415 1.248 . S
C1593 C429 1.234 . S
C1612 C442 1.323 . S
C1629 C443 1.231 . S
C1648 C456 1.319 . S
C1665 C457 1.220 . S
C1684 C428 1.325 . S
C1701 C498 1.326 . S
C1720 C471 1.195 . S
C1737 C470 1.325 . S
C1756 C485 1.186 . S
C1773 C499 1.236 . S
C1792 C484 1.318 . S
C1809 C49 1.738 . S
C1828 C7 1.695 . S
C1845 C21 1.726 . S
C1864 C63 1.747 . S
C1881 C77 1.733 . S
C1900 C35 1.715 . S
C1917 C133 1.738 . S
C1936 C91 1.743 . S
C1953 C105 1.724 . S
C1972 C147 1.714 . S
C1989 C161 1.733 . S
C2008 C119 1.759 . S
C2025 C175 1.734 . S
C2044 C217 1.708 . S
C2061 C189 1.731 . S
C2080 C231 1.722 . S
C2097 C203 1.730 . S
C2116 C245 1.728 . S
C2133 C301 1.731 . S
C2152 C259 1.758 . S
C2169 C315 1.733 . S
C2188 C273 1.705 . S
C2205 C287 1.727 . S
C2224 C329 1.741 . S
C2241 C385 1.729 . S
C2260 C343 1.730 . S
C2277 C399 1.730 . S
C2296 C357 1.735 . S
C2313 C371 1.730 . S
C2332 C413 1.730 . S
C2349 C427 1.733 . S
C2368 C469 1.760 . S
C2385 C483 1.724 . S
C2404 C441 1.706 . S
C2421 C455 1.736 . S
C2440 C497 1.757 . S
C2457 C6 1.505 . S
C2476 C258 1.488 . S
C2493 C20 1.506 . S
C2512 C272 1.519 . S
C2529 C34 1.508 . S
C2548 C286 1.506 . S
C2565 C468 1.506 . S
C2584 C48 1.520 . S
C2601 C482 1.505 . S
C2620 C62 1.519 . S
C2637 C76 1.506 . S
C2656 C496 1.520 . S
C2673 C90 1.504 . S
C2692 C342 1.483 . S
C2709 C356 1.507 . S
C2728 C104 1.513 . S
C2745 C370 1.500 . S
C2764 C118 1.488 . S
C2781 C216 1.502 . S
C2800 C132 1.482 . S
C2817 C230 1.506 . S
C2836 C146 1.496 . S
C2853 C244 1.506 . S
C2872 C160 1.489 . S
C2889 C426 1.502 . S
C2908 C174 1.482 . S
C2925 C188 1.500 . S
C2944 C440 1.488 . S
C2961 C202 1.502 . S
C2980 C454 1.482 . S
C2997 C300 1.502 . S
C3016 C384 1.482 . S
C3033 C314 1.507 . S
C3052 C398 1.512 . S
C3069 C412 1.507 . S
C3088 C328 1.500 . S
