# Generated by pormake.
# Topology wlk, (5)-cn, num edge types: 1
# Building blocks:
#     Node 0, Type 0, BuildingBlock: XOMCOT_clean_sbu_1, # of connection points: 5
#     Node 1, Type 0, BuildingBlock: XOMCOT_clean_sbu_1, # of connection points: 5
#     Node 2, Type 0, BuildingBlock: XOMCOT_clean_sbu_1, # of connection points: 5
#     Node 3, Type 0, BuildingBlock: XOMCOT_clean_sbu_1, # of connection points: 5
#     Node 4, Type 0, BuildingBlock: XOMCOT_clean_sbu_1, # of connection points: 5
#     Node 5, Type 0, BuildingBlock: XOMCOT_clean_sbu_1, # of connection points: 5
#     Node 6, Type 0, BuildingBlock: XOMCOT_clean_sbu_1, # of connection points: 5
#     Node 7, Type 0, BuildingBlock: XOMCOT_clean_sbu_1, # of connection points: 5
#     Node 8, Type 0, BuildingBlock: XOMCOT_clean_sbu_1, # of connection points: 5
#     Node 9, Type 0, BuildingBlock: XOMCOT_clean_sbu_1, # of connection points: 5
#     Node 10, Type 0, BuildingBlock: XOMCOT_clean_sbu_1, # of connection points: 5
#     Node 11, Type 0, BuildingBlock: XOMCOT_clean_sbu_1, # of connection points: 5
#     Node 12, Type 0, BuildingBlock: XOMCOT_clean_sbu_1, # of connection points: 5
#     Node 13, Type 0, BuildingBlock: XOMCOT_clean_sbu_1, # of connection points: 5
#     Node 14, Type 0, BuildingBlock: XOMCOT_clean_sbu_1, # of connection points: 5
#     Node 15, Type 0, BuildingBlock: XOMCOT_clean_sbu_1, # of connection points: 5
#     Node 16, Type 0, BuildingBlock: XOMCOT_clean_sbu_1, # of connection points: 5
#     Node 17, Type 0, BuildingBlock: XOMCOT_clean_sbu_1, # of connection points: 5
#     Edge 18, Type (0, 0), BuildingBlock: XUDNAN_clean_linker_2, # of connection points: 2
#     Edge 19, Type (0, 0), BuildingBlock: XUDNAN_clean_linker_2, # of connection points: 2
#     Edge 20, Type (0, 0), BuildingBlock: XUDNAN_clean_linker_2, # of connection points: 2
#     Edge 21, Type (0, 0), BuildingBlock: XUDNAN_clean_linker_2, # of connection points: 2
#     Edge 22, Type (0, 0), BuildingBlock: XUDNAN_clean_linker_2, # of connection points: 2
#     Edge 23, Type (0, 0), BuildingBlock: XUDNAN_clean_linker_2, # of connection points: 2
#     Edge 24, Type (0, 0), BuildingBlock: XUDNAN_clean_linker_2, # of connection points: 2
#     Edge 25, Type (0, 0), BuildingBlock: XUDNAN_clean_linker_2, # of connection points: 2
#     Edge 26, Type (0, 0), BuildingBlock: XUDNAN_clean_linker_2, # of connection points: 2
#     Edge 27, Type (0, 0), BuildingBlock: XUDNAN_clean_linker_2, # of connection points: 2
#     Edge 28, Type (0, 0), BuildingBlock: XUDNAN_clean_linker_2, # of connection points: 2
#     Edge 29, Type (0, 0), BuildingBlock: XUDNAN_clean_linker_2, # of connection points: 2
#     Edge 30, Type (0, 0), BuildingBlock: XUDNAN_clean_linker_2, # of connection points: 2
#     Edge 31, Type (0, 0), BuildingBlock: XUDNAN_clean_linker_2, # of connection points: 2
#     Edge 32, Type (0, 0), BuildingBlock: XUDNAN_clean_linker_2, # of connection points: 2
#     Edge 33, Type (0, 0), BuildingBlock: XUDNAN_clean_linker_2, # of connection points: 2
#     Edge 34, Type (0, 0), BuildingBlock: XUDNAN_clean_linker_2, # of connection points: 2
#     Edge 35, Type (0, 0), BuildingBlock: XUDNAN_clean_linker_2, # of connection points: 2
#     Edge 36, Type (0, 0), BuildingBlock: XUDNAN_clean_linker_2, # of connection points: 2
#     Edge 37, Type (0, 0), BuildingBlock: XUDNAN_clean_linker_2, # of connection points: 2
#     Edge 38, Type (0, 0), BuildingBlock: XUDNAN_clean_linker_2, # of connection points: 2
#     Edge 39, Type (0, 0), BuildingBlock: XUDNAN_clean_linker_2, # of connection points: 2
#     Edge 40, Type (0, 0), BuildingBlock: XUDNAN_clean_linker_2, # of connection points: 2
#     Edge 41, Type (0, 0), BuildingBlock: XUDNAN_clean_linker_2, # of connection points: 2
#     Edge 42, Type (0, 0), BuildingBlock: XUDNAN_clean_linker_2, # of connection points: 2
#     Edge 43, Type (0, 0), BuildingBlock: XUDNAN_clean_linker_2, # of connection points: 2
#     Edge 44, Type (0, 0), BuildingBlock: XUDNAN_clean_linker_2, # of connection points: 2
#     Edge 45, Type (0, 0), BuildingBlock: XUDNAN_clean_linker_2, # of connection points: 2
#     Edge 46, Type (0, 0), BuildingBlock: XUDNAN_clean_linker_2, # of connection points: 2
#     Edge 47, Type (0, 0), BuildingBlock: XUDNAN_clean_linker_2, # of connection points: 2
#     Edge 48, Type (0, 0), BuildingBlock: XUDNAN_clean_linker_2, # of connection points: 2
#     Edge 49, Type (0, 0), BuildingBlock: XUDNAN_clean_linker_2, # of connection points: 2
#     Edge 50, Type (0, 0), BuildingBlock: XUDNAN_clean_linker_2, # of connection points: 2
#     Edge 51, Type (0, 0), BuildingBlock: XUDNAN_clean_linker_2, # of connection points: 2
#     Edge 52, Type (0, 0), BuildingBlock: XUDNAN_clean_linker_2, # of connection points: 2
#     Edge 53, Type (0, 0), BuildingBlock: XUDNAN_clean_linker_2, # of connection points: 2
#     Edge 54, Type (0, 0), BuildingBlock: XUDNAN_clean_linker_2, # of connection points: 2
#     Edge 55, Type (0, 0), BuildingBlock: XUDNAN_clean_linker_2, # of connection points: 2
#     Edge 56, Type (0, 0), BuildingBlock: XUDNAN_clean_linker_2, # of connection points: 2
#     Edge 57, Type (0, 0), BuildingBlock: XUDNAN_clean_linker_2, # of connection points: 2
#     Edge 58, Type (0, 0), BuildingBlock: XUDNAN_clean_linker_2, # of connection points: 2
#     Edge 59, Type (0, 0), BuildingBlock: XUDNAN_clean_linker_2, # of connection points: 2
#     Edge 60, Type (0, 0), BuildingBlock: XUDNAN_clean_linker_2, # of connection points: 2
#     Edge 61, Type (0, 0), BuildingBlock: XUDNAN_clean_linker_2, # of connection points: 2
#     Edge 62, Type (0, 0), BuildingBlock: XUDNAN_clean_linker_2, # of connection points: 2
# Relax obj value: 0.168
# Max RMSD: 0.217
# Mean RMSD: 0.217
data_MOF--net-wlk--node1-XOMCOT_clean_sbu_1--edge1-XUDNAN_clean_linker_2
_symmetry_space_group_name_H-M    P1
_symmetry_Int_Tables_number       1
_symmetry_cell_setting            triclinic
loop_
_symmetry_equiv_pos_as_xyz
'x, y, z'
_cell_length_a     64.625663
_cell_length_b     64.696941
_cell_length_c     28.025095
_cell_angle_alpha  90.143683
_cell_angle_beta   89.910015
_cell_angle_gamma 119.96441
loop_
_atom_site_label
_atom_site_type_symbol
_atom_site_fract_x
_atom_site_fract_y
_atom_site_fract_z
_atom_type_partial_charge
C0 C 0.20853 0.27159 0.98073 0.0
C1 C 0.21022 0.25352 0.95852 0.0
N2 N 0.21427 0.24098 0.99188 0.0
N3 N 0.21145 0.27065 0.02808 0.0
C4 C 0.21499 0.25181 0.03391 0.0
H5 H 0.2055 0.28476 0.96342 0.0
Co6 Co 0.20989 0.29228 0.07086 0.0
C7 C 0.24307 0.29663 0.14759 0.0
O8 O 0.2525 0.31989 0.14409 0.0
N9 N 0.20705 0.3138 0.1139 0.0
C10 C 0.19739 0.34024 0.14205 0.0
C11 C 0.20043 0.32987 0.10169 0.0
C12 C 0.20654 0.31394 0.16245 0.0
N13 N 0.20147 0.33034 0.18035 0.0
O14 O 0.17791 0.26813 0.08923 0.0
H15 H 0.19659 0.33305 0.06588 0.0
H16 H 0.20862 0.30148 0.18468 0.0
O17 O 0.22505 0.28282 0.12145 0.0
C18 C 0.16341 0.26993 0.06081 0.0
O19 O 0.17255 0.28611 0.027 0.0
N20 N 0.24025 0.31654 0.04746 0.0
C21 C 0.28227 0.3512 1.002 0.0
C22 C 0.28138 0.33153 0.02533 0.0
C23 C 0.26008 0.31407 0.04618 0.0
C24 C 0.24048 0.33489 0.0231 0.0
C25 C 0.26122 0.35248 1.00082 0.0
H26 H 0.25953 0.29835 0.06068 0.0
H27 H 0.22422 0.33533 0.01829 0.0
H28 H 0.21781 0.24599 0.06824 0.0
H29 H 0.20901 0.25018 0.92048 0.0
H30 H 0.19224 0.3538 0.14309 0.0
H31 H 0.29687 0.32929 0.02708 0.0
H32 H 0.26034 0.36638 0.98108 0.0
C33 C 0.7686 0.95356 0.98241 0.0
C34 C 0.78563 0.97462 0.9621 0.0
N35 N 0.80152 0.98789 0.99599 0.0
N36 N 0.77335 0.95361 0.02928 0.0
C37 C 0.7938 0.97468 0.0364 0.0
H38 H 0.75337 0.93926 0.96438 0.0
Co39 Co 0.75368 0.92892 0.07193 0.0
C40 C 0.74788 0.95593 0.15112 0.0
O41 O 0.72473 0.9413 0.14811 0.0
N42 N 0.73448 0.90328 0.11469 0.0
C43 C 0.71242 0.86586 0.14144 0.0
C44 C 0.72208 0.88004 0.1017 0.0
C45 C 0.73305 0.90241 0.16315 0.0
N46 N 0.71915 0.88008 0.18004 0.0
O47 O 0.78 0.92363 0.08618 0.0
H48 H 0.72076 0.87359 0.06559 0.0
H49 H 0.74295 0.9175 0.18644 0.0
O50 O 0.76224 0.95294 0.12405 0.0
C51 C 0.78029 0.90946 0.05456 0.0
O52 O 0.76487 0.90268 0.01934 0.0
N53 N 0.72708 0.93243 0.0527 0.0
C54 C 0.69086 0.93731 1.00751 0.0
C55 C 0.71065 0.95702 0.02845 0.0
C56 C 0.7287 0.95432 0.04985 0.0
C57 C 0.7079 0.91309 0.03265 0.0
C58 C 0.68952 0.91505 1.01058 0.0
H59 H 0.74449 0.97011 0.06249 0.0
H60 H 0.70735 0.89622 0.03076 0.0
H61 H 0.80252 0.98049 0.07071 0.0
H62 H 0.78634 0.97978 0.92515 0.0
H63 H 0.70131 0.84663 0.14193 0.0
H64 H 0.71263 0.97465 0.02707 0.0
H65 H 0.67511 0.89945 0.99359 0.0
C66 C 0.09491 0.85078 1.00252 0.0
C67 C 0.075 0.84823 0.97956 0.0
N68 N 0.05543 0.82965 0.99882 0.0
N69 N 0.08831 0.83406 0.03675 0.0
C70 C 0.06405 0.82138 0.03364 0.0
H71 H 0.11314 0.86396 0.99416 0.0
Co72 Co 0.11052 0.83081 0.07588 0.0
C73 C 0.07711 0.81547 0.16227 0.0
O74 O 0.08725 0.83574 0.18586 0.0
N75 N 0.13288 0.82775 0.11464 0.0
C76 C 0.16349 0.82262 0.13299 0.0
C77 C 0.14963 0.82331 0.09662 0.0
C78 C 0.1373 0.83019 0.16237 0.0
N79 N 0.15579 0.82692 0.17455 0.0
O80 O 0.12102 0.86219 0.10273 0.0
H81 H 0.15182 0.82096 0.05911 0.0
H82 H 0.12721 0.83424 0.18773 0.0
O83 O 0.08562 0.81378 0.12234 0.0
C84 C 0.13989 0.87619 0.07904 0.0
O85 O 0.14774 0.86648 0.04784 0.0
N86 N 0.10263 0.80195 0.04517 0.0
C87 C 0.09854 0.76371 0.99074 0.0
C88 C 0.09091 0.76041 0.03861 0.0
C89 C 0.09325 0.77988 0.06544 0.0
C90 C 0.11026 0.80546 0.99908 0.0
C91 C 0.10842 0.78672 0.97138 0.0
H92 H 0.0882 0.77731 0.10265 0.0
H93 H 0.11863 0.82322 0.98414 0.0
H94 H 0.05297 0.80609 0.05572 0.0
H95 H 0.07508 0.85946 0.95095 0.0
H96 H 0.17846 0.81966 0.12893 0.0
H97 H 0.08328 0.74304 0.05523 0.0
H98 H 0.11535 0.79051 0.93532 0.0
C99 C 0.83184 0.75901 0.03812 0.0
C100 C 0.82958 0.77763 0.05618 0.0
N101 N 0.8312 0.79192 0.0198 0.0
N102 N 0.83458 0.76122 0.99032 0.0
C103 C 0.83443 0.78167 0.98036 0.0
H104 H 0.83099 0.74444 0.05852 0.0
Co105 Co 0.8355 0.73846 0.9489 0.0
C106 C 0.82105 0.75919 0.86515 0.0
O107 O 0.84178 0.77806 0.85552 0.0
N108 N 0.83591 0.7156 0.90516 0.0
C109 C 0.82204 0.68444 0.85527 0.0
C110 C 0.81731 0.69355 0.89535 0.0
C111 C 0.85182 0.71923 0.86962 0.0
N112 N 0.84369 0.70054 0.83895 0.0
O113 O 0.86743 0.76217 0.92855 0.0
H114 H 0.80035 0.68487 0.91356 0.0
H115 H 0.86827 0.73585 0.86399 0.0
O116 O 0.8191 0.74538 0.89933 0.0
C117 C 0.88157 0.76111 0.95932 0.0
O118 O 0.87191 0.74617 0.99507 0.0
N119 N 0.806 0.71496 0.9746 0.0
C120 C 0.76525 0.67702 0.01568 0.0
C121 C 0.76348 0.69352 0.98584 0.0
C122 C 0.78411 0.7126 0.96615 0.0
C123 C 0.80819 0.69987 1.00544 0.0
C124 C 0.78806 0.68075 0.02626 0.0
H125 H 0.78233 0.72524 0.94399 0.0
H126 H 0.82571 0.70233 0.01277 0.0
H127 H 0.83595 0.78864 0.94477 0.0
H128 H 0.82695 0.78043 0.09327 0.0
H129 H 0.80998 0.66765 0.83804 0.0
H130 H 0.74626 0.69171 0.97778 0.0
H131 H 0.79031 0.66854 0.04913 0.0
C132 C 0.27434 0.08644 0.04567 0.0
C133 C 0.25719 0.0669 0.06992 0.0
N134 N 0.24542 0.04897 0.03853 0.0
N135 N 0.27359 0.08108 0.99896 0.0
C136 C 0.25567 0.05808 0.99567 0.0
H137 H 0.28674 0.10353 0.06126 0.0
Co138 Co 0.29421 0.10311 0.95329 0.0
C139 C 0.29515 0.07308 0.87199 0.0
O140 O 0.31779 0.08859 0.86445 0.0
N141 N 0.31493 0.12616 0.90798 0.0
C142 C 0.3453 0.15889 0.87636 0.0
C143 C 0.33584 0.14617 0.91761 0.0
C144 C 0.31167 0.12783 0.86051 0.0
N145 N 0.33023 0.14722 0.84025 0.0
O146 O 0.26955 0.11037 0.93558 0.0
H147 H 0.34383 0.15168 0.9524 0.0
H148 H 0.29604 0.11495 0.84103 0.0
O149 O 0.28379 0.07684 0.90548 0.0
C150 C 0.27303 0.12785 0.96257 0.0
O151 O 0.2908 0.13585 0.99311 0.0
N152 N 0.31912 0.09844 0.97627 0.0
C153 C 0.35847 0.09908 0.02004 0.0
C154 C 0.34364 0.08061 0.98845 0.0
C155 C 0.3236 0.0802 0.96818 0.0
C156 C 0.33219 0.11536 1.00954 0.0
C157 C 0.35188 0.11613 0.03153 0.0
H158 H 0.31176 0.06497 0.94691 0.0
H159 H 0.32723 0.12848 0.01924 0.0
H160 H 0.24988 0.04831 0.96253 0.0
H161 H 0.25398 0.06584 0.108 0.0
H162 H 0.36223 0.17529 0.87309 0.0
H163 H 0.34736 0.06655 0.97918 0.0
H164 H 0.36161 0.12993 0.05779 0.0
C165 C 0.95166 0.19235 0.03825 0.0
C166 C 0.97096 0.1941 0.06288 0.0
N167 N 0.98961 0.20171 0.03258 0.0
N168 N 0.95799 0.19881 0.99255 0.0
C169 C 0.98111 0.20419 0.99013 0.0
H170 H 0.9343 0.18733 0.05298 0.0
Co171 Co 0.93909 0.20154 0.9448 0.0
C172 C 0.97598 0.22036 0.86578 0.0
O173 O 0.96579 0.20087 0.83973 0.0
N174 N 0.92087 0.20502 0.89498 0.0
C175 C 0.9134 0.22378 0.83661 0.0
C176 C 0.9269 0.22658 0.87628 0.0
C177 C 0.90325 0.18927 0.86558 0.0
N178 N 0.89855 0.20036 0.82973 0.0
O179 O 0.93304 0.17124 0.91905 0.0
H180 H 0.94119 0.24347 0.88914 0.0
H181 H 0.89497 0.1701 0.86839 0.0
O182 O 0.96719 0.22088 0.90621 0.0
C183 C 0.91352 0.15574 0.93892 0.0
O184 O 0.90205 0.16339 0.96586 0.0
N185 N 0.9428 0.22918 0.97493 0.0
C186 C 0.94406 0.26766 0.02293 0.0
C187 C 0.9652 0.26893 1.00652 0.0
C188 C 0.96424 0.24929 0.98332 0.0
C189 C 0.92217 0.2274 0.99172 0.0
C190 C 0.92237 0.24645 0.01572 0.0
H191 H 0.98072 0.25017 0.97261 0.0
H192 H 0.90541 0.21107 0.98616 0.0
H193 H 0.99165 0.21005 0.95787 0.0
H194 H 0.97139 0.19082 0.10061 0.0
H195 H 0.91486 0.23788 0.81362 0.0
H196 H 0.98237 0.28477 0.0125 0.0
H197 H 0.90567 0.2447 0.02801 0.0
C198 C 0.87727 0.60219 0.31239 0.0
C199 C 0.87751 0.58331 0.2904 0.0
N200 N 0.87711 0.56841 0.32417 0.0
N201 N 0.87714 0.59978 0.36033 0.0
C202 C 0.87627 0.57845 0.36614 0.0
H203 H 0.87671 0.61644 0.29375 0.0
Co204 Co 0.87546 0.62098 0.40653 0.0
C205 C 0.90902 0.6078 0.45213 0.0
O206 O 0.91948 0.6104 0.41054 0.0
N207 N 0.87284 0.64134 0.45104 0.0
C208 C 0.8613 0.66587 0.48088 0.0
C209 C 0.86279 0.65465 0.44029 0.0
C210 C 0.8776 0.64498 0.49847 0.0
N211 N 0.87062 0.65979 0.51755 0.0
O212 O 0.84364 0.59603 0.42394 0.0
H213 H 0.8564 0.65567 0.40522 0.0
H214 H 0.88518 0.6363 0.5191 0.0
O215 O 0.89115 0.61124 0.45556 0.0
C216 C 0.82929 0.59663 0.39315 0.0
O217 O 0.83856 0.61171 0.35752 0.0
N218 N 0.90482 0.64702 0.38522 0.0
C219 C 0.94294 0.68427 0.33646 0.0
C220 C 0.94654 0.67694 0.38133 0.0
C221 C 0.927 0.6585 0.40581 0.0
C222 C 0.90078 0.65625 0.34504 0.0
C223 C 0.91953 0.67435 0.3195 0.0
H224 H 0.9299 0.6536 0.44088 0.0
H225 H 0.88274 0.64919 0.3322 0.0
H226 H 0.87496 0.5703 0.40052 0.0
H227 H 0.87834 0.58098 0.25232 0.0
H228 H 0.85381 0.67753 0.4833 0.0
H229 H 0.96426 0.68488 0.39665 0.0
H230 H 0.91575 0.68034 0.28626 0.0
C231 C 0.43031 0.28093 0.31476 0.0
C232 C 0.4486 0.29938 0.29014 0.0
N233 N 0.46743 0.31084 0.31956 0.0
N234 N 0.43715 0.28101 0.3603 0.0
C235 C 0.46035 0.29877 0.36132 0.0
H236 H 0.4126 0.26934 0.30093 0.0
Co237 Co 0.4164 0.26347 0.41164 0.0
C238 C 0.4409 0.31448 0.45225 0.0
O239 O 0.44511 0.32517 0.41066 0.0
N240 N 0.39596 0.2467 0.46395 0.0
C241 C 0.37332 0.24224 0.52755 0.0
C242 C 0.38372 0.25547 0.48763 0.0
C243 C 0.39256 0.2278 0.49099 0.0
N244 N 0.3789 0.22489 0.53004 0.0
O245 O 0.43863 0.25298 0.43098 0.0
H246 H 0.38351 0.27154 0.47848 0.0
H247 H 0.4011 0.21738 0.48413 0.0
O248 O 0.43081 0.29169 0.45433 0.0
C249 C 0.43344 0.23496 0.40402 0.0
O250 O 0.41663 0.22908 0.37187 0.0
N251 N 0.39265 0.26988 0.38789 0.0
C252 C 0.35329 0.26898 0.34346 0.0
C253 C 0.37008 0.2892 0.36901 0.0
C254 C 0.38967 0.28934 0.3909 0.0
C255 C 0.37624 0.25 0.36413 0.0
C256 C 0.3567 0.24923 0.34136 0.0
H257 H 0.40162 0.30479 0.41124 0.0
H258 H 0.37862 0.23463 0.36214 0.0
H259 H 0.47098 0.30448 0.39357 0.0
H260 H 0.44755 0.30506 0.25434 0.0
H261 H 0.36315 0.24568 0.55395 0.0
H262 H 0.36798 0.3047 0.37278 0.0
H263 H 0.34467 0.23333 0.32152 0.0
C264 C 0.76277 0.17656 0.3245 0.0
C265 C 0.74361 0.17425 0.299 0.0
N266 N 0.72328 0.15915 0.32231 0.0
N267 N 0.75492 0.16317 0.36415 0.0
C268 C 0.73079 0.15275 0.36202 0.0
H269 H 0.78138 0.18743 0.31487 0.0
Co270 Co 0.77619 0.16212 0.40786 0.0
C271 C 0.74585 0.12835 0.48312 0.0
O272 O 0.75983 0.11903 0.48087 0.0
N273 N 0.79876 0.16214 0.45209 0.0
C274 C 0.83188 0.16491 0.483 0.0
C275 C 0.81935 0.1624 0.44177 0.0
C276 C 0.79974 0.16529 0.50022 0.0
N277 N 0.81945 0.16654 0.51982 0.0
O278 O 0.78442 0.1939 0.42999 0.0
H279 H 0.82574 0.1619 0.40653 0.0
H280 H 0.78654 0.16722 0.52051 0.0
O281 O 0.75012 0.14616 0.4563 0.0
C282 C 0.80472 0.20969 0.4134 0.0
O283 O 0.81706 0.20252 0.38796 0.0
N284 N 0.76982 0.13246 0.38045 0.0
C285 C 0.76574 0.09177 0.33578 0.0
C286 C 0.74655 0.09064 0.36155 0.0
C287 C 0.74865 0.11135 0.38211 0.0
C288 C 0.78746 0.13432 0.35086 0.0
C289 C 0.78606 0.11418 0.32899 0.0
H290 H 0.73315 0.1102 0.3992 0.0
H291 H 0.80271 0.15165 0.34367 0.0
H292 H 0.71904 0.14059 0.38891 0.0
H293 H 0.74487 0.18336 0.26593 0.0
H294 H 0.84893 0.16561 0.48568 0.0
H295 H 0.72995 0.07392 0.36534 0.0
H296 H 0.80093 0.11612 0.30771 0.0
C297 C 0.52359 0.11761 0.33369 0.0
C298 C 0.51825 0.13424 0.35146 0.0
N299 N 0.49599 0.12813 0.33775 0.0
N300 N 0.50495 0.10103 0.30804 0.0
C301 C 0.48822 0.10785 0.31171 0.0
H302 H 0.54017 0.11778 0.33957 0.0
Co303 Co 0.50432 0.07525 0.27351 0.0
C304 C 0.47945 0.07392 0.18025 0.0
O305 O 0.47648 0.05318 0.16674 0.0
N306 N 0.50449 0.04991 0.23902 0.0
C307 C 0.50039 1.01456 0.2204 0.0
C308 C 0.49594 0.02731 0.25429 0.0
C309 C 0.5149 0.0506 0.19635 0.0
N310 N 0.51212 0.02915 0.18364 0.0
O311 O 0.5367 0.09624 0.25186 0.0
H312 H 0.48711 0.02046 0.28813 0.0
H313 H 0.52408 0.06651 0.17467 0.0
O314 O 0.49016 0.0835 0.21948 0.0
C315 C 0.55032 0.09245 0.2792 0.0
O316 O 0.54024 0.07651 0.31323 0.0
N317 N 0.47384 0.05385 0.29995 0.0
C318 C 0.43477 0.01768 0.34892 0.0
C319 C 0.43366 0.02052 0.29965 0.0
C320 C 0.45331 0.03887 0.27582 0.0
C321 C 0.47486 0.05162 0.34822 0.0
C322 C 0.45543 0.03386 0.3735 0.0
H323 H 0.45217 0.03986 0.23789 0.0
H324 H 0.49131 0.06306 0.36703 0.0
H325 H 0.47078 0.09829 0.29517 0.0
H326 H 0.52967 0.14939 0.37377 0.0
H327 H 0.49506 0.99585 0.22239 0.0
H328 H 0.41796 1.00821 0.27953 0.0
H329 H 0.45699 0.03205 0.41155 0.0
C330 C 0.94413 0.41266 0.38297 0.0
C331 C 0.92609 0.39347 0.4065 0.0
N332 N 0.90756 0.38191 0.37643 0.0
N333 N 0.93747 0.41297 0.33744 0.0
C334 C 0.91455 0.39461 0.33536 0.0
H335 H 0.96158 0.42463 0.39756 0.0
Co336 Co 0.95799 0.43228 0.28717 0.0
C337 C 0.93842 0.38186 0.24619 0.0
O338 O 0.93293 0.37083 0.28748 0.0
N339 N 0.97828 0.45093 0.23567 0.0
C340 C 1.00422 0.45953 0.17605 0.0
C341 C 0.99484 0.4464 0.21652 0.0
C342 C 0.97795 0.46713 0.20506 0.0
N343 N 0.99353 0.47246 0.16821 0.0
O344 O 0.93327 0.43886 0.26612 0.0
H345 H 0.99904 0.43318 0.22914 0.0
H346 H 0.96556 0.47373 0.20792 0.0
O347 O 0.94742 0.40453 0.24438 0.0
C348 C 0.93587 0.45576 0.29402 0.0
O349 O 0.95298 0.46341 0.32606 0.0
N350 N 0.9835 0.42931 0.31312 0.0
C351 C 1.02235 0.43366 0.36538 0.0
C352 C 1.00727 0.41254 0.34044 0.0
C353 C 0.98777 0.41063 0.31463 0.0
C354 C 0.99866 0.45023 0.33549 0.0
C355 C 1.01804 0.45276 0.36188 0.0
H356 H 0.97644 0.3942 0.29638 0.0
H357 H 0.99524 0.46495 0.33385 0.0
H358 H 0.90418 0.38907 0.30277 0.0
H359 H 0.92708 0.38755 0.4421 0.0
H360 H 1.01738 0.45893 0.15302 0.0
H361 H 1.01006 0.39738 0.34213 0.0
H362 H 0.02943 0.46952 0.37992 0.0
C363 C 0.61683 0.5162 0.36111 0.0
C364 C 0.63648 0.51873 0.38511 0.0
N365 N 0.65637 0.53415 0.36101 0.0
N366 N 0.62394 0.52976 0.3216 0.0
C367 C 0.64816 0.54055 0.32233 0.0
H368 H 0.59839 0.50497 0.37158 0.0
Co369 Co 0.60169 0.53033 0.27955 0.0
C370 C 0.62827 0.55878 0.1952 0.0
O371 O 0.61365 0.56734 0.19393 0.0
N372 N 0.57831 0.53004 0.23684 0.0
C373 C 0.55206 0.53752 0.2003 0.0
C374 C 0.56526 0.54107 0.24106 0.0
C375 C 0.5719 0.51921 0.19337 0.0
N376 N 0.55624 0.52378 0.17034 0.0
O377 O 0.59215 0.49779 0.26027 0.0
H378 H 0.56551 0.55167 0.27097 0.0
H379 H 0.57948 0.50912 0.17789 0.0
O380 O 0.62635 0.54423 0.22831 0.0
C381 C 0.57175 0.48269 0.27753 0.0
O382 O 0.55979 0.49079 0.3016 0.0
N383 N 0.60943 0.5607 0.30451 0.0
C384 C 0.61553 0.60147 0.3532 0.0
C385 C 0.63207 0.60305 0.31851 0.0
C386 C 0.62906 0.58243 0.29556 0.0
C387 C 0.59408 0.55861 0.3401 0.0
C388 C 0.59654 0.57867 0.36429 0.0
H389 H 0.64286 0.58416 0.27155 0.0
H390 H 0.57947 0.54112 0.34921 0.0
H391 H 0.65949 0.55297 0.29529 0.0
H392 H 0.63592 0.50944 0.41753 0.0
H393 H 0.54038 0.54464 0.19302 0.0
H394 H 0.64733 0.62006 0.30902 0.0
H395 H 0.58383 0.57617 0.39203 0.0
C396 C 0.52197 0.91132 0.67763 0.0
C397 C 0.52806 0.89568 0.65728 0.0
N398 N 0.55054 0.90224 0.67026 0.0
N399 N 0.54037 0.92767 0.70409 0.0
C400 C 0.55769 0.92177 0.6983 0.0
H401 H 0.50493 0.91044 0.67366 0.0
Co402 Co 0.53985 0.95114 0.74476 0.0
C403 C 0.55682 0.92856 0.8202 0.0
O404 O 0.53728 0.90766 0.82334 0.0
N405 N 0.53906 0.97361 0.78728 0.0
C406 C 0.53917 1.00494 0.82069 0.0
C407 C 0.54052 0.99475 0.77818 0.0
C408 C 0.53649 0.97123 0.83529 0.0
N409 N 0.53672 0.99012 0.85684 0.0
O410 O 0.50798 0.92758 0.76699 0.0
H411 H 0.54269 1.00238 0.74296 0.0
H412 H 0.53416 0.95561 0.85398 0.0
O413 O 0.55756 0.94442 0.79218 0.0
C414 C 0.49415 0.93255 0.74273 0.0
O415 O 0.50428 0.95041 0.71247 0.0
N416 N 0.56919 0.9752 0.71861 0.0
C417 C 0.6085 1.01357 0.67436 0.0
C418 C 0.60716 1.01152 0.72425 0.0
C419 C 0.58741 0.99209 0.7457 0.0
C420 C 0.57016 0.97716 0.67004 0.0
C421 C 0.58985 0.99589 0.6472 0.0
H422 H 0.5862 0.99128 0.78417 0.0
H423 H 0.55527 0.96448 0.64866 0.0
H424 H 0.57501 0.93123 0.71536 0.0
H425 H 0.51688 0.88072 0.63431 0.0
H426 H 0.54037 0.02215 0.82455 0.0
H427 H 0.62111 0.02496 0.74646 0.0
H428 H 0.59002 0.99707 0.60864 0.0
C429 C 0.098 0.61708 0.65425 0.0
C430 C 0.11501 0.63784 0.63293 0.0
N431 N 0.13092 0.65159 0.66633 0.0
N432 N 0.10277 0.61776 0.70129 0.0
C433 C 0.12325 0.63895 0.70739 0.0
H434 H 0.08295 0.60254 0.63642 0.0
Co435 Co 0.08331 0.59441 0.7468 0.0
C436 C 0.103 0.62938 0.83167 0.0
O437 O 0.11271 0.6194 0.85707 0.0
N438 N 0.06391 0.57099 0.79174 0.0
C439 C 0.0405 0.53432 0.81948 0.0
C440 C 0.05248 0.54766 0.78027 0.0
C441 C 0.05835 0.5714 0.83843 0.0
N442 N 0.04426 0.54919 0.85642 0.0
O443 O 0.1096 0.58921 0.76303 0.0
H444 H 0.05301 0.54071 0.74544 0.0
H445 H 0.0648 0.58753 0.85921 0.0
O446 O 0.09232 0.61988 0.79266 0.0
C447 C 0.10966 0.57468 0.73193 0.0
O448 O 0.09454 0.56855 0.69623 0.0
N449 N 0.05671 0.59692 0.7271 0.0
C450 C 1.01782 0.59717 0.68351 0.0
C451 C 0.03095 0.61366 0.71965 0.0
C452 C 0.05036 0.61325 0.74108 0.0
C453 C 0.04351 0.58016 0.69363 0.0
C454 C 0.02415 0.58002 0.67124 0.0
H455 H 0.06026 0.62626 0.76824 0.0
H456 H 0.04856 0.56719 0.68311 0.0
H457 H 0.13202 0.64534 0.74149 0.0
H458 H 0.11569 0.64246 0.59564 0.0
H459 H 0.02978 0.51507 0.82047 0.0
H460 H 0.02673 0.62723 0.73037 0.0
H461 H 1.01431 0.56663 0.6443 0.0
C462 C 0.41946 0.48467 0.65175 0.0
C463 C 0.39819 0.48013 0.63156 0.0
N464 N 0.38621 0.48572 0.66355 0.0
N465 N 0.42085 0.49267 0.69681 0.0
C466 C 0.4004 0.49349 0.7027 0.0
H467 H 0.43295 0.48192 0.63481 0.0
Co468 Co 0.44623 0.49965 0.7396 0.0
C469 C 0.41059 0.4855 0.8224 0.0
O470 O 0.41047 0.50562 0.82761 0.0
N471 N 0.47149 0.50685 0.78239 0.0
C472 C 0.50722 0.5275 0.81659 0.0
C473 C 0.49388 0.52531 0.77669 0.0
C474 C 0.47182 0.49771 0.82579 0.0
N475 N 0.49335 0.51015 0.84748 0.0
O476 O 0.44999 0.53076 0.75296 0.0
H477 H 0.5 0.53691 0.74593 0.0
H478 H 0.45638 0.48288 0.84212 0.0
O479 O 0.42355 0.48357 0.79041 0.0
C480 C 0.46207 0.54485 0.7189 0.0
O481 O 0.46621 0.53546 0.68096 0.0
N482 N 0.44478 0.47074 0.72294 0.0
C483 C 0.44467 0.43109 0.68244 0.0
C484 C 0.42456 0.42858 0.707 0.0
C485 C 0.42488 0.44869 0.72662 0.0
C486 C 0.46461 0.47343 0.70013 0.0
C487 C 0.46498 0.45388 0.67979 0.0
H488 H 0.40873 0.44666 0.7425 0.0
H489 H 0.48 0.49106 0.69613 0.0
H490 H 0.39573 0.49917 0.73529 0.0
H491 H 0.39203 0.47333 0.59595 0.0
H492 H 0.52568 0.54097 0.82267 0.0
H493 H 0.40832 0.41143 0.70909 0.0
H494 H 0.48093 0.45668 0.66141 0.0
C495 C 0.17904 0.43423 0.70885 0.0
C496 C 0.17779 0.45189 0.73435 0.0
N497 N 0.1736 0.46544 0.70367 0.0
N498 N 0.17567 0.43652 0.66218 0.0
C499 C 0.17275 0.45587 0.66018 0.0
H500 H 0.1812 0.41998 0.7236 0.0
Co501 Co 0.17188 0.4151 0.61262 0.0
C502 C 0.15649 0.43325 0.53045 0.0
O503 O 0.17143 0.43151 0.50116 0.0
N504 N 0.16729 0.39355 0.56116 0.0
C505 C 0.14768 0.36815 0.50184 0.0
C506 C 0.14546 0.37864 0.54251 0.0
C507 C 0.18258 0.39152 0.53058 0.0
N508 N 0.171 0.37631 0.49399 0.0
O509 O 0.20345 0.43793 0.58976 0.0
H510 H 0.1288 0.3765 0.5558 0.0
H511 H 0.20181 0.40205 0.53301 0.0
O512 O 0.15595 0.42796 0.57439 0.0
C513 C 0.21794 0.43223 0.60862 0.0
O514 O 0.20901 0.4124 0.63347 0.0
N515 N 0.14272 0.39231 0.63997 0.0
C516 C 0.10315 0.35739 0.6898 0.0
C517 C 0.10335 0.37779 0.67185 0.0
C518 C 0.12337 0.39513 0.64712 0.0
C519 C 0.14288 0.37269 0.65713 0.0
C520 C 0.12321 0.3549 0.68163 0.0
H521 H 0.12352 0.41103 0.63486 0.0
H522 H 0.1586 0.37104 0.65229 0.0
H523 H 0.1696 0.46261 0.62743 0.0
H524 H 0.17874 0.4538 0.77277 0.0
H525 H 0.13323 0.35599 0.47883 0.0
H526 H 0.08826 0.38048 0.67736 0.0
H527 H 0.1241 0.33977 0.69561 0.0
C528 C 0.59974 0.75567 0.68815 0.0
C529 C 0.58159 0.73659 0.71177 0.0
N530 N 0.5776 0.71628 0.69013 0.0
N531 N 0.60728 0.7477 0.65133 0.0
C532 C 0.59355 0.72357 0.65369 0.0
H533 H 0.60693 0.77425 0.69731 0.0
Co534 Co 0.63186 0.7678 0.60898 0.0
C535 C 0.6048 0.7271 0.53554 0.0
O536 O 0.58286 0.72315 0.53943 0.0
N537 N 0.6566 0.78773 0.56458 0.0
C538 C 0.68911 0.8025 0.51816 0.0
C539 C 0.67843 0.78984 0.55894 0.0
C540 C 0.65474 0.79956 0.52619 0.0
N541 N 0.67422 0.80863 0.49767 0.0
O542 O 0.61185 0.78045 0.58594 0.0
H543 H 0.68609 0.78192 0.58147 0.0
H544 H 0.63894 0.80051 0.51751 0.0
O545 O 0.6214 0.74306 0.56112 0.0
C546 C 0.61935 0.80043 0.60764 0.0
O547 O 0.63771 0.80769 0.6365 0.0
N548 N 0.65187 0.75783 0.63705 0.0
C549 C 0.68563 0.75032 0.68472 0.0
C550 C 0.66997 0.73372 0.65099 0.0
C551 C 0.65311 0.73774 0.6276 0.0
C552 C 0.66626 0.77361 0.67091 0.0
C553 C 0.68337 0.77035 0.6948 0.0
H554 H 0.64132 0.72477 0.60189 0.0
H555 H 0.66475 0.78919 0.67866 0.0
H556 H 0.59547 0.71151 0.62976 0.0
H557 H 0.57186 0.73771 0.74217 0.0
H558 H 0.70638 0.80659 0.50421 0.0
H559 H 0.67096 0.71794 0.64216 0.0
H560 H 0.69458 0.78334 0.72129 0.0
C561 C 0.28238 0.85482 0.69932 0.0
C562 C 0.30164 0.85631 0.72336 0.0
N563 N 0.32129 0.86807 0.69585 0.0
N564 N 0.28957 0.86554 0.6566 0.0
C565 C 0.31344 0.87355 0.65548 0.0
H566 H 0.26415 0.84632 0.71204 0.0
Co567 Co 0.26819 0.8664 0.61213 0.0
C568 C 0.29834 0.90154 0.53996 0.0
O569 O 0.28363 0.90999 0.54235 0.0
N570 N 0.24604 0.86658 0.56594 0.0
C571 C 0.21713 0.86927 0.52781 0.0
C572 C 0.22931 0.87324 0.57011 0.0
C573 C 0.24326 0.85838 0.52028 0.0
N574 N 0.22583 0.85988 0.49619 0.0
O575 O 0.26107 0.8352 0.58921 0.0
H576 H 0.22548 0.88024 0.60164 0.0
H577 H 0.254 0.8515 0.50502 0.0
O578 O 0.29454 0.88363 0.56582 0.0
C579 C 0.24044 0.81969 0.60499 0.0
O580 O 0.22782 0.82724 0.6283 0.0
N581 N 0.27292 0.89485 0.64159 0.0
C582 C 0.27364 0.93049 0.70044 0.0
C583 C 0.29376 0.93492 0.67304 0.0
C584 C 0.29322 0.91669 0.64458 0.0
C585 C 0.25412 0.88984 0.67069 0.0
C586 C 0.25367 0.90742 0.69871 0.0
H587 H 0.30934 0.92002 0.62644 0.0
H588 H 0.23906 0.87186 0.67181 0.0
H589 H 0.32477 0.88283 0.62537 0.0
H590 H 0.30116 0.84943 0.75874 0.0
H591 H 0.20244 0.87246 0.52151 0.0
H592 H 0.31007 0.95201 0.67473 0.0
H593 H 0.23763 0.90272 0.71887 0.0
H594 H 0.28735 0.32171 0.18695 0.0
H595 H 0.22588 0.25034 0.17837 0.0
H596 H 0.24669 0.23556 0.23063 0.0
H597 H 0.33128 0.30398 0.18057 0.0
H598 H 0.35161 0.32701 0.22065 0.0
H599 H 0.33127 0.33178 0.18486 0.0
H600 H 0.31472 0.34111 0.26124 0.0
H601 H 0.33495 0.33626 0.29732 0.0
H602 H 0.3033 0.31963 0.30903 0.0
H603 H 0.27466 0.22913 0.28504 0.0
H604 H 0.30778 0.23065 0.33136 0.0
H605 H 0.35159 0.30606 0.29864 0.0
C606 C 0.27807 0.30297 0.19634 0.0
C607 C 0.25483 0.28719 0.17903 0.0
C608 C 0.24361 0.26275 0.19146 0.0
C609 C 0.25528 0.25425 0.22118 0.0
C610 C 0.27821 0.2704 0.23768 0.0
C611 C 0.28951 0.29421 0.22526 0.0
C612 C 0.31453 0.3078 0.24562 0.0
C613 C 0.33327 0.31825 0.20553 0.0
C614 C 0.31701 0.32735 0.28037 0.0
C615 C 0.31566 0.28795 0.27164 0.0
C616 C 0.29449 0.26655 0.26708 0.0
C617 C 0.29136 0.24576 0.2884 0.0
C618 C 0.31042 0.24681 0.31441 0.0
C619 C 0.33259 0.26844 0.31848 0.0
C620 C 0.33495 0.28927 0.29696 0.0
H621 H 0.77116 1.00442 0.13853 0.0
H622 H 0.74092 0.94899 0.24576 0.0
H623 H 0.7455 0.97871 0.30645 0.0
H624 H 0.81369 0.05436 0.22002 0.0
H625 H 0.80819 0.07581 0.19023 0.0
H626 H 0.80659 0.05108 0.15728 0.0
H627 H 0.76374 0.03904 0.13024 0.0
H628 H 0.765 0.06342 0.16368 0.0
H629 H 0.74127 0.03336 0.17458 0.0
H630 H 0.74773 1.01266 0.35232 0.0
H631 H 0.75012 0.04965 0.38251 0.0
H632 H 0.77861 0.08387 0.24622 0.0
C633 C 0.76662 0.99889 0.17532 0.0
C634 C 0.75639 0.97462 0.18807 0.0
C635 C 0.74937 0.96763 0.23583 0.0
C636 C 0.7518 0.98437 0.27042 0.0
C637 C 0.76114 1.00806 0.25659 0.0
C638 C 0.76873 0.01546 0.21036 0.0
C639 C 0.77598 0.04155 0.20411 0.0
C640 C 0.8027 0.05659 0.19221 0.0
C641 C 0.76057 0.0445 0.16589 0.0
C642 C 0.77065 0.04739 0.25357 0.0
C643 C 0.76223 0.02781 0.28326 0.0
C644 C 0.75465 0.02823 0.32966 0.0
C645 C 0.75587 0.04926 0.34636 0.0
C646 C 0.76459 0.06967 0.31685 0.0
C647 C 0.77221 0.06868 0.26988 0.0
H648 H 0.05864 0.80713 0.25446 0.0
H649 H 0.04754 0.77464 0.11403 0.0
H650 H 1.01344 0.73792 0.14468 0.0
H651 H 0.04377 0.75367 0.32148 0.0
H652 H 0.02849 0.75969 0.3686 0.0
H653 H 0.05224 0.78403 0.3362 0.0
H654 H 0.02388 0.80003 0.3145 0.0
H655 H 1.00009 0.77585 0.34709 0.0
H656 H 0.99589 0.78055 0.28532 0.0
H657 H 0.98073 0.70483 0.1887 0.0
H658 H 0.94989 0.67699 0.24428 0.0
H659 H 0.98108 0.72928 0.35807 0.0
C660 C 0.04894 0.79232 0.23018 0.0
C661 C 0.05594 0.79388 0.18173 0.0
C662 C 0.04278 0.77399 0.15126 0.0
C663 C 0.0233 0.75296 0.16833 0.0
C664 C 1.01707 0.75188 0.21615 0.0
C665 C 0.02935 0.77094 0.24679 0.0
C666 C 1.01861 0.76473 0.29667 0.0
C667 C 0.03687 0.76558 0.33287 0.0
C668 C 1.00905 0.78128 0.31177 0.0
C669 C 0.99836 0.7393 0.28895 0.0
C670 C 0.99796 0.73238 0.24211 0.0
C671 C 0.98083 0.71001 0.22549 0.0
C672 C 0.96337 0.69434 0.25731 0.0
C673 C 0.96304 0.70097 0.30539 0.0
C674 C 0.98103 0.72367 0.32162 0.0
H675 H 0.7322 0.78393 0.70698 0.0
H676 H 0.68042 0.70851 0.72045 0.0
H677 H 0.71001 0.70257 0.76483 0.0
H678 H 0.78451 0.77722 0.69215 0.0
H679 H 0.80372 0.80354 0.72646 0.0
H680 H 0.77881 0.80179 0.69412 0.0
H681 H 0.76277 0.81034 0.77205 0.0
H682 H 0.78762 0.81213 0.8046 0.0
H683 H 0.75749 0.7916 0.82339 0.0
H684 H 0.74437 0.70506 0.81107 0.0
H685 H 0.78143 0.71547 0.85451 0.0
H686 H 0.81155 0.78938 0.81131 0.0
C687 C 0.72705 0.76615 0.71927 0.0
C688 C 0.70389 0.74666 0.71003 0.0
C689 C 0.69806 0.72366 0.72639 0.0
C690 C 0.71474 0.72014 0.75188 0.0
C691 C 0.73729 0.73974 0.7606 0.0
C692 C 0.74354 0.76229 0.74462 0.0
C693 C 0.7689 0.78037 0.7594 0.0
C694 C 0.78493 0.79137 0.7154 0.0
C695 C 0.7692 0.79975 0.79179 0.0
C696 C 0.77582 0.76452 0.78679 0.0
C697 C 0.75728 0.74114 0.78694 0.0
C698 C 0.75902 0.72327 0.81099 0.0
C699 C 0.78016 0.72942 0.8358 0.0
C700 C 0.79943 0.75327 0.83651 0.0
C701 C 0.79725 0.77098 0.81113 0.0
H702 H 0.30795 0.06254 0.78611 0.0
H703 H 0.26101 0.02967 0.90722 0.0
H704 H 0.24981 0.98986 0.8755 0.0
H705 H 0.26952 0.0166 0.69742 0.0
H706 H 0.29481 0.01858 0.66602 0.0
H707 H 0.29747 0.04438 0.69642 0.0
H708 H 0.33353 0.04816 0.74396 0.0
H709 H 0.33075 0.02216 0.71439 0.0
H710 H 0.33007 0.02319 0.77863 0.0
H711 H 0.24785 0.95403 0.83609 0.0
H712 H 0.2507 0.92417 0.78684 0.0
H713 H 0.29669 0.97966 0.68707 0.0
C714 C 0.29489 0.04693 0.80538 0.0
C715 C 0.28516 0.04928 0.84904 0.0
C716 C 0.26832 0.02843 0.87337 0.0
C717 C 0.26204 1.00569 0.85578 0.0
C718 C 0.2725 1.00405 0.81341 0.0
C719 C 0.28818 0.02409 0.78795 0.0
C720 C 0.29721 0.01738 0.74379 0.0
C721 C 0.28927 0.02466 0.69821 0.0
C722 C 0.32451 0.02838 0.74532 0.0
C723 C 0.28459 0.99045 0.749 0.0
C724 C 0.27055 0.98321 0.78955 0.0
C725 C 0.25826 0.95942 0.80354 0.0
C726 C 0.25989 0.9425 0.77487 0.0
C727 C 0.27341 0.9492 0.73189 0.0
C728 C 0.28611 0.9737 0.71935 0.0
H729 H 1.00748 0.22771 0.79139 0.0
H730 H 0.98705 0.26516 0.8929 0.0
H731 H 1.01675 0.30345 0.85872 0.0
H732 H 0.0712 0.27162 0.79258 0.0
H733 H 0.07524 0.26868 0.72978 0.0
H734 H 0.05238 0.24374 0.76247 0.0
H735 H 1.02056 0.24077 0.70248 0.0
H736 H 0.04329 0.26577 0.66973 0.0
H737 H 1.01749 0.26658 0.69183 0.0
H738 H 0.04742 0.33783 0.81261 0.0
H739 H 0.07949 0.36657 0.7601 0.0
H740 H 0.08142 0.30809 0.68793 0.0
C741 C 1.00939 0.24399 0.80654 0.0
C742 C 0.99501 0.24327 0.84543 0.0
C743 C 0.99807 0.26504 0.86401 0.0
C744 C 1.01482 0.28701 0.84449 0.0
C745 C 0.02863 0.28714 0.80631 0.0
C746 C 0.02634 0.26629 0.78766 0.0
C747 C 0.0438 0.27176 0.74675 0.0
C748 C 0.06172 0.26346 0.75862 0.0
C749 C 0.03048 0.26056 0.69993 0.0
C750 C 0.05596 0.29884 0.74525 0.0
C751 C 0.04678 0.30724 0.77983 0.0
C752 C 0.05481 0.3315 0.78537 0.0
C753 C 0.07292 0.3477 0.75508 0.0
C754 C 0.08296 0.33967 0.71968 0.0
C755 C 0.07424 0.31483 0.7148 0.0
H756 H 0.94444 0.59643 0.45407 0.0
H757 H 0.89915 0.61045 0.54728 0.0
H758 H 0.92116 0.60811 0.61736 0.0
H759 H 0.94983 0.55446 0.53292 0.0
H760 H 0.98044 0.56508 0.51607 0.0
H761 H 0.96009 0.56649 0.47411 0.0
H762 H 0.98894 0.61187 0.46401 0.0
H763 H 1.00931 0.61068 0.50613 0.0
H764 H 0.9982 0.63096 0.51588 0.0
H765 H 0.95066 0.60717 0.67706 0.0
H766 H 0.98295 0.60525 0.72072 0.0
H767 H 1.00826 0.59158 0.58742 0.0
C768 C 0.9389 0.59877 0.4892 0.0
C769 C 0.92011 0.60383 0.49502 0.0
C770 C 0.91348 0.60665 0.54176 0.0
C771 C 0.92593 0.60536 0.58182 0.0
C772 C 0.94477 0.60095 0.57461 0.0
C773 C 0.95099 0.59741 0.52939 0.0
C774 C 0.97219 0.59345 0.53078 0.0
C775 C 0.96521 0.56838 0.51239 0.0
C776 C 0.99341 0.6129 0.50254 0.0
C777 C 0.97728 0.59573 0.58383 0.0
C778 C 0.9613 0.60003 0.60864 0.0
C779 C 0.96311 0.60361 0.65795 0.0
C780 C 0.98163 0.60266 0.68242 0.0
C781 C 0.9981 0.59811 0.65767 0.0
C782 C 0.99573 0.59462 0.60766 0.0
H783 H 0.46131 0.4303 0.59271 0.0
H784 H 0.42614 0.38504 0.71474 0.0
H785 H 0.42408 0.35062 0.67151 0.0
H786 H 0.42704 0.38796 0.50453 0.0
H787 H 0.45148 0.39713 0.46319 0.0
H788 H 0.45155 0.41827 0.50513 0.0
H789 H 0.49286 0.42706 0.53665 0.0
H790 H 0.49284 0.40585 0.49482 0.0
H791 H 0.49659 0.4028 0.55766 0.0
H792 H 0.42462 0.3207 0.61296 0.0
H793 H 0.42564 0.29772 0.54327 0.0
H794 H 0.46044 0.36294 0.46009 0.0
C795 C 0.45358 0.41327 0.61077 0.0
C796 C 0.44407 0.41044 0.65736 0.0
C797 C 0.43348 0.38764 0.67906 0.0
C798 C 0.43237 0.36803 0.65488 0.0
C799 C 0.44189 0.37146 0.60894 0.0
C800 C 0.45222 0.39354 0.5871 0.0
C801 C 0.45995 0.39232 0.5366 0.0
C802 C 0.44671 0.39933 0.50023 0.0
C803 C 0.48718 0.40793 0.53114 0.0
C804 C 0.45211 0.36605 0.53311 0.0
C805 C 0.44194 0.35432 0.5753 0.0
C806 C 0.43269 0.32978 0.57989 0.0
C807 C 0.43342 0.31686 0.54008 0.0
C808 C 0.44316 0.32847 0.49607 0.0
C809 C 0.45298 0.35348 0.49316 0.0
H810 H 0.63868 1.01357 0.60564 0.0
H811 H 0.62342 0.0608 0.68922 0.0
H812 H 0.65553 0.09571 0.64657 0.0
H813 H 0.70257 0.0517 0.60695 0.0
H814 H 0.70648 0.04367 0.54734 0.0
H815 H 0.68168 0.02274 0.58309 0.0
H816 H 0.65243 0.01936 0.5163 0.0
H817 H 0.67716 0.04046 0.48054 0.0
H818 H 0.65315 0.04598 0.49491 0.0
H819 H 0.68899 0.1256 0.59128 0.0
H820 H 0.72371 0.14756 0.53685 0.0
H821 H 0.71836 0.08056 0.49488 0.0
C822 C 0.64213 0.03129 0.61486 0.0
C823 C 0.62856 0.03455 0.65052 0.0
C824 C 0.63372 0.05798 0.66208 0.0
C825 C 0.6518 0.07787 0.63783 0.0
C826 C 0.6648 0.07405 0.60253 0.0
C827 C 0.66041 0.05132 0.59171 0.0
C828 C 0.67765 0.052 0.55426 0.0
C829 C 0.693 0.04194 0.57411 0.0
C830 C 0.66429 0.03866 0.50882 0.0
C831 C 0.69244 0.07861 0.54561 0.0
C832 C 0.68459 0.09111 0.57304 0.0
C833 C 0.69537 0.11596 0.56995 0.0
C834 C 0.71496 0.1283 0.53883 0.0
C835 C 0.72379 0.11578 0.51209 0.0
C836 C 0.71214 0.09063 0.51534 0.0
H837 H 0.43792 0.04824 0.13143 0.0
H838 H 0.48944 0.12046 0.17439 0.0
H839 H 0.46511 0.13521 0.13412 0.0
H840 H 0.42174 0.06144 0.01662 0.0
H841 H 0.39061 0.03941 0.02316 0.0
H842 H 0.41309 0.03507 0.05181 0.0
H843 H 0.39237 0.03046 0.13354 0.0
H844 H 0.36982 0.03472 0.10516 0.0
H845 H 0.38685 0.05368 0.15416 0.0
H846 H 0.43504 0.14166 0.08765 0.0
H847 H 0.40034 0.13938 0.04669 0.0
H848 H 0.36659 0.06202 0.04293 0.0
C849 C 0.44435 0.06724 0.13169 0.0
C850 C 0.46582 0.08334 0.15514 0.0
C851 C 0.47318 0.10793 0.1561 0.0
C852 C 0.45951 0.11641 0.13328 0.0
C853 C 0.43836 0.09998 0.11052 0.0
C854 C 0.4307 0.07587 0.11018 0.0
C855 C 0.40651 0.06164 0.08653 0.0
C856 C 0.4081 0.04863 0.04188 0.0
C857 C 0.38779 0.0441 0.12197 0.0
C858 C 0.40168 0.0815 0.07339 0.0
C859 C 0.4204 0.10349 0.08685 0.0
C860 C 0.42015 0.12448 0.07759 0.0
C861 C 0.40013 0.12292 0.05464 0.0
C862 C 0.38024 0.10046 0.04199 0.0
C863 C 0.38134 0.07954 0.05139 0.0
H864 H 0.91756 0.33344 0.2355 0.0
H865 H 0.96042 0.40015 0.16011 0.0
H866 H 0.96526 0.37804 0.09306 0.0
H867 H 0.95102 0.30665 0.20399 0.0
H868 H 0.92583 0.277 0.19703 0.0
H869 H 0.92393 0.29775 0.23716 0.0
H870 H 0.88636 0.29227 0.19292 0.0
H871 H 0.88795 0.27128 0.15286 0.0
H872 H 0.88757 0.297 0.12936 0.0
H873 H 0.9688 0.34885 0.03788 0.0
H874 H 0.96781 0.31461 0.99604 0.0
H875 H 0.92179 0.26708 0.1067 0.0
C876 C 0.92762 0.3434 0.20455 0.0
C877 C 0.93861 0.36856 0.20315 0.0
C878 C 0.9517 0.38088 0.16199 0.0
C879 C 0.95463 0.36847 0.12375 0.0
C880 C 0.9441 0.34372 0.12694 0.0
C881 C 0.93055 0.3313 0.166 0.0
C882 C 0.92169 0.30484 0.1614 0.0
C883 C 0.93119 0.29606 0.20232 0.0
C884 C 0.89426 0.29051 0.15898 0.0
C885 C 0.93278 0.30433 0.1141 0.0
C886 C 0.94567 0.32693 0.09477 0.0
C887 C 0.95849 0.33105 0.05239 0.0
C888 C 0.95797 0.31155 0.02906 0.0
C889 C 0.9446 0.28821 0.04796 0.0
C890 C 0.93183 0.28466 0.09099 0.0
H891 H 0.6765 0.5855 0.21206 0.0
H892 H 0.62345 0.55592 0.09989 0.0
H893 H 0.65408 0.5805 0.04031 0.0
H894 H 0.70383 0.64305 0.17215 0.0
H895 H 0.73414 0.6512 0.1867 0.0
H896 H 0.70973 0.62793 0.21962 0.0
H897 H 0.7243 0.59829 0.19879 0.0
H898 H 0.74919 0.6217 0.16684 0.0
H899 H 0.72944 0.59392 0.13731 0.0
H900 H 0.68813 0.61229 0.99533 0.0
H901 H 0.72465 0.64762 0.96607 0.0
H902 H 0.75639 0.65792 0.10671 0.0
C903 C 0.67175 0.58339 0.1746 0.0
C904 C 0.64785 0.5683 0.16009 0.0
C905 C 0.64184 0.5669 0.11126 0.0
C906 C 0.65909 0.58089 0.07727 0.0
C907 C 0.68231 0.59635 0.09273 0.0
C908 C 0.68884 0.59751 0.1401 0.0
C909 C 0.71443 0.61743 0.1477 0.0
C910 C 0.71558 0.636 0.18366 0.0
C911 C 0.73028 0.60722 0.16359 0.0
C912 C 0.72088 0.62775 0.09765 0.0
C913 C 0.70212 0.61514 0.06653 0.0
C914 C 0.7031 0.62208 0.01916 0.0
C915 C 0.72383 0.64235 1.00298 0.0
C916 C 0.74341 0.65558 0.03399 0.0
C917 C 0.74187 0.64799 0.08194 0.0
H918 H 0.56326 0.90124 0.88923 0.0
H919 H 0.60117 0.96742 0.80969 0.0
H920 H 0.63819 0.97708 0.85111 0.0
H921 H 0.59589 0.92412 1.00107 0.0
H922 H 0.59684 0.89735 0.01425 0.0
H923 H 0.57249 0.89563 0.97985 0.0
H924 H 0.58153 0.8741 0.91189 0.0
H925 H 0.60589 0.87575 0.94607 0.0
H926 H 0.61112 0.88787 0.88658 0.0
H927 H 0.67154 0.97969 0.89853 0.0
H928 H 0.69978 0.97456 0.94864 0.0
H929 H 0.64176 0.9068 0.99934 0.0
C930 C 0.57932 0.91782 0.88078 0.0
C931 C 0.57897 0.93376 0.84654 0.0
C932 C 0.60056 0.95512 0.83632 0.0
C933 C 0.62187 0.96076 0.85957 0.0
C934 C 0.62161 0.94485 0.89307 0.0
C935 C 0.60101 0.92376 0.90374 0.0
C936 C 0.60615 0.90963 0.9405 0.0
C937 C 0.592 0.9065 0.98666 0.0
C938 C 0.60086 0.8854 0.92002 0.0
C939 C 0.63282 0.92606 0.94833 0.0
C940 C 0.64122 0.9463 0.92065 0.0
C941 C 0.66517 0.96402 0.92077 0.0
C942 C 0.68108 0.96101 0.94982 0.0
C943 C 0.67312 0.94044 0.97871 0.0
C944 C 0.64853 0.92274 0.97778 0.0
H945 H 0.10926 0.64794 0.92362 0.0
H946 H 0.0981 0.66115 0.77663 0.0
H947 H 0.094 0.69524 0.80241 0.0
H948 H 0.06875 0.66356 0.97812 0.0
H949 H 0.0875 0.67869 0.02869 0.0
H950 H 0.08968 0.65498 0.99954 0.0
H951 H 0.13497 0.68321 0.986 0.0
H952 H 0.13299 0.70691 0.01564 0.0
H953 H 0.14505 0.71129 0.95611 0.0
H954 H 0.08855 0.72606 0.84321 0.0
H955 H 0.0874 0.75586 0.89584 0.0
H956 H 0.10538 0.72602 0.01699 0.0
C957 C 0.10618 0.65817 0.89691 0.0
C958 C 0.10334 0.65141 0.84816 0.0
C959 C 0.09954 0.66541 0.8143 0.0
C960 C 0.09731 0.68494 0.82855 0.0
C961 C 0.09934 0.69065 0.87682 0.0
C962 C 0.10416 0.67807 0.91052 0.0
C963 C 0.10611 0.68866 0.95998 0.0
C964 C 0.08686 0.67038 0.99356 0.0
C965 C 0.13128 0.69808 0.98064 0.0
C966 C 0.10146 0.70898 0.94859 0.0
C967 C 0.09739 0.70952 0.90039 0.0
C968 C 0.09213 0.72612 0.88093 0.0
C969 C 0.09165 0.74309 0.91123 0.0
C970 C 0.09678 0.74376 0.96061 0.0
C971 C 0.10134 0.72609 0.97954 0.0
H972 H 0.29839 0.3994 0.9869 0.0
H973 H 0.31629 0.34416 0.95711 0.0
H974 H 0.35215 0.37335 0.91419 0.0
H975 H 0.31487 0.42619 0.8713 0.0
H976 H 0.32643 0.45626 0.8928 0.0
H977 H 0.30313 0.43163 0.92531 0.0
H978 H 0.32931 0.44527 1.00148 0.0
H979 H 0.35274 0.46991 0.96914 0.0
H980 H 0.3589 0.44908 0.99965 0.0
H981 H 0.3855 0.4078 0.87253 0.0
H982 H 0.413 0.44477 0.83049 0.0
H983 H 0.37262 0.47768 0.881 0.0
C984 C 0.30974 0.3933 0.97137 0.0
C985 C 0.30439 0.36928 0.97648 0.0
C986 C 0.32007 0.36242 0.95545 0.0
C987 C 0.34051 0.3789 0.93047 0.0
C988 C 0.3451 0.40224 0.92613 0.0
C989 C 0.33011 0.40946 0.94561 0.0
C990 C 0.33857 0.43537 0.93327 0.0
C991 C 0.31962 0.43747 0.90392 0.0
C992 C 0.34528 0.45082 0.97859 0.0
C993 C 0.36053 0.44145 0.90341 0.0
C994 C 0.36403 0.42209 0.90032 0.0
C995 C 0.38289 0.42305 0.87451 0.0
C996 C 0.39837 0.44418 0.85049 0.0
C997 C 0.39489 0.46416 0.85175 0.0
C998 C 0.37584 0.4628 0.87929 0.0
H999 H 0.05678 0.42142 0.34552 0.0
H1000 H 0.03177 0.45053 0.45648 0.0
H1001 H 0.0644 0.45524 0.50918 0.0
H1002 H 0.07422 0.3884 0.42328 0.0
H1003 H 0.10037 0.3947 0.38909 0.0
H1004 H 0.07502 0.39361 0.35995 0.0
H1005 H 0.10228 0.43625 0.32714 0.0
H1006 H 0.12767 0.43753 0.35651 0.0
H1007 H 0.11991 0.46025 0.36805 0.0
H1008 H 0.0986 0.45547 0.55108 0.0
H1009 H 0.13258 0.45145 0.57919 0.0
H1010 H 0.13703 0.42398 0.44044 0.0
C1011 C 0.05815 0.42867 0.38099 0.0
C1012 C 0.04179 0.4357 0.39687 0.0
C1013 C 0.04426 0.44528 0.4434 0.0
C1014 C 0.0627 0.44798 0.47364 0.0
C1015 C 0.07869 0.44116 0.45681 0.0
C1016 C 0.07669 0.43174 0.41159 0.0
C1017 C 0.09637 0.42591 0.40247 0.0
C1018 C 0.08586 0.39906 0.39316 0.0
C1019 C 0.11251 0.44088 0.36109 0.0
C1020 C 0.10956 0.43332 0.44975 0.0
C1021 C 0.09898 0.442 0.48059 0.0
C1022 C 0.10719 0.44893 0.52709 0.0
C1023 C 0.12654 0.44663 0.54273 0.0
C1024 C 0.13769 0.43777 0.51182 0.0
C1025 C 0.12922 0.43132 0.46453 0.0
H1026 H 0.57376 0.68366 0.49267 0.0
H1027 H 0.64905 0.73577 0.50924 0.0
H1028 H 0.65966 0.70977 0.46394 0.0
H1029 H 0.57964 0.63197 0.50593 0.0
H1030 H 0.5575 0.61442 0.46169 0.0
H1031 H 0.55543 0.63746 0.49384 0.0
H1032 H 0.55482 0.65727 0.41402 0.0
H1033 H 0.55674 0.63419 0.38161 0.0
H1034 H 0.57848 0.66509 0.37133 0.0
H1035 H 0.66255 0.67752 0.42056 0.0
H1036 H 0.65745 0.64173 0.37909 0.0
H1037 H 0.58036 0.61063 0.38664 0.0
C1038 C 0.59246 0.68972 0.48621 0.0
C1039 C 0.61054 0.71182 0.50476 0.0
C1040 C 0.63481 0.71892 0.49577 0.0
C1041 C 0.64107 0.70427 0.46997 0.0
C1042 C 0.62291 0.68249 0.45294 0.0
C1043 C 0.59909 0.67525 0.46031 0.0
C1044 C 0.58319 0.65072 0.43864 0.0
C1045 C 0.56805 0.63258 0.47733 0.0
C1046 C 0.56738 0.6519 0.39904 0.0
C1047 C 0.60183 0.64535 0.41827 0.0
C1048 C 0.6246 0.66393 0.42704 0.0
C1049 C 0.64478 0.66297 0.41288 0.0
C1050 C 0.64166 0.64253 0.38889 0.0
C1051 C 0.6185 0.62321 0.37875 0.0
C1052 C 0.59836 0.62484 0.39388 0.0
H1053 H 0.32356 0.94938 0.52488 0.0
H1054 H 0.32279 0.88367 0.49026 0.0
H1055 H 0.35787 0.90625 0.43715 0.0
H1056 H 0.33967 0.9767 0.41158 0.0
H1057 H 0.35909 1.00632 0.43434 0.0
H1058 H 0.33439 0.98503 0.46984 0.0
H1059 H 0.36325 0.99073 0.53918 0.0
H1060 H 0.38805 1.01221 0.50406 0.0
H1061 H 0.38846 0.98662 0.52821 0.0
H1062 H 0.39118 0.93617 0.38271 0.0
H1063 H 0.4227 0.97116 0.33923 0.0
H1064 H 0.40325 0.01745 0.41477 0.0
C1065 C 0.33083 0.93973 0.50622 0.0
C1066 C 0.32037 0.91474 0.51117 0.0
C1067 C 0.33059 0.90281 0.48689 0.0
C1068 C 0.35041 0.91549 0.45657 0.0
C1069 C 0.36005 0.94013 0.45187 0.0
C1070 C 0.35083 0.95216 0.47684 0.0
C1071 C 0.36468 0.97871 0.46671 0.0
C1072 C 0.34848 0.98717 0.44428 0.0
C1073 C 0.37683 0.9929 0.51225 0.0
C1074 C 0.38287 0.97981 0.43118 0.0
C1075 C 0.37981 0.95736 0.42274 0.0
C1076 C 0.39388 0.95382 0.38959 0.0
C1077 C 0.41163 0.97372 0.36493 0.0
C1078 C 0.41534 0.99686 0.37395 0.0
C1079 C 0.40082 0.99992 0.40757 0.0
H1080 H 0.15478 0.37171 0.40342 0.0
H1081 H 0.20925 0.36951 0.48943 0.0
H1082 H 0.22334 0.35715 0.41799 0.0
H1083 H 0.13996 0.32111 0.33132 0.0
H1084 H 0.13574 0.33386 0.27767 0.0
H1085 H 0.13071 0.34313 0.33507 0.0
H1086 H 0.16096 0.3872 0.31469 0.0
H1087 H 0.16595 0.3781 0.25704 0.0
H1088 H 0.19082 0.39527 0.2964 0.0
H1089 H 0.2292 0.34205 0.33674 0.0
H1090 H 0.22928 0.3301 0.25262 0.0
H1091 H 0.17173 0.34389 0.2205 0.0
C1092 C 0.16972 0.36867 0.40721 0.0
C1093 C 0.18083 0.37134 0.45205 0.0
C1094 C 0.20058 0.36763 0.45538 0.0
C1095 C 0.20856 0.36048 0.41506 0.0
C1096 C 0.1968 0.35749 0.37155 0.0
C1097 C 0.17803 0.36188 0.36739 0.0
C1098 C 0.16848 0.35772 0.31683 0.0
C1099 C 0.14217 0.33777 0.31515 0.0
C1100 C 0.17176 0.38095 0.29496 0.0
C1101 C 0.18457 0.35 0.29299 0.0
C1102 C 0.20069 0.34977 0.3251 0.0
C1103 C 0.21679 0.34242 0.31135 0.0
C1104 C 0.2166 0.33549 0.2636 0.0
C1105 C 0.20062 0.33618 0.22991 0.0
C1106 C 0.18439 0.34348 0.24517 0.0
H1107 H 0.69014 0.80019 0.41437 0.0
H1108 H 0.6673 0.84588 0.4811 0.0
H1109 H 0.67697 0.86981 0.40679 0.0
H1110 H 0.73868 0.84436 0.34624 0.0
H1111 H 0.73294 0.82573 0.29438 0.0
H1112 H 0.72437 0.81242 0.35266 0.0
H1113 H 0.68077 0.78596 0.32376 0.0
H1114 H 0.68924 0.79907 0.26527 0.0
H1115 H 0.66533 0.79978 0.29707 0.0
H1116 H 0.69215 0.89042 0.32674 0.0
H1117 H 0.70626 0.90289 0.24391 0.0
H1118 H 0.71583 0.84164 0.22673 0.0
C1119 C 0.68714 0.81521 0.41308 0.0
C1120 C 0.67817 0.8214 0.4534 0.0
C1121 C 0.67411 0.84091 0.45046 0.0
C1122 C 0.67967 0.85462 0.40854 0.0
C1123 C 0.68878 0.84823 0.36953 0.0
C1124 C 0.69201 0.82867 0.37112 0.0
C1125 C 0.70117 0.82504 0.32371 0.0
C1126 C 0.72575 0.82701 0.32963 0.0
C1127 C 0.68304 0.80104 0.30112 0.0
C1128 C 0.70303 0.84585 0.29537 0.0
C1129 C 0.6961 0.8592 0.32266 0.0
C1130 C 0.69732 0.87991 0.30494 0.0
C1131 C 0.70549 0.88696 0.25802 0.0
C1132 C 0.71198 0.87317 0.22893 0.0
C1133 C 0.7107 0.85234 0.24802 0.0
H1134 H 0.15854 0.85438 0.25189 0.0
H1135 H 0.17591 0.8011 0.20357 0.0
H1136 H 0.19572 0.80388 0.28024 0.0
H1137 H 0.21331 0.89077 0.31471 0.0
H1138 H 0.19973 0.89801 0.36332 0.0
H1139 H 0.18602 0.89135 0.30518 0.0
H1140 H 0.14654 0.85804 0.3416 0.0
H1141 H 0.16009 0.8647 0.3999 0.0
H1142 H 0.14685 0.8348 0.37641 0.0
H1143 H 0.2148 0.81308 0.36159 0.0
H1144 H 0.23043 0.82711 0.44266 0.0
H1145 H 0.20142 0.87486 0.43907 0.0
C1146 C 0.16623 0.84309 0.25775 0.0
C1147 C 0.16573 0.8276 0.22131 0.0
C1148 C 0.17631 0.81335 0.23041 0.0
C1149 C 0.18755 0.81472 0.27405 0.0
C1150 C 0.18818 0.83045 0.30877 0.0
C1151 C 0.17771 0.84432 0.30132 0.0
C1152 C 0.18138 0.86007 0.3445 0.0
C1153 C 0.19598 0.88662 0.33111 0.0
C1154 C 0.15728 0.85403 0.36693 0.0
C1155 C 0.19551 0.85288 0.37713 0.0
C1156 C 0.19924 0.83577 0.35578 0.0
C1157 C 0.21197 0.82648 0.37869 0.0
C1158 C 0.22098 0.83472 0.42477 0.0
C1159 C 0.21728 0.85214 0.44785 0.0
C1160 C 0.2044 0.86133 0.42315 0.0
H1161 H 0.82198 0.6903 0.75302 0.0
H1162 H 0.88766 0.70606 0.82397 0.0
H1163 H 0.90247 0.6975 0.74859 0.0
H1164 H 0.81516 0.64245 0.68198 0.0
H1165 H 0.80411 0.65039 0.63026 0.0
H1166 H 0.79947 0.65878 0.68888 0.0
H1167 H 0.82005 0.70311 0.66314 0.0
H1168 H 0.82452 0.69483 0.60421 0.0
H1169 H 0.84964 0.71698 0.6378 0.0
H1170 H 0.9079 0.68305 0.6658 0.0
H1171 H 0.90578 0.66949 0.58201 0.0
H1172 H 0.83743 0.66583 0.56524 0.0
C1173 C 0.83962 0.69226 0.75234 0.0
C1174 C 0.85375 0.69882 0.79411 0.0
C1175 C 0.87674 0.70127 0.79213 0.0
C1176 C 0.88515 0.69628 0.74959 0.0
C1177 C 0.8705 0.6893 0.70916 0.0
C1178 C 0.84841 0.68783 0.71009 0.0
C1179 C 0.83608 0.68021 0.66205 0.0
C1180 C 0.8123 0.65655 0.66606 0.0
C1181 C 0.83236 0.69996 0.64053 0.0
C1182 C 0.85439 0.67709 0.63397 0.0
C1183 C 0.87407 0.68219 0.66169 0.0
C1184 C 0.8927 0.67937 0.64373 0.0
C1185 C 0.89131 0.67152 0.59623 0.0
C1186 C 0.8716 0.66686 0.56692 0.0
C1187 C 0.85294 0.66967 0.58642 0.0
H1188 H 0.35254 0.19187 0.80352 0.0
H1189 H 0.31801 0.1172 0.76402 0.0
H1190 H 0.32882 0.12866 0.67924 0.0
H1191 H 0.33401 0.21144 0.70022 0.0
H1192 H 0.36152 0.23956 0.69695 0.0
H1193 H 0.35099 0.22498 0.75363 0.0
H1194 H 0.39134 0.22628 0.7665 0.0
H1195 H 0.40185 0.24056 0.7095 0.0
H1196 H 0.4017 0.2132 0.72239 0.0
H1197 H 0.34527 0.14936 0.59763 0.0
H1198 H 0.36092 0.17684 0.52795 0.0
H1199 H 0.38347 0.23718 0.62285 0.0
C1200 C 0.34724 0.17792 0.77703 0.0
C1201 C 0.33449 0.15364 0.79037 0.0
C1202 C 0.32758 0.13591 0.75451 0.0
C1203 C 0.33386 0.14228 0.70637 0.0
C1204 C 0.34688 0.16647 0.69458 0.0
C1205 C 0.35313 0.18396 0.72902 0.0
C1206 C 0.36635 0.20867 0.70747 0.0
C1207 C 0.35237 0.22193 0.71501 0.0
C1208 C 0.39182 0.22301 0.72768 0.0
C1209 C 0.36665 0.20249 0.65548 0.0
C1210 C 0.35563 0.17811 0.64847 0.0
C1211 C 0.35387 0.16846 0.60289 0.0
C1212 C 0.36296 0.18412 0.56357 0.0
C1213 C 0.37334 0.20904 0.57015 0.0
C1214 C 0.37555 0.21818 0.61686 0.0
H1215 H 0.86371 0.19395 0.55654 0.0
H1216 H 0.79043 0.14425 0.59524 0.0
H1217 H 0.80279 0.14569 0.67969 0.0
H1218 H 0.89214 0.1724 0.63513 0.0
H1219 H 0.91659 0.20164 0.64949 0.0
H1220 H 0.90185 0.19635 0.59259 0.0
H1221 H 0.89307 0.23069 0.60866 0.0
H1222 H 0.90803 0.23628 0.66533 0.0
H1223 H 0.87771 0.23044 0.66261 0.0
H1224 H 0.82445 0.15142 0.76024 0.0
H1225 H 0.85204 0.16522 0.82992 0.0
H1226 H 0.91016 0.21275 0.73766 0.0
C1227 C 0.85029 0.18341 0.58288 0.0
C1228 C 0.82614 0.16888 0.56949 0.0
C1229 C 0.80899 0.15559 0.60496 0.0
C1230 C 0.81591 0.15617 0.65284 0.0
C1231 C 0.84001 0.17043 0.66474 0.0
C1232 C 0.85682 0.18415 0.63075 0.0
C1233 C 0.88139 0.19878 0.65262 0.0
C1234 C 0.89903 0.19187 0.63118 0.0
C1235 C 0.89058 0.22564 0.64698 0.0
C1236 C 0.87591 0.19112 0.70425 0.0
C1237 C 0.85205 0.17449 0.71067 0.0
C1238 C 0.84311 0.16457 0.75552 0.0
C1239 C 0.85886 0.17232 0.79481 0.0
C1240 C 0.88309 0.19007 0.78902 0.0
C1241 C 0.89164 0.19927 0.74301 0.0
H1242 H 0.51174 0.04498 0.09323 0.0
H1243 H 0.52776 0.99765 0.17406 0.0
H1244 H 0.53682 0.98351 0.09927 0.0
H1245 H 0.48239 1.00456 0.99685 0.0
H1246 H 0.49375 0.02704 0.95095 0.0
H1247 H 0.49002 0.03477 0.01088 0.0
H1248 H 0.5345 0.06786 0.01307 0.0
H1249 H 0.53835 0.06029 0.95303 0.0
H1250 H 0.5573 0.06035 1.0002 0.0
H1251 H 0.54313 0.97357 0.01593 0.0
H1252 H 0.54601 0.96817 0.92987 0.0
H1253 H 0.52459 0.02076 0.90081 0.0
C1254 C 0.51758 0.03197 0.09511 0.0
C1255 C 0.51915 0.0225 0.13969 0.0
C1256 C 0.52633 1.00508 0.14049 0.0
C1257 C 0.53159 0.99699 0.09814 0.0
C1258 C 0.52951 1.00635 0.05483 0.0
C1259 C 0.52268 0.02345 0.05287 0.0
C1260 C 0.52088 0.02972 1.00129 0.0
C1261 C 0.49524 0.02366 0.9893 0.0
C1262 C 0.53883 0.05613 0.99132 0.0
C1263 C 0.52767 1.01341 0.9747 0.0
C1264 C 0.53267 1.0002 1.00643 0.0
C1265 C 0.53918 0.98378 0.99075 0.0
C1266 C 0.54058 0.98069 0.94146 0.0
C1267 C 0.53535 0.9938 0.90776 0.0
C1268 C 0.52889 1.01049 0.9251 0.0
H1269 H 0.03228 0.50698 0.89941 0.0
H1270 H 0.03724 0.57545 0.92481 0.0
H1271 H 1.02237 0.56278 1.00732 0.0
H1272 H 0.97804 0.47116 0.96619 0.0
H1273 H 0.98792 0.45131 0.98788 0.0
H1274 H 0.99835 0.46586 0.93109 0.0
H1275 H 0.04221 0.48345 0.95901 0.0
H1276 H 0.03192 0.46888 0.01574 0.0
H1277 H 0.05184 0.50067 0.01335 0.0
H1278 H 1.00663 0.54143 0.08954 0.0
H1279 H 0.99508 0.51537 0.16141 0.0
H1280 H 1.00038 0.46163 0.07859 0.0
C1281 C 0.02995 0.5193 0.92179 0.0
C1282 C 0.03578 0.54221 0.90501 0.0
C1283 C 0.03302 0.55786 0.93658 0.0
C1284 C 0.02441 0.55072 0.98351 0.0
C1285 C 1.01863 0.52786 0.99857 0.0
C1286 C 1.02145 0.5125 0.9684 0.0
C1287 C 1.01487 0.4892 0.9929 0.0
C1288 C 0.99353 0.46814 0.96803 0.0
C1289 C 0.0365 0.48534 0.9954 0.0
C1290 C 1.00805 0.49376 0.04184 0.0
C1291 C 1.01007 0.51602 0.04475 0.0
C1292 C 1.00498 0.52397 0.08735 0.0
C1293 C 0.99827 0.50903 0.12795 0.0
C1294 C 0.99696 0.48654 0.12575 0.0
C1295 C 1.00146 0.47882 0.08167 0.0
H1296 H 0.51894 0.54476 0.91228 0.0
H1297 H 0.48285 0.46836 0.88998 0.0
H1298 H 0.49641 0.46326 0.96982 0.0
H1299 H 0.56991 0.55116 0.97613 0.0
H1300 H 0.57102 0.57326 0.01695 0.0
H1301 H 0.55903 0.57072 0.95786 0.0
H1302 H 0.51956 0.56507 0.99376 0.0
H1303 H 0.53149 0.56778 0.05293 0.0
H1304 H 0.50358 0.5418 0.03697 0.0
H1305 H 0.51628 0.46732 0.05171 0.0
H1306 H 0.53556 0.47948 0.13151 0.0
H1307 H 0.55554 0.55271 0.10173 0.0
C1308 C 0.51398 0.52697 0.92424 0.0
C1309 C 0.50006 0.50693 0.89486 0.0
C1310 C 0.49348 0.48389 0.91202 0.0
C1311 C 0.50123 0.48089 0.95715 0.0
C1312 C 0.5152 0.5011 0.98506 0.0
C1313 C 0.5211 0.52366 0.96948 0.0
C1314 C 0.53525 0.5424 1.00695 0.0
C1315 C 0.56028 0.56045 0.98835 0.0
C1316 C 0.52165 0.555 0.02364 0.0
C1317 C 0.53656 0.52698 0.04608 0.0
C1318 C 0.52527 0.50324 0.03263 0.0
C1319 C 0.52494 0.48584 0.06264 0.0
C1320 C 0.53602 0.49286 0.10769 0.0
C1321 C 0.54683 0.51694 0.12267 0.0
C1322 C 0.54717 0.53414 0.09121 0.0
H1323 H 0.24144 0.22741 0.04317 0.0
H1324 H 0.19498 0.20863 0.91989 0.0
H1325 H 0.203 0.17606 0.90042 0.0
H1326 H 0.28536 0.21796 0.98894 0.0
H1327 H 0.29135 0.20575 0.0414 0.0
H1328 H 0.28055 0.22643 0.04748 0.0
H1329 H 0.24509 0.19572 0.09863 0.0
H1330 H 0.25583 0.17494 0.09281 0.0
H1331 H 0.22573 0.1662 0.07526 0.0
H1332 H 0.21801 0.14622 0.89198 0.0
H1333 H 0.23897 0.12284 0.89592 0.0
H1334 H 0.27511 0.16131 0.02462 0.0
C1335 C 0.2326 0.21617 0.01263 0.0
C1336 C 0.2176 0.22072 0.98309 0.0
C1337 C 0.20676 0.20577 0.94285 0.0
C1338 C 0.2111 0.18707 0.9316 0.0
C1339 C 0.22632 0.18334 0.96091 0.0
C1340 C 0.23683 0.19746 1.00073 0.0
C1341 C 0.2533 0.19045 0.02524 0.0
C1342 C 0.27917 0.2114 0.02577 0.0
C1343 C 0.24445 0.18128 0.07599 0.0
C1344 C 0.25067 0.17049 0.99272 0.0
C1345 C 0.23492 0.16643 0.95594 0.0
C1346 C 0.23027 0.14918 0.92089 0.0
C1347 C 0.24221 0.13592 0.92337 0.0
C1348 C 0.2587 0.14012 0.96046 0.0
C1349 C 0.26263 0.15752 0.99565 0.0
H1350 H 0.86944 0.12269 0.90839 0.0
H1351 H 0.93435 0.13029 0.96932 0.0
H1352 H 0.91298 0.0871 0.98902 0.0
H1353 H 0.83037 0.08473 0.99173 0.0
H1354 H 0.80638 0.06646 0.95137 0.0
H1355 H 0.82739 0.09689 0.93603 0.0
H1356 H 0.83766 0.08324 0.85694 0.0
H1357 H 0.81618 0.05275 0.87136 0.0
H1358 H 0.84666 0.06099 0.85825 0.0
H1359 H 0.88202 0.04426 0.01425 0.0
H1360 H 0.84648 1.00448 0.02974 0.0
H1361 H 0.80274 0.02465 0.94755 0.0
C1362 C 0.8794 0.11497 0.92382 0.0
C1363 C 0.90371 0.12964 0.93615 0.0
C1364 C 0.91597 0.11919 0.95809 0.0
C1365 C 0.90384 0.09473 0.96998 0.0
C1366 C 0.87954 0.08092 0.95902 0.0
C1367 C 0.86767 0.09059 0.93507 0.0
C1368 C 0.84141 0.07235 0.92885 0.0
C1369 C 0.82547 0.08061 0.95347 0.0
C1370 C 0.83511 0.06701 0.87569 0.0
C1371 C 0.84009 0.05106 0.95418 0.0
C1372 C 0.86217 0.05632 0.9718 0.0
C1373 C 0.86481 0.03986 0.99963 0.0
C1374 C 0.84453 0.0174 1.00867 0.0
C1375 C 0.82197 1.01144 0.98945 0.0
C1376 C 0.81987 0.0286 0.96197 0.0
H1377 H 1.0144 0.80372 0.05128 0.0
H1378 H 0.04012 0.8353 0.91182 0.0
H1379 H 0.99902 0.82274 0.88711 0.0
H1380 H 0.96024 0.75209 1.00861 0.0
H1381 H 0.94258 0.75163 0.05888 0.0
H1382 H 0.97422 0.76336 0.06573 0.0
H1383 H 0.97885 0.80306 0.09757 0.0
H1384 H 0.94725 0.79153 0.09045 0.0
H1385 H 0.96829 0.81911 0.06201 0.0
H1386 H 0.9542 0.80685 0.8772 0.0
H1387 H 0.90998 0.78716 0.88291 0.0
H1388 H 0.91364 0.76556 0.02766 0.0
C1389 C 1.01143 0.80784 0.01544 0.0
C1390 C 0.03085 0.82086 0.98393 0.0
C1391 C 0.02588 0.82587 0.93731 0.0
C1392 C 1.00244 0.81868 0.92267 0.0
C1393 C 0.98381 0.80628 0.95478 0.0
C1394 C 0.98803 0.80075 1.00011 0.0
C1395 C 0.9648 0.78704 0.02756 0.0
C1396 C 0.96019 0.76205 0.04097 0.0
C1397 C 0.96481 0.80103 0.07203 0.0
C1398 C 0.94695 0.78569 0.99063 0.0
C1399 C 0.9582 0.79697 0.94888 0.0
C1400 C 0.94522 0.79795 0.90981 0.0
C1401 C 0.9201 0.78682 0.91336 0.0
C1402 C 0.90819 0.77478 0.9556 0.0
C1403 C 0.92204 0.77453 0.99468 0.0
H1404 H 0.77518 0.87131 0.10592 0.0
H1405 H 0.81975 0.92341 1.0005 0.0
H1406 H 0.83978 0.90008 0.98354 0.0
H1407 H 0.82098 0.85536 0.14822 0.0
H1408 H 0.79866 0.82435 0.15468 0.0
H1409 H 0.79074 0.84713 0.16381 0.0
H1410 H 0.75725 0.82674 0.10077 0.0
H1411 H 0.7653 0.80418 0.09072 0.0
H1412 H 0.76467 0.82171 0.04144 0.0
H1413 H 0.85055 0.86796 0.96936 0.0
H1414 H 0.85414 0.83165 0.96498 0.0
H1415 H 0.80309 0.80033 0.08042 0.0
C1416 C 0.79003 0.87837 0.08116 0.0
C1417 C 0.79666 0.89969 0.05587 0.0
C1418 C 0.81511 0.90764 0.02149 0.0
C1419 C 0.82639 0.89434 0.01132 0.0
C1420 C 0.81898 0.87299 0.03573 0.0
C1421 C 0.8015 0.86523 0.07059 0.0
C1422 C 0.79554 0.84076 0.08891 0.0
C1423 C 0.80187 0.84198 0.14207 0.0
C1424 C 0.76912 0.82227 0.0799 0.0
C1425 C 0.81194 0.83574 0.05819 0.0
C1426 C 0.8253 0.85454 0.0277 0.0
C1427 C 0.8405 0.85334 0.99372 0.0
C1428 C 0.8423 0.83256 0.99117 0.0
C1429 C 0.82912 0.8132 0.02258 0.0
C1430 C 0.8138 0.81499 0.05658 0.0
H1431 H 0.23594 1.00761 0.994 0.0
H1432 H 0.21236 0.03577 0.10914 0.0
H1433 H 0.18196 0.99477 0.13218 0.0
H1434 H 0.17731 0.95801 0.96225 0.0
H1435 H 0.18862 0.9381 0.95014 0.0
H1436 H 0.20757 0.96974 0.94162 0.0
H1437 H 0.23906 0.96946 0.99813 0.0
H1438 H 0.2202 0.93787 1.00712 0.0
H1439 H 0.23046 0.95777 0.05771 0.0
H1440 H 0.15415 0.94956 0.14373 0.0
H1441 H 0.13255 0.90517 0.14228 0.0
H1442 H 0.1754 0.90758 0.02076 0.0
C1443 C 0.22412 1.00518 0.02353 0.0
C1444 C 0.22657 0.025 0.04966 0.0
C1445 C 0.211 0.02092 0.08876 0.0
C1446 C 0.19358 0.99765 0.10203 0.0
C1447 C 0.19188 0.97848 0.07601 0.0
C1448 C 0.20677 0.98205 0.03753 0.0
C1449 C 0.20199 0.9585 0.01648 0.0
C1450 C 0.19335 0.95594 0.96455 0.0
C1451 C 0.22425 0.95575 0.0201 0.0
C1452 C 0.1822 0.94114 0.04913 0.0
C1453 C 0.17641 0.95286 0.08316 0.0
C1454 C 0.15857 0.94023 0.11714 0.0
C1455 C 0.14638 0.91503 0.11616 0.0
C1456 C 0.15225 0.90275 0.08169 0.0
C1457 C 0.17043 0.91622 0.04792 0.0
H1458 H 0.13061 0.27092 1.00142 0.0
H1459 H 0.13593 0.23621 0.12932 0.0
H1460 H 0.0916 0.21382 0.13534 0.0
H1461 H 0.08259 0.27858 0.03986 0.0
H1462 H 0.06906 0.27328 0.9816 0.0
H1463 H 0.10081 0.28549 0.98704 0.0
H1464 H 0.0981 0.25102 0.93508 0.0
H1465 H 0.06632 0.23871 0.92951 0.0
H1466 H 0.078 0.22056 0.95233 0.0
H1467 H 0.04589 0.19609 0.12735 0.0
H1468 H 1.00438 0.18486 0.10667 0.0
H1469 H 0.03044 0.23232 0.98466 0.0
C1470 C 0.12261 0.25853 0.03072 0.0
C1471 C 0.13689 0.25534 0.06494 0.0
C1472 C 0.12544 0.23893 0.1026 0.0
C1473 C 0.10027 0.22617 0.10625 0.0
C1474 C 0.08681 0.22998 0.07192 0.0
C1475 C 0.09772 0.24578 0.03484 0.0
C1476 C 0.07961 0.24727 1.00289 0.0
C1477 C 0.08324 0.27266 1.00288 0.0
C1478 C 0.08057 0.23888 0.95195 0.0
C1479 C 0.05662 0.22989 0.02775 0.0
C1480 C 0.06102 0.22002 0.06745 0.0
C1481 C 0.04237 0.20376 0.09628 0.0
C1482 C 1.01878 0.19757 0.08434 0.0
C1483 C 1.01388 0.20759 0.04386 0.0
C1484 C 0.03326 0.22393 0.01533 0.0
H1485 H 0.90113 0.55242 0.37858 0.0
H1486 H 0.85902 0.53755 0.24976 0.0
H1487 H 0.86692 0.50487 0.2297 0.0
H1488 H 0.94622 0.5443 0.32817 0.0
H1489 H 0.95079 0.53076 0.38023 0.0
H1490 H 0.93962 0.55111 0.38672 0.0
H1491 H 0.9029 0.51894 0.43275 0.0
H1492 H 0.91396 0.49844 0.42639 0.0
H1493 H 0.88436 0.49006 0.40588 0.0
H1494 H 0.88216 0.4752 0.2208 0.0
H1495 H 0.90349 0.45216 0.22454 0.0
H1496 H 0.93551 0.48703 0.35872 0.0
C1497 C 0.89304 0.54185 0.34687 0.0
C1498 C 0.8793 0.54748 0.31593 0.0
C1499 C 0.86962 0.53362 0.27398 0.0
C1500 C 0.87396 0.51495 0.26235 0.0
C1501 C 0.88807 0.51023 0.29297 0.0
C1502 C 0.89737 0.52326 0.33452 0.0
C1503 C 0.91323 0.51572 0.35983 0.0
C1504 C 0.93899 0.53672 0.36395 0.0
C1505 C 0.90299 0.50516 0.40913 0.0
C1506 C 0.91169 0.49671 0.32577 0.0
C1507 C 0.89696 0.49356 0.28755 0.0
C1508 C 0.89358 0.47741 0.25087 0.0
C1509 C 0.90572 0.46435 0.25322 0.0
C1510 C 0.92119 0.46766 0.2918 0.0
C1511 C 0.92383 0.48392 0.32858 0.0
H1512 H 0.52513 0.44916 0.26622 0.0
H1513 H 0.59515 0.45701 0.2859 0.0
H1514 H 0.57633 0.41316 0.29749 0.0
H1515 H 0.49484 0.40568 0.35261 0.0
H1516 H 0.4676 0.38929 0.31898 0.0
H1517 H 0.48674 0.42072 0.30869 0.0
H1518 H 0.48944 0.41274 0.21882 0.0
H1519 H 0.46997 0.38128 0.2287 0.0
H1520 H 0.49878 0.39181 0.20134 0.0
H1521 H 0.54831 0.36822 0.3173 0.0
H1522 H 0.51484 0.32685 0.33136 0.0
H1523 H 0.46413 0.34913 0.29321 0.0
C1524 C 0.53656 0.44158 0.27182 0.0
C1525 C 0.56162 0.45644 0.27478 0.0
C1526 C 0.57596 0.4459 0.28263 0.0
C1527 C 0.56536 0.42103 0.28972 0.0
C1528 C 0.54045 0.40694 0.28798 0.0
C1529 C 0.52634 0.4169 0.27806 0.0
C1530 C 0.50005 0.39823 0.27846 0.0
C1531 C 0.48653 0.40382 0.31698 0.0
C1532 C 0.4889 0.39588 0.22888 0.0
C1533 C 0.50136 0.37618 0.29106 0.0
C1534 C 0.52474 0.38144 0.29696 0.0
C1535 C 0.53002 0.36393 0.31176 0.0
C1536 C 0.51098 0.34054 0.31991 0.0
C1537 C 0.48704 0.3348 0.3125 0.0
C1538 C 0.48233 0.35296 0.29805 0.0
H1539 H 0.58166 0.0953 0.34722 0.0
H1540 H 0.57905 0.11979 0.20456 0.0
H1541 H 0.62333 0.13991 0.20014 0.0
H1542 H 0.63529 0.14863 0.38534 0.0
H1543 H 0.64576 0.13225 0.42004 0.0
H1544 H 0.61419 0.12043 0.41167 0.0
H1545 H 0.6103 0.08139 0.3775 0.0
H1546 H 0.64187 0.09314 0.3855 0.0
H1547 H 0.62858 0.08287 0.32751 0.0
H1548 H 0.668 0.15559 0.21092 0.0
H1549 H 0.7087 0.16736 0.23593 0.0
H1550 H 0.68168 0.13349 0.37352 0.0
C1551 C 0.59031 0.10494 0.31494 0.0
C1552 C 0.57683 0.10589 0.27603 0.0
C1553 C 0.58898 0.11888 0.23478 0.0
C1554 C 0.61411 0.13027 0.23199 0.0
C1555 C 0.62677 0.12868 0.27094 0.0
C1556 C 0.61522 0.1165 0.31179 0.0
C1557 C 0.63275 0.1174 0.34885 0.0
C1558 C 0.63194 0.13046 0.39415 0.0
C1559 C 0.62809 0.0922 0.3605 0.0
C1560 C 0.65611 0.13178 0.32238 0.0
C1561 C 0.65229 0.13809 0.27752 0.0
C1562 C 0.67114 0.15094 0.24619 0.0
C1563 C 0.69441 0.15766 0.26109 0.0
C1564 C 0.69898 0.15172 0.3073 0.0
C1565 C 0.67927 0.13848 0.33807 0.0
H1566 H 0.51339 0.17613 0.34059 0.0
H1567 H 0.44984 0.10788 0.36589 0.0
H1568 H 0.42888 0.1287 0.39548 0.0
H1569 H 0.50795 0.20841 0.44126 0.0
H1570 H 0.51769 0.23573 0.40867 0.0
H1571 H 0.52821 0.21568 0.39166 0.0
H1572 H 0.51265 0.21344 0.30562 0.0
H1573 H 0.50252 0.23382 0.32216 0.0
H1574 H 0.48188 0.20524 0.29647 0.0
H1575 H 0.41497 0.15678 0.42253 0.0
H1576 H 0.40642 0.18961 0.43255 0.0
H1577 H 0.4782 0.24043 0.38657 0.0
C1578 C 0.49506 0.16563 0.35249 0.0
C1579 C 0.48322 0.14033 0.35127 0.0
C1580 C 0.45915 0.12719 0.36631 0.0
C1581 C 0.44723 0.1389 0.38361 0.0
C1582 C 0.45953 0.16383 0.38509 0.0
C1583 C 0.48275 0.17708 0.36897 0.0
C1584 C 0.49123 0.20367 0.37106 0.0
C1585 C 0.51254 0.21663 0.4052 0.0
C1586 C 0.49743 0.21469 0.32085 0.0
C1587 C 0.46913 0.20335 0.39089 0.0
C1588 C 0.45126 0.18013 0.39949 0.0
C1589 C 0.4289 0.17499 0.41629 0.0
C1590 C 0.4243 0.19385 0.42249 0.0
C1591 C 0.44187 0.2177 0.41203 0.0
C1592 C 0.46477 0.22255 0.39681 0.0
H1593 H 0.85071 0.24362 0.42958 0.0
H1594 H 0.78071 0.23466 0.40318 0.0
H1595 H 0.79911 0.27853 0.39244 0.0
H1596 H 0.87504 0.30085 0.49535 0.0
H1597 H 0.90441 0.31184 0.47036 0.0
H1598 H 0.88513 0.28029 0.47965 0.0
H1599 H 0.88974 0.27264 0.39047 0.0
H1600 H 0.90867 0.30415 0.38071 0.0
H1601 H 0.88214 0.28747 0.34517 0.0
H1602 H 0.82698 0.3236 0.37354 0.0
H1603 H 0.86026 0.36518 0.36073 0.0
H1604 H 0.91101 0.34394 0.40497 0.0
C1605 C 0.83917 0.25097 0.42291 0.0
C1606 C 0.81425 0.2358 0.41778 0.0
C1607 C 0.79977 0.24602 0.40828 0.0
C1608 C 0.81014 0.2709 0.40163 0.0
C1609 C 0.83497 0.28532 0.40543 0.0
C1610 C 0.84916 0.27566 0.41707 0.0
C1611 C 0.87535 0.29462 0.41844 0.0
C1612 C 0.88558 0.29704 0.46895 0.0
C1613 C 0.88981 0.2894 0.3815 0.0
C1614 C 0.8739 0.31649 0.40481 0.0
C1615 C 0.85054 0.31089 0.3969 0.0
C1616 C 0.84523 0.32816 0.38068 0.0
C1617 C 0.86417 0.35167 0.37323 0.0
C1618 C 0.88807 0.35778 0.38271 0.0
C1619 C 0.89283 0.33985 0.39855 0.0
H1620 H 0.69658 0.55503 0.30449 0.0
H1621 H 0.67254 0.53077 0.44907 0.0
H1622 H 0.71333 0.54145 0.47183 0.0
H1623 H 0.73995 0.53563 0.29729 0.0
H1624 H 0.76147 0.56147 0.26461 0.0
H1625 H 0.73006 0.55126 0.25873 0.0
H1626 H 0.73732 0.59295 0.28376 0.0
H1627 H 0.76878 0.60334 0.28879 0.0
H1628 H 0.75274 0.60609 0.33881 0.0
H1629 H 0.75764 0.55511 0.47973 0.0
H1630 H 0.80165 0.57336 0.4722 0.0
H1631 H 0.79678 0.58949 0.32386 0.0
C1632 C 0.69979 0.55202 0.34099 0.0
C1633 C 0.68086 0.54159 0.37452 0.0
C1634 C 0.68626 0.5381 0.42199 0.0
C1635 C 0.70957 0.54425 0.43555 0.0
C1636 C 0.72764 0.55411 0.40153 0.0
C1637 C 0.72307 0.55819 0.35532 0.0
C1638 C 0.74585 0.56972 0.32602 0.0
C1639 C 0.74422 0.55355 0.28419 0.0
C1640 C 0.75151 0.5945 0.30832 0.0
C1641 C 0.76388 0.57158 0.36301 0.0
C1642 C 0.75306 0.56232 0.40631 0.0
C1643 C 0.76629 0.56239 0.44589 0.0
C1644 C 0.79127 0.57265 0.4413 0.0
C1645 C 0.80276 0.58284 0.39755 0.0
C1646 C 0.78865 0.58187 0.35792 0.0
H1647 H 0.57373 0.79316 0.62323 0.0
H1648 H 0.64519 0.84597 0.57925 0.0
H1649 H 0.63486 0.8777 0.58785 0.0
H1650 H 0.54249 0.82307 0.56566 0.0
H1651 H 0.52155 0.81495 0.61425 0.0
H1652 H 0.53352 0.79595 0.59846 0.0
H1653 H 0.54795 0.79838 0.68545 0.0
H1654 H 0.53649 0.81776 0.7013 0.0
H1655 H 0.56748 0.82716 0.7117 0.0
H1656 H 0.61917 0.90449 0.61349 0.0
H1657 H 0.59674 0.92392 0.64232 0.0
H1658 H 0.53453 0.85446 0.66596 0.0
C1659 C 0.58675 0.81124 0.61321 0.0
C1660 C 0.61013 0.81704 0.59941 0.0
C1661 C 0.62706 0.84109 0.58889 0.0
C1662 C 0.62141 0.85928 0.59405 0.0
C1663 C 0.59861 0.85325 0.60966 0.0
C1664 C 0.5813 0.82977 0.61802 0.0
C1665 C 0.55856 0.8285 0.63672 0.0
C1666 C 0.5378 0.81481 0.60167 0.0
C1667 C 0.55226 0.81728 0.68676 0.0
C1668 C 0.56602 0.85486 0.63852 0.0
C1669 C 0.58929 0.86881 0.62311 0.0
C1670 C 0.60077 0.89371 0.6247 0.0
C1671 C 0.58801 0.90464 0.64151 0.0
C1672 C 0.5639 0.89077 0.65593 0.0
C1673 C 0.55284 0.86552 0.6544 0.0
H1674 H 0.19688 0.78556 0.57411 0.0
H1675 H 0.2619 0.7954 0.63905 0.0
H1676 H 0.24128 0.75237 0.66005 0.0
H1677 H 0.15744 0.74751 0.65692 0.0
H1678 H 0.13413 0.72856 0.61589 0.0
H1679 H 0.1547 0.75906 0.60023 0.0
H1680 H 0.16643 0.74545 0.52285 0.0
H1681 H 0.14542 0.71486 0.53759 0.0
H1682 H 0.17625 0.72385 0.52629 0.0
H1683 H 0.21086 0.70945 0.68592 0.0
H1684 H 0.17578 0.66939 0.70168 0.0
H1685 H 0.13172 0.68737 0.61489 0.0
C1686 C 0.20704 0.77838 0.59086 0.0
C1687 C 0.23114 0.79363 0.60397 0.0
C1688 C 0.24368 0.78385 0.62735 0.0
C1689 C 0.23197 0.75949 0.63995 0.0
C1690 C 0.20784 0.74509 0.62814 0.0
C1691 C 0.19576 0.7541 0.60277 0.0
C1692 C 0.16975 0.7353 0.59571 0.0
C1693 C 0.15304 0.74308 0.61856 0.0
C1694 C 0.16414 0.72952 0.54244 0.0
C1695 C 0.16878 0.71446 0.62229 0.0
C1696 C 0.19083 0.72042 0.64117 0.0
C1697 C 0.19369 0.7045 0.67031 0.0
C1698 C 0.17367 0.68188 0.67946 0.0
C1699 C 0.15116 0.67521 0.65905 0.0
C1700 C 0.14883 0.69183 0.63018 0.0
H1701 H 0.24968 0.41799 0.58597 0.0
H1702 H 0.24533 0.47965 0.63163 0.0
H1703 H 0.28883 0.50111 0.64936 0.0
H1704 H 0.28867 0.42015 0.67191 0.0
H1705 H 0.30551 0.41142 0.63385 0.0
H1706 H 0.27494 0.40212 0.61969 0.0
H1707 H 0.28744 0.42126 0.53592 0.0
H1708 H 0.31804 0.43018 0.54935 0.0
H1709 H 0.31035 0.45213 0.53068 0.0
H1710 H 0.33196 0.51306 0.67378 0.0
H1711 H 0.37162 0.51694 0.6895 0.0
H1712 H 0.34778 0.44834 0.62254 0.0
C1713 C 0.25811 0.43635 0.59801 0.0
C1714 C 0.24429 0.44737 0.60663 0.0
C1715 C 0.25574 0.47116 0.62357 0.0
C1716 C 0.28038 0.48333 0.63427 0.0
C1717 C 0.29336 0.47158 0.62698 0.0
C1718 C 0.28266 0.44883 0.60788 0.0
C1719 C 0.30019 0.43977 0.60434 0.0
C1720 C 0.29182 0.41702 0.63424 0.0
C1721 C 0.30425 0.4356 0.55196 0.0
C1722 C 0.32233 0.46065 0.62561 0.0
C1723 C 0.31808 0.4788 0.63894 0.0
C1724 C 0.33554 0.49914 0.6625 0.0
C1725 C 0.35793 0.50114 0.67169 0.0
C1726 C 0.36283 0.48308 0.65677 0.0
C1727 C 0.34467 0.46262 0.63355 0.0
H1728 H 0.11257 0.54474 0.66716 0.0
H1729 H 0.13929 0.57672 0.80604 0.0
H1730 H 0.16028 0.55344 0.81298 0.0
H1731 H 0.10049 0.48681 0.69639 0.0
H1732 H 0.10906 0.48106 0.6388 0.0
H1733 H 0.09783 0.50142 0.64399 0.0
H1734 H 0.13611 0.53453 0.60336 0.0
H1735 H 0.14737 0.51417 0.59794 0.0
H1736 H 0.16494 0.54243 0.62772 0.0
H1737 H 0.17672 0.52427 0.80514 0.0
H1738 H 0.18704 0.4934 0.78372 0.0
H1739 H 0.14823 0.48065 0.65067 0.0
C1740 C 0.12304 0.54719 0.69899 0.0
C1741 C 0.12431 0.56275 0.73606 0.0
C1742 C 0.13815 0.56511 0.77702 0.0
C1743 C 0.15007 0.55188 0.78124 0.0
C1744 C 0.14804 0.5364 0.74417 0.0
C1745 C 0.13488 0.53416 0.70375 0.0
C1746 C 0.13458 0.51582 0.66949 0.0
C1747 C 0.10897 0.49505 0.66174 0.0
C1748 C 0.14647 0.52744 0.62181 0.0
C1749 C 0.14949 0.5078 0.6969 0.0
C1750 C 0.1572 0.51986 0.73983 0.0
C1751 C 0.17078 0.51487 0.7715 0.0
C1752 C 0.17647 0.49714 0.75908 0.0
C1753 C 0.1686 0.48443 0.71532 0.0
C1754 C 0.155 0.49013 0.68396 0.0
H1755 H 0.48733 0.57747 0.64958 0.0
H1756 H 0.46792 0.57235 0.79914 0.0
H1757 H 0.49488 0.61605 0.80764 0.0
H1758 H 0.54838 0.61892 0.66354 0.0
H1759 H 0.55109 0.6349 0.60913 0.0
H1760 H 0.52881 0.60384 0.61393 0.0
H1761 H 0.49571 0.61365 0.59232 0.0
H1762 H 0.51798 0.64472 0.58691 0.0
H1763 H 0.49292 0.63577 0.62652 0.0
H1764 H 0.52636 0.66019 0.80031 0.0
H1765 H 0.55775 0.70071 0.7779 0.0
H1766 H 0.55664 0.67661 0.63278 0.0
C1767 C 0.48836 0.5855 0.68408 0.0
C1768 C 0.4753 0.57137 0.72373 0.0
C1769 C 0.47746 0.58274 0.76816 0.0
C1770 C 0.49286 0.60755 0.77331 0.0
C1771 C 0.50595 0.62077 0.73369 0.0
C1772 C 0.50365 0.6101 0.6898 0.0
C1773 C 0.52021 0.62798 0.65307 0.0
C1774 C 0.53819 0.62099 0.63381 0.0
C1775 C 0.50584 0.63069 0.6123 0.0
C1776 C 0.53255 0.65044 0.68319 0.0
C1777 C 0.524 0.64594 0.72953 0.0
C1778 C 0.53294 0.66388 0.76401 0.0
C1779 C 0.55079 0.68695 0.75079 0.0
C1780 C 0.55975 0.69213 0.70337 0.0
C1781 C 0.55044 0.6734 0.66935 0.0
H1782 H 0.36379 0.90464 0.66269 0.0
H1783 H 0.33373 0.84323 0.75658 0.0
H1784 H 0.37429 0.85269 0.78009 0.0
H1785 H 0.41428 0.89928 0.62254 0.0
H1786 H 0.43432 0.93107 0.62107 0.0
H1787 H 0.40282 0.91915 0.61144 0.0
H1788 H 0.40184 0.94543 0.68032 0.0
H1789 H 0.4333 0.95734 0.69029 0.0
H1790 H 0.41246 0.94341 0.73861 0.0
H1791 H 0.41946 0.86954 0.79416 0.0
H1792 H 0.46392 0.89195 0.79557 0.0
H1793 H 0.46355 0.94182 0.69277 0.0
C1794 C 0.36568 0.89302 0.6878 0.0
C1795 C 0.34531 0.87322 0.70782 0.0
C1796 C 0.34885 0.85872 0.7411 0.0
C1797 C 0.37193 0.86388 0.75459 0.0
C1798 C 0.39159 0.88367 0.73465 0.0
C1799 C 0.38864 0.89797 0.70185 0.0
C1800 C 0.41262 0.91834 0.68597 0.0
C1801 C 0.41622 0.91686 0.63206 0.0
C1802 C 0.4152 0.94256 0.69963 0.0
C1803 C 0.42947 0.91328 0.71483 0.0
C1804 C 0.41714 0.89323 0.74276 0.0
C1805 C 0.42924 0.88529 0.77232 0.0
C1806 C 0.45452 0.89812 0.77304 0.0
C1807 C 0.46744 0.9187 0.74444 0.0
C1808 C 0.45446 0.9262 0.71525 0.0
loop_
_geom_bond_atom_site_label_1
_geom_bond_atom_site_label_2
_geom_bond_distance
_geom_bond_site_symmetry_2
_ccdc_geom_bond_type
C0 C1 1.351 . S
C0 N3 1.368 . S
C0 H5 0.931 . S
C1 C0 1.351 . S
C1 N2 1.373 . S
C1 H29 0.930 1_554 S
N2 C1 1.373 . S
N2 C4 1.340 . S
N3 C0 1.368 . S
N3 C4 1.321 . S
N3 Co6 2.135 . S
C4 N2 1.340 . S
C4 N3 1.321 . S
C4 H28 0.930 . S
H5 C0 0.931 . S
Co6 N3 2.135 . S
Co6 N9 2.121 . S
Co6 O14 2.055 . S
Co6 O17 2.039 . S
Co6 N20 2.140 . S
C7 O8 1.227 . S
C7 O17 1.265 . S
O8 C7 1.227 . S
N9 Co6 2.121 . S
N9 C11 1.375 . S
N9 C12 1.313 . S
C10 C11 1.338 . S
C10 N13 1.377 . S
C10 H30 0.930 . S
C11 N9 1.375 . S
C11 C10 1.338 . S
C11 H15 0.931 . S
C12 N9 1.313 . S
C12 N13 1.344 . S
C12 H16 0.930 . S
N13 C10 1.377 . S
N13 C12 1.344 . S
O14 Co6 2.055 . S
O14 C18 1.253 . S
H15 C11 0.931 . S
H16 C12 0.930 . S
O17 Co6 2.039 . S
O17 C7 1.265 . S
C18 O14 1.253 . S
C18 O19 1.227 . S
O19 C18 1.227 . S
N20 Co6 2.140 . S
N20 C23 1.346 . S
N20 C24 1.345 . S
C21 C22 1.387 . S
C21 C25 1.391 . S
C22 C21 1.387 . S
C22 C23 1.369 . S
C22 H31 0.929 . S
C23 N20 1.346 . S
C23 C22 1.369 . S
C23 H26 0.928 . S
C24 N20 1.345 . S
C24 C25 1.371 . S
C24 H27 0.931 . S
C25 C21 1.391 . S
C25 C24 1.371 . S
C25 H32 0.930 . S
H26 C23 0.928 . S
H27 C24 0.931 . S
H28 C4 0.930 . S
H29 C1 0.930 1_556 S
H30 C10 0.930 . S
H31 C22 0.929 . S
H32 C25 0.930 . S
C33 C34 1.351 . S
C33 N36 1.368 . S
C33 H38 0.931 . S
C34 C33 1.351 . S
C34 N35 1.373 1_565 S
C34 H62 0.930 1_554 S
N35 C34 1.373 1_545 S
N35 C37 1.340 1_545 S
N36 C33 1.368 . S
N36 C37 1.321 . S
N36 Co39 2.135 . S
C37 N35 1.340 1_565 S
C37 N36 1.321 . S
C37 H61 0.930 1_565 S
H38 C33 0.931 . S
Co39 N36 2.135 . S
Co39 N42 2.121 . S
Co39 O47 2.055 . S
Co39 O50 2.039 . S
Co39 N53 2.140 . S
C40 O41 1.227 . S
C40 O50 1.265 . S
O41 C40 1.227 . S
N42 Co39 2.121 . S
N42 C44 1.375 . S
N42 C45 1.313 . S
C43 C44 1.338 . S
C43 N46 1.377 . S
C43 H63 0.930 . S
C44 N42 1.375 . S
C44 C43 1.338 . S
C44 H48 0.931 . S
C45 N42 1.313 . S
C45 N46 1.344 . S
C45 H49 0.930 . S
N46 C43 1.377 . S
N46 C45 1.344 . S
O47 Co39 2.055 . S
O47 C51 1.253 . S
H48 C44 0.931 . S
H49 C45 0.930 . S
O50 Co39 2.039 . S
O50 C40 1.265 . S
C51 O47 1.253 . S
C51 O52 1.227 . S
O52 C51 1.227 . S
N53 Co39 2.140 . S
N53 C56 1.346 . S
N53 C57 1.345 . S
C54 C55 1.387 . S
C54 C58 1.391 . S
C55 C54 1.387 . S
C55 C56 1.369 . S
C55 H64 0.929 . S
C56 N53 1.346 . S
C56 C55 1.369 . S
C56 H59 0.928 . S
C57 N53 1.345 . S
C57 C58 1.371 . S
C57 H60 0.931 . S
C58 C54 1.391 . S
C58 C57 1.371 . S
C58 H65 0.930 . S
H59 C56 0.928 . S
H60 C57 0.931 . S
H61 C37 0.930 1_545 S
H62 C34 0.930 1_556 S
H63 C43 0.930 . S
H64 C55 0.929 . S
H65 C58 0.930 . S
C66 C67 1.351 . S
C66 N69 1.368 . S
C66 H71 0.931 . S
C67 C66 1.351 . S
C67 N68 1.373 1_455 S
C67 H95 0.930 1_554 S
N68 C67 1.373 1_655 S
N68 C70 1.340 1_655 S
N69 C66 1.368 . S
N69 C70 1.321 . S
N69 Co72 2.135 . S
C70 N68 1.340 1_455 S
C70 N69 1.321 . S
C70 H94 0.930 1_455 S
H71 C66 0.931 . S
Co72 N69 2.135 . S
Co72 N75 2.121 . S
Co72 O80 2.055 . S
Co72 O83 2.039 . S
Co72 N86 2.140 . S
C73 O74 1.227 . S
C73 O83 1.265 . S
O74 C73 1.227 . S
N75 Co72 2.121 . S
N75 C77 1.375 . S
N75 C78 1.313 . S
C76 C77 1.338 . S
C76 N79 1.377 . S
C76 H96 0.930 . S
C77 N75 1.375 . S
C77 C76 1.338 . S
C77 H81 0.931 . S
C78 N75 1.313 . S
C78 N79 1.344 . S
C78 H82 0.930 . S
N79 C76 1.377 . S
N79 C78 1.344 . S
O80 Co72 2.055 . S
O80 C84 1.253 . S
H81 C77 0.931 . S
H82 C78 0.930 . S
O83 Co72 2.039 . S
O83 C73 1.265 . S
C84 O80 1.253 . S
C84 O85 1.227 . S
O85 C84 1.227 . S
N86 Co72 2.140 . S
N86 C89 1.346 . S
N86 C90 1.345 . S
C87 C88 1.387 . S
C87 C91 1.391 . S
C88 C87 1.387 . S
C88 C89 1.369 . S
C88 H97 0.929 . S
C89 N86 1.346 . S
C89 C88 1.369 . S
C89 H92 0.928 . S
C90 N86 1.345 . S
C90 C91 1.371 . S
C90 H93 0.931 . S
C91 C87 1.391 . S
C91 C90 1.371 . S
C91 H98 0.930 . S
H92 C89 0.928 . S
H93 C90 0.931 . S
H94 C70 0.930 1_655 S
H95 C67 0.930 1_556 S
H96 C76 0.930 . S
H97 C88 0.929 . S
H98 C91 0.930 . S
C99 C100 1.351 . S
C99 N102 1.368 . S
C99 H104 0.931 . S
C100 C99 1.351 . S
C100 N101 1.373 . S
C100 H128 0.930 1_556 S
N101 C100 1.373 . S
N101 C103 1.340 . S
N102 C99 1.368 . S
N102 C103 1.321 . S
N102 Co105 2.135 . S
C103 N101 1.340 . S
C103 N102 1.321 . S
C103 H127 0.930 . S
H104 C99 0.931 . S
Co105 N102 2.135 . S
Co105 N108 2.121 . S
Co105 O113 2.055 . S
Co105 O116 2.039 . S
Co105 N119 2.140 . S
C106 O107 1.227 . S
C106 O116 1.265 . S
O107 C106 1.227 . S
N108 Co105 2.121 . S
N108 C110 1.375 . S
N108 C111 1.313 . S
C109 C110 1.338 . S
C109 N112 1.377 . S
C109 H129 0.930 . S
C110 N108 1.375 . S
C110 C109 1.338 . S
C110 H114 0.931 . S
C111 N108 1.313 . S
C111 N112 1.344 . S
C111 H115 0.930 . S
N112 C109 1.377 . S
N112 C111 1.344 . S
O113 Co105 2.055 . S
O113 C117 1.253 . S
H114 C110 0.931 . S
H115 C111 0.930 . S
O116 Co105 2.039 . S
O116 C106 1.265 . S
C117 O113 1.253 . S
C117 O118 1.227 . S
O118 C117 1.227 . S
N119 Co105 2.140 . S
N119 C122 1.346 . S
N119 C123 1.345 . S
C120 C121 1.387 . S
C120 C124 1.391 . S
C121 C120 1.387 . S
C121 C122 1.369 . S
C121 H130 0.929 . S
C122 N119 1.346 . S
C122 C121 1.369 . S
C122 H125 0.928 . S
C123 N119 1.345 . S
C123 C124 1.371 . S
C123 H126 0.931 . S
C124 C120 1.391 . S
C124 C123 1.371 . S
C124 H131 0.930 . S
H125 C122 0.928 . S
H126 C123 0.931 . S
H127 C103 0.930 . S
H128 C100 0.930 1_554 S
H129 C109 0.930 . S
H130 C121 0.929 . S
H131 C124 0.930 . S
C132 C133 1.351 . S
C132 N135 1.368 . S
C132 H137 0.931 . S
C133 C132 1.351 . S
C133 N134 1.373 1_545 S
C133 H161 0.930 1_556 S
N134 C133 1.373 1_565 S
N134 C136 1.340 1_565 S
N135 C132 1.368 . S
N135 C136 1.321 . S
N135 Co138 2.135 . S
C136 N134 1.340 1_545 S
C136 N135 1.321 . S
C136 H160 0.930 1_545 S
H137 C132 0.931 . S
Co138 N135 2.135 . S
Co138 N141 2.121 . S
Co138 O146 2.055 . S
Co138 O149 2.039 . S
Co138 N152 2.140 . S
C139 O140 1.227 . S
C139 O149 1.265 . S
O140 C139 1.227 . S
N141 Co138 2.121 . S
N141 C143 1.375 . S
N141 C144 1.313 . S
C142 C143 1.338 . S
C142 N145 1.377 . S
C142 H162 0.930 . S
C143 N141 1.375 . S
C143 C142 1.338 . S
C143 H147 0.931 . S
C144 N141 1.313 . S
C144 N145 1.344 . S
C144 H148 0.930 . S
N145 C142 1.377 . S
N145 C144 1.344 . S
O146 Co138 2.055 . S
O146 C150 1.253 . S
H147 C143 0.931 . S
H148 C144 0.930 . S
O149 Co138 2.039 . S
O149 C139 1.265 . S
C150 O146 1.253 . S
C150 O151 1.227 . S
O151 C150 1.227 . S
N152 Co138 2.140 . S
N152 C155 1.346 . S
N152 C156 1.345 . S
C153 C154 1.387 . S
C153 C157 1.391 . S
C154 C153 1.387 . S
C154 C155 1.369 . S
C154 H163 0.929 . S
C155 N152 1.346 . S
C155 C154 1.369 . S
C155 H158 0.928 . S
C156 N152 1.345 . S
C156 C157 1.371 . S
C156 H159 0.931 . S
C157 C153 1.391 . S
C157 C156 1.371 . S
C157 H164 0.930 . S
H158 C155 0.928 . S
H159 C156 0.931 . S
H160 C136 0.930 1_565 S
H161 C133 0.930 1_554 S
H162 C142 0.930 . S
H163 C154 0.929 . S
H164 C157 0.930 . S
C165 C166 1.351 . S
C165 N168 1.368 . S
C165 H170 0.931 . S
C166 C165 1.351 . S
C166 N167 1.373 1_655 S
C166 H194 0.930 1_556 S
N167 C166 1.373 1_455 S
N167 C169 1.340 1_455 S
N168 C165 1.368 . S
N168 C169 1.321 . S
N168 Co171 2.135 . S
C169 N167 1.340 1_655 S
C169 N168 1.321 . S
C169 H193 0.930 1_655 S
H170 C165 0.931 . S
Co171 N168 2.135 . S
Co171 N174 2.121 . S
Co171 O179 2.055 . S
Co171 O182 2.039 . S
Co171 N185 2.140 . S
C172 O173 1.227 . S
C172 O182 1.265 . S
O173 C172 1.227 . S
N174 Co171 2.121 . S
N174 C176 1.375 . S
N174 C177 1.313 . S
C175 C176 1.338 . S
C175 N178 1.377 . S
C175 H195 0.930 . S
C176 N174 1.375 . S
C176 C175 1.338 . S
C176 H180 0.931 . S
C177 N174 1.313 . S
C177 N178 1.344 . S
C177 H181 0.930 . S
N178 C175 1.377 . S
N178 C177 1.344 . S
O179 Co171 2.055 . S
O179 C183 1.253 . S
H180 C176 0.931 . S
H181 C177 0.930 . S
O182 Co171 2.039 . S
O182 C172 1.265 . S
C183 O179 1.253 . S
C183 O184 1.227 . S
O184 C183 1.227 . S
N185 Co171 2.140 . S
N185 C188 1.346 . S
N185 C189 1.345 . S
C186 C187 1.387 . S
C186 C190 1.391 . S
C187 C186 1.387 . S
C187 C188 1.369 . S
C187 H196 0.929 . S
C188 N185 1.346 . S
C188 C187 1.369 . S
C188 H191 0.928 . S
C189 N185 1.345 . S
C189 C190 1.371 . S
C189 H192 0.931 . S
C190 C186 1.391 . S
C190 C189 1.371 . S
C190 H197 0.930 . S
H191 C188 0.928 . S
H192 C189 0.931 . S
H193 C169 0.930 1_455 S
H194 C166 0.930 1_554 S
H195 C175 0.930 . S
H196 C187 0.929 . S
H197 C190 0.930 . S
C198 C199 1.351 . S
C198 N201 1.368 . S
C198 H203 0.931 . S
C199 C198 1.351 . S
C199 N200 1.373 . S
C199 H227 0.930 . S
N200 C199 1.373 . S
N200 C202 1.340 . S
N201 C198 1.368 . S
N201 C202 1.321 . S
N201 Co204 2.135 . S
C202 N200 1.340 . S
C202 N201 1.321 . S
C202 H226 0.930 . S
H203 C198 0.931 . S
Co204 N201 2.135 . S
Co204 N207 2.121 . S
Co204 O212 2.055 . S
Co204 O215 2.039 . S
Co204 N218 2.140 . S
C205 O206 1.227 . S
C205 O215 1.265 . S
O206 C205 1.227 . S
N207 Co204 2.121 . S
N207 C209 1.375 . S
N207 C210 1.313 . S
C208 C209 1.338 . S
C208 N211 1.377 . S
C208 H228 0.930 . S
C209 N207 1.375 . S
C209 C208 1.338 . S
C209 H213 0.931 . S
C210 N207 1.313 . S
C210 N211 1.344 . S
C210 H214 0.930 . S
N211 C208 1.377 . S
N211 C210 1.344 . S
O212 Co204 2.055 . S
O212 C216 1.253 . S
H213 C209 0.931 . S
H214 C210 0.930 . S
O215 Co204 2.039 . S
O215 C205 1.265 . S
C216 O212 1.253 . S
C216 O217 1.227 . S
O217 C216 1.227 . S
N218 Co204 2.140 . S
N218 C221 1.346 . S
N218 C222 1.345 . S
C219 C220 1.387 . S
C219 C223 1.391 . S
C220 C219 1.387 . S
C220 C221 1.369 . S
C220 H229 0.929 . S
C221 N218 1.346 . S
C221 C220 1.369 . S
C221 H224 0.928 . S
C222 N218 1.345 . S
C222 C223 1.371 . S
C222 H225 0.931 . S
C223 C219 1.391 . S
C223 C222 1.371 . S
C223 H230 0.930 . S
H224 C221 0.928 . S
H225 C222 0.931 . S
H226 C202 0.930 . S
H227 C199 0.930 . S
H228 C208 0.930 . S
H229 C220 0.929 . S
H230 C223 0.930 . S
C231 C232 1.351 . S
C231 N234 1.368 . S
C231 H236 0.931 . S
C232 C231 1.351 . S
C232 N233 1.373 . S
C232 H260 0.930 . S
N233 C232 1.373 . S
N233 C235 1.340 . S
N234 C231 1.368 . S
N234 C235 1.321 . S
N234 Co237 2.135 . S
C235 N233 1.340 . S
C235 N234 1.321 . S
C235 H259 0.930 . S
H236 C231 0.931 . S
Co237 N234 2.135 . S
Co237 N240 2.121 . S
Co237 O245 2.055 . S
Co237 O248 2.039 . S
Co237 N251 2.140 . S
C238 O239 1.227 . S
C238 O248 1.265 . S
O239 C238 1.227 . S
N240 Co237 2.121 . S
N240 C242 1.375 . S
N240 C243 1.313 . S
C241 C242 1.338 . S
C241 N244 1.377 . S
C241 H261 0.930 . S
C242 N240 1.375 . S
C242 C241 1.338 . S
C242 H246 0.931 . S
C243 N240 1.313 . S
C243 N244 1.344 . S
C243 H247 0.930 . S
N244 C241 1.377 . S
N244 C243 1.344 . S
O245 Co237 2.055 . S
O245 C249 1.253 . S
H246 C242 0.931 . S
H247 C243 0.930 . S
O248 Co237 2.039 . S
O248 C238 1.265 . S
C249 O245 1.253 . S
C249 O250 1.227 . S
O250 C249 1.227 . S
N251 Co237 2.140 . S
N251 C254 1.346 . S
N251 C255 1.345 . S
C252 C253 1.387 . S
C252 C256 1.391 . S
C253 C252 1.387 . S
C253 C254 1.369 . S
C253 H262 0.929 . S
C254 N251 1.346 . S
C254 C253 1.369 . S
C254 H257 0.928 . S
C255 N251 1.345 . S
C255 C256 1.371 . S
C255 H258 0.931 . S
C256 C252 1.391 . S
C256 C255 1.371 . S
C256 H263 0.930 . S
H257 C254 0.928 . S
H258 C255 0.931 . S
H259 C235 0.930 . S
H260 C232 0.930 . S
H261 C241 0.930 . S
H262 C253 0.929 . S
H263 C256 0.930 . S
C264 C265 1.351 . S
C264 N267 1.368 . S
C264 H269 0.931 . S
C265 C264 1.351 . S
C265 N266 1.373 . S
C265 H293 0.930 . S
N266 C265 1.373 . S
N266 C268 1.340 . S
N267 C264 1.368 . S
N267 C268 1.321 . S
N267 Co270 2.135 . S
C268 N266 1.340 . S
C268 N267 1.321 . S
C268 H292 0.930 . S
H269 C264 0.931 . S
Co270 N267 2.135 . S
Co270 N273 2.121 . S
Co270 O278 2.055 . S
Co270 O281 2.039 . S
Co270 N284 2.140 . S
C271 O272 1.227 . S
C271 O281 1.265 . S
O272 C271 1.227 . S
N273 Co270 2.121 . S
N273 C275 1.375 . S
N273 C276 1.313 . S
C274 C275 1.338 . S
C274 N277 1.377 . S
C274 H294 0.930 . S
C275 N273 1.375 . S
C275 C274 1.338 . S
C275 H279 0.931 . S
C276 N273 1.313 . S
C276 N277 1.344 . S
C276 H280 0.930 . S
N277 C274 1.377 . S
N277 C276 1.344 . S
O278 Co270 2.055 . S
O278 C282 1.253 . S
H279 C275 0.931 . S
H280 C276 0.930 . S
O281 Co270 2.039 . S
O281 C271 1.265 . S
C282 O278 1.253 . S
C282 O283 1.227 . S
O283 C282 1.227 . S
N284 Co270 2.140 . S
N284 C287 1.346 . S
N284 C288 1.345 . S
C285 C286 1.387 . S
C285 C289 1.391 . S
C286 C285 1.387 . S
C286 C287 1.369 . S
C286 H295 0.929 . S
C287 N284 1.346 . S
C287 C286 1.369 . S
C287 H290 0.928 . S
C288 N284 1.345 . S
C288 C289 1.371 . S
C288 H291 0.931 . S
C289 C285 1.391 . S
C289 C288 1.371 . S
C289 H296 0.930 . S
H290 C287 0.928 . S
H291 C288 0.931 . S
H292 C268 0.930 . S
H293 C265 0.930 . S
H294 C274 0.930 . S
H295 C286 0.929 . S
H296 C289 0.930 . S
C297 C298 1.351 . S
C297 N300 1.368 . S
C297 H302 0.931 . S
C298 C297 1.351 . S
C298 N299 1.373 . S
C298 H326 0.930 . S
N299 C298 1.373 . S
N299 C301 1.340 . S
N300 C297 1.368 . S
N300 C301 1.321 . S
N300 Co303 2.135 . S
C301 N299 1.340 . S
C301 N300 1.321 . S
C301 H325 0.930 . S
H302 C297 0.931 . S
Co303 N300 2.135 . S
Co303 N306 2.121 . S
Co303 O311 2.055 . S
Co303 O314 2.039 . S
Co303 N317 2.140 . S
C304 O305 1.227 . S
C304 O314 1.265 . S
O305 C304 1.227 . S
N306 Co303 2.121 . S
N306 C308 1.375 . S
N306 C309 1.313 . S
C307 C308 1.338 . S
C307 N310 1.377 . S
C307 H327 0.930 . S
C308 N306 1.375 . S
C308 C307 1.338 . S
C308 H312 0.931 . S
C309 N306 1.313 . S
C309 N310 1.344 . S
C309 H313 0.930 . S
N310 C307 1.377 . S
N310 C309 1.344 . S
O311 Co303 2.055 . S
O311 C315 1.253 . S
H312 C308 0.931 . S
H313 C309 0.930 . S
O314 Co303 2.039 . S
O314 C304 1.265 . S
C315 O311 1.253 . S
C315 O316 1.227 . S
O316 C315 1.227 . S
N317 Co303 2.140 . S
N317 C320 1.346 . S
N317 C321 1.345 . S
C318 C319 1.387 . S
C318 C322 1.391 . S
C319 C318 1.387 . S
C319 C320 1.369 . S
C319 H328 0.929 . S
C320 N317 1.346 . S
C320 C319 1.369 . S
C320 H323 0.928 . S
C321 N317 1.345 . S
C321 C322 1.371 . S
C321 H324 0.931 . S
C322 C318 1.391 . S
C322 C321 1.371 . S
C322 H329 0.930 . S
H323 C320 0.928 . S
H324 C321 0.931 . S
H325 C301 0.930 . S
H326 C298 0.930 . S
H327 C307 0.930 . S
H328 C319 0.929 . S
H329 C322 0.930 . S
C330 C331 1.351 . S
C330 N333 1.368 . S
C330 H335 0.931 . S
C331 C330 1.351 . S
C331 N332 1.373 . S
C331 H359 0.930 . S
N332 C331 1.373 . S
N332 C334 1.340 . S
N333 C330 1.368 . S
N333 C334 1.321 . S
N333 Co336 2.135 . S
C334 N332 1.340 . S
C334 N333 1.321 . S
C334 H358 0.930 . S
H335 C330 0.931 . S
Co336 N333 2.135 . S
Co336 N339 2.121 . S
Co336 O344 2.055 . S
Co336 O347 2.039 . S
Co336 N350 2.140 . S
C337 O338 1.227 . S
C337 O347 1.265 . S
O338 C337 1.227 . S
N339 Co336 2.121 . S
N339 C341 1.375 . S
N339 C342 1.313 . S
C340 C341 1.338 . S
C340 N343 1.377 . S
C340 H360 0.930 . S
C341 N339 1.375 . S
C341 C340 1.338 . S
C341 H345 0.931 . S
C342 N339 1.313 . S
C342 N343 1.344 . S
C342 H346 0.930 . S
N343 C340 1.377 . S
N343 C342 1.344 . S
O344 Co336 2.055 . S
O344 C348 1.253 . S
H345 C341 0.931 . S
H346 C342 0.930 . S
O347 Co336 2.039 . S
O347 C337 1.265 . S
C348 O344 1.253 . S
C348 O349 1.227 . S
O349 C348 1.227 . S
N350 Co336 2.140 . S
N350 C353 1.346 . S
N350 C354 1.345 . S
C351 C352 1.387 . S
C351 C355 1.391 . S
C352 C351 1.387 . S
C352 C353 1.369 . S
C352 H361 0.929 . S
C353 N350 1.346 . S
C353 C352 1.369 . S
C353 H356 0.928 . S
C354 N350 1.345 . S
C354 C355 1.371 . S
C354 H357 0.931 . S
C355 C351 1.391 . S
C355 C354 1.371 . S
C355 H362 0.930 . S
H356 C353 0.928 . S
H357 C354 0.931 . S
H358 C334 0.930 . S
H359 C331 0.930 . S
H360 C340 0.930 . S
H361 C352 0.929 . S
H362 C355 0.930 . S
C363 C364 1.351 . S
C363 N366 1.368 . S
C363 H368 0.931 . S
C364 C363 1.351 . S
C364 N365 1.373 . S
C364 H392 0.930 . S
N365 C364 1.373 . S
N365 C367 1.340 . S
N366 C363 1.368 . S
N366 C367 1.321 . S
N366 Co369 2.135 . S
C367 N365 1.340 . S
C367 N366 1.321 . S
C367 H391 0.930 . S
H368 C363 0.931 . S
Co369 N366 2.135 . S
Co369 N372 2.121 . S
Co369 O377 2.055 . S
Co369 O380 2.039 . S
Co369 N383 2.140 . S
C370 O371 1.227 . S
C370 O380 1.265 . S
O371 C370 1.227 . S
N372 Co369 2.121 . S
N372 C374 1.375 . S
N372 C375 1.313 . S
C373 C374 1.338 . S
C373 N376 1.377 . S
C373 H393 0.930 . S
C374 N372 1.375 . S
C374 C373 1.338 . S
C374 H378 0.931 . S
C375 N372 1.313 . S
C375 N376 1.344 . S
C375 H379 0.930 . S
N376 C373 1.377 . S
N376 C375 1.344 . S
O377 Co369 2.055 . S
O377 C381 1.253 . S
H378 C374 0.931 . S
H379 C375 0.930 . S
O380 Co369 2.039 . S
O380 C370 1.265 . S
C381 O377 1.253 . S
C381 O382 1.227 . S
O382 C381 1.227 . S
N383 Co369 2.140 . S
N383 C386 1.346 . S
N383 C387 1.345 . S
C384 C385 1.387 . S
C384 C388 1.391 . S
C385 C384 1.387 . S
C385 C386 1.369 . S
C385 H394 0.929 . S
C386 N383 1.346 . S
C386 C385 1.369 . S
C386 H389 0.928 . S
C387 N383 1.345 . S
C387 C388 1.371 . S
C387 H390 0.931 . S
C388 C384 1.391 . S
C388 C387 1.371 . S
C388 H395 0.930 . S
H389 C386 0.928 . S
H390 C387 0.931 . S
H391 C367 0.930 . S
H392 C364 0.930 . S
H393 C373 0.930 . S
H394 C385 0.929 . S
H395 C388 0.930 . S
C396 C397 1.351 . S
C396 N399 1.368 . S
C396 H401 0.931 . S
C397 C396 1.351 . S
C397 N398 1.373 . S
C397 H425 0.930 . S
N398 C397 1.373 . S
N398 C400 1.340 . S
N399 C396 1.368 . S
N399 C400 1.321 . S
N399 Co402 2.135 . S
C400 N398 1.340 . S
C400 N399 1.321 . S
C400 H424 0.930 . S
H401 C396 0.931 . S
Co402 N399 2.135 . S
Co402 N405 2.121 . S
Co402 O410 2.055 . S
Co402 O413 2.039 . S
Co402 N416 2.140 . S
C403 O404 1.227 . S
C403 O413 1.265 . S
O404 C403 1.227 . S
N405 Co402 2.121 . S
N405 C407 1.375 . S
N405 C408 1.313 . S
C406 C407 1.338 . S
C406 N409 1.377 . S
C406 H426 0.930 . S
C407 N405 1.375 . S
C407 C406 1.338 . S
C407 H411 0.931 . S
C408 N405 1.313 . S
C408 N409 1.344 . S
C408 H412 0.930 . S
N409 C406 1.377 . S
N409 C408 1.344 . S
O410 Co402 2.055 . S
O410 C414 1.253 . S
H411 C407 0.931 . S
H412 C408 0.930 . S
O413 Co402 2.039 . S
O413 C403 1.265 . S
C414 O410 1.253 . S
C414 O415 1.227 . S
O415 C414 1.227 . S
N416 Co402 2.140 . S
N416 C419 1.346 . S
N416 C420 1.345 . S
C417 C418 1.387 . S
C417 C421 1.391 . S
C418 C417 1.387 . S
C418 C419 1.369 . S
C418 H427 0.929 . S
C419 N416 1.346 . S
C419 C418 1.369 . S
C419 H422 0.928 . S
C420 N416 1.345 . S
C420 C421 1.371 . S
C420 H423 0.931 . S
C421 C417 1.391 . S
C421 C420 1.371 . S
C421 H428 0.930 . S
H422 C419 0.928 . S
H423 C420 0.931 . S
H424 C400 0.930 . S
H425 C397 0.930 . S
H426 C406 0.930 . S
H427 C418 0.929 . S
H428 C421 0.930 . S
C429 C430 1.351 . S
C429 N432 1.368 . S
C429 H434 0.931 . S
C430 C429 1.351 . S
C430 N431 1.373 . S
C430 H458 0.930 . S
N431 C430 1.373 . S
N431 C433 1.340 . S
N432 C429 1.368 . S
N432 C433 1.321 . S
N432 Co435 2.135 . S
C433 N431 1.340 . S
C433 N432 1.321 . S
C433 H457 0.930 . S
H434 C429 0.931 . S
Co435 N432 2.135 . S
Co435 N438 2.121 . S
Co435 O443 2.055 . S
Co435 O446 2.039 . S
Co435 N449 2.140 . S
C436 O437 1.227 . S
C436 O446 1.265 . S
O437 C436 1.227 . S
N438 Co435 2.121 . S
N438 C440 1.375 . S
N438 C441 1.313 . S
C439 C440 1.338 . S
C439 N442 1.377 . S
C439 H459 0.930 . S
C440 N438 1.375 . S
C440 C439 1.338 . S
C440 H444 0.931 . S
C441 N438 1.313 . S
C441 N442 1.344 . S
C441 H445 0.930 . S
N442 C439 1.377 . S
N442 C441 1.344 . S
O443 Co435 2.055 . S
O443 C447 1.253 . S
H444 C440 0.931 . S
H445 C441 0.930 . S
O446 Co435 2.039 . S
O446 C436 1.265 . S
C447 O443 1.253 . S
C447 O448 1.227 . S
O448 C447 1.227 . S
N449 Co435 2.140 . S
N449 C452 1.346 . S
N449 C453 1.345 . S
C450 C451 1.387 . S
C450 C454 1.391 . S
C451 C450 1.387 . S
C451 C452 1.369 . S
C451 H460 0.929 . S
C452 N449 1.346 . S
C452 C451 1.369 . S
C452 H455 0.928 . S
C453 N449 1.345 . S
C453 C454 1.371 . S
C453 H456 0.931 . S
C454 C450 1.391 . S
C454 C453 1.371 . S
C454 H461 0.930 . S
H455 C452 0.928 . S
H456 C453 0.931 . S
H457 C433 0.930 . S
H458 C430 0.930 . S
H459 C439 0.930 . S
H460 C451 0.929 . S
H461 C454 0.930 . S
C462 C463 1.351 . S
C462 N465 1.368 . S
C462 H467 0.931 . S
C463 C462 1.351 . S
C463 N464 1.373 . S
C463 H491 0.930 . S
N464 C463 1.373 . S
N464 C466 1.340 . S
N465 C462 1.368 . S
N465 C466 1.321 . S
N465 Co468 2.135 . S
C466 N464 1.340 . S
C466 N465 1.321 . S
C466 H490 0.930 . S
H467 C462 0.931 . S
Co468 N465 2.135 . S
Co468 N471 2.121 . S
Co468 O476 2.055 . S
Co468 O479 2.039 . S
Co468 N482 2.140 . S
C469 O470 1.227 . S
C469 O479 1.265 . S
O470 C469 1.227 . S
N471 Co468 2.121 . S
N471 C473 1.375 . S
N471 C474 1.313 . S
C472 C473 1.338 . S
C472 N475 1.377 . S
C472 H492 0.930 . S
C473 N471 1.375 . S
C473 C472 1.338 . S
C473 H477 0.931 . S
C474 N471 1.313 . S
C474 N475 1.344 . S
C474 H478 0.930 . S
N475 C472 1.377 . S
N475 C474 1.344 . S
O476 Co468 2.055 . S
O476 C480 1.253 . S
H477 C473 0.931 . S
H478 C474 0.930 . S
O479 Co468 2.039 . S
O479 C469 1.265 . S
C480 O476 1.253 . S
C480 O481 1.227 . S
O481 C480 1.227 . S
N482 Co468 2.140 . S
N482 C485 1.346 . S
N482 C486 1.345 . S
C483 C484 1.387 . S
C483 C487 1.391 . S
C484 C483 1.387 . S
C484 C485 1.369 . S
C484 H493 0.929 . S
C485 N482 1.346 . S
C485 C484 1.369 . S
C485 H488 0.928 . S
C486 N482 1.345 . S
C486 C487 1.371 . S
C486 H489 0.931 . S
C487 C483 1.391 . S
C487 C486 1.371 . S
C487 H494 0.930 . S
H488 C485 0.928 . S
H489 C486 0.931 . S
H490 C466 0.930 . S
H491 C463 0.930 . S
H492 C472 0.930 . S
H493 C484 0.929 . S
H494 C487 0.930 . S
C495 C496 1.351 . S
C495 N498 1.368 . S
C495 H500 0.931 . S
C496 C495 1.351 . S
C496 N497 1.373 . S
C496 H524 0.930 . S
N497 C496 1.373 . S
N497 C499 1.340 . S
N498 C495 1.368 . S
N498 C499 1.321 . S
N498 Co501 2.135 . S
C499 N497 1.340 . S
C499 N498 1.321 . S
C499 H523 0.930 . S
H500 C495 0.931 . S
Co501 N498 2.135 . S
Co501 N504 2.121 . S
Co501 O509 2.055 . S
Co501 O512 2.039 . S
Co501 N515 2.140 . S
C502 O503 1.227 . S
C502 O512 1.265 . S
O503 C502 1.227 . S
N504 Co501 2.121 . S
N504 C506 1.375 . S
N504 C507 1.313 . S
C505 C506 1.338 . S
C505 N508 1.377 . S
C505 H525 0.930 . S
C506 N504 1.375 . S
C506 C505 1.338 . S
C506 H510 0.931 . S
C507 N504 1.313 . S
C507 N508 1.344 . S
C507 H511 0.930 . S
N508 C505 1.377 . S
N508 C507 1.344 . S
O509 Co501 2.055 . S
O509 C513 1.253 . S
H510 C506 0.931 . S
H511 C507 0.930 . S
O512 Co501 2.039 . S
O512 C502 1.265 . S
C513 O509 1.253 . S
C513 O514 1.227 . S
O514 C513 1.227 . S
N515 Co501 2.140 . S
N515 C518 1.346 . S
N515 C519 1.345 . S
C516 C517 1.387 . S
C516 C520 1.391 . S
C517 C516 1.387 . S
C517 C518 1.369 . S
C517 H526 0.929 . S
C518 N515 1.346 . S
C518 C517 1.369 . S
C518 H521 0.928 . S
C519 N515 1.345 . S
C519 C520 1.371 . S
C519 H522 0.931 . S
C520 C516 1.391 . S
C520 C519 1.371 . S
C520 H527 0.930 . S
H521 C518 0.928 . S
H522 C519 0.931 . S
H523 C499 0.930 . S
H524 C496 0.930 . S
H525 C505 0.930 . S
H526 C517 0.929 . S
H527 C520 0.930 . S
C528 C529 1.351 . S
C528 N531 1.368 . S
C528 H533 0.931 . S
C529 C528 1.351 . S
C529 N530 1.373 . S
C529 H557 0.930 . S
N530 C529 1.373 . S
N530 C532 1.340 . S
N531 C528 1.368 . S
N531 C532 1.321 . S
N531 Co534 2.135 . S
C532 N530 1.340 . S
C532 N531 1.321 . S
C532 H556 0.930 . S
H533 C528 0.931 . S
Co534 N531 2.135 . S
Co534 N537 2.121 . S
Co534 O542 2.055 . S
Co534 O545 2.039 . S
Co534 N548 2.140 . S
C535 O536 1.227 . S
C535 O545 1.265 . S
O536 C535 1.227 . S
N537 Co534 2.121 . S
N537 C539 1.375 . S
N537 C540 1.313 . S
C538 C539 1.338 . S
C538 N541 1.377 . S
C538 H558 0.930 . S
C539 N537 1.375 . S
C539 C538 1.338 . S
C539 H543 0.931 . S
C540 N537 1.313 . S
C540 N541 1.344 . S
C540 H544 0.930 . S
N541 C538 1.377 . S
N541 C540 1.344 . S
O542 Co534 2.055 . S
O542 C546 1.253 . S
H543 C539 0.931 . S
H544 C540 0.930 . S
O545 Co534 2.039 . S
O545 C535 1.265 . S
C546 O542 1.253 . S
C546 O547 1.227 . S
O547 C546 1.227 . S
N548 Co534 2.140 . S
N548 C551 1.346 . S
N548 C552 1.345 . S
C549 C550 1.387 . S
C549 C553 1.391 . S
C550 C549 1.387 . S
C550 C551 1.369 . S
C550 H559 0.929 . S
C551 N548 1.346 . S
C551 C550 1.369 . S
C551 H554 0.928 . S
C552 N548 1.345 . S
C552 C553 1.371 . S
C552 H555 0.931 . S
C553 C549 1.391 . S
C553 C552 1.371 . S
C553 H560 0.930 . S
H554 C551 0.928 . S
H555 C552 0.931 . S
H556 C532 0.930 . S
H557 C529 0.930 . S
H558 C538 0.930 . S
H559 C550 0.929 . S
H560 C553 0.930 . S
C561 C562 1.351 . S
C561 N564 1.368 . S
C561 H566 0.931 . S
C562 C561 1.351 . S
C562 N563 1.373 . S
C562 H590 0.930 . S
N563 C562 1.373 . S
N563 C565 1.340 . S
N564 C561 1.368 . S
N564 C565 1.321 . S
N564 Co567 2.135 . S
C565 N563 1.340 . S
C565 N564 1.321 . S
C565 H589 0.930 . S
H566 C561 0.931 . S
Co567 N564 2.135 . S
Co567 N570 2.121 . S
Co567 O575 2.055 . S
Co567 O578 2.039 . S
Co567 N581 2.140 . S
C568 O569 1.227 . S
C568 O578 1.265 . S
O569 C568 1.227 . S
N570 Co567 2.121 . S
N570 C572 1.375 . S
N570 C573 1.313 . S
C571 C572 1.338 . S
C571 N574 1.377 . S
C571 H591 0.930 . S
C572 N570 1.375 . S
C572 C571 1.338 . S
C572 H576 0.931 . S
C573 N570 1.313 . S
C573 N574 1.344 . S
C573 H577 0.930 . S
N574 C571 1.377 . S
N574 C573 1.344 . S
O575 Co567 2.055 . S
O575 C579 1.253 . S
H576 C572 0.931 . S
H577 C573 0.930 . S
O578 Co567 2.039 . S
O578 C568 1.265 . S
C579 O575 1.253 . S
C579 O580 1.227 . S
O580 C579 1.227 . S
N581 Co567 2.140 . S
N581 C584 1.346 . S
N581 C585 1.345 . S
C582 C583 1.387 . S
C582 C586 1.391 . S
C583 C582 1.387 . S
C583 C584 1.369 . S
C583 H592 0.929 . S
C584 N581 1.346 . S
C584 C583 1.369 . S
C584 H587 0.928 . S
C585 N581 1.345 . S
C585 C586 1.371 . S
C585 H588 0.931 . S
C586 C582 1.391 . S
C586 C585 1.371 . S
C586 H593 0.930 . S
H587 C584 0.928 . S
H588 C585 0.931 . S
H589 C565 0.930 . S
H590 C562 0.930 . S
H591 C571 0.930 . S
H592 C583 0.929 . S
H593 C586 0.930 . S
H594 C606 0.930 . S
H595 C608 0.930 . S
H596 C609 0.930 . S
H597 C613 0.959 . S
H598 C613 0.959 . S
H599 C613 0.961 . S
H600 C614 0.960 . S
H601 C614 0.961 . S
H602 C614 0.959 . S
H603 C617 0.929 . S
H604 C618 0.931 . S
H605 C620 0.930 . S
C606 H594 0.930 . S
C606 C607 1.399 . S
C606 C611 1.399 . S
C607 C606 1.399 . S
C607 C608 1.376 . S
C608 H595 0.930 . S
C608 C607 1.376 . S
C608 C609 1.388 . S
C609 H596 0.930 . S
C609 C608 1.388 . S
C609 C610 1.390 . S
C610 C609 1.390 . S
C610 C611 1.394 . S
C610 C616 1.465 . S
C611 C606 1.399 . S
C611 C610 1.394 . S
C611 C612 1.516 . S
C612 C611 1.516 . S
C612 C613 1.502 . S
C612 C614 1.561 . S
C612 C615 1.526 . S
C613 H597 0.959 . S
C613 H598 0.959 . S
C613 H599 0.961 . S
C613 C612 1.502 . S
C614 H600 0.960 . S
C614 H601 0.961 . S
C614 H602 0.959 . S
C614 C612 1.561 . S
C615 C612 1.526 . S
C615 C616 1.396 . S
C615 C620 1.390 . S
C616 C610 1.465 . S
C616 C615 1.396 . S
C616 C617 1.399 . S
C617 H603 0.929 . S
C617 C616 1.399 . S
C617 C618 1.385 . S
C618 H604 0.931 . S
C618 C617 1.385 . S
C618 C619 1.389 . S
C619 C618 1.389 . S
C619 C620 1.387 . S
C620 H605 0.930 . S
C620 C615 1.390 . S
C620 C619 1.387 . S
H621 C633 0.930 . S
H622 C635 0.930 . S
H623 C636 0.930 . S
H624 C640 0.959 . S
H625 C640 0.959 . S
H626 C640 0.961 . S
H627 C641 0.960 . S
H628 C641 0.961 . S
H629 C641 0.959 . S
H630 C644 0.929 . S
H631 C645 0.931 . S
H632 C647 0.930 . S
C633 H621 0.930 . S
C633 C634 1.399 1_545 S
C633 C638 1.399 . S
C634 C633 1.399 1_565 S
C634 C635 1.376 . S
C635 H622 0.930 . S
C635 C634 1.376 . S
C635 C636 1.388 . S
C636 H623 0.930 . S
C636 C635 1.388 . S
C636 C637 1.390 1_565 S
C637 C636 1.390 1_545 S
C637 C638 1.394 . S
C637 C643 1.465 . S
C638 C633 1.399 . S
C638 C637 1.394 . S
C638 C639 1.516 . S
C639 C638 1.516 . S
C639 C640 1.502 . S
C639 C641 1.561 . S
C639 C642 1.526 . S
C640 H624 0.959 . S
C640 H625 0.959 . S
C640 H626 0.961 . S
C640 C639 1.502 . S
C641 H627 0.960 . S
C641 H628 0.961 . S
C641 H629 0.959 . S
C641 C639 1.561 . S
C642 C639 1.526 . S
C642 C643 1.396 . S
C642 C647 1.390 . S
C643 C637 1.465 . S
C643 C642 1.396 . S
C643 C644 1.399 . S
C644 H630 0.929 . S
C644 C643 1.399 . S
C644 C645 1.385 . S
C645 H631 0.931 . S
C645 C644 1.385 . S
C645 C646 1.389 . S
C646 C645 1.389 . S
C646 C647 1.387 . S
C647 H632 0.930 . S
C647 C642 1.390 . S
C647 C646 1.387 . S
H648 C660 0.930 . S
H649 C662 0.930 . S
H650 C663 0.930 . S
H651 C667 0.959 . S
H652 C667 0.959 . S
H653 C667 0.961 . S
H654 C668 0.960 . S
H655 C668 0.961 . S
H656 C668 0.959 . S
H657 C671 0.929 . S
H658 C672 0.931 . S
H659 C674 0.930 . S
C660 H648 0.930 . S
C660 C661 1.399 . S
C660 C665 1.399 1_455 S
C661 C660 1.399 . S
C661 C662 1.376 1_455 S
C662 H649 0.930 . S
C662 C661 1.376 1_655 S
C662 C663 1.388 . S
C663 H650 0.930 . S
C663 C662 1.388 . S
C663 C664 1.390 . S
C664 C663 1.390 . S
C664 C665 1.394 . S
C664 C670 1.465 . S
C665 C660 1.399 1_655 S
C665 C664 1.394 . S
C665 C666 1.516 . S
C666 C665 1.516 . S
C666 C667 1.502 1_655 S
C666 C668 1.561 . S
C666 C669 1.526 . S
C667 H651 0.959 . S
C667 H652 0.959 . S
C667 H653 0.961 . S
C667 C666 1.502 1_455 S
C668 H654 0.960 . S
C668 H655 0.961 . S
C668 H656 0.959 . S
C668 C666 1.561 . S
C669 C666 1.526 . S
C669 C670 1.396 . S
C669 C674 1.390 . S
C670 C664 1.465 . S
C670 C669 1.396 . S
C670 C671 1.399 . S
C671 H657 0.929 . S
C671 C670 1.399 . S
C671 C672 1.385 . S
C672 H658 0.931 . S
C672 C671 1.385 . S
C672 C673 1.389 . S
C673 C672 1.389 . S
C673 C674 1.387 . S
C674 H659 0.930 . S
C674 C669 1.390 . S
C674 C673 1.387 . S
H675 C687 0.930 . S
H676 C689 0.930 . S
H677 C690 0.930 . S
H678 C694 0.959 . S
H679 C694 0.959 . S
H680 C694 0.961 . S
H681 C695 0.960 . S
H682 C695 0.961 . S
H683 C695 0.959 . S
H684 C698 0.929 . S
H685 C699 0.931 . S
H686 C701 0.930 . S
C687 H675 0.930 . S
C687 C688 1.399 . S
C687 C692 1.399 . S
C688 C687 1.399 . S
C688 C689 1.376 . S
C689 H676 0.930 . S
C689 C688 1.376 . S
C689 C690 1.388 . S
C690 H677 0.930 . S
C690 C689 1.388 . S
C690 C691 1.390 . S
C691 C690 1.390 . S
C691 C692 1.394 . S
C691 C697 1.465 . S
C692 C687 1.399 . S
C692 C691 1.394 . S
C692 C693 1.516 . S
C693 C692 1.516 . S
C693 C694 1.502 . S
C693 C695 1.561 . S
C693 C696 1.526 . S
C694 H678 0.959 . S
C694 H679 0.959 . S
C694 H680 0.961 . S
C694 C693 1.502 . S
C695 H681 0.960 . S
C695 H682 0.961 . S
C695 H683 0.959 . S
C695 C693 1.561 . S
C696 C693 1.526 . S
C696 C697 1.396 . S
C696 C701 1.390 . S
C697 C691 1.465 . S
C697 C696 1.396 . S
C697 C698 1.399 . S
C698 H684 0.929 . S
C698 C697 1.399 . S
C698 C699 1.385 . S
C699 H685 0.931 . S
C699 C698 1.385 . S
C699 C700 1.389 . S
C700 C699 1.389 . S
C700 C701 1.387 . S
C701 H686 0.930 . S
C701 C696 1.390 . S
C701 C700 1.387 . S
H702 C714 0.930 . S
H703 C716 0.930 . S
H704 C717 0.930 . S
H705 C721 0.959 . S
H706 C721 0.959 . S
H707 C721 0.961 1_545 S
H708 C722 0.960 . S
H709 C722 0.961 . S
H710 C722 0.959 . S
H711 C725 0.929 . S
H712 C726 0.931 . S
H713 C728 0.930 . S
C714 H702 0.930 . S
C714 C715 1.399 . S
C714 C719 1.399 1_545 S
C715 C714 1.399 . S
C715 C716 1.376 1_545 S
C716 H703 0.930 . S
C716 C715 1.376 1_565 S
C716 C717 1.388 . S
C717 H704 0.930 . S
C717 C716 1.388 . S
C717 C718 1.390 . S
C718 C717 1.390 . S
C718 C719 1.394 . S
C718 C724 1.465 . S
C719 C714 1.399 1_565 S
C719 C718 1.394 . S
C719 C720 1.516 . S
C720 C719 1.516 . S
C720 C721 1.502 . S
C720 C722 1.561 1_565 S
C720 C723 1.526 . S
C721 H705 0.959 . S
C721 H706 0.959 . S
C721 H707 0.961 1_565 S
C721 C720 1.502 . S
C722 H708 0.960 . S
C722 H709 0.961 . S
C722 H710 0.959 . S
C722 C720 1.561 1_545 S
C723 C720 1.526 . S
C723 C724 1.396 . S
C723 C728 1.390 . S
C724 C718 1.465 . S
C724 C723 1.396 . S
C724 C725 1.399 . S
C725 H711 0.929 . S
C725 C724 1.399 . S
C725 C726 1.385 . S
C726 H712 0.931 . S
C726 C725 1.385 . S
C726 C727 1.389 . S
C727 C726 1.389 . S
C727 C728 1.387 . S
C728 H713 0.930 . S
C728 C723 1.390 . S
C728 C727 1.387 . S
H729 C741 0.930 . S
H730 C743 0.930 . S
H731 C744 0.936 . S
H732 C748 0.959 . S
H733 C748 0.959 . S
H734 C748 0.961 . S
H735 C749 0.960 . S
H736 C749 0.961 . S
H737 C749 0.959 . S
H738 C752 0.929 . S
H739 C753 0.931 . S
H740 C755 0.930 . S
C741 H729 0.930 . S
C741 C742 1.399 1_455 S
C741 C746 1.399 . S
C742 C741 1.399 1_655 S
C742 C743 1.376 . S
C743 H730 0.930 . S
C743 C742 1.376 . S
C743 C744 1.390 . S
C744 H731 0.936 . S
C744 C743 1.390 . S
C744 C745 1.382 1_655 S
C745 C744 1.382 1_455 S
C745 C746 1.394 . S
C745 C751 1.465 . S
C746 C741 1.399 . S
C746 C745 1.394 . S
C746 C747 1.516 . S
C747 C746 1.516 . S
C747 C748 1.502 . S
C747 C749 1.561 . S
C747 C750 1.526 . S
C748 H732 0.959 . S
C748 H733 0.959 . S
C748 H734 0.961 . S
C748 C747 1.502 . S
C749 H735 0.960 . S
C749 H736 0.961 . S
C749 H737 0.959 . S
C749 C747 1.561 . S
C750 C747 1.526 . S
C750 C751 1.396 . S
C750 C755 1.390 . S
C751 C745 1.465 . S
C751 C750 1.396 . S
C751 C752 1.399 . S
C752 H738 0.929 . S
C752 C751 1.399 . S
C752 C753 1.385 . S
C753 H739 0.931 . S
C753 C752 1.385 . S
C753 C754 1.389 . S
C754 C753 1.389 . S
C754 C755 1.387 . S
C755 H740 0.930 . S
C755 C750 1.390 . S
C755 C754 1.387 . S
H756 C768 0.930 . S
H757 C770 0.930 . S
H758 C771 0.930 . S
H759 C775 0.959 . S
H760 C775 0.959 . S
H761 C775 0.961 . S
H762 C776 0.960 . S
H763 C776 0.961 . S
H764 C776 0.959 . S
H765 C779 0.929 . S
H766 C780 0.931 . S
H767 C782 0.932 . S
C768 H756 0.930 . S
C768 C769 1.399 . S
C768 C773 1.399 . S
C769 C768 1.399 . S
C769 C770 1.376 . S
C770 H757 0.930 . S
C770 C769 1.376 . S
C770 C771 1.388 . S
C771 H758 0.930 . S
C771 C770 1.388 . S
C771 C772 1.390 . S
C772 C771 1.390 . S
C772 C773 1.394 . S
C772 C778 1.465 . S
C773 C768 1.399 . S
C773 C772 1.394 . S
C773 C774 1.516 . S
C774 C773 1.516 . S
C774 C775 1.502 . S
C774 C776 1.561 . S
C774 C777 1.526 . S
C775 H759 0.959 . S
C775 H760 0.959 . S
C775 H761 0.961 . S
C775 C774 1.502 . S
C776 H762 0.960 . S
C776 H763 0.961 . S
C776 H764 0.959 . S
C776 C774 1.561 . S
C777 C774 1.526 . S
C777 C778 1.396 . S
C777 C782 1.386 1_655 S
C778 C772 1.465 . S
C778 C777 1.396 . S
C778 C779 1.399 . S
C779 H765 0.929 . S
C779 C778 1.399 . S
C779 C780 1.385 . S
C780 H766 0.931 . S
C780 C779 1.385 . S
C780 C781 1.389 1_655 S
C781 C780 1.389 1_455 S
C781 C782 1.388 . S
C782 H767 0.932 . S
C782 C777 1.386 1_455 S
C782 C781 1.388 . S
H783 C795 0.930 . S
H784 C797 0.930 . S
H785 C798 0.930 . S
H786 C802 0.959 . S
H787 C802 0.959 . S
H788 C802 0.961 . S
H789 C803 0.960 . S
H790 C803 0.961 . S
H791 C803 0.959 . S
H792 C806 0.929 . S
H793 C807 0.931 . S
H794 C809 0.930 . S
C795 H783 0.930 . S
C795 C796 1.399 . S
C795 C800 1.399 . S
C796 C795 1.399 . S
C796 C797 1.376 . S
C797 H784 0.930 . S
C797 C796 1.376 . S
C797 C798 1.388 . S
C798 H785 0.930 . S
C798 C797 1.388 . S
C798 C799 1.390 . S
C799 C798 1.390 . S
C799 C800 1.394 . S
C799 C805 1.465 . S
C800 C795 1.399 . S
C800 C799 1.394 . S
C800 C801 1.516 . S
C801 C800 1.516 . S
C801 C802 1.502 . S
C801 C803 1.561 . S
C801 C804 1.526 . S
C802 H786 0.959 . S
C802 H787 0.959 . S
C802 H788 0.961 . S
C802 C801 1.502 . S
C803 H789 0.960 . S
C803 H790 0.961 . S
C803 H791 0.959 . S
C803 C801 1.561 . S
C804 C801 1.526 . S
C804 C805 1.396 . S
C804 C809 1.390 . S
C805 C799 1.465 . S
C805 C804 1.396 . S
C805 C806 1.399 . S
C806 H792 0.929 . S
C806 C805 1.399 . S
C806 C807 1.385 . S
C807 H793 0.931 . S
C807 C806 1.385 . S
C807 C808 1.389 . S
C808 C807 1.389 . S
C808 C809 1.387 . S
C809 H794 0.930 . S
C809 C804 1.390 . S
C809 C808 1.387 . S
H810 C822 0.925 . S
H811 C824 0.930 . S
H812 C825 0.930 . S
H813 C829 0.959 . S
H814 C829 0.959 . S
H815 C829 0.961 . S
H816 C830 0.960 . S
H817 C830 0.961 . S
H818 C830 0.959 . S
H819 C833 0.929 . S
H820 C834 0.931 . S
H821 C836 0.930 . S
C822 H810 0.925 . S
C822 C823 1.400 . S
C822 C827 1.403 1_565 S
C823 C822 1.400 . S
C823 C824 1.376 1_565 S
C824 H811 0.930 . S
C824 C823 1.376 1_545 S
C824 C825 1.388 . S
C825 H812 0.930 . S
C825 C824 1.388 . S
C825 C826 1.390 . S
C826 C825 1.390 . S
C826 C827 1.394 . S
C826 C832 1.465 . S
C827 C822 1.403 1_545 S
C827 C826 1.394 . S
C827 C828 1.516 . S
C828 C827 1.516 . S
C828 C829 1.502 . S
C828 C830 1.561 . S
C828 C831 1.526 . S
C829 H813 0.959 . S
C829 H814 0.959 . S
C829 H815 0.961 . S
C829 C828 1.502 . S
C830 H816 0.960 . S
C830 H817 0.961 . S
C830 H818 0.959 . S
C830 C828 1.561 . S
C831 C828 1.526 . S
C831 C832 1.396 . S
C831 C836 1.390 . S
C832 C826 1.465 . S
C832 C831 1.396 . S
C832 C833 1.399 . S
C833 H819 0.929 . S
C833 C832 1.399 . S
C833 C834 1.385 . S
C834 H820 0.931 . S
C834 C833 1.385 . S
C834 C835 1.389 . S
C835 C834 1.389 . S
C835 C836 1.387 . S
C836 H821 0.930 . S
C836 C831 1.390 . S
C836 C835 1.387 . S
H837 C849 0.930 . S
H838 C851 0.930 . S
H839 C852 0.930 . S
H840 C856 0.959 . S
H841 C856 0.959 . S
H842 C856 0.961 . S
H843 C857 0.960 . S
H844 C857 0.961 . S
H845 C857 0.959 . S
H846 C860 0.929 . S
H847 C861 0.931 . S
H848 C863 0.930 . S
C849 H837 0.930 . S
C849 C850 1.399 . S
C849 C854 1.399 . S
C850 C849 1.399 . S
C850 C851 1.376 . S
C851 H838 0.930 . S
C851 C850 1.376 . S
C851 C852 1.388 . S
C852 H839 0.930 . S
C852 C851 1.388 . S
C852 C853 1.390 . S
C853 C852 1.390 . S
C853 C854 1.394 . S
C853 C859 1.465 . S
C854 C849 1.399 . S
C854 C853 1.394 . S
C854 C855 1.516 . S
C855 C854 1.516 . S
C855 C856 1.502 . S
C855 C857 1.561 . S
C855 C858 1.526 . S
C856 H840 0.959 . S
C856 H841 0.959 . S
C856 H842 0.961 . S
C856 C855 1.502 . S
C857 H843 0.960 . S
C857 H844 0.961 . S
C857 H845 0.959 . S
C857 C855 1.561 . S
C858 C855 1.526 . S
C858 C859 1.396 . S
C858 C863 1.390 . S
C859 C853 1.465 . S
C859 C858 1.396 . S
C859 C860 1.399 . S
C860 H846 0.929 . S
C860 C859 1.399 . S
C860 C861 1.385 . S
C861 H847 0.931 . S
C861 C860 1.385 . S
C861 C862 1.389 . S
C862 C861 1.389 . S
C862 C863 1.387 . S
C863 H848 0.930 . S
C863 C858 1.390 . S
C863 C862 1.387 . S
H864 C876 0.930 . S
H865 C878 0.930 . S
H866 C879 0.930 . S
H867 C883 0.959 . S
H868 C883 0.959 . S
H869 C883 0.961 . S
H870 C884 0.960 . S
H871 C884 0.961 . S
H872 C884 0.959 . S
H873 C887 0.929 . S
H874 C888 0.931 . S
H875 C890 0.930 . S
C876 H864 0.930 . S
C876 C877 1.399 . S
C876 C881 1.399 . S
C877 C876 1.399 . S
C877 C878 1.376 . S
C878 H865 0.930 . S
C878 C877 1.376 . S
C878 C879 1.388 . S
C879 H866 0.930 . S
C879 C878 1.388 . S
C879 C880 1.390 . S
C880 C879 1.390 . S
C880 C881 1.394 . S
C880 C886 1.465 . S
C881 C876 1.399 . S
C881 C880 1.394 . S
C881 C882 1.516 . S
C882 C881 1.516 . S
C882 C883 1.502 . S
C882 C884 1.561 . S
C882 C885 1.526 . S
C883 H867 0.959 . S
C883 H868 0.959 . S
C883 H869 0.961 . S
C883 C882 1.502 . S
C884 H870 0.960 . S
C884 H871 0.961 . S
C884 H872 0.959 . S
C884 C882 1.561 . S
C885 C882 1.526 . S
C885 C886 1.396 . S
C885 C890 1.390 . S
C886 C880 1.465 . S
C886 C885 1.396 . S
C886 C887 1.399 . S
C887 H873 0.929 . S
C887 C886 1.399 . S
C887 C888 1.385 . S
C888 H874 0.931 . S
C888 C887 1.385 . S
C888 C889 1.389 . S
C889 C888 1.389 . S
C889 C890 1.387 . S
C890 H875 0.930 . S
C890 C885 1.390 . S
C890 C889 1.387 . S
H891 C903 0.930 . S
H892 C905 0.930 . S
H893 C906 0.930 . S
H894 C910 0.959 . S
H895 C910 0.959 . S
H896 C910 0.961 . S
H897 C911 0.960 . S
H898 C911 0.961 . S
H899 C911 0.959 . S
H900 C914 0.929 . S
H901 C915 0.931 . S
H902 C917 0.930 . S
C903 H891 0.930 . S
C903 C904 1.399 . S
C903 C908 1.399 . S
C904 C903 1.399 . S
C904 C905 1.376 . S
C905 H892 0.930 . S
C905 C904 1.376 . S
C905 C906 1.388 . S
C906 H893 0.930 . S
C906 C905 1.388 . S
C906 C907 1.390 . S
C907 C906 1.390 . S
C907 C908 1.394 . S
C907 C913 1.465 . S
C908 C903 1.399 . S
C908 C907 1.394 . S
C908 C909 1.516 . S
C909 C908 1.516 . S
C909 C910 1.502 . S
C909 C911 1.561 . S
C909 C912 1.526 . S
C910 H894 0.959 . S
C910 H895 0.959 . S
C910 H896 0.961 . S
C910 C909 1.502 . S
C911 H897 0.960 . S
C911 H898 0.961 . S
C911 H899 0.959 . S
C911 C909 1.561 . S
C912 C909 1.526 . S
C912 C913 1.396 . S
C912 C917 1.390 . S
C913 C907 1.465 . S
C913 C912 1.396 . S
C913 C914 1.399 1_554 S
C914 H900 0.929 . S
C914 C913 1.399 1_556 S
C914 C915 1.385 . S
C915 H901 0.931 . S
C915 C914 1.385 . S
C915 C916 1.389 1_556 S
C916 C915 1.389 1_554 S
C916 C917 1.387 . S
C917 H902 0.930 . S
C917 C912 1.390 . S
C917 C916 1.387 . S
H918 C930 0.930 . S
H919 C932 0.930 . S
H920 C933 0.930 . S
H921 C937 0.959 . S
H922 C937 0.959 . S
H923 C937 0.961 . S
H924 C938 0.960 . S
H925 C938 0.961 1_554 S
H926 C938 0.959 . S
H927 C941 0.929 . S
H928 C942 0.931 . S
H929 C944 0.930 1_554 S
C930 H918 0.930 . S
C930 C931 1.399 . S
C930 C935 1.399 . S
C931 C930 1.399 . S
C931 C932 1.376 . S
C932 H919 0.930 . S
C932 C931 1.376 . S
C932 C933 1.388 . S
C933 H920 0.930 . S
C933 C932 1.388 . S
C933 C934 1.390 . S
C934 C933 1.390 . S
C934 C935 1.394 . S
C934 C940 1.465 . S
C935 C930 1.399 . S
C935 C934 1.394 . S
C935 C936 1.516 . S
C936 C935 1.516 . S
C936 C937 1.502 1_556 S
C936 C938 1.561 . S
C936 C939 1.526 . S
C937 H921 0.959 . S
C937 H922 0.959 . S
C937 H923 0.961 . S
C937 C936 1.502 1_554 S
C938 H924 0.960 . S
C938 H925 0.961 1_556 S
C938 H926 0.959 . S
C938 C936 1.561 . S
C939 C936 1.526 . S
C939 C940 1.396 . S
C939 C944 1.390 . S
C940 C934 1.465 . S
C940 C939 1.396 . S
C940 C941 1.399 . S
C941 H927 0.929 . S
C941 C940 1.399 . S
C941 C942 1.385 . S
C942 H928 0.931 . S
C942 C941 1.385 . S
C942 C943 1.389 . S
C943 C942 1.389 . S
C943 C944 1.387 . S
C944 H929 0.930 1_556 S
C944 C939 1.390 . S
C944 C943 1.387 . S
H945 C957 0.930 . S
H946 C959 0.930 . S
H947 C960 0.930 . S
H948 C964 0.959 . S
H949 C964 0.959 . S
H950 C964 0.961 . S
H951 C965 0.960 . S
H952 C965 0.961 1_554 S
H953 C965 0.959 . S
H954 C968 0.929 . S
H955 C969 0.931 . S
H956 C971 0.952 . S
C957 H945 0.930 . S
C957 C958 1.399 . S
C957 C962 1.399 . S
C958 C957 1.399 . S
C958 C959 1.376 . S
C959 H946 0.930 . S
C959 C958 1.376 . S
C959 C960 1.388 . S
C960 H947 0.930 . S
C960 C959 1.388 . S
C960 C961 1.390 . S
C961 C960 1.390 . S
C961 C962 1.394 . S
C961 C967 1.465 . S
C962 C957 1.399 . S
C962 C961 1.394 . S
C962 C963 1.516 . S
C963 C962 1.516 . S
C963 C964 1.502 1_556 S
C963 C965 1.561 . S
C963 C966 1.526 . S
C964 H948 0.959 . S
C964 H949 0.959 . S
C964 H950 0.961 . S
C964 C963 1.502 1_554 S
C965 H951 0.960 . S
C965 H952 0.961 1_556 S
C965 H953 0.959 . S
C965 C963 1.561 . S
C966 C963 1.526 . S
C966 C967 1.396 . S
C966 C971 1.375 1_556 S
C967 C961 1.465 . S
C967 C966 1.396 . S
C967 C968 1.399 . S
C968 H954 0.929 . S
C968 C967 1.399 . S
C968 C969 1.385 . S
C969 H955 0.931 . S
C969 C968 1.385 . S
C969 C970 1.389 . S
C970 C969 1.389 . S
C970 C971 1.380 1_556 S
C971 H956 0.952 . S
C971 C966 1.375 1_554 S
C971 C970 1.380 1_554 S
H972 C984 0.930 1_554 S
H973 C986 0.930 . S
H974 C987 0.930 . S
H975 C991 0.959 . S
H976 C991 0.959 . S
H977 C991 0.961 1_554 S
H978 C992 0.960 . S
H979 C992 0.961 . S
H980 C992 0.959 . S
H981 C995 0.929 . S
H982 C996 0.931 . S
H983 C998 0.930 . S
C984 H972 0.930 1_556 S
C984 C985 1.399 . S
C984 C989 1.399 . S
C985 C984 1.399 . S
C985 C986 1.376 . S
C986 H973 0.930 . S
C986 C985 1.376 . S
C986 C987 1.388 . S
C987 H974 0.930 . S
C987 C986 1.388 . S
C987 C988 1.390 . S
C988 C987 1.390 . S
C988 C989 1.394 . S
C988 C994 1.465 . S
C989 C984 1.399 . S
C989 C988 1.394 . S
C989 C990 1.516 . S
C990 C989 1.516 . S
C990 C991 1.502 . S
C990 C992 1.561 1_556 S
C990 C993 1.526 . S
C991 H975 0.959 . S
C991 H976 0.959 . S
C991 H977 0.961 1_556 S
C991 C990 1.502 . S
C992 H978 0.960 . S
C992 H979 0.961 . S
C992 H980 0.959 . S
C992 C990 1.561 1_554 S
C993 C990 1.526 . S
C993 C994 1.396 . S
C993 C998 1.390 . S
C994 C988 1.465 . S
C994 C993 1.396 . S
C994 C995 1.399 . S
C995 H981 0.929 . S
C995 C994 1.399 . S
C995 C996 1.385 . S
C996 H982 0.931 . S
C996 C995 1.385 . S
C996 C997 1.389 . S
C997 C996 1.389 . S
C997 C998 1.387 . S
C998 H983 0.930 . S
C998 C993 1.390 . S
C998 C997 1.387 . S
H999 C1011 0.930 . S
H1000 C1013 0.930 . S
H1001 C1014 0.930 . S
H1002 C1018 0.959 . S
H1003 C1018 0.959 . S
H1004 C1018 0.961 . S
H1005 C1019 0.960 . S
H1006 C1019 0.961 . S
H1007 C1019 0.959 . S
H1008 C1022 0.929 . S
H1009 C1023 0.931 . S
H1010 C1025 0.930 . S
C1011 H999 0.930 . S
C1011 C1012 1.399 1_455 S
C1011 C1016 1.399 . S
C1012 C1011 1.399 1_655 S
C1012 C1013 1.376 . S
C1013 H1000 0.930 . S
C1013 C1012 1.376 . S
C1013 C1014 1.388 1_655 S
C1014 H1001 0.930 . S
C1014 C1013 1.388 1_455 S
C1014 C1015 1.390 . S
C1015 C1014 1.390 . S
C1015 C1016 1.394 . S
C1015 C1021 1.465 . S
C1016 C1011 1.399 . S
C1016 C1015 1.394 . S
C1016 C1017 1.516 . S
C1017 C1016 1.516 . S
C1017 C1018 1.502 . S
C1017 C1019 1.561 . S
C1017 C1020 1.526 . S
C1018 H1002 0.959 . S
C1018 H1003 0.959 . S
C1018 H1004 0.961 . S
C1018 C1017 1.502 . S
C1019 H1005 0.960 . S
C1019 H1006 0.961 . S
C1019 H1007 0.959 . S
C1019 C1017 1.561 . S
C1020 C1017 1.526 . S
C1020 C1021 1.396 . S
C1020 C1025 1.390 . S
C1021 C1015 1.465 . S
C1021 C1020 1.396 . S
C1021 C1022 1.399 . S
C1022 H1008 0.929 . S
C1022 C1021 1.399 . S
C1022 C1023 1.385 . S
C1023 H1009 0.931 . S
C1023 C1022 1.385 . S
C1023 C1024 1.389 . S
C1024 C1023 1.389 . S
C1024 C1025 1.387 . S
C1025 H1010 0.930 . S
C1025 C1020 1.390 . S
C1025 C1024 1.387 . S
H1026 C1038 0.930 . S
H1027 C1040 0.930 . S
H1028 C1041 0.930 . S
H1029 C1045 0.959 . S
H1030 C1045 0.959 . S
H1031 C1045 0.961 . S
H1032 C1046 0.960 . S
H1033 C1046 0.961 . S
H1034 C1046 0.959 . S
H1035 C1049 0.929 . S
H1036 C1050 0.931 . S
H1037 C1052 0.930 . S
C1038 H1026 0.930 . S
C1038 C1039 1.399 . S
C1038 C1043 1.399 . S
C1039 C1038 1.399 . S
C1039 C1040 1.376 . S
C1040 H1027 0.930 . S
C1040 C1039 1.376 . S
C1040 C1041 1.388 . S
C1041 H1028 0.930 . S
C1041 C1040 1.388 . S
C1041 C1042 1.390 . S
C1042 C1041 1.390 . S
C1042 C1043 1.394 . S
C1042 C1048 1.465 . S
C1043 C1038 1.399 . S
C1043 C1042 1.394 . S
C1043 C1044 1.516 . S
C1044 C1043 1.516 . S
C1044 C1045 1.502 . S
C1044 C1046 1.561 . S
C1044 C1047 1.526 . S
C1045 H1029 0.959 . S
C1045 H1030 0.959 . S
C1045 H1031 0.961 . S
C1045 C1044 1.502 . S
C1046 H1032 0.960 . S
C1046 H1033 0.961 . S
C1046 H1034 0.959 . S
C1046 C1044 1.561 . S
C1047 C1044 1.526 . S
C1047 C1048 1.396 . S
C1047 C1052 1.390 . S
C1048 C1042 1.465 . S
C1048 C1047 1.396 . S
C1048 C1049 1.399 . S
C1049 H1035 0.929 . S
C1049 C1048 1.399 . S
C1049 C1050 1.385 . S
C1050 H1036 0.931 . S
C1050 C1049 1.385 . S
C1050 C1051 1.389 . S
C1051 C1050 1.389 . S
C1051 C1052 1.387 . S
C1052 H1037 0.930 . S
C1052 C1047 1.390 . S
C1052 C1051 1.387 . S
H1053 C1065 0.930 . S
H1054 C1067 0.930 . S
H1055 C1068 0.930 . S
H1056 C1072 0.959 . S
H1057 C1072 0.959 . S
H1058 C1072 0.961 . S
H1059 C1073 0.960 . S
H1060 C1073 0.961 . S
H1061 C1073 0.959 . S
H1062 C1076 0.929 . S
H1063 C1077 0.931 . S
H1064 C1079 0.900 1_545 S
C1065 H1053 0.930 . S
C1065 C1066 1.399 . S
C1065 C1070 1.399 . S
C1066 C1065 1.399 . S
C1066 C1067 1.376 . S
C1067 H1054 0.930 . S
C1067 C1066 1.376 . S
C1067 C1068 1.388 . S
C1068 H1055 0.930 . S
C1068 C1067 1.388 . S
C1068 C1069 1.390 . S
C1069 C1068 1.390 . S
C1069 C1070 1.394 . S
C1069 C1075 1.465 . S
C1070 C1065 1.399 . S
C1070 C1069 1.394 . S
C1070 C1071 1.516 . S
C1071 C1070 1.516 . S
C1071 C1072 1.502 . S
C1071 C1073 1.561 . S
C1071 C1074 1.526 . S
C1072 H1056 0.959 . S
C1072 H1057 0.959 . S
C1072 H1058 0.961 . S
C1072 C1071 1.502 . S
C1073 H1059 0.960 . S
C1073 H1060 0.961 . S
C1073 H1061 0.959 . S
C1073 C1071 1.561 . S
C1074 C1071 1.526 . S
C1074 C1075 1.396 . S
C1074 C1079 1.423 . S
C1075 C1069 1.465 . S
C1075 C1074 1.396 . S
C1075 C1076 1.399 . S
C1076 H1062 0.929 . S
C1076 C1075 1.399 . S
C1076 C1077 1.385 . S
C1077 H1063 0.931 . S
C1077 C1076 1.385 . S
C1077 C1078 1.389 1_565 S
C1078 C1077 1.389 1_545 S
C1078 C1079 1.385 1_545 S
C1079 H1064 0.900 1_565 S
C1079 C1074 1.423 . S
C1079 C1078 1.385 1_565 S
H1080 C1092 0.930 . S
H1081 C1094 0.930 . S
H1082 C1095 0.930 . S
H1083 C1099 0.959 . S
H1084 C1099 0.959 . S
H1085 C1099 0.961 . S
H1086 C1100 0.960 . S
H1087 C1100 0.961 . S
H1088 C1100 0.959 . S
H1089 C1103 0.929 . S
H1090 C1104 0.931 . S
H1091 C1106 0.930 . S
C1092 H1080 0.930 . S
C1092 C1093 1.399 . S
C1092 C1097 1.399 . S
C1093 C1092 1.399 . S
C1093 C1094 1.376 . S
C1094 H1081 0.930 . S
C1094 C1093 1.376 . S
C1094 C1095 1.388 . S
C1095 H1082 0.930 . S
C1095 C1094 1.388 . S
C1095 C1096 1.390 . S
C1096 C1095 1.390 . S
C1096 C1097 1.394 . S
C1096 C1102 1.465 . S
C1097 C1092 1.399 . S
C1097 C1096 1.394 . S
C1097 C1098 1.516 . S
C1098 C1097 1.516 . S
C1098 C1099 1.502 . S
C1098 C1100 1.561 . S
C1098 C1101 1.526 . S
C1099 H1083 0.959 . S
C1099 H1084 0.959 . S
C1099 H1085 0.961 . S
C1099 C1098 1.502 . S
C1100 H1086 0.960 . S
C1100 H1087 0.961 . S
C1100 H1088 0.959 . S
C1100 C1098 1.561 . S
C1101 C1098 1.526 . S
C1101 C1102 1.396 . S
C1101 C1106 1.390 . S
C1102 C1096 1.465 . S
C1102 C1101 1.396 . S
C1102 C1103 1.399 . S
C1103 H1089 0.929 . S
C1103 C1102 1.399 . S
C1103 C1104 1.385 . S
C1104 H1090 0.931 . S
C1104 C1103 1.385 . S
C1104 C1105 1.389 . S
C1105 C1104 1.389 . S
C1105 C1106 1.387 . S
C1106 H1091 0.930 . S
C1106 C1101 1.390 . S
C1106 C1105 1.387 . S
H1107 C1119 0.930 . S
H1108 C1121 0.930 . S
H1109 C1122 0.930 . S
H1110 C1126 0.959 . S
H1111 C1126 0.959 . S
H1112 C1126 0.961 . S
H1113 C1127 0.960 . S
H1114 C1127 0.961 . S
H1115 C1127 0.959 . S
H1116 C1130 0.929 . S
H1117 C1131 0.931 . S
H1118 C1133 0.930 . S
C1119 H1107 0.930 . S
C1119 C1120 1.399 . S
C1119 C1124 1.399 . S
C1120 C1119 1.399 . S
C1120 C1121 1.376 . S
C1121 H1108 0.930 . S
C1121 C1120 1.376 . S
C1121 C1122 1.388 . S
C1122 H1109 0.930 . S
C1122 C1121 1.388 . S
C1122 C1123 1.390 . S
C1123 C1122 1.390 . S
C1123 C1124 1.394 . S
C1123 C1129 1.465 . S
C1124 C1119 1.399 . S
C1124 C1123 1.394 . S
C1124 C1125 1.516 . S
C1125 C1124 1.516 . S
C1125 C1126 1.502 . S
C1125 C1127 1.561 . S
C1125 C1128 1.526 . S
C1126 H1110 0.959 . S
C1126 H1111 0.959 . S
C1126 H1112 0.961 . S
C1126 C1125 1.502 . S
C1127 H1113 0.960 . S
C1127 H1114 0.961 . S
C1127 H1115 0.959 . S
C1127 C1125 1.561 . S
C1128 C1125 1.526 . S
C1128 C1129 1.396 . S
C1128 C1133 1.390 . S
C1129 C1123 1.465 . S
C1129 C1128 1.396 . S
C1129 C1130 1.399 . S
C1130 H1116 0.929 . S
C1130 C1129 1.399 . S
C1130 C1131 1.385 . S
C1131 H1117 0.931 . S
C1131 C1130 1.385 . S
C1131 C1132 1.389 . S
C1132 C1131 1.389 . S
C1132 C1133 1.387 . S
C1133 H1118 0.930 . S
C1133 C1128 1.390 . S
C1133 C1132 1.387 . S
H1134 C1146 0.930 . S
H1135 C1148 0.930 . S
H1136 C1149 0.930 . S
H1137 C1153 0.959 . S
H1138 C1153 0.959 . S
H1139 C1153 0.961 . S
H1140 C1154 0.960 . S
H1141 C1154 0.961 . S
H1142 C1154 0.959 . S
H1143 C1157 0.929 . S
H1144 C1158 0.931 . S
H1145 C1160 0.930 . S
C1146 H1134 0.930 . S
C1146 C1147 1.399 . S
C1146 C1151 1.399 . S
C1147 C1146 1.399 . S
C1147 C1148 1.376 . S
C1148 H1135 0.930 . S
C1148 C1147 1.376 . S
C1148 C1149 1.388 . S
C1149 H1136 0.930 . S
C1149 C1148 1.388 . S
C1149 C1150 1.390 . S
C1150 C1149 1.390 . S
C1150 C1151 1.394 . S
C1150 C1156 1.465 . S
C1151 C1146 1.399 . S
C1151 C1150 1.394 . S
C1151 C1152 1.516 . S
C1152 C1151 1.516 . S
C1152 C1153 1.502 . S
C1152 C1154 1.561 . S
C1152 C1155 1.526 . S
C1153 H1137 0.959 . S
C1153 H1138 0.959 . S
C1153 H1139 0.961 . S
C1153 C1152 1.502 . S
C1154 H1140 0.960 . S
C1154 H1141 0.961 . S
C1154 H1142 0.959 . S
C1154 C1152 1.561 . S
C1155 C1152 1.526 . S
C1155 C1156 1.396 . S
C1155 C1160 1.390 . S
C1156 C1150 1.465 . S
C1156 C1155 1.396 . S
C1156 C1157 1.399 . S
C1157 H1143 0.929 . S
C1157 C1156 1.399 . S
C1157 C1158 1.385 . S
C1158 H1144 0.931 . S
C1158 C1157 1.385 . S
C1158 C1159 1.389 . S
C1159 C1158 1.389 . S
C1159 C1160 1.387 . S
C1160 H1145 0.930 . S
C1160 C1155 1.390 . S
C1160 C1159 1.387 . S
H1161 C1173 0.930 . S
H1162 C1175 0.930 . S
H1163 C1176 0.930 . S
H1164 C1180 0.959 . S
H1165 C1180 0.959 . S
H1166 C1180 0.961 . S
H1167 C1181 0.960 . S
H1168 C1181 0.961 . S
H1169 C1181 0.959 . S
H1170 C1184 0.929 . S
H1171 C1185 0.931 . S
H1172 C1187 0.930 . S
C1173 H1161 0.930 . S
C1173 C1174 1.399 . S
C1173 C1178 1.399 . S
C1174 C1173 1.399 . S
C1174 C1175 1.376 . S
C1175 H1162 0.930 . S
C1175 C1174 1.376 . S
C1175 C1176 1.388 . S
C1176 H1163 0.930 . S
C1176 C1175 1.388 . S
C1176 C1177 1.390 . S
C1177 C1176 1.390 . S
C1177 C1178 1.394 . S
C1177 C1183 1.465 . S
C1178 C1173 1.399 . S
C1178 C1177 1.394 . S
C1178 C1179 1.516 . S
C1179 C1178 1.516 . S
C1179 C1180 1.502 . S
C1179 C1181 1.561 . S
C1179 C1182 1.526 . S
C1180 H1164 0.959 . S
C1180 H1165 0.959 . S
C1180 H1166 0.961 . S
C1180 C1179 1.502 . S
C1181 H1167 0.960 . S
C1181 H1168 0.961 . S
C1181 H1169 0.959 . S
C1181 C1179 1.561 . S
C1182 C1179 1.526 . S
C1182 C1183 1.396 . S
C1182 C1187 1.390 . S
C1183 C1177 1.465 . S
C1183 C1182 1.396 . S
C1183 C1184 1.399 . S
C1184 H1170 0.929 . S
C1184 C1183 1.399 . S
C1184 C1185 1.385 . S
C1185 H1171 0.931 . S
C1185 C1184 1.385 . S
C1185 C1186 1.389 . S
C1186 C1185 1.389 . S
C1186 C1187 1.387 . S
C1187 H1172 0.930 . S
C1187 C1182 1.390 . S
C1187 C1186 1.387 . S
H1188 C1200 0.930 . S
H1189 C1202 0.930 . S
H1190 C1203 0.930 . S
H1191 C1207 0.959 . S
H1192 C1207 0.959 . S
H1193 C1207 0.961 . S
H1194 C1208 0.960 . S
H1195 C1208 0.961 . S
H1196 C1208 0.959 . S
H1197 C1211 0.929 . S
H1198 C1212 0.931 . S
H1199 C1214 0.930 . S
C1200 H1188 0.930 . S
C1200 C1201 1.399 . S
C1200 C1205 1.399 . S
C1201 C1200 1.399 . S
C1201 C1202 1.376 . S
C1202 H1189 0.930 . S
C1202 C1201 1.376 . S
C1202 C1203 1.388 . S
C1203 H1190 0.930 . S
C1203 C1202 1.388 . S
C1203 C1204 1.390 . S
C1204 C1203 1.390 . S
C1204 C1205 1.394 . S
C1204 C1210 1.465 . S
C1205 C1200 1.399 . S
C1205 C1204 1.394 . S
C1205 C1206 1.516 . S
C1206 C1205 1.516 . S
C1206 C1207 1.502 . S
C1206 C1208 1.561 . S
C1206 C1209 1.526 . S
C1207 H1191 0.959 . S
C1207 H1192 0.959 . S
C1207 H1193 0.961 . S
C1207 C1206 1.502 . S
C1208 H1194 0.960 . S
C1208 H1195 0.961 . S
C1208 H1196 0.959 . S
C1208 C1206 1.561 . S
C1209 C1206 1.526 . S
C1209 C1210 1.396 . S
C1209 C1214 1.390 . S
C1210 C1204 1.465 . S
C1210 C1209 1.396 . S
C1210 C1211 1.399 . S
C1211 H1197 0.929 . S
C1211 C1210 1.399 . S
C1211 C1212 1.385 . S
C1212 H1198 0.931 . S
C1212 C1211 1.385 . S
C1212 C1213 1.389 . S
C1213 C1212 1.389 . S
C1213 C1214 1.387 . S
C1214 H1199 0.930 . S
C1214 C1209 1.390 . S
C1214 C1213 1.387 . S
H1215 C1227 0.930 . S
H1216 C1229 0.930 . S
H1217 C1230 0.930 . S
H1218 C1234 0.959 . S
H1219 C1234 0.959 . S
H1220 C1234 0.961 . S
H1221 C1235 0.960 . S
H1222 C1235 0.961 . S
H1223 C1235 0.959 . S
H1224 C1238 0.929 . S
H1225 C1239 0.931 . S
H1226 C1241 0.930 . S
C1227 H1215 0.930 . S
C1227 C1228 1.399 . S
C1227 C1232 1.399 . S
C1228 C1227 1.399 . S
C1228 C1229 1.376 . S
C1229 H1216 0.930 . S
C1229 C1228 1.376 . S
C1229 C1230 1.388 . S
C1230 H1217 0.930 . S
C1230 C1229 1.388 . S
C1230 C1231 1.390 . S
C1231 C1230 1.390 . S
C1231 C1232 1.394 . S
C1231 C1237 1.465 . S
C1232 C1227 1.399 . S
C1232 C1231 1.394 . S
C1232 C1233 1.516 . S
C1233 C1232 1.516 . S
C1233 C1234 1.502 . S
C1233 C1235 1.561 . S
C1233 C1236 1.526 . S
C1234 H1218 0.959 . S
C1234 H1219 0.959 . S
C1234 H1220 0.961 . S
C1234 C1233 1.502 . S
C1235 H1221 0.960 . S
C1235 H1222 0.961 . S
C1235 H1223 0.959 . S
C1235 C1233 1.561 . S
C1236 C1233 1.526 . S
C1236 C1237 1.396 . S
C1236 C1241 1.390 . S
C1237 C1231 1.465 . S
C1237 C1236 1.396 . S
C1237 C1238 1.399 . S
C1238 H1224 0.929 . S
C1238 C1237 1.399 . S
C1238 C1239 1.385 . S
C1239 H1225 0.931 . S
C1239 C1238 1.385 . S
C1239 C1240 1.389 . S
C1240 C1239 1.389 . S
C1240 C1241 1.387 . S
C1241 H1226 0.930 . S
C1241 C1236 1.390 . S
C1241 C1240 1.387 . S
H1242 C1254 0.930 . S
H1243 C1256 0.928 . S
H1244 C1257 0.930 . S
H1245 C1261 0.959 . S
H1246 C1261 0.959 . S
H1247 C1261 0.961 1_554 S
H1248 C1262 0.960 . S
H1249 C1262 0.961 . S
H1250 C1262 0.959 1_565 S
H1251 C1265 0.929 . S
H1252 C1266 0.931 . S
H1253 C1268 0.930 1_545 S
C1254 H1242 0.930 . S
C1254 C1255 1.399 . S
C1254 C1259 1.399 . S
C1255 C1254 1.399 . S
C1255 C1256 1.368 1_545 S
C1256 H1243 0.928 . S
C1256 C1255 1.368 1_565 S
C1256 C1257 1.399 . S
C1257 H1244 0.930 . S
C1257 C1256 1.399 . S
C1257 C1258 1.390 . S
C1258 C1257 1.390 . S
C1258 C1259 1.394 1_565 S
C1258 C1264 1.465 1_554 S
C1259 C1254 1.399 . S
C1259 C1258 1.394 1_545 S
C1259 C1260 1.516 . S
C1260 C1259 1.516 . S
C1260 C1261 1.502 1_554 S
C1260 C1262 1.561 . S
C1260 C1263 1.504 1_544 S
C1261 H1245 0.959 . S
C1261 H1246 0.959 . S
C1261 H1247 0.961 1_556 S
C1261 C1260 1.502 1_556 S
C1262 H1248 0.960 . S
C1262 H1249 0.961 . S
C1262 H1250 0.959 1_545 S
C1262 C1260 1.561 . S
C1263 C1260 1.504 1_566 S
C1263 C1264 1.400 . S
C1263 C1268 1.408 . S
C1264 C1258 1.465 1_556 S
C1264 C1263 1.400 . S
C1264 C1265 1.399 . S
C1265 H1251 0.929 . S
C1265 C1264 1.399 . S
C1265 C1266 1.385 . S
C1266 H1252 0.931 . S
C1266 C1265 1.385 . S
C1266 C1267 1.389 . S
C1267 C1266 1.389 . S
C1267 C1268 1.387 . S
C1268 H1253 0.930 1_565 S
C1268 C1263 1.408 . S
C1268 C1267 1.387 . S
H1269 C1281 0.930 . S
H1270 C1283 0.930 . S
H1271 C1284 0.930 1_554 S
H1272 C1288 0.959 . S
H1273 C1288 0.959 . S
H1274 C1288 0.961 . S
H1275 C1289 0.960 . S
H1276 C1289 0.961 . S
H1277 C1289 0.959 . S
H1278 C1292 0.929 . S
H1279 C1293 0.931 . S
H1280 C1295 0.930 . S
C1281 H1269 0.930 . S
C1281 C1282 1.399 . S
C1281 C1286 1.399 . S
C1282 C1281 1.399 . S
C1282 C1283 1.376 . S
C1283 H1270 0.930 . S
C1283 C1282 1.376 . S
C1283 C1284 1.388 . S
C1284 H1271 0.930 1_556 S
C1284 C1283 1.388 . S
C1284 C1285 1.390 . S
C1285 C1284 1.390 . S
C1285 C1286 1.394 . S
C1285 C1291 1.465 1_456 S
C1286 C1281 1.399 . S
C1286 C1285 1.394 . S
C1286 C1287 1.516 . S
C1287 C1286 1.516 . S
C1287 C1288 1.502 1_455 S
C1287 C1289 1.561 . S
C1287 C1290 1.526 1_456 S
C1288 H1272 0.959 . S
C1288 H1273 0.959 . S
C1288 H1274 0.961 . S
C1288 C1287 1.502 1_655 S
C1289 H1275 0.960 . S
C1289 H1276 0.961 . S
C1289 H1277 0.959 . S
C1289 C1287 1.561 . S
C1290 C1287 1.526 1_654 S
C1290 C1291 1.396 . S
C1290 C1295 1.390 . S
C1291 C1285 1.465 1_654 S
C1291 C1290 1.396 . S
C1291 C1292 1.399 . S
C1292 H1278 0.929 . S
C1292 C1291 1.399 . S
C1292 C1293 1.385 . S
C1293 H1279 0.931 . S
C1293 C1292 1.385 . S
C1293 C1294 1.389 . S
C1294 C1293 1.389 . S
C1294 C1295 1.387 . S
C1295 H1280 0.930 . S
C1295 C1290 1.390 . S
C1295 C1294 1.387 . S
H1296 C1308 0.930 . S
H1297 C1310 0.930 . S
H1298 C1311 0.930 1_554 S
H1299 C1315 0.959 . S
H1300 C1315 0.959 . S
H1301 C1315 0.961 . S
H1302 C1316 0.960 . S
H1303 C1316 0.961 . S
H1304 C1316 0.959 1_554 S
H1305 C1319 0.929 . S
H1306 C1320 0.931 . S
H1307 C1322 0.930 . S
C1308 H1296 0.930 . S
C1308 C1309 1.399 . S
C1308 C1313 1.399 . S
C1309 C1308 1.399 . S
C1309 C1310 1.376 . S
C1310 H1297 0.930 . S
C1310 C1309 1.376 . S
C1310 C1311 1.388 . S
C1311 H1298 0.930 1_556 S
C1311 C1310 1.388 . S
C1311 C1312 1.390 . S
C1312 C1311 1.390 . S
C1312 C1313 1.394 . S
C1312 C1318 1.465 1_556 S
C1313 C1308 1.399 . S
C1313 C1312 1.394 . S
C1313 C1314 1.516 . S
C1314 C1313 1.516 . S
C1314 C1315 1.502 . S
C1314 C1316 1.561 . S
C1314 C1317 1.526 1_556 S
C1315 H1299 0.959 . S
C1315 H1300 0.959 . S
C1315 H1301 0.961 . S
C1315 C1314 1.502 . S
C1316 H1302 0.960 . S
C1316 H1303 0.961 . S
C1316 H1304 0.959 1_556 S
C1316 C1314 1.561 . S
C1317 C1314 1.526 1_554 S
C1317 C1318 1.396 . S
C1317 C1322 1.390 . S
C1318 C1312 1.465 1_554 S
C1318 C1317 1.396 . S
C1318 C1319 1.399 . S
C1319 H1305 0.929 . S
C1319 C1318 1.399 . S
C1319 C1320 1.385 . S
C1320 H1306 0.931 . S
C1320 C1319 1.385 . S
C1320 C1321 1.389 . S
C1321 C1320 1.389 . S
C1321 C1322 1.387 . S
C1322 H1307 0.930 . S
C1322 C1317 1.390 . S
C1322 C1321 1.387 . S
H1323 C1335 0.930 . S
H1324 C1337 0.930 . S
H1325 C1338 0.930 . S
H1326 C1342 0.959 . S
H1327 C1342 0.959 . S
H1328 C1342 0.961 . S
H1329 C1343 0.960 . S
H1330 C1343 0.961 . S
H1331 C1343 0.968 . S
H1332 C1346 0.929 . S
H1333 C1347 0.931 . S
H1334 C1349 0.930 . S
C1335 H1323 0.930 . S
C1335 C1336 1.399 . S
C1335 C1340 1.399 . S
C1336 C1335 1.399 . S
C1336 C1337 1.376 1_554 S
C1337 H1324 0.930 . S
C1337 C1336 1.376 1_556 S
C1337 C1338 1.388 . S
C1338 H1325 0.930 . S
C1338 C1337 1.388 . S
C1338 C1339 1.390 . S
C1339 C1338 1.390 . S
C1339 C1340 1.394 1_556 S
C1339 C1345 1.465 . S
C1340 C1335 1.399 . S
C1340 C1339 1.394 1_554 S
C1340 C1341 1.516 . S
C1341 C1340 1.516 . S
C1341 C1342 1.502 . S
C1341 C1343 1.561 . S
C1341 C1344 1.526 1_554 S
C1342 H1326 0.959 . S
C1342 H1327 0.959 . S
C1342 H1328 0.961 . S
C1342 C1341 1.502 . S
C1343 H1329 0.960 . S
C1343 H1330 0.961 . S
C1343 H1331 0.968 . S
C1343 C1341 1.561 . S
C1344 C1341 1.526 1_556 S
C1344 C1345 1.396 . S
C1344 C1349 1.390 . S
C1345 C1339 1.465 . S
C1345 C1344 1.396 . S
C1345 C1346 1.399 . S
C1346 H1332 0.929 . S
C1346 C1345 1.399 . S
C1346 C1347 1.385 . S
C1347 H1333 0.931 . S
C1347 C1346 1.385 . S
C1347 C1348 1.389 . S
C1348 C1347 1.389 . S
C1348 C1349 1.387 . S
C1349 H1334 0.930 . S
C1349 C1344 1.390 . S
C1349 C1348 1.387 . S
H1350 C1362 0.930 . S
H1351 C1364 0.930 . S
H1352 C1365 0.930 . S
H1353 C1369 0.959 . S
H1354 C1369 0.959 . S
H1355 C1369 0.961 . S
H1356 C1370 0.960 . S
H1357 C1370 0.961 . S
H1358 C1370 0.959 . S
H1359 C1373 0.929 . S
H1360 C1374 0.931 . S
H1361 C1376 0.930 . S
C1362 H1350 0.930 . S
C1362 C1363 1.399 . S
C1362 C1367 1.399 . S
C1363 C1362 1.399 . S
C1363 C1364 1.376 . S
C1364 H1351 0.930 . S
C1364 C1363 1.376 . S
C1364 C1365 1.388 1_556 S
C1365 H1352 0.930 . S
C1365 C1364 1.388 1_554 S
C1365 C1366 1.390 1_554 S
C1366 C1365 1.390 1_556 S
C1366 C1367 1.394 . S
C1366 C1372 1.464 1_556 S
C1367 C1362 1.399 . S
C1367 C1366 1.394 . S
C1367 C1368 1.516 . S
C1368 C1367 1.516 . S
C1368 C1369 1.502 . S
C1368 C1370 1.561 . S
C1368 C1371 1.526 . S
C1369 H1353 0.959 . S
C1369 H1354 0.959 . S
C1369 H1355 0.961 . S
C1369 C1368 1.502 . S
C1370 H1356 0.960 . S
C1370 H1357 0.961 . S
C1370 H1358 0.959 . S
C1370 C1368 1.561 . S
C1371 C1368 1.526 . S
C1371 C1372 1.394 1_556 S
C1371 C1376 1.390 . S
C1372 C1366 1.464 1_554 S
C1372 C1371 1.394 1_554 S
C1372 C1373 1.401 . S
C1373 H1359 0.929 . S
C1373 C1372 1.401 . S
C1373 C1374 1.385 . S
C1374 H1360 0.931 . S
C1374 C1373 1.385 . S
C1374 C1375 1.389 . S
C1375 C1374 1.389 . S
C1375 C1376 1.387 1_554 S
C1376 H1361 0.930 . S
C1376 C1371 1.390 . S
C1376 C1375 1.387 1_556 S
H1377 C1389 0.930 . S
H1378 C1391 0.930 . S
H1379 C1392 0.930 . S
H1380 C1396 0.959 . S
H1381 C1396 0.959 . S
H1382 C1396 0.961 . S
H1383 C1397 0.960 . S
H1384 C1397 0.961 . S
H1385 C1397 0.959 . S
H1386 C1400 0.929 . S
H1387 C1401 0.931 . S
H1388 C1403 0.930 . S
C1389 H1377 0.930 . S
C1389 C1390 1.399 . S
C1389 C1394 1.399 1_554 S
C1390 C1389 1.399 . S
C1390 C1391 1.376 1_554 S
C1391 H1378 0.930 . S
C1391 C1390 1.376 1_556 S
C1391 C1392 1.388 . S
C1392 H1379 0.930 . S
C1392 C1391 1.388 . S
C1392 C1393 1.390 . S
C1393 C1392 1.390 . S
C1393 C1394 1.394 . S
C1393 C1399 1.465 . S
C1394 C1389 1.399 1_556 S
C1394 C1393 1.394 . S
C1394 C1395 1.516 . S
C1395 C1394 1.516 . S
C1395 C1396 1.502 1_556 S
C1395 C1397 1.561 . S
C1395 C1398 1.526 . S
C1396 H1380 0.959 . S
C1396 H1381 0.959 . S
C1396 H1382 0.961 . S
C1396 C1395 1.502 1_554 S
C1397 H1383 0.960 . S
C1397 H1384 0.961 . S
C1397 H1385 0.959 . S
C1397 C1395 1.561 . S
C1398 C1395 1.526 . S
C1398 C1399 1.396 . S
C1398 C1403 1.390 . S
C1399 C1393 1.465 . S
C1399 C1398 1.396 . S
C1399 C1400 1.399 . S
C1400 H1386 0.929 . S
C1400 C1399 1.399 . S
C1400 C1401 1.385 . S
C1401 H1387 0.931 . S
C1401 C1400 1.385 . S
C1401 C1402 1.389 . S
C1402 C1401 1.389 . S
C1402 C1403 1.387 . S
C1403 H1388 0.930 . S
C1403 C1398 1.390 . S
C1403 C1402 1.387 . S
H1404 C1416 0.930 . S
H1405 C1418 0.930 . S
H1406 C1419 0.930 1_556 S
H1407 C1423 0.959 . S
H1408 C1423 0.959 . S
H1409 C1423 0.961 . S
H1410 C1424 0.960 . S
H1411 C1424 0.961 . S
H1412 C1424 0.959 . S
H1413 C1427 0.929 . S
H1414 C1428 0.931 . S
H1415 C1430 0.930 . S
C1416 H1404 0.930 . S
C1416 C1417 1.399 . S
C1416 C1421 1.399 . S
C1417 C1416 1.399 . S
C1417 C1418 1.376 . S
C1418 H1405 0.930 . S
C1418 C1417 1.376 . S
C1418 C1419 1.388 . S
C1419 H1406 0.930 1_554 S
C1419 C1418 1.388 . S
C1419 C1420 1.390 . S
C1420 C1419 1.390 . S
C1420 C1421 1.394 . S
C1420 C1426 1.465 . S
C1421 C1416 1.399 . S
C1421 C1420 1.394 . S
C1421 C1422 1.516 . S
C1422 C1421 1.516 . S
C1422 C1423 1.502 . S
C1422 C1424 1.561 . S
C1422 C1425 1.526 . S
C1423 H1407 0.959 . S
C1423 H1408 0.959 . S
C1423 H1409 0.961 . S
C1423 C1422 1.502 . S
C1424 H1410 0.960 . S
C1424 H1411 0.961 . S
C1424 H1412 0.959 . S
C1424 C1422 1.561 . S
C1425 C1422 1.526 . S
C1425 C1426 1.396 . S
C1425 C1430 1.390 . S
C1426 C1420 1.465 . S
C1426 C1425 1.396 . S
C1426 C1427 1.399 1_554 S
C1427 H1413 0.929 . S
C1427 C1426 1.399 1_556 S
C1427 C1428 1.385 . S
C1428 H1414 0.931 . S
C1428 C1427 1.385 . S
C1428 C1429 1.389 . S
C1429 C1428 1.389 . S
C1429 C1430 1.387 1_556 S
C1430 H1415 0.930 . S
C1430 C1425 1.390 . S
C1430 C1429 1.387 1_554 S
H1431 C1443 0.930 . S
H1432 C1445 0.930 . S
H1433 C1446 0.930 . S
H1434 C1450 0.959 . S
H1435 C1450 0.959 . S
H1436 C1450 0.961 . S
H1437 C1451 0.960 . S
H1438 C1451 0.961 . S
H1439 C1451 0.959 . S
H1440 C1454 0.929 . S
H1441 C1455 0.931 . S
H1442 C1457 0.930 . S
C1443 H1431 0.930 . S
C1443 C1444 1.399 . S
C1443 C1448 1.399 . S
C1444 C1443 1.399 . S
C1444 C1445 1.376 1_556 S
C1445 H1432 0.930 . S
C1445 C1444 1.376 1_554 S
C1445 C1446 1.388 . S
C1446 H1433 0.930 . S
C1446 C1445 1.388 . S
C1446 C1447 1.390 . S
C1447 C1446 1.390 . S
C1447 C1448 1.394 1_554 S
C1447 C1453 1.465 . S
C1448 C1443 1.399 . S
C1448 C1447 1.394 1_556 S
C1448 C1449 1.516 . S
C1449 C1448 1.516 . S
C1449 C1450 1.502 . S
C1449 C1451 1.561 . S
C1449 C1452 1.526 1_556 S
C1450 H1434 0.959 . S
C1450 H1435 0.959 . S
C1450 H1436 0.961 . S
C1450 C1449 1.502 . S
C1451 H1437 0.960 . S
C1451 H1438 0.961 . S
C1451 H1439 0.959 . S
C1451 C1449 1.561 . S
C1452 C1449 1.526 1_554 S
C1452 C1453 1.396 . S
C1452 C1457 1.390 . S
C1453 C1447 1.465 . S
C1453 C1452 1.396 . S
C1453 C1454 1.399 . S
C1454 H1440 0.929 . S
C1454 C1453 1.399 . S
C1454 C1455 1.385 . S
C1455 H1441 0.931 . S
C1455 C1454 1.385 . S
C1455 C1456 1.389 . S
C1456 C1455 1.389 . S
C1456 C1457 1.387 . S
C1457 H1442 0.930 . S
C1457 C1452 1.390 . S
C1457 C1456 1.387 . S
H1458 C1470 0.930 . S
H1459 C1472 0.930 . S
H1460 C1473 0.930 . S
H1461 C1477 0.959 . S
H1462 C1477 0.959 1_556 S
H1463 C1477 0.961 . S
H1464 C1478 0.960 . S
H1465 C1478 0.961 . S
H1466 C1478 0.959 . S
H1467 C1481 0.929 . S
H1468 C1482 0.931 . S
H1469 C1484 0.930 . S
C1470 H1458 0.930 . S
C1470 C1471 1.399 . S
C1470 C1475 1.399 . S
C1471 C1470 1.399 . S
C1471 C1472 1.376 . S
C1472 H1459 0.930 . S
C1472 C1471 1.376 . S
C1472 C1473 1.388 . S
C1473 H1460 0.930 . S
C1473 C1472 1.388 . S
C1473 C1474 1.390 . S
C1474 C1473 1.390 . S
C1474 C1475 1.394 . S
C1474 C1480 1.465 . S
C1475 C1470 1.399 . S
C1475 C1474 1.394 . S
C1475 C1476 1.503 1_554 S
C1476 C1475 1.503 1_556 S
C1476 C1477 1.498 1_556 S
C1476 C1478 1.580 . S
C1476 C1479 1.525 1_556 S
C1477 H1461 0.959 . S
C1477 H1462 0.959 1_554 S
C1477 H1463 0.961 . S
C1477 C1476 1.498 1_554 S
C1478 H1464 0.960 . S
C1478 H1465 0.961 . S
C1478 H1466 0.959 . S
C1478 C1476 1.580 . S
C1479 C1476 1.525 1_554 S
C1479 C1480 1.396 . S
C1479 C1484 1.390 1_554 S
C1480 C1474 1.465 . S
C1480 C1479 1.396 . S
C1480 C1481 1.399 . S
C1481 H1467 0.929 . S
C1481 C1480 1.399 . S
C1481 C1482 1.385 . S
C1482 H1468 0.931 . S
C1482 C1481 1.385 . S
C1482 C1483 1.389 1_554 S
C1483 C1482 1.389 1_556 S
C1483 C1484 1.387 . S
C1484 H1469 0.930 . S
C1484 C1479 1.390 1_556 S
C1484 C1483 1.387 . S
H1485 C1497 0.930 . S
H1486 C1499 0.930 . S
H1487 C1500 0.930 . S
H1488 C1504 0.959 . S
H1489 C1504 0.959 . S
H1490 C1504 0.961 . S
H1491 C1505 0.960 . S
H1492 C1505 0.961 . S
H1493 C1505 0.959 . S
H1494 C1508 0.929 . S
H1495 C1509 0.931 . S
H1496 C1511 0.930 . S
C1497 H1485 0.930 . S
C1497 C1498 1.399 . S
C1497 C1502 1.399 . S
C1498 C1497 1.399 . S
C1498 C1499 1.376 . S
C1499 H1486 0.930 . S
C1499 C1498 1.376 . S
C1499 C1500 1.388 . S
C1500 H1487 0.930 . S
C1500 C1499 1.388 . S
C1500 C1501 1.390 . S
C1501 C1500 1.390 . S
C1501 C1502 1.394 . S
C1501 C1507 1.465 . S
C1502 C1497 1.399 . S
C1502 C1501 1.394 . S
C1502 C1503 1.516 . S
C1503 C1502 1.516 . S
C1503 C1504 1.502 . S
C1503 C1505 1.561 . S
C1503 C1506 1.526 . S
C1504 H1488 0.959 . S
C1504 H1489 0.959 . S
C1504 H1490 0.961 . S
C1504 C1503 1.502 . S
C1505 H1491 0.960 . S
C1505 H1492 0.961 . S
C1505 H1493 0.959 . S
C1505 C1503 1.561 . S
C1506 C1503 1.526 . S
C1506 C1507 1.396 . S
C1506 C1511 1.390 . S
C1507 C1501 1.465 . S
C1507 C1506 1.396 . S
C1507 C1508 1.399 . S
C1508 H1494 0.929 . S
C1508 C1507 1.399 . S
C1508 C1509 1.385 . S
C1509 H1495 0.931 . S
C1509 C1508 1.385 . S
C1509 C1510 1.389 . S
C1510 C1509 1.389 . S
C1510 C1511 1.387 . S
C1511 H1496 0.930 . S
C1511 C1506 1.390 . S
C1511 C1510 1.387 . S
H1512 C1524 0.930 . S
H1513 C1526 0.930 . S
H1514 C1527 0.930 . S
H1515 C1531 0.959 . S
H1516 C1531 0.959 . S
H1517 C1531 0.961 . S
H1518 C1532 0.960 . S
H1519 C1532 0.961 . S
H1520 C1532 0.959 . S
H1521 C1535 0.929 . S
H1522 C1536 0.931 . S
H1523 C1538 0.930 . S
C1524 H1512 0.930 . S
C1524 C1525 1.399 . S
C1524 C1529 1.399 . S
C1525 C1524 1.399 . S
C1525 C1526 1.376 . S
C1526 H1513 0.930 . S
C1526 C1525 1.376 . S
C1526 C1527 1.388 . S
C1527 H1514 0.930 . S
C1527 C1526 1.388 . S
C1527 C1528 1.390 . S
C1528 C1527 1.390 . S
C1528 C1529 1.394 . S
C1528 C1534 1.465 . S
C1529 C1524 1.399 . S
C1529 C1528 1.394 . S
C1529 C1530 1.516 . S
C1530 C1529 1.516 . S
C1530 C1531 1.502 . S
C1530 C1532 1.561 . S
C1530 C1533 1.526 . S
C1531 H1515 0.959 . S
C1531 H1516 0.959 . S
C1531 H1517 0.961 . S
C1531 C1530 1.502 . S
C1532 H1518 0.960 . S
C1532 H1519 0.961 . S
C1532 H1520 0.959 . S
C1532 C1530 1.561 . S
C1533 C1530 1.526 . S
C1533 C1534 1.396 . S
C1533 C1538 1.390 . S
C1534 C1528 1.465 . S
C1534 C1533 1.396 . S
C1534 C1535 1.399 . S
C1535 H1521 0.929 . S
C1535 C1534 1.399 . S
C1535 C1536 1.385 . S
C1536 H1522 0.931 . S
C1536 C1535 1.385 . S
C1536 C1537 1.389 . S
C1537 C1536 1.389 . S
C1537 C1538 1.387 . S
C1538 H1523 0.930 . S
C1538 C1533 1.390 . S
C1538 C1537 1.387 . S
H1539 C1551 0.930 . S
H1540 C1553 0.930 . S
H1541 C1554 0.930 . S
H1542 C1558 0.959 . S
H1543 C1558 0.959 . S
H1544 C1558 0.961 . S
H1545 C1559 0.960 . S
H1546 C1559 0.961 . S
H1547 C1559 0.959 . S
H1548 C1562 0.929 . S
H1549 C1563 0.931 . S
H1550 C1565 0.930 . S
C1551 H1539 0.930 . S
C1551 C1552 1.399 . S
C1551 C1556 1.399 . S
C1552 C1551 1.399 . S
C1552 C1553 1.376 . S
C1553 H1540 0.930 . S
C1553 C1552 1.376 . S
C1553 C1554 1.388 . S
C1554 H1541 0.930 . S
C1554 C1553 1.388 . S
C1554 C1555 1.390 . S
C1555 C1554 1.390 . S
C1555 C1556 1.394 . S
C1555 C1561 1.465 . S
C1556 C1551 1.399 . S
C1556 C1555 1.394 . S
C1556 C1557 1.516 . S
C1557 C1556 1.516 . S
C1557 C1558 1.502 . S
C1557 C1559 1.561 . S
C1557 C1560 1.526 . S
C1558 H1542 0.959 . S
C1558 H1543 0.959 . S
C1558 H1544 0.961 . S
C1558 C1557 1.502 . S
C1559 H1545 0.960 . S
C1559 H1546 0.961 . S
C1559 H1547 0.959 . S
C1559 C1557 1.561 . S
C1560 C1557 1.526 . S
C1560 C1561 1.396 . S
C1560 C1565 1.390 . S
C1561 C1555 1.465 . S
C1561 C1560 1.396 . S
C1561 C1562 1.399 . S
C1562 H1548 0.929 . S
C1562 C1561 1.399 . S
C1562 C1563 1.385 . S
C1563 H1549 0.931 . S
C1563 C1562 1.385 . S
C1563 C1564 1.389 . S
C1564 C1563 1.389 . S
C1564 C1565 1.387 . S
C1565 H1550 0.930 . S
C1565 C1560 1.390 . S
C1565 C1564 1.387 . S
H1566 C1578 0.930 . S
H1567 C1580 0.930 . S
H1568 C1581 0.930 . S
H1569 C1585 0.959 . S
H1570 C1585 0.959 . S
H1571 C1585 0.961 . S
H1572 C1586 0.960 . S
H1573 C1586 0.961 . S
H1574 C1586 0.959 . S
H1575 C1589 0.929 . S
H1576 C1590 0.931 . S
H1577 C1592 0.930 . S
C1578 H1566 0.930 . S
C1578 C1579 1.399 . S
C1578 C1583 1.399 . S
C1579 C1578 1.399 . S
C1579 C1580 1.376 . S
C1580 H1567 0.930 . S
C1580 C1579 1.376 . S
C1580 C1581 1.388 . S
C1581 H1568 0.930 . S
C1581 C1580 1.388 . S
C1581 C1582 1.390 . S
C1582 C1581 1.390 . S
C1582 C1583 1.394 . S
C1582 C1588 1.465 . S
C1583 C1578 1.399 . S
C1583 C1582 1.394 . S
C1583 C1584 1.516 . S
C1584 C1583 1.516 . S
C1584 C1585 1.502 . S
C1584 C1586 1.561 . S
C1584 C1587 1.526 . S
C1585 H1569 0.959 . S
C1585 H1570 0.959 . S
C1585 H1571 0.961 . S
C1585 C1584 1.502 . S
C1586 H1572 0.960 . S
C1586 H1573 0.961 . S
C1586 H1574 0.959 . S
C1586 C1584 1.561 . S
C1587 C1584 1.526 . S
C1587 C1588 1.396 . S
C1587 C1592 1.390 . S
C1588 C1582 1.465 . S
C1588 C1587 1.396 . S
C1588 C1589 1.399 . S
C1589 H1575 0.929 . S
C1589 C1588 1.399 . S
C1589 C1590 1.385 . S
C1590 H1576 0.931 . S
C1590 C1589 1.385 . S
C1590 C1591 1.389 . S
C1591 C1590 1.389 . S
C1591 C1592 1.387 . S
C1592 H1577 0.930 . S
C1592 C1587 1.390 . S
C1592 C1591 1.387 . S
H1593 C1605 0.930 . S
H1594 C1607 0.930 . S
H1595 C1608 0.930 . S
H1596 C1612 0.959 . S
H1597 C1612 0.959 . S
H1598 C1612 0.961 . S
H1599 C1613 0.960 . S
H1600 C1613 0.961 . S
H1601 C1613 0.959 . S
H1602 C1616 0.929 . S
H1603 C1617 0.931 . S
H1604 C1619 0.930 . S
C1605 H1593 0.930 . S
C1605 C1606 1.399 . S
C1605 C1610 1.399 . S
C1606 C1605 1.399 . S
C1606 C1607 1.376 . S
C1607 H1594 0.930 . S
C1607 C1606 1.376 . S
C1607 C1608 1.388 . S
C1608 H1595 0.930 . S
C1608 C1607 1.388 . S
C1608 C1609 1.390 . S
C1609 C1608 1.390 . S
C1609 C1610 1.394 . S
C1609 C1615 1.465 . S
C1610 C1605 1.399 . S
C1610 C1609 1.394 . S
C1610 C1611 1.516 . S
C1611 C1610 1.516 . S
C1611 C1612 1.502 . S
C1611 C1613 1.561 . S
C1611 C1614 1.526 . S
C1612 H1596 0.959 . S
C1612 H1597 0.959 . S
C1612 H1598 0.961 . S
C1612 C1611 1.502 . S
C1613 H1599 0.960 . S
C1613 H1600 0.961 . S
C1613 H1601 0.959 . S
C1613 C1611 1.561 . S
C1614 C1611 1.526 . S
C1614 C1615 1.396 . S
C1614 C1619 1.390 . S
C1615 C1609 1.465 . S
C1615 C1614 1.396 . S
C1615 C1616 1.399 . S
C1616 H1602 0.929 . S
C1616 C1615 1.399 . S
C1616 C1617 1.385 . S
C1617 H1603 0.931 . S
C1617 C1616 1.385 . S
C1617 C1618 1.389 . S
C1618 C1617 1.389 . S
C1618 C1619 1.387 . S
C1619 H1604 0.930 . S
C1619 C1614 1.390 . S
C1619 C1618 1.387 . S
H1620 C1632 0.930 . S
H1621 C1634 0.930 . S
H1622 C1635 0.930 . S
H1623 C1639 0.959 . S
H1624 C1639 0.959 . S
H1625 C1639 0.961 . S
H1626 C1640 0.960 . S
H1627 C1640 0.961 . S
H1628 C1640 0.959 . S
H1629 C1643 0.929 . S
H1630 C1644 0.931 . S
H1631 C1646 0.930 . S
C1632 H1620 0.930 . S
C1632 C1633 1.399 . S
C1632 C1637 1.399 . S
C1633 C1632 1.399 . S
C1633 C1634 1.376 . S
C1634 H1621 0.930 . S
C1634 C1633 1.376 . S
C1634 C1635 1.388 . S
C1635 H1622 0.930 . S
C1635 C1634 1.388 . S
C1635 C1636 1.390 . S
C1636 C1635 1.390 . S
C1636 C1637 1.394 . S
C1636 C1642 1.465 . S
C1637 C1632 1.399 . S
C1637 C1636 1.394 . S
C1637 C1638 1.516 . S
C1638 C1637 1.516 . S
C1638 C1639 1.502 . S
C1638 C1640 1.561 . S
C1638 C1641 1.526 . S
C1639 H1623 0.959 . S
C1639 H1624 0.959 . S
C1639 H1625 0.961 . S
C1639 C1638 1.502 . S
C1640 H1626 0.960 . S
C1640 H1627 0.961 . S
C1640 H1628 0.959 . S
C1640 C1638 1.561 . S
C1641 C1638 1.526 . S
C1641 C1642 1.396 . S
C1641 C1646 1.390 . S
C1642 C1636 1.465 . S
C1642 C1641 1.396 . S
C1642 C1643 1.399 . S
C1643 H1629 0.929 . S
C1643 C1642 1.399 . S
C1643 C1644 1.385 . S
C1644 H1630 0.931 . S
C1644 C1643 1.385 . S
C1644 C1645 1.389 . S
C1645 C1644 1.389 . S
C1645 C1646 1.387 . S
C1646 H1631 0.930 . S
C1646 C1641 1.390 . S
C1646 C1645 1.387 . S
H1647 C1659 0.930 . S
H1648 C1661 0.930 . S
H1649 C1662 0.930 . S
H1650 C1666 0.959 . S
H1651 C1666 0.959 . S
H1652 C1666 0.961 . S
H1653 C1667 0.960 . S
H1654 C1667 0.961 . S
H1655 C1667 0.959 . S
H1656 C1670 0.929 . S
H1657 C1671 0.931 . S
H1658 C1673 0.930 . S
C1659 H1647 0.930 . S
C1659 C1660 1.399 . S
C1659 C1664 1.399 . S
C1660 C1659 1.399 . S
C1660 C1661 1.376 . S
C1661 H1648 0.930 . S
C1661 C1660 1.376 . S
C1661 C1662 1.388 . S
C1662 H1649 0.930 . S
C1662 C1661 1.388 . S
C1662 C1663 1.390 . S
C1663 C1662 1.390 . S
C1663 C1664 1.394 . S
C1663 C1669 1.465 . S
C1664 C1659 1.399 . S
C1664 C1663 1.394 . S
C1664 C1665 1.516 . S
C1665 C1664 1.516 . S
C1665 C1666 1.502 . S
C1665 C1667 1.561 . S
C1665 C1668 1.526 . S
C1666 H1650 0.959 . S
C1666 H1651 0.959 . S
C1666 H1652 0.961 . S
C1666 C1665 1.502 . S
C1667 H1653 0.960 . S
C1667 H1654 0.961 . S
C1667 H1655 0.959 . S
C1667 C1665 1.561 . S
C1668 C1665 1.526 . S
C1668 C1669 1.396 . S
C1668 C1673 1.390 . S
C1669 C1663 1.465 . S
C1669 C1668 1.396 . S
C1669 C1670 1.399 . S
C1670 H1656 0.929 . S
C1670 C1669 1.399 . S
C1670 C1671 1.385 . S
C1671 H1657 0.931 . S
C1671 C1670 1.385 . S
C1671 C1672 1.389 . S
C1672 C1671 1.389 . S
C1672 C1673 1.387 . S
C1673 H1658 0.930 . S
C1673 C1668 1.390 . S
C1673 C1672 1.387 . S
H1674 C1686 0.930 . S
H1675 C1688 0.930 . S
H1676 C1689 0.930 . S
H1677 C1693 0.959 . S
H1678 C1693 0.959 . S
H1679 C1693 0.961 . S
H1680 C1694 0.960 . S
H1681 C1694 0.961 . S
H1682 C1694 0.959 . S
H1683 C1697 0.929 . S
H1684 C1698 0.931 . S
H1685 C1700 0.930 . S
C1686 H1674 0.930 . S
C1686 C1687 1.399 . S
C1686 C1691 1.399 . S
C1687 C1686 1.399 . S
C1687 C1688 1.376 . S
C1688 H1675 0.930 . S
C1688 C1687 1.376 . S
C1688 C1689 1.388 . S
C1689 H1676 0.930 . S
C1689 C1688 1.388 . S
C1689 C1690 1.390 . S
C1690 C1689 1.390 . S
C1690 C1691 1.394 . S
C1690 C1696 1.465 . S
C1691 C1686 1.399 . S
C1691 C1690 1.394 . S
C1691 C1692 1.516 . S
C1692 C1691 1.516 . S
C1692 C1693 1.502 . S
C1692 C1694 1.561 . S
C1692 C1695 1.526 . S
C1693 H1677 0.959 . S
C1693 H1678 0.959 . S
C1693 H1679 0.961 . S
C1693 C1692 1.502 . S
C1694 H1680 0.960 . S
C1694 H1681 0.961 . S
C1694 H1682 0.959 . S
C1694 C1692 1.561 . S
C1695 C1692 1.526 . S
C1695 C1696 1.396 . S
C1695 C1700 1.390 . S
C1696 C1690 1.465 . S
C1696 C1695 1.396 . S
C1696 C1697 1.399 . S
C1697 H1683 0.929 . S
C1697 C1696 1.399 . S
C1697 C1698 1.385 . S
C1698 H1684 0.931 . S
C1698 C1697 1.385 . S
C1698 C1699 1.389 . S
C1699 C1698 1.389 . S
C1699 C1700 1.387 . S
C1700 H1685 0.930 . S
C1700 C1695 1.390 . S
C1700 C1699 1.387 . S
H1701 C1713 0.930 . S
H1702 C1715 0.930 . S
H1703 C1716 0.930 . S
H1704 C1720 0.959 . S
H1705 C1720 0.959 . S
H1706 C1720 0.961 . S
H1707 C1721 0.960 . S
H1708 C1721 0.961 . S
H1709 C1721 0.959 . S
H1710 C1724 0.929 . S
H1711 C1725 0.931 . S
H1712 C1727 0.930 . S
C1713 H1701 0.930 . S
C1713 C1714 1.399 . S
C1713 C1718 1.399 . S
C1714 C1713 1.399 . S
C1714 C1715 1.376 . S
C1715 H1702 0.930 . S
C1715 C1714 1.376 . S
C1715 C1716 1.388 . S
C1716 H1703 0.930 . S
C1716 C1715 1.388 . S
C1716 C1717 1.390 . S
C1717 C1716 1.390 . S
C1717 C1718 1.394 . S
C1717 C1723 1.465 . S
C1718 C1713 1.399 . S
C1718 C1717 1.394 . S
C1718 C1719 1.516 . S
C1719 C1718 1.516 . S
C1719 C1720 1.502 . S
C1719 C1721 1.561 . S
C1719 C1722 1.526 . S
C1720 H1704 0.959 . S
C1720 H1705 0.959 . S
C1720 H1706 0.961 . S
C1720 C1719 1.502 . S
C1721 H1707 0.960 . S
C1721 H1708 0.961 . S
C1721 H1709 0.959 . S
C1721 C1719 1.561 . S
C1722 C1719 1.526 . S
C1722 C1723 1.396 . S
C1722 C1727 1.390 . S
C1723 C1717 1.465 . S
C1723 C1722 1.396 . S
C1723 C1724 1.399 . S
C1724 H1710 0.929 . S
C1724 C1723 1.399 . S
C1724 C1725 1.385 . S
C1725 H1711 0.931 . S
C1725 C1724 1.385 . S
C1725 C1726 1.389 . S
C1726 C1725 1.389 . S
C1726 C1727 1.387 . S
C1727 H1712 0.930 . S
C1727 C1722 1.390 . S
C1727 C1726 1.387 . S
H1728 C1740 0.930 . S
H1729 C1742 0.930 . S
H1730 C1743 0.930 . S
H1731 C1747 0.959 . S
H1732 C1747 0.959 . S
H1733 C1747 0.961 . S
H1734 C1748 0.960 . S
H1735 C1748 0.961 . S
H1736 C1748 0.959 . S
H1737 C1751 0.929 . S
H1738 C1752 0.931 . S
H1739 C1754 0.930 . S
C1740 H1728 0.930 . S
C1740 C1741 1.399 . S
C1740 C1745 1.399 . S
C1741 C1740 1.399 . S
C1741 C1742 1.376 . S
C1742 H1729 0.930 . S
C1742 C1741 1.376 . S
C1742 C1743 1.388 . S
C1743 H1730 0.930 . S
C1743 C1742 1.388 . S
C1743 C1744 1.390 . S
C1744 C1743 1.390 . S
C1744 C1745 1.394 . S
C1744 C1750 1.465 . S
C1745 C1740 1.399 . S
C1745 C1744 1.394 . S
C1745 C1746 1.516 . S
C1746 C1745 1.516 . S
C1746 C1747 1.502 . S
C1746 C1748 1.561 . S
C1746 C1749 1.526 . S
C1747 H1731 0.959 . S
C1747 H1732 0.959 . S
C1747 H1733 0.961 . S
C1747 C1746 1.502 . S
C1748 H1734 0.960 . S
C1748 H1735 0.961 . S
C1748 H1736 0.959 . S
C1748 C1746 1.561 . S
C1749 C1746 1.526 . S
C1749 C1750 1.396 . S
C1749 C1754 1.390 . S
C1750 C1744 1.465 . S
C1750 C1749 1.396 . S
C1750 C1751 1.399 . S
C1751 H1737 0.929 . S
C1751 C1750 1.399 . S
C1751 C1752 1.385 . S
C1752 H1738 0.931 . S
C1752 C1751 1.385 . S
C1752 C1753 1.389 . S
C1753 C1752 1.389 . S
C1753 C1754 1.387 . S
C1754 H1739 0.930 . S
C1754 C1749 1.390 . S
C1754 C1753 1.387 . S
H1755 C1767 0.930 . S
H1756 C1769 0.930 . S
H1757 C1770 0.930 . S
H1758 C1774 0.959 . S
H1759 C1774 0.959 . S
H1760 C1774 0.961 . S
H1761 C1775 0.960 . S
H1762 C1775 0.961 . S
H1763 C1775 0.959 . S
H1764 C1778 0.929 . S
H1765 C1779 0.931 . S
H1766 C1781 0.930 . S
C1767 H1755 0.930 . S
C1767 C1768 1.399 . S
C1767 C1772 1.399 . S
C1768 C1767 1.399 . S
C1768 C1769 1.376 . S
C1769 H1756 0.930 . S
C1769 C1768 1.376 . S
C1769 C1770 1.388 . S
C1770 H1757 0.930 . S
C1770 C1769 1.388 . S
C1770 C1771 1.390 . S
C1771 C1770 1.390 . S
C1771 C1772 1.394 . S
C1771 C1777 1.465 . S
C1772 C1767 1.399 . S
C1772 C1771 1.394 . S
C1772 C1773 1.516 . S
C1773 C1772 1.516 . S
C1773 C1774 1.502 . S
C1773 C1775 1.561 . S
C1773 C1776 1.526 . S
C1774 H1758 0.959 . S
C1774 H1759 0.959 . S
C1774 H1760 0.961 . S
C1774 C1773 1.502 . S
C1775 H1761 0.960 . S
C1775 H1762 0.961 . S
C1775 H1763 0.959 . S
C1775 C1773 1.561 . S
C1776 C1773 1.526 . S
C1776 C1777 1.396 . S
C1776 C1781 1.390 . S
C1777 C1771 1.465 . S
C1777 C1776 1.396 . S
C1777 C1778 1.399 . S
C1778 H1764 0.929 . S
C1778 C1777 1.399 . S
C1778 C1779 1.385 . S
C1779 H1765 0.931 . S
C1779 C1778 1.385 . S
C1779 C1780 1.389 . S
C1780 C1779 1.389 . S
C1780 C1781 1.387 . S
C1781 H1766 0.930 . S
C1781 C1776 1.390 . S
C1781 C1780 1.387 . S
H1782 C1794 0.930 . S
H1783 C1796 0.930 . S
H1784 C1797 0.930 . S
H1785 C1801 0.959 . S
H1786 C1801 0.959 . S
H1787 C1801 0.961 . S
H1788 C1802 0.960 . S
H1789 C1802 0.961 . S
H1790 C1802 0.959 . S
H1791 C1805 0.929 . S
H1792 C1806 0.931 . S
H1793 C1808 0.930 . S
C1794 H1782 0.930 . S
C1794 C1795 1.399 . S
C1794 C1799 1.399 . S
C1795 C1794 1.399 . S
C1795 C1796 1.376 . S
C1796 H1783 0.930 . S
C1796 C1795 1.376 . S
C1796 C1797 1.388 . S
C1797 H1784 0.930 . S
C1797 C1796 1.388 . S
C1797 C1798 1.390 . S
C1798 C1797 1.390 . S
C1798 C1799 1.394 . S
C1798 C1804 1.465 . S
C1799 C1794 1.399 . S
C1799 C1798 1.394 . S
C1799 C1800 1.516 . S
C1800 C1799 1.516 . S
C1800 C1801 1.502 . S
C1800 C1802 1.561 . S
C1800 C1803 1.526 . S
C1801 H1785 0.959 . S
C1801 H1786 0.959 . S
C1801 H1787 0.961 . S
C1801 C1800 1.502 . S
C1802 H1788 0.960 . S
C1802 H1789 0.961 . S
C1802 H1790 0.959 . S
C1802 C1800 1.561 . S
C1803 C1800 1.526 . S
C1803 C1804 1.396 . S
C1803 C1808 1.390 . S
C1804 C1798 1.465 . S
C1804 C1803 1.396 . S
C1804 C1805 1.399 . S
C1805 H1791 0.929 . S
C1805 C1804 1.399 . S
C1805 C1806 1.385 . S
C1806 H1792 0.931 . S
C1806 C1805 1.385 . S
C1806 C1807 1.389 . S
C1807 C1806 1.389 . S
C1807 C1808 1.387 . S
C1808 H1793 0.930 . S
C1808 C1803 1.390 . S
C1808 C1807 1.387 . S
C607 C7 1.129 . S
C619 C252 1.105 . S
C634 C40 1.061 . S
C646 C285 1.113 . S
C661 C73 1.069 . S
C673 C219 1.128 . S
C688 C549 1.132 . S
C700 C106 1.022 . S
C715 C139 1.028 . S
C727 C582 1.130 . S
C742 C172 1.043 . S
C754 C516 1.126 . S
C769 C205 1.132 . S
C781 C450 1.105 . S
C796 C483 1.110 . S
C808 C238 1.130 . S
C823 C417 1.107 . S
C835 C271 1.133 . S
C850 C304 1.069 . S
C862 C153 1.121 1_554 S
C877 C337 1.074 . S
C889 C186 1.119 1_554 S
C904 C370 1.131 . S
C916 C120 1.105 1_554 S
C931 C403 1.025 . S
C943 C54 1.132 1_556 S
C958 C436 1.036 . S
C970 C87 1.132 1_556 S
C985 C21 1.126 1_556 S
C997 C469 1.022 . S
C1012 C351 1.132 . S
C1024 C502 1.022 . S
C1039 C535 1.038 . S
C1051 C384 1.127 . S
C1066 C568 1.133 . S
C1078 C318 1.104 . S
C1093 N508 1.644 . S
C1105 N13 1.558 . S
C1120 N541 1.627 . S
C1132 N46 1.563 . S
C1147 N79 1.555 . S
C1159 N574 1.638 . S
C1174 N112 1.637 . S
C1186 N211 1.572 . S
C1201 N145 1.559 . S
C1213 N244 1.643 . S
C1228 N277 1.555 . S
C1240 N178 1.638 . S
C1255 N310 1.599 . S
C1267 N409 1.614 . S
C1282 N442 1.555 . S
C1294 N343 1.643 . S
C1309 N475 1.554 . S
C1321 N376 1.642 . S
C1336 N2 1.488 . S
C1348 C150 1.512 . S
C1363 C183 1.486 . S
C1375 N35 1.510 . S
C1390 N68 1.510 . S
C1402 C117 1.490 . S
C1417 C51 1.492 . S
C1429 N101 1.486 . S
C1444 N134 1.517 . S
C1456 C84 1.502 . S
C1471 C18 1.529 . S
C1483 N167 1.468 . S
C1498 N200 1.469 . S
C1510 C348 1.528 . S
C1525 C381 1.495 . S
C1537 N233 1.501 . S
C1552 C315 1.497 . S
C1564 N266 1.503 . S
C1579 N299 1.530 . S
C1591 C249 1.468 . S
C1606 C282 1.495 . S
C1618 N332 1.483 . S
C1633 N365 1.523 . S
C1645 C216 1.466 . S
C1660 C546 1.466 . S
C1672 N398 1.532 . S
C1687 C579 1.486 . S
C1699 N431 1.511 . S
C1714 C513 1.472 . S
C1726 N464 1.525 . S
C1741 C447 1.527 . S
C1753 N497 1.468 . S
C1768 C480 1.516 . S
C1780 N530 1.503 . S
C1795 N563 1.479 . S
C1807 C414 1.530 . S
