# Generated by pormake.
# Topology ung, (4)-cn, num edge types: 1
# Building blocks:
#     Node 0, Type 0, BuildingBlock: MUDLON_clean_sbu_0, # of connection points: 4
#     Node 1, Type 0, BuildingBlock: MUDLON_clean_sbu_0, # of connection points: 4
#     Node 2, Type 0, BuildingBlock: MUDLON_clean_sbu_0, # of connection points: 4
#     Node 3, Type 0, BuildingBlock: MUDLON_clean_sbu_0, # of connection points: 4
#     Node 4, Type 0, BuildingBlock: MUDLON_clean_sbu_0, # of connection points: 4
#     Node 5, Type 0, BuildingBlock: MUDLON_clean_sbu_0, # of connection points: 4
#     Node 6, Type 0, BuildingBlock: MUDLON_clean_sbu_0, # of connection points: 4
#     Node 7, Type 0, BuildingBlock: MUDLON_clean_sbu_0, # of connection points: 4
#     Node 8, Type 0, BuildingBlock: MUDLON_clean_sbu_0, # of connection points: 4
#     Node 9, Type 0, BuildingBlock: MUDLON_clean_sbu_0, # of connection points: 4
#     Node 10, Type 0, BuildingBlock: MUDLON_clean_sbu_0, # of connection points: 4
#     Node 11, Type 0, BuildingBlock: MUDLON_clean_sbu_0, # of connection points: 4
#     Node 12, Type 0, BuildingBlock: MUDLON_clean_sbu_0, # of connection points: 4
#     Node 13, Type 0, BuildingBlock: MUDLON_clean_sbu_0, # of connection points: 4
#     Node 14, Type 0, BuildingBlock: MUDLON_clean_sbu_0, # of connection points: 4
#     Node 15, Type 0, BuildingBlock: MUDLON_clean_sbu_0, # of connection points: 4
#     Node 16, Type 0, BuildingBlock: MUDLON_clean_sbu_0, # of connection points: 4
#     Node 17, Type 0, BuildingBlock: MUDLON_clean_sbu_0, # of connection points: 4
#     Edge 18, Type (0, 0), BuildingBlock: XUDNAN_clean_linker_2, # of connection points: 2
#     Edge 19, Type (0, 0), BuildingBlock: XUDNAN_clean_linker_2, # of connection points: 2
#     Edge 20, Type (0, 0), BuildingBlock: XUDNAN_clean_linker_2, # of connection points: 2
#     Edge 21, Type (0, 0), BuildingBlock: XUDNAN_clean_linker_2, # of connection points: 2
#     Edge 22, Type (0, 0), BuildingBlock: XUDNAN_clean_linker_2, # of connection points: 2
#     Edge 23, Type (0, 0), BuildingBlock: XUDNAN_clean_linker_2, # of connection points: 2
#     Edge 24, Type (0, 0), BuildingBlock: XUDNAN_clean_linker_2, # of connection points: 2
#     Edge 25, Type (0, 0), BuildingBlock: XUDNAN_clean_linker_2, # of connection points: 2
#     Edge 26, Type (0, 0), BuildingBlock: XUDNAN_clean_linker_2, # of connection points: 2
#     Edge 27, Type (0, 0), BuildingBlock: XUDNAN_clean_linker_2, # of connection points: 2
#     Edge 28, Type (0, 0), BuildingBlock: XUDNAN_clean_linker_2, # of connection points: 2
#     Edge 29, Type (0, 0), BuildingBlock: XUDNAN_clean_linker_2, # of connection points: 2
#     Edge 30, Type (0, 0), BuildingBlock: XUDNAN_clean_linker_2, # of connection points: 2
#     Edge 31, Type (0, 0), BuildingBlock: XUDNAN_clean_linker_2, # of connection points: 2
#     Edge 32, Type (0, 0), BuildingBlock: XUDNAN_clean_linker_2, # of connection points: 2
#     Edge 33, Type (0, 0), BuildingBlock: XUDNAN_clean_linker_2, # of connection points: 2
#     Edge 34, Type (0, 0), BuildingBlock: XUDNAN_clean_linker_2, # of connection points: 2
#     Edge 35, Type (0, 0), BuildingBlock: XUDNAN_clean_linker_2, # of connection points: 2
#     Edge 36, Type (0, 0), BuildingBlock: XUDNAN_clean_linker_2, # of connection points: 2
#     Edge 37, Type (0, 0), BuildingBlock: XUDNAN_clean_linker_2, # of connection points: 2
#     Edge 38, Type (0, 0), BuildingBlock: XUDNAN_clean_linker_2, # of connection points: 2
#     Edge 39, Type (0, 0), BuildingBlock: XUDNAN_clean_linker_2, # of connection points: 2
#     Edge 40, Type (0, 0), BuildingBlock: XUDNAN_clean_linker_2, # of connection points: 2
#     Edge 41, Type (0, 0), BuildingBlock: XUDNAN_clean_linker_2, # of connection points: 2
#     Edge 42, Type (0, 0), BuildingBlock: XUDNAN_clean_linker_2, # of connection points: 2
#     Edge 43, Type (0, 0), BuildingBlock: XUDNAN_clean_linker_2, # of connection points: 2
#     Edge 44, Type (0, 0), BuildingBlock: XUDNAN_clean_linker_2, # of connection points: 2
#     Edge 45, Type (0, 0), BuildingBlock: XUDNAN_clean_linker_2, # of connection points: 2
#     Edge 46, Type (0, 0), BuildingBlock: XUDNAN_clean_linker_2, # of connection points: 2
#     Edge 47, Type (0, 0), BuildingBlock: XUDNAN_clean_linker_2, # of connection points: 2
#     Edge 48, Type (0, 0), BuildingBlock: XUDNAN_clean_linker_2, # of connection points: 2
#     Edge 49, Type (0, 0), BuildingBlock: XUDNAN_clean_linker_2, # of connection points: 2
#     Edge 50, Type (0, 0), BuildingBlock: XUDNAN_clean_linker_2, # of connection points: 2
#     Edge 51, Type (0, 0), BuildingBlock: XUDNAN_clean_linker_2, # of connection points: 2
#     Edge 52, Type (0, 0), BuildingBlock: XUDNAN_clean_linker_2, # of connection points: 2
#     Edge 53, Type (0, 0), BuildingBlock: XUDNAN_clean_linker_2, # of connection points: 2
# Relax obj value: 0.034
# Max RMSD: 0.246
# Mean RMSD: 0.245
data_MOF--net-ung--node1-MUDLON_clean_sbu_0--edge1-XUDNAN_clean_linker_2
_symmetry_space_group_name_H-M    P1
_symmetry_Int_Tables_number       1
_symmetry_cell_setting            triclinic
loop_
_symmetry_equiv_pos_as_xyz
'x, y, z'
_cell_length_a     77.260834
_cell_length_b     78.157734
_cell_length_c     23.529753
_cell_angle_alpha  89.782222
_cell_angle_beta   90.73095
_cell_angle_gamma 121.25957
loop_
_atom_site_label
_atom_site_type_symbol
_atom_site_fract_x
_atom_site_fract_y
_atom_site_fract_z
_atom_type_partial_charge
Mg0 Mg 0.03836 0.63886 0.28502 0.0
C1 C 0.03578 0.61015 0.37428 0.0
O2 O 0.0494 0.61056 0.34044 0.0
C3 C 0.02297 0.66111 0.22008 0.0
O4 O 0.04269 0.67322 0.21752 0.0
C5 C 0.0274 0.60455 0.21247 0.0
O6 O 1.01152 0.59926 0.2442 0.0
O7 O 0.04302 0.62187 0.21996 0.0
O8 O 0.02773 0.62031 0.361 0.0
O9 O 0.06431 0.66774 0.31174 0.0
C10 C 0.07577 0.66942 0.35342 0.0
O11 O 0.07359 0.65315 0.37687 0.0
O12 O 0.01601 0.64492 0.24802 0.0
Mg13 Mg 0.47301 0.50819 0.261 0.0
C14 C 0.43488 0.48678 0.32187 0.0
O15 O 0.44396 0.47679 0.33236 0.0
C16 C 0.48912 0.52664 0.14399 0.0
O17 O 0.47964 0.50783 0.12788 0.0
C18 C 0.45374 0.47083 0.19496 0.0
O19 O 0.44229 0.47846 0.18568 0.0
O20 O 0.46888 0.48004 0.22871 0.0
O21 O 0.44338 0.50175 0.28864 0.0
O22 O 0.49211 0.5222 0.33607 0.0
C23 C 0.49003 0.53653 0.35263 0.0
O24 O 0.47756 0.54013 0.32386 0.0
O25 O 0.48765 0.53089 0.19519 0.0
Mg26 Mg 0.60806 0.07123 0.25849 0.0
C27 C 0.58687 0.06602 0.14298 0.0
O28 O 0.60344 0.06759 0.12305 0.0
C29 C 0.62896 0.05169 0.30299 0.0
O30 O 0.64245 0.07094 0.30553 0.0
C31 C 0.58668 0.08423 0.33976 0.0
O32 O 0.58105 0.08886 0.29209 0.0
O33 O 0.59912 0.07821 0.33805 0.0
O34 O 0.58453 0.06567 0.19646 0.0
O35 O 0.63716 0.09454 0.22563 0.0
C36 C 0.63962 0.10822 0.19132 0.0
O37 O 0.62408 0.10997 0.17762 0.0
O38 O 0.61163 0.0461 0.28123 0.0
Mg39 Mg 0.03521 0.50751 0.78601 0.0
C40 C 0.02621 0.53377 0.71827 0.0
O41 O 1.0117 0.52591 0.75595 0.0
C42 C 0.0633 0.50081 0.85909 0.0
O43 O 0.04964 0.49833 0.89625 0.0
C44 C 0.03782 0.5334 0.88246 0.0
O45 O 0.05484 0.54515 0.85593 0.0
O46 O 0.02579 0.51596 0.86249 0.0
O47 O 0.0398 0.52919 0.7204 0.0
O48 O 1.01262 0.47845 0.75039 0.0
C49 C 0.01972 0.4704 0.7188 0.0
O50 O 0.03943 0.47964 0.71238 0.0
O51 O 0.06176 0.50571 0.80841 0.0
Mg52 Mg 0.60659 0.64396 0.76167 0.0
C53 C 0.58287 0.61767 0.66374 0.0
O54 O 0.596 0.61207 0.67356 0.0
C55 C 0.62897 0.68152 0.82642 0.0
O56 O 0.63977 0.67305 0.83308 0.0
C57 C 0.57846 0.60824 0.83499 0.0
O58 O 0.56822 0.60187 0.78695 0.0
O59 O 0.5956 0.62446 0.83547 0.0
O60 O 0.58364 0.63144 0.69444 0.0
O61 O 0.63447 0.64858 0.72508 0.0
C62 C 0.64328 0.66379 0.69285 0.0
O63 O 0.63519 0.67489 0.68609 0.0
O64 O 0.61313 0.67276 0.79514 0.0
Mg65 Mg 0.47671 0.07655 0.75236 0.0
C66 C 0.50999 0.08012 0.82887 0.0
O67 O 0.51309 0.07254 0.78314 0.0
C68 C 0.45974 0.09443 0.67601 0.0
O69 O 0.45153 0.07599 0.65713 0.0
C70 C 0.49955 0.08052 0.64567 0.0
O71 O 0.49953 0.0973 0.64398 0.0
O72 O 0.49025 0.06812 0.6855 0.0
O73 O 0.4964 0.08471 0.82736 0.0
O74 O 0.44737 0.05276 0.7824 0.0
C75 C 0.43818 0.05933 0.81119 0.0
O76 O 0.44667 0.07878 0.81719 0.0
O77 O 0.47183 0.09982 0.71853 0.0
Mg78 Mg 0.70663 0.97213 0.60218 0.0
C79 C 0.70106 0.93773 0.67584 0.0
O80 O 0.7076 0.93361 0.62969 0.0
C81 C 0.68981 0.98974 0.52694 0.0
O82 O 0.70955 1.00099 0.52145 0.0
C83 C 0.70624 0.94734 0.50555 0.0
O84 O 0.68679 0.93992 0.51297 0.0
O85 O 0.71887 0.96173 0.53723 0.0
O86 O 0.69773 0.95207 0.67497 0.0
O87 O 0.72855 1.00162 0.63653 0.0
C88 C 0.73952 1.00331 0.67946 0.0
O89 O 0.7388 0.98723 0.6994 0.0
O90 O 0.68283 0.97502 0.56107 0.0
Mg91 Mg 0.14327 0.83782 0.59439 0.0
C92 C 0.10292 0.81471 0.64681 0.0
O93 O 0.11064 0.80339 0.65575 0.0
C94 C 0.16698 0.873 0.5119 0.0
O95 O 0.17209 0.88403 0.5581 0.0
C96 C 0.13061 0.80116 0.53106 0.0
O97 O 0.12288 0.81034 0.50337 0.0
O98 O 0.14106 0.80939 0.57591 0.0
O99 O 0.11309 0.83076 0.61848 0.0
O100 O 0.16322 0.8559 0.66436 0.0
C101 C 0.15925 0.86878 0.68288 0.0
O102 O 0.14418 0.86956 0.65921 0.0
O103 O 0.15458 0.85424 0.51523 0.0
Mg104 Mg 0.27408 0.40986 0.61663 0.0
C105 C 0.25394 0.42479 0.69821 0.0
O106 O 0.24801 0.42953 0.6513 0.0
C107 C 0.3132 0.42615 0.55716 0.0
O108 O 0.30661 0.40693 0.56 0.0
C109 C 0.25437 0.40834 0.50276 0.0
O110 O 0.27276 0.41448 0.48523 0.0
O111 O 0.25023 0.40383 0.55487 0.0
O112 O 0.26585 0.41818 0.6952 0.0
O113 O 0.27708 0.3847 0.64369 0.0
C114 C 0.28744 0.38849 0.68951 0.0
O115 O 0.29478 0.40618 0.71316 0.0
O116 O 0.30281 0.43258 0.58005 0.0
Mg117 Mg 0.71444 0.84522 0.10761 0.0
C118 C 0.72559 0.87291 0.20145 0.0
O119 O 0.74233 0.8783 0.1738 0.0
C120 C 0.69559 0.80529 0.05307 0.0
O121 O 0.71503 0.81174 0.05223 0.0
C122 C 0.71537 0.86255 0.98998 0.0
O123 O 0.70926 0.84427 0.97298 0.0
O124 O 0.71985 0.86711 0.04214 0.0
O125 O 0.70918 0.85771 0.18358 0.0
O126 O 0.74025 0.8422 0.13004 0.0
C127 C 0.73807 0.83249 0.17563 0.0
O128 O 0.72112 0.82545 0.20372 0.0
O129 O 0.6899 0.81617 0.07664 0.0
Mg130 Mg 0.27435 0.97634 0.09261 0.0
C131 C 0.25097 0.95608 0.1967 0.0
O132 O 0.25044 0.97261 0.19656 0.0
C133 C 0.31316 0.99784 0.03265 0.0
O134 O 0.30683 0.01054 0.03247 0.0
C135 C 0.25086 0.95076 0.99491 0.0
O136 O 0.26209 0.94339 1.01035 0.0
O137 O 0.25272 0.96567 0.02223 0.0
O138 O 0.26068 0.95339 0.15795 0.0
O139 O 0.2805 1.00453 0.1301 0.0
C140 C 0.29216 0.01068 0.17361 0.0
O141 O 0.29981 1.00004 0.19198 0.0
O142 O 0.30252 0.98114 0.05763 0.0
Mg143 Mg 0.14475 0.41843 0.11087 0.0
C144 C 0.17887 0.42517 0.19011 0.0
O145 O 0.18502 0.42125 0.14283 0.0
C146 C 0.13318 0.4378 0.02194 0.0
O147 O 0.13128 0.42214 0.99549 0.0
C148 C 0.17258 0.42501 1.01486 0.0
O149 O 0.17557 0.44304 0.02114 0.0
O150 O 0.15993 0.41092 0.04666 0.0
O151 O 0.16321 0.42665 0.18862 0.0
O152 O 0.11554 0.3934 0.13732 0.0
C153 C 0.10297 0.39808 0.15447 0.0
O154 O 0.10792 0.41687 0.15123 0.0
O155 O 0.13906 0.44086 0.07371 0.0
Mg156 Mg 0.37509 0.30799 0.92092 0.0
C157 C 0.37456 0.29025 0.03662 0.0
O158 O 0.38474 0.30925 0.05116 0.0
C159 C 0.34382 0.32138 0.90824 0.0
O160 O 0.35168 0.33088 0.95643 0.0
C161 C 0.37723 0.27903 0.84346 0.0
O162 O 0.36626 0.26732 0.88506 0.0
O163 O 0.38433 0.29778 0.84753 0.0
O164 O 0.36735 0.28542 0.98638 0.0
O165 O 0.39877 0.33639 0.95782 0.0
C166 C 0.4012 0.35335 0.94552 0.0
O167 O 0.39044 0.35462 0.90387 0.0
O168 O 0.34988 0.31036 0.88784 0.0
Mg169 Mg 0.80588 0.17101 0.93259 0.0
C170 C 0.76978 0.15762 1.00321 0.0
O171 O 0.77906 0.14945 0.02812 0.0
C172 C 0.83463 0.2062 0.85739 0.0
O173 O 0.84233 0.21486 0.90661 0.0
C174 C 0.7898 0.13365 0.86449 0.0
O175 O 0.78385 0.14391 0.83434 0.0
O176 O 0.79961 0.14123 0.91061 0.0
O177 O 0.77765 0.16824 0.95916 0.0
O178 O 0.82764 0.18425 1.00245 0.0
C179 C 0.82851 0.19833 0.03186 0.0
O180 O 0.81594 0.20446 0.01985 0.0
O181 O 0.81894 0.18872 0.85628 0.0
Mg182 Mg 0.9389 0.73639 0.92388 0.0
C183 C 0.90329 0.72741 0.84734 0.0
O184 O 0.89671 0.73052 0.89509 0.0
C185 C 0.9608 0.72078 0.98944 0.0
O186 O 0.97327 0.74027 0.99128 0.0
C187 C 0.92221 0.73892 0.03767 0.0
O188 O 0.93035 0.7285 0.05365 0.0
O189 O 0.92467 0.74539 0.98692 0.0
O190 O 0.91962 0.72714 0.84804 0.0
O191 O 0.96785 0.76015 0.89158 0.0
C192 C 0.97634 0.75345 0.86023 0.0
O193 O 0.9674 0.73399 0.85309 0.0
O194 O 0.94414 0.71384 0.96208 0.0
Mg195 Mg 0.37732 0.17719 0.41981 0.0
C196 C 0.38948 0.21235 0.34122 0.0
O197 O 0.39059 0.22115 0.38971 0.0
C198 C 0.40531 0.16069 0.44304 0.0
O199 O 0.39705 0.15053 0.39599 0.0
C200 C 0.37098 0.19217 0.53305 0.0
O201 O 0.37337 0.17792 0.55409 0.0
O202 O 0.37053 0.19402 0.47946 0.0
O203 O 0.38612 0.19459 0.34175 0.0
O204 O 0.35147 0.14852 0.39232 0.0
C205 C 0.34783 0.1315 0.40931 0.0
O206 O 0.35853 0.13057 0.45171 0.0
O207 O 0.40062 0.1732 0.45987 0.0
Mg208 Mg 0.9392 0.30788 0.43358 0.0
C209 C 0.92087 0.27856 0.34509 0.0
O210 O 0.93358 0.2752 0.37341 0.0
C211 C 0.95957 0.34685 0.49201 0.0
O212 O 0.97274 0.34101 0.49422 0.0
C213 C 0.92417 0.28982 0.55083 0.0
O214 O 0.93168 0.30866 0.56472 0.0
O215 O 0.92649 0.2855 0.50052 0.0
O216 O 0.91909 0.29314 0.36084 0.0
O217 O 0.96868 0.31498 0.40248 0.0
C218 C 0.97594 0.32899 0.36597 0.0
O219 O 0.96563 0.3376 0.35305 0.0
O220 O 0.94271 0.33571 0.46647 0.0
Mg221 Mg 0.80888 0.74285 0.41913 0.0
C222 C 0.82712 0.7433 0.53499 0.0
O223 O 0.8083 0.73592 0.55078 0.0
C224 C 0.81589 0.77924 0.3524 0.0
O225 O 0.82973 0.77674 0.32864 0.0
C226 C 0.83301 0.73217 0.34202 0.0
O227 O 0.84136 0.73208 0.39091 0.0
O228 O 0.81796 0.73462 0.34166 0.0
O229 O 0.83184 0.74882 0.48372 0.0
O230 O 0.77962 0.7198 0.45235 0.0
C231 C 0.76868 0.72596 0.47315 0.0
O232 O 0.77519 0.74516 0.47079 0.0
O233 O 0.8061 0.76825 0.39429 0.0
H234 H 0.06022 0.57019 0.93409 0.0
H235 H 1.00447 0.51258 0.9497 0.0
H236 H 0.99648 0.52436 0.03715 0.0
H237 H 0.07228 0.57845 0.08425 0.0
H238 H 0.08203 0.60496 0.08059 0.0
H239 H 0.0836 0.59195 0.01968 0.0
H240 H 0.0646 0.60477 0.95821 0.0
H241 H 0.06301 0.61785 0.01885 0.0
H242 H 0.0403 0.60007 0.98082 0.0
H243 H 0.99424 0.54243 0.12154 0.0
H244 H 0.99745 0.56566 0.19696 0.0
H245 H 0.05479 0.61177 0.12738 0.0
C246 C 0.04635 0.56001 0.95592 0.0
C247 C 0.03297 0.54042 0.93498 0.0
C248 C 0.01495 0.52763 0.96484 0.0
C249 C 1.0103 0.53417 1.01461 0.0
C250 C 0.02382 0.55355 0.03403 0.0
C251 C 0.04146 0.5663 1.00566 0.0
C252 C 0.05324 0.58651 0.03513 0.0
C253 C 0.07402 0.59071 0.05616 0.0
C254 C 0.0554 0.60329 0.99591 0.0
C255 C 0.03938 0.58316 0.08442 0.0
C256 C 0.02254 0.56401 0.08293 0.0
C257 C 1.00738 0.55743 0.12322 0.0
C258 C 1.00936 0.57079 0.16593 0.0
C259 C 0.02639 0.59057 0.16823 0.0
C260 C 0.04167 0.59674 0.12703 0.0
H261 H 0.54481 0.57094 0.84929 0.0
H262 H 0.58978 0.62351 0.94276 0.0
H263 H 0.57121 0.60878 0.03159 0.0
H264 H 0.50174 0.56277 0.92458 0.0
H265 H 0.4893 0.53587 0.92428 0.0
H266 H 0.50637 0.55019 0.86807 0.0
H267 H 0.52765 0.53388 0.88889 0.0
H268 H 0.51047 0.51928 0.94461 0.0
H269 H 0.53718 0.53492 0.95993 0.0
H270 H 0.54646 0.58928 0.10915 0.0
H271 H 0.51978 0.56452 0.17206 0.0
H272 H 0.49177 0.52412 0.02861 0.0
C273 C 0.55088 0.57926 0.88853 0.0
C274 C 0.56873 0.59839 0.88904 0.0
C275 C 0.57619 0.60878 0.94133 0.0
C276 C 0.56568 0.6006 0.99197 0.0
C277 C 0.54787 0.58192 0.98973 0.0
C278 C 0.54072 0.57122 0.93956 0.0
C279 C 0.52137 0.55132 0.94886 0.0
C280 C 0.50365 0.54997 0.9144 0.0
C281 C 0.52435 0.53382 0.93475 0.0
C282 C 0.51865 0.55258 1.01202 0.0
C283 C 0.53398 0.57044 0.03469 0.0
C284 C 0.53447 0.57518 0.09196 0.0
C285 C 0.51916 0.56107 0.12728 0.0
C286 C 0.50371 0.54237 0.10529 0.0
C287 C 0.50341 0.53825 0.04673 0.0
H288 H 0.58559 0.0646 0.02615 0.0
H289 H 0.55581 0.07146 0.172 0.0
H290 H 0.5338 0.07713 0.1077 0.0
H291 H 0.58544 0.10205 0.93927 0.0
H292 H 0.58024 0.08813 0.87397 0.0
H293 H 0.59356 0.08434 0.9313 0.0
H294 H 0.56683 0.04635 0.93098 0.0
H295 H 0.55357 0.04998 0.87318 0.0
H296 H 0.5404 0.0381 0.93768 0.0
H297 H 0.51582 0.08336 0.02724 0.0
H298 H 0.50099 0.08628 0.93664 0.0
H299 H 0.54196 0.07454 0.84367 0.0
C300 C 0.57434 0.06715 0.04461 0.0
C301 C 0.57247 0.06759 0.10419 0.0
C302 C 0.55751 0.07095 0.12653 0.0
C303 C 0.54499 0.07431 0.09035 0.0
C304 C 0.54749 0.07412 0.03187 0.0
C305 C 0.56161 0.07036 1.00912 0.0
C306 C 0.56097 0.0706 0.94476 0.0
C307 C 0.58126 0.08728 0.92095 0.0
C308 C 0.55509 0.05003 0.92022 0.0
C309 C 0.54435 0.07516 0.93489 0.0
C310 C 0.53688 0.0773 0.98564 0.0
C311 C 0.5215 0.08163 0.98721 0.0
C312 C 0.51325 0.08338 0.93552 0.0
C313 C 0.52028 0.08063 0.88301 0.0
C314 C 0.53622 0.07672 0.88303 0.0
H315 H 0.5633 0.10032 0.3633 0.0
H316 H 0.5859 0.0645 0.43698 0.0
H317 H 0.56528 0.0588 0.52215 0.0
H318 H 0.56289 0.12396 0.49612 0.0
H319 H 0.5402 0.12393 0.47705 0.0
H320 H 0.55704 0.12538 0.42247 0.0
H321 H 0.52719 0.09419 0.37331 0.0
H322 H 0.51033 0.09247 0.42818 0.0
H323 H 0.51292 0.07132 0.41301 0.0
H324 H 0.54029 0.05504 0.59656 0.0
H325 H 0.51633 0.05733 0.6603 0.0
H326 H 0.5115 0.09699 0.54028 0.0
C327 C 0.56408 0.09145 0.3976 0.0
C328 C 0.57619 0.08283 0.39337 0.0
C329 C 0.57682 0.07135 0.43929 0.0
C330 C 0.56506 0.06792 0.48774 0.0
C331 C 0.55293 0.07626 0.48997 0.0
C332 C 0.55265 0.0881 0.4466 0.0
C333 C 0.5386 0.0956 0.46001 0.0
C334 C 0.55039 0.11858 0.46418 0.0
C335 C 0.52123 0.08793 0.41601 0.0
C336 C 0.53092 0.08602 0.51748 0.0
C337 C 0.53916 0.07471 0.53373 0.0
C338 C 0.53388 0.064 0.58451 0.0
C339 C 0.52016 0.06527 0.62023 0.0
C340 C 0.51213 0.07737 0.60526 0.0
C341 C 0.51749 0.0877 0.55296 0.0
H342 H 0.05347 0.59033 0.41914 0.0
H343 H 1.00783 0.60539 0.45339 0.0
H344 H 1.00107 0.58813 0.54589 0.0
H345 H 0.02732 0.5413 0.48202 0.0
H346 H 0.05006 0.54334 0.51072 0.0
H347 H 0.05118 0.55678 0.44717 0.0
H348 H 0.07845 0.58999 0.49466 0.0
H349 H 0.07734 0.57668 0.55851 0.0
H350 H 0.07319 0.59732 0.56175 0.0
H351 H 0.99922 0.5692 0.63426 0.0
H352 H 1.00187 0.54942 0.71193 0.0
H353 H 0.04914 0.54702 0.62102 0.0
C354 C 0.04198 0.58995 0.44591 0.0
C355 C 0.03114 0.5992 0.4289 0.0
C356 C 0.01631 0.5984 0.46542 0.0
C357 C 1.01239 0.58866 0.51809 0.0
C358 C 0.02346 0.57984 0.53368 0.0
C359 C 0.03793 0.58036 0.49867 0.0
C360 C 0.04774 0.56973 0.52555 0.0
C361 C 0.04383 0.55172 0.4892 0.0
C362 C 0.07053 0.58431 0.53572 0.0
C363 C 0.03645 0.56306 0.58114 0.0
C364 C 0.02254 0.56908 0.58492 0.0
C365 C 1.01008 0.56444 0.63181 0.0
C366 C 1.01172 0.55319 0.67575 0.0
C367 C 0.02574 0.54668 0.67271 0.0
C368 C 0.03838 0.55188 0.62485 0.0
H369 H 0.57669 0.58689 0.59356 0.0
H370 H 0.55311 0.62519 0.63306 0.0
H371 H 0.52646 0.60786 0.5596 0.0
H372 H 0.56842 0.58501 0.44266 0.0
H373 H 0.56123 0.55917 0.43578 0.0
H374 H 0.57832 0.57438 0.49197 0.0
H375 H 0.55449 0.54866 0.56637 0.0
H376 H 0.53728 0.53338 0.51041 0.0
H377 H 0.52832 0.54174 0.5681 0.0
H378 H 0.50279 0.58688 0.48188 0.0
H379 H 0.4836 0.5639 0.40329 0.0
H380 H 0.52214 0.53869 0.41342 0.0
C381 C 0.56593 0.59166 0.58683 0.0
C382 C 0.56701 0.60745 0.61915 0.0
C383 C 0.55262 0.61318 0.6089 0.0
C384 C 0.5374 0.60339 0.56732 0.0
C385 C 0.53675 0.58789 0.5364 0.0
C386 C 0.55062 0.58203 0.54552 0.0
C387 C 0.54661 0.56502 0.50593 0.0
C388 C 0.56472 0.57128 0.46676 0.0
C389 C 0.54136 0.54608 0.53974 0.0
C390 C 0.52837 0.5623 0.47285 0.0
C391 C 0.52297 0.57565 0.49137 0.0
C392 C 0.50685 0.57634 0.46707 0.0
C393 C 0.49605 0.56319 0.42231 0.0
C394 C 0.50134 0.54944 0.40202 0.0
C395 C 0.51765 0.54892 0.42811 0.0
H396 H 0.69364 0.87146 0.25795 0.0
H397 H 0.75928 0.90204 0.256 0.0
H398 H 0.76139 0.9239 0.33408 0.0
H399 H 0.6909 0.91494 0.28372 0.0
H400 H 0.66947 0.90262 0.33021 0.0
H401 H 0.67285 0.88852 0.27577 0.0
H402 H 0.67177 0.86389 0.35167 0.0
H403 H 0.66827 0.87786 0.40633 0.0
H404 H 0.68895 0.87348 0.41177 0.0
H405 H 0.75672 0.94331 0.41006 0.0
H406 H 0.7453 0.95856 0.48058 0.0
H407 H 0.68277 0.91581 0.43356 0.0
C408 C 0.70842 0.88261 0.27441 0.0
C409 C 0.72629 0.885 0.25078 0.0
C410 C 0.74537 0.89991 0.2732 0.0
C411 C 0.74675 0.91243 0.31767 0.0
C412 C 0.72893 0.90991 0.33945 0.0
C413 C 0.71011 0.89536 0.31884 0.0
C414 C 0.69338 0.89622 0.34913 0.0
C415 C 0.68092 0.90085 0.3072 0.0
C416 C 0.67979 0.8767 0.38166 0.0
C417 C 0.70577 0.91359 0.38954 0.0
C418 C 0.72624 0.92123 0.38333 0.0
C419 C 0.74072 0.93742 0.41552 0.0
C420 C 0.73408 0.94601 0.4554 0.0
C421 C 0.71316 0.93842 0.46267 0.0
C422 C 0.69888 0.92199 0.4291 0.0
H423 H 0.18875 0.9127 0.48255 0.0
H424 H 0.1695 0.85321 0.41969 0.0
H425 H 0.18976 0.86797 0.33337 0.0
H426 H 0.18715 0.93329 0.34525 0.0
H427 H 0.20894 0.95758 0.36102 0.0
H428 H 0.19286 0.9422 0.41762 0.0
H429 H 0.22399 0.94478 0.46915 0.0
H430 H 0.24013 0.95998 0.41237 0.0
H431 H 0.23935 0.9373 0.43234 0.0
H432 H 0.21381 0.88944 0.2562 0.0
H433 H 0.23641 0.91583 0.18869 0.0
H434 H 0.23838 0.96098 0.29989 0.0
C435 C 0.18868 0.90278 0.45046 0.0
C436 C 0.17759 0.88181 0.45796 0.0
C437 C 0.17781 0.86932 0.41479 0.0
C438 C 0.18937 0.87756 0.36574 0.0
C439 C 0.20042 0.89831 0.36014 0.0
C440 C 0.19989 0.91073 0.40086 0.0
C441 C 0.21273 0.93251 0.3839 0.0
C442 C 0.19964 0.94194 0.37649 0.0
C443 C 0.23008 0.94433 0.42701 0.0
C444 C 0.22066 0.93039 0.3275 0.0
C445 C 0.21361 0.91058 0.3148 0.0
C446 C 0.2193 0.905 0.26548 0.0
C447 C 0.23223 0.92007 0.22759 0.0
C448 C 0.23905 0.9404 0.23898 0.0
C449 C 0.23329 0.94554 0.28986 0.0
H450 H 0.25684 0.41346 0.38719 0.0
H451 H 0.21876 0.40592 0.53069 0.0
H452 H 0.19599 0.41086 0.46715 0.0
H453 H 0.25274 0.45164 0.31669 0.0
H454 H 0.25186 0.44223 0.24623 0.0
H455 H 0.265 0.4378 0.30271 0.0
H456 H 0.24314 0.39958 0.28434 0.0
H457 H 0.23013 0.40392 0.2273 0.0
H458 H 0.21592 0.38737 0.28463 0.0
H459 H 0.17805 0.418 0.38782 0.0
H460 H 0.16452 0.42317 0.29779 0.0
H461 H 0.21408 0.42529 0.20658 0.0
C462 C 0.24363 0.41269 0.40527 0.0
C463 C 0.23961 0.40931 0.46399 0.0
C464 C 0.22212 0.40838 0.48581 0.0
C465 C 0.20916 0.41129 0.45011 0.0
C466 C 0.2138 0.41498 0.39261 0.0
C467 C 0.23047 0.4154 0.37022 0.0
C468 C 0.23192 0.41927 0.30685 0.0
C469 C 0.25155 0.43891 0.29229 0.0
C470 C 0.23016 0.40147 0.27385 0.0
C471 C 0.2135 0.42104 0.29703 0.0
C472 C 0.20332 0.4187 0.34704 0.0
C473 C 0.18587 0.41978 0.34839 0.0
C474 C 0.17837 0.42285 0.29707 0.0
C475 C 0.18822 0.42464 0.24506 0.0
C476 C 0.20618 0.424 0.24553 0.0
H477 H 0.18659 0.44403 0.91356 0.0
H478 H 0.18552 0.39848 0.02188 0.0
H479 H 0.20772 0.39471 0.95449 0.0
H480 H 0.18411 0.41942 0.78098 0.0
H481 H 0.2002 0.44255 0.74414 0.0
H482 H 0.18476 0.44192 0.80176 0.0
H483 H 0.21673 0.47031 0.85265 0.0
H484 H 0.23231 0.47087 0.79549 0.0
H485 H 0.23782 0.46708 0.86751 0.0
H486 H 0.23143 0.39732 0.87787 0.0
H487 H 0.25094 0.40232 0.79083 0.0
H488 H 0.23439 0.44436 0.72863 0.0
C489 C 0.19103 0.43324 0.92297 0.0
C490 C 0.18452 0.42161 0.97295 0.0
C491 C 0.19034 0.40746 0.98363 0.0
C492 C 0.20302 0.40533 0.94585 0.0
C493 C 0.20941 0.41723 0.89724 0.0
C494 C 0.20328 0.43061 0.88513 0.0
C495 C 0.21146 0.44089 0.82865 0.0
C496 C 0.1941 0.43589 0.78639 0.0
C497 C 0.22541 0.46363 0.83658 0.0
C498 C 0.22332 0.43132 0.81104 0.0
C499 C 0.22219 0.41796 0.85164 0.0
C500 C 0.23228 0.40763 0.84558 0.0
C501 C 0.24344 0.41068 0.79611 0.0
C502 C 0.24415 0.4237 0.75285 0.0
C503 C 0.23407 0.43427 0.76084 0.0
H504 H 0.71194 0.86042 0.87343 0.0
H505 H 0.71609 0.89689 0.01772 0.0
H506 H 0.71123 0.91912 0.95348 0.0
H507 H 0.73936 0.90188 0.77622 0.0
H508 H 0.72396 0.88809 0.71559 0.0
H509 H 0.72769 0.87505 0.77321 0.0
H510 H 0.6888 0.85247 0.78379 0.0
H511 H 0.68496 0.86562 0.72669 0.0
H512 H 0.67393 0.86384 0.79512 0.0
H513 H 0.70441 0.93658 0.87404 0.0
H514 H 0.70036 0.95041 0.78372 0.0
H515 H 0.70203 0.90342 0.69077 0.0
C516 C 0.71195 0.87315 0.89148 0.0
C517 C 0.71435 0.87687 0.95066 0.0
C518 C 0.71437 0.89376 0.97253 0.0
C519 C 0.71148 0.90641 0.93642 0.0
C520 C 0.7088 0.90212 0.87845 0.0
C521 C 0.70934 0.88609 0.85596 0.0
C522 C 0.70668 0.88515 0.79191 0.0
C523 C 0.72555 0.8877 0.76251 0.0
C524 C 0.68745 0.86561 0.77331 0.0
C525 C 0.70447 0.90309 0.78197 0.0
C526 C 0.7055 0.91254 0.8325 0.0
C527 C 0.70368 0.92936 0.83416 0.0
C528 C 0.70124 0.93703 0.78265 0.0
C529 C 0.70087 0.92801 0.73017 0.0
C530 C 0.70226 0.91066 0.73016 0.0
H531 H 0.24404 0.9191 0.9281 0.0
H532 H 0.22396 0.96103 0.95468 0.0
H533 H 0.19865 0.9447 0.87728 0.0
H534 H 0.23876 0.9166 0.77496 0.0
H535 H 0.23 0.89029 0.77154 0.0
H536 H 0.24671 0.90544 0.82846 0.0
H537 H 0.22082 0.88136 0.90222 0.0
H538 H 0.204 0.86616 0.84556 0.0
H539 H 0.19518 0.87611 0.8993 0.0
H540 H 0.17514 0.92345 0.79881 0.0
H541 H 0.1553 0.8992 0.72316 0.0
H542 H 0.19075 0.87103 0.74656 0.0
C543 C 0.23438 0.92493 0.91759 0.0
C544 C 0.23599 0.94138 0.94755 0.0
C545 C 0.22303 0.94849 0.93237 0.0
C546 C 0.2086 0.93929 0.88849 0.0
C547 C 0.20736 0.92305 0.86011 0.0
C548 C 0.21993 0.91596 0.87388 0.0
C549 C 0.2154 0.89819 0.83695 0.0
C550 C 0.23381 0.90292 0.80083 0.0
C551 C 0.20843 0.87934 0.87318 0.0
C552 C 0.19822 0.89633 0.80034 0.0
C553 C 0.19385 0.91083 0.81452 0.0
C554 C 0.17847 0.91207 0.78724 0.0
C555 C 0.16725 0.89817 0.7443 0.0
C556 C 0.17144 0.88317 0.72875 0.0
C557 C 0.18719 0.88231 0.75729 0.0
H558 H 0.36938 0.24096 0.82888 0.0
H559 H 0.38904 0.29647 0.73833 0.0
H560 H 0.38878 0.27999 0.64844 0.0
H561 H 0.39903 0.22583 0.7485 0.0
H562 H 0.37971 0.19964 0.75053 0.0
H563 H 0.38185 0.21603 0.80735 0.0
H564 H 0.34425 0.2052 0.7916 0.0
H565 H 0.34206 0.18897 0.73426 0.0
H566 H 0.33581 0.20794 0.72223 0.0
H567 H 0.38421 0.25671 0.56769 0.0
H568 H 0.37969 0.2297 0.50369 0.0
H569 H 0.36444 0.18984 0.64806 0.0
C570 C 0.37381 0.24973 0.79025 0.0
C571 C 0.3792 0.27 0.79057 0.0
C572 C 0.38495 0.28095 0.73914 0.0
C573 C 0.38473 0.27169 0.68785 0.0
C574 C 0.37891 0.25155 0.68892 0.0
C575 C 0.37387 0.24079 0.73894 0.0
C576 C 0.36839 0.21941 0.72878 0.0
C577 C 0.38313 0.21498 0.76067 0.0
C578 C 0.34632 0.20451 0.74519 0.0
C579 C 0.3711 0.21976 0.66511 0.0
C580 C 0.37693 0.23836 0.64282 0.0
C581 C 0.37981 0.24215 0.58476 0.0
C582 C 0.37708 0.22666 0.54871 0.0
C583 C 0.37177 0.20767 0.5709 0.0
C584 C 0.3686 0.20421 0.62987 0.0
H585 H 0.86557 0.24504 0.84184 0.0
H586 H 0.82848 0.18862 0.75272 0.0
H587 H 0.84837 0.2035 0.66593 0.0
H588 H 0.87042 0.2767 0.72294 0.0
H589 H 0.89614 0.29564 0.74095 0.0
H590 H 0.87898 0.28044 0.79598 0.0
H591 H 0.90428 0.26987 0.82839 0.0
H592 H 0.92141 0.28485 0.773 0.0
H593 H 0.91274 0.25859 0.77776 0.0
H594 H 0.87314 0.2241 0.58988 0.0
H595 H 0.89854 0.25004 0.52674 0.0
H596 H 0.91873 0.29338 0.6643 0.0
C597 C 0.86156 0.23583 0.804 0.0
C598 C 0.84549 0.21564 0.80416 0.0
C599 C 0.84067 0.20414 0.75363 0.0
C600 C 0.85196 0.21242 0.70418 0.0
C601 C 0.86791 0.23226 0.70576 0.0
C602 C 0.87253 0.24391 0.75408 0.0
C603 C 0.89009 0.26499 0.74403 0.0
C604 C 0.88351 0.28034 0.75139 0.0
C605 C 0.9082 0.26985 0.78312 0.0
C606 C 0.89464 0.26336 0.68253 0.0
C607 C 0.88182 0.24429 0.66146 0.0
C608 C 0.8832 0.23911 0.60583 0.0
C609 C 0.89777 0.25393 0.57037 0.0
C610 C 0.91062 0.27377 0.59049 0.0
C611 C 0.90913 0.27838 0.6476 0.0
H612 H 0.86703 0.72535 0.83083 0.0
H613 H 0.91838 0.7311 0.74012 0.0
H614 H 0.90474 0.73632 0.65056 0.0
H615 H 0.82954 0.69875 0.71771 0.0
H616 H 0.81596 0.7112 0.73279 0.0
H617 H 0.82941 0.70706 0.78898 0.0
H618 H 0.8493 0.74504 0.81173 0.0
H619 H 0.83613 0.74934 0.75507 0.0
H620 H 0.86342 0.76267 0.75632 0.0
H621 H 0.88676 0.74341 0.57212 0.0
H622 H 0.86376 0.74792 0.50854 0.0
H623 H 0.82366 0.73654 0.65002 0.0
C624 C 0.87528 0.72741 0.79202 0.0
C625 C 0.8938 0.72781 0.79258 0.0
C626 C 0.90411 0.73061 0.7408 0.0
C627 C 0.89655 0.73371 0.68973 0.0
C628 C 0.87855 0.73377 0.691 0.0
C629 C 0.86787 0.73036 0.74063 0.0
C630 C 0.8489 0.73118 0.73051 0.0
C631 C 0.82983 0.71084 0.74324 0.0
C632 C 0.84949 0.74806 0.76549 0.0
C633 C 0.85069 0.7358 0.66755 0.0
C634 C 0.86797 0.73738 0.64563 0.0
C635 C 0.8731 0.74203 0.58872 0.0
C636 C 0.85999 0.7447 0.55301 0.0
C637 C 0.84187 0.74255 0.57422 0.0
C638 C 0.83735 0.73822 0.63243 0.0
H639 H 0.86357 0.72462 0.32716 0.0
H640 H 0.82541 0.74129 0.23543 0.0
H641 H 0.84466 0.74572 0.148 0.0
H642 H 0.90978 0.75911 0.26075 0.0
H643 H 0.9191 0.74223 0.25825 0.0
H644 H 0.90192 0.73967 0.31326 0.0
H645 H 0.87723 0.70272 0.28399 0.0
H646 H 0.89447 0.70508 0.22942 0.0
H647 H 0.86856 0.69686 0.2112 0.0
H648 H 0.8694 0.75015 0.07176 0.0
H649 H 0.89537 0.75077 1.0101 0.0
H650 H 0.91674 0.73044 0.15145 0.0
C651 C 0.85909 0.72898 0.28856 0.0
C652 C 0.84296 0.7326 0.28819 0.0
C653 C 0.83763 0.73831 0.23674 0.0
C654 C 0.84855 0.74099 0.18691 0.0
C655 C 0.86466 0.73774 0.18912 0.0
C656 C 0.86973 0.73158 0.23842 0.0
C657 C 0.88761 0.72899 0.22946 0.0
C658 C 0.90567 0.74336 0.2677 0.0
C659 C 0.8816 0.70711 0.23907 0.0
C660 C 0.8919 0.73475 0.16748 0.0
C661 C 0.87861 0.73991 0.14507 0.0
C662 C 0.87981 0.74603 0.08878 0.0
C663 C 0.8947 0.74645 0.05418 0.0
C664 C 0.90808 0.74063 0.07588 0.0
C665 C 0.90673 0.73494 0.13351 0.0
H666 H 0.39649 0.2502 0.32491 0.0
H667 H 0.37936 0.19505 0.2353 0.0
H668 H 0.37305 0.20875 0.14807 0.0
H669 H 0.35978 0.25851 0.26202 0.0
H670 H 0.37613 0.2853 0.25745 0.0
H671 H 0.38038 0.2717 0.31223 0.0
H672 H 0.41728 0.28643 0.27883 0.0
H673 H 0.41325 0.30034 0.22451 0.0
H674 H 0.42194 0.28375 0.20545 0.0
H675 H 0.36627 0.22757 0.07247 0.0
H676 H 0.36329 0.25161 1.01092 0.0
H677 H 0.3856 0.29472 0.14941 0.0
C678 C 0.3917 0.24109 0.28675 0.0
C679 C 0.38842 0.22153 0.28705 0.0
C680 C 0.38208 0.21011 0.23616 0.0
C681 C 0.37835 0.21771 0.18643 0.0
C682 C 0.38117 0.23683 0.18813 0.0
C683 C 0.38802 0.24849 0.2367 0.0
C684 C 0.38979 0.26852 0.22735 0.0
C685 C 0.37567 0.27115 0.26713 0.0
C686 C 0.41188 0.28578 0.23444 0.0
C687 C 0.38268 0.26624 0.16606 0.0
C688 C 0.37764 0.2478 0.14432 0.0
C689 C 0.37032 0.24212 0.0889 0.0
C690 C 0.36856 0.25584 0.05438 0.0
C691 C 0.37423 0.27507 0.07526 0.0
C692 C 0.38117 0.28016 0.1321 0.0
H693 H 0.88962 0.27739 0.28212 0.0
H694 H 0.92553 0.24944 0.29876 0.0
H695 H 0.906 0.22629 0.22091 0.0
H696 H 0.84222 0.23206 0.25265 0.0
H697 H 0.83359 0.2433 0.20143 0.0
H698 H 0.85068 0.25828 0.25793 0.0
H699 H 0.8759 0.28304 0.18402 0.0
H700 H 0.85884 0.26817 0.12731 0.0
H701 H 0.8846 0.27375 0.12805 0.0
H702 H 0.88261 0.20574 0.14266 0.0
H703 H 0.85662 0.18917 0.06733 0.0
H704 H 0.83537 0.22986 0.10016 0.0
C705 C 0.89342 0.26647 0.26913 0.0
C706 C 0.90913 0.26528 0.29674 0.0
C707 C 0.91356 0.25069 0.27856 0.0
C708 C 0.90256 0.23743 0.23423 0.0
C709 C 0.8871 0.23886 0.20824 0.0
C710 C 0.88249 0.25298 0.22476 0.0
C711 C 0.86491 0.25101 0.18975 0.0
C712 C 0.84678 0.24585 0.22771 0.0
C713 C 0.87146 0.27013 0.15524 0.0
C714 C 0.86041 0.23357 0.15134 0.0
C715 C 0.87344 0.22684 0.16278 0.0
C716 C 0.87231 0.21088 0.13317 0.0
C717 C 0.85747 0.20154 0.09046 0.0
C718 C 0.84392 0.20817 0.07774 0.0
C719 C 0.84547 0.2244 0.10882 0.0
H720 H 0.07766 0.70485 0.33102 0.0
H721 H 0.10325 0.67844 0.44019 0.0
H722 H 0.12191 0.71004 0.49466 0.0
H723 H 0.12228 0.75617 0.33082 0.0
H724 H 0.10688 0.76729 0.33222 0.0
H725 H 0.09741 0.74336 0.29834 0.0
H726 H 0.06573 0.72799 0.3621 0.0
H727 H 0.07516 0.75178 0.39653 0.0
H728 H 0.06894 0.72999 0.4383 0.0
H729 H 0.1355 0.74385 0.54259 0.0
H730 H 0.14339 0.77704 0.57757 0.0
H731 H 0.10852 0.78073 0.43708 0.0
C732 C 0.08755 0.70583 0.36551 0.0
C733 C 0.08906 0.68916 0.38106 0.0
C734 C 0.1019 0.69101 0.42724 0.0
C735 C 0.11257 0.70892 0.4585 0.0
C736 C 0.1103 0.72488 0.44301 0.0
C737 C 0.09821 0.72353 0.39729 0.0
C738 C 0.09733 0.74236 0.39139 0.0
C739 C 0.10653 0.75292 0.33484 0.0
C740 C 0.07549 0.73774 0.39746 0.0
C741 C 0.11048 0.75436 0.44149 0.0
C742 C 0.11796 0.74415 0.47064 0.0
C743 C 0.12989 0.75206 0.51969 0.0
C744 C 0.13426 0.7709 0.53935 0.0
C745 C 0.12664 0.78154 0.5101 0.0
C746 C 0.1147 0.77309 0.4604 0.0
H747 H 0.41049 0.45218 0.37874 0.0
H748 H 0.41657 0.50889 0.3334 0.0
H749 H 0.38627 0.50009 0.39041 0.0
H750 H 0.35586 0.42281 0.37332 0.0
H751 H 0.3543 0.40731 0.43232 0.0
H752 H 0.37611 0.41821 0.38718 0.0
H753 H 0.39946 0.43447 0.4754 0.0
H754 H 0.37771 0.4238 0.52074 0.0
H755 H 0.39537 0.45044 0.5213 0.0
H756 H 0.35571 0.48511 0.45681 0.0
H757 H 0.3265 0.46441 0.51931 0.0
H758 H 0.341 0.4177 0.51808 0.0
C759 C 0.40543 0.46275 0.38043 0.0
C760 C 0.41591 0.48124 0.35172 0.0
C761 C 0.4087 0.49459 0.35487 0.0
C762 C 0.39158 0.48975 0.38737 0.0
C763 C 0.3818 0.47147 0.41599 0.0
C764 C 0.3884 0.45812 0.41216 0.0
C765 C 0.37531 0.4394 0.44629 0.0
C766 C 0.36477 0.42084 0.40745 0.0
C767 C 0.38771 0.43689 0.49374 0.0
C768 C 0.36033 0.44427 0.47038 0.0
C769 C 0.3643 0.46285 0.45285 0.0
C770 C 0.35245 0.4705 0.47053 0.0
C771 C 0.33596 0.4587 0.50625 0.0
C772 C 0.33145 0.43943 0.52351 0.0
C773 C 0.34397 0.43232 0.50553 0.0
H774 H 0.70115 0.02357 0.46615 0.0
H775 H 0.64827 0.9668 0.51234 0.0
H776 H 0.62662 0.97527 0.45467 0.0
H777 H 0.67774 0.05232 0.4743 0.0
H778 H 0.69163 0.06822 0.41553 0.0
H779 H 0.70258 0.057 0.45822 0.0
H780 H 0.70751 0.04124 0.36769 0.0
H781 H 0.69642 0.0523 0.32474 0.0
H782 H 0.68601 0.02566 0.32223 0.0
H783 H 0.61086 0.99078 0.39128 0.0
H784 H 0.60249 0.01259 0.33528 0.0
H785 H 0.66615 0.05887 0.334 0.0
C786 C 0.68503 0.0128 0.46401 0.0
C787 C 0.67641 0.99446 0.49354 0.0
C788 C 0.6552 0.98094 0.49004 0.0
C789 C 0.64282 0.9856 0.45719 0.0
C790 C 0.6519 1.00384 0.42838 0.0
C791 C 0.67254 0.01724 0.43197 0.0
C792 C 0.67867 0.0362 0.39932 0.0
C793 C 0.68821 0.05451 0.43923 0.0
C794 C 0.69299 0.039 0.3506 0.0
C795 C 0.65826 0.03153 0.37685 0.0
C796 C 0.64295 0.01275 0.39341 0.0
C797 C 0.62277 1.00548 0.37806 0.0
C798 C 0.61816 0.01792 0.34603 0.0
C799 C 0.63366 0.03742 0.33031 0.0
C800 C 0.65393 0.04405 0.34534 0.0
H801 H 0.67365 0.10587 0.20387 0.0
H802 H 0.64968 0.13721 0.11025 0.0
H803 H 0.68107 0.15457 0.05421 0.0
H804 H 0.72659 0.14689 0.2077 0.0
H805 H 0.73598 0.13025 0.19876 0.0
H806 H 0.71232 0.12163 0.23415 0.0
H807 H 0.69433 0.09207 0.16294 0.0
H808 H 0.71787 0.10065 0.12707 0.0
H809 H 0.69608 0.09714 0.08775 0.0
H810 H 0.7144 0.16677 1.00376 0.0
H811 H 0.74702 0.17335 0.96555 0.0
H812 H 0.74862 0.13382 0.09278 0.0
C813 C 0.67508 0.11663 0.17227 0.0
C814 C 0.65919 0.12022 0.16166 0.0
C815 C 0.66166 0.13427 0.1194 0.0
C816 C 0.67944 0.14419 0.08728 0.0
C817 C 0.69463 0.13997 0.09807 0.0
C818 C 0.69266 0.12661 0.13987 0.0
C819 C 0.71075 0.12401 0.14165 0.0
C820 C 0.72208 0.13113 0.19897 0.0
C821 C 0.70437 0.10217 0.12909 0.0
C822 C 0.72312 0.13777 0.09382 0.0
C823 C 0.71366 0.14692 0.06924 0.0
C824 C 0.72202 0.1598 0.02304 0.0
C825 C 0.74052 0.16342 1.00153 0.0
C826 C 0.75043 0.15416 0.02619 0.0
C827 C 0.74154 0.14125 0.07307 0.0
H828 H 0.99749 0.73097 0.03545 0.0
H829 H 0.93582 0.68091 0.01634 0.0
H830 H 0.94461 0.65994 0.07481 0.0
H831 H 0.02176 0.70226 0.02672 0.0
H832 H 0.04116 0.71764 0.0781 0.0
H833 H 0.02978 0.72829 0.03465 0.0
H834 H 0.02011 0.74002 0.12536 0.0
H835 H 0.03132 0.72928 0.16911 0.0
H836 H 1.00528 0.72197 0.17914 0.0
H837 H 0.96042 0.64491 0.13906 0.0
H838 H 0.98215 0.63667 0.19694 0.0
H839 H 0.03325 0.69678 0.17072 0.0
C840 C 0.98579 0.71558 0.04333 0.0
C841 C 0.96594 0.70759 0.02145 0.0
C842 C 0.95115 0.68733 0.03254 0.0
C843 C 0.95599 0.67535 0.06588 0.0
C844 C 0.9757 0.68382 0.08738 0.0
C845 C 0.99038 0.70345 0.07599 0.0
C846 C 1.01049 0.70908 0.10329 0.0
C847 C 0.02675 0.71464 0.05798 0.0
C848 C 0.01718 0.72609 0.14681 0.0
C849 C 1.0049 0.68959 0.1322 0.0
C850 C 0.98476 0.67519 0.12295 0.0
C851 C 0.97622 0.65607 0.1463 0.0
C852 C 0.98865 0.65155 0.1793 0.0
C853 C 1.00942 0.66605 0.18828 0.0
C854 C 0.01748 0.68531 0.16453 0.0
H855 H 0.40005 0.38765 0.95376 0.0
H856 H 0.4298 0.35804 0.02471 0.0
H857 H 0.44792 0.38566 0.09423 0.0
H858 H 0.44216 0.43927 0.97244 0.0
H859 H 0.42562 0.44814 0.99129 0.0
H860 H 0.4167 0.42705 0.944 0.0
H861 H 0.38645 0.40577 1.0105 0.0
H862 H 0.39535 0.42671 0.05822 0.0
H863 H 0.39125 0.40318 0.08429 0.0
H864 H 0.46181 0.41632 0.1591 0.0
H865 H 0.46936 0.44653 0.21398 0.0
H866 H 0.42902 0.45455 0.10217 0.0
C867 C 0.4107 0.38715 0.98306 0.0
C868 C 0.41368 0.37079 0.98332 0.0
C869 C 0.42739 0.37051 0.02342 0.0
C870 C 0.43775 0.38613 0.06308 0.0
C871 C 0.43414 0.40186 0.06236 0.0
C872 C 0.42093 0.40245 0.0233 0.0
C873 C 0.41866 0.42029 0.03346 0.0
C874 C 0.42625 0.43453 0.98226 0.0
C875 C 0.39662 0.41358 0.04746 0.0
C876 C 0.43249 0.42957 0.08468 0.0
C877 C 0.4415 0.41892 0.10051 0.0
C878 C 0.45484 0.42477 0.14695 0.0
C879 C 0.45904 0.44192 0.1779 0.0
C880 C 0.4497 0.45283 0.16266 0.0
C881 C 0.43631 0.44648 0.11532 0.0
H882 H 0.99643 0.37637 0.53068 0.0
H883 H 0.93325 0.35905 0.52305 0.0
H884 H 0.94139 0.38883 0.58112 0.0
H885 H 1.00619 0.39353 0.67299 0.0
H886 H 0.03149 0.41402 0.65951 0.0
H887 H 0.02063 0.39182 0.61606 0.0
H888 H 0.02718 0.41322 0.52543 0.0
H889 H 0.03823 0.43551 0.56855 0.0
H890 H 0.01747 0.42976 0.52077 0.0
H891 H 0.95685 0.42016 0.64523 0.0
H892 H 0.97832 0.45093 0.70214 0.0
H893 H 0.03102 0.4471 0.66425 0.0
C894 C 0.98427 0.37885 0.54082 0.0
C895 C 0.96418 0.36536 0.52244 0.0
C896 C 0.94877 0.36925 0.53647 0.0
C897 C 0.95324 0.38607 0.56963 0.0
C898 C 0.97322 0.39889 0.58791 0.0
C899 C 0.98848 0.39552 0.57331 0.0
C900 C 1.00872 0.41137 0.59785 0.0
C901 C 0.01725 0.40212 0.63905 0.0
C902 C 0.02378 0.42316 0.55032 0.0
C903 C 1.00254 0.42419 0.62907 0.0
C904 C 0.98202 0.41679 0.62326 0.0
C905 C 0.97295 0.42611 0.64965 0.0
C906 C 0.98524 0.44352 0.6821 0.0
C907 C 1.00636 0.45147 0.68751 0.0
C908 C 0.01496 0.44152 0.66074 0.0
H909 H 0.66826 0.69853 0.63711 0.0
H910 H 0.66078 0.64101 0.67953 0.0
H911 H 0.69167 0.64998 0.62523 0.0
H912 H 0.68585 0.70189 0.49542 0.0
H913 H 0.70367 0.72846 0.49973 0.0
H914 H 0.68101 0.7173 0.54146 0.0
H915 H 0.70262 0.73214 0.63335 0.0
H916 H 0.72533 0.74346 0.59187 0.0
H917 H 0.72235 0.72702 0.64981 0.0
H918 H 0.72355 0.66562 0.56396 0.0
H919 H 0.75425 0.68709 0.50734 0.0
H920 H 0.74025 0.73415 0.50818 0.0
C921 C 0.67305 0.68775 0.63504 0.0
C922 C 0.66206 0.66903 0.66237 0.0
C923 C 0.66899 0.65546 0.65895 0.0
C924 C 0.68646 0.66041 0.62805 0.0
C925 C 0.69685 0.67899 0.60119 0.0
C926 C 0.69042 0.69248 0.6049 0.0
C927 C 0.70435 0.71164 0.57355 0.0
C928 C 0.69304 0.71501 0.52464 0.0
C929 C 0.71425 0.72962 0.6146 0.0
C930 C 0.71966 0.7069 0.55134 0.0
C931 C 0.7151 0.68798 0.56729 0.0
C932 C 0.72724 0.68046 0.55137 0.0
C933 C 0.7446 0.69272 0.51903 0.0
C934 C 0.74967 0.7123 0.50337 0.0
C935 C 0.73686 0.71928 0.51952 0.0
H936 H 0.40822 0.12725 0.43862 0.0
H937 H 0.42952 0.18229 0.53345 0.0
H938 H 0.44734 0.17224 0.60123 0.0
H939 H 0.39765 0.09631 0.55781 0.0
H940 H 0.40543 0.08046 0.5259 0.0
H941 H 0.39611 0.0929 0.48179 0.0
H942 H 0.42912 0.10917 0.42345 0.0
H943 H 0.4385 0.09667 0.46716 0.0
H944 H 0.45324 0.1235 0.4596 0.0
H945 H 0.4615 0.15517 0.66163 0.0
H946 H 0.47026 0.13237 0.70978 0.0
H947 H 0.4386 0.08825 0.57651 0.0
C948 C 0.41699 0.13741 0.47291 0.0
C949 C 0.41764 0.15566 0.48038 0.0
C950 C 0.42889 0.16828 0.52668 0.0
C951 C 0.43908 0.1627 0.56539 0.0
C952 C 0.43779 0.14441 0.5574 0.0
C953 C 0.42704 0.13197 0.51223 0.0
C954 C 0.42695 0.11257 0.515 0.0
C955 C 0.40525 0.0945 0.52047 0.0
C956 C 0.43759 0.11036 0.46323 0.0
C957 C 0.43917 0.11593 0.56906 0.0
C958 C 0.44546 0.13444 0.59272 0.0
C959 C 0.45672 0.14068 0.6433 0.0
C960 C 0.46161 0.12763 0.67038 0.0
C961 C 0.4551 0.10851 0.64706 0.0
C962 C 0.4438 0.10274 0.5956 0.0
H963 H 0.34144 0.03424 0.99082 0.0
H964 H 0.32683 0.97275 1.00339 0.0
H965 H 0.35697 0.98129 0.94601 0.0
H966 H 0.35852 0.04274 0.84811 0.0
H967 H 0.3785 0.06825 0.86099 0.0
H968 H 0.35602 0.05719 0.90341 0.0
H969 H 0.37789 0.06564 0.99528 0.0
H970 H 0.40045 0.07688 0.95318 0.0
H971 H 0.39552 0.05717 1.00244 0.0
H972 H 0.38868 0.99697 0.88362 0.0
H973 H 0.41984 0.01862 0.82878 0.0
H974 H 0.41302 0.06947 0.86032 0.0
C975 C 0.34456 0.02252 0.98176 0.0
C976 C 0.33174 1.00281 1.00147 0.0
C977 C 0.33648 0.98799 0.98886 0.0
C978 C 0.35351 0.99269 0.95611 0.0
C979 C 0.36569 0.01228 0.9367 0.0
C980 C 0.36146 0.02697 0.94964 0.0
C981 C 0.37688 0.04694 0.9246 0.0
C982 C 0.36688 0.05419 0.88173 0.0
C983 C 0.38837 0.06257 0.97168 0.0
C984 C 0.39048 0.04127 0.89521 0.0
C985 C 0.38381 0.02122 0.90221 0.0
C986 C 0.39404 0.0127 0.87813 0.0
C987 C 0.41167 0.02507 0.84687 0.0
C988 C 0.4189 0.04574 0.84038 0.0
C989 C 0.40798 0.05376 0.86463 0.0
H990 H 0.07176 0.49219 0.96522 0.0
H991 H 0.08929 0.49724 0.78855 0.0
H992 H 0.11202 0.48486 0.81359 0.0
H993 H 0.12195 0.50648 0.02789 0.0
H994 H 0.11069 0.48885 0.08525 0.0
H995 H 0.09758 0.50023 0.05457 0.0
H996 H 0.06627 0.46507 0.03432 0.0
H997 H 0.07927 0.4536 0.06465 0.0
H998 H 0.0692 0.44733 0.9932 0.0
H999 H 0.12901 0.46766 0.85514 0.0
H1000 H 0.1406 0.4486 0.91126 0.0
H1001 H 0.11354 0.45612 0.06207 0.0
C1002 C 0.08069 0.49109 0.93192 0.0
C1003 C 0.07875 0.49573 0.87486 0.0
C1004 C 0.09059 0.49391 0.83257 0.0
C1005 C 0.10355 0.48688 0.84641 0.0
C1006 C 0.10472 0.482 0.90284 0.0
C1007 C 0.09381 0.48425 0.94508 0.0
C1008 C 0.09691 0.47686 1.00183 0.0
C1009 C 0.10741 0.49414 0.04493 0.0
C1010 C 0.07671 0.4597 0.02481 0.0
C1011 C 0.11076 0.46948 0.98457 0.0
C1012 C 0.11512 0.47266 0.92727 0.0
C1013 C 0.12608 0.46551 0.90024 0.0
C1014 C 0.13254 0.45465 0.93238 0.0
C1015 C 0.12823 0.45122 0.99104 0.0
C1016 C 0.11752 0.45905 0.01764 0.0
H1017 H 0.66484 0.70597 0.88115 0.0
H1018 H 0.60676 0.69962 0.84195 0.0
H1019 H 0.61675 0.73018 0.89854 0.0
H1020 H 0.6695 0.72294 0.02411 0.0
H1021 H 0.69642 0.74026 0.0201 0.0
H1022 H 0.68456 0.71805 0.97656 0.0
H1023 H 0.69921 0.73971 0.88609 0.0
H1024 H 0.71126 0.76197 0.92938 0.0
H1025 H 0.69438 0.75957 0.87222 0.0
H1026 H 0.63345 0.7615 0.9626 0.0
H1027 H 0.65598 0.79156 0.02102 0.0
H1028 H 0.70282 0.77674 1.01505 0.0
C1029 C 0.65417 0.71096 0.88427 0.0
C1030 C 0.63497 0.70035 0.85726 0.0
C1031 C 0.62157 0.70754 0.86218 0.0
C1032 C 0.62709 0.72482 0.89444 0.0
C1033 C 0.6461 0.73478 0.92114 0.0
C1034 C 0.65946 0.72815 0.91579 0.0
C1035 C 0.67912 0.74155 0.94745 0.0
C1036 C 0.68259 0.73001 0.99486 0.0
C1037 C 0.69705 0.75128 0.90633 0.0
C1038 C 0.67481 0.75682 0.97171 0.0
C1039 C 0.65567 0.75268 0.95657 0.0
C1040 C 0.64848 0.76486 0.97452 0.0
C1041 C 0.66133 0.78184 1.00791 0.0
C1042 C 0.68117 0.78652 0.02256 0.0
C1043 C 0.68778 0.77365 1.00452 0.0
H1044 H 0.7398 0.03816 0.65958 0.0
H1045 H 0.76488 0.01189 0.77138 0.0
H1046 H 0.78146 0.04277 0.8293 0.0
H1047 H 0.78332 0.08955 0.66574 0.0
H1048 H 0.7676 0.10035 0.66515 0.0
H1049 H 0.75895 0.07671 0.63034 0.0
H1050 H 0.72631 0.06048 0.69027 0.0
H1051 H 0.73492 0.084 0.72559 0.0
H1052 H 0.72837 0.06199 0.76674 0.0
H1053 H 0.79363 0.07587 0.87866 0.0
H1054 H 0.80125 0.10894 0.9134 0.0
H1055 H 0.7681 0.11335 0.76935 0.0
C1056 C 0.74904 0.039 0.69567 0.0
C1057 C 0.75107 0.02258 0.71075 0.0
C1058 C 0.76312 0.02426 0.7588 0.0
C1059 C 0.77261 0.04175 0.79205 0.0
C1060 C 0.76995 0.05748 0.77668 0.0
C1061 C 0.75857 0.05632 0.7294 0.0
C1062 C 0.75747 0.07503 0.72326 0.0
C1063 C 0.76743 0.08606 0.66783 0.0
C1064 C 0.73546 0.07007 0.72669 0.0
C1065 C 0.76978 0.08679 0.77485 0.0
C1066 C 0.77691 0.07646 0.80506 0.0
C1067 C 0.78824 0.08416 0.85509 0.0
C1068 C 0.79245 0.10293 0.87459 0.0
C1069 C 0.78532 0.11379 0.84415 0.0
C1070 C 0.77386 0.10551 0.7936 0.0
H1071 H 0.07447 0.77834 0.68805 0.0
H1072 H 0.08786 0.8392 0.66774 0.0
H1073 H 0.05696 0.83057 0.72148 0.0
H1074 H 0.02002 0.75419 0.67218 0.0
H1075 H 0.0152 0.73515 0.72376 0.0
H1076 H 0.03801 0.74632 0.6827 0.0
H1077 H 0.05939 0.75607 0.77583 0.0
H1078 H 0.03666 0.74515 0.81718 0.0
H1079 H 0.05625 0.77091 0.82851 0.0
H1080 H 0.02518 0.81519 0.78332 0.0
H1081 H 0.99409 0.79383 0.83876 0.0
H1082 H 1.00189 0.74325 0.81437 0.0
C1083 C 0.07086 0.78985 0.69446 0.0
C1084 C 0.08358 0.80945 0.67383 0.0
C1085 C 0.07825 0.82404 0.68292 0.0
C1086 C 0.0608 0.8193 0.71365 0.0
C1087 C 0.04879 0.79987 0.73438 0.0
C1088 C 0.0535 0.78534 0.72437 0.0
C1089 C 0.03821 0.76554 0.75057 0.0
C1090 C 0.02721 0.74935 0.70455 0.0
C1091 C 0.04823 0.75905 0.7957 0.0
C1092 C 0.02417 0.77116 0.77741 0.0
C1093 C 0.03051 0.79103 0.76814 0.0
C1094 C 0.02002 0.79958 0.79037 0.0
C1095 C 1.00246 0.78738 0.82203 0.0
C1096 C 0.99552 0.76687 0.83058 0.0
C1097 C 1.00668 0.75883 0.80819 0.0
H1098 H 0.30567 0.39188 0.79232 0.0
H1099 H 0.27928 0.35212 0.64699 0.0
H1100 H 0.28839 0.32892 0.69102 0.0
H1101 H 0.3477 0.38643 0.81126 0.0
H1102 H 0.34763 0.38739 0.88778 0.0
H1103 H 0.3377 0.39987 0.84649 0.0
H1104 H 0.3036 0.38004 0.89931 0.0
H1105 H 0.31343 0.36743 0.94073 0.0
H1106 H 0.29028 0.35307 0.90019 0.0
H1107 H 0.30292 0.31147 0.74852 0.0
H1108 H 0.32134 0.30131 0.81366 0.0
H1109 H 0.33734 0.35243 0.92173 0.0
C1110 C 0.3016 0.37821 0.76979 0.0
C1111 C 0.29175 0.37382 0.7161 0.0
C1112 C 0.28676 0.35577 0.68821 0.0
C1113 C 0.29186 0.34251 0.71295 0.0
C1114 C 0.30176 0.34745 0.76577 0.0
C1115 C 0.30647 0.36485 0.79391 0.0
C1116 C 0.31783 0.3672 0.84906 0.0
C1117 C 0.33896 0.38635 0.84858 0.0
C1118 C 0.30555 0.36691 0.90035 0.0
C1119 C 0.3192 0.3486 0.84723 0.0
C1120 C 0.30977 0.33732 0.79905 0.0
C1121 C 0.31011 0.32007 0.78668 0.0
C1122 C 0.32062 0.31442 0.82396 0.0
C1123 C 0.33064 0.32596 0.87313 0.0
C1124 C 0.32955 0.34306 0.88516 0.0
H1125 H 0.99831 0.36305 0.30473 0.0
H1126 H 0.99746 0.30983 0.36237 0.0
H1127 H 0.0293 0.32075 0.31057 0.0
H1128 H 0.01748 0.36535 0.16536 0.0
H1129 H 0.03298 0.39228 0.16531 0.0
H1130 H 1.01008 0.37998 0.20601 0.0
H1131 H 0.0304 0.39833 0.29719 0.0
H1132 H 0.05332 0.4108 0.2567 0.0
H1133 H 0.05182 0.39641 0.31847 0.0
H1134 H 0.06141 0.33783 0.25032 0.0
H1135 H 0.09188 0.36059 0.1945 0.0
H1136 H 0.07119 0.40251 0.17968 0.0
C1137 C 1.00475 0.35362 0.30646 0.0
C1138 C 0.99536 0.33553 0.33735 0.0
C1139 C 1.00443 0.32377 0.339 0.0
C1140 C 0.02245 0.3298 0.3095 0.0
C1141 C 0.0312 0.34768 0.27897 0.0
C1142 C 0.02269 0.35947 0.27784 0.0
C1143 C 0.03526 0.37832 0.24368 0.0
C1144 C 0.02323 0.37901 0.19203 0.0
C1145 C 0.04317 0.39707 0.28126 0.0
C1146 C 0.05224 0.37538 0.22559 0.0
C1147 C 0.04963 0.35757 0.2458 0.0
C1148 C 0.06358 0.35181 0.23438 0.0
C1149 C 0.08079 0.36478 0.20243 0.0
C1150 C 0.08394 0.38334 0.1828 0.0
C1151 C 0.06928 0.38846 0.19412 0.0
H1152 H 0.78236 0.78142 0.37561 0.0
H1153 H 0.83442 0.80573 0.26515 0.0
H1154 H 0.82132 0.82388 0.21099 0.0
H1155 H 0.74676 0.77212 0.2692 0.0
H1156 H 0.73167 0.77865 0.31123 0.0
H1157 H 0.74627 0.76952 0.34543 0.0
H1158 H 0.76437 0.80132 0.40866 0.0
H1159 H 0.74967 0.81049 0.37501 0.0
H1160 H 0.77693 0.82566 0.37579 0.0
H1161 H 0.80086 0.83703 0.16355 0.0
H1162 H 0.77519 0.84463 0.12881 0.0
H1163 H 0.73664 0.81135 0.27015 0.0
C1164 C 0.79129 0.79094 0.34092 0.0
C1165 C 0.80951 0.79224 0.3249 0.0
C1166 C 0.82048 0.80457 0.27845 0.0
C1167 C 0.81315 0.81494 0.24738 0.0
C1168 C 0.79485 0.81288 0.26333 0.0
C1169 C 0.78415 0.8013 0.30931 0.0
C1170 C 0.76428 0.80053 0.31561 0.0
C1171 C 0.74619 0.77892 0.31001 0.0
C1172 C 0.76379 0.81007 0.37212 0.0
C1173 C 0.76529 0.81317 0.26541 0.0
C1174 C 0.78308 0.8203 0.23592 0.0
C1175 C 0.78697 0.8317 0.1867 0.0
C1176 C 0.77229 0.8359 0.16719 0.0
C1177 C 0.75391 0.82864 0.19675 0.0
C1178 C 0.75055 0.81724 0.24665 0.0
H1179 H 0.31472 0.02599 0.27122 0.0
H1180 H 0.28 0.03712 0.14593 0.0
H1181 H 0.28816 0.06803 0.19737 0.0
H1182 H 0.30087 0.04435 0.39422 0.0
H1183 H 0.32563 0.05526 0.42678 0.0
H1184 H 0.31619 0.03354 0.3817 0.0
H1185 H 0.34799 0.05244 0.31875 0.0
H1186 H 0.35756 0.07413 0.36382 0.0
H1187 H 0.35446 0.07625 0.28855 0.0
H1188 H 0.30188 0.09881 0.25978 0.0
H1189 H 0.32054 0.12717 0.32646 0.0
H1190 H 0.3456 0.09532 0.41177 0.0
C1191 C 0.30869 0.03483 0.25466 0.0
C1192 C 0.2967 0.0291 0.20445 0.0
C1193 C 0.2892 0.04117 0.1843 0.0
C1194 C 0.29371 0.05873 0.21334 0.0
C1195 C 0.30561 0.06393 0.26267 0.0
C1196 C 0.31298 0.0523 0.28318 0.0
C1197 C 0.32604 0.06152 0.33588 0.0
C1198 C 0.31661 0.04785 0.38771 0.0
C1199 C 0.34779 0.06638 0.32613 0.0
C1200 C 0.32522 0.08038 0.3413 0.0
C1201 C 0.31327 0.08146 0.29891 0.0
C1202 C 0.3111 0.09802 0.29349 0.0
C1203 C 0.32175 0.11405 0.33162 0.0
C1204 C 0.33441 0.11343 0.37469 0.0
C1205 C 0.33578 0.09615 0.38004 0.0
loop_
_geom_bond_atom_site_label_1
_geom_bond_atom_site_label_2
_geom_bond_distance
_geom_bond_site_symmetry_2
_ccdc_geom_bond_type
Mg0 O7 2.141 . S
Mg0 O8 2.048 . S
Mg0 O9 2.048 . S
Mg0 O12 2.141 . S
C1 O2 1.313 . S
C1 O8 1.195 . S
O2 C1 1.313 . S
C3 O4 1.245 1_455 S
C3 O12 1.289 . S
O4 C3 1.245 1_655 S
C5 O6 1.245 1_455 S
C5 O7 1.289 . S
O6 C5 1.245 1_655 S
O7 Mg0 2.141 . S
O7 C5 1.289 . S
O8 Mg0 2.048 . S
O8 C1 1.195 . S
O9 Mg0 2.048 . S
O9 C10 1.195 . S
C10 O9 1.195 . S
C10 O11 1.313 . S
O11 C10 1.313 . S
O12 Mg0 2.141 . S
O12 C3 1.289 . S
Mg13 O20 2.141 . S
Mg13 O21 2.048 . S
Mg13 O22 2.048 . S
Mg13 O25 2.141 . S
C14 O15 1.313 . S
C14 O21 1.195 . S
O15 C14 1.313 . S
C16 O17 1.245 . S
C16 O25 1.289 . S
O17 C16 1.245 . S
C18 O19 1.245 . S
C18 O20 1.289 . S
O19 C18 1.245 . S
O20 Mg13 2.141 . S
O20 C18 1.289 . S
O21 Mg13 2.048 . S
O21 C14 1.195 . S
O22 Mg13 2.048 . S
O22 C23 1.195 . S
C23 O22 1.195 . S
C23 O24 1.313 . S
O24 C23 1.313 . S
O25 Mg13 2.141 . S
O25 C16 1.289 . S
Mg26 O33 2.141 . S
Mg26 O34 2.048 . S
Mg26 O35 2.048 . S
Mg26 O38 2.141 . S
C27 O28 1.313 . S
C27 O34 1.195 . S
O28 C27 1.313 . S
C29 O30 1.245 . S
C29 O38 1.289 . S
O30 C29 1.245 . S
C31 O32 1.245 . S
C31 O33 1.289 . S
O32 C31 1.245 . S
O33 Mg26 2.141 . S
O33 C31 1.289 . S
O34 Mg26 2.048 . S
O34 C27 1.195 . S
O35 Mg26 2.048 . S
O35 C36 1.195 . S
C36 O35 1.195 . S
C36 O37 1.313 . S
O37 C36 1.313 . S
O38 Mg26 2.141 . S
O38 C29 1.289 . S
Mg39 O46 2.141 . S
Mg39 O47 2.048 . S
Mg39 O48 2.048 . S
Mg39 O51 2.141 . S
C40 O41 1.313 . S
C40 O47 1.195 . S
O41 C40 1.313 . S
C42 O43 1.245 . S
C42 O51 1.289 . S
O43 C42 1.245 . S
C44 O45 1.245 . S
C44 O46 1.289 . S
O45 C44 1.245 . S
O46 Mg39 2.141 . S
O46 C44 1.289 . S
O47 Mg39 2.048 . S
O47 C40 1.195 . S
O48 Mg39 2.048 . S
O48 C49 1.195 . S
C49 O48 1.195 . S
C49 O50 1.313 . S
O50 C49 1.313 . S
O51 Mg39 2.141 . S
O51 C42 1.289 . S
Mg52 O59 2.141 . S
Mg52 O60 2.048 . S
Mg52 O61 2.048 . S
Mg52 O64 2.141 . S
C53 O54 1.313 . S
C53 O60 1.195 . S
O54 C53 1.313 . S
C55 O56 1.245 . S
C55 O64 1.289 . S
O56 C55 1.245 . S
C57 O58 1.245 . S
C57 O59 1.289 . S
O58 C57 1.245 . S
O59 Mg52 2.141 . S
O59 C57 1.289 . S
O60 Mg52 2.048 . S
O60 C53 1.195 . S
O61 Mg52 2.048 . S
O61 C62 1.195 . S
C62 O61 1.195 . S
C62 O63 1.313 . S
O63 C62 1.313 . S
O64 Mg52 2.141 . S
O64 C55 1.289 . S
Mg65 O72 2.141 . S
Mg65 O73 2.048 . S
Mg65 O74 2.048 . S
Mg65 O77 2.141 . S
C66 O67 1.313 . S
C66 O73 1.195 . S
O67 C66 1.313 . S
C68 O69 1.245 . S
C68 O77 1.289 . S
O69 C68 1.245 . S
C70 O71 1.245 . S
C70 O72 1.289 . S
O71 C70 1.245 . S
O72 Mg65 2.141 . S
O72 C70 1.289 . S
O73 Mg65 2.048 . S
O73 C66 1.195 . S
O74 Mg65 2.048 . S
O74 C75 1.195 . S
C75 O74 1.195 . S
C75 O76 1.313 . S
O76 C75 1.313 . S
O77 Mg65 2.141 . S
O77 C68 1.289 . S
Mg78 O85 2.141 . S
Mg78 O86 2.048 . S
Mg78 O87 2.048 . S
Mg78 O90 2.141 . S
C79 O80 1.313 . S
C79 O86 1.195 . S
O80 C79 1.313 . S
C81 O82 1.245 . S
C81 O90 1.289 . S
O82 C81 1.245 . S
C83 O84 1.245 . S
C83 O85 1.289 . S
O84 C83 1.245 . S
O85 Mg78 2.141 . S
O85 C83 1.289 . S
O86 Mg78 2.048 . S
O86 C79 1.195 . S
O87 Mg78 2.048 . S
O87 C88 1.195 . S
C88 O87 1.195 . S
C88 O89 1.313 . S
O89 C88 1.313 . S
O90 Mg78 2.141 . S
O90 C81 1.289 . S
Mg91 O98 2.141 . S
Mg91 O99 2.048 . S
Mg91 O100 2.048 . S
Mg91 O103 2.141 . S
C92 O93 1.313 . S
C92 O99 1.195 . S
O93 C92 1.313 . S
C94 O95 1.245 . S
C94 O103 1.289 . S
O95 C94 1.245 . S
C96 O97 1.245 . S
C96 O98 1.289 . S
O97 C96 1.245 . S
O98 Mg91 2.141 . S
O98 C96 1.289 . S
O99 Mg91 2.048 . S
O99 C92 1.195 . S
O100 Mg91 2.048 . S
O100 C101 1.195 . S
C101 O100 1.195 . S
C101 O102 1.313 . S
O102 C101 1.313 . S
O103 Mg91 2.141 . S
O103 C94 1.289 . S
Mg104 O111 2.141 . S
Mg104 O112 2.048 . S
Mg104 O113 2.048 . S
Mg104 O116 2.141 . S
C105 O106 1.313 . S
C105 O112 1.195 . S
O106 C105 1.313 . S
C107 O108 1.245 . S
C107 O116 1.289 . S
O108 C107 1.245 . S
C109 O110 1.245 . S
C109 O111 1.289 . S
O110 C109 1.245 . S
O111 Mg104 2.141 . S
O111 C109 1.289 . S
O112 Mg104 2.048 . S
O112 C105 1.195 . S
O113 Mg104 2.048 . S
O113 C114 1.195 . S
C114 O113 1.195 . S
C114 O115 1.313 . S
O115 C114 1.313 . S
O116 Mg104 2.141 . S
O116 C107 1.289 . S
Mg117 O124 2.141 . S
Mg117 O125 2.048 . S
Mg117 O126 2.048 . S
Mg117 O129 2.141 . S
C118 O119 1.313 . S
C118 O125 1.195 . S
O119 C118 1.313 . S
C120 O121 1.246 . S
C120 O129 1.281 1_556 S
O121 C120 1.246 . S
C122 O123 1.245 . S
C122 O124 1.289 1_556 S
O123 C122 1.245 . S
O124 Mg117 2.141 . S
O124 C122 1.289 1_554 S
O125 Mg117 2.048 . S
O125 C118 1.195 . S
O126 Mg117 2.048 . S
O126 C127 1.195 . S
C127 O126 1.195 . S
C127 O128 1.313 . S
O128 C127 1.313 . S
O129 Mg117 2.141 . S
O129 C120 1.281 1_554 S
Mg130 O137 2.141 . S
Mg130 O138 2.048 . S
Mg130 O139 2.048 . S
Mg130 O142 2.141 . S
C131 O132 1.313 . S
C131 O138 1.195 . S
O132 C131 1.313 . S
C133 O134 1.245 1_565 S
C133 O142 1.289 1_556 S
O134 C133 1.245 1_545 S
C135 O136 1.245 . S
C135 O137 1.289 1_556 S
O136 C135 1.245 . S
O137 Mg130 2.141 . S
O137 C135 1.289 1_554 S
O138 Mg130 2.048 . S
O138 C131 1.195 . S
O139 Mg130 2.048 . S
O139 C140 1.195 1_565 S
C140 O139 1.195 1_545 S
C140 O141 1.313 . S
O141 C140 1.313 . S
O142 Mg130 2.141 . S
O142 C133 1.289 1_554 S
Mg143 O150 2.141 . S
Mg143 O151 2.048 . S
Mg143 O152 2.048 . S
Mg143 O155 2.141 . S
C144 O145 1.313 . S
C144 O151 1.195 . S
O145 C144 1.313 . S
C146 O147 1.245 . S
C146 O155 1.289 1_556 S
O147 C146 1.245 . S
C148 O149 1.245 . S
C148 O150 1.289 1_556 S
O149 C148 1.245 . S
O150 Mg143 2.141 . S
O150 C148 1.289 1_554 S
O151 Mg143 2.048 . S
O151 C144 1.195 . S
O152 Mg143 2.048 . S
O152 C153 1.195 . S
C153 O152 1.195 . S
C153 O154 1.313 . S
O154 C153 1.313 . S
O155 Mg143 2.141 . S
O155 C146 1.289 1_554 S
Mg156 O163 2.141 . S
Mg156 O164 2.048 . S
Mg156 O165 2.048 . S
Mg156 O168 2.141 . S
C157 O158 1.313 . S
C157 O164 1.195 1_554 S
O158 C157 1.313 . S
C159 O160 1.245 . S
C159 O168 1.289 . S
O160 C159 1.245 . S
C161 O162 1.245 . S
C161 O163 1.289 . S
O162 C161 1.245 . S
O163 Mg156 2.141 . S
O163 C161 1.289 . S
O164 Mg156 2.048 . S
O164 C157 1.195 1_556 S
O165 Mg156 2.048 . S
O165 C166 1.195 1_556 S
C166 O165 1.195 1_554 S
C166 O167 1.313 . S
O167 C166 1.313 . S
O168 Mg156 2.141 . S
O168 C159 1.289 . S
Mg169 O176 2.141 . S
Mg169 O177 2.048 . S
Mg169 O178 2.048 . S
Mg169 O181 2.141 . S
C170 O171 1.313 . S
C170 O177 1.195 . S
O171 C170 1.313 . S
C172 O173 1.245 . S
C172 O181 1.289 . S
O173 C172 1.245 . S
C174 O175 1.245 . S
C174 O176 1.289 . S
O175 C174 1.245 . S
O176 Mg169 2.141 . S
O176 C174 1.289 . S
O177 Mg169 2.048 . S
O177 C170 1.195 . S
O178 Mg169 2.048 . S
O178 C179 1.195 . S
C179 O178 1.195 . S
C179 O180 1.313 . S
O180 C179 1.313 . S
O181 Mg169 2.141 . S
O181 C172 1.289 . S
Mg182 O189 2.141 . S
Mg182 O190 2.048 . S
Mg182 O191 2.048 . S
Mg182 O194 2.141 . S
C183 O184 1.313 . S
C183 O190 1.195 . S
O184 C183 1.313 . S
C185 O186 1.245 . S
C185 O194 1.289 . S
O186 C185 1.245 . S
C187 O188 1.245 . S
C187 O189 1.289 . S
O188 C187 1.245 . S
O189 Mg182 2.141 . S
O189 C187 1.289 . S
O190 Mg182 2.048 . S
O190 C183 1.195 . S
O191 Mg182 2.048 . S
O191 C192 1.195 . S
C192 O191 1.195 . S
C192 O193 1.313 . S
O193 C192 1.313 . S
O194 Mg182 2.141 . S
O194 C185 1.289 . S
Mg195 O202 2.141 . S
Mg195 O203 2.048 . S
Mg195 O204 2.048 . S
Mg195 O207 2.141 . S
C196 O197 1.313 . S
C196 O203 1.195 . S
O197 C196 1.313 . S
C198 O199 1.245 . S
C198 O207 1.289 . S
O199 C198 1.245 . S
C200 O201 1.245 . S
C200 O202 1.289 . S
O201 C200 1.245 . S
O202 Mg195 2.141 . S
O202 C200 1.289 . S
O203 Mg195 2.048 . S
O203 C196 1.195 . S
O204 Mg195 2.048 . S
O204 C205 1.195 . S
C205 O204 1.195 . S
C205 O206 1.313 . S
O206 C205 1.313 . S
O207 Mg195 2.141 . S
O207 C198 1.289 . S
Mg208 O215 2.141 . S
Mg208 O216 2.048 . S
Mg208 O217 2.048 . S
Mg208 O220 2.141 . S
C209 O210 1.313 . S
C209 O216 1.195 . S
O210 C209 1.313 . S
C211 O212 1.245 . S
C211 O220 1.289 . S
O212 C211 1.245 . S
C213 O214 1.245 . S
C213 O215 1.289 . S
O214 C213 1.245 . S
O215 Mg208 2.141 . S
O215 C213 1.289 . S
O216 Mg208 2.048 . S
O216 C209 1.195 . S
O217 Mg208 2.048 . S
O217 C218 1.195 . S
C218 O217 1.195 . S
C218 O219 1.313 . S
O219 C218 1.313 . S
O220 Mg208 2.141 . S
O220 C211 1.289 . S
Mg221 O228 2.141 . S
Mg221 O229 2.048 . S
Mg221 O230 2.048 . S
Mg221 O233 2.141 . S
C222 O223 1.313 . S
C222 O229 1.195 . S
O223 C222 1.313 . S
C224 O225 1.245 . S
C224 O233 1.289 . S
O225 C224 1.245 . S
C226 O227 1.245 . S
C226 O228 1.289 . S
O227 C226 1.245 . S
O228 Mg221 2.141 . S
O228 C226 1.289 . S
O229 Mg221 2.048 . S
O229 C222 1.195 . S
O230 Mg221 2.048 . S
O230 C231 1.195 . S
C231 O230 1.195 . S
C231 O232 1.313 . S
O232 C231 1.313 . S
O233 Mg221 2.141 . S
O233 C224 1.289 . S
H234 C246 0.930 . S
H235 C248 0.930 . S
H236 C249 0.938 . S
H237 C253 0.973 . S
H238 C253 0.968 . S
H239 C253 0.946 1_556 S
H240 C254 0.960 . S
H241 C254 0.961 . S
H242 C254 0.959 . S
H243 C257 0.929 1_655 S
H244 C258 0.931 1_655 S
H245 C260 0.930 . S
C246 H234 0.930 . S
C246 C247 1.399 . S
C246 C251 1.399 . S
C247 C246 1.399 . S
C247 C248 1.376 . S
C248 H235 0.930 . S
C248 C247 1.376 . S
C248 C249 1.388 . S
C249 H236 0.938 . S
C249 C248 1.388 . S
C249 C250 1.390 . S
C250 C249 1.390 . S
C250 C251 1.394 . S
C250 C256 1.465 1_556 S
C251 C246 1.399 . S
C251 C250 1.394 . S
C251 C252 1.516 . S
C252 C251 1.516 . S
C252 C253 1.496 1_556 S
C252 C254 1.561 . S
C252 C255 1.526 1_556 S
C253 H237 0.973 . S
C253 H238 0.968 . S
C253 H239 0.946 1_554 S
C253 C252 1.496 1_554 S
C254 H240 0.960 . S
C254 H241 0.961 . S
C254 H242 0.959 . S
C254 C252 1.561 . S
C255 C252 1.526 1_554 S
C255 C256 1.396 . S
C255 C260 1.390 . S
C256 C250 1.465 1_554 S
C256 C255 1.396 . S
C256 C257 1.399 . S
C257 H243 0.929 1_455 S
C257 C256 1.399 . S
C257 C258 1.385 . S
C258 H244 0.931 1_455 S
C258 C257 1.385 . S
C258 C259 1.389 . S
C259 C258 1.389 . S
C259 C260 1.387 . S
C260 H245 0.930 . S
C260 C255 1.390 . S
C260 C259 1.387 . S
H261 C273 0.930 . S
H262 C275 0.930 . S
H263 C276 0.930 1_554 S
H264 C280 0.959 . S
H265 C280 0.959 . S
H266 C280 0.961 . S
H267 C281 0.960 . S
H268 C281 0.961 . S
H269 C281 0.959 . S
H270 C284 0.929 . S
H271 C285 0.931 . S
H272 C287 0.930 . S
C273 H261 0.930 . S
C273 C274 1.399 . S
C273 C278 1.399 . S
C274 C273 1.399 . S
C274 C275 1.376 . S
C275 H262 0.930 . S
C275 C274 1.376 . S
C275 C276 1.388 . S
C276 H263 0.930 1_556 S
C276 C275 1.388 . S
C276 C277 1.390 . S
C277 C276 1.390 . S
C277 C278 1.394 . S
C277 C283 1.465 1_556 S
C278 C273 1.399 . S
C278 C277 1.394 . S
C278 C279 1.516 . S
C279 C278 1.516 . S
C279 C280 1.502 . S
C279 C281 1.561 . S
C279 C282 1.526 1_556 S
C280 H264 0.959 . S
C280 H265 0.959 . S
C280 H266 0.961 . S
C280 C279 1.502 . S
C281 H267 0.960 . S
C281 H268 0.961 . S
C281 H269 0.959 . S
C281 C279 1.561 . S
C282 C279 1.526 1_554 S
C282 C283 1.396 . S
C282 C287 1.390 . S
C283 C277 1.465 1_554 S
C283 C282 1.396 . S
C283 C284 1.399 . S
C284 H270 0.929 . S
C284 C283 1.399 . S
C284 C285 1.385 . S
C285 H271 0.931 . S
C285 C284 1.385 . S
C285 C286 1.389 . S
C286 C285 1.389 . S
C286 C287 1.387 . S
C287 H272 0.930 . S
C287 C282 1.390 . S
C287 C286 1.387 . S
H288 C300 0.930 . S
H289 C302 0.930 . S
H290 C303 0.930 . S
H291 C307 0.959 . S
H292 C307 0.959 . S
H293 C307 0.961 1_554 S
H294 C308 0.960 . S
H295 C308 0.961 . S
H296 C308 0.959 . S
H297 C311 0.929 . S
H298 C312 0.931 . S
H299 C314 0.930 . S
C300 H288 0.930 . S
C300 C301 1.399 . S
C300 C305 1.399 . S
C301 C300 1.399 . S
C301 C302 1.376 . S
C302 H289 0.930 . S
C302 C301 1.376 . S
C302 C303 1.388 . S
C303 H290 0.930 . S
C303 C302 1.388 . S
C303 C304 1.390 . S
C304 C303 1.390 . S
C304 C305 1.394 . S
C304 C310 1.465 1_554 S
C305 C300 1.399 . S
C305 C304 1.394 . S
C305 C306 1.516 . S
C306 C305 1.516 . S
C306 C307 1.502 1_554 S
C306 C308 1.561 . S
C306 C309 1.526 1_554 S
C307 H291 0.959 . S
C307 H292 0.959 . S
C307 H293 0.961 1_556 S
C307 C306 1.502 1_556 S
C308 H294 0.960 . S
C308 H295 0.961 . S
C308 H296 0.959 . S
C308 C306 1.561 . S
C309 C306 1.526 1_556 S
C309 C310 1.396 . S
C309 C314 1.390 . S
C310 C304 1.465 1_556 S
C310 C309 1.396 . S
C310 C311 1.399 . S
C311 H297 0.929 . S
C311 C310 1.399 . S
C311 C312 1.385 . S
C312 H298 0.931 . S
C312 C311 1.385 . S
C312 C313 1.389 . S
C313 C312 1.389 . S
C313 C314 1.387 . S
C314 H299 0.930 . S
C314 C309 1.390 . S
C314 C313 1.387 . S
H315 C327 0.930 . S
H316 C329 0.930 . S
H317 C330 0.930 . S
H318 C334 0.959 . S
H319 C334 0.959 . S
H320 C334 0.961 . S
H321 C335 0.960 . S
H322 C335 0.961 . S
H323 C335 0.959 . S
H324 C338 0.929 . S
H325 C339 0.931 . S
H326 C341 0.930 . S
C327 H315 0.930 . S
C327 C328 1.399 . S
C327 C332 1.399 . S
C328 C327 1.399 . S
C328 C329 1.376 . S
C329 H316 0.930 . S
C329 C328 1.376 . S
C329 C330 1.388 . S
C330 H317 0.930 . S
C330 C329 1.388 . S
C330 C331 1.390 . S
C331 C330 1.390 . S
C331 C332 1.394 . S
C331 C337 1.465 . S
C332 C327 1.399 . S
C332 C331 1.394 . S
C332 C333 1.516 . S
C333 C332 1.516 . S
C333 C334 1.502 . S
C333 C335 1.561 . S
C333 C336 1.526 . S
C334 H318 0.959 . S
C334 H319 0.959 . S
C334 H320 0.961 . S
C334 C333 1.502 . S
C335 H321 0.960 . S
C335 H322 0.961 . S
C335 H323 0.959 . S
C335 C333 1.561 . S
C336 C333 1.526 . S
C336 C337 1.396 . S
C336 C341 1.390 . S
C337 C331 1.465 . S
C337 C336 1.396 . S
C337 C338 1.399 . S
C338 H324 0.929 . S
C338 C337 1.399 . S
C338 C339 1.385 . S
C339 H325 0.931 . S
C339 C338 1.385 . S
C339 C340 1.389 . S
C340 C339 1.389 . S
C340 C341 1.387 . S
C341 H326 0.930 . S
C341 C336 1.390 . S
C341 C340 1.387 . S
H342 C354 0.930 . S
H343 C356 0.930 . S
H344 C357 0.930 . S
H345 C361 0.959 . S
H346 C361 0.959 . S
H347 C361 0.961 . S
H348 C362 0.960 . S
H349 C362 0.961 . S
H350 C362 0.959 . S
H351 C365 0.929 . S
H352 C366 0.931 . S
H353 C368 0.930 . S
C354 H342 0.930 . S
C354 C355 1.399 . S
C354 C359 1.399 . S
C355 C354 1.399 . S
C355 C356 1.376 . S
C356 H343 0.930 . S
C356 C355 1.376 . S
C356 C357 1.388 . S
C357 H344 0.930 . S
C357 C356 1.388 . S
C357 C358 1.390 . S
C358 C357 1.390 . S
C358 C359 1.394 . S
C358 C364 1.465 . S
C359 C354 1.399 . S
C359 C358 1.394 . S
C359 C360 1.516 . S
C360 C359 1.516 . S
C360 C361 1.502 . S
C360 C362 1.561 . S
C360 C363 1.526 . S
C361 H345 0.959 . S
C361 H346 0.959 . S
C361 H347 0.961 . S
C361 C360 1.502 . S
C362 H348 0.960 . S
C362 H349 0.961 . S
C362 H350 0.959 . S
C362 C360 1.561 . S
C363 C360 1.526 . S
C363 C364 1.396 . S
C363 C368 1.390 . S
C364 C358 1.465 . S
C364 C363 1.396 . S
C364 C365 1.399 . S
C365 H351 0.929 . S
C365 C364 1.399 . S
C365 C366 1.385 . S
C366 H352 0.931 . S
C366 C365 1.385 . S
C366 C367 1.389 . S
C367 C366 1.389 . S
C367 C368 1.387 . S
C368 H353 0.930 . S
C368 C363 1.390 . S
C368 C367 1.387 . S
H369 C381 0.930 . S
H370 C383 0.930 . S
H371 C384 0.930 . S
H372 C388 0.959 . S
H373 C388 0.959 . S
H374 C388 0.961 . S
H375 C389 0.960 . S
H376 C389 0.961 . S
H377 C389 0.959 . S
H378 C392 0.929 . S
H379 C393 0.931 . S
H380 C395 0.930 . S
C381 H369 0.930 . S
C381 C382 1.399 . S
C381 C386 1.399 . S
C382 C381 1.399 . S
C382 C383 1.376 . S
C383 H370 0.930 . S
C383 C382 1.376 . S
C383 C384 1.388 . S
C384 H371 0.930 . S
C384 C383 1.388 . S
C384 C385 1.390 . S
C385 C384 1.390 . S
C385 C386 1.394 . S
C385 C391 1.465 . S
C386 C381 1.399 . S
C386 C385 1.394 . S
C386 C387 1.516 . S
C387 C386 1.516 . S
C387 C388 1.502 . S
C387 C389 1.561 . S
C387 C390 1.526 . S
C388 H372 0.959 . S
C388 H373 0.959 . S
C388 H374 0.961 . S
C388 C387 1.502 . S
C389 H375 0.960 . S
C389 H376 0.961 . S
C389 H377 0.959 . S
C389 C387 1.561 . S
C390 C387 1.526 . S
C390 C391 1.396 . S
C390 C395 1.390 . S
C391 C385 1.465 . S
C391 C390 1.396 . S
C391 C392 1.399 . S
C392 H378 0.929 . S
C392 C391 1.399 . S
C392 C393 1.385 . S
C393 H379 0.931 . S
C393 C392 1.385 . S
C393 C394 1.389 . S
C394 C393 1.389 . S
C394 C395 1.387 . S
C395 H380 0.930 . S
C395 C390 1.390 . S
C395 C394 1.387 . S
H396 C408 0.930 . S
H397 C410 0.930 . S
H398 C411 0.930 . S
H399 C415 0.959 . S
H400 C415 0.959 . S
H401 C415 0.961 . S
H402 C416 0.960 . S
H403 C416 0.961 . S
H404 C416 0.959 . S
H405 C419 0.929 . S
H406 C420 0.931 . S
H407 C422 0.930 . S
C408 H396 0.930 . S
C408 C409 1.399 . S
C408 C413 1.399 . S
C409 C408 1.399 . S
C409 C410 1.376 . S
C410 H397 0.930 . S
C410 C409 1.376 . S
C410 C411 1.388 . S
C411 H398 0.930 . S
C411 C410 1.388 . S
C411 C412 1.390 . S
C412 C411 1.390 . S
C412 C413 1.394 . S
C412 C418 1.465 . S
C413 C408 1.399 . S
C413 C412 1.394 . S
C413 C414 1.516 . S
C414 C413 1.516 . S
C414 C415 1.502 . S
C414 C416 1.561 . S
C414 C417 1.526 . S
C415 H399 0.959 . S
C415 H400 0.959 . S
C415 H401 0.961 . S
C415 C414 1.502 . S
C416 H402 0.960 . S
C416 H403 0.961 . S
C416 H404 0.959 . S
C416 C414 1.561 . S
C417 C414 1.526 . S
C417 C418 1.396 . S
C417 C422 1.390 . S
C418 C412 1.465 . S
C418 C417 1.396 . S
C418 C419 1.399 . S
C419 H405 0.929 . S
C419 C418 1.399 . S
C419 C420 1.385 . S
C420 H406 0.931 . S
C420 C419 1.385 . S
C420 C421 1.389 . S
C421 C420 1.389 . S
C421 C422 1.387 . S
C422 H407 0.930 . S
C422 C417 1.390 . S
C422 C421 1.387 . S
H423 C435 0.930 . S
H424 C437 0.930 . S
H425 C438 0.930 . S
H426 C442 0.959 . S
H427 C442 0.959 . S
H428 C442 0.961 . S
H429 C443 0.960 . S
H430 C443 0.961 . S
H431 C443 0.959 . S
H432 C446 0.929 . S
H433 C447 0.931 . S
H434 C449 0.930 . S
C435 H423 0.930 . S
C435 C436 1.399 . S
C435 C440 1.399 . S
C436 C435 1.399 . S
C436 C437 1.376 . S
C437 H424 0.930 . S
C437 C436 1.376 . S
C437 C438 1.388 . S
C438 H425 0.930 . S
C438 C437 1.388 . S
C438 C439 1.390 . S
C439 C438 1.390 . S
C439 C440 1.394 . S
C439 C445 1.465 . S
C440 C435 1.399 . S
C440 C439 1.394 . S
C440 C441 1.516 . S
C441 C440 1.516 . S
C441 C442 1.502 . S
C441 C443 1.561 . S
C441 C444 1.526 . S
C442 H426 0.959 . S
C442 H427 0.959 . S
C442 H428 0.961 . S
C442 C441 1.502 . S
C443 H429 0.960 . S
C443 H430 0.961 . S
C443 H431 0.959 . S
C443 C441 1.561 . S
C444 C441 1.526 . S
C444 C445 1.396 . S
C444 C449 1.390 . S
C445 C439 1.465 . S
C445 C444 1.396 . S
C445 C446 1.399 . S
C446 H432 0.929 . S
C446 C445 1.399 . S
C446 C447 1.385 . S
C447 H433 0.931 . S
C447 C446 1.385 . S
C447 C448 1.389 . S
C448 C447 1.389 . S
C448 C449 1.387 . S
C449 H434 0.930 . S
C449 C444 1.390 . S
C449 C448 1.387 . S
H450 C462 0.930 . S
H451 C464 0.930 . S
H452 C465 0.930 . S
H453 C469 0.959 . S
H454 C469 0.959 . S
H455 C469 0.961 . S
H456 C470 0.960 . S
H457 C470 0.961 . S
H458 C470 0.959 . S
H459 C473 0.929 . S
H460 C474 0.931 . S
H461 C476 0.930 . S
C462 H450 0.930 . S
C462 C463 1.399 . S
C462 C467 1.399 . S
C463 C462 1.399 . S
C463 C464 1.376 . S
C464 H451 0.930 . S
C464 C463 1.376 . S
C464 C465 1.388 . S
C465 H452 0.930 . S
C465 C464 1.388 . S
C465 C466 1.390 . S
C466 C465 1.390 . S
C466 C467 1.394 . S
C466 C472 1.465 . S
C467 C462 1.399 . S
C467 C466 1.394 . S
C467 C468 1.516 . S
C468 C467 1.516 . S
C468 C469 1.502 . S
C468 C470 1.561 . S
C468 C471 1.526 . S
C469 H453 0.959 . S
C469 H454 0.959 . S
C469 H455 0.961 . S
C469 C468 1.502 . S
C470 H456 0.960 . S
C470 H457 0.961 . S
C470 H458 0.959 . S
C470 C468 1.561 . S
C471 C468 1.526 . S
C471 C472 1.396 . S
C471 C476 1.390 . S
C472 C466 1.465 . S
C472 C471 1.396 . S
C472 C473 1.399 . S
C473 H459 0.929 . S
C473 C472 1.399 . S
C473 C474 1.385 . S
C474 H460 0.931 . S
C474 C473 1.385 . S
C474 C475 1.389 . S
C475 C474 1.389 . S
C475 C476 1.387 . S
C476 H461 0.930 . S
C476 C471 1.390 . S
C476 C475 1.387 . S
H477 C489 0.930 . S
H478 C491 0.930 . S
H479 C492 0.930 . S
H480 C496 0.959 . S
H481 C496 0.959 . S
H482 C496 0.961 . S
H483 C497 0.960 . S
H484 C497 0.961 . S
H485 C497 0.959 . S
H486 C500 0.929 . S
H487 C501 0.931 . S
H488 C503 0.930 . S
C489 H477 0.930 . S
C489 C490 1.399 . S
C489 C494 1.399 . S
C490 C489 1.399 . S
C490 C491 1.376 . S
C491 H478 0.930 . S
C491 C490 1.376 . S
C491 C492 1.388 . S
C492 H479 0.930 . S
C492 C491 1.388 . S
C492 C493 1.390 . S
C493 C492 1.390 . S
C493 C494 1.394 . S
C493 C499 1.465 . S
C494 C489 1.399 . S
C494 C493 1.394 . S
C494 C495 1.516 . S
C495 C494 1.516 . S
C495 C496 1.502 . S
C495 C497 1.561 . S
C495 C498 1.526 . S
C496 H480 0.959 . S
C496 H481 0.959 . S
C496 H482 0.961 . S
C496 C495 1.502 . S
C497 H483 0.960 . S
C497 H484 0.961 . S
C497 H485 0.959 . S
C497 C495 1.561 . S
C498 C495 1.526 . S
C498 C499 1.396 . S
C498 C503 1.390 . S
C499 C493 1.465 . S
C499 C498 1.396 . S
C499 C500 1.399 . S
C500 H486 0.929 . S
C500 C499 1.399 . S
C500 C501 1.385 . S
C501 H487 0.931 . S
C501 C500 1.385 . S
C501 C502 1.389 . S
C502 C501 1.389 . S
C502 C503 1.387 . S
C503 H488 0.930 . S
C503 C498 1.390 . S
C503 C502 1.387 . S
H504 C516 0.930 . S
H505 C518 0.930 1_554 S
H506 C519 0.930 . S
H507 C523 0.959 . S
H508 C523 0.959 . S
H509 C523 0.961 . S
H510 C524 0.960 . S
H511 C524 0.961 . S
H512 C524 0.959 . S
H513 C527 0.929 . S
H514 C528 0.931 . S
H515 C530 0.930 . S
C516 H504 0.930 . S
C516 C517 1.399 . S
C516 C521 1.399 . S
C517 C516 1.399 . S
C517 C518 1.376 . S
C518 H505 0.930 1_556 S
C518 C517 1.376 . S
C518 C519 1.388 . S
C519 H506 0.930 . S
C519 C518 1.388 . S
C519 C520 1.390 . S
C520 C519 1.390 . S
C520 C521 1.394 . S
C520 C526 1.465 . S
C521 C516 1.399 . S
C521 C520 1.394 . S
C521 C522 1.516 . S
C522 C521 1.516 . S
C522 C523 1.502 . S
C522 C524 1.561 . S
C522 C525 1.526 . S
C523 H507 0.959 . S
C523 H508 0.959 . S
C523 H509 0.961 . S
C523 C522 1.502 . S
C524 H510 0.960 . S
C524 H511 0.961 . S
C524 H512 0.959 . S
C524 C522 1.561 . S
C525 C522 1.526 . S
C525 C526 1.396 . S
C525 C530 1.390 . S
C526 C520 1.465 . S
C526 C525 1.396 . S
C526 C527 1.399 . S
C527 H513 0.929 . S
C527 C526 1.399 . S
C527 C528 1.385 . S
C528 H514 0.931 . S
C528 C527 1.385 . S
C528 C529 1.389 . S
C529 C528 1.389 . S
C529 C530 1.387 . S
C530 H515 0.930 . S
C530 C525 1.390 . S
C530 C529 1.387 . S
H531 C543 0.930 . S
H532 C545 0.930 . S
H533 C546 0.930 . S
H534 C550 0.959 . S
H535 C550 0.959 . S
H536 C550 0.961 . S
H537 C551 0.960 . S
H538 C551 0.961 . S
H539 C551 0.959 . S
H540 C554 0.929 . S
H541 C555 0.931 . S
H542 C557 0.930 . S
C543 H531 0.930 . S
C543 C544 1.399 . S
C543 C548 1.399 . S
C544 C543 1.399 . S
C544 C545 1.376 . S
C545 H532 0.930 . S
C545 C544 1.376 . S
C545 C546 1.388 . S
C546 H533 0.930 . S
C546 C545 1.388 . S
C546 C547 1.390 . S
C547 C546 1.390 . S
C547 C548 1.394 . S
C547 C553 1.465 . S
C548 C543 1.399 . S
C548 C547 1.394 . S
C548 C549 1.516 . S
C549 C548 1.516 . S
C549 C550 1.502 . S
C549 C551 1.561 . S
C549 C552 1.526 . S
C550 H534 0.959 . S
C550 H535 0.959 . S
C550 H536 0.961 . S
C550 C549 1.502 . S
C551 H537 0.960 . S
C551 H538 0.961 . S
C551 H539 0.959 . S
C551 C549 1.561 . S
C552 C549 1.526 . S
C552 C553 1.396 . S
C552 C557 1.390 . S
C553 C547 1.465 . S
C553 C552 1.396 . S
C553 C554 1.399 . S
C554 H540 0.929 . S
C554 C553 1.399 . S
C554 C555 1.385 . S
C555 H541 0.931 . S
C555 C554 1.385 . S
C555 C556 1.389 . S
C556 C555 1.389 . S
C556 C557 1.387 . S
C557 H542 0.930 . S
C557 C552 1.390 . S
C557 C556 1.387 . S
H558 C570 0.930 . S
H559 C572 0.930 . S
H560 C573 0.930 . S
H561 C577 0.959 . S
H562 C577 0.959 . S
H563 C577 0.961 . S
H564 C578 0.960 . S
H565 C578 0.961 . S
H566 C578 0.959 . S
H567 C581 0.929 . S
H568 C582 0.931 . S
H569 C584 0.930 . S
C570 H558 0.930 . S
C570 C571 1.399 . S
C570 C575 1.399 . S
C571 C570 1.399 . S
C571 C572 1.376 . S
C572 H559 0.930 . S
C572 C571 1.376 . S
C572 C573 1.388 . S
C573 H560 0.930 . S
C573 C572 1.388 . S
C573 C574 1.390 . S
C574 C573 1.390 . S
C574 C575 1.394 . S
C574 C580 1.465 . S
C575 C570 1.399 . S
C575 C574 1.394 . S
C575 C576 1.516 . S
C576 C575 1.516 . S
C576 C577 1.502 . S
C576 C578 1.561 . S
C576 C579 1.526 . S
C577 H561 0.959 . S
C577 H562 0.959 . S
C577 H563 0.961 . S
C577 C576 1.502 . S
C578 H564 0.960 . S
C578 H565 0.961 . S
C578 H566 0.959 . S
C578 C576 1.561 . S
C579 C576 1.526 . S
C579 C580 1.396 . S
C579 C584 1.390 . S
C580 C574 1.465 . S
C580 C579 1.396 . S
C580 C581 1.399 . S
C581 H567 0.929 . S
C581 C580 1.399 . S
C581 C582 1.385 . S
C582 H568 0.931 . S
C582 C581 1.385 . S
C582 C583 1.389 . S
C583 C582 1.389 . S
C583 C584 1.387 . S
C584 H569 0.930 . S
C584 C579 1.390 . S
C584 C583 1.387 . S
H585 C597 0.930 . S
H586 C599 0.930 . S
H587 C600 0.930 . S
H588 C604 0.959 . S
H589 C604 0.959 . S
H590 C604 0.961 . S
H591 C605 0.960 . S
H592 C605 0.961 . S
H593 C605 0.959 . S
H594 C608 0.929 . S
H595 C609 0.931 . S
H596 C611 0.930 . S
C597 H585 0.930 . S
C597 C598 1.399 . S
C597 C602 1.399 . S
C598 C597 1.399 . S
C598 C599 1.376 . S
C599 H586 0.930 . S
C599 C598 1.376 . S
C599 C600 1.388 . S
C600 H587 0.930 . S
C600 C599 1.388 . S
C600 C601 1.390 . S
C601 C600 1.390 . S
C601 C602 1.394 . S
C601 C607 1.465 . S
C602 C597 1.399 . S
C602 C601 1.394 . S
C602 C603 1.516 . S
C603 C602 1.516 . S
C603 C604 1.502 . S
C603 C605 1.561 . S
C603 C606 1.526 . S
C604 H588 0.959 . S
C604 H589 0.959 . S
C604 H590 0.961 . S
C604 C603 1.502 . S
C605 H591 0.960 . S
C605 H592 0.961 . S
C605 H593 0.959 . S
C605 C603 1.561 . S
C606 C603 1.526 . S
C606 C607 1.396 . S
C606 C611 1.390 . S
C607 C601 1.465 . S
C607 C606 1.396 . S
C607 C608 1.399 . S
C608 H594 0.929 . S
C608 C607 1.399 . S
C608 C609 1.385 . S
C609 H595 0.931 . S
C609 C608 1.385 . S
C609 C610 1.389 . S
C610 C609 1.389 . S
C610 C611 1.387 . S
C611 H596 0.930 . S
C611 C606 1.390 . S
C611 C610 1.387 . S
H612 C624 0.930 . S
H613 C626 0.930 . S
H614 C627 0.930 . S
H615 C631 0.959 . S
H616 C631 0.959 . S
H617 C631 0.961 . S
H618 C632 0.960 . S
H619 C632 0.961 . S
H620 C632 0.959 . S
H621 C635 0.929 . S
H622 C636 0.931 . S
H623 C638 0.930 . S
C624 H612 0.930 . S
C624 C625 1.399 . S
C624 C629 1.399 . S
C625 C624 1.399 . S
C625 C626 1.376 . S
C626 H613 0.930 . S
C626 C625 1.376 . S
C626 C627 1.388 . S
C627 H614 0.930 . S
C627 C626 1.388 . S
C627 C628 1.390 . S
C628 C627 1.390 . S
C628 C629 1.394 . S
C628 C634 1.465 . S
C629 C624 1.399 . S
C629 C628 1.394 . S
C629 C630 1.516 . S
C630 C629 1.516 . S
C630 C631 1.502 . S
C630 C632 1.561 . S
C630 C633 1.526 . S
C631 H615 0.959 . S
C631 H616 0.959 . S
C631 H617 0.961 . S
C631 C630 1.502 . S
C632 H618 0.960 . S
C632 H619 0.961 . S
C632 H620 0.959 . S
C632 C630 1.561 . S
C633 C630 1.526 . S
C633 C634 1.396 . S
C633 C638 1.390 . S
C634 C628 1.465 . S
C634 C633 1.396 . S
C634 C635 1.399 . S
C635 H621 0.929 . S
C635 C634 1.399 . S
C635 C636 1.385 . S
C636 H622 0.931 . S
C636 C635 1.385 . S
C636 C637 1.389 . S
C637 C636 1.389 . S
C637 C638 1.387 . S
C638 H623 0.930 . S
C638 C633 1.390 . S
C638 C637 1.387 . S
H639 C651 0.930 . S
H640 C653 0.930 . S
H641 C654 0.930 . S
H642 C658 0.959 . S
H643 C658 0.959 . S
H644 C658 0.961 . S
H645 C659 0.960 . S
H646 C659 0.961 . S
H647 C659 0.959 . S
H648 C662 0.929 . S
H649 C663 0.931 1_556 S
H650 C665 0.930 . S
C651 H639 0.930 . S
C651 C652 1.399 . S
C651 C656 1.399 . S
C652 C651 1.399 . S
C652 C653 1.376 . S
C653 H640 0.930 . S
C653 C652 1.376 . S
C653 C654 1.388 . S
C654 H641 0.930 . S
C654 C653 1.388 . S
C654 C655 1.390 . S
C655 C654 1.390 . S
C655 C656 1.394 . S
C655 C661 1.465 . S
C656 C651 1.399 . S
C656 C655 1.394 . S
C656 C657 1.516 . S
C657 C656 1.516 . S
C657 C658 1.502 . S
C657 C659 1.561 . S
C657 C660 1.526 . S
C658 H642 0.959 . S
C658 H643 0.959 . S
C658 H644 0.961 . S
C658 C657 1.502 . S
C659 H645 0.960 . S
C659 H646 0.961 . S
C659 H647 0.959 . S
C659 C657 1.561 . S
C660 C657 1.526 . S
C660 C661 1.396 . S
C660 C665 1.390 . S
C661 C655 1.465 . S
C661 C660 1.396 . S
C661 C662 1.399 . S
C662 H648 0.929 . S
C662 C661 1.399 . S
C662 C663 1.385 . S
C663 H649 0.931 1_554 S
C663 C662 1.385 . S
C663 C664 1.389 . S
C664 C663 1.389 . S
C664 C665 1.387 . S
C665 H650 0.930 . S
C665 C660 1.390 . S
C665 C664 1.387 . S
H666 C678 0.930 . S
H667 C680 0.930 . S
H668 C681 0.930 . S
H669 C685 0.959 . S
H670 C685 0.959 . S
H671 C685 0.961 . S
H672 C686 0.960 . S
H673 C686 0.961 . S
H674 C686 0.959 . S
H675 C689 0.929 . S
H676 C690 0.931 . S
H677 C692 0.930 . S
C678 H666 0.930 . S
C678 C679 1.399 . S
C678 C683 1.399 . S
C679 C678 1.399 . S
C679 C680 1.376 . S
C680 H667 0.930 . S
C680 C679 1.376 . S
C680 C681 1.388 . S
C681 H668 0.930 . S
C681 C680 1.388 . S
C681 C682 1.390 . S
C682 C681 1.390 . S
C682 C683 1.394 . S
C682 C688 1.465 . S
C683 C678 1.399 . S
C683 C682 1.394 . S
C683 C684 1.516 . S
C684 C683 1.516 . S
C684 C685 1.502 . S
C684 C686 1.561 . S
C684 C687 1.526 . S
C685 H669 0.959 . S
C685 H670 0.959 . S
C685 H671 0.961 . S
C685 C684 1.502 . S
C686 H672 0.960 . S
C686 H673 0.961 . S
C686 H674 0.959 . S
C686 C684 1.561 . S
C687 C684 1.526 . S
C687 C688 1.396 . S
C687 C692 1.390 . S
C688 C682 1.465 . S
C688 C687 1.396 . S
C688 C689 1.399 . S
C689 H675 0.929 . S
C689 C688 1.399 . S
C689 C690 1.385 . S
C690 H676 0.931 . S
C690 C689 1.385 . S
C690 C691 1.389 . S
C691 C690 1.389 . S
C691 C692 1.387 . S
C692 H677 0.930 . S
C692 C687 1.390 . S
C692 C691 1.387 . S
H693 C705 0.930 . S
H694 C707 0.930 . S
H695 C708 0.930 . S
H696 C712 0.959 . S
H697 C712 0.959 . S
H698 C712 0.961 . S
H699 C713 0.960 . S
H700 C713 0.961 . S
H701 C713 0.959 . S
H702 C716 0.929 . S
H703 C717 0.931 . S
H704 C719 0.930 . S
C705 H693 0.930 . S
C705 C706 1.399 . S
C705 C710 1.399 . S
C706 C705 1.399 . S
C706 C707 1.376 . S
C707 H694 0.930 . S
C707 C706 1.376 . S
C707 C708 1.388 . S
C708 H695 0.930 . S
C708 C707 1.388 . S
C708 C709 1.390 . S
C709 C708 1.390 . S
C709 C710 1.394 . S
C709 C715 1.465 . S
C710 C705 1.399 . S
C710 C709 1.394 . S
C710 C711 1.516 . S
C711 C710 1.516 . S
C711 C712 1.502 . S
C711 C713 1.561 . S
C711 C714 1.526 . S
C712 H696 0.959 . S
C712 H697 0.959 . S
C712 H698 0.961 . S
C712 C711 1.502 . S
C713 H699 0.960 . S
C713 H700 0.961 . S
C713 H701 0.959 . S
C713 C711 1.561 . S
C714 C711 1.526 . S
C714 C715 1.396 . S
C714 C719 1.390 . S
C715 C709 1.465 . S
C715 C714 1.396 . S
C715 C716 1.399 . S
C716 H702 0.929 . S
C716 C715 1.399 . S
C716 C717 1.385 . S
C717 H703 0.931 . S
C717 C716 1.385 . S
C717 C718 1.389 . S
C718 C717 1.389 . S
C718 C719 1.387 . S
C719 H704 0.930 . S
C719 C714 1.390 . S
C719 C718 1.387 . S
H720 C732 0.930 . S
H721 C734 0.930 . S
H722 C735 0.930 . S
H723 C739 0.959 . S
H724 C739 0.959 . S
H725 C739 0.961 . S
H726 C740 0.960 . S
H727 C740 0.961 . S
H728 C740 0.959 . S
H729 C743 0.929 . S
H730 C744 0.931 . S
H731 C746 0.930 . S
C732 H720 0.930 . S
C732 C733 1.399 . S
C732 C737 1.399 . S
C733 C732 1.399 . S
C733 C734 1.376 . S
C734 H721 0.930 . S
C734 C733 1.376 . S
C734 C735 1.388 . S
C735 H722 0.930 . S
C735 C734 1.388 . S
C735 C736 1.390 . S
C736 C735 1.390 . S
C736 C737 1.394 . S
C736 C742 1.465 . S
C737 C732 1.399 . S
C737 C736 1.394 . S
C737 C738 1.516 . S
C738 C737 1.516 . S
C738 C739 1.502 . S
C738 C740 1.561 . S
C738 C741 1.526 . S
C739 H723 0.959 . S
C739 H724 0.959 . S
C739 H725 0.961 . S
C739 C738 1.502 . S
C740 H726 0.960 . S
C740 H727 0.961 . S
C740 H728 0.959 . S
C740 C738 1.561 . S
C741 C738 1.526 . S
C741 C742 1.396 . S
C741 C746 1.390 . S
C742 C736 1.465 . S
C742 C741 1.396 . S
C742 C743 1.399 . S
C743 H729 0.929 . S
C743 C742 1.399 . S
C743 C744 1.385 . S
C744 H730 0.931 . S
C744 C743 1.385 . S
C744 C745 1.389 . S
C745 C744 1.389 . S
C745 C746 1.387 . S
C746 H731 0.930 . S
C746 C741 1.390 . S
C746 C745 1.387 . S
H747 C759 0.930 . S
H748 C761 0.930 . S
H749 C762 0.930 . S
H750 C766 0.959 . S
H751 C766 0.959 . S
H752 C766 0.961 . S
H753 C767 0.960 . S
H754 C767 0.961 . S
H755 C767 0.959 . S
H756 C770 0.929 . S
H757 C771 0.931 . S
H758 C773 0.930 . S
C759 H747 0.930 . S
C759 C760 1.399 . S
C759 C764 1.399 . S
C760 C759 1.399 . S
C760 C761 1.376 . S
C761 H748 0.930 . S
C761 C760 1.376 . S
C761 C762 1.388 . S
C762 H749 0.930 . S
C762 C761 1.388 . S
C762 C763 1.390 . S
C763 C762 1.390 . S
C763 C764 1.394 . S
C763 C769 1.465 . S
C764 C759 1.399 . S
C764 C763 1.394 . S
C764 C765 1.516 . S
C765 C764 1.516 . S
C765 C766 1.502 . S
C765 C767 1.561 . S
C765 C768 1.526 . S
C766 H750 0.959 . S
C766 H751 0.959 . S
C766 H752 0.961 . S
C766 C765 1.502 . S
C767 H753 0.960 . S
C767 H754 0.961 . S
C767 H755 0.959 . S
C767 C765 1.561 . S
C768 C765 1.526 . S
C768 C769 1.396 . S
C768 C773 1.390 . S
C769 C763 1.465 . S
C769 C768 1.396 . S
C769 C770 1.399 . S
C770 H756 0.929 . S
C770 C769 1.399 . S
C770 C771 1.385 . S
C771 H757 0.931 . S
C771 C770 1.385 . S
C771 C772 1.389 . S
C772 C771 1.389 . S
C772 C773 1.387 . S
C773 H758 0.930 . S
C773 C768 1.390 . S
C773 C772 1.387 . S
H774 C786 0.930 . S
H775 C788 0.957 . S
H776 C789 0.930 . S
H777 C793 0.959 . S
H778 C793 0.959 . S
H779 C793 0.961 . S
H780 C794 0.960 1_565 S
H781 C794 0.961 . S
H782 C794 0.959 1_565 S
H783 C797 0.929 . S
H784 C798 0.931 . S
H785 C800 0.930 . S
C786 H774 0.930 . S
C786 C787 1.424 . S
C786 C791 1.399 . S
C787 C786 1.424 . S
C787 C788 1.412 . S
C788 H775 0.957 . S
C788 C787 1.412 . S
C788 C789 1.388 . S
C789 H776 0.930 . S
C789 C788 1.388 . S
C789 C790 1.390 . S
C790 C789 1.390 . S
C790 C791 1.394 . S
C790 C796 1.465 . S
C791 C786 1.399 . S
C791 C790 1.394 . S
C791 C792 1.516 . S
C792 C791 1.516 . S
C792 C793 1.502 . S
C792 C794 1.561 . S
C792 C795 1.526 . S
C793 H777 0.959 . S
C793 H778 0.959 . S
C793 H779 0.961 . S
C793 C792 1.502 . S
C794 H780 0.960 1_545 S
C794 H781 0.961 . S
C794 H782 0.959 1_545 S
C794 C792 1.561 . S
C795 C792 1.526 . S
C795 C796 1.396 . S
C795 C800 1.390 . S
C796 C790 1.465 . S
C796 C795 1.396 . S
C796 C797 1.399 . S
C797 H783 0.929 . S
C797 C796 1.399 . S
C797 C798 1.385 . S
C798 H784 0.931 . S
C798 C797 1.385 . S
C798 C799 1.389 . S
C799 C798 1.389 . S
C799 C800 1.387 . S
C800 H785 0.930 . S
C800 C795 1.390 . S
C800 C799 1.387 . S
H801 C813 0.930 . S
H802 C815 0.930 . S
H803 C816 0.930 . S
H804 C820 0.959 . S
H805 C820 0.959 . S
H806 C820 0.961 . S
H807 C821 0.960 . S
H808 C821 0.961 . S
H809 C821 0.959 . S
H810 C824 0.929 . S
H811 C825 0.931 . S
H812 C827 0.930 . S
C813 H801 0.930 . S
C813 C814 1.399 . S
C813 C818 1.399 . S
C814 C813 1.399 . S
C814 C815 1.376 . S
C815 H802 0.930 . S
C815 C814 1.376 . S
C815 C816 1.388 . S
C816 H803 0.930 . S
C816 C815 1.388 . S
C816 C817 1.390 . S
C817 C816 1.390 . S
C817 C818 1.394 . S
C817 C823 1.465 . S
C818 C813 1.399 . S
C818 C817 1.394 . S
C818 C819 1.516 . S
C819 C818 1.516 . S
C819 C820 1.502 . S
C819 C821 1.561 . S
C819 C822 1.526 . S
C820 H804 0.959 . S
C820 H805 0.959 . S
C820 H806 0.961 . S
C820 C819 1.502 . S
C821 H807 0.960 . S
C821 H808 0.961 . S
C821 H809 0.959 . S
C821 C819 1.561 . S
C822 C819 1.526 . S
C822 C823 1.396 . S
C822 C827 1.390 . S
C823 C817 1.465 . S
C823 C822 1.396 . S
C823 C824 1.399 . S
C824 H810 0.929 . S
C824 C823 1.399 . S
C824 C825 1.385 . S
C825 H811 0.931 . S
C825 C824 1.385 . S
C825 C826 1.389 . S
C826 C825 1.389 . S
C826 C827 1.387 . S
C827 H812 0.930 . S
C827 C822 1.390 . S
C827 C826 1.387 . S
H828 C840 0.930 1_556 S
H829 C842 0.930 . S
H830 C843 0.930 . S
H831 C847 0.959 . S
H832 C847 0.959 . S
H833 C847 0.961 . S
H834 C848 0.960 1_556 S
H835 C848 0.961 1_556 S
H836 C848 0.959 . S
H837 C851 0.929 . S
H838 C852 0.923 . S
H839 C854 0.930 . S
C840 H828 0.930 1_554 S
C840 C841 1.399 . S
C840 C845 1.399 . S
C841 C840 1.399 . S
C841 C842 1.376 . S
C842 H829 0.930 . S
C842 C841 1.376 . S
C842 C843 1.388 . S
C843 H830 0.930 . S
C843 C842 1.388 . S
C843 C844 1.390 . S
C844 C843 1.390 . S
C844 C845 1.394 . S
C844 C850 1.465 . S
C845 C840 1.399 . S
C845 C844 1.394 . S
C845 C846 1.516 . S
C846 C845 1.516 . S
C846 C847 1.502 1_554 S
C846 C848 1.561 1_655 S
C846 C849 1.526 . S
C847 H831 0.959 . S
C847 H832 0.959 . S
C847 H833 0.961 . S
C847 C846 1.502 1_556 S
C848 H834 0.960 1_554 S
C848 H835 0.961 1_554 S
C848 H836 0.959 . S
C848 C846 1.561 1_455 S
C849 C846 1.526 . S
C849 C850 1.396 . S
C849 C854 1.390 1_655 S
C850 C844 1.465 . S
C850 C849 1.396 . S
C850 C851 1.399 . S
C851 H837 0.929 . S
C851 C850 1.399 . S
C851 C852 1.436 . S
C852 H838 0.923 . S
C852 C851 1.436 . S
C852 C853 1.352 1_655 S
C853 C852 1.352 1_455 S
C853 C854 1.387 . S
C854 H839 0.930 . S
C854 C849 1.390 1_455 S
C854 C853 1.387 . S
H855 C867 0.930 1_556 S
H856 C869 0.930 . S
H857 C870 0.930 . S
H858 C874 0.959 . S
H859 C874 0.959 . S
H860 C874 0.961 . S
H861 C875 0.960 1_556 S
H862 C875 0.961 . S
H863 C875 0.959 . S
H864 C878 0.929 . S
H865 C879 0.931 . S
H866 C881 0.930 . S
C867 H855 0.930 1_554 S
C867 C868 1.399 . S
C867 C872 1.399 . S
C868 C867 1.399 . S
C868 C869 1.376 . S
C869 H856 0.930 . S
C869 C868 1.376 . S
C869 C870 1.388 . S
C870 H857 0.930 . S
C870 C869 1.388 . S
C870 C871 1.390 . S
C871 C870 1.390 . S
C871 C872 1.394 . S
C871 C877 1.465 . S
C872 C867 1.399 . S
C872 C871 1.394 . S
C872 C873 1.516 . S
C873 C872 1.516 . S
C873 C874 1.502 1_554 S
C873 C875 1.561 . S
C873 C876 1.526 . S
C874 H858 0.959 . S
C874 H859 0.959 . S
C874 H860 0.961 . S
C874 C873 1.502 1_556 S
C875 H861 0.960 1_554 S
C875 H862 0.961 . S
C875 H863 0.959 . S
C875 C873 1.561 . S
C876 C873 1.526 . S
C876 C877 1.396 . S
C876 C881 1.390 . S
C877 C871 1.465 . S
C877 C876 1.396 . S
C877 C878 1.399 . S
C878 H864 0.929 . S
C878 C877 1.399 . S
C878 C879 1.385 . S
C879 H865 0.931 . S
C879 C878 1.385 . S
C879 C880 1.389 . S
C880 C879 1.389 . S
C880 C881 1.387 . S
C881 H866 0.930 . S
C881 C876 1.390 . S
C881 C880 1.387 . S
H882 C894 0.930 . S
H883 C896 0.930 . S
H884 C897 0.930 1_455 S
H885 C901 0.959 . S
H886 C901 0.959 . S
H887 C901 0.961 . S
H888 C902 0.960 . S
H889 C902 0.961 . S
H890 C902 0.959 1_455 S
H891 C905 0.929 . S
H892 C906 0.931 . S
H893 C908 0.930 1_655 S
C894 H882 0.930 . S
C894 C895 1.399 . S
C894 C899 1.399 . S
C895 C894 1.399 . S
C895 C896 1.376 . S
C896 H883 0.930 . S
C896 C895 1.376 . S
C896 C897 1.388 . S
C897 H884 0.930 1_655 S
C897 C896 1.388 . S
C897 C898 1.390 . S
C898 C897 1.390 . S
C898 C899 1.394 . S
C898 C904 1.465 1_655 S
C899 C894 1.399 . S
C899 C898 1.394 . S
C899 C900 1.516 . S
C900 C899 1.516 . S
C900 C901 1.502 . S
C900 C902 1.561 . S
C900 C903 1.526 . S
C901 H885 0.959 . S
C901 H886 0.959 . S
C901 H887 0.961 . S
C901 C900 1.502 . S
C902 H888 0.960 . S
C902 H889 0.961 . S
C902 H890 0.959 1_655 S
C902 C900 1.561 . S
C903 C900 1.526 . S
C903 C904 1.396 1_655 S
C903 C908 1.390 1_655 S
C904 C898 1.465 1_455 S
C904 C903 1.396 1_455 S
C904 C905 1.399 . S
C905 H891 0.929 . S
C905 C904 1.399 . S
C905 C906 1.385 . S
C906 H892 0.931 . S
C906 C905 1.385 . S
C906 C907 1.389 . S
C907 C906 1.389 . S
C907 C908 1.387 . S
C908 H893 0.930 1_455 S
C908 C903 1.390 1_455 S
C908 C907 1.387 . S
H909 C921 0.930 . S
H910 C923 0.930 . S
H911 C924 0.930 . S
H912 C928 0.959 . S
H913 C928 0.959 . S
H914 C928 0.961 . S
H915 C929 0.960 . S
H916 C929 0.961 . S
H917 C929 0.959 . S
H918 C932 0.929 . S
H919 C933 0.931 . S
H920 C935 0.930 . S
C921 H909 0.930 . S
C921 C922 1.399 . S
C921 C926 1.399 . S
C922 C921 1.399 . S
C922 C923 1.376 . S
C923 H910 0.930 . S
C923 C922 1.376 . S
C923 C924 1.388 . S
C924 H911 0.930 . S
C924 C923 1.388 . S
C924 C925 1.390 . S
C925 C924 1.390 . S
C925 C926 1.394 . S
C925 C931 1.465 . S
C926 C921 1.399 . S
C926 C925 1.394 . S
C926 C927 1.516 . S
C927 C926 1.516 . S
C927 C928 1.502 . S
C927 C929 1.561 . S
C927 C930 1.526 . S
C928 H912 0.959 . S
C928 H913 0.959 . S
C928 H914 0.961 . S
C928 C927 1.502 . S
C929 H915 0.960 . S
C929 H916 0.961 . S
C929 H917 0.959 . S
C929 C927 1.561 . S
C930 C927 1.526 . S
C930 C931 1.396 . S
C930 C935 1.390 . S
C931 C925 1.465 . S
C931 C930 1.396 . S
C931 C932 1.399 . S
C932 H918 0.929 . S
C932 C931 1.399 . S
C932 C933 1.385 . S
C933 H919 0.931 . S
C933 C932 1.385 . S
C933 C934 1.389 . S
C934 C933 1.389 . S
C934 C935 1.387 . S
C935 H920 0.930 . S
C935 C930 1.390 . S
C935 C934 1.387 . S
H936 C948 0.930 . S
H937 C950 0.930 . S
H938 C951 0.930 . S
H939 C955 0.959 . S
H940 C955 0.959 . S
H941 C955 0.961 . S
H942 C956 0.960 . S
H943 C956 0.961 . S
H944 C956 0.959 . S
H945 C959 0.929 . S
H946 C960 0.931 . S
H947 C962 0.930 . S
C948 H936 0.930 . S
C948 C949 1.399 . S
C948 C953 1.399 . S
C949 C948 1.399 . S
C949 C950 1.376 . S
C950 H937 0.930 . S
C950 C949 1.376 . S
C950 C951 1.388 . S
C951 H938 0.930 . S
C951 C950 1.388 . S
C951 C952 1.390 . S
C952 C951 1.390 . S
C952 C953 1.394 . S
C952 C958 1.465 . S
C953 C948 1.399 . S
C953 C952 1.394 . S
C953 C954 1.516 . S
C954 C953 1.516 . S
C954 C955 1.502 . S
C954 C956 1.561 . S
C954 C957 1.526 . S
C955 H939 0.959 . S
C955 H940 0.959 . S
C955 H941 0.961 . S
C955 C954 1.502 . S
C956 H942 0.960 . S
C956 H943 0.961 . S
C956 H944 0.959 . S
C956 C954 1.561 . S
C957 C954 1.526 . S
C957 C958 1.396 . S
C957 C962 1.390 . S
C958 C952 1.465 . S
C958 C957 1.396 . S
C958 C959 1.399 . S
C959 H945 0.929 . S
C959 C958 1.399 . S
C959 C960 1.385 . S
C960 H946 0.931 . S
C960 C959 1.385 . S
C960 C961 1.389 . S
C961 C960 1.389 . S
C961 C962 1.387 . S
C962 H947 0.930 . S
C962 C957 1.390 . S
C962 C961 1.387 . S
H963 C975 0.930 1_554 S
H964 C977 0.930 . S
H965 C978 0.900 1_565 S
H966 C982 0.959 . S
H967 C982 0.959 . S
H968 C982 0.961 1_554 S
H969 C983 0.960 . S
H970 C983 0.961 . S
H971 C983 0.959 . S
H972 C986 0.929 . S
H973 C987 0.931 . S
H974 C989 0.930 . S
C975 H963 0.930 1_556 S
C975 C976 1.399 . S
C975 C980 1.399 . S
C976 C975 1.399 . S
C976 C977 1.376 1_545 S
C977 H964 0.930 . S
C977 C976 1.376 1_565 S
C977 C978 1.397 1_565 S
C978 H965 0.900 1_545 S
C978 C977 1.397 1_545 S
C978 C979 1.415 . S
C979 C978 1.415 . S
C979 C980 1.394 . S
C979 C985 1.465 . S
C980 C975 1.399 . S
C980 C979 1.394 . S
C980 C981 1.516 . S
C981 C980 1.516 . S
C981 C982 1.502 . S
C981 C983 1.561 1_556 S
C981 C984 1.526 . S
C982 H966 0.959 . S
C982 H967 0.959 . S
C982 H968 0.961 1_556 S
C982 C981 1.502 . S
C983 H969 0.960 . S
C983 H970 0.961 . S
C983 H971 0.959 . S
C983 C981 1.561 1_554 S
C984 C981 1.526 . S
C984 C985 1.396 . S
C984 C989 1.390 . S
C985 C979 1.465 . S
C985 C984 1.396 . S
C985 C986 1.399 . S
C986 H972 0.929 . S
C986 C985 1.399 . S
C986 C987 1.385 . S
C987 H973 0.931 . S
C987 C986 1.385 . S
C987 C988 1.389 . S
C988 C987 1.389 . S
C988 C989 1.387 . S
C989 H974 0.930 . S
C989 C984 1.390 . S
C989 C988 1.387 . S
H990 C1002 0.930 . S
H991 C1004 0.930 . S
H992 C1005 0.930 . S
H993 C1009 0.959 . S
H994 C1009 0.959 . S
H995 C1009 0.961 . S
H996 C1010 0.960 . S
H997 C1010 0.961 . S
H998 C1010 0.959 . S
H999 C1013 0.929 . S
H1000 C1014 0.931 . S
H1001 C1016 0.939 . S
C1002 H990 0.930 . S
C1002 C1003 1.399 . S
C1002 C1007 1.399 . S
C1003 C1002 1.399 . S
C1003 C1004 1.376 . S
C1004 H991 0.930 . S
C1004 C1003 1.376 . S
C1004 C1005 1.388 . S
C1005 H992 0.930 . S
C1005 C1004 1.388 . S
C1005 C1006 1.390 . S
C1006 C1005 1.390 . S
C1006 C1007 1.394 . S
C1006 C1012 1.465 . S
C1007 C1002 1.399 . S
C1007 C1006 1.394 . S
C1007 C1008 1.516 . S
C1008 C1007 1.516 . S
C1008 C1009 1.502 . S
C1008 C1010 1.561 1_556 S
C1008 C1011 1.526 . S
C1009 H993 0.959 . S
C1009 H994 0.959 . S
C1009 H995 0.961 . S
C1009 C1008 1.502 . S
C1010 H996 0.960 . S
C1010 H997 0.961 . S
C1010 H998 0.959 . S
C1010 C1008 1.561 1_554 S
C1011 C1008 1.526 . S
C1011 C1012 1.396 . S
C1011 C1016 1.390 . S
C1012 C1006 1.465 . S
C1012 C1011 1.396 . S
C1012 C1013 1.399 . S
C1013 H999 0.929 . S
C1013 C1012 1.399 . S
C1013 C1014 1.385 . S
C1014 H1000 0.931 . S
C1014 C1013 1.385 . S
C1014 C1015 1.389 . S
C1015 C1014 1.389 . S
C1015 C1016 1.387 . S
C1016 H1001 0.939 . S
C1016 C1011 1.390 . S
C1016 C1015 1.387 . S
H1017 C1029 0.930 . S
H1018 C1031 0.930 . S
H1019 C1032 0.930 . S
H1020 C1036 0.959 1_556 S
H1021 C1036 0.959 . S
H1022 C1036 0.961 . S
H1023 C1037 0.960 . S
H1024 C1037 0.961 . S
H1025 C1037 0.959 1_556 S
H1026 C1040 0.929 . S
H1027 C1041 0.931 . S
H1028 C1043 0.930 1_554 S
C1029 H1017 0.930 . S
C1029 C1030 1.399 . S
C1029 C1034 1.399 . S
C1030 C1029 1.399 . S
C1030 C1031 1.376 . S
C1031 H1018 0.930 . S
C1031 C1030 1.376 . S
C1031 C1032 1.388 . S
C1032 H1019 0.930 . S
C1032 C1031 1.388 . S
C1032 C1033 1.390 . S
C1033 C1032 1.390 . S
C1033 C1034 1.394 . S
C1033 C1039 1.465 . S
C1034 C1029 1.399 . S
C1034 C1033 1.394 . S
C1034 C1035 1.516 . S
C1035 C1034 1.516 . S
C1035 C1036 1.502 1_556 S
C1035 C1037 1.561 1_556 S
C1035 C1038 1.526 . S
C1036 H1020 0.959 1_554 S
C1036 H1021 0.959 . S
C1036 H1022 0.961 . S
C1036 C1035 1.502 1_554 S
C1037 H1023 0.960 . S
C1037 H1024 0.961 . S
C1037 H1025 0.959 1_554 S
C1037 C1035 1.561 1_554 S
C1038 C1035 1.526 . S
C1038 C1039 1.396 . S
C1038 C1043 1.390 . S
C1039 C1033 1.465 . S
C1039 C1038 1.396 . S
C1039 C1040 1.399 . S
C1040 H1026 0.929 . S
C1040 C1039 1.399 . S
C1040 C1041 1.385 . S
C1041 H1027 0.931 . S
C1041 C1040 1.385 . S
C1041 C1042 1.389 . S
C1042 C1041 1.389 . S
C1042 C1043 1.387 . S
C1043 H1028 0.930 1_556 S
C1043 C1038 1.390 . S
C1043 C1042 1.387 . S
H1044 C1056 0.930 . S
H1045 C1058 0.930 . S
H1046 C1059 0.930 . S
H1047 C1063 0.959 . S
H1048 C1063 0.959 . S
H1049 C1063 0.961 . S
H1050 C1064 0.960 . S
H1051 C1064 0.961 . S
H1052 C1064 0.959 . S
H1053 C1067 0.929 . S
H1054 C1068 0.931 . S
H1055 C1070 0.930 . S
C1056 H1044 0.930 . S
C1056 C1057 1.399 . S
C1056 C1061 1.399 . S
C1057 C1056 1.399 . S
C1057 C1058 1.376 . S
C1058 H1045 0.930 . S
C1058 C1057 1.376 . S
C1058 C1059 1.388 . S
C1059 H1046 0.930 . S
C1059 C1058 1.388 . S
C1059 C1060 1.390 . S
C1060 C1059 1.390 . S
C1060 C1061 1.394 . S
C1060 C1066 1.465 . S
C1061 C1056 1.399 . S
C1061 C1060 1.394 . S
C1061 C1062 1.516 . S
C1062 C1061 1.516 . S
C1062 C1063 1.502 . S
C1062 C1064 1.561 . S
C1062 C1065 1.526 . S
C1063 H1047 0.959 . S
C1063 H1048 0.959 . S
C1063 H1049 0.961 . S
C1063 C1062 1.502 . S
C1064 H1050 0.960 . S
C1064 H1051 0.961 . S
C1064 H1052 0.959 . S
C1064 C1062 1.561 . S
C1065 C1062 1.526 . S
C1065 C1066 1.396 . S
C1065 C1070 1.390 . S
C1066 C1060 1.465 . S
C1066 C1065 1.396 . S
C1066 C1067 1.399 . S
C1067 H1053 0.929 . S
C1067 C1066 1.399 . S
C1067 C1068 1.385 . S
C1068 H1054 0.931 . S
C1068 C1067 1.385 . S
C1068 C1069 1.389 . S
C1069 C1068 1.389 . S
C1069 C1070 1.387 . S
C1070 H1055 0.930 . S
C1070 C1065 1.390 . S
C1070 C1069 1.387 . S
H1071 C1083 0.930 . S
H1072 C1085 0.930 . S
H1073 C1086 0.930 . S
H1074 C1090 0.959 . S
H1075 C1090 0.964 . S
H1076 C1090 0.961 . S
H1077 C1091 0.960 . S
H1078 C1091 0.956 . S
H1079 C1091 0.959 . S
H1080 C1094 0.929 . S
H1081 C1095 0.931 . S
H1082 C1097 0.930 . S
C1083 H1071 0.930 . S
C1083 C1084 1.399 . S
C1083 C1088 1.399 . S
C1084 C1083 1.399 . S
C1084 C1085 1.376 . S
C1085 H1072 0.930 . S
C1085 C1084 1.376 . S
C1085 C1086 1.388 . S
C1086 H1073 0.930 . S
C1086 C1085 1.388 . S
C1086 C1087 1.390 . S
C1087 C1086 1.390 . S
C1087 C1088 1.394 . S
C1087 C1093 1.465 . S
C1088 C1083 1.399 . S
C1088 C1087 1.394 . S
C1088 C1089 1.516 . S
C1089 C1088 1.516 . S
C1089 C1090 1.502 . S
C1089 C1091 1.561 . S
C1089 C1092 1.526 . S
C1090 H1074 0.959 . S
C1090 H1075 0.964 . S
C1090 H1076 0.961 . S
C1090 C1089 1.502 . S
C1091 H1077 0.960 . S
C1091 H1078 0.956 . S
C1091 H1079 0.959 . S
C1091 C1089 1.561 . S
C1092 C1089 1.526 . S
C1092 C1093 1.396 . S
C1092 C1097 1.390 1_455 S
C1093 C1087 1.465 . S
C1093 C1092 1.396 . S
C1093 C1094 1.399 . S
C1094 H1080 0.929 . S
C1094 C1093 1.399 . S
C1094 C1095 1.385 1_455 S
C1095 H1081 0.931 . S
C1095 C1094 1.385 1_655 S
C1095 C1096 1.389 . S
C1096 C1095 1.389 . S
C1096 C1097 1.387 . S
C1097 H1082 0.930 . S
C1097 C1092 1.390 1_655 S
C1097 C1096 1.387 . S
H1098 C1110 0.930 . S
H1099 C1112 0.930 . S
H1100 C1113 0.930 . S
H1101 C1117 0.959 . S
H1102 C1117 0.959 . S
H1103 C1117 0.961 . S
H1104 C1118 0.960 . S
H1105 C1118 0.961 . S
H1106 C1118 0.959 . S
H1107 C1121 0.929 . S
H1108 C1122 0.931 . S
H1109 C1124 0.930 . S
C1110 H1098 0.930 . S
C1110 C1111 1.399 . S
C1110 C1115 1.399 . S
C1111 C1110 1.399 . S
C1111 C1112 1.376 . S
C1112 H1099 0.930 . S
C1112 C1111 1.376 . S
C1112 C1113 1.388 . S
C1113 H1100 0.930 . S
C1113 C1112 1.388 . S
C1113 C1114 1.390 . S
C1114 C1113 1.390 . S
C1114 C1115 1.394 . S
C1114 C1120 1.465 . S
C1115 C1110 1.399 . S
C1115 C1114 1.394 . S
C1115 C1116 1.516 . S
C1116 C1115 1.516 . S
C1116 C1117 1.502 . S
C1116 C1118 1.561 . S
C1116 C1119 1.526 . S
C1117 H1101 0.959 . S
C1117 H1102 0.959 . S
C1117 H1103 0.961 . S
C1117 C1116 1.502 . S
C1118 H1104 0.960 . S
C1118 H1105 0.961 . S
C1118 H1106 0.959 . S
C1118 C1116 1.561 . S
C1119 C1116 1.526 . S
C1119 C1120 1.396 . S
C1119 C1124 1.390 . S
C1120 C1114 1.465 . S
C1120 C1119 1.396 . S
C1120 C1121 1.399 . S
C1121 H1107 0.929 . S
C1121 C1120 1.399 . S
C1121 C1122 1.385 . S
C1122 H1108 0.931 . S
C1122 C1121 1.385 . S
C1122 C1123 1.389 . S
C1123 C1122 1.389 . S
C1123 C1124 1.387 . S
C1124 H1109 0.930 . S
C1124 C1119 1.390 . S
C1124 C1123 1.387 . S
H1125 C1137 0.930 . S
H1126 C1139 0.930 . S
H1127 C1140 0.930 . S
H1128 C1144 0.959 . S
H1129 C1144 0.959 . S
H1130 C1144 0.961 . S
H1131 C1145 0.960 . S
H1132 C1145 0.961 . S
H1133 C1145 0.959 . S
H1134 C1148 0.929 . S
H1135 C1149 0.931 . S
H1136 C1151 0.930 . S
C1137 H1125 0.930 . S
C1137 C1138 1.399 . S
C1137 C1142 1.399 1_655 S
C1138 C1137 1.399 . S
C1138 C1139 1.376 . S
C1139 H1126 0.930 . S
C1139 C1138 1.376 . S
C1139 C1140 1.388 1_655 S
C1140 H1127 0.930 . S
C1140 C1139 1.388 1_455 S
C1140 C1141 1.390 . S
C1141 C1140 1.390 . S
C1141 C1142 1.394 . S
C1141 C1147 1.465 . S
C1142 C1137 1.399 1_455 S
C1142 C1141 1.394 . S
C1142 C1143 1.516 . S
C1143 C1142 1.516 . S
C1143 C1144 1.502 . S
C1143 C1145 1.561 . S
C1143 C1146 1.526 . S
C1144 H1128 0.959 . S
C1144 H1129 0.959 . S
C1144 H1130 0.961 . S
C1144 C1143 1.502 . S
C1145 H1131 0.960 . S
C1145 H1132 0.961 . S
C1145 H1133 0.959 . S
C1145 C1143 1.561 . S
C1146 C1143 1.526 . S
C1146 C1147 1.396 . S
C1146 C1151 1.390 . S
C1147 C1141 1.465 . S
C1147 C1146 1.396 . S
C1147 C1148 1.399 . S
C1148 H1134 0.929 . S
C1148 C1147 1.399 . S
C1148 C1149 1.385 . S
C1149 H1135 0.931 . S
C1149 C1148 1.385 . S
C1149 C1150 1.389 . S
C1150 C1149 1.389 . S
C1150 C1151 1.387 . S
C1151 H1136 0.930 . S
C1151 C1146 1.390 . S
C1151 C1150 1.387 . S
H1152 C1164 0.930 . S
H1153 C1166 0.930 . S
H1154 C1167 0.930 . S
H1155 C1171 0.959 . S
H1156 C1171 0.959 . S
H1157 C1171 0.961 . S
H1158 C1172 0.960 . S
H1159 C1172 0.961 . S
H1160 C1172 0.959 . S
H1161 C1175 0.929 . S
H1162 C1176 0.931 . S
H1163 C1178 0.930 . S
C1164 H1152 0.930 . S
C1164 C1165 1.399 . S
C1164 C1169 1.399 . S
C1165 C1164 1.399 . S
C1165 C1166 1.376 . S
C1166 H1153 0.930 . S
C1166 C1165 1.376 . S
C1166 C1167 1.388 . S
C1167 H1154 0.930 . S
C1167 C1166 1.388 . S
C1167 C1168 1.390 . S
C1168 C1167 1.390 . S
C1168 C1169 1.394 . S
C1168 C1174 1.465 . S
C1169 C1164 1.399 . S
C1169 C1168 1.394 . S
C1169 C1170 1.516 . S
C1170 C1169 1.516 . S
C1170 C1171 1.502 . S
C1170 C1172 1.561 . S
C1170 C1173 1.526 . S
C1171 H1155 0.959 . S
C1171 H1156 0.959 . S
C1171 H1157 0.961 . S
C1171 C1170 1.502 . S
C1172 H1158 0.960 . S
C1172 H1159 0.961 . S
C1172 H1160 0.959 . S
C1172 C1170 1.561 . S
C1173 C1170 1.526 . S
C1173 C1174 1.396 . S
C1173 C1178 1.390 . S
C1174 C1168 1.465 . S
C1174 C1173 1.396 . S
C1174 C1175 1.399 . S
C1175 H1161 0.929 . S
C1175 C1174 1.399 . S
C1175 C1176 1.385 . S
C1176 H1162 0.931 . S
C1176 C1175 1.385 . S
C1176 C1177 1.389 . S
C1177 C1176 1.389 . S
C1177 C1178 1.387 . S
C1178 H1163 0.930 . S
C1178 C1173 1.390 . S
C1178 C1177 1.387 . S
H1179 C1191 0.930 . S
H1180 C1193 0.930 . S
H1181 C1194 0.930 . S
H1182 C1198 0.959 . S
H1183 C1198 0.959 . S
H1184 C1198 0.961 . S
H1185 C1199 0.960 . S
H1186 C1199 0.961 . S
H1187 C1199 0.959 . S
H1188 C1202 0.929 . S
H1189 C1203 0.931 . S
H1190 C1205 0.930 . S
C1191 H1179 0.930 . S
C1191 C1192 1.399 . S
C1191 C1196 1.399 . S
C1192 C1191 1.399 . S
C1192 C1193 1.376 . S
C1193 H1180 0.930 . S
C1193 C1192 1.376 . S
C1193 C1194 1.388 . S
C1194 H1181 0.930 . S
C1194 C1193 1.388 . S
C1194 C1195 1.390 . S
C1195 C1194 1.390 . S
C1195 C1196 1.394 . S
C1195 C1201 1.465 . S
C1196 C1191 1.399 . S
C1196 C1195 1.394 . S
C1196 C1197 1.516 . S
C1197 C1196 1.516 . S
C1197 C1198 1.502 . S
C1197 C1199 1.561 . S
C1197 C1200 1.526 . S
C1198 H1182 0.959 . S
C1198 H1183 0.959 . S
C1198 H1184 0.961 . S
C1198 C1197 1.502 . S
C1199 H1185 0.960 . S
C1199 H1186 0.961 . S
C1199 H1187 0.959 . S
C1199 C1197 1.561 . S
C1200 C1197 1.526 . S
C1200 C1201 1.396 . S
C1200 C1205 1.390 . S
C1201 C1195 1.465 . S
C1201 C1200 1.396 . S
C1201 C1202 1.399 . S
C1202 H1188 0.929 . S
C1202 C1201 1.399 . S
C1202 C1203 1.385 . S
C1203 H1189 0.931 . S
C1203 C1202 1.385 . S
C1203 C1204 1.389 . S
C1204 C1203 1.389 . S
C1204 C1205 1.387 . S
C1205 H1190 0.930 . S
C1205 C1200 1.390 . S
C1205 C1204 1.387 . S
C247 C44 1.839 . S
C259 C5 1.990 . S
C274 C57 1.849 . S
C286 C16 1.902 . S
C301 C27 1.896 . S
C313 C66 1.920 . S
C328 C31 1.971 . S
C340 C70 1.917 . S
C355 C1 1.852 . S
C367 C40 1.932 . S
C382 C53 1.924 . S
C394 C23 1.956 . S
C409 C118 1.976 . S
C421 C83 1.960 . S
C436 C94 1.929 . S
C448 C131 1.968 . S
C463 C109 1.966 . S
C475 C144 1.954 . S
C490 C148 1.862 . S
C502 C105 1.897 . S
C517 C122 1.868 . S
C529 C79 1.847 . S
C544 C135 1.831 . S
C556 C101 1.965 . S
C571 C161 1.970 . S
C583 C200 1.924 . S
C598 C172 1.880 . S
C610 C213 1.904 . S
C625 C183 1.907 . S
C637 C222 1.932 . S
C652 C226 1.864 . S
C664 C187 2.000 1_554 S
C679 C196 1.930 . S
C691 C157 1.911 . S
C706 C209 1.964 . S
C718 C179 1.937 1_554 S
C733 C10 1.608 . S
C745 C96 1.600 . S
C760 C14 1.575 . S
C772 C107 1.516 . S
C787 C81 1.384 1_545 S
C799 C29 1.503 . S
C814 C36 1.650 . S
C826 C170 1.621 1_554 S
C841 C185 1.507 1_554 S
C853 C3 1.448 . S
C868 C166 1.606 . S
C880 C18 1.584 . S
C895 C211 1.583 . S
C907 C49 1.575 . S
C922 C62 1.618 . S
C934 C231 1.567 . S
C949 C198 1.531 . S
C961 C68 1.525 . S
C976 C133 1.625 1_545 S
C988 C75 1.529 . S
C1003 C42 1.535 . S
C1015 C146 1.547 . S
C1030 C55 1.537 . S
C1042 C120 1.566 . S
C1057 C88 1.580 1_545 S
C1069 C174 1.569 . S
C1084 C92 1.623 . S
C1096 C192 1.626 . S
C1111 C114 1.555 . S
C1123 C159 1.554 . S
C1138 C218 1.597 . S
C1150 C153 1.620 . S
C1165 C224 1.572 . S
C1177 C127 1.523 . S
C1192 C140 1.588 . S
C1204 C205 1.612 . S
