# Generated by pormake.
# Topology crb, (4)-cn, num edge types: 1
# Building blocks:
#     Node 0, Type 0, BuildingBlock: CEKHIL_clean_sbu_0, # of connection points: 4
#     Node 1, Type 0, BuildingBlock: CEKHIL_clean_sbu_0, # of connection points: 4
#     Node 2, Type 0, BuildingBlock: CEKHIL_clean_sbu_0, # of connection points: 4
#     Node 3, Type 0, BuildingBlock: CEKHIL_clean_sbu_0, # of connection points: 4
#     Node 4, Type 0, BuildingBlock: CEKHIL_clean_sbu_0, # of connection points: 4
#     Node 5, Type 0, BuildingBlock: CEKHIL_clean_sbu_0, # of connection points: 4
#     Node 6, Type 0, BuildingBlock: CEKHIL_clean_sbu_0, # of connection points: 4
#     Node 7, Type 0, BuildingBlock: CEKHIL_clean_sbu_0, # of connection points: 4
#     Edge 8, Type (0, 0), BuildingBlock: CIFDUS_clean_linker_0, # of connection points: 2
#     Edge 9, Type (0, 0), BuildingBlock: CIFDUS_clean_linker_0, # of connection points: 2
#     Edge 10, Type (0, 0), BuildingBlock: CIFDUS_clean_linker_0, # of connection points: 2
#     Edge 11, Type (0, 0), BuildingBlock: CIFDUS_clean_linker_0, # of connection points: 2
#     Edge 12, Type (0, 0), BuildingBlock: CIFDUS_clean_linker_0, # of connection points: 2
#     Edge 13, Type (0, 0), BuildingBlock: CIFDUS_clean_linker_0, # of connection points: 2
#     Edge 14, Type (0, 0), BuildingBlock: CIFDUS_clean_linker_0, # of connection points: 2
#     Edge 15, Type (0, 0), BuildingBlock: CIFDUS_clean_linker_0, # of connection points: 2
#     Edge 16, Type (0, 0), BuildingBlock: CIFDUS_clean_linker_0, # of connection points: 2
#     Edge 17, Type (0, 0), BuildingBlock: CIFDUS_clean_linker_0, # of connection points: 2
#     Edge 18, Type (0, 0), BuildingBlock: CIFDUS_clean_linker_0, # of connection points: 2
#     Edge 19, Type (0, 0), BuildingBlock: CIFDUS_clean_linker_0, # of connection points: 2
#     Edge 20, Type (0, 0), BuildingBlock: CIFDUS_clean_linker_0, # of connection points: 2
#     Edge 21, Type (0, 0), BuildingBlock: CIFDUS_clean_linker_0, # of connection points: 2
#     Edge 22, Type (0, 0), BuildingBlock: CIFDUS_clean_linker_0, # of connection points: 2
#     Edge 23, Type (0, 0), BuildingBlock: CIFDUS_clean_linker_0, # of connection points: 2
# Relax obj value: 0.118
# Max RMSD: 0.159
# Mean RMSD: 0.159
data_MOF--net-crb--node1-CEKHIL_clean_sbu_0--edge1-CIFDUS_clean_linker_0
_symmetry_space_group_name_H-M    P1
_symmetry_Int_Tables_number       1
_symmetry_cell_setting            triclinic
loop_
_symmetry_equiv_pos_as_xyz
'x, y, z'
_cell_length_a     38.416522
_cell_length_b     37.243079
_cell_length_c     20.016775
_cell_angle_alpha  90.27164
_cell_angle_beta   89.960513
_cell_angle_gamma 89.953869
loop_
_atom_site_label
_atom_site_type_symbol
_atom_site_fract_x
_atom_site_fract_y
_atom_site_fract_z
_atom_type_partial_charge
Co0 Co 0.32901 0.34137 0.03222 0.0
O1 O 0.28047 0.33708 0.05787 0.0
O2 O 0.32334 0.30336 0.09661 0.0
C3 C 0.33217 0.40166 0.04451 0.0
O4 O 0.38203 0.33836 0.02443 0.0
Co5 Co 0.35529 0.38332 0.90966 0.0
O6 O 0.40246 0.37624 0.94675 0.0
C7 C 0.32274 0.31236 0.88923 0.0
C8 C 0.29067 0.31217 0.09874 0.0
C9 C 0.40729 0.35408 0.994 0.0
O10 O 0.32104 0.30755 0.95308 0.0
O11 O 0.33387 0.34129 0.86254 0.0
O12 O 0.33473 0.38057 0.09571 0.0
O13 O 0.32538 0.38608 0.98804 0.0
Co14 Co 0.68901 0.33687 0.01738 0.0
O15 O 0.73721 0.33233 0.98909 0.0
O16 O 0.69342 0.29968 0.95048 0.0
C17 C 0.68541 0.39726 0.01085 0.0
O18 O 0.63614 0.33415 0.02786 0.0
Co19 Co 0.66488 0.37617 0.14559 0.0
O20 O 0.61716 0.37053 0.11 0.0
C21 C 0.69951 0.30581 0.15703 0.0
C22 C 0.72627 0.30759 0.94811 0.0
C23 C 0.61146 0.34957 0.06086 0.0
O24 O 0.69819 0.30176 0.09294 0.0
O25 O 0.68938 0.33436 0.18705 0.0
O26 O 0.68252 0.37737 0.95763 0.0
O27 O 0.69324 0.38046 0.06528 0.0
Co28 Co 0.67514 0.67043 0.04383 0.0
O29 O 0.7228 0.67625 0.07356 0.0
O30 O 0.67833 0.70935 0.10804 0.0
C31 C 0.67344 0.61 0.05533 0.0
O32 O 0.62228 0.67186 0.02914 0.0
Co33 Co 0.65526 0.62626 0.91778 0.0
O34 O 0.60643 0.63551 0.94432 0.0
C35 C 0.69299 0.6948 0.90424 0.0
C36 C 0.71127 0.7018 0.11204 0.0
C37 C 0.59894 0.65684 0.99211 0.0
O38 O 0.685 0.7035 0.96498 0.0
O39 O 0.68659 0.66379 0.87938 0.0
O40 O 0.66864 0.63083 0.1068 0.0
O41 O 0.68141 0.6261 1.0005 0.0
Co42 Co 0.32864 0.67549 0.0445 0.0
O43 O 0.28432 0.68295 0.99927 0.0
O44 O 0.33123 0.7167 0.98727 0.0
C45 C 0.33183 0.61572 0.02632 0.0
O46 O 0.37973 0.67601 0.07388 0.0
Co47 Co 0.33991 0.62867 0.1692 0.0
O48 O 0.39028 0.63352 0.15036 0.0
C49 C 0.30662 0.69955 0.18526 0.0
C50 C 0.29933 0.70996 0.97007 0.0
C51 C 0.40082 0.6573 0.1097 0.0
O52 O 0.31255 0.70654 0.12307 0.0
O53 O 0.3141 0.66943 0.21215 0.0
O54 O 0.34042 0.63814 0.97953 0.0
O55 O 0.31929 0.62987 0.08033 0.0
Co56 Co 0.82939 0.83138 0.54501 0.0
O57 O 0.78453 0.82456 0.58891 0.0
O58 O 0.83125 0.79079 0.60388 0.0
C59 C 0.83184 0.89156 0.55967 0.0
O60 O 0.8807 0.8297 0.51703 0.0
Co61 Co 0.84404 0.87712 0.42 0.0
O62 O 0.89268 0.87738 0.45341 0.0
C63 C 0.80939 0.80658 0.40455 0.0
C64 C 0.7991 0.79758 0.61913 0.0
C65 C 0.90252 0.85168 0.49056 0.0
O66 O 0.81402 0.79978 0.4672 0.0
O67 O 0.81832 0.83621 0.37732 0.0
O68 O 0.84026 0.87018 0.60835 0.0
O69 O 0.8206 0.87613 0.50606 0.0
Co70 Co 0.17898 0.84149 0.54975 0.0
O71 O 0.2267 0.83297 0.52159 0.0
O72 O 0.18061 0.80528 0.47996 0.0
C73 C 0.18193 0.90226 0.54883 0.0
O74 O 0.12576 0.84356 0.56064 0.0
Co75 Co 0.15776 0.88268 0.67928 0.0
O76 O 0.11271 0.8882 0.63235 0.0
C77 C 0.19169 0.81125 0.6867 0.0
C78 C 0.21407 0.81008 0.47879 0.0
C79 C 0.10405 0.86608 0.58664 0.0
O80 O 0.18522 0.80483 0.62431 0.0
O81 O 0.18519 0.84141 0.71501 0.0
O82 O 0.1768 0.88464 0.49341 0.0
O83 O 0.18714 0.88278 0.6008 0.0
Co84 Co 0.18377 0.17721 0.5313 0.0
O85 O 0.22971 0.185 0.57154 0.0
O86 O 0.18108 0.21212 0.60186 0.0
C87 C 0.18547 0.11651 0.52888 0.0
O88 O 0.13153 0.17649 0.5134 0.0
Co89 Co 0.16485 0.13958 0.39815 0.0
O90 O 0.11613 0.1391 0.43061 0.0
C91 C 0.19663 0.21205 0.39639 0.0
C92 C 0.2139 0.20695 0.61254 0.0
C93 C 0.10837 0.15927 0.47982 0.0
O94 O 0.19371 0.21514 0.46062 0.0
O95 O 0.1883 0.18365 0.364 0.0
O96 O 0.17826 0.13347 0.58418 0.0
O97 O 0.19328 0.13642 0.47852 0.0
Co98 Co 0.82618 0.16463 0.51599 0.0
O99 O 0.77772 0.16969 0.48954 0.0
O100 O 0.82169 0.20105 0.44852 0.0
C101 C 0.82866 0.10409 0.51116 0.0
O102 O 0.87918 0.1668 0.5234 0.0
Co103 Co 0.85206 0.12665 0.64335 0.0
O104 O 0.89929 0.13106 0.60468 0.0
C105 C 0.81714 0.19696 0.65525 0.0
C106 C 0.78871 0.19376 0.44759 0.0
C107 C 0.90429 0.15141 0.55473 0.0
O108 O 0.81824 0.2007 0.59114 0.0
O109 O 0.82747 0.16858 0.68507 0.0
O110 O 0.8313 0.1232 0.45722 0.0
O111 O 0.82197 0.12177 0.56547 0.0
H112 H 0.33872 0.45152 0.94574 0.0
H113 H 0.33119 0.44038 0.15978 0.0
H114 H 0.33129 0.50549 0.17304 0.0
H115 H 0.33099 0.56563 0.12395 0.0
H116 H 0.34075 0.57761 0.91058 0.0
H117 H 0.34252 0.51225 0.89694 0.0
C118 C 0.33727 0.4634 0.99524 0.0
C119 C 0.33466 0.44113 0.05163 0.0
C120 C 0.33766 0.50101 1.00264 0.0
C121 C 0.33317 0.45688 0.11552 0.0
C122 C 0.33314 0.49415 0.1232 0.0
C123 C 0.33366 0.55395 0.07447 0.0
C124 C 0.33543 0.57638 0.01832 0.0
C125 C 0.33497 0.51646 0.06712 0.0
C126 C 0.3393 0.56087 0.95461 0.0
C127 C 0.34021 0.52351 0.94677 0.0
H128 H 0.46543 0.34829 0.91765 0.0
H129 H 0.42979 0.34615 0.12184 0.0
H130 H 0.49006 0.34326 0.16123 0.0
H131 H 0.55309 0.34572 0.13743 0.0
H132 H 0.58851 0.34329 0.93301 0.0
H133 H 0.52823 0.34323 0.89373 0.0
C134 C 0.47094 0.3468 0.97071 0.0
C135 C 0.44334 0.34777 0.01687 0.0
C136 C 0.50559 0.34444 0.99287 0.0
C137 C 0.45067 0.34535 0.08543 0.0
C138 C 0.4851 0.34389 0.10795 0.0
C139 C 0.54752 0.34477 0.08433 0.0
C140 C 0.57513 0.34482 0.03813 0.0
C141 C 0.51279 0.34407 0.06215 0.0
C142 C 0.56766 0.34314 0.96949 0.0
C143 C 0.53322 0.34331 0.94701 0.0
H144 H 0.67949 0.44372 0.11612 0.0
H145 H 0.68002 0.43921 0.90062 0.0
H146 H 0.67487 0.50443 0.8956 0.0
H147 H 0.67281 0.56288 0.95197 0.0
H148 H 0.67092 0.56814 0.16725 0.0
H149 H 0.67367 0.50252 0.17284 0.0
C150 C 0.67835 0.45704 0.06811 0.0
C151 C 0.68044 0.43665 0.00882 0.0
C152 C 0.67514 0.49467 0.06554 0.0
C153 C 0.67856 0.45425 0.94699 0.0
C154 C 0.67565 0.49158 0.94404 0.0
C155 C 0.67277 0.54969 1.00016 0.0
C156 C 0.67191 0.57035 0.05912 0.0
C157 C 0.6743 0.51206 1.00293 0.0
C158 C 0.67157 0.55283 0.12112 0.0
C159 C 0.67328 0.51532 0.12434 0.0
H160 H 0.43545 0.67275 0.99517 0.0
H161 H 0.45161 0.65118 0.20424 0.0
H162 H 0.51474 0.65322 0.18785 0.0
H163 H 0.56554 0.65656 0.11208 0.0
H164 H 0.54867 0.67131 0.90119 0.0
H165 H 0.48597 0.67685 0.92 0.0
C166 C 0.45283 0.66909 0.03729 0.0
C167 C 0.43889 0.66208 0.10091 0.0
C168 C 0.48909 0.66889 0.02695 0.0
C169 C 0.46172 0.65664 0.15479 0.0
C170 C 0.49783 0.65777 0.14541 0.0
C171 C 0.54809 0.66158 0.07058 0.0
C172 C 0.56163 0.66383 1.00543 0.0
C173 C 0.51185 0.66323 0.08148 0.0
C174 C 0.53877 0.66957 0.95177 0.0
C175 C 0.50293 0.67267 0.9625 0.0
H176 H 0.83238 0.93762 0.45604 0.0
H177 H 0.83913 0.9343 0.67095 0.0
H178 H 0.83965 1.00018 0.67525 0.0
H179 H 0.83513 0.0587 0.61737 0.0
H180 H 0.83013 0.0606 0.40197 0.0
H181 H 0.83213 0.99519 0.39843 0.0
C182 C 0.83419 0.95122 0.50391 0.0
C183 C 0.83541 0.93111 0.56316 0.0
C184 C 0.83464 0.98886 0.50584 0.0
C185 C 0.83814 0.9492 0.62465 0.0
C186 C 0.8383 0.98684 0.62709 0.0
C187 C 0.83464 0.04476 0.56971 0.0
C188 C 0.83216 0.06451 0.51001 0.0
C189 C 0.83607 0.00696 0.56797 0.0
C190 C 0.83194 0.04609 0.44862 0.0
C191 C 0.83302 0.00866 0.44653 0.0
H192 H 0.05783 0.81089 0.56831 0.0
H193 H 0.06919 0.92557 0.55042 0.0
H194 H 0.00868 0.93094 0.51434 0.0
H195 H 0.95178 0.90366 0.49288 0.0
H196 H 0.93788 0.78987 0.52086 0.0
H197 H 0.99978 0.78342 0.54798 0.0
C198 C 0.04699 0.8369 0.55585 0.0
C199 C 0.06786 0.86779 0.56164 0.0
C200 C 0.01164 0.83996 0.53735 0.0
C201 C 0.05351 0.90147 0.54642 0.0
C202 C 0.01894 0.90455 0.52579 0.0
C203 C 0.96236 0.87737 0.50423 0.0
C204 C 0.94028 0.84726 0.50431 0.0
C205 C 0.99765 0.87408 0.52179 0.0
C206 C 0.95431 0.81349 0.52041 0.0
C207 C 0.98972 0.80979 0.53589 0.0
H208 H 0.17876 0.06669 0.62721 0.0
H209 H 0.18615 0.07768 0.41324 0.0
H210 H 0.18368 0.01264 0.39962 0.0
H211 H 0.18169 0.95202 0.44876 0.0
H212 H 0.17747 0.94148 0.66321 0.0
H213 H 0.17622 0.00641 0.67609 0.0
C214 C 0.17961 0.05483 0.57764 0.0
C215 C 0.18263 0.07704 0.52147 0.0
C216 C 0.17881 0.01727 0.5701 0.0
C217 C 0.1839 0.06124 0.45749 0.0
C218 C 0.18249 0.02397 0.44955 0.0
C219 C 0.18025 0.96399 0.49818 0.0
C220 C 0.1796 0.94184 0.55477 0.0
C221 C 0.18027 1.00164 0.50552 0.0
C222 C 0.17799 0.95779 0.61861 0.0
C223 C 0.17731 0.99503 0.62619 0.0
H224 H 0.96341 0.1569 0.62816 0.0
H225 H 0.92566 0.15633 0.42545 0.0
H226 H 0.98549 0.15867 0.38339 0.0
H227 H 0.04898 0.1583 0.40464 0.0
H228 H 0.086 0.16402 0.60778 0.0
H229 H 0.02625 0.16241 0.64926 0.0
C230 C 0.96835 0.15753 0.57481 0.0
C231 C 0.94027 0.15618 0.52995 0.0
C232 C 1.00274 0.1597 0.55108 0.0
C233 C 0.94691 0.15748 0.46095 0.0
C234 C 0.98111 0.15864 0.43688 0.0
C235 C 0.04385 0.15941 0.4579 0.0
C236 C 0.07183 0.16106 0.50308 0.0
C237 C 0.00928 0.15936 0.48148 0.0
C238 C 0.06488 0.16291 0.57198 0.0
C239 C 0.03072 0.16183 0.59579 0.0
H240 H 0.17665 0.23634 0.27544 0.0
H241 H 0.25592 0.24919 0.42585 0.0
H242 H 0.29252 0.28172 0.34598 0.0
H243 H 0.30438 0.30038 0.22947 0.0
H244 H 0.22359 0.2906 0.08127 0.0
H245 H 0.18513 0.2626 0.16383 0.0
C246 C 0.20154 0.24719 0.29121 0.0
C247 C 0.21361 0.24043 0.35641 0.0
C248 C 0.22243 0.26553 0.24488 0.0
C249 C 0.24588 0.25451 0.37629 0.0
C250 C 0.26701 0.2726 0.33028 0.0
C251 C 0.27829 0.29214 0.2155 0.0
C252 C 0.26698 0.29665 0.14914 0.0
C253 C 0.25602 0.27715 0.26383 0.0
C254 C 0.23289 0.2869 0.13186 0.0
C255 C 0.21094 0.27103 0.17908 0.0
H256 H 0.681 0.2852 0.28211 0.0
H257 H 0.75597 0.2646 0.12613 0.0
H258 H 0.79006 0.22731 0.20247 0.0
H259 H 0.80114 0.2051 0.31662 0.0
H260 H 0.72411 0.22168 0.47025 0.0
H261 H 0.68809 0.25608 0.39199 0.0
C262 C 0.70449 0.272 0.26458 0.0
C263 C 0.71611 0.27782 0.19871 0.0
C264 C 0.72374 0.25033 0.30859 0.0
C265 C 0.74639 0.26035 0.1764 0.0
C266 C 0.76605 0.23931 0.22024 0.0
C267 C 0.77629 0.21604 0.33262 0.0
C268 C 0.76539 0.21145 0.39916 0.0
C269 C 0.75542 0.23487 0.28688 0.0
C270 C 0.73297 0.22506 0.41926 0.0
C271 C 0.71248 0.24475 0.37459 0.0
H272 H 0.82291 0.79018 0.27512 0.0
H273 H 0.75294 0.76568 0.43699 0.0
H274 H 0.71561 0.73164 0.36018 0.0
H275 H 0.70098 0.71222 0.24481 0.0
H276 H 0.7738 0.73231 0.08559 0.0
H277 H 0.81187 0.76496 0.16309 0.0
C278 C 0.79977 0.77688 0.29372 0.0
C279 C 0.79059 0.78053 0.36155 0.0
C280 C 0.77872 0.75709 0.24944 0.0
C281 C 0.76069 0.76299 0.38515 0.0
C282 C 0.73917 0.74385 0.34109 0.0
C283 C 0.72523 0.7238 0.22739 0.0
C284 C 0.73442 0.7206 0.15955 0.0
C285 C 0.74755 0.74136 0.27283 0.0
C286 C 0.76619 0.73482 0.13753 0.0
C287 C 0.78792 0.75339 0.18182 0.0
H288 H 0.20227 0.79874 0.34636 0.0
H289 H 0.27667 0.77876 0.50285 0.0
H290 H 0.31291 0.74411 0.42496 0.0
H291 H 0.32181 0.71688 0.31362 0.0
H292 H 0.25052 0.74136 0.15407 0.0
H293 H 0.21498 0.77741 0.23116 0.0
C294 C 0.22649 0.78683 0.36314 0.0
C295 C 0.23659 0.79071 0.43046 0.0
C296 C 0.24778 0.768 0.31738 0.0
C297 C 0.26833 0.7759 0.4514 0.0
C298 C 0.28902 0.75611 0.40688 0.0
C299 C 0.29877 0.7306 0.29557 0.0
C300 C 0.28869 0.72636 0.22832 0.0
C301 C 0.27883 0.75168 0.33994 0.0
C302 C 0.25894 0.74445 0.20542 0.0
C303 C 0.23847 0.76478 0.24967 0.0
H304 H 0.24506 0.82551 0.76703 0.0
H305 H 0.17968 0.73829 0.70175 0.0
H306 H 0.20647 0.6988 0.78596 0.0
H307 H 0.24722 0.69059 0.88252 0.0
H308 H 0.31307 0.7791 0.94152 0.0
H309 H 0.28701 0.81678 0.85607 0.0
C310 C 0.23681 0.79772 0.77083 0.0
C311 C 0.21033 0.78483 0.72868 0.0
C312 C 0.25212 0.77564 0.81898 0.0
C313 C 0.20019 0.74872 0.73344 0.0
C314 C 0.21529 0.72633 0.782 0.0
C315 C 0.25559 0.7182 0.87673 0.0
C316 C 0.28178 0.7322 0.91893 0.0
C317 C 0.24093 0.73972 0.82594 0.0
C318 C 0.29291 0.76774 0.91003 0.0
C319 C 0.27809 0.78931 0.86104 0.0
H320 H 0.25684 0.28777 0.87872 0.0
H321 H 0.35885 0.2776 0.79182 0.0
H322 H 0.33502 0.24159 0.69971 0.0
H323 H 0.28383 0.21762 0.63812 0.0
H324 H 0.18139 0.23347 0.72192 0.0
H325 H 0.20639 0.26242 0.81978 0.0
C326 C 0.27388 0.27675 0.84053 0.0
C327 C 0.30958 0.28457 0.84265 0.0
C328 C 0.25971 0.25763 0.78604 0.0
C329 C 0.33133 0.27128 0.79169 0.0
C330 C 0.31764 0.25101 0.7387 0.0
C331 C 0.26709 0.22723 0.67803 0.0
C332 C 0.23074 0.22357 0.6721 0.0
C333 C 0.28167 0.24477 0.73429 0.0
C334 C 0.20943 0.23627 0.72443 0.0
C335 C 0.2237 0.25274 0.78086 0.0
H336 H 0.71371 0.29565 0.817 0.0
H337 H 0.79113 0.28055 0.96992 0.0
H338 H 0.82776 0.24695 0.8909 0.0
H339 H 0.83544 0.21813 0.78043 0.0
H340 H 0.76013 0.23733 0.62501 0.0
H341 H 0.72528 0.27381 0.70221 0.0
C342 C 0.73874 0.28515 0.83268 0.0
C343 C 0.74959 0.28993 0.89926 0.0
C344 C 0.76001 0.26685 0.78644 0.0
C345 C 0.78228 0.27696 0.91895 0.0
C346 C 0.80314 0.25776 0.87381 0.0
C347 C 0.81172 0.23089 0.76319 0.0
C348 C 0.80025 0.22489 0.69721 0.0
C349 C 0.79201 0.25206 0.80772 0.0
C350 C 0.76963 0.24176 0.67533 0.0
C351 C 0.74952 0.26231 0.71969 0.0
H352 H 0.7398 0.67845 0.80942 0.0
H353 H 0.68673 0.76879 0.89832 0.0
H354 H 0.71336 0.80894 0.81533 0.0
H355 H 0.75135 0.81764 0.71491 0.0
H356 H 0.80631 0.72627 0.63368 0.0
H357 H 0.77893 0.68713 0.71549 0.0
C358 C 0.73401 0.70697 0.81085 0.0
C359 C 0.71105 0.72056 0.85958 0.0
C360 C 0.74954 0.72961 0.76372 0.0
C361 C 0.70439 0.75766 0.86142 0.0
C362 C 0.71943 0.78053 0.81366 0.0
C363 C 0.75698 0.78911 0.71505 0.0
C364 C 0.7805 0.77472 0.66779 0.0
C365 C 0.74184 0.76672 0.76402 0.0
C366 C 0.78822 0.7379 0.6693 0.0
C367 C 0.77264 0.71551 0.71616 0.0
loop_
_geom_bond_atom_site_label_1
_geom_bond_atom_site_label_2
_geom_bond_distance
_geom_bond_site_symmetry_2
_ccdc_geom_bond_type
Co0 O1 2.216 . S
Co0 O2 2.091 . S
Co0 O4 2.004 . S
Co0 O10 2.021 1_554 S
Co0 O12 2.137 . S
Co0 O13 2.244 . S
O1 Co0 2.216 . S
O1 C8 1.247 . S
O2 Co0 2.091 . S
O2 C8 1.261 . S
C3 O12 1.247 . S
C3 O13 1.272 . S
O4 Co0 2.004 . S
O4 C9 1.259 . S
Co5 O6 2.061 . S
Co5 O11 2.052 . S
Co5 O13 2.135 1_556 S
O6 Co5 2.061 . S
O6 C9 1.235 1_556 S
C7 O10 1.238 . S
C7 O11 1.241 . S
C8 O1 1.247 . S
C8 O2 1.261 . S
C9 O4 1.259 . S
C9 O6 1.235 1_554 S
O10 Co0 2.021 1_556 S
O10 C7 1.238 . S
O11 Co5 2.052 . S
O11 C7 1.241 . S
O12 Co0 2.137 . S
O12 C3 1.247 . S
O13 Co0 2.244 . S
O13 C3 1.272 . S
O13 Co5 2.135 1_554 S
Co14 O15 2.216 . S
Co14 O16 2.091 . S
Co14 O18 2.004 . S
Co14 O24 2.021 1_556 S
Co14 O26 2.137 . S
Co14 O27 2.244 1_556 S
O15 Co14 2.216 . S
O15 C22 1.247 . S
O16 Co14 2.091 . S
O16 C22 1.261 . S
C17 O26 1.247 . S
C17 O27 1.272 1_556 S
O18 Co14 2.004 . S
O18 C23 1.259 1_556 S
Co19 O20 2.061 . S
Co19 O25 2.052 . S
Co19 O27 2.135 . S
O20 Co19 2.061 . S
O20 C23 1.235 . S
C21 O24 1.238 . S
C21 O25 1.241 . S
C22 O15 1.247 . S
C22 O16 1.261 . S
C23 O18 1.259 1_554 S
C23 O20 1.235 . S
O24 Co14 2.021 1_554 S
O24 C21 1.238 . S
O25 Co19 2.052 . S
O25 C21 1.241 . S
O26 Co14 2.137 . S
O26 C17 1.247 . S
O27 Co14 2.244 1_554 S
O27 C17 1.272 1_554 S
O27 Co19 2.135 . S
Co28 O29 2.216 . S
Co28 O30 2.091 . S
Co28 O32 2.004 . S
Co28 O38 2.021 1_554 S
Co28 O40 2.137 . S
Co28 O41 2.244 . S
O29 Co28 2.216 . S
O29 C36 1.247 . S
O30 Co28 2.091 . S
O30 C36 1.261 . S
C31 O40 1.247 . S
C31 O41 1.272 . S
O32 Co28 2.004 . S
O32 C37 1.259 . S
Co33 O34 2.061 . S
Co33 O39 2.052 . S
Co33 O41 2.135 1_556 S
O34 Co33 2.061 . S
O34 C37 1.235 1_556 S
C35 O38 1.238 . S
C35 O39 1.241 . S
C36 O29 1.247 . S
C36 O30 1.261 . S
C37 O32 1.259 . S
C37 O34 1.235 1_554 S
O38 Co28 2.021 1_556 S
O38 C35 1.238 . S
O39 Co33 2.052 . S
O39 C35 1.241 . S
O40 Co28 2.137 . S
O40 C31 1.247 . S
O41 Co28 2.244 . S
O41 C31 1.272 . S
O41 Co33 2.135 1_554 S
Co42 O43 2.216 . S
Co42 O44 2.091 . S
Co42 O46 2.004 . S
Co42 O52 2.021 1_556 S
Co42 O54 2.137 . S
Co42 O55 2.244 1_556 S
O43 Co42 2.216 . S
O43 C50 1.247 . S
O44 Co42 2.091 . S
O44 C50 1.261 . S
C45 O54 1.247 . S
C45 O55 1.272 1_556 S
O46 Co42 2.004 . S
O46 C51 1.259 1_556 S
Co47 O48 2.061 . S
Co47 O53 2.052 . S
Co47 O55 2.135 . S
O48 Co47 2.061 . S
O48 C51 1.235 . S
C49 O52 1.238 . S
C49 O53 1.241 . S
C50 O43 1.247 . S
C50 O44 1.261 . S
C51 O46 1.259 1_554 S
C51 O48 1.235 . S
O52 Co42 2.021 1_554 S
O52 C49 1.238 . S
O53 Co47 2.052 . S
O53 C49 1.241 . S
O54 Co42 2.137 . S
O54 C45 1.247 . S
O55 Co42 2.244 1_554 S
O55 C45 1.272 1_554 S
O55 Co47 2.135 . S
Co56 O57 2.216 . S
Co56 O58 2.091 . S
Co56 O60 2.004 . S
Co56 O66 2.021 . S
Co56 O68 2.137 . S
Co56 O69 2.244 . S
O57 Co56 2.216 . S
O57 C64 1.247 . S
O58 Co56 2.091 . S
O58 C64 1.261 . S
C59 O68 1.247 . S
C59 O69 1.272 . S
O60 Co56 2.004 . S
O60 C65 1.259 . S
Co61 O62 2.061 . S
Co61 O67 2.052 . S
Co61 O69 2.135 . S
O62 Co61 2.061 . S
O62 C65 1.235 . S
C63 O66 1.238 . S
C63 O67 1.241 . S
C64 O57 1.247 . S
C64 O58 1.261 . S
C65 O60 1.259 . S
C65 O62 1.235 . S
O66 Co56 2.021 . S
O66 C63 1.238 . S
O67 Co61 2.052 . S
O67 C63 1.241 . S
O68 Co56 2.137 . S
O68 C59 1.247 . S
O69 Co56 2.244 . S
O69 C59 1.272 . S
O69 Co61 2.135 . S
Co70 O71 2.216 . S
Co70 O72 2.091 . S
Co70 O74 2.004 . S
Co70 O80 2.021 . S
Co70 O82 2.137 . S
Co70 O83 2.244 . S
O71 Co70 2.216 . S
O71 C78 1.247 . S
O72 Co70 2.091 . S
O72 C78 1.261 . S
C73 O82 1.247 . S
C73 O83 1.272 . S
O74 Co70 2.004 . S
O74 C79 1.259 . S
Co75 O76 2.061 . S
Co75 O81 2.052 . S
Co75 O83 2.135 . S
O76 Co75 2.061 . S
O76 C79 1.235 . S
C77 O80 1.238 . S
C77 O81 1.241 . S
C78 O71 1.247 . S
C78 O72 1.261 . S
C79 O74 1.259 . S
C79 O76 1.235 . S
O80 Co70 2.021 . S
O80 C77 1.238 . S
O81 Co75 2.052 . S
O81 C77 1.241 . S
O82 Co70 2.137 . S
O82 C73 1.247 . S
O83 Co70 2.244 . S
O83 C73 1.272 . S
O83 Co75 2.135 . S
Co84 O85 2.216 . S
Co84 O86 2.091 . S
Co84 O88 2.004 . S
Co84 O94 2.021 . S
Co84 O96 2.137 . S
Co84 O97 2.244 . S
O85 Co84 2.216 . S
O85 C92 1.247 . S
O86 Co84 2.091 . S
O86 C92 1.261 . S
C87 O96 1.247 . S
C87 O97 1.272 . S
O88 Co84 2.004 . S
O88 C93 1.259 . S
Co89 O90 2.061 . S
Co89 O95 2.052 . S
Co89 O97 2.135 . S
O90 Co89 2.061 . S
O90 C93 1.235 . S
C91 O94 1.238 . S
C91 O95 1.241 . S
C92 O85 1.247 . S
C92 O86 1.261 . S
C93 O88 1.259 . S
C93 O90 1.235 . S
O94 Co84 2.021 . S
O94 C91 1.238 . S
O95 Co89 2.052 . S
O95 C91 1.241 . S
O96 Co84 2.137 . S
O96 C87 1.247 . S
O97 Co84 2.244 . S
O97 C87 1.272 . S
O97 Co89 2.135 . S
Co98 O99 2.216 . S
Co98 O100 2.091 . S
Co98 O102 2.004 . S
Co98 O108 2.021 . S
Co98 O110 2.137 . S
Co98 O111 2.244 . S
O99 Co98 2.216 . S
O99 C106 1.247 . S
O100 Co98 2.091 . S
O100 C106 1.261 . S
C101 O110 1.247 . S
C101 O111 1.272 . S
O102 Co98 2.004 . S
O102 C107 1.259 . S
Co103 O104 2.061 . S
Co103 O109 2.052 . S
Co103 O111 2.135 . S
O104 Co103 2.061 . S
O104 C107 1.235 . S
C105 O108 1.238 . S
C105 O109 1.241 . S
C106 O99 1.247 . S
C106 O100 1.261 . S
C107 O102 1.259 . S
C107 O104 1.235 . S
O108 Co98 2.021 . S
O108 C105 1.238 . S
O109 Co103 2.052 . S
O109 C105 1.241 . S
O110 Co98 2.137 . S
O110 C101 1.247 . S
O111 Co98 2.244 . S
O111 C101 1.272 . S
O111 Co103 2.135 . S
H112 C118 0.930 . S
H113 C121 0.930 . S
H114 C122 0.930 . S
H115 C123 0.930 1_556 S
H116 C126 0.930 . S
H117 C127 0.930 . S
C118 H112 0.930 . S
C118 C119 1.355 . S
C118 C120 1.415 . S
C119 C118 1.355 . S
C119 C121 1.419 . S
C120 C118 1.415 . S
C120 C125 1.425 . S
C120 C127 1.409 . S
C121 H113 0.930 . S
C121 C119 1.419 . S
C121 C122 1.362 . S
C122 H114 0.930 . S
C122 C121 1.362 . S
C122 C125 1.409 . S
C123 H115 0.930 1_554 S
C123 C124 1.355 . S
C123 C125 1.415 . S
C124 C123 1.355 . S
C124 C126 1.419 . S
C125 C120 1.425 . S
C125 C122 1.409 . S
C125 C123 1.415 . S
C126 H116 0.930 . S
C126 C124 1.419 . S
C126 C127 1.362 . S
C127 H117 0.930 . S
C127 C120 1.409 . S
C127 C126 1.362 . S
H128 C134 0.930 . S
H129 C137 0.930 . S
H130 C138 0.930 . S
H131 C139 0.930 . S
H132 C142 0.930 . S
H133 C143 0.930 . S
C134 H128 0.930 . S
C134 C135 1.355 1_556 S
C134 C136 1.415 . S
C135 C134 1.355 1_554 S
C135 C137 1.419 . S
C136 C134 1.415 . S
C136 C141 1.425 1_556 S
C136 C143 1.409 . S
C137 H129 0.930 . S
C137 C135 1.419 . S
C137 C138 1.362 . S
C138 H130 0.930 . S
C138 C137 1.362 . S
C138 C141 1.409 . S
C139 H131 0.930 . S
C139 C140 1.355 . S
C139 C141 1.415 . S
C140 C139 1.355 . S
C140 C142 1.419 1_554 S
C141 C136 1.425 1_554 S
C141 C138 1.409 . S
C141 C139 1.415 . S
C142 H132 0.930 . S
C142 C140 1.419 1_556 S
C142 C143 1.362 . S
C143 H133 0.930 . S
C143 C136 1.409 . S
C143 C142 1.362 . S
H144 C150 0.932 . S
H145 C153 0.930 . S
H146 C154 0.930 . S
H147 C155 0.930 . S
H148 C158 0.930 . S
H149 C159 0.930 . S
C150 H144 0.932 . S
C150 C151 1.354 1_556 S
C150 C152 1.412 1_556 S
C151 C150 1.354 1_554 S
C151 C153 1.419 . S
C152 C150 1.412 1_554 S
C152 C157 1.425 . S
C152 C159 1.409 . S
C153 H145 0.930 . S
C153 C151 1.419 . S
C153 C154 1.362 . S
C154 H146 0.930 . S
C154 C153 1.362 . S
C154 C157 1.409 . S
C155 H147 0.930 . S
C155 C156 1.355 . S
C155 C157 1.415 . S
C156 C155 1.355 . S
C156 C158 1.419 . S
C157 C152 1.425 . S
C157 C154 1.409 . S
C157 C155 1.415 . S
C158 H148 0.930 . S
C158 C156 1.419 . S
C158 C159 1.362 . S
C159 H149 0.930 . S
C159 C152 1.409 . S
C159 C158 1.362 . S
H160 C166 0.930 . S
H161 C169 0.930 . S
H162 C170 0.930 . S
H163 C171 0.930 . S
H164 C174 0.930 . S
H165 C175 0.930 . S
C166 H160 0.930 . S
C166 C167 1.355 1_556 S
C166 C168 1.415 . S
C167 C166 1.355 1_554 S
C167 C169 1.419 . S
C168 C166 1.415 . S
C168 C173 1.425 1_556 S
C168 C175 1.409 . S
C169 H161 0.930 . S
C169 C167 1.419 . S
C169 C170 1.362 . S
C170 H162 0.930 . S
C170 C169 1.362 . S
C170 C173 1.409 . S
C171 H163 0.930 . S
C171 C172 1.355 . S
C171 C173 1.415 . S
C172 C171 1.355 . S
C172 C174 1.419 1_554 S
C173 C168 1.425 1_554 S
C173 C170 1.409 . S
C173 C171 1.415 . S
C174 H164 0.930 . S
C174 C172 1.419 1_556 S
C174 C175 1.362 . S
C175 H165 0.930 . S
C175 C168 1.409 . S
C175 C174 1.362 . S
H176 C182 0.930 . S
H177 C185 0.930 . S
H178 C186 0.930 . S
H179 C187 0.930 . S
H180 C190 0.930 . S
H181 C191 0.930 . S
C182 H176 0.930 . S
C182 C183 1.355 . S
C182 C184 1.415 . S
C183 C182 1.355 . S
C183 C185 1.419 . S
C184 C182 1.415 . S
C184 C189 1.425 1_565 S
C184 C191 1.409 1_565 S
C185 H177 0.930 . S
C185 C183 1.419 . S
C185 C186 1.362 . S
C186 H178 0.930 . S
C186 C185 1.362 . S
C186 C189 1.409 1_565 S
C187 H179 0.930 . S
C187 C188 1.355 . S
C187 C189 1.415 . S
C188 C187 1.355 . S
C188 C190 1.419 . S
C189 C184 1.425 1_545 S
C189 C186 1.409 1_545 S
C189 C187 1.415 . S
C190 H180 0.930 . S
C190 C188 1.419 . S
C190 C191 1.362 . S
C191 H181 0.930 . S
C191 C184 1.409 1_545 S
C191 C190 1.362 . S
H192 C198 0.930 . S
H193 C201 0.930 . S
H194 C202 0.930 . S
H195 C203 0.930 . S
H196 C206 0.930 . S
H197 C207 0.930 . S
C198 H192 0.930 . S
C198 C199 1.355 . S
C198 C200 1.415 . S
C199 C198 1.355 . S
C199 C201 1.419 . S
C200 C198 1.415 . S
C200 C205 1.425 1_455 S
C200 C207 1.409 1_455 S
C201 H193 0.930 . S
C201 C199 1.419 . S
C201 C202 1.362 . S
C202 H194 0.930 . S
C202 C201 1.362 . S
C202 C205 1.409 1_455 S
C203 H195 0.930 . S
C203 C204 1.355 . S
C203 C205 1.415 . S
C204 C203 1.355 . S
C204 C206 1.419 . S
C205 C200 1.425 1_655 S
C205 C202 1.409 1_655 S
C205 C203 1.415 . S
C206 H196 0.930 . S
C206 C204 1.419 . S
C206 C207 1.362 . S
C207 H197 0.930 . S
C207 C200 1.409 1_655 S
C207 C206 1.362 . S
H208 C214 0.930 . S
H209 C217 0.930 . S
H210 C218 0.930 . S
H211 C219 0.930 . S
H212 C222 0.930 . S
H213 C223 0.930 . S
C214 H208 0.930 . S
C214 C215 1.355 . S
C214 C216 1.415 . S
C215 C214 1.355 . S
C215 C217 1.419 . S
C216 C214 1.415 . S
C216 C221 1.425 1_545 S
C216 C223 1.409 1_545 S
C217 H209 0.930 . S
C217 C215 1.419 . S
C217 C218 1.362 . S
C218 H210 0.930 . S
C218 C217 1.362 . S
C218 C221 1.409 1_545 S
C219 H211 0.930 . S
C219 C220 1.355 . S
C219 C221 1.415 . S
C220 C219 1.355 . S
C220 C222 1.419 . S
C221 C216 1.425 1_565 S
C221 C218 1.409 1_565 S
C221 C219 1.415 . S
C222 H212 0.930 . S
C222 C220 1.419 . S
C222 C223 1.362 . S
C223 H213 0.930 . S
C223 C216 1.409 1_565 S
C223 C222 1.362 . S
H224 C230 0.930 . S
H225 C233 0.930 . S
H226 C234 0.930 . S
H227 C235 0.930 . S
H228 C238 0.930 . S
H229 C239 0.930 . S
C230 H224 0.930 . S
C230 C231 1.355 . S
C230 C232 1.415 . S
C231 C230 1.355 . S
C231 C233 1.419 . S
C232 C230 1.415 . S
C232 C237 1.425 1_655 S
C232 C239 1.409 1_655 S
C233 H225 0.930 . S
C233 C231 1.419 . S
C233 C234 1.362 . S
C234 H226 0.930 . S
C234 C233 1.362 . S
C234 C237 1.409 1_655 S
C235 H227 0.930 . S
C235 C236 1.355 . S
C235 C237 1.415 . S
C236 C235 1.355 . S
C236 C238 1.419 . S
C237 C232 1.425 1_455 S
C237 C234 1.409 1_455 S
C237 C235 1.415 . S
C238 H228 0.930 . S
C238 C236 1.419 . S
C238 C239 1.362 . S
C239 H229 0.930 . S
C239 C232 1.409 1_455 S
C239 C238 1.362 . S
H240 C246 0.930 . S
H241 C249 0.930 . S
H242 C250 0.930 . S
H243 C251 0.930 . S
H244 C254 0.930 . S
H245 C255 0.930 . S
C246 H240 0.930 . S
C246 C247 1.355 . S
C246 C248 1.415 . S
C247 C246 1.355 . S
C247 C249 1.419 . S
C248 C246 1.415 . S
C248 C253 1.425 . S
C248 C255 1.409 . S
C249 H241 0.930 . S
C249 C247 1.419 . S
C249 C250 1.362 . S
C250 H242 0.930 . S
C250 C249 1.362 . S
C250 C253 1.409 . S
C251 H243 0.930 . S
C251 C252 1.355 . S
C251 C253 1.415 . S
C252 C251 1.355 . S
C252 C254 1.419 . S
C253 C248 1.425 . S
C253 C250 1.409 . S
C253 C251 1.415 . S
C254 H244 0.930 . S
C254 C252 1.419 . S
C254 C255 1.362 . S
C255 H245 0.930 . S
C255 C248 1.409 . S
C255 C254 1.362 . S
H256 C262 0.930 . S
H257 C265 0.930 . S
H258 C266 0.930 . S
H259 C267 0.930 . S
H260 C270 0.930 . S
H261 C271 0.930 . S
C262 H256 0.930 . S
C262 C263 1.355 . S
C262 C264 1.415 . S
C263 C262 1.355 . S
C263 C265 1.419 . S
C264 C262 1.415 . S
C264 C269 1.425 . S
C264 C271 1.409 . S
C265 H257 0.930 . S
C265 C263 1.419 . S
C265 C266 1.362 . S
C266 H258 0.930 . S
C266 C265 1.362 . S
C266 C269 1.409 . S
C267 H259 0.930 . S
C267 C268 1.355 . S
C267 C269 1.415 . S
C268 C267 1.355 . S
C268 C270 1.419 . S
C269 C264 1.425 . S
C269 C266 1.409 . S
C269 C267 1.415 . S
C270 H260 0.930 . S
C270 C268 1.419 . S
C270 C271 1.362 . S
C271 H261 0.930 . S
C271 C264 1.409 . S
C271 C270 1.362 . S
H272 C278 0.930 . S
H273 C281 0.930 . S
H274 C282 0.930 . S
H275 C283 0.930 . S
H276 C286 0.930 . S
H277 C287 0.930 . S
C278 H272 0.930 . S
C278 C279 1.355 . S
C278 C280 1.415 . S
C279 C278 1.355 . S
C279 C281 1.419 . S
C280 C278 1.415 . S
C280 C285 1.425 . S
C280 C287 1.409 . S
C281 H273 0.930 . S
C281 C279 1.419 . S
C281 C282 1.362 . S
C282 H274 0.930 . S
C282 C281 1.362 . S
C282 C285 1.409 . S
C283 H275 0.930 . S
C283 C284 1.355 . S
C283 C285 1.415 . S
C284 C283 1.355 . S
C284 C286 1.419 . S
C285 C280 1.425 . S
C285 C282 1.409 . S
C285 C283 1.415 . S
C286 H276 0.930 . S
C286 C284 1.419 . S
C286 C287 1.362 . S
C287 H277 0.930 . S
C287 C280 1.409 . S
C287 C286 1.362 . S
H288 C294 0.930 . S
H289 C297 0.930 . S
H290 C298 0.930 . S
H291 C299 0.930 . S
H292 C302 0.930 . S
H293 C303 0.930 . S
C294 H288 0.930 . S
C294 C295 1.355 . S
C294 C296 1.415 . S
C295 C294 1.355 . S
C295 C297 1.419 . S
C296 C294 1.415 . S
C296 C301 1.425 . S
C296 C303 1.409 . S
C297 H289 0.930 . S
C297 C295 1.419 . S
C297 C298 1.362 . S
C298 H290 0.930 . S
C298 C297 1.362 . S
C298 C301 1.409 . S
C299 H291 0.930 . S
C299 C300 1.355 . S
C299 C301 1.415 . S
C300 C299 1.355 . S
C300 C302 1.419 . S
C301 C296 1.425 . S
C301 C298 1.409 . S
C301 C299 1.415 . S
C302 H292 0.930 . S
C302 C300 1.419 . S
C302 C303 1.362 . S
C303 H293 0.930 . S
C303 C296 1.409 . S
C303 C302 1.362 . S
H304 C310 0.930 . S
H305 C313 0.930 . S
H306 C314 0.930 . S
H307 C315 0.930 . S
H308 C318 0.930 . S
H309 C319 0.930 . S
C310 H304 0.930 . S
C310 C311 1.355 . S
C310 C312 1.415 . S
C311 C310 1.355 . S
C311 C313 1.419 . S
C312 C310 1.415 . S
C312 C317 1.425 . S
C312 C319 1.409 . S
C313 H305 0.930 . S
C313 C311 1.419 . S
C313 C314 1.362 . S
C314 H306 0.930 . S
C314 C313 1.362 . S
C314 C317 1.409 . S
C315 H307 0.930 . S
C315 C316 1.355 . S
C315 C317 1.415 . S
C316 C315 1.355 . S
C316 C318 1.419 . S
C317 C312 1.425 . S
C317 C314 1.409 . S
C317 C315 1.415 . S
C318 H308 0.930 . S
C318 C316 1.419 . S
C318 C319 1.362 . S
C319 H309 0.930 . S
C319 C312 1.409 . S
C319 C318 1.362 . S
H320 C326 0.930 . S
H321 C329 0.930 . S
H322 C330 0.930 . S
H323 C331 0.930 . S
H324 C334 0.930 . S
H325 C335 0.930 . S
C326 H320 0.930 . S
C326 C327 1.355 . S
C326 C328 1.415 . S
C327 C326 1.355 . S
C327 C329 1.419 . S
C328 C326 1.415 . S
C328 C333 1.425 . S
C328 C335 1.409 . S
C329 H321 0.930 . S
C329 C327 1.419 . S
C329 C330 1.362 . S
C330 H322 0.930 . S
C330 C329 1.362 . S
C330 C333 1.409 . S
C331 H323 0.930 . S
C331 C332 1.355 . S
C331 C333 1.415 . S
C332 C331 1.355 . S
C332 C334 1.419 . S
C333 C328 1.425 . S
C333 C330 1.409 . S
C333 C331 1.415 . S
C334 H324 0.930 . S
C334 C332 1.419 . S
C334 C335 1.362 . S
C335 H325 0.930 . S
C335 C328 1.409 . S
C335 C334 1.362 . S
H336 C342 0.930 . S
H337 C345 0.930 . S
H338 C346 0.930 . S
H339 C347 0.930 . S
H340 C350 0.930 . S
H341 C351 0.930 . S
C342 H336 0.930 . S
C342 C343 1.355 . S
C342 C344 1.415 . S
C343 C342 1.355 . S
C343 C345 1.419 . S
C344 C342 1.415 . S
C344 C349 1.425 . S
C344 C351 1.409 . S
C345 H337 0.930 . S
C345 C343 1.419 . S
C345 C346 1.362 . S
C346 H338 0.930 . S
C346 C345 1.362 . S
C346 C349 1.409 . S
C347 H339 0.930 . S
C347 C348 1.355 . S
C347 C349 1.415 . S
C348 C347 1.355 . S
C348 C350 1.419 . S
C349 C344 1.425 . S
C349 C346 1.409 . S
C349 C347 1.415 . S
C350 H340 0.930 . S
C350 C348 1.419 . S
C350 C351 1.362 . S
C351 H341 0.930 . S
C351 C344 1.409 . S
C351 C350 1.362 . S
H352 C358 0.930 . S
H353 C361 0.930 . S
H354 C362 0.930 . S
H355 C363 0.930 . S
H356 C366 0.930 . S
H357 C367 0.930 . S
C358 H352 0.930 . S
C358 C359 1.355 . S
C358 C360 1.415 . S
C359 C358 1.355 . S
C359 C361 1.419 . S
C360 C358 1.415 . S
C360 C365 1.425 . S
C360 C367 1.409 . S
C361 H353 0.930 . S
C361 C359 1.419 . S
C361 C362 1.362 . S
C362 H354 0.930 . S
C362 C361 1.362 . S
C362 C365 1.409 . S
C363 H355 0.930 . S
C363 C364 1.355 . S
C363 C365 1.415 . S
C364 C363 1.355 . S
C364 C366 1.419 . S
C365 C360 1.425 . S
C365 C362 1.409 . S
C365 C363 1.415 . S
C366 H356 0.930 . S
C366 C364 1.419 . S
C366 C367 1.362 . S
C367 H357 0.930 . S
C367 C360 1.409 . S
C367 C366 1.362 . S
C119 C3 1.528 . S
C124 C45 1.538 1_554 S
C135 C9 1.551 . S
C140 C23 1.530 . S
C151 C17 1.547 1_554 S
C156 C31 1.535 . S
C167 C51 1.545 . S
C172 C37 1.559 . S
C183 C59 1.551 . S
C188 C101 1.542 . S
C199 C79 1.529 . S
C204 C65 1.559 . S
C215 C87 1.527 . S
C220 C73 1.525 . S
C231 C107 1.548 . S
C236 C93 1.532 . S
C247 C91 1.469 . S
C252 C8 1.503 . S
C263 C21 1.456 . S
C268 C106 1.503 . S
C279 C63 1.476 . S
C284 C36 1.502 . S
C295 C78 1.498 . S
C300 C49 1.439 . S
C311 C77 1.451 . S
C316 C50 1.473 . S
C327 C7 1.435 . S
C332 C92 1.476 . S
C343 C22 1.488 . S
C348 C105 1.488 . S
C359 C35 1.430 . S
C364 C64 1.479 . S
