# Generated by pormake.
# Topology wia, (6)-cn, num edge types: 1
# Building blocks:
#     Node 0, Type 0, BuildingBlock: KUMBUR_clean_sbu_1, # of connection points: 6
#     Node 1, Type 0, BuildingBlock: KUMBUR_clean_sbu_1, # of connection points: 6
#     Node 2, Type 0, BuildingBlock: KUMBUR_clean_sbu_1, # of connection points: 6
#     Node 3, Type 0, BuildingBlock: KUMBUR_clean_sbu_1, # of connection points: 6
#     Node 4, Type 0, BuildingBlock: KUMBUR_clean_sbu_1, # of connection points: 6
#     Node 5, Type 0, BuildingBlock: KUMBUR_clean_sbu_1, # of connection points: 6
#     Node 6, Type 0, BuildingBlock: KUMBUR_clean_sbu_1, # of connection points: 6
#     Node 7, Type 0, BuildingBlock: KUMBUR_clean_sbu_1, # of connection points: 6
#     Node 8, Type 0, BuildingBlock: KUMBUR_clean_sbu_1, # of connection points: 6
#     Node 9, Type 0, BuildingBlock: KUMBUR_clean_sbu_1, # of connection points: 6
#     Node 10, Type 0, BuildingBlock: KUMBUR_clean_sbu_1, # of connection points: 6
#     Node 11, Type 0, BuildingBlock: KUMBUR_clean_sbu_1, # of connection points: 6
#     Node 12, Type 0, BuildingBlock: KUMBUR_clean_sbu_1, # of connection points: 6
#     Node 13, Type 0, BuildingBlock: KUMBUR_clean_sbu_1, # of connection points: 6
#     Node 14, Type 0, BuildingBlock: KUMBUR_clean_sbu_1, # of connection points: 6
#     Node 15, Type 0, BuildingBlock: KUMBUR_clean_sbu_1, # of connection points: 6
#     Edge 16, Type (0, 0), BuildingBlock: KIFKEQ_clean_linker_1, # of connection points: 2
#     Edge 17, Type (0, 0), BuildingBlock: KIFKEQ_clean_linker_1, # of connection points: 2
#     Edge 18, Type (0, 0), BuildingBlock: KIFKEQ_clean_linker_1, # of connection points: 2
#     Edge 19, Type (0, 0), BuildingBlock: KIFKEQ_clean_linker_1, # of connection points: 2
#     Edge 20, Type (0, 0), BuildingBlock: KIFKEQ_clean_linker_1, # of connection points: 2
#     Edge 21, Type (0, 0), BuildingBlock: KIFKEQ_clean_linker_1, # of connection points: 2
#     Edge 22, Type (0, 0), BuildingBlock: KIFKEQ_clean_linker_1, # of connection points: 2
#     Edge 23, Type (0, 0), BuildingBlock: KIFKEQ_clean_linker_1, # of connection points: 2
#     Edge 24, Type (0, 0), BuildingBlock: KIFKEQ_clean_linker_1, # of connection points: 2
#     Edge 25, Type (0, 0), BuildingBlock: KIFKEQ_clean_linker_1, # of connection points: 2
#     Edge 26, Type (0, 0), BuildingBlock: KIFKEQ_clean_linker_1, # of connection points: 2
#     Edge 27, Type (0, 0), BuildingBlock: KIFKEQ_clean_linker_1, # of connection points: 2
#     Edge 28, Type (0, 0), BuildingBlock: KIFKEQ_clean_linker_1, # of connection points: 2
#     Edge 29, Type (0, 0), BuildingBlock: KIFKEQ_clean_linker_1, # of connection points: 2
#     Edge 30, Type (0, 0), BuildingBlock: KIFKEQ_clean_linker_1, # of connection points: 2
#     Edge 31, Type (0, 0), BuildingBlock: KIFKEQ_clean_linker_1, # of connection points: 2
#     Edge 32, Type (0, 0), BuildingBlock: KIFKEQ_clean_linker_1, # of connection points: 2
#     Edge 33, Type (0, 0), BuildingBlock: KIFKEQ_clean_linker_1, # of connection points: 2
#     Edge 34, Type (0, 0), BuildingBlock: KIFKEQ_clean_linker_1, # of connection points: 2
#     Edge 35, Type (0, 0), BuildingBlock: KIFKEQ_clean_linker_1, # of connection points: 2
#     Edge 36, Type (0, 0), BuildingBlock: KIFKEQ_clean_linker_1, # of connection points: 2
#     Edge 37, Type (0, 0), BuildingBlock: KIFKEQ_clean_linker_1, # of connection points: 2
#     Edge 38, Type (0, 0), BuildingBlock: KIFKEQ_clean_linker_1, # of connection points: 2
#     Edge 39, Type (0, 0), BuildingBlock: KIFKEQ_clean_linker_1, # of connection points: 2
#     Edge 40, Type (0, 0), BuildingBlock: KIFKEQ_clean_linker_1, # of connection points: 2
#     Edge 41, Type (0, 0), BuildingBlock: KIFKEQ_clean_linker_1, # of connection points: 2
#     Edge 42, Type (0, 0), BuildingBlock: KIFKEQ_clean_linker_1, # of connection points: 2
#     Edge 43, Type (0, 0), BuildingBlock: KIFKEQ_clean_linker_1, # of connection points: 2
#     Edge 44, Type (0, 0), BuildingBlock: KIFKEQ_clean_linker_1, # of connection points: 2
#     Edge 45, Type (0, 0), BuildingBlock: KIFKEQ_clean_linker_1, # of connection points: 2
#     Edge 46, Type (0, 0), BuildingBlock: KIFKEQ_clean_linker_1, # of connection points: 2
#     Edge 47, Type (0, 0), BuildingBlock: KIFKEQ_clean_linker_1, # of connection points: 2
#     Edge 48, Type (0, 0), BuildingBlock: KIFKEQ_clean_linker_1, # of connection points: 2
#     Edge 49, Type (0, 0), BuildingBlock: KIFKEQ_clean_linker_1, # of connection points: 2
#     Edge 50, Type (0, 0), BuildingBlock: KIFKEQ_clean_linker_1, # of connection points: 2
#     Edge 51, Type (0, 0), BuildingBlock: KIFKEQ_clean_linker_1, # of connection points: 2
#     Edge 52, Type (0, 0), BuildingBlock: KIFKEQ_clean_linker_1, # of connection points: 2
#     Edge 53, Type (0, 0), BuildingBlock: KIFKEQ_clean_linker_1, # of connection points: 2
#     Edge 54, Type (0, 0), BuildingBlock: KIFKEQ_clean_linker_1, # of connection points: 2
#     Edge 55, Type (0, 0), BuildingBlock: KIFKEQ_clean_linker_1, # of connection points: 2
#     Edge 56, Type (0, 0), BuildingBlock: KIFKEQ_clean_linker_1, # of connection points: 2
#     Edge 57, Type (0, 0), BuildingBlock: KIFKEQ_clean_linker_1, # of connection points: 2
#     Edge 58, Type (0, 0), BuildingBlock: KIFKEQ_clean_linker_1, # of connection points: 2
#     Edge 59, Type (0, 0), BuildingBlock: KIFKEQ_clean_linker_1, # of connection points: 2
#     Edge 60, Type (0, 0), BuildingBlock: KIFKEQ_clean_linker_1, # of connection points: 2
#     Edge 61, Type (0, 0), BuildingBlock: KIFKEQ_clean_linker_1, # of connection points: 2
#     Edge 62, Type (0, 0), BuildingBlock: KIFKEQ_clean_linker_1, # of connection points: 2
#     Edge 63, Type (0, 0), BuildingBlock: KIFKEQ_clean_linker_1, # of connection points: 2
# Relax obj value: 0.497
# Max RMSD: 0.296
# Mean RMSD: 0.233
data_MOF--net-wia--node1-KUMBUR_clean_sbu_1--edge1-KIFKEQ_clean_linker_1
_symmetry_space_group_name_H-M    P1
_symmetry_Int_Tables_number       1
_symmetry_cell_setting            triclinic
loop_
_symmetry_equiv_pos_as_xyz
'x, y, z'
_cell_length_a     32.128824
_cell_length_b     32.116581
_cell_length_c     89.082109
_cell_angle_alpha  105.13622
_cell_angle_beta   88.962256
_cell_angle_gamma 99.034438
loop_
_atom_site_label
_atom_site_type_symbol
_atom_site_fract_x
_atom_site_fract_y
_atom_site_fract_z
_atom_type_partial_charge
Tb0 Tb 0.09555 0.67114 0.20362 0.0
C1 C 1.007 0.57291 0.14046 0.0
N2 N 0.04627 0.57031 0.14511 0.0
C3 C 1.03139 0.49202 0.13579 0.0
C4 C 0.97743 0.53515 0.13418 0.0
C5 C 0.0597 0.53056 0.14162 0.0
C6 C 0.98966 0.49428 0.13245 0.0
C7 C 0.95973 0.61785 0.13409 0.0
C8 C 0.99834 0.61338 0.14028 0.0
C9 C 0.92885 0.5808 0.1289 0.0
C10 C 0.93769 0.53943 0.12894 0.0
Tb11 Tb 0.08846 0.63588 0.15632 0.0
N12 N 1.02939 0.64804 0.14508 0.0
C13 C 0.95423 0.659 0.13262 0.0
C14 C 1.02554 0.68742 0.14245 0.0
C15 C 0.98766 0.69371 0.13651 0.0
H16 H 0.09246 0.5284 0.14309 0.0
H17 H 0.9844 0.72521 0.13481 0.0
H18 H 1.02486 0.5932 0.21157 0.0
H19 H 0.13486 0.84151 0.23361 0.0
H20 H 0.05137 0.71424 0.14513 0.0
H21 H 0.92512 0.6638 0.12784 0.0
H22 H 0.14712 0.77086 0.21605 0.0
H23 H 1.04202 0.46066 0.13357 0.0
H24 H 0.89878 0.58353 0.12423 0.0
H25 H 0.91435 0.51086 0.12426 0.0
H26 H 0.96227 0.58809 0.22775 0.0
H27 H 0.96796 0.46444 0.12766 0.0
H28 H 0.06793 0.84626 0.24775 0.0
N29 N 1.03699 0.66273 0.21821 0.0
C30 C 1.02561 0.69971 0.22744 0.0
C31 C 0.97968 0.61976 0.2277 0.0
C32 C 0.9902 0.69843 0.23696 0.0
C33 C 1.01516 0.62283 0.21847 0.0
C34 C 0.96703 0.65774 0.23695 0.0
N35 N 0.08695 0.7372 0.21969 0.0
C36 C 0.11778 0.77299 0.22214 0.0
C37 C 1.04318 0.7777 0.23837 0.0
C38 C 0.0515 0.73856 0.22812 0.0
C39 C 0.07306 0.81546 0.23999 0.0
C40 C 0.11094 0.81287 0.23207 0.0
H41 H 0.93999 0.65525 0.24428 0.0
H42 H 0.95245 0.73746 0.2537 0.0
H43 H 0.9991 0.8071 0.255 0.0
O44 O 0.15404 0.65236 0.2065 0.0
O45 O 0.08842 0.72777 0.19345 0.0
O46 O 0.09542 0.70923 0.16623 0.0
O47 O 0.11497 0.67271 0.22621 0.0
O48 O 0.14808 0.69787 0.19129 0.0
O49 O 0.13669 0.63604 0.1727 0.0
O50 O 0.10889 0.60887 0.13379 0.0
O51 O 0.10172 0.5821 0.16736 0.0
O52 O 0.08293 0.5977 0.19357 0.0
O53 O 0.13639 0.67275 0.14667 0.0
O54 O 1.03538 0.66123 0.16912 0.0
O55 O 1.04447 0.63073 0.18845 0.0
C56 C 0.09147 0.73853 0.17981 0.0
C57 C 0.16552 0.62813 0.22859 0.0
C58 C 0.22476 0.61155 0.2415 0.0
C59 C 0.19871 0.5745 0.24398 0.0
C60 C 0.13973 0.59128 0.23109 0.0
C61 C 0.15654 0.56434 0.23868 0.0
C62 C 0.20781 0.63729 0.23339 0.0
C63 C 0.16108 0.67262 0.17877 0.0
C64 C 0.15021 0.65915 0.22144 0.0
C65 C 0.97999 0.73763 0.2465 0.0
C66 C 1.00646 0.77728 0.24719 0.0
C67 C 0.09232 0.56938 0.18046 0.0
C68 C 0.12915 0.66189 0.11981 0.0
C69 C 0.08568 0.6686 0.09851 0.0
C70 C 0.11639 0.70334 0.09662 0.0
C71 C 0.15949 0.69586 0.11748 0.0
C72 C 0.09318 0.64745 0.10999 0.0
C73 C 0.15324 0.71618 0.10585 0.0
C74 C 1.02069 0.64866 0.18116 0.0
C75 C 0.13386 0.64432 0.13328 0.0
H76 H 0.21053 0.55395 0.25026 0.0
H77 H 0.10692 0.58361 0.22731 0.0
H78 H 0.13667 0.5359 0.24069 0.0
H79 H 0.2275 0.66517 0.23084 0.0
H80 H 0.11183 0.72158 0.08832 0.0
H81 H 0.18757 0.70731 0.12489 0.0
H82 H 0.07086 0.62011 0.11156 0.0
H83 H 0.17658 0.74277 0.10426 0.0
Tb84 Tb 0.82729 0.91303 0.44641 0.0
C85 C 0.81656 0.97288 0.38352 0.0
N86 N 0.84728 0.96329 0.39164 0.0
C87 C 0.87436 0.92343 0.36783 0.0
C88 C 0.8122 0.95674 0.36725 0.0
C89 C 0.87728 0.94047 0.38401 0.0
C90 C 0.84114 0.93083 0.35943 0.0
C91 C 0.76199 1.01681 0.38366 0.0
C92 C 0.79197 1.00214 0.39152 0.0
C93 C 0.7553 0.99879 0.36755 0.0
C94 C 0.78036 0.96865 0.35935 0.0
Tb95 Tb 0.84622 0.98814 0.41816 0.0
N96 N 0.80017 1.01898 0.40692 0.0
C97 C 0.74108 0.05027 0.39214 0.0
C98 C 0.78188 0.0534 0.41509 0.0
C99 C 0.75162 0.06917 0.40788 0.0
H100 H 0.90294 0.93446 0.39041 0.0
H101 H 0.73648 0.09583 0.41446 0.0
H102 H 0.73879 0.84433 0.43677 0.0
H103 H 0.90511 0.98099 0.50268 0.0
H104 H 0.78997 0.06789 0.42726 0.0
H105 H 0.71783 0.06266 0.38655 0.0
H106 H 0.90141 0.95498 0.474 0.0
H107 H 0.89757 0.90441 0.36186 0.0
H108 H 0.73195 1.00906 0.36127 0.0
H109 H 0.77597 0.9561 0.34686 0.0
H110 H 0.6731 0.82204 0.4496 0.0
H111 H 0.83895 0.91768 0.34692 0.0
H112 H 0.84048 0.97273 0.5179 0.0
N113 N 0.76705 0.88825 0.45749 0.0
C114 C 0.76437 0.90337 0.47307 0.0
C115 C 0.69843 0.84523 0.45634 0.0
C116 C 0.72793 0.89142 0.48096 0.0
C117 C 0.73558 0.8579 0.44911 0.0
C118 C 0.69427 0.86267 0.47231 0.0
N119 N 0.83502 0.93428 0.47295 0.0
C120 C 0.87294 0.95156 0.48051 0.0
C121 C 0.80045 0.94113 0.49753 0.0
C122 C 0.79988 0.92758 0.48116 0.0
C123 C 0.83861 0.96172 0.50531 0.0
C124 C 0.87518 0.96627 0.49676 0.0
H125 H 0.66565 0.8526 0.47791 0.0
H126 H 0.69933 0.89866 0.50355 0.0
H127 H 0.76301 0.94243 0.51811 0.0
O128 O 0.85873 0.86618 0.43149 0.0
O129 O 0.85436 0.98175 0.45531 0.0
O130 O 0.81938 1.0136 0.44061 0.0
O131 O 0.83724 0.8583 0.4538 0.0
O132 O 0.89467 0.94458 0.44503 0.0
O133 O 0.89785 0.94993 0.41983 0.0
O134 O 0.8836 0.03734 0.41026 0.0
O135 O 0.84764 0.91877 0.41137 0.0
O136 O 0.79384 0.89124 0.42389 0.0
O137 O 0.89284 1.03119 0.43342 0.0
O138 O 0.77595 0.97575 0.42328 0.0
O139 O 0.76577 0.93421 0.44154 0.0
C140 C 0.83404 1.01302 0.45412 0.0
C141 C 0.82874 0.79498 0.43292 0.0
C142 C 0.79444 0.72408 0.4359 0.0
C143 C 0.77831 0.71374 0.42055 0.0
C144 C 0.81304 0.78347 0.41751 0.0
C145 C 0.78804 0.74308 0.4114 0.0
C146 C 0.82023 0.7647 0.44186 0.0
C147 C 0.91731 0.94769 0.43258 0.0
C148 C 0.85109 0.83935 0.44029 0.0
C149 C 0.72718 0.90699 0.49724 0.0
C150 C 0.76344 0.9319 0.50552 0.0
C151 C 0.81205 0.89287 0.41083 0.0
C152 C 0.90357 0.1026 0.43023 0.0
C153 C 0.88919 0.17227 0.42727 0.0
C154 C 0.91008 0.1938 0.4415 0.0
C155 C 0.92373 0.1243 0.44464 0.0
C156 C 0.88599 0.12685 0.42175 0.0
C157 C 0.92678 0.16968 0.45026 0.0
C158 C 0.7506 0.95616 0.43248 0.0
C159 C 0.90237 0.05519 0.4238 0.0
H160 H 0.75767 0.6833 0.41562 0.0
H161 H 0.81943 0.80577 0.41023 0.0
H162 H 0.77555 0.73476 0.39961 0.0
H163 H 0.83352 0.77328 0.45355 0.0
H164 H 0.91333 0.22898 0.44578 0.0
H165 H 0.93753 0.10627 0.45145 0.0
H166 H 0.87079 0.11065 0.41052 0.0
H167 H 0.94263 0.18619 0.46131 0.0
Tb168 Tb 0.6 0.6395 0.66457 0.0
C169 C 0.53158 0.60822 0.73061 0.0
N170 N 0.51377 0.60057 0.71632 0.0
C171 C 0.47215 0.53477 0.71959 0.0
C172 C 0.52177 0.57861 0.73983 0.0
C173 C 0.48284 0.5655 0.71098 0.0
C174 C 0.49232 0.54092 0.73397 0.0
C175 C 0.57243 0.65985 0.75188 0.0
C176 C 0.55625 0.64799 0.7365 0.0
C177 C 0.56543 0.6294 0.76085 0.0
C178 C 0.54004 0.58877 0.75483 0.0
Tb179 Tb 0.53452 0.65085 0.70259 0.0
N180 N 0.56058 0.67671 0.72762 0.0
C181 C 0.59316 0.70258 0.75798 0.0
C182 C 0.57766 0.71937 0.73393 0.0
C183 C 0.59511 0.7327 0.74904 0.0
H184 H 0.46718 0.56078 0.69988 0.0
H185 H 0.60972 0.76625 0.75382 0.0
H186 H 0.53911 0.67209 0.64152 0.0
H187 H 0.70455 0.52017 0.64963 0.0
H188 H 0.5786 0.74301 0.72719 0.0
H189 H 0.60614 0.7131 0.76975 0.0
H190 H 0.67882 0.58644 0.66554 0.0
H191 H 0.44842 0.50643 0.71515 0.0
H192 H 0.57799 0.63763 0.77265 0.0
H193 H 0.53339 0.56627 0.76206 0.0
H194 H 0.50304 0.64116 0.61584 0.0
H195 H 0.4838 0.51729 0.74068 0.0
H196 H 0.6674 0.47818 0.62488 0.0
N197 N 0.56876 0.61653 0.64027 0.0
C198 C 0.57724 0.57805 0.63118 0.0
C199 C 0.52365 0.62288 0.62006 0.0
C200 C 0.55803 0.55934 0.61636 0.0
C201 C 0.54402 0.64023 0.63463 0.0
C202 C 0.52999 0.5818 0.61101 0.0
N203 N 0.6275 0.58088 0.65012 0.0
C204 C 0.66267 0.56817 0.65475 0.0
C205 C 0.62139 0.52181 0.62679 0.0
C206 C 0.60812 0.55957 0.63629 0.0
C207 C 0.65601 0.507 0.63184 0.0
C208 C 0.67715 0.53072 0.64579 0.0
H209 H 0.51434 0.56852 0.59971 0.0
H210 H 0.55419 0.50474 0.59581 0.0
H211 H 0.61001 0.47189 0.60494 0.0
O212 O 0.64191 0.66304 0.64926 0.0
O213 O 0.53363 0.64366 0.66591 0.0
O214 O 0.50923 0.60171 0.6816 0.0
O215 O 0.6456 0.69497 0.67373 0.0
O216 O 0.58943 0.57461 0.67122 0.0
O217 O 0.55401 0.58354 0.69485 0.0
O218 O 0.48646 0.67457 0.69315 0.0
O219 O 0.59971 0.68296 0.70395 0.0
O220 O 0.62762 0.63234 0.68576 0.0
O221 O 0.48503 0.67122 0.71703 0.0
O222 O 0.56348 0.71463 0.69747 0.0
O223 O 0.56494 0.69672 0.67071 0.0
C224 C 0.50836 0.61028 0.66815 0.0
C225 C 0.70939 0.6992 0.66003 0.0
C226 C 0.77359 0.68671 0.64548 0.0
C227 C 0.79715 0.71874 0.65746 0.0
C228 C 0.7335 0.73098 0.67185 0.0
C229 C 0.77718 0.74027 0.67063 0.0
C230 C 0.7298 0.67648 0.64715 0.0
C231 C 0.57261 0.55871 0.68293 0.0
C232 C 0.66291 0.69334 0.66037 0.0
C233 C 0.56894 0.52001 0.60717 0.0
C234 C 0.60073 0.50131 0.61236 0.0
C235 C 0.63162 0.66306 0.6988 0.0
C236 C 0.42 0.65417 0.70332 0.0
C237 C 0.35019 0.64117 0.71386 0.0
C238 C 0.33583 0.61244 0.69951 0.0
C239 C 0.40525 0.62499 0.68905 0.0
C240 C 0.39233 0.66174 0.71574 0.0
C241 C 0.36343 0.60417 0.68721 0.0
C242 C 0.56497 0.72686 0.68421 0.0
C243 C 0.46394 0.6768 0.70556 0.0
H244 H 0.83082 0.72784 0.65659 0.0
H245 H 0.7185 0.7492 0.68189 0.0
H246 H 0.7955 0.76503 0.67975 0.0
H247 H 0.71129 0.65099 0.63831 0.0
H248 H 0.30328 0.5966 0.69785 0.0
H249 H 0.42578 0.61836 0.67929 0.0
H250 H 0.40327 0.68452 0.72674 0.0
H251 H 0.35231 0.58192 0.67616 0.0
Tb252 Tb 0.83838 0.46429 0.91902 0.0
C253 C 0.80782 0.47628 -0.00913 0.0
N254 N 0.84125 0.47164 0.98144 0.0
C255 C 0.88544 0.5252 0.00098 0.0
C256 C 0.81141 0.50642 0.00562 0.0
C257 C 0.88025 0.49439 -0.0135 0.0
C258 C 0.85074 0.53158 0.01051 0.0
C259 C 0.73646 0.44778 -0.0038 0.0
C260 C 0.77106 0.44765 -0.01374 0.0
C261 C 0.73873 0.47952 0.01053 0.0
C262 C 0.77624 0.50882 0.01525 0.0
Tb263 Tb 0.82862 0.42286 0.95753 0.0
N264 N 0.77082 0.41692 0.97259 0.0
C265 C 0.70161 0.41472 -0.00827 0.0
C266 C 0.73834 0.38272 0.9687 0.0
C267 C 0.70289 0.38157 0.97804 0.0
H268 H 0.90736 0.48942 0.97931 0.0
H269 H 0.67666 0.35516 0.9747 0.0
H270 H 0.76984 0.52801 0.91659 0.0
H271 H 0.89958 0.342 0.87402 0.0
H272 H 0.73938 0.35714 0.9581 0.0
H273 H 0.67432 0.4136 -0.00098 0.0
H274 H 0.90061 0.39584 0.89941 0.0
H275 H 0.91622 0.54376 0.00483 0.0
H276 H 0.71234 0.48058 0.01829 0.0
H277 H 0.77821 0.53201 0.0266 0.0
H278 H 0.71248 0.52906 0.89847 0.0
H279 H 0.85495 0.55464 0.02184 0.0
H280 H 0.8408 0.33145 0.85519 0.0
N281 N 0.78658 0.46882 0.90263 0.0
C282 C 0.7811 0.43811 0.88886 0.0
C283 C 0.73136 0.50308 0.89567 0.0
C284 C 0.74937 0.43752 0.87808 0.0
C285 C 0.76372 0.50244 0.90588 0.0
C286 C 0.72367 0.47002 0.88181 0.0
N287 N 0.84168 0.41439 0.89549 0.0
C288 C 0.87431 0.39125 0.89148 0.0
C289 C 0.80814 0.37962 0.87038 0.0
C290 C 0.80989 0.40978 0.88512 0.0
C291 C 0.84057 0.35456 0.86647 0.0
C292 C 0.87395 0.36064 0.87704 0.0
H293 H 0.69887 0.47077 0.87384 0.0
H294 H 0.72126 0.40441 0.8553 0.0
H295 H 0.77288 0.35357 0.84854 0.0
O296 O 0.88154 0.52155 0.92813 0.0
O297 O 0.84621 0.40197 0.92222 0.0
O298 O 0.79539 0.37944 0.93685 0.0
O299 O 0.86507 0.49999 0.90362 0.0
O300 O 0.89799 0.44356 0.92546 0.0
O301 O 0.8962 0.44599 0.95187 0.0
O302 O 0.85704 0.3667 0.94929 0.0
O303 O 0.85582 0.48761 0.95586 0.0
O304 O 0.81404 0.50586 0.93947 0.0
O305 O 0.83711 0.38548 0.97306 0.0
O306 O 0.76517 0.43298 0.94949 0.0
O307 O 0.77001 0.45342 0.92597 0.0
C308 C 0.81238 0.3751 0.92331 0.0
C309 C 0.87751 0.57605 0.91481 0.0
C310 C 0.88039 0.63164 0.90042 0.0
C311 C 0.86966 0.66131 0.91403 0.0
C312 C 0.86676 0.60612 0.92827 0.0
C313 C 0.86258 0.6484 0.9278 0.0
C314 C 0.88339 0.5888 0.90095 0.0
C315 C 0.91767 0.44562 0.93879 0.0
C316 C 0.88389 0.53159 0.91485 0.0
C317 C 0.74571 0.40581 0.86371 0.0
C318 C 0.77512 0.37689 0.85986 0.0
C319 C 0.83083 0.51344 0.95332 0.0
C320 C 0.89426 0.34649 0.96842 0.0
C321 C 0.92537 0.30855 -0.01522 0.0
C322 C 0.96557 0.32286 0.97974 0.0
C323 C 0.93447 0.35974 0.96331 0.0
C324 C 0.88991 0.32068 0.97899 0.0
C325 C 0.96997 0.34821 0.96904 0.0
C326 C 0.74738 0.44301 0.93765 0.0
C327 C 0.85602 0.35824 0.96285 0.0
H328 H 0.86767 0.69475 0.91418 0.0
H329 H 0.86182 0.59719 0.93914 0.0
H330 H 0.85452 0.6715 0.93823 0.0
H331 H 0.89055 0.56498 0.89055 0.0
H332 H 0.99361 0.31464 -0.0159 0.0
H333 H 0.93833 0.3786 0.95483 0.0
H334 H 0.85854 0.30934 -0.01755 0.0
H335 H 1.00097 0.35883 0.96514 0.0
Tb336 Tb 0.09248 0.75699 0.82528 0.0
C337 C 0.10914 0.68998 0.75152 0.0
N338 N 0.10031 0.72711 0.76152 0.0
C339 C 0.14491 0.77004 0.74734 0.0
C340 C 0.13729 0.69131 0.73928 0.0
C341 C 0.11684 0.76696 0.75933 0.0
C342 C 0.15547 0.73207 0.73735 0.0
C343 C 0.09088 0.61162 0.74149 0.0
C344 C 0.08626 0.65083 0.75257 0.0
C345 C 0.1214 0.6122 0.73001 0.0
C346 C 0.14445 0.65206 0.72886 0.0
Tb347 Tb 0.05233 0.71846 0.78024 0.0
N348 N 0.05588 0.65205 0.76334 0.0
C349 C 0.06279 0.57371 0.74163 0.0
C350 C 1.02605 0.61611 0.76264 0.0
C351 C 1.02957 0.57621 0.75201 0.0
H352 H 0.10903 0.79664 0.76695 0.0
H353 H 1.00667 0.5475 0.75182 0.0
H354 H 0.05453 0.84491 0.84439 0.0
H355 H 0.24511 0.71312 0.83326 0.0
H356 H 1.00012 0.61819 0.77058 0.0
H357 H 0.06521 0.54292 0.73329 0.0
H358 H 0.16829 0.6986 0.82775 0.0
H359 H 0.15827 0.8017 0.7458 0.0
H360 H 0.12585 0.58236 0.7215 0.0
H361 H 0.16636 0.65231 0.71948 0.0
H362 H 0.08273 0.92156 0.85835 0.0
H363 H 0.17661 0.73461 0.72791 0.0
H364 H 0.28248 0.78924 0.84118 0.0
N365 N 0.11512 0.82791 0.83838 0.0
C366 C 0.15739 0.83997 0.84053 0.0
C367 C 0.10407 0.89907 0.85325 0.0
C368 C 0.17495 0.88304 0.8484 0.0
C369 C 0.08822 0.85588 0.84537 0.0
C370 C 0.14766 0.91303 0.85443 0.0
N371 N 0.1631 0.76573 0.83108 0.0
C372 C 0.18454 0.73194 0.83087 0.0
C373 C 0.22592 0.81753 0.84036 0.0
C374 C 0.18241 0.80762 0.83663 0.0
C375 C 0.24898 0.78304 0.83845 0.0
C376 C 0.22797 0.74002 0.83405 0.0
H377 H 0.15988 0.94641 0.86061 0.0
H378 H 0.23306 0.92697 0.85669 0.0
H379 H 0.27781 0.86953 0.84957 0.0
O380 O 0.09737 0.76799 0.84965 0.0
O381 O 0.08491 0.81399 0.81535 0.0
O382 O 0.06326 0.79193 0.78904 0.0
O383 O 0.04632 0.72391 0.83675 0.0
O384 O 0.13352 0.72608 0.80753 0.0
O385 O 0.11335 0.75539 0.78908 0.0
O386 O 0.99626 0.74546 0.7812 0.0
O387 O 0.06107 0.66169 0.79027 0.0
O388 O 0.08908 0.68421 0.81586 0.0
O389 O 1.01553 0.70496 0.75983 0.0
O390 O 1.01284 0.69857 0.79782 0.0
O391 O 1.03216 0.76216 0.81559 0.0
C392 C 0.07451 0.82318 0.80217 0.0
C393 C 0.07014 0.70669 0.85892 0.0
C394 C 0.10766 0.68524 0.87862 0.0
C395 C 0.08106 0.64454 0.87497 0.0
C396 C 1.04376 0.666 0.85559 0.0
C397 C 0.04918 0.63522 0.8636 0.0
C398 C 0.1014 0.71639 0.87068 0.0
C399 C 0.14062 0.73678 0.79451 0.0
C400 C 0.06489 0.73901 0.85024 0.0
C401 C 0.21882 0.89388 0.85091 0.0
C402 C 0.24431 0.86115 0.84685 0.0
C403 C 0.07515 0.6528 0.80306 0.0
C404 C 0.97706 0.75932 0.75774 0.0
C405 C 0.92435 0.77885 0.7427 0.0
C406 C 0.95496 0.81075 0.73902 0.0
C407 C 1.00739 0.79138 0.75407 0.0
C408 C 0.93561 0.75349 0.75218 0.0
C409 C 0.99625 0.81722 0.74484 0.0
C410 C 1.00429 0.72705 0.81039 0.0
C411 C 0.98829 0.72944 0.76638 0.0
H412 H 0.08545 0.61942 0.8806 0.0
H413 H 1.01932 0.65773 0.84662 0.0
H414 H 1.02905 0.60374 0.86082 0.0
H415 H 0.12106 0.74819 0.87359 0.0
H416 H 0.94689 0.83055 0.73169 0.0
H417 H 1.0396 0.79608 0.75819 0.0
H418 H 0.91239 0.72803 0.75475 0.0
H419 H 1.0198 0.84188 0.74202 0.0
Tb420 Tb 0.81318 0.83495 0.06486 0.0
C421 C 0.88297 0.91851 0.00745 0.0
N422 N 0.88195 0.93387 0.02307 0.0
C423 C 0.94686 0.98224 0.02293 0.0
C424 C 0.91686 0.93304 -0.00112 0.0
C425 C 0.91228 0.96677 0.03085 0.0
C426 C 0.94959 0.96468 0.00689 0.0
C427 C 0.84531 0.87733 -0.01632 0.0
C428 C 0.84788 0.89149 5e-05 0.0
C429 C 0.88006 0.88912 0.975 0.0
C430 C 0.91582 0.91707 -0.0174 0.0
Tb431 Tb 0.82582 0.90577 0.03537 0.0
N432 N 0.81475 0.88251 0.00891 0.0
C433 C 0.80729 0.85355 0.9766 0.0
C434 C 0.7767 0.86192 0.00203 0.0
C435 C 0.77262 0.84643 -0.01418 0.0
H436 H 0.91007 0.98052 0.04322 0.0
H437 H 0.74269 0.82917 0.98045 0.0
H438 H 0.7476 0.88091 0.09083 0.0
H439 H 0.93031 0.73742 0.0715 0.0
H440 H 0.74957 0.85643 0.00899 0.0
H441 H 0.80393 0.84196 0.96405 0.0
H442 H 0.87877 0.7633 0.05722 0.0
H443 H 0.97132 1.00766 0.02918 0.0
H444 H 0.87894 0.87823 0.96241 0.0
H445 H 0.94175 0.92736 0.97576 0.0
H446 H 0.74427 0.90654 0.11937 0.0
H447 H 0.97621 0.97688 0.00076 0.0
H448 H 0.93968 0.76707 0.10004 0.0
N449 N 0.80572 0.85715 0.09125 0.0
C450 C 0.8352 0.84882 0.10026 0.0
C451 C 0.77026 0.89063 0.11414 0.0
C452 C 0.83441 0.86234 0.11661 0.0
C453 C 0.77232 0.87608 0.09793 0.0
C454 C 0.80191 0.88449 0.12354 0.0
N455 N 0.86033 0.80808 0.07732 0.0
C456 C 0.88287 0.77658 0.06963 0.0
C457 C 0.89239 0.80921 0.10169 0.0
C458 C 0.86365 0.82301 0.09297 0.0
C459 C 0.91733 0.77875 0.09379 0.0
C460 C 0.91199 0.76178 0.0777 0.0
H461 H 0.80009 0.89546 0.13607 0.0
H462 H 0.86509 0.86185 0.13805 0.0
H463 H 0.91592 0.81499 0.12492 0.0
O464 O 0.78052 0.78109 0.07166 0.0
O465 O 0.81334 0.90491 0.07313 0.0
O466 O 0.86059 0.93098 0.05735 0.0
O467 O 0.7667 0.79161 0.04956 0.0
O468 O 0.88314 0.84977 0.05925 0.0
O469 O 0.89052 0.89119 0.04091 0.0
O470 O 0.79082 0.94856 0.05039 0.0
O471 O 0.80478 0.83555 0.0267 0.0
O472 O 0.84237 0.81049 0.04282 0.0
O473 O 0.8128 0.9608 0.02872 0.0
O474 O 0.76002 0.87148 0.03737 0.0
O475 O 0.75899 0.86996 0.06292 0.0
C476 C 0.84648 0.93219 0.07127 0.0
C477 C 0.76864 0.71911 0.04992 0.0
C478 C 0.81095 0.66075 0.04712 0.0
C479 C 0.7924 0.64049 0.03233 0.0
C480 C 0.74989 0.69815 0.03522 0.0
C481 C 0.76143 0.65876 0.02656 0.0
C482 C 0.79784 0.69923 0.05596 0.0
C483 C 0.90756 0.87054 0.05008 0.0
C484 C 0.76206 0.76394 0.05804 0.0
C485 C 0.8648 0.85138 0.12545 0.0
C486 C 0.89374 0.82471 0.11799 0.0
C487 C 0.82668 0.80663 0.02901 0.0
C488 C 0.81679 1.02192 0.05068 0.0
C489 C 0.8531 0.09452 0.05016 0.0
C490 C 0.85956 0.10473 0.06639 0.0
C491 C 0.8225 0.0336 0.06696 0.0
C492 C 0.83153 0.05289 0.04242 0.0
C493 C 0.84405 0.07456 0.07469 0.0
C494 C 0.73833 0.87012 0.05014 0.0
C495 C 0.79732 0.97712 0.04224 0.0
H496 H 0.80219 0.61104 0.02518 0.0
H497 H 0.72742 0.71294 0.03023 0.0
H498 H 0.74743 0.64318 0.01512 0.0
H499 H 0.81254 0.71526 0.06724 0.0
H500 H 0.87682 0.13597 0.07269 0.0
H501 H 0.81081 1.01099 0.07376 0.0
H502 H 0.82597 0.04448 0.02995 0.0
H503 H 0.84898 0.08286 0.08718 0.0
Tb504 Tb 0.624 0.71707 0.27639 0.0
C505 C 0.58138 0.78463 0.34815 0.0
N506 N 0.5878 0.74629 0.33835 0.0
C507 C 0.63173 0.73412 0.35784 0.0
C508 C 0.60109 0.80031 0.36299 0.0
C509 C 0.61088 0.71983 0.34329 0.0
C510 C 0.62749 0.77495 0.36762 0.0
C511 C 0.54053 0.84374 0.35394 0.0
C512 C 0.55191 0.80599 0.34373 0.0
C513 C 0.5618 0.86126 0.36841 0.0
C514 C 0.59221 0.83961 0.37291 0.0
Tb515 Tb 0.55609 0.72844 0.3141 0.0
N516 N 0.53178 0.78737 0.32985 0.0
C517 C 0.50702 0.86145 0.34953 0.0
C518 C 0.49764 0.80294 0.32581 0.0
C519 C 0.48504 0.84052 0.33549 0.0
H520 H 0.6142 0.68808 0.3359 0.0
H521 H 0.45845 0.8533 0.33213 0.0
H522 H 0.6937 0.80408 0.27716 0.0
H523 H 0.54152 0.60211 0.22645 0.0
H524 H 0.48082 0.78677 0.31494 0.0
H525 H 0.49707 0.89036 0.35706 0.0
H526 H 0.57666 0.62504 0.2524 0.0
H527 H 0.65103 0.71362 0.36149 0.0
H528 H 0.55398 0.8906 0.37639 0.0
H529 H 0.6074 0.85257 0.3843 0.0
H530 H 0.71063 0.85783 0.26153 0.0
H531 H 0.6434 0.78581 0.37891 0.0
H532 H 0.54179 0.65544 0.21075 0.0
N533 N 0.64318 0.76638 0.26213 0.0
C534 C 0.62264 0.75931 0.24837 0.0
C535 C 0.68551 0.83043 0.25774 0.0
C536 C 0.63125 0.78856 0.23896 0.0
C537 C 0.67595 0.8 0.26654 0.0
C538 C 0.66241 0.82521 0.24404 0.0
N539 N 0.594 0.69137 0.25187 0.0
C540 C 0.57644 0.64873 0.24575 0.0
C541 C 0.57807 0.70839 0.228 0.0
C542 C 0.59673 0.72007 0.24301 0.0
C543 C 0.55664 0.66581 0.22223 0.0
C544 C 0.5566 0.63558 0.23103 0.0
H545 H 0.67009 0.84853 0.23716 0.0
H546 H 0.61592 0.80113 0.2171 0.0
H547 H 0.56909 0.73068 0.20748 0.0
O548 O 0.67417 0.69383 0.28487 0.0
O549 O 0.55744 0.68808 0.27541 0.0
O550 O 0.53231 0.74085 0.29333 0.0
O551 O 0.67062 0.69504 0.26086 0.0
O552 O 0.59694 0.65277 0.28142 0.0
O553 O 0.58732 0.66844 0.30804 0.0
O554 O 0.50824 0.70673 0.328 0.0
O555 O 0.62197 0.72201 0.31272 0.0
O556 O 0.65078 0.76417 0.29767 0.0
O557 O 0.5116 0.67316 0.30386 0.0
O558 O 0.56733 0.79321 0.3072 0.0
O559 O 0.61068 0.78672 0.28546 0.0
C560 C 0.52753 0.71141 0.28005 0.0
C561 C 0.73774 0.71383 0.27267 0.0
C562 C 0.8032 0.7283 0.25935 0.0
C563 C 0.81731 0.76401 0.27199 0.0
C564 C 0.75257 0.74929 0.28536 0.0
C565 C 0.7922 0.77412 0.285 0.0
C566 C 0.76353 0.70315 0.25981 0.0
C567 C 0.59148 0.63969 0.29448 0.0
C568 C 0.69419 0.69048 0.27185 0.0
C569 C 0.61027 0.77884 0.22445 0.0
C570 C 0.58361 0.73873 0.21897 0.0
C571 C 0.64886 0.75499 0.31108 0.0
C572 C 0.44351 0.67075 0.31465 0.0
C573 C 0.37496 0.67951 0.32622 0.0
C574 C 0.35496 0.6577 0.31184 0.0
C575 C 0.42289 0.64726 0.30047 0.0
C576 C 0.41915 0.68622 0.32751 0.0
C577 C 0.37893 0.64126 0.29906 0.0
C578 C 0.58924 0.81072 0.29667 0.0
C579 C 0.48989 0.67592 0.31641 0.0
H580 H 0.84791 0.78366 0.27188 0.0
H581 H 0.73337 0.75847 0.29541 0.0
H582 H 0.80328 0.80157 0.29475 0.0
H583 H 0.75213 0.6761 0.24992 0.0
H584 H 0.32092 0.65254 0.31062 0.0
H585 H 0.44067 0.6333 0.29049 0.0
H586 H 0.4345 0.70352 0.33863 0.0
H587 H 0.36338 0.62344 0.28807 0.0
Tb588 Tb 0.82813 0.38256 0.52944 0.0
C589 C 0.86905 0.38694 0.60146 0.0
N590 N 0.87097 0.35404 0.58844 0.0
C591 C 0.92822 0.3319 0.59967 0.0
C592 C 0.89725 0.39398 0.61412 0.0
C593 C 0.8994 0.32605 0.58744 0.0
C594 C 0.92736 0.3662 0.61303 0.0
C595 C 0.83374 0.446 0.61582 0.0
C596 C 0.83749 0.41239 0.60228 0.0
C597 C 0.8624 0.45386 0.62835 0.0
C598 C 0.89404 0.42791 0.62751 0.0
Tb599 Tb 0.8242 0.34876 0.569 0.0
N600 N 0.81046 0.40401 0.58986 0.0
C601 C 0.80126 0.47067 0.61639 0.0
C602 C 0.77832 0.42782 0.5905 0.0
C603 C 0.7734 0.46142 0.6037 0.0
H604 H 0.89953 0.29908 0.5772 0.0
H605 H 0.74828 0.48049 0.60402 0.0
H606 H 0.74087 0.32191 0.51091 0.0
H607 H 0.98372 0.40772 0.50567 0.0
H608 H 0.7569 0.4225 0.58081 0.0
H609 H 0.79741 0.49688 0.62656 0.0
H610 H 0.92313 0.43015 0.52164 0.0
H611 H 0.95094 0.30987 0.59882 0.0
H612 H 0.86012 0.4797 0.63881 0.0
H613 H 0.91557 0.43402 0.63735 0.0
H614 H 0.72327 0.25591 0.48913 0.0
H615 H 0.9496 0.37054 0.62252 0.0
H616 H 0.97742 0.33344 0.48786 0.0
N617 N 0.80726 0.32424 0.50858 0.0
C618 C 0.83877 0.30685 0.50008 0.0
C619 C 0.75591 0.26979 0.49214 0.0
C620 C 0.8302 0.2691 0.48758 0.0
C621 C 0.76601 0.30721 0.50449 0.0
C622 C 0.78815 0.25021 0.48381 0.0
N623 N 0.88537 0.36743 0.51441 0.0
C624 C 0.92074 0.39724 0.51424 0.0
C625 C 0.91245 0.31507 0.49353 0.0
C626 C 0.8794 0.32907 0.50321 0.0
C627 C 0.95121 0.34286 0.49509 0.0
C628 C 0.95487 0.38482 0.5051 0.0
H629 H 0.78024 0.22124 0.47427 0.0
H630 H 0.85785 0.22288 0.46953 0.0
H631 H 0.93009 0.26375 0.47461 0.0
O632 O 0.839 0.44853 0.52888 0.0
O633 O 0.80334 0.31917 0.53332 0.0
O634 O 0.84848 0.3046 0.54935 0.0
O635 O 0.80498 0.39948 0.51028 0.0
O636 O 0.89263 0.38991 0.54119 0.0
O637 O 0.88866 0.34661 0.55872 0.0
O638 O 0.78013 0.29062 0.56291 0.0
O639 O 0.85306 0.41518 0.56987 0.0
O640 O 0.81445 0.42795 0.55104 0.0
O641 O 0.80885 0.31474 0.58595 0.0
O642 O 0.76074 0.35982 0.56118 0.0
O643 O 0.761 0.37313 0.5366 0.0
C644 C 0.82932 0.29427 0.53587 0.0
C645 C 0.78344 0.46812 0.5167 0.0
C646 C 0.75238 0.51903 0.5059 0.0
C647 C 0.71792 0.51564 0.51577 0.0
C648 C 0.74941 0.46613 0.5267 0.0
C649 C 0.71678 0.48969 0.52618 0.0
C650 C 0.78518 0.49506 0.50656 0.0
C651 C 0.91129 0.36988 0.55007 0.0
C652 C 0.81647 0.441 0.51622 0.0
C653 C 0.8637 0.25245 0.47894 0.0
C654 C 0.90482 0.27551 0.48189 0.0
C655 C 0.84008 0.44238 0.5631 0.0
C656 C 0.79792 0.23892 0.57582 0.0
C657 C 0.81181 0.18816 0.59059 0.0
C658 C 0.82188 0.1591 0.57678 0.0
C659 C 0.8084 0.20974 0.56209 0.0
C660 C 0.79967 0.22779 0.58994 0.0
C661 C 0.82036 0.17005 0.56261 0.0
C662 C 0.74063 0.36643 0.54915 0.0
C663 C 0.78666 0.28192 0.57614 0.0
H664 H 0.69158 0.53263 0.51539 0.0
H665 H 0.74785 0.44629 0.53484 0.0
H666 H 0.6903 0.48754 0.53379 0.0
H667 H 0.81239 0.49733 0.49929 0.0
H668 H 0.83077 0.12806 0.57697 0.0
H669 H 0.80738 0.21745 0.55103 0.0
H670 H 0.79073 0.24996 0.60049 0.0
H671 H 0.82828 0.14765 0.55198 0.0
Tb672 Tb 0.31352 0.33832 0.56425 0.0
C673 C 0.39337 0.42284 0.50865 0.0
N674 N 0.39146 0.43811 0.52424 0.0
C675 C 0.45955 0.48181 0.52489 0.0
C676 C 0.42915 0.43509 0.50048 0.0
C677 C 0.42306 0.46876 0.5324 0.0
C678 C 0.46294 0.46428 0.50888 0.0
C679 C 0.35625 0.38445 0.48446 0.0
C680 C 0.35767 0.39822 0.50083 0.0
C681 C 0.39263 0.39398 0.47618 0.0
C682 C 0.42908 0.41936 0.48419 0.0
Tb683 Tb 0.33229 0.41308 0.53583 0.0
N684 N 0.32312 0.39127 0.50931 0.0
C685 C 0.31786 0.36336 0.47696 0.0
C686 C 0.28493 0.3735 0.50202 0.0
C687 C 0.28187 0.35853 0.48578 0.0
H688 H 0.42044 0.48235 0.54477 0.0
H689 H 0.25175 0.34342 0.48009 0.0
H690 H 0.25677 0.39317 0.59186 0.0
H691 H 0.42137 0.22926 0.56833 0.0
H692 H 0.25686 0.36986 0.50871 0.0
H693 H 0.31535 0.35216 0.46439 0.0
H694 H 0.36882 0.25793 0.55535 0.0
H695 H 0.48497 0.50531 0.53144 0.0
H696 H 0.3924 0.38331 0.46359 0.0
H697 H 0.45642 0.42791 0.47767 0.0
H698 H 0.26196 0.42358 0.62036 0.0
H699 H 0.49106 0.47462 0.50306 0.0
H700 H 0.43911 0.26184 0.59634 0.0
N701 N 0.31175 0.36324 0.59078 0.0
C702 C 0.34183 0.35306 0.59901 0.0
C703 C 0.28486 0.40399 0.61449 0.0
C704 C 0.34592 0.36922 0.61529 0.0
C705 C 0.28206 0.38672 0.59832 0.0
C706 C 0.31748 0.39594 0.62299 0.0
N707 N 0.35814 0.30652 0.5757 0.0
C708 C 0.37646 0.2721 0.56756 0.0
C709 C 0.39544 0.30814 0.59909 0.0
C710 C 0.36604 0.32326 0.59112 0.0
C711 C 0.41625 0.27451 0.59067 0.0
C712 C 0.40619 0.25592 0.57487 0.0
H713 H 0.3195 0.40917 0.6355 0.0
H714 H 0.38113 0.36907 0.63582 0.0
H715 H 0.42461 0.31531 0.62158 0.0
O716 O 0.27681 0.28622 0.57112 0.0
O717 O 0.31353 0.40802 0.57141 0.0
O718 O 0.36622 0.43525 0.55815 0.0
O719 O 0.26479 0.29938 0.54925 0.0
O720 O 0.38382 0.34996 0.55891 0.0
O721 O 0.39433 0.39338 0.54125 0.0
O722 O 0.29883 0.45803 0.55056 0.0
O723 O 0.30624 0.34401 0.52688 0.0
O724 O 0.34115 0.31319 0.54198 0.0
O725 O 0.32361 0.46938 0.52908 0.0
O726 O 0.26494 0.38186 0.53748 0.0
O727 O 0.26257 0.37767 0.5628 0.0
C728 C 0.34893 0.43384 0.57138 0.0
C729 C 0.24461 0.22643 0.55038 0.0
C730 C 0.23451 0.15052 0.55164 0.0
C731 C 0.21803 0.13719 0.53637 0.0
C732 C 0.22842 0.21237 0.53499 0.0
C733 C 0.2153 0.16801 0.52806 0.0
C734 C 0.24752 0.19523 0.55861 0.0
C735 C 0.40947 0.3707 0.55008 0.0
C736 C 0.2544 0.27356 0.55819 0.0
C737 C 0.37702 0.3566 0.62332 0.0
C738 C 0.40175 0.32599 0.61521 0.0
C739 C 0.32618 0.31277 0.52841 0.0
C740 C 0.32616 0.53108 0.55075 0.0
C741 C 0.35516 0.60584 0.55037 0.0
C742 C 0.36311 0.61624 0.5665 0.0
C743 C 0.33392 0.54245 0.56693 0.0
C744 C 0.33675 0.56306 0.54257 0.0
C745 C 0.35251 0.58468 0.57469 0.0
C746 C 0.24267 0.3796 0.55009 0.0
C747 C 0.30706 0.48623 0.54232 0.0
H748 H 0.20709 0.10304 0.53094 0.0
H749 H 0.22519 0.2357 0.5284 0.0
H750 H 0.20265 0.15754 0.51626 0.0
H751 H 0.26041 0.20568 0.5704 0.0
H752 H 0.37771 0.64875 0.57277 0.0
H753 H 0.32563 0.51888 0.57364 0.0
H754 H 0.33001 0.55478 0.53017 0.0
H755 H 0.35863 0.59299 0.58711 0.0
Tb756 Tb 0.3296 0.90273 0.03424 0.0
C757 C 0.30784 0.86244 0.10016 0.0
N758 N 0.33716 0.85355 0.08918 0.0
C759 C 0.39161 0.87442 0.10907 0.0
C760 C 0.3193 0.87989 0.11603 0.0
C761 C 0.3785 0.8571 0.09348 0.0
C762 C 0.36197 0.88673 0.12037 0.0
C763 C 0.23429 0.85411 0.10668 0.0
C764 C 0.26627 0.84955 0.09558 0.0
C765 C 0.24511 0.8749 0.12236 0.0
C766 C 0.28767 0.88763 0.12705 0.0
Tb767 Tb 0.31359 0.82585 0.06385 0.0
N768 N 0.25771 0.82751 0.08051 0.0
C769 C 0.19289 0.8351 0.10185 0.0
C770 C 0.21828 0.8044 0.07629 0.0
C771 C 0.18502 0.80923 0.08664 0.0
H772 H 0.40152 0.84714 0.08488 0.0
H773 H 0.1536 0.79214 0.08299 0.0
H774 H 0.23911 0.93791 0.02881 0.0
H775 H 0.43276 0.83574 -0.01118 0.0
H776 H 0.21248 0.78199 0.0649 0.0
H777 H 0.16734 0.83788 0.10998 0.0
H778 H 0.41562 0.88066 0.01455 0.0
H779 H 0.42451 0.87806 0.11236 0.0
H780 H 0.22099 0.87921 0.13105 0.0
H781 H 0.29576 0.90162 0.13928 0.0
H782 H 0.17918 0.91429 0.01 0.0
H783 H 0.37212 0.89981 0.13245 0.0
H784 H 0.37557 0.79826 0.96946 0.0
N785 N 0.27445 0.8893 0.01655 0.0
C786 C 0.27892 0.86065 0.00265 0.0
C787 C 0.20672 0.89822 0.00791 0.0
C788 C 0.24636 0.84736 -0.00881 0.0
C789 C 0.24044 0.91092 0.0187 0.0
C790 C 0.20919 0.86534 -0.00574 0.0
N791 N 0.34939 0.86667 0.01007 0.0
C792 C 0.39053 0.86426 0.00621 0.0
C793 C 0.32631 0.82368 -0.01568 0.0
C794 C 0.31817 0.84921 -0.0008 0.0
C795 C 0.36792 0.81761 0.98077 0.0
C796 C 0.4003 0.83886 -0.00835 0.0
H797 H 0.18338 0.85607 -0.01421 0.0
H798 H 0.22826 0.80773 0.96786 0.0
H799 H 0.29851 0.78691 0.96185 0.0
O800 O 0.37357 0.95953 0.04269 0.0
O801 O 0.34348 0.83612 0.02786 0.0
O802 O 0.28934 0.80992 0.04035 0.0
O803 O 0.33286 0.95389 0.02328 0.0
O804 O 0.39185 0.89134 0.04225 0.0
O805 O 0.38193 0.84148 0.0576 0.0
O806 O 0.29591 0.76655 0.06971 0.0
O807 O 0.34387 0.89337 0.07308 0.0
O808 O 0.30885 0.9234 0.05788 0.0
O809 O 0.34916 0.77485 0.05547 0.0
O810 O 0.25294 0.83436 0.05284 0.0
O811 O 0.26524 0.89955 0.04559 0.0
C812 C 0.31615 0.80314 0.02932 0.0
C813 C 0.40178 0.99229 0.02305 0.0
C814 C 0.4288 1.02767 0.00294 0.0
C815 C 0.47008 1.02474 0.00698 0.0
C816 C 0.44337 0.98991 0.02702 0.0
C817 C 0.47721 1.00575 0.01893 0.0
C818 C 0.39483 1.01119 0.01098 0.0
C819 C 0.40701 0.86676 0.0502 0.0
C820 C 0.36546 0.97658 0.03159 0.0
C821 C 0.25309 0.81892 0.97673 0.0
C822 C 0.2931 0.80709 0.97329 0.0
C823 C 0.33357 0.92783 0.06982 0.0
C824 C 0.35624 0.73947 0.07523 0.0
C825 C 0.36759 0.73291 0.10153 0.0
C826 C 0.40868 0.72485 0.09766 0.0
C827 C 0.39742 0.73138 0.07155 0.0
C828 C 0.34153 0.73943 0.09016 0.0
C829 C 0.42338 0.724 0.08272 0.0
C830 C 0.23834 0.86764 0.04934 0.0
C831 C 0.32969 0.75146 0.06412 0.0
H832 H 0.49675 0.03724 0.00093 0.0
H833 H 0.44983 0.97628 0.03647 0.0
H834 H 0.5091 1.00372 0.02205 0.0
H835 H 0.36294 1.01419 0.00814 0.0
H836 H 0.42944 0.71954 0.10619 0.0
H837 H 0.40971 0.73142 0.06015 0.0
H838 H 0.30947 0.74457 0.09301 0.0
H839 H 0.45515 0.71802 0.07983 0.0
Tb840 Tb 0.32859 0.41041 0.95263 0.0
C841 C 0.31618 0.46426 0.88804 0.0
N842 N 0.34732 0.45759 0.89675 0.0
C843 C 0.3789 0.4199 0.87357 0.0
C844 C 0.31411 0.4478 0.87174 0.0
C845 C 0.37952 0.43717 0.88973 0.0
C846 C 0.34563 0.42456 0.86454 0.0
C847 C 0.25779 0.50258 0.88699 0.0
C848 C 0.28855 0.49088 0.89547 0.0
C849 C 0.25358 0.48415 0.87083 0.0
C850 C 0.28173 0.45668 0.86321 0.0
Tb851 Tb 0.34316 0.48297 0.92316 0.0
N852 N 0.29439 0.50831 0.91096 0.0
C853 C 0.23363 0.53381 0.89491 0.0
C854 C 0.27271 0.54064 0.91862 0.0
C855 C 0.2417 0.55355 0.91076 0.0
H856 H 0.40533 0.43333 0.89658 0.0
H857 H 0.22408 0.57863 0.91693 0.0
H858 H 0.24163 0.33867 0.94453 0.0
H859 H 0.40663 0.49319 0.00806 0.0
H860 H 0.27879 0.55573 0.93089 0.0
H861 H 0.20974 0.54394 0.88883 0.0
H862 H 0.40281 0.46139 0.97964 0.0
H863 H 0.40399 0.4029 0.86809 0.0
H864 H 0.22972 0.49211 0.86407 0.0
H865 H 0.27911 0.44379 0.85069 0.0
H866 H 0.17742 0.3167 0.95819 0.0
H867 H 0.34526 0.41127 0.85204 0.0
H868 H 0.343 0.48455 0.02376 0.0
N869 N 0.26996 0.38569 0.96457 0.0
C870 C 0.2676 0.4033 0.98004 0.0
C871 C 0.20248 0.34129 0.96448 0.0
C872 C 0.2319 0.39183 -0.01162 0.0
C873 C 0.23886 0.35365 0.95679 0.0
C874 C 0.19868 0.36097 0.98031 0.0
N875 N 0.33712 0.43692 0.97909 0.0
C876 C 0.3747 0.45774 -0.01368 0.0
C877 C 0.30338 0.44701 0.0039 0.0
C878 C 0.30262 0.4302 -0.01238 0.0
C879 C 0.34103 0.47094 0.01126 0.0
C880 C 0.37704 0.47575 0.00244 0.0
H881 H 0.17062 0.35121 -0.01373 0.0
H882 H 0.20407 0.40231 0.01116 0.0
H883 H 0.26682 0.45087 0.02479 0.0
O884 O 0.36122 0.36382 0.93828 0.0
O885 O 0.35389 0.47984 0.95998 0.0
O886 O 0.3152 0.508 0.94531 0.0
O887 O 0.34077 0.35774 0.96092 0.0
O888 O 0.3951 0.44296 0.95052 0.0
O889 O 0.39752 0.44813 0.92519 0.0
O890 O 0.37517 0.53637 0.91587 0.0
O891 O 0.34727 0.41407 0.91709 0.0
O892 O 0.29523 0.38599 0.93022 0.0
O893 O 0.38989 0.52685 0.93807 0.0
O894 O 0.27336 0.4678 0.92872 0.0
O895 O 0.26532 0.42774 0.94746 0.0
C896 C 0.33058 0.50873 0.95883 0.0
C897 C 0.33957 0.2927 0.94106 0.0
C898 C 0.33874 0.21634 0.9405 0.0
C899 C 0.30614 0.20415 0.92916 0.0
C900 C 0.30709 0.27999 0.92966 0.0
C901 C 0.29059 0.2359 0.92374 0.0
C902 C 0.3554 0.26076 0.94636 0.0
C903 C 0.41717 0.44541 0.93787 0.0
C904 C 0.35675 0.33896 0.94782 0.0
C905 C 0.23136 0.41027 0.00452 0.0
C906 C 0.26709 0.43791 0.01228 0.0
C907 C 0.31267 0.3869 0.91697 0.0
C908 C 0.38895 0.59913 0.93738 0.0
C909 C 0.35211 0.66134 0.93963 0.0
C910 C 0.37089 0.68103 0.9544 0.0
C911 C 0.40824 0.61966 0.95203 0.0
C912 C 0.36164 0.62068 0.93117 0.0
C913 C 0.39936 0.66046 0.96044 0.0
C914 C 0.24891 0.44826 0.93818 0.0
C915 C 0.39432 0.55389 0.92936 0.0
H916 H 0.29284 0.17011 0.92447 0.0
H917 H 0.29428 0.30392 0.92536 0.0
H918 H 0.26553 0.22634 0.91498 0.0
H919 H 0.38001 0.27062 0.95533 0.0
H920 H 0.36373 0.71223 0.96118 0.0
H921 H 0.4294 0.60368 0.95713 0.0
H922 H 0.34625 0.60504 0.91995 0.0
H923 H 0.41416 0.67585 0.97175 0.0
Tb924 Tb 0.33821 0.98108 0.41441 0.0
C925 C 0.32812 1.01469 0.48429 0.0
N926 N 0.3571 0.99772 0.47425 0.0
C927 C 0.41216 0.0507 0.48933 0.0
C928 C 0.33969 0.05166 0.49689 0.0
C929 C 0.39905 1.01412 0.47694 0.0
C930 C 0.38228 0.07005 0.49919 0.0
C931 C 0.25656 1.00718 0.49329 0.0
C932 C 0.28722 0.99302 0.48248 0.0
C933 C 0.26707 0.04574 0.5052 0.0
C934 C 0.30859 0.06804 0.50701 0.0
Tb935 Tb 0.33102 0.94034 0.45362 0.0
N936 N 0.27864 0.95555 0.471 0.0
C937 C 0.217 0.98098 0.49224 0.0
C938 C 0.24168 0.92776 0.47091 0.0
C939 C 0.20989 0.94054 0.48123 0.0
H940 H 0.42244 1.00022 0.46924 0.0
H941 H 0.18009 0.91909 0.48074 0.0
H942 H 0.25904 1.02617 0.40649 0.0
H943 H 0.42403 0.86582 0.37571 0.0
H944 H 0.23658 0.89602 0.46262 0.0
H945 H 0.19253 0.99069 0.50034 0.0
H946 H 0.41482 0.92462 0.39892 0.0
H947 H 0.44528 0.06421 0.49116 0.0
H948 H 0.24372 0.05744 0.51342 0.0
H949 H 0.31661 0.09692 0.51659 0.0
H950 H 0.2017 1.00923 0.38658 0.0
H951 H 0.39249 0.09848 0.50873 0.0
H952 H 0.36684 0.83723 0.35575 0.0
N953 N 0.28626 0.96974 0.39597 0.0
C954 C 0.28675 0.93569 0.3833 0.0
C955 C 0.22519 0.98797 0.38558 0.0
C956 C 0.25542 0.92518 0.37146 0.0
C957 C 0.25749 0.99736 0.39685 0.0
C958 C 0.22369 0.9512 0.37294 0.0
N959 N 0.35192 0.92835 0.39273 0.0
C960 C 0.3893 0.91241 0.39046 0.0
C961 C 0.32522 0.88107 0.36795 0.0
C962 C 0.32104 0.9142 0.38157 0.0
C963 C 0.36236 0.86281 0.36603 0.0
C964 C 0.39476 0.87898 0.37725 0.0
H965 H 0.19899 0.94426 0.36411 0.0
H966 H 0.23413 0.8817 0.34903 0.0
H967 H 0.29555 0.84325 0.34589 0.0
O968 O 0.37857 0.04115 0.4218 0.0
O969 O 0.34864 0.92012 0.41843 0.0
O970 O 0.30008 0.89384 0.43313 0.0
O971 O 0.35405 1.01806 0.39823 0.0
O972 O 0.40255 0.97592 0.42311 0.0
O973 O 0.39767 0.94653 0.44475 0.0
O974 O 0.32827 0.90906 0.47168 0.0
O975 O 0.35543 1.00387 0.44993 0.0
O976 O 0.31051 1.02019 0.43434 0.0
O977 O 0.35989 0.88433 0.45053 0.0
O978 O 0.26615 0.93734 0.44308 0.0
O979 O 0.27116 0.9732 0.42308 0.0
C980 C 0.31681 0.89077 0.41956 0.0
C981 C 0.36231 0.09371 0.40967 0.0
C982 C 0.37423 0.16173 0.40186 0.0
C983 C 0.33838 0.17431 0.4099 0.0
C984 C 0.3268 0.10685 0.41787 0.0
C985 C 0.31502 0.14705 0.418 0.0
C986 C 0.38604 0.1214 0.40183 0.0
C987 C 0.42034 0.96156 0.43392 0.0
C988 C 0.3744 0.05081 0.40866 0.0
C989 C 0.25805 0.89058 0.35822 0.0
C990 C 0.29301 0.86864 0.35645 0.0
C991 C 0.32856 1.02858 0.44793 0.0
C992 C 0.38621 0.87476 0.47379 0.0
C993 C 0.41237 0.83576 0.49082 0.0
C994 C 0.4513 0.86367 0.49223 0.0
C995 C 0.42486 0.9029 0.4756 0.0
C996 C 0.38007 0.84136 0.48142 0.0
C997 C 0.45739 0.89707 0.48465 0.0
C998 C 0.24825 0.95398 0.43291 0.0
C999 C 0.35132 0.88061 0.46451 0.0
H1000 H 0.32865 0.20514 0.40994 0.0
H1001 H 0.30794 0.08607 0.42403 0.0
H1002 H 0.2875 0.15689 0.42427 0.0
H1003 H 0.41314 0.111 0.39533 0.0
H1004 H 0.47663 0.86037 0.49948 0.0
H1005 H 0.42978 0.92943 0.47011 0.0
H1006 H 0.35003 0.81981 0.48006 0.0
H1007 H 0.48722 0.91883 0.48596 0.0
Tb1008 Tb 0.59273 0.15921 0.70407 0.0
C1009 C 0.56354 1.02978 0.64094 0.0
N1010 N 0.58484 0.07146 0.64499 0.0
C1011 C 0.64001 0.04992 0.6276 0.0
C1012 C 0.58033 0.99631 0.63023 0.0
C1013 C 0.62216 0.08211 0.63828 0.0
C1014 C 0.61908 1.00684 0.62358 0.0
C1015 C 0.50358 0.97726 0.64465 0.0
C1016 C 0.52542 1.02038 0.64809 0.0
C1017 C 0.52004 0.94396 0.63382 0.0
C1018 C 0.55823 0.95345 0.62663 0.0
Tb1019 Tb 0.54949 0.12055 0.66119 0.0
N1020 N 0.51095 0.05319 0.65894 0.0
C1021 C 0.46603 0.96881 0.6523 0.0
C1022 C 0.47355 0.04537 0.66599 0.0
C1023 C 0.45089 1.00303 0.66294 0.0
H1024 H 0.63755 0.11555 0.64065 0.0
H1025 H 0.42141 0.99689 0.66866 0.0
H1026 H 0.52262 0.12351 0.72729 0.0
H1027 H 0.69271 0.31454 0.71046 0.0
H1028 H 0.46028 0.07155 0.67363 0.0
H1029 H 0.44833 0.93609 0.64998 0.0
H1030 H 0.66864 0.23564 0.69859 0.0
H1031 H 0.66962 0.05848 0.62232 0.0
H1032 H 0.50363 0.91063 0.63102 0.0
H1033 H 0.57062 0.9273 0.6184 0.0
H1034 H 0.48451 0.15546 0.75074 0.0
H1035 H 0.63301 0.98204 0.61528 0.0
H1036 H 0.65451 0.3544 0.73264 0.0
N1037 N 0.55512 0.18485 0.72545 0.0
C1038 C 0.5643 0.22841 0.73219 0.0
C1039 C 0.50623 0.17652 0.74548 0.0
C1040 C 0.54368 0.24811 0.74565 0.0
C1041 C 0.52758 0.15852 0.73214 0.0
C1042 C 0.51366 0.22163 0.75211 0.0
N1043 N 0.61611 0.23218 0.71331 0.0
C1044 C 0.65165 0.25315 0.70814 0.0
C1045 C 0.60925 0.29741 0.73338 0.0
C1046 C 0.59649 0.25276 0.72613 0.0
C1047 C 0.64374 0.32 0.72743 0.0
C1048 C 0.66537 0.29762 0.71488 0.0
H1049 H 0.49718 0.23543 0.76249 0.0
H1050 H 0.53918 0.30896 0.76284 0.0
H1051 H 0.59665 0.35212 0.7521 0.0
O1052 O 0.65551 0.15028 0.70618 0.0
O1053 O 0.5758 0.21524 0.69536 0.0
O1054 O 0.56284 0.19412 0.66857 0.0
O1055 O 0.61243 0.15047 0.72517 0.0
O1056 O 0.63298 0.14085 0.68423 0.0
O1057 O 0.61011 0.16248 0.66405 0.0
O1058 O 0.49243 0.11946 0.64983 0.0
O1059 O 0.5778 0.07212 0.67133 0.0
O1060 O 0.56566 0.08823 0.69755 0.0
O1061 O 0.55161 0.12743 0.63836 0.0
O1062 O 0.50608 0.14694 0.67902 0.0
O1063 O 0.52977 0.12312 0.69859 0.0
C1064 C 0.56857 0.225 0.68203 0.0
C1065 C 0.66941 0.11167 0.72423 0.0
C1066 C 0.73134 0.09622 0.73576 0.0
C1067 C 0.70834 0.05618 0.73697 0.0
C1068 C 0.64645 0.07194 0.72553 0.0
C1069 C 0.66628 0.04385 0.73161 0.0
C1070 C 0.7119 0.12232 0.72855 0.0
C1071 C 0.64053 0.16119 0.67335 0.0
C1072 C 0.65009 0.14569 0.72022 0.0
C1073 C 0.55488 0.29311 0.75254 0.0
C1074 C 0.58767 0.31769 0.74644 0.0
C1075 C 0.57165 0.05908 0.68438 0.0
C1076 C 0.49229 0.08617 0.6229 0.0
C1077 C 0.43047 0.0528 0.60595 0.0
C1078 C 0.45559 1.02598 0.5959 0.0
C1079 C 0.51696 0.05975 0.61255 0.0
C1080 C 0.44905 0.08156 0.61974 0.0
C1081 C 0.49841 1.02918 0.59932 0.0
C1082 C 0.50144 0.13956 0.69273 0.0
C1083 C 0.51079 0.12001 0.63672 0.0
H1084 H 0.72218 0.03513 0.74249 0.0
H1085 H 0.61334 0.06321 0.72221 0.0
H1086 H 0.64858 1.01327 0.73272 0.0
H1087 H 0.72929 0.15255 0.72692 0.0
H1088 H 0.44284 1.00391 0.58504 0.0
H1089 H 0.55056 0.06294 0.61452 0.0
H1090 H 0.43019 0.10166 0.6279 0.0
H1091 H 0.5176 1.00894 0.59139 0.0
Tb1092 Tb 0.12616 0.15249 0.16376 0.0
C1093 C 1.02193 0.11793 0.22405 0.0
N1094 N 1.01243 0.11063 0.20877 0.0
C1095 C 0.96693 0.04416 0.20921 0.0
C1096 C 1.00556 0.0879 0.23252 0.0
C1097 C 0.98388 0.07529 0.20139 0.0
C1098 C 0.9784 0.05011 0.22479 0.0
C1099 C 0.05296 0.1688 0.24756 0.0
C1100 C 1.04502 0.15753 0.23138 0.0
C1101 C 1.03911 0.13807 0.25602 0.0
C1102 C 1.01536 0.09762 0.2485 0.0
Tb1103 Tb 1.04344 0.16118 0.19648 0.0
N1104 N 0.05633 0.18645 0.22281 0.0
C1105 C 0.07285 0.21116 0.25478 0.0
C1106 C 0.07299 0.22875 0.22998 0.0
C1107 C 0.08231 0.24148 0.24597 0.0
H1108 H 0.97487 0.07071 0.18937 0.0
H1109 H 0.09648 0.27473 0.25151 0.0
H1110 H 0.08261 0.18102 0.13539 0.0
H1111 H 0.23973 0.04408 0.16062 0.0
H1112 H 0.07983 0.25263 0.22332 0.0
H1113 H 0.0796 0.22121 0.26719 0.0
H1114 H 0.20284 0.10628 0.17282 0.0
H1115 H 0.94507 1.01568 0.20324 0.0
H1116 H 1.04525 0.14587 0.26844 0.0
H1117 H 1.00352 0.07482 0.25522 0.0
H1118 H 0.0656 0.1495 0.10732 0.0
H1119 H 0.96506 1.02615 0.23087 0.0
H1120 H 0.22131 1.00114 0.13351 0.0
N1121 N 0.11196 0.12794 0.13757 0.0
C1122 C 0.12711 0.09131 0.12996 0.0
C1123 C 0.0826 0.13251 0.11358 0.0
C1124 C 0.11929 0.07259 0.11392 0.0
C1125 C 0.09201 0.1501 0.12949 0.0
C1126 C 0.09558 0.09306 0.10582 0.0
N1127 N 0.16306 0.09716 0.15308 0.0
C1128 C 0.19444 0.08735 0.16106 0.0
C1129 C 0.17433 0.04004 0.1305 0.0
C1130 C 0.15404 0.07537 0.13805 0.0
C1131 C 0.20484 1.02805 0.13887 0.0
C1132 C 0.21539 0.05228 0.15417 0.0
H1133 H 0.08871 0.07976 0.09347 0.0
H1134 H 0.13122 1.02029 0.09413 0.0
H1135 H 0.17963 0.99173 0.1087 0.0
O1136 O 0.17298 0.18149 0.15145 0.0
O1137 O 0.06008 0.15186 0.15889 0.0
O1138 O 1.02801 0.11223 0.1745 0.0
O1139 O 0.16936 0.20687 0.17617 0.0
O1140 O 0.11038 0.08673 0.16945 0.0
O1141 O 0.06389 0.09377 0.1903 0.0
O1142 O 1.00487 0.18659 0.18345 0.0
O1143 O 0.10791 0.19353 0.20245 0.0
O1144 O 0.14115 0.14342 0.18641 0.0
O1145 O 0.987 0.18045 0.20627 0.0
O1146 O 0.07829 0.22503 0.19343 0.0
O1147 O 0.08928 0.2079 0.1672 0.0
C1148 C 1.03213 0.11969 0.16082 0.0
C1149 C 0.23754 0.20909 0.16549 0.0
C1150 C 0.30262 0.18562 0.15425 0.0
C1151 C 0.32556 0.21367 0.16723 0.0
C1152 C 0.26089 0.23751 0.1783 0.0
C1153 C 0.30465 0.23948 0.17919 0.0
C1154 C 0.25865 0.18288 0.15371 0.0
C1155 C 0.08758 0.06982 0.17988 0.0
C1156 C 0.19167 0.20801 0.16395 0.0
C1157 C 0.13718 0.03553 0.10643 0.0
C1158 C 0.16477 1.01929 0.11471 0.0
C1159 C 0.14025 0.17304 0.19954 0.0
C1160 C 0.93195 0.16798 0.18749 0.0
C1161 C 0.85687 0.15022 0.19228 0.0
C1162 C 0.85007 0.1284 0.17642 0.0
C1163 C 0.92404 0.14723 0.17162 0.0
C1164 C 0.8981 0.16987 0.19769 0.0
C1165 C 0.88348 0.12717 0.16618 0.0
C1166 C 0.08494 0.23776 0.18039 0.0
C1167 C 0.97499 0.1884 0.19354 0.0
H1168 H 0.35951 0.21624 0.16799 0.0
H1169 H 0.24538 0.25833 0.18752 0.0
H1170 H 0.32247 0.26156 0.18908 0.0
H1171 H 0.24077 0.16008 0.14396 0.0
H1172 H 0.81897 0.11219 0.17192 0.0
H1173 H 0.94902 0.14672 0.16336 0.0
H1174 H 0.90392 0.1874 0.20981 0.0
H1175 H 0.87791 0.11075 0.15396 0.0
Tb1176 Tb 0.64034 0.24707 0.30793 0.0
C1177 C 0.49144 0.11356 0.27257 0.0
N1178 N 0.52759 0.13695 0.26899 0.0
C1179 C 0.5422 0.07397 0.24957 0.0
C1180 C 0.48042 0.06867 0.26531 0.0
C1181 C 0.55184 0.11848 0.25712 0.0
C1182 C 0.50665 0.04882 0.25382 0.0
C1183 C 0.42831 0.11182 0.28786 0.0
C1184 C 0.46583 0.13493 0.28371 0.0
C1185 C 0.4177 0.06676 0.28098 0.0
C1186 C 0.44364 0.04525 0.26971 0.0
Tb1187 Tb 0.53925 0.20936 0.2817 0.0
N1188 N 0.47683 0.17868 0.28996 0.0
C1189 C 0.40214 0.1349 0.29853 0.0
C1190 C 0.45003 0.20173 0.29961 0.0
C1191 C 0.41282 0.18012 0.30429 0.0
H1192 H 0.57865 0.13795 0.25353 0.0
H1193 H 0.3921 0.19846 0.31215 0.0
H1194 H 0.66378 0.17433 0.32591 0.0
H1195 H 0.62502 0.4174 0.33389 0.0
H1196 H 0.45682 0.23692 0.30353 0.0
H1197 H 0.37307 0.11834 0.30205 0.0
H1198 H 0.64972 0.35762 0.31431 0.0
H1199 H 0.56203 0.05915 0.24041 0.0
H1200 H 0.38912 0.04839 0.28409 0.0
H1201 H 0.43477 1.01062 0.26436 0.0
H1202 H 0.65228 0.1606 0.35177 0.0
H1203 H 0.49932 1.01435 0.24797 0.0
H1204 H 0.59551 0.40436 0.3584 0.0
N1205 N 0.63781 0.23346 0.33182 0.0
C1206 C 0.62289 0.26403 0.34333 0.0
C1207 C 0.64347 0.18958 0.34949 0.0
C1208 C 0.616 0.25758 0.35828 0.0
C1209 C 0.64961 0.1973 0.3348 0.0
C1210 C 0.62589 0.21944 0.3612 0.0
N1211 N 0.62568 0.30868 0.32585 0.0
C1212 C 0.63335 0.35037 0.32422 0.0
C1213 C 0.60394 0.33643 0.35221 0.0
C1214 C 0.61612 0.30265 0.34019 0.0
C1215 C 0.60451 0.37745 0.34948 0.0
C1216 C 0.62089 0.38489 0.33562 0.0
H1217 H 0.62107 0.21329 0.37255 0.0
H1218 H 0.59405 0.28499 0.38136 0.0
H1219 H 0.58411 0.35436 0.37613 0.0
O1220 O 0.69957 0.2559 0.29745 0.0
O1221 O 0.6227 0.29388 0.29485 0.0
O1222 O 0.55044 0.28101 0.29345 0.0
O1223 O 0.69481 0.26926 0.32208 0.0
O1224 O 0.64728 0.20079 0.28603 0.0
O1225 O 0.60077 0.22034 0.27112 0.0
O1226 O 0.48361 0.21129 0.2701 0.0
O1227 O 0.56183 0.15312 0.28902 0.0
O1228 O 0.62713 0.17301 0.30222 0.0
O1229 O 0.54412 0.22694 0.26048 0.0
O1230 O 0.53286 0.24722 0.30557 0.0
O1231 O 0.58112 0.21753 0.31556 0.0
C1232 C 0.58635 0.30801 0.29363 0.0
C1233 C 0.75469 0.24074 0.31173 0.0
C1234 C 0.80214 0.22086 0.32879 0.0
C1235 C 0.81527 0.19038 0.31591 0.0
C1236 C 0.76785 0.2101 0.29893 0.0
C1237 C 0.79848 0.18548 0.30104 0.0
C1238 C 0.77325 0.24702 0.3264 0.0
C1239 C 0.63384 0.20238 0.27253 0.0
C1240 C 0.72023 0.26508 0.31057 0.0
C1241 C 0.60029 0.28968 0.36987 0.0
C1242 C 0.59434 0.32907 0.36685 0.0
C1243 C 0.5941 0.1426 0.29587 0.0
C1244 C 0.48835 0.26259 0.25555 0.0
C1245 C 0.43099 0.28958 0.24548 0.0
C1246 C 0.45285 0.33238 0.25045 0.0
C1247 C 0.51059 0.30532 0.26012 0.0
C1248 C 0.44898 0.25496 0.24806 0.0
C1249 C 0.49278 0.34008 0.25761 0.0
C1250 C 0.5468 0.23484 0.3171 0.0
C1251 C 0.50356 0.22547 0.25919 0.0
H1252 H 0.8374 0.16947 0.31737 0.0
H1253 H 0.75419 0.20474 0.28743 0.0
H1254 H 0.80838 0.16166 0.29119 0.0
H1255 H 0.76387 0.27154 0.33617 0.0
H1256 H 0.43928 0.35957 0.24866 0.0
H1257 H 0.54134 0.31181 0.26571 0.0
H1258 H 0.43166 0.22196 0.24461 0.0
H1259 H 0.50983 0.37304 0.26131 0.0
Tb1260 Tb 0.11685 0.23099 0.78533 0.0
C1261 C 0.05159 0.29591 0.85459 0.0
N1262 N 0.06252 0.25856 0.84549 0.0
C1263 C 0.10111 0.24988 0.86704 0.0
C1264 C 0.06595 0.31267 0.87018 0.0
C1265 C 0.08515 0.23419 0.85173 0.0
C1266 C 0.09208 0.28972 0.87623 0.0
C1267 C 1.00709 0.35159 0.85783 0.0
C1268 C 1.02303 0.31515 0.84855 0.0
C1269 C 1.02268 0.36996 0.87318 0.0
C1270 C 0.05227 0.35062 0.87933 0.0
Tb1271 Tb 1.03923 0.23879 0.82 0.0
N1272 N 1.00843 0.29582 0.83384 0.0
C1273 C 0.97494 0.36725 0.85158 0.0
C1274 C 0.9757 0.30947 0.82791 0.0
C1275 C 0.95877 0.34568 0.83661 0.0
H1276 H 0.09187 0.20306 0.84481 0.0
H1277 H 0.93328 0.35688 0.83178 0.0
H1278 H 0.18654 0.3209 0.79188 0.0
H1279 H 0.05438 0.12307 0.73064 0.0
H1280 H 0.96327 0.29279 0.81637 0.0
H1281 H 0.96162 0.39507 0.85834 0.0
H1282 H 0.07709 0.14216 0.75831 0.0
H1283 H 0.12019 0.23114 0.87175 0.0
H1284 H 1.01118 0.39824 0.8805 0.0
H1285 H 0.06318 0.36428 0.8913 0.0
H1286 H 0.21248 0.37802 0.77841 0.0
H1287 H 0.10409 0.30158 0.88812 0.0
H1288 H 0.06593 0.17926 0.71587 0.0
N1289 N 0.14434 0.28372 0.77339 0.0
C1290 C 0.13126 0.2784 0.75857 0.0
C1291 C 0.18934 0.35031 0.77273 0.0
C1292 C 0.14538 0.30964 0.75032 0.0
C1293 C 0.17458 0.318 0.78033 0.0
C1294 C 0.1741 0.34652 0.75775 0.0
N1295 N 0.09823 0.20909 0.75945 0.0
C1296 C 0.08145 0.16709 0.75203 0.0
C1297 C 0.09566 0.22998 0.73543 0.0
C1298 C 0.10697 0.23943 0.7513 0.0
C1299 C 0.07522 0.18794 0.72806 0.0
C1300 C 0.06879 0.15611 0.73635 0.0
H1301 H 0.18581 0.37135 0.75183 0.0
H1302 H 0.14202 0.32567 0.72823 0.0
H1303 H 0.0983 0.2557 0.71514 0.0
O1304 O 0.16214 0.20753 0.79635 0.0
O1305 O 0.0516 0.19936 0.7813 0.0
O1306 O 1.02006 0.24954 0.7982 0.0
O1307 O 0.16746 0.20824 0.77223 0.0
O1308 O 0.0843 0.16669 0.78895 0.0
O1309 O 0.07593 0.18287 0.81542 0.0
O1310 O 0.98926 0.21332 0.83226 0.0
O1311 O 0.10517 0.23477 0.82164 0.0
O1312 O 0.13754 0.27783 0.80748 0.0
O1313 O 0.99804 0.18246 0.8082 0.0
O1314 O 0.05392 0.30467 0.81415 0.0
O1315 O 0.09725 0.29809 0.79241 0.0
C1316 C 1.01989 0.22071 0.7848 0.0
C1317 C 0.23064 0.22391 0.78688 0.0
C1318 C 0.30074 0.23518 0.77641 0.0
C1319 C 0.31578 0.2624 0.79093 0.0
C1320 C 0.24591 0.25171 0.80132 0.0
C1321 C 0.2883 0.27081 0.8033 0.0
C1322 C 0.25824 0.21605 0.77448 0.0
C1323 C 0.07989 0.15361 0.80201 0.0
C1324 C 0.18623 0.2031 0.7843 0.0
C1325 C 0.13197 0.30189 0.73476 0.0
C1326 C 0.10707 0.26205 0.72731 0.0
C1327 C 0.1326 0.26819 0.82077 0.0
C1328 C 0.92779 0.17569 0.81703 0.0
C1329 C 0.85668 0.17912 0.82684 0.0
C1330 C 0.83977 0.15913 0.81185 0.0
C1331 C 0.9103 0.15376 0.80217 0.0
C1332 C 0.90057 0.18762 0.82934 0.0
C1333 C 0.8666 0.14609 0.79958 0.0
C1334 C 0.07536 0.32187 0.80348 0.0
C1335 C 0.97387 0.18283 0.82005 0.0
H1336 H 0.34862 0.27722 0.79265 0.0
H1337 H 0.22531 0.2587 0.81106 0.0
H1338 H 0.29989 0.29204 0.81446 0.0
H1339 H 0.24674 0.19433 0.76335 0.0
H1340 H 0.80598 0.15274 0.80973 0.0
H1341 H 0.93032 0.14234 0.79256 0.0
H1342 H 0.91341 0.20342 0.84097 0.0
H1343 H 0.85349 0.12961 0.78807 0.0
H1344 H 0.11079 0.78109 0.15604 0.0
H1345 H 0.06942 0.80856 0.20325 0.0
H1346 H 0.10941 0.85674 0.15585 0.0
H1347 H 0.06997 0.88464 0.20352 0.0
H1348 H 0.05054 1.02145 0.2002 0.0
H1349 H 0.05025 0.94541 0.19996 0.0
H1350 H 0.12824 0.92948 0.15954 0.0
H1351 H 0.12661 1.00518 0.15953 0.0
C1352 C 0.10163 0.80312 0.16654 0.0
C1353 C 0.0908 0.78704 0.17975 0.0
C1354 C 0.10115 0.84769 0.16651 0.0
C1355 C 0.08979 0.87953 0.17971 0.0
C1356 C 0.07874 0.86306 0.19288 0.0
C1357 C 0.07904 0.81847 0.19285 0.0
C1358 C 0.0674 1.00192 0.19111 0.0
C1359 C 0.08834 1.02124 0.17985 0.0
C1360 C 0.06772 0.95729 0.19103 0.0
C1361 C 0.08931 0.92863 0.17973 0.0
C1362 C 0.11045 0.9483 0.16849 0.0
C1363 C 0.10989 0.99291 0.16854 0.0
H1364 H 0.69964 0.9813 0.41197 0.0
H1365 H 0.68953 0.93507 0.45324 0.0
H1366 H 0.62359 0.98214 0.41196 0.0
H1367 H 0.61401 0.93658 0.45355 0.0
H1368 H 0.46933 0.91575 0.44771 0.0
H1369 H 0.54492 0.91471 0.44732 0.0
H1370 H 0.56006 1.00441 0.41833 0.0
H1371 H 0.48396 1.0047 0.4187 0.0
C1372 C 0.68152 0.97154 0.4212 0.0
C1373 C 0.70238 0.95795 0.43257 0.0
C1374 C 0.63695 0.97211 0.42125 0.0
C1375 C 0.61015 0.95934 0.43274 0.0
C1376 C 0.63144 0.94606 0.44416 0.0
C1377 C 0.67585 0.9453 0.44405 0.0
C1378 C 0.48852 0.93598 0.44144 0.0
C1379 C 0.46885 0.96098 0.43353 0.0
C1380 C 0.53299 0.93538 0.44115 0.0
C1381 C 0.56118 0.95979 0.43289 0.0
C1382 C 0.54123 0.9845 0.42482 0.0
C1383 C 0.49664 0.98492 0.42509 0.0
H1384 H 0.57229 0.26439 0.65711 0.0
H1385 H 0.56437 0.29914 0.70688 0.0
H1386 H 0.57335 0.34063 0.65709 0.0
H1387 H 0.56764 0.37553 0.70716 0.0
H1388 H 0.5519 0.51491 0.70612 0.0
H1389 H 0.54944 0.43866 0.70575 0.0
H1390 H 0.59472 0.41236 0.65884 0.0
H1391 H 0.59499 0.48879 0.65915 0.0
C1392 C 0.57108 0.28812 0.66819 0.0
C1393 C 0.56883 0.27382 0.68204 0.0
C1394 C 0.57206 0.33302 0.66823 0.0
C1395 C 0.57086 0.36705 0.68214 0.0
C1396 C 0.56836 0.35235 0.69597 0.0
C1397 C 0.56714 0.30747 0.69588 0.0
C1398 C 0.56093 0.49309 0.69558 0.0
C1399 C 0.57328 0.50987 0.68265 0.0
C1400 C 0.56007 0.44823 0.69539 0.0
C1401 C 0.57188 0.41654 0.68226 0.0
C1402 C 0.58464 0.43362 0.66932 0.0
C1403 C 0.58526 0.47861 0.66951 0.0
H1404 H 0.9754 0.45851 0.9637 0.0
H1405 H 0.97345 0.43574 0.91392 0.0
H1406 H 0.05172 0.45933 0.96356 0.0
H1407 H 0.04963 0.43635 0.91369 0.0
H1408 H 0.19641 0.46898 0.91709 0.0
H1409 H 0.12017 0.46912 0.91728 0.0
H1410 H 0.11252 0.42712 0.95956 0.0
H1411 H 0.18874 0.42804 0.95946 0.0
C1412 C 0.99088 0.45347 0.95262 0.0
C1413 C 0.96646 0.44676 0.93883 0.0
C1414 C 1.03554 0.45373 0.9525 0.0
C1415 C 0.05903 0.44783 0.9386 0.0
C1416 C 1.03449 0.44161 0.92482 0.0
C1417 C 0.98981 0.44104 0.92494 0.0
C1418 C 0.17879 0.46006 0.92656 0.0
C1419 C 0.20042 0.44864 0.93828 0.0
C1420 C 0.1341 0.45967 0.92661 0.0
C1421 C 0.108 0.44815 0.93846 0.0
C1422 C 0.1299 0.43687 0.9502 0.0
C1423 C 0.17449 0.43698 0.95008 0.0
H1424 H 0.07572 0.57766 0.77826 0.0
H1425 H 0.07755 0.61542 0.82817 0.0
H1426 H 0.07386 0.50148 0.77839 0.0
H1427 H 0.077 0.53935 0.82852 0.0
H1428 H 0.04698 0.39028 0.8262 0.0
H1429 H 0.04677 0.46664 0.82619 0.0
H1430 H 0.10276 0.44244 0.78102 0.0
H1431 H 0.10179 0.36636 0.78096 0.0
C1432 C 0.07502 0.57002 0.78936 0.0
C1433 C 0.07553 0.60428 0.80315 0.0
C1434 C 0.07475 0.52547 0.78949 0.0
C1435 C 0.07504 0.51192 0.80349 0.0
C1436 C 0.07599 0.54645 0.81733 0.0
C1437 C 0.07653 0.59106 0.81715 0.0
C1438 C 0.05917 0.40092 0.81618 0.0
C1439 C 0.0746 0.37046 0.80361 0.0
C1440 C 0.0594 0.44568 0.8162 0.0
C1441 C 0.0748 0.46297 0.8036 0.0
C1442 C 0.08997 0.43218 0.79102 0.0
C1443 C 0.08989 0.38763 0.79104 0.0
H1444 H 0.19331 0.93706 0.05018 0.0
H1445 H 0.16992 0.80015 0.04817 0.0
H1446 H 0.11703 0.93796 0.05002 0.0
H1447 H 0.09404 0.80162 0.04902 0.0
H1448 H 0.95704 0.82629 0.06456 0.0
H1449 H 1.03307 0.82532 0.06415 0.0
H1450 H 0.04834 0.91574 0.03559 0.0
H1451 H 0.97195 0.91527 0.03557 0.0
C1452 C 0.17235 0.90687 0.0497 0.0
C1453 C 0.18975 0.86858 0.04935 0.0
C1454 C 0.12776 0.90743 0.04968 0.0
C1455 C 0.09751 0.86994 0.04963 0.0
C1456 C 0.11496 0.83176 0.04934 0.0
C1457 C 0.15943 0.83099 0.049 0.0
C1458 C 0.97606 0.84578 0.05802 0.0
C1459 C 0.95632 0.87065 0.05005 0.0
C1460 C 1.0206 0.84525 0.05777 0.0
C1461 C 0.04876 0.87045 0.04982 0.0
C1462 C 1.02913 0.89589 0.04203 0.0
C1463 C 0.98443 0.89559 0.042 0.0
H1464 H 0.52843 0.86609 0.30719 0.0
H1465 H 0.65159 0.8701 0.28757 0.0
H1466 H 0.52926 0.94277 0.30718 0.0
H1467 H 0.65249 0.94607 0.28728 0.0
H1468 H 0.66065 0.09805 0.29938 0.0
H1469 H 0.65944 1.02182 0.29987 0.0
H1470 H 0.52426 0.99839 0.2941 0.0
H1471 H 0.52573 0.07467 0.29381 0.0
C1472 C 0.55593 0.88292 0.30284 0.0
C1473 C 0.58971 0.85988 0.29717 0.0
C1474 C 0.55633 0.92766 0.30269 0.0
C1475 C 0.59093 0.95272 0.29716 0.0
C1476 C 0.62495 0.92968 0.29177 0.0
C1477 C 0.62423 0.88492 0.29171 0.0
C1478 C 0.63046 0.07689 0.29817 0.0
C1479 C 0.59336 0.09408 0.29628 0.0
C1480 C 0.62971 0.03222 0.29837 0.0
C1481 C 0.59171 1.00173 0.29696 0.0
C1482 C 0.55456 1.01929 0.29531 0.0
C1483 C 0.55541 0.0638 0.29492 0.0
H1484 H 0.68248 0.35911 0.57293 0.0
H1485 H 0.68561 0.3749 0.52643 0.0
H1486 H 0.60641 0.36036 0.57345 0.0
H1487 H 0.6099 0.37501 0.52666 0.0
H1488 H 0.47231 0.39944 0.53121 0.0
H1489 H 0.54804 0.39982 0.53147 0.0
H1490 H 0.53539 0.33735 0.56905 0.0
H1491 H 0.4594 0.33887 0.56909 0.0
C1492 C 0.66726 0.36267 0.56269 0.0
C1493 C 0.69201 0.36689 0.54964 0.0
C1494 C 0.6226 0.36316 0.56293 0.0
C1495 C 0.59946 0.36783 0.55011 0.0
C1496 C 0.62456 0.372 0.53707 0.0
C1497 C 0.66908 0.37164 0.53687 0.0
C1498 C 0.4853 0.38602 0.53969 0.0
C1499 C 0.4579 0.36933 0.55015 0.0
C1500 C 0.52981 0.38569 0.53974 0.0
C1501 C 0.55041 0.36839 0.55023 0.0
C1502 C 0.52278 0.3516 0.56073 0.0
C1503 C 0.47813 0.35207 0.56068 0.0
H1504 H 0.09606 0.27782 0.15582 0.0
H1505 H 0.07697 0.31067 0.20516 0.0
H1506 H 0.09769 0.35418 0.15582 0.0
H1507 H 0.07952 0.38732 0.20536 0.0
H1508 H 0.0568 0.52362 0.20164 0.0
H1509 H 0.05465 0.44727 0.20165 0.0
H1510 H 0.12666 0.42646 0.15978 0.0
H1511 H 0.12863 0.50279 0.15988 0.0
C1512 C 0.09232 0.30117 0.16679 0.0
C1513 C 0.08624 0.28647 0.18048 0.0
C1514 C 0.09356 0.34596 0.16684 0.0
C1515 C 0.08883 0.3792 0.1806 0.0
C1516 C 0.08278 0.36424 0.19431 0.0
C1517 C 0.08155 0.31943 0.19424 0.0
C1518 C 0.07223 0.50301 0.19235 0.0
C1519 C 0.09206 0.52086 0.18055 0.0
C1520 C 0.0712 0.4583 0.19238 0.0
C1521 C 0.09014 0.42832 0.18064 0.0
C1522 C 0.1105 0.44654 0.16896 0.0
C1523 C 0.11156 0.49127 0.16896 0.0
H1524 H 0.18423 0.90244 0.44521 0.0
H1525 H 0.19852 1.00185 0.42041 0.0
H1526 H 0.10792 0.90145 0.44555 0.0
H1527 H 0.12229 0.9999 0.42019 0.0
H1528 H 0.97699 0.96469 0.41079 0.0
H1529 H 0.05336 0.96581 0.41084 0.0
H1530 H 0.04662 0.93312 0.45484 0.0
H1531 H 0.97006 0.9321 0.45474 0.0
C1532 C 0.17163 0.92453 0.43988 0.0
C1533 C 0.19946 0.9523 0.4328 0.0
C1534 C 0.12695 0.92386 0.44001 0.0
C1535 C 0.10697 0.9505 0.43287 0.0
C1536 C 0.13484 0.97804 0.42569 0.0
C1537 C 0.17951 0.97908 0.42574 0.0
C1538 C 0.99146 0.95768 0.42055 0.0
C1539 C 0.9658 0.94824 0.43275 0.0
C1540 C 1.03612 0.9586 0.42064 0.0
C1541 C 0.05809 0.94961 0.43285 0.0
C1542 C 1.03226 0.93988 0.44502 0.0
C1543 C 0.98761 0.93951 0.44502 0.0
H1544 H 0.59843 0.98981 0.66175 0.0
H1545 H 0.54456 1.01545 0.70712 0.0
H1546 H 0.5966 0.91341 0.66163 0.0
H1547 H 0.54267 0.93913 0.70717 0.0
H1548 H 0.56585 0.80148 0.70935 0.0
H1549 H 0.56812 0.8781 0.70946 0.0
H1550 H 0.56785 0.84187 0.65932 0.0
H1551 H 0.56655 0.76563 0.65936 0.0
C1552 C 0.58559 0.97939 0.67171 0.0
C1553 C 0.5712 1.0104 0.68434 0.0
C1554 C 0.58453 0.9346 0.67169 0.0
C1555 C 0.56932 0.91769 0.68438 0.0
C1556 C 0.55527 0.94905 0.69708 0.0
C1557 C 0.55619 0.99377 0.69705 0.0
C1558 C 0.56626 0.80954 0.69828 0.0
C1559 C 0.56592 0.77569 0.68435 0.0
C1560 C 0.56733 0.85437 0.6983 0.0
C1561 C 0.56818 0.86852 0.68439 0.0
C1562 C 0.56787 0.83438 0.67047 0.0
C1563 C 0.56679 0.78961 0.67046 0.0
H1564 H 0.46987 0.43082 0.96017 0.0
H1565 H 0.47669 0.45919 0.91554 0.0
H1566 H 0.54557 0.42939 0.96005 0.0
H1567 H 0.55261 0.45945 0.9155 0.0
H1568 H 0.69152 0.43712 0.91303 0.0
H1569 H 0.61561 0.43711 0.91294 0.0
H1570 H 0.61542 0.45096 0.96246 0.0
H1571 H 0.69109 0.45007 0.96227 0.0
C1572 C 0.48736 0.4371 0.95028 0.0
C1573 C 0.46556 0.44504 0.93786 0.0
C1574 C 0.53185 0.43658 0.95021 0.0
C1575 C 0.55781 0.44436 0.93776 0.0
C1576 C 0.53565 0.4525 0.92537 0.0
C1577 C 0.49111 0.45265 0.9254 0.0
C1578 C 0.67551 0.44033 0.92397 0.0
C1579 C 0.699 0.44332 0.93764 0.0
C1580 C 0.63095 0.44046 0.92398 0.0
C1581 C 0.60677 0.44401 0.93771 0.0
C1582 C 0.6307 0.44729 0.9514 0.0
C1583 C 0.67516 0.44682 0.95134 0.0
H1584 H 0.1158 0.90037 0.82246 0.0
H1585 H 1.03763 0.85869 0.78102 0.0
H1586 H 0.11647 0.97671 0.82259 0.0
H1587 H 1.03928 0.93492 0.78069 0.0
H1588 H 0.08307 0.11564 0.82678 0.0
H1589 H 0.08218 0.03924 0.82672 0.0
H1590 H 0.07473 1.00227 0.77663 0.0
H1591 H 0.07577 0.07898 0.77676 0.0
C1592 C 0.09797 0.90708 0.81347 0.0
C1593 C 0.07589 0.87172 0.80196 0.0
C1594 C 0.0986 0.95168 0.81343 0.0
C1595 C 0.07775 0.96391 0.80168 0.0
C1596 C 0.05629 0.92841 0.78998 0.0
C1597 C 0.05529 0.88384 0.79016 0.0
C1598 C 0.08132 0.09149 0.81567 0.0
C1599 C 0.07958 0.10501 0.80178 0.0
C1600 C 0.08103 0.0469 0.81562 0.0
C1601 C 0.07841 1.01271 0.80167 0.0
C1602 C 0.07637 1.02629 0.78776 0.0
C1603 C 0.07722 0.07105 0.78781 0.0
H1604 H 0.45647 0.82522 0.06596 0.0
H1605 H 0.4708 0.9078 0.0346 0.0
H1606 H 0.53284 0.82574 0.06604 0.0
H1607 H 0.5468 0.90872 0.0347 0.0
H1608 H 0.68394 0.87918 0.02725 0.0
H1609 H 0.60753 0.8778 0.02727 0.0
H1610 H 0.60326 0.85788 0.0733 0.0
H1611 H 0.67969 0.85895 0.07315 0.0
C1612 C 0.47554 0.84392 0.05911 0.0
C1613 C 0.45565 0.86686 0.05039 0.0
C1614 C 0.52027 0.84436 0.05918 0.0
C1615 C 0.54814 0.86735 0.05038 0.0
C1616 C 0.52802 0.88996 0.04159 0.0
C1617 C 0.48345 0.88978 0.04163 0.0
C1618 C 0.66701 0.87448 0.03745 0.0
C1619 C 0.68966 0.86928 0.0502 0.0
C1620 C 0.62234 0.87395 0.03753 0.0
C1621 C 0.5971 0.8678 0.05031 0.0
C1622 C 0.61989 0.86229 0.06303 0.0
C1623 C 0.66464 0.8632 0.06299 0.0
H1624 H 0.5244 0.36186 0.30286 0.0
H1625 H 0.64821 0.36611 0.28362 0.0
H1626 H 0.52546 0.43879 0.30309 0.0
H1627 H 0.64893 0.44261 0.28344 0.0
H1628 H 0.62137 0.57216 0.27207 0.0
H1629 H 0.62017 0.49512 0.27171 0.0
H1630 H 0.55667 0.51635 0.31538 0.0
H1631 H 0.55896 0.59354 0.31593 0.0
C1632 C 0.55194 0.37882 0.29855 0.0
C1633 C 0.58623 0.35628 0.29324 0.0
C1634 C 0.55269 0.42372 0.29876 0.0
C1635 C 0.58734 0.44869 0.29329 0.0
C1636 C 0.62126 0.42576 0.2877 0.0
C1637 C 0.62092 0.38121 0.28785 0.0
C1638 C 0.60716 0.56077 0.28168 0.0
C1639 C 0.59041 0.59069 0.29406 0.0
C1640 C 0.6066 0.51591 0.28152 0.0
C1641 C 0.58824 0.49774 0.2935 0.0
C1642 C 0.57095 0.52761 0.30576 0.0
C1643 C 0.57246 0.57269 0.30612 0.0
H1644 H 0.18311 0.35928 0.57147 0.0
H1645 H 0.18965 0.39751 0.52856 0.0
H1646 H 0.10654 0.35722 0.57148 0.0
H1647 H 0.11295 0.39589 0.52859 0.0
H1648 H 0.97532 0.42652 0.5398 0.0
H1649 H 0.05171 0.42789 0.53923 0.0
H1650 H 1.03771 0.32194 0.56111 0.0
H1651 H 0.96122 0.31943 0.56103 0.0
C1652 C 0.16852 0.36741 0.56197 0.0
C1653 C 0.19411 0.37864 0.55002 0.0
C1654 C 0.12378 0.36595 0.56192 0.0
C1655 C 0.10169 0.37633 0.55004 0.0
C1656 C 0.12744 0.38794 0.53815 0.0
C1657 C 0.17215 0.38869 0.53807 0.0
C1658 C 0.98795 0.40256 0.54414 0.0
C1659 C 0.96016 0.37214 0.55011 0.0
C1660 C 1.03269 0.4036 0.54394 0.0
C1661 C 0.05277 0.37496 0.55007 0.0
C1662 C 1.02498 0.34513 0.55633 0.0
C1663 C 0.98023 0.34363 0.55628 0.0
H1664 H 0.31928 0.78925 0.11916 0.0
H1665 H 0.37644 0.67603 0.11895 0.0
H1666 H 0.27688 0.77844 0.14108 0.0
H1667 H 0.33574 0.66659 0.14153 0.0
H1668 H 0.20282 0.61931 0.15737 0.0
H1669 H 0.26215 0.63958 0.14219 0.0
H1670 H 0.2681 0.77494 0.16774 0.0
H1671 H 0.20721 0.75439 0.18276 0.0
C1672 C 0.32356 0.76269 0.12408 0.0
C1673 C 0.35032 0.73276 0.11707 0.0
C1674 C 0.29962 0.75681 0.13679 0.0
C1675 C 0.30233 0.72113 0.14288 0.0
C1676 C 0.33227 0.69383 0.13686 0.0
C1677 C 0.35595 0.69949 0.12403 0.0
C1678 C 0.21709 0.65336 0.15989 0.0
C1679 C 0.20016 0.68539 0.17108 0.0
C1680 C 0.25149 0.66496 0.1513 0.0
C1681 C 0.27005 0.70891 0.15376 0.0
C1682 C 0.25429 0.74083 0.16549 0.0
C1683 C 0.21964 0.72913 0.17413 0.0
H1684 H 0.88048 0.2164 0.33959 0.0
H1685 H 0.75347 0.23087 0.35448 0.0
H1686 H 0.90018 0.21689 0.366 0.0
H1687 H 0.77383 0.23441 0.38087 0.0
H1688 H 0.93291 0.23623 0.41571 0.0
H1689 H 0.91156 0.25864 0.39311 0.0
H1690 H 0.78889 0.18036 0.39285 0.0
H1691 H 0.80994 0.15952 0.41554 0.0
C1692 C 0.85698 0.22023 0.34851 0.0
C1693 C 0.81548 0.22357 0.34491 0.0
C1694 C 0.86841 0.22131 0.36369 0.0
C1695 C 0.83856 0.22587 0.37554 0.0
C1696 C 0.79748 0.23058 0.372 0.0
C1697 C 0.78597 0.229 0.35686 0.0
C1698 C 0.90087 0.22551 0.41115 0.0
C1699 C 0.873 0.19611 0.4172 0.0
C1700 C 0.88885 0.23772 0.39811 0.0
C1701 C 0.84883 0.22067 0.39103 0.0
C1702 C 0.81984 0.1944 0.39804 0.0
C1703 C 0.83182 0.18234 0.41103 0.0
H1704 H 0.43291 0.44517 0.57789 0.0
H1705 H 0.31463 0.47672 0.59776 0.0
H1706 H 0.46953 0.4847 0.60262 0.0
H1707 H 0.3513 0.51671 0.62241 0.0
H1708 H 0.50572 0.52303 0.65594 0.0
H1709 H 0.46576 0.47735 0.63254 0.0
H1710 H 0.41095 0.58844 0.62841 0.0
H1711 H 0.45182 0.63413 0.65142 0.0
C1712 C 0.41484 0.46051 0.58757 0.0
C1713 C 0.37104 0.4578 0.58608 0.0
C1714 C 0.43566 0.48272 0.60168 0.0
C1715 C 0.41302 0.50333 0.61433 0.0
C1716 C 0.36926 0.50086 0.61279 0.0
C1717 C 0.34837 0.47797 0.59878 0.0
C1718 C 0.48461 0.53725 0.6501 0.0
C1719 C 0.48135 0.58171 0.65534 0.0
C1720 C 0.46212 0.51139 0.63674 0.0
C1721 C 0.43536 0.52958 0.62882 0.0
C1722 C 0.43112 0.57373 0.63445 0.0
C1723 C 0.45437 0.59974 0.64753 0.0
H1724 H 0.85053 0.14881 0.85251 0.0
H1725 H 0.80294 0.23861 0.83124 0.0
H1726 H 0.82278 0.18416 0.87745 0.0
H1727 H 0.7757 0.27475 0.85622 0.0
H1728 H 0.74368 0.34538 0.90391 0.0
H1729 H 0.73732 0.28409 0.88037 0.0
H1730 H 0.85699 0.25391 0.89237 0.0
H1731 H 0.86257 0.31419 0.9156 0.0
C1732 C 0.83291 0.17533 0.85314 0.0
C1733 C 0.82947 0.19177 0.84018 0.0
C1734 C 0.81716 0.19566 0.86738 0.0
C1735 C 0.79855 0.23332 0.86893 0.0
C1736 C 0.79038 0.24618 0.85547 0.0
C1737 C 0.80596 0.22559 0.84116 0.0
C1738 C 0.76754 0.32426 0.90168 0.0
C1739 C 0.80337 0.33367 0.91145 0.0
C1740 C 0.76415 0.28955 0.88821 0.0
C1741 C 0.79647 0.26386 0.88452 0.0
C1742 C 0.83095 0.27213 0.89498 0.0
C1743 C 0.83441 0.30681 0.90826 0.0
H1744 H 0.28325 0.6933 0.95382 0.0
H1745 H 0.34934 0.67222 0.91053 0.0
H1746 H 0.22411 0.71144 0.94112 0.0
H1747 H 0.29018 0.68827 0.89771 0.0
H1748 H 0.18696 0.72998 0.87716 0.0
H1749 H 0.24708 0.73893 0.89444 0.0
H1750 H 0.1705 0.66693 0.92254 0.0
H1751 H 0.1094 0.66076 0.90591 0.0
C1752 C 0.28548 0.69357 0.94169 0.0
C1753 C 0.32055 0.68099 0.93308 0.0
C1754 C 0.2515 0.70341 0.93438 0.0
C1755 C 0.25216 0.70079 0.91835 0.0
C1756 C 0.28863 0.69111 0.91008 0.0
C1757 C 0.32247 0.6815 0.91738 0.0
C1758 C 0.18245 0.71721 0.88729 0.0
C1759 C 0.14329 0.69422 0.89003 0.0
C1760 C 0.21716 0.72193 0.89711 0.0
C1761 C 0.21379 0.70319 0.90977 0.0
C1762 C 0.17418 0.68211 0.91298 0.0
C1763 C 0.13928 0.67787 0.90326 0.0
H1764 H 0.92393 0.9804 0.07103 0.0
H1765 H 0.82445 0.95292 0.10197 0.0
H1766 H 0.9663 1.02751 0.0931 0.0
H1767 H 0.86791 0.99876 0.12421 0.0
H1768 H 1.00781 0.14363 0.13551 0.0
H1769 H 0.96124 0.09945 0.11394 0.0
H1770 H 0.93989 0.99477 0.13665 0.0
H1771 H 0.98818 0.03825 0.15791 0.0
C1772 C 0.91096 0.98433 0.08253 0.0
C1773 C 0.87098 0.96208 0.08478 0.0
C1774 C 0.93531 1.01138 0.09516 0.0
C1775 C 0.92041 1.01645 0.11031 0.0
C1776 C 0.88028 0.99481 0.11262 0.0
C1777 C 0.85557 0.96827 0.09991 0.0
C1778 C 0.99425 0.11072 0.13566 0.0
C1779 C 1.00292 0.0937 0.14804 0.0
C1780 C 0.96708 0.08576 0.12346 0.0
C1781 C 0.94731 0.0437 0.12364 0.0
C1782 C 0.95469 1.02723 0.1363 0.0
C1783 C 0.98239 0.05199 0.14839 0.0
H1784 H 0.37599 0.83905 0.41365 0.0
H1785 H 0.25053 0.84858 0.40002 0.0
H1786 H 0.3776 0.77616 0.39167 0.0
H1787 H 0.25142 0.78447 0.3778 0.0
H1788 H 0.31679 0.73431 0.32928 0.0
H1789 H 0.28988 0.77465 0.35369 0.0
H1790 H 0.35139 0.70175 0.37866 0.0
H1791 H 0.37875 0.6621 0.35428 0.0
C1792 C 0.34815 0.82642 0.40616 0.0
C1793 C 0.31307 0.84798 0.40843 0.0
C1794 C 0.34884 0.79023 0.39361 0.0
C1795 C 0.31448 0.77502 0.38299 0.0
C1796 C 0.27833 0.79541 0.38578 0.0
C1797 C 0.2776 0.8317 0.3985 0.0
C1798 C 0.32341 0.72616 0.33996 0.0
C1799 C 0.35053 0.69602 0.34006 0.0
C1800 C 0.30798 0.74915 0.35394 0.0
C1801 C 0.31961 0.74232 0.36815 0.0
C1802 C 0.34288 0.7086 0.36794 0.0
C1803 C 0.35849 0.6859 0.35403 0.0
H1804 H 0.69654 0.10386 0.66796 0.0
H1805 H 0.67866 0.23149 0.66461 0.0
H1806 H 0.75736 0.10604 0.65094 0.0
H1807 H 0.73979 0.23446 0.64814 0.0
H1808 H 0.84442 0.23855 0.61869 0.0
H1809 H 0.81895 0.2309 0.64398 0.0
H1810 H 0.74798 0.10463 0.62173 0.0
H1811 H 0.77299 0.11249 0.59646 0.0
C1812 C 0.70697 0.13319 0.66419 0.0
C1813 C 0.68321 0.16753 0.66743 0.0
C1814 C 0.74153 0.13434 0.65444 0.0
C1815 C 0.75324 0.17038 0.64826 0.0
C1816 C 0.73187 0.2065 0.6529 0.0
C1817 C 0.6968 0.20483 0.66226 0.0
C1818 C 0.82468 0.20844 0.61931 0.0
C1819 C 0.80966 0.17661 0.60564 0.0
C1820 C 0.81029 0.20403 0.63376 0.0
C1821 C 0.78095 0.16759 0.63473 0.0
C1822 C 0.77072 0.13301 0.62131 0.0
C1823 C 0.78498 0.13752 0.60682 0.0
H1824 H 0.8456 0.69092 0.88891 0.0
H1825 H 0.93858 0.60392 0.87879 0.0
H1826 H 0.86468 0.71409 0.86526 0.0
H1827 H 0.95419 0.62401 0.85484 0.0
H1828 H 0.96244 0.64504 0.80853 0.0
H1829 H 0.92219 0.62099 0.829 0.0
H1830 H 0.93259 0.75476 0.85646 0.0
H1831 H 0.97251 0.77908 0.83586 0.0
C1832 C 0.8698 0.67651 0.88169 0.0
C1833 C 0.89027 0.64524 0.88582 0.0
C1834 C 0.88032 0.68948 0.86808 0.0
C1835 C 0.91069 0.67061 0.85818 0.0
C1836 C 0.93036 0.63883 0.86214 0.0
C1837 C 0.92095 0.62694 0.87588 0.0
C1838 C 0.955 0.66949 0.8187 0.0
C1839 C 0.97137 0.71387 0.82078 0.0
C1840 C 0.93213 0.65567 0.83044 0.0
C1841 C 0.92499 0.68597 0.8444 0.0
C1842 C 0.93761 0.73074 0.84581 0.0
C1843 C 0.96058 0.74462 0.83405 0.0
H1844 H 0.37105 0.98668 0.58852 0.0
H1845 H 0.39085 0.12466 0.61214 0.0
H1846 H 0.30616 0.99556 0.57654 0.0
H1847 H 0.32588 0.1323 0.6011 0.0
H1848 H 0.21481 0.15034 0.58157 0.0
H1849 H 0.247 0.11169 0.59738 0.0
H1850 H 0.30404 0.04008 0.55644 0.0
H1851 H 0.27201 0.07863 0.54073 0.0
C1852 C 0.36131 1.01854 0.59148 0.0
C1853 C 0.38682 0.055 0.60119 0.0
C1854 C 0.32388 1.02339 0.58477 0.0
C1855 C 0.31091 0.06451 0.58796 0.0
C1856 C 0.33448 0.09994 0.59867 0.0
C1857 C 0.37208 0.0954 0.60506 0.0
C1858 C 0.23299 0.12517 0.5759 0.0
C1859 C 0.24191 0.11818 0.56003 0.0
C1860 C 0.25115 0.1029 0.58491 0.0
C1861 C 0.27864 0.0736 0.57817 0.0
C1862 C 0.28285 0.06236 0.56194 0.0
C1863 C 0.26462 0.0846 0.55293 0.0
H1864 H 0.84376 0.84807 0.38426 0.0
H1865 H 0.72977 0.89272 0.40375 0.0
H1866 H 0.80792 0.81793 0.35881 0.0
H1867 H 0.69405 0.86333 0.37829 0.0
H1868 H 0.65804 0.84091 0.32659 0.0
H1869 H 0.69967 0.87655 0.35072 0.0
H1870 H 0.74664 0.75619 0.34837 0.0
H1871 H 0.70466 0.72082 0.32453 0.0
C1872 C 0.81106 0.85147 0.38304 0.0
C1873 C 0.78953 0.87286 0.39584 0.0
C1874 C 0.79061 0.83427 0.36854 0.0
C1875 C 0.74838 0.83869 0.36658 0.0
C1876 C 0.7268 0.86005 0.37945 0.0
C1877 C 0.74708 0.8765 0.39402 0.0
C1878 C 0.67814 0.82266 0.33112 0.0
C1879 C 0.67875 0.77848 0.3238 0.0
C1880 C 0.70149 0.84276 0.34493 0.0
C1881 C 0.72624 0.81901 0.35137 0.0
C1882 C 0.72817 0.77533 0.34357 0.0
C1883 C 0.70428 0.75513 0.32997 0.0
H1884 H 0.33289 1.00819 0.06503 0.0
H1885 H 0.35634 0.9449 0.10047 0.0
H1886 H 0.34281 0.07823 0.08423 0.0
H1887 H 0.3609 1.0134 0.12005 0.0
H1888 H 0.36605 0.13781 0.1551 0.0
H1889 H 0.38831 0.08217 0.13354 0.0
H1890 H 0.30371 0.11454 0.10249 0.0
H1891 H 0.28561 0.17233 0.12348 0.0
C1892 C 0.34008 1.00918 0.07695 0.0
C1893 C 0.34304 0.97075 0.08128 0.0
C1894 C 0.34527 0.0494 0.08807 0.0
C1895 C 0.35149 0.05189 0.10393 0.0
C1896 C 0.35657 1.01351 0.10804 0.0
C1897 C 0.35317 0.97366 0.0968 0.0
C1898 C 0.35359 0.13389 0.14351 0.0
C1899 C 0.32316 0.15848 0.14105 0.0
C1900 C 0.36573 0.10147 0.13116 0.0
C1901 C 0.34697 0.0925 0.11621 0.0
C1902 C 0.31933 0.11999 0.11365 0.0
C1903 C 0.3082 0.15293 0.12583 0.0
H1904 H 0.87964 0.63402 0.03111 0.0
H1905 H 0.82489 0.65506 0.07655 0.0
H1906 H 0.94504 0.62378 0.04198 0.0
H1907 H 0.89103 0.64969 0.08775 0.0
H1908 H 1.00814 0.63017 0.10648 0.0
H1909 H 0.94226 0.61365 0.09238 0.0
H1910 H 1.0022 0.6668 0.05606 0.0
H1911 H 0.06963 0.67784 0.06917 0.0
C1912 C 0.88133 0.63565 0.04337 0.0
C1913 C 0.84721 0.64562 0.05298 0.0
C1914 C 0.91918 0.6307 0.0497 0.0
C1915 C 0.92406 0.63679 0.06586 0.0
C1916 C 0.88885 0.64413 0.07526 0.0
C1917 C 0.85082 0.64784 0.06886 0.0
C1918 C 1.00812 0.63719 0.09528 0.0
C1919 C 1.04504 0.65616 0.08926 0.0
C1920 C 0.96959 0.62837 0.08724 0.0
C1921 C 0.96621 0.63963 0.07314 0.0
C1922 C 1.00321 0.65719 0.0668 0.0
C1923 C 1.0421 0.66466 0.07461 0.0
H1924 H 0.15779 0.35406 0.83493 0.0
H1925 H 0.17697 0.22399 0.83487 0.0
H1926 H 0.20433 0.3842 0.85818 0.0
H1927 H 0.22446 0.25411 0.85763 0.0
H1928 H 0.2281 0.38172 0.91243 0.0
H1929 H 0.18864 0.3568 0.88771 0.0
H1930 H 0.30126 0.32145 0.864 0.0
H1931 H 0.34145 0.34821 0.88878 0.0
C1932 C 0.17282 0.33223 0.8397 0.0
C1933 C 0.16419 0.28697 0.83328 0.0
C1934 C 0.19913 0.3493 0.85291 0.0
C1935 C 0.21783 0.32123 0.85945 0.0
C1936 C 0.21052 0.27616 0.85262 0.0
C1937 C 0.18343 0.25907 0.83971 0.0
C1938 C 0.24462 0.36929 0.90196 0.0
C1939 C 0.28806 0.36808 0.90238 0.0
C1940 C 0.22208 0.35518 0.88785 0.0
C1941 C 0.24238 0.33825 0.87408 0.0
C1942 C 0.28535 0.33515 0.87454 0.0
C1943 C 0.30815 0.35034 0.88862 0.0
H1944 H 0.80743 0.50952 0.55621 0.0
H1945 H 0.88476 0.48063 0.59018 0.0
H1946 H 0.80404 0.58095 0.57367 0.0
H1947 H 0.87714 0.5486 0.60827 0.0
H1948 H 0.85351 0.66449 0.64252 0.0
H1949 H 0.8824 0.61918 0.61995 0.0
H1950 H 0.76626 0.60721 0.59409 0.0
H1951 H 0.74056 0.65753 0.61572 0.0
C1952 C 0.8237 0.51842 0.56741 0.0
C1953 C 0.84469 0.48862 0.57209 0.0
C1954 C 0.82131 0.55925 0.57758 0.0
C1955 C 0.83859 0.57043 0.59283 0.0
C1956 C 0.86315 0.54203 0.59678 0.0
C1957 C 0.8669 0.50216 0.58641 0.0
C1958 C 0.83473 0.65344 0.63184 0.0
C1959 C 0.79389 0.66352 0.63123 0.0
C1960 C 0.85104 0.62652 0.61888 0.0
C1961 C 0.8263 0.60761 0.60516 0.0
C1962 C 0.78677 0.62058 0.60425 0.0
C1963 C 0.77128 0.6488 0.61696 0.0
H1964 H 0.54843 0.17911 0.33499 0.0
H1965 H 0.48615 0.28449 0.32972 0.0
H1966 H 0.5077 0.17452 0.35775 0.0
H1967 H 0.44395 0.2791 0.35268 0.0
H1968 H 0.34495 0.19234 0.37894 0.0
H1969 H 0.3876 0.22051 0.35959 0.0
H1970 H 0.50088 0.21975 0.38484 0.0
H1971 H 0.45832 0.19081 0.40391 0.0
C1972 C 0.52611 0.20155 0.33877 0.0
C1973 C 0.52048 0.23224 0.33062 0.0
C1974 C 0.50293 0.19907 0.35189 0.0
C1975 C 0.47316 0.22695 0.35712 0.0
C1976 C 0.4669 0.2574 0.34889 0.0
C1977 C 0.49072 0.26027 0.33575 0.0
C1978 C 0.37891 0.19962 0.38057 0.0
C1979 C 0.39859 0.18886 0.39269 0.0
C1980 C 0.40326 0.21579 0.36955 0.0
C1981 C 0.44746 0.22146 0.37061 0.0
C1982 C 0.46683 0.21485 0.38363 0.0
C1983 C 0.44259 0.19842 0.39453 0.0
H1984 H 0.26655 0.69451 0.25312 0.0
H1985 H 0.28365 0.55934 0.24399 0.0
H1986 H 0.33981 0.71767 0.26035 0.0
H1987 H 0.35682 0.5829 0.25316 0.0
H1988 H 0.49678 0.63696 0.2573 0.0
H1989 H 0.42435 0.61266 0.24755 0.0
H1990 H 0.38736 0.72652 0.27963 0.0
H1991 H 0.45973 0.75253 0.28802 0.0
C1992 C 0.28592 0.66952 0.25268 0.0
C1993 C 0.2691 0.62489 0.24758 0.0
C1994 C 0.32811 0.68297 0.2572 0.0
C1995 C 0.35469 0.65232 0.25743 0.0
C1996 C 0.33767 0.60755 0.25284 0.0
C1997 C 0.29541 0.59398 0.24786 0.0
C1998 C 0.47337 0.65739 0.26187 0.0
C1999 C 0.48428 0.69695 0.27332 0.0
C2000 C 0.43153 0.64302 0.25652 0.0
C2001 C 0.39959 0.66753 0.26272 0.0
C2002 C 0.41086 0.70713 0.27416 0.0
C2003 C 0.45259 0.7219 0.27919 0.0
H2004 H 0.88192 0.03987 0.48122 0.0
H2005 H 0.78455 0.07525 0.45636 0.0
H2006 H 0.88005 0.10565 0.50237 0.0
H2007 H 0.78432 0.14167 0.47692 0.0
H2008 H 0.76221 0.23597 0.52188 0.0
H2009 H 0.76308 0.16525 0.50331 0.0
H2010 H 0.89906 0.18476 0.50762 0.0
H2011 H 0.89765 0.25502 0.52669 0.0
C2012 C 0.85984 0.06134 0.48034 0.0
C2013 C 0.83299 0.052 0.46723 0.0
C2014 C 0.85921 0.09936 0.49234 0.0
C2015 C 0.83182 0.12876 0.49138 0.0
C2016 C 0.80518 0.11934 0.4782 0.0
C2017 C 0.80563 0.08139 0.46632 0.0
C2018 C 0.79216 0.22487 0.51886 0.0
C2019 C 0.8299 0.2508 0.52541 0.0
C2020 C 0.79275 0.18451 0.50824 0.0
C2021 C 0.8312 0.16962 0.50383 0.0
C2022 C 0.86892 0.19512 0.51086 0.0
C2023 C 0.86821 0.2353 0.52169 0.0
H2024 H 0.17078 0.65959 0.78916 0.0
H2025 H 0.19138 0.78515 0.77887 0.0
H2026 H 0.22462 0.63506 0.77038 0.0
H2027 H 0.24445 0.76068 0.76003 0.0
H2028 H 0.27999 0.6765 0.71267 0.0
H2029 H 0.23331 0.70082 0.73391 0.0
H2030 H 0.30648 0.65534 0.76474 0.0
H2031 H 0.35461 0.63222 0.74343 0.0
C2032 C 0.18738 0.68206 0.78305 0.0
C2033 C 0.17658 0.72381 0.78507 0.0
C2034 C 0.21801 0.66809 0.77236 0.0
C2035 C 0.23805 0.69585 0.76365 0.0
C2036 C 0.22889 0.73848 0.76643 0.0
C2037 C 0.19856 0.75239 0.77713 0.0
C2038 C 0.28584 0.67139 0.72395 0.0
C2039 C 0.32055 0.65246 0.7265 0.0
C2040 C 0.25927 0.68541 0.7361 0.0
C2041 C 0.26627 0.67985 0.75091 0.0
C2042 C 0.30041 0.65979 0.75338 0.0
C2043 C 0.32779 0.6467 0.74128 0.0
H2044 H 0.86967 0.31088 0.0085 0.0
H2045 H 0.96843 0.24191 -0.01412 0.0
H2046 H 0.85503 0.25991 0.02444 0.0
H2047 H 0.95597 0.19274 0.00274 0.0
H2048 H 0.88636 0.08061 0.02094 0.0
H2049 H 0.90645 0.13372 0.00601 0.0
H2050 H 0.87804 0.23666 0.04508 0.0
H2051 H 0.85459 0.18314 0.05948 0.0
C2052 C 0.88855 0.28502 0.007 0.0
C2053 C 0.91985 0.28022 -0.00428 0.0
C2054 C 0.88059 0.25609 0.01636 0.0
C2055 C 0.9042 0.22194 0.0149 0.0
C2056 C 0.93663 0.21813 0.00402 0.0
C2057 C 0.94424 0.2468 -0.0055 0.0
C2058 C 0.88383 0.11448 0.02628 0.0
C2059 C 0.86832 0.12737 0.04139 0.0
C2060 C 0.89612 0.14516 0.0178 0.0
C2061 C 0.89378 0.18964 0.02428 0.0
C2062 C 0.87958 0.20266 0.03957 0.0
C2063 C 0.8667 0.17193 0.04795 0.0
H2064 H 0.655 0.73952 0.72119 0.0
H2065 H 0.70568 0.63253 0.69032 0.0
H2066 H 0.72566 0.77256 0.73138 0.0
H2067 H 0.77654 0.66644 0.70023 0.0
H2068 H 0.85107 0.77502 0.7583 0.0
H2069 H 0.77968 0.75028 0.74717 0.0
H2070 H 0.82918 0.73594 0.701 0.0
H2071 H 0.90072 0.76098 0.71221 0.0
C2072 C 0.68102 0.72276 0.71667 0.0
C2073 C 0.67449 0.68291 0.70512 0.0
C2074 C 0.72155 0.74195 0.72242 0.0
C2075 C 0.75643 0.72204 0.71657 0.0
C2076 C 0.75014 0.68267 0.70483 0.0
C2077 C 0.70953 0.66314 0.69923 0.0
C2078 C 0.84649 0.76723 0.7458 0.0
C2079 C 0.88113 0.7698 0.73608 0.0
C2080 C 0.80576 0.75326 0.73944 0.0
C2081 C 0.79909 0.74106 0.72324 0.0
C2082 C 0.83363 0.74494 0.71353 0.0
C2083 C 0.87436 0.75956 0.71991 0.0
H2084 H 0.27761 0.28421 0.50149 0.0
H2085 H 0.37526 0.25052 0.52675 0.0
H2086 H 0.27827 0.21667 0.48099 0.0
H2087 H 0.3744 0.18256 0.50684 0.0
H2088 H 0.3958 0.0871 0.46166 0.0
H2089 H 0.39508 0.15782 0.48025 0.0
H2090 H 0.25893 0.13725 0.47686 0.0
H2091 H 0.26011 0.06671 0.45789 0.0
C2092 C 0.29942 0.26268 0.5026 0.0
C2093 C 0.32666 0.27294 0.51565 0.0
C2094 C 0.29939 0.22373 0.49099 0.0
C2095 C 0.32658 0.19443 0.49226 0.0
C2096 C 0.35365 0.20479 0.50536 0.0
C2097 C 0.35382 0.24362 0.51685 0.0
C2098 C 0.36583 0.09783 0.46496 0.0
C2099 C 0.32799 0.07158 0.45869 0.0
C2100 C 0.36533 0.1382 0.47557 0.0
C2101 C 0.3269 0.15292 0.48014 0.0
C2102 C 0.28902 0.12697 0.47347 0.0
C2103 C 0.28962 0.08666 0.46272 0.0
H2104 H 0.8279 0.65013 0.24664 0.0
H2105 H 0.83798 0.78092 0.24134 0.0
H2106 H 0.87421 0.63149 0.22504 0.0
H2107 H 0.88251 0.76205 0.21891 0.0
H2108 H 1.0054 0.73098 0.19438 0.0
H2109 H 0.94809 0.75081 0.21153 0.0
H2110 H 0.88909 0.61502 0.1998 0.0
H2111 H 0.94929 0.59546 0.18409 0.0
C2112 C 0.8396 0.67464 0.24057 0.0
C2113 C 0.82984 0.71696 0.24567 0.0
C2114 C 0.86586 0.66393 0.22799 0.0
C2115 C 0.88258 0.69515 0.22 0.0
C2116 C 0.87139 0.73726 0.22489 0.0
C2117 C 0.8457 0.74817 0.2377 0.0
C2118 C 0.97975 0.70568 0.19538 0.0
C2119 C 0.98179 0.66173 0.18828 0.0
C2120 C 0.94646 0.71696 0.20512 0.0
C2121 C 0.91391 0.68448 0.20751 0.0
C2122 C 0.91424 0.6409 0.19893 0.0
C2123 C 0.94834 0.62957 0.1897 0.0
H2124 H 0.46776 0.107 0.00041 0.0
H2125 H 0.37144 0.99923 0.97882 0.0
H2126 H 0.44833 0.14852 -0.01694 0.0
H2127 H 0.35261 0.04014 0.96107 0.0
H2128 H 0.29198 0.15091 0.9505 0.0
H2129 H 0.31714 0.10114 0.96339 0.0
H2130 H 0.44592 0.15682 0.95733 0.0
H2131 H 0.42041 0.20749 0.94483 0.0
C2132 C 0.44313 0.09182 -0.00834 0.0
C2133 C 0.42087 0.05013 -0.009 0.0
C2134 C 0.43202 0.11552 -0.01832 0.0
C2135 C 0.39865 0.09781 0.97073 0.0
C2136 C 0.37786 0.05511 0.96957 0.0
C2137 C 0.38872 0.03161 0.97967 0.0
C2138 C 0.32565 0.15196 0.95171 0.0
C2139 C 0.35427 0.18316 0.94679 0.0
C2140 C 0.34014 0.12334 0.95904 0.0
C2141 C 0.38361 0.12506 0.96146 0.0
C2142 C 0.41224 0.15515 0.95592 0.0
C2143 C 0.3977 0.18406 0.94872 0.0
H2144 H 0.94754 0.25536 0.79005 0.0
H2145 H 0.99984 0.14749 0.76053 0.0
H2146 H 0.87862 0.22354 0.7789 0.0
H2147 H 0.93142 0.11789 0.74788 0.0
H2148 H 0.79567 0.05062 0.73873 0.0
H2149 H 0.86562 0.08077 0.75036 0.0
H2150 H 0.83448 0.21118 0.75878 0.0
H2151 H 0.76397 0.18113 0.74962 0.0
C2152 C 0.94454 0.22532 0.78088 0.0
C2153 C 0.97931 0.20398 0.77625 0.0
C2154 C 0.90484 0.20722 0.77423 0.0
C2155 C 0.89901 0.16798 0.76232 0.0
C2156 C 0.93428 0.14758 0.75722 0.0
C2157 C 0.97389 0.16512 0.76425 0.0
C2158 C 0.80362 0.08563 0.7434 0.0
C2159 C 0.77417 0.11331 0.74289 0.0
C2160 C 0.84409 0.10309 0.74979 0.0
C2161 C 0.85622 0.14864 0.75547 0.0
C2162 C 0.82658 0.17599 0.75489 0.0
C2163 C 0.78601 0.15858 0.74914 0.0
H2164 H 0.26764 0.55645 0.96359 0.0
H2165 H 0.38909 0.55004 -0.01787 0.0
H2166 H 0.26605 0.62639 -0.01762 0.0
H2167 H 0.3875 0.62077 0.0011 0.0
H2168 H 0.38322 0.77465 0.01265 0.0
H2169 H 0.38804 0.70005 -0.00231 0.0
H2170 H 0.26352 0.65593 0.01207 0.0
H2171 H 0.25872 0.73021 0.02712 0.0
C2172 C 0.29372 0.56981 0.97188 0.0
C2173 C 0.32837 0.54793 0.97153 0.0
C2174 C 0.29273 0.60969 -0.01736 0.0
C2175 C 0.32658 0.62871 -0.00682 0.0
C2176 C 0.36105 0.60657 -0.00695 0.0
C2177 C 0.36177 0.5661 -0.01764 0.0
C2178 C 0.357 0.74895 0.01265 0.0
C2179 C 0.32039 0.75818 0.02087 0.0
C2180 C 0.35993 0.7063 0.00422 0.0
C2181 C 0.32605 0.67249 0.0037 0.0
C2182 C 0.28995 0.68158 0.01225 0.0
C2183 C 0.28724 0.72401 0.02083 0.0
H2184 H 0.64387 0.2339 0.24676 0.0
H2185 H 0.68459 0.14085 0.2683 0.0
H2186 H 0.69571 0.21792 0.22652 0.0
H2187 H 0.73476 0.12313 0.24777 0.0
H2188 H 0.77622 0.16144 0.1866 0.0
H2189 H 0.71829 0.16807 0.20461 0.0
H2190 H 0.79975 0.15587 0.24083 0.0
H2191 H 0.8564 0.1458 0.22256 0.0
C2192 C 0.66333 0.20937 0.24695 0.0
C2193 C 0.66079 0.18907 0.25916 0.0
C2194 C 0.69292 0.20002 0.23533 0.0
C2195 C 0.71995 0.16964 0.23561 0.0
C2196 C 0.71543 0.14761 0.24741 0.0
C2197 C 0.68647 0.15751 0.25912 0.0
C2198 C 0.7815 0.15923 0.19832 0.0
C2199 C 0.8211 0.15318 0.20312 0.0
C2200 C 0.7484 0.16369 0.20872 0.0
C2201 C 0.75423 0.16264 0.22422 0.0
C2202 C 0.79374 0.15616 0.22894 0.0
C2203 C 0.82659 0.15114 0.21851 0.0
H2204 H 0.39254 0.59819 0.52212 0.0
H2205 H 0.34051 0.69014 0.55917 0.0
H2206 H 0.407 0.65368 0.50765 0.0
H2207 H 0.35606 0.74585 0.54493 0.0
H2208 H 0.34272 0.81535 0.50702 0.0
H2209 H 0.32988 0.75946 0.52124 0.0
H2210 H 0.45278 0.7243 0.50895 0.0
H2211 H 0.46518 0.77956 0.4943 0.0
C2212 C 0.38425 0.63025 0.52717 0.0
C2213 C 0.36528 0.63979 0.54176 0.0
C2214 C 0.39291 0.66213 0.51896 0.0
C2215 C 0.38256 0.70408 0.52514 0.0
C2216 C 0.36396 0.71368 0.53979 0.0
C2217 C 0.35546 0.68191 0.54801 0.0
C2218 C 0.36684 0.79541 0.50722 0.0
C2219 C 0.4049 0.80173 0.49949 0.0
C2220 C 0.35968 0.76374 0.51551 0.0
C2221 C 0.39038 0.73758 0.51625 0.0
C2222 C 0.42841 0.74375 0.50848 0.0
C2223 C 0.43566 0.77562 0.50023 0.0
H2224 H 0.16556 0.25742 0.21644 0.0
H2225 H 0.20607 0.13135 0.20148 0.0
H2226 H 0.23625 0.2902 0.22706 0.0
H2227 H 0.27606 0.16346 0.21246 0.0
H2228 H 0.40708 0.23454 0.21738 0.0
H2229 H 0.33565 0.20892 0.20672 0.0
H2230 H 0.28791 0.2953 0.24671 0.0
H2231 H 0.36006 0.32192 0.25704 0.0
C2232 C 0.18937 0.23659 0.21573 0.0
C2233 C 0.18059 0.19194 0.20802 0.0
C2234 C 0.22988 0.25535 0.22178 0.0
C2235 C 0.26212 0.22965 0.22036 0.0
C2236 C 0.25246 0.18456 0.21332 0.0
C2237 C 0.21225 0.166 0.20715 0.0
C2238 C 0.38127 0.24854 0.2237 0.0
C2239 C 0.38877 0.28002 0.238 0.0
C2240 C 0.34032 0.23359 0.21772 0.0
C2241 C 0.30586 0.24936 0.22602 0.0
C2242 C 0.31368 0.28257 0.23998 0.0
C2243 C 0.35489 0.2979 0.2459 0.0
H2244 H 0.87465 0.74492 0.02995 0.0
H2245 H 0.78256 0.77433 0.00113 0.0
H2246 H 0.87457 0.6746 0.01181 0.0
H2247 H 0.78448 0.70438 -0.01778 0.0
H2248 H 0.89643 0.56657 0.9706 0.0
H2249 H 0.89652 0.63906 -0.01216 0.0
H2250 H 0.76326 0.62873 0.97803 0.0
H2251 H 0.76425 0.55691 0.96006 0.0
C2252 C 0.85459 0.73658 0.01964 0.0
C2253 C 0.82844 0.76532 0.01705 0.0
C2254 C 0.85494 0.69621 0.00908 0.0
C2255 C 0.82958 0.68353 -0.00452 0.0
C2256 C 0.80396 0.71267 -0.00731 0.0
C2257 C 0.80328 0.75311 0.00341 0.0
C2258 C 0.86718 0.57982 0.97227 0.0
C2259 C 0.83023 0.55629 0.96423 0.0
C2260 C 0.86709 0.62135 -0.01784 0.0
C2261 C 0.82979 0.63989 -0.01555 0.0
C2262 C 0.79273 0.61596 0.97637 0.0
C2263 C 0.7931 0.57471 0.96621 0.0
H2264 H 0.37325 0.20231 0.77659 0.0
H2265 H 0.29191 0.24286 0.74691 0.0
H2266 H 0.41707 0.17719 0.75446 0.0
H2267 H 0.33653 0.21838 0.72468 0.0
H2268 H 0.46684 0.21361 0.69712 0.0
H2269 H 0.4152 0.23821 0.71678 0.0
H2270 H 0.40321 0.11532 0.72897 0.0
H2271 H 0.45446 0.09084 0.70932 0.0
C2272 C 0.3653 0.20648 0.76536 0.0
C2273 C 0.32947 0.22449 0.76338 0.0
C2274 C 0.3901 0.19183 0.75269 0.0
C2275 C 0.37996 0.19566 0.73788 0.0
C2276 C 0.34492 0.21511 0.736 0.0
C2277 C 0.31954 0.22902 0.74865 0.0
C2278 C 0.4521 0.19154 0.70372 0.0
C2279 C 0.46465 0.15067 0.70195 0.0
C2280 C 0.42285 0.20561 0.71497 0.0
C2281 C 0.40597 0.17887 0.72452 0.0
C2282 C 0.41637 0.13676 0.72191 0.0
C2283 C 0.4454 0.1227 0.71066 0.0
H2284 H 0.782 0.63422 0.42683 0.0
H2285 H 0.78275 0.74323 0.46746 0.0
H2286 H 0.76571 0.58401 0.44297 0.0
H2287 H 0.77162 0.69334 0.48378 0.0
H2288 H 0.72212 0.59673 0.51006 0.0
H2289 H 0.72619 0.64333 0.49252 0.0
H2290 H 0.79542 0.55521 0.46023 0.0
H2291 H 0.78681 0.50611 0.47686 0.0
C2292 C 0.77879 0.64763 0.4392 0.0
C2293 C 0.78411 0.69304 0.44577 0.0
C2294 C 0.77021 0.61869 0.44855 0.0
C2295 C 0.76777 0.63431 0.4648 0.0
C2296 C 0.77264 0.67973 0.47133 0.0
C2297 C 0.78006 0.7086 0.46194 0.0
C2298 C 0.73724 0.58659 0.49904 0.0
C2299 C 0.75433 0.54752 0.49502 0.0
C2300 C 0.74035 0.61393 0.48906 0.0
C2301 C 0.76163 0.60361 0.47494 0.0
C2302 C 0.77828 0.56428 0.47085 0.0
C2303 C 0.77415 0.53637 0.48063 0.0
loop_
_geom_bond_atom_site_label_1
_geom_bond_atom_site_label_2
_geom_bond_distance
_geom_bond_site_symmetry_2
_ccdc_geom_bond_type
Tb0 N29 2.617 . S
Tb0 N35 2.572 . S
Tb0 O44 2.465 . S
Tb0 O45 2.387 . S
Tb0 O47 2.428 . S
Tb0 O48 2.308 . S
Tb0 O52 2.349 . S
Tb0 O55 2.393 . S
Tb0 C64 2.802 . S
C1 N2 1.379 1_655 S
C1 C4 1.416 1_655 S
C1 C8 1.424 . S
N2 C1 1.379 1_455 S
N2 C5 1.334 . S
N2 Tb11 2.617 . S
C3 C5 1.390 . S
C3 C6 1.339 . S
C3 H23 0.930 . S
C4 C1 1.416 1_455 S
C4 C6 1.416 . S
C4 C10 1.448 1_455 S
C5 N2 1.334 . S
C5 C3 1.390 . S
C5 H16 0.930 . S
C6 C3 1.339 . S
C6 C4 1.416 . S
C6 H27 0.930 . S
C7 C8 1.413 . S
C7 C9 1.427 . S
C7 C13 1.416 . S
C8 C1 1.424 . S
C8 C7 1.413 . S
C8 N12 1.361 . S
C9 C7 1.427 . S
C9 C10 1.328 . S
C9 H24 0.929 . S
C10 C4 1.448 1_655 S
C10 C9 1.328 . S
C10 H25 0.930 . S
Tb11 N2 2.617 . S
Tb11 N12 2.572 1_455 S
Tb11 O46 2.349 . S
Tb11 O49 2.393 . S
Tb11 O50 2.465 1_455 S
Tb11 O51 2.387 . S
Tb11 O53 2.428 1_455 S
Tb11 O54 2.308 1_455 S
Tb11 C75 2.802 1_455 S
N12 C8 1.361 . S
N12 Tb11 2.572 1_655 S
N12 C14 1.340 . S
C13 C7 1.416 . S
C13 C15 1.332 . S
C13 H21 0.931 . S
C14 N12 1.340 . S
C14 C15 1.407 . S
C14 H20 0.930 . S
C15 C13 1.332 . S
C15 C14 1.407 . S
C15 H17 0.929 . S
H16 C5 0.930 . S
H17 C15 0.929 . S
H18 C33 0.930 . S
H19 C40 0.929 . S
H20 C14 0.930 . S
H21 C13 0.931 . S
H22 C36 0.930 . S
H23 C3 0.930 . S
H24 C9 0.929 . S
H25 C10 0.930 . S
H26 C31 0.930 1_655 S
H27 C6 0.930 . S
H28 C39 0.931 . S
N29 Tb0 2.617 . S
N29 C30 1.379 . S
N29 C33 1.334 . S
C30 N29 1.379 . S
C30 C32 1.416 . S
C30 C38 1.424 . S
C31 H26 0.930 1_455 S
C31 C33 1.390 . S
C31 C34 1.339 . S
C32 C30 1.416 . S
C32 C34 1.416 . S
C32 C65 1.448 . S
C33 H18 0.930 . S
C33 N29 1.334 . S
C33 C31 1.390 . S
C34 C31 1.339 . S
C34 C32 1.416 . S
C34 H41 0.930 . S
N35 Tb0 2.572 . S
N35 C36 1.340 . S
N35 C38 1.361 . S
C36 H22 0.930 . S
C36 N35 1.340 . S
C36 C40 1.407 . S
C37 C38 1.413 . S
C37 C39 1.416 . S
C37 C66 1.427 . S
C38 C30 1.424 . S
C38 N35 1.361 . S
C38 C37 1.413 . S
C39 H28 0.931 . S
C39 C37 1.416 . S
C39 C40 1.332 . S
C40 H19 0.929 . S
C40 C36 1.407 . S
C40 C39 1.332 . S
H41 C34 0.930 . S
H42 C65 0.930 . S
H43 C66 0.929 . S
O44 Tb0 2.465 . S
O44 C64 1.264 . S
O45 Tb0 2.387 . S
O45 C56 1.264 . S
O46 Tb11 2.349 . S
O46 C56 1.243 . S
O47 Tb0 2.428 . S
O47 C64 1.256 . S
O48 Tb0 2.308 . S
O48 C63 1.266 . S
O49 Tb11 2.393 . S
O49 C63 1.248 . S
O50 Tb11 2.465 1_655 S
O50 C75 1.264 . S
O51 Tb11 2.387 . S
O51 C67 1.264 . S
O52 Tb0 2.349 . S
O52 C67 1.243 . S
O53 Tb11 2.428 1_655 S
O53 C75 1.256 . S
O54 Tb11 2.308 1_655 S
O54 C74 1.266 . S
O55 Tb0 2.393 . S
O55 C74 1.248 1_455 S
C56 O45 1.264 . S
C56 O46 1.243 . S
C57 C60 1.399 . S
C57 C62 1.383 . S
C57 C64 1.496 . S
C58 C59 1.399 . S
C58 C62 1.389 . S
C59 C58 1.399 . S
C59 C61 1.380 . S
C59 H76 0.929 . S
C60 C57 1.399 . S
C60 C61 1.392 . S
C60 H77 0.929 . S
C61 C59 1.380 . S
C61 C60 1.392 . S
C61 H78 0.929 . S
C62 C57 1.383 . S
C62 C58 1.389 . S
C62 H79 0.931 . S
C63 O48 1.266 . S
C63 O49 1.248 . S
C64 Tb0 2.802 . S
C64 O44 1.264 . S
C64 O47 1.256 . S
C64 C57 1.496 . S
C65 C32 1.448 . S
C65 H42 0.930 . S
C65 C66 1.328 . S
C66 C37 1.427 . S
C66 H43 0.929 . S
C66 C65 1.328 . S
C67 O51 1.264 . S
C67 O52 1.243 . S
C68 C71 1.399 . S
C68 C72 1.383 . S
C68 C75 1.496 . S
C69 C70 1.399 . S
C69 C72 1.389 . S
C70 C69 1.399 . S
C70 C73 1.380 . S
C70 H80 0.929 . S
C71 C68 1.399 . S
C71 C73 1.392 . S
C71 H81 0.929 . S
C72 C68 1.383 . S
C72 C69 1.389 . S
C72 H82 0.931 . S
C73 C70 1.380 . S
C73 C71 1.392 . S
C73 H83 0.929 . S
C74 O54 1.266 . S
C74 O55 1.248 1_655 S
C75 Tb11 2.802 1_655 S
C75 O50 1.264 . S
C75 O53 1.256 . S
C75 C68 1.496 . S
H76 C59 0.929 . S
H77 C60 0.929 . S
H78 C61 0.929 . S
H79 C62 0.931 . S
H80 C70 0.929 . S
H81 C71 0.929 . S
H82 C72 0.931 . S
H83 C73 0.929 . S
Tb84 N113 2.617 . S
Tb84 N119 2.572 . S
Tb84 O128 2.465 . S
Tb84 O129 2.387 . S
Tb84 O131 2.428 . S
Tb84 O132 2.308 . S
Tb84 O136 2.349 . S
Tb84 O139 2.393 . S
Tb84 C148 2.802 . S
C85 N86 1.379 . S
C85 C88 1.416 . S
C85 C92 1.424 . S
N86 C85 1.379 . S
N86 C89 1.334 . S
N86 Tb95 2.617 . S
C87 C89 1.390 . S
C87 C90 1.339 . S
C87 H107 0.930 . S
C88 C85 1.416 . S
C88 C90 1.416 . S
C88 C94 1.448 . S
C89 N86 1.334 . S
C89 C87 1.390 . S
C89 H100 0.930 . S
C90 C87 1.339 . S
C90 C88 1.416 . S
C90 H111 0.930 . S
C91 C92 1.413 . S
C91 C93 1.427 . S
C91 C97 1.416 . S
C92 C85 1.424 . S
C92 C91 1.413 . S
C92 N96 1.361 . S
C93 C91 1.427 . S
C93 C94 1.328 . S
C93 H108 0.929 . S
C94 C88 1.448 . S
C94 C93 1.328 . S
C94 H109 0.930 . S
Tb95 N86 2.617 . S
Tb95 N96 2.572 . S
Tb95 O130 2.349 . S
Tb95 O133 2.393 . S
Tb95 O134 2.465 . S
Tb95 O135 2.387 . S
Tb95 O137 2.428 1_565 S
Tb95 O138 2.308 . S
Tb95 C159 2.802 1_565 S
N96 C92 1.361 . S
N96 Tb95 2.572 . S
N96 C98 1.340 . S
C97 C91 1.416 . S
C97 C99 1.332 . S
C97 H105 0.931 . S
C98 N96 1.340 . S
C98 C99 1.407 . S
C98 H104 0.930 . S
C99 C97 1.332 . S
C99 C98 1.407 . S
C99 H101 0.929 . S
H100 C89 0.930 . S
H101 C99 0.929 . S
H102 C117 0.930 . S
H103 C124 0.929 . S
H104 C98 0.930 . S
H105 C97 0.931 . S
H106 C120 0.930 . S
H107 C87 0.930 . S
H108 C93 0.929 . S
H109 C94 0.930 . S
H110 C115 0.930 . S
H111 C90 0.930 . S
H112 C123 0.931 . S
N113 Tb84 2.617 . S
N113 C114 1.379 . S
N113 C117 1.334 . S
C114 N113 1.379 . S
C114 C116 1.416 . S
C114 C122 1.424 . S
C115 H110 0.930 . S
C115 C117 1.390 . S
C115 C118 1.339 . S
C116 C114 1.416 . S
C116 C118 1.416 . S
C116 C149 1.448 . S
C117 H102 0.930 . S
C117 N113 1.334 . S
C117 C115 1.390 . S
C118 C115 1.339 . S
C118 C116 1.416 . S
C118 H125 0.930 . S
N119 Tb84 2.572 . S
N119 C120 1.340 . S
N119 C122 1.361 . S
C120 H106 0.930 . S
C120 N119 1.340 . S
C120 C124 1.407 . S
C121 C122 1.413 . S
C121 C123 1.416 . S
C121 C150 1.427 . S
C122 C114 1.424 . S
C122 N119 1.361 . S
C122 C121 1.413 . S
C123 H112 0.931 . S
C123 C121 1.416 . S
C123 C124 1.332 . S
C124 H103 0.929 . S
C124 C120 1.407 . S
C124 C123 1.332 . S
H125 C118 0.930 . S
H126 C149 0.930 . S
H127 C150 0.929 . S
O128 Tb84 2.465 . S
O128 C148 1.264 . S
O129 Tb84 2.387 . S
O129 C140 1.264 . S
O130 Tb95 2.349 . S
O130 C140 1.243 . S
O131 Tb84 2.428 . S
O131 C148 1.256 . S
O132 Tb84 2.308 . S
O132 C147 1.266 . S
O133 Tb95 2.393 . S
O133 C147 1.248 . S
O134 Tb95 2.465 . S
O134 C159 1.264 1_565 S
O135 Tb95 2.387 . S
O135 C151 1.264 . S
O136 Tb84 2.349 . S
O136 C151 1.243 . S
O137 Tb95 2.428 1_545 S
O137 C159 1.256 . S
O138 Tb95 2.308 . S
O138 C158 1.266 . S
O139 Tb84 2.393 . S
O139 C158 1.248 . S
C140 O129 1.264 . S
C140 O130 1.243 . S
C141 C144 1.399 . S
C141 C146 1.383 . S
C141 C148 1.496 . S
C142 C143 1.399 . S
C142 C146 1.389 . S
C143 C142 1.399 . S
C143 C145 1.380 . S
C143 H160 0.929 . S
C144 C141 1.399 . S
C144 C145 1.392 . S
C144 H161 0.929 . S
C145 C143 1.380 . S
C145 C144 1.392 . S
C145 H162 0.929 . S
C146 C141 1.383 . S
C146 C142 1.389 . S
C146 H163 0.931 . S
C147 O132 1.266 . S
C147 O133 1.248 . S
C148 Tb84 2.802 . S
C148 O128 1.264 . S
C148 O131 1.256 . S
C148 C141 1.496 . S
C149 C116 1.448 . S
C149 H126 0.930 . S
C149 C150 1.328 . S
C150 C121 1.427 . S
C150 H127 0.929 . S
C150 C149 1.328 . S
C151 O135 1.264 . S
C151 O136 1.243 . S
C152 C155 1.399 . S
C152 C156 1.383 . S
C152 C159 1.496 . S
C153 C154 1.399 . S
C153 C156 1.389 . S
C154 C153 1.399 . S
C154 C157 1.380 . S
C154 H164 0.929 . S
C155 C152 1.399 . S
C155 C157 1.392 . S
C155 H165 0.929 . S
C156 C152 1.383 . S
C156 C153 1.389 . S
C156 H166 0.931 . S
C157 C154 1.380 . S
C157 C155 1.392 . S
C157 H167 0.929 . S
C158 O138 1.266 . S
C158 O139 1.248 . S
C159 Tb95 2.802 1_545 S
C159 O134 1.264 1_545 S
C159 O137 1.256 . S
C159 C152 1.496 . S
H160 C143 0.929 . S
H161 C144 0.929 . S
H162 C145 0.929 . S
H163 C146 0.931 . S
H164 C154 0.929 . S
H165 C155 0.929 . S
H166 C156 0.931 . S
H167 C157 0.929 . S
Tb168 N197 2.617 . S
Tb168 N203 2.572 . S
Tb168 O212 2.465 . S
Tb168 O213 2.387 . S
Tb168 O215 2.428 . S
Tb168 O216 2.308 . S
Tb168 O220 2.349 . S
Tb168 O223 2.393 . S
Tb168 C232 2.802 . S
C169 N170 1.379 . S
C169 C172 1.416 . S
C169 C176 1.424 . S
N170 C169 1.379 . S
N170 C173 1.334 . S
N170 Tb179 2.617 . S
C171 C173 1.390 . S
C171 C174 1.339 . S
C171 H191 0.930 . S
C172 C169 1.416 . S
C172 C174 1.416 . S
C172 C178 1.448 . S
C173 N170 1.334 . S
C173 C171 1.390 . S
C173 H184 0.930 . S
C174 C171 1.339 . S
C174 C172 1.416 . S
C174 H195 0.930 . S
C175 C176 1.413 . S
C175 C177 1.427 . S
C175 C181 1.416 . S
C176 C169 1.424 . S
C176 C175 1.413 . S
C176 N180 1.361 . S
C177 C175 1.427 . S
C177 C178 1.328 . S
C177 H192 0.929 . S
C178 C172 1.448 . S
C178 C177 1.328 . S
C178 H193 0.930 . S
Tb179 N170 2.617 . S
Tb179 N180 2.572 . S
Tb179 O214 2.349 . S
Tb179 O217 2.393 . S
Tb179 O218 2.465 . S
Tb179 O219 2.387 . S
Tb179 O221 2.428 . S
Tb179 O222 2.308 . S
Tb179 C243 2.802 . S
N180 C176 1.361 . S
N180 Tb179 2.572 . S
N180 C182 1.340 . S
C181 C175 1.416 . S
C181 C183 1.332 . S
C181 H189 0.931 . S
C182 N180 1.340 . S
C182 C183 1.407 . S
C182 H188 0.930 . S
C183 C181 1.332 . S
C183 C182 1.407 . S
C183 H185 0.929 . S
H184 C173 0.930 . S
H185 C183 0.929 . S
H186 C201 0.930 . S
H187 C208 0.929 . S
H188 C182 0.930 . S
H189 C181 0.931 . S
H190 C204 0.930 . S
H191 C171 0.930 . S
H192 C177 0.929 . S
H193 C178 0.930 . S
H194 C199 0.930 . S
H195 C174 0.930 . S
H196 C207 0.931 . S
N197 Tb168 2.617 . S
N197 C198 1.379 . S
N197 C201 1.334 . S
C198 N197 1.379 . S
C198 C200 1.416 . S
C198 C206 1.424 . S
C199 H194 0.930 . S
C199 C201 1.390 . S
C199 C202 1.339 . S
C200 C198 1.416 . S
C200 C202 1.416 . S
C200 C233 1.448 . S
C201 H186 0.930 . S
C201 N197 1.334 . S
C201 C199 1.390 . S
C202 C199 1.339 . S
C202 C200 1.416 . S
C202 H209 0.930 . S
N203 Tb168 2.572 . S
N203 C204 1.340 . S
N203 C206 1.361 . S
C204 H190 0.930 . S
C204 N203 1.340 . S
C204 C208 1.407 . S
C205 C206 1.413 . S
C205 C207 1.416 . S
C205 C234 1.427 . S
C206 C198 1.424 . S
C206 N203 1.361 . S
C206 C205 1.413 . S
C207 H196 0.931 . S
C207 C205 1.416 . S
C207 C208 1.332 . S
C208 H187 0.929 . S
C208 C204 1.407 . S
C208 C207 1.332 . S
H209 C202 0.930 . S
H210 C233 0.930 . S
H211 C234 0.929 . S
O212 Tb168 2.465 . S
O212 C232 1.264 . S
O213 Tb168 2.387 . S
O213 C224 1.264 . S
O214 Tb179 2.349 . S
O214 C224 1.243 . S
O215 Tb168 2.428 . S
O215 C232 1.256 . S
O216 Tb168 2.308 . S
O216 C231 1.266 . S
O217 Tb179 2.393 . S
O217 C231 1.248 . S
O218 Tb179 2.465 . S
O218 C243 1.264 . S
O219 Tb179 2.387 . S
O219 C235 1.264 . S
O220 Tb168 2.349 . S
O220 C235 1.243 . S
O221 Tb179 2.428 . S
O221 C243 1.256 . S
O222 Tb179 2.308 . S
O222 C242 1.266 . S
O223 Tb168 2.393 . S
O223 C242 1.248 . S
C224 O213 1.264 . S
C224 O214 1.243 . S
C225 C228 1.399 . S
C225 C230 1.383 . S
C225 C232 1.496 . S
C226 C227 1.399 . S
C226 C230 1.389 . S
C227 C226 1.399 . S
C227 C229 1.380 . S
C227 H244 0.929 . S
C228 C225 1.399 . S
C228 C229 1.392 . S
C228 H245 0.929 . S
C229 C227 1.380 . S
C229 C228 1.392 . S
C229 H246 0.929 . S
C230 C225 1.383 . S
C230 C226 1.389 . S
C230 H247 0.931 . S
C231 O216 1.266 . S
C231 O217 1.248 . S
C232 Tb168 2.802 . S
C232 O212 1.264 . S
C232 O215 1.256 . S
C232 C225 1.496 . S
C233 C200 1.448 . S
C233 H210 0.930 . S
C233 C234 1.328 . S
C234 C205 1.427 . S
C234 H211 0.929 . S
C234 C233 1.328 . S
C235 O219 1.264 . S
C235 O220 1.243 . S
C236 C239 1.399 . S
C236 C240 1.383 . S
C236 C243 1.496 . S
C237 C238 1.399 . S
C237 C240 1.389 . S
C238 C237 1.399 . S
C238 C241 1.380 . S
C238 H248 0.929 . S
C239 C236 1.399 . S
C239 C241 1.392 . S
C239 H249 0.929 . S
C240 C236 1.383 . S
C240 C237 1.389 . S
C240 H250 0.931 . S
C241 C238 1.380 . S
C241 C239 1.392 . S
C241 H251 0.929 . S
C242 O222 1.266 . S
C242 O223 1.248 . S
C243 Tb179 2.802 . S
C243 O218 1.264 . S
C243 O221 1.256 . S
C243 C236 1.496 . S
H244 C227 0.929 . S
H245 C228 0.929 . S
H246 C229 0.929 . S
H247 C230 0.931 . S
H248 C238 0.929 . S
H249 C239 0.929 . S
H250 C240 0.931 . S
H251 C241 0.929 . S
Tb252 N281 2.617 . S
Tb252 N287 2.572 . S
Tb252 O296 2.465 . S
Tb252 O297 2.387 . S
Tb252 O299 2.428 . S
Tb252 O300 2.308 . S
Tb252 O304 2.349 . S
Tb252 O307 2.393 . S
Tb252 C316 2.802 . S
C253 N254 1.379 1_554 S
C253 C256 1.416 . S
C253 C260 1.424 . S
N254 C253 1.379 1_556 S
N254 C257 1.334 . S
N254 Tb263 2.617 . S
C255 C257 1.390 1_554 S
C255 C258 1.339 . S
C255 H275 0.930 . S
C256 C253 1.416 . S
C256 C258 1.416 . S
C256 C262 1.448 . S
C257 N254 1.334 . S
C257 C255 1.390 1_556 S
C257 H268 0.930 . S
C258 C255 1.339 . S
C258 C256 1.416 . S
C258 H279 0.930 . S
C259 C260 1.413 . S
C259 C261 1.427 . S
C259 C265 1.416 . S
C260 C253 1.424 . S
C260 C259 1.413 . S
C260 N264 1.361 1_554 S
C261 C259 1.427 . S
C261 C262 1.328 . S
C261 H276 0.929 . S
C262 C256 1.448 . S
C262 C261 1.328 . S
C262 H277 0.930 . S
Tb263 N254 2.617 . S
Tb263 N264 2.572 . S
Tb263 O298 2.349 . S
Tb263 O301 2.393 . S
Tb263 O302 2.465 . S
Tb263 O303 2.387 . S
Tb263 O305 2.428 . S
Tb263 O306 2.308 . S
Tb263 C327 2.802 . S
N264 C260 1.361 1_556 S
N264 Tb263 2.572 . S
N264 C266 1.340 . S
C265 C259 1.416 . S
C265 C267 1.332 . S
C265 H273 0.931 . S
C266 N264 1.340 . S
C266 C267 1.407 1_556 S
C266 H272 0.930 . S
C267 C265 1.332 . S
C267 C266 1.407 1_554 S
C267 H269 0.929 . S
H268 C257 0.930 . S
H269 C267 0.929 . S
H270 C285 0.930 . S
H271 C292 0.929 . S
H272 C266 0.930 . S
H273 C265 0.931 . S
H274 C288 0.930 . S
H275 C255 0.930 . S
H276 C261 0.929 . S
H277 C262 0.930 . S
H278 C283 0.930 . S
H279 C258 0.930 . S
H280 C291 0.931 . S
N281 Tb252 2.617 . S
N281 C282 1.379 . S
N281 C285 1.334 . S
C282 N281 1.379 . S
C282 C284 1.416 . S
C282 C290 1.424 . S
C283 H278 0.930 . S
C283 C285 1.390 . S
C283 C286 1.339 . S
C284 C282 1.416 . S
C284 C286 1.416 . S
C284 C317 1.448 . S
C285 H270 0.930 . S
C285 N281 1.334 . S
C285 C283 1.390 . S
C286 C283 1.339 . S
C286 C284 1.416 . S
C286 H293 0.930 . S
N287 Tb252 2.572 . S
N287 C288 1.340 . S
N287 C290 1.361 . S
C288 H274 0.930 . S
C288 N287 1.340 . S
C288 C292 1.407 . S
C289 C290 1.413 . S
C289 C291 1.416 . S
C289 C318 1.427 . S
C290 C282 1.424 . S
C290 N287 1.361 . S
C290 C289 1.413 . S
C291 H280 0.931 . S
C291 C289 1.416 . S
C291 C292 1.332 . S
C292 H271 0.929 . S
C292 C288 1.407 . S
C292 C291 1.332 . S
H293 C286 0.930 . S
H294 C317 0.930 . S
H295 C318 0.929 . S
O296 Tb252 2.465 . S
O296 C316 1.264 . S
O297 Tb252 2.387 . S
O297 C308 1.264 . S
O298 Tb263 2.349 . S
O298 C308 1.243 . S
O299 Tb252 2.428 . S
O299 C316 1.256 . S
O300 Tb252 2.308 . S
O300 C315 1.266 . S
O301 Tb263 2.393 . S
O301 C315 1.248 . S
O302 Tb263 2.465 . S
O302 C327 1.264 . S
O303 Tb263 2.387 . S
O303 C319 1.264 . S
O304 Tb252 2.349 . S
O304 C319 1.243 . S
O305 Tb263 2.428 . S
O305 C327 1.256 . S
O306 Tb263 2.308 . S
O306 C326 1.266 . S
O307 Tb252 2.393 . S
O307 C326 1.248 . S
C308 O297 1.264 . S
C308 O298 1.243 . S
C309 C312 1.399 . S
C309 C314 1.383 . S
C309 C316 1.496 . S
C310 C311 1.399 . S
C310 C314 1.389 . S
C311 C310 1.399 . S
C311 C313 1.380 . S
C311 H328 0.929 . S
C312 C309 1.399 . S
C312 C313 1.392 . S
C312 H329 0.929 . S
C313 C311 1.380 . S
C313 C312 1.392 . S
C313 H330 0.929 . S
C314 C309 1.383 . S
C314 C310 1.389 . S
C314 H331 0.931 . S
C315 O300 1.266 . S
C315 O301 1.248 . S
C316 Tb252 2.802 . S
C316 O296 1.264 . S
C316 O299 1.256 . S
C316 C309 1.496 . S
C317 C284 1.448 . S
C317 H294 0.930 . S
C317 C318 1.328 . S
C318 C289 1.427 . S
C318 H295 0.929 . S
C318 C317 1.328 . S
C319 O303 1.264 . S
C319 O304 1.243 . S
C320 C323 1.399 . S
C320 C324 1.383 . S
C320 C327 1.496 . S
C321 C322 1.399 . S
C321 C324 1.389 . S
C322 C321 1.399 . S
C322 C325 1.380 . S
C322 H332 0.961 . S
C323 C320 1.399 . S
C323 C325 1.392 . S
C323 H333 0.929 . S
C324 C320 1.383 . S
C324 C321 1.389 . S
C324 H334 0.931 . S
C325 C322 1.380 . S
C325 C323 1.392 . S
C325 H335 0.929 1_556 S
C326 O306 1.266 . S
C326 O307 1.248 . S
C327 Tb263 2.802 . S
C327 O302 1.264 . S
C327 O305 1.256 . S
C327 C320 1.496 . S
H328 C311 0.929 . S
H329 C312 0.929 . S
H330 C313 0.929 . S
H331 C314 0.931 . S
H332 C322 0.961 . S
H333 C323 0.929 . S
H334 C324 0.931 . S
H335 C325 0.929 1_554 S
Tb336 N365 2.617 . S
Tb336 N371 2.572 . S
Tb336 O380 2.465 . S
Tb336 O381 2.387 . S
Tb336 O383 2.428 . S
Tb336 O384 2.308 . S
Tb336 O388 2.349 . S
Tb336 O391 2.393 1_455 S
Tb336 C400 2.802 . S
C337 N338 1.379 1_655 S
C337 C340 1.420 . S
C337 C344 1.424 . S
N338 C337 1.379 1_455 S
N338 C341 1.334 . S
N338 Tb347 2.618 . S
C339 C341 1.390 . S
C339 C342 1.339 . S
C339 H359 0.930 . S
C340 C337 1.420 . S
C340 C342 1.406 1_655 S
C340 C346 1.454 . S
C341 N338 1.334 . S
C341 C339 1.390 . S
C341 H352 0.930 . S
C342 C339 1.339 . S
C342 C340 1.406 1_455 S
C342 H363 0.930 . S
C343 C344 1.413 . S
C343 C345 1.427 . S
C343 C349 1.416 . S
C344 C337 1.424 . S
C344 C343 1.413 . S
C344 N348 1.361 . S
C345 C343 1.427 . S
C345 C346 1.328 . S
C345 H360 0.929 . S
C346 C340 1.454 . S
C346 C345 1.328 . S
C346 H361 0.930 . S
Tb347 N338 2.618 . S
Tb347 N348 2.570 1_455 S
Tb347 O382 2.349 . S
Tb347 O385 2.396 . S
Tb347 O386 2.461 1_455 S
Tb347 O387 2.389 . S
Tb347 O389 2.426 1_455 S
Tb347 O390 2.306 1_455 S
Tb347 C411 2.799 1_455 S
N348 C344 1.361 . S
N348 Tb347 2.570 1_655 S
N348 C350 1.340 . S
C349 C343 1.416 . S
C349 C351 1.332 . S
C349 H357 0.931 . S
C350 N348 1.340 . S
C350 C351 1.407 . S
C350 H356 0.930 . S
C351 C349 1.332 . S
C351 C350 1.407 . S
C351 H353 0.929 . S
H352 C341 0.930 . S
H353 C351 0.929 . S
H354 C369 0.930 . S
H355 C376 0.929 . S
H356 C350 0.930 . S
H357 C349 0.931 . S
H358 C372 0.930 . S
H359 C339 0.930 . S
H360 C345 0.929 . S
H361 C346 0.930 . S
H362 C367 0.930 1_655 S
H363 C342 0.930 . S
H364 C375 0.931 . S
N365 Tb336 2.617 . S
N365 C366 1.379 . S
N365 C369 1.334 . S
C366 N365 1.379 . S
C366 C368 1.416 . S
C366 C374 1.424 . S
C367 H362 0.930 1_455 S
C367 C369 1.390 . S
C367 C370 1.339 . S
C368 C366 1.416 . S
C368 C370 1.416 . S
C368 C401 1.448 . S
C369 H354 0.930 . S
C369 N365 1.334 . S
C369 C367 1.390 . S
C370 C367 1.339 . S
C370 C368 1.416 . S
C370 H377 0.930 . S
N371 Tb336 2.572 . S
N371 C372 1.340 . S
N371 C374 1.361 . S
C372 H358 0.930 . S
C372 N371 1.340 . S
C372 C376 1.407 . S
C373 C374 1.413 . S
C373 C375 1.416 . S
C373 C402 1.427 . S
C374 C366 1.424 . S
C374 N371 1.361 . S
C374 C373 1.413 . S
C375 H364 0.931 . S
C375 C373 1.416 . S
C375 C376 1.332 . S
C376 H355 0.929 . S
C376 C372 1.407 . S
C376 C375 1.332 . S
H377 C370 0.930 . S
H378 C401 0.930 . S
H379 C402 0.929 . S
O380 Tb336 2.465 . S
O380 C400 1.264 . S
O381 Tb336 2.387 . S
O381 C392 1.264 . S
O382 Tb347 2.349 . S
O382 C392 1.243 . S
O383 Tb336 2.428 . S
O383 C400 1.256 . S
O384 Tb336 2.308 . S
O384 C399 1.266 . S
O385 Tb347 2.396 . S
O385 C399 1.248 . S
O386 Tb347 2.461 1_655 S
O386 C411 1.264 . S
O387 Tb347 2.389 . S
O387 C403 1.264 . S
O388 Tb336 2.349 . S
O388 C403 1.243 . S
O389 Tb347 2.426 1_655 S
O389 C411 1.256 . S
O390 Tb347 2.306 1_655 S
O390 C410 1.266 . S
O391 Tb336 2.393 1_655 S
O391 C410 1.248 . S
C392 O381 1.264 . S
C392 O382 1.243 . S
C393 C396 1.399 . S
C393 C398 1.383 . S
C393 C400 1.496 . S
C394 C395 1.399 . S
C394 C398 1.389 . S
C395 C394 1.399 . S
C395 C397 1.380 . S
C395 H412 0.929 . S
C396 C393 1.399 . S
C396 C397 1.392 . S
C396 H413 0.929 . S
C397 C395 1.380 . S
C397 C396 1.392 . S
C397 H414 0.929 . S
C398 C393 1.383 . S
C398 C394 1.389 . S
C398 H415 0.931 . S
C399 O384 1.266 . S
C399 O385 1.248 . S
C400 Tb336 2.802 . S
C400 O380 1.264 . S
C400 O383 1.256 . S
C400 C393 1.496 . S
C401 C368 1.448 . S
C401 H378 0.930 . S
C401 C402 1.328 . S
C402 C373 1.427 . S
C402 H379 0.929 . S
C402 C401 1.328 . S
C403 O387 1.264 . S
C403 O388 1.243 . S
C404 C407 1.399 . S
C404 C408 1.383 . S
C404 C411 1.496 . S
C405 C406 1.399 . S
C405 C408 1.389 . S
C406 C405 1.399 . S
C406 C409 1.380 . S
C406 H416 0.929 . S
C407 C404 1.399 . S
C407 C409 1.392 . S
C407 H417 0.929 . S
C408 C404 1.383 . S
C408 C405 1.389 . S
C408 H418 0.931 . S
C409 C406 1.380 . S
C409 C407 1.392 . S
C409 H419 0.929 . S
C410 O390 1.266 . S
C410 O391 1.248 . S
C411 Tb347 2.799 1_655 S
C411 O386 1.264 . S
C411 O389 1.256 . S
C411 C404 1.496 . S
H412 C395 0.929 . S
H413 C396 0.929 . S
H414 C397 0.929 . S
H415 C398 0.931 . S
H416 C406 0.929 . S
H417 C407 0.929 . S
H418 C408 0.931 . S
H419 C409 0.929 . S
Tb420 N449 2.617 . S
Tb420 N455 2.572 . S
Tb420 O464 2.465 . S
Tb420 O465 2.387 . S
Tb420 O467 2.428 . S
Tb420 O468 2.308 . S
Tb420 O472 2.349 . S
Tb420 O475 2.393 . S
Tb420 C484 2.802 . S
C421 N422 1.379 . S
C421 C424 1.394 1_554 S
C421 C428 1.424 . S
N422 C421 1.379 . S
N422 C425 1.334 . S
N422 Tb431 2.617 . S
C423 C425 1.390 . S
C423 C426 1.356 . S
C423 H443 0.930 . S
C424 C421 1.394 1_556 S
C424 C426 1.415 1_556 S
C424 C430 1.471 . S
C425 N422 1.334 . S
C425 C423 1.390 . S
C425 H436 0.930 . S
C426 C423 1.356 . S
C426 C424 1.415 1_554 S
C426 H447 0.915 1_554 S
C427 C428 1.413 1_556 S
C427 C429 1.427 . S
C427 C433 1.420 . S
C428 C421 1.424 . S
C428 C427 1.413 1_554 S
C428 N432 1.361 . S
C429 C427 1.427 . S
C429 C430 1.328 . S
C429 H444 0.929 . S
C430 C424 1.471 . S
C430 C429 1.328 . S
C430 H445 0.930 . S
Tb431 N422 2.617 . S
Tb431 N432 2.572 . S
Tb431 O466 2.349 . S
Tb431 O469 2.393 . S
Tb431 O470 2.465 . S
Tb431 O471 2.387 . S
Tb431 O473 2.428 . S
Tb431 O474 2.308 . S
Tb431 C495 2.802 . S
N432 C428 1.361 . S
N432 Tb431 2.572 . S
N432 C434 1.340 . S
C433 C427 1.420 . S
C433 C435 1.285 1_556 S
C433 H441 0.978 . S
C434 N432 1.340 . S
C434 C435 1.407 . S
C434 H440 0.930 . S
C435 C433 1.285 1_554 S
C435 C434 1.407 . S
C435 H437 0.929 . S
H436 C425 0.930 . S
H437 C435 0.929 . S
H438 C453 0.930 . S
H439 C460 0.929 . S
H440 C434 0.930 . S
H441 C433 0.978 . S
H442 C456 0.930 . S
H443 C423 0.930 . S
H444 C429 0.929 . S
H445 C430 0.930 . S
H446 C451 0.930 . S
H447 C426 0.915 1_556 S
H448 C459 0.931 . S
N449 Tb420 2.617 . S
N449 C450 1.379 . S
N449 C453 1.334 . S
C450 N449 1.379 . S
C450 C452 1.416 . S
C450 C458 1.424 . S
C451 H446 0.930 . S
C451 C453 1.390 . S
C451 C454 1.339 . S
C452 C450 1.416 . S
C452 C454 1.416 . S
C452 C485 1.448 . S
C453 H438 0.930 . S
C453 N449 1.334 . S
C453 C451 1.390 . S
C454 C451 1.339 . S
C454 C452 1.416 . S
C454 H461 0.930 . S
N455 Tb420 2.572 . S
N455 C456 1.340 . S
N455 C458 1.361 . S
C456 H442 0.930 . S
C456 N455 1.340 . S
C456 C460 1.407 . S
C457 C458 1.413 . S
C457 C459 1.416 . S
C457 C486 1.427 . S
C458 C450 1.424 . S
C458 N455 1.361 . S
C458 C457 1.413 . S
C459 H448 0.931 . S
C459 C457 1.416 . S
C459 C460 1.332 . S
C460 H439 0.929 . S
C460 C456 1.407 . S
C460 C459 1.332 . S
H461 C454 0.930 . S
H462 C485 0.930 . S
H463 C486 0.929 . S
O464 Tb420 2.465 . S
O464 C484 1.264 . S
O465 Tb420 2.387 . S
O465 C476 1.264 . S
O466 Tb431 2.349 . S
O466 C476 1.243 . S
O467 Tb420 2.428 . S
O467 C484 1.256 . S
O468 Tb420 2.308 . S
O468 C483 1.266 . S
O469 Tb431 2.393 . S
O469 C483 1.248 . S
O470 Tb431 2.465 . S
O470 C495 1.264 . S
O471 Tb431 2.387 . S
O471 C487 1.264 . S
O472 Tb420 2.349 . S
O472 C487 1.243 . S
O473 Tb431 2.428 . S
O473 C495 1.256 . S
O474 Tb431 2.308 . S
O474 C494 1.266 . S
O475 Tb420 2.393 . S
O475 C494 1.248 . S
C476 O465 1.264 . S
C476 O466 1.243 . S
C477 C480 1.399 . S
C477 C482 1.383 . S
C477 C484 1.496 . S
C478 C479 1.399 . S
C478 C482 1.389 . S
C479 C478 1.399 . S
C479 C481 1.380 . S
C479 H496 0.929 . S
C480 C477 1.399 . S
C480 C481 1.392 . S
C480 H497 0.929 . S
C481 C479 1.380 . S
C481 C480 1.392 . S
C481 H498 0.929 . S
C482 C477 1.383 . S
C482 C478 1.389 . S
C482 H499 0.931 . S
C483 O468 1.266 . S
C483 O469 1.248 . S
C484 Tb420 2.802 . S
C484 O464 1.264 . S
C484 O467 1.256 . S
C484 C477 1.496 . S
C485 C452 1.448 . S
C485 H462 0.930 . S
C485 C486 1.328 . S
C486 C457 1.427 . S
C486 H463 0.929 . S
C486 C485 1.328 . S
C487 O471 1.264 . S
C487 O472 1.243 . S
C488 C491 1.399 . S
C488 C492 1.383 . S
C488 C495 1.496 1_545 S
C489 C490 1.399 . S
C489 C492 1.389 . S
C490 C489 1.399 . S
C490 C493 1.380 . S
C490 H500 0.929 . S
C491 C488 1.399 . S
C491 C493 1.392 . S
C491 H501 0.929 . S
C492 C488 1.383 . S
C492 C489 1.389 . S
C492 H502 0.931 . S
C493 C490 1.380 . S
C493 C491 1.392 . S
C493 H503 0.929 . S
C494 O474 1.266 . S
C494 O475 1.248 . S
C495 Tb431 2.802 . S
C495 O470 1.264 . S
C495 O473 1.256 . S
C495 C488 1.496 1_565 S
H496 C479 0.929 . S
H497 C480 0.929 . S
H498 C481 0.929 . S
H499 C482 0.931 . S
H500 C490 0.929 . S
H501 C491 0.929 . S
H502 C492 0.931 . S
H503 C493 0.929 . S
Tb504 N533 2.617 . S
Tb504 N539 2.572 . S
Tb504 O548 2.465 . S
Tb504 O549 2.387 . S
Tb504 O551 2.428 . S
Tb504 O552 2.308 . S
Tb504 O556 2.349 . S
Tb504 O559 2.393 . S
Tb504 C568 2.802 . S
C505 N506 1.379 . S
C505 C508 1.416 . S
C505 C512 1.424 . S
N506 C505 1.379 . S
N506 C509 1.334 . S
N506 Tb515 2.617 . S
C507 C509 1.390 . S
C507 C510 1.339 . S
C507 H527 0.930 . S
C508 C505 1.416 . S
C508 C510 1.416 . S
C508 C514 1.448 . S
C509 N506 1.334 . S
C509 C507 1.390 . S
C509 H520 0.930 . S
C510 C507 1.339 . S
C510 C508 1.416 . S
C510 H531 0.930 . S
C511 C512 1.413 . S
C511 C513 1.427 . S
C511 C517 1.416 . S
C512 C505 1.424 . S
C512 C511 1.413 . S
C512 N516 1.361 . S
C513 C511 1.427 . S
C513 C514 1.328 . S
C513 H528 0.929 . S
C514 C508 1.448 . S
C514 C513 1.328 . S
C514 H529 0.930 . S
Tb515 N506 2.617 . S
Tb515 N516 2.572 . S
Tb515 O550 2.349 . S
Tb515 O553 2.393 . S
Tb515 O554 2.465 . S
Tb515 O555 2.387 . S
Tb515 O557 2.428 . S
Tb515 O558 2.308 . S
Tb515 C579 2.802 . S
N516 C512 1.361 . S
N516 Tb515 2.572 . S
N516 C518 1.340 . S
C517 C511 1.416 . S
C517 C519 1.332 . S
C517 H525 0.931 . S
C518 N516 1.340 . S
C518 C519 1.407 . S
C518 H524 0.930 . S
C519 C517 1.332 . S
C519 C518 1.407 . S
C519 H521 0.929 . S
H520 C509 0.930 . S
H521 C519 0.929 . S
H522 C537 0.930 . S
H523 C544 0.929 . S
H524 C518 0.930 . S
H525 C517 0.931 . S
H526 C540 0.930 . S
H527 C507 0.930 . S
H528 C513 0.929 . S
H529 C514 0.930 . S
H530 C535 0.930 . S
H531 C510 0.930 . S
H532 C543 0.931 . S
N533 Tb504 2.617 . S
N533 C534 1.379 . S
N533 C537 1.334 . S
C534 N533 1.379 . S
C534 C536 1.416 . S
C534 C542 1.424 . S
C535 H530 0.930 . S
C535 C537 1.390 . S
C535 C538 1.339 . S
C536 C534 1.416 . S
C536 C538 1.416 . S
C536 C569 1.448 . S
C537 H522 0.930 . S
C537 N533 1.334 . S
C537 C535 1.390 . S
C538 C535 1.339 . S
C538 C536 1.416 . S
C538 H545 0.930 . S
N539 Tb504 2.572 . S
N539 C540 1.340 . S
N539 C542 1.361 . S
C540 H526 0.930 . S
C540 N539 1.340 . S
C540 C544 1.407 . S
C541 C542 1.413 . S
C541 C543 1.416 . S
C541 C570 1.427 . S
C542 C534 1.424 . S
C542 N539 1.361 . S
C542 C541 1.413 . S
C543 H532 0.931 . S
C543 C541 1.416 . S
C543 C544 1.332 . S
C544 H523 0.929 . S
C544 C540 1.407 . S
C544 C543 1.332 . S
H545 C538 0.930 . S
H546 C569 0.930 . S
H547 C570 0.929 . S
O548 Tb504 2.465 . S
O548 C568 1.264 . S
O549 Tb504 2.387 . S
O549 C560 1.264 . S
O550 Tb515 2.349 . S
O550 C560 1.243 . S
O551 Tb504 2.428 . S
O551 C568 1.256 . S
O552 Tb504 2.308 . S
O552 C567 1.266 . S
O553 Tb515 2.393 . S
O553 C567 1.248 . S
O554 Tb515 2.465 . S
O554 C579 1.264 . S
O555 Tb515 2.387 . S
O555 C571 1.264 . S
O556 Tb504 2.349 . S
O556 C571 1.243 . S
O557 Tb515 2.428 . S
O557 C579 1.256 . S
O558 Tb515 2.308 . S
O558 C578 1.266 . S
O559 Tb504 2.393 . S
O559 C578 1.248 . S
C560 O549 1.264 . S
C560 O550 1.243 . S
C561 C564 1.399 . S
C561 C566 1.383 . S
C561 C568 1.496 . S
C562 C563 1.399 . S
C562 C566 1.389 . S
C563 C562 1.399 . S
C563 C565 1.380 . S
C563 H580 0.929 . S
C564 C561 1.399 . S
C564 C565 1.392 . S
C564 H581 0.929 . S
C565 C563 1.380 . S
C565 C564 1.392 . S
C565 H582 0.929 . S
C566 C561 1.383 . S
C566 C562 1.389 . S
C566 H583 0.931 . S
C567 O552 1.266 . S
C567 O553 1.248 . S
C568 Tb504 2.802 . S
C568 O548 1.264 . S
C568 O551 1.256 . S
C568 C561 1.496 . S
C569 C536 1.448 . S
C569 H546 0.930 . S
C569 C570 1.328 . S
C570 C541 1.427 . S
C570 H547 0.929 . S
C570 C569 1.328 . S
C571 O555 1.264 . S
C571 O556 1.243 . S
C572 C575 1.399 . S
C572 C576 1.383 . S
C572 C579 1.496 . S
C573 C574 1.399 . S
C573 C576 1.389 . S
C574 C573 1.399 . S
C574 C577 1.380 . S
C574 H584 0.929 . S
C575 C572 1.399 . S
C575 C577 1.392 . S
C575 H585 0.929 . S
C576 C572 1.383 . S
C576 C573 1.389 . S
C576 H586 0.931 . S
C577 C574 1.380 . S
C577 C575 1.392 . S
C577 H587 0.929 . S
C578 O558 1.266 . S
C578 O559 1.248 . S
C579 Tb515 2.802 . S
C579 O554 1.264 . S
C579 O557 1.256 . S
C579 C572 1.496 . S
H580 C563 0.929 . S
H581 C564 0.929 . S
H582 C565 0.929 . S
H583 C566 0.931 . S
H584 C574 0.929 . S
H585 C575 0.929 . S
H586 C576 0.931 . S
H587 C577 0.929 . S
Tb588 N617 2.617 . S
Tb588 N623 2.572 . S
Tb588 O632 2.465 . S
Tb588 O633 2.387 . S
Tb588 O635 2.428 . S
Tb588 O636 2.308 . S
Tb588 O640 2.349 . S
Tb588 O643 2.393 . S
Tb588 C652 2.802 . S
C589 N590 1.379 . S
C589 C592 1.416 . S
C589 C596 1.424 . S
N590 C589 1.379 . S
N590 C593 1.334 . S
N590 Tb599 2.617 . S
C591 C593 1.390 . S
C591 C594 1.339 . S
C591 H611 0.930 . S
C592 C589 1.416 . S
C592 C594 1.416 . S
C592 C598 1.448 . S
C593 N590 1.334 . S
C593 C591 1.390 . S
C593 H604 0.930 . S
C594 C591 1.339 . S
C594 C592 1.416 . S
C594 H615 0.930 . S
C595 C596 1.413 . S
C595 C597 1.427 . S
C595 C601 1.416 . S
C596 C589 1.424 . S
C596 C595 1.413 . S
C596 N600 1.361 . S
C597 C595 1.427 . S
C597 C598 1.328 . S
C597 H612 0.929 . S
C598 C592 1.448 . S
C598 C597 1.328 . S
C598 H613 0.930 . S
Tb599 N590 2.617 . S
Tb599 N600 2.572 . S
Tb599 O634 2.349 . S
Tb599 O637 2.393 . S
Tb599 O638 2.465 . S
Tb599 O639 2.387 . S
Tb599 O641 2.428 . S
Tb599 O642 2.308 . S
Tb599 C663 2.802 . S
N600 C596 1.361 . S
N600 Tb599 2.572 . S
N600 C602 1.340 . S
C601 C595 1.416 . S
C601 C603 1.332 . S
C601 H609 0.931 . S
C602 N600 1.340 . S
C602 C603 1.407 . S
C602 H608 0.930 . S
C603 C601 1.332 . S
C603 C602 1.407 . S
C603 H605 0.929 . S
H604 C593 0.930 . S
H605 C603 0.929 . S
H606 C621 0.930 . S
H607 C628 0.929 . S
H608 C602 0.930 . S
H609 C601 0.931 . S
H610 C624 0.930 . S
H611 C591 0.930 . S
H612 C597 0.929 . S
H613 C598 0.930 . S
H614 C619 0.930 . S
H615 C594 0.930 . S
H616 C627 0.931 . S
N617 Tb588 2.617 . S
N617 C618 1.379 . S
N617 C621 1.334 . S
C618 N617 1.379 . S
C618 C620 1.416 . S
C618 C626 1.424 . S
C619 H614 0.930 . S
C619 C621 1.390 . S
C619 C622 1.339 . S
C620 C618 1.416 . S
C620 C622 1.416 . S
C620 C653 1.448 . S
C621 H606 0.930 . S
C621 N617 1.334 . S
C621 C619 1.390 . S
C622 C619 1.339 . S
C622 C620 1.416 . S
C622 H629 0.930 . S
N623 Tb588 2.572 . S
N623 C624 1.340 . S
N623 C626 1.361 . S
C624 H610 0.930 . S
C624 N623 1.340 . S
C624 C628 1.407 . S
C625 C626 1.413 . S
C625 C627 1.416 . S
C625 C654 1.427 . S
C626 C618 1.424 . S
C626 N623 1.361 . S
C626 C625 1.413 . S
C627 H616 0.931 . S
C627 C625 1.416 . S
C627 C628 1.332 . S
C628 H607 0.929 . S
C628 C624 1.407 . S
C628 C627 1.332 . S
H629 C622 0.930 . S
H630 C653 0.930 . S
H631 C654 0.929 . S
O632 Tb588 2.465 . S
O632 C652 1.264 . S
O633 Tb588 2.387 . S
O633 C644 1.264 . S
O634 Tb599 2.349 . S
O634 C644 1.243 . S
O635 Tb588 2.428 . S
O635 C652 1.256 . S
O636 Tb588 2.308 . S
O636 C651 1.266 . S
O637 Tb599 2.393 . S
O637 C651 1.248 . S
O638 Tb599 2.465 . S
O638 C663 1.264 . S
O639 Tb599 2.387 . S
O639 C655 1.264 . S
O640 Tb588 2.349 . S
O640 C655 1.243 . S
O641 Tb599 2.428 . S
O641 C663 1.256 . S
O642 Tb599 2.308 . S
O642 C662 1.266 . S
O643 Tb588 2.393 . S
O643 C662 1.248 . S
C644 O633 1.264 . S
C644 O634 1.243 . S
C645 C648 1.399 . S
C645 C650 1.383 . S
C645 C652 1.496 . S
C646 C647 1.399 . S
C646 C650 1.389 . S
C647 C646 1.399 . S
C647 C649 1.380 . S
C647 H664 0.929 . S
C648 C645 1.399 . S
C648 C649 1.392 . S
C648 H665 0.929 . S
C649 C647 1.380 . S
C649 C648 1.392 . S
C649 H666 0.929 . S
C650 C645 1.383 . S
C650 C646 1.389 . S
C650 H667 0.931 . S
C651 O636 1.266 . S
C651 O637 1.248 . S
C652 Tb588 2.802 . S
C652 O632 1.264 . S
C652 O635 1.256 . S
C652 C645 1.496 . S
C653 C620 1.448 . S
C653 H630 0.930 . S
C653 C654 1.328 . S
C654 C625 1.427 . S
C654 H631 0.929 . S
C654 C653 1.328 . S
C655 O639 1.264 . S
C655 O640 1.243 . S
C656 C659 1.399 . S
C656 C660 1.383 . S
C656 C663 1.496 . S
C657 C658 1.399 . S
C657 C660 1.389 . S
C658 C657 1.399 . S
C658 C661 1.380 . S
C658 H668 0.929 . S
C659 C656 1.399 . S
C659 C661 1.392 . S
C659 H669 0.929 . S
C660 C656 1.383 . S
C660 C657 1.389 . S
C660 H670 0.931 . S
C661 C658 1.380 . S
C661 C659 1.392 . S
C661 H671 0.929 . S
C662 O642 1.266 . S
C662 O643 1.248 . S
C663 Tb599 2.802 . S
C663 O638 1.264 . S
C663 O641 1.256 . S
C663 C656 1.496 . S
H664 C647 0.929 . S
H665 C648 0.929 . S
H666 C649 0.929 . S
H667 C650 0.931 . S
H668 C658 0.929 . S
H669 C659 0.929 . S
H670 C660 0.931 . S
H671 C661 0.929 . S
Tb672 N701 2.617 . S
Tb672 N707 2.572 . S
Tb672 O716 2.465 . S
Tb672 O717 2.387 . S
Tb672 O719 2.428 . S
Tb672 O720 2.308 . S
Tb672 O724 2.349 . S
Tb672 O727 2.393 . S
Tb672 C736 2.802 . S
C673 N674 1.379 . S
C673 C676 1.416 . S
C673 C680 1.424 . S
N674 C673 1.379 . S
N674 C677 1.334 . S
N674 Tb683 2.617 . S
C675 C677 1.390 . S
C675 C678 1.339 . S
C675 H695 0.930 . S
C676 C673 1.416 . S
C676 C678 1.416 . S
C676 C682 1.448 . S
C677 N674 1.334 . S
C677 C675 1.390 . S
C677 H688 0.930 . S
C678 C675 1.339 . S
C678 C676 1.416 . S
C678 H699 0.930 . S
C679 C680 1.413 . S
C679 C681 1.427 . S
C679 C685 1.416 . S
C680 C673 1.424 . S
C680 C679 1.413 . S
C680 N684 1.361 . S
C681 C679 1.427 . S
C681 C682 1.328 . S
C681 H696 0.929 . S
C682 C676 1.448 . S
C682 C681 1.328 . S
C682 H697 0.930 . S
Tb683 N674 2.617 . S
Tb683 N684 2.572 . S
Tb683 O718 2.349 . S
Tb683 O721 2.393 . S
Tb683 O722 2.465 . S
Tb683 O723 2.387 . S
Tb683 O725 2.428 . S
Tb683 O726 2.308 . S
Tb683 C747 2.802 . S
N684 C680 1.361 . S
N684 Tb683 2.572 . S
N684 C686 1.340 . S
C685 C679 1.416 . S
C685 C687 1.332 . S
C685 H693 0.931 . S
C686 N684 1.340 . S
C686 C687 1.407 . S
C686 H692 0.930 . S
C687 C685 1.332 . S
C687 C686 1.407 . S
C687 H689 0.929 . S
H688 C677 0.930 . S
H689 C687 0.929 . S
H690 C705 0.930 . S
H691 C712 0.929 . S
H692 C686 0.930 . S
H693 C685 0.931 . S
H694 C708 0.930 . S
H695 C675 0.930 . S
H696 C681 0.929 . S
H697 C682 0.930 . S
H698 C703 0.930 . S
H699 C678 0.930 . S
H700 C711 0.931 . S
N701 Tb672 2.617 . S
N701 C702 1.379 . S
N701 C705 1.334 . S
C702 N701 1.379 . S
C702 C704 1.416 . S
C702 C710 1.424 . S
C703 H698 0.930 . S
C703 C705 1.390 . S
C703 C706 1.339 . S
C704 C702 1.416 . S
C704 C706 1.416 . S
C704 C737 1.448 . S
C705 H690 0.930 . S
C705 N701 1.334 . S
C705 C703 1.390 . S
C706 C703 1.339 . S
C706 C704 1.416 . S
C706 H713 0.930 . S
N707 Tb672 2.572 . S
N707 C708 1.340 . S
N707 C710 1.361 . S
C708 H694 0.930 . S
C708 N707 1.340 . S
C708 C712 1.407 . S
C709 C710 1.413 . S
C709 C711 1.416 . S
C709 C738 1.427 . S
C710 C702 1.424 . S
C710 N707 1.361 . S
C710 C709 1.413 . S
C711 H700 0.931 . S
C711 C709 1.416 . S
C711 C712 1.332 . S
C712 H691 0.929 . S
C712 C708 1.407 . S
C712 C711 1.332 . S
H713 C706 0.930 . S
H714 C737 0.930 . S
H715 C738 0.929 . S
O716 Tb672 2.465 . S
O716 C736 1.264 . S
O717 Tb672 2.387 . S
O717 C728 1.264 . S
O718 Tb683 2.349 . S
O718 C728 1.243 . S
O719 Tb672 2.428 . S
O719 C736 1.256 . S
O720 Tb672 2.308 . S
O720 C735 1.266 . S
O721 Tb683 2.393 . S
O721 C735 1.248 . S
O722 Tb683 2.465 . S
O722 C747 1.264 . S
O723 Tb683 2.387 . S
O723 C739 1.264 . S
O724 Tb672 2.349 . S
O724 C739 1.243 . S
O725 Tb683 2.428 . S
O725 C747 1.256 . S
O726 Tb683 2.308 . S
O726 C746 1.266 . S
O727 Tb672 2.393 . S
O727 C746 1.248 . S
C728 O717 1.264 . S
C728 O718 1.243 . S
C729 C732 1.399 . S
C729 C734 1.383 . S
C729 C736 1.496 . S
C730 C731 1.399 . S
C730 C734 1.389 . S
C731 C730 1.399 . S
C731 C733 1.380 . S
C731 H748 0.929 . S
C732 C729 1.399 . S
C732 C733 1.392 . S
C732 H749 0.929 . S
C733 C731 1.380 . S
C733 C732 1.392 . S
C733 H750 0.929 . S
C734 C729 1.383 . S
C734 C730 1.389 . S
C734 H751 0.931 . S
C735 O720 1.266 . S
C735 O721 1.248 . S
C736 Tb672 2.802 . S
C736 O716 1.264 . S
C736 O719 1.256 . S
C736 C729 1.496 . S
C737 C704 1.448 . S
C737 H714 0.930 . S
C737 C738 1.328 . S
C738 C709 1.427 . S
C738 H715 0.929 . S
C738 C737 1.328 . S
C739 O723 1.264 . S
C739 O724 1.243 . S
C740 C743 1.399 . S
C740 C744 1.383 . S
C740 C747 1.496 . S
C741 C742 1.399 . S
C741 C744 1.389 . S
C742 C741 1.399 . S
C742 C745 1.380 . S
C742 H752 0.929 . S
C743 C740 1.399 . S
C743 C745 1.392 . S
C743 H753 0.929 . S
C744 C740 1.383 . S
C744 C741 1.389 . S
C744 H754 0.931 . S
C745 C742 1.380 . S
C745 C743 1.392 . S
C745 H755 0.929 . S
C746 O726 1.266 . S
C746 O727 1.248 . S
C747 Tb683 2.802 . S
C747 O722 1.264 . S
C747 O725 1.256 . S
C747 C740 1.496 . S
H748 C731 0.929 . S
H749 C732 0.929 . S
H750 C733 0.929 . S
H751 C734 0.931 . S
H752 C742 0.929 . S
H753 C743 0.929 . S
H754 C744 0.931 . S
H755 C745 0.929 . S
Tb756 N785 2.617 . S
Tb756 N791 2.572 . S
Tb756 O800 2.465 . S
Tb756 O801 2.387 . S
Tb756 O803 2.428 . S
Tb756 O804 2.308 . S
Tb756 O808 2.349 . S
Tb756 O811 2.393 . S
Tb756 C820 2.802 . S
C757 N758 1.379 . S
C757 C760 1.416 . S
C757 C764 1.424 . S
N758 C757 1.379 . S
N758 C761 1.334 . S
N758 Tb767 2.617 . S
C759 C761 1.390 . S
C759 C762 1.339 . S
C759 H779 0.930 . S
C760 C757 1.416 . S
C760 C762 1.416 . S
C760 C766 1.448 . S
C761 N758 1.334 . S
C761 C759 1.390 . S
C761 H772 0.930 . S
C762 C759 1.339 . S
C762 C760 1.416 . S
C762 H783 0.930 . S
C763 C764 1.413 . S
C763 C765 1.427 . S
C763 C769 1.416 . S
C764 C757 1.424 . S
C764 C763 1.413 . S
C764 N768 1.361 . S
C765 C763 1.427 . S
C765 C766 1.328 . S
C765 H780 0.929 . S
C766 C760 1.448 . S
C766 C765 1.328 . S
C766 H781 0.930 . S
Tb767 N758 2.617 . S
Tb767 N768 2.572 . S
Tb767 O802 2.349 . S
Tb767 O805 2.393 . S
Tb767 O806 2.465 . S
Tb767 O807 2.387 . S
Tb767 O809 2.428 . S
Tb767 O810 2.308 . S
Tb767 C831 2.802 . S
N768 C764 1.361 . S
N768 Tb767 2.572 . S
N768 C770 1.340 . S
C769 C763 1.416 . S
C769 C771 1.332 . S
C769 H777 0.931 . S
C770 N768 1.340 . S
C770 C771 1.407 . S
C770 H776 0.930 . S
C771 C769 1.332 . S
C771 C770 1.407 . S
C771 H773 0.929 . S
H772 C761 0.930 . S
H773 C771 0.929 . S
H774 C789 0.930 . S
H775 C796 0.929 . S
H776 C770 0.930 . S
H777 C769 0.931 . S
H778 C792 0.930 . S
H779 C759 0.930 . S
H780 C765 0.929 . S
H781 C766 0.930 . S
H782 C787 0.930 . S
H783 C762 0.930 . S
H784 C795 0.931 . S
N785 Tb756 2.617 . S
N785 C786 1.379 . S
N785 C789 1.334 . S
C786 N785 1.379 . S
C786 C788 1.416 1_554 S
C786 C794 1.424 . S
C787 H782 0.930 . S
C787 C789 1.390 . S
C787 C790 1.339 1_554 S
C788 C786 1.416 1_556 S
C788 C790 1.416 . S
C788 C821 1.448 . S
C789 H774 0.930 . S
C789 N785 1.334 . S
C789 C787 1.390 . S
C790 C787 1.339 1_556 S
C790 C788 1.416 . S
C790 H797 0.930 . S
N791 Tb756 2.572 . S
N791 C792 1.340 . S
N791 C794 1.361 . S
C792 H778 0.930 . S
C792 N791 1.340 . S
C792 C796 1.407 . S
C793 C794 1.413 1_556 S
C793 C795 1.416 . S
C793 C822 1.427 . S
C794 C786 1.424 . S
C794 N791 1.361 . S
C794 C793 1.413 1_554 S
C795 H784 0.931 . S
C795 C793 1.416 . S
C795 C796 1.332 1_556 S
C796 H775 0.929 . S
C796 C792 1.407 . S
C796 C795 1.332 1_554 S
H797 C790 0.930 . S
H798 C821 0.930 . S
H799 C822 0.929 . S
O800 Tb756 2.465 . S
O800 C820 1.264 . S
O801 Tb756 2.387 . S
O801 C812 1.264 . S
O802 Tb767 2.349 . S
O802 C812 1.243 . S
O803 Tb756 2.428 . S
O803 C820 1.256 . S
O804 Tb756 2.308 . S
O804 C819 1.266 . S
O805 Tb767 2.393 . S
O805 C819 1.248 . S
O806 Tb767 2.465 . S
O806 C831 1.264 . S
O807 Tb767 2.387 . S
O807 C823 1.264 . S
O808 Tb756 2.349 . S
O808 C823 1.243 . S
O809 Tb767 2.428 . S
O809 C831 1.256 . S
O810 Tb767 2.308 . S
O810 C830 1.266 . S
O811 Tb756 2.393 . S
O811 C830 1.248 . S
C812 O801 1.264 . S
C812 O802 1.243 . S
C813 C816 1.399 . S
C813 C818 1.383 . S
C813 C820 1.496 . S
C814 C815 1.399 . S
C814 C818 1.389 1_545 S
C815 C814 1.399 . S
C815 C817 1.380 1_545 S
C815 H832 0.929 . S
C816 C813 1.399 . S
C816 C817 1.392 . S
C816 H833 0.929 . S
C817 C815 1.380 1_565 S
C817 C816 1.392 . S
C817 H834 0.929 1_565 S
C818 C813 1.383 . S
C818 C814 1.389 1_565 S
C818 H835 0.931 . S
C819 O804 1.266 . S
C819 O805 1.248 . S
C820 Tb756 2.802 . S
C820 O800 1.264 . S
C820 O803 1.256 . S
C820 C813 1.496 . S
C821 C788 1.448 . S
C821 H798 0.930 . S
C821 C822 1.328 . S
C822 C793 1.427 . S
C822 H799 0.929 . S
C822 C821 1.328 . S
C823 O807 1.264 . S
C823 O808 1.243 . S
C824 C827 1.399 . S
C824 C828 1.383 . S
C824 C831 1.496 . S
C825 C826 1.399 . S
C825 C828 1.389 . S
C826 C825 1.399 . S
C826 C829 1.380 . S
C826 H836 0.929 . S
C827 C824 1.399 . S
C827 C829 1.392 . S
C827 H837 0.929 . S
C828 C824 1.383 . S
C828 C825 1.389 . S
C828 H838 0.931 . S
C829 C826 1.380 . S
C829 C827 1.392 . S
C829 H839 0.929 . S
C830 O810 1.266 . S
C830 O811 1.248 . S
C831 Tb767 2.802 . S
C831 O806 1.264 . S
C831 O809 1.256 . S
C831 C824 1.496 . S
H832 C815 0.929 . S
H833 C816 0.929 . S
H834 C817 0.929 1_545 S
H835 C818 0.931 . S
H836 C826 0.929 . S
H837 C827 0.929 . S
H838 C828 0.931 . S
H839 C829 0.929 . S
Tb840 N869 2.617 . S
Tb840 N875 2.572 . S
Tb840 O884 2.465 . S
Tb840 O885 2.387 . S
Tb840 O887 2.428 . S
Tb840 O888 2.308 . S
Tb840 O892 2.349 . S
Tb840 O895 2.393 . S
Tb840 C904 2.802 . S
C841 N842 1.379 . S
C841 C844 1.416 . S
C841 C848 1.424 . S
N842 C841 1.379 . S
N842 C845 1.334 . S
N842 Tb851 2.617 . S
C843 C845 1.390 . S
C843 C846 1.339 . S
C843 H863 0.930 . S
C844 C841 1.416 . S
C844 C846 1.416 . S
C844 C850 1.448 . S
C845 N842 1.334 . S
C845 C843 1.390 . S
C845 H856 0.930 . S
C846 C843 1.339 . S
C846 C844 1.416 . S
C846 H867 0.930 . S
C847 C848 1.413 . S
C847 C849 1.427 . S
C847 C853 1.416 . S
C848 C841 1.424 . S
C848 C847 1.413 . S
C848 N852 1.361 . S
C849 C847 1.427 . S
C849 C850 1.328 . S
C849 H864 0.929 . S
C850 C844 1.448 . S
C850 C849 1.328 . S
C850 H865 0.930 . S
Tb851 N842 2.617 . S
Tb851 N852 2.572 . S
Tb851 O886 2.349 . S
Tb851 O889 2.393 . S
Tb851 O890 2.465 . S
Tb851 O891 2.387 . S
Tb851 O893 2.428 . S
Tb851 O894 2.308 . S
Tb851 C915 2.802 . S
N852 C848 1.361 . S
N852 Tb851 2.572 . S
N852 C854 1.340 . S
C853 C847 1.416 . S
C853 C855 1.332 . S
C853 H861 0.931 . S
C854 N852 1.340 . S
C854 C855 1.407 . S
C854 H860 0.930 . S
C855 C853 1.332 . S
C855 C854 1.407 . S
C855 H857 0.929 . S
H856 C845 0.930 . S
H857 C855 0.929 . S
H858 C873 0.930 . S
H859 C880 0.929 . S
H860 C854 0.930 . S
H861 C853 0.931 . S
H862 C876 0.930 . S
H863 C843 0.930 . S
H864 C849 0.929 . S
H865 C850 0.930 . S
H866 C871 0.930 . S
H867 C846 0.930 . S
H868 C879 0.931 . S
N869 Tb840 2.617 . S
N869 C870 1.379 1_556 S
N869 C873 1.334 . S
C870 N869 1.379 1_554 S
C870 C872 1.416 . S
C870 C878 1.424 . S
C871 H866 0.930 . S
C871 C873 1.390 1_554 S
C871 C874 1.339 . S
C872 C870 1.416 . S
C872 C874 1.416 . S
C872 C905 1.448 . S
C873 H858 0.930 . S
C873 N869 1.334 . S
C873 C871 1.390 1_556 S
C874 C871 1.339 . S
C874 C872 1.416 . S
C874 H881 0.930 . S
N875 Tb840 2.572 . S
N875 C876 1.340 . S
N875 C878 1.361 1_556 S
C876 H862 0.930 . S
C876 N875 1.340 . S
C876 C880 1.407 1_556 S
C877 C878 1.413 . S
C877 C879 1.416 . S
C877 C906 1.427 . S
C878 C870 1.424 . S
C878 N875 1.361 1_554 S
C878 C877 1.413 . S
C879 H868 0.931 . S
C879 C877 1.416 . S
C879 C880 1.332 . S
C880 H859 0.929 . S
C880 C876 1.407 1_554 S
C880 C879 1.332 . S
H881 C874 0.930 . S
H882 C905 0.930 . S
H883 C906 0.929 . S
O884 Tb840 2.465 . S
O884 C904 1.264 . S
O885 Tb840 2.387 . S
O885 C896 1.264 . S
O886 Tb851 2.349 . S
O886 C896 1.243 . S
O887 Tb840 2.428 . S
O887 C904 1.256 . S
O888 Tb840 2.308 . S
O888 C903 1.266 . S
O889 Tb851 2.393 . S
O889 C903 1.248 . S
O890 Tb851 2.465 . S
O890 C915 1.264 . S
O891 Tb851 2.387 . S
O891 C907 1.264 . S
O892 Tb840 2.349 . S
O892 C907 1.243 . S
O893 Tb851 2.428 . S
O893 C915 1.256 . S
O894 Tb851 2.308 . S
O894 C914 1.266 . S
O895 Tb840 2.393 . S
O895 C914 1.248 . S
C896 O885 1.264 . S
C896 O886 1.243 . S
C897 C900 1.399 . S
C897 C902 1.383 . S
C897 C904 1.496 . S
C898 C899 1.399 . S
C898 C902 1.389 . S
C899 C898 1.399 . S
C899 C901 1.380 . S
C899 H916 0.929 . S
C900 C897 1.399 . S
C900 C901 1.392 . S
C900 H917 0.929 . S
C901 C899 1.380 . S
C901 C900 1.392 . S
C901 H918 0.929 . S
C902 C897 1.383 . S
C902 C898 1.389 . S
C902 H919 0.931 . S
C903 O888 1.266 . S
C903 O889 1.248 . S
C904 Tb840 2.802 . S
C904 O884 1.264 . S
C904 O887 1.256 . S
C904 C897 1.496 . S
C905 C872 1.448 . S
C905 H882 0.930 . S
C905 C906 1.328 . S
C906 C877 1.427 . S
C906 H883 0.929 . S
C906 C905 1.328 . S
C907 O891 1.264 . S
C907 O892 1.243 . S
C908 C911 1.399 . S
C908 C912 1.383 . S
C908 C915 1.496 . S
C909 C910 1.399 . S
C909 C912 1.389 . S
C910 C909 1.399 . S
C910 C913 1.380 . S
C910 H920 0.929 . S
C911 C908 1.399 . S
C911 C913 1.392 . S
C911 H921 0.929 . S
C912 C908 1.383 . S
C912 C909 1.389 . S
C912 H922 0.931 . S
C913 C910 1.380 . S
C913 C911 1.392 . S
C913 H923 0.929 . S
C914 O894 1.266 . S
C914 O895 1.248 . S
C915 Tb851 2.802 . S
C915 O890 1.264 . S
C915 O893 1.256 . S
C915 C908 1.496 . S
H916 C899 0.929 . S
H917 C900 0.929 . S
H918 C901 0.929 . S
H919 C902 0.931 . S
H920 C910 0.929 . S
H921 C911 0.929 . S
H922 C912 0.931 . S
H923 C913 0.929 . S
Tb924 N953 2.617 . S
Tb924 N959 2.572 . S
Tb924 O968 2.465 1_565 S
Tb924 O969 2.387 . S
Tb924 O971 2.428 1_565 S
Tb924 O972 2.308 . S
Tb924 O976 2.349 1_565 S
Tb924 O979 2.393 . S
Tb924 C988 2.802 1_565 S
C925 N926 1.389 . S
C925 C928 1.409 1_565 S
C925 C932 1.421 . S
N926 C925 1.389 . S
N926 C929 1.334 . S
N926 Tb935 2.617 . S
C927 C929 1.390 1_545 S
C927 C930 1.339 . S
C927 H947 0.930 . S
C928 C925 1.409 1_545 S
C928 C930 1.416 . S
C928 C934 1.448 . S
C929 N926 1.334 . S
C929 C927 1.390 1_565 S
C929 H940 0.930 . S
C930 C927 1.339 . S
C930 C928 1.416 . S
C930 H951 0.930 . S
C931 C932 1.413 1_545 S
C931 C933 1.427 . S
C931 C937 1.416 . S
C932 C925 1.421 . S
C932 C931 1.413 1_565 S
C932 N936 1.361 . S
C933 C931 1.427 . S
C933 C934 1.328 . S
C933 H948 0.929 . S
C934 C928 1.448 . S
C934 C933 1.328 . S
C934 H949 0.930 . S
Tb935 N926 2.617 . S
Tb935 N936 2.572 . S
Tb935 O970 2.349 . S
Tb935 O973 2.393 . S
Tb935 O974 2.465 . S
Tb935 O975 2.387 1_565 S
Tb935 O977 2.428 . S
Tb935 O978 2.308 . S
Tb935 C999 2.802 . S
N936 C932 1.361 . S
N936 Tb935 2.572 . S
N936 C938 1.340 . S
C937 C931 1.416 . S
C937 C939 1.332 1_545 S
C937 H945 0.931 . S
C938 N936 1.340 . S
C938 C939 1.407 . S
C938 H944 0.930 . S
C939 C937 1.332 1_565 S
C939 C938 1.407 . S
C939 H941 0.929 . S
H940 C929 0.930 . S
H941 C939 0.929 . S
H942 C957 0.930 . S
H943 C964 0.929 . S
H944 C938 0.930 . S
H945 C937 0.931 . S
H946 C960 0.930 . S
H947 C927 0.930 . S
H948 C933 0.929 . S
H949 C934 0.930 . S
H950 C955 0.930 . S
H951 C930 0.930 . S
H952 C963 0.931 . S
N953 Tb924 2.617 . S
N953 C954 1.379 . S
N953 C957 1.334 . S
C954 N953 1.379 . S
C954 C956 1.416 . S
C954 C962 1.424 . S
C955 H950 0.930 . S
C955 C957 1.390 . S
C955 C958 1.339 . S
C956 C954 1.416 . S
C956 C958 1.416 . S
C956 C989 1.448 . S
C957 H942 0.930 . S
C957 N953 1.334 . S
C957 C955 1.390 . S
C958 C955 1.339 . S
C958 C956 1.416 . S
C958 H965 0.930 . S
N959 Tb924 2.572 . S
N959 C960 1.340 . S
N959 C962 1.361 . S
C960 H946 0.930 . S
C960 N959 1.340 . S
C960 C964 1.407 . S
C961 C962 1.413 . S
C961 C963 1.416 . S
C961 C990 1.427 . S
C962 C954 1.424 . S
C962 N959 1.361 . S
C962 C961 1.413 . S
C963 H952 0.931 . S
C963 C961 1.416 . S
C963 C964 1.332 . S
C964 H943 0.929 . S
C964 C960 1.407 . S
C964 C963 1.332 . S
H965 C958 0.930 . S
H966 C989 0.930 . S
H967 C990 0.929 . S
O968 Tb924 2.465 1_545 S
O968 C988 1.264 . S
O969 Tb924 2.387 . S
O969 C980 1.264 . S
O970 Tb935 2.349 . S
O970 C980 1.243 . S
O971 Tb924 2.428 1_545 S
O971 C988 1.256 . S
O972 Tb924 2.308 . S
O972 C987 1.266 . S
O973 Tb935 2.393 . S
O973 C987 1.248 . S
O974 Tb935 2.465 . S
O974 C999 1.264 . S
O975 Tb935 2.387 1_545 S
O975 C991 1.264 . S
O976 Tb924 2.349 1_545 S
O976 C991 1.243 . S
O977 Tb935 2.428 . S
O977 C999 1.256 . S
O978 Tb935 2.308 . S
O978 C998 1.266 . S
O979 Tb924 2.393 . S
O979 C998 1.248 . S
C980 O969 1.264 . S
C980 O970 1.243 . S
C981 C984 1.399 . S
C981 C986 1.383 . S
C981 C988 1.496 . S
C982 C983 1.399 . S
C982 C986 1.389 . S
C983 C982 1.399 . S
C983 C985 1.380 . S
C983 H1000 0.929 . S
C984 C981 1.399 . S
C984 C985 1.392 . S
C984 H1001 0.929 . S
C985 C983 1.380 . S
C985 C984 1.392 . S
C985 H1002 0.929 . S
C986 C981 1.383 . S
C986 C982 1.389 . S
C986 H1003 0.931 . S
C987 O972 1.266 . S
C987 O973 1.248 . S
C988 Tb924 2.802 1_545 S
C988 O968 1.264 . S
C988 O971 1.256 . S
C988 C981 1.496 . S
C989 C956 1.448 . S
C989 H966 0.930 . S
C989 C990 1.328 . S
C990 C961 1.427 . S
C990 H967 0.929 . S
C990 C989 1.328 . S
C991 O975 1.264 . S
C991 O976 1.243 . S
C992 C995 1.399 . S
C992 C996 1.383 . S
C992 C999 1.496 . S
C993 C994 1.399 . S
C993 C996 1.389 . S
C994 C993 1.399 . S
C994 C997 1.380 . S
C994 H1004 0.929 . S
C995 C992 1.399 . S
C995 C997 1.392 . S
C995 H1005 0.929 . S
C996 C992 1.383 . S
C996 C993 1.389 . S
C996 H1006 0.931 . S
C997 C994 1.380 . S
C997 C995 1.392 . S
C997 H1007 0.929 . S
C998 O978 1.266 . S
C998 O979 1.248 . S
C999 Tb935 2.802 . S
C999 O974 1.264 . S
C999 O977 1.256 . S
C999 C992 1.496 . S
H1000 C983 0.929 . S
H1001 C984 0.929 . S
H1002 C985 0.929 . S
H1003 C986 0.931 . S
H1004 C994 0.929 . S
H1005 C995 0.929 . S
H1006 C996 0.931 . S
H1007 C997 0.929 . S
Tb1008 N1037 2.617 . S
Tb1008 N1043 2.572 . S
Tb1008 O1052 2.465 . S
Tb1008 O1053 2.387 . S
Tb1008 O1055 2.428 . S
Tb1008 O1056 2.308 . S
Tb1008 O1060 2.349 . S
Tb1008 O1063 2.393 . S
Tb1008 C1072 2.802 . S
C1009 N1010 1.379 1_565 S
C1009 C1012 1.416 . S
C1009 C1016 1.424 . S
N1010 C1009 1.379 1_545 S
N1010 C1013 1.334 . S
N1010 Tb1019 2.617 . S
C1011 C1013 1.390 1_565 S
C1011 C1014 1.339 . S
C1011 H1031 0.930 . S
C1012 C1009 1.416 . S
C1012 C1014 1.416 . S
C1012 C1018 1.448 . S
C1013 N1010 1.334 . S
C1013 C1011 1.390 1_545 S
C1013 H1024 0.930 . S
C1014 C1011 1.339 . S
C1014 C1012 1.416 . S
C1014 H1035 0.930 . S
C1015 C1016 1.413 . S
C1015 C1017 1.427 . S
C1015 C1021 1.416 . S
C1016 C1009 1.424 . S
C1016 C1015 1.413 . S
C1016 N1020 1.361 . S
C1017 C1015 1.427 . S
C1017 C1018 1.328 . S
C1017 H1032 0.929 . S
C1018 C1012 1.448 . S
C1018 C1017 1.328 . S
C1018 H1033 0.930 . S
Tb1019 N1010 2.617 . S
Tb1019 N1020 2.572 1_545 S
Tb1019 O1054 2.349 . S
Tb1019 O1057 2.393 . S
Tb1019 O1058 2.465 . S
Tb1019 O1059 2.387 . S
Tb1019 O1061 2.428 . S
Tb1019 O1062 2.308 . S
Tb1019 C1083 2.802 . S
N1020 C1016 1.361 . S
N1020 Tb1019 2.572 1_565 S
N1020 C1022 1.340 . S
C1021 C1015 1.416 . S
C1021 C1023 1.332 . S
C1021 H1029 0.931 . S
C1022 N1020 1.340 . S
C1022 C1023 1.407 . S
C1022 H1028 0.930 . S
C1023 C1021 1.332 . S
C1023 C1022 1.407 . S
C1023 H1025 0.929 . S
H1024 C1013 0.930 . S
H1025 C1023 0.929 . S
H1026 C1041 0.930 . S
H1027 C1048 0.929 . S
H1028 C1022 0.930 . S
H1029 C1021 0.931 . S
H1030 C1044 0.930 . S
H1031 C1011 0.930 . S
H1032 C1017 0.929 . S
H1033 C1018 0.930 . S
H1034 C1039 0.930 . S
H1035 C1014 0.930 . S
H1036 C1047 0.931 . S
N1037 Tb1008 2.617 . S
N1037 C1038 1.379 . S
N1037 C1041 1.334 . S
C1038 N1037 1.379 . S
C1038 C1040 1.416 . S
C1038 C1046 1.424 . S
C1039 H1034 0.930 . S
C1039 C1041 1.390 . S
C1039 C1042 1.339 . S
C1040 C1038 1.416 . S
C1040 C1042 1.416 . S
C1040 C1073 1.448 . S
C1041 H1026 0.930 . S
C1041 N1037 1.334 . S
C1041 C1039 1.390 . S
C1042 C1039 1.339 . S
C1042 C1040 1.416 . S
C1042 H1049 0.930 . S
N1043 Tb1008 2.572 . S
N1043 C1044 1.340 . S
N1043 C1046 1.361 . S
C1044 H1030 0.930 . S
C1044 N1043 1.340 . S
C1044 C1048 1.407 . S
C1045 C1046 1.413 . S
C1045 C1047 1.416 . S
C1045 C1074 1.427 . S
C1046 C1038 1.424 . S
C1046 N1043 1.361 . S
C1046 C1045 1.413 . S
C1047 H1036 0.931 . S
C1047 C1045 1.416 . S
C1047 C1048 1.332 . S
C1048 H1027 0.929 . S
C1048 C1044 1.407 . S
C1048 C1047 1.332 . S
H1049 C1042 0.930 . S
H1050 C1073 0.930 . S
H1051 C1074 0.929 . S
O1052 Tb1008 2.465 . S
O1052 C1072 1.264 . S
O1053 Tb1008 2.387 . S
O1053 C1064 1.264 . S
O1054 Tb1019 2.349 . S
O1054 C1064 1.243 . S
O1055 Tb1008 2.428 . S
O1055 C1072 1.256 . S
O1056 Tb1008 2.308 . S
O1056 C1071 1.266 . S
O1057 Tb1019 2.393 . S
O1057 C1071 1.248 . S
O1058 Tb1019 2.465 . S
O1058 C1083 1.264 . S
O1059 Tb1019 2.387 . S
O1059 C1075 1.264 1_545 S
O1060 Tb1008 2.349 . S
O1060 C1075 1.243 1_545 S
O1061 Tb1019 2.428 . S
O1061 C1083 1.256 . S
O1062 Tb1019 2.308 . S
O1062 C1082 1.266 . S
O1063 Tb1008 2.393 . S
O1063 C1082 1.248 . S
C1064 O1053 1.264 . S
C1064 O1054 1.243 . S
C1065 C1068 1.399 . S
C1065 C1070 1.383 . S
C1065 C1072 1.496 . S
C1066 C1067 1.399 . S
C1066 C1070 1.389 . S
C1067 C1066 1.399 . S
C1067 C1069 1.380 . S
C1067 H1084 0.929 . S
C1068 C1065 1.399 . S
C1068 C1069 1.392 . S
C1068 H1085 0.929 . S
C1069 C1067 1.380 . S
C1069 C1068 1.392 . S
C1069 H1086 0.929 . S
C1070 C1065 1.383 . S
C1070 C1066 1.389 . S
C1070 H1087 0.931 . S
C1071 O1056 1.266 . S
C1071 O1057 1.248 . S
C1072 Tb1008 2.802 . S
C1072 O1052 1.264 . S
C1072 O1055 1.256 . S
C1072 C1065 1.496 . S
C1073 C1040 1.448 . S
C1073 H1050 0.930 . S
C1073 C1074 1.328 . S
C1074 C1045 1.427 . S
C1074 H1051 0.929 . S
C1074 C1073 1.328 . S
C1075 O1059 1.264 1_565 S
C1075 O1060 1.243 1_565 S
C1076 C1079 1.399 . S
C1076 C1080 1.383 . S
C1076 C1083 1.496 . S
C1077 C1078 1.399 . S
C1077 C1080 1.389 . S
C1078 C1077 1.399 . S
C1078 C1081 1.380 . S
C1078 H1088 0.929 . S
C1079 C1076 1.399 . S
C1079 C1081 1.392 . S
C1079 H1089 0.929 . S
C1080 C1076 1.383 . S
C1080 C1077 1.389 . S
C1080 H1090 0.931 . S
C1081 C1078 1.380 . S
C1081 C1079 1.392 . S
C1081 H1091 0.929 . S
C1082 O1062 1.266 . S
C1082 O1063 1.248 . S
C1083 Tb1019 2.802 . S
C1083 O1058 1.264 . S
C1083 O1061 1.256 . S
C1083 C1076 1.496 . S
H1084 C1067 0.929 . S
H1085 C1068 0.929 . S
H1086 C1069 0.929 . S
H1087 C1070 0.931 . S
H1088 C1078 0.929 . S
H1089 C1079 0.929 . S
H1090 C1080 0.931 . S
H1091 C1081 0.929 . S
Tb1092 N1121 2.617 . S
Tb1092 N1127 2.572 . S
Tb1092 O1136 2.465 . S
Tb1092 O1137 2.387 1_455 S
Tb1092 O1139 2.428 . S
Tb1092 O1140 2.308 . S
Tb1092 O1144 2.349 . S
Tb1092 O1147 2.393 . S
Tb1092 C1156 2.802 . S
C1093 N1094 1.379 . S
C1093 C1096 1.416 . S
C1093 C1100 1.424 . S
N1094 C1093 1.379 . S
N1094 C1097 1.334 1_455 S
N1094 Tb1103 2.617 1_455 S
C1095 C1097 1.390 1_455 S
C1095 C1098 1.339 . S
C1095 H1115 0.930 . S
C1096 C1093 1.416 . S
C1096 C1098 1.416 . S
C1096 C1102 1.448 . S
C1097 N1094 1.334 1_655 S
C1097 C1095 1.390 1_655 S
C1097 H1108 0.930 . S
C1098 C1095 1.339 . S
C1098 C1096 1.416 . S
C1098 H1119 0.930 . S
C1099 C1100 1.413 . S
C1099 C1101 1.427 . S
C1099 C1105 1.416 . S
C1100 C1093 1.424 . S
C1100 C1099 1.413 . S
C1100 N1104 1.361 . S
C1101 C1099 1.427 . S
C1101 C1102 1.328 . S
C1101 H1116 0.929 . S
C1102 C1096 1.448 . S
C1102 C1101 1.328 . S
C1102 H1117 0.930 . S
Tb1103 N1094 2.617 1_655 S
Tb1103 N1104 2.572 1_655 S
Tb1103 O1138 2.349 . S
Tb1103 O1141 2.393 . S
Tb1103 O1142 2.465 . S
Tb1103 O1143 2.387 1_655 S
Tb1103 O1145 2.428 . S
Tb1103 O1146 2.308 1_655 S
Tb1103 C1167 2.802 . S
N1104 C1100 1.361 . S
N1104 Tb1103 2.572 1_455 S
N1104 C1106 1.340 . S
C1105 C1099 1.416 . S
C1105 C1107 1.332 . S
C1105 H1113 0.931 . S
C1106 N1104 1.340 . S
C1106 C1107 1.407 . S
C1106 H1112 0.930 . S
C1107 C1105 1.332 . S
C1107 C1106 1.407 . S
C1107 H1109 0.929 . S
H1108 C1097 0.930 . S
H1109 C1107 0.929 . S
H1110 C1125 0.930 . S
H1111 C1132 0.950 1_655 S
H1112 C1106 0.930 . S
H1113 C1105 0.931 . S
H1114 C1128 0.930 . S
H1115 C1095 0.930 . S
H1116 C1101 0.929 . S
H1117 C1102 0.930 . S
H1118 C1123 0.930 . S
H1119 C1098 0.930 . S
H1120 C1131 0.931 1_565 S
N1121 Tb1092 2.617 . S
N1121 C1122 1.379 . S
N1121 C1125 1.334 . S
C1122 N1121 1.379 . S
C1122 C1124 1.416 . S
C1122 C1130 1.424 . S
C1123 H1118 0.930 . S
C1123 C1125 1.390 . S
C1123 C1126 1.339 . S
C1124 C1122 1.416 . S
C1124 C1126 1.416 . S
C1124 C1157 1.448 1_455 S
C1125 H1110 0.930 . S
C1125 N1121 1.334 . S
C1125 C1123 1.390 . S
C1126 C1123 1.339 . S
C1126 C1124 1.416 . S
C1126 H1133 0.930 . S
N1127 Tb1092 2.572 . S
N1127 C1128 1.340 . S
N1127 C1130 1.361 . S
C1128 H1114 0.930 . S
C1128 N1127 1.340 . S
C1128 C1132 1.399 1_545 S
C1129 C1130 1.412 . S
C1129 C1131 1.416 1_455 S
C1129 C1158 1.427 1_455 S
C1130 C1122 1.424 . S
C1130 N1127 1.361 . S
C1130 C1129 1.412 . S
C1131 H1120 0.931 1_545 S
C1131 C1129 1.416 1_655 S
C1131 C1132 1.320 1_645 S
C1132 H1111 0.950 1_455 S
C1132 C1128 1.399 1_565 S
C1132 C1131 1.320 1_465 S
H1133 C1126 0.930 . S
H1134 C1157 0.930 . S
H1135 C1158 0.929 . S
O1136 Tb1092 2.465 . S
O1136 C1156 1.264 . S
O1137 Tb1092 2.387 1_655 S
O1137 C1148 1.264 . S
O1138 Tb1103 2.349 . S
O1138 C1148 1.243 . S
O1139 Tb1092 2.428 . S
O1139 C1156 1.256 . S
O1140 Tb1092 2.308 . S
O1140 C1155 1.266 . S
O1141 Tb1103 2.393 . S
O1141 C1155 1.248 1_655 S
O1142 Tb1103 2.465 . S
O1142 C1167 1.264 . S
O1143 Tb1103 2.387 1_455 S
O1143 C1159 1.264 . S
O1144 Tb1092 2.349 . S
O1144 C1159 1.243 . S
O1145 Tb1103 2.428 . S
O1145 C1167 1.256 . S
O1146 Tb1103 2.308 1_455 S
O1146 C1166 1.266 . S
O1147 Tb1092 2.393 . S
O1147 C1166 1.248 . S
C1148 O1137 1.264 . S
C1148 O1138 1.243 . S
C1149 C1152 1.399 . S
C1149 C1154 1.383 . S
C1149 C1156 1.496 . S
C1150 C1151 1.399 . S
C1150 C1154 1.389 . S
C1151 C1150 1.399 . S
C1151 C1153 1.380 . S
C1151 H1168 0.929 . S
C1152 C1149 1.399 . S
C1152 C1153 1.392 . S
C1152 H1169 0.929 . S
C1153 C1151 1.380 . S
C1153 C1152 1.392 . S
C1153 H1170 0.929 . S
C1154 C1149 1.383 . S
C1154 C1150 1.389 . S
C1154 H1171 0.931 . S
C1155 O1140 1.266 . S
C1155 O1141 1.248 1_455 S
C1156 Tb1092 2.802 . S
C1156 O1136 1.264 . S
C1156 O1139 1.256 . S
C1156 C1149 1.496 . S
C1157 C1124 1.448 1_655 S
C1157 H1134 0.930 . S
C1157 C1158 1.328 . S
C1158 C1129 1.427 1_655 S
C1158 H1135 0.929 . S
C1158 C1157 1.328 . S
C1159 O1143 1.264 . S
C1159 O1144 1.243 . S
C1160 C1163 1.399 . S
C1160 C1164 1.383 . S
C1160 C1167 1.496 . S
C1161 C1162 1.399 . S
C1161 C1164 1.389 . S
C1162 C1161 1.399 . S
C1162 C1165 1.380 . S
C1162 H1172 0.929 . S
C1163 C1160 1.399 . S
C1163 C1165 1.392 . S
C1163 H1173 0.929 . S
C1164 C1160 1.383 . S
C1164 C1161 1.389 . S
C1164 H1174 0.931 . S
C1165 C1162 1.380 . S
C1165 C1163 1.392 . S
C1165 H1175 0.929 . S
C1166 O1146 1.266 . S
C1166 O1147 1.248 . S
C1167 Tb1103 2.802 . S
C1167 O1142 1.264 . S
C1167 O1145 1.256 . S
C1167 C1160 1.496 . S
H1168 C1151 0.929 . S
H1169 C1152 0.929 . S
H1170 C1153 0.929 . S
H1171 C1154 0.931 . S
H1172 C1162 0.929 . S
H1173 C1163 0.929 . S
H1174 C1164 0.931 . S
H1175 C1165 0.929 . S
Tb1176 N1205 2.617 . S
Tb1176 N1211 2.572 . S
Tb1176 O1220 2.465 . S
Tb1176 O1221 2.387 . S
Tb1176 O1223 2.428 . S
Tb1176 O1224 2.308 . S
Tb1176 O1228 2.349 . S
Tb1176 O1231 2.393 . S
Tb1176 C1240 2.802 . S
C1177 N1178 1.379 . S
C1177 C1180 1.416 . S
C1177 C1184 1.424 . S
N1178 C1177 1.379 . S
N1178 C1181 1.334 . S
N1178 Tb1187 2.617 . S
C1179 C1181 1.390 . S
C1179 C1182 1.339 . S
C1179 H1199 0.930 . S
C1180 C1177 1.416 . S
C1180 C1182 1.416 . S
C1180 C1186 1.448 . S
C1181 N1178 1.334 . S
C1181 C1179 1.390 . S
C1181 H1192 0.930 . S
C1182 C1179 1.339 . S
C1182 C1180 1.416 . S
C1182 H1203 0.930 . S
C1183 C1184 1.413 . S
C1183 C1185 1.427 . S
C1183 C1189 1.416 . S
C1184 C1177 1.424 . S
C1184 C1183 1.413 . S
C1184 N1188 1.361 . S
C1185 C1183 1.427 . S
C1185 C1186 1.328 . S
C1185 H1200 0.911 1_545 S
C1186 C1180 1.448 . S
C1186 C1185 1.328 . S
C1186 H1201 0.930 . S
Tb1187 N1178 2.617 . S
Tb1187 N1188 2.572 . S
Tb1187 O1222 2.349 . S
Tb1187 O1225 2.393 . S
Tb1187 O1226 2.465 . S
Tb1187 O1227 2.387 . S
Tb1187 O1229 2.428 . S
Tb1187 O1230 2.308 . S
Tb1187 C1251 2.802 . S
N1188 C1184 1.361 . S
N1188 Tb1187 2.572 . S
N1188 C1190 1.340 . S
C1189 C1183 1.416 . S
C1189 C1191 1.332 . S
C1189 H1197 0.931 . S
C1190 N1188 1.340 . S
C1190 C1191 1.407 . S
C1190 H1196 0.930 . S
C1191 C1189 1.332 . S
C1191 C1190 1.407 . S
C1191 H1193 0.929 . S
H1192 C1181 0.930 . S
H1193 C1191 0.929 . S
H1194 C1209 0.930 . S
H1195 C1216 0.929 . S
H1196 C1190 0.930 . S
H1197 C1189 0.931 . S
H1198 C1212 0.930 . S
H1199 C1179 0.930 . S
H1200 C1185 0.911 1_565 S
H1201 C1186 0.930 . S
H1202 C1207 0.930 . S
H1203 C1182 0.930 . S
H1204 C1215 0.931 . S
N1205 Tb1176 2.617 . S
N1205 C1206 1.379 . S
N1205 C1209 1.334 . S
C1206 N1205 1.379 . S
C1206 C1208 1.416 . S
C1206 C1214 1.424 . S
C1207 H1202 0.930 . S
C1207 C1209 1.390 . S
C1207 C1210 1.339 . S
C1208 C1206 1.416 . S
C1208 C1210 1.416 . S
C1208 C1241 1.448 . S
C1209 H1194 0.930 . S
C1209 N1205 1.334 . S
C1209 C1207 1.390 . S
C1210 C1207 1.339 . S
C1210 C1208 1.416 . S
C1210 H1217 0.930 . S
N1211 Tb1176 2.572 . S
N1211 C1212 1.340 . S
N1211 C1214 1.361 . S
C1212 H1198 0.930 . S
C1212 N1211 1.340 . S
C1212 C1216 1.407 . S
C1213 C1214 1.413 . S
C1213 C1215 1.416 . S
C1213 C1242 1.427 . S
C1214 C1206 1.424 . S
C1214 N1211 1.361 . S
C1214 C1213 1.413 . S
C1215 H1204 0.931 . S
C1215 C1213 1.416 . S
C1215 C1216 1.332 . S
C1216 H1195 0.929 . S
C1216 C1212 1.407 . S
C1216 C1215 1.332 . S
H1217 C1210 0.930 . S
H1218 C1241 0.930 . S
H1219 C1242 0.929 . S
O1220 Tb1176 2.465 . S
O1220 C1240 1.264 . S
O1221 Tb1176 2.387 . S
O1221 C1232 1.264 . S
O1222 Tb1187 2.349 . S
O1222 C1232 1.243 . S
O1223 Tb1176 2.428 . S
O1223 C1240 1.256 . S
O1224 Tb1176 2.308 . S
O1224 C1239 1.266 . S
O1225 Tb1187 2.393 . S
O1225 C1239 1.248 . S
O1226 Tb1187 2.465 . S
O1226 C1251 1.264 . S
O1227 Tb1187 2.387 . S
O1227 C1243 1.264 . S
O1228 Tb1176 2.349 . S
O1228 C1243 1.243 . S
O1229 Tb1187 2.428 . S
O1229 C1251 1.256 . S
O1230 Tb1187 2.308 . S
O1230 C1250 1.266 . S
O1231 Tb1176 2.393 . S
O1231 C1250 1.248 . S
C1232 O1221 1.264 . S
C1232 O1222 1.243 . S
C1233 C1236 1.399 . S
C1233 C1238 1.383 . S
C1233 C1240 1.496 . S
C1234 C1235 1.399 . S
C1234 C1238 1.389 . S
C1235 C1234 1.399 . S
C1235 C1237 1.380 . S
C1235 H1252 0.929 . S
C1236 C1233 1.399 . S
C1236 C1237 1.392 . S
C1236 H1253 0.929 . S
C1237 C1235 1.380 . S
C1237 C1236 1.392 . S
C1237 H1254 0.929 . S
C1238 C1233 1.383 . S
C1238 C1234 1.389 . S
C1238 H1255 0.931 . S
C1239 O1224 1.266 . S
C1239 O1225 1.248 . S
C1240 Tb1176 2.802 . S
C1240 O1220 1.264 . S
C1240 O1223 1.256 . S
C1240 C1233 1.496 . S
C1241 C1208 1.448 . S
C1241 H1218 0.930 . S
C1241 C1242 1.328 . S
C1242 C1213 1.427 . S
C1242 H1219 0.929 . S
C1242 C1241 1.328 . S
C1243 O1227 1.264 . S
C1243 O1228 1.243 . S
C1244 C1247 1.399 . S
C1244 C1248 1.383 . S
C1244 C1251 1.496 . S
C1245 C1246 1.399 . S
C1245 C1248 1.389 . S
C1246 C1245 1.399 . S
C1246 C1249 1.380 . S
C1246 H1256 0.929 . S
C1247 C1244 1.399 . S
C1247 C1249 1.392 . S
C1247 H1257 0.929 . S
C1248 C1244 1.383 . S
C1248 C1245 1.389 . S
C1248 H1258 0.931 . S
C1249 C1246 1.380 . S
C1249 C1247 1.392 . S
C1249 H1259 0.929 . S
C1250 O1230 1.266 . S
C1250 O1231 1.248 . S
C1251 Tb1187 2.802 . S
C1251 O1226 1.264 . S
C1251 O1229 1.256 . S
C1251 C1244 1.496 . S
H1252 C1235 0.929 . S
H1253 C1236 0.929 . S
H1254 C1237 0.929 . S
H1255 C1238 0.931 . S
H1256 C1246 0.929 . S
H1257 C1247 0.929 . S
H1258 C1248 0.931 . S
H1259 C1249 0.929 . S
Tb1260 N1289 2.617 . S
Tb1260 N1295 2.572 . S
Tb1260 O1304 2.465 . S
Tb1260 O1305 2.387 . S
Tb1260 O1307 2.428 . S
Tb1260 O1308 2.308 . S
Tb1260 O1312 2.349 . S
Tb1260 O1315 2.393 . S
Tb1260 C1324 2.802 . S
C1261 N1262 1.379 . S
C1261 C1264 1.416 . S
C1261 C1268 1.424 . S
N1262 C1261 1.379 . S
N1262 C1265 1.334 . S
N1262 Tb1271 2.617 . S
C1263 C1265 1.390 . S
C1263 C1266 1.339 . S
C1263 H1283 0.930 . S
C1264 C1261 1.416 . S
C1264 C1266 1.416 . S
C1264 C1270 1.448 . S
C1265 N1262 1.334 . S
C1265 C1263 1.390 . S
C1265 H1276 0.930 . S
C1266 C1263 1.339 . S
C1266 C1264 1.416 . S
C1266 H1287 0.930 . S
C1267 C1268 1.413 . S
C1267 C1269 1.427 . S
C1267 C1273 1.416 . S
C1268 C1261 1.424 . S
C1268 C1267 1.413 . S
C1268 N1272 1.361 . S
C1269 C1267 1.427 . S
C1269 C1270 1.328 . S
C1269 H1284 0.929 . S
C1270 C1264 1.448 . S
C1270 C1269 1.328 . S
C1270 H1285 0.930 . S
Tb1271 N1262 2.617 . S
Tb1271 N1272 2.572 . S
Tb1271 O1306 2.349 1_455 S
Tb1271 O1309 2.393 . S
Tb1271 O1310 2.465 1_455 S
Tb1271 O1311 2.387 . S
Tb1271 O1313 2.428 1_455 S
Tb1271 O1314 2.308 . S
Tb1271 C1335 2.802 1_455 S
N1272 C1268 1.361 . S
N1272 Tb1271 2.572 . S
N1272 C1274 1.340 . S
C1273 C1267 1.416 . S
C1273 C1275 1.332 . S
C1273 H1281 0.931 . S
C1274 N1272 1.340 . S
C1274 C1275 1.407 . S
C1274 H1280 0.930 . S
C1275 C1273 1.332 . S
C1275 C1274 1.407 . S
C1275 H1277 0.929 . S
H1276 C1265 0.930 . S
H1277 C1275 0.929 . S
H1278 C1293 0.930 . S
H1279 C1300 0.929 . S
H1280 C1274 0.930 . S
H1281 C1273 0.931 . S
H1282 C1296 0.930 . S
H1283 C1263 0.930 . S
H1284 C1269 0.929 . S
H1285 C1270 0.930 . S
H1286 C1291 0.930 . S
H1287 C1266 0.930 . S
H1288 C1299 0.931 . S
N1289 Tb1260 2.617 . S
N1289 C1290 1.379 . S
N1289 C1293 1.334 . S
C1290 N1289 1.379 . S
C1290 C1292 1.416 . S
C1290 C1298 1.424 . S
C1291 H1286 0.930 . S
C1291 C1293 1.390 . S
C1291 C1294 1.339 . S
C1292 C1290 1.416 . S
C1292 C1294 1.416 . S
C1292 C1325 1.448 . S
C1293 H1278 0.930 . S
C1293 N1289 1.334 . S
C1293 C1291 1.390 . S
C1294 C1291 1.339 . S
C1294 C1292 1.416 . S
C1294 H1301 0.930 . S
N1295 Tb1260 2.572 . S
N1295 C1296 1.340 . S
N1295 C1298 1.361 . S
C1296 H1282 0.930 . S
C1296 N1295 1.340 . S
C1296 C1300 1.407 . S
C1297 C1298 1.413 . S
C1297 C1299 1.416 . S
C1297 C1326 1.427 . S
C1298 C1290 1.424 . S
C1298 N1295 1.361 . S
C1298 C1297 1.413 . S
C1299 H1288 0.931 . S
C1299 C1297 1.416 . S
C1299 C1300 1.332 . S
C1300 H1279 0.929 . S
C1300 C1296 1.407 . S
C1300 C1299 1.332 . S
H1301 C1294 0.930 . S
H1302 C1325 0.930 . S
H1303 C1326 0.929 1_655 S
O1304 Tb1260 2.465 . S
O1304 C1324 1.264 . S
O1305 Tb1260 2.387 . S
O1305 C1316 1.264 1_455 S
O1306 Tb1271 2.349 1_655 S
O1306 C1316 1.243 . S
O1307 Tb1260 2.428 . S
O1307 C1324 1.256 . S
O1308 Tb1260 2.308 . S
O1308 C1323 1.266 . S
O1309 Tb1271 2.393 . S
O1309 C1323 1.248 . S
O1310 Tb1271 2.465 1_655 S
O1310 C1335 1.264 . S
O1311 Tb1271 2.387 . S
O1311 C1327 1.264 . S
O1312 Tb1260 2.349 . S
O1312 C1327 1.243 . S
O1313 Tb1271 2.428 1_655 S
O1313 C1335 1.256 . S
O1314 Tb1271 2.308 . S
O1314 C1334 1.266 . S
O1315 Tb1260 2.393 . S
O1315 C1334 1.248 . S
C1316 O1305 1.264 1_655 S
C1316 O1306 1.243 . S
C1317 C1320 1.399 . S
C1317 C1322 1.383 . S
C1317 C1324 1.496 . S
C1318 C1319 1.399 . S
C1318 C1322 1.389 . S
C1319 C1318 1.399 . S
C1319 C1321 1.380 . S
C1319 H1336 0.929 . S
C1320 C1317 1.399 . S
C1320 C1321 1.392 . S
C1320 H1337 0.929 . S
C1321 C1319 1.380 . S
C1321 C1320 1.392 . S
C1321 H1338 0.929 . S
C1322 C1317 1.383 . S
C1322 C1318 1.389 . S
C1322 H1339 0.931 . S
C1323 O1308 1.266 . S
C1323 O1309 1.248 . S
C1324 Tb1260 2.802 . S
C1324 O1304 1.264 . S
C1324 O1307 1.256 . S
C1324 C1317 1.496 . S
C1325 C1292 1.448 . S
C1325 H1302 0.930 . S
C1325 C1326 1.328 . S
C1326 C1297 1.427 . S
C1326 H1303 0.929 1_455 S
C1326 C1325 1.328 . S
C1327 O1311 1.264 . S
C1327 O1312 1.243 . S
C1328 C1331 1.399 . S
C1328 C1332 1.383 . S
C1328 C1335 1.496 . S
C1329 C1330 1.399 . S
C1329 C1332 1.389 . S
C1330 C1329 1.399 . S
C1330 C1333 1.380 . S
C1330 H1340 0.929 . S
C1331 C1328 1.399 . S
C1331 C1333 1.392 . S
C1331 H1341 0.929 . S
C1332 C1328 1.383 . S
C1332 C1329 1.389 . S
C1332 H1342 0.931 . S
C1333 C1330 1.380 . S
C1333 C1331 1.392 . S
C1333 H1343 0.929 . S
C1334 O1314 1.266 . S
C1334 O1315 1.248 . S
C1335 Tb1271 2.802 1_655 S
C1335 O1310 1.264 . S
C1335 O1313 1.256 . S
C1335 C1328 1.496 . S
H1336 C1319 0.929 . S
H1337 C1320 0.929 . S
H1338 C1321 0.929 . S
H1339 C1322 0.931 . S
H1340 C1330 0.929 . S
H1341 C1331 0.929 . S
H1342 C1332 0.931 . S
H1343 C1333 0.929 . S
H1344 C1352 0.950 . S
H1345 C1357 0.950 1_655 S
H1346 C1354 0.950 . S
H1347 C1356 0.950 1_655 S
H1348 C1358 0.950 1_655 S
H1349 C1360 0.950 1_655 S
H1350 C1362 0.950 . S
H1351 C1363 0.950 . S
C1352 H1344 0.950 . S
C1352 C1353 1.386 . S
C1352 C1354 1.391 . S
C1353 C1352 1.386 . S
C1353 C1357 1.393 . S
C1354 H1346 0.950 . S
C1354 C1352 1.391 . S
C1354 C1355 1.400 . S
C1355 C1354 1.400 . S
C1355 C1356 1.398 . S
C1355 C1361 1.491 . S
C1356 H1347 0.950 1_455 S
C1356 C1355 1.398 . S
C1356 C1357 1.391 . S
C1357 H1345 0.950 1_455 S
C1357 C1353 1.393 . S
C1357 C1356 1.391 . S
C1358 H1348 0.950 1_455 S
C1358 C1359 1.386 . S
C1358 C1360 1.391 . S
C1359 C1358 1.386 . S
C1359 C1363 1.393 . S
C1360 H1349 0.950 1_455 S
C1360 C1358 1.391 . S
C1360 C1361 1.400 . S
C1361 C1355 1.491 . S
C1361 C1360 1.400 . S
C1361 C1362 1.398 . S
C1362 H1350 0.950 . S
C1362 C1361 1.398 . S
C1362 C1363 1.391 . S
C1363 H1351 0.950 . S
C1363 C1359 1.393 . S
C1363 C1362 1.391 . S
H1364 C1372 0.950 1_545 S
H1365 C1377 0.950 . S
H1366 C1374 0.950 1_545 S
H1367 C1376 0.950 . S
H1368 C1378 0.950 . S
H1369 C1380 0.950 . S
H1370 C1382 0.950 . S
H1371 C1383 0.950 . S
C1372 H1364 0.950 1_565 S
C1372 C1373 1.386 . S
C1372 C1374 1.391 . S
C1373 C1372 1.386 . S
C1373 C1377 1.393 . S
C1374 H1366 0.950 1_565 S
C1374 C1372 1.391 . S
C1374 C1375 1.400 . S
C1375 C1374 1.400 . S
C1375 C1376 1.398 . S
C1375 C1381 1.491 . S
C1376 H1367 0.950 . S
C1376 C1375 1.398 . S
C1376 C1377 1.391 . S
C1377 H1365 0.950 . S
C1377 C1373 1.393 . S
C1377 C1376 1.391 . S
C1378 H1368 0.950 . S
C1378 C1379 1.386 . S
C1378 C1380 1.391 . S
C1379 C1378 1.386 . S
C1379 C1383 1.393 1_565 S
C1380 H1369 0.950 . S
C1380 C1378 1.391 . S
C1380 C1381 1.400 . S
C1381 C1375 1.491 . S
C1381 C1380 1.400 . S
C1381 C1382 1.398 1_565 S
C1382 H1370 0.950 . S
C1382 C1381 1.398 1_545 S
C1382 C1383 1.391 . S
C1383 H1371 0.950 . S
C1383 C1379 1.393 1_545 S
C1383 C1382 1.391 . S
H1384 C1392 0.950 . S
H1385 C1397 0.950 . S
H1386 C1394 0.950 . S
H1387 C1396 0.950 . S
H1388 C1398 0.950 . S
H1389 C1400 0.950 . S
H1390 C1402 0.950 . S
H1391 C1403 0.950 . S
C1392 H1384 0.950 . S
C1392 C1393 1.386 . S
C1392 C1394 1.391 . S
C1393 C1392 1.386 . S
C1393 C1397 1.393 . S
C1394 H1386 0.950 . S
C1394 C1392 1.391 . S
C1394 C1395 1.400 . S
C1395 C1394 1.400 . S
C1395 C1396 1.398 . S
C1395 C1401 1.491 . S
C1396 H1387 0.950 . S
C1396 C1395 1.398 . S
C1396 C1397 1.391 . S
C1397 H1385 0.950 . S
C1397 C1393 1.393 . S
C1397 C1396 1.391 . S
C1398 H1388 0.950 . S
C1398 C1399 1.386 . S
C1398 C1400 1.391 . S
C1399 C1398 1.386 . S
C1399 C1403 1.393 . S
C1400 H1389 0.950 . S
C1400 C1398 1.391 . S
C1400 C1401 1.400 . S
C1401 C1395 1.491 . S
C1401 C1400 1.400 . S
C1401 C1402 1.398 . S
C1402 H1390 0.950 . S
C1402 C1401 1.398 . S
C1402 C1403 1.391 . S
C1403 H1391 0.950 . S
C1403 C1399 1.393 . S
C1403 C1402 1.391 . S
H1404 C1412 0.950 . S
H1405 C1417 0.950 . S
H1406 C1414 0.950 . S
H1407 C1416 0.950 . S
H1408 C1418 0.950 . S
H1409 C1420 0.950 . S
H1410 C1422 0.950 . S
H1411 C1423 0.950 . S
C1412 H1404 0.950 . S
C1412 C1413 1.386 . S
C1412 C1414 1.391 1_655 S
C1413 C1412 1.386 . S
C1413 C1417 1.393 . S
C1414 H1406 0.950 . S
C1414 C1412 1.391 1_455 S
C1414 C1415 1.400 . S
C1415 C1414 1.400 . S
C1415 C1416 1.398 . S
C1415 C1421 1.491 . S
C1416 H1407 0.950 . S
C1416 C1415 1.398 . S
C1416 C1417 1.391 1_455 S
C1417 H1405 0.950 . S
C1417 C1413 1.393 . S
C1417 C1416 1.391 1_655 S
C1418 H1408 0.950 . S
C1418 C1419 1.386 . S
C1418 C1420 1.391 . S
C1419 C1418 1.386 . S
C1419 C1423 1.393 . S
C1420 H1409 0.950 . S
C1420 C1418 1.391 . S
C1420 C1421 1.400 . S
C1421 C1415 1.491 . S
C1421 C1420 1.400 . S
C1421 C1422 1.398 . S
C1422 H1410 0.950 . S
C1422 C1421 1.398 . S
C1422 C1423 1.391 . S
C1423 H1411 0.950 . S
C1423 C1419 1.393 . S
C1423 C1422 1.391 . S
H1424 C1432 0.950 . S
H1425 C1437 0.950 1_655 S
H1426 C1434 0.950 . S
H1427 C1436 0.950 1_655 S
H1428 C1438 0.950 1_655 S
H1429 C1440 0.950 1_655 S
H1430 C1442 0.950 . S
H1431 C1443 0.950 . S
C1432 H1424 0.950 . S
C1432 C1433 1.386 . S
C1432 C1434 1.391 . S
C1433 C1432 1.386 . S
C1433 C1437 1.393 . S
C1434 H1426 0.950 . S
C1434 C1432 1.391 . S
C1434 C1435 1.400 . S
C1435 C1434 1.400 . S
C1435 C1436 1.398 . S
C1435 C1441 1.491 . S
C1436 H1427 0.950 1_455 S
C1436 C1435 1.398 . S
C1436 C1437 1.391 . S
C1437 H1425 0.950 1_455 S
C1437 C1433 1.393 . S
C1437 C1436 1.391 . S
C1438 H1428 0.950 1_455 S
C1438 C1439 1.386 . S
C1438 C1440 1.391 . S
C1439 C1438 1.386 . S
C1439 C1443 1.393 . S
C1440 H1429 0.950 1_455 S
C1440 C1438 1.391 . S
C1440 C1441 1.400 . S
C1441 C1435 1.491 . S
C1441 C1440 1.400 . S
C1441 C1442 1.398 . S
C1442 H1430 0.950 . S
C1442 C1441 1.398 . S
C1442 C1443 1.391 . S
C1443 H1431 0.950 . S
C1443 C1439 1.393 . S
C1443 C1442 1.391 . S
H1444 C1452 0.950 . S
H1445 C1457 0.950 . S
H1446 C1454 0.950 . S
H1447 C1456 0.950 . S
H1448 C1458 0.950 . S
H1449 C1460 0.959 . S
H1450 C1462 0.950 . S
H1451 C1463 0.950 . S
C1452 H1444 0.950 . S
C1452 C1453 1.386 . S
C1452 C1454 1.391 . S
C1453 C1452 1.386 . S
C1453 C1457 1.393 . S
C1454 H1446 0.950 . S
C1454 C1452 1.391 . S
C1454 C1455 1.400 . S
C1455 C1454 1.400 . S
C1455 C1456 1.398 . S
C1455 C1461 1.491 . S
C1456 H1447 0.950 . S
C1456 C1455 1.398 . S
C1456 C1457 1.391 . S
C1457 H1445 0.950 . S
C1457 C1453 1.393 . S
C1457 C1456 1.391 . S
C1458 H1448 0.950 . S
C1458 C1459 1.386 . S
C1458 C1460 1.391 . S
C1459 C1458 1.386 . S
C1459 C1463 1.393 . S
C1460 H1449 0.959 . S
C1460 C1458 1.391 . S
C1460 C1461 1.400 1_655 S
C1461 C1455 1.491 . S
C1461 C1460 1.400 1_455 S
C1461 C1462 1.398 1_455 S
C1462 H1450 0.950 . S
C1462 C1461 1.398 1_655 S
C1462 C1463 1.391 . S
C1463 H1451 0.950 . S
C1463 C1459 1.393 . S
C1463 C1462 1.391 . S
H1464 C1472 0.950 . S
H1465 C1477 0.950 . S
H1466 C1474 0.950 . S
H1467 C1476 0.950 . S
H1468 C1478 0.950 . S
H1469 C1480 0.950 . S
H1470 C1482 0.950 . S
H1471 C1483 0.941 1_545 S
C1472 H1464 0.950 . S
C1472 C1473 1.386 . S
C1472 C1474 1.391 . S
C1473 C1472 1.386 . S
C1473 C1477 1.393 . S
C1474 H1466 0.950 . S
C1474 C1472 1.391 . S
C1474 C1475 1.400 . S
C1475 C1474 1.400 . S
C1475 C1476 1.398 . S
C1475 C1481 1.491 . S
C1476 H1467 0.950 . S
C1476 C1475 1.398 . S
C1476 C1477 1.391 . S
C1477 H1465 0.950 . S
C1477 C1473 1.393 . S
C1477 C1476 1.391 . S
C1478 H1468 0.950 . S
C1478 C1479 1.386 . S
C1478 C1480 1.391 1_545 S
C1479 C1478 1.386 . S
C1479 C1483 1.381 1_545 S
C1480 H1469 0.950 . S
C1480 C1478 1.391 1_565 S
C1480 C1481 1.400 . S
C1481 C1475 1.491 . S
C1481 C1480 1.400 . S
C1481 C1482 1.398 . S
C1482 H1470 0.950 . S
C1482 C1481 1.398 . S
C1482 C1483 1.411 . S
C1483 H1471 0.941 1_565 S
C1483 C1479 1.381 1_565 S
C1483 C1482 1.411 . S
H1484 C1492 0.950 . S
H1485 C1497 0.950 . S
H1486 C1494 0.950 . S
H1487 C1496 0.950 . S
H1488 C1498 0.950 . S
H1489 C1500 0.950 . S
H1490 C1502 0.950 . S
H1491 C1503 0.950 . S
C1492 H1484 0.950 . S
C1492 C1493 1.386 . S
C1492 C1494 1.391 . S
C1493 C1492 1.386 . S
C1493 C1497 1.393 . S
C1494 H1486 0.950 . S
C1494 C1492 1.391 . S
C1494 C1495 1.400 . S
C1495 C1494 1.400 . S
C1495 C1496 1.398 . S
C1495 C1501 1.491 . S
C1496 H1487 0.950 . S
C1496 C1495 1.398 . S
C1496 C1497 1.391 . S
C1497 H1485 0.950 . S
C1497 C1493 1.393 . S
C1497 C1496 1.391 . S
C1498 H1488 0.950 . S
C1498 C1499 1.386 . S
C1498 C1500 1.391 . S
C1499 C1498 1.386 . S
C1499 C1503 1.393 . S
C1500 H1489 0.950 . S
C1500 C1498 1.391 . S
C1500 C1501 1.400 . S
C1501 C1495 1.491 . S
C1501 C1500 1.400 . S
C1501 C1502 1.398 . S
C1502 H1490 0.950 . S
C1502 C1501 1.398 . S
C1502 C1503 1.391 . S
C1503 H1491 0.950 . S
C1503 C1499 1.393 . S
C1503 C1502 1.391 . S
H1504 C1512 0.950 . S
H1505 C1517 0.950 1_655 S
H1506 C1514 0.950 . S
H1507 C1516 0.950 . S
H1508 C1518 0.950 . S
H1509 C1520 0.950 . S
H1510 C1522 0.950 . S
H1511 C1523 0.950 . S
C1512 H1504 0.950 . S
C1512 C1513 1.386 . S
C1512 C1514 1.391 . S
C1513 C1512 1.386 . S
C1513 C1517 1.393 . S
C1514 H1506 0.950 . S
C1514 C1512 1.391 . S
C1514 C1515 1.400 . S
C1515 C1514 1.400 . S
C1515 C1516 1.398 . S
C1515 C1521 1.491 . S
C1516 H1507 0.950 . S
C1516 C1515 1.398 . S
C1516 C1517 1.391 . S
C1517 H1505 0.950 1_455 S
C1517 C1513 1.393 . S
C1517 C1516 1.391 . S
C1518 H1508 0.950 . S
C1518 C1519 1.386 . S
C1518 C1520 1.391 . S
C1519 C1518 1.386 . S
C1519 C1523 1.393 . S
C1520 H1509 0.950 . S
C1520 C1518 1.391 . S
C1520 C1521 1.400 . S
C1521 C1515 1.491 . S
C1521 C1520 1.400 . S
C1521 C1522 1.398 . S
C1522 H1510 0.950 . S
C1522 C1521 1.398 . S
C1522 C1523 1.391 . S
C1523 H1511 0.950 . S
C1523 C1519 1.393 . S
C1523 C1522 1.391 . S
H1524 C1532 0.950 . S
H1525 C1537 0.950 . S
H1526 C1534 0.950 . S
H1527 C1536 0.950 . S
H1528 C1538 0.950 . S
H1529 C1540 0.959 . S
H1530 C1542 0.945 1_455 S
H1531 C1543 0.950 . S
C1532 H1524 0.950 . S
C1532 C1533 1.386 . S
C1532 C1534 1.391 . S
C1533 C1532 1.386 . S
C1533 C1537 1.393 . S
C1534 H1526 0.950 . S
C1534 C1532 1.391 . S
C1534 C1535 1.400 . S
C1535 C1534 1.400 . S
C1535 C1536 1.398 . S
C1535 C1541 1.491 . S
C1536 H1527 0.950 . S
C1536 C1535 1.398 . S
C1536 C1537 1.391 . S
C1537 H1525 0.950 . S
C1537 C1533 1.393 . S
C1537 C1536 1.391 . S
C1538 H1528 0.950 . S
C1538 C1539 1.386 . S
C1538 C1540 1.372 1_655 S
C1539 C1538 1.386 . S
C1539 C1543 1.393 . S
C1540 H1529 0.959 . S
C1540 C1538 1.372 1_455 S
C1540 C1541 1.411 . S
C1541 C1535 1.491 . S
C1541 C1540 1.411 . S
C1541 C1542 1.393 1_455 S
C1542 H1530 0.945 1_655 S
C1542 C1541 1.393 1_655 S
C1542 C1543 1.402 . S
C1543 H1531 0.950 . S
C1543 C1539 1.393 . S
C1543 C1542 1.402 . S
H1544 C1552 0.950 . S
H1545 C1557 0.950 . S
H1546 C1554 0.950 . S
H1547 C1556 0.950 . S
H1548 C1558 0.950 . S
H1549 C1560 0.950 . S
H1550 C1562 0.950 . S
H1551 C1563 0.950 . S
C1552 H1544 0.950 . S
C1552 C1553 1.386 . S
C1552 C1554 1.391 . S
C1553 C1552 1.386 . S
C1553 C1557 1.393 . S
C1554 H1546 0.950 . S
C1554 C1552 1.391 . S
C1554 C1555 1.400 . S
C1555 C1554 1.400 . S
C1555 C1556 1.398 . S
C1555 C1561 1.491 . S
C1556 H1547 0.950 . S
C1556 C1555 1.398 . S
C1556 C1557 1.391 . S
C1557 H1545 0.950 . S
C1557 C1553 1.393 . S
C1557 C1556 1.391 . S
C1558 H1548 0.950 . S
C1558 C1559 1.386 . S
C1558 C1560 1.391 . S
C1559 C1558 1.386 . S
C1559 C1563 1.393 . S
C1560 H1549 0.950 . S
C1560 C1558 1.391 . S
C1560 C1561 1.400 . S
C1561 C1555 1.491 . S
C1561 C1560 1.400 . S
C1561 C1562 1.398 . S
C1562 H1550 0.950 . S
C1562 C1561 1.398 . S
C1562 C1563 1.391 . S
C1563 H1551 0.950 . S
C1563 C1559 1.393 . S
C1563 C1562 1.391 . S
H1564 C1572 0.950 . S
H1565 C1577 0.950 . S
H1566 C1574 0.950 . S
H1567 C1576 0.950 . S
H1568 C1578 0.950 . S
H1569 C1580 0.950 . S
H1570 C1582 0.950 . S
H1571 C1583 0.950 . S
C1572 H1564 0.950 . S
C1572 C1573 1.386 . S
C1572 C1574 1.391 . S
C1573 C1572 1.386 . S
C1573 C1577 1.393 . S
C1574 H1566 0.950 . S
C1574 C1572 1.391 . S
C1574 C1575 1.400 . S
C1575 C1574 1.400 . S
C1575 C1576 1.398 . S
C1575 C1581 1.491 . S
C1576 H1567 0.950 . S
C1576 C1575 1.398 . S
C1576 C1577 1.391 . S
C1577 H1565 0.950 . S
C1577 C1573 1.393 . S
C1577 C1576 1.391 . S
C1578 H1568 0.950 . S
C1578 C1579 1.386 . S
C1578 C1580 1.391 . S
C1579 C1578 1.386 . S
C1579 C1583 1.393 . S
C1580 H1569 0.950 . S
C1580 C1578 1.391 . S
C1580 C1581 1.400 . S
C1581 C1575 1.491 . S
C1581 C1580 1.400 . S
C1581 C1582 1.398 . S
C1582 H1570 0.950 . S
C1582 C1581 1.398 . S
C1582 C1583 1.391 . S
C1583 H1571 0.950 . S
C1583 C1579 1.393 . S
C1583 C1582 1.391 . S
H1584 C1592 0.950 . S
H1585 C1597 0.967 . S
H1586 C1594 0.950 . S
H1587 C1596 0.950 1_655 S
H1588 C1598 0.950 1_655 S
H1589 C1600 0.950 1_655 S
H1590 C1602 0.950 . S
H1591 C1603 0.950 . S
C1592 H1584 0.950 . S
C1592 C1593 1.386 . S
C1592 C1594 1.391 . S
C1593 C1592 1.386 . S
C1593 C1597 1.373 1_455 S
C1594 H1586 0.950 . S
C1594 C1592 1.391 . S
C1594 C1595 1.400 . S
C1595 C1594 1.400 . S
C1595 C1596 1.398 . S
C1595 C1601 1.491 . S
C1596 H1587 0.950 1_455 S
C1596 C1595 1.398 . S
C1596 C1597 1.393 1_455 S
C1597 H1585 0.967 . S
C1597 C1593 1.373 1_655 S
C1597 C1596 1.393 1_655 S
C1598 H1588 0.950 1_455 S
C1598 C1599 1.386 . S
C1598 C1600 1.391 1_545 S
C1599 C1598 1.386 . S
C1599 C1603 1.393 . S
C1600 H1589 0.950 1_455 S
C1600 C1598 1.391 1_565 S
C1600 C1601 1.400 . S
C1601 C1595 1.491 . S
C1601 C1600 1.400 . S
C1601 C1602 1.398 . S
C1602 H1590 0.950 . S
C1602 C1601 1.398 . S
C1602 C1603 1.391 1_565 S
C1603 H1591 0.950 . S
C1603 C1599 1.393 . S
C1603 C1602 1.391 1_545 S
H1604 C1612 0.950 . S
H1605 C1617 0.950 . S
H1606 C1614 0.950 . S
H1607 C1616 0.950 . S
H1608 C1618 0.950 . S
H1609 C1620 0.950 . S
H1610 C1622 0.950 . S
H1611 C1623 0.950 . S
C1612 H1604 0.950 . S
C1612 C1613 1.386 . S
C1612 C1614 1.391 . S
C1613 C1612 1.386 . S
C1613 C1617 1.393 . S
C1614 H1606 0.950 . S
C1614 C1612 1.391 . S
C1614 C1615 1.400 . S
C1615 C1614 1.400 . S
C1615 C1616 1.398 . S
C1615 C1621 1.491 . S
C1616 H1607 0.950 . S
C1616 C1615 1.398 . S
C1616 C1617 1.391 . S
C1617 H1605 0.950 . S
C1617 C1613 1.393 . S
C1617 C1616 1.391 . S
C1618 H1608 0.950 . S
C1618 C1619 1.386 . S
C1618 C1620 1.391 . S
C1619 C1618 1.386 . S
C1619 C1623 1.393 . S
C1620 H1609 0.950 . S
C1620 C1618 1.391 . S
C1620 C1621 1.400 . S
C1621 C1615 1.491 . S
C1621 C1620 1.400 . S
C1621 C1622 1.398 . S
C1622 H1610 0.950 . S
C1622 C1621 1.398 . S
C1622 C1623 1.391 . S
C1623 H1611 0.950 . S
C1623 C1619 1.393 . S
C1623 C1622 1.391 . S
H1624 C1632 0.950 . S
H1625 C1637 0.950 . S
H1626 C1634 0.950 . S
H1627 C1636 0.950 . S
H1628 C1638 0.950 . S
H1629 C1640 0.950 . S
H1630 C1642 0.950 . S
H1631 C1643 0.950 . S
C1632 H1624 0.950 . S
C1632 C1633 1.386 . S
C1632 C1634 1.391 . S
C1633 C1632 1.386 . S
C1633 C1637 1.393 . S
C1634 H1626 0.950 . S
C1634 C1632 1.391 . S
C1634 C1635 1.400 . S
C1635 C1634 1.400 . S
C1635 C1636 1.398 . S
C1635 C1641 1.491 . S
C1636 H1627 0.950 . S
C1636 C1635 1.398 . S
C1636 C1637 1.391 . S
C1637 H1625 0.950 . S
C1637 C1633 1.393 . S
C1637 C1636 1.391 . S
C1638 H1628 0.950 . S
C1638 C1639 1.386 . S
C1638 C1640 1.391 . S
C1639 C1638 1.386 . S
C1639 C1643 1.393 . S
C1640 H1629 0.950 . S
C1640 C1638 1.391 . S
C1640 C1641 1.400 . S
C1641 C1635 1.491 . S
C1641 C1640 1.400 . S
C1641 C1642 1.398 . S
C1642 H1630 0.950 . S
C1642 C1641 1.398 . S
C1642 C1643 1.391 . S
C1643 H1631 0.950 . S
C1643 C1639 1.393 . S
C1643 C1642 1.391 . S
H1644 C1652 0.950 . S
H1645 C1657 0.950 . S
H1646 C1654 0.950 . S
H1647 C1656 0.950 . S
H1648 C1658 0.950 . S
H1649 C1660 0.950 . S
H1650 C1662 0.950 . S
H1651 C1663 0.950 . S
C1652 H1644 0.950 . S
C1652 C1653 1.386 . S
C1652 C1654 1.391 . S
C1653 C1652 1.386 . S
C1653 C1657 1.393 . S
C1654 H1646 0.950 . S
C1654 C1652 1.391 . S
C1654 C1655 1.400 . S
C1655 C1654 1.400 . S
C1655 C1656 1.398 . S
C1655 C1661 1.491 . S
C1656 H1647 0.950 . S
C1656 C1655 1.398 . S
C1656 C1657 1.391 . S
C1657 H1645 0.950 . S
C1657 C1653 1.393 . S
C1657 C1656 1.391 . S
C1658 H1648 0.950 . S
C1658 C1659 1.386 . S
C1658 C1660 1.391 . S
C1659 C1658 1.386 . S
C1659 C1663 1.393 . S
C1660 H1649 0.950 . S
C1660 C1658 1.391 . S
C1660 C1661 1.400 1_655 S
C1661 C1655 1.491 . S
C1661 C1660 1.400 1_455 S
C1661 C1662 1.398 1_455 S
C1662 H1650 0.950 . S
C1662 C1661 1.398 1_655 S
C1662 C1663 1.391 . S
C1663 H1651 0.950 . S
C1663 C1659 1.393 . S
C1663 C1662 1.391 . S
H1664 C1672 0.950 . S
H1665 C1677 0.950 . S
H1666 C1674 0.950 . S
H1667 C1676 0.950 . S
H1668 C1678 0.950 . S
H1669 C1680 0.950 . S
H1670 C1682 0.950 . S
H1671 C1683 0.950 . S
C1672 H1664 0.950 . S
C1672 C1673 1.386 . S
C1672 C1674 1.391 . S
C1673 C1672 1.386 . S
C1673 C1677 1.393 . S
C1674 H1666 0.950 . S
C1674 C1672 1.391 . S
C1674 C1675 1.400 . S
C1675 C1674 1.400 . S
C1675 C1676 1.398 . S
C1675 C1681 1.491 . S
C1676 H1667 0.950 . S
C1676 C1675 1.398 . S
C1676 C1677 1.391 . S
C1677 H1665 0.950 . S
C1677 C1673 1.393 . S
C1677 C1676 1.391 . S
C1678 H1668 0.950 . S
C1678 C1679 1.386 . S
C1678 C1680 1.391 . S
C1679 C1678 1.386 . S
C1679 C1683 1.393 . S
C1680 H1669 0.950 . S
C1680 C1678 1.391 . S
C1680 C1681 1.400 . S
C1681 C1675 1.491 . S
C1681 C1680 1.400 . S
C1681 C1682 1.398 . S
C1682 H1670 0.950 . S
C1682 C1681 1.398 . S
C1682 C1683 1.391 . S
C1683 H1671 0.950 . S
C1683 C1679 1.393 . S
C1683 C1682 1.391 . S
H1684 C1692 0.950 . S
H1685 C1697 0.950 . S
H1686 C1694 0.950 . S
H1687 C1696 0.950 . S
H1688 C1698 0.950 . S
H1689 C1700 0.950 . S
H1690 C1702 0.950 . S
H1691 C1703 0.950 . S
C1692 H1684 0.950 . S
C1692 C1693 1.386 . S
C1692 C1694 1.391 . S
C1693 C1692 1.386 . S
C1693 C1697 1.393 . S
C1694 H1686 0.950 . S
C1694 C1692 1.391 . S
C1694 C1695 1.400 . S
C1695 C1694 1.400 . S
C1695 C1696 1.398 . S
C1695 C1701 1.491 . S
C1696 H1687 0.950 . S
C1696 C1695 1.398 . S
C1696 C1697 1.391 . S
C1697 H1685 0.950 . S
C1697 C1693 1.393 . S
C1697 C1696 1.391 . S
C1698 H1688 0.950 . S
C1698 C1699 1.386 . S
C1698 C1700 1.391 . S
C1699 C1698 1.386 . S
C1699 C1703 1.393 . S
C1700 H1689 0.950 . S
C1700 C1698 1.391 . S
C1700 C1701 1.400 . S
C1701 C1695 1.491 . S
C1701 C1700 1.400 . S
C1701 C1702 1.398 . S
C1702 H1690 0.950 . S
C1702 C1701 1.398 . S
C1702 C1703 1.391 . S
C1703 H1691 0.950 . S
C1703 C1699 1.393 . S
C1703 C1702 1.391 . S
H1704 C1712 0.950 . S
H1705 C1717 0.950 . S
H1706 C1714 0.950 . S
H1707 C1716 0.950 . S
H1708 C1718 0.950 . S
H1709 C1720 0.950 . S
H1710 C1722 0.950 . S
H1711 C1723 0.950 . S
C1712 H1704 0.950 . S
C1712 C1713 1.386 . S
C1712 C1714 1.391 . S
C1713 C1712 1.386 . S
C1713 C1717 1.393 . S
C1714 H1706 0.950 . S
C1714 C1712 1.391 . S
C1714 C1715 1.400 . S
C1715 C1714 1.400 . S
C1715 C1716 1.398 . S
C1715 C1721 1.491 . S
C1716 H1707 0.950 . S
C1716 C1715 1.398 . S
C1716 C1717 1.391 . S
C1717 H1705 0.950 . S
C1717 C1713 1.393 . S
C1717 C1716 1.391 . S
C1718 H1708 0.950 . S
C1718 C1719 1.386 . S
C1718 C1720 1.391 . S
C1719 C1718 1.386 . S
C1719 C1723 1.393 . S
C1720 H1709 0.950 . S
C1720 C1718 1.391 . S
C1720 C1721 1.400 . S
C1721 C1715 1.491 . S
C1721 C1720 1.400 . S
C1721 C1722 1.398 . S
C1722 H1710 0.950 . S
C1722 C1721 1.398 . S
C1722 C1723 1.391 . S
C1723 H1711 0.950 . S
C1723 C1719 1.393 . S
C1723 C1722 1.391 . S
H1724 C1732 0.950 . S
H1725 C1737 0.950 . S
H1726 C1734 0.950 . S
H1727 C1736 0.950 . S
H1728 C1738 0.950 . S
H1729 C1740 0.950 . S
H1730 C1742 0.950 . S
H1731 C1743 0.950 . S
C1732 H1724 0.950 . S
C1732 C1733 1.386 . S
C1732 C1734 1.391 . S
C1733 C1732 1.386 . S
C1733 C1737 1.393 . S
C1734 H1726 0.950 . S
C1734 C1732 1.391 . S
C1734 C1735 1.400 . S
C1735 C1734 1.400 . S
C1735 C1736 1.398 . S
C1735 C1741 1.491 . S
C1736 H1727 0.950 . S
C1736 C1735 1.398 . S
C1736 C1737 1.391 . S
C1737 H1725 0.950 . S
C1737 C1733 1.393 . S
C1737 C1736 1.391 . S
C1738 H1728 0.950 . S
C1738 C1739 1.386 . S
C1738 C1740 1.391 . S
C1739 C1738 1.386 . S
C1739 C1743 1.393 . S
C1740 H1729 0.950 . S
C1740 C1738 1.391 . S
C1740 C1741 1.400 . S
C1741 C1735 1.491 . S
C1741 C1740 1.400 . S
C1741 C1742 1.398 . S
C1742 H1730 0.950 . S
C1742 C1741 1.398 . S
C1742 C1743 1.391 . S
C1743 H1731 0.950 . S
C1743 C1739 1.393 . S
C1743 C1742 1.391 . S
H1744 C1752 0.950 . S
H1745 C1757 0.950 . S
H1746 C1754 0.950 . S
H1747 C1756 0.950 . S
H1748 C1758 0.950 . S
H1749 C1760 0.950 . S
H1750 C1762 0.950 . S
H1751 C1763 0.950 . S
C1752 H1744 0.950 . S
C1752 C1753 1.386 . S
C1752 C1754 1.391 . S
C1753 C1752 1.386 . S
C1753 C1757 1.393 . S
C1754 H1746 0.950 . S
C1754 C1752 1.391 . S
C1754 C1755 1.400 . S
C1755 C1754 1.400 . S
C1755 C1756 1.398 . S
C1755 C1761 1.491 . S
C1756 H1747 0.950 . S
C1756 C1755 1.398 . S
C1756 C1757 1.391 . S
C1757 H1745 0.950 . S
C1757 C1753 1.393 . S
C1757 C1756 1.391 . S
C1758 H1748 0.950 . S
C1758 C1759 1.386 . S
C1758 C1760 1.391 . S
C1759 C1758 1.386 . S
C1759 C1763 1.393 . S
C1760 H1749 0.950 . S
C1760 C1758 1.391 . S
C1760 C1761 1.400 . S
C1761 C1755 1.491 . S
C1761 C1760 1.400 . S
C1761 C1762 1.398 . S
C1762 H1750 0.950 . S
C1762 C1761 1.398 . S
C1762 C1763 1.391 . S
C1763 H1751 0.950 . S
C1763 C1759 1.393 . S
C1763 C1762 1.391 . S
H1764 C1772 0.950 . S
H1765 C1777 0.950 . S
H1766 C1774 0.950 . S
H1767 C1776 0.950 . S
H1768 C1778 0.950 . S
H1769 C1780 0.950 . S
H1770 C1782 0.950 1_565 S
H1771 C1783 0.950 . S
C1772 H1764 0.950 . S
C1772 C1773 1.386 . S
C1772 C1774 1.391 . S
C1773 C1772 1.386 . S
C1773 C1777 1.393 1_565 S
C1774 H1766 0.950 . S
C1774 C1772 1.391 . S
C1774 C1775 1.400 1_565 S
C1775 C1774 1.400 1_545 S
C1775 C1776 1.398 . S
C1775 C1781 1.491 . S
C1776 H1767 0.950 . S
C1776 C1775 1.398 . S
C1776 C1777 1.391 . S
C1777 H1765 0.950 . S
C1777 C1773 1.393 1_545 S
C1777 C1776 1.391 . S
C1778 H1768 0.950 . S
C1778 C1779 1.386 . S
C1778 C1780 1.391 . S
C1779 C1778 1.386 . S
C1779 C1783 1.393 . S
C1780 H1769 0.950 . S
C1780 C1778 1.391 . S
C1780 C1781 1.400 . S
C1781 C1775 1.491 . S
C1781 C1780 1.400 . S
C1781 C1782 1.398 . S
C1782 H1770 0.950 1_545 S
C1782 C1781 1.398 . S
C1782 C1783 1.391 . S
C1783 H1771 0.950 . S
C1783 C1779 1.393 . S
C1783 C1782 1.391 . S
H1784 C1792 0.950 . S
H1785 C1797 0.950 . S
H1786 C1794 0.950 . S
H1787 C1796 0.950 . S
H1788 C1798 0.950 . S
H1789 C1800 0.950 . S
H1790 C1802 0.950 . S
H1791 C1803 0.950 . S
C1792 H1784 0.950 . S
C1792 C1793 1.386 . S
C1792 C1794 1.391 . S
C1793 C1792 1.386 . S
C1793 C1797 1.393 . S
C1794 H1786 0.950 . S
C1794 C1792 1.391 . S
C1794 C1795 1.400 . S
C1795 C1794 1.400 . S
C1795 C1796 1.398 . S
C1795 C1801 1.491 . S
C1796 H1787 0.950 . S
C1796 C1795 1.398 . S
C1796 C1797 1.391 . S
C1797 H1785 0.950 . S
C1797 C1793 1.393 . S
C1797 C1796 1.391 . S
C1798 H1788 0.950 . S
C1798 C1799 1.386 . S
C1798 C1800 1.391 . S
C1799 C1798 1.386 . S
C1799 C1803 1.393 . S
C1800 H1789 0.950 . S
C1800 C1798 1.391 . S
C1800 C1801 1.400 . S
C1801 C1795 1.491 . S
C1801 C1800 1.400 . S
C1801 C1802 1.398 . S
C1802 H1790 0.950 . S
C1802 C1801 1.398 . S
C1802 C1803 1.391 . S
C1803 H1791 0.950 . S
C1803 C1799 1.393 . S
C1803 C1802 1.391 . S
H1804 C1812 0.950 . S
H1805 C1817 0.950 . S
H1806 C1814 0.950 . S
H1807 C1816 0.950 . S
H1808 C1818 0.950 . S
H1809 C1820 0.950 . S
H1810 C1822 0.950 . S
H1811 C1823 0.950 . S
C1812 H1804 0.950 . S
C1812 C1813 1.386 . S
C1812 C1814 1.391 . S
C1813 C1812 1.386 . S
C1813 C1817 1.393 . S
C1814 H1806 0.950 . S
C1814 C1812 1.391 . S
C1814 C1815 1.400 . S
C1815 C1814 1.400 . S
C1815 C1816 1.398 . S
C1815 C1821 1.491 . S
C1816 H1807 0.950 . S
C1816 C1815 1.398 . S
C1816 C1817 1.391 . S
C1817 H1805 0.950 . S
C1817 C1813 1.393 . S
C1817 C1816 1.391 . S
C1818 H1808 0.950 . S
C1818 C1819 1.386 . S
C1818 C1820 1.391 . S
C1819 C1818 1.386 . S
C1819 C1823 1.393 . S
C1820 H1809 0.950 . S
C1820 C1818 1.391 . S
C1820 C1821 1.400 . S
C1821 C1815 1.491 . S
C1821 C1820 1.400 . S
C1821 C1822 1.398 . S
C1822 H1810 0.950 . S
C1822 C1821 1.398 . S
C1822 C1823 1.391 . S
C1823 H1811 0.950 . S
C1823 C1819 1.393 . S
C1823 C1822 1.391 . S
H1824 C1832 0.950 . S
H1825 C1837 0.950 . S
H1826 C1834 0.950 . S
H1827 C1836 0.950 . S
H1828 C1838 0.950 . S
H1829 C1840 0.950 . S
H1830 C1842 0.950 . S
H1831 C1843 0.950 . S
C1832 H1824 0.950 . S
C1832 C1833 1.386 . S
C1832 C1834 1.391 . S
C1833 C1832 1.386 . S
C1833 C1837 1.393 . S
C1834 H1826 0.950 . S
C1834 C1832 1.391 . S
C1834 C1835 1.400 . S
C1835 C1834 1.400 . S
C1835 C1836 1.398 . S
C1835 C1841 1.491 . S
C1836 H1827 0.950 . S
C1836 C1835 1.398 . S
C1836 C1837 1.391 . S
C1837 H1825 0.950 . S
C1837 C1833 1.393 . S
C1837 C1836 1.391 . S
C1838 H1828 0.950 . S
C1838 C1839 1.386 . S
C1838 C1840 1.391 . S
C1839 C1838 1.386 . S
C1839 C1843 1.393 . S
C1840 H1829 0.950 . S
C1840 C1838 1.391 . S
C1840 C1841 1.400 . S
C1841 C1835 1.491 . S
C1841 C1840 1.400 . S
C1841 C1842 1.398 . S
C1842 H1830 0.950 . S
C1842 C1841 1.398 . S
C1842 C1843 1.391 . S
C1843 H1831 0.950 . S
C1843 C1839 1.393 . S
C1843 C1842 1.391 . S
H1844 C1852 0.950 . S
H1845 C1857 0.950 . S
H1846 C1854 0.950 . S
H1847 C1856 0.950 . S
H1848 C1858 0.950 . S
H1849 C1860 0.950 . S
H1850 C1862 0.950 . S
H1851 C1863 0.950 . S
C1852 H1844 0.950 . S
C1852 C1853 1.386 . S
C1852 C1854 1.391 . S
C1853 C1852 1.386 . S
C1853 C1857 1.393 . S
C1854 H1846 0.950 . S
C1854 C1852 1.391 . S
C1854 C1855 1.400 . S
C1855 C1854 1.400 . S
C1855 C1856 1.398 . S
C1855 C1861 1.491 . S
C1856 H1847 0.950 . S
C1856 C1855 1.398 . S
C1856 C1857 1.391 . S
C1857 H1845 0.950 . S
C1857 C1853 1.393 . S
C1857 C1856 1.391 . S
C1858 H1848 0.950 . S
C1858 C1859 1.386 . S
C1858 C1860 1.391 . S
C1859 C1858 1.386 . S
C1859 C1863 1.393 . S
C1860 H1849 0.950 . S
C1860 C1858 1.391 . S
C1860 C1861 1.400 . S
C1861 C1855 1.491 . S
C1861 C1860 1.400 . S
C1861 C1862 1.398 . S
C1862 H1850 0.950 . S
C1862 C1861 1.398 . S
C1862 C1863 1.391 . S
C1863 H1851 0.950 . S
C1863 C1859 1.393 . S
C1863 C1862 1.391 . S
H1864 C1872 0.950 . S
H1865 C1877 0.950 . S
H1866 C1874 0.950 . S
H1867 C1876 0.950 . S
H1868 C1878 0.950 . S
H1869 C1880 0.950 . S
H1870 C1882 0.950 . S
H1871 C1883 0.950 . S
C1872 H1864 0.950 . S
C1872 C1873 1.386 . S
C1872 C1874 1.391 . S
C1873 C1872 1.386 . S
C1873 C1877 1.393 . S
C1874 H1866 0.950 . S
C1874 C1872 1.391 . S
C1874 C1875 1.400 . S
C1875 C1874 1.400 . S
C1875 C1876 1.398 . S
C1875 C1881 1.491 . S
C1876 H1867 0.950 . S
C1876 C1875 1.398 . S
C1876 C1877 1.391 . S
C1877 H1865 0.950 . S
C1877 C1873 1.393 . S
C1877 C1876 1.391 . S
C1878 H1868 0.950 . S
C1878 C1879 1.386 . S
C1878 C1880 1.391 . S
C1879 C1878 1.386 . S
C1879 C1883 1.393 . S
C1880 H1869 0.950 . S
C1880 C1878 1.391 . S
C1880 C1881 1.400 . S
C1881 C1875 1.491 . S
C1881 C1880 1.400 . S
C1881 C1882 1.398 . S
C1882 H1870 0.950 . S
C1882 C1881 1.398 . S
C1882 C1883 1.391 . S
C1883 H1871 0.950 . S
C1883 C1879 1.393 . S
C1883 C1882 1.391 . S
H1884 C1892 0.950 . S
H1885 C1897 0.950 . S
H1886 C1894 0.950 . S
H1887 C1896 0.950 . S
H1888 C1898 0.950 . S
H1889 C1900 0.950 1_565 S
H1890 C1902 0.950 . S
H1891 C1903 0.950 . S
C1892 H1884 0.950 . S
C1892 C1893 1.386 . S
C1892 C1894 1.391 . S
C1893 C1892 1.386 . S
C1893 C1897 1.393 . S
C1894 H1886 0.950 . S
C1894 C1892 1.391 . S
C1894 C1895 1.400 . S
C1895 C1894 1.400 . S
C1895 C1896 1.398 . S
C1895 C1901 1.491 . S
C1896 H1887 0.950 . S
C1896 C1895 1.398 . S
C1896 C1897 1.391 . S
C1897 H1885 0.950 . S
C1897 C1893 1.393 . S
C1897 C1896 1.391 . S
C1898 H1888 0.950 . S
C1898 C1899 1.386 . S
C1898 C1900 1.391 . S
C1899 C1898 1.386 . S
C1899 C1903 1.393 . S
C1900 H1889 0.950 1_545 S
C1900 C1898 1.391 . S
C1900 C1901 1.400 1_545 S
C1901 C1895 1.491 . S
C1901 C1900 1.400 1_565 S
C1901 C1902 1.398 1_565 S
C1902 H1890 0.950 . S
C1902 C1901 1.398 1_545 S
C1902 C1903 1.391 . S
C1903 H1891 0.950 . S
C1903 C1899 1.393 . S
C1903 C1902 1.391 . S
H1904 C1912 0.950 . S
H1905 C1917 0.950 . S
H1906 C1914 0.950 . S
H1907 C1916 0.950 . S
H1908 C1918 0.950 . S
H1909 C1920 0.950 . S
H1910 C1922 0.950 . S
H1911 C1923 0.950 . S
C1912 H1904 0.950 . S
C1912 C1913 1.386 . S
C1912 C1914 1.391 . S
C1913 C1912 1.386 . S
C1913 C1917 1.393 . S
C1914 H1906 0.950 . S
C1914 C1912 1.391 . S
C1914 C1915 1.400 . S
C1915 C1914 1.400 . S
C1915 C1916 1.398 . S
C1915 C1921 1.491 . S
C1916 H1907 0.950 . S
C1916 C1915 1.398 . S
C1916 C1917 1.391 . S
C1917 H1905 0.950 . S
C1917 C1913 1.393 . S
C1917 C1916 1.391 . S
C1918 H1908 0.950 . S
C1918 C1919 1.386 . S
C1918 C1920 1.391 . S
C1919 C1918 1.386 . S
C1919 C1923 1.393 . S
C1920 H1909 0.950 . S
C1920 C1918 1.391 . S
C1920 C1921 1.400 . S
C1921 C1915 1.491 . S
C1921 C1920 1.400 . S
C1921 C1922 1.398 . S
C1922 H1910 0.950 . S
C1922 C1921 1.398 . S
C1922 C1923 1.391 . S
C1923 H1911 0.950 . S
C1923 C1919 1.393 . S
C1923 C1922 1.391 . S
H1924 C1932 0.950 . S
H1925 C1937 0.950 . S
H1926 C1934 0.950 . S
H1927 C1936 0.950 . S
H1928 C1938 0.950 . S
H1929 C1940 0.950 . S
H1930 C1942 0.950 . S
H1931 C1943 0.950 . S
C1932 H1924 0.950 . S
C1932 C1933 1.386 . S
C1932 C1934 1.391 . S
C1933 C1932 1.386 . S
C1933 C1937 1.393 . S
C1934 H1926 0.950 . S
C1934 C1932 1.391 . S
C1934 C1935 1.400 . S
C1935 C1934 1.400 . S
C1935 C1936 1.398 . S
C1935 C1941 1.491 . S
C1936 H1927 0.950 . S
C1936 C1935 1.398 . S
C1936 C1937 1.391 . S
C1937 H1925 0.950 . S
C1937 C1933 1.393 . S
C1937 C1936 1.391 . S
C1938 H1928 0.950 . S
C1938 C1939 1.386 . S
C1938 C1940 1.391 . S
C1939 C1938 1.386 . S
C1939 C1943 1.393 . S
C1940 H1929 0.950 . S
C1940 C1938 1.391 . S
C1940 C1941 1.400 . S
C1941 C1935 1.491 . S
C1941 C1940 1.400 . S
C1941 C1942 1.398 . S
C1942 H1930 0.950 . S
C1942 C1941 1.398 . S
C1942 C1943 1.391 . S
C1943 H1931 0.950 . S
C1943 C1939 1.393 . S
C1943 C1942 1.391 . S
H1944 C1952 0.950 . S
H1945 C1957 0.950 . S
H1946 C1954 0.950 . S
H1947 C1956 0.950 . S
H1948 C1958 0.950 . S
H1949 C1960 0.950 . S
H1950 C1962 0.950 . S
H1951 C1963 0.950 . S
C1952 H1944 0.950 . S
C1952 C1953 1.386 . S
C1952 C1954 1.391 . S
C1953 C1952 1.386 . S
C1953 C1957 1.393 . S
C1954 H1946 0.950 . S
C1954 C1952 1.391 . S
C1954 C1955 1.400 . S
C1955 C1954 1.400 . S
C1955 C1956 1.398 . S
C1955 C1961 1.491 . S
C1956 H1947 0.950 . S
C1956 C1955 1.398 . S
C1956 C1957 1.391 . S
C1957 H1945 0.950 . S
C1957 C1953 1.393 . S
C1957 C1956 1.391 . S
C1958 H1948 0.950 . S
C1958 C1959 1.386 . S
C1958 C1960 1.391 . S
C1959 C1958 1.386 . S
C1959 C1963 1.393 . S
C1960 H1949 0.950 . S
C1960 C1958 1.391 . S
C1960 C1961 1.400 . S
C1961 C1955 1.491 . S
C1961 C1960 1.400 . S
C1961 C1962 1.398 . S
C1962 H1950 0.950 . S
C1962 C1961 1.398 . S
C1962 C1963 1.391 . S
C1963 H1951 0.950 . S
C1963 C1959 1.393 . S
C1963 C1962 1.391 . S
H1964 C1972 0.950 . S
H1965 C1977 0.950 . S
H1966 C1974 0.950 . S
H1967 C1976 0.950 . S
H1968 C1978 0.950 . S
H1969 C1980 0.950 . S
H1970 C1982 0.950 . S
H1971 C1983 0.950 . S
C1972 H1964 0.950 . S
C1972 C1973 1.386 . S
C1972 C1974 1.391 . S
C1973 C1972 1.386 . S
C1973 C1977 1.393 . S
C1974 H1966 0.950 . S
C1974 C1972 1.391 . S
C1974 C1975 1.400 . S
C1975 C1974 1.400 . S
C1975 C1976 1.398 . S
C1975 C1981 1.491 . S
C1976 H1967 0.950 . S
C1976 C1975 1.398 . S
C1976 C1977 1.391 . S
C1977 H1965 0.950 . S
C1977 C1973 1.393 . S
C1977 C1976 1.391 . S
C1978 H1968 0.950 . S
C1978 C1979 1.386 . S
C1978 C1980 1.391 . S
C1979 C1978 1.386 . S
C1979 C1983 1.393 . S
C1980 H1969 0.950 . S
C1980 C1978 1.391 . S
C1980 C1981 1.400 . S
C1981 C1975 1.491 . S
C1981 C1980 1.400 . S
C1981 C1982 1.398 . S
C1982 H1970 0.950 . S
C1982 C1981 1.398 . S
C1982 C1983 1.391 . S
C1983 H1971 0.950 . S
C1983 C1979 1.393 . S
C1983 C1982 1.391 . S
H1984 C1992 0.950 . S
H1985 C1997 0.950 . S
H1986 C1994 0.950 . S
H1987 C1996 0.950 . S
H1988 C1998 0.950 . S
H1989 C2000 0.950 . S
H1990 C2002 0.950 . S
H1991 C2003 0.950 . S
C1992 H1984 0.950 . S
C1992 C1993 1.386 . S
C1992 C1994 1.391 . S
C1993 C1992 1.386 . S
C1993 C1997 1.393 . S
C1994 H1986 0.950 . S
C1994 C1992 1.391 . S
C1994 C1995 1.400 . S
C1995 C1994 1.400 . S
C1995 C1996 1.398 . S
C1995 C2001 1.491 . S
C1996 H1987 0.950 . S
C1996 C1995 1.398 . S
C1996 C1997 1.391 . S
C1997 H1985 0.950 . S
C1997 C1993 1.393 . S
C1997 C1996 1.391 . S
C1998 H1988 0.950 . S
C1998 C1999 1.386 . S
C1998 C2000 1.391 . S
C1999 C1998 1.386 . S
C1999 C2003 1.393 . S
C2000 H1989 0.950 . S
C2000 C1998 1.391 . S
C2000 C2001 1.400 . S
C2001 C1995 1.491 . S
C2001 C2000 1.400 . S
C2001 C2002 1.398 . S
C2002 H1990 0.950 . S
C2002 C2001 1.398 . S
C2002 C2003 1.391 . S
C2003 H1991 0.950 . S
C2003 C1999 1.393 . S
C2003 C2002 1.391 . S
H2004 C2012 0.950 . S
H2005 C2017 0.950 . S
H2006 C2014 0.950 . S
H2007 C2016 0.950 . S
H2008 C2018 0.950 . S
H2009 C2020 0.950 . S
H2010 C2022 0.950 . S
H2011 C2023 0.950 . S
C2012 H2004 0.950 . S
C2012 C2013 1.386 . S
C2012 C2014 1.391 . S
C2013 C2012 1.386 . S
C2013 C2017 1.393 . S
C2014 H2006 0.950 . S
C2014 C2012 1.391 . S
C2014 C2015 1.400 . S
C2015 C2014 1.400 . S
C2015 C2016 1.398 . S
C2015 C2021 1.491 . S
C2016 H2007 0.950 . S
C2016 C2015 1.398 . S
C2016 C2017 1.391 . S
C2017 H2005 0.950 . S
C2017 C2013 1.393 . S
C2017 C2016 1.391 . S
C2018 H2008 0.950 . S
C2018 C2019 1.386 . S
C2018 C2020 1.391 . S
C2019 C2018 1.386 . S
C2019 C2023 1.393 . S
C2020 H2009 0.950 . S
C2020 C2018 1.391 . S
C2020 C2021 1.400 . S
C2021 C2015 1.491 . S
C2021 C2020 1.400 . S
C2021 C2022 1.398 . S
C2022 H2010 0.950 . S
C2022 C2021 1.398 . S
C2022 C2023 1.391 . S
C2023 H2011 0.950 . S
C2023 C2019 1.393 . S
C2023 C2022 1.391 . S
H2024 C2032 0.950 . S
H2025 C2037 0.950 . S
H2026 C2034 0.950 . S
H2027 C2036 0.950 . S
H2028 C2038 0.950 . S
H2029 C2040 0.950 . S
H2030 C2042 0.950 . S
H2031 C2043 0.950 . S
C2032 H2024 0.950 . S
C2032 C2033 1.386 . S
C2032 C2034 1.391 . S
C2033 C2032 1.386 . S
C2033 C2037 1.393 . S
C2034 H2026 0.950 . S
C2034 C2032 1.391 . S
C2034 C2035 1.400 . S
C2035 C2034 1.400 . S
C2035 C2036 1.398 . S
C2035 C2041 1.491 . S
C2036 H2027 0.950 . S
C2036 C2035 1.398 . S
C2036 C2037 1.391 . S
C2037 H2025 0.950 . S
C2037 C2033 1.393 . S
C2037 C2036 1.391 . S
C2038 H2028 0.950 . S
C2038 C2039 1.386 . S
C2038 C2040 1.391 . S
C2039 C2038 1.386 . S
C2039 C2043 1.393 . S
C2040 H2029 0.950 . S
C2040 C2038 1.391 . S
C2040 C2041 1.400 . S
C2041 C2035 1.491 . S
C2041 C2040 1.400 . S
C2041 C2042 1.398 . S
C2042 H2030 0.950 . S
C2042 C2041 1.398 . S
C2042 C2043 1.391 . S
C2043 H2031 0.950 . S
C2043 C2039 1.393 . S
C2043 C2042 1.391 . S
H2044 C2052 0.950 . S
H2045 C2057 0.950 . S
H2046 C2054 0.950 . S
H2047 C2056 0.949 . S
H2048 C2058 0.950 . S
H2049 C2060 0.950 . S
H2050 C2062 0.950 . S
H2051 C2063 0.950 . S
C2052 H2044 0.950 . S
C2052 C2053 1.386 1_554 S
C2052 C2054 1.391 . S
C2053 C2052 1.386 1_556 S
C2053 C2057 1.393 . S
C2054 H2046 0.950 . S
C2054 C2052 1.391 . S
C2054 C2055 1.400 . S
C2055 C2054 1.400 . S
C2055 C2056 1.398 . S
C2055 C2061 1.491 . S
C2056 H2047 0.949 . S
C2056 C2055 1.398 . S
C2056 C2057 1.391 1_554 S
C2057 H2045 0.950 . S
C2057 C2053 1.393 . S
C2057 C2056 1.391 1_556 S
C2058 H2048 0.950 . S
C2058 C2059 1.386 . S
C2058 C2060 1.391 . S
C2059 C2058 1.386 . S
C2059 C2063 1.393 . S
C2060 H2049 0.950 . S
C2060 C2058 1.391 . S
C2060 C2061 1.400 . S
C2061 C2055 1.491 . S
C2061 C2060 1.400 . S
C2061 C2062 1.398 . S
C2062 H2050 0.950 . S
C2062 C2061 1.398 . S
C2062 C2063 1.391 . S
C2063 H2051 0.950 . S
C2063 C2059 1.393 . S
C2063 C2062 1.391 . S
H2064 C2072 0.950 . S
H2065 C2077 0.950 . S
H2066 C2074 0.950 . S
H2067 C2076 0.950 . S
H2068 C2078 0.950 . S
H2069 C2080 0.950 . S
H2070 C2082 0.950 . S
H2071 C2083 0.950 . S
C2072 H2064 0.950 . S
C2072 C2073 1.386 . S
C2072 C2074 1.391 . S
C2073 C2072 1.386 . S
C2073 C2077 1.393 . S
C2074 H2066 0.950 . S
C2074 C2072 1.391 . S
C2074 C2075 1.400 . S
C2075 C2074 1.400 . S
C2075 C2076 1.398 . S
C2075 C2081 1.491 . S
C2076 H2067 0.950 . S
C2076 C2075 1.398 . S
C2076 C2077 1.391 . S
C2077 H2065 0.950 . S
C2077 C2073 1.393 . S
C2077 C2076 1.391 . S
C2078 H2068 0.950 . S
C2078 C2079 1.386 . S
C2078 C2080 1.391 . S
C2079 C2078 1.386 . S
C2079 C2083 1.393 . S
C2080 H2069 0.950 . S
C2080 C2078 1.391 . S
C2080 C2081 1.400 . S
C2081 C2075 1.491 . S
C2081 C2080 1.400 . S
C2081 C2082 1.398 . S
C2082 H2070 0.950 . S
C2082 C2081 1.398 . S
C2082 C2083 1.391 . S
C2083 H2071 0.950 . S
C2083 C2079 1.393 . S
C2083 C2082 1.391 . S
H2084 C2092 0.950 . S
H2085 C2097 0.950 . S
H2086 C2094 0.950 . S
H2087 C2096 0.950 . S
H2088 C2098 0.950 . S
H2089 C2100 0.950 . S
H2090 C2102 0.950 . S
H2091 C2103 0.950 . S
C2092 H2084 0.950 . S
C2092 C2093 1.386 . S
C2092 C2094 1.391 . S
C2093 C2092 1.386 . S
C2093 C2097 1.393 . S
C2094 H2086 0.950 . S
C2094 C2092 1.391 . S
C2094 C2095 1.400 . S
C2095 C2094 1.400 . S
C2095 C2096 1.398 . S
C2095 C2101 1.491 . S
C2096 H2087 0.950 . S
C2096 C2095 1.398 . S
C2096 C2097 1.391 . S
C2097 H2085 0.950 . S
C2097 C2093 1.393 . S
C2097 C2096 1.391 . S
C2098 H2088 0.950 . S
C2098 C2099 1.386 . S
C2098 C2100 1.391 . S
C2099 C2098 1.386 . S
C2099 C2103 1.393 . S
C2100 H2089 0.950 . S
C2100 C2098 1.391 . S
C2100 C2101 1.400 . S
C2101 C2095 1.491 . S
C2101 C2100 1.400 . S
C2101 C2102 1.398 . S
C2102 H2090 0.950 . S
C2102 C2101 1.398 . S
C2102 C2103 1.391 . S
C2103 H2091 0.950 . S
C2103 C2099 1.393 . S
C2103 C2102 1.391 . S
H2104 C2112 0.950 . S
H2105 C2117 0.950 . S
H2106 C2114 0.950 . S
H2107 C2116 0.950 . S
H2108 C2118 0.950 . S
H2109 C2120 0.950 . S
H2110 C2122 0.950 . S
H2111 C2123 0.950 . S
C2112 H2104 0.950 . S
C2112 C2113 1.386 . S
C2112 C2114 1.391 . S
C2113 C2112 1.386 . S
C2113 C2117 1.393 . S
C2114 H2106 0.950 . S
C2114 C2112 1.391 . S
C2114 C2115 1.400 . S
C2115 C2114 1.400 . S
C2115 C2116 1.398 . S
C2115 C2121 1.491 . S
C2116 H2107 0.950 . S
C2116 C2115 1.398 . S
C2116 C2117 1.391 . S
C2117 H2105 0.950 . S
C2117 C2113 1.393 . S
C2117 C2116 1.391 . S
C2118 H2108 0.950 . S
C2118 C2119 1.386 . S
C2118 C2120 1.391 . S
C2119 C2118 1.386 . S
C2119 C2123 1.393 . S
C2120 H2109 0.950 . S
C2120 C2118 1.391 . S
C2120 C2121 1.400 . S
C2121 C2115 1.491 . S
C2121 C2120 1.400 . S
C2121 C2122 1.398 . S
C2122 H2110 0.950 . S
C2122 C2121 1.398 . S
C2122 C2123 1.391 . S
C2123 H2111 0.950 . S
C2123 C2119 1.393 . S
C2123 C2122 1.391 . S
H2124 C2132 0.950 . S
H2125 C2137 0.950 . S
H2126 C2134 0.959 . S
H2127 C2136 0.950 . S
H2128 C2138 0.950 . S
H2129 C2140 0.950 . S
H2130 C2142 0.950 . S
H2131 C2143 0.950 . S
C2132 H2124 0.950 . S
C2132 C2133 1.386 . S
C2132 C2134 1.391 . S
C2133 C2132 1.386 . S
C2133 C2137 1.393 . S
C2134 H2126 0.959 . S
C2134 C2132 1.391 . S
C2134 C2135 1.400 . S
C2135 C2134 1.400 . S
C2135 C2136 1.398 . S
C2135 C2141 1.491 . S
C2136 H2127 0.950 . S
C2136 C2135 1.398 . S
C2136 C2137 1.391 . S
C2137 H2125 0.950 . S
C2137 C2133 1.393 . S
C2137 C2136 1.391 . S
C2138 H2128 0.950 . S
C2138 C2139 1.386 . S
C2138 C2140 1.391 1_556 S
C2139 C2138 1.386 . S
C2139 C2143 1.393 . S
C2140 H2129 0.950 . S
C2140 C2138 1.391 1_554 S
C2140 C2141 1.400 . S
C2141 C2135 1.491 . S
C2141 C2140 1.400 . S
C2141 C2142 1.398 1_554 S
C2142 H2130 0.950 . S
C2142 C2141 1.398 1_556 S
C2142 C2143 1.391 . S
C2143 H2131 0.950 . S
C2143 C2139 1.393 . S
C2143 C2142 1.391 . S
H2144 C2152 0.950 . S
H2145 C2157 0.950 . S
H2146 C2154 0.950 . S
H2147 C2156 0.950 . S
H2148 C2158 0.950 1_565 S
H2149 C2160 0.950 . S
H2150 C2162 0.950 . S
H2151 C2163 0.950 . S
C2152 H2144 0.950 . S
C2152 C2153 1.386 . S
C2152 C2154 1.391 . S
C2153 C2152 1.386 . S
C2153 C2157 1.393 . S
C2154 H2146 0.950 . S
C2154 C2152 1.391 . S
C2154 C2155 1.400 . S
C2155 C2154 1.400 . S
C2155 C2156 1.398 . S
C2155 C2161 1.491 . S
C2156 H2147 0.950 . S
C2156 C2155 1.398 . S
C2156 C2157 1.391 . S
C2157 H2145 0.950 . S
C2157 C2153 1.393 . S
C2157 C2156 1.391 . S
C2158 H2148 0.950 1_545 S
C2158 C2159 1.386 . S
C2158 C2160 1.391 . S
C2159 C2158 1.386 . S
C2159 C2163 1.393 . S
C2160 H2149 0.950 . S
C2160 C2158 1.391 . S
C2160 C2161 1.400 . S
C2161 C2155 1.491 . S
C2161 C2160 1.400 . S
C2161 C2162 1.398 . S
C2162 H2150 0.950 . S
C2162 C2161 1.398 . S
C2162 C2163 1.391 . S
C2163 H2151 0.950 . S
C2163 C2159 1.393 . S
C2163 C2162 1.391 . S
H2164 C2172 0.950 . S
H2165 C2177 0.950 . S
H2166 C2174 0.945 1_554 S
H2167 C2176 0.950 . S
H2168 C2178 0.950 . S
H2169 C2180 0.950 . S
H2170 C2182 0.950 . S
H2171 C2183 0.950 . S
C2172 H2164 0.950 . S
C2172 C2173 1.386 . S
C2172 C2174 1.396 . S
C2173 C2172 1.386 . S
C2173 C2177 1.393 . S
C2174 H2166 0.945 1_556 S
C2174 C2172 1.396 . S
C2174 C2175 1.400 1_556 S
C2175 C2174 1.400 1_554 S
C2175 C2176 1.398 1_554 S
C2175 C2181 1.491 . S
C2176 H2167 0.950 . S
C2176 C2175 1.398 1_556 S
C2176 C2177 1.391 . S
C2177 H2165 0.950 . S
C2177 C2173 1.393 . S
C2177 C2176 1.391 . S
C2178 H2168 0.950 . S
C2178 C2179 1.386 . S
C2178 C2180 1.391 . S
C2179 C2178 1.386 . S
C2179 C2183 1.393 . S
C2180 H2169 0.950 . S
C2180 C2178 1.391 . S
C2180 C2181 1.400 . S
C2181 C2175 1.491 . S
C2181 C2180 1.400 . S
C2181 C2182 1.398 . S
C2182 H2170 0.950 . S
C2182 C2181 1.398 . S
C2182 C2183 1.391 . S
C2183 H2171 0.950 . S
C2183 C2179 1.393 . S
C2183 C2182 1.391 . S
H2184 C2192 0.950 . S
H2185 C2197 0.950 . S
H2186 C2194 0.950 . S
H2187 C2196 0.950 . S
H2188 C2198 0.950 . S
H2189 C2200 0.950 . S
H2190 C2202 0.950 . S
H2191 C2203 0.950 . S
C2192 H2184 0.950 . S
C2192 C2193 1.386 . S
C2192 C2194 1.391 . S
C2193 C2192 1.386 . S
C2193 C2197 1.393 . S
C2194 H2186 0.950 . S
C2194 C2192 1.391 . S
C2194 C2195 1.400 . S
C2195 C2194 1.400 . S
C2195 C2196 1.398 . S
C2195 C2201 1.491 . S
C2196 H2187 0.950 . S
C2196 C2195 1.398 . S
C2196 C2197 1.391 . S
C2197 H2185 0.950 . S
C2197 C2193 1.393 . S
C2197 C2196 1.391 . S
C2198 H2188 0.950 . S
C2198 C2199 1.386 . S
C2198 C2200 1.391 . S
C2199 C2198 1.386 . S
C2199 C2203 1.393 . S
C2200 H2189 0.950 . S
C2200 C2198 1.391 . S
C2200 C2201 1.400 . S
C2201 C2195 1.491 . S
C2201 C2200 1.400 . S
C2201 C2202 1.398 . S
C2202 H2190 0.950 . S
C2202 C2201 1.398 . S
C2202 C2203 1.391 . S
C2203 H2191 0.950 . S
C2203 C2199 1.393 . S
C2203 C2202 1.391 . S
H2204 C2212 0.950 . S
H2205 C2217 0.950 . S
H2206 C2214 0.950 . S
H2207 C2216 0.950 . S
H2208 C2218 0.950 . S
H2209 C2220 0.950 . S
H2210 C2222 0.950 . S
H2211 C2223 0.950 . S
C2212 H2204 0.950 . S
C2212 C2213 1.386 . S
C2212 C2214 1.391 . S
C2213 C2212 1.386 . S
C2213 C2217 1.393 . S
C2214 H2206 0.950 . S
C2214 C2212 1.391 . S
C2214 C2215 1.400 . S
C2215 C2214 1.400 . S
C2215 C2216 1.398 . S
C2215 C2221 1.491 . S
C2216 H2207 0.950 . S
C2216 C2215 1.398 . S
C2216 C2217 1.391 . S
C2217 H2205 0.950 . S
C2217 C2213 1.393 . S
C2217 C2216 1.391 . S
C2218 H2208 0.950 . S
C2218 C2219 1.386 . S
C2218 C2220 1.391 . S
C2219 C2218 1.386 . S
C2219 C2223 1.393 . S
C2220 H2209 0.950 . S
C2220 C2218 1.391 . S
C2220 C2221 1.400 . S
C2221 C2215 1.491 . S
C2221 C2220 1.400 . S
C2221 C2222 1.398 . S
C2222 H2210 0.950 . S
C2222 C2221 1.398 . S
C2222 C2223 1.391 . S
C2223 H2211 0.950 . S
C2223 C2219 1.393 . S
C2223 C2222 1.391 . S
H2224 C2232 0.950 . S
H2225 C2237 0.950 . S
H2226 C2234 0.950 . S
H2227 C2236 0.950 . S
H2228 C2238 0.950 . S
H2229 C2240 0.950 . S
H2230 C2242 0.950 . S
H2231 C2243 0.950 . S
C2232 H2224 0.950 . S
C2232 C2233 1.386 . S
C2232 C2234 1.391 . S
C2233 C2232 1.386 . S
C2233 C2237 1.393 . S
C2234 H2226 0.950 . S
C2234 C2232 1.391 . S
C2234 C2235 1.400 . S
C2235 C2234 1.400 . S
C2235 C2236 1.398 . S
C2235 C2241 1.491 . S
C2236 H2227 0.950 . S
C2236 C2235 1.398 . S
C2236 C2237 1.391 . S
C2237 H2225 0.950 . S
C2237 C2233 1.393 . S
C2237 C2236 1.391 . S
C2238 H2228 0.950 . S
C2238 C2239 1.386 . S
C2238 C2240 1.391 . S
C2239 C2238 1.386 . S
C2239 C2243 1.393 . S
C2240 H2229 0.950 . S
C2240 C2238 1.391 . S
C2240 C2241 1.400 . S
C2241 C2235 1.491 . S
C2241 C2240 1.400 . S
C2241 C2242 1.398 . S
C2242 H2230 0.950 . S
C2242 C2241 1.398 . S
C2242 C2243 1.391 . S
C2243 H2231 0.950 . S
C2243 C2239 1.393 . S
C2243 C2242 1.391 . S
H2244 C2252 0.950 . S
H2245 C2257 0.950 . S
H2246 C2254 0.950 . S
H2247 C2256 0.950 . S
H2248 C2258 0.950 . S
H2249 C2260 0.950 . S
H2250 C2262 0.950 . S
H2251 C2263 0.978 . S
C2252 H2244 0.950 . S
C2252 C2253 1.386 . S
C2252 C2254 1.391 . S
C2253 C2252 1.386 . S
C2253 C2257 1.393 . S
C2254 H2246 0.950 . S
C2254 C2252 1.391 . S
C2254 C2255 1.400 . S
C2255 C2254 1.400 . S
C2255 C2256 1.398 . S
C2255 C2261 1.491 . S
C2256 H2247 0.950 . S
C2256 C2255 1.398 . S
C2256 C2257 1.391 . S
C2257 H2245 0.950 . S
C2257 C2253 1.393 . S
C2257 C2256 1.391 . S
C2258 H2248 0.950 . S
C2258 C2259 1.386 . S
C2258 C2260 1.391 . S
C2259 C2258 1.386 . S
C2259 C2263 1.393 . S
C2260 H2249 0.950 . S
C2260 C2258 1.391 . S
C2260 C2261 1.400 1_556 S
C2261 C2255 1.491 . S
C2261 C2260 1.400 1_554 S
C2261 C2262 1.398 . S
C2262 H2250 0.950 . S
C2262 C2261 1.398 . S
C2262 C2263 1.391 1_554 S
C2263 H2251 0.978 . S
C2263 C2259 1.393 . S
C2263 C2262 1.391 1_556 S
H2264 C2272 0.950 . S
H2265 C2277 0.950 . S
H2266 C2274 0.950 . S
H2267 C2276 0.950 . S
H2268 C2278 0.950 . S
H2269 C2280 0.950 . S
H2270 C2282 0.950 . S
H2271 C2283 0.950 . S
C2272 H2264 0.950 . S
C2272 C2273 1.386 . S
C2272 C2274 1.391 . S
C2273 C2272 1.386 . S
C2273 C2277 1.393 . S
C2274 H2266 0.950 . S
C2274 C2272 1.391 . S
C2274 C2275 1.400 . S
C2275 C2274 1.400 . S
C2275 C2276 1.398 . S
C2275 C2281 1.491 . S
C2276 H2267 0.950 . S
C2276 C2275 1.398 . S
C2276 C2277 1.391 . S
C2277 H2265 0.950 . S
C2277 C2273 1.393 . S
C2277 C2276 1.391 . S
C2278 H2268 0.950 . S
C2278 C2279 1.386 . S
C2278 C2280 1.391 . S
C2279 C2278 1.386 . S
C2279 C2283 1.393 . S
C2280 H2269 0.950 . S
C2280 C2278 1.391 . S
C2280 C2281 1.400 . S
C2281 C2275 1.491 . S
C2281 C2280 1.400 . S
C2281 C2282 1.398 . S
C2282 H2270 0.950 . S
C2282 C2281 1.398 . S
C2282 C2283 1.391 . S
C2283 H2271 0.950 . S
C2283 C2279 1.393 . S
C2283 C2282 1.391 . S
H2284 C2292 0.950 . S
H2285 C2297 0.950 . S
H2286 C2294 0.950 . S
H2287 C2296 0.950 . S
H2288 C2298 0.950 . S
H2289 C2300 0.950 . S
H2290 C2302 0.950 . S
H2291 C2303 0.950 . S
C2292 H2284 0.950 . S
C2292 C2293 1.386 . S
C2292 C2294 1.391 . S
C2293 C2292 1.386 . S
C2293 C2297 1.393 . S
C2294 H2286 0.950 . S
C2294 C2292 1.391 . S
C2294 C2295 1.400 . S
C2295 C2294 1.400 . S
C2295 C2296 1.398 . S
C2295 C2301 1.491 . S
C2296 H2287 0.950 . S
C2296 C2295 1.398 . S
C2296 C2297 1.391 . S
C2297 H2285 0.950 . S
C2297 C2293 1.393 . S
C2297 C2296 1.391 . S
C2298 H2288 0.950 . S
C2298 C2299 1.386 . S
C2298 C2300 1.391 . S
C2299 C2298 1.386 . S
C2299 C2303 1.393 . S
C2300 H2289 0.950 . S
C2300 C2298 1.391 . S
C2300 C2301 1.400 . S
C2301 C2295 1.491 . S
C2301 C2300 1.400 . S
C2301 C2302 1.398 . S
C2302 H2290 0.950 . S
C2302 C2301 1.398 . S
C2302 C2303 1.391 . S
C2303 H2291 0.950 . S
C2303 C2299 1.393 . S
C2303 C2302 1.391 . S
C1353 C56 3.770 . S
C1359 C1155 3.728 1_565 S
C1373 C158 3.788 . S
C1379 C987 3.631 . S
C1393 C1064 3.770 . S
C1399 C231 3.724 . S
C1413 C315 3.625 . S
C1419 C914 3.790 . S
C1433 C403 3.770 . S
C1439 C1334 3.725 . S
C1453 C830 3.638 . S
C1459 C483 3.785 . S
C1473 C578 3.729 . S
C1479 C1243 3.772 . S
C1493 C662 3.627 . S
C1499 C735 3.789 . S
C1513 C1166 1.472 . S
C1519 C67 1.496 . S
C1533 C998 1.497 . S
C1539 C147 1.512 . S
C1553 C1075 1.495 . S
C1559 C242 1.472 . S
C1573 C903 1.503 . S
C1579 C326 1.506 . S
C1593 C392 1.498 . S
C1599 C1323 1.459 . S
C1613 C819 1.517 . S
C1619 C494 1.490 . S
C1633 C1232 1.493 . S
C1639 C567 1.468 . S
C1653 C746 1.510 . S
C1659 C651 1.498 . S
C1673 C825 0.816 . S
C1679 C63 0.793 . S
C1693 C1234 1.157 . S
C1699 C153 0.855 . S
C1713 C728 1.175 . S
C1719 C224 1.190 . S
C1733 C1329 0.511 . S
C1739 C308 0.223 . S
C1753 C909 0.815 . S
C1759 C394 1.116 . S
C1773 C476 1.158 . S
C1779 C1148 1.202 . S
C1793 C980 0.223 . S
C1799 C573 0.506 . S
C1813 C1071 0.772 . S
C1819 C657 0.795 . S
C1833 C310 0.815 . S
C1839 C410 0.791 . S
C1853 C1077 1.169 . S
C1859 C730 0.874 . S
C1873 C151 1.163 . S
C1879 C571 1.201 . S
C1893 C823 0.130 . S
C1899 C1150 0.447 . S
C1913 C478 0.868 . S
C1919 C69 1.167 . S
C1933 C1327 1.191 . S
C1939 C907 1.179 . S
C1953 C655 0.173 . S
C1959 C226 0.435 . S
C1973 C1250 0.818 . S
C1979 C982 0.783 . S
C1993 C58 1.578 . S
C1999 C560 1.830 . S
C2013 C140 1.411 1_545 S
C2019 C644 1.449 . S
C2033 C399 1.740 . S
C2039 C237 1.428 . S
C2053 C321 1.617 . S
C2059 C489 1.706 . S
C2073 C235 1.833 . S
C2079 C405 1.583 . S
C2093 C739 1.401 . S
C2099 C991 1.444 . S
C2113 C562 1.409 . S
C2119 C74 1.734 . S
C2133 C814 1.592 . S
C2139 C898 1.726 . S
C2153 C1316 1.829 . S
C2159 C1066 1.581 . S
C2173 C896 1.410 . S
C2179 C812 1.442 . S
C2193 C1239 1.748 . S
C2199 C1161 1.429 . S
C2213 C741 1.733 . S
C2219 C993 1.587 . S
C2233 C1159 1.832 . S
C2239 C1245 1.578 . S
C2253 C487 1.417 . S
C2259 C319 1.443 . S
C2273 C1318 1.426 . S
C2279 C1082 1.739 . S
C2293 C142 1.739 . S
C2299 C646 1.594 . S
