# Generated by pormake.
# Topology unh, (4)-cn, num edge types: 1
# Building blocks:
#     Node 0, Type 0, BuildingBlock: CEKHIL_clean_sbu_0, # of connection points: 4
#     Node 1, Type 0, BuildingBlock: CEKHIL_clean_sbu_0, # of connection points: 4
#     Node 2, Type 0, BuildingBlock: CEKHIL_clean_sbu_0, # of connection points: 4
#     Node 3, Type 0, BuildingBlock: CEKHIL_clean_sbu_0, # of connection points: 4
#     Node 4, Type 0, BuildingBlock: CEKHIL_clean_sbu_0, # of connection points: 4
#     Node 5, Type 0, BuildingBlock: CEKHIL_clean_sbu_0, # of connection points: 4
#     Edge 6, Type (0, 0), BuildingBlock: CIFDUS_clean_linker_0, # of connection points: 2
#     Edge 7, Type (0, 0), BuildingBlock: CIFDUS_clean_linker_0, # of connection points: 2
#     Edge 8, Type (0, 0), BuildingBlock: CIFDUS_clean_linker_0, # of connection points: 2
#     Edge 9, Type (0, 0), BuildingBlock: CIFDUS_clean_linker_0, # of connection points: 2
#     Edge 10, Type (0, 0), BuildingBlock: CIFDUS_clean_linker_0, # of connection points: 2
#     Edge 11, Type (0, 0), BuildingBlock: CIFDUS_clean_linker_0, # of connection points: 2
#     Edge 12, Type (0, 0), BuildingBlock: CIFDUS_clean_linker_0, # of connection points: 2
#     Edge 13, Type (0, 0), BuildingBlock: CIFDUS_clean_linker_0, # of connection points: 2
#     Edge 14, Type (0, 0), BuildingBlock: CIFDUS_clean_linker_0, # of connection points: 2
#     Edge 15, Type (0, 0), BuildingBlock: CIFDUS_clean_linker_0, # of connection points: 2
#     Edge 16, Type (0, 0), BuildingBlock: CIFDUS_clean_linker_0, # of connection points: 2
#     Edge 17, Type (0, 0), BuildingBlock: CIFDUS_clean_linker_0, # of connection points: 2
# Relax obj value: 0.073
# Max RMSD: 0.185
# Mean RMSD: 0.185
data_MOF--net-unh--node1-CEKHIL_clean_sbu_0--edge1-CIFDUS_clean_linker_0
_symmetry_space_group_name_H-M    P1
_symmetry_Int_Tables_number       1
_symmetry_cell_setting            triclinic
loop_
_symmetry_equiv_pos_as_xyz
'x, y, z'
_cell_length_a     36.652671
_cell_length_b     36.665595
_cell_length_c     19.269556
_cell_angle_alpha  89.819455
_cell_angle_beta   90.031795
_cell_angle_gamma 119.90619
loop_
_atom_site_label
_atom_site_type_symbol
_atom_site_fract_x
_atom_site_fract_y
_atom_site_fract_z
_atom_type_partial_charge
Co0 Co 0.1262 0.54528 0.11208 0.0
O1 O 0.08732 0.50638 0.17807 0.0
O2 O 0.0911 0.56665 0.14999 0.0
C3 C 0.18306 0.54502 0.15629 0.0
O4 O 0.16473 0.59391 0.04765 0.0
Co5 Co 0.16814 0.51283 0.01092 0.0
O6 O 0.20636 0.57363 0.9948 0.0
C7 C 0.08312 0.49628 0.97911 0.0
C8 C 0.0744 0.53292 0.18865 0.0
C9 C 0.19673 0.60165 0.0095 0.0
O10 O 0.08499 0.51673 0.03434 0.0
O11 O 0.11251 0.48898 0.96133 0.0
O12 O 0.16925 0.56844 0.1821 0.0
O13 O 0.15941 0.51871 0.10885 0.0
Co14 Co 0.57936 0.1284 0.28921 0.0
O15 O 0.57784 0.08573 0.34802 0.0
O16 O 0.52286 0.09364 0.32752 0.0
C17 C 0.63852 0.18143 0.33475 0.0
O18 O 0.57111 0.17071 0.23144 0.0
Co19 Co 0.65405 0.17114 0.18643 0.0
O20 O 0.63129 0.20943 0.17179 0.0
C21 C 0.5828 0.08859 0.15088 0.0
C22 C 0.53865 0.07342 0.35997 0.0
C23 C 0.59472 0.20157 0.1906 0.0
O24 O 0.56435 0.09022 0.20657 0.0
O25 O 0.62042 0.11664 0.13492 0.0
O26 O 0.60241 0.16882 0.36429 0.0
O27 O 0.63863 0.15881 0.28337 0.0
Co28 Co 0.44471 0.57153 0.4459 0.0
O29 O 0.47833 0.56252 0.51223 0.0
O30 O 0.42206 0.51145 0.46067 0.0
C31 C 0.43846 0.62027 0.50686 0.0
O32 O 0.40125 0.57023 0.37804 0.0
Co33 Co 0.48345 0.65906 0.37508 0.0
O34 O 0.42322 0.63828 0.35373 0.0
C35 C 0.50591 0.59824 0.32214 0.0
C36 C 0.45191 0.52264 0.50643 0.0
C37 C 0.39524 0.59939 0.35279 0.0
O38 O 0.48024 0.5713 0.36637 0.0
O39 O 0.51455 0.63661 0.31986 0.0
O40 O 0.41471 0.58053 0.52025 0.0
O41 O 0.46906 0.62969 0.46366 0.0
Co42 Co 0.86863 0.44726 0.60247 0.0
O43 O 0.90783 0.47868 0.67457 0.0
O44 O 0.90437 0.4233 0.62254 0.0
C45 C 0.81125 0.44128 0.65532 0.0
O46 O 0.83059 0.40573 0.52884 0.0
Co47 Co 0.82463 0.4877 0.52273 0.0
O48 O 0.79342 0.43201 0.47718 0.0
C49 C 0.91 0.5096 0.48142 0.0
C50 C 0.92139 0.45219 0.67002 0.0
C51 C 0.80262 0.40303 0.48537 0.0
O52 O 0.90909 0.48409 0.5283 0.0
O53 O 0.88039 0.51812 0.47346 0.0
O54 O 0.82544 0.41617 0.67074 0.0
O55 O 0.8348 0.47252 0.61462 0.0
Co56 Co 0.42299 0.87085 0.77806 0.0
O57 O 0.42886 0.9122 0.84431 0.0
O58 O 0.4822 0.90886 0.79709 0.0
C59 C 0.37309 0.81464 0.83537 0.0
O60 O 0.42823 0.83089 0.71078 0.0
Co61 Co 0.33881 0.82154 0.69938 0.0
O62 O 0.36285 0.78541 0.67362 0.0
C63 C 0.39961 0.90614 0.65121 0.0
C64 C 0.46911 0.92673 0.84109 0.0
C65 C 0.40192 0.79727 0.67832 0.0
O66 O 0.42502 0.90744 0.69846 0.0
O67 O 0.36181 0.8757 0.64523 0.0
O68 O 0.41248 0.83098 0.85181 0.0
O69 O 0.36434 0.83582 0.79094 0.0
Co70 Co 0.55122 0.42592 0.95373 0.0
O71 O 0.51233 0.42635 0.01874 0.0
O72 O 0.57003 0.48351 0.98383 0.0
C73 C 0.55625 0.3732 0.00346 0.0
O74 O 0.59884 0.43512 0.88734 0.0
Co75 Co 0.51765 0.34657 0.86273 0.0
O76 O 0.57811 0.37157 0.84048 0.0
C77 C 0.49682 0.41094 0.82298 0.0
C78 C 0.53634 0.4667 0.02258 0.0
C79 C 0.60588 0.40998 0.85022 0.0
O80 O 0.51894 0.43261 0.87493 0.0
O81 O 0.49027 0.37397 0.80975 0.0
O82 O 0.57841 0.41142 0.02589 0.0
O83 O 0.52771 0.3669 0.95773 0.0
H84 H 0.06713 0.45633 0.85254 0.0
H85 H 0.01779 0.51076 0.99761 0.0
H86 H 0.96402 0.50153 0.91486 0.0
H87 H 0.93323 0.48222 0.79964 0.0
H88 H 0.9785 0.42482 0.65417 0.0
H89 H 0.03159 0.43099 0.73869 0.0
C90 C 0.04431 0.46568 0.86642 0.0
C91 C 0.04707 0.48466 0.93133 0.0
C92 C 0.01298 0.46021 0.81825 0.0
C93 C 0.0169 0.49631 0.94822 0.0
C94 C 0.98606 0.4912 0.90075 0.0
C95 C 0.95474 0.47106 0.78632 0.0
C96 C 0.95252 0.45375 0.7205 0.0
C97 C 0.98434 0.47401 0.83529 0.0
C98 C 0.97987 0.43852 0.70449 0.0
C99 C 0.01017 0.44207 0.75279 0.0
H100 H 0.4469 0.94572 0.96224 0.0
H101 H 0.55488 0.97955 0.83211 0.0
H102 H 0.60047 0.03236 0.9176 0.0
H103 H 0.60877 0.06935 0.02926 0.0
H104 H 0.49933 0.03106 0.15925 0.0
H105 H 0.45537 0.97924 0.07396 0.0
C106 C 0.4804 0.96479 0.9522 0.0
C107 C 0.49748 0.95922 0.89062 0.0
C108 C 0.50621 0.99406 1.00188 0.0
C109 C 0.54103 0.98353 0.87908 0.0
C110 C 0.56703 0.0136 0.92796 0.0
C111 C 0.57539 0.04945 0.03916 0.0
C112 C 0.55758 0.05444 0.10081 0.0
C113 C 0.5499 0.01917 0.98967 0.0
C114 C 0.51418 0.02814 0.11264 0.0
C115 C 0.4888 -0.00152 0.06367 0.0
H116 H 0.45916 0.52615 0.25572 0.0
H117 H 0.58367 0.63457 0.25783 0.0
H118 H 0.60451 0.60499 0.16107 0.0
H119 H 0.58691 0.54577 0.07855 0.0
H120 H 0.4598 0.44048 0.07703 0.0
H121 H 0.44026 0.47177 0.1698 0.0
C122 C 0.49102 0.54321 0.2354 0.0
C123 C 0.52018 0.58183 0.26472 0.0
C124 C 0.50214 0.5267 0.17929 0.0
C125 C 0.56089 0.60438 0.23645 0.0
C126 C 0.57269 0.58753 0.18112 0.0
C127 C 0.55488 0.53015 0.098 0.0
C128 C 0.52506 0.49052 0.0715 0.0
C129 C 0.54354 0.54844 0.15225 0.0
C130 C 0.4836 0.47066 0.09706 0.0
C131 C 0.47228 0.48845 0.15033 0.0
H132 H 0.96002 0.47697 0.4545 0.0
H133 H 0.93459 0.57431 0.38648 0.0
H134 H 0.98411 0.59137 0.28975 0.0
H135 H 0.03239 0.57573 0.22103 0.0
H136 H 0.05159 0.47407 0.28885 0.0
H137 H 0.00654 0.46156 0.3883 0.0
C138 C 0.96566 0.50245 0.41938 0.0
C139 C 0.94381 0.52453 0.42829 0.0
C140 C 0.99271 0.51092 0.36284 0.0
C141 C 0.95116 0.55691 0.38115 0.0
C142 C 0.97929 0.56651 0.32556 0.0
C143 C 0.02655 0.55085 0.25759 0.0
C144 C 0.04527 0.52581 0.24701 0.0
C145 C -0.00022 0.5432 0.31514 0.0
C146 C 0.03742 0.49368 0.29498 0.0
C147 C 0.01177 0.48654 0.35238 0.0
H148 H 0.45672 0.04058 0.40711 0.0
H149 H 0.56854 0.03013 0.42982 0.0
H150 H 0.53566 0.97934 0.52224 0.0
H151 H 0.47696 0.93913 0.59905 0.0
H152 H 0.36208 0.94312 0.57629 0.0
H153 H 0.39427 0.99521 0.48202 0.0
C154 C 0.47363 0.02691 0.43208 0.0
C155 C 0.51529 0.03967 0.41176 0.0
C156 C 0.45424 0.99691 0.48577 0.0
C157 C 0.53666 0.02137 0.4444 0.0
C158 C 0.51794 0.99225 0.49762 0.0
C159 C 0.459 0.9517 0.57403 0.0
C160 C 0.41764 0.93815 0.59551 0.0
C161 C 0.47713 0.98027 0.51928 0.0
C162 C 0.39426 0.95358 0.56104 0.0
C163 C 0.41264 0.98322 0.50713 0.0
H164 H 0.46493 0.3865 0.69095 0.0
H165 H 0.49597 0.48372 0.84388 0.0
H166 H 0.48373 0.52554 0.75932 0.0
H167 H 0.47001 0.53768 0.64065 0.0
H168 H 0.43571 0.44138 0.48617 0.0
H169 H 0.44336 0.39593 0.57258 0.0
C170 C 0.4683 0.41648 0.70607 0.0
C171 C 0.48204 0.43207 0.7737 0.0
C172 C 0.46122 0.44081 0.65672 0.0
C173 C 0.48604 0.471 0.79223 0.0
C174 C 0.47912 0.49513 0.74381 0.0
C175 C 0.46412 0.50666 0.62588 0.0
C176 C 0.45316 0.49306 0.55715 0.0
C177 C 0.46784 0.48087 0.67567 0.0
C178 C 0.44451 0.4525 0.53888 0.0
C179 C 0.44893 0.42665 0.58823 0.0
H180 H 0.22948 0.59425 0.26054 0.0
H181 H 0.22298 0.5008 0.11784 0.0
H182 H 0.28713 0.50667 0.16974 0.0
H183 H 0.34662 0.54093 0.25467 0.0
H184 H 0.35121 0.63582 0.39207 0.0
H185 H 0.28559 0.62624 0.34403 0.0
C186 C 0.24186 0.57497 0.24045 0.0
C187 C 0.22155 0.54722 0.18519 0.0
C188 C 0.27828 0.57862 0.27016 0.0
C189 C 0.23814 0.5225 0.16026 0.0
C190 C 0.27472 0.52582 0.19004 0.0
C191 C 0.33271 0.55893 0.27436 0.0
C192 C 0.35343 0.58899 0.3268 0.0
C193 C 0.29521 0.55399 0.245 0.0
C194 C 0.33571 0.61264 0.35161 0.0
C195 C 0.29832 0.60726 0.32408 0.0
H196 H 0.68546 0.25896 0.27938 0.0
H197 H 0.6741 0.18302 0.45772 0.0
H198 H 0.72859 0.24494 0.51833 0.0
H199 H 0.77346 0.322 0.52526 0.0
H200 H 0.77901 0.39858 0.35094 0.0
H201 H 0.73346 0.33556 0.28373 0.0
C202 C 0.69597 0.25602 0.33066 0.0
C203 C 0.67674 0.21675 0.36387 0.0
C204 C 0.7259 0.29205 0.36617 0.0
C205 C 0.6893 0.21311 0.4311 0.0
C206 C 0.72014 0.24849 0.46585 0.0
C207 C 0.76527 0.3247 0.47213 0.0
C208 C 0.77936 0.3647 0.44305 0.0
C209 C 0.73783 0.28834 0.43465 0.0
C210 C 0.76815 0.36799 0.3745 0.0
C211 C 0.74215 0.33201 0.33605 0.0
H212 H 0.3541 0.71779 0.63194 0.0
H213 H 0.48342 0.81696 0.64942 0.0
H214 H 0.50668 0.77211 0.5932 0.0
H215 H 0.48975 0.70323 0.54122 0.0
H216 H 0.35984 0.60465 0.53062 0.0
H217 H 0.33738 0.65098 0.58089 0.0
C218 C 0.38744 0.72989 0.62324 0.0
C219 C 0.41691 0.77076 0.64476 0.0
C220 C 0.40049 0.70396 0.59175 0.0
C221 C 0.46 0.78554 0.6336 0.0
C222 C 0.47332 0.75995 0.60124 0.0
C223 C 0.4566 0.69228 0.54946 0.0
C224 C 0.42648 0.65066 0.53251 0.0
C225 C 0.4438 0.71896 0.58026 0.0
C226 C 0.38362 0.63649 0.54388 0.0
C227 C 0.3707 0.66294 0.57258 0.0
H228 H 0.63062 0.36253 0.7801 0.0
H229 H 0.67404 0.49103 0.8405 0.0
H230 H 0.7408 0.51343 0.77932 0.0
H231 H 0.78771 0.49522 0.71129 0.0
H232 H 0.74208 0.36545 0.65743 0.0
H233 H 0.67471 0.34495 0.71224 0.0
C234 C 0.65439 0.39562 0.78004 0.0
C235 C 0.64712 0.42502 0.81512 0.0
C236 C 0.69223 0.40804 0.74518 0.0
C237 C 0.67876 0.46763 0.81429 0.0
C238 C 0.71686 0.48045 0.77903 0.0
C239 C 0.76258 0.46269 0.71068 0.0
C240 C 0.76949 0.4318 0.68017 0.0
C241 C 0.72402 0.45084 0.74438 0.0
C242 C 0.73725 0.38963 0.6806 0.0
C243 C 0.69886 0.37788 0.71214 0.0
H244 H 0.29147 0.78508 0.87718 0.0
H245 H 0.38702 0.75015 0.85217 0.0
H246 H 0.34094 0.68169 0.90423 0.0
H247 H 0.2753 0.63282 0.95975 0.0
H248 H 0.17891 0.66595 0.99121 0.0
H249 H 0.22372 0.73436 0.93498 0.0
C250 C 0.30172 0.7621 0.8825 0.0
C251 C 0.34239 0.77236 0.86076 0.0
C252 C 0.27528 0.72288 0.91448 0.0
C253 C 0.35583 0.74284 0.86873 0.0
C254 C 0.32958 0.70376 0.8986 0.0
C255 C 0.2638 0.65481 0.95426 0.0
C256 C 0.22369 0.64414 0.97939 0.0
C257 C 0.28954 0.69367 0.92232 0.0
C258 C 0.20976 0.67344 0.97259 0.0
C259 C 0.23527 0.71243 0.94006 0.0
H260 H 0.50459 0.29587 0.06104 0.0
H261 H 0.63272 0.38136 0.99956 0.0
H262 H 0.65581 0.33615 0.05368 0.0
H263 H 0.6407 0.27502 0.12249 0.0
H264 H 0.51363 0.1886 0.18888 0.0
H265 H 0.48903 0.23192 0.13019 0.0
C266 C 0.53729 0.3038 0.05833 0.0
C267 C 0.56696 0.34135 0.02561 0.0
C268 C 0.55062 0.27813 0.09166 0.0
C269 C 0.60944 0.35225 0.02386 0.0
C270 C 0.62268 0.32664 0.05521 0.0
C271 C 0.6075 0.26533 0.12425 0.0
C272 C 0.57909 0.22848 0.16012 0.0
C273 C 0.59371 0.28997 0.09017 0.0
C274 C 0.5363 0.21696 0.16213 0.0
C275 C 0.52217 0.24155 0.12809 0.0
loop_
_geom_bond_atom_site_label_1
_geom_bond_atom_site_label_2
_geom_bond_distance
_geom_bond_site_symmetry_2
_ccdc_geom_bond_type
Co0 O1 2.216 . S
Co0 O2 2.091 . S
Co0 O4 2.004 . S
Co0 O10 2.021 . S
Co0 O12 2.137 . S
Co0 O13 2.244 . S
O1 Co0 2.216 . S
O1 C8 1.247 . S
O2 Co0 2.091 . S
O2 C8 1.261 . S
C3 O12 1.247 . S
C3 O13 1.272 . S
O4 Co0 2.004 . S
O4 C9 1.259 . S
Co5 O6 2.061 . S
Co5 O11 2.052 . S
Co5 O13 2.135 1_556 S
O6 Co5 2.061 . S
O6 C9 1.235 1_556 S
C7 O10 1.238 1_556 S
C7 O11 1.241 . S
C8 O1 1.247 . S
C8 O2 1.261 . S
C9 O4 1.259 . S
C9 O6 1.235 1_554 S
O10 Co0 2.021 . S
O10 C7 1.238 1_554 S
O11 Co5 2.052 . S
O11 C7 1.241 . S
O12 Co0 2.137 . S
O12 C3 1.247 . S
O13 Co0 2.244 . S
O13 C3 1.272 . S
O13 Co5 2.135 1_554 S
Co14 O15 2.216 . S
Co14 O16 2.091 . S
Co14 O18 2.004 . S
Co14 O24 2.021 . S
Co14 O26 2.137 . S
Co14 O27 2.244 . S
O15 Co14 2.216 . S
O15 C22 1.247 . S
O16 Co14 2.091 . S
O16 C22 1.261 . S
C17 O26 1.247 . S
C17 O27 1.272 . S
O18 Co14 2.004 . S
O18 C23 1.259 . S
Co19 O20 2.061 . S
Co19 O25 2.052 . S
Co19 O27 2.135 . S
O20 Co19 2.061 . S
O20 C23 1.235 . S
C21 O24 1.238 . S
C21 O25 1.241 . S
C22 O15 1.247 . S
C22 O16 1.261 . S
C23 O18 1.259 . S
C23 O20 1.235 . S
O24 Co14 2.021 . S
O24 C21 1.238 . S
O25 Co19 2.052 . S
O25 C21 1.241 . S
O26 Co14 2.137 . S
O26 C17 1.247 . S
O27 Co14 2.244 . S
O27 C17 1.272 . S
O27 Co19 2.135 . S
Co28 O29 2.216 . S
Co28 O30 2.091 . S
Co28 O32 2.004 . S
Co28 O38 2.021 . S
Co28 O40 2.137 . S
Co28 O41 2.244 . S
O29 Co28 2.216 . S
O29 C36 1.247 . S
O30 Co28 2.091 . S
O30 C36 1.261 . S
C31 O40 1.247 . S
C31 O41 1.272 . S
O32 Co28 2.004 . S
O32 C37 1.259 . S
Co33 O34 2.061 . S
Co33 O39 2.052 . S
Co33 O41 2.135 . S
O34 Co33 2.061 . S
O34 C37 1.235 . S
C35 O38 1.238 . S
C35 O39 1.241 . S
C36 O29 1.247 . S
C36 O30 1.261 . S
C37 O32 1.259 . S
C37 O34 1.235 . S
O38 Co28 2.021 . S
O38 C35 1.238 . S
O39 Co33 2.052 . S
O39 C35 1.241 . S
O40 Co28 2.137 . S
O40 C31 1.247 . S
O41 Co28 2.244 . S
O41 C31 1.272 . S
O41 Co33 2.135 . S
Co42 O43 2.216 . S
Co42 O44 2.091 . S
Co42 O46 2.004 . S
Co42 O52 2.021 . S
Co42 O54 2.137 . S
Co42 O55 2.244 . S
O43 Co42 2.216 . S
O43 C50 1.247 . S
O44 Co42 2.091 . S
O44 C50 1.261 . S
C45 O54 1.247 . S
C45 O55 1.272 . S
O46 Co42 2.004 . S
O46 C51 1.259 . S
Co47 O48 2.061 . S
Co47 O53 2.052 . S
Co47 O55 2.135 . S
O48 Co47 2.061 . S
O48 C51 1.235 . S
C49 O52 1.238 . S
C49 O53 1.241 . S
C50 O43 1.247 . S
C50 O44 1.261 . S
C51 O46 1.259 . S
C51 O48 1.235 . S
O52 Co42 2.021 . S
O52 C49 1.238 . S
O53 Co47 2.052 . S
O53 C49 1.241 . S
O54 Co42 2.137 . S
O54 C45 1.247 . S
O55 Co42 2.244 . S
O55 C45 1.272 . S
O55 Co47 2.135 . S
Co56 O57 2.216 . S
Co56 O58 2.091 . S
Co56 O60 2.004 . S
Co56 O66 2.021 . S
Co56 O68 2.137 . S
Co56 O69 2.244 . S
O57 Co56 2.216 . S
O57 C64 1.247 . S
O58 Co56 2.091 . S
O58 C64 1.261 . S
C59 O68 1.247 . S
C59 O69 1.272 . S
O60 Co56 2.004 . S
O60 C65 1.259 . S
Co61 O62 2.061 . S
Co61 O67 2.052 . S
Co61 O69 2.135 . S
O62 Co61 2.061 . S
O62 C65 1.235 . S
C63 O66 1.238 . S
C63 O67 1.241 . S
C64 O57 1.247 . S
C64 O58 1.261 . S
C65 O60 1.259 . S
C65 O62 1.235 . S
O66 Co56 2.021 . S
O66 C63 1.238 . S
O67 Co61 2.052 . S
O67 C63 1.241 . S
O68 Co56 2.137 . S
O68 C59 1.247 . S
O69 Co56 2.244 . S
O69 C59 1.272 . S
O69 Co61 2.135 . S
Co70 O71 2.216 1_556 S
Co70 O72 2.091 1_556 S
Co70 O74 2.004 . S
Co70 O80 2.021 . S
Co70 O82 2.137 1_556 S
Co70 O83 2.244 . S
O71 Co70 2.216 1_554 S
O71 C78 1.247 . S
O72 Co70 2.091 1_554 S
O72 C78 1.261 . S
C73 O82 1.247 1_556 S
C73 O83 1.272 . S
O74 Co70 2.004 . S
O74 C79 1.259 . S
Co75 O76 2.061 . S
Co75 O81 2.052 . S
Co75 O83 2.135 . S
O76 Co75 2.061 . S
O76 C79 1.235 . S
C77 O80 1.238 . S
C77 O81 1.241 . S
C78 O71 1.247 . S
C78 O72 1.261 . S
C79 O74 1.259 . S
C79 O76 1.235 . S
O80 Co70 2.021 . S
O80 C77 1.238 . S
O81 Co75 2.052 . S
O81 C77 1.241 . S
O82 Co70 2.137 1_554 S
O82 C73 1.247 1_554 S
O83 Co70 2.244 . S
O83 C73 1.272 . S
O83 Co75 2.135 . S
H84 C90 0.930 . S
H85 C93 0.930 . S
H86 C94 0.930 1_655 S
H87 C95 0.930 . S
H88 C98 0.930 . S
H89 C99 0.955 . S
C90 H84 0.930 . S
C90 C91 1.355 . S
C90 C92 1.415 . S
C91 C90 1.355 . S
C91 C93 1.419 . S
C92 C90 1.415 . S
C92 C97 1.425 1_455 S
C92 C99 1.406 . S
C93 H85 0.930 . S
C93 C91 1.419 . S
C93 C94 1.362 . S
C94 H86 0.930 1_455 S
C94 C93 1.362 . S
C94 C97 1.409 1_455 S
C95 H87 0.930 . S
C95 C96 1.355 . S
C95 C97 1.415 . S
C96 C95 1.355 . S
C96 C98 1.419 . S
C97 C92 1.425 1_655 S
C97 C94 1.409 1_655 S
C97 C95 1.415 . S
C98 H88 0.930 . S
C98 C96 1.419 . S
C98 C99 1.342 1_655 S
C99 H89 0.955 . S
C99 C92 1.406 . S
C99 C98 1.342 1_455 S
H100 C106 0.930 . S
H101 C109 0.930 . S
H102 C110 0.930 1_554 S
H103 C111 0.930 . S
H104 C114 0.930 . S
H105 C115 0.930 . S
C106 H100 0.930 . S
C106 C107 1.355 . S
C106 C108 1.415 1_565 S
C107 C106 1.355 . S
C107 C109 1.419 . S
C108 C106 1.415 1_545 S
C108 C113 1.425 1_556 S
C108 C115 1.409 1_556 S
C109 H101 0.930 . S
C109 C107 1.419 . S
C109 C110 1.362 . S
C110 H102 0.930 1_556 S
C110 C109 1.362 . S
C110 C113 1.409 1_566 S
C111 H103 0.930 . S
C111 C112 1.355 . S
C111 C113 1.415 . S
C112 C111 1.355 . S
C112 C114 1.419 . S
C113 C108 1.425 1_554 S
C113 C110 1.409 1_544 S
C113 C111 1.415 . S
C114 H104 0.930 . S
C114 C112 1.419 . S
C114 C115 1.362 . S
C115 H105 0.930 . S
C115 C108 1.409 1_554 S
C115 C114 1.362 . S
H116 C122 0.930 . S
H117 C125 0.930 . S
H118 C126 0.930 . S
H119 C127 0.930 . S
H120 C130 0.930 . S
H121 C131 0.930 . S
C122 H116 0.930 . S
C122 C123 1.355 . S
C122 C124 1.415 . S
C123 C122 1.355 . S
C123 C125 1.419 . S
C124 C122 1.415 . S
C124 C129 1.425 . S
C124 C131 1.409 . S
C125 H117 0.930 . S
C125 C123 1.419 . S
C125 C126 1.362 . S
C126 H118 0.930 . S
C126 C125 1.362 . S
C126 C129 1.409 . S
C127 H119 0.930 . S
C127 C128 1.355 . S
C127 C129 1.415 . S
C128 C127 1.355 . S
C128 C130 1.419 . S
C129 C124 1.425 . S
C129 C126 1.409 . S
C129 C127 1.415 . S
C130 H120 0.930 . S
C130 C128 1.419 . S
C130 C131 1.362 . S
C131 H121 0.930 . S
C131 C124 1.409 . S
C131 C130 1.362 . S
H132 C138 0.930 . S
H133 C141 0.930 . S
H134 C142 0.930 . S
H135 C143 0.930 . S
H136 C146 0.930 . S
H137 C147 0.930 . S
C138 H132 0.930 . S
C138 C139 1.355 . S
C138 C140 1.415 . S
C139 C138 1.355 . S
C139 C141 1.419 . S
C140 C138 1.415 . S
C140 C145 1.425 . S
C140 C147 1.409 1_655 S
C141 H133 0.930 . S
C141 C139 1.419 . S
C141 C142 1.362 . S
C142 H134 0.930 . S
C142 C141 1.362 . S
C142 C145 1.409 . S
C143 H135 0.930 . S
C143 C144 1.355 . S
C143 C145 1.415 1_455 S
C144 C143 1.355 . S
C144 C146 1.419 . S
C145 C140 1.425 . S
C145 C142 1.409 . S
C145 C143 1.415 1_655 S
C146 H136 0.930 . S
C146 C144 1.419 . S
C146 C147 1.362 . S
C147 H137 0.930 . S
C147 C140 1.409 1_455 S
C147 C146 1.362 . S
H148 C154 0.930 . S
H149 C157 0.930 . S
H150 C158 0.930 . S
H151 C159 0.930 . S
H152 C162 0.930 . S
H153 C163 0.930 . S
C154 H148 0.930 . S
C154 C155 1.355 . S
C154 C156 1.415 . S
C155 C154 1.355 . S
C155 C157 1.419 . S
C156 C154 1.415 . S
C156 C161 1.425 1_545 S
C156 C163 1.409 . S
C157 H149 0.930 . S
C157 C155 1.419 . S
C157 C158 1.362 1_545 S
C158 H150 0.930 . S
C158 C157 1.362 1_565 S
C158 C161 1.409 . S
C159 H151 0.930 . S
C159 C160 1.355 . S
C159 C161 1.415 . S
C160 C159 1.355 . S
C160 C162 1.419 . S
C161 C156 1.425 1_565 S
C161 C158 1.409 . S
C161 C159 1.415 . S
C162 H152 0.930 . S
C162 C160 1.419 . S
C162 C163 1.362 1_565 S
C163 H153 0.930 . S
C163 C156 1.409 . S
C163 C162 1.362 1_545 S
H164 C170 0.930 . S
H165 C173 0.930 . S
H166 C174 0.930 . S
H167 C175 0.930 . S
H168 C178 0.930 . S
H169 C179 0.930 . S
C170 H164 0.930 . S
C170 C171 1.355 . S
C170 C172 1.415 . S
C171 C170 1.355 . S
C171 C173 1.419 . S
C172 C170 1.415 . S
C172 C177 1.425 . S
C172 C179 1.409 . S
C173 H165 0.930 . S
C173 C171 1.419 . S
C173 C174 1.362 . S
C174 H166 0.930 . S
C174 C173 1.362 . S
C174 C177 1.409 . S
C175 H167 0.930 . S
C175 C176 1.355 . S
C175 C177 1.415 . S
C176 C175 1.355 . S
C176 C178 1.419 . S
C177 C172 1.425 . S
C177 C174 1.409 . S
C177 C175 1.415 . S
C178 H168 0.930 . S
C178 C176 1.419 . S
C178 C179 1.362 . S
C179 H169 0.930 . S
C179 C172 1.409 . S
C179 C178 1.362 . S
H180 C186 0.930 . S
H181 C189 0.930 . S
H182 C190 0.930 . S
H183 C191 0.930 . S
H184 C194 0.930 . S
H185 C195 0.930 . S
C186 H180 0.930 . S
C186 C187 1.355 . S
C186 C188 1.415 . S
C187 C186 1.355 . S
C187 C189 1.419 . S
C188 C186 1.415 . S
C188 C193 1.425 . S
C188 C195 1.409 . S
C189 H181 0.930 . S
C189 C187 1.419 . S
C189 C190 1.362 . S
C190 H182 0.930 . S
C190 C189 1.362 . S
C190 C193 1.409 . S
C191 H183 0.930 . S
C191 C192 1.355 . S
C191 C193 1.415 . S
C192 C191 1.355 . S
C192 C194 1.419 . S
C193 C188 1.425 . S
C193 C190 1.409 . S
C193 C191 1.415 . S
C194 H184 0.930 . S
C194 C192 1.419 . S
C194 C195 1.362 . S
C195 H185 0.930 . S
C195 C188 1.409 . S
C195 C194 1.362 . S
H196 C202 0.930 . S
H197 C205 0.930 . S
H198 C206 0.930 . S
H199 C207 0.930 . S
H200 C210 0.930 . S
H201 C211 0.930 . S
C202 H196 0.930 . S
C202 C203 1.355 . S
C202 C204 1.415 . S
C203 C202 1.355 . S
C203 C205 1.419 . S
C204 C202 1.415 . S
C204 C209 1.425 . S
C204 C211 1.409 . S
C205 H197 0.930 . S
C205 C203 1.419 . S
C205 C206 1.362 . S
C206 H198 0.930 . S
C206 C205 1.362 . S
C206 C209 1.409 . S
C207 H199 0.930 . S
C207 C208 1.355 . S
C207 C209 1.415 . S
C208 C207 1.355 . S
C208 C210 1.419 . S
C209 C204 1.425 . S
C209 C206 1.409 . S
C209 C207 1.415 . S
C210 H200 0.930 . S
C210 C208 1.419 . S
C210 C211 1.362 . S
C211 H201 0.930 . S
C211 C204 1.409 . S
C211 C210 1.362 . S
H212 C218 0.930 . S
H213 C221 0.930 . S
H214 C222 0.930 . S
H215 C223 0.930 . S
H216 C226 0.930 . S
H217 C227 0.930 . S
C218 H212 0.930 . S
C218 C219 1.355 . S
C218 C220 1.415 . S
C219 C218 1.355 . S
C219 C221 1.419 . S
C220 C218 1.415 . S
C220 C225 1.425 . S
C220 C227 1.409 . S
C221 H213 0.930 . S
C221 C219 1.419 . S
C221 C222 1.362 . S
C222 H214 0.930 . S
C222 C221 1.362 . S
C222 C225 1.409 . S
C223 H215 0.930 . S
C223 C224 1.355 . S
C223 C225 1.415 . S
C224 C223 1.355 . S
C224 C226 1.419 . S
C225 C220 1.425 . S
C225 C222 1.409 . S
C225 C223 1.415 . S
C226 H216 0.930 . S
C226 C224 1.419 . S
C226 C227 1.362 . S
C227 H217 0.930 . S
C227 C220 1.409 . S
C227 C226 1.362 . S
H228 C234 0.930 . S
H229 C237 0.930 . S
H230 C238 0.930 . S
H231 C239 0.930 . S
H232 C242 0.930 . S
H233 C243 0.930 . S
C234 H228 0.930 . S
C234 C235 1.355 . S
C234 C236 1.415 . S
C235 C234 1.355 . S
C235 C237 1.419 . S
C236 C234 1.415 . S
C236 C241 1.425 . S
C236 C243 1.409 . S
C237 H229 0.930 . S
C237 C235 1.419 . S
C237 C238 1.362 . S
C238 H230 0.930 . S
C238 C237 1.362 . S
C238 C241 1.409 . S
C239 H231 0.930 . S
C239 C240 1.355 . S
C239 C241 1.415 . S
C240 C239 1.355 . S
C240 C242 1.419 . S
C241 C236 1.425 . S
C241 C238 1.409 . S
C241 C239 1.415 . S
C242 H232 0.930 . S
C242 C240 1.419 . S
C242 C243 1.362 . S
C243 H233 0.930 . S
C243 C236 1.409 . S
C243 C242 1.362 . S
H244 C250 0.930 . S
H245 C253 0.930 . S
H246 C254 0.930 . S
H247 C255 0.930 1_554 S
H248 C258 0.930 . S
H249 C259 0.930 . S
C250 H244 0.930 . S
C250 C251 1.355 . S
C250 C252 1.415 . S
C251 C250 1.355 . S
C251 C253 1.419 . S
C252 C250 1.415 . S
C252 C257 1.425 . S
C252 C259 1.409 . S
C253 H245 0.930 . S
C253 C251 1.419 . S
C253 C254 1.362 . S
C254 H246 0.930 . S
C254 C253 1.362 . S
C254 C257 1.409 . S
C255 H247 0.930 1_556 S
C255 C256 1.355 . S
C255 C257 1.415 . S
C256 C255 1.355 . S
C256 C258 1.419 . S
C257 C252 1.425 . S
C257 C254 1.409 . S
C257 C255 1.415 . S
C258 H248 0.930 . S
C258 C256 1.419 . S
C258 C259 1.362 . S
C259 H249 0.930 . S
C259 C252 1.409 . S
C259 C258 1.362 . S
H260 C266 0.930 . S
H261 C269 0.930 . S
H262 C270 0.930 . S
H263 C271 0.930 . S
H264 C274 0.930 . S
H265 C275 0.930 1_556 S
C266 H260 0.930 . S
C266 C267 1.355 1_556 S
C266 C268 1.415 1_556 S
C267 C266 1.355 1_554 S
C267 C269 1.419 . S
C268 C266 1.415 1_554 S
C268 C273 1.425 . S
C268 C275 1.409 . S
C269 H261 0.930 . S
C269 C267 1.419 . S
C269 C270 1.362 . S
C270 H262 0.930 . S
C270 C269 1.362 . S
C270 C273 1.409 . S
C271 H263 0.930 . S
C271 C272 1.355 . S
C271 C273 1.415 . S
C272 C271 1.355 . S
C272 C274 1.419 . S
C273 C268 1.425 . S
C273 C270 1.409 . S
C273 C271 1.415 . S
C274 H264 0.930 . S
C274 C272 1.419 . S
C274 C275 1.362 . S
C275 H265 0.930 1_554 S
C275 C268 1.409 . S
C275 C274 1.362 . S
C91 C7 1.330 . S
C96 C50 1.355 . S
C107 C64 1.356 . S
C112 C21 1.335 . S
C123 C35 1.351 . S
C128 C78 1.344 . S
C139 C49 1.334 . S
C144 C8 1.336 . S
C155 C22 1.340 . S
C160 C63 1.346 . S
C171 C77 1.338 . S
C176 C36 1.357 . S
C187 C3 1.305 . S
C192 C37 1.258 . S
C203 C17 1.269 . S
C208 C51 1.228 . S
C219 C65 1.297 . S
C224 C31 1.266 . S
C235 C79 1.290 . S
C240 C45 1.255 . S
C251 C59 1.256 . S
C256 C9 1.249 1_556 S
C267 C73 1.258 1_554 S
C272 C23 1.244 . S
