# Generated by pormake.
# Topology crb, (4)-cn, num edge types: 1
# Building blocks:
#     Node 0, Type 0, BuildingBlock: CEKHIL_clean_sbu_0, # of connection points: 4
#     Node 1, Type 0, BuildingBlock: CEKHIL_clean_sbu_0, # of connection points: 4
#     Node 2, Type 0, BuildingBlock: CEKHIL_clean_sbu_0, # of connection points: 4
#     Node 3, Type 0, BuildingBlock: CEKHIL_clean_sbu_0, # of connection points: 4
#     Node 4, Type 0, BuildingBlock: CEKHIL_clean_sbu_0, # of connection points: 4
#     Node 5, Type 0, BuildingBlock: CEKHIL_clean_sbu_0, # of connection points: 4
#     Node 6, Type 0, BuildingBlock: CEKHIL_clean_sbu_0, # of connection points: 4
#     Node 7, Type 0, BuildingBlock: CEKHIL_clean_sbu_0, # of connection points: 4
#     Edge 8, Type (0, 0), BuildingBlock: ZUJKAS_clean_linker_0, # of connection points: 2
#     Edge 9, Type (0, 0), BuildingBlock: ZUJKAS_clean_linker_0, # of connection points: 2
#     Edge 10, Type (0, 0), BuildingBlock: ZUJKAS_clean_linker_0, # of connection points: 2
#     Edge 11, Type (0, 0), BuildingBlock: ZUJKAS_clean_linker_0, # of connection points: 2
#     Edge 12, Type (0, 0), BuildingBlock: ZUJKAS_clean_linker_0, # of connection points: 2
#     Edge 13, Type (0, 0), BuildingBlock: ZUJKAS_clean_linker_0, # of connection points: 2
#     Edge 14, Type (0, 0), BuildingBlock: ZUJKAS_clean_linker_0, # of connection points: 2
#     Edge 15, Type (0, 0), BuildingBlock: ZUJKAS_clean_linker_0, # of connection points: 2
#     Edge 16, Type (0, 0), BuildingBlock: ZUJKAS_clean_linker_0, # of connection points: 2
#     Edge 17, Type (0, 0), BuildingBlock: ZUJKAS_clean_linker_0, # of connection points: 2
#     Edge 18, Type (0, 0), BuildingBlock: ZUJKAS_clean_linker_0, # of connection points: 2
#     Edge 19, Type (0, 0), BuildingBlock: ZUJKAS_clean_linker_0, # of connection points: 2
#     Edge 20, Type (0, 0), BuildingBlock: ZUJKAS_clean_linker_0, # of connection points: 2
#     Edge 21, Type (0, 0), BuildingBlock: ZUJKAS_clean_linker_0, # of connection points: 2
#     Edge 22, Type (0, 0), BuildingBlock: ZUJKAS_clean_linker_0, # of connection points: 2
#     Edge 23, Type (0, 0), BuildingBlock: ZUJKAS_clean_linker_0, # of connection points: 2
# Relax obj value: 0.118
# Max RMSD: 0.159
# Mean RMSD: 0.159
data_MOF--net-crb--node1-CEKHIL_clean_sbu_0--edge1-ZUJKAS_clean_linker_0
_symmetry_space_group_name_H-M    P1
_symmetry_Int_Tables_number       1
_symmetry_cell_setting            triclinic
loop_
_symmetry_equiv_pos_as_xyz
'x, y, z'
_cell_length_a     56.813663
_cell_length_b     55.70953
_cell_length_c     29.746906
_cell_angle_alpha  89.98696
_cell_angle_beta   90.001086
_cell_angle_gamma 90.021163
loop_
_atom_site_label
_atom_site_type_symbol
_atom_site_fract_x
_atom_site_fract_y
_atom_site_fract_z
_atom_type_partial_charge
Co0 Co 0.33086 0.33235 0.0349 0.0
O1 O 0.30091 0.32918 0.06527 0.0
O2 O 0.33195 0.30613 0.07736 0.0
C3 C 0.33346 0.37257 0.04272 0.0
O4 O 0.3651 0.33063 0.01414 0.0
Co5 Co 0.33848 0.36251 0.94847 0.0
O6 O 0.37244 0.35887 0.96218 0.0
C7 C 0.31269 0.31629 0.94413 0.0
C8 C 0.3105 0.31184 0.08804 0.0
C9 C 0.37946 0.34287 0.98968 0.0
O10 O 0.31948 0.31063 0.98425 0.0
O11 O 0.31679 0.3368 0.92636 0.0
O12 O 0.33969 0.35857 0.0756 0.0
O13 O 0.32475 0.36204 0.00795 0.0
Co14 Co 0.67836 0.33392 0.02844 0.0
O15 O 0.70881 0.33201 0.99955 0.0
O16 O 0.67871 0.30801 0.9852 0.0
C17 C 0.67485 0.37419 0.02193 0.0
O18 O 0.64383 0.33114 0.04718 0.0
Co19 Co 0.66886 0.36295 0.11571 0.0
O20 O 0.63525 0.35864 0.09988 0.0
C21 C 0.69556 0.31732 0.11972 0.0
C22 C 0.7001 0.31459 0.97576 0.0
C23 C 0.62892 0.34284 0.07139 0.0
O24 O 0.6895 0.31198 0.07903 0.0
O25 O 0.69076 0.33753 0.13804 0.0
O26 O 0.66966 0.36039 0.98809 0.0
O27 O 0.6832 0.36344 0.05678 0.0
Co28 Co 0.67542 0.67175 0.03245 0.0
O29 O 0.70623 0.67598 0.05939 0.0
O30 O 0.67427 0.69638 0.07791 0.0
C31 C 0.67526 0.63122 0.03577 0.0
O32 O 0.64043 0.67212 0.01638 0.0
Co33 Co 0.66549 0.64389 0.94416 0.0
O34 O 0.63255 0.64332 0.96594 0.0
C35 C 0.68569 0.69306 0.94031 0.0
C36 C 0.69634 0.69184 0.08533 0.0
C37 C 0.6258 0.65877 0.99468 0.0
O38 O 0.68356 0.69575 0.98327 0.0
O39 O 0.68056 0.67358 0.91967 0.0
O40 O 0.66982 0.64382 0.07105 0.0
O41 O 0.68195 0.64332 1.00109 0.0
Co42 Co 0.32868 0.66849 0.02912 0.0
O43 O 0.29919 0.67162 0.99717 0.0
O44 O 0.33052 0.69447 0.98629 0.0
C45 C 0.3313 0.62826 0.02222 0.0
O46 O 0.36251 0.67025 0.05183 0.0
Co47 Co 0.33485 0.63885 0.11655 0.0
O48 O 0.36896 0.64116 0.10251 0.0
C49 C 0.30962 0.6854 0.11864 0.0
C50 C 0.30918 0.68882 0.97465 0.0
C51 C 0.37648 0.65735 0.07587 0.0
O52 O 0.31681 0.69057 0.0786 0.0
O53 O 0.31327 0.66503 0.13737 0.0
O54 O 0.33802 0.64207 0.98942 0.0
O55 O 0.32204 0.63896 0.0563 0.0
Co56 Co 0.82956 0.83109 0.53228 0.0
O57 O 0.79887 0.82807 0.56017 0.0
O58 O 0.83029 0.8068 0.57849 0.0
C59 C 0.83107 0.8716 0.53406 0.0
O60 O 0.86444 0.82964 0.51533 0.0
Co61 Co 0.839 0.85731 0.44199 0.0
O62 O 0.87241 0.85611 0.46054 0.0
C63 C 0.81803 0.80864 0.44139 0.0
C64 C 0.8084 0.81205 0.58626 0.0
C65 C 0.87911 0.84142 0.49072 0.0
O66 O 0.82044 0.80671 0.48442 0.0
O67 O 0.82331 0.82758 0.41926 0.0
O68 O 0.83621 0.85917 0.56972 0.0
O69 O 0.82364 0.8594 0.50001 0.0
Co70 Co 0.17822 0.83263 0.52866 0.0
O71 O 0.20886 0.82951 0.50073 0.0
O72 O 0.17786 0.80699 0.48503 0.0
C73 C 0.1761 0.873 0.52273 0.0
O74 O 0.14343 0.83107 0.54629 0.0
Co75 Co 0.16882 0.86151 0.61619 0.0
O76 O 0.13531 0.85868 0.59902 0.0
C77 C 0.19069 0.81327 0.62147 0.0
C78 C 0.1996 0.81257 0.47641 0.0
C79 C 0.12872 0.84309 0.57038 0.0
O80 O 0.18785 0.80984 0.57887 0.0
O81 O 0.18548 0.83294 0.64134 0.0
O82 O 0.17096 0.8595 0.48848 0.0
O83 O 0.18382 0.86192 0.55781 0.0
Co84 Co 0.17761 0.1704 0.5345 0.0
O85 O 0.20856 0.1734 0.56125 0.0
O86 O 0.1776 0.19535 0.57956 0.0
C87 C 0.17586 0.12993 0.53844 0.0
O88 O 0.14259 0.17196 0.51835 0.0
Co89 Co 0.16729 0.14262 0.44609 0.0
O90 O 0.1341 0.14434 0.46587 0.0
C91 C 0.18899 0.19102 0.44213 0.0
C92 C 0.19949 0.18986 0.58691 0.0
C93 C 0.12768 0.15971 0.49504 0.0
O94 O 0.18661 0.19393 0.48499 0.0
O95 O 0.18357 0.17159 0.42163 0.0
O96 O 0.171 0.14287 0.57359 0.0
O97 O 0.18307 0.14161 0.50365 0.0
Co98 Co 0.8283 0.16879 0.52833 0.0
O99 O 0.79756 0.17201 0.50082 0.0
O100 O 0.82825 0.1951 0.486 0.0
C101 C 0.83084 0.12852 0.5199 0.0
O102 O 0.86311 0.17047 0.54583 0.0
Co103 Co 0.83804 0.13833 0.61392 0.0
O104 O 0.87163 0.14312 0.59893 0.0
C105 C 0.81428 0.18556 0.62194 0.0
C106 C 0.80658 0.18932 0.47711 0.0
C107 C 0.87796 0.15895 0.57048 0.0
O108 O 0.81847 0.19053 0.58022 0.0
O109 O 0.819 0.16515 0.63953 0.0
O110 O 0.83579 0.14267 0.48646 0.0
O111 O 0.82308 0.13894 0.55561 0.0
H112 H 0.30953 0.40532 0.99396 0.0
H113 H 0.31529 0.44859 0.99157 0.0
H114 H 0.37185 0.44248 0.08779 0.0
H115 H 0.36519 0.3989 0.09205 0.0
H116 H 0.34659 0.47938 0.10764 0.0
H117 H 0.36391 0.48516 0.92601 0.0
H118 H 0.33602 0.47097 0.93466 0.0
H119 H 0.36252 0.45676 0.95498 0.0
C120 C 0.32323 0.41318 0.01458 0.0
C121 C 0.33703 0.39879 0.04297 0.0
C122 C 0.3267 0.43792 0.01279 0.0
C123 C 0.34457 0.44879 0.03823 0.0
C124 C 0.35815 0.43448 0.06736 0.0
H125 H 0.36545 0.60244 0.97847 0.0
H126 H 0.37279 0.55908 0.98455 0.0
C127 C 0.35432 0.40964 0.06989 0.0
C128 C 0.34806 0.47521 0.03567 0.0
H129 H 0.34966 0.52179 0.9611 0.0
C130 C 0.3477 0.48862 0.07561 0.0
C131 C 0.35027 0.48741 0.99405 0.0
C132 C 0.3535 0.47425 0.95014 0.0
C133 C 0.34793 0.51381 0.07489 0.0
C134 C 0.34747 0.52598 0.03302 0.0
C135 C 0.34942 0.51258 0.99323 0.0
C136 C 0.34357 0.55233 0.02969 0.0
C137 C 0.34866 0.52702 0.11917 0.0
C138 C 0.32445 0.5629 0.05204 0.0
C139 C 0.32059 0.58757 0.04932 0.0
C140 C 0.33526 0.60212 0.0229 0.0
C141 C 0.35386 0.59155 0.99898 0.0
C142 C 0.35808 0.56683 1.00258 0.0
H143 H 0.35813 0.51637 0.14506 0.0
H144 H 0.35742 0.54475 0.11593 0.0
H145 H 0.33042 0.52979 0.13147 0.0
H146 H 0.31235 0.55207 0.07153 0.0
H147 H 0.30591 0.59524 0.06761 0.0
H148 H 0.41506 0.36029 0.93678 0.0
H149 H 0.45741 0.35632 0.94851 0.0
H150 H 0.44474 0.31348 0.06684 0.0
H151 H 0.40231 0.31686 0.0548 0.0
H152 H 0.48216 0.37247 0.01842 0.0
H153 H 0.49479 0.27414 1.00489 0.0
H154 H 0.46804 0.28885 0.9872 0.0
H155 H 0.47297 0.28234 0.0457 0.0
C156 C 0.42123 0.34972 0.96499 0.0
C157 C 0.4052 0.33886 0.99479 0.0
C158 C 0.44549 0.34748 0.97165 0.0
C159 C 0.45434 0.33436 0.00825 0.0
C160 C 0.43841 0.32321 0.03774 0.0
H161 H 0.59251 0.35794 0.12462 0.0
H162 H 0.55039 0.35447 0.10991 0.0
C163 C 0.4141 0.32529 0.03092 0.0
C164 C 0.48011 0.33388 0.01718 0.0
H165 H 0.52705 0.29661 0.03463 0.0
C166 C 0.49197 0.35586 0.02172 0.0
C167 C 0.49301 0.31222 0.02101 0.0
C168 C 0.48161 0.28805 0.01401 0.0
C169 C 0.51621 0.35683 0.03058 0.0
C170 C 0.52894 0.3352 0.03624 0.0
C171 C 0.51722 0.31318 0.03089 0.0
C172 C 0.55448 0.33522 0.04723 0.0
C173 C 0.52802 0.38109 0.03298 0.0
C174 C 0.57081 0.3245 0.01805 0.0
C175 C 0.595 0.32618 0.02665 0.0
C176 C 0.60332 0.33865 0.06463 0.0
C177 C 0.58681 0.34846 0.09476 0.0
C178 C 0.56268 0.34661 0.08629 0.0
H179 H 0.51752 0.39512 0.01559 0.0
H180 H 0.52983 0.38648 0.06872 0.0
H181 H 0.54585 0.38055 0.01773 0.0
H182 H 0.56488 0.31547 0.98785 0.0
H183 H 0.60718 0.31839 1.00275 0.0
H184 H 0.68608 0.4053 0.08863 0.0
H185 H 0.68268 0.4489 0.0884 0.0
H186 H 0.65257 0.44662 0.95547 0.0
H187 H 0.65602 0.40255 0.9552 0.0
H188 H 0.70465 0.47916 0.01445 0.0
H189 H 0.60821 0.49094 0.04071 0.0
H190 H 0.6236 0.46434 0.05928 0.0
H191 H 0.61821 0.46892 1.00057 0.0
C192 C 0.67855 0.41396 0.05937 0.0
C193 C 0.67137 0.40048 0.02182 0.0
C194 C 0.67662 0.43889 0.05939 0.0
C195 C 0.66729 0.45087 0.02208 0.0
C196 C 0.65964 0.43757 0.98473 0.0
H197 H 0.68373 0.60235 0.96395 0.0
H198 H 0.6806 0.55874 0.95993 0.0
C199 C 0.66169 0.41248 0.98457 0.0
C200 C 0.66702 0.4774 0.02177 0.0
H201 H 0.63118 0.52612 0.03459 0.0
C202 C 0.6886 0.48948 0.01853 0.0
C203 C 0.64606 0.49063 0.02774 0.0
C204 C 0.62262 0.4782 0.0325 0.0
C205 C 0.6898 0.51457 0.02111 0.0
C206 C 0.66882 0.5279 0.02674 0.0
C207 C 0.6472 0.51581 0.03015 0.0
C208 C 0.66916 0.55444 0.02878 0.0
C209 C 0.71357 0.52662 0.0187 0.0
C210 C 0.66316 0.56652 0.0686 0.0
C211 C 0.66489 0.59158 0.07105 0.0
C212 C 0.67254 0.60485 0.03361 0.0
C213 C 0.67793 0.59266 0.99351 0.0
C214 C 0.6762 0.56772 0.99111 0.0
H215 H 0.72817 0.51375 0.02467 0.0
H216 H 0.71597 0.53451 0.98474 0.0
H217 H 0.71486 0.54136 0.04371 0.0
H218 H 0.65763 0.55653 0.098 0.0
H219 H 0.66053 0.6005 0.10231 0.0
H220 H 0.41192 0.62939 0.10987 0.0
H221 H 0.45418 0.63378 0.09794 0.0
H222 H 0.44204 0.6979 0.02008 0.0
H223 H 0.3996 0.69333 0.03086 0.0
H224 H 0.47176 0.66863 0.97796 0.0
H225 H 0.5011 0.67864 0.15417 0.0
H226 H 0.484 0.65191 0.14634 0.0
H227 H 0.47056 0.68084 0.13802 0.0
C228 C 0.41819 0.64463 0.09068 0.0
C229 C 0.40228 0.66106 0.07148 0.0
C230 C 0.44244 0.64719 0.08411 0.0
C231 C 0.45138 0.66642 0.0588 0.0
C232 C 0.43558 0.68299 0.03997 0.0
H233 H 0.60332 0.69379 0.04356 0.0
H234 H 0.56103 0.69777 0.05756 0.0
C235 C 0.4113 0.68036 0.04623 0.0
C236 C 0.47706 0.66834 0.04967 0.0
H237 H 0.531 0.6684 0.10044 0.0
C238 C 0.4847 0.66884 1.00478 0.0
C239 C 0.49399 0.66905 0.08458 0.0
C240 C 0.48699 0.67035 0.13345 0.0
C241 C 0.50874 0.66914 0.99385 0.0
C242 C 0.52567 0.66827 0.02874 0.0
C243 C 0.51805 0.66871 0.07365 0.0
C244 C 0.55131 0.66622 0.01938 0.0
C245 C 0.51572 0.67054 0.94496 0.0
C246 C 0.55998 0.64702 0.99372 0.0
C247 C 0.58408 0.6448 0.98533 0.0
C248 C 0.60016 0.66155 1.00301 0.0
C249 C 0.59147 0.6806 0.02929 0.0
C250 C 0.56728 0.6829 0.03737 0.0
H251 H 0.50163 0.67891 0.92433 0.0
H252 H 0.53218 0.68103 0.94044 0.0
H253 H 0.51866 0.65213 0.93192 0.0
H254 H 0.54811 0.63352 0.98057 0.0
H255 H 0.59011 0.62972 0.96546 0.0
H256 H 0.83001 0.89942 0.4589 0.0
H257 H 0.83434 0.9429 0.45381 0.0
H258 H 0.84307 0.94687 0.59771 0.0
H259 H 0.8396 0.90311 0.60281 0.0
H260 H 0.80677 0.9763 0.48818 0.0
H261 H 0.89651 0.98866 0.55719 0.0
H262 H 0.88517 0.95955 0.54172 0.0
H263 H 0.8775 0.97274 0.595 0.0
C264 C 0.83314 0.9095 0.48945 0.0
C265 C 0.83455 0.89785 0.53128 0.0
C266 C 0.8356 0.93437 0.48647 0.0
C267 C 0.83938 0.94818 0.52525 0.0
C268 C 0.84081 0.93658 0.56715 0.0
H269 H 0.82822 0.09732 0.58998 0.0
H270 H 0.83211 0.05371 0.58817 0.0
C271 C 0.83864 0.91159 0.57009 0.0
C272 C 0.84032 0.97477 0.52188 0.0
H273 H 0.87294 0.0241 0.55004 0.0
C274 C 0.82139 0.9867 0.50121 0.0
C275 C 0.85943 0.98838 0.53882 0.0
C276 C 0.88091 0.97667 0.55901 0.0
C277 C 0.82075 0.01182 0.49813 0.0
C278 C 0.83953 0.02537 0.51607 0.0
C279 C 0.8586 0.01356 0.53625 0.0
C280 C 0.83883 0.05189 0.51675 0.0
C281 C 0.79969 0.02382 0.47693 0.0
C282 C 0.84169 0.06531 0.47715 0.0
C283 C 0.83963 0.09037 0.47806 0.0
C284 C 0.83451 0.10226 0.51856 0.0
C285 C 0.83211 0.08871 0.5582 0.0
C286 C 0.83438 0.06379 0.55732 0.0
H287 H 0.78537 0.01086 0.46925 0.0
H288 H 0.79267 0.03795 0.49958 0.0
H289 H 0.80513 0.03264 0.44513 0.0
H290 H 0.84524 0.05636 0.44554 0.0
H291 H 0.84157 0.10035 0.44703 0.0
H292 H 0.09299 0.85817 0.62501 0.0
H293 H 0.05074 0.85399 0.61303 0.0
H294 H 0.06376 0.81562 0.48961 0.0
H295 H 0.10622 0.81922 0.50188 0.0
H296 H 0.02582 0.87229 0.54511 0.0
H297 H 0.01432 0.77348 0.54762 0.0
H298 H 0.04092 0.78794 0.56687 0.0
H299 H 0.03591 0.78348 0.50774 0.0
C300 C 0.08694 0.84858 0.59552 0.0
C301 C 0.10307 0.83904 0.56438 0.0
C302 C 0.06273 0.8462 0.58874 0.0
C303 C 0.05402 0.83427 0.55068 0.0
C304 C 0.07003 0.82442 0.51977 0.0
H305 H 0.91522 0.85863 0.43905 0.0
H306 H 0.95738 0.85563 0.45333 0.0
C307 C 0.09433 0.82662 0.52671 0.0
C308 C 0.02824 0.83374 0.54205 0.0
H309 H 0.9815 0.79653 0.5223 0.0
C310 C 0.01614 0.8557 0.54033 0.0
C311 C 0.01553 0.81209 0.53631 0.0
C312 C 0.02727 0.78789 0.54015 0.0
C313 C 0.99182 0.85665 0.53249 0.0
C314 C 0.97925 0.83508 0.52506 0.0
C315 C 0.99122 0.81307 0.5275 0.0
C316 C 0.95368 0.83518 0.51475 0.0
C317 C 0.97973 0.88079 0.533 0.0
C318 C 0.93758 0.82383 0.54358 0.0
C319 C 0.91335 0.82532 0.53532 0.0
C320 C 0.90479 0.83819 0.49801 0.0
C321 C 0.92109 0.84881 0.4684 0.0
C322 C 0.94525 0.8472 0.47658 0.0
H323 H 0.99031 0.89446 0.55121 0.0
H324 H 0.97735 0.88712 0.49793 0.0
H325 H 0.96212 0.87958 0.54904 0.0
H326 H 0.94374 0.81434 0.57312 0.0
H327 H 0.90134 0.81688 0.55877 0.0
H328 H 0.17793 0.10121 0.46474 0.0
H329 H 0.17383 0.05772 0.4613 0.0
H330 H 0.16279 0.05538 0.60473 0.0
H331 H 0.16616 0.09926 0.60822 0.0
H332 H 0.20154 0.02515 0.50009 0.0
H333 H 0.11006 0.01275 0.56093 0.0
H334 H 0.12152 0.0417 0.54467 0.0
H335 H 0.12823 0.02944 0.59914 0.0
C336 C 0.17434 0.09152 0.49555 0.0
C337 C 0.17232 0.10366 0.53679 0.0
C338 C 0.17202 0.06663 0.4935 0.0
C339 C 0.16772 0.05328 0.53262 0.0
C340 C 0.16554 0.06535 0.57392 0.0
H341 H 0.17915 0.90311 0.59445 0.0
H342 H 0.1754 0.94679 0.59491 0.0
C343 C 0.16764 0.09038 0.57594 0.0
C344 C 0.16706 0.02668 0.53015 0.0
H345 H 0.13358 0.97738 0.55459 0.0
C346 C 0.18657 0.01475 0.51164 0.0
C347 C 0.1475 0.0131 0.54517 0.0
C348 C 0.12554 0.02489 0.56319 0.0
C349 C 0.18724 0.98965 0.50847 0.0
C350 C 0.1679 0.97613 0.52416 0.0
C351 C 0.14833 0.98792 0.54251 0.0
C352 C 0.16837 0.94963 0.52372 0.0
C353 C 0.2088 0.97761 0.48928 0.0
C354 C 0.16532 0.93683 0.48349 0.0
C355 C 0.16731 0.91178 0.4831 0.0
C356 C 0.17257 0.89927 0.52289 0.0
C357 C 0.17516 0.91221 0.56319 0.0
C358 C 0.17296 0.93715 0.56361 0.0
H359 H 0.22323 0.99057 0.48244 0.0
H360 H 0.21534 0.96368 0.51288 0.0
H361 H 0.2041 0.96851 0.45733 0.0
H362 H 0.16175 0.94627 0.45239 0.0
H363 H 0.16523 0.90228 0.45158 0.0
H364 H 0.91302 0.14946 0.63063 0.0
H365 H 0.95534 0.15435 0.62023 0.0
H366 H 0.94336 0.18295 0.48741 0.0
H367 H 0.90083 0.17886 0.49823 0.0
H368 H 0.98178 0.13209 0.56127 0.0
H369 H 0.99128 0.22989 0.53313 0.0
H370 H 0.96445 0.2167 0.5543 0.0
H371 H 0.97081 0.21621 0.49502 0.0
C372 C 0.91934 0.15711 0.59941 0.0
C373 C 0.90351 0.16376 0.56524 0.0
C374 C 0.94358 0.15992 0.59352 0.0
C375 C 0.95263 0.16927 0.55323 0.0
C376 C 0.93686 0.17628 0.51925 0.0
H377 H 0.09124 0.13863 0.44972 0.0
H378 H 0.04921 0.14238 0.46436 0.0
C379 C 0.91252 0.17378 0.52538 0.0
C380 C 0.97855 0.16973 0.54572 0.0
H381 H 0.02472 0.20559 0.51501 0.0
C382 C 0.99114 0.14824 0.55149 0.0
C383 C 0.9909 0.19082 0.53337 0.0
C384 C 0.97871 0.21476 0.52903 0.0
C385 C 0.01553 0.14714 0.54451 0.0
C386 C 0.02769 0.16795 0.53029 0.0
C387 C 0.0153 0.1896 0.52544 0.0
C388 C 0.05321 0.16727 0.51961 0.0
C389 C 0.02811 0.1237 0.55287 0.0
C390 C 0.06944 0.18069 0.54484 0.0
C391 C 0.09364 0.17867 0.53645 0.0
C392 C 0.10202 0.16326 0.50251 0.0
C393 C 0.08555 0.1505 0.47639 0.0
C394 C 0.06146 0.15256 0.48478 0.0
H395 H 0.01769 0.11159 0.57492 0.0
H396 H 0.03091 0.11438 0.52033 0.0
H397 H 0.04557 0.12677 0.56863 0.0
H398 H 0.06341 0.19224 0.57175 0.0
H399 H 0.10578 0.18883 0.55713 0.0
H400 H 0.22501 0.22251 0.46179 0.0
H401 H 0.24668 0.24737 0.40708 0.0
H402 H 0.19743 0.22697 0.3036 0.0
H403 H 0.1761 0.2022 0.3574 0.0
H404 H 0.24553 0.21585 0.28534 0.0
H405 H 0.23256 0.31116 0.33591 0.0
H406 H 0.2406 0.28996 0.37901 0.0
H407 H 0.21238 0.28766 0.3524 0.0
C408 C 0.21845 0.224 0.42771 0.0
C409 C 0.19899 0.21031 0.41373 0.0
C410 C 0.23085 0.23814 0.39648 0.0
C411 C 0.2237 0.23892 0.35121 0.0
C412 C 0.20332 0.22655 0.33825 0.0
H413 H 0.26504 0.31875 0.11568 0.0
H414 H 0.24549 0.30124 0.18135 0.0
C415 C 0.19113 0.21242 0.36909 0.0
C416 C 0.2385 0.25014 0.31583 0.0
H417 H 0.25654 0.30389 0.27254 0.0
C418 C 0.2481 0.2351 0.28269 0.0
C419 C 0.24165 0.27522 0.31235 0.0
C420 C 0.2312 0.29209 0.34655 0.0
C421 C 0.26034 0.24444 0.24564 0.0
C422 C 0.2635 0.26956 0.24195 0.0
C423 C 0.25418 0.28463 0.27548 0.0
C424 C 0.27567 0.28048 0.20267 0.0
C425 C 0.26903 0.22732 0.20996 0.0
C426 C 0.29917 0.2747 0.19282 0.0
C427 C 0.31029 0.28444 0.155 0.0
C428 C 0.29823 0.30041 0.12653 0.0
C429 C 0.27478 0.30638 0.13673 0.0
C430 C 0.26362 0.29651 0.17442 0.0
H431 H 0.26008 0.20962 0.21204 0.0
H432 H 0.26621 0.23481 0.17579 0.0
H433 H 0.28817 0.22429 0.21462 0.0
H434 H 0.30897 0.26273 0.21455 0.0
H435 H 0.32847 0.27972 0.14848 0.0
H436 H 0.6974 0.26765 0.11291 0.0
H437 H 0.71485 0.23967 0.16806 0.0
H438 H 0.73962 0.29969 0.24624 0.0
H439 H 0.72266 0.32738 0.19221 0.0
H440 H 0.76613 0.23905 0.20842 0.0
H441 H 0.69401 0.2574 0.3295 0.0
H442 H 0.69083 0.26183 0.2696 0.0
H443 H 0.70632 0.28356 0.30299 0.0
C444 C 0.70688 0.2748 0.14151 0.0
C445 C 0.70829 0.29976 0.14845 0.0
C446 C 0.71676 0.25883 0.173 0.0
C447 C 0.72815 0.26769 0.21157 0.0
C448 C 0.7306 0.2925 0.2171 0.0
H449 H 0.82194 0.22445 0.41996 0.0
H450 H 0.80191 0.24035 0.35359 0.0
C451 C 0.72082 0.3083 0.18605 0.0
C452 C 0.73684 0.25163 0.24771 0.0
H453 H 0.7291 0.24023 0.35956 0.0
C454 C 0.75784 0.23888 0.24127 0.0
C455 C 0.72591 0.25132 0.29043 0.0
C456 C 0.7029 0.26408 0.29867 0.0
C457 C 0.76884 0.22684 0.27719 0.0
C458 C 0.75874 0.22797 0.32073 0.0
C459 C 0.73703 0.23958 0.32641 0.0
C460 C 0.77085 0.2182 0.36119 0.0
C461 C 0.79132 0.21325 0.26826 0.0
C462 C 0.7597 0.20116 0.38873 0.0
C463 C 0.77102 0.19222 0.4271 0.0
C464 C 0.79367 0.20029 0.43888 0.0
C465 C 0.80454 0.2178 0.41185 0.0
C466 C 0.79321 0.22671 0.37354 0.0
H467 H 0.79265 0.20778 0.23243 0.0
H468 H 0.80657 0.22502 0.2759 0.0
H469 H 0.79256 0.19698 0.28969 0.0
H470 H 0.74234 0.19453 0.38021 0.0
H471 H 0.76217 0.17872 0.44711 0.0
H472 H 0.77796 0.78286 0.45855 0.0
H473 H 0.7565 0.75768 0.4041 0.0
H474 H 0.81348 0.76546 0.30954 0.0
H475 H 0.83459 0.79093 0.36305 0.0
H476 H 0.75032 0.78161 0.30554 0.0
H477 H 0.7893 0.69005 0.31297 0.0
H478 H 0.78754 0.70927 0.36188 0.0
H479 H 0.80858 0.7156 0.3186 0.0
C480 C 0.7862 0.77845 0.42676 0.0
C481 C 0.80792 0.78872 0.41494 0.0
C482 C 0.77391 0.76422 0.39565 0.0
C483 C 0.78349 0.7597 0.35293 0.0
C484 C 0.8059 0.76858 0.34246 0.0
H485 H 0.74392 0.6936 0.10065 0.0
H486 H 0.76417 0.71021 0.1665 0.0
C487 C 0.81793 0.78309 0.37304 0.0
C488 C 0.76913 0.7487 0.31683 0.0
H489 H 0.76358 0.69833 0.2524 0.0
C490 C 0.75291 0.7633 0.29418 0.0
C491 C 0.77304 0.72504 0.30167 0.0
C492 C 0.79048 0.7089 0.32497 0.0
C493 C 0.7409 0.75509 0.25587 0.0
C494 C 0.74461 0.73126 0.24066 0.0
C495 C 0.76065 0.71655 0.26392 0.0
C496 C 0.73227 0.7214 0.20042 0.0
C497 C 0.72521 0.7725 0.23105 0.0
C498 C 0.7076 0.72199 0.19745 0.0
C499 C 0.69608 0.71307 0.15942 0.0
C500 C 0.70891 0.7027 0.12397 0.0
C501 C 0.73357 0.70164 0.12726 0.0
C502 C 0.74514 0.71101 0.16501 0.0
H503 H 0.73014 0.79143 0.23817 0.0
H504 H 0.72604 0.76961 0.19415 0.0
H505 H 0.70676 0.76996 0.24225 0.0
H506 H 0.69717 0.72915 0.22479 0.0
H507 H 0.67703 0.71373 0.15835 0.0
H508 H 0.24166 0.82665 0.4399 0.0
H509 H 0.26073 0.81091 0.37216 0.0
H510 H 0.20578 0.75793 0.35894 0.0
H511 H 0.18632 0.774 0.42571 0.0
H512 H 0.27878 0.76809 0.35197 0.0
H513 H 0.2054 0.78621 0.23487 0.0
H514 H 0.20616 0.79836 0.29109 0.0
H515 H 0.19596 0.76816 0.28138 0.0
C516 C 0.23368 0.81159 0.42263 0.0
C517 C 0.21239 0.80166 0.43805 0.0
C518 C 0.24456 0.80267 0.3838 0.0
C519 C 0.23438 0.78365 0.35963 0.0
C520 C 0.21359 0.77314 0.37602 0.0
H521 H 0.2758 0.67653 0.18038 0.0
H522 H 0.25815 0.70453 0.23356 0.0
C523 C 0.2026 0.78217 0.41456 0.0
C524 C 0.24579 0.77422 0.31815 0.0
H525 H 0.23447 0.75761 0.20954 0.0
C526 C 0.26923 0.76627 0.32059 0.0
C527 C 0.23347 0.77207 0.27687 0.0
C528 C 0.20895 0.78191 0.27071 0.0
C529 C 0.28011 0.75495 0.28385 0.0
C530 C 0.26726 0.75144 0.24374 0.0
C531 C 0.24426 0.76034 0.24043 0.0
C532 C 0.27634 0.73565 0.20766 0.0
C533 C 0.30492 0.74566 0.28863 0.0
C534 C 0.29196 0.74409 0.17459 0.0
C535 C 0.30201 0.72805 0.14356 0.0
C536 C 0.29676 0.7034 0.14585 0.0
C537 C 0.28037 0.69537 0.17798 0.0
C538 C 0.27022 0.71133 0.20837 0.0
H539 H 0.31291 0.75063 0.32142 0.0
H540 H 0.30493 0.7258 0.28551 0.0
H541 H 0.31606 0.75293 0.26115 0.0
H542 H 0.29686 0.76287 0.17364 0.0
H543 H 0.31466 0.7347 0.11932 0.0
H544 H 0.1798 0.80403 0.70816 0.0
H545 H 0.20131 0.77886 0.76104 0.0
H546 H 0.24679 0.75477 0.65419 0.0
H547 H 0.22495 0.78005 0.60033 0.0
H548 H 0.23212 0.71795 0.72358 0.0
H549 H 0.26958 0.80164 0.79484 0.0
H550 H 0.23807 0.80191 0.78985 0.0
H551 H 0.25594 0.80048 0.74005 0.0
C552 C 0.19411 0.79306 0.69561 0.0
C553 C 0.2009 0.79423 0.6502 0.0
C554 C 0.2064 0.77871 0.72593 0.0
C555 C 0.22591 0.76538 0.71171 0.0
C556 C 0.23182 0.76509 0.6658 0.0
H557 H 0.3284 0.71989 0.91375 0.0
H558 H 0.30986 0.7367 0.84657 0.0
C559 C 0.21932 0.77942 0.63509 0.0
C560 C 0.24094 0.75355 0.74593 0.0
H561 H 0.27385 0.76626 0.83894 0.0
C562 C 0.24151 0.72842 0.74854 0.0
C563 C 0.25346 0.76728 0.77801 0.0
C564 C 0.25448 0.79433 0.77546 0.0
C565 C 0.25351 0.71669 0.78366 0.0
C566 C 0.26478 0.73051 0.81742 0.0
C567 C 0.265 0.75562 0.8135 0.0
C568 C 0.27617 0.71951 0.85752 0.0
C569 C 0.25403 0.68962 0.78409 0.0
C570 C 0.26332 0.70458 0.88664 0.0
C571 C 0.27392 0.69485 0.92504 0.0
C572 C 0.29749 0.70017 0.93548 0.0
C573 C 0.31018 0.71551 0.9068 0.0
C574 C 0.29963 0.72506 0.86824 0.0
H575 H 0.25148 0.68214 0.74981 0.0
H576 H 0.27092 0.68278 0.7978 0.0
H577 H 0.23949 0.68288 0.80556 0.0
H578 H 0.24499 0.70061 0.87996 0.0
H579 H 0.26364 0.68318 0.94654 0.0
H580 H 0.28323 0.32669 0.8754 0.0
H581 H 0.26585 0.29946 0.82105 0.0
H582 H 0.29524 0.23897 0.89184 0.0
H583 H 0.31302 0.2665 0.94735 0.0
H584 H 0.29521 0.26624 0.76823 0.0
H585 H 0.22305 0.22232 0.86499 0.0
H586 H 0.2348 0.25118 0.8813 0.0
H587 H 0.25197 0.22458 0.88969 0.0
C588 C 0.28594 0.30759 0.87992 0.0
C589 C 0.2998 0.29881 0.91554 0.0
C590 C 0.27591 0.29204 0.84871 0.0
C591 C 0.27935 0.26725 0.8522 0.0
C592 C 0.29231 0.25811 0.8887 0.0
H593 H 0.24465 0.17993 0.61351 0.0
H594 H 0.26556 0.19584 0.67914 0.0
C595 C 0.30241 0.27381 0.92037 0.0
C596 C 0.27036 0.25168 0.81551 0.0
H597 H 0.22488 0.2145 0.78729 0.0
C598 C 0.28009 0.25456 0.77245 0.0
C599 C 0.25051 0.23672 0.82115 0.0
C600 C 0.23928 0.23342 0.86665 0.0
C601 C 0.26998 0.24361 0.73456 0.0
C602 C 0.24972 0.22911 0.73993 0.0
C603 C 0.24043 0.22558 0.78326 0.0
C604 C 0.23704 0.21887 0.7006 0.0
C605 C 0.28035 0.24865 0.6888 0.0
C606 C 0.21397 0.22632 0.69107 0.0
C607 C 0.202 0.21729 0.6536 0.0
C608 C 0.2128 0.20051 0.62495 0.0
C609 C 0.23591 0.19302 0.63461 0.0
C610 C 0.24789 0.20208 0.67214 0.0
H611 H 0.29292 0.26393 0.68952 0.0
H612 H 0.28996 0.23253 0.67688 0.0
H613 H 0.26626 0.25273 0.66407 0.0
H614 H 0.20527 0.2393 0.7125 0.0
H615 H 0.18417 0.22333 0.64735 0.0
H616 H 0.69144 0.27226 0.93222 0.0
H617 H 0.71206 0.25596 0.86669 0.0
H618 H 0.75741 0.31809 0.86446 0.0
H619 H 0.73761 0.33383 0.9312 0.0
H620 H 0.71701 0.27169 0.78315 0.0
H621 H 0.80566 0.26657 0.86093 0.0
H622 H 0.77963 0.273 0.89333 0.0
H623 H 0.79354 0.29627 0.86074 0.0
C624 C 0.70602 0.28227 0.91809 0.0
C625 C 0.71315 0.30413 0.93732 0.0
C626 C 0.71771 0.27303 0.88043 0.0
C627 C 0.7366 0.28557 0.86087 0.0
C628 C 0.7434 0.30767 0.87956 0.0
H629 H 0.79433 0.22986 0.60152 0.0
H630 H 0.77597 0.2582 0.65469 0.0
C631 C 0.73201 0.3167 0.91772 0.0
C632 C 0.74909 0.27536 0.82112 0.0
H633 H 0.80295 0.25638 0.78436 0.0
C634 C 0.73583 0.26845 0.78331 0.0
C635 C 0.77369 0.27114 0.8212 0.0
C636 C 0.78895 0.27692 0.86134 0.0
C637 C 0.74629 0.25671 0.74648 0.0
C638 C 0.7708 0.25223 0.74694 0.0
C639 C 0.78419 0.26004 0.78385 0.0
C640 C 0.78232 0.2362 0.71351 0.0
C641 C 0.73087 0.24805 0.70852 0.0
C642 C 0.79243 0.21482 0.7289 0.0
C643 C 0.80295 0.19889 0.69905 0.0
C644 C 0.80373 0.20378 0.65258 0.0
C645 C 0.79398 0.22548 0.63698 0.0
C646 C 0.78335 0.2416 0.66729 0.0
H647 H 0.71184 0.24964 0.71663 0.0
H648 H 0.73446 0.25892 0.67803 0.0
H649 H 0.73481 0.22901 0.70044 0.0
H650 H 0.7919 0.21021 0.7643 0.0
H651 H 0.81037 0.18256 0.71276 0.0
H652 H 0.67226 0.70472 0.85598 0.0
H653 H 0.69359 0.72951 0.80206 0.0
H654 H 0.74321 0.74947 0.90513 0.0
H655 H 0.72159 0.72461 0.95994 0.0
H656 H 0.72852 0.78799 0.83633 0.0
H657 H 0.76021 0.70203 0.76386 0.0
H658 H 0.72889 0.70382 0.7717 0.0
H659 H 0.74803 0.70418 0.81978 0.0
C660 C 0.68737 0.71485 0.86755 0.0
C661 C 0.6954 0.71257 0.91207 0.0
C662 C 0.69956 0.72897 0.83665 0.0
C663 C 0.72018 0.74095 0.84941 0.0
C664 C 0.72733 0.74027 0.89465 0.0
H665 H 0.82536 0.78083 0.64919 0.0
H666 H 0.80514 0.76523 0.71556 0.0
C667 C 0.71494 0.72618 0.92594 0.0
C668 C 0.73523 0.7519 0.81415 0.0
H669 H 0.76693 0.73715 0.72063 0.0
C670 C 0.73713 0.77695 0.81122 0.0
C671 C 0.74668 0.73741 0.7818 0.0
C672 C 0.74609 0.71035 0.78447 0.0
C673 C 0.74957 0.78791 0.77575 0.0
C674 C 0.76001 0.77339 0.74206 0.0
C675 C 0.75874 0.74832 0.74607 0.0
C676 C 0.77233 0.78363 0.70226 0.0
C677 C 0.75156 0.8149 0.77489 0.0
C678 C 0.76053 0.79887 0.6721 0.0
C679 C 0.77208 0.80784 0.63399 0.0
C680 C 0.79559 0.80156 0.62507 0.0
C681 C 0.80723 0.78599 0.65494 0.0
C682 C 0.79571 0.77711 0.69304 0.0
H683 H 0.74885 0.82276 0.80882 0.0
H684 H 0.76903 0.82067 0.76209 0.0
H685 H 0.73782 0.8223 0.75229 0.0
H686 H 0.7423 0.80365 0.67776 0.0
H687 H 0.7626 0.81976 0.61163 0.0
loop_
_geom_bond_atom_site_label_1
_geom_bond_atom_site_label_2
_geom_bond_distance
_geom_bond_site_symmetry_2
_ccdc_geom_bond_type
Co0 O1 2.216 . S
Co0 O2 2.091 . S
Co0 O4 2.004 . S
Co0 O10 2.021 . S
Co0 O12 2.137 . S
Co0 O13 2.244 . S
O1 Co0 2.216 . S
O1 C8 1.247 . S
O2 Co0 2.091 . S
O2 C8 1.261 . S
C3 O12 1.247 . S
C3 O13 1.272 . S
O4 Co0 2.004 . S
O4 C9 1.259 . S
Co5 O6 2.061 . S
Co5 O11 2.052 . S
Co5 O13 2.135 1_556 S
O6 Co5 2.061 . S
O6 C9 1.235 1_556 S
C7 O10 1.238 1_556 S
C7 O11 1.241 . S
C8 O1 1.247 . S
C8 O2 1.261 . S
C9 O4 1.259 . S
C9 O6 1.235 1_554 S
O10 Co0 2.021 . S
O10 C7 1.238 1_554 S
O11 Co5 2.052 . S
O11 C7 1.241 . S
O12 Co0 2.137 . S
O12 C3 1.247 . S
O13 Co0 2.244 . S
O13 C3 1.272 . S
O13 Co5 2.135 1_554 S
Co14 O15 2.216 . S
Co14 O16 2.091 . S
Co14 O18 2.004 1_556 S
Co14 O24 2.021 1_556 S
Co14 O26 2.137 . S
Co14 O27 2.244 1_556 S
O15 Co14 2.216 . S
O15 C22 1.247 . S
O16 Co14 2.091 . S
O16 C22 1.261 . S
C17 O26 1.247 1_554 S
C17 O27 1.272 . S
O18 Co14 2.004 1_554 S
O18 C23 1.259 . S
Co19 O20 2.061 . S
Co19 O25 2.052 . S
Co19 O27 2.135 . S
O20 Co19 2.061 . S
O20 C23 1.235 . S
C21 O24 1.238 . S
C21 O25 1.241 . S
C22 O15 1.247 . S
C22 O16 1.261 . S
C23 O18 1.259 . S
C23 O20 1.235 . S
O24 Co14 2.021 1_554 S
O24 C21 1.238 . S
O25 Co19 2.052 . S
O25 C21 1.241 . S
O26 Co14 2.137 . S
O26 C17 1.247 1_556 S
O27 Co14 2.244 1_554 S
O27 C17 1.272 . S
O27 Co19 2.135 . S
Co28 O29 2.216 . S
Co28 O30 2.091 . S
Co28 O32 2.004 . S
Co28 O38 2.021 . S
Co28 O40 2.137 . S
Co28 O41 2.244 . S
O29 Co28 2.216 . S
O29 C36 1.247 . S
O30 Co28 2.091 . S
O30 C36 1.261 . S
C31 O40 1.247 . S
C31 O41 1.272 . S
O32 Co28 2.004 . S
O32 C37 1.259 . S
Co33 O34 2.061 . S
Co33 O39 2.052 . S
Co33 O41 2.135 1_556 S
O34 Co33 2.061 . S
O34 C37 1.235 1_556 S
C35 O38 1.238 1_556 S
C35 O39 1.241 . S
C36 O29 1.247 . S
C36 O30 1.261 . S
C37 O32 1.259 . S
C37 O34 1.235 1_554 S
O38 Co28 2.021 . S
O38 C35 1.238 1_554 S
O39 Co33 2.052 . S
O39 C35 1.241 . S
O40 Co28 2.137 . S
O40 C31 1.247 . S
O41 Co28 2.244 . S
O41 C31 1.272 . S
O41 Co33 2.135 1_554 S
Co42 O43 2.216 . S
Co42 O44 2.091 . S
Co42 O46 2.004 1_556 S
Co42 O52 2.021 1_556 S
Co42 O54 2.137 . S
Co42 O55 2.244 1_556 S
O43 Co42 2.216 . S
O43 C50 1.247 . S
O44 Co42 2.091 . S
O44 C50 1.261 . S
C45 O54 1.247 1_554 S
C45 O55 1.272 . S
O46 Co42 2.004 1_554 S
O46 C51 1.259 . S
Co47 O48 2.061 . S
Co47 O53 2.052 . S
Co47 O55 2.135 . S
O48 Co47 2.061 . S
O48 C51 1.235 . S
C49 O52 1.238 . S
C49 O53 1.241 . S
C50 O43 1.247 . S
C50 O44 1.261 . S
C51 O46 1.259 . S
C51 O48 1.235 . S
O52 Co42 2.021 1_554 S
O52 C49 1.238 . S
O53 Co47 2.052 . S
O53 C49 1.241 . S
O54 Co42 2.137 . S
O54 C45 1.247 1_556 S
O55 Co42 2.244 1_554 S
O55 C45 1.272 . S
O55 Co47 2.135 . S
Co56 O57 2.216 . S
Co56 O58 2.091 . S
Co56 O60 2.004 . S
Co56 O66 2.021 . S
Co56 O68 2.137 . S
Co56 O69 2.244 . S
O57 Co56 2.216 . S
O57 C64 1.247 . S
O58 Co56 2.091 . S
O58 C64 1.261 . S
C59 O68 1.247 . S
C59 O69 1.272 . S
O60 Co56 2.004 . S
O60 C65 1.259 . S
Co61 O62 2.061 . S
Co61 O67 2.052 . S
Co61 O69 2.135 . S
O62 Co61 2.061 . S
O62 C65 1.235 . S
C63 O66 1.238 . S
C63 O67 1.241 . S
C64 O57 1.247 . S
C64 O58 1.261 . S
C65 O60 1.259 . S
C65 O62 1.235 . S
O66 Co56 2.021 . S
O66 C63 1.238 . S
O67 Co61 2.052 . S
O67 C63 1.241 . S
O68 Co56 2.137 . S
O68 C59 1.247 . S
O69 Co56 2.244 . S
O69 C59 1.272 . S
O69 Co61 2.135 . S
Co70 O71 2.216 . S
Co70 O72 2.091 . S
Co70 O74 2.004 . S
Co70 O80 2.021 . S
Co70 O82 2.137 . S
Co70 O83 2.244 . S
O71 Co70 2.216 . S
O71 C78 1.247 . S
O72 Co70 2.091 . S
O72 C78 1.261 . S
C73 O82 1.247 . S
C73 O83 1.272 . S
O74 Co70 2.004 . S
O74 C79 1.259 . S
Co75 O76 2.061 . S
Co75 O81 2.052 . S
Co75 O83 2.135 . S
O76 Co75 2.061 . S
O76 C79 1.235 . S
C77 O80 1.238 . S
C77 O81 1.241 . S
C78 O71 1.247 . S
C78 O72 1.261 . S
C79 O74 1.259 . S
C79 O76 1.235 . S
O80 Co70 2.021 . S
O80 C77 1.238 . S
O81 Co75 2.052 . S
O81 C77 1.241 . S
O82 Co70 2.137 . S
O82 C73 1.247 . S
O83 Co70 2.244 . S
O83 C73 1.272 . S
O83 Co75 2.135 . S
Co84 O85 2.216 . S
Co84 O86 2.091 . S
Co84 O88 2.004 . S
Co84 O94 2.021 . S
Co84 O96 2.137 . S
Co84 O97 2.244 . S
O85 Co84 2.216 . S
O85 C92 1.247 . S
O86 Co84 2.091 . S
O86 C92 1.261 . S
C87 O96 1.247 . S
C87 O97 1.272 . S
O88 Co84 2.004 . S
O88 C93 1.259 . S
Co89 O90 2.061 . S
Co89 O95 2.052 . S
Co89 O97 2.135 . S
O90 Co89 2.061 . S
O90 C93 1.235 . S
C91 O94 1.238 . S
C91 O95 1.241 . S
C92 O85 1.247 . S
C92 O86 1.261 . S
C93 O88 1.259 . S
C93 O90 1.235 . S
O94 Co84 2.021 . S
O94 C91 1.238 . S
O95 Co89 2.052 . S
O95 C91 1.241 . S
O96 Co84 2.137 . S
O96 C87 1.247 . S
O97 Co84 2.244 . S
O97 C87 1.272 . S
O97 Co89 2.135 . S
Co98 O99 2.216 . S
Co98 O100 2.091 . S
Co98 O102 2.004 . S
Co98 O108 2.021 . S
Co98 O110 2.137 . S
Co98 O111 2.244 . S
O99 Co98 2.216 . S
O99 C106 1.247 . S
O100 Co98 2.091 . S
O100 C106 1.261 . S
C101 O110 1.247 . S
C101 O111 1.272 . S
O102 Co98 2.004 . S
O102 C107 1.259 . S
Co103 O104 2.061 . S
Co103 O109 2.052 . S
Co103 O111 2.135 . S
O104 Co103 2.061 . S
O104 C107 1.235 . S
C105 O108 1.238 . S
C105 O109 1.241 . S
C106 O99 1.247 . S
C106 O100 1.261 . S
C107 O102 1.259 . S
C107 O104 1.235 . S
O108 Co98 2.021 . S
O108 C105 1.238 . S
O109 Co103 2.052 . S
O109 C105 1.241 . S
O110 Co98 2.137 . S
O110 C101 1.247 . S
O111 Co98 2.244 . S
O111 C101 1.272 . S
O111 Co103 2.135 . S
H112 C120 0.929 . S
H113 C122 0.930 . S
H114 C124 0.930 . S
H115 C127 0.929 . S
H116 C130 0.930 . S
H117 C132 0.960 . S
H118 C132 0.960 . S
H119 C132 0.960 . S
C120 H112 0.929 . S
C120 C121 1.377 . S
C120 C122 1.384 . S
C121 C120 1.377 . S
C121 C127 1.390 . S
C122 H113 0.930 . S
C122 C120 1.384 . S
C122 C123 1.372 . S
C123 C122 1.372 . S
C123 C124 1.400 . S
C123 C128 1.490 . S
C124 H114 0.930 . S
C124 C123 1.400 . S
C124 C127 1.386 . S
H125 C141 0.930 . S
H126 C142 0.931 . S
C127 H115 0.929 . S
C127 C121 1.390 . S
C127 C124 1.386 . S
C128 C123 1.490 . S
C128 C130 1.395 . S
C128 C131 1.403 1_554 S
H129 C135 0.930 . S
C130 H116 0.930 . S
C130 C128 1.395 . S
C130 C133 1.403 . S
C131 C128 1.403 1_556 S
C131 C132 1.524 . S
C131 C135 1.400 . S
C132 H117 0.960 . S
C132 H118 0.960 . S
C132 H119 0.960 . S
C132 C131 1.524 . S
C133 C130 1.403 . S
C133 C134 1.392 . S
C133 C137 1.495 . S
C134 C133 1.392 . S
C134 C135 1.385 1_554 S
C134 C136 1.478 . S
C135 H129 0.930 . S
C135 C131 1.400 . S
C135 C134 1.385 1_556 S
C136 C134 1.478 . S
C136 C138 1.381 . S
C136 C142 1.383 . S
C137 C133 1.495 . S
C137 H143 0.959 . S
C137 H144 0.961 . S
C137 H145 0.960 . S
C138 C136 1.381 . S
C138 C139 1.394 . S
C138 H146 0.930 . S
C139 C138 1.394 . S
C139 C140 1.383 . S
C139 H147 0.929 . S
C140 C139 1.383 . S
C140 C141 1.377 . S
C141 H125 0.930 . S
C141 C140 1.377 . S
C141 C142 1.379 . S
C142 H126 0.931 . S
C142 C136 1.383 . S
C142 C141 1.379 . S
H143 C137 0.959 . S
H144 C137 0.961 . S
H145 C137 0.960 . S
H146 C138 0.930 . S
H147 C139 0.929 . S
H148 C156 0.929 . S
H149 C158 0.930 . S
H150 C160 0.930 . S
H151 C163 0.929 . S
H152 C166 0.930 . S
H153 C168 0.960 . S
H154 C168 0.960 1_556 S
H155 C168 0.960 . S
C156 H148 0.929 . S
C156 C157 1.377 1_556 S
C156 C158 1.384 . S
C157 C156 1.377 1_554 S
C157 C163 1.390 . S
C158 H149 0.930 . S
C158 C156 1.384 . S
C158 C159 1.372 1_556 S
C159 C158 1.372 1_554 S
C159 C160 1.400 . S
C159 C164 1.490 . S
C160 H150 0.930 . S
C160 C159 1.400 . S
C160 C163 1.386 . S
H161 C177 0.930 . S
H162 C178 0.931 . S
C163 H151 0.929 . S
C163 C157 1.390 . S
C163 C160 1.386 . S
C164 C159 1.490 . S
C164 C166 1.395 . S
C164 C167 1.403 . S
H165 C171 0.930 . S
C166 H152 0.930 . S
C166 C164 1.395 . S
C166 C169 1.403 . S
C167 C164 1.403 . S
C167 C168 1.524 . S
C167 C171 1.400 . S
C168 H153 0.960 . S
C168 H154 0.960 1_554 S
C168 H155 0.960 . S
C168 C167 1.524 . S
C169 C166 1.403 . S
C169 C170 1.392 . S
C169 C173 1.495 . S
C170 C169 1.392 . S
C170 C171 1.385 . S
C170 C172 1.478 . S
C171 H165 0.930 . S
C171 C167 1.400 . S
C171 C170 1.385 . S
C172 C170 1.478 . S
C172 C174 1.384 . S
C172 C178 1.383 . S
C173 C169 1.495 . S
C173 H179 0.959 . S
C173 H180 0.961 . S
C173 H181 0.960 . S
C174 C172 1.384 . S
C174 C175 1.394 . S
C174 H182 0.927 1_554 S
C175 C174 1.394 . S
C175 C176 1.383 . S
C175 H183 0.929 1_554 S
C176 C175 1.383 . S
C176 C177 1.377 . S
C177 H161 0.930 . S
C177 C176 1.377 . S
C177 C178 1.379 . S
C178 H162 0.931 . S
C178 C172 1.383 . S
C178 C177 1.379 . S
H179 C173 0.959 . S
H180 C173 0.961 . S
H181 C173 0.960 . S
H182 C174 0.927 1_556 S
H183 C175 0.929 1_556 S
H184 C192 0.929 . S
H185 C194 0.930 . S
H186 C196 0.930 . S
H187 C199 0.929 . S
H188 C202 0.930 1_556 S
H189 C204 0.960 . S
H190 C204 0.960 . S
H191 C204 0.960 . S
C192 H184 0.929 . S
C192 C193 1.377 . S
C192 C194 1.384 . S
C193 C192 1.377 . S
C193 C199 1.390 1_554 S
C194 H185 0.930 . S
C194 C192 1.384 . S
C194 C195 1.372 . S
C195 C194 1.372 . S
C195 C196 1.400 1_554 S
C195 C200 1.490 . S
C196 H186 0.930 . S
C196 C195 1.400 1_556 S
C196 C199 1.386 . S
H197 C213 0.930 . S
H198 C214 0.931 1_556 S
C199 H187 0.929 . S
C199 C193 1.390 1_556 S
C199 C196 1.386 . S
C200 C195 1.490 . S
C200 C202 1.395 . S
C200 C203 1.403 . S
H201 C207 0.930 . S
C202 H188 0.930 1_554 S
C202 C200 1.395 . S
C202 C205 1.403 . S
C203 C200 1.403 . S
C203 C204 1.524 . S
C203 C207 1.400 . S
C204 H189 0.960 . S
C204 H190 0.960 . S
C204 H191 0.960 . S
C204 C203 1.524 . S
C205 C202 1.403 . S
C205 C206 1.392 . S
C205 C209 1.495 1_554 S
C206 C205 1.392 . S
C206 C207 1.385 . S
C206 C208 1.478 . S
C207 H201 0.930 . S
C207 C203 1.400 . S
C207 C206 1.385 . S
C208 C206 1.478 . S
C208 C210 1.381 . S
C208 C214 1.383 . S
C209 C205 1.495 1_556 S
C209 H215 0.959 . S
C209 H216 0.961 . S
C209 H217 0.960 1_556 S
C210 C208 1.381 . S
C210 C211 1.394 . S
C210 H218 0.930 . S
C211 C210 1.394 . S
C211 C212 1.383 . S
C211 H219 0.929 . S
C212 C211 1.383 . S
C212 C213 1.377 . S
C213 H197 0.930 . S
C213 C212 1.377 . S
C213 C214 1.379 . S
C214 H198 0.931 1_554 S
C214 C208 1.383 . S
C214 C213 1.379 . S
H215 C209 0.959 . S
H216 C209 0.961 . S
H217 C209 0.960 1_554 S
H218 C210 0.930 . S
H219 C211 0.929 . S
H220 C228 0.929 . S
H221 C230 0.930 . S
H222 C232 0.930 . S
H223 C235 0.929 . S
H224 C238 0.930 . S
H225 C240 0.960 . S
H226 C240 0.960 . S
H227 C240 0.960 . S
C228 H220 0.929 . S
C228 C229 1.377 . S
C228 C230 1.384 . S
C229 C228 1.377 . S
C229 C235 1.390 . S
C230 H221 0.930 . S
C230 C228 1.384 . S
C230 C231 1.372 . S
C231 C230 1.372 . S
C231 C232 1.400 . S
C231 C236 1.490 . S
C232 H222 0.930 . S
C232 C231 1.400 . S
C232 C235 1.386 . S
H233 C249 0.930 . S
H234 C250 0.931 . S
C235 H223 0.929 . S
C235 C229 1.390 . S
C235 C232 1.386 . S
C236 C231 1.490 . S
C236 C238 1.395 1_554 S
C236 C239 1.403 . S
H237 C243 0.930 . S
C238 H224 0.930 . S
C238 C236 1.395 1_556 S
C238 C241 1.403 . S
C239 C236 1.403 . S
C239 C240 1.524 . S
C239 C243 1.400 . S
C240 H225 0.960 . S
C240 H226 0.960 . S
C240 H227 0.960 . S
C240 C239 1.524 . S
C241 C238 1.403 . S
C241 C242 1.392 1_556 S
C241 C245 1.495 . S
C242 C241 1.392 1_554 S
C242 C243 1.385 . S
C242 C244 1.478 . S
C243 H237 0.930 . S
C243 C239 1.400 . S
C243 C242 1.385 . S
C244 C242 1.478 . S
C244 C246 1.381 . S
C244 C250 1.383 . S
C245 C241 1.495 . S
C245 H251 0.959 . S
C245 H252 0.961 . S
C245 H253 0.960 . S
C246 C244 1.381 . S
C246 C247 1.394 . S
C246 H254 0.933 . S
C247 C246 1.394 . S
C247 C248 1.383 . S
C247 H255 0.929 . S
C248 C247 1.383 . S
C248 C249 1.377 . S
C249 H233 0.930 . S
C249 C248 1.377 . S
C249 C250 1.379 . S
C250 H234 0.931 . S
C250 C244 1.383 . S
C250 C249 1.379 . S
H251 C245 0.959 . S
H252 C245 0.961 . S
H253 C245 0.960 . S
H254 C246 0.933 . S
H255 C247 0.929 . S
H256 C264 0.929 . S
H257 C266 0.930 . S
H258 C268 0.930 . S
H259 C271 0.929 . S
H260 C274 0.930 . S
H261 C276 0.960 . S
H262 C276 0.960 . S
H263 C276 0.960 . S
C264 H256 0.929 . S
C264 C265 1.377 . S
C264 C266 1.384 . S
C265 C264 1.377 . S
C265 C271 1.390 . S
C266 H257 0.930 . S
C266 C264 1.384 . S
C266 C267 1.372 . S
C267 C266 1.372 . S
C267 C268 1.400 . S
C267 C272 1.490 . S
C268 H258 0.930 . S
C268 C267 1.400 . S
C268 C271 1.386 . S
H269 C285 0.930 . S
H270 C286 0.931 . S
C271 H259 0.929 . S
C271 C265 1.390 . S
C271 C268 1.386 . S
C272 C267 1.490 . S
C272 C274 1.395 . S
C272 C275 1.403 . S
H273 C279 0.930 . S
C274 H260 0.930 . S
C274 C272 1.395 . S
C274 C277 1.403 1_565 S
C275 C272 1.403 . S
C275 C276 1.524 . S
C275 C279 1.400 1_565 S
C276 H261 0.960 . S
C276 H262 0.960 . S
C276 H263 0.960 . S
C276 C275 1.524 . S
C277 C274 1.403 1_545 S
C277 C278 1.392 . S
C277 C281 1.495 . S
C278 C277 1.392 . S
C278 C279 1.385 . S
C278 C280 1.478 . S
C279 H273 0.930 . S
C279 C275 1.400 1_545 S
C279 C278 1.385 . S
C280 C278 1.478 . S
C280 C282 1.381 . S
C280 C286 1.383 . S
C281 C277 1.495 . S
C281 H287 0.959 . S
C281 H288 0.961 . S
C281 H289 0.960 . S
C282 C280 1.381 . S
C282 C283 1.394 . S
C282 H290 0.930 . S
C283 C282 1.394 . S
C283 C284 1.383 . S
C283 H291 0.929 . S
C284 C283 1.383 . S
C284 C285 1.377 . S
C285 H269 0.930 . S
C285 C284 1.377 . S
C285 C286 1.379 . S
C286 H270 0.931 . S
C286 C280 1.383 . S
C286 C285 1.379 . S
H287 C281 0.959 . S
H288 C281 0.961 . S
H289 C281 0.960 . S
H290 C282 0.930 . S
H291 C283 0.929 . S
H292 C300 0.929 . S
H293 C302 0.930 . S
H294 C304 0.930 . S
H295 C307 0.929 . S
H296 C310 0.930 . S
H297 C312 0.960 . S
H298 C312 0.960 . S
H299 C312 0.960 . S
C300 H292 0.929 . S
C300 C301 1.377 . S
C300 C302 1.384 . S
C301 C300 1.377 . S
C301 C307 1.390 . S
C302 H293 0.930 . S
C302 C300 1.384 . S
C302 C303 1.372 . S
C303 C302 1.372 . S
C303 C304 1.400 . S
C303 C308 1.490 . S
C304 H294 0.930 . S
C304 C303 1.400 . S
C304 C307 1.386 . S
H305 C321 0.930 . S
H306 C322 0.931 . S
C307 H295 0.929 . S
C307 C301 1.390 . S
C307 C304 1.386 . S
C308 C303 1.490 . S
C308 C310 1.395 . S
C308 C311 1.403 . S
H309 C315 0.930 . S
C310 H296 0.930 . S
C310 C308 1.395 . S
C310 C313 1.403 1_455 S
C311 C308 1.403 . S
C311 C312 1.524 . S
C311 C315 1.400 1_455 S
C312 H297 0.960 . S
C312 H298 0.960 . S
C312 H299 0.960 . S
C312 C311 1.524 . S
C313 C310 1.403 1_655 S
C313 C314 1.392 . S
C313 C317 1.495 . S
C314 C313 1.392 . S
C314 C315 1.385 . S
C314 C316 1.478 . S
C315 H309 0.930 . S
C315 C311 1.400 1_655 S
C315 C314 1.385 . S
C316 C314 1.478 . S
C316 C318 1.381 . S
C316 C322 1.383 . S
C317 C313 1.495 . S
C317 H323 0.959 . S
C317 H324 0.961 . S
C317 H325 0.960 . S
C318 C316 1.381 . S
C318 C319 1.394 . S
C318 H326 0.930 . S
C319 C318 1.394 . S
C319 C320 1.383 . S
C319 H327 0.929 . S
C320 C319 1.383 . S
C320 C321 1.377 . S
C321 H305 0.930 . S
C321 C320 1.377 . S
C321 C322 1.379 . S
C322 H306 0.931 . S
C322 C316 1.383 . S
C322 C321 1.379 . S
H323 C317 0.959 . S
H324 C317 0.961 . S
H325 C317 0.960 . S
H326 C318 0.930 . S
H327 C319 0.929 . S
H328 C336 0.929 . S
H329 C338 0.930 . S
H330 C340 0.930 . S
H331 C343 0.929 . S
H332 C346 0.930 . S
H333 C348 0.960 . S
H334 C348 0.960 . S
H335 C348 0.960 . S
C336 H328 0.929 . S
C336 C337 1.377 . S
C336 C338 1.384 . S
C337 C336 1.377 . S
C337 C343 1.390 . S
C338 H329 0.930 . S
C338 C336 1.384 . S
C338 C339 1.372 . S
C339 C338 1.372 . S
C339 C340 1.400 . S
C339 C344 1.490 . S
C340 H330 0.930 . S
C340 C339 1.400 . S
C340 C343 1.386 . S
H341 C357 0.930 . S
H342 C358 0.931 . S
C343 H331 0.929 . S
C343 C337 1.390 . S
C343 C340 1.386 . S
C344 C339 1.490 . S
C344 C346 1.395 . S
C344 C347 1.403 . S
H345 C351 0.930 . S
C346 H332 0.930 . S
C346 C344 1.395 . S
C346 C349 1.403 1_545 S
C347 C344 1.403 . S
C347 C348 1.524 . S
C347 C351 1.400 1_545 S
C348 H333 0.960 . S
C348 H334 0.960 . S
C348 H335 0.960 . S
C348 C347 1.524 . S
C349 C346 1.403 1_565 S
C349 C350 1.392 . S
C349 C353 1.495 . S
C350 C349 1.392 . S
C350 C351 1.385 . S
C350 C352 1.478 . S
C351 H345 0.930 . S
C351 C347 1.400 1_565 S
C351 C350 1.385 . S
C352 C350 1.478 . S
C352 C354 1.381 . S
C352 C358 1.383 . S
C353 C349 1.495 . S
C353 H359 0.959 . S
C353 H360 0.961 . S
C353 H361 0.960 . S
C354 C352 1.381 . S
C354 C355 1.394 . S
C354 H362 0.930 . S
C355 C354 1.394 . S
C355 C356 1.383 . S
C355 H363 0.929 . S
C356 C355 1.383 . S
C356 C357 1.377 . S
C357 H341 0.930 . S
C357 C356 1.377 . S
C357 C358 1.379 . S
C358 H342 0.931 . S
C358 C352 1.383 . S
C358 C357 1.379 . S
H359 C353 0.959 . S
H360 C353 0.961 . S
H361 C353 0.960 . S
H362 C354 0.930 . S
H363 C355 0.929 . S
H364 C372 0.929 . S
H365 C374 0.930 . S
H366 C376 0.930 . S
H367 C379 0.929 . S
H368 C382 0.930 . S
H369 C384 0.960 . S
H370 C384 0.960 . S
H371 C384 0.960 . S
C372 H364 0.929 . S
C372 C373 1.377 . S
C372 C374 1.384 . S
C373 C372 1.377 . S
C373 C379 1.390 . S
C374 H365 0.930 . S
C374 C372 1.384 . S
C374 C375 1.372 . S
C375 C374 1.372 . S
C375 C376 1.400 . S
C375 C380 1.490 . S
C376 H366 0.930 . S
C376 C375 1.400 . S
C376 C379 1.386 . S
H377 C393 0.930 . S
H378 C394 0.931 . S
C379 H367 0.929 . S
C379 C373 1.390 . S
C379 C376 1.386 . S
C380 C375 1.490 . S
C380 C382 1.395 . S
C380 C383 1.403 . S
H381 C387 0.930 . S
C382 H368 0.930 . S
C382 C380 1.395 . S
C382 C385 1.403 1_655 S
C383 C380 1.403 . S
C383 C384 1.524 . S
C383 C387 1.400 1_655 S
C384 H369 0.960 . S
C384 H370 0.960 . S
C384 H371 0.960 . S
C384 C383 1.524 . S
C385 C382 1.403 1_455 S
C385 C386 1.392 . S
C385 C389 1.495 . S
C386 C385 1.392 . S
C386 C387 1.385 . S
C386 C388 1.478 . S
C387 H381 0.930 . S
C387 C383 1.400 1_455 S
C387 C386 1.385 . S
C388 C386 1.478 . S
C388 C390 1.381 . S
C388 C394 1.383 . S
C389 C385 1.495 . S
C389 H395 0.959 . S
C389 H396 0.961 . S
C389 H397 0.960 . S
C390 C388 1.381 . S
C390 C391 1.394 . S
C390 H398 0.930 . S
C391 C390 1.394 . S
C391 C392 1.383 . S
C391 H399 0.929 . S
C392 C391 1.383 . S
C392 C393 1.377 . S
C393 H377 0.930 . S
C393 C392 1.377 . S
C393 C394 1.379 . S
C394 H378 0.931 . S
C394 C388 1.383 . S
C394 C393 1.379 . S
H395 C389 0.959 . S
H396 C389 0.961 . S
H397 C389 0.960 . S
H398 C390 0.930 . S
H399 C391 0.929 . S
H400 C408 0.929 . S
H401 C410 0.930 . S
H402 C412 0.930 . S
H403 C415 0.929 . S
H404 C418 0.930 . S
H405 C420 0.960 . S
H406 C420 0.960 . S
H407 C420 0.960 . S
C408 H400 0.929 . S
C408 C409 1.377 . S
C408 C410 1.384 . S
C409 C408 1.377 . S
C409 C415 1.390 . S
C410 H401 0.930 . S
C410 C408 1.384 . S
C410 C411 1.372 . S
C411 C410 1.372 . S
C411 C412 1.400 . S
C411 C416 1.490 . S
C412 H402 0.930 . S
C412 C411 1.400 . S
C412 C415 1.386 . S
H413 C429 0.930 . S
H414 C430 0.931 . S
C415 H403 0.929 . S
C415 C409 1.390 . S
C415 C412 1.386 . S
C416 C411 1.490 . S
C416 C418 1.395 . S
C416 C419 1.403 . S
H417 C423 0.930 . S
C418 H404 0.930 . S
C418 C416 1.395 . S
C418 C421 1.403 . S
C419 C416 1.403 . S
C419 C420 1.524 . S
C419 C423 1.400 . S
C420 H405 0.960 . S
C420 H406 0.960 . S
C420 H407 0.960 . S
C420 C419 1.524 . S
C421 C418 1.403 . S
C421 C422 1.392 . S
C421 C425 1.495 . S
C422 C421 1.392 . S
C422 C423 1.385 . S
C422 C424 1.478 . S
C423 H417 0.930 . S
C423 C419 1.400 . S
C423 C422 1.385 . S
C424 C422 1.478 . S
C424 C426 1.381 . S
C424 C430 1.383 . S
C425 C421 1.495 . S
C425 H431 0.959 . S
C425 H432 0.961 . S
C425 H433 0.960 . S
C426 C424 1.381 . S
C426 C427 1.394 . S
C426 H434 0.930 . S
C427 C426 1.394 . S
C427 C428 1.383 . S
C427 H435 0.929 . S
C428 C427 1.383 . S
C428 C429 1.377 . S
C429 H413 0.930 . S
C429 C428 1.377 . S
C429 C430 1.379 . S
C430 H414 0.931 . S
C430 C424 1.383 . S
C430 C429 1.379 . S
H431 C425 0.959 . S
H432 C425 0.961 . S
H433 C425 0.960 . S
H434 C426 0.930 . S
H435 C427 0.929 . S
H436 C444 0.929 . S
H437 C446 0.930 . S
H438 C448 0.930 . S
H439 C451 0.929 . S
H440 C454 0.930 . S
H441 C456 0.960 . S
H442 C456 0.960 . S
H443 C456 0.960 . S
C444 H436 0.929 . S
C444 C445 1.377 . S
C444 C446 1.384 . S
C445 C444 1.377 . S
C445 C451 1.390 . S
C446 H437 0.930 . S
C446 C444 1.384 . S
C446 C447 1.372 . S
C447 C446 1.372 . S
C447 C448 1.400 . S
C447 C452 1.490 . S
C448 H438 0.930 . S
C448 C447 1.400 . S
C448 C451 1.386 . S
H449 C465 0.930 . S
H450 C466 0.931 . S
C451 H439 0.929 . S
C451 C445 1.390 . S
C451 C448 1.386 . S
C452 C447 1.490 . S
C452 C454 1.395 . S
C452 C455 1.403 . S
H453 C459 0.930 . S
C454 H440 0.930 . S
C454 C452 1.395 . S
C454 C457 1.403 . S
C455 C452 1.403 . S
C455 C456 1.524 . S
C455 C459 1.400 . S
C456 H441 0.960 . S
C456 H442 0.960 . S
C456 H443 0.960 . S
C456 C455 1.524 . S
C457 C454 1.403 . S
C457 C458 1.392 . S
C457 C461 1.495 . S
C458 C457 1.392 . S
C458 C459 1.385 . S
C458 C460 1.478 . S
C459 H453 0.930 . S
C459 C455 1.400 . S
C459 C458 1.385 . S
C460 C458 1.478 . S
C460 C462 1.381 . S
C460 C466 1.383 . S
C461 C457 1.495 . S
C461 H467 0.959 . S
C461 H468 0.961 . S
C461 H469 0.960 . S
C462 C460 1.381 . S
C462 C463 1.394 . S
C462 H470 0.930 . S
C463 C462 1.394 . S
C463 C464 1.383 . S
C463 H471 0.929 . S
C464 C463 1.383 . S
C464 C465 1.377 . S
C465 H449 0.930 . S
C465 C464 1.377 . S
C465 C466 1.379 . S
C466 H450 0.931 . S
C466 C460 1.383 . S
C466 C465 1.379 . S
H467 C461 0.959 . S
H468 C461 0.961 . S
H469 C461 0.960 . S
H470 C462 0.930 . S
H471 C463 0.929 . S
H472 C480 0.929 . S
H473 C482 0.930 . S
H474 C484 0.930 . S
H475 C487 0.929 . S
H476 C490 0.930 . S
H477 C492 0.960 . S
H478 C492 0.960 . S
H479 C492 0.960 . S
C480 H472 0.929 . S
C480 C481 1.377 . S
C480 C482 1.384 . S
C481 C480 1.377 . S
C481 C487 1.390 . S
C482 H473 0.930 . S
C482 C480 1.384 . S
C482 C483 1.372 . S
C483 C482 1.372 . S
C483 C484 1.400 . S
C483 C488 1.490 . S
C484 H474 0.930 . S
C484 C483 1.400 . S
C484 C487 1.386 . S
H485 C501 0.930 . S
H486 C502 0.931 . S
C487 H475 0.929 . S
C487 C481 1.390 . S
C487 C484 1.386 . S
C488 C483 1.490 . S
C488 C490 1.395 . S
C488 C491 1.403 . S
H489 C495 0.930 . S
C490 H476 0.930 . S
C490 C488 1.395 . S
C490 C493 1.403 . S
C491 C488 1.403 . S
C491 C492 1.524 . S
C491 C495 1.400 . S
C492 H477 0.960 . S
C492 H478 0.960 . S
C492 H479 0.960 . S
C492 C491 1.524 . S
C493 C490 1.403 . S
C493 C494 1.392 . S
C493 C497 1.495 . S
C494 C493 1.392 . S
C494 C495 1.385 . S
C494 C496 1.478 . S
C495 H489 0.930 . S
C495 C491 1.400 . S
C495 C494 1.385 . S
C496 C494 1.478 . S
C496 C498 1.381 . S
C496 C502 1.383 . S
C497 C493 1.495 . S
C497 H503 0.959 . S
C497 H504 0.961 . S
C497 H505 0.960 . S
C498 C496 1.381 . S
C498 C499 1.394 . S
C498 H506 0.930 . S
C499 C498 1.394 . S
C499 C500 1.383 . S
C499 H507 0.929 . S
C500 C499 1.383 . S
C500 C501 1.377 . S
C501 H485 0.930 . S
C501 C500 1.377 . S
C501 C502 1.379 . S
C502 H486 0.931 . S
C502 C496 1.383 . S
C502 C501 1.379 . S
H503 C497 0.959 . S
H504 C497 0.961 . S
H505 C497 0.960 . S
H506 C498 0.930 . S
H507 C499 0.929 . S
H508 C516 0.929 . S
H509 C518 0.930 . S
H510 C520 0.930 . S
H511 C523 0.929 . S
H512 C526 0.930 . S
H513 C528 0.960 . S
H514 C528 0.960 . S
H515 C528 0.960 . S
C516 H508 0.929 . S
C516 C517 1.377 . S
C516 C518 1.384 . S
C517 C516 1.377 . S
C517 C523 1.390 . S
C518 H509 0.930 . S
C518 C516 1.384 . S
C518 C519 1.372 . S
C519 C518 1.372 . S
C519 C520 1.400 . S
C519 C524 1.490 . S
C520 H510 0.930 . S
C520 C519 1.400 . S
C520 C523 1.386 . S
H521 C537 0.930 . S
H522 C538 0.931 . S
C523 H511 0.929 . S
C523 C517 1.390 . S
C523 C520 1.386 . S
C524 C519 1.490 . S
C524 C526 1.395 . S
C524 C527 1.403 . S
H525 C531 0.930 . S
C526 H512 0.930 . S
C526 C524 1.395 . S
C526 C529 1.403 . S
C527 C524 1.403 . S
C527 C528 1.524 . S
C527 C531 1.400 . S
C528 H513 0.960 . S
C528 H514 0.960 . S
C528 H515 0.960 . S
C528 C527 1.524 . S
C529 C526 1.403 . S
C529 C530 1.392 . S
C529 C533 1.495 . S
C530 C529 1.392 . S
C530 C531 1.385 . S
C530 C532 1.478 . S
C531 H525 0.930 . S
C531 C527 1.400 . S
C531 C530 1.385 . S
C532 C530 1.478 . S
C532 C534 1.381 . S
C532 C538 1.383 . S
C533 C529 1.495 . S
C533 H539 0.959 . S
C533 H540 0.961 . S
C533 H541 0.960 . S
C534 C532 1.381 . S
C534 C535 1.394 . S
C534 H542 0.930 . S
C535 C534 1.394 . S
C535 C536 1.383 . S
C535 H543 0.929 . S
C536 C535 1.383 . S
C536 C537 1.377 . S
C537 H521 0.930 . S
C537 C536 1.377 . S
C537 C538 1.379 . S
C538 H522 0.931 . S
C538 C532 1.383 . S
C538 C537 1.379 . S
H539 C533 0.959 . S
H540 C533 0.961 . S
H541 C533 0.960 . S
H542 C534 0.930 . S
H543 C535 0.929 . S
H544 C552 0.929 . S
H545 C554 0.930 . S
H546 C556 0.930 . S
H547 C559 0.929 . S
H548 C562 0.930 . S
H549 C564 0.960 . S
H550 C564 0.960 . S
H551 C564 0.960 . S
C552 H544 0.929 . S
C552 C553 1.377 . S
C552 C554 1.384 . S
C553 C552 1.377 . S
C553 C559 1.390 . S
C554 H545 0.930 . S
C554 C552 1.384 . S
C554 C555 1.372 . S
C555 C554 1.372 . S
C555 C556 1.400 . S
C555 C560 1.490 . S
C556 H546 0.930 . S
C556 C555 1.400 . S
C556 C559 1.386 . S
H557 C573 0.930 . S
H558 C574 0.931 . S
C559 H547 0.929 . S
C559 C553 1.390 . S
C559 C556 1.386 . S
C560 C555 1.490 . S
C560 C562 1.395 . S
C560 C563 1.403 . S
H561 C567 0.930 . S
C562 H548 0.930 . S
C562 C560 1.395 . S
C562 C565 1.403 . S
C563 C560 1.403 . S
C563 C564 1.524 . S
C563 C567 1.400 . S
C564 H549 0.960 . S
C564 H550 0.960 . S
C564 H551 0.960 . S
C564 C563 1.524 . S
C565 C562 1.403 . S
C565 C566 1.392 . S
C565 C569 1.495 . S
C566 C565 1.392 . S
C566 C567 1.385 . S
C566 C568 1.478 . S
C567 H561 0.930 . S
C567 C563 1.400 . S
C567 C566 1.385 . S
C568 C566 1.478 . S
C568 C570 1.381 . S
C568 C574 1.383 . S
C569 C565 1.495 . S
C569 H575 0.959 . S
C569 H576 0.961 . S
C569 H577 0.960 . S
C570 C568 1.381 . S
C570 C571 1.394 . S
C570 H578 0.930 . S
C571 C570 1.394 . S
C571 C572 1.383 . S
C571 H579 0.929 . S
C572 C571 1.383 . S
C572 C573 1.377 . S
C573 H557 0.930 . S
C573 C572 1.377 . S
C573 C574 1.379 . S
C574 H558 0.931 . S
C574 C568 1.383 . S
C574 C573 1.379 . S
H575 C569 0.959 . S
H576 C569 0.961 . S
H577 C569 0.960 . S
H578 C570 0.930 . S
H579 C571 0.929 . S
H580 C588 0.929 . S
H581 C590 0.930 . S
H582 C592 0.930 . S
H583 C595 0.929 . S
H584 C598 0.930 . S
H585 C600 0.960 . S
H586 C600 0.960 . S
H587 C600 0.960 . S
C588 H580 0.929 . S
C588 C589 1.377 . S
C588 C590 1.384 . S
C589 C588 1.377 . S
C589 C595 1.390 . S
C590 H581 0.930 . S
C590 C588 1.384 . S
C590 C591 1.372 . S
C591 C590 1.372 . S
C591 C592 1.400 . S
C591 C596 1.490 . S
C592 H582 0.930 . S
C592 C591 1.400 . S
C592 C595 1.386 . S
H593 C609 0.930 . S
H594 C610 0.931 . S
C595 H583 0.929 . S
C595 C589 1.390 . S
C595 C592 1.386 . S
C596 C591 1.490 . S
C596 C598 1.395 . S
C596 C599 1.403 . S
H597 C603 0.930 . S
C598 H584 0.930 . S
C598 C596 1.395 . S
C598 C601 1.403 . S
C599 C596 1.403 . S
C599 C600 1.524 . S
C599 C603 1.400 . S
C600 H585 0.960 . S
C600 H586 0.960 . S
C600 H587 0.960 . S
C600 C599 1.524 . S
C601 C598 1.403 . S
C601 C602 1.392 . S
C601 C605 1.495 . S
C602 C601 1.392 . S
C602 C603 1.385 . S
C602 C604 1.478 . S
C603 H597 0.930 . S
C603 C599 1.400 . S
C603 C602 1.385 . S
C604 C602 1.478 . S
C604 C606 1.381 . S
C604 C610 1.383 . S
C605 C601 1.495 . S
C605 H611 0.959 . S
C605 H612 0.961 . S
C605 H613 0.960 . S
C606 C604 1.381 . S
C606 C607 1.394 . S
C606 H614 0.930 . S
C607 C606 1.394 . S
C607 C608 1.383 . S
C607 H615 0.929 . S
C608 C607 1.383 . S
C608 C609 1.377 . S
C609 H593 0.930 . S
C609 C608 1.377 . S
C609 C610 1.379 . S
C610 H594 0.931 . S
C610 C604 1.383 . S
C610 C609 1.379 . S
H611 C605 0.959 . S
H612 C605 0.961 . S
H613 C605 0.960 . S
H614 C606 0.930 . S
H615 C607 0.929 . S
H616 C624 0.929 . S
H617 C626 0.930 . S
H618 C628 0.930 . S
H619 C631 0.929 . S
H620 C634 0.930 . S
H621 C636 0.960 . S
H622 C636 0.960 . S
H623 C636 0.960 . S
C624 H616 0.929 . S
C624 C625 1.377 . S
C624 C626 1.384 . S
C625 C624 1.377 . S
C625 C631 1.390 . S
C626 H617 0.930 . S
C626 C624 1.384 . S
C626 C627 1.372 . S
C627 C626 1.372 . S
C627 C628 1.400 . S
C627 C632 1.490 . S
C628 H618 0.930 . S
C628 C627 1.400 . S
C628 C631 1.386 . S
H629 C645 0.930 . S
H630 C646 0.931 . S
C631 H619 0.929 . S
C631 C625 1.390 . S
C631 C628 1.386 . S
C632 C627 1.490 . S
C632 C634 1.395 . S
C632 C635 1.403 . S
H633 C639 0.930 . S
C634 H620 0.930 . S
C634 C632 1.395 . S
C634 C637 1.403 . S
C635 C632 1.403 . S
C635 C636 1.524 . S
C635 C639 1.400 . S
C636 H621 0.960 . S
C636 H622 0.960 . S
C636 H623 0.960 . S
C636 C635 1.524 . S
C637 C634 1.403 . S
C637 C638 1.392 . S
C637 C641 1.495 . S
C638 C637 1.392 . S
C638 C639 1.385 . S
C638 C640 1.478 . S
C639 H633 0.930 . S
C639 C635 1.400 . S
C639 C638 1.385 . S
C640 C638 1.478 . S
C640 C642 1.381 . S
C640 C646 1.383 . S
C641 C637 1.495 . S
C641 H647 0.959 . S
C641 H648 0.961 . S
C641 H649 0.960 . S
C642 C640 1.381 . S
C642 C643 1.394 . S
C642 H650 0.930 . S
C643 C642 1.394 . S
C643 C644 1.383 . S
C643 H651 0.929 . S
C644 C643 1.383 . S
C644 C645 1.377 . S
C645 H629 0.930 . S
C645 C644 1.377 . S
C645 C646 1.379 . S
C646 H630 0.931 . S
C646 C640 1.383 . S
C646 C645 1.379 . S
H647 C641 0.959 . S
H648 C641 0.961 . S
H649 C641 0.960 . S
H650 C642 0.930 . S
H651 C643 0.929 . S
H652 C660 0.929 . S
H653 C662 0.930 . S
H654 C664 0.930 . S
H655 C667 0.929 . S
H656 C670 0.930 . S
H657 C672 0.960 . S
H658 C672 0.960 . S
H659 C672 0.960 . S
C660 H652 0.929 . S
C660 C661 1.377 . S
C660 C662 1.384 . S
C661 C660 1.377 . S
C661 C667 1.390 . S
C662 H653 0.930 . S
C662 C660 1.384 . S
C662 C663 1.372 . S
C663 C662 1.372 . S
C663 C664 1.400 . S
C663 C668 1.490 . S
C664 H654 0.930 . S
C664 C663 1.400 . S
C664 C667 1.386 . S
H665 C681 0.930 . S
H666 C682 0.931 . S
C667 H655 0.929 . S
C667 C661 1.390 . S
C667 C664 1.386 . S
C668 C663 1.490 . S
C668 C670 1.395 . S
C668 C671 1.403 . S
H669 C675 0.930 . S
C670 H656 0.930 . S
C670 C668 1.395 . S
C670 C673 1.403 . S
C671 C668 1.403 . S
C671 C672 1.524 . S
C671 C675 1.400 . S
C672 H657 0.960 . S
C672 H658 0.960 . S
C672 H659 0.960 . S
C672 C671 1.524 . S
C673 C670 1.403 . S
C673 C674 1.392 . S
C673 C677 1.495 . S
C674 C673 1.392 . S
C674 C675 1.385 . S
C674 C676 1.478 . S
C675 H669 0.930 . S
C675 C671 1.400 . S
C675 C674 1.385 . S
C676 C674 1.478 . S
C676 C678 1.381 . S
C676 C682 1.383 . S
C677 C673 1.495 . S
C677 H683 0.959 . S
C677 H684 0.961 . S
C677 H685 0.960 . S
C678 C676 1.381 . S
C678 C679 1.394 . S
C678 H686 0.930 . S
C679 C678 1.394 . S
C679 C680 1.383 . S
C679 H687 0.929 . S
C680 C679 1.383 . S
C680 C681 1.377 . S
C681 H665 0.930 . S
C681 C680 1.377 . S
C681 C682 1.379 . S
C682 H666 0.931 . S
C682 C676 1.383 . S
C682 C681 1.379 . S
H683 C677 0.959 . S
H684 C677 0.961 . S
H685 C677 0.960 . S
H686 C678 0.930 . S
H687 C679 0.929 . S
C121 C3 1.514 . S
C140 C45 1.507 . S
C157 C9 1.517 . S
C176 C23 1.502 . S
C193 C17 1.514 . S
C212 C31 1.511 . S
C229 C51 1.515 . S
C248 C37 1.513 . S
C265 C59 1.513 . S
C284 C101 1.519 . S
C301 C79 1.518 . S
C320 C65 1.501 . S
C337 C87 1.513 . S
C356 C73 1.517 . S
C373 C107 1.519 . S
C392 C93 1.504 . S
C409 C91 1.451 . S
C428 C8 1.467 . S
C445 C21 1.448 . S
C464 C106 1.464 . S
C481 C63 1.451 . S
C500 C36 1.463 . S
C517 C78 1.475 . S
C536 C49 1.436 . S
C553 C77 1.442 . S
C572 C50 1.479 . S
C589 C7 1.446 . S
C608 C92 1.481 . S
C625 C22 1.478 . S
C644 C105 1.437 . S
C661 C35 1.443 . S
C680 C64 1.475 . S
