# Generated by pormake.
# Topology wme, (6)-cn, num edge types: 1
# Building blocks:
#     Node 0, Type 0, BuildingBlock: NUHQIS_clean_sbu_0, # of connection points: 6
#     Node 1, Type 0, BuildingBlock: NUHQIS_clean_sbu_0, # of connection points: 6
#     Node 2, Type 0, BuildingBlock: NUHQIS_clean_sbu_0, # of connection points: 6
#     Node 3, Type 0, BuildingBlock: NUHQIS_clean_sbu_0, # of connection points: 6
#     Node 4, Type 0, BuildingBlock: NUHQIS_clean_sbu_0, # of connection points: 6
#     Node 5, Type 0, BuildingBlock: NUHQIS_clean_sbu_0, # of connection points: 6
#     Node 6, Type 0, BuildingBlock: NUHQIS_clean_sbu_0, # of connection points: 6
#     Node 7, Type 0, BuildingBlock: NUHQIS_clean_sbu_0, # of connection points: 6
#     Node 8, Type 0, BuildingBlock: NUHQIS_clean_sbu_0, # of connection points: 6
#     Node 9, Type 0, BuildingBlock: NUHQIS_clean_sbu_0, # of connection points: 6
#     Node 10, Type 0, BuildingBlock: NUHQIS_clean_sbu_0, # of connection points: 6
#     Node 11, Type 0, BuildingBlock: NUHQIS_clean_sbu_0, # of connection points: 6
#     Edge 12, Type (0, 0), BuildingBlock: ZUJKAS_clean_linker_0, # of connection points: 2
#     Edge 13, Type (0, 0), BuildingBlock: ZUJKAS_clean_linker_0, # of connection points: 2
#     Edge 14, Type (0, 0), BuildingBlock: ZUJKAS_clean_linker_0, # of connection points: 2
#     Edge 15, Type (0, 0), BuildingBlock: ZUJKAS_clean_linker_0, # of connection points: 2
#     Edge 16, Type (0, 0), BuildingBlock: ZUJKAS_clean_linker_0, # of connection points: 2
#     Edge 17, Type (0, 0), BuildingBlock: ZUJKAS_clean_linker_0, # of connection points: 2
#     Edge 18, Type (0, 0), BuildingBlock: ZUJKAS_clean_linker_0, # of connection points: 2
#     Edge 19, Type (0, 0), BuildingBlock: ZUJKAS_clean_linker_0, # of connection points: 2
#     Edge 20, Type (0, 0), BuildingBlock: ZUJKAS_clean_linker_0, # of connection points: 2
#     Edge 21, Type (0, 0), BuildingBlock: ZUJKAS_clean_linker_0, # of connection points: 2
#     Edge 22, Type (0, 0), BuildingBlock: ZUJKAS_clean_linker_0, # of connection points: 2
#     Edge 23, Type (0, 0), BuildingBlock: ZUJKAS_clean_linker_0, # of connection points: 2
#     Edge 24, Type (0, 0), BuildingBlock: ZUJKAS_clean_linker_0, # of connection points: 2
#     Edge 25, Type (0, 0), BuildingBlock: ZUJKAS_clean_linker_0, # of connection points: 2
#     Edge 26, Type (0, 0), BuildingBlock: ZUJKAS_clean_linker_0, # of connection points: 2
#     Edge 27, Type (0, 0), BuildingBlock: ZUJKAS_clean_linker_0, # of connection points: 2
#     Edge 28, Type (0, 0), BuildingBlock: ZUJKAS_clean_linker_0, # of connection points: 2
#     Edge 29, Type (0, 0), BuildingBlock: ZUJKAS_clean_linker_0, # of connection points: 2
#     Edge 30, Type (0, 0), BuildingBlock: ZUJKAS_clean_linker_0, # of connection points: 2
#     Edge 31, Type (0, 0), BuildingBlock: ZUJKAS_clean_linker_0, # of connection points: 2
#     Edge 32, Type (0, 0), BuildingBlock: ZUJKAS_clean_linker_0, # of connection points: 2
#     Edge 33, Type (0, 0), BuildingBlock: ZUJKAS_clean_linker_0, # of connection points: 2
#     Edge 34, Type (0, 0), BuildingBlock: ZUJKAS_clean_linker_0, # of connection points: 2
#     Edge 35, Type (0, 0), BuildingBlock: ZUJKAS_clean_linker_0, # of connection points: 2
#     Edge 36, Type (0, 0), BuildingBlock: ZUJKAS_clean_linker_0, # of connection points: 2
#     Edge 37, Type (0, 0), BuildingBlock: ZUJKAS_clean_linker_0, # of connection points: 2
#     Edge 38, Type (0, 0), BuildingBlock: ZUJKAS_clean_linker_0, # of connection points: 2
#     Edge 39, Type (0, 0), BuildingBlock: ZUJKAS_clean_linker_0, # of connection points: 2
#     Edge 40, Type (0, 0), BuildingBlock: ZUJKAS_clean_linker_0, # of connection points: 2
#     Edge 41, Type (0, 0), BuildingBlock: ZUJKAS_clean_linker_0, # of connection points: 2
#     Edge 42, Type (0, 0), BuildingBlock: ZUJKAS_clean_linker_0, # of connection points: 2
#     Edge 43, Type (0, 0), BuildingBlock: ZUJKAS_clean_linker_0, # of connection points: 2
#     Edge 44, Type (0, 0), BuildingBlock: ZUJKAS_clean_linker_0, # of connection points: 2
#     Edge 45, Type (0, 0), BuildingBlock: ZUJKAS_clean_linker_0, # of connection points: 2
#     Edge 46, Type (0, 0), BuildingBlock: ZUJKAS_clean_linker_0, # of connection points: 2
#     Edge 47, Type (0, 0), BuildingBlock: ZUJKAS_clean_linker_0, # of connection points: 2
# Relax obj value: 0.081
# Max RMSD: 0.176
# Mean RMSD: 0.176
data_MOF--net-wme--node1-NUHQIS_clean_sbu_0--edge1-ZUJKAS_clean_linker_0
_symmetry_space_group_name_H-M    P1
_symmetry_Int_Tables_number       1
_symmetry_cell_setting            triclinic
loop_
_symmetry_equiv_pos_as_xyz
'x, y, z'
_cell_length_a     49.154843
_cell_length_b     49.177825
_cell_length_c     69.737992
_cell_angle_alpha  90.024033
_cell_angle_beta   89.99478
_cell_angle_gamma 119.99304
loop_
_atom_site_label
_atom_site_type_symbol
_atom_site_fract_x
_atom_site_fract_y
_atom_site_fract_z
_atom_type_partial_charge
Tb0 Tb 0.21303 0.36811 0.11544 0.0
Eu1 Eu 0.24819 0.32859 0.12824 0.0
C2 C 0.24331 0.3439 0.08627 0.0
C3 C 0.17358 0.29548 0.12229 0.0
C4 C 0.18674 0.4275 0.10851 0.0
C5 C 0.18495 0.47329 0.09703 0.0
C6 C 0.18693 0.44636 0.09337 0.0
C7 C 0.18509 0.43635 0.12747 0.0
C8 C 0.18285 0.46317 0.13113 0.0
C9 C 0.18249 0.48182 0.11594 0.0
C10 C 0.18639 0.39791 0.10411 0.0
O11 O 0.2229 0.37865 0.14596 0.0
O12 O 0.22759 0.33601 0.15492 0.0
O13 O 0.28548 0.37903 0.13367 0.0
O14 O 0.2625 0.40374 0.11763 0.0
C15 C 0.22446 0.36031 0.15918 0.0
O16 O 0.263 0.30443 0.14849 0.0
O17 O 0.27151 0.30356 0.11813 0.0
O18 O 0.26426 0.35093 0.09961 0.0
O19 O 0.21643 0.34179 0.09088 0.0
O20 O 0.1758 0.32286 0.12508 0.0
O21 O 0.19862 0.29303 0.11913 0.0
C22 C 0.28643 0.40443 0.12666 0.0
O23 O 0.2114 0.40021 0.09606 0.0
O24 O 0.17511 0.37619 0.11726 0.0
C25 C 0.25842 0.25782 0.13556 0.0
C26 C 0.23474 0.19231 0.13446 0.0
C27 C 0.26404 0.21261 0.14299 0.0
C28 C 0.27576 0.24507 0.1435 0.0
C29 C 0.2289 0.23767 0.12744 0.0
C30 C 0.21716 0.20526 0.12689 0.0
C31 C 0.27171 0.2921 0.13494 0.0
H32 H 0.18444 0.48696 0.085 0.0
H33 H 0.18802 0.43992 0.07865 0.0
H34 H 0.18506 0.42233 0.13945 0.0
H35 H 0.18141 0.46933 0.14586 0.0
H36 H 0.27799 0.20343 0.14922 0.0
H37 H 0.29857 0.26024 0.14986 0.0
H38 H 0.21522 0.24709 0.12113 0.0
H39 H 0.19474 0.19049 0.12 0.0
Tb40 Tb 0.86033 0.20256 0.61567 0.0
Eu41 Eu 0.93401 0.23706 0.63015 0.0
C42 C 0.91608 0.23225 0.58737 0.0
C43 C 0.89371 0.16303 0.62279 0.0
C44 C 0.77423 0.17588 0.60916 0.0
C45 C 0.73308 0.18702 0.59966 0.0
C46 C 0.76219 0.18919 0.59629 0.0
C47 C 0.7566 0.16059 0.62561 0.0
C48 C 0.72747 0.15833 0.62895 0.0
C49 C 0.71514 0.17123 0.61593 0.0
C50 C 0.80371 0.17582 0.60457 0.0
O51 O 0.8595 0.21369 0.64595 0.0
O52 O 0.90365 0.21275 0.65554 0.0
O53 O 0.91977 0.27366 0.63536 0.0
O54 O 0.87555 0.25245 0.61611 0.0
C55 C 0.87715 0.21189 0.65954 0.0
O56 O 0.97152 0.25243 0.65147 0.0
O57 O 0.98304 0.26045 0.62128 0.0
O58 O 0.92992 0.25292 0.6009 0.0
O59 O 0.89044 0.20575 0.59143 0.0
O60 O 0.86829 0.16506 0.62498 0.0
O61 O 0.9214 0.18819 0.62057 0.0
C62 C 0.89724 0.27573 0.62638 0.0
O63 O 0.82635 0.20075 0.5964 0.0
O64 O 0.81444 0.16454 0.61753 0.0
C65 C 1.01514 0.24874 0.64021 0.0
C66 C 0.05672 0.22472 0.63933 0.0
C67 C 0.068 0.25712 0.63722 0.0
C68 C 0.04741 0.26897 0.63766 0.0
C69 C 1.00367 0.21646 0.64257 0.0
C70 C 1.02427 0.20456 0.6422 0.0
C71 C 0.99355 0.26121 0.63853 0.0
H72 H 0.72458 0.19765 0.58946 0.0
H73 H 0.77507 0.20089 0.58342 0.0
H74 H 0.76491 0.14972 0.63576 0.0
H75 H 0.7142 0.14561 0.64148 0.0
H76 H 0.09267 0.27331 0.63462 0.0
H77 H 0.05661 0.29388 0.63551 0.0
H78 H 0.97873 0.2004 0.64434 0.0
H79 H 1.01475 0.17956 0.64408 0.0
Tb80 Tb 0.67725 0.85306 0.11512 0.0
Eu81 Eu 0.7163 0.92607 0.13074 0.0
C82 C 0.70372 0.91018 0.08769 0.0
C83 C 0.74981 0.88609 0.1227 0.0
C84 C 0.61947 0.76744 0.10572 0.0
C85 C 0.58973 0.71086 0.10136 0.0
C86 C 0.61646 0.7399 0.09777 0.0
C87 C 0.5952 0.76565 0.11724 0.0
C88 C 0.56828 0.73651 0.12079 0.0
C89 C 0.56534 0.70871 0.113 0.0
C90 C 0.64869 0.79734 0.10234 0.0
O91 O 0.66425 0.85037 0.14534 0.0
O92 O 0.70876 0.89446 0.15572 0.0
O93 O 0.66545 0.91166 0.13614 0.0
O94 O 0.64236 0.868 0.11639 0.0
C95 C 0.68314 0.86768 0.15924 0.0
O96 O 0.7412 0.9619 0.15276 0.0
O97 O 0.73994 0.97578 0.12353 0.0
O98 O 0.69712 0.9238 0.10147 0.0
O99 O 0.7045 0.88437 0.09137 0.0
O100 O 0.72237 0.86079 0.12511 0.0
O101 O 0.75213 0.9136 0.12009 0.0
C102 C 0.64078 0.88932 0.12708 0.0
O103 O 0.64618 0.82036 0.09497 0.0
O104 O 0.66921 0.80697 0.11617 0.0
C105 C 0.7867 1.00632 0.14071 0.0
C106 C 0.85213 0.0489 0.13966 0.0
C107 C 0.83198 0.05566 0.15045 0.0
C108 C 0.79959 0.03459 0.15094 0.0
C109 C 0.80668 0.99912 0.13023 0.0
C110 C 0.83905 0.02018 0.12969 0.0
C111 C 0.75243 0.98496 0.14046 0.0
H112 H 0.58806 0.69006 0.09487 0.0
H113 H 0.63496 0.74082 0.08886 0.0
H114 H 0.59724 0.78669 0.12362 0.0
H115 H 0.55005 0.73567 0.12992 0.0
H116 H 0.84124 0.07727 0.15857 0.0
H117 H 0.78456 0.04051 0.15916 0.0
H118 H 0.79718 0.97742 0.12218 0.0
H119 H 0.85367 1.01428 0.12105 0.0
Tb120 Tb 0.83647 0.66557 0.61558 0.0
Eu121 Eu 0.80353 0.7055 0.63158 0.0
C122 C 0.80649 0.69291 0.58824 0.0
C123 C 0.87685 0.7384 0.62231 0.0
C124 C 0.86129 0.60533 0.60713 0.0
C125 C 0.86421 0.56049 0.59495 0.0
C126 C 0.86216 0.58748 0.5917 0.0
C127 C 0.86183 0.59533 0.62595 0.0
C128 C 0.86413 0.56844 0.62921 0.0
C129 C 0.86566 0.55086 0.61374 0.0
C130 C 0.86198 0.63522 0.60323 0.0
O131 O 0.82626 0.65285 0.64583 0.0
O132 O 0.82829 0.69805 0.65621 0.0
O133 O 0.76688 0.65478 0.63709 0.0
O134 O 0.78633 0.6318 0.61644 0.0
C135 C 0.82868 0.67206 0.65973 0.0
O136 O 0.79371 0.73089 0.65383 0.0
O137 O 0.77716 0.72908 0.6249 0.0
O138 O 0.78658 0.68722 0.60212 0.0
O139 O 0.83269 0.69277 0.59174 0.0
O140 O 0.87472 0.71093 0.62453 0.0
O141 O 0.85167 0.74104 0.62061 0.0
C142 C 0.76387 0.63025 0.62754 0.0
O143 O 0.83696 0.63354 0.5956 0.0
O144 O 0.87384 0.65659 0.61657 0.0
C145 C 0.79431 0.77616 0.64187 0.0
C146 C 0.81754 0.84159 0.64057 0.0
C147 C 0.79047 0.82168 0.6513 0.0
C148 C 0.77897 0.78927 0.65192 0.0
C149 C 0.82161 0.7959 0.63143 0.0
C150 C 0.83311 0.82828 0.63077 0.0
C151 C 0.7813 0.74189 0.64179 0.0
H152 H 0.86565 0.54769 0.58272 0.0
H153 H 0.86194 0.59483 0.57708 0.0
H154 H 0.86103 0.60857 0.63814 0.0
H155 H 0.86478 0.56143 0.64385 0.0
H156 H 0.77816 0.83113 0.65927 0.0
H157 H 0.75793 0.77441 0.6601 0.0
H158 H 0.83372 0.7862 0.6235 0.0
H159 H 0.85375 0.84275 0.62219 0.0
Tb160 Tb 0.19092 0.83069 0.11496 0.0
Eu161 Eu 0.11703 0.79663 0.12926 0.0
C162 C 0.13516 0.79992 0.0867 0.0
C163 C 0.15737 0.87053 0.12059 0.0
C164 C 0.27639 0.85552 0.108 0.0
C165 C 0.32366 0.85669 0.09638 0.0
C166 C 0.29479 0.85489 0.09282 0.0
C167 C 0.28712 0.85734 0.12692 0.0
C168 C 0.31613 0.85939 0.13049 0.0
C169 C 0.33491 0.8594 0.11525 0.0
C170 C 0.24738 0.85644 0.10369 0.0
O171 O 0.19146 0.82139 0.14558 0.0
O172 O 0.14725 0.82292 0.15431 0.0
O173 O 0.13149 0.76056 0.13563 0.0
O174 O 0.17574 0.78087 0.11645 0.0
C175 C 0.17378 0.82415 0.15875 0.0
O176 O 0.07913 0.78062 0.15035 0.0
O177 O 0.0682 0.77412 0.12003 0.0
O178 O 0.12148 0.77963 0.10043 0.0
O179 O 0.16071 0.82661 0.09058 0.0
O180 O 0.18304 0.8689 0.1227 0.0
O181 O 0.12962 0.84517 0.11906 0.0
C182 C 0.15414 0.75815 0.12707 0.0
O183 O 0.22439 0.83178 0.09552 0.0
O184 O 0.23724 0.86789 0.11693 0.0
C185 C 0.03579 0.78503 0.13926 0.0
C186 C 0.99432 0.80924 0.1393 0.0
C187 C 0.02655 0.82892 0.14319 0.0
C188 C 0.04711 0.81695 0.14308 0.0
C189 C 1.00374 0.76528 0.13562 0.0
C190 C 0.98321 0.77721 0.13562 0.0
C191 C 0.05738 0.7726 0.13729 0.0
H192 H 0.33764 0.85691 0.08431 0.0
H193 H 0.28711 0.85368 0.07812 0.0
H194 H 0.27337 0.85773 0.13895 0.0
H195 H 0.32391 0.86103 0.14519 0.0
H196 H 0.03593 0.8536 0.14628 0.0
H197 H 0.0719 0.8327 0.14569 0.0
H198 H 0.99467 0.7407 0.13231 0.0
H199 H 0.95874 0.76144 0.13219 0.0
Tb200 Tb 0.37416 0.18024 0.61679 0.0
Eu201 Eu 0.33413 0.10697 0.63184 0.0
C202 C 0.34765 0.12375 0.58887 0.0
C203 C 0.30145 0.14771 0.62364 0.0
C204 C 0.43412 0.26557 0.60899 0.0
C205 C 0.47904 0.31364 0.59722 0.0
C206 C 0.45211 0.28463 0.59372 0.0
C207 C 0.44388 0.27574 0.6279 0.0
C208 C 0.4707 0.30489 0.6314 0.0
C209 C 0.48845 0.32433 0.6161 0.0
C210 C 0.40437 0.23633 0.60484 0.0
O211 O 0.38645 0.18205 0.64707 0.0
O212 O 0.34129 0.13825 0.65695 0.0
O213 O 0.38473 0.12068 0.63747 0.0
O214 O 0.40829 0.16435 0.6178 0.0
C215 C 0.36708 0.16471 0.66077 0.0
O216 O 0.30878 0.07089 0.65363 0.0
O217 O 0.31017 0.05735 0.62432 0.0
O218 O 0.35358 0.10954 0.60261 0.0
O219 O 0.34725 0.14973 0.59267 0.0
O220 O 0.32895 0.17281 0.62634 0.0
O221 O 0.29888 0.12009 0.62098 0.0
C222 C 0.40953 0.1428 0.62842 0.0
O223 O 0.40637 0.21325 0.5971 0.0
O224 O 0.38277 0.22644 0.61805 0.0
C225 C 0.26331 0.02681 0.6413 0.0
C226 C 0.19792 0.98453 0.63942 0.0
C227 C 0.21796 0.97625 0.64902 0.0
C228 C 0.25036 0.9972 0.64992 0.0
C229 C 0.24342 0.03549 0.63207 0.0
C230 C 0.21106 1.01457 0.63112 0.0
C231 C 0.29757 0.048 0.64121 0.0
H232 H 0.49199 0.32813 0.5851 0.0
H233 H 0.44496 0.27735 0.57904 0.0
H234 H 0.43053 0.26142 0.63997 0.0
H235 H 0.47754 0.31223 0.6461 0.0
H236 H 0.20863 0.95353 0.65584 0.0
H237 H 0.26534 0.99012 0.65715 0.0
H238 H 0.253 0.05823 0.62524 0.0
H239 H 0.1965 0.02166 0.6234 0.0
Tb240 Tb 0.6731 0.82923 0.40315 0.0
Eu241 Eu 0.71381 0.79671 0.38773 0.0
C242 C 0.7002 0.79953 0.43089 0.0
C243 C 0.74596 0.86998 0.39661 0.0
C244 C 0.61265 0.85409 0.41077 0.0
C245 C 0.56738 0.85693 0.42224 0.0
C246 C 0.59416 0.85465 0.42591 0.0
C247 C 0.60352 0.85519 0.3918 0.0
C248 C 0.57685 0.85772 0.38812 0.0
C249 C 0.55863 0.85893 0.4033 0.0
C250 C 0.64231 0.85452 0.41513 0.0
O251 O 0.6611 0.81919 0.37279 0.0
O252 O 0.70649 0.82106 0.36285 0.0
O253 O 0.6633 0.7598 0.38191 0.0
O254 O 0.6396 0.77909 0.40212 0.0
C255 C 0.68061 0.82159 0.35908 0.0
O256 O 0.7399 0.7871 0.36586 0.0
O257 O 0.73741 0.77052 0.39483 0.0
O258 O 0.69486 0.7797 0.41704 0.0
O259 O 0.69997 0.82566 0.42729 0.0
O260 O 0.71836 0.86748 0.39414 0.0
O261 O 0.74888 0.84503 0.39869 0.0
C262 C 0.63849 0.75666 0.3912 0.0
O263 O 0.64018 0.82924 0.42262 0.0
O264 O 0.6643 0.86671 0.40218 0.0
C265 C 0.7849 0.78773 0.37838 0.0
C266 C 0.85024 0.81087 0.38096 0.0
C267 C 0.83055 0.78278 0.37104 0.0
C268 C 0.79817 0.77132 0.36978 0.0
C269 C 0.80444 0.81603 0.38796 0.0
C270 C 0.83678 0.82751 0.38924 0.0
C271 C 0.75063 0.77467 0.37807 0.0
H272 H 0.55405 0.85809 0.43427 0.0
H273 H 0.60083 0.854 0.44064 0.0
H274 H 0.61727 0.85464 0.37982 0.0
H275 H 0.57051 0.85877 0.37338 0.0
H276 H 0.84014 0.76959 0.36425 0.0
H277 H 0.78345 0.74945 0.3623 0.0
H278 H 0.79458 0.82892 0.39481 0.0
H279 H 0.85108 0.84896 0.39719 0.0
Tb280 Tb 0.86314 0.66571 0.9032 0.0
Eu281 Eu 0.93536 0.70626 0.88604 0.0
C282 C 0.92159 0.69525 0.93005 0.0
C283 C 0.89521 0.73859 0.89681 0.0
C284 C 0.77789 0.60529 0.91126 0.0
C285 C 0.73442 0.55504 0.9218 0.0
C286 C 0.76371 0.58171 0.92521 0.0
C287 C 0.76239 0.60137 0.89364 0.0
C288 C 0.73302 0.57481 0.89027 0.0
C289 C 0.71842 0.55142 0.90439 0.0
C290 C 0.80748 0.63463 0.91586 0.0
O291 O 0.85907 0.65249 0.87293 0.0
O292 O 0.90207 0.69719 0.86184 0.0
O293 O 0.92096 0.65554 0.88017 0.0
O294 O 0.88126 0.63337 0.90263 0.0
C295 C 0.87538 0.67131 0.85877 0.0
O296 O 0.96847 0.73706 0.86425 0.0
O297 O 0.98578 0.72495 0.88942 0.0
O298 O 0.93661 0.69107 0.91598 0.0
O299 O 0.89416 0.69311 0.92702 0.0
O300 O 0.86996 0.71106 0.89448 0.0
O301 O 0.92315 0.74143 0.89812 0.0
C302 C 0.90092 0.63142 0.89062 0.0
O303 O 0.83081 0.63198 0.92256 0.0
O304 O 0.81704 0.65755 0.90357 0.0
C305 C 1.01615 0.77681 0.87737 0.0
C306 C 0.05875 0.84183 0.88211 0.0
C307 C 0.05413 0.82749 0.86399 0.0
C308 C 0.03313 0.79534 0.86168 0.0
C309 C 1.02057 0.79098 0.89549 0.0
C310 C 0.04174 0.82308 0.89784 0.0
C311 C 0.99307 0.7432 0.87447 0.0
H312 H 0.72427 0.53731 0.93289 0.0
H313 H 0.77508 0.58415 0.93892 0.0
H314 H 0.77257 0.61912 0.88257 0.0
H315 H 0.72137 0.57313 0.87679 0.0
H316 H 0.06635 0.84118 0.85147 0.0
H317 H 0.02986 0.78499 0.84755 0.0
H318 H 1.00758 0.77731 0.90785 0.0
H319 H 0.04493 0.8331 0.91205 0.0
Tb320 Tb 0.21174 0.85409 0.40407 0.0
Eu321 Eu 0.24511 0.92731 0.38884 0.0
C322 C 0.24234 0.91075 0.43183 0.0
C323 C 0.17164 0.8871 0.39817 0.0
C324 C 0.18628 0.76845 0.41123 0.0
C325 C 0.19866 0.72811 0.4206 0.0
C326 C 0.20066 0.75717 0.42384 0.0
C327 C 0.1701 0.75012 0.39518 0.0
C328 C 0.16801 0.72105 0.39197 0.0
C329 C 0.18197 0.70948 0.40474 0.0
C330 C 0.18609 0.79787 0.41575 0.0
O331 O 0.22087 0.8523 0.37353 0.0
O332 O 0.21886 0.89594 0.3642 0.0
O333 O 0.2813 0.91286 0.38256 0.0
O334 O 0.2617 0.86984 0.40271 0.0
C335 C 0.21784 0.86942 0.3601 0.0
O336 O 0.2567 0.96352 0.367 0.0
O337 O 0.27058 0.97687 0.39646 0.0
O338 O 0.26233 0.92465 0.41796 0.0
O339 O 0.21593 0.88469 0.42825 0.0
O340 O 0.17352 0.86164 0.39579 0.0
O341 O 0.19697 0.91481 0.3999 0.0
C342 C 0.28414 0.89089 0.39167 0.0
O343 O 0.21131 0.8209 0.42343 0.0
O344 O 0.17395 0.80799 0.40296 0.0
C345 C 0.25451 1.00728 0.37916 0.0
C346 C 0.23081 0.04907 0.38082 0.0
C347 C 0.25922 0.05756 0.37125 0.0
C348 C 0.27095 0.03684 0.37045 0.0
C349 C 0.22588 0.99843 0.38837 0.0
C350 C 0.21413 0.01907 0.38919 0.0
C351 C 0.26786 0.98633 0.37949 0.0
H352 H 0.21009 0.7202 0.4306 0.0
H353 H 0.21307 0.77059 0.43641 0.0
H354 H 0.1584 0.75784 0.38525 0.0
H355 H 0.15459 0.70723 0.37977 0.0
H356 H 0.27245 0.08028 0.36441 0.0
H357 H 0.29308 0.04407 0.36326 0.0
H358 H 0.21297 0.97579 0.39531 0.0
H359 H 0.19245 1.01185 0.3969 0.0
Tb360 Tb 0.37725 0.20251 0.90516 0.0
Eu361 Eu 0.33733 0.2358 0.88968 0.0
C362 C 0.35115 0.23336 0.9327 0.0
C363 C 0.30398 0.16246 0.89946 0.0
C364 C 0.43759 0.17765 0.91261 0.0
C365 C 0.48234 0.17365 0.92382 0.0
C366 C 0.45546 0.17569 0.92765 0.0
C367 C 0.44743 0.17822 0.8936 0.0
C368 C 0.47419 0.17594 0.88975 0.0
C369 C 0.4918 0.17332 0.90481 0.0
C370 C 0.40787 0.17702 0.91703 0.0
O371 O 0.38836 0.21174 0.87465 0.0
O372 O 0.34272 0.2096 0.86511 0.0
O373 O 0.38798 0.27195 0.88351 0.0
O374 O 0.4114 0.25251 0.90381 0.0
C375 C 0.36841 0.20886 0.86112 0.0
O376 O 0.31292 0.2475 0.86773 0.0
O377 O 0.31324 0.26131 0.8972 0.0
O378 O 0.3573 0.25323 0.91877 0.0
O379 O 0.35079 0.20691 0.92925 0.0
O380 O 0.33128 0.16414 0.89725 0.0
O381 O 0.30162 0.18785 0.9008 0.0
C382 C 0.41276 0.27489 0.89273 0.0
O383 O 0.40989 0.20216 0.9247 0.0
O384 O 0.38601 0.16502 0.90398 0.0
C385 C 0.26704 0.24588 0.87962 0.0
C386 C 0.20169 0.22338 0.88046 0.0
C387 C 0.22208 0.25059 0.87 0.0
C388 C 0.25445 0.26174 0.86963 0.0
C389 C 0.2468 0.21838 0.88973 0.0
C390 C 0.21447 0.20724 0.89016 0.0
C391 C 0.30128 0.25874 0.88017 0.0
H392 H 0.49519 0.1714 0.93574 0.0
H393 H 0.44824 0.17506 0.9424 0.0
H394 H 0.43416 0.17989 0.88171 0.0
H395 H 0.48108 0.17618 0.87497 0.0
H396 H 0.21304 0.26334 0.8621 0.0
H397 H 0.26969 0.28296 0.86171 0.0
H398 H 0.2561 0.20585 0.89763 0.0
H399 H 0.19963 0.18646 0.89854 0.0
Tb400 Tb 0.18795 0.36639 0.40439 0.0
Eu401 Eu 0.11374 0.32742 0.39069 0.0
C402 C 0.13276 0.34151 0.43311 0.0
C403 C 0.15394 0.29346 0.39805 0.0
C404 C 0.27417 0.4254 0.41076 0.0
C405 C 0.31584 0.47746 0.42017 0.0
C406 C 0.28665 0.45072 0.42366 0.0
C407 C 0.29143 0.42757 0.39415 0.0
C408 C 0.32064 0.45424 0.3907 0.0
C409 C 0.33342 0.47943 0.40375 0.0
C410 C 0.24458 0.3961 0.41548 0.0
O411 O 0.18897 0.3771 0.37388 0.0
O412 O 0.143 0.33317 0.36484 0.0
O413 O 0.12822 0.37805 0.38475 0.0
O414 O 0.17335 0.40152 0.40323 0.0
C415 C 0.17009 0.3579 0.36058 0.0
O416 O 0.07581 0.30365 0.36972 0.0
O417 O 0.06485 0.30334 0.39978 0.0
O418 O 0.11893 0.34851 0.41968 0.0
O419 O 0.15801 0.34003 0.42882 0.0
O420 O 0.17943 0.32064 0.39537 0.0
O421 O 0.12647 0.29135 0.40054 0.0
C422 C 0.15141 0.40292 0.39312 0.0
O423 O 0.22206 0.39881 0.4235 0.0
O424 O 0.23372 0.3738 0.40269 0.0
C425 C 0.03286 0.25744 0.38225 0.0
C426 C 0.99085 0.19196 0.38262 0.0
C427 C 0.98335 0.21228 0.37265 0.0
C428 C 1.00416 0.24472 0.3725 0.0
C429 C 0.04076 0.23729 0.39189 0.0
C430 C 1.01997 0.2049 0.3921 0.0
C431 C 0.05404 0.29169 0.38286 0.0
H432 H 0.32467 0.49657 0.43041 0.0
H433 H 0.27405 0.44967 0.43664 0.0
H434 H 0.28274 0.40839 0.38397 0.0
H435 H 0.33362 0.45466 0.37805 0.0
H436 H 0.96138 0.20313 0.36493 0.0
H437 H 0.99772 0.2599 0.36491 0.0
H438 H 0.0628 0.24666 0.39955 0.0
H439 H 0.02642 0.19011 0.40012 0.0
Tb440 Tb 0.83977 0.18138 0.90371 0.0
Eu441 Eu 0.8074 0.10866 0.88753 0.0
C442 C 0.81039 0.12386 0.93104 0.0
C443 C 0.88036 0.14906 0.89712 0.0
C444 C 0.86441 0.26646 0.91148 0.0
C445 C 0.86711 0.31463 0.92269 0.0
C446 C 0.86501 0.2857 0.92652 0.0
C447 C 0.86531 0.27638 0.89246 0.0
C448 C 0.86766 0.30545 0.88862 0.0
C449 C 0.86887 0.32506 0.9037 0.0
C450 C 0.86482 0.23727 0.91599 0.0
O451 O 0.83016 0.18432 0.87339 0.0
O452 O 0.83198 0.14104 0.86299 0.0
O453 O 0.77092 0.1228 0.88155 0.0
O454 O 0.78948 0.16425 0.90286 0.0
C455 C 0.83269 0.16757 0.8595 0.0
O456 O 0.80101 0.07417 0.8655 0.0
O457 O 0.77853 0.05849 0.8931 0.0
O458 O 0.79065 0.10937 0.91713 0.0
O459 O 0.83623 0.15063 0.92766 0.0
O460 O 0.87804 0.17429 0.89474 0.0
O461 O 0.85526 0.12125 0.89899 0.0
C462 C 0.76743 0.14379 0.89138 0.0
O463 O 0.83934 0.21403 0.92323 0.0
O464 O 0.87741 0.22762 0.9032 0.0
C465 C 0.79825 0.02855 0.87853 0.0
C466 C 0.82149 0.98649 0.88137 0.0
C467 C 0.8016 0.9841 0.86615 0.0
C468 C 0.79003 1.0049 0.86478 0.0
C469 C 0.81851 0.03135 0.89358 0.0
C470 C 0.82986 1.01041 0.89505 0.0
C471 C 0.78593 0.05034 0.877 0.0
H472 H 0.86826 0.32924 0.93464 0.0
H473 H 0.86449 0.27861 0.94129 0.0
H474 H 0.86471 0.26192 0.88056 0.0
H475 H 0.86854 0.31258 0.87384 0.0
H476 H 0.79451 0.96576 0.85548 0.0
H477 H 0.77454 1.00244 0.85303 0.0
H478 H 0.8255 0.04969 0.90424 0.0
H479 H 0.84543 1.01311 0.9068 0.0
H480 H 0.21126 0.92711 0.11827 0.0
H481 H 0.21725 0.97929 0.11949 0.0
H482 H 0.11683 0.9385 0.12385 0.0
H483 H 0.11045 0.88565 0.12274 0.0
H484 H 0.19027 1.00599 0.09432 0.0
H485 H 0.15326 0.99997 0.17045 0.0
H486 H 0.16474 0.97315 0.16072 0.0
H487 H 0.12726 0.96871 0.15469 0.0
C488 C 0.19032 0.92904 0.11948 0.0
C489 C 0.16034 0.90209 0.1205 0.0
C490 C 0.19385 0.95898 0.12013 0.0
C491 C 0.16756 0.96279 0.12196 0.0
C492 C 0.13747 0.93605 0.12268 0.0
H493 H 0.17435 0.1433 0.13898 0.0
H494 H 0.1552 0.08712 0.13485 0.0
C495 C 0.13386 0.90589 0.12193 0.0
C496 C 0.17225 0.99499 0.12312 0.0
H497 H 0.17091 0.04788 0.15433 0.0
C498 C 0.18575 1.0151 0.10737 0.0
C499 C 0.1662 1.00673 0.14013 0.0
C500 C 0.15223 0.98621 0.15756 0.0
C501 C 0.194 0.04683 0.1083 0.0
C502 C 0.18931 0.05898 0.12561 0.0
C503 C 0.17467 0.03858 0.14112 0.0
C504 C 0.20082 0.09304 0.12816 0.0
C505 C 0.20776 0.06705 0.09073 0.0
C506 C 0.2329 0.115 0.12611 0.0
C507 C 0.24389 0.14709 0.12832 0.0
C508 C 0.22306 0.15797 0.13282 0.0
C509 C 0.19098 0.13582 0.13524 0.0
C510 C 0.18001 0.10368 0.133 0.0
H511 H 0.20079 0.0527 0.07741 0.0
H512 H 0.20022 0.08484 0.08956 0.0
H513 H 0.23377 0.07952 0.09167 0.0
H514 H 0.24952 0.10731 0.12279 0.0
H515 H 0.26866 0.1634 0.12616 0.0
H516 H 0.29878 0.20012 0.63284 0.0
H517 H 0.25293 0.20657 0.63424 0.0
H518 H 0.1938 0.11016 0.61694 0.0
H519 H 0.23989 0.10318 0.61589 0.0
H520 H 0.21305 0.20094 0.60564 0.0
H521 H 0.14759 0.11566 0.66388 0.0
H522 H 0.18821 0.12859 0.65862 0.0
H523 H 0.15764 0.09999 0.64355 0.0
C524 C 0.27608 0.18013 0.62937 0.0
C525 C 0.27308 0.15107 0.62428 0.0
C526 C 0.24982 0.18392 0.63017 0.0
C527 C 0.21984 0.15881 0.62591 0.0
C528 C 0.21662 0.12972 0.62067 0.0
H529 H 0.04657 0.17004 0.62213 0.0
H530 H 0.08393 0.15115 0.61838 0.0
C531 C 0.24301 0.12582 0.61996 0.0
C532 C 0.19247 0.1639 0.62661 0.0
H533 H 0.12404 0.14304 0.65056 0.0
C534 C 0.19349 0.1881 0.61537 0.0
C535 C 0.16689 0.1471 0.6393 0.0
C536 C 0.16497 0.12154 0.65216 0.0
C537 C 0.17015 0.19647 0.6168 0.0
C538 C 0.14515 0.18032 0.62985 0.0
C539 C 0.14335 0.15537 0.6406 0.0
C540 C 0.12178 0.19044 0.63322 0.0
C541 C 0.17258 0.2229 0.60458 0.0
C542 C 0.13057 0.21843 0.64314 0.0
C543 C 0.10926 0.22913 0.64553 0.0
C544 C 0.07868 0.21211 0.63793 0.0
C545 C 0.06975 0.1836 0.62837 0.0
C546 C 0.09109 0.17282 0.6261 0.0
H547 H 0.18985 0.22906 0.59276 0.0
H548 H 0.14935 0.21651 0.59833 0.0
H549 H 0.18017 0.24403 0.61366 0.0
H550 H 0.15411 0.23219 0.64889 0.0
H551 H 0.11681 0.25082 0.65329 0.0
H552 H 0.90144 0.03729 0.13924 0.0
H553 H 0.95764 0.07552 0.13672 0.0
H554 H 0.93687 0.15087 0.13478 0.0
H555 H 0.88078 0.11298 0.13691 0.0
H556 H 0.9904 0.12175 0.10728 0.0
H557 H 1.00162 0.17594 0.17873 0.0
H558 H 0.96867 0.1382 0.17231 0.0
H559 H 0.97025 0.17375 0.16437 0.0
C560 C 0.90877 0.06198 0.13816 0.0
C561 C 0.88646 0.072 0.13843 0.0
C562 C 0.94094 0.08379 0.1368 0.0
C563 C 0.95145 0.11605 0.13584 0.0
C564 C 0.92931 0.12612 0.1359 0.0
H565 H 0.11733 0.29349 0.12471 0.0
H566 H 0.0652 0.24774 0.12775 0.0
C567 C 0.89721 0.10438 0.1372 0.0
C568 C 0.98551 0.13937 0.13455 0.0
H569 H 0.04407 0.20382 0.15698 0.0
C570 C 1.00233 0.13949 0.11823 0.0
C571 C 1.00101 0.16235 0.14891 0.0
C572 C 0.98459 0.16249 0.16717 0.0
C573 C 0.03383 0.16302 0.11545 0.0
C574 C 0.04897 0.18666 0.12952 0.0
C575 C 0.03242 0.18577 0.14615 0.0
C576 C 0.08109 0.21393 0.12676 0.0
C577 C 0.05018 0.16322 0.0971 0.0
C578 C 0.10756 0.21023 0.12509 0.0
C579 C 0.13773 0.23658 0.12327 0.0
C580 C 0.14188 0.26705 0.12325 0.0
C581 C 0.11518 0.27047 0.12475 0.0
C582 C 0.08524 0.24428 0.1265 0.0
H583 H 0.03343 0.14713 0.08616 0.0
H584 H 0.06315 0.18726 0.09099 0.0
H585 H 0.06744 0.15552 0.10018 0.0
H586 H 0.10499 0.18705 0.12557 0.0
H587 H 0.15774 0.23308 0.12223 0.0
H588 H 0.87859 0.89053 0.64061 0.0
H589 H 0.89698 0.94681 0.63804 0.0
H590 H 0.8011 0.92672 0.63491 0.0
H591 H 0.78251 0.87057 0.63715 0.0
H592 H 0.88512 0.98012 0.60848 0.0
H593 H 0.83934 0.99096 0.67901 0.0
H594 H 0.84388 0.95779 0.6728 0.0
H595 H 0.81048 0.95996 0.6643 0.0
C596 C 0.86139 0.89805 0.63926 0.0
C597 C 0.82901 0.87593 0.63924 0.0
C598 C 0.87197 0.93024 0.63787 0.0
C599 C 0.85041 0.94097 0.63658 0.0
C600 C 0.81815 0.919 0.63631 0.0
H601 H 0.83946 0.10665 0.62361 0.0
H602 H 0.83311 0.05455 0.62675 0.0
C603 C 0.80755 0.88687 0.63766 0.0
C604 C 0.86138 0.97506 0.6353 0.0
H605 H 0.85466 0.03352 0.6572 0.0
C606 C 0.87886 0.99199 0.61923 0.0
C607 C 0.85335 0.99049 0.64942 0.0
C608 C 0.83599 0.97399 0.66746 0.0
C609 C 0.88708 0.02354 0.61641 0.0
C610 C 0.87796 0.03857 0.63019 0.0
C611 C 0.86153 0.02193 0.6466 0.0
C612 C 0.88287 0.07065 0.62727 0.0
C613 C 0.90417 0.04009 0.59833 0.0
C614 C 0.9131 0.09721 0.62639 0.0
C615 C 0.91691 0.12736 0.62453 0.0
C616 C 0.89051 0.13138 0.62367 0.0
C617 C 0.86037 0.10459 0.62432 0.0
C618 C 0.85664 0.07468 0.62612 0.0
H619 H 0.90441 0.02353 0.58758 0.0
H620 H 0.89314 0.0528 0.59177 0.0
H621 H 0.92885 0.05761 0.6019 0.0
H622 H 0.93371 0.0947 0.62754 0.0
H623 H 0.94044 0.14747 0.62415 0.0
H624 H 1.00543 0.86609 0.12508 0.0
H625 H 0.96887 0.88615 0.12341 0.0
H626 H 0.89659 0.80071 0.14919 0.0
H627 H 0.93327 0.78117 0.15182 0.0
H628 H 0.91408 0.86316 0.10416 0.0
H629 H 0.89104 0.86533 0.18157 0.0
H630 H 0.92295 0.86057 0.17278 0.0
H631 H 0.88371 0.82737 0.1741 0.0
C632 C 0.98196 0.85182 0.13079 0.0
C633 C 0.97243 0.82201 0.13868 0.0
C634 C 0.961 0.86324 0.12966 0.0
C635 C 0.93011 0.84521 0.13647 0.0
C636 C 0.9205 0.81543 0.14426 0.0
H637 H 0.75271 0.83337 0.13072 0.0
H638 H 0.79913 0.82796 0.13365 0.0
C639 C 0.94144 0.80407 0.1455 0.0
C640 C 0.90739 0.85672 0.13471 0.0
H641 H 0.85329 0.86637 0.16004 0.0
C642 C 0.90118 0.86441 0.11643 0.0
C643 C 0.89069 0.8586 0.15073 0.0
C644 C 0.89768 0.85286 0.17091 0.0
C645 C 0.87757 0.87223 0.11363 0.0
C646 C 0.85985 0.87247 0.12951 0.0
C647 C 0.86685 0.86601 0.14786 0.0
C648 C 0.83213 0.87656 0.12721 0.0
C649 C 0.87068 0.87879 0.09363 0.0
C650 C 0.83531 0.90582 0.1226 0.0
C651 C 0.80865 0.90913 0.12097 0.0
C652 C 0.77841 0.88316 0.12387 0.0
C653 C 0.77552 0.85391 0.12835 0.0
C654 C 0.80206 0.85072 0.13007 0.0
H655 H 0.88463 0.87483 0.08259 0.0
H656 H 0.84531 0.8636 0.09034 0.0
H657 H 0.8762 0.90357 0.09269 0.0
H658 H 0.8584 0.92611 0.12049 0.0
H659 H 0.81173 0.93198 0.11754 0.0
H660 H 0.89261 0.80061 0.62409 0.0
H661 H 0.94568 0.84674 0.62527 0.0
H662 H 0.98561 0.78628 0.62198 0.0
H663 H 0.9332 0.74041 0.62073 0.0
H664 H 0.99393 0.85903 0.65324 0.0
H665 H 0.03191 0.8519 0.57951 0.0
H666 H 0.99111 0.83212 0.58661 0.0
H667 H 1.01538 0.81544 0.59237 0.0
C668 C 0.91271 0.79718 0.62344 0.0
C669 C 0.90859 0.76677 0.62228 0.0
C670 C 0.94298 0.82355 0.62416 0.0
C671 C 0.96957 0.81993 0.62345 0.0
C672 C 0.96546 0.78966 0.62221 0.0
H673 H 0.16961 0.92128 0.63263 0.0
H674 H 0.11363 0.88376 0.62905 0.0
C675 C 0.93538 0.76341 0.6216 0.0
C676 C 1.00178 0.84741 0.6248 0.0
H677 H 0.07257 0.88354 0.60178 0.0
C678 C 1.01106 0.86479 0.6419 0.0
C679 C 1.02405 0.85477 0.60999 0.0
C680 C 1.0151 0.83779 0.591 0.0
C681 C 0.04244 0.88833 0.64496 0.0
C682 C 0.06495 0.89499 0.63036 0.0
C683 C 0.05536 0.8783 0.61301 0.0
C684 C 0.09885 0.91809 0.63306 0.0
C685 C 0.0515 0.90483 0.6641 0.0
C686 C 0.10923 0.94994 0.63645 0.0
C687 C 0.1413 0.97147 0.63873 0.0
C688 C 0.16366 0.9616 0.63752 0.0
C689 C 0.15309 0.92966 0.63401 0.0
C690 C 0.12108 0.9082 0.63178 0.0
H691 H 0.0332 0.89209 0.67517 0.0
H692 H 0.07405 0.90741 0.66924 0.0
H693 H 0.05457 0.92867 0.66254 0.0
H694 H 0.09258 0.95823 0.63716 0.0
H695 H 0.14853 0.99582 0.64152 0.0
H696 H 0.11513 0.83292 0.39907 0.0
H697 H 0.06284 0.82668 0.39761 0.0
H698 H 0.1032 0.92721 0.39603 0.0
H699 H 0.15613 0.93383 0.39737 0.0
H700 H 0.03433 0.85073 0.42311 0.0
H701 H 0.04423 0.89482 0.34842 0.0
H702 H 0.07098 0.88312 0.35795 0.0
H703 H 0.07442 0.91976 0.36509 0.0
C704 C 0.11309 0.85383 0.39842 0.0
C705 C 0.13997 0.88393 0.39822 0.0
C706 C 0.08307 0.85016 0.39763 0.0
C707 C 0.07912 0.87642 0.39648 0.0
C708 C 0.10577 0.9066 0.39663 0.0
H709 H 0.89955 0.87153 0.37914 0.0
H710 H 0.95546 0.89001 0.38411 0.0
C711 C 0.13598 0.91034 0.39751 0.0
C712 C 0.04688 0.87163 0.39506 0.0
H713 H 0.99559 0.87608 0.3639 0.0
C714 C 0.02591 0.85653 0.41024 0.0
C715 C 0.036 0.87933 0.37828 0.0
C716 C 0.0574 0.89498 0.3614 0.0
C717 C 0.99421 0.84836 0.40896 0.0
C718 C 0.98298 0.85482 0.39187 0.0
C719 C 1.0042 0.87098 0.37695 0.0
C720 C 0.94907 0.84372 0.38888 0.0
C721 C 0.97303 0.83281 0.42595 0.0
C722 C 0.92695 0.81151 0.38958 0.0
C723 C 0.895 0.80089 0.38687 0.0
C724 C 0.88444 0.82223 0.38323 0.0
C725 C 0.90677 0.85448 0.38219 0.0
C726 C 0.93877 0.86508 0.38491 0.0
H727 H 0.98665 0.83825 0.43951 0.0
H728 H 0.95525 0.84031 0.42743 0.0
H729 H 0.96052 0.80697 0.42394 0.0
H730 H 0.93441 0.79452 0.39222 0.0
H731 H 0.87853 0.77596 0.38795 0.0
H732 H 0.05268 0.88378 0.90532 0.0
H733 H 0.08995 0.93982 0.90957 0.0
H734 H 0.15241 0.93401 0.86855 0.0
H735 H 0.11587 0.87788 0.86457 0.0
H736 H 0.15489 0.9683 0.92141 0.0
H737 H 0.14154 1.00843 0.84946 0.0
H738 H 0.11287 0.971 0.85944 0.0
H739 H 0.14856 0.97589 0.84916 0.0
C740 C 0.07444 0.89429 0.8973 0.0
C741 C 0.08115 0.87615 0.88456 0.0
C742 C 0.09561 0.9264 0.89966 0.0
C743 C 0.12371 0.94114 0.88917 0.0
C744 C 0.13055 0.92322 0.87649 0.0
H745 H 0.30118 0.10603 0.90354 0.0
H746 H 0.25497 0.05376 0.90253 0.0
C747 C 0.10954 0.89109 0.87421 0.0
C748 C 0.14653 0.97503 0.89195 0.0
H749 H 0.18545 0.04495 0.86811 0.0
C750 C 0.16133 0.98515 0.90983 0.0
C751 C 0.15459 0.99704 0.87691 0.0
C752 C 0.1384 0.98771 0.85769 0.0
C753 C 0.18503 1.01643 0.91279 0.0
C754 C 0.19427 0.03806 0.89744 0.0
C755 C 0.17845 0.02829 0.87983 0.0
C756 C 0.22187 0.07017 0.89893 0.0
C757 C 0.20035 0.02602 0.93225 0.0
C758 C 0.21865 0.09687 0.89705 0.0
C759 C 0.24519 0.12703 0.89766 0.0
C760 C 0.27539 0.1309 0.89986 0.0
C761 C 0.27834 0.10401 0.90181 0.0
C762 C 0.2519 0.07403 0.90135 0.0
H763 H 0.18524 1.00962 0.94364 0.0
H764 H 0.22279 0.02577 0.93204 0.0
H765 H 0.20567 0.05015 0.93598 0.0
H766 H 0.19565 0.09435 0.89503 0.0
H767 H 0.24208 0.14721 0.89602 0.0
H768 H 0.20792 0.29077 0.39815 0.0
H769 H 0.21381 0.24456 0.39651 0.0
H770 H 0.11314 0.18483 0.3958 0.0
H771 H 0.10685 0.23134 0.39736 0.0
H772 H 0.18924 0.192 0.42258 0.0
H773 H 0.14521 0.15781 0.34782 0.0
H774 H 0.15767 0.19654 0.35717 0.0
H775 H 0.12081 0.16387 0.36451 0.0
C776 C 0.1869 0.26788 0.39764 0.0
C777 C 0.15686 0.26484 0.39778 0.0
C778 C 0.19037 0.24145 0.39675 0.0
C779 C 0.16396 0.21131 0.39584 0.0
C780 C 0.13384 0.20795 0.39625 0.0
H781 H 0.17003 0.03729 0.37837 0.0
H782 H 0.15106 0.07436 0.38315 0.0
C783 C 0.1303 0.23453 0.39725 0.0
C784 C 0.16859 0.18379 0.39445 0.0
H785 H 0.16471 0.12848 0.36315 0.0
C786 C 0.18359 0.17788 0.40967 0.0
C787 C 0.16108 0.16535 0.37762 0.0
C788 C 0.14545 0.17114 0.36074 0.0
C789 C 0.19192 0.15448 0.40836 0.0
C790 C 0.18574 0.137 0.39119 0.0
C791 C 0.16961 0.14205 0.37625 0.0
C792 C 0.19716 0.11447 0.38817 0.0
C793 C 0.20737 0.1488 0.42539 0.0
C794 C 0.22942 0.1248 0.38903 0.0
C795 C 0.24032 0.10368 0.38644 0.0
C796 C 0.2192 0.07175 0.38275 0.0
C797 C 0.18691 0.0616 0.38147 0.0
C798 C 0.17603 0.08278 0.38409 0.0
H799 H 0.20165 0.15672 0.43895 0.0
H800 H 0.20003 0.12355 0.42676 0.0
H801 H 0.23324 0.16232 0.42352 0.0
H802 H 0.24624 0.14927 0.39176 0.0
H803 H 0.26528 0.11232 0.38771 0.0
H804 H 0.15208 0.1627 0.87997 0.0
H805 H 0.09595 0.14511 0.88251 0.0
H806 H 0.11753 0.24136 0.88628 0.0
H807 H 0.17355 0.25916 0.88409 0.0
H808 H 0.06319 0.15742 0.91235 0.0
H809 H 0.05321 0.20438 0.84206 0.0
H810 H 0.08598 0.19908 0.84813 0.0
H811 H 0.08446 0.23271 0.85686 0.0
C812 C 0.14493 0.18015 0.88145 0.0
C813 C 0.16743 0.2124 0.88167 0.0
C814 C 0.11282 0.17003 0.88283 0.0
C815 C 0.10256 0.19193 0.8843 0.0
C816 C 0.1249 0.22407 0.88474 0.0
H817 H 0.93662 0.20351 0.8968 0.0
H818 H 0.98894 0.21014 0.89406 0.0
C819 C 0.15695 0.2342 0.88342 0.0
C820 C 0.06857 0.18144 0.88561 0.0
H821 H 1.01057 0.18903 0.86378 0.0
C822 C 0.0515 0.16395 0.90164 0.0
C823 C 0.05339 0.18986 0.87156 0.0
C824 C 0.07008 0.20729 0.85358 0.0
C825 C 1.02001 0.15602 0.90446 0.0
C826 C 1.00519 0.16543 0.89071 0.0
C827 C 1.02201 0.18196 0.87436 0.0
C828 C 0.97304 0.16044 0.8935 0.0
C829 C 1.00331 0.13887 0.92249 0.0
C830 C 0.94655 0.13017 0.89426 0.0
C831 C 0.91631 0.12621 0.89589 0.0
C832 C 0.91213 0.1525 0.89665 0.0
C833 C 0.93883 0.18269 0.89617 0.0
C834 C 0.96886 0.18658 0.89459 0.0
H835 H 1.01981 0.13871 0.93331 0.0
H836 H 0.99041 0.14976 0.92898 0.0
H837 H 0.98592 0.11417 0.91888 0.0
H838 H 0.94918 0.10964 0.89315 0.0
H839 H 0.89626 0.10264 0.89613 0.0
H840 H 0.92687 0.16266 0.38653 0.0
H841 H 0.88955 0.10638 0.3884 0.0
H842 H 0.96554 0.08689 0.38328 0.0
H843 H 1.00314 0.14324 0.38099 0.0
H844 H 0.8806 0.05907 0.36043 0.0
H845 H 0.91637 0.03763 0.43206 0.0
H846 H 0.9264 0.07644 0.42399 0.0
H847 H 0.947 0.05782 0.41462 0.0
C848 C 0.93571 0.14648 0.38558 0.0
C849 C 0.96808 0.15758 0.38358 0.0
C850 C 0.91434 0.1143 0.3868 0.0
C851 C 0.92482 0.09251 0.38621 0.0
C852 C 0.95703 0.10336 0.38411 0.0
H853 H 0.80849 0.88639 0.39587 0.0
H854 H 0.85413 0.93948 0.39274 0.0
C855 C 0.97847 0.13559 0.38282 0.0
C856 C 0.90174 0.05845 0.38732 0.0
H857 H 0.87511 0.99408 0.41633 0.0
C858 C 0.87951 0.04481 0.37259 0.0
C859 C 0.9006 0.03985 0.40312 0.0
C860 C 0.92369 0.05356 0.41945 0.0
C861 C 0.85577 1.0132 0.37338 0.0
C862 C 0.85377 0.9949 0.38955 0.0
C863 C 0.87667 1.00819 0.40398 0.0
C864 C 0.82667 0.96278 0.39231 0.0
C865 C 0.83289 0.9997 0.35691 0.0
C866 C 0.7963 0.95842 0.39366 0.0
C867 C 0.77035 0.92835 0.39541 0.0
C868 C 0.77413 0.90182 0.39602 0.0
C869 C 0.80472 0.90627 0.39537 0.0
C870 C 0.83081 0.93656 0.39356 0.0
H871 H 0.84299 1.0132 0.34349 0.0
H872 H 0.82589 0.97476 0.3543 0.0
H873 H 0.81146 1.00085 0.36039 0.0
H874 H 0.79262 0.97838 0.39319 0.0
H875 H 0.74724 0.92596 0.39611 0.0
H876 H 0.94031 0.80036 0.89081 0.0
H877 H 0.93219 0.84561 0.8885 0.0
H878 H 0.83387 0.78557 0.90133 0.0
H879 H 0.84158 0.74043 0.9031 0.0
H880 H 0.84142 0.82088 0.87076 0.0
H881 H 0.9191 0.89647 0.92918 0.0
H882 H 0.93862 0.88552 0.91165 0.0
H883 H 0.90858 0.85587 0.92654 0.0
C884 C 0.91707 0.79693 0.89336 0.0
C885 C 0.89157 0.76676 0.89705 0.0
C886 C 0.91247 0.82285 0.89213 0.0
C887 C 0.88243 0.81909 0.8949 0.0
C888 C 0.85723 0.7891 0.89908 0.0
H889 H 0.82385 0.95613 0.91365 0.0
H890 H 0.84055 0.91699 0.91629 0.0
C891 C 0.86171 0.76327 0.9001 0.0
C892 C 0.87644 0.84572 0.89244 0.0
H893 H 0.89574 0.91842 0.9094 0.0
C894 C 0.85335 0.84222 0.8792 0.0
C895 C 0.89177 0.87346 0.90357 0.0
C896 C 0.9157 0.87805 0.91867 0.0
C897 C 0.8449 0.8654 0.87694 0.0
C898 C 0.86064 0.89342 0.88779 0.0
C899 C 0.88389 0.89707 0.90095 0.0
C900 C 0.85229 0.91856 0.88625 0.0
C901 C 0.81839 0.85907 0.86341 0.0
C902 C 0.8539 0.93297 0.86857 0.0
C903 C 0.8441 0.95514 0.86699 0.0
C904 C 0.83299 0.96377 0.88314 0.0
C905 C 0.83244 0.95011 0.90097 0.0
C906 C 0.84195 0.92772 0.90249 0.0
H907 H 0.8034 0.8336 0.86032 0.0
H908 H 0.80331 0.86789 0.86938 0.0
H909 H 0.82831 0.87123 0.8496 0.0
H910 H 0.86255 0.92691 0.85593 0.0
H911 H 0.84535 0.96566 0.85314 0.0
H912 H 0.1141 0.7038 0.14667 0.0
H913 H 0.11714 0.65551 0.14875 0.0
H914 H 0.19971 0.69749 0.11298 0.0
H915 H 0.19727 0.74552 0.11105 0.0
H916 H 0.11504 0.61606 0.11946 0.0
H917 H 0.22845 0.66563 0.15782 0.0
H918 H 0.2064 0.68589 0.1563 0.0
H919 H 0.2312 0.68776 0.13675 0.0
C920 C 0.13302 0.70281 0.13937 0.0
C921 C 0.1555 0.7287 0.12878 0.0
C922 C 0.13471 0.67519 0.14056 0.0
C923 C 0.15903 0.67309 0.13133 0.0
C924 C 0.18122 0.69878 0.12064 0.0
H925 H 0.21447 0.53996 0.09932 0.0
H926 H 0.20701 0.58504 0.10465 0.0
C927 C 0.1796 0.72625 0.11945 0.0
C928 C 0.16086 0.64383 0.13206 0.0
H929 H 0.21141 0.61673 0.1414 0.0
C930 C 0.13587 0.61603 0.12455 0.0
C931 C 0.18805 0.64379 0.13875 0.0
C932 C 0.2149 0.6723 0.14804 0.0
C933 C 0.13801 0.58867 0.12269 0.0
C934 C 0.16573 0.5891 0.12863 0.0
C935 C 0.19027 0.61655 0.13672 0.0
C936 C 0.17029 0.56172 0.12579 0.0
C937 C 0.11116 0.55987 0.11364 0.0
C938 C 0.1524 0.53382 0.13611 0.0
C939 C 0.15666 0.50802 0.13313 0.0
C940 C 0.17883 0.50964 0.11971 0.0
C941 C 0.19696 0.53782 0.10958 0.0
C942 C 0.19283 0.56363 0.11267 0.0
H943 H 0.0936 0.5649 0.10701 0.0
H944 H 0.12005 0.55012 0.1025 0.0
H945 H 0.09913 0.54157 0.12479 0.0
H946 H 0.13512 0.53198 0.14645 0.0
H947 H 0.14216 0.4866 0.14105 0.0
H948 H 0.66976 0.1593 0.58904 0.0
H949 H 0.61769 0.1529 0.59408 0.0
H950 H 0.63537 0.16605 0.65488 0.0
H951 H 0.68806 0.17386 0.6499 0.0
H952 H 0.56785 0.10911 0.61539 0.0
H953 H 0.60764 0.22933 0.64275 0.0
H954 H 0.63398 0.2188 0.63127 0.0
H955 H 0.62255 0.20811 0.65584 0.0
C956 C 0.66285 0.16138 0.60347 0.0
C957 C 0.68335 0.16741 0.61903 0.0
C958 C 0.6329 0.15737 0.60635 0.0
C959 C 0.62271 0.15935 0.62483 0.0
C960 C 0.64288 0.16495 0.64045 0.0
H961 H 0.42428 0.10301 0.648 0.0
H962 H 0.47532 0.10526 0.64901 0.0
C963 C 0.67292 0.16908 0.63758 0.0
C964 C 0.59096 0.1555 0.62764 0.0
H965 H 0.55302 0.19387 0.6428 0.0
C966 C 0.56455 0.12756 0.62147 0.0
C967 C 0.58673 0.1797 0.63546 0.0
C968 C 0.6142 0.2108 0.64157 0.0
C969 C 0.5341 0.12333 0.62264 0.0
C970 C 0.52988 0.14751 0.6305 0.0
C971 C 0.55625 0.17523 0.63695 0.0
C972 C 0.49884 0.14588 0.6305 0.0
C973 C 0.50688 0.09357 0.61476 0.0
C974 C 0.49526 0.16832 0.62015 0.0
C975 C 0.46637 0.16724 0.61965 0.0
C976 C 0.44018 0.14367 0.62953 0.0
C977 C 0.44385 0.12136 0.64013 0.0
C978 C 0.47297 0.12251 0.64065 0.0
H979 H 0.51486 0.08027 0.60572 0.0
H980 H 0.49295 0.07824 0.62684 0.0
H981 H 0.49118 0.09887 0.60607 0.0
H982 H 0.51484 0.18659 0.61224 0.0
H983 H 0.46466 0.18495 0.61137 0.0
H984 H 0.50344 0.69342 0.11334 0.0
H985 H 0.45708 0.64149 0.11812 0.0
H986 H 0.51681 0.60136 0.12557 0.0
H987 H 0.56323 0.65319 0.12121 0.0
H988 H 0.44079 0.58759 0.09517 0.0
H989 H 0.4561 0.56616 0.17157 0.0
H990 H 0.47622 0.60485 0.16097 0.0
H991 H 0.48982 0.57765 0.15654 0.0
C992 C 0.50674 0.67365 0.11632 0.0
C993 C 0.53709 0.67751 0.11686 0.0
C994 C 0.48021 0.64395 0.11895 0.0
C995 C 0.48347 0.61758 0.12241 0.0
C996 C 0.51371 0.62141 0.12323 0.0
H997 H 0.34663 0.4168 0.13435 0.0
H998 H 0.39509 0.46817 0.13364 0.0
C999 C 0.54023 0.65104 0.12051 0.0
C1000 C 0.45523 0.58583 0.12404 0.0
H1001 H 0.41553 0.52356 0.1544 0.0
C1002 C 0.43519 0.57364 0.10814 0.0
C1003 C 0.44819 0.56749 0.1409 0.0
C1004 C 0.46853 0.5797 0.15855 0.0
C1005 C 0.40842 0.54359 0.10858 0.0
C1006 C 0.40095 0.52544 0.12557 0.0
C1007 C 0.42121 0.53746 0.14141 0.0
C1008 C 0.37165 0.49445 0.12725 0.0
C1009 C 0.3887 0.53135 0.09066 0.0
C1010 C 0.34234 0.49225 0.12453 0.0
C1011 C 0.3148 0.46308 0.12479 0.0
C1012 C 0.31579 0.43534 0.12807 0.0
C1013 C 0.34503 0.43767 0.13173 0.0
C1014 C 0.37274 0.467 0.13131 0.0
H1015 H 0.40239 0.54348 0.07762 0.0
H1016 H 0.37924 0.50572 0.08894 0.0
H1017 H 0.36863 0.53565 0.09162 0.0
H1018 H 0.34077 0.51314 0.12194 0.0
H1019 H 0.29269 0.46231 0.12224 0.0
H1020 H 0.83587 0.4939 0.59552 0.0
H1021 H 0.84425 0.44929 0.59999 0.0
H1022 H 0.91341 0.50063 0.64361 0.0
H1023 H 0.90492 0.54525 0.63932 0.0
H1024 H 0.89807 0.44729 0.59457 0.0
H1025 H 0.85918 0.4174 0.67023 0.0
H1026 H 0.8512 0.44343 0.65617 0.0
H1027 H 0.88943 0.4574 0.66651 0.0
C1028 C 0.8528 0.49567 0.60611 0.0
C1029 C 0.86965 0.52313 0.6171 0.0
C1030 C 0.85751 0.47011 0.60869 0.0
C1031 C 0.87916 0.47138 0.62232 0.0
C1032 C 0.89601 0.49873 0.63335 0.0
H1033 H 0.93636 0.33054 0.64594 0.0
H1034 H 0.93467 0.37968 0.6457 0.0
C1035 C 0.89116 0.52427 0.63085 0.0
C1036 C 0.88493 0.44452 0.62427 0.0
H1037 H 0.88107 0.38919 0.65563 0.0
C1038 C 0.89438 0.43466 0.60794 0.0
C1039 C 0.88038 0.42813 0.64176 0.0
C1040 C 0.86923 0.43689 0.65964 0.0
C1041 C 0.89901 0.40871 0.60854 0.0
C1042 C 0.89375 0.39191 0.62588 0.0
C1043 C 0.88517 0.40221 0.64237 0.0
C1044 C 0.89465 0.3622 0.62666 0.0
C1045 C 0.90933 0.39933 0.59056 0.0
C1046 C 0.8724 0.33601 0.61636 0.0
C1047 C 0.87321 0.30806 0.6165 0.0
C1048 C 0.89634 0.30552 0.627 0.0
C1049 C 0.91834 0.33167 0.63764 0.0
C1050 C 0.91739 0.35975 0.63754 0.0
H1051 H 0.92014 0.41893 0.58007 0.0
H1052 H 0.92646 0.39155 0.59393 0.0
H1053 H 0.88857 0.37945 0.58365 0.0
H1054 H 0.85436 0.33723 0.60812 0.0
H1055 H 0.85571 0.28848 0.60821 0.0
H1056 H 0.62561 0.92896 0.14646 0.0
H1057 H 0.57401 0.92547 0.14812 0.0
H1058 H 0.53472 0.84315 0.11216 0.0
H1059 H 0.58547 0.84603 0.11064 0.0
H1060 H 0.53691 0.92738 0.1186 0.0
H1061 H 0.47328 0.81367 0.15658 0.0
H1062 H 0.51561 0.83602 0.15531 0.0
H1063 H 0.49312 0.81132 0.1356 0.0
C1064 C 0.60593 0.91 0.13902 0.0
C1065 C 0.60981 0.88774 0.12849 0.0
C1066 C 0.57646 0.90805 0.13997 0.0
C1067 C 0.55032 0.88368 0.13056 0.0
C1068 C 0.55428 0.86169 0.11994 0.0
H1069 H 0.36099 0.82727 0.09861 0.0
H1070 H 0.41362 0.83479 0.10377 0.0
C1071 C 0.58353 0.86358 0.11898 0.0
C1072 C 0.51905 0.88155 0.1311 0.0
H1073 H 0.44137 0.83064 0.1402 0.0
C1074 C 0.51608 0.90645 0.12361 0.0
C1075 C 0.49184 0.85423 0.13766 0.0
C1076 C 0.49361 0.82743 0.14692 0.0
C1077 C 0.4865 0.90415 0.12168 0.0
C1078 C 0.45924 0.87634 0.12755 0.0
C1079 C 0.46229 0.85184 0.13557 0.0
C1080 C 0.42723 0.87172 0.12479 0.0
C1081 C 0.48444 0.93095 0.11268 0.0
C1082 C 0.41727 0.88968 0.13511 0.0
C1083 C 0.38716 0.88538 0.13222 0.0
C1084 C 0.36646 0.86308 0.11891 0.0
C1085 C 0.37645 0.84488 0.10879 0.0
C1086 C 0.40645 0.84904 0.11179 0.0
H1087 H 0.50696 0.94844 0.10594 0.0
H1088 H 0.46565 0.92204 0.10163 0.0
H1089 H 0.47836 0.94307 0.12387 0.0
H1090 H 0.43281 0.90707 0.14537 0.0
H1091 H 0.38032 0.89996 0.14014 0.0
H1092 H 0.71036 0.61457 0.64861 0.0
H1093 H 0.66219 0.56301 0.65039 0.0
H1094 H 0.70222 0.52521 0.61086 0.0
H1095 H 0.75007 0.57586 0.60916 0.0
H1096 H 0.62084 0.52666 0.62104 0.0
H1097 H 0.67415 0.46257 0.65479 0.0
H1098 H 0.69369 0.50491 0.65419 0.0
H1099 H 0.69487 0.48336 0.63364 0.0
C1100 C 0.70894 0.59522 0.64038 0.0
C1101 C 0.73428 0.59946 0.62884 0.0
C1102 C 0.68139 0.56579 0.6414 0.0
C1103 C 0.67884 0.54007 0.63105 0.0
C1104 C 0.7039 0.54443 0.61935 0.0
H1105 H 0.54573 0.3517 0.59822 0.0
H1106 H 0.59061 0.40442 0.60339 0.0
C1107 C 0.73127 0.57363 0.61832 0.0
C1108 C 0.64984 0.50873 0.63182 0.0
H1109 H 0.62429 0.43095 0.63939 0.0
C1110 C 0.62143 0.50578 0.62535 0.0
C1111 C 0.65062 0.48147 0.63747 0.0
C1112 C 0.67991 0.48322 0.6456 0.0
C1113 C 0.5942 0.47615 0.62351 0.0
C1114 C 0.59538 0.44885 0.62844 0.0
C1115 C 0.6235 0.45189 0.63548 0.0
C1116 C 0.56808 0.41683 0.62563 0.0
C1117 C 0.56468 0.4741 0.61557 0.0
C1118 C 0.54067 0.40616 0.63661 0.0
C1119 C 0.51499 0.37599 0.63371 0.0
C1120 C 0.5162 0.35595 0.61973 0.0
C1121 C 0.54388 0.36665 0.60893 0.0
C1122 C 0.56959 0.39671 0.61193 0.0
H1123 H 0.5691 0.49679 0.60942 0.0
H1124 H 0.55431 0.45575 0.60429 0.0
H1125 H 0.54713 0.46743 0.62724 0.0
H1126 H 0.53915 0.42117 0.64741 0.0
H1127 H 0.49396 0.36858 0.64216 0.0
H1128 H 0.33809 0.92965 0.37121 0.0
H1129 H 0.38623 0.92619 0.36921 0.0
H1130 H 0.34503 0.84602 0.4069 0.0
H1131 H 0.29723 0.84888 0.40879 0.0
H1132 H 0.42671 0.92951 0.39851 0.0
H1133 H 0.3746 0.81405 0.36243 0.0
H1134 H 0.35492 0.83669 0.36351 0.0
H1135 H 0.3532 0.81281 0.38355 0.0
C1136 C 0.33924 0.91118 0.37897 0.0
C1137 C 0.3136 0.88947 0.39007 0.0
C1138 C 0.36677 0.90925 0.37782 0.0
C1139 C 0.36901 0.88544 0.3876 0.0
C1140 C 0.34361 0.86409 0.39883 0.0
H1141 H 0.50073 0.82856 0.42043 0.0
H1142 H 0.45613 0.83679 0.415 0.0
C1143 C 0.31626 0.86595 0.39999 0.0
C1144 C 0.39806 0.88317 0.38682 0.0
H1145 H 0.42384 0.83126 0.37849 0.0
C1146 C 0.42626 0.90826 0.39382 0.0
C1147 C 0.39748 0.85542 0.38067 0.0
C1148 C 0.36849 0.82834 0.37194 0.0
C1149 C 0.45341 0.90573 0.39574 0.0
C1150 C 0.45237 0.87747 0.39037 0.0
C1151 C 0.42451 0.85281 0.38276 0.0
C1152 C 0.47951 0.87252 0.39331 0.0
C1153 C 0.48266 0.93275 0.40426 0.0
C1154 C 0.5073 0.88957 0.38273 0.0
C1155 C 0.53282 0.88486 0.38577 0.0
C1156 C 0.53106 0.86306 0.39951 0.0
C1157 C 0.503 0.84577 0.40991 0.0
C1158 C 0.47745 0.85034 0.40677 0.0
H1159 H 0.47812 0.95085 0.41058 0.0
H1160 H 0.4925 0.92422 0.41555 0.0
H1161 H 0.5007 0.94402 0.39289 0.0
H1162 H 0.50925 0.90655 0.37213 0.0
H1163 H 0.55415 0.89874 0.37762 0.0
H1164 H 0.69343 0.51817 0.87103 0.0
H1165 H 0.64043 0.47409 0.86573 0.0
H1166 H 0.61815 0.47695 0.92523 0.0
H1167 H 0.67041 0.52199 0.93044 0.0
H1168 H 0.61175 0.41668 0.8808 0.0
H1169 H 0.54356 0.47443 0.89978 0.0
H1170 H 0.58549 0.49624 0.89599 0.0
H1171 H 0.56966 0.47759 0.91871 0.0
C1172 C 0.67712 0.50982 0.88294 0.0
C1173 C 0.68633 0.52389 0.90116 0.0
C1174 C 0.64683 0.48443 0.8799 0.0
C1175 C 0.62499 0.47252 0.89498 0.0
C1176 C 0.63422 0.48617 0.91323 0.0
H1177 H 0.46778 0.28866 0.91033 0.0
H1178 H 0.51816 0.33686 0.90867 0.0
C1179 C 0.66441 0.51166 0.91626 0.0
C1180 C 0.59308 0.44492 0.89187 0.0
H1181 H 0.51485 0.41799 0.89904 0.0
C1182 C 0.59057 0.41712 0.88459 0.0
C1183 C 0.56528 0.44552 0.89642 0.0
C1184 C 0.56607 0.47516 0.90296 0.0
C1185 C 0.56127 0.38965 0.88257 0.0
C1186 C 0.53368 0.38968 0.88838 0.0
C1187 C 0.536 0.41782 0.89481 0.0
C1188 C 0.5026 0.36033 0.88903 0.0
C1189 C 0.5602 0.36078 0.87427 0.0
C1190 C 0.47657 0.35766 0.87897 0.0
C1191 C 0.4473 0.32993 0.88 0.0
C1192 C 0.44352 0.30449 0.89124 0.0
C1193 C 0.46966 0.30754 0.90141 0.0
C1194 C 0.49871 0.33512 0.90039 0.0
H1195 H 0.58084 0.36709 0.86494 0.0
H1196 H 0.56067 0.34599 0.88613 0.0
H1197 H 0.53847 0.34664 0.86576 0.0
H1198 H 0.47896 0.37695 0.87025 0.0
H1199 H 0.42771 0.32848 0.87204 0.0
H1200 H 0.1721 0.66531 0.43204 0.0
H1201 H 0.16568 0.6132 0.42733 0.0
H1202 H 0.17503 0.62852 0.36623 0.0
H1203 H 0.18284 0.68125 0.37086 0.0
H1204 H 0.1206 0.56265 0.40719 0.0
H1205 H 0.23896 0.60112 0.37707 0.0
H1206 H 0.22921 0.62794 0.38866 0.0
H1207 H 0.217 0.61558 0.36438 0.0
C1208 C 0.17335 0.65789 0.41761 0.0
C1209 C 0.17828 0.67772 0.40185 0.0
C1210 C 0.16934 0.62791 0.41493 0.0
C1211 C 0.17023 0.61704 0.39645 0.0
C1212 C 0.17479 0.63656 0.38065 0.0
H1213 H 0.11093 0.41787 0.37461 0.0
H1214 H 0.11387 0.46918 0.37364 0.0
C1215 C 0.17892 0.66662 0.38332 0.0
C1216 C 0.16618 0.5852 0.39383 0.0
H1217 H 0.20332 0.54652 0.37777 0.0
C1218 C 0.13861 0.55908 0.40069 0.0
C1219 C 0.18981 0.5806 0.38546 0.0
C1220 C 0.22054 0.60777 0.37862 0.0
C1221 C 0.1342 0.52857 0.39962 0.0
C1222 C 0.15777 0.52397 0.39117 0.0
C1223 C 0.18513 0.55004 0.38408 0.0
C1224 C 0.15586 0.49281 0.39105 0.0
C1225 C 0.10491 0.50172 0.40823 0.0
C1226 C 0.17886 0.48921 0.40072 0.0
C1227 C 0.1774 0.46015 0.40117 0.0
C1228 C 0.15287 0.43382 0.39194 0.0
C1229 C 0.13003 0.43754 0.38197 0.0
C1230 C 0.13157 0.46682 0.38149 0.0
H1231 H 0.09245 0.5101 0.41773 0.0
H1232 H 0.08861 0.48762 0.39654 0.0
H1233 H 0.11064 0.48607 0.41665 0.0
H1234 H 0.19785 0.5089 0.40816 0.0
H1235 H 0.19554 0.45839 0.40895 0.0
H1236 H 0.7144 0.10645 0.86976 0.0
H1237 H 0.66605 0.10957 0.86797 0.0
H1238 H 0.70496 0.18609 0.90844 0.0
H1239 H 0.75294 0.18355 0.91016 0.0
H1240 H 0.62407 0.10341 0.89728 0.0
H1241 H 0.67725 0.22172 0.8649 0.0
H1242 H 0.69697 0.19907 0.86519 0.0
H1243 H 0.69787 0.22121 0.88599 0.0
C1244 C 0.71268 0.12402 0.8782 0.0
C1245 C 0.73774 0.14483 0.89001 0.0
C1246 C 0.68504 0.12577 0.87716 0.0
C1247 C 0.68213 0.1485 0.88778 0.0
C1248 C 0.70692 0.16889 0.89974 0.0
H1249 H 0.54903 0.20213 0.92276 0.0
H1250 H 0.59382 0.19437 0.9169 0.0
C1251 C 0.73437 0.1672 0.90079 0.0
C1252 C 0.65304 0.15068 0.88705 0.0
H1253 H 0.62737 0.20306 0.88044 0.0
C1254 C 0.62462 0.12499 0.89328 0.0
C1255 C 0.65376 0.17885 0.88179 0.0
C1256 C 0.68304 0.20667 0.8739 0.0
C1257 C 0.59734 0.12728 0.89532 0.0
C1258 C 0.59851 0.15591 0.89087 0.0
C1259 C 0.62661 0.18121 0.884 0.0
C1260 C 0.57125 0.16059 0.89409 0.0
C1261 C 0.56782 0.09955 0.90301 0.0
C1262 C 0.54386 0.14447 0.88302 0.0
C1263 C 0.51823 0.14892 0.88631 0.0
C1264 C 0.51949 0.1695 0.90078 0.0
C1265 C 0.54715 0.18585 0.91168 0.0
C1266 C 0.57281 0.18156 0.90828 0.0
H1267 H 0.57215 0.08093 0.90865 0.0
H1268 H 0.55759 0.1071 0.91463 0.0
H1269 H 0.55017 0.08929 0.89134 0.0
H1270 H 0.5423 0.12844 0.87185 0.0
H1271 H 0.4972 0.13578 0.87777 0.0
H1272 H 0.37933 0.51252 0.43043 0.0
H1273 H 0.43139 0.55804 0.42521 0.0
H1274 H 0.4128 0.55379 0.36454 0.0
H1275 H 0.36011 0.50907 0.36971 0.0
H1276 H 0.48094 0.56418 0.40351 0.0
H1277 H 0.44062 0.64468 0.37705 0.0
H1278 H 0.41447 0.60776 0.3885 0.0
H1279 H 0.42559 0.60864 0.36385 0.0
C1280 C 0.38604 0.52152 0.416 0.0
C1281 C 0.36527 0.50721 0.40053 0.0
C1282 C 0.41599 0.54738 0.41301 0.0
C1283 C 0.42591 0.5596 0.39451 0.0
C1284 C 0.4055 0.54514 0.37899 0.0
H1285 H 0.62403 0.70259 0.37112 0.0
H1286 H 0.57315 0.65362 0.36996 0.0
C1287 C 0.37546 0.51932 0.38196 0.0
C1288 C 0.45761 0.5875 0.39162 0.0
H1289 H 0.49524 0.66394 0.3768 0.0
C1290 C 0.48412 0.58596 0.39758 0.0
C1291 C 0.46169 0.61597 0.38399 0.0
C1292 C 0.43412 0.6196 0.37813 0.0
C1293 C 0.51452 0.61223 0.39639 0.0
C1294 C 0.51858 0.64068 0.38875 0.0
C1295 C 0.49212 0.64203 0.38248 0.0
C1296 C 0.54954 0.67016 0.38886 0.0
C1297 C 0.54187 0.60969 0.40406 0.0
C1298 C 0.553 0.69589 0.39949 0.0
C1299 C 0.58178 0.72378 0.40008 0.0
C1300 C 0.60798 0.72678 0.39 0.0
C1301 C 0.60444 0.70107 0.37913 0.0
C1302 C 0.57542 0.67301 0.37853 0.0
H1303 H 0.53404 0.58824 0.41289 0.0
H1304 H 0.55584 0.60866 0.39187 0.0
H1305 H 0.5575 0.63053 0.41289 0.0
H1306 H 0.5334 0.69429 0.40754 0.0
H1307 H 0.58339 0.74297 0.40857 0.0
H1308 H 0.86208 0.57761 0.91005 0.0
H1309 H 0.85982 0.52719 0.90856 0.0
H1310 H 0.93454 0.56402 0.86684 0.0
H1311 H 0.93736 0.61532 0.8684 0.0
H1312 H 0.84701 0.48782 0.87726 0.0
H1313 H 0.96536 0.52492 0.90739 0.0
H1314 H 0.94734 0.54905 0.90916 0.0
H1315 H 0.96427 0.54651 0.88689 0.0
C1316 C 0.87825 0.57529 0.90056 0.0
C1317 C 0.90007 0.60078 0.88939 0.0
C1318 C 0.87682 0.54626 0.89972 0.0
C1319 C 0.89718 0.54182 0.88775 0.0
C1320 C 0.91892 0.56704 0.87643 0.0
H1321 H 0.90827 0.36915 0.87778 0.0
H1322 H 0.91541 0.4215 0.87191 0.0
C1323 C 0.9204 0.59631 0.87726 0.0
C1324 C 0.89488 0.51048 0.8872 0.0
H1325 H 0.93371 0.4715 0.89935 0.0
C1326 C 0.86606 0.4843 0.88196 0.0
C1327 C 0.91975 0.50587 0.8933 0.0
C1328 C 0.9509 0.53297 0.89965 0.0
C1329 C 0.86124 0.45367 0.88299 0.0
C1330 C 0.88574 0.44897 0.88968 0.0
C1331 C 0.91493 0.47517 0.89428 0.0
C1332 C 0.88097 0.41699 0.89288 0.0
C1333 C 0.82987 0.42652 0.87699 0.0
C1334 C 0.8594 0.39714 0.9067 0.0
C1335 C 0.85528 0.36727 0.91009 0.0
C1336 C 0.87264 0.35655 0.89971 0.0
C1337 C 0.89421 0.37649 0.88583 0.0
C1338 C 0.89847 0.40649 0.88255 0.0
H1339 H 0.81685 0.4343 0.86755 0.0
H1340 H 0.83282 0.40834 0.86935 0.0
H1341 H 0.81537 0.41557 0.88995 0.0
H1342 H 0.84595 0.40492 0.91503 0.0
H1343 H 0.83836 0.35248 0.92079 0.0
H1344 H 0.13072 0.33493 0.33007 0.0
H1345 H 0.1441 0.34204 0.29616 0.0
H1346 H 0.24192 0.40168 0.31032 0.0
H1347 H 0.22855 0.39524 0.34466 0.0
H1348 H 0.22161 0.4231 0.2784 0.0
H1349 H 0.18619 0.29745 0.27127 0.0
H1350 H 0.15572 0.30316 0.28114 0.0
H1351 H 0.19171 0.31634 0.29426 0.0
C1352 C 0.15513 0.34963 0.32606 0.0
C1353 C 0.17869 0.3641 0.34007 0.0
C1354 C 0.16271 0.35366 0.30664 0.0
C1355 C 0.19404 0.3718 0.30075 0.0
C1356 C 0.21759 0.3874 0.31462 0.0
H1357 H 0.25029 0.34505 0.18854 0.0
H1358 H 0.2463 0.35232 0.22271 0.0
C1359 C 0.20995 0.38365 0.33418 0.0
C1360 C 0.20192 0.37301 0.28015 0.0
H1361 H 0.19381 0.32571 0.24226 0.0
C1362 C 0.21584 0.40191 0.27047 0.0
C1363 C 0.1947 0.34536 0.26992 0.0
C1364 C 0.18155 0.31388 0.27971 0.0
C1365 C 0.22205 0.40374 0.25066 0.0
C1366 C 0.21352 0.37583 0.24031 0.0
C1367 C 0.20012 0.34709 0.25014 0.0
C1368 C 0.21896 0.37546 0.21939 0.0
C1369 C 0.23807 0.43549 0.24111 0.0
C1370 C 0.2054 0.38661 0.20601 0.0
C1371 C 0.20802 0.38282 0.18628 0.0
C1372 C 0.22359 0.36718 0.17973 0.0
C1373 C 0.23774 0.35681 0.19314 0.0
C1374 C 0.23558 0.36104 0.21271 0.0
H1375 H 0.25084 0.45469 0.25167 0.0
H1376 H 0.25493 0.43692 0.23001 0.0
H1377 H 0.22011 0.43943 0.23404 0.0
H1378 H 0.19188 0.39721 0.21081 0.0
H1379 H 0.19683 0.39096 0.17624 0.0
H1380 H 0.82586 0.21274 0.67476 0.0
H1381 H 0.81334 0.21281 0.70886 0.0
H1382 H 0.89579 0.20811 0.72439 0.0
H1383 H 0.90858 0.20826 0.69072 0.0
H1384 H 0.80216 0.16793 0.73683 0.0
H1385 H 0.90525 0.28159 0.75672 0.0
H1386 H 0.89322 0.27064 0.73211 0.0
H1387 H 0.91658 0.25699 0.74413 0.0
C1388 C 0.84133 0.21178 0.68546 0.0
C1389 C 0.86832 0.21066 0.67997 0.0
C1390 C 0.83419 0.21193 0.70491 0.0
C1391 C 0.85408 0.21128 0.71914 0.0
C1392 C 0.88062 0.20956 0.71367 0.0
H1393 H 0.83675 0.13717 0.82798 0.0
H1394 H 0.83798 0.15119 0.79451 0.0
C1395 C 0.88772 0.20936 0.69434 0.0
C1396 C 0.84664 0.21059 0.73979 0.0
H1397 H 0.88047 0.24422 0.78261 0.0
C1398 C 0.81892 0.185 0.74682 0.0
C1399 C 0.86822 0.23318 0.75282 0.0
C1400 C 0.89732 0.26233 0.74604 0.0
C1401 C 0.81347 0.18004 0.7666 0.0
C1402 C 0.83654 0.20098 0.77962 0.0
C1403 C 0.863 0.22795 0.77261 0.0
C1404 C 0.83552 0.19314 0.80021 0.0
C1405 C 0.78358 0.15175 0.7734 0.0
C1406 C 0.83484 0.21274 0.81464 0.0
C1407 C 0.83427 0.20483 0.83403 0.0
C1408 C 0.83473 0.1774 0.83921 0.0
C1409 C 0.83616 0.15837 0.82462 0.0
C1410 C 0.83661 0.16619 0.8054 0.0
H1411 H 0.76449 0.14441 0.76264 0.0
H1412 H 0.78787 0.13184 0.77551 0.0
H1413 H 0.77557 0.15653 0.78723 0.0
H1414 H 0.83442 0.23389 0.81089 0.0
H1415 H 0.83326 0.22003 0.84491 0.0
H1416 H 0.63071 0.8158 0.1738 0.0
H1417 H 0.61748 0.80226 0.20777 0.0
H1418 H 0.70424 0.88429 0.22431 0.0
H1419 H 0.71754 0.89803 0.19083 0.0
H1420 H 0.65144 0.79086 0.23609 0.0
H1421 H 0.63872 0.89268 0.25607 0.0
H1422 H 0.63796 0.88083 0.23145 0.0
H1423 H 0.67483 0.90452 0.24355 0.0
C1424 C 0.64693 0.83093 0.18469 0.0
C1425 C 0.67511 0.85809 0.17955 0.0
C1426 C 0.63928 0.82322 0.20407 0.0
C1427 C 0.65953 0.84272 0.21854 0.0
C1428 C 0.68786 0.8694 0.21339 0.0
H1429 H 0.71538 0.82524 0.32778 0.0
H1430 H 0.70289 0.82613 0.2942 0.0
C1431 C 0.69553 0.87705 0.19417 0.0
C1432 C 0.65237 0.83489 0.23912 0.0
H1433 H 0.65152 0.86811 0.28196 0.0
C1434 C 0.65071 0.80737 0.2461 0.0
C1435 C 0.65081 0.85614 0.25216 0.0
C1436 C 0.65033 0.88503 0.2454 0.0
C1437 C 0.65015 0.80184 0.26588 0.0
C1438 C 0.65175 0.82464 0.27894 0.0
C1439 C 0.65074 0.85085 0.27194 0.0
C1440 C 0.65835 0.82361 0.29958 0.0
C1441 C 0.64898 0.77214 0.27264 0.0
C1442 C 0.63792 0.82303 0.31387 0.0
C1443 C 0.6451 0.8227 0.33332 0.0
C1444 C 0.673 0.82329 0.3387 0.0
C1445 C 0.69359 0.82456 0.32426 0.0
C1446 C 0.68637 0.82479 0.30497 0.0
H1447 H 0.63741 0.75306 0.26186 0.0
H1448 H 0.6733 0.77672 0.27473 0.0
H1449 H 0.63622 0.76395 0.28647 0.0
H1450 H 0.61636 0.82256 0.30998 0.0
H1451 H 0.62878 0.8218 0.34408 0.0
H1452 H 0.8272 0.61913 0.67414 0.0
H1453 H 0.82706 0.60548 0.70806 0.0
H1454 H 0.83316 0.69274 0.72486 0.0
H1455 H 0.83314 0.70645 0.69141 0.0
H1456 H 0.87235 0.63829 0.73629 0.0
H1457 H 0.75911 0.62825 0.75674 0.0
H1458 H 0.76991 0.62747 0.73206 0.0
H1459 H 0.78382 0.66432 0.74433 0.0
C1460 C 0.82848 0.63536 0.68508 0.0
C1461 C 0.83002 0.66381 0.68002 0.0
C1462 C 0.82827 0.62747 0.70443 0.0
C1463 C 0.82926 0.64774 0.71896 0.0
C1464 C 0.83143 0.67633 0.7139 0.0
H1465 H 0.90489 0.70491 0.82685 0.0
H1466 H 0.89001 0.69127 0.79357 0.0
C1467 C 0.83172 0.68425 0.69469 0.0
C1468 C 0.82986 0.64039 0.73952 0.0
H1469 H 0.79678 0.64069 0.78252 0.0
C1470 C 0.8554 0.63801 0.74638 0.0
C1471 C 0.80744 0.63942 0.75266 0.0
C1472 C 0.77834 0.63965 0.74605 0.0
C1473 C 0.86056 0.63746 0.76613 0.0
C1474 C 0.83987 0.63976 0.77928 0.0
C1475 C 0.81285 0.63935 0.77243 0.0
C1476 C 0.84822 0.64701 0.79979 0.0
C1477 C 0.88887 0.63574 0.77276 0.0
C1478 C 0.82898 0.6271 0.81446 0.0
C1479 C 0.83738 0.63493 0.83377 0.0
C1480 C 0.86495 0.66295 0.8386 0.0
C1481 C 0.8836 0.68303 0.82377 0.0
C1482 C 0.87529 0.67517 0.80464 0.0
H1483 H 0.89589 0.62376 0.76197 0.0
H1484 H 0.90894 0.6599 0.77471 0.0
H1485 H 0.88428 0.62312 0.78664 0.0
H1486 H 0.80771 0.60544 0.81097 0.0
H1487 H 0.82247 0.61901 0.84483 0.0
H1488 H 0.14287 0.831 0.18914 0.0
H1489 H 0.1556 0.83351 0.22303 0.0
H1490 H 0.23677 0.82541 0.20925 0.0
H1491 H 0.22435 0.82312 0.17497 0.0
H1492 H 0.16142 0.78809 0.24517 0.0
H1493 H 0.27144 0.90443 0.24388 0.0
H1494 H 0.24338 0.89124 0.22449 0.0
H1495 H 0.26868 0.875 0.2274 0.0
C1496 C 0.16356 0.82989 0.1932 0.0
C1497 C 0.18265 0.82695 0.17928 0.0
C1498 C 0.1707 0.83119 0.21263 0.0
C1499 C 0.19713 0.82972 0.21865 0.0
C1500 C 0.21641 0.82689 0.20487 0.0
H1501 H 0.22012 0.81921 0.34426 0.0
H1502 H 0.21762 0.80614 0.31004 0.0
C1503 C 0.20926 0.82556 0.18531 0.0
C1504 C 0.2041 0.83142 0.23943 0.0
H1505 H 0.25314 0.88084 0.27393 0.0
C1506 C 0.18175 0.80807 0.25149 0.0
C1507 C 0.23057 0.85761 0.24756 0.0
C1508 C 0.25489 0.88368 0.23526 0.0
C1509 C 0.18442 0.81092 0.27154 0.0
C1510 C 0.2103 0.83767 0.27966 0.0
C1511 C 0.2334 0.86029 0.2676 0.0
C1512 C 0.21178 0.84474 0.30041 0.0
C1513 C 0.15866 0.78628 0.28386 0.0
C1514 C 0.20942 0.87074 0.30627 0.0
C1515 C 0.21083 0.87823 0.32564 0.0
C1516 C 0.21476 0.85994 0.33968 0.0
C1517 C 0.21692 0.83368 0.33383 0.0
C1518 C 0.21548 0.82617 0.3143 0.0
H1519 H 0.1382 0.76918 0.27524 0.0
H1520 H 0.16794 0.77319 0.29192 0.0
H1521 H 0.15049 0.79748 0.29448 0.0
H1522 H 0.20641 0.88528 0.29578 0.0
H1523 H 0.20905 0.8986 0.32955 0.0
H1524 H 0.42047 0.20963 0.84574 0.0
H1525 H 0.43244 0.20892 0.81158 0.0
H1526 H 0.34444 0.20263 0.7964 0.0
H1527 H 0.33237 0.20346 0.8301 0.0
H1528 H 0.39773 0.16297 0.78358 0.0
H1529 H 0.40843 0.27685 0.76407 0.0
H1530 H 0.41021 0.26601 0.7886 0.0
H1531 H 0.37286 0.25228 0.777 0.0
C1532 C 0.40369 0.20809 0.83511 0.0
C1533 C 0.37554 0.20679 0.84069 0.0
C1534 C 0.41062 0.20779 0.81562 0.0
C1535 C 0.38966 0.20651 0.80148 0.0
C1536 C 0.36133 0.2045 0.80706 0.0
H1537 H 0.33262 0.13318 0.69206 0.0
H1538 H 0.34521 0.14642 0.72566 0.0
C1539 C 0.35437 0.20471 0.82641 0.0
C1540 C 0.39619 0.20579 0.7808 0.0
H1541 H 0.39578 0.23965 0.73814 0.0
C1542 C 0.39803 0.1801 0.77365 0.0
C1543 C 0.39717 0.22845 0.76787 0.0
C1544 C 0.39741 0.25763 0.77479 0.0
C1545 C 0.39828 0.17517 0.75384 0.0
C1546 C 0.39619 0.19625 0.74092 0.0
C1547 C 0.39694 0.22328 0.74806 0.0
C1548 C 0.38949 0.18871 0.72028 0.0
C1549 C 0.39969 0.14684 0.74692 0.0
C1550 C 0.40973 0.20874 0.706 0.0
C1551 C 0.4025 0.20131 0.68655 0.0
C1552 C 0.37473 0.1739 0.68116 0.0
C1553 C 0.3543 0.15438 0.6956 0.0
C1554 C 0.36158 0.16175 0.71489 0.0
H1555 H 0.41148 0.1394 0.75758 0.0
H1556 H 0.37543 0.12699 0.74485 0.0
H1557 H 0.41235 0.15161 0.73304 0.0
H1558 H 0.43121 0.22991 0.7099 0.0
H1559 H 0.41868 0.21688 0.6758 0.0
H1560 H 0.3097 0.19058 0.95881 0.0
H1561 H 0.283 0.20181 0.98498 0.0
H1562 H 0.33883 0.30083 0.97298 0.0
H1563 H 0.36525 0.28993 0.94707 0.0
H1564 H 0.30639 0.24223 0.01838 0.0
H1565 H 0.24708 0.28183 0.96736 0.0
H1566 H 0.26478 0.25894 0.96002 0.0
H1567 H 0.2887 0.30066 0.96347 0.0
C1568 C 0.31669 0.21474 0.96208 0.0
C1569 C 0.33939 0.23937 0.95082 0.0
C1570 C 0.30125 0.2211 0.97688 0.0
C1571 C 0.30832 0.25209 0.9805 0.0
C1572 C 0.3324 0.2767 0.97007 0.0
H1573 H 0.29921 0.35895 0.07042 0.0
H1574 H 0.30923 0.33218 0.04434 0.0
C1575 C 0.34766 0.27042 0.95537 0.0
C1576 C 0.2907 0.25939 0.99494 0.0
H1577 H 0.25061 0.29917 1.0001 0.0
C1578 C 0.29363 0.25408 0.01438 0.0
C1579 C 0.27358 0.27441 0.9897 0.0
C1580 C 0.26803 0.27902 0.96898 0.0
C1581 C 0.28188 0.26547 0.02875 0.0
C1582 C 0.26718 0.28286 0.02351 0.0
C1583 C 0.2622 0.28616 1.00408 0.0
C1584 C 0.2602 0.30063 0.03798 0.0
C1585 C 0.28626 0.25978 0.04948 0.0
C1586 C 0.22922 0.29291 0.04236 0.0
C1587 C 0.22334 0.30844 0.05733 0.0
C1588 C 0.24843 0.3319 0.06796 0.0
C1589 C 0.27936 0.34079 0.06261 0.0
C1590 C 0.28515 0.32538 0.04779 0.0
H1591 H 0.28959 0.23914 0.0511 0.0
H1592 H 0.3075 0.28066 0.05521 0.0
H1593 H 0.2658 0.25596 0.05827 0.0
H1594 H 0.20966 0.27407 0.03476 0.0
H1595 H 0.19927 0.30096 0.06122 0.0
H1596 H 0.13335 0.29813 0.45792 0.0
H1597 H 0.09573 0.27092 0.48414 0.0
H1598 H 0.05488 0.32964 0.47489 0.0
H1599 H 0.09194 0.35661 0.44896 0.0
H1600 H 0.08024 0.29408 0.51872 0.0
H1601 H 0.98048 0.23853 0.46794 0.0
H1602 H 1.02092 0.25546 0.4604 0.0
H1603 H 1.00422 0.28019 0.46459 0.0
C1604 C 0.11681 0.30565 0.46183 0.0
C1605 C 0.11542 0.32934 0.45132 0.0
C1606 C 0.09518 0.28993 0.47665 0.0
C1607 C 0.07197 0.29771 0.48104 0.0
C1608 C 0.07204 0.32271 0.47139 0.0
H1609 H 0.9586 0.28831 0.57244 0.0
H1610 H 0.99506 0.29829 0.54619 0.0
C1611 C 0.09343 0.33827 0.45667 0.0
C1612 C 0.04713 0.27986 0.49547 0.0
H1613 H 0.96733 0.24109 0.50096 0.0
C1614 C 0.05557 0.28191 0.51483 0.0
C1615 C 1.01493 0.26351 0.49034 0.0
C1616 C 1.00454 0.25896 0.46966 0.0
C1617 C 0.0326 0.27008 0.52929 0.0
C1618 C 1.00047 0.2562 0.52422 0.0
C1619 C 0.99196 0.25205 0.50482 0.0
C1620 C 0.97603 0.24935 0.5389 0.0
C1621 C 0.04291 0.27352 0.54995 0.0
C1622 C 0.95202 0.21853 0.54282 0.0
C1623 C 0.93077 0.21267 0.55789 0.0
C1624 C 0.93333 0.23765 0.56908 0.0
C1625 C 0.95619 0.26852 0.56422 0.0
C1626 C 0.97722 0.27429 0.5493 0.0
H1627 H 0.06656 0.27596 0.55127 0.0
H1628 H 0.04414 0.29495 0.55606 0.0
H1629 H 0.02595 0.25306 0.5586 0.0
H1630 H 0.95052 0.19899 0.53476 0.0
H1631 H 0.91352 0.18864 0.56138 0.0
H1632 H 0.74465 0.90821 0.06137 0.0
H1633 H 0.77065 0.9453 0.03474 0.0
H1634 H 0.71545 0.98919 0.04688 0.0
H1635 H 0.68977 0.95274 0.07325 0.0
H1636 H 0.74698 0.96089 1.00153 0.0
H1637 H 0.80664 0.06232 0.0507 0.0
H1638 H 0.78908 0.02215 0.05883 0.0
H1639 H 0.76512 0.03983 0.05496 0.0
C1640 C 0.73769 0.92539 0.05807 0.0
C1641 C 0.71537 0.92774 0.06948 0.0
C1642 C 0.75272 0.94671 0.04299 0.0
C1643 C 0.74564 0.9706 0.03924 0.0
C1644 C 0.72196 0.97157 0.04988 0.0
H1645 H 0.75401 0.08067 0.94529 0.0
H1646 H 0.74358 0.04473 0.97189 0.0
C1647 C 0.70711 0.95051 0.06486 0.0
C1648 C 0.76269 0.99488 0.02436 0.0
H1649 H 0.80207 0.07443 0.01774 0.0
C1650 C 0.75954 0.98569 1.00508 0.0
C1651 C 0.77965 0.02726 0.029 0.0
C1652 C 0.78565 0.03851 0.04952 0.0
C1653 C 0.77093 1.00808 0.99029 0.0
C1654 C 0.78539 0.04043 0.99491 0.0
C1655 C 0.79058 0.04965 0.0142 0.0
C1656 C 0.79235 0.0645 0.97994 0.0
C1657 C 0.76663 0.99687 0.96978 0.0
C1658 C 0.82316 0.08889 0.97633 0.0
C1659 C 0.82924 0.10992 0.96111 0.0
C1660 C 0.80452 0.10676 0.94941 0.0
C1661 C 0.77361 0.08352 0.95391 0.0
C1662 C 0.7676 0.06276 0.96902 0.0
H1663 H 0.76451 0.97334 0.96874 0.0
H1664 H 0.7447 0.99494 0.96399 0.0
H1665 H 0.78654 1.01358 0.96066 0.0
H1666 H 0.84255 0.09088 0.98479 0.0
H1667 H 0.8533 0.12747 0.95791 0.0
H1668 H 0.74982 0.67726 0.57335 0.0
H1669 H 0.73853 0.7018 0.54654 0.0
H1670 H 0.8377 0.75939 0.53525 0.0
H1671 H 0.84923 0.73435 0.56219 0.0
H1672 H 0.75877 0.76599 0.54442 0.0
H1673 H 0.79979 0.72576 0.48181 0.0
H1674 H 0.79258 0.70695 0.50496 0.0
H1675 H 0.82723 0.74432 0.50114 0.0
C1676 C 0.76927 0.69472 0.56494 0.0
C1677 C 0.80042 0.70385 0.56984 0.0
C1678 C 0.76277 0.70886 0.54968 0.0
C1679 C 0.78722 0.73254 0.53894 0.0
C1680 C 0.81843 0.74094 0.54324 0.0
H1681 H 0.73934 0.84212 0.45794 0.0
H1682 H 0.76396 0.83085 0.48526 0.0
C1683 C 0.825 0.72654 0.55855 0.0
C1684 C 0.77941 0.74891 0.52388 0.0
H1685 H 0.77643 0.75638 0.47538 0.0
C1686 C 0.76301 0.76431 0.52932 0.0
C1687 C 0.78496 0.74664 0.50422 0.0
C1688 C 0.80192 0.72989 0.49755 0.0
C1689 C 0.75078 0.77626 0.51559 0.0
C1690 C 0.75539 0.77301 0.49593 0.0
C1691 C 0.77301 0.75888 0.49051 0.0
C1692 C 0.73909 0.78055 0.4807 0.0
C1693 C 0.73158 0.7907 0.52216 0.0
C1694 C 0.71657 0.75607 0.46941 0.0
C1695 C 0.70259 0.7624 0.454 0.0
C1696 C 0.7108 0.79343 0.44943 0.0
C1697 C 0.73228 0.81797 0.46126 0.0
C1698 C 0.74646 0.81157 0.47678 0.0
H1699 H 0.72679 0.78775 0.53781 0.0
H1700 H 0.74445 0.81619 0.51888 0.0
H1701 H 0.70883 0.78 0.51437 0.0
H1702 H 0.71032 0.73197 0.47227 0.0
H1703 H 0.68603 0.74295 0.44521 0.0
H1704 H 0.91713 0.73328 0.9575 0.0
H1705 H 0.95353 0.75871 0.98456 0.0
H1706 H 1.00095 0.70748 0.97067 0.0
H1707 H 0.96521 0.68239 0.9439 0.0
H1708 H 0.97057 0.73411 0.01709 0.0
H1709 H 0.07132 0.80042 0.96828 0.0
H1710 H 0.03101 0.78195 0.96026 0.0
H1711 H 0.05021 0.75918 0.96299 0.0
C1712 C 0.93492 0.72702 0.96053 0.0
C1713 C 0.93851 0.70607 0.94851 0.0
C1714 C 0.95583 0.74173 0.97585 0.0
C1715 C 0.98051 0.73566 0.97922 0.0
C1716 C 0.98268 0.7132 0.96798 0.0
H1717 H 0.09303 0.74357 0.07183 0.0
H1718 H 0.05641 0.73309 0.04557 0.0
C1719 C 0.96204 0.69869 0.95278 0.0
C1720 C 1.00452 0.75261 0.99426 0.0
H1721 H 0.08407 0.79439 1.00084 0.0
C1722 C 0.99534 0.7478 0.01356 0.0
C1723 C 0.03683 0.77103 0.98964 0.0
C1724 C 0.04794 0.77876 0.96916 0.0
C1725 C 1.01777 0.75899 0.02834 0.0
C1726 C 0.05017 0.77492 0.02366 0.0
C1727 C 0.05928 0.78175 1.00441 0.0
C1728 C 0.07458 0.78197 0.03843 0.0
C1729 C 1.00657 0.75295 0.04886 0.0
C1730 C 0.09832 0.81292 0.04238 0.0
C1731 C 0.11975 0.81903 0.05737 0.0
C1732 C 0.11765 0.79421 0.0685 0.0
C1733 C 0.09507 0.76323 0.06365 0.0
C1734 C 0.0739 0.75719 0.04875 0.0
H1735 H 0.98267 0.74989 0.05022 0.0
H1736 H 1.00545 0.73102 0.05391 0.0
H1737 H 1.02284 0.77246 0.05839 0.0
H1738 H 0.09951 0.83236 0.03438 0.0
H1739 H 0.13678 0.84314 0.06086 0.0
H1740 H 0.19944 0.90773 0.45849 0.0
H1741 H 0.21021 0.94458 0.48522 0.0
H1742 H 0.30923 0.9903 0.47252 0.0
H1743 H 0.29878 0.95408 0.44604 0.0
H1744 H 0.25009 0.96082 0.51818 0.0
H1745 H 0.28913 0.06211 0.46924 0.0
H1746 H 0.26709 0.02191 0.46107 0.0
H1747 H 0.30885 0.04035 0.4647 0.0
C1748 C 0.22351 0.92526 0.46169 0.0
C1749 C 0.24824 0.92819 0.45009 0.0
C1750 C 0.22961 0.94644 0.47683 0.0
C1751 C 0.26044 0.97076 0.48045 0.0
C1752 C 0.28519 0.97232 0.46962 0.0
H1753 H 0.36222 0.08186 0.57408 0.0
H1754 H 0.33696 0.04589 0.54742 0.0
C1755 C 0.27917 0.9514 0.45458 0.0
C1756 C 0.26739 0.99488 0.4954 0.0
H1757 H 0.30617 0.0744 0.50214 0.0
C1758 C 0.2618 0.98561 0.51467 0.0
C1759 C 0.28214 0.02725 0.49081 0.0
C1760 C 0.28686 0.03852 0.47031 0.0
C1761 C 0.2726 1.00795 0.5295 0.0
C1762 C 0.28982 0.04034 0.52491 0.0
C1763 C 0.29339 0.0496 0.50564 0.0
C1764 C 0.30676 0.06449 0.53987 0.0
C1765 C 0.26624 0.99668 0.55 0.0
C1766 C 0.29952 0.08823 0.54377 0.0
C1767 C 0.3143 0.10927 0.55901 0.0
C1768 C 0.3365 0.10675 0.57045 0.0
C1769 C 0.34497 0.0842 0.56566 0.0
C1770 C 0.33037 0.06342 0.55052 0.0
H1771 H 0.24523 0.97287 0.55109 0.0
H1772 H 0.28669 0.99539 0.55562 0.0
H1773 H 0.26263 1.01303 0.55923 0.0
H1774 H 0.28163 0.08969 0.53551 0.0
H1775 H 0.30718 0.12629 0.56245 0.0
loop_
_geom_bond_atom_site_label_1
_geom_bond_atom_site_label_2
_geom_bond_distance
_geom_bond_site_symmetry_2
_ccdc_geom_bond_type
Tb0 C10 2.825 . S
Tb0 O11 2.347 . S
Tb0 O14 2.366 . S
Tb0 O19 2.418 . S
Tb0 O20 2.384 . S
Tb0 O23 2.479 . S
Tb0 O24 2.471 . S
Eu1 O12 2.418 . S
Eu1 O13 2.384 . S
Eu1 O16 2.479 . S
Eu1 O17 2.471 . S
Eu1 O18 2.347 . S
Eu1 O21 2.366 . S
Eu1 C31 2.825 . S
C2 O18 1.259 . S
C2 O19 1.265 . S
C3 O20 1.255 . S
C3 O21 1.265 . S
C4 C6 1.380 . S
C4 C7 1.374 . S
C4 C10 1.507 . S
C5 C6 1.384 . S
C5 C9 1.387 . S
C5 H32 0.930 . S
C6 C4 1.380 . S
C6 C5 1.384 . S
C6 H33 0.931 . S
C7 C4 1.374 . S
C7 C8 1.390 . S
C7 H34 0.930 . S
C8 C7 1.390 . S
C8 C9 1.391 . S
C8 H35 0.930 . S
C9 C5 1.387 . S
C9 C8 1.391 . S
C10 Tb0 2.825 . S
C10 C4 1.507 . S
C10 O23 1.238 . S
C10 O24 1.247 . S
O11 Tb0 2.347 . S
O11 C15 1.259 . S
O12 Eu1 2.418 . S
O12 C15 1.265 . S
O13 Eu1 2.384 . S
O13 C22 1.255 . S
O14 Tb0 2.366 . S
O14 C22 1.265 . S
C15 O11 1.259 . S
C15 O12 1.265 . S
O16 Eu1 2.479 . S
O16 C31 1.238 . S
O17 Eu1 2.471 . S
O17 C31 1.247 . S
O18 Eu1 2.347 . S
O18 C2 1.259 . S
O19 Tb0 2.418 . S
O19 C2 1.265 . S
O20 Tb0 2.384 . S
O20 C3 1.255 . S
O21 Eu1 2.366 . S
O21 C3 1.265 . S
C22 O13 1.255 . S
C22 O14 1.265 . S
O23 Tb0 2.479 . S
O23 C10 1.238 . S
O24 Tb0 2.471 . S
O24 C10 1.247 . S
C25 C28 1.380 . S
C25 C29 1.374 . S
C25 C31 1.507 . S
C26 C27 1.387 . S
C26 C30 1.391 . S
C27 C26 1.387 . S
C27 C28 1.384 . S
C27 H36 0.930 . S
C28 C25 1.380 . S
C28 C27 1.384 . S
C28 H37 0.931 . S
C29 C25 1.374 . S
C29 C30 1.390 . S
C29 H38 0.930 . S
C30 C26 1.391 . S
C30 C29 1.390 . S
C30 H39 0.930 . S
C31 Eu1 2.825 . S
C31 O16 1.238 . S
C31 O17 1.247 . S
C31 C25 1.507 . S
H32 C5 0.930 . S
H33 C6 0.931 . S
H34 C7 0.930 . S
H35 C8 0.930 . S
H36 C27 0.930 . S
H37 C28 0.931 . S
H38 C29 0.930 . S
H39 C30 0.930 . S
Tb40 C50 2.825 . S
Tb40 O51 2.347 . S
Tb40 O54 2.366 . S
Tb40 O59 2.418 . S
Tb40 O60 2.384 . S
Tb40 O63 2.479 . S
Tb40 O64 2.471 . S
Eu41 O52 2.418 . S
Eu41 O53 2.384 . S
Eu41 O56 2.479 . S
Eu41 O57 2.471 . S
Eu41 O58 2.347 . S
Eu41 O61 2.366 . S
Eu41 C71 2.825 . S
C42 O58 1.259 . S
C42 O59 1.265 . S
C43 O60 1.255 . S
C43 O61 1.265 . S
C44 C46 1.380 . S
C44 C47 1.374 . S
C44 C50 1.507 . S
C45 C46 1.384 . S
C45 C49 1.387 . S
C45 H72 0.930 . S
C46 C44 1.380 . S
C46 C45 1.384 . S
C46 H73 0.931 . S
C47 C44 1.374 . S
C47 C48 1.390 . S
C47 H74 0.930 . S
C48 C47 1.390 . S
C48 C49 1.391 . S
C48 H75 0.930 . S
C49 C45 1.387 . S
C49 C48 1.391 . S
C50 Tb40 2.825 . S
C50 C44 1.507 . S
C50 O63 1.238 . S
C50 O64 1.247 . S
O51 Tb40 2.347 . S
O51 C55 1.259 . S
O52 Eu41 2.418 . S
O52 C55 1.265 . S
O53 Eu41 2.384 . S
O53 C62 1.255 . S
O54 Tb40 2.366 . S
O54 C62 1.265 . S
C55 O51 1.259 . S
C55 O52 1.265 . S
O56 Eu41 2.479 . S
O56 C71 1.238 . S
O57 Eu41 2.471 . S
O57 C71 1.247 . S
O58 Eu41 2.347 . S
O58 C42 1.259 . S
O59 Tb40 2.418 . S
O59 C42 1.265 . S
O60 Tb40 2.384 . S
O60 C43 1.255 . S
O61 Eu41 2.366 . S
O61 C43 1.265 . S
C62 O53 1.255 . S
C62 O54 1.265 . S
O63 Tb40 2.479 . S
O63 C50 1.238 . S
O64 Tb40 2.471 . S
O64 C50 1.247 . S
C65 C68 1.380 . S
C65 C69 1.374 . S
C65 C71 1.507 . S
C66 C67 1.387 . S
C66 C70 1.391 . S
C67 C66 1.387 . S
C67 C68 1.384 1_455 S
C67 H76 0.930 . S
C68 C65 1.380 . S
C68 C67 1.384 1_655 S
C68 H77 0.931 . S
C69 C65 1.374 . S
C69 C70 1.390 1_655 S
C69 H78 0.930 . S
C70 C66 1.391 . S
C70 C69 1.390 1_455 S
C70 H79 0.930 . S
C71 Eu41 2.825 . S
C71 O56 1.238 . S
C71 O57 1.247 . S
C71 C65 1.507 . S
H72 C45 0.930 . S
H73 C46 0.931 . S
H74 C47 0.930 . S
H75 C48 0.930 . S
H76 C67 0.930 . S
H77 C68 0.931 . S
H78 C69 0.930 . S
H79 C70 0.930 . S
Tb80 C90 2.825 . S
Tb80 O91 2.347 . S
Tb80 O94 2.366 . S
Tb80 O99 2.418 . S
Tb80 O100 2.384 . S
Tb80 O103 2.479 . S
Tb80 O104 2.471 . S
Eu81 O92 2.418 . S
Eu81 O93 2.384 . S
Eu81 O96 2.479 . S
Eu81 O97 2.471 . S
Eu81 O98 2.347 . S
Eu81 O101 2.366 . S
Eu81 C111 2.825 . S
C82 O98 1.259 . S
C82 O99 1.265 . S
C83 O100 1.255 . S
C83 O101 1.265 . S
C84 C86 1.380 . S
C84 C87 1.374 . S
C84 C90 1.507 . S
C85 C86 1.384 . S
C85 C89 1.387 . S
C85 H112 0.930 . S
C86 C84 1.380 . S
C86 C85 1.384 . S
C86 H113 0.931 . S
C87 C84 1.374 . S
C87 C88 1.390 . S
C87 H114 0.930 . S
C88 C87 1.390 . S
C88 C89 1.391 . S
C88 H115 0.930 . S
C89 C85 1.387 . S
C89 C88 1.391 . S
C90 Tb80 2.825 . S
C90 C84 1.507 . S
C90 O103 1.238 . S
C90 O104 1.247 . S
O91 Tb80 2.347 . S
O91 C95 1.259 . S
O92 Eu81 2.418 . S
O92 C95 1.265 . S
O93 Eu81 2.384 . S
O93 C102 1.255 . S
O94 Tb80 2.366 . S
O94 C102 1.265 . S
C95 O91 1.259 . S
C95 O92 1.265 . S
O96 Eu81 2.479 . S
O96 C111 1.238 . S
O97 Eu81 2.471 . S
O97 C111 1.247 . S
O98 Eu81 2.347 . S
O98 C82 1.259 . S
O99 Tb80 2.418 . S
O99 C82 1.265 . S
O100 Tb80 2.384 . S
O100 C83 1.255 . S
O101 Eu81 2.366 . S
O101 C83 1.265 . S
C102 O93 1.255 . S
C102 O94 1.265 . S
O103 Tb80 2.479 . S
O103 C90 1.238 . S
O104 Tb80 2.471 . S
O104 C90 1.247 . S
C105 C108 1.380 . S
C105 C109 1.374 . S
C105 C111 1.507 . S
C106 C107 1.387 . S
C106 C110 1.391 . S
C107 C106 1.387 . S
C107 C108 1.384 1_545 S
C107 H116 0.930 . S
C108 C105 1.380 . S
C108 C107 1.384 1_565 S
C108 H117 0.931 . S
C109 C105 1.374 . S
C109 C110 1.390 1_565 S
C109 H118 0.930 . S
C110 C106 1.391 . S
C110 C109 1.390 1_545 S
C110 H119 0.930 . S
C111 Eu81 2.825 . S
C111 O96 1.238 . S
C111 O97 1.247 . S
C111 C105 1.507 . S
H112 C85 0.930 . S
H113 C86 0.931 . S
H114 C87 0.930 . S
H115 C88 0.930 . S
H116 C107 0.930 . S
H117 C108 0.931 . S
H118 C109 0.930 . S
H119 C110 0.930 . S
Tb120 C130 2.825 . S
Tb120 O131 2.347 . S
Tb120 O134 2.366 . S
Tb120 O139 2.418 . S
Tb120 O140 2.384 . S
Tb120 O143 2.479 . S
Tb120 O144 2.471 . S
Eu121 O132 2.418 . S
Eu121 O133 2.384 . S
Eu121 O136 2.479 . S
Eu121 O137 2.471 . S
Eu121 O138 2.347 . S
Eu121 O141 2.366 . S
Eu121 C151 2.825 . S
C122 O138 1.259 . S
C122 O139 1.265 . S
C123 O140 1.255 . S
C123 O141 1.265 . S
C124 C126 1.380 . S
C124 C127 1.374 . S
C124 C130 1.507 . S
C125 C126 1.384 . S
C125 C129 1.387 . S
C125 H152 0.930 . S
C126 C124 1.380 . S
C126 C125 1.384 . S
C126 H153 0.931 . S
C127 C124 1.374 . S
C127 C128 1.390 . S
C127 H154 0.930 . S
C128 C127 1.390 . S
C128 C129 1.391 . S
C128 H155 0.930 . S
C129 C125 1.387 . S
C129 C128 1.391 . S
C130 Tb120 2.825 . S
C130 C124 1.507 . S
C130 O143 1.238 . S
C130 O144 1.247 . S
O131 Tb120 2.347 . S
O131 C135 1.259 . S
O132 Eu121 2.418 . S
O132 C135 1.265 . S
O133 Eu121 2.384 . S
O133 C142 1.255 . S
O134 Tb120 2.366 . S
O134 C142 1.265 . S
C135 O131 1.259 . S
C135 O132 1.265 . S
O136 Eu121 2.479 . S
O136 C151 1.238 . S
O137 Eu121 2.471 . S
O137 C151 1.247 . S
O138 Eu121 2.347 . S
O138 C122 1.259 . S
O139 Tb120 2.418 . S
O139 C122 1.265 . S
O140 Tb120 2.384 . S
O140 C123 1.255 . S
O141 Eu121 2.366 . S
O141 C123 1.265 . S
C142 O133 1.255 . S
C142 O134 1.265 . S
O143 Tb120 2.479 . S
O143 C130 1.238 . S
O144 Tb120 2.471 . S
O144 C130 1.247 . S
C145 C148 1.380 . S
C145 C149 1.374 . S
C145 C151 1.507 . S
C146 C147 1.387 . S
C146 C150 1.391 . S
C147 C146 1.387 . S
C147 C148 1.384 . S
C147 H156 0.930 . S
C148 C145 1.380 . S
C148 C147 1.384 . S
C148 H157 0.931 . S
C149 C145 1.374 . S
C149 C150 1.390 . S
C149 H158 0.930 . S
C150 C146 1.391 . S
C150 C149 1.390 . S
C150 H159 0.930 . S
C151 Eu121 2.825 . S
C151 O136 1.238 . S
C151 O137 1.247 . S
C151 C145 1.507 . S
H152 C125 0.930 . S
H153 C126 0.931 . S
H154 C127 0.930 . S
H155 C128 0.930 . S
H156 C147 0.930 . S
H157 C148 0.931 . S
H158 C149 0.930 . S
H159 C150 0.930 . S
Tb160 C170 2.825 . S
Tb160 O171 2.347 . S
Tb160 O174 2.366 . S
Tb160 O179 2.418 . S
Tb160 O180 2.384 . S
Tb160 O183 2.479 . S
Tb160 O184 2.471 . S
Eu161 O172 2.418 . S
Eu161 O173 2.384 . S
Eu161 O176 2.479 . S
Eu161 O177 2.471 . S
Eu161 O178 2.347 . S
Eu161 O181 2.366 . S
Eu161 C191 2.825 . S
C162 O178 1.259 . S
C162 O179 1.265 . S
C163 O180 1.255 . S
C163 O181 1.265 . S
C164 C166 1.380 . S
C164 C167 1.374 . S
C164 C170 1.507 . S
C165 C166 1.384 . S
C165 C169 1.387 . S
C165 H192 0.930 . S
C166 C164 1.380 . S
C166 C165 1.384 . S
C166 H193 0.931 . S
C167 C164 1.374 . S
C167 C168 1.390 . S
C167 H194 0.930 . S
C168 C167 1.390 . S
C168 C169 1.391 . S
C168 H195 0.930 . S
C169 C165 1.387 . S
C169 C168 1.391 . S
C170 Tb160 2.825 . S
C170 C164 1.507 . S
C170 O183 1.238 . S
C170 O184 1.247 . S
O171 Tb160 2.347 . S
O171 C175 1.259 . S
O172 Eu161 2.418 . S
O172 C175 1.265 . S
O173 Eu161 2.384 . S
O173 C182 1.255 . S
O174 Tb160 2.366 . S
O174 C182 1.265 . S
C175 O171 1.259 . S
C175 O172 1.265 . S
O176 Eu161 2.479 . S
O176 C191 1.238 . S
O177 Eu161 2.471 . S
O177 C191 1.247 . S
O178 Eu161 2.347 . S
O178 C162 1.259 . S
O179 Tb160 2.418 . S
O179 C162 1.265 . S
O180 Tb160 2.384 . S
O180 C163 1.255 . S
O181 Eu161 2.366 . S
O181 C163 1.265 . S
C182 O173 1.255 . S
C182 O174 1.265 . S
O183 Tb160 2.479 . S
O183 C170 1.238 . S
O184 Tb160 2.471 . S
O184 C170 1.247 . S
C185 C188 1.380 . S
C185 C189 1.374 . S
C185 C191 1.507 . S
C186 C187 1.387 . S
C186 C190 1.391 . S
C187 C186 1.387 . S
C187 C188 1.384 1_655 S
C187 H196 0.930 . S
C188 C185 1.380 . S
C188 C187 1.384 1_455 S
C188 H197 0.931 . S
C189 C185 1.374 . S
C189 C190 1.390 1_455 S
C189 H198 0.930 . S
C190 C186 1.391 . S
C190 C189 1.390 1_655 S
C190 H199 0.930 . S
C191 Eu161 2.825 . S
C191 O176 1.238 . S
C191 O177 1.247 . S
C191 C185 1.507 . S
H192 C165 0.930 . S
H193 C166 0.931 . S
H194 C167 0.930 . S
H195 C168 0.930 . S
H196 C187 0.930 . S
H197 C188 0.931 . S
H198 C189 0.930 . S
H199 C190 0.930 . S
Tb200 C210 2.825 . S
Tb200 O211 2.347 . S
Tb200 O214 2.366 . S
Tb200 O219 2.418 . S
Tb200 O220 2.384 . S
Tb200 O223 2.479 . S
Tb200 O224 2.471 . S
Eu201 O212 2.418 . S
Eu201 O213 2.384 . S
Eu201 O216 2.479 . S
Eu201 O217 2.471 . S
Eu201 O218 2.347 . S
Eu201 O221 2.366 . S
Eu201 C231 2.825 . S
C202 O218 1.259 . S
C202 O219 1.265 . S
C203 O220 1.255 . S
C203 O221 1.265 . S
C204 C206 1.380 . S
C204 C207 1.374 . S
C204 C210 1.507 . S
C205 C206 1.384 . S
C205 C209 1.387 . S
C205 H232 0.930 . S
C206 C204 1.380 . S
C206 C205 1.384 . S
C206 H233 0.931 . S
C207 C204 1.374 . S
C207 C208 1.390 . S
C207 H234 0.930 . S
C208 C207 1.390 . S
C208 C209 1.391 . S
C208 H235 0.930 . S
C209 C205 1.387 . S
C209 C208 1.391 . S
C210 Tb200 2.825 . S
C210 C204 1.507 . S
C210 O223 1.238 . S
C210 O224 1.247 . S
O211 Tb200 2.347 . S
O211 C215 1.259 . S
O212 Eu201 2.418 . S
O212 C215 1.265 . S
O213 Eu201 2.384 . S
O213 C222 1.255 . S
O214 Tb200 2.366 . S
O214 C222 1.265 . S
C215 O211 1.259 . S
C215 O212 1.265 . S
O216 Eu201 2.479 . S
O216 C231 1.238 . S
O217 Eu201 2.471 . S
O217 C231 1.247 . S
O218 Eu201 2.347 . S
O218 C202 1.259 . S
O219 Tb200 2.418 . S
O219 C202 1.265 . S
O220 Tb200 2.384 . S
O220 C203 1.255 . S
O221 Eu201 2.366 . S
O221 C203 1.265 . S
C222 O213 1.255 . S
C222 O214 1.265 . S
O223 Tb200 2.479 . S
O223 C210 1.238 . S
O224 Tb200 2.471 . S
O224 C210 1.247 . S
C225 C228 1.380 . S
C225 C229 1.374 . S
C225 C231 1.507 . S
C226 C227 1.387 . S
C226 C230 1.391 . S
C227 C226 1.387 . S
C227 C228 1.384 1_565 S
C227 H236 0.930 . S
C228 C225 1.380 . S
C228 C227 1.384 1_545 S
C228 H237 0.931 . S
C229 C225 1.374 . S
C229 C230 1.390 1_545 S
C229 H238 0.930 . S
C230 C226 1.391 . S
C230 C229 1.390 1_565 S
C230 H239 0.930 . S
C231 Eu201 2.825 . S
C231 O216 1.238 . S
C231 O217 1.247 . S
C231 C225 1.507 . S
H232 C205 0.930 . S
H233 C206 0.931 . S
H234 C207 0.930 . S
H235 C208 0.930 . S
H236 C227 0.930 . S
H237 C228 0.931 . S
H238 C229 0.930 . S
H239 C230 0.930 . S
Tb240 C250 2.825 . S
Tb240 O251 2.347 . S
Tb240 O254 2.366 . S
Tb240 O259 2.418 . S
Tb240 O260 2.384 . S
Tb240 O263 2.479 . S
Tb240 O264 2.471 . S
Eu241 O252 2.418 . S
Eu241 O253 2.384 . S
Eu241 O256 2.479 . S
Eu241 O257 2.471 . S
Eu241 O258 2.347 . S
Eu241 O261 2.366 . S
Eu241 C271 2.825 . S
C242 O258 1.259 . S
C242 O259 1.265 . S
C243 O260 1.255 . S
C243 O261 1.265 . S
C244 C246 1.380 . S
C244 C247 1.374 . S
C244 C250 1.507 . S
C245 C246 1.384 . S
C245 C249 1.387 . S
C245 H272 0.930 . S
C246 C244 1.380 . S
C246 C245 1.384 . S
C246 H273 0.931 . S
C247 C244 1.374 . S
C247 C248 1.390 . S
C247 H274 0.930 . S
C248 C247 1.390 . S
C248 C249 1.391 . S
C248 H275 0.930 . S
C249 C245 1.387 . S
C249 C248 1.391 . S
C250 Tb240 2.825 . S
C250 C244 1.507 . S
C250 O263 1.238 . S
C250 O264 1.247 . S
O251 Tb240 2.347 . S
O251 C255 1.259 . S
O252 Eu241 2.418 . S
O252 C255 1.265 . S
O253 Eu241 2.384 . S
O253 C262 1.255 . S
O254 Tb240 2.366 . S
O254 C262 1.265 . S
C255 O251 1.259 . S
C255 O252 1.265 . S
O256 Eu241 2.479 . S
O256 C271 1.238 . S
O257 Eu241 2.471 . S
O257 C271 1.247 . S
O258 Eu241 2.347 . S
O258 C242 1.259 . S
O259 Tb240 2.418 . S
O259 C242 1.265 . S
O260 Tb240 2.384 . S
O260 C243 1.255 . S
O261 Eu241 2.366 . S
O261 C243 1.265 . S
C262 O253 1.255 . S
C262 O254 1.265 . S
O263 Tb240 2.479 . S
O263 C250 1.238 . S
O264 Tb240 2.471 . S
O264 C250 1.247 . S
C265 C268 1.380 . S
C265 C269 1.374 . S
C265 C271 1.507 . S
C266 C267 1.387 . S
C266 C270 1.391 . S
C267 C266 1.387 . S
C267 C268 1.384 . S
C267 H276 0.930 . S
C268 C265 1.380 . S
C268 C267 1.384 . S
C268 H277 0.931 . S
C269 C265 1.374 . S
C269 C270 1.390 . S
C269 H278 0.930 . S
C270 C266 1.391 . S
C270 C269 1.390 . S
C270 H279 0.930 . S
C271 Eu241 2.825 . S
C271 O256 1.238 . S
C271 O257 1.247 . S
C271 C265 1.507 . S
H272 C245 0.930 . S
H273 C246 0.931 . S
H274 C247 0.930 . S
H275 C248 0.930 . S
H276 C267 0.930 . S
H277 C268 0.931 . S
H278 C269 0.930 . S
H279 C270 0.930 . S
Tb280 C290 2.825 . S
Tb280 O291 2.347 . S
Tb280 O294 2.366 . S
Tb280 O299 2.418 . S
Tb280 O300 2.384 . S
Tb280 O303 2.479 . S
Tb280 O304 2.471 . S
Eu281 O292 2.418 . S
Eu281 O293 2.384 . S
Eu281 O296 2.479 . S
Eu281 O297 2.471 . S
Eu281 O298 2.347 . S
Eu281 O301 2.366 . S
Eu281 C311 2.825 . S
C282 O298 1.259 . S
C282 O299 1.265 . S
C283 O300 1.255 . S
C283 O301 1.265 . S
C284 C286 1.380 . S
C284 C287 1.374 . S
C284 C290 1.507 . S
C285 C286 1.384 . S
C285 C289 1.387 . S
C285 H312 0.930 . S
C286 C284 1.380 . S
C286 C285 1.384 . S
C286 H313 0.931 . S
C287 C284 1.374 . S
C287 C288 1.390 . S
C287 H314 0.930 . S
C288 C287 1.390 . S
C288 C289 1.391 . S
C288 H315 0.930 . S
C289 C285 1.387 . S
C289 C288 1.391 . S
C290 Tb280 2.825 . S
C290 C284 1.507 . S
C290 O303 1.238 . S
C290 O304 1.247 . S
O291 Tb280 2.347 . S
O291 C295 1.259 . S
O292 Eu281 2.418 . S
O292 C295 1.265 . S
O293 Eu281 2.384 . S
O293 C302 1.255 . S
O294 Tb280 2.366 . S
O294 C302 1.265 . S
C295 O291 1.259 . S
C295 O292 1.265 . S
O296 Eu281 2.479 . S
O296 C311 1.238 . S
O297 Eu281 2.471 . S
O297 C311 1.247 . S
O298 Eu281 2.347 . S
O298 C282 1.259 . S
O299 Tb280 2.418 . S
O299 C282 1.265 . S
O300 Tb280 2.384 . S
O300 C283 1.255 . S
O301 Eu281 2.366 . S
O301 C283 1.265 . S
C302 O293 1.255 . S
C302 O294 1.265 . S
O303 Tb280 2.479 . S
O303 C290 1.238 . S
O304 Tb280 2.471 . S
O304 C290 1.247 . S
C305 C308 1.380 . S
C305 C309 1.374 . S
C305 C311 1.507 . S
C306 C307 1.387 . S
C306 C310 1.391 . S
C307 C306 1.387 . S
C307 C308 1.384 1_455 S
C307 H316 0.930 . S
C308 C305 1.380 . S
C308 C307 1.384 1_655 S
C308 H317 0.931 . S
C309 C305 1.374 . S
C309 C310 1.390 1_655 S
C309 H318 0.930 . S
C310 C306 1.391 . S
C310 C309 1.390 1_455 S
C310 H319 0.930 . S
C311 Eu281 2.825 . S
C311 O296 1.238 . S
C311 O297 1.247 . S
C311 C305 1.507 . S
H312 C285 0.930 . S
H313 C286 0.931 . S
H314 C287 0.930 . S
H315 C288 0.930 . S
H316 C307 0.930 . S
H317 C308 0.931 . S
H318 C309 0.930 . S
H319 C310 0.930 . S
Tb320 C330 2.825 . S
Tb320 O331 2.347 . S
Tb320 O334 2.366 . S
Tb320 O339 2.418 . S
Tb320 O340 2.384 . S
Tb320 O343 2.479 . S
Tb320 O344 2.471 . S
Eu321 O332 2.418 . S
Eu321 O333 2.384 . S
Eu321 O336 2.479 . S
Eu321 O337 2.471 . S
Eu321 O338 2.347 . S
Eu321 O341 2.366 . S
Eu321 C351 2.825 . S
C322 O338 1.259 . S
C322 O339 1.265 . S
C323 O340 1.255 . S
C323 O341 1.265 . S
C324 C326 1.380 . S
C324 C327 1.374 . S
C324 C330 1.507 . S
C325 C326 1.384 . S
C325 C329 1.387 . S
C325 H352 0.930 . S
C326 C324 1.380 . S
C326 C325 1.384 . S
C326 H353 0.931 . S
C327 C324 1.374 . S
C327 C328 1.390 . S
C327 H354 0.930 . S
C328 C327 1.390 . S
C328 C329 1.391 . S
C328 H355 0.930 . S
C329 C325 1.387 . S
C329 C328 1.391 . S
C330 Tb320 2.825 . S
C330 C324 1.507 . S
C330 O343 1.238 . S
C330 O344 1.247 . S
O331 Tb320 2.347 . S
O331 C335 1.259 . S
O332 Eu321 2.418 . S
O332 C335 1.265 . S
O333 Eu321 2.384 . S
O333 C342 1.255 . S
O334 Tb320 2.366 . S
O334 C342 1.265 . S
C335 O331 1.259 . S
C335 O332 1.265 . S
O336 Eu321 2.479 . S
O336 C351 1.238 . S
O337 Eu321 2.471 . S
O337 C351 1.247 . S
O338 Eu321 2.347 . S
O338 C322 1.259 . S
O339 Tb320 2.418 . S
O339 C322 1.265 . S
O340 Tb320 2.384 . S
O340 C323 1.255 . S
O341 Eu321 2.366 . S
O341 C323 1.265 . S
C342 O333 1.255 . S
C342 O334 1.265 . S
O343 Tb320 2.479 . S
O343 C330 1.238 . S
O344 Tb320 2.471 . S
O344 C330 1.247 . S
C345 C348 1.380 . S
C345 C349 1.374 . S
C345 C351 1.507 . S
C346 C347 1.387 . S
C346 C350 1.391 . S
C347 C346 1.387 . S
C347 C348 1.384 1_545 S
C347 H356 0.930 . S
C348 C345 1.380 . S
C348 C347 1.384 1_565 S
C348 H357 0.931 . S
C349 C345 1.374 . S
C349 C350 1.390 1_565 S
C349 H358 0.930 . S
C350 C346 1.391 . S
C350 C349 1.390 1_545 S
C350 H359 0.930 . S
C351 Eu321 2.825 . S
C351 O336 1.238 . S
C351 O337 1.247 . S
C351 C345 1.507 . S
H352 C325 0.930 . S
H353 C326 0.931 . S
H354 C327 0.930 . S
H355 C328 0.930 . S
H356 C347 0.930 . S
H357 C348 0.931 . S
H358 C349 0.930 . S
H359 C350 0.930 . S
Tb360 C370 2.825 . S
Tb360 O371 2.347 . S
Tb360 O374 2.366 . S
Tb360 O379 2.418 . S
Tb360 O380 2.384 . S
Tb360 O383 2.479 . S
Tb360 O384 2.471 . S
Eu361 O372 2.418 . S
Eu361 O373 2.384 . S
Eu361 O376 2.479 . S
Eu361 O377 2.471 . S
Eu361 O378 2.347 . S
Eu361 O381 2.366 . S
Eu361 C391 2.825 . S
C362 O378 1.259 . S
C362 O379 1.265 . S
C363 O380 1.255 . S
C363 O381 1.265 . S
C364 C366 1.380 . S
C364 C367 1.374 . S
C364 C370 1.507 . S
C365 C366 1.384 . S
C365 C369 1.387 . S
C365 H392 0.930 . S
C366 C364 1.380 . S
C366 C365 1.384 . S
C366 H393 0.931 . S
C367 C364 1.374 . S
C367 C368 1.390 . S
C367 H394 0.930 . S
C368 C367 1.390 . S
C368 C369 1.391 . S
C368 H395 0.930 . S
C369 C365 1.387 . S
C369 C368 1.391 . S
C370 Tb360 2.825 . S
C370 C364 1.507 . S
C370 O383 1.238 . S
C370 O384 1.247 . S
O371 Tb360 2.347 . S
O371 C375 1.259 . S
O372 Eu361 2.418 . S
O372 C375 1.265 . S
O373 Eu361 2.384 . S
O373 C382 1.255 . S
O374 Tb360 2.366 . S
O374 C382 1.265 . S
C375 O371 1.259 . S
C375 O372 1.265 . S
O376 Eu361 2.479 . S
O376 C391 1.238 . S
O377 Eu361 2.471 . S
O377 C391 1.247 . S
O378 Eu361 2.347 . S
O378 C362 1.259 . S
O379 Tb360 2.418 . S
O379 C362 1.265 . S
O380 Tb360 2.384 . S
O380 C363 1.255 . S
O381 Eu361 2.366 . S
O381 C363 1.265 . S
C382 O373 1.255 . S
C382 O374 1.265 . S
O383 Tb360 2.479 . S
O383 C370 1.238 . S
O384 Tb360 2.471 . S
O384 C370 1.247 . S
C385 C388 1.380 . S
C385 C389 1.374 . S
C385 C391 1.507 . S
C386 C387 1.387 . S
C386 C390 1.391 . S
C387 C386 1.387 . S
C387 C388 1.384 . S
C387 H396 0.930 . S
C388 C385 1.380 . S
C388 C387 1.384 . S
C388 H397 0.931 . S
C389 C385 1.374 . S
C389 C390 1.390 . S
C389 H398 0.930 . S
C390 C386 1.391 . S
C390 C389 1.390 . S
C390 H399 0.930 . S
C391 Eu361 2.825 . S
C391 O376 1.238 . S
C391 O377 1.247 . S
C391 C385 1.507 . S
H392 C365 0.930 . S
H393 C366 0.931 . S
H394 C367 0.930 . S
H395 C368 0.930 . S
H396 C387 0.930 . S
H397 C388 0.931 . S
H398 C389 0.930 . S
H399 C390 0.930 . S
Tb400 C410 2.825 . S
Tb400 O411 2.347 . S
Tb400 O414 2.366 . S
Tb400 O419 2.418 . S
Tb400 O420 2.384 . S
Tb400 O423 2.479 . S
Tb400 O424 2.471 . S
Eu401 O412 2.418 . S
Eu401 O413 2.384 . S
Eu401 O416 2.479 . S
Eu401 O417 2.471 . S
Eu401 O418 2.347 . S
Eu401 O421 2.366 . S
Eu401 C431 2.825 . S
C402 O418 1.259 . S
C402 O419 1.265 . S
C403 O420 1.255 . S
C403 O421 1.265 . S
C404 C406 1.380 . S
C404 C407 1.374 . S
C404 C410 1.507 . S
C405 C406 1.384 . S
C405 C409 1.387 . S
C405 H432 0.930 . S
C406 C404 1.380 . S
C406 C405 1.384 . S
C406 H433 0.931 . S
C407 C404 1.374 . S
C407 C408 1.390 . S
C407 H434 0.930 . S
C408 C407 1.390 . S
C408 C409 1.391 . S
C408 H435 0.930 . S
C409 C405 1.387 . S
C409 C408 1.391 . S
C410 Tb400 2.825 . S
C410 C404 1.507 . S
C410 O423 1.238 . S
C410 O424 1.247 . S
O411 Tb400 2.347 . S
O411 C415 1.259 . S
O412 Eu401 2.418 . S
O412 C415 1.265 . S
O413 Eu401 2.384 . S
O413 C422 1.255 . S
O414 Tb400 2.366 . S
O414 C422 1.265 . S
C415 O411 1.259 . S
C415 O412 1.265 . S
O416 Eu401 2.479 . S
O416 C431 1.238 . S
O417 Eu401 2.471 . S
O417 C431 1.247 . S
O418 Eu401 2.347 . S
O418 C402 1.259 . S
O419 Tb400 2.418 . S
O419 C402 1.265 . S
O420 Tb400 2.384 . S
O420 C403 1.255 . S
O421 Eu401 2.366 . S
O421 C403 1.265 . S
C422 O413 1.255 . S
C422 O414 1.265 . S
O423 Tb400 2.479 . S
O423 C410 1.238 . S
O424 Tb400 2.471 . S
O424 C410 1.247 . S
C425 C428 1.380 . S
C425 C429 1.374 . S
C425 C431 1.507 . S
C426 C427 1.387 . S
C426 C430 1.391 . S
C427 C426 1.387 . S
C427 C428 1.384 1_655 S
C427 H436 0.930 . S
C428 C425 1.380 . S
C428 C427 1.384 1_455 S
C428 H437 0.931 . S
C429 C425 1.374 . S
C429 C430 1.390 1_455 S
C429 H438 0.930 . S
C430 C426 1.391 . S
C430 C429 1.390 1_655 S
C430 H439 0.930 . S
C431 Eu401 2.825 . S
C431 O416 1.238 . S
C431 O417 1.247 . S
C431 C425 1.507 . S
H432 C405 0.930 . S
H433 C406 0.931 . S
H434 C407 0.930 . S
H435 C408 0.930 . S
H436 C427 0.930 . S
H437 C428 0.931 . S
H438 C429 0.930 . S
H439 C430 0.930 . S
Tb440 C450 2.825 . S
Tb440 O451 2.347 . S
Tb440 O454 2.366 . S
Tb440 O459 2.418 . S
Tb440 O460 2.384 . S
Tb440 O463 2.479 . S
Tb440 O464 2.471 . S
Eu441 O452 2.418 . S
Eu441 O453 2.384 . S
Eu441 O456 2.479 . S
Eu441 O457 2.471 . S
Eu441 O458 2.347 . S
Eu441 O461 2.366 . S
Eu441 C471 2.825 . S
C442 O458 1.259 . S
C442 O459 1.265 . S
C443 O460 1.255 . S
C443 O461 1.265 . S
C444 C446 1.380 . S
C444 C447 1.374 . S
C444 C450 1.507 . S
C445 C446 1.384 . S
C445 C449 1.387 . S
C445 H472 0.930 . S
C446 C444 1.380 . S
C446 C445 1.384 . S
C446 H473 0.931 . S
C447 C444 1.374 . S
C447 C448 1.390 . S
C447 H474 0.930 . S
C448 C447 1.390 . S
C448 C449 1.391 . S
C448 H475 0.930 . S
C449 C445 1.387 . S
C449 C448 1.391 . S
C450 Tb440 2.825 . S
C450 C444 1.507 . S
C450 O463 1.238 . S
C450 O464 1.247 . S
O451 Tb440 2.347 . S
O451 C455 1.259 . S
O452 Eu441 2.418 . S
O452 C455 1.265 . S
O453 Eu441 2.384 . S
O453 C462 1.255 . S
O454 Tb440 2.366 . S
O454 C462 1.265 . S
C455 O451 1.259 . S
C455 O452 1.265 . S
O456 Eu441 2.479 . S
O456 C471 1.238 . S
O457 Eu441 2.471 . S
O457 C471 1.247 . S
O458 Eu441 2.347 . S
O458 C442 1.259 . S
O459 Tb440 2.418 . S
O459 C442 1.265 . S
O460 Tb440 2.384 . S
O460 C443 1.255 . S
O461 Eu441 2.366 . S
O461 C443 1.265 . S
C462 O453 1.255 . S
C462 O454 1.265 . S
O463 Tb440 2.479 . S
O463 C450 1.238 . S
O464 Tb440 2.471 . S
O464 C450 1.247 . S
C465 C468 1.380 . S
C465 C469 1.374 . S
C465 C471 1.507 . S
C466 C467 1.387 . S
C466 C470 1.391 . S
C467 C466 1.387 . S
C467 C468 1.384 1_565 S
C467 H476 0.930 . S
C468 C465 1.380 . S
C468 C467 1.384 1_545 S
C468 H477 0.931 . S
C469 C465 1.374 . S
C469 C470 1.390 1_545 S
C469 H478 0.930 . S
C470 C466 1.391 . S
C470 C469 1.390 1_565 S
C470 H479 0.930 . S
C471 Eu441 2.825 . S
C471 O456 1.238 . S
C471 O457 1.247 . S
C471 C465 1.507 . S
H472 C445 0.930 . S
H473 C446 0.931 . S
H474 C447 0.930 . S
H475 C448 0.930 . S
H476 C467 0.930 . S
H477 C468 0.931 . S
H478 C469 0.930 . S
H479 C470 0.930 . S
H480 C488 0.929 . S
H481 C490 0.930 . S
H482 C492 0.930 . S
H483 C495 0.929 . S
H484 C498 0.930 1_565 S
H485 C500 0.960 . S
H486 C500 0.960 . S
H487 C500 0.960 . S
C488 H480 0.929 . S
C488 C489 1.377 . S
C488 C490 1.384 . S
C489 C488 1.377 . S
C489 C495 1.390 . S
C490 H481 0.930 . S
C490 C488 1.384 . S
C490 C491 1.372 . S
C491 C490 1.372 . S
C491 C492 1.400 . S
C491 C496 1.490 . S
C492 H482 0.930 . S
C492 C491 1.400 . S
C492 C495 1.386 . S
H493 C509 0.930 . S
H494 C510 0.931 . S
C495 H483 0.929 . S
C495 C489 1.390 . S
C495 C492 1.386 . S
C496 C491 1.490 . S
C496 C498 1.395 1_565 S
C496 C499 1.403 . S
H497 C503 0.930 . S
C498 H484 0.930 1_545 S
C498 C496 1.395 1_545 S
C498 C501 1.403 . S
C499 C496 1.403 . S
C499 C500 1.524 . S
C499 C503 1.400 1_565 S
C500 H485 0.960 . S
C500 H486 0.960 . S
C500 H487 0.960 . S
C500 C499 1.524 . S
C501 C498 1.403 . S
C501 C502 1.392 . S
C501 C505 1.495 . S
C502 C501 1.392 . S
C502 C503 1.385 . S
C502 C504 1.478 . S
C503 H497 0.930 . S
C503 C499 1.400 1_545 S
C503 C502 1.385 . S
C504 C502 1.478 . S
C504 C506 1.381 . S
C504 C510 1.383 . S
C505 C501 1.495 . S
C505 H511 0.959 . S
C505 H512 0.961 . S
C505 H513 0.960 . S
C506 C504 1.381 . S
C506 C507 1.394 . S
C506 H514 0.930 . S
C507 C506 1.394 . S
C507 C508 1.383 . S
C507 H515 0.929 . S
C508 C507 1.383 . S
C508 C509 1.377 . S
C509 H493 0.930 . S
C509 C508 1.377 . S
C509 C510 1.379 . S
C510 H494 0.931 . S
C510 C504 1.383 . S
C510 C509 1.379 . S
H511 C505 0.959 . S
H512 C505 0.961 . S
H513 C505 0.960 . S
H514 C506 0.930 . S
H515 C507 0.929 . S
H516 C524 0.929 . S
H517 C526 0.930 . S
H518 C528 0.930 . S
H519 C531 0.929 . S
H520 C534 0.930 . S
H521 C536 0.960 . S
H522 C536 0.960 . S
H523 C536 0.960 . S
C524 H516 0.929 . S
C524 C525 1.377 . S
C524 C526 1.384 . S
C525 C524 1.377 . S
C525 C531 1.390 . S
C526 H517 0.930 . S
C526 C524 1.384 . S
C526 C527 1.372 . S
C527 C526 1.372 . S
C527 C528 1.400 . S
C527 C532 1.490 . S
C528 H518 0.930 . S
C528 C527 1.400 . S
C528 C531 1.386 . S
H529 C545 0.930 . S
H530 C546 0.931 . S
C531 H519 0.929 . S
C531 C525 1.390 . S
C531 C528 1.386 . S
C532 C527 1.490 . S
C532 C534 1.395 . S
C532 C535 1.403 . S
H533 C539 0.930 . S
C534 H520 0.930 . S
C534 C532 1.395 . S
C534 C537 1.403 . S
C535 C532 1.403 . S
C535 C536 1.524 . S
C535 C539 1.400 . S
C536 H521 0.960 . S
C536 H522 0.960 . S
C536 H523 0.960 . S
C536 C535 1.524 . S
C537 C534 1.403 . S
C537 C538 1.392 . S
C537 C541 1.495 . S
C538 C537 1.392 . S
C538 C539 1.385 . S
C538 C540 1.478 . S
C539 H533 0.930 . S
C539 C535 1.400 . S
C539 C538 1.385 . S
C540 C538 1.478 . S
C540 C542 1.381 . S
C540 C546 1.383 . S
C541 C537 1.495 . S
C541 H547 0.959 . S
C541 H548 0.961 . S
C541 H549 0.960 . S
C542 C540 1.381 . S
C542 C543 1.394 . S
C542 H550 0.930 . S
C543 C542 1.394 . S
C543 C544 1.383 . S
C543 H551 0.929 . S
C544 C543 1.383 . S
C544 C545 1.377 . S
C545 H529 0.930 . S
C545 C544 1.377 . S
C545 C546 1.379 . S
C546 H530 0.931 . S
C546 C540 1.383 . S
C546 C545 1.379 . S
H547 C541 0.959 . S
H548 C541 0.961 . S
H549 C541 0.960 . S
H550 C542 0.930 . S
H551 C543 0.929 . S
H552 C560 0.929 . S
H553 C562 0.930 . S
H554 C564 0.930 . S
H555 C567 0.929 . S
H556 C570 0.930 . S
H557 C572 0.960 . S
H558 C572 0.960 . S
H559 C572 0.960 . S
C560 H552 0.929 . S
C560 C561 1.377 . S
C560 C562 1.384 . S
C561 C560 1.377 . S
C561 C567 1.390 . S
C562 H553 0.930 . S
C562 C560 1.384 . S
C562 C563 1.372 . S
C563 C562 1.372 . S
C563 C564 1.400 . S
C563 C568 1.490 . S
C564 H554 0.930 . S
C564 C563 1.400 . S
C564 C567 1.386 . S
H565 C581 0.930 . S
H566 C582 0.931 . S
C567 H555 0.929 . S
C567 C561 1.390 . S
C567 C564 1.386 . S
C568 C563 1.490 . S
C568 C570 1.395 . S
C568 C571 1.403 . S
H569 C575 0.930 . S
C570 H556 0.930 . S
C570 C568 1.395 . S
C570 C573 1.403 1_655 S
C571 C568 1.403 . S
C571 C572 1.524 . S
C571 C575 1.400 1_655 S
C572 H557 0.960 . S
C572 H558 0.960 . S
C572 H559 0.960 . S
C572 C571 1.524 . S
C573 C570 1.403 1_455 S
C573 C574 1.392 . S
C573 C577 1.495 . S
C574 C573 1.392 . S
C574 C575 1.385 . S
C574 C576 1.478 . S
C575 H569 0.930 . S
C575 C571 1.400 1_455 S
C575 C574 1.385 . S
C576 C574 1.478 . S
C576 C578 1.381 . S
C576 C582 1.383 . S
C577 C573 1.495 . S
C577 H583 0.959 . S
C577 H584 0.961 . S
C577 H585 0.960 . S
C578 C576 1.381 . S
C578 C579 1.394 . S
C578 H586 0.930 . S
C579 C578 1.394 . S
C579 C580 1.383 . S
C579 H587 0.929 . S
C580 C579 1.383 . S
C580 C581 1.377 . S
C581 H565 0.930 . S
C581 C580 1.377 . S
C581 C582 1.379 . S
C582 H566 0.931 . S
C582 C576 1.383 . S
C582 C581 1.379 . S
H583 C577 0.959 . S
H584 C577 0.961 . S
H585 C577 0.960 . S
H586 C578 0.930 . S
H587 C579 0.929 . S
H588 C596 0.929 . S
H589 C598 0.930 . S
H590 C600 0.930 . S
H591 C603 0.929 . S
H592 C606 0.930 . S
H593 C608 0.960 . S
H594 C608 0.960 . S
H595 C608 0.960 . S
C596 H588 0.929 . S
C596 C597 1.377 . S
C596 C598 1.384 . S
C597 C596 1.377 . S
C597 C603 1.390 . S
C598 H589 0.930 . S
C598 C596 1.384 . S
C598 C599 1.372 . S
C599 C598 1.372 . S
C599 C600 1.400 . S
C599 C604 1.490 . S
C600 H590 0.930 . S
C600 C599 1.400 . S
C600 C603 1.386 . S
H601 C617 0.930 . S
H602 C618 0.931 . S
C603 H591 0.929 . S
C603 C597 1.390 . S
C603 C600 1.386 . S
C604 C599 1.490 . S
C604 C606 1.395 . S
C604 C607 1.403 . S
H605 C611 0.930 . S
C606 H592 0.930 . S
C606 C604 1.395 . S
C606 C609 1.403 1_565 S
C607 C604 1.403 . S
C607 C608 1.524 . S
C607 C611 1.400 1_565 S
C608 H593 0.960 . S
C608 H594 0.960 . S
C608 H595 0.960 . S
C608 C607 1.524 . S
C609 C606 1.403 1_545 S
C609 C610 1.392 . S
C609 C613 1.495 . S
C610 C609 1.392 . S
C610 C611 1.385 . S
C610 C612 1.478 . S
C611 H605 0.930 . S
C611 C607 1.400 1_545 S
C611 C610 1.385 . S
C612 C610 1.478 . S
C612 C614 1.381 . S
C612 C618 1.383 . S
C613 C609 1.495 . S
C613 H619 0.959 . S
C613 H620 0.961 . S
C613 H621 0.960 . S
C614 C612 1.381 . S
C614 C615 1.394 . S
C614 H622 0.930 . S
C615 C614 1.394 . S
C615 C616 1.383 . S
C615 H623 0.929 . S
C616 C615 1.383 . S
C616 C617 1.377 . S
C617 H601 0.930 . S
C617 C616 1.377 . S
C617 C618 1.379 . S
C618 H602 0.931 . S
C618 C612 1.383 . S
C618 C617 1.379 . S
H619 C613 0.959 . S
H620 C613 0.961 . S
H621 C613 0.960 . S
H622 C614 0.930 . S
H623 C615 0.929 . S
H624 C632 0.929 . S
H625 C634 0.930 . S
H626 C636 0.930 . S
H627 C639 0.929 . S
H628 C642 0.930 . S
H629 C644 0.960 . S
H630 C644 0.960 . S
H631 C644 0.960 . S
C632 H624 0.929 . S
C632 C633 1.377 . S
C632 C634 1.384 . S
C633 C632 1.377 . S
C633 C639 1.390 . S
C634 H625 0.930 . S
C634 C632 1.384 . S
C634 C635 1.372 . S
C635 C634 1.372 . S
C635 C636 1.400 . S
C635 C640 1.490 . S
C636 H626 0.930 . S
C636 C635 1.400 . S
C636 C639 1.386 . S
H637 C653 0.930 . S
H638 C654 0.931 . S
C639 H627 0.929 . S
C639 C633 1.390 . S
C639 C636 1.386 . S
C640 C635 1.490 . S
C640 C642 1.395 . S
C640 C643 1.403 . S
H641 C647 0.930 . S
C642 H628 0.930 . S
C642 C640 1.395 . S
C642 C645 1.403 . S
C643 C640 1.403 . S
C643 C644 1.524 . S
C643 C647 1.400 . S
C644 H629 0.960 . S
C644 H630 0.960 . S
C644 H631 0.960 . S
C644 C643 1.524 . S
C645 C642 1.403 . S
C645 C646 1.392 . S
C645 C649 1.495 . S
C646 C645 1.392 . S
C646 C647 1.385 . S
C646 C648 1.478 . S
C647 H641 0.930 . S
C647 C643 1.400 . S
C647 C646 1.385 . S
C648 C646 1.478 . S
C648 C650 1.381 . S
C648 C654 1.383 . S
C649 C645 1.495 . S
C649 H655 0.959 . S
C649 H656 0.961 . S
C649 H657 0.960 . S
C650 C648 1.381 . S
C650 C651 1.394 . S
C650 H658 0.930 . S
C651 C650 1.394 . S
C651 C652 1.383 . S
C651 H659 0.929 . S
C652 C651 1.383 . S
C652 C653 1.377 . S
C653 H637 0.930 . S
C653 C652 1.377 . S
C653 C654 1.379 . S
C654 H638 0.931 . S
C654 C648 1.383 . S
C654 C653 1.379 . S
H655 C649 0.959 . S
H656 C649 0.961 . S
H657 C649 0.960 . S
H658 C650 0.930 . S
H659 C651 0.929 . S
H660 C668 0.929 . S
H661 C670 0.930 . S
H662 C672 0.930 . S
H663 C675 0.929 . S
H664 C678 0.930 . S
H665 C680 0.960 . S
H666 C680 0.960 1_655 S
H667 C680 0.960 1_655 S
C668 H660 0.929 . S
C668 C669 1.377 . S
C668 C670 1.384 . S
C669 C668 1.377 . S
C669 C675 1.390 . S
C670 H661 0.930 . S
C670 C668 1.384 . S
C670 C671 1.372 . S
C671 C670 1.372 . S
C671 C672 1.400 . S
C671 C676 1.490 . S
C672 H662 0.930 . S
C672 C671 1.400 . S
C672 C675 1.386 . S
H673 C689 0.930 . S
H674 C690 0.931 . S
C675 H663 0.929 . S
C675 C669 1.390 . S
C675 C672 1.386 . S
C676 C671 1.490 . S
C676 C678 1.395 . S
C676 C679 1.403 1_655 S
H677 C683 0.930 . S
C678 H664 0.930 . S
C678 C676 1.395 . S
C678 C681 1.403 1_655 S
C679 C676 1.403 1_455 S
C679 C680 1.524 . S
C679 C683 1.400 . S
C680 H665 0.960 . S
C680 H666 0.960 1_455 S
C680 H667 0.960 1_455 S
C680 C679 1.524 . S
C681 C678 1.403 1_455 S
C681 C682 1.392 . S
C681 C685 1.495 . S
C682 C681 1.392 . S
C682 C683 1.385 . S
C682 C684 1.478 . S
C683 H677 0.930 . S
C683 C679 1.400 . S
C683 C682 1.385 . S
C684 C682 1.478 . S
C684 C686 1.381 . S
C684 C690 1.383 . S
C685 C681 1.495 . S
C685 H691 0.959 1_455 S
C685 H692 0.961 . S
C685 H693 0.960 . S
C686 C684 1.381 . S
C686 C687 1.394 . S
C686 H694 0.930 . S
C687 C686 1.394 . S
C687 C688 1.383 . S
C687 H695 0.929 . S
C688 C687 1.383 . S
C688 C689 1.377 . S
C689 H673 0.930 . S
C689 C688 1.377 . S
C689 C690 1.379 . S
C690 H674 0.931 . S
C690 C684 1.383 . S
C690 C689 1.379 . S
H691 C685 0.959 1_655 S
H692 C685 0.961 . S
H693 C685 0.960 . S
H694 C686 0.930 . S
H695 C687 0.929 . S
H696 C704 0.929 . S
H697 C706 0.930 . S
H698 C708 0.930 . S
H699 C711 0.929 . S
H700 C714 0.930 1_455 S
H701 C716 0.960 . S
H702 C716 0.960 . S
H703 C716 0.960 . S
C704 H696 0.929 . S
C704 C705 1.377 . S
C704 C706 1.384 . S
C705 C704 1.377 . S
C705 C711 1.390 . S
C706 H697 0.930 . S
C706 C704 1.384 . S
C706 C707 1.372 . S
C707 C706 1.372 . S
C707 C708 1.400 . S
C707 C712 1.490 . S
C708 H698 0.930 . S
C708 C707 1.400 . S
C708 C711 1.386 . S
H709 C725 0.930 . S
H710 C726 0.931 . S
C711 H699 0.929 . S
C711 C705 1.390 . S
C711 C708 1.386 . S
C712 C707 1.490 . S
C712 C714 1.395 1_455 S
C712 C715 1.403 . S
H713 C719 0.930 . S
C714 H700 0.930 1_655 S
C714 C712 1.395 1_655 S
C714 C717 1.403 . S
C715 C712 1.403 . S
C715 C716 1.524 . S
C715 C719 1.400 1_455 S
C716 H701 0.960 . S
C716 H702 0.960 . S
C716 H703 0.960 . S
C716 C715 1.524 . S
C717 C714 1.403 . S
C717 C718 1.392 . S
C717 C721 1.495 . S
C718 C717 1.392 . S
C718 C719 1.385 . S
C718 C720 1.478 . S
C719 H713 0.930 . S
C719 C715 1.400 1_655 S
C719 C718 1.385 . S
C720 C718 1.478 . S
C720 C722 1.381 . S
C720 C726 1.383 . S
C721 C717 1.495 . S
C721 H727 0.959 . S
C721 H728 0.961 . S
C721 H729 0.960 . S
C722 C720 1.381 . S
C722 C723 1.394 . S
C722 H730 0.930 . S
C723 C722 1.394 . S
C723 C724 1.383 . S
C723 H731 0.929 . S
C724 C723 1.383 . S
C724 C725 1.377 . S
C725 H709 0.930 . S
C725 C724 1.377 . S
C725 C726 1.379 . S
C726 H710 0.931 . S
C726 C720 1.383 . S
C726 C725 1.379 . S
H727 C721 0.959 . S
H728 C721 0.961 . S
H729 C721 0.960 . S
H730 C722 0.930 . S
H731 C723 0.929 . S
H732 C740 0.929 . S
H733 C742 0.930 . S
H734 C744 0.930 . S
H735 C747 0.929 . S
H736 C750 0.930 . S
H737 C752 0.960 . S
H738 C752 0.960 . S
H739 C752 0.960 . S
C740 H732 0.929 . S
C740 C741 1.377 . S
C740 C742 1.384 . S
C741 C740 1.377 . S
C741 C747 1.390 . S
C742 H733 0.930 . S
C742 C740 1.384 . S
C742 C743 1.372 . S
C743 C742 1.372 . S
C743 C744 1.400 . S
C743 C748 1.490 . S
C744 H734 0.930 . S
C744 C743 1.400 . S
C744 C747 1.386 . S
H745 C761 0.930 . S
H746 C762 0.931 . S
C747 H735 0.929 . S
C747 C741 1.390 . S
C747 C744 1.386 . S
C748 C743 1.490 . S
C748 C750 1.395 . S
C748 C751 1.403 . S
H749 C755 0.930 . S
C750 H736 0.930 . S
C750 C748 1.395 . S
C750 C753 1.405 . S
C751 C748 1.403 . S
C751 C752 1.524 . S
C751 C755 1.400 1_565 S
C752 H737 0.960 . S
C752 H738 0.960 . S
C752 H739 0.960 . S
C752 C751 1.524 . S
C753 C750 1.405 . S
C753 C754 1.391 1_565 S
C753 C757 1.495 1_565 S
C754 C753 1.391 1_545 S
C754 C755 1.385 . S
C754 C756 1.478 . S
C755 H749 0.930 . S
C755 C751 1.400 1_545 S
C755 C754 1.385 . S
C756 C754 1.478 . S
C756 C758 1.381 . S
C756 C762 1.383 . S
C757 C753 1.495 1_545 S
C757 H763 0.959 1_545 S
C757 H764 0.961 . S
C757 H765 0.960 . S
C758 C756 1.381 . S
C758 C759 1.394 . S
C758 H766 0.930 . S
C759 C758 1.394 . S
C759 C760 1.383 . S
C759 H767 0.929 . S
C760 C759 1.383 . S
C760 C761 1.377 . S
C761 H745 0.930 . S
C761 C760 1.377 . S
C761 C762 1.379 . S
C762 H746 0.931 . S
C762 C756 1.383 . S
C762 C761 1.379 . S
H763 C757 0.959 1_565 S
H764 C757 0.961 . S
H765 C757 0.960 . S
H766 C758 0.930 . S
H767 C759 0.929 . S
H768 C776 0.929 . S
H769 C778 0.930 . S
H770 C780 0.930 . S
H771 C783 0.929 . S
H772 C786 0.930 . S
H773 C788 0.960 . S
H774 C788 0.960 . S
H775 C788 0.960 . S
C776 H768 0.929 . S
C776 C777 1.377 . S
C776 C778 1.384 . S
C777 C776 1.377 . S
C777 C783 1.390 . S
C778 H769 0.930 . S
C778 C776 1.384 . S
C778 C779 1.372 . S
C779 C778 1.372 . S
C779 C780 1.400 . S
C779 C784 1.490 . S
C780 H770 0.930 . S
C780 C779 1.400 . S
C780 C783 1.386 . S
H781 C797 0.930 . S
H782 C798 0.931 . S
C783 H771 0.929 . S
C783 C777 1.390 . S
C783 C780 1.386 . S
C784 C779 1.490 . S
C784 C786 1.395 . S
C784 C787 1.403 . S
H785 C791 0.930 . S
C786 H772 0.930 . S
C786 C784 1.395 . S
C786 C789 1.403 . S
C787 C784 1.403 . S
C787 C788 1.524 . S
C787 C791 1.400 . S
C788 H773 0.960 . S
C788 H774 0.960 . S
C788 H775 0.960 . S
C788 C787 1.524 . S
C789 C786 1.403 . S
C789 C790 1.392 . S
C789 C793 1.495 . S
C790 C789 1.392 . S
C790 C791 1.385 . S
C790 C792 1.478 . S
C791 H785 0.930 . S
C791 C787 1.400 . S
C791 C790 1.385 . S
C792 C790 1.478 . S
C792 C794 1.381 . S
C792 C798 1.383 . S
C793 C789 1.495 . S
C793 H799 0.959 . S
C793 H800 0.961 . S
C793 H801 0.960 . S
C794 C792 1.381 . S
C794 C795 1.394 . S
C794 H802 0.930 . S
C795 C794 1.394 . S
C795 C796 1.383 . S
C795 H803 0.929 . S
C796 C795 1.383 . S
C796 C797 1.377 . S
C797 H781 0.930 . S
C797 C796 1.377 . S
C797 C798 1.379 . S
C798 H782 0.931 . S
C798 C792 1.383 . S
C798 C797 1.379 . S
H799 C793 0.959 . S
H800 C793 0.961 . S
H801 C793 0.960 . S
H802 C794 0.930 . S
H803 C795 0.929 . S
H804 C812 0.929 . S
H805 C814 0.930 . S
H806 C816 0.930 . S
H807 C819 0.929 . S
H808 C822 0.930 . S
H809 C824 0.960 . S
H810 C824 0.960 . S
H811 C824 0.960 . S
C812 H804 0.929 . S
C812 C813 1.377 . S
C812 C814 1.384 . S
C813 C812 1.377 . S
C813 C819 1.390 . S
C814 H805 0.930 . S
C814 C812 1.384 . S
C814 C815 1.372 . S
C815 C814 1.372 . S
C815 C816 1.400 . S
C815 C820 1.490 . S
C816 H806 0.930 . S
C816 C815 1.400 . S
C816 C819 1.386 . S
H817 C833 0.930 . S
H818 C834 0.931 . S
C819 H807 0.929 . S
C819 C813 1.390 . S
C819 C816 1.386 . S
C820 C815 1.490 . S
C820 C822 1.395 . S
C820 C823 1.403 . S
H821 C827 0.930 . S
C822 H808 0.930 . S
C822 C820 1.395 . S
C822 C825 1.403 1_455 S
C823 C820 1.403 . S
C823 C824 1.524 . S
C823 C827 1.400 1_455 S
C824 H809 0.960 . S
C824 H810 0.960 . S
C824 H811 0.960 . S
C824 C823 1.524 . S
C825 C822 1.403 1_655 S
C825 C826 1.392 . S
C825 C829 1.495 . S
C826 C825 1.392 . S
C826 C827 1.385 . S
C826 C828 1.478 . S
C827 H821 0.930 . S
C827 C823 1.400 1_655 S
C827 C826 1.385 . S
C828 C826 1.478 . S
C828 C830 1.381 . S
C828 C834 1.383 . S
C829 C825 1.495 . S
C829 H835 0.959 1_655 S
C829 H836 0.961 . S
C829 H837 0.960 . S
C830 C828 1.381 . S
C830 C831 1.394 . S
C830 H838 0.930 . S
C831 C830 1.394 . S
C831 C832 1.383 . S
C831 H839 0.929 . S
C832 C831 1.383 . S
C832 C833 1.377 . S
C833 H817 0.930 . S
C833 C832 1.377 . S
C833 C834 1.379 . S
C834 H818 0.931 . S
C834 C828 1.383 . S
C834 C833 1.379 . S
H835 C829 0.959 1_455 S
H836 C829 0.961 . S
H837 C829 0.960 . S
H838 C830 0.930 . S
H839 C831 0.929 . S
H840 C848 0.929 . S
H841 C850 0.930 . S
H842 C852 0.930 . S
H843 C855 0.929 . S
H844 C858 0.930 . S
H845 C860 0.960 . S
H846 C860 0.960 . S
H847 C860 0.960 . S
C848 H840 0.929 . S
C848 C849 1.377 . S
C848 C850 1.384 . S
C849 C848 1.377 . S
C849 C855 1.390 . S
C850 H841 0.930 . S
C850 C848 1.384 . S
C850 C851 1.372 . S
C851 C850 1.372 . S
C851 C852 1.400 . S
C851 C856 1.490 . S
C852 H842 0.930 . S
C852 C851 1.400 . S
C852 C855 1.386 . S
H853 C869 0.930 . S
H854 C870 0.931 . S
C855 H843 0.929 . S
C855 C849 1.390 . S
C855 C852 1.386 . S
C856 C851 1.490 . S
C856 C858 1.395 . S
C856 C859 1.403 . S
H857 C863 0.930 . S
C858 H844 0.930 . S
C858 C856 1.395 . S
C858 C861 1.403 1_545 S
C859 C856 1.403 . S
C859 C860 1.524 . S
C859 C863 1.400 1_545 S
C860 H845 0.960 . S
C860 H846 0.960 . S
C860 H847 0.960 . S
C860 C859 1.524 . S
C861 C858 1.403 1_565 S
C861 C862 1.392 . S
C861 C865 1.495 . S
C862 C861 1.392 . S
C862 C863 1.385 . S
C862 C864 1.478 . S
C863 H857 0.930 . S
C863 C859 1.400 1_565 S
C863 C862 1.385 . S
C864 C862 1.478 . S
C864 C866 1.381 . S
C864 C870 1.383 . S
C865 C861 1.495 . S
C865 H871 0.959 . S
C865 H872 0.961 . S
C865 H873 0.960 . S
C866 C864 1.381 . S
C866 C867 1.394 . S
C866 H874 0.930 . S
C867 C866 1.394 . S
C867 C868 1.383 . S
C867 H875 0.929 . S
C868 C867 1.383 . S
C868 C869 1.377 . S
C869 H853 0.930 . S
C869 C868 1.377 . S
C869 C870 1.379 . S
C870 H854 0.931 . S
C870 C864 1.383 . S
C870 C869 1.379 . S
H871 C865 0.959 . S
H872 C865 0.961 . S
H873 C865 0.960 . S
H874 C866 0.930 . S
H875 C867 0.929 . S
H876 C884 0.929 . S
H877 C886 0.930 . S
H878 C888 0.930 . S
H879 C891 0.929 . S
H880 C894 0.930 . S
H881 C896 0.960 . S
H882 C896 0.960 . S
H883 C896 0.960 . S
C884 H876 0.929 . S
C884 C885 1.377 . S
C884 C886 1.384 . S
C885 C884 1.377 . S
C885 C891 1.390 . S
C886 H877 0.930 . S
C886 C884 1.384 . S
C886 C887 1.372 . S
C887 C886 1.372 . S
C887 C888 1.400 . S
C887 C892 1.490 . S
C888 H878 0.930 . S
C888 C887 1.400 . S
C888 C891 1.386 . S
H889 C905 0.930 . S
H890 C906 0.931 . S
C891 H879 0.929 . S
C891 C885 1.390 . S
C891 C888 1.386 . S
C892 C887 1.490 . S
C892 C894 1.395 . S
C892 C895 1.403 . S
H893 C899 0.930 . S
C894 H880 0.930 . S
C894 C892 1.395 . S
C894 C897 1.403 . S
C895 C892 1.403 . S
C895 C896 1.524 . S
C895 C899 1.400 . S
C896 H881 0.960 . S
C896 H882 0.960 . S
C896 H883 0.960 . S
C896 C895 1.524 . S
C897 C894 1.403 . S
C897 C898 1.392 . S
C897 C901 1.495 . S
C898 C897 1.392 . S
C898 C899 1.385 . S
C898 C900 1.478 . S
C899 H893 0.930 . S
C899 C895 1.400 . S
C899 C898 1.385 . S
C900 C898 1.478 . S
C900 C902 1.381 . S
C900 C906 1.383 . S
C901 C897 1.495 . S
C901 H907 0.959 . S
C901 H908 0.961 . S
C901 H909 0.960 . S
C902 C900 1.381 . S
C902 C903 1.394 . S
C902 H910 0.930 . S
C903 C902 1.394 . S
C903 C904 1.383 . S
C903 H911 0.929 . S
C904 C903 1.383 . S
C904 C905 1.377 . S
C905 H889 0.930 . S
C905 C904 1.377 . S
C905 C906 1.379 . S
C906 H890 0.931 . S
C906 C900 1.383 . S
C906 C905 1.379 . S
H907 C901 0.959 . S
H908 C901 0.961 . S
H909 C901 0.960 . S
H910 C902 0.930 . S
H911 C903 0.929 . S
H912 C920 0.929 . S
H913 C922 0.930 . S
H914 C924 0.930 . S
H915 C927 0.929 . S
H916 C930 0.930 . S
H917 C932 0.960 . S
H918 C932 0.960 . S
H919 C932 0.960 . S
C920 H912 0.929 . S
C920 C921 1.377 . S
C920 C922 1.384 . S
C921 C920 1.377 . S
C921 C927 1.390 . S
C922 H913 0.930 . S
C922 C920 1.384 . S
C922 C923 1.372 . S
C923 C922 1.372 . S
C923 C924 1.400 . S
C923 C928 1.490 . S
C924 H914 0.930 . S
C924 C923 1.400 . S
C924 C927 1.386 . S
H925 C941 0.930 . S
H926 C942 0.931 . S
C927 H915 0.929 . S
C927 C921 1.390 . S
C927 C924 1.386 . S
C928 C923 1.490 . S
C928 C930 1.395 . S
C928 C931 1.403 . S
H929 C935 0.930 . S
C930 H916 0.930 . S
C930 C928 1.395 . S
C930 C933 1.403 . S
C931 C928 1.403 . S
C931 C932 1.524 . S
C931 C935 1.400 . S
C932 H917 0.960 . S
C932 H918 0.960 . S
C932 H919 0.960 . S
C932 C931 1.524 . S
C933 C930 1.403 . S
C933 C934 1.392 . S
C933 C937 1.495 . S
C934 C933 1.392 . S
C934 C935 1.385 . S
C934 C936 1.478 . S
C935 H929 0.930 . S
C935 C931 1.400 . S
C935 C934 1.385 . S
C936 C934 1.478 . S
C936 C938 1.381 . S
C936 C942 1.383 . S
C937 C933 1.495 . S
C937 H943 0.959 . S
C937 H944 0.961 . S
C937 H945 0.960 . S
C938 C936 1.381 . S
C938 C939 1.394 . S
C938 H946 0.930 . S
C939 C938 1.394 . S
C939 C940 1.383 . S
C939 H947 0.929 . S
C940 C939 1.383 . S
C940 C941 1.377 . S
C941 H925 0.930 . S
C941 C940 1.377 . S
C941 C942 1.379 . S
C942 H926 0.931 . S
C942 C936 1.383 . S
C942 C941 1.379 . S
H943 C937 0.959 . S
H944 C937 0.961 . S
H945 C937 0.960 . S
H946 C938 0.930 . S
H947 C939 0.929 . S
H948 C956 0.929 . S
H949 C958 0.930 . S
H950 C960 0.930 . S
H951 C963 0.929 . S
H952 C966 0.930 . S
H953 C968 0.960 . S
H954 C968 0.960 . S
H955 C968 0.960 . S
C956 H948 0.929 . S
C956 C957 1.377 . S
C956 C958 1.384 . S
C957 C956 1.377 . S
C957 C963 1.390 . S
C958 H949 0.930 . S
C958 C956 1.384 . S
C958 C959 1.372 . S
C959 C958 1.372 . S
C959 C960 1.400 . S
C959 C964 1.490 . S
C960 H950 0.930 . S
C960 C959 1.400 . S
C960 C963 1.386 . S
H961 C977 0.930 . S
H962 C978 0.931 . S
C963 H951 0.929 . S
C963 C957 1.390 . S
C963 C960 1.386 . S
C964 C959 1.490 . S
C964 C966 1.395 . S
C964 C967 1.403 . S
H965 C971 0.930 . S
C966 H952 0.930 . S
C966 C964 1.395 . S
C966 C969 1.403 . S
C967 C964 1.403 . S
C967 C968 1.524 . S
C967 C971 1.400 . S
C968 H953 0.960 . S
C968 H954 0.960 . S
C968 H955 0.960 . S
C968 C967 1.524 . S
C969 C966 1.403 . S
C969 C970 1.392 . S
C969 C973 1.495 . S
C970 C969 1.392 . S
C970 C971 1.385 . S
C970 C972 1.478 . S
C971 H965 0.930 . S
C971 C967 1.400 . S
C971 C970 1.385 . S
C972 C970 1.478 . S
C972 C974 1.381 . S
C972 C978 1.383 . S
C973 C969 1.495 . S
C973 H979 0.959 . S
C973 H980 0.961 . S
C973 H981 0.960 . S
C974 C972 1.381 . S
C974 C975 1.394 . S
C974 H982 0.930 . S
C975 C974 1.394 . S
C975 C976 1.383 . S
C975 H983 0.929 . S
C976 C975 1.383 . S
C976 C977 1.377 . S
C977 H961 0.930 . S
C977 C976 1.377 . S
C977 C978 1.379 . S
C978 H962 0.931 . S
C978 C972 1.383 . S
C978 C977 1.379 . S
H979 C973 0.959 . S
H980 C973 0.961 . S
H981 C973 0.960 . S
H982 C974 0.930 . S
H983 C975 0.929 . S
H984 C992 0.929 . S
H985 C994 0.930 . S
H986 C996 0.930 . S
H987 C999 0.929 . S
H988 C1002 0.930 . S
H989 C1004 0.960 . S
H990 C1004 0.960 . S
H991 C1004 0.960 . S
C992 H984 0.929 . S
C992 C993 1.377 . S
C992 C994 1.384 . S
C993 C992 1.377 . S
C993 C999 1.390 . S
C994 H985 0.930 . S
C994 C992 1.384 . S
C994 C995 1.372 . S
C995 C994 1.372 . S
C995 C996 1.400 . S
C995 C1000 1.490 . S
C996 H986 0.930 . S
C996 C995 1.400 . S
C996 C999 1.386 . S
H997 C1013 0.930 . S
H998 C1014 0.931 . S
C999 H987 0.929 . S
C999 C993 1.390 . S
C999 C996 1.386 . S
C1000 C995 1.490 . S
C1000 C1002 1.395 . S
C1000 C1003 1.403 . S
H1001 C1007 0.930 . S
C1002 H988 0.930 . S
C1002 C1000 1.395 . S
C1002 C1005 1.403 . S
C1003 C1000 1.403 . S
C1003 C1004 1.524 . S
C1003 C1007 1.400 . S
C1004 H989 0.960 . S
C1004 H990 0.960 . S
C1004 H991 0.960 . S
C1004 C1003 1.524 . S
C1005 C1002 1.403 . S
C1005 C1006 1.392 . S
C1005 C1009 1.495 . S
C1006 C1005 1.392 . S
C1006 C1007 1.385 . S
C1006 C1008 1.478 . S
C1007 H1001 0.930 . S
C1007 C1003 1.400 . S
C1007 C1006 1.385 . S
C1008 C1006 1.478 . S
C1008 C1010 1.381 . S
C1008 C1014 1.383 . S
C1009 C1005 1.495 . S
C1009 H1015 0.959 . S
C1009 H1016 0.961 . S
C1009 H1017 0.960 . S
C1010 C1008 1.381 . S
C1010 C1011 1.394 . S
C1010 H1018 0.930 . S
C1011 C1010 1.394 . S
C1011 C1012 1.383 . S
C1011 H1019 0.929 . S
C1012 C1011 1.383 . S
C1012 C1013 1.377 . S
C1013 H997 0.930 . S
C1013 C1012 1.377 . S
C1013 C1014 1.379 . S
C1014 H998 0.931 . S
C1014 C1008 1.383 . S
C1014 C1013 1.379 . S
H1015 C1009 0.959 . S
H1016 C1009 0.961 . S
H1017 C1009 0.960 . S
H1018 C1010 0.930 . S
H1019 C1011 0.929 . S
H1020 C1028 0.929 . S
H1021 C1030 0.930 . S
H1022 C1032 0.930 . S
H1023 C1035 0.929 . S
H1024 C1038 0.930 . S
H1025 C1040 0.960 . S
H1026 C1040 0.960 . S
H1027 C1040 0.960 . S
C1028 H1020 0.929 . S
C1028 C1029 1.377 . S
C1028 C1030 1.384 . S
C1029 C1028 1.377 . S
C1029 C1035 1.390 . S
C1030 H1021 0.930 . S
C1030 C1028 1.384 . S
C1030 C1031 1.372 . S
C1031 C1030 1.372 . S
C1031 C1032 1.400 . S
C1031 C1036 1.490 . S
C1032 H1022 0.930 . S
C1032 C1031 1.400 . S
C1032 C1035 1.386 . S
H1033 C1049 0.930 . S
H1034 C1050 0.931 . S
C1035 H1023 0.929 . S
C1035 C1029 1.390 . S
C1035 C1032 1.386 . S
C1036 C1031 1.490 . S
C1036 C1038 1.395 . S
C1036 C1039 1.403 . S
H1037 C1043 0.930 . S
C1038 H1024 0.930 . S
C1038 C1036 1.395 . S
C1038 C1041 1.403 . S
C1039 C1036 1.403 . S
C1039 C1040 1.524 . S
C1039 C1043 1.400 . S
C1040 H1025 0.960 . S
C1040 H1026 0.960 . S
C1040 H1027 0.960 . S
C1040 C1039 1.524 . S
C1041 C1038 1.403 . S
C1041 C1042 1.392 . S
C1041 C1045 1.495 . S
C1042 C1041 1.392 . S
C1042 C1043 1.385 . S
C1042 C1044 1.478 . S
C1043 H1037 0.930 . S
C1043 C1039 1.400 . S
C1043 C1042 1.385 . S
C1044 C1042 1.478 . S
C1044 C1046 1.381 . S
C1044 C1050 1.383 . S
C1045 C1041 1.495 . S
C1045 H1051 0.959 . S
C1045 H1052 0.961 . S
C1045 H1053 0.960 . S
C1046 C1044 1.381 . S
C1046 C1047 1.394 . S
C1046 H1054 0.930 . S
C1047 C1046 1.394 . S
C1047 C1048 1.383 . S
C1047 H1055 0.929 . S
C1048 C1047 1.383 . S
C1048 C1049 1.377 . S
C1049 H1033 0.930 . S
C1049 C1048 1.377 . S
C1049 C1050 1.379 . S
C1050 H1034 0.931 . S
C1050 C1044 1.383 . S
C1050 C1049 1.379 . S
H1051 C1045 0.959 . S
H1052 C1045 0.961 . S
H1053 C1045 0.960 . S
H1054 C1046 0.930 . S
H1055 C1047 0.929 . S
H1056 C1064 0.929 . S
H1057 C1066 0.930 . S
H1058 C1068 0.930 . S
H1059 C1071 0.929 . S
H1060 C1074 0.930 . S
H1061 C1076 0.960 . S
H1062 C1076 0.960 . S
H1063 C1076 0.960 . S
C1064 H1056 0.929 . S
C1064 C1065 1.377 . S
C1064 C1066 1.384 . S
C1065 C1064 1.377 . S
C1065 C1071 1.390 . S
C1066 H1057 0.930 . S
C1066 C1064 1.384 . S
C1066 C1067 1.372 . S
C1067 C1066 1.372 . S
C1067 C1068 1.400 . S
C1067 C1072 1.490 . S
C1068 H1058 0.930 . S
C1068 C1067 1.400 . S
C1068 C1071 1.386 . S
H1069 C1085 0.930 . S
H1070 C1086 0.931 . S
C1071 H1059 0.929 . S
C1071 C1065 1.390 . S
C1071 C1068 1.386 . S
C1072 C1067 1.490 . S
C1072 C1074 1.395 . S
C1072 C1075 1.403 . S
H1073 C1079 0.930 . S
C1074 H1060 0.930 . S
C1074 C1072 1.395 . S
C1074 C1077 1.403 . S
C1075 C1072 1.403 . S
C1075 C1076 1.524 . S
C1075 C1079 1.400 . S
C1076 H1061 0.960 . S
C1076 H1062 0.960 . S
C1076 H1063 0.960 . S
C1076 C1075 1.524 . S
C1077 C1074 1.403 . S
C1077 C1078 1.392 . S
C1077 C1081 1.495 . S
C1078 C1077 1.392 . S
C1078 C1079 1.385 . S
C1078 C1080 1.478 . S
C1079 H1073 0.930 . S
C1079 C1075 1.400 . S
C1079 C1078 1.385 . S
C1080 C1078 1.478 . S
C1080 C1082 1.381 . S
C1080 C1086 1.383 . S
C1081 C1077 1.495 . S
C1081 H1087 0.959 . S
C1081 H1088 0.961 . S
C1081 H1089 0.960 . S
C1082 C1080 1.381 . S
C1082 C1083 1.394 . S
C1082 H1090 0.930 . S
C1083 C1082 1.394 . S
C1083 C1084 1.383 . S
C1083 H1091 0.929 . S
C1084 C1083 1.383 . S
C1084 C1085 1.377 . S
C1085 H1069 0.930 . S
C1085 C1084 1.377 . S
C1085 C1086 1.379 . S
C1086 H1070 0.931 . S
C1086 C1080 1.383 . S
C1086 C1085 1.379 . S
H1087 C1081 0.959 . S
H1088 C1081 0.961 . S
H1089 C1081 0.960 . S
H1090 C1082 0.930 . S
H1091 C1083 0.929 . S
H1092 C1100 0.929 . S
H1093 C1102 0.930 . S
H1094 C1104 0.930 . S
H1095 C1107 0.929 . S
H1096 C1110 0.930 . S
H1097 C1112 0.960 . S
H1098 C1112 0.960 . S
H1099 C1112 0.960 . S
C1100 H1092 0.929 . S
C1100 C1101 1.377 . S
C1100 C1102 1.384 . S
C1101 C1100 1.377 . S
C1101 C1107 1.390 . S
C1102 H1093 0.930 . S
C1102 C1100 1.384 . S
C1102 C1103 1.372 . S
C1103 C1102 1.372 . S
C1103 C1104 1.400 . S
C1103 C1108 1.490 . S
C1104 H1094 0.930 . S
C1104 C1103 1.400 . S
C1104 C1107 1.386 . S
H1105 C1121 0.930 . S
H1106 C1122 0.931 . S
C1107 H1095 0.929 . S
C1107 C1101 1.390 . S
C1107 C1104 1.386 . S
C1108 C1103 1.490 . S
C1108 C1110 1.395 . S
C1108 C1111 1.403 . S
H1109 C1115 0.930 . S
C1110 H1096 0.930 . S
C1110 C1108 1.395 . S
C1110 C1113 1.403 . S
C1111 C1108 1.403 . S
C1111 C1112 1.524 . S
C1111 C1115 1.400 . S
C1112 H1097 0.960 . S
C1112 H1098 0.960 . S
C1112 H1099 0.960 . S
C1112 C1111 1.524 . S
C1113 C1110 1.403 . S
C1113 C1114 1.392 . S
C1113 C1117 1.495 . S
C1114 C1113 1.392 . S
C1114 C1115 1.385 . S
C1114 C1116 1.478 . S
C1115 H1109 0.930 . S
C1115 C1111 1.400 . S
C1115 C1114 1.385 . S
C1116 C1114 1.478 . S
C1116 C1118 1.381 . S
C1116 C1122 1.383 . S
C1117 C1113 1.495 . S
C1117 H1123 0.959 . S
C1117 H1124 0.961 . S
C1117 H1125 0.960 . S
C1118 C1116 1.381 . S
C1118 C1119 1.394 . S
C1118 H1126 0.930 . S
C1119 C1118 1.394 . S
C1119 C1120 1.383 . S
C1119 H1127 0.929 . S
C1120 C1119 1.383 . S
C1120 C1121 1.377 . S
C1121 H1105 0.930 . S
C1121 C1120 1.377 . S
C1121 C1122 1.379 . S
C1122 H1106 0.931 . S
C1122 C1116 1.383 . S
C1122 C1121 1.379 . S
H1123 C1117 0.959 . S
H1124 C1117 0.961 . S
H1125 C1117 0.960 . S
H1126 C1118 0.930 . S
H1127 C1119 0.929 . S
H1128 C1136 0.929 . S
H1129 C1138 0.930 . S
H1130 C1140 0.930 . S
H1131 C1143 0.929 . S
H1132 C1146 0.930 . S
H1133 C1148 0.960 . S
H1134 C1148 0.960 . S
H1135 C1148 0.960 . S
C1136 H1128 0.929 . S
C1136 C1137 1.377 . S
C1136 C1138 1.384 . S
C1137 C1136 1.377 . S
C1137 C1143 1.390 . S
C1138 H1129 0.930 . S
C1138 C1136 1.384 . S
C1138 C1139 1.372 . S
C1139 C1138 1.372 . S
C1139 C1140 1.400 . S
C1139 C1144 1.490 . S
C1140 H1130 0.930 . S
C1140 C1139 1.400 . S
C1140 C1143 1.386 . S
H1141 C1157 0.930 . S
H1142 C1158 0.931 . S
C1143 H1131 0.929 . S
C1143 C1137 1.390 . S
C1143 C1140 1.386 . S
C1144 C1139 1.490 . S
C1144 C1146 1.395 . S
C1144 C1147 1.403 . S
H1145 C1151 0.930 . S
C1146 H1132 0.930 . S
C1146 C1144 1.395 . S
C1146 C1149 1.403 . S
C1147 C1144 1.403 . S
C1147 C1148 1.524 . S
C1147 C1151 1.400 . S
C1148 H1133 0.960 . S
C1148 H1134 0.960 . S
C1148 H1135 0.960 . S
C1148 C1147 1.524 . S
C1149 C1146 1.403 . S
C1149 C1150 1.392 . S
C1149 C1153 1.495 . S
C1150 C1149 1.392 . S
C1150 C1151 1.385 . S
C1150 C1152 1.478 . S
C1151 H1145 0.930 . S
C1151 C1147 1.400 . S
C1151 C1150 1.385 . S
C1152 C1150 1.478 . S
C1152 C1154 1.381 . S
C1152 C1158 1.383 . S
C1153 C1149 1.495 . S
C1153 H1159 0.959 . S
C1153 H1160 0.961 . S
C1153 H1161 0.960 . S
C1154 C1152 1.381 . S
C1154 C1155 1.394 . S
C1154 H1162 0.930 . S
C1155 C1154 1.394 . S
C1155 C1156 1.383 . S
C1155 H1163 0.929 . S
C1156 C1155 1.383 . S
C1156 C1157 1.377 . S
C1157 H1141 0.930 . S
C1157 C1156 1.377 . S
C1157 C1158 1.379 . S
C1158 H1142 0.931 . S
C1158 C1152 1.383 . S
C1158 C1157 1.379 . S
H1159 C1153 0.959 . S
H1160 C1153 0.961 . S
H1161 C1153 0.960 . S
H1162 C1154 0.930 . S
H1163 C1155 0.929 . S
H1164 C1172 0.929 . S
H1165 C1174 0.930 . S
H1166 C1176 0.930 . S
H1167 C1179 0.929 . S
H1168 C1182 0.930 . S
H1169 C1184 0.960 . S
H1170 C1184 0.960 . S
H1171 C1184 0.960 . S
C1172 H1164 0.929 . S
C1172 C1173 1.377 . S
C1172 C1174 1.384 . S
C1173 C1172 1.377 . S
C1173 C1179 1.390 . S
C1174 H1165 0.930 . S
C1174 C1172 1.384 . S
C1174 C1175 1.372 . S
C1175 C1174 1.372 . S
C1175 C1176 1.400 . S
C1175 C1180 1.490 . S
C1176 H1166 0.930 . S
C1176 C1175 1.400 . S
C1176 C1179 1.386 . S
H1177 C1193 0.930 . S
H1178 C1194 0.931 . S
C1179 H1167 0.929 . S
C1179 C1173 1.390 . S
C1179 C1176 1.386 . S
C1180 C1175 1.490 . S
C1180 C1182 1.395 . S
C1180 C1183 1.403 . S
H1181 C1187 0.930 . S
C1182 H1168 0.930 . S
C1182 C1180 1.395 . S
C1182 C1185 1.403 . S
C1183 C1180 1.403 . S
C1183 C1184 1.524 . S
C1183 C1187 1.400 . S
C1184 H1169 0.960 . S
C1184 H1170 0.960 . S
C1184 H1171 0.960 . S
C1184 C1183 1.524 . S
C1185 C1182 1.403 . S
C1185 C1186 1.392 . S
C1185 C1189 1.495 . S
C1186 C1185 1.392 . S
C1186 C1187 1.385 . S
C1186 C1188 1.478 . S
C1187 H1181 0.930 . S
C1187 C1183 1.400 . S
C1187 C1186 1.385 . S
C1188 C1186 1.478 . S
C1188 C1190 1.381 . S
C1188 C1194 1.383 . S
C1189 C1185 1.495 . S
C1189 H1195 0.959 . S
C1189 H1196 0.961 . S
C1189 H1197 0.960 . S
C1190 C1188 1.381 . S
C1190 C1191 1.394 . S
C1190 H1198 0.930 . S
C1191 C1190 1.394 . S
C1191 C1192 1.383 . S
C1191 H1199 0.929 . S
C1192 C1191 1.383 . S
C1192 C1193 1.377 . S
C1193 H1177 0.930 . S
C1193 C1192 1.377 . S
C1193 C1194 1.379 . S
C1194 H1178 0.931 . S
C1194 C1188 1.383 . S
C1194 C1193 1.379 . S
H1195 C1189 0.959 . S
H1196 C1189 0.961 . S
H1197 C1189 0.960 . S
H1198 C1190 0.930 . S
H1199 C1191 0.929 . S
H1200 C1208 0.929 . S
H1201 C1210 0.930 . S
H1202 C1212 0.930 . S
H1203 C1215 0.929 . S
H1204 C1218 0.930 . S
H1205 C1220 0.960 . S
H1206 C1220 0.960 . S
H1207 C1220 0.960 . S
C1208 H1200 0.929 . S
C1208 C1209 1.377 . S
C1208 C1210 1.384 . S
C1209 C1208 1.377 . S
C1209 C1215 1.390 . S
C1210 H1201 0.930 . S
C1210 C1208 1.384 . S
C1210 C1211 1.372 . S
C1211 C1210 1.372 . S
C1211 C1212 1.400 . S
C1211 C1216 1.490 . S
C1212 H1202 0.930 . S
C1212 C1211 1.400 . S
C1212 C1215 1.386 . S
H1213 C1229 0.930 . S
H1214 C1230 0.931 . S
C1215 H1203 0.929 . S
C1215 C1209 1.390 . S
C1215 C1212 1.386 . S
C1216 C1211 1.490 . S
C1216 C1218 1.395 . S
C1216 C1219 1.403 . S
H1217 C1223 0.930 . S
C1218 H1204 0.930 . S
C1218 C1216 1.395 . S
C1218 C1221 1.403 . S
C1219 C1216 1.403 . S
C1219 C1220 1.524 . S
C1219 C1223 1.400 . S
C1220 H1205 0.960 . S
C1220 H1206 0.960 . S
C1220 H1207 0.960 . S
C1220 C1219 1.524 . S
C1221 C1218 1.403 . S
C1221 C1222 1.392 . S
C1221 C1225 1.495 . S
C1222 C1221 1.392 . S
C1222 C1223 1.385 . S
C1222 C1224 1.478 . S
C1223 H1217 0.930 . S
C1223 C1219 1.400 . S
C1223 C1222 1.385 . S
C1224 C1222 1.478 . S
C1224 C1226 1.381 . S
C1224 C1230 1.383 . S
C1225 C1221 1.495 . S
C1225 H1231 0.959 . S
C1225 H1232 0.961 . S
C1225 H1233 0.960 . S
C1226 C1224 1.381 . S
C1226 C1227 1.394 . S
C1226 H1234 0.930 . S
C1227 C1226 1.394 . S
C1227 C1228 1.383 . S
C1227 H1235 0.929 . S
C1228 C1227 1.383 . S
C1228 C1229 1.377 . S
C1229 H1213 0.930 . S
C1229 C1228 1.377 . S
C1229 C1230 1.379 . S
C1230 H1214 0.931 . S
C1230 C1224 1.383 . S
C1230 C1229 1.379 . S
H1231 C1225 0.959 . S
H1232 C1225 0.961 . S
H1233 C1225 0.960 . S
H1234 C1226 0.930 . S
H1235 C1227 0.929 . S
H1236 C1244 0.929 . S
H1237 C1246 0.930 . S
H1238 C1248 0.930 . S
H1239 C1251 0.929 . S
H1240 C1254 0.930 . S
H1241 C1256 0.960 . S
H1242 C1256 0.960 . S
H1243 C1256 0.960 . S
C1244 H1236 0.929 . S
C1244 C1245 1.377 . S
C1244 C1246 1.384 . S
C1245 C1244 1.377 . S
C1245 C1251 1.390 . S
C1246 H1237 0.930 . S
C1246 C1244 1.384 . S
C1246 C1247 1.372 . S
C1247 C1246 1.372 . S
C1247 C1248 1.400 . S
C1247 C1252 1.490 . S
C1248 H1238 0.930 . S
C1248 C1247 1.400 . S
C1248 C1251 1.386 . S
H1249 C1265 0.930 . S
H1250 C1266 0.931 . S
C1251 H1239 0.929 . S
C1251 C1245 1.390 . S
C1251 C1248 1.386 . S
C1252 C1247 1.490 . S
C1252 C1254 1.395 . S
C1252 C1255 1.403 . S
H1253 C1259 0.930 . S
C1254 H1240 0.930 . S
C1254 C1252 1.395 . S
C1254 C1257 1.403 . S
C1255 C1252 1.403 . S
C1255 C1256 1.524 . S
C1255 C1259 1.400 . S
C1256 H1241 0.960 . S
C1256 H1242 0.960 . S
C1256 H1243 0.960 . S
C1256 C1255 1.524 . S
C1257 C1254 1.403 . S
C1257 C1258 1.392 . S
C1257 C1261 1.495 . S
C1258 C1257 1.392 . S
C1258 C1259 1.385 . S
C1258 C1260 1.478 . S
C1259 H1253 0.930 . S
C1259 C1255 1.400 . S
C1259 C1258 1.385 . S
C1260 C1258 1.478 . S
C1260 C1262 1.381 . S
C1260 C1266 1.383 . S
C1261 C1257 1.495 . S
C1261 H1267 0.959 . S
C1261 H1268 0.961 . S
C1261 H1269 0.960 . S
C1262 C1260 1.381 . S
C1262 C1263 1.394 . S
C1262 H1270 0.930 . S
C1263 C1262 1.394 . S
C1263 C1264 1.383 . S
C1263 H1271 0.929 . S
C1264 C1263 1.383 . S
C1264 C1265 1.377 . S
C1265 H1249 0.930 . S
C1265 C1264 1.377 . S
C1265 C1266 1.379 . S
C1266 H1250 0.931 . S
C1266 C1260 1.383 . S
C1266 C1265 1.379 . S
H1267 C1261 0.959 . S
H1268 C1261 0.961 . S
H1269 C1261 0.960 . S
H1270 C1262 0.930 . S
H1271 C1263 0.929 . S
H1272 C1280 0.929 . S
H1273 C1282 0.930 . S
H1274 C1284 0.930 . S
H1275 C1287 0.929 . S
H1276 C1290 0.930 . S
H1277 C1292 0.960 . S
H1278 C1292 0.960 . S
H1279 C1292 0.960 . S
C1280 H1272 0.929 . S
C1280 C1281 1.377 . S
C1280 C1282 1.384 . S
C1281 C1280 1.377 . S
C1281 C1287 1.390 . S
C1282 H1273 0.930 . S
C1282 C1280 1.384 . S
C1282 C1283 1.372 . S
C1283 C1282 1.372 . S
C1283 C1284 1.400 . S
C1283 C1288 1.490 . S
C1284 H1274 0.930 . S
C1284 C1283 1.400 . S
C1284 C1287 1.386 . S
H1285 C1301 0.930 . S
H1286 C1302 0.931 . S
C1287 H1275 0.929 . S
C1287 C1281 1.390 . S
C1287 C1284 1.386 . S
C1288 C1283 1.490 . S
C1288 C1290 1.395 . S
C1288 C1291 1.403 . S
H1289 C1295 0.930 . S
C1290 H1276 0.930 . S
C1290 C1288 1.395 . S
C1290 C1293 1.403 . S
C1291 C1288 1.403 . S
C1291 C1292 1.524 . S
C1291 C1295 1.400 . S
C1292 H1277 0.960 . S
C1292 H1278 0.960 . S
C1292 H1279 0.960 . S
C1292 C1291 1.524 . S
C1293 C1290 1.403 . S
C1293 C1294 1.392 . S
C1293 C1297 1.495 . S
C1294 C1293 1.392 . S
C1294 C1295 1.385 . S
C1294 C1296 1.478 . S
C1295 H1289 0.930 . S
C1295 C1291 1.400 . S
C1295 C1294 1.385 . S
C1296 C1294 1.478 . S
C1296 C1298 1.381 . S
C1296 C1302 1.383 . S
C1297 C1293 1.495 . S
C1297 H1303 0.959 . S
C1297 H1304 0.961 . S
C1297 H1305 0.960 . S
C1298 C1296 1.381 . S
C1298 C1299 1.394 . S
C1298 H1306 0.930 . S
C1299 C1298 1.394 . S
C1299 C1300 1.383 . S
C1299 H1307 0.929 . S
C1300 C1299 1.383 . S
C1300 C1301 1.377 . S
C1301 H1285 0.930 . S
C1301 C1300 1.377 . S
C1301 C1302 1.379 . S
C1302 H1286 0.931 . S
C1302 C1296 1.383 . S
C1302 C1301 1.379 . S
H1303 C1297 0.959 . S
H1304 C1297 0.961 . S
H1305 C1297 0.960 . S
H1306 C1298 0.930 . S
H1307 C1299 0.929 . S
H1308 C1316 0.929 . S
H1309 C1318 0.930 . S
H1310 C1320 0.930 . S
H1311 C1323 0.929 . S
H1312 C1326 0.930 . S
H1313 C1328 0.960 . S
H1314 C1328 0.960 . S
H1315 C1328 0.960 . S
C1316 H1308 0.929 . S
C1316 C1317 1.377 . S
C1316 C1318 1.384 . S
C1317 C1316 1.377 . S
C1317 C1323 1.390 . S
C1318 H1309 0.930 . S
C1318 C1316 1.384 . S
C1318 C1319 1.372 . S
C1319 C1318 1.372 . S
C1319 C1320 1.400 . S
C1319 C1324 1.490 . S
C1320 H1310 0.930 . S
C1320 C1319 1.400 . S
C1320 C1323 1.386 . S
H1321 C1337 0.930 . S
H1322 C1338 0.931 . S
C1323 H1311 0.929 . S
C1323 C1317 1.390 . S
C1323 C1320 1.386 . S
C1324 C1319 1.490 . S
C1324 C1326 1.395 . S
C1324 C1327 1.403 . S
H1325 C1331 0.930 . S
C1326 H1312 0.930 . S
C1326 C1324 1.395 . S
C1326 C1329 1.403 . S
C1327 C1324 1.403 . S
C1327 C1328 1.524 . S
C1327 C1331 1.400 . S
C1328 H1313 0.960 . S
C1328 H1314 0.960 . S
C1328 H1315 0.960 . S
C1328 C1327 1.524 . S
C1329 C1326 1.403 . S
C1329 C1330 1.392 . S
C1329 C1333 1.495 . S
C1330 C1329 1.392 . S
C1330 C1331 1.385 . S
C1330 C1332 1.478 . S
C1331 H1325 0.930 . S
C1331 C1327 1.400 . S
C1331 C1330 1.385 . S
C1332 C1330 1.478 . S
C1332 C1334 1.381 . S
C1332 C1338 1.383 . S
C1333 C1329 1.495 . S
C1333 H1339 0.959 . S
C1333 H1340 0.961 . S
C1333 H1341 0.960 . S
C1334 C1332 1.381 . S
C1334 C1335 1.394 . S
C1334 H1342 0.930 . S
C1335 C1334 1.394 . S
C1335 C1336 1.383 . S
C1335 H1343 0.929 . S
C1336 C1335 1.383 . S
C1336 C1337 1.377 . S
C1337 H1321 0.930 . S
C1337 C1336 1.377 . S
C1337 C1338 1.379 . S
C1338 H1322 0.931 . S
C1338 C1332 1.383 . S
C1338 C1337 1.379 . S
H1339 C1333 0.959 . S
H1340 C1333 0.961 . S
H1341 C1333 0.960 . S
H1342 C1334 0.930 . S
H1343 C1335 0.929 . S
H1344 C1352 0.929 . S
H1345 C1354 0.930 . S
H1346 C1356 0.930 . S
H1347 C1359 0.929 . S
H1348 C1362 0.930 . S
H1349 C1364 0.960 . S
H1350 C1364 0.960 . S
H1351 C1364 0.960 . S
C1352 H1344 0.929 . S
C1352 C1353 1.377 . S
C1352 C1354 1.384 . S
C1353 C1352 1.377 . S
C1353 C1359 1.390 . S
C1354 H1345 0.930 . S
C1354 C1352 1.384 . S
C1354 C1355 1.372 . S
C1355 C1354 1.372 . S
C1355 C1356 1.400 . S
C1355 C1360 1.490 . S
C1356 H1346 0.930 . S
C1356 C1355 1.400 . S
C1356 C1359 1.386 . S
H1357 C1373 0.930 . S
H1358 C1374 0.931 . S
C1359 H1347 0.929 . S
C1359 C1353 1.390 . S
C1359 C1356 1.386 . S
C1360 C1355 1.490 . S
C1360 C1362 1.395 . S
C1360 C1363 1.403 . S
H1361 C1367 0.930 . S
C1362 H1348 0.930 . S
C1362 C1360 1.395 . S
C1362 C1365 1.403 . S
C1363 C1360 1.403 . S
C1363 C1364 1.524 . S
C1363 C1367 1.400 . S
C1364 H1349 0.960 . S
C1364 H1350 0.960 . S
C1364 H1351 0.960 . S
C1364 C1363 1.524 . S
C1365 C1362 1.403 . S
C1365 C1366 1.392 . S
C1365 C1369 1.495 . S
C1366 C1365 1.392 . S
C1366 C1367 1.385 . S
C1366 C1368 1.478 . S
C1367 H1361 0.930 . S
C1367 C1363 1.400 . S
C1367 C1366 1.385 . S
C1368 C1366 1.478 . S
C1368 C1370 1.381 . S
C1368 C1374 1.383 . S
C1369 C1365 1.495 . S
C1369 H1375 0.959 . S
C1369 H1376 0.961 . S
C1369 H1377 0.960 . S
C1370 C1368 1.381 . S
C1370 C1371 1.394 . S
C1370 H1378 0.930 . S
C1371 C1370 1.394 . S
C1371 C1372 1.383 . S
C1371 H1379 0.929 . S
C1372 C1371 1.383 . S
C1372 C1373 1.377 . S
C1373 H1357 0.930 . S
C1373 C1372 1.377 . S
C1373 C1374 1.379 . S
C1374 H1358 0.931 . S
C1374 C1368 1.383 . S
C1374 C1373 1.379 . S
H1375 C1369 0.959 . S
H1376 C1369 0.961 . S
H1377 C1369 0.960 . S
H1378 C1370 0.930 . S
H1379 C1371 0.929 . S
H1380 C1388 0.929 . S
H1381 C1390 0.930 . S
H1382 C1392 0.930 . S
H1383 C1395 0.929 . S
H1384 C1398 0.930 . S
H1385 C1400 0.960 . S
H1386 C1400 0.960 . S
H1387 C1400 0.960 . S
C1388 H1380 0.929 . S
C1388 C1389 1.377 . S
C1388 C1390 1.384 . S
C1389 C1388 1.377 . S
C1389 C1395 1.390 . S
C1390 H1381 0.930 . S
C1390 C1388 1.384 . S
C1390 C1391 1.372 . S
C1391 C1390 1.372 . S
C1391 C1392 1.400 . S
C1391 C1396 1.490 . S
C1392 H1382 0.930 . S
C1392 C1391 1.400 . S
C1392 C1395 1.386 . S
H1393 C1409 0.930 . S
H1394 C1410 0.931 . S
C1395 H1383 0.929 . S
C1395 C1389 1.390 . S
C1395 C1392 1.386 . S
C1396 C1391 1.490 . S
C1396 C1398 1.395 . S
C1396 C1399 1.403 . S
H1397 C1403 0.930 . S
C1398 H1384 0.930 . S
C1398 C1396 1.395 . S
C1398 C1401 1.403 . S
C1399 C1396 1.403 . S
C1399 C1400 1.524 . S
C1399 C1403 1.400 . S
C1400 H1385 0.960 . S
C1400 H1386 0.960 . S
C1400 H1387 0.960 . S
C1400 C1399 1.524 . S
C1401 C1398 1.403 . S
C1401 C1402 1.392 . S
C1401 C1405 1.495 . S
C1402 C1401 1.392 . S
C1402 C1403 1.385 . S
C1402 C1404 1.478 . S
C1403 H1397 0.930 . S
C1403 C1399 1.400 . S
C1403 C1402 1.385 . S
C1404 C1402 1.478 . S
C1404 C1406 1.381 . S
C1404 C1410 1.383 . S
C1405 C1401 1.495 . S
C1405 H1411 0.959 . S
C1405 H1412 0.961 . S
C1405 H1413 0.960 . S
C1406 C1404 1.381 . S
C1406 C1407 1.394 . S
C1406 H1414 0.930 . S
C1407 C1406 1.394 . S
C1407 C1408 1.383 . S
C1407 H1415 0.929 . S
C1408 C1407 1.383 . S
C1408 C1409 1.377 . S
C1409 H1393 0.930 . S
C1409 C1408 1.377 . S
C1409 C1410 1.379 . S
C1410 H1394 0.931 . S
C1410 C1404 1.383 . S
C1410 C1409 1.379 . S
H1411 C1405 0.959 . S
H1412 C1405 0.961 . S
H1413 C1405 0.960 . S
H1414 C1406 0.930 . S
H1415 C1407 0.929 . S
H1416 C1424 0.929 . S
H1417 C1426 0.930 . S
H1418 C1428 0.930 . S
H1419 C1431 0.929 . S
H1420 C1434 0.930 . S
H1421 C1436 0.960 . S
H1422 C1436 0.960 . S
H1423 C1436 0.960 . S
C1424 H1416 0.929 . S
C1424 C1425 1.377 . S
C1424 C1426 1.384 . S
C1425 C1424 1.377 . S
C1425 C1431 1.390 . S
C1426 H1417 0.930 . S
C1426 C1424 1.384 . S
C1426 C1427 1.372 . S
C1427 C1426 1.372 . S
C1427 C1428 1.400 . S
C1427 C1432 1.490 . S
C1428 H1418 0.930 . S
C1428 C1427 1.400 . S
C1428 C1431 1.386 . S
H1429 C1445 0.930 . S
H1430 C1446 0.931 . S
C1431 H1419 0.929 . S
C1431 C1425 1.390 . S
C1431 C1428 1.386 . S
C1432 C1427 1.490 . S
C1432 C1434 1.395 . S
C1432 C1435 1.403 . S
H1433 C1439 0.930 . S
C1434 H1420 0.930 . S
C1434 C1432 1.395 . S
C1434 C1437 1.403 . S
C1435 C1432 1.403 . S
C1435 C1436 1.524 . S
C1435 C1439 1.400 . S
C1436 H1421 0.960 . S
C1436 H1422 0.960 . S
C1436 H1423 0.960 . S
C1436 C1435 1.524 . S
C1437 C1434 1.403 . S
C1437 C1438 1.392 . S
C1437 C1441 1.495 . S
C1438 C1437 1.392 . S
C1438 C1439 1.385 . S
C1438 C1440 1.478 . S
C1439 H1433 0.930 . S
C1439 C1435 1.400 . S
C1439 C1438 1.385 . S
C1440 C1438 1.478 . S
C1440 C1442 1.381 . S
C1440 C1446 1.383 . S
C1441 C1437 1.495 . S
C1441 H1447 0.959 . S
C1441 H1448 0.961 . S
C1441 H1449 0.960 . S
C1442 C1440 1.381 . S
C1442 C1443 1.394 . S
C1442 H1450 0.930 . S
C1443 C1442 1.394 . S
C1443 C1444 1.383 . S
C1443 H1451 0.929 . S
C1444 C1443 1.383 . S
C1444 C1445 1.377 . S
C1445 H1429 0.930 . S
C1445 C1444 1.377 . S
C1445 C1446 1.379 . S
C1446 H1430 0.931 . S
C1446 C1440 1.383 . S
C1446 C1445 1.379 . S
H1447 C1441 0.959 . S
H1448 C1441 0.961 . S
H1449 C1441 0.960 . S
H1450 C1442 0.930 . S
H1451 C1443 0.929 . S
H1452 C1460 0.929 . S
H1453 C1462 0.930 . S
H1454 C1464 0.930 . S
H1455 C1467 0.929 . S
H1456 C1470 0.930 . S
H1457 C1472 0.960 . S
H1458 C1472 0.960 . S
H1459 C1472 0.960 . S
C1460 H1452 0.929 . S
C1460 C1461 1.377 . S
C1460 C1462 1.384 . S
C1461 C1460 1.377 . S
C1461 C1467 1.390 . S
C1462 H1453 0.930 . S
C1462 C1460 1.384 . S
C1462 C1463 1.372 . S
C1463 C1462 1.372 . S
C1463 C1464 1.400 . S
C1463 C1468 1.490 . S
C1464 H1454 0.930 . S
C1464 C1463 1.400 . S
C1464 C1467 1.386 . S
H1465 C1481 0.930 . S
H1466 C1482 0.931 . S
C1467 H1455 0.929 . S
C1467 C1461 1.390 . S
C1467 C1464 1.386 . S
C1468 C1463 1.490 . S
C1468 C1470 1.395 . S
C1468 C1471 1.403 . S
H1469 C1475 0.930 . S
C1470 H1456 0.930 . S
C1470 C1468 1.395 . S
C1470 C1473 1.403 . S
C1471 C1468 1.403 . S
C1471 C1472 1.524 . S
C1471 C1475 1.400 . S
C1472 H1457 0.960 . S
C1472 H1458 0.960 . S
C1472 H1459 0.960 . S
C1472 C1471 1.524 . S
C1473 C1470 1.403 . S
C1473 C1474 1.392 . S
C1473 C1477 1.495 . S
C1474 C1473 1.392 . S
C1474 C1475 1.385 . S
C1474 C1476 1.478 . S
C1475 H1469 0.930 . S
C1475 C1471 1.400 . S
C1475 C1474 1.385 . S
C1476 C1474 1.478 . S
C1476 C1478 1.381 . S
C1476 C1482 1.383 . S
C1477 C1473 1.495 . S
C1477 H1483 0.959 . S
C1477 H1484 0.961 . S
C1477 H1485 0.960 . S
C1478 C1476 1.381 . S
C1478 C1479 1.394 . S
C1478 H1486 0.930 . S
C1479 C1478 1.394 . S
C1479 C1480 1.383 . S
C1479 H1487 0.929 . S
C1480 C1479 1.383 . S
C1480 C1481 1.377 . S
C1481 H1465 0.930 . S
C1481 C1480 1.377 . S
C1481 C1482 1.379 . S
C1482 H1466 0.931 . S
C1482 C1476 1.383 . S
C1482 C1481 1.379 . S
H1483 C1477 0.959 . S
H1484 C1477 0.961 . S
H1485 C1477 0.960 . S
H1486 C1478 0.930 . S
H1487 C1479 0.929 . S
H1488 C1496 0.929 . S
H1489 C1498 0.930 . S
H1490 C1500 0.930 . S
H1491 C1503 0.929 . S
H1492 C1506 0.930 . S
H1493 C1508 0.960 . S
H1494 C1508 0.960 . S
H1495 C1508 0.960 . S
C1496 H1488 0.929 . S
C1496 C1497 1.377 . S
C1496 C1498 1.384 . S
C1497 C1496 1.377 . S
C1497 C1503 1.390 . S
C1498 H1489 0.930 . S
C1498 C1496 1.384 . S
C1498 C1499 1.372 . S
C1499 C1498 1.372 . S
C1499 C1500 1.400 . S
C1499 C1504 1.490 . S
C1500 H1490 0.930 . S
C1500 C1499 1.400 . S
C1500 C1503 1.386 . S
H1501 C1517 0.930 . S
H1502 C1518 0.931 . S
C1503 H1491 0.929 . S
C1503 C1497 1.390 . S
C1503 C1500 1.386 . S
C1504 C1499 1.490 . S
C1504 C1506 1.395 . S
C1504 C1507 1.403 . S
H1505 C1511 0.930 . S
C1506 H1492 0.930 . S
C1506 C1504 1.395 . S
C1506 C1509 1.403 . S
C1507 C1504 1.403 . S
C1507 C1508 1.524 . S
C1507 C1511 1.400 . S
C1508 H1493 0.960 . S
C1508 H1494 0.960 . S
C1508 H1495 0.960 . S
C1508 C1507 1.524 . S
C1509 C1506 1.403 . S
C1509 C1510 1.392 . S
C1509 C1513 1.495 . S
C1510 C1509 1.392 . S
C1510 C1511 1.385 . S
C1510 C1512 1.478 . S
C1511 H1505 0.930 . S
C1511 C1507 1.400 . S
C1511 C1510 1.385 . S
C1512 C1510 1.478 . S
C1512 C1514 1.381 . S
C1512 C1518 1.383 . S
C1513 C1509 1.495 . S
C1513 H1519 0.959 . S
C1513 H1520 0.961 . S
C1513 H1521 0.960 . S
C1514 C1512 1.381 . S
C1514 C1515 1.394 . S
C1514 H1522 0.930 . S
C1515 C1514 1.394 . S
C1515 C1516 1.383 . S
C1515 H1523 0.929 . S
C1516 C1515 1.383 . S
C1516 C1517 1.377 . S
C1517 H1501 0.930 . S
C1517 C1516 1.377 . S
C1517 C1518 1.379 . S
C1518 H1502 0.931 . S
C1518 C1512 1.383 . S
C1518 C1517 1.379 . S
H1519 C1513 0.959 . S
H1520 C1513 0.961 . S
H1521 C1513 0.960 . S
H1522 C1514 0.930 . S
H1523 C1515 0.929 . S
H1524 C1532 0.929 . S
H1525 C1534 0.930 . S
H1526 C1536 0.930 . S
H1527 C1539 0.929 . S
H1528 C1542 0.930 . S
H1529 C1544 0.960 . S
H1530 C1544 0.960 . S
H1531 C1544 0.960 . S
C1532 H1524 0.929 . S
C1532 C1533 1.377 . S
C1532 C1534 1.384 . S
C1533 C1532 1.377 . S
C1533 C1539 1.390 . S
C1534 H1525 0.930 . S
C1534 C1532 1.384 . S
C1534 C1535 1.372 . S
C1535 C1534 1.372 . S
C1535 C1536 1.400 . S
C1535 C1540 1.490 . S
C1536 H1526 0.930 . S
C1536 C1535 1.400 . S
C1536 C1539 1.386 . S
H1537 C1553 0.930 . S
H1538 C1554 0.931 . S
C1539 H1527 0.929 . S
C1539 C1533 1.390 . S
C1539 C1536 1.386 . S
C1540 C1535 1.490 . S
C1540 C1542 1.395 . S
C1540 C1543 1.403 . S
H1541 C1547 0.930 . S
C1542 H1528 0.930 . S
C1542 C1540 1.395 . S
C1542 C1545 1.403 . S
C1543 C1540 1.403 . S
C1543 C1544 1.524 . S
C1543 C1547 1.400 . S
C1544 H1529 0.960 . S
C1544 H1530 0.960 . S
C1544 H1531 0.960 . S
C1544 C1543 1.524 . S
C1545 C1542 1.403 . S
C1545 C1546 1.392 . S
C1545 C1549 1.495 . S
C1546 C1545 1.392 . S
C1546 C1547 1.385 . S
C1546 C1548 1.478 . S
C1547 H1541 0.930 . S
C1547 C1543 1.400 . S
C1547 C1546 1.385 . S
C1548 C1546 1.478 . S
C1548 C1550 1.381 . S
C1548 C1554 1.383 . S
C1549 C1545 1.495 . S
C1549 H1555 0.959 . S
C1549 H1556 0.961 . S
C1549 H1557 0.960 . S
C1550 C1548 1.381 . S
C1550 C1551 1.394 . S
C1550 H1558 0.930 . S
C1551 C1550 1.394 . S
C1551 C1552 1.383 . S
C1551 H1559 0.929 . S
C1552 C1551 1.383 . S
C1552 C1553 1.377 . S
C1553 H1537 0.930 . S
C1553 C1552 1.377 . S
C1553 C1554 1.379 . S
C1554 H1538 0.931 . S
C1554 C1548 1.383 . S
C1554 C1553 1.379 . S
H1555 C1549 0.959 . S
H1556 C1549 0.961 . S
H1557 C1549 0.960 . S
H1558 C1550 0.930 . S
H1559 C1551 0.929 . S
H1560 C1568 0.929 . S
H1561 C1570 0.930 . S
H1562 C1572 0.930 . S
H1563 C1575 0.929 . S
H1564 C1578 0.930 . S
H1565 C1580 0.960 . S
H1566 C1580 0.960 . S
H1567 C1580 0.960 . S
C1568 H1560 0.929 . S
C1568 C1569 1.377 . S
C1568 C1570 1.384 . S
C1569 C1568 1.377 . S
C1569 C1575 1.390 . S
C1570 H1561 0.930 . S
C1570 C1568 1.384 . S
C1570 C1571 1.372 . S
C1571 C1570 1.372 . S
C1571 C1572 1.400 . S
C1571 C1576 1.490 . S
C1572 H1562 0.930 . S
C1572 C1571 1.400 . S
C1572 C1575 1.386 . S
H1573 C1589 0.930 . S
H1574 C1590 0.931 . S
C1575 H1563 0.929 . S
C1575 C1569 1.390 . S
C1575 C1572 1.386 . S
C1576 C1571 1.490 . S
C1576 C1578 1.395 . S
C1576 C1579 1.403 . S
H1577 C1583 0.930 . S
C1578 H1564 0.930 . S
C1578 C1576 1.395 . S
C1578 C1581 1.403 1_556 S
C1579 C1576 1.403 . S
C1579 C1580 1.524 . S
C1579 C1583 1.400 1_556 S
C1580 H1565 0.960 . S
C1580 H1566 0.960 . S
C1580 H1567 0.960 . S
C1580 C1579 1.524 . S
C1581 C1578 1.403 1_554 S
C1581 C1582 1.392 . S
C1581 C1585 1.495 . S
C1582 C1581 1.392 . S
C1582 C1583 1.385 . S
C1582 C1584 1.478 . S
C1583 H1577 0.930 . S
C1583 C1579 1.400 1_554 S
C1583 C1582 1.385 . S
C1584 C1582 1.478 . S
C1584 C1586 1.381 . S
C1584 C1590 1.383 . S
C1585 C1581 1.495 . S
C1585 H1591 0.959 . S
C1585 H1592 0.961 . S
C1585 H1593 0.960 . S
C1586 C1584 1.381 . S
C1586 C1587 1.394 . S
C1586 H1594 0.930 . S
C1587 C1586 1.394 . S
C1587 C1588 1.383 . S
C1587 H1595 0.929 . S
C1588 C1587 1.383 . S
C1588 C1589 1.377 . S
C1589 H1573 0.930 . S
C1589 C1588 1.377 . S
C1589 C1590 1.379 . S
C1590 H1574 0.931 . S
C1590 C1584 1.383 . S
C1590 C1589 1.379 . S
H1591 C1585 0.959 . S
H1592 C1585 0.961 . S
H1593 C1585 0.960 . S
H1594 C1586 0.930 . S
H1595 C1587 0.929 . S
H1596 C1604 0.929 . S
H1597 C1606 0.930 . S
H1598 C1608 0.930 . S
H1599 C1611 0.929 . S
H1600 C1614 0.930 . S
H1601 C1616 0.972 . S
H1602 C1616 0.960 . S
H1603 C1616 0.954 1_455 S
C1604 H1596 0.929 . S
C1604 C1605 1.377 . S
C1604 C1606 1.384 . S
C1605 C1604 1.377 . S
C1605 C1611 1.390 . S
C1606 H1597 0.930 . S
C1606 C1604 1.384 . S
C1606 C1607 1.372 . S
C1607 C1606 1.372 . S
C1607 C1608 1.400 . S
C1607 C1612 1.490 . S
C1608 H1598 0.930 . S
C1608 C1607 1.400 . S
C1608 C1611 1.386 . S
H1609 C1625 0.930 . S
H1610 C1626 0.931 . S
C1611 H1599 0.929 . S
C1611 C1605 1.390 . S
C1611 C1608 1.386 . S
C1612 C1607 1.490 . S
C1612 C1614 1.395 . S
C1612 C1615 1.442 . S
H1613 C1619 0.930 . S
C1614 H1600 0.930 . S
C1614 C1612 1.395 . S
C1614 C1617 1.381 1_455 S
C1615 C1612 1.442 . S
C1615 C1616 1.502 1_455 S
C1615 C1619 1.378 1_455 S
C1616 H1601 0.972 . S
C1616 H1602 0.960 . S
C1616 H1603 0.954 1_655 S
C1616 C1615 1.502 1_655 S
C1617 C1614 1.381 1_655 S
C1617 C1618 1.431 . S
C1617 C1621 1.493 . S
C1618 C1617 1.431 . S
C1618 C1619 1.385 . S
C1618 C1620 1.478 . S
C1619 H1613 0.930 . S
C1619 C1615 1.378 1_655 S
C1619 C1618 1.385 . S
C1620 C1618 1.478 . S
C1620 C1622 1.381 . S
C1620 C1626 1.383 . S
C1621 C1617 1.493 . S
C1621 H1627 0.927 1_655 S
C1621 H1628 0.963 1_655 S
C1621 H1629 0.978 . S
C1622 C1620 1.381 . S
C1622 C1623 1.394 . S
C1622 H1630 0.930 . S
C1623 C1622 1.394 . S
C1623 C1624 1.383 . S
C1623 H1631 0.929 . S
C1624 C1623 1.383 . S
C1624 C1625 1.377 . S
C1625 H1609 0.930 . S
C1625 C1624 1.377 . S
C1625 C1626 1.379 . S
C1626 H1610 0.931 . S
C1626 C1620 1.383 . S
C1626 C1625 1.379 . S
H1627 C1621 0.927 1_455 S
H1628 C1621 0.963 1_455 S
H1629 C1621 0.978 . S
H1630 C1622 0.930 . S
H1631 C1623 0.929 . S
H1632 C1640 0.929 . S
H1633 C1642 0.930 . S
H1634 C1644 0.930 . S
H1635 C1647 0.929 . S
H1636 C1650 0.930 . S
H1637 C1652 0.960 . S
H1638 C1652 0.960 1_565 S
H1639 C1652 0.960 . S
C1640 H1632 0.929 . S
C1640 C1641 1.377 . S
C1640 C1642 1.384 . S
C1641 C1640 1.377 . S
C1641 C1647 1.390 . S
C1642 H1633 0.930 . S
C1642 C1640 1.384 . S
C1642 C1643 1.372 . S
C1643 C1642 1.372 . S
C1643 C1644 1.400 . S
C1643 C1648 1.490 . S
C1644 H1634 0.930 . S
C1644 C1643 1.400 . S
C1644 C1647 1.386 . S
H1645 C1661 0.930 . S
H1646 C1662 0.931 . S
C1647 H1635 0.929 . S
C1647 C1641 1.390 . S
C1647 C1644 1.386 . S
C1648 C1643 1.490 . S
C1648 C1650 1.395 1_554 S
C1648 C1651 1.403 1_565 S
H1649 C1655 0.933 . S
C1650 H1636 0.930 . S
C1650 C1648 1.395 1_556 S
C1650 C1653 1.403 . S
C1651 C1648 1.403 1_545 S
C1651 C1652 1.524 . S
C1651 C1655 1.414 . S
C1652 H1637 0.960 . S
C1652 H1638 0.960 1_545 S
C1652 H1639 0.960 . S
C1652 C1651 1.524 . S
C1653 C1650 1.403 . S
C1653 C1654 1.392 1_565 S
C1653 C1657 1.495 . S
C1654 C1653 1.392 1_545 S
C1654 C1655 1.369 1_556 S
C1654 C1656 1.478 . S
C1655 H1649 0.933 . S
C1655 C1651 1.414 . S
C1655 C1654 1.369 1_554 S
C1656 C1654 1.478 . S
C1656 C1658 1.381 . S
C1656 C1662 1.383 . S
C1657 C1653 1.495 . S
C1657 H1663 0.959 . S
C1657 H1664 0.961 . S
C1657 H1665 0.960 . S
C1658 C1656 1.381 . S
C1658 C1659 1.394 . S
C1658 H1666 0.930 . S
C1659 C1658 1.394 . S
C1659 C1660 1.383 . S
C1659 H1667 0.929 . S
C1660 C1659 1.383 . S
C1660 C1661 1.377 . S
C1661 H1645 0.930 . S
C1661 C1660 1.377 . S
C1661 C1662 1.379 . S
C1662 H1646 0.931 . S
C1662 C1656 1.383 . S
C1662 C1661 1.379 . S
H1663 C1657 0.959 . S
H1664 C1657 0.961 . S
H1665 C1657 0.960 . S
H1666 C1658 0.930 . S
H1667 C1659 0.929 . S
H1668 C1676 0.929 . S
H1669 C1678 0.930 . S
H1670 C1680 0.930 . S
H1671 C1683 0.929 . S
H1672 C1686 0.930 . S
H1673 C1688 0.960 . S
H1674 C1688 0.960 . S
H1675 C1688 0.960 . S
C1676 H1668 0.929 . S
C1676 C1677 1.377 . S
C1676 C1678 1.384 . S
C1677 C1676 1.377 . S
C1677 C1683 1.390 . S
C1678 H1669 0.930 . S
C1678 C1676 1.384 . S
C1678 C1679 1.372 . S
C1679 C1678 1.372 . S
C1679 C1680 1.400 . S
C1679 C1684 1.490 . S
C1680 H1670 0.930 . S
C1680 C1679 1.400 . S
C1680 C1683 1.386 . S
H1681 C1697 0.930 . S
H1682 C1698 0.931 . S
C1683 H1671 0.929 . S
C1683 C1677 1.390 . S
C1683 C1680 1.386 . S
C1684 C1679 1.490 . S
C1684 C1686 1.395 . S
C1684 C1687 1.403 . S
H1685 C1691 0.930 . S
C1686 H1672 0.930 . S
C1686 C1684 1.395 . S
C1686 C1689 1.403 . S
C1687 C1684 1.403 . S
C1687 C1688 1.524 . S
C1687 C1691 1.400 . S
C1688 H1673 0.960 . S
C1688 H1674 0.960 . S
C1688 H1675 0.960 . S
C1688 C1687 1.524 . S
C1689 C1686 1.403 . S
C1689 C1690 1.392 . S
C1689 C1693 1.495 . S
C1690 C1689 1.392 . S
C1690 C1691 1.385 . S
C1690 C1692 1.478 . S
C1691 H1685 0.930 . S
C1691 C1687 1.400 . S
C1691 C1690 1.385 . S
C1692 C1690 1.478 . S
C1692 C1694 1.381 . S
C1692 C1698 1.383 . S
C1693 C1689 1.495 . S
C1693 H1699 0.959 . S
C1693 H1700 0.961 . S
C1693 H1701 0.960 . S
C1694 C1692 1.381 . S
C1694 C1695 1.394 . S
C1694 H1702 0.930 . S
C1695 C1694 1.394 . S
C1695 C1696 1.383 . S
C1695 H1703 0.929 . S
C1696 C1695 1.383 . S
C1696 C1697 1.377 . S
C1697 H1681 0.930 . S
C1697 C1696 1.377 . S
C1697 C1698 1.379 . S
C1698 H1682 0.931 . S
C1698 C1692 1.383 . S
C1698 C1697 1.379 . S
H1699 C1693 0.959 . S
H1700 C1693 0.961 . S
H1701 C1693 0.960 . S
H1702 C1694 0.930 . S
H1703 C1695 0.929 . S
H1704 C1712 0.929 . S
H1705 C1714 0.930 . S
H1706 C1716 0.930 . S
H1707 C1719 0.929 . S
H1708 C1722 0.930 . S
H1709 C1724 0.960 . S
H1710 C1724 0.960 . S
H1711 C1724 0.960 . S
C1712 H1704 0.929 . S
C1712 C1713 1.377 . S
C1712 C1714 1.384 . S
C1713 C1712 1.377 . S
C1713 C1719 1.390 . S
C1714 H1705 0.930 . S
C1714 C1712 1.384 . S
C1714 C1715 1.372 . S
C1715 C1714 1.372 . S
C1715 C1716 1.400 . S
C1715 C1720 1.490 . S
C1716 H1706 0.930 . S
C1716 C1715 1.400 . S
C1716 C1719 1.386 . S
H1717 C1733 0.930 . S
H1718 C1734 0.931 . S
C1719 H1707 0.929 . S
C1719 C1713 1.390 . S
C1719 C1716 1.386 . S
C1720 C1715 1.490 . S
C1720 C1722 1.395 1_556 S
C1720 C1723 1.403 1_655 S
H1721 C1727 0.930 . S
C1722 H1708 0.930 . S
C1722 C1720 1.395 1_554 S
C1722 C1725 1.403 . S
C1723 C1720 1.403 1_455 S
C1723 C1724 1.524 . S
C1723 C1727 1.400 . S
C1724 H1709 0.960 . S
C1724 H1710 0.960 . S
C1724 H1711 0.960 . S
C1724 C1723 1.524 . S
C1725 C1722 1.403 . S
C1725 C1726 1.392 1_655 S
C1725 C1729 1.495 . S
C1726 C1725 1.392 1_455 S
C1726 C1727 1.385 1_554 S
C1726 C1728 1.478 . S
C1727 H1721 0.930 . S
C1727 C1723 1.400 . S
C1727 C1726 1.385 1_556 S
C1728 C1726 1.478 . S
C1728 C1730 1.381 . S
C1728 C1734 1.383 . S
C1729 C1725 1.495 . S
C1729 H1735 0.959 . S
C1729 H1736 0.961 . S
C1729 H1737 0.960 . S
C1730 C1728 1.381 . S
C1730 C1731 1.394 . S
C1730 H1738 0.930 . S
C1731 C1730 1.394 . S
C1731 C1732 1.383 . S
C1731 H1739 0.929 . S
C1732 C1731 1.383 . S
C1732 C1733 1.377 . S
C1733 H1717 0.930 . S
C1733 C1732 1.377 . S
C1733 C1734 1.379 . S
C1734 H1718 0.931 . S
C1734 C1728 1.383 . S
C1734 C1733 1.379 . S
H1735 C1729 0.959 . S
H1736 C1729 0.961 . S
H1737 C1729 0.960 . S
H1738 C1730 0.930 . S
H1739 C1731 0.929 . S
H1740 C1748 0.929 . S
H1741 C1750 0.930 . S
H1742 C1752 0.930 . S
H1743 C1755 0.929 . S
H1744 C1758 0.930 . S
H1745 C1760 0.960 . S
H1746 C1760 0.960 . S
H1747 C1760 0.960 . S
C1748 H1740 0.929 . S
C1748 C1749 1.377 . S
C1748 C1750 1.384 . S
C1749 C1748 1.377 . S
C1749 C1755 1.390 . S
C1750 H1741 0.930 . S
C1750 C1748 1.384 . S
C1750 C1751 1.372 . S
C1751 C1750 1.372 . S
C1751 C1752 1.400 . S
C1751 C1756 1.490 . S
C1752 H1742 0.930 . S
C1752 C1751 1.400 . S
C1752 C1755 1.386 . S
H1753 C1769 0.930 . S
H1754 C1770 0.931 . S
C1755 H1743 0.929 . S
C1755 C1749 1.390 . S
C1755 C1752 1.386 . S
C1756 C1751 1.490 . S
C1756 C1758 1.395 . S
C1756 C1759 1.403 1_565 S
H1757 C1763 0.930 . S
C1758 H1744 0.930 . S
C1758 C1756 1.395 . S
C1758 C1761 1.403 . S
C1759 C1756 1.403 1_545 S
C1759 C1760 1.524 . S
C1759 C1763 1.400 . S
C1760 H1745 0.960 . S
C1760 H1746 0.960 . S
C1760 H1747 0.960 . S
C1760 C1759 1.524 . S
C1761 C1758 1.403 . S
C1761 C1762 1.392 1_565 S
C1761 C1765 1.495 . S
C1762 C1761 1.392 1_545 S
C1762 C1763 1.385 . S
C1762 C1764 1.478 . S
C1763 H1757 0.930 . S
C1763 C1759 1.400 . S
C1763 C1762 1.385 . S
C1764 C1762 1.478 . S
C1764 C1766 1.381 . S
C1764 C1770 1.383 . S
C1765 C1761 1.495 . S
C1765 H1771 0.959 . S
C1765 H1772 0.961 . S
C1765 H1773 0.960 . S
C1766 C1764 1.381 . S
C1766 C1767 1.394 . S
C1766 H1774 0.930 . S
C1767 C1766 1.394 . S
C1767 C1768 1.383 . S
C1767 H1775 0.929 . S
C1768 C1767 1.383 . S
C1768 C1769 1.377 . S
C1769 H1753 0.930 . S
C1769 C1768 1.377 . S
C1769 C1770 1.379 . S
C1770 H1754 0.931 . S
C1770 C1764 1.383 . S
C1770 C1769 1.379 . S
H1771 C1765 0.959 . S
H1772 C1765 0.961 . S
H1773 C1765 0.960 . S
H1774 C1766 0.930 . S
H1775 C1767 0.929 . S
C489 C163 1.235 . S
C508 C26 1.237 . S
C525 C203 1.237 . S
C544 C66 1.239 . S
C561 C106 1.246 . S
C580 C3 1.241 . S
C597 C146 1.245 . S
C616 C43 1.246 . S
C633 C186 1.245 . S
C652 C83 1.249 . S
C669 C123 1.236 . S
C688 C226 1.246 . S
C705 C323 1.236 . S
C724 C266 1.237 . S
C741 C306 1.245 . S
C760 C363 1.231 . S
C777 C403 1.233 . S
C796 C346 1.238 . S
C813 C386 1.245 . S
C832 C443 1.234 . S
C849 C426 1.243 . S
C868 C243 1.227 . S
C885 C283 1.238 . S
C904 C466 1.240 . S
C921 C182 1.732 . S
C940 C9 1.677 . S
C957 C49 1.702 . S
C976 C222 1.734 . S
C993 C89 1.698 . S
C1012 C22 1.722 . S
C1029 C129 1.702 . S
C1048 C62 1.724 . S
C1065 C102 1.733 . S
C1084 C169 1.679 . S
C1101 C142 1.732 . S
C1120 C209 1.677 . S
C1137 C342 1.733 . S
C1156 C249 1.677 . S
C1173 C289 1.697 . S
C1192 C382 1.724 . S
C1209 C329 1.702 . S
C1228 C422 1.733 . S
C1245 C462 1.732 . S
C1264 C369 1.677 . S
C1281 C409 1.702 . S
C1300 C262 1.734 . S
C1317 C302 1.732 . S
C1336 C449 1.710 . S
C1353 C415 1.670 . S
C1372 C15 1.688 . S
C1389 C55 1.670 . S
C1408 C455 1.674 . S
C1425 C95 1.672 . S
C1444 C255 1.661 . S
C1461 C135 1.675 . S
C1480 C295 1.650 . S
C1497 C175 1.673 . S
C1516 C335 1.699 . S
C1533 C375 1.678 . S
C1552 C215 1.644 . S
C1569 C362 2.075 . S
C1588 C2 2.070 . S
C1605 C402 2.075 . S
C1624 C42 2.069 . S
C1641 C82 2.076 . S
C1660 C442 2.069 . S
C1677 C122 2.077 . S
C1696 C242 2.075 . S
C1713 C282 2.076 . S
C1732 C162 2.069 . S
C1749 C322 2.075 . S
C1768 C202 2.068 . S
