# Generated by pormake.
# Topology una, (4)-cn, num edge types: 1
# Building blocks:
#     Node 0, Type 0, BuildingBlock: QUQFOY_clean_sbu_3, # of connection points: 4
#     Node 1, Type 0, BuildingBlock: QUQFOY_clean_sbu_3, # of connection points: 4
#     Node 2, Type 0, BuildingBlock: QUQFOY_clean_sbu_3, # of connection points: 4
#     Node 3, Type 0, BuildingBlock: QUQFOY_clean_sbu_3, # of connection points: 4
#     Node 4, Type 0, BuildingBlock: QUQFOY_clean_sbu_3, # of connection points: 4
#     Node 5, Type 0, BuildingBlock: QUQFOY_clean_sbu_3, # of connection points: 4
#     Node 6, Type 0, BuildingBlock: QUQFOY_clean_sbu_3, # of connection points: 4
#     Node 7, Type 0, BuildingBlock: QUQFOY_clean_sbu_3, # of connection points: 4
#     Node 8, Type 0, BuildingBlock: QUQFOY_clean_sbu_3, # of connection points: 4
#     Node 9, Type 0, BuildingBlock: QUQFOY_clean_sbu_3, # of connection points: 4
#     Node 10, Type 0, BuildingBlock: QUQFOY_clean_sbu_3, # of connection points: 4
#     Node 11, Type 0, BuildingBlock: QUQFOY_clean_sbu_3, # of connection points: 4
#     Edge 12, Type (0, 0), BuildingBlock: UVAHIK_clean_linker_0, # of connection points: 2
#     Edge 13, Type (0, 0), BuildingBlock: UVAHIK_clean_linker_0, # of connection points: 2
#     Edge 14, Type (0, 0), BuildingBlock: UVAHIK_clean_linker_0, # of connection points: 2
#     Edge 15, Type (0, 0), BuildingBlock: UVAHIK_clean_linker_0, # of connection points: 2
#     Edge 16, Type (0, 0), BuildingBlock: UVAHIK_clean_linker_0, # of connection points: 2
#     Edge 17, Type (0, 0), BuildingBlock: UVAHIK_clean_linker_0, # of connection points: 2
#     Edge 18, Type (0, 0), BuildingBlock: UVAHIK_clean_linker_0, # of connection points: 2
#     Edge 19, Type (0, 0), BuildingBlock: UVAHIK_clean_linker_0, # of connection points: 2
#     Edge 20, Type (0, 0), BuildingBlock: UVAHIK_clean_linker_0, # of connection points: 2
#     Edge 21, Type (0, 0), BuildingBlock: UVAHIK_clean_linker_0, # of connection points: 2
#     Edge 22, Type (0, 0), BuildingBlock: UVAHIK_clean_linker_0, # of connection points: 2
#     Edge 23, Type (0, 0), BuildingBlock: UVAHIK_clean_linker_0, # of connection points: 2
#     Edge 24, Type (0, 0), BuildingBlock: UVAHIK_clean_linker_0, # of connection points: 2
#     Edge 25, Type (0, 0), BuildingBlock: UVAHIK_clean_linker_0, # of connection points: 2
#     Edge 26, Type (0, 0), BuildingBlock: UVAHIK_clean_linker_0, # of connection points: 2
#     Edge 27, Type (0, 0), BuildingBlock: UVAHIK_clean_linker_0, # of connection points: 2
#     Edge 28, Type (0, 0), BuildingBlock: UVAHIK_clean_linker_0, # of connection points: 2
#     Edge 29, Type (0, 0), BuildingBlock: UVAHIK_clean_linker_0, # of connection points: 2
#     Edge 30, Type (0, 0), BuildingBlock: UVAHIK_clean_linker_0, # of connection points: 2
#     Edge 31, Type (0, 0), BuildingBlock: UVAHIK_clean_linker_0, # of connection points: 2
#     Edge 32, Type (0, 0), BuildingBlock: UVAHIK_clean_linker_0, # of connection points: 2
#     Edge 33, Type (0, 0), BuildingBlock: UVAHIK_clean_linker_0, # of connection points: 2
#     Edge 34, Type (0, 0), BuildingBlock: UVAHIK_clean_linker_0, # of connection points: 2
#     Edge 35, Type (0, 0), BuildingBlock: UVAHIK_clean_linker_0, # of connection points: 2
# Relax obj value: 0.027
# Max RMSD: 0.045
# Mean RMSD: 0.045
data_MOF--net-una--node1-QUQFOY_clean_sbu_3--edge1-UVAHIK_clean_linker_0
_symmetry_space_group_name_H-M    P1
_symmetry_Int_Tables_number       1
_symmetry_cell_setting            triclinic
loop_
_symmetry_equiv_pos_as_xyz
'x, y, z'
_cell_length_a     76.743784
_cell_length_b     76.222549
_cell_length_c     29.213758
_cell_angle_alpha  89.839814
_cell_angle_beta   90.004032
_cell_angle_gamma 119.89728
loop_
_atom_site_label
_atom_site_type_symbol
_atom_site_fract_x
_atom_site_fract_y
_atom_site_fract_z
_atom_type_partial_charge
C0 C 0.15762 0.45772 0.97832 0.0
O1 O 0.16347 0.47394 0.00079 0.0
Cd2 Cd 0.14468 0.4759 0.06379 0.0
O3 O 0.14089 0.44197 0.98768 0.0
Cd4 Cd 0.11167 0.43103 0.03991 0.0
C5 C 0.14173 0.43678 0.12938 0.0
O6 O 0.11136 0.46267 0.03466 0.0
O7 O 0.09311 0.44273 0.08876 0.0
O8 O 0.09361 0.4135 0.97133 0.0
C9 C 0.09843 0.45874 0.06571 0.0
O10 O 0.14811 0.45565 0.12473 0.0
C11 C 0.08012 0.39784 -0.00849 0.0
O12 O 0.12913 0.42404 0.10125 0.0
O13 O 0.08142 0.39725 0.0348 0.0
C14 C 0.69366 0.16255 0.1336 0.0
O15 O 0.68366 0.16947 0.1535 0.0
Cd16 Cd 0.6632 0.15338 0.21845 0.0
O17 O 0.69238 0.14598 0.14683 0.0
Cd18 Cd 0.67419 0.11876 0.20499 0.0
C19 C 0.70034 0.15336 0.28591 0.0
O20 O 0.64276 0.11868 0.19691 0.0
O21 O 0.64443 0.10276 0.25626 0.0
O22 O 0.67199 0.09764 0.14092 0.0
C23 C 0.63385 0.10719 0.23055 0.0
O24 O 0.68853 0.16012 0.27676 0.0
C25 C 0.67473 0.08505 0.16372 0.0
O26 O 0.69911 0.13835 0.26403 0.0
O27 O 0.67765 0.08822 0.20648 0.0
C28 C 0.52866 0.70413 0.31318 0.0
O29 O 0.51215 0.69334 0.33405 0.0
Cd30 Cd 0.50744 0.66974 0.39282 0.0
O31 O 0.54406 0.70249 0.32227 0.0
Cd32 Cd 0.55374 0.68208 0.37232 0.0
C33 C 0.54514 0.70262 0.46606 0.0
O34 O 0.52211 0.65164 0.36035 0.0
O35 O 0.54025 0.64871 0.41226 0.0
O36 O 0.57302 0.68398 0.30463 0.0
C37 C 0.52433 0.64031 0.38848 0.0
O38 O 0.5266 0.69101 0.45702 0.0
C39 C 0.58778 0.68471 0.32586 0.0
O40 O 0.55877 0.7035 0.43958 0.0
O41 O 0.58714 0.68487 0.36933 0.0
C42 C 0.81917 0.53098 0.47698 0.0
O43 O 0.81342 0.51462 0.49903 0.0
Cd44 Cd 0.83229 0.51246 0.5617 0.0
O45 O 0.83585 0.54671 0.48644 0.0
Cd46 Cd 0.8652 0.55764 0.53798 0.0
C47 C 0.83508 0.55131 0.62777 0.0
O48 O 0.86576 0.52614 0.53312 0.0
O49 O 0.88361 0.54594 0.58755 0.0
O50 O 0.88302 0.57482 0.46867 0.0
C51 C 0.87845 0.52998 0.56465 0.0
O52 O 0.82884 0.53249 0.62284 0.0
C53 C 0.8964 0.59074 0.48799 0.0
O54 O 0.8476 0.56427 0.59964 0.0
O55 O 0.89523 0.59164 0.53125 0.0
C56 C 0.28403 0.82583 0.63755 0.0
O57 O 0.29678 0.8211 0.65175 0.0
Cd58 Cd 0.31793 0.83769 0.7153 0.0
O59 O 0.28343 0.84098 0.65415 0.0
Cd60 Cd 0.30297 0.86953 0.70822 0.0
C61 C 0.28245 0.83559 0.79307 0.0
O62 O 0.33546 0.87242 0.69348 0.0
O63 O 0.33397 0.88723 0.75473 0.0
O64 O 0.30065 0.88849 0.64419 0.0
C65 C 0.34463 0.88396 0.72672 0.0
O66 O 0.29478 0.83 0.77997 0.0
C67 C 0.29927 0.9017 0.66766 0.0
O68 O 0.28128 0.84961 0.77188 0.0
O69 O 0.29893 0.89975 0.71094 0.0
C70 C 0.45003 0.28712 0.81369 0.0
O71 O 0.46571 0.29569 0.83833 0.0
Cd72 Cd 0.46941 0.31764 0.90041 0.0
O73 O 0.4352 0.28983 0.82154 0.0
Cd74 Cd 0.42593 0.30861 0.87667 0.0
C75 C 0.43048 0.28304 0.96629 0.0
O76 O 0.45811 0.33972 0.87165 0.0
O77 O 0.43899 0.33877 0.92664 0.0
O78 O 0.40822 0.31187 0.81106 0.0
C79 C 0.45482 0.34904 0.90316 0.0
O80 O 0.44932 0.29512 0.9626 0.0
C81 C 0.39281 0.30913 0.8331 0.0
O82 O 0.41828 0.2834 0.93728 0.0
O83 O 0.3925 0.30565 0.87575 0.0
C84 C 0.52493 0.82814 0.94588 0.0
O85 O 0.50798 0.82252 0.92748 0.0
Cd86 Cd 0.5054 0.83871 0.86026 0.0
O87 O 0.5407 0.84372 0.93102 0.0
Cd88 Cd 0.55151 0.87178 0.87429 0.0
C89 C 0.54229 0.83655 0.79478 0.0
O90 O 0.52099 0.87365 0.88016 0.0
O91 O 0.5397 0.88941 0.82225 0.0
O92 O 0.56972 0.89043 0.94131 0.0
C93 C 0.52437 0.88532 0.84631 0.0
O94 O 0.52393 0.83046 0.80424 0.0
C95 C 0.58526 0.90361 0.92043 0.0
O96 O 0.55634 0.85159 0.81576 0.0
O97 O 0.5855 0.90197 0.87716 0.0
C98 C 0.69545 0.5315 0.1073 0.0
O99 O 0.68517 0.51511 0.08545 0.0
Cd100 Cd 0.6641 0.51231 0.0227 0.0
O101 O 0.69439 0.54722 0.0971 0.0
Cd102 Cd 0.67569 0.5571 0.04279 0.0
C103 C 0.69954 0.54999 0.95416 0.0
O104 O 0.64401 0.52584 0.05109 0.0
O105 O 0.64541 0.54402 -0.00682 0.0
O106 O 0.67401 0.57595 0.108 0.0
C107 C 0.63485 0.52897 0.01897 0.0
O108 O 0.68708 0.53123 0.95981 0.0
C109 C 0.67685 0.59142 0.08549 0.0
O110 O 0.69983 0.56309 0.98157 0.0
O111 O 0.67972 0.59127 0.04268 0.0
C112 C 0.1505 0.69449 0.2895 0.0
O113 O 0.1549 0.68136 0.27604 0.0
Cd114 Cd 0.14066 0.66238 0.20838 0.0
O115 O 0.13659 0.69631 0.27012 0.0
Cd116 Cd 0.10981 0.67853 0.21116 0.0
C117 C 0.14684 0.70109 0.13411 0.0
O118 O 0.1055 0.64512 0.22305 0.0
O119 O 0.09348 0.64885 0.15955 0.0
O120 O 0.08876 0.67873 0.27249 0.0
C121 C 0.0953 0.63707 0.18739 0.0
O122 O 0.15159 0.68812 0.14772 0.0
C123 C 0.07714 0.68206 0.24777 0.0
O124 O 0.13208 0.70179 0.15216 0.0
O125 O 0.08097 0.68446 0.20511 0.0
C126 C 0.44935 0.16425 0.43908 0.0
O127 O 0.46501 0.17106 0.41432 0.0
Cd128 Cd 0.46857 0.15203 0.35378 0.0
O129 O 0.4345 0.14656 0.43236 0.0
Cd130 Cd 0.42494 0.11761 0.37979 0.0
C131 C 0.4293 0.14667 0.28796 0.0
O132 O 0.45715 0.1189 0.38448 0.0
O133 O 0.43769 0.09992 0.33088 0.0
O134 O 0.40793 0.0974 0.44707 0.0
C135 C 0.45373 0.10594 0.35369 0.0
O136 O 0.44814 0.15353 0.29143 0.0
C137 C 0.3921 0.08464 0.42645 0.0
O138 O 0.41716 0.13441 0.31769 0.0
O139 O 0.39127 0.08736 0.38374 0.0
C140 C 0.27983 0.45865 0.60373 0.0
O141 O 0.28922 0.47477 0.58021 0.0
Cd142 Cd 0.31109 0.47838 0.51827 0.0
O143 O 0.28203 0.44343 0.59565 0.0
Cd144 Cd 0.30144 0.43349 0.54406 0.0
C145 C 0.27743 0.43848 0.45196 0.0
O146 O 0.33153 0.46611 0.55039 0.0
O147 O 0.33352 0.4466 0.50037 0.0
O148 O 0.30172 0.41555 0.61274 0.0
C149 C 0.34222 0.46322 0.5219 0.0
O150 O 0.28888 0.45748 0.45677 0.0
C151 C 0.30064 0.4004 0.59223 0.0
O152 O 0.27783 0.42603 0.48056 0.0
O153 O 0.2994 0.40026 0.54884 0.0
C154 C 0.81977 0.28399 0.76295 0.0
O155 O 0.81343 0.29412 0.74114 0.0
Cd156 Cd 0.83263 0.31865 0.68419 0.0
O157 O 0.83725 0.28659 0.75521 0.0
Cd158 Cd 0.86626 0.30762 0.70384 0.0
C159 C 0.83761 0.28634 0.61056 0.0
O160 O 0.86557 0.33886 0.71524 0.0
O161 O 0.88356 0.33925 0.65829 0.0
O162 O 0.8862 0.30864 0.76952 0.0
C163 C 0.87819 0.34899 0.68434 0.0
O164 O 0.83091 0.29834 0.61832 0.0
C165 C 0.89921 0.3066 0.74702 0.0
O166 O 0.84988 0.28523 0.6382 0.0
O167 O 0.89666 0.30442 0.70399 0.0
C168 C 0.15842 0.44177 0.20539 0.0
C169 C 0.15049 0.43005 0.16574 0.0
C170 C 0.16892 0.43692 0.23732 0.0
C171 C 0.18302 0.41679 0.30822 0.0
H172 H 0.23018 0.41783 0.25698 0.0
C173 C 0.24343 0.41377 0.42113 0.0
C174 C 0.26232 0.43119 0.41496 0.0
C175 C 0.22805 0.40881 0.38925 0.0
C176 C 0.21692 0.41721 0.27165 0.0
H177 H 0.14684 0.40375 0.12898 0.0
H178 H 0.16583 0.39565 0.18441 0.0
H179 H 0.20472 0.41753 0.20583 0.0
H180 H 0.28034 0.4563 0.36936 0.0
H181 H 0.25369 0.44727 0.31307 0.0
H182 H 0.19549 0.41705 0.37404 0.0
C183 C 0.16361 0.4084 0.19089 0.0
C184 C 0.20234 0.41694 0.24248 0.0
C185 C 0.1527 0.41298 0.15938 0.0
C186 C 0.26591 0.44282 0.37502 0.0
C187 C 0.25071 0.43761 0.34273 0.0
C188 C 0.19741 0.41666 0.33739 0.0
C189 C 0.17205 0.42051 0.22979 0.0
C190 C 0.18557 0.41732 0.26054 0.0
C191 C 0.23148 0.4209 0.35016 0.0
C192 C 0.21476 0.41747 0.31935 0.0
H193 H 0.15692 0.45498 0.21121 0.0
H194 H 0.17542 0.4466 0.26685 0.0
H195 H 0.1702 0.41708 0.3229 0.0
H196 H 0.24021 0.40461 0.45175 0.0
H197 H 0.21333 0.39584 0.39565 0.0
C198 C 0.83062 0.25468 0.56854 0.0
C199 C 0.82963 0.2726 0.57072 0.0
C200 C 0.82063 0.24057 0.53363 0.0
C201 C 0.79576 0.23461 0.42076 0.0
H202 H 0.76004 0.1793 0.46002 0.0
C203 C 0.72112 0.18386 0.33371 0.0
C204 C 0.7168 0.16453 0.31921 0.0
C205 C 0.7376 0.19548 0.36167 0.0
C206 C 0.77021 0.19459 0.4484 0.0
H207 H 0.81831 0.29024 0.5367 0.0
H208 H 0.80104 0.26588 0.47648 0.0
H209 H 0.78546 0.20337 0.51293 0.0
H210 H 0.72611 0.14198 0.3242 0.0
H211 H 0.75485 0.16233 0.37473 0.0
H212 H 0.77971 0.22618 0.35733 0.0
C213 C 0.80953 0.26263 0.50132 0.0
C214 C 0.7848 0.20836 0.47856 0.0
C215 C 0.81932 0.27656 0.53617 0.0
C216 C 0.72906 0.15683 0.33471 0.0
C217 C 0.74547 0.16842 0.36353 0.0
C218 C 0.78112 0.22095 0.39092 0.0
C219 C 0.80971 0.24429 0.50003 0.0
C220 C 0.79721 0.22873 0.4656 0.0
C221 C 0.75006 0.18801 0.37643 0.0
C222 C 0.76777 0.20104 0.40503 0.0
H223 H 0.83841 0.25117 0.59473 0.0
H224 H 0.82115 0.22663 0.53338 0.0
H225 H 0.80539 0.25005 0.40935 0.0
H226 H 0.71208 0.19034 0.32251 0.0
H227 H 0.74066 0.21042 0.37174 0.0
C228 C 0.53579 0.71233 0.5396 0.0
C229 C 0.55046 0.71615 0.50626 0.0
C230 C 0.53964 0.72605 0.57488 0.0
C231 C 0.56983 0.77994 0.60117 0.0
H232 H 0.54537 0.76136 0.72067 0.0
C233 C 0.5667 0.83186 0.74556 0.0
C234 C 0.54702 0.82476 0.76178 0.0
C235 C 0.57096 0.81984 0.7165 0.0
C236 C 0.55239 0.76679 0.68754 0.0
H237 H 0.58103 0.73708 0.48486 0.0
H238 H 0.5878 0.76122 0.54699 0.0
H239 H 0.5468 0.73747 0.66766 0.0
H240 H 0.5164 0.79952 0.7597 0.0
H241 H 0.5239 0.7787 0.70992 0.0
H242 H 0.57494 0.80925 0.62113 0.0
C243 C 0.57325 0.74758 0.54542 0.0
C244 C 0.55318 0.75312 0.65715 0.0
C245 C 0.56942 0.7337 0.51008 0.0
C246 C 0.53172 0.80554 0.74792 0.0
C247 C 0.53602 0.7935 0.71966 0.0
C248 C 0.56918 0.7937 0.63187 0.0
C249 C 0.55827 0.74401 0.57785 0.0
C250 C 0.56117 0.75934 0.61293 0.0
C251 C 0.55567 0.8004 0.704 0.0
C252 C 0.55976 0.78704 0.67465 0.0
H253 H 0.52104 0.69895 0.53782 0.0
H254 H 0.52763 0.72292 0.59877 0.0
H255 H 0.576 0.78521 0.5673 0.0
H256 H 0.57882 0.84661 0.75556 0.0
H257 H 0.58622 0.82551 0.70467 0.0
C258 C 0.82354 0.57449 0.65853 0.0
C259 C 0.82625 0.5577 0.66457 0.0
C260 C 0.8125 0.57866 0.69051 0.0
C261 C 0.77373 0.56908 0.74347 0.0
H262 H 0.78157 0.56952 0.87476 0.0
C263 C 0.71093 0.54397 0.87866 0.0
C264 C 0.71475 0.55624 0.9174 0.0
C265 C 0.72599 0.54859 0.84621 0.0
C266 C 0.77936 0.5697 0.83817 0.0
H267 H 0.82062 0.53286 0.70994 0.0
H268 H 0.80192 0.54054 0.76642 0.0
H269 H 0.80675 0.56984 0.82264 0.0
H270 H 0.7372 0.58324 0.95202 0.0
H271 H 0.76378 0.59096 0.89571 0.0
H272 H 0.74575 0.56771 0.75903 0.0
C273 C 0.80811 0.5503 0.73676 0.0
C274 C 0.79369 0.56979 0.80846 0.0
C275 C 0.81872 0.54586 0.70437 0.0
C276 C 0.73379 0.57357 0.92236 0.0
C277 C 0.74901 0.57794 0.89035 0.0
C278 C 0.75921 0.56858 0.77319 0.0
C279 C 0.80446 0.56641 0.72956 0.0
C280 C 0.79083 0.56914 0.76087 0.0
C281 C 0.74529 0.56534 0.8523 0.0
C282 C 0.76174 0.56855 0.8208 0.0
H283 H 0.82908 0.58379 0.62802 0.0
H284 H 0.80989 0.59117 0.68429 0.0
H285 H 0.7711 0.56839 0.70691 0.0
H286 H 0.69639 0.53054 0.87389 0.0
H287 H 0.72279 0.53855 0.81734 0.0
C288 C 0.25288 0.82815 0.84355 0.0
C289 C 0.26882 0.82484 0.83205 0.0
C290 C 0.23941 0.81693 0.87868 0.0
C291 C 0.23402 0.7849 0.97955 0.0
H292 H 0.17672 0.76066 0.95823 0.0
C293 C 0.17675 0.71626 0.08215 0.0
C294 C 0.15949 0.71612 0.09879 0.0
C295 C 0.18954 0.73105 0.05117 0.0
C296 C 0.19268 0.76755 0.96494 0.0
H297 H 0.28325 0.80738 0.84915 0.0
H298 H 0.25989 0.78792 0.90969 0.0
H299 H 0.20054 0.78446 0.90217 0.0
H300 H 0.14189 0.73122 0.09476 0.0
H301 H 0.16433 0.75709 0.04003 0.0
H302 H 0.22624 0.76767 0.0416 0.0
C303 C 0.25784 0.79928 0.89206 0.0
C304 C 0.20632 0.78121 0.9329 0.0
C305 C 0.27119 0.81038 0.85703 0.0
C306 C 0.15507 0.73089 0.08268 0.0
C307 C 0.16788 0.74568 0.05129 0.0
C308 C 0.22043 0.77125 0.01136 0.0
C309 C 0.24171 0.8023 0.90319 0.0
C310 C 0.22716 0.78967 0.93938 0.0
C311 C 0.18541 0.74607 0.03577 0.0
C312 C 0.19962 0.76206 0.00393 0.0
H313 H 0.2506 0.83916 0.82497 0.0
H314 H 0.22722 0.81972 0.88666 0.0
H315 H 0.24996 0.7915 0.98612 0.0
H316 H 0.18063 0.7051 0.09353 0.0
H317 H 0.20272 0.7307 0.03917 0.0
C318 C 0.40498 0.15682 0.25808 0.0
C319 C 0.42194 0.15467 0.25117 0.0
C320 C 0.40004 0.16743 0.22628 0.0
C321 C 0.40802 0.20603 0.17396 0.0
H322 H 0.40855 0.19957 0.04238 0.0
C323 C 0.43443 0.27073 0.04275 0.0
C324 C 0.42316 0.2674 0.00256 0.0
C325 C 0.42907 0.25517 0.0746 0.0
C326 C 0.40804 0.20137 0.07904 0.0
H327 H 0.44622 0.16069 0.20434 0.0
H328 H 0.43726 0.17867 0.14831 0.0
H329 H 0.40829 0.17388 0.0934 0.0
H330 H 0.3971 0.24536 0.9648 0.0
H331 H 0.38806 0.21787 0.02015 0.0
H332 H 0.40905 0.23415 0.15961 0.0
C333 C 0.42792 0.17237 0.17844 0.0
C334 C 0.408 0.18675 0.10815 0.0
C335 C 0.4331 0.16218 0.21061 0.0
C336 C 0.40599 0.24838 -0.00439 0.0
C337 C 0.40087 0.23265 0.02708 0.0
C338 C 0.40843 0.22082 0.14486 0.0
C339 C 0.4117 0.1756 0.18658 0.0
C340 C 0.40843 0.18918 0.15586 0.0
C341 C 0.41256 0.23585 0.0665 0.0
C342 C 0.40888 0.21883 0.09716 0.0
H343 H 0.39617 0.15128 0.28917 0.0
H344 H 0.38744 0.16971 0.23324 0.0
H345 H 0.40854 0.20835 0.21062 0.0
H346 H 0.44771 0.28525 0.04904 0.0
H347 H 0.43843 0.25799 0.10452 0.0
C348 C 0.09523 0.48898 0.04709 0.0
C349 C 0.09224 0.47361 0.07816 0.0
C350 C 0.0909 0.50405 0.05968 0.0
C351 C 0.09082 0.53191 0.15907 0.0
H352 H 0.06311 0.55147 0.08138 0.0
C353 C 0.08655 0.60216 0.21064 0.0
C354 C 0.08918 0.61596 0.17573 0.0
C355 C 0.08288 0.58277 0.20003 0.0
C356 C 0.07106 0.54634 0.10331 0.0
H357 H 0.08184 0.46162 0.14632 0.0
H358 H 0.07473 0.48838 0.16877 0.0
H359 H 0.06413 0.52104 0.05984 0.0
H360 H 0.08941 0.62016 0.10234 0.0
H361 H 0.08392 0.58664 0.08353 0.0
H362 H 0.09887 0.55761 0.20119 0.0
C363 C 0.08029 0.48859 0.13457 0.0
C364 C 0.0715 0.52883 0.09107 0.0
C365 C 0.0843 0.47328 0.12169 0.0
C366 C 0.08735 0.60977 0.12994 0.0
C367 C 0.08409 0.59048 0.11924 0.0
C368 C 0.09067 0.54956 0.17093 0.0
C369 C 0.08378 0.50424 0.10383 0.0
C370 C 0.08156 0.52158 0.11865 0.0
C371 C 0.08221 0.57685 0.15418 0.0
C372 C 0.08097 0.55717 0.143 0.0
H373 H 0.10125 0.48955 0.01322 0.0
H374 H 0.0939 0.51604 0.03548 0.0
H375 H 0.09895 0.52682 0.18056 0.0
H376 H 0.08763 0.60648 0.24628 0.0
H377 H 0.08093 0.57256 0.22791 0.0
C378 C 0.60005 0.10105 0.20746 0.0
C379 C 0.61303 0.10174 0.2421 0.0
C380 C 0.58084 0.09753 0.21815 0.0
C381 C 0.54331 0.08226 0.31359 0.0
H382 H 0.52477 0.11259 0.2416 0.0
C383 C 0.48423 0.10363 0.37248 0.0
C384 C 0.46916 0.10065 0.341 0.0
C385 C 0.49984 0.10024 0.35973 0.0
C386 C 0.52963 0.10382 0.2616 0.0
H387 H 0.61607 0.09889 0.31501 0.0
H388 H 0.58292 0.09377 0.33423 0.0
H389 H 0.55595 0.11369 0.22093 0.0
H390 H 0.45829 0.09131 0.27185 0.0
H391 H 0.48603 0.08594 0.2491 0.0
H392 H 0.51734 0.07349 0.35584 0.0
C393 C 0.58721 0.09527 0.29852 0.0
C394 C 0.54749 0.10433 0.24969 0.0
C395 C 0.60629 0.09833 0.28762 0.0
C396 C 0.4697 0.0937 0.29682 0.0
C397 C 0.48556 0.09069 0.28377 0.0
C398 C 0.52561 0.08208 0.326 0.0
C399 C 0.57432 0.09515 0.26395 0.0
C400 C 0.55468 0.09365 0.27562 0.0
C401 C 0.50087 0.09415 0.315 0.0
C402 C 0.51869 0.09294 0.30021 0.0
H403 H 0.6048 0.10337 0.17196 0.0
H404 H 0.57122 0.09694 0.19039 0.0
H405 H 0.54809 0.07353 0.33393 0.0
H406 H 0.48414 0.10891 0.40683 0.0
H407 H 0.51155 0.10316 0.38431 0.0
C408 C 0.37044 0.49855 0.53153 0.0
C409 C 0.36271 0.47959 0.51031 0.0
C410 C 0.38911 0.51463 0.51872 0.0
C411 C 0.43715 0.52892 0.46287 0.0
H412 H 0.43712 0.57882 0.43658 0.0
C413 C 0.50876 0.60799 0.43421 0.0
C414 C 0.50755 0.61975 0.39855 0.0
C415 C 0.49196 0.58942 0.44608 0.0
C416 C 0.43736 0.56498 0.44355 0.0
H417 H 0.36888 0.46238 0.46039 0.0
H418 H 0.40177 0.4907 0.438 0.0
H419 H 0.40628 0.54917 0.46201 0.0
H420 H 0.48814 0.62079 0.34581 0.0
H421 H 0.459 0.58861 0.36663 0.0
H422 H 0.46844 0.545 0.44442 0.0
C423 C 0.39325 0.49299 0.46454 0.0
C424 C 0.41975 0.54806 0.4585 0.0
C425 C 0.37442 0.47685 0.47717 0.0
C426 C 0.48954 0.6122 0.37377 0.0
C427 C 0.47281 0.59379 0.38574 0.0
C428 C 0.45493 0.54602 0.44833 0.0
C429 C 0.40056 0.51214 0.48458 0.0
C430 C 0.41944 0.52987 0.46838 0.0
C431 C 0.47369 0.58243 0.42264 0.0
C432 C 0.45513 0.56417 0.43832 0.0
H433 H 0.36189 0.50114 0.55743 0.0
H434 H 0.3945 0.52915 0.53518 0.0
H435 H 0.43731 0.51508 0.47044 0.0
H436 H 0.52247 0.61339 0.45379 0.0
H437 H 0.49301 0.58096 0.47477 0.0
C438 C 0.88255 0.50027 0.54675 0.0
C439 C 0.88414 0.51486 0.57835 0.0
C440 C 0.88618 0.4848 0.56032 0.0
C441 C 0.88037 0.45363 0.65753 0.0
H442 H 0.91412 0.43776 0.59142 0.0
C443 C 0.88251 0.38207 0.7101 0.0
C444 C 0.8836 0.37014 0.67497 0.0
C445 C 0.88604 0.40156 0.7009 0.0
C446 C 0.90443 0.4418 0.60999 0.0
H447 H 0.89122 0.52502 0.64863 0.0
H448 H 0.89694 0.49746 0.67275 0.0
H449 H 0.91405 0.4687 0.56973 0.0
H450 H 0.88959 0.36929 0.60282 0.0
H451 H 0.89474 0.40286 0.58603 0.0
H452 H 0.86965 0.42633 0.69588 0.0
C453 C 0.89315 0.49824 0.63737 0.0
C454 C 0.90455 0.45962 0.59774 0.0
C455 C 0.88994 0.514 0.62355 0.0
C456 C 0.88877 0.37823 0.63061 0.0
C457 C 0.89184 0.39757 0.62113 0.0
C458 C 0.87992 0.43563 0.66918 0.0
C459 C 0.89108 0.4834 0.60595 0.0
C460 C 0.89242 0.46559 0.62122 0.0
C461 C 0.89024 0.40942 0.65604 0.0
C462 C 0.89181 0.42933 0.64535 0.0
H463 H 0.87816 0.50063 0.51166 0.0
H464 H 0.88433 0.47344 0.53557 0.0
H465 H 0.87065 0.45777 0.67569 0.0
H466 H 0.87879 0.37626 0.74476 0.0
H467 H 0.88522 0.41035 0.72901 0.0
C468 C 0.37344 0.89445 0.78086 0.0
C469 C 0.36583 0.89017 0.7361 0.0
C470 C 0.39284 0.89807 0.79013 0.0
C471 C 0.43171 0.88831 0.74004 0.0
H472 H 0.46341 0.921 0.84221 0.0
C473 C 0.50869 0.89687 0.78686 0.0
C474 C 0.50949 0.89119 0.83226 0.0
C475 C 0.49323 0.90037 0.77291 0.0
C476 C 0.45472 0.9119 0.81345 0.0
H477 H 0.37289 0.8876 0.66552 0.0
H478 H 0.40699 0.89485 0.68115 0.0
H479 H 0.43264 0.921 0.82085 0.0
H480 H 0.49544 0.88571 0.89915 0.0
H481 H 0.46873 0.89222 0.87496 0.0
H482 H 0.45393 0.87934 0.73268 0.0
C483 C 0.39781 0.89461 0.70955 0.0
C484 C 0.43702 0.91176 0.80136 0.0
C485 C 0.37831 0.89061 0.70046 0.0
C486 C 0.49513 0.88998 0.86388 0.0
C487 C 0.47993 0.89383 0.85015 0.0
C488 C 0.44956 0.88873 0.75166 0.0
C489 C 0.40518 0.89784 0.75468 0.0
C490 C 0.42504 0.89964 0.76504 0.0
C491 C 0.47858 0.89863 0.80434 0.0
C492 C 0.46102 0.90021 0.78899 0.0
H493 H 0.3641 0.89413 0.80902 0.0
H494 H 0.39779 0.90021 0.8254 0.0
H495 H 0.42279 0.87845 0.7125 0.0
H496 H 0.51954 0.89789 0.76176 0.0
H497 H 0.49253 0.90412 0.73742 0.0
C498 C 0.4849 0.38219 0.88347 0.0
C499 C 0.4701 0.36992 0.91547 0.0
C500 C 0.50034 0.40141 0.89574 0.0
C501 C 0.53037 0.42821 -0.007 0.0
H502 H 0.54802 0.47669 0.91972 0.0
C503 C 0.60101 0.50188 0.04383 0.0
C504 C 0.6138 0.51392 0.00852 0.0
C505 C 0.58165 0.48622 0.03411 0.0
C506 C 0.54345 0.46326 0.94034 0.0
H507 H 0.45954 0.36827 0.98502 0.0
H508 H 0.48699 0.40175 0.00691 0.0
H509 H 0.51732 0.44561 0.89901 0.0
H510 H 0.61632 0.51949 0.93547 0.0
H511 H 0.58288 0.49149 0.91791 0.0
H512 H 0.55686 0.4451 0.0327 0.0
C513 C 0.48643 0.39651 0.97222 0.0
C514 C 0.52578 0.44553 0.92861 0.0
C515 C 0.47074 0.37742 0.95967 0.0
C516 C 0.60669 0.51045 0.96335 0.0
C517 C 0.58744 0.49444 0.95341 0.0
C518 C 0.54819 0.44577 0.00423 0.0
C519 C 0.50147 0.40856 0.94047 0.0
C520 C 0.51917 0.42783 0.95471 0.0
C521 C 0.57478 0.48185 0.98862 0.0
C522 C 0.55509 0.46354 0.97791 0.0
H523 H 0.48472 0.37682 0.84908 0.0
H524 H 0.51185 0.41034 0.87077 0.0
H525 H 0.52575 0.41465 0.01322 0.0
H526 H 0.60606 0.50443 0.07908 0.0
H527 H 0.57221 0.47734 0.06234 0.0
C528 C 0.26763 0.47562 0.65773 0.0
C529 C 0.26668 0.45779 0.64171 0.0
C530 C 0.25576 0.475 0.69457 0.0
C531 C 0.20949 0.44201 0.75673 0.0
H532 H 0.23469 0.48025 0.8558 0.0
C533 C 0.16612 0.43867 0.92115 0.0
C534 C 0.17019 0.45718 0.9406 0.0
C535 C 0.17797 0.43822 0.88537 0.0
C536 C 0.22734 0.46964 0.82818 0.0
H537 H 0.25225 0.42527 0.6513 0.0
H538 H 0.23125 0.4242 0.71542 0.0
H539 H 0.25496 0.48054 0.79132 0.0
H540 H 0.18976 0.48974 0.93741 0.0
H541 H 0.21001 0.48901 0.87428 0.0
H542 H 0.18176 0.43143 0.79277 0.0
C543 C 0.24128 0.43863 0.69943 0.0
C544 C 0.23899 0.46977 0.79136 0.0
C545 C 0.25336 0.43927 0.6629 0.0
C546 C 0.18632 0.47521 0.92343 0.0
C547 C 0.19802 0.47478 0.88736 0.0
C548 C 0.19777 0.44202 0.79333 0.0
C549 C 0.24251 0.45652 0.71582 0.0
C550 C 0.23016 0.45602 0.75523 0.0
C551 C 0.19404 0.45628 0.86793 0.0
C552 C 0.20654 0.4559 0.82944 0.0
H553 H 0.27775 0.49014 0.64222 0.0
H554 H 0.25684 0.48898 0.70628 0.0
H555 H 0.2023 0.43137 0.72906 0.0
H556 H 0.15387 0.42449 0.9338 0.0
H557 H 0.17466 0.42368 0.87175 0.0
C558 C 0.71407 0.16469 0.06453 0.0
C559 C 0.70697 0.17396 0.09497 0.0
C560 C 0.72628 0.17553 0.02745 0.0
C561 C 0.76024 0.20476 0.96508 0.0
H562 H 0.74984 0.24418 0.90582 0.0
C563 C 0.81495 0.26317 0.83335 0.0
C564 C 0.80674 0.26929 0.79799 0.0
C565 C 0.80262 0.25027 0.86804 0.0
C566 C 0.75282 0.23304 0.92141 0.0
H567 H 0.70766 0.20204 0.11137 0.0
H568 H 0.72939 0.22106 0.04798 0.0
H569 H 0.72845 0.2239 0.96817 0.0
H570 H 0.77909 0.26587 0.76976 0.0
H571 H 0.75752 0.24284 0.82899 0.0
H572 H 0.7842 0.21345 0.91691 0.0
C573 C 0.72504 0.20525 0.05159 0.0
C574 C 0.74073 0.22162 0.95785 0.0
C575 C 0.71265 0.19437 0.08817 0.0
C576 C 0.7859 0.26167 0.79699 0.0
C577 C 0.77355 0.24855 0.83114 0.0
C578 C 0.77223 0.21605 0.92815 0.0
C579 C 0.73182 0.19593 0.02041 0.0
C580 C 0.74439 0.20749 0.98052 0.0
C581 C 0.78178 0.24301 0.86766 0.0
C582 C 0.76874 0.23042 0.90602 0.0
H583 H 0.7099 0.14895 0.06884 0.0
H584 H 0.73103 0.16779 0.00387 0.0
H585 H 0.76361 0.19414 0.98196 0.0
H586 H 0.83099 0.26885 0.83503 0.0
H587 H 0.80953 0.24653 0.89584 0.0
C588 C 0.54802 0.73168 0.25558 0.0
C589 C 0.52967 0.71816 0.2768 0.0
C590 C 0.54861 0.74432 0.22007 0.0
C591 C 0.51673 0.74751 0.13115 0.0
H592 H 0.55551 0.80494 0.12851 0.0
C593 C 0.50888 0.80092 0.00515 0.0
C594 C 0.52639 0.81638 0.98457 0.0
C595 C 0.51014 0.78944 0.0409 0.0
C596 C 0.54476 0.78888 0.1284 0.0
H597 H 0.49763 0.70756 0.27775 0.0
H598 H 0.49872 0.72948 0.21587 0.0
H599 H 0.55646 0.78393 0.19076 0.0
H600 H 0.55899 0.83202 0.98565 0.0
H601 H 0.56118 0.81166 0.04754 0.0
H602 H 0.5051 0.75223 0.06881 0.0
C603 C 0.5126 0.73021 0.2265 0.0
C604 C 0.5453 0.77689 0.16407 0.0
C605 C 0.51202 0.71774 0.26214 0.0
C606 C 0.54521 0.82024 0.00086 0.0
C607 C 0.54647 0.80864 0.03649 0.0
C608 C 0.51628 0.75943 0.09539 0.0
C609 C 0.53085 0.7435 0.20487 0.0
C610 C 0.53111 0.75615 0.16605 0.0
C611 C 0.52893 0.79302 0.05672 0.0
C612 C 0.5301 0.7803 0.09388 0.0
H613 H 0.56189 0.7324 0.26613 0.0
H614 H 0.56287 0.7544 0.2038 0.0
H615 H 0.50583 0.73148 0.13142 0.0
H616 H 0.49414 0.79766 -0.00629 0.0
H617 H 0.49633 0.77782 0.05633 0.0
C618 C 0.79025 0.51374 0.42272 0.0
C619 C 0.80658 0.53169 0.43946 0.0
C620 C 0.77866 0.51434 0.38658 0.0
C621 C 0.76363 0.54713 0.32779 0.0
H622 H 0.75131 0.50983 0.22687 0.0
C623 C 0.72271 0.55071 0.16477 0.0
C624 C 0.7086 0.53219 0.14512 0.0
C625 C 0.73516 0.55122 0.20031 0.0
C626 C 0.75437 0.52017 0.25503 0.0
H627 H 0.82335 0.56437 0.43183 0.0
H628 H 0.80289 0.56536 0.36891 0.0
H629 H 0.77177 0.50949 0.29023 0.0
H630 H 0.69628 0.49966 0.1479 0.0
H631 H 0.71753 0.5005 0.21044 0.0
H632 H 0.74589 0.55753 0.29322 0.0
C633 C 0.79915 0.55087 0.38381 0.0
C634 C 0.76614 0.52 0.29123 0.0
C635 C 0.8109 0.55027 0.41966 0.0
C636 C 0.7071 0.5142 0.16199 0.0
C637 C 0.7194 0.5147 0.19772 0.0
C638 C 0.75167 0.54717 0.29176 0.0
C639 C 0.78301 0.5329 0.36674 0.0
C640 C 0.77082 0.53341 0.32803 0.0
C641 C 0.73365 0.53321 0.2172 0.0
C642 C 0.74681 0.53362 0.25503 0.0
H643 H 0.78652 0.49918 0.4372 0.0
H644 H 0.76616 0.50027 0.37435 0.0
H645 H 0.76689 0.55751 0.35598 0.0
H646 H 0.72429 0.56484 0.1524 0.0
H647 H 0.74614 0.56577 0.21409 0.0
C648 C 0.16642 0.72807 0.3286 0.0
C649 C 0.16183 0.70781 0.32784 0.0
C650 C 0.17867 0.74106 0.3631 0.0
C651 C 0.21549 0.7447 0.45131 0.0
H652 H 0.21143 0.79094 0.49139 0.0
C653 C 0.27568 0.80415 0.56831 0.0
C654 C 0.26989 0.81364 0.60116 0.0
C655 C 0.26224 0.79207 0.53453 0.0
C656 C 0.21264 0.77795 0.48116 0.0
H657 H 0.16526 0.68481 0.36364 0.0
H658 H 0.18543 0.70693 0.42531 0.0
H659 H 0.1873 0.76749 0.43664 0.0
H660 H 0.24561 0.8181 0.62458 0.0
H661 H 0.22164 0.79604 0.56721 0.0
H662 H 0.23991 0.75427 0.49775 0.0
C663 C 0.1806 0.71327 0.39826 0.0
C664 C 0.19895 0.76463 0.44902 0.0
C665 C 0.16887 0.70049 0.36314 0.0
C666 C 0.25045 0.81099 0.59943 0.0
C667 C 0.23678 0.79844 0.5663 0.0
C668 C 0.22882 0.75769 0.48411 0.0
C669 C 0.18614 0.73388 0.39816 0.0
C670 C 0.20026 0.74787 0.43342 0.0
C671 C 0.24245 0.78868 0.53355 0.0
C672 C 0.22778 0.77465 0.49919 0.0
H673 H 0.16122 0.73408 0.30153 0.0
H674 H 0.18275 0.75684 0.36132 0.0
H675 H 0.21737 0.73228 0.43968 0.0
H676 H 0.29071 0.80621 0.56848 0.0
H677 H 0.26747 0.78542 0.50918 0.0
C678 C 0.4342 0.26803 0.74158 0.0
C679 C 0.4491 0.27402 0.77541 0.0
C680 C 0.43371 0.2561 0.70482 0.0
C681 C 0.42951 0.22216 0.64341 0.0
H682 H 0.48006 0.2314 0.59248 0.0
C683 C 0.43371 0.16835 0.51059 0.0
C684 C 0.44847 0.17691 0.47626 0.0
C685 C 0.43332 0.18024 0.54645 0.0
C686 C 0.46578 0.22875 0.60585 0.0
H687 H 0.47485 0.27175 0.79784 0.0
H688 H 0.47365 0.2505 0.73466 0.0
H689 H 0.48024 0.25225 0.65527 0.0
H690 H 0.47403 0.20479 0.45187 0.0
H691 H 0.47299 0.22562 0.51351 0.0
H692 H 0.41508 0.19913 0.59276 0.0
C693 C 0.46267 0.25546 0.73567 0.0
C694 C 0.46589 0.24052 0.64245 0.0
C695 C 0.46329 0.26756 0.7721 0.0
C696 C 0.46259 0.19768 0.47806 0.0
C697 C 0.46205 0.20961 0.51359 0.0
C698 C 0.42941 0.21049 0.60647 0.0
C699 C 0.44799 0.24972 0.70133 0.0
C700 C 0.44777 0.23732 0.66188 0.0
C701 C 0.44755 0.20101 0.54851 0.0
C702 C 0.44755 0.2136 0.58734 0.0
H703 H 0.4231 0.27285 0.74304 0.0
H704 H 0.42236 0.2522 0.67871 0.0
H705 H 0.41527 0.21912 0.6578 0.0
H706 H 0.42268 0.15236 0.51027 0.0
H707 H 0.42211 0.17304 0.57305 0.0
C708 C 0.06437 0.38052 0.91813 0.0
C709 C 0.06296 0.38197 0.96573 0.0
C710 C 0.04746 0.36752 0.89251 0.0
C711 C -0.0064 0.32647 0.90149 0.0
H712 H -0.01112 0.35092 0.78901 0.0
C713 C 0.91849 0.30872 0.81774 0.0
C714 C 0.91727 0.30844 0.76972 0.0
C715 C 0.93647 0.31328 0.83948 0.0
C716 C -0.00992 0.34366 0.81985 0.0
H717 H 0.043 0.3703 0.02422 0.0
H718 H 0.01325 0.34817 0.97947 0.0
H719 H 0.02018 0.3672 0.83135 0.0
H720 H 0.93361 0.31162 0.70683 0.0
H721 H 0.96515 0.31981 0.74491 0.0
H722 H 0.9629 0.30351 0.89076 0.0
C723 C 0.02748 0.35666 0.96182 0.0
C724 C 0.00809 0.35298 0.84421 0.0
C725 C 0.04453 0.36944 0.98755 0.0
C726 C 0.9341 0.31178 0.74389 0.0
C727 C 0.95217 0.31655 0.76565 0.0
C728 C 0.97546 0.31726 0.87728 0.0
C729 C 0.02861 0.35596 0.91378 0.0
C730 C 0.01003 0.34471 0.88576 0.0
C731 C 0.95366 0.31783 0.81364 0.0
C732 C 0.97344 0.32595 0.83657 0.0
H733 H 0.07848 0.38983 0.90046 0.0
H734 H 0.04906 0.36698 0.8558 0.0
H735 H -0.00537 0.31946 0.93289 0.0
H736 H 0.90574 0.30612 0.8386 0.0
H737 H 0.93719 0.3143 0.87648 0.0
C738 C 0.60337 0.91917 -0.00697 0.0
C739 C 0.60141 0.92078 0.94565 0.0
C740 C 0.61643 0.93613 0.01862 0.0
C741 C 0.65655 0.99058 0.01003 0.0
H742 H 0.63238 -0.00552 0.12335 0.0
C743 C 0.67278 0.06556 0.09354 0.0
C744 C 0.67312 0.06689 0.14154 0.0
C745 C 0.66864 0.04754 0.0721 0.0
C746 C 0.63958 0.99352 0.09231 0.0
H747 H 0.61231 0.9411 0.8874 0.0
H748 H 0.63459 0.97096 0.93219 0.0
H749 H 0.61656 0.96306 0.08075 0.0
H750 H 0.67042 0.05074 0.20472 0.0
H751 H 0.66292 0.01907 0.16712 0.0
H752 H 0.67898 0.02161 0.02082 0.0
C753 C 0.62642 0.95653 0.94964 0.0
C754 C 0.63052 0.97544 0.06778 0.0
C755 C 0.61358 0.93944 0.92389 0.0
C756 C 0.67021 0.05014 0.16767 0.0
C757 C 0.66585 0.03201 0.14618 0.0
C758 C 0.66552 0.00878 0.03444 0.0
C759 C 0.62755 0.9552 -0.00243 0.0
C760 C 0.63865 0.97381 0.02587 0.0
C761 C 0.66456 0.03041 0.09819 0.0
C762 C 0.6569 0.01052 0.07541 0.0
H763 H 0.59436 0.90489 0.01061 0.0
H764 H 0.61732 0.93437 0.05519 0.0
H765 H 0.66344 0.9898 0.97834 0.0
H766 H 0.67506 0.07825 0.07245 0.0
H767 H 0.66757 0.04674 0.03511 0.0
C768 C 0.67438 0.60863 0.15584 0.0
C769 C 0.67527 0.60795 0.10786 0.0
C770 C 0.67023 0.62252 0.17715 0.0
C771 C 0.64215 0.64835 0.15562 0.0
H772 H 0.66527 0.6754 0.27042 0.0
C773 C 0.60624 0.68723 0.25351 0.0
C774 C 0.60387 0.68346 0.30083 0.0
C775 C 0.61924 0.6831 0.22829 0.0
C776 C 0.65858 0.66787 0.23849 0.0
H777 H 0.67351 0.62198 0.04467 0.0
H778 H 0.66602 0.64616 0.08202 0.0
H779 H 0.68065 0.65877 0.22888 0.0
H780 H 0.614 0.67343 0.3593 0.0
H781 H 0.63615 0.66555 0.31524 0.0
H782 H 0.61946 0.6563 0.16601 0.0
C783 C 0.66852 0.63589 0.10304 0.0
C784 C 0.66746 0.65843 0.21463 0.0
C785 C 0.67288 0.62211 0.0817 0.0
C786 C 0.61556 0.67653 0.32287 0.0
C787 C 0.62836 0.6721 0.29753 0.0
C788 C 0.63316 0.65757 0.17963 0.0
C789 C 0.66669 0.63591 0.15094 0.0
C790 C 0.65911 0.64826 0.17336 0.0
C791 C 0.62991 0.67478 0.24967 0.0
C792 C 0.64102 0.66714 0.22183 0.0
H793 H 0.67624 0.59797 0.17695 0.0
H794 H 0.66875 0.62205 0.21408 0.0
H795 H 0.63516 0.64036 0.1243 0.0
H796 H 0.59758 0.69281 0.23568 0.0
H797 H 0.62044 0.68588 0.19175 0.0
C798 C 0.04248 0.67731 0.24023 0.0
C799 C 0.05903 0.68119 0.26778 0.0
C800 C 0.02415 0.67281 0.26032 0.0
C801 C -0.00053 0.67311 0.36958 0.0
H802 H 0.95615 0.62172 0.32667 0.0
C803 C 0.93153 0.62005 0.48236 0.0
C804 C 0.91322 0.60668 0.46123 0.0
C805 C 0.94829 0.63306 0.45591 0.0
C806 C 0.96783 0.63632 0.33861 0.0
H807 H 0.06984 0.685 0.33766 0.0
H808 H 0.03801 0.67736 0.37254 0.0
H809 H 0.98752 0.63849 0.28439 0.0
H810 H 0.8976 0.59752 0.39628 0.0
H811 H 0.9265 0.6207 0.35034 0.0
H812 H 0.97987 0.67073 0.4244 0.0
C813 C 0.0391 0.67771 0.33554 0.0
C814 C 0.98588 0.64595 0.31425 0.0
C815 C 0.05732 0.68195 0.31554 0.0
C816 C 0.91162 0.60747 0.41347 0.0
C817 C 0.92825 0.62068 0.38712 0.0
C818 C 0.9813 0.66357 0.39379 0.0
C819 C 0.02213 0.67241 0.30825 0.0
C820 C 0.00207 0.66418 0.33007 0.0
C821 C 0.947 0.63316 0.4078 0.0
C822 C 0.96541 0.64478 0.37925 0.0
H823 H 0.04337 0.67663 0.20333 0.0
H824 H 0.01134 0.66895 0.23845 0.0
H825 H 0.01165 0.68726 0.38234 0.0
H826 H 0.93321 0.61972 0.51912 0.0
H827 H 0.96249 0.64227 0.47314 0.0
C828 C 0.37678 0.06531 0.49861 0.0
C829 C 0.37612 0.0668 0.45074 0.0
C830 C 0.36313 0.04756 0.52134 0.0
C831 C 0.33457 0.99344 0.50097 0.0
H832 H 0.31149 0.99123 0.6204 0.0
C833 C 0.29512 0.91854 0.59861 0.0
C834 C 0.30013 0.91948 0.6451 0.0
C835 C 0.29931 0.93609 0.57463 0.0
C836 C 0.3179 0.99158 0.58716 0.0
H837 H 0.36 0.05121 0.38938 0.0
H838 H 0.33621 0.02008 0.42915 0.0
H839 H 0.32844 0.02328 0.57844 0.0
H840 H 0.31237 0.93926 0.7037 0.0
H841 H 0.32041 0.97007 0.66159 0.0
H842 H 0.32518 0.96224 0.5102 0.0
C843 C 0.34737 0.03266 0.449 0.0
C844 C 0.32753 0.00993 0.56308 0.0
C845 C 0.36094 0.0505 0.42627 0.0
C846 C 0.30828 0.93811 0.66789 0.0
C847 C 0.31282 0.95576 0.64367 0.0
C848 C 0.32516 0.97521 0.52513 0.0
C849 C 0.34861 0.03085 0.49666 0.0
C850 C 0.33625 0.0111 0.52004 0.0
C851 C 0.30901 0.95506 0.59633 0.0
C852 C 0.31696 0.97406 0.5689 0.0
H853 H 0.38825 0.07765 0.51846 0.0
H854 H 0.36459 0.04658 0.55801 0.0
H855 H 0.34144 0.99392 0.46824 0.0
H856 H 0.28859 0.90432 0.58032 0.0
H857 H 0.29559 0.93484 0.53858 0.0
C858 C 0.2994 0.38273 0.6653 0.0
C859 C 0.30244 0.38461 0.61774 0.0
C860 C 0.3037 0.36978 0.69058 0.0
C861 C 0.31799 0.32955 0.68018 0.0
H862 H 0.3462 0.35322 0.7935 0.0
C863 C 0.37634 0.31259 0.76255 0.0
C864 C 0.37681 0.3114 0.81051 0.0
C865 C 0.36283 0.3172 0.74114 0.0
C866 C 0.33803 0.34618 0.76239 0.0
H867 H 0.31147 0.37375 0.55898 0.0
H868 H 0.31974 0.35173 0.60311 0.0
H869 H 0.33059 0.36936 0.75194 0.0
H870 H 0.36285 0.31315 0.87357 0.0
H871 H 0.33939 0.3215 0.83606 0.0
H872 H 0.32661 0.30699 0.68983 0.0
C873 C 0.31357 0.35984 0.621 0.0
C874 C 0.32899 0.35541 0.7385 0.0
C875 C 0.30894 0.37256 0.59562 0.0
C876 C 0.36287 0.314 0.83655 0.0
C877 C 0.34951 0.31885 0.81513 0.0
C878 C 0.32727 0.32045 0.7039 0.0
C879 C 0.31151 0.35868 0.669 0.0
C880 C 0.31913 0.34744 0.69665 0.0
C881 C 0.34966 0.32092 0.76727 0.0
C882 C 0.33766 0.32888 0.74486 0.0
H883 H 0.29416 0.39166 0.6832 0.0
H884 H 0.3014 0.36889 0.72727 0.0
H885 H 0.31022 0.32275 0.64856 0.0
H886 H 0.38684 0.31057 0.74154 0.0
H887 H 0.36342 0.31886 0.70424 0.0
loop_
_geom_bond_atom_site_label_1
_geom_bond_atom_site_label_2
_geom_bond_distance
_geom_bond_site_symmetry_2
_ccdc_geom_bond_type
C0 O1 1.306 . S
C0 O3 1.160 . S
O1 C0 1.306 . S
O1 Cd2 2.228 1_556 S
Cd2 O1 2.228 1_554 S
Cd2 O6 2.273 . S
Cd2 O10 2.277 . S
O3 C0 1.160 . S
O3 Cd4 2.203 1_556 S
Cd4 O3 2.203 1_554 S
Cd4 O6 2.411 . S
Cd4 O7 2.333 . S
Cd4 O8 2.352 1_554 S
Cd4 O12 2.277 . S
Cd4 O13 2.356 . S
C5 O10 1.209 . S
C5 O12 1.226 . S
O6 Cd2 2.273 . S
O6 Cd4 2.411 . S
O6 C9 1.320 . S
O7 Cd4 2.333 . S
O7 C9 1.214 . S
O8 Cd4 2.352 1_556 S
O8 C11 1.258 1_556 S
C9 O6 1.320 . S
C9 O7 1.214 . S
O10 Cd2 2.277 . S
O10 C5 1.209 . S
C11 O8 1.258 1_554 S
C11 O13 1.282 . S
O12 Cd4 2.277 . S
O12 C5 1.226 . S
O13 Cd4 2.356 . S
O13 C11 1.282 . S
C14 O15 1.306 . S
C14 O17 1.160 . S
O15 C14 1.306 . S
O15 Cd16 2.228 . S
Cd16 O15 2.228 . S
Cd16 O20 2.273 . S
Cd16 O24 2.277 . S
O17 C14 1.160 . S
O17 Cd18 2.203 . S
Cd18 O17 2.203 . S
Cd18 O20 2.411 . S
Cd18 O21 2.333 . S
Cd18 O22 2.352 . S
Cd18 O26 2.277 . S
Cd18 O27 2.356 . S
C19 O24 1.209 . S
C19 O26 1.226 . S
O20 Cd16 2.273 . S
O20 Cd18 2.411 . S
O20 C23 1.320 . S
O21 Cd18 2.333 . S
O21 C23 1.214 . S
O22 Cd18 2.352 . S
O22 C25 1.258 . S
C23 O20 1.320 . S
C23 O21 1.214 . S
O24 Cd16 2.277 . S
O24 C19 1.209 . S
C25 O22 1.258 . S
C25 O27 1.282 . S
O26 Cd18 2.277 . S
O26 C19 1.226 . S
O27 Cd18 2.356 . S
O27 C25 1.282 . S
C28 O29 1.306 . S
C28 O31 1.160 . S
O29 C28 1.306 . S
O29 Cd30 2.228 . S
Cd30 O29 2.228 . S
Cd30 O34 2.273 . S
Cd30 O38 2.277 . S
O31 C28 1.160 . S
O31 Cd32 2.203 . S
Cd32 O31 2.203 . S
Cd32 O34 2.411 . S
Cd32 O35 2.333 . S
Cd32 O36 2.352 . S
Cd32 O40 2.277 . S
Cd32 O41 2.356 . S
C33 O38 1.209 . S
C33 O40 1.226 . S
O34 Cd30 2.273 . S
O34 Cd32 2.411 . S
O34 C37 1.320 . S
O35 Cd32 2.333 . S
O35 C37 1.214 . S
O36 Cd32 2.352 . S
O36 C39 1.258 . S
C37 O34 1.320 . S
C37 O35 1.214 . S
O38 Cd30 2.277 . S
O38 C33 1.209 . S
C39 O36 1.258 . S
C39 O41 1.282 . S
O40 Cd32 2.277 . S
O40 C33 1.226 . S
O41 Cd32 2.356 . S
O41 C39 1.282 . S
C42 O43 1.306 . S
C42 O45 1.160 . S
O43 C42 1.306 . S
O43 Cd44 2.228 . S
Cd44 O43 2.228 . S
Cd44 O48 2.273 . S
Cd44 O52 2.277 . S
O45 C42 1.160 . S
O45 Cd46 2.203 . S
Cd46 O45 2.203 . S
Cd46 O48 2.411 . S
Cd46 O49 2.333 . S
Cd46 O50 2.352 . S
Cd46 O54 2.277 . S
Cd46 O55 2.356 . S
C47 O52 1.209 . S
C47 O54 1.226 . S
O48 Cd44 2.273 . S
O48 Cd46 2.411 . S
O48 C51 1.320 . S
O49 Cd46 2.333 . S
O49 C51 1.214 . S
O50 Cd46 2.352 . S
O50 C53 1.258 . S
C51 O48 1.320 . S
C51 O49 1.214 . S
O52 Cd44 2.277 . S
O52 C47 1.209 . S
C53 O50 1.258 . S
C53 O55 1.282 . S
O54 Cd46 2.277 . S
O54 C47 1.226 . S
O55 Cd46 2.356 . S
O55 C53 1.282 . S
C56 O57 1.306 . S
C56 O59 1.160 . S
O57 C56 1.306 . S
O57 Cd58 2.228 . S
Cd58 O57 2.228 . S
Cd58 O62 2.273 . S
Cd58 O66 2.277 . S
O59 C56 1.160 . S
O59 Cd60 2.203 . S
Cd60 O59 2.203 . S
Cd60 O62 2.411 . S
Cd60 O63 2.333 . S
Cd60 O64 2.352 . S
Cd60 O68 2.277 . S
Cd60 O69 2.356 . S
C61 O66 1.209 . S
C61 O68 1.226 . S
O62 Cd58 2.273 . S
O62 Cd60 2.411 . S
O62 C65 1.320 . S
O63 Cd60 2.333 . S
O63 C65 1.214 . S
O64 Cd60 2.352 . S
O64 C67 1.258 . S
C65 O62 1.320 . S
C65 O63 1.214 . S
O66 Cd58 2.277 . S
O66 C61 1.209 . S
C67 O64 1.258 . S
C67 O69 1.282 . S
O68 Cd60 2.277 . S
O68 C61 1.226 . S
O69 Cd60 2.356 . S
O69 C67 1.282 . S
C70 O71 1.306 . S
C70 O73 1.160 . S
O71 C70 1.306 . S
O71 Cd72 2.228 . S
Cd72 O71 2.228 . S
Cd72 O76 2.273 . S
Cd72 O80 2.277 . S
O73 C70 1.160 . S
O73 Cd74 2.203 . S
Cd74 O73 2.203 . S
Cd74 O76 2.411 . S
Cd74 O77 2.333 . S
Cd74 O78 2.352 . S
Cd74 O82 2.277 . S
Cd74 O83 2.356 . S
C75 O80 1.209 . S
C75 O82 1.226 . S
O76 Cd72 2.273 . S
O76 Cd74 2.411 . S
O76 C79 1.320 . S
O77 Cd74 2.333 . S
O77 C79 1.214 . S
O78 Cd74 2.352 . S
O78 C81 1.258 . S
C79 O76 1.320 . S
C79 O77 1.214 . S
O80 Cd72 2.277 . S
O80 C75 1.209 . S
C81 O78 1.258 . S
C81 O83 1.282 . S
O82 Cd74 2.277 . S
O82 C75 1.226 . S
O83 Cd74 2.356 . S
O83 C81 1.282 . S
C84 O85 1.306 . S
C84 O87 1.160 . S
O85 C84 1.306 . S
O85 Cd86 2.228 . S
Cd86 O85 2.228 . S
Cd86 O90 2.273 . S
Cd86 O94 2.277 . S
O87 C84 1.160 . S
O87 Cd88 2.203 . S
Cd88 O87 2.203 . S
Cd88 O90 2.411 . S
Cd88 O91 2.333 . S
Cd88 O92 2.352 . S
Cd88 O96 2.277 . S
Cd88 O97 2.356 . S
C89 O94 1.209 . S
C89 O96 1.226 . S
O90 Cd86 2.273 . S
O90 Cd88 2.411 . S
O90 C93 1.320 . S
O91 Cd88 2.333 . S
O91 C93 1.214 . S
O92 Cd88 2.352 . S
O92 C95 1.258 . S
C93 O90 1.320 . S
C93 O91 1.214 . S
O94 Cd86 2.277 . S
O94 C89 1.209 . S
C95 O92 1.258 . S
C95 O97 1.282 . S
O96 Cd88 2.277 . S
O96 C89 1.226 . S
O97 Cd88 2.356 . S
O97 C95 1.282 . S
C98 O99 1.306 . S
C98 O101 1.160 . S
O99 C98 1.306 . S
O99 Cd100 2.228 . S
Cd100 O99 2.228 . S
Cd100 O104 2.273 . S
Cd100 O108 2.277 . S
O101 C98 1.160 . S
O101 Cd102 2.203 . S
Cd102 O101 2.203 . S
Cd102 O104 2.411 . S
Cd102 O105 2.333 . S
Cd102 O106 2.352 . S
Cd102 O110 2.277 1_554 S
Cd102 O111 2.356 . S
C103 O108 1.209 1_556 S
C103 O110 1.226 . S
O104 Cd100 2.273 . S
O104 Cd102 2.411 . S
O104 C107 1.320 . S
O105 Cd102 2.333 . S
O105 C107 1.214 . S
O106 Cd102 2.352 . S
O106 C109 1.258 . S
C107 O104 1.320 . S
C107 O105 1.214 . S
O108 Cd100 2.277 . S
O108 C103 1.209 1_554 S
C109 O106 1.258 . S
C109 O111 1.282 . S
O110 Cd102 2.277 1_556 S
O110 C103 1.226 . S
O111 Cd102 2.356 . S
O111 C109 1.282 . S
C112 O113 1.306 . S
C112 O115 1.160 . S
O113 C112 1.306 . S
O113 Cd114 2.228 . S
Cd114 O113 2.228 . S
Cd114 O118 2.273 . S
Cd114 O122 2.277 . S
O115 C112 1.160 . S
O115 Cd116 2.203 . S
Cd116 O115 2.203 . S
Cd116 O118 2.411 . S
Cd116 O119 2.333 . S
Cd116 O120 2.352 . S
Cd116 O124 2.277 . S
Cd116 O125 2.356 . S
C117 O122 1.209 . S
C117 O124 1.226 . S
O118 Cd114 2.273 . S
O118 Cd116 2.411 . S
O118 C121 1.320 . S
O119 Cd116 2.333 . S
O119 C121 1.214 . S
O120 Cd116 2.352 . S
O120 C123 1.258 . S
C121 O118 1.320 . S
C121 O119 1.214 . S
O122 Cd114 2.277 . S
O122 C117 1.209 . S
C123 O120 1.258 . S
C123 O125 1.282 . S
O124 Cd116 2.277 . S
O124 C117 1.226 . S
O125 Cd116 2.356 . S
O125 C123 1.282 . S
C126 O127 1.306 . S
C126 O129 1.160 . S
O127 C126 1.306 . S
O127 Cd128 2.228 . S
Cd128 O127 2.228 . S
Cd128 O132 2.273 . S
Cd128 O136 2.277 . S
O129 C126 1.160 . S
O129 Cd130 2.203 . S
Cd130 O129 2.203 . S
Cd130 O132 2.411 . S
Cd130 O133 2.333 . S
Cd130 O134 2.352 . S
Cd130 O138 2.277 . S
Cd130 O139 2.356 . S
C131 O136 1.209 . S
C131 O138 1.226 . S
O132 Cd128 2.273 . S
O132 Cd130 2.411 . S
O132 C135 1.320 . S
O133 Cd130 2.333 . S
O133 C135 1.214 . S
O134 Cd130 2.352 . S
O134 C137 1.258 . S
C135 O132 1.320 . S
C135 O133 1.214 . S
O136 Cd128 2.277 . S
O136 C131 1.209 . S
C137 O134 1.258 . S
C137 O139 1.282 . S
O138 Cd130 2.277 . S
O138 C131 1.226 . S
O139 Cd130 2.356 . S
O139 C137 1.282 . S
C140 O141 1.306 . S
C140 O143 1.160 . S
O141 C140 1.306 . S
O141 Cd142 2.228 . S
Cd142 O141 2.228 . S
Cd142 O146 2.273 . S
Cd142 O150 2.277 . S
O143 C140 1.160 . S
O143 Cd144 2.203 . S
Cd144 O143 2.203 . S
Cd144 O146 2.411 . S
Cd144 O147 2.333 . S
Cd144 O148 2.352 . S
Cd144 O152 2.277 . S
Cd144 O153 2.356 . S
C145 O150 1.209 . S
C145 O152 1.226 . S
O146 Cd142 2.273 . S
O146 Cd144 2.411 . S
O146 C149 1.320 . S
O147 Cd144 2.333 . S
O147 C149 1.214 . S
O148 Cd144 2.352 . S
O148 C151 1.258 . S
C149 O146 1.320 . S
C149 O147 1.214 . S
O150 Cd142 2.277 . S
O150 C145 1.209 . S
C151 O148 1.258 . S
C151 O153 1.282 . S
O152 Cd144 2.277 . S
O152 C145 1.226 . S
O153 Cd144 2.356 . S
O153 C151 1.282 . S
C154 O155 1.306 . S
C154 O157 1.160 . S
O155 C154 1.306 . S
O155 Cd156 2.228 . S
Cd156 O155 2.228 . S
Cd156 O160 2.273 . S
Cd156 O164 2.277 . S
O157 C154 1.160 . S
O157 Cd158 2.203 . S
Cd158 O157 2.203 . S
Cd158 O160 2.411 . S
Cd158 O161 2.333 . S
Cd158 O162 2.352 . S
Cd158 O166 2.277 . S
Cd158 O167 2.356 . S
C159 O164 1.209 . S
C159 O166 1.226 . S
O160 Cd156 2.273 . S
O160 Cd158 2.411 . S
O160 C163 1.320 . S
O161 Cd158 2.333 . S
O161 C163 1.214 . S
O162 Cd158 2.352 . S
O162 C165 1.258 . S
C163 O160 1.320 . S
C163 O161 1.214 . S
O164 Cd156 2.277 . S
O164 C159 1.209 . S
C165 O162 1.258 . S
C165 O167 1.282 . S
O166 Cd158 2.277 . S
O166 C159 1.226 . S
O167 Cd158 2.356 . S
O167 C165 1.282 . S
C168 C169 1.349 . S
C168 C170 1.327 . S
C168 H193 0.950 . S
C169 C168 1.349 . S
C169 C185 1.349 . S
C170 C168 1.327 . S
C170 C189 1.429 . S
C170 H194 0.950 . S
C171 C188 1.574 . S
C171 C190 1.368 . S
C171 H195 0.949 . S
H172 C176 0.949 . S
C173 C174 1.349 . S
C173 C175 1.327 . S
C173 H196 0.950 . S
C174 C173 1.349 . S
C174 C186 1.349 . S
C175 C173 1.327 . S
C175 C191 1.429 . S
C175 H197 0.950 . S
C176 H172 0.949 . S
C176 C184 1.574 . S
C176 C192 1.368 . S
H177 C185 0.950 . S
H178 C183 0.950 . S
H179 C184 0.949 . S
H180 C186 0.950 . S
H181 C187 0.950 . S
H182 C188 0.949 . S
C183 H178 0.950 . S
C183 C185 1.327 . S
C183 C189 1.429 . S
C184 C176 1.574 . S
C184 H179 0.949 . S
C184 C190 1.368 . S
C185 C169 1.349 . S
C185 H177 0.950 . S
C185 C183 1.327 . S
C186 C174 1.349 . S
C186 H180 0.950 . S
C186 C187 1.327 . S
C187 H181 0.950 . S
C187 C186 1.327 . S
C187 C191 1.429 . S
C188 C171 1.574 . S
C188 H182 0.949 . S
C188 C192 1.368 . S
C189 C170 1.429 . S
C189 C183 1.429 . S
C189 C190 1.523 . S
C190 C171 1.368 . S
C190 C184 1.368 . S
C190 C189 1.523 . S
C191 C175 1.429 . S
C191 C187 1.429 . S
C191 C192 1.523 . S
C192 C176 1.368 . S
C192 C188 1.368 . S
C192 C191 1.523 . S
H193 C168 0.950 . S
H194 C170 0.950 . S
H195 C171 0.949 . S
H196 C173 0.950 . S
H197 C175 0.950 . S
C198 C199 1.349 . S
C198 C200 1.327 . S
C198 H223 0.950 . S
C199 C198 1.349 . S
C199 C215 1.349 . S
C200 C198 1.327 . S
C200 C219 1.429 . S
C200 H224 0.950 . S
C201 C218 1.574 . S
C201 C220 1.368 . S
C201 H225 0.949 . S
H202 C206 0.949 . S
C203 C204 1.349 . S
C203 C205 1.327 . S
C203 H226 0.950 . S
C204 C203 1.349 . S
C204 C216 1.349 . S
C205 C203 1.327 . S
C205 C221 1.429 . S
C205 H227 0.950 . S
C206 H202 0.949 . S
C206 C214 1.574 . S
C206 C222 1.368 . S
H207 C215 0.950 . S
H208 C213 0.950 . S
H209 C214 0.949 . S
H210 C216 0.950 . S
H211 C217 0.950 . S
H212 C218 0.949 . S
C213 H208 0.950 . S
C213 C215 1.327 . S
C213 C219 1.429 . S
C214 C206 1.574 . S
C214 H209 0.949 . S
C214 C220 1.368 . S
C215 C199 1.349 . S
C215 H207 0.950 . S
C215 C213 1.327 . S
C216 C204 1.349 . S
C216 H210 0.950 . S
C216 C217 1.327 . S
C217 H211 0.950 . S
C217 C216 1.327 . S
C217 C221 1.429 . S
C218 C201 1.574 . S
C218 H212 0.949 . S
C218 C222 1.368 . S
C219 C200 1.429 . S
C219 C213 1.429 . S
C219 C220 1.523 . S
C220 C201 1.368 . S
C220 C214 1.368 . S
C220 C219 1.523 . S
C221 C205 1.429 . S
C221 C217 1.429 . S
C221 C222 1.523 . S
C222 C206 1.368 . S
C222 C218 1.368 . S
C222 C221 1.523 . S
H223 C198 0.950 . S
H224 C200 0.950 . S
H225 C201 0.949 . S
H226 C203 0.950 . S
H227 C205 0.950 . S
C228 C229 1.349 . S
C228 C230 1.327 . S
C228 H253 0.950 . S
C229 C228 1.349 . S
C229 C245 1.349 . S
C230 C228 1.327 . S
C230 C249 1.429 . S
C230 H254 0.950 . S
C231 C248 1.574 . S
C231 C250 1.368 . S
C231 H255 0.949 . S
H232 C236 0.949 . S
C233 C234 1.349 . S
C233 C235 1.327 . S
C233 H256 0.950 . S
C234 C233 1.349 . S
C234 C246 1.349 . S
C235 C233 1.327 . S
C235 C251 1.429 . S
C235 H257 0.950 . S
C236 H232 0.949 . S
C236 C244 1.574 . S
C236 C252 1.368 . S
H237 C245 0.950 . S
H238 C243 0.950 . S
H239 C244 0.949 . S
H240 C246 0.950 . S
H241 C247 0.950 . S
H242 C248 0.949 . S
C243 H238 0.950 . S
C243 C245 1.327 . S
C243 C249 1.429 . S
C244 C236 1.574 . S
C244 H239 0.949 . S
C244 C250 1.368 . S
C245 C229 1.349 . S
C245 H237 0.950 . S
C245 C243 1.327 . S
C246 C234 1.349 . S
C246 H240 0.950 . S
C246 C247 1.327 . S
C247 H241 0.950 . S
C247 C246 1.327 . S
C247 C251 1.429 . S
C248 C231 1.574 . S
C248 H242 0.949 . S
C248 C252 1.368 . S
C249 C230 1.429 . S
C249 C243 1.429 . S
C249 C250 1.523 . S
C250 C231 1.368 . S
C250 C244 1.368 . S
C250 C249 1.523 . S
C251 C235 1.429 . S
C251 C247 1.429 . S
C251 C252 1.523 . S
C252 C236 1.368 . S
C252 C248 1.368 . S
C252 C251 1.523 . S
H253 C228 0.950 . S
H254 C230 0.950 . S
H255 C231 0.949 . S
H256 C233 0.950 . S
H257 C235 0.950 . S
C258 C259 1.349 . S
C258 C260 1.327 . S
C258 H283 0.950 . S
C259 C258 1.349 . S
C259 C275 1.349 . S
C260 C258 1.327 . S
C260 C279 1.429 . S
C260 H284 0.950 . S
C261 C278 1.574 . S
C261 C280 1.368 . S
C261 H285 0.949 . S
H262 C266 0.949 . S
C263 C264 1.349 . S
C263 C265 1.327 . S
C263 H286 0.950 . S
C264 C263 1.349 . S
C264 C276 1.349 . S
C265 C263 1.327 . S
C265 C281 1.429 . S
C265 H287 0.950 . S
C266 H262 0.949 . S
C266 C274 1.574 . S
C266 C282 1.368 . S
H267 C275 0.950 . S
H268 C273 0.950 . S
H269 C274 0.949 . S
H270 C276 0.950 . S
H271 C277 0.950 . S
H272 C278 0.949 . S
C273 H268 0.950 . S
C273 C275 1.327 . S
C273 C279 1.429 . S
C274 C266 1.574 . S
C274 H269 0.949 . S
C274 C280 1.368 . S
C275 C259 1.349 . S
C275 H267 0.950 . S
C275 C273 1.327 . S
C276 C264 1.349 . S
C276 H270 0.950 . S
C276 C277 1.327 . S
C277 H271 0.950 . S
C277 C276 1.327 . S
C277 C281 1.429 . S
C278 C261 1.574 . S
C278 H272 0.949 . S
C278 C282 1.368 . S
C279 C260 1.429 . S
C279 C273 1.429 . S
C279 C280 1.523 . S
C280 C261 1.368 . S
C280 C274 1.368 . S
C280 C279 1.523 . S
C281 C265 1.429 . S
C281 C277 1.429 . S
C281 C282 1.523 . S
C282 C266 1.368 . S
C282 C278 1.368 . S
C282 C281 1.523 . S
H283 C258 0.950 . S
H284 C260 0.950 . S
H285 C261 0.949 . S
H286 C263 0.950 . S
H287 C265 0.950 . S
C288 C289 1.349 . S
C288 C290 1.327 . S
C288 H313 0.950 . S
C289 C288 1.349 . S
C289 C305 1.349 . S
C290 C288 1.327 . S
C290 C309 1.429 . S
C290 H314 0.950 . S
C291 C308 1.574 . S
C291 C310 1.368 . S
C291 H315 0.949 . S
H292 C296 0.949 . S
C293 C294 1.349 . S
C293 C295 1.327 . S
C293 H316 0.950 . S
C294 C293 1.349 . S
C294 C306 1.349 . S
C295 C293 1.327 . S
C295 C311 1.429 . S
C295 H317 0.950 . S
C296 H292 0.949 . S
C296 C304 1.574 1_554 S
C296 C312 1.369 . S
H297 C305 0.950 . S
H298 C303 0.950 . S
H299 C304 0.949 . S
H300 C306 0.950 . S
H301 C307 0.950 . S
H302 C308 0.949 . S
C303 H298 0.950 . S
C303 C305 1.327 . S
C303 C309 1.429 . S
C304 C296 1.574 1_556 S
C304 H299 0.949 . S
C304 C310 1.368 . S
C305 C289 1.349 . S
C305 H297 0.950 . S
C305 C303 1.327 . S
C306 C294 1.349 . S
C306 H300 0.950 . S
C306 C307 1.327 . S
C307 H301 0.950 . S
C307 C306 1.327 . S
C307 C311 1.429 . S
C308 C291 1.574 . S
C308 H302 0.949 . S
C308 C312 1.364 1_556 S
C309 C290 1.429 . S
C309 C303 1.429 . S
C309 C310 1.523 . S
C310 C291 1.368 . S
C310 C304 1.368 . S
C310 C309 1.523 . S
C311 C295 1.429 . S
C311 C307 1.429 . S
C311 C312 1.528 . S
C312 C296 1.369 . S
C312 C308 1.364 1_554 S
C312 C311 1.528 . S
H313 C288 0.950 . S
H314 C290 0.950 . S
H315 C291 0.949 . S
H316 C293 0.950 . S
H317 C295 0.950 . S
C318 C319 1.349 . S
C318 C320 1.327 . S
C318 H343 0.950 . S
C319 C318 1.349 . S
C319 C335 1.349 . S
C320 C318 1.327 . S
C320 C339 1.429 . S
C320 H344 0.950 . S
C321 C338 1.574 . S
C321 C340 1.368 . S
C321 H345 0.949 . S
H322 C326 0.949 . S
C323 C324 1.351 . S
C323 C325 1.317 1_556 S
C323 H346 0.957 . S
C324 C323 1.351 . S
C324 C336 1.349 1_556 S
C325 C323 1.317 1_554 S
C325 C341 1.429 . S
C325 H347 0.950 . S
C326 H322 0.949 . S
C326 C334 1.574 . S
C326 C342 1.368 . S
H327 C335 0.950 . S
H328 C333 0.950 . S
H329 C334 0.949 . S
H330 C336 0.950 . S
H331 C337 0.950 . S
H332 C338 0.949 . S
C333 H328 0.950 . S
C333 C335 1.327 . S
C333 C339 1.429 . S
C334 C326 1.574 . S
C334 H329 0.949 . S
C334 C340 1.368 . S
C335 C319 1.349 . S
C335 H327 0.950 . S
C335 C333 1.327 . S
C336 C324 1.349 1_554 S
C336 H330 0.950 . S
C336 C337 1.327 . S
C337 H331 0.950 . S
C337 C336 1.327 . S
C337 C341 1.429 . S
C338 C321 1.574 . S
C338 H332 0.949 . S
C338 C342 1.368 . S
C339 C320 1.429 . S
C339 C333 1.429 . S
C339 C340 1.523 . S
C340 C321 1.368 . S
C340 C334 1.368 . S
C340 C339 1.523 . S
C341 C325 1.429 . S
C341 C337 1.429 . S
C341 C342 1.523 . S
C342 C326 1.368 . S
C342 C338 1.368 . S
C342 C341 1.523 . S
H343 C318 0.950 . S
H344 C320 0.950 . S
H345 C321 0.949 . S
H346 C323 0.957 . S
H347 C325 0.950 . S
C348 C349 1.349 . S
C348 C350 1.327 . S
C348 H373 0.950 . S
C349 C348 1.349 . S
C349 C365 1.349 . S
C350 C348 1.327 . S
C350 C369 1.429 . S
C350 H374 0.950 . S
C351 C368 1.574 . S
C351 C370 1.368 . S
C351 H375 0.949 . S
H352 C356 0.949 . S
C353 C354 1.349 . S
C353 C355 1.327 . S
C353 H376 0.950 . S
C354 C353 1.349 . S
C354 C366 1.349 . S
C355 C353 1.327 . S
C355 C371 1.429 . S
C355 H377 0.950 . S
C356 H352 0.949 . S
C356 C364 1.574 . S
C356 C372 1.368 . S
H357 C365 0.950 . S
H358 C363 0.950 . S
H359 C364 0.949 . S
H360 C366 0.950 . S
H361 C367 0.950 . S
H362 C368 0.949 . S
C363 H358 0.950 . S
C363 C365 1.327 . S
C363 C369 1.429 . S
C364 C356 1.574 . S
C364 H359 0.949 . S
C364 C370 1.368 . S
C365 C349 1.349 . S
C365 H357 0.950 . S
C365 C363 1.327 . S
C366 C354 1.349 . S
C366 H360 0.950 . S
C366 C367 1.327 . S
C367 H361 0.950 . S
C367 C366 1.327 . S
C367 C371 1.429 . S
C368 C351 1.574 . S
C368 H362 0.949 . S
C368 C372 1.368 . S
C369 C350 1.429 . S
C369 C363 1.429 . S
C369 C370 1.523 . S
C370 C351 1.368 . S
C370 C364 1.368 . S
C370 C369 1.523 . S
C371 C355 1.429 . S
C371 C367 1.429 . S
C371 C372 1.523 . S
C372 C356 1.368 . S
C372 C368 1.368 . S
C372 C371 1.523 . S
H373 C348 0.950 . S
H374 C350 0.950 . S
H375 C351 0.949 . S
H376 C353 0.950 . S
H377 C355 0.950 . S
C378 C379 1.349 . S
C378 C380 1.327 . S
C378 H403 0.950 . S
C379 C378 1.349 . S
C379 C395 1.349 . S
C380 C378 1.327 . S
C380 C399 1.429 . S
C380 H404 0.950 . S
C381 C398 1.574 . S
C381 C400 1.368 . S
C381 H405 0.949 . S
H382 C386 0.949 . S
C383 C384 1.349 . S
C383 C385 1.327 . S
C383 H406 0.950 . S
C384 C383 1.349 . S
C384 C396 1.349 . S
C385 C383 1.327 . S
C385 C401 1.429 . S
C385 H407 0.950 . S
C386 H382 0.949 . S
C386 C394 1.574 . S
C386 C402 1.368 . S
H387 C395 0.950 . S
H388 C393 0.950 . S
H389 C394 0.949 . S
H390 C396 0.950 . S
H391 C397 0.950 . S
H392 C398 0.949 . S
C393 H388 0.950 . S
C393 C395 1.327 . S
C393 C399 1.429 . S
C394 C386 1.574 . S
C394 H389 0.949 . S
C394 C400 1.368 . S
C395 C379 1.349 . S
C395 H387 0.950 . S
C395 C393 1.327 . S
C396 C384 1.349 . S
C396 H390 0.950 . S
C396 C397 1.327 . S
C397 H391 0.950 . S
C397 C396 1.327 . S
C397 C401 1.429 . S
C398 C381 1.574 . S
C398 H392 0.949 . S
C398 C402 1.368 . S
C399 C380 1.429 . S
C399 C393 1.429 . S
C399 C400 1.523 . S
C400 C381 1.368 . S
C400 C394 1.368 . S
C400 C399 1.523 . S
C401 C385 1.429 . S
C401 C397 1.429 . S
C401 C402 1.523 . S
C402 C386 1.368 . S
C402 C398 1.368 . S
C402 C401 1.523 . S
H403 C378 0.950 . S
H404 C380 0.950 . S
H405 C381 0.949 . S
H406 C383 0.950 . S
H407 C385 0.950 . S
C408 C409 1.349 . S
C408 C410 1.327 . S
C408 H433 0.950 . S
C409 C408 1.349 . S
C409 C425 1.349 . S
C410 C408 1.327 . S
C410 C429 1.429 . S
C410 H434 0.950 . S
C411 C428 1.574 . S
C411 C430 1.368 . S
C411 H435 0.949 . S
H412 C416 0.949 . S
C413 C414 1.349 . S
C413 C415 1.327 . S
C413 H436 0.950 . S
C414 C413 1.349 . S
C414 C426 1.349 . S
C415 C413 1.327 . S
C415 C431 1.429 . S
C415 H437 0.950 . S
C416 H412 0.949 . S
C416 C424 1.574 . S
C416 C432 1.368 . S
H417 C425 0.950 . S
H418 C423 0.950 . S
H419 C424 0.949 . S
H420 C426 0.950 . S
H421 C427 0.950 . S
H422 C428 0.949 . S
C423 H418 0.950 . S
C423 C425 1.327 . S
C423 C429 1.429 . S
C424 C416 1.574 . S
C424 H419 0.949 . S
C424 C430 1.368 . S
C425 C409 1.349 . S
C425 H417 0.950 . S
C425 C423 1.327 . S
C426 C414 1.349 . S
C426 H420 0.950 . S
C426 C427 1.327 . S
C427 H421 0.950 . S
C427 C426 1.327 . S
C427 C431 1.429 . S
C428 C411 1.574 . S
C428 H422 0.949 . S
C428 C432 1.368 . S
C429 C410 1.429 . S
C429 C423 1.429 . S
C429 C430 1.523 . S
C430 C411 1.368 . S
C430 C424 1.368 . S
C430 C429 1.523 . S
C431 C415 1.429 . S
C431 C427 1.429 . S
C431 C432 1.523 . S
C432 C416 1.368 . S
C432 C428 1.368 . S
C432 C431 1.523 . S
H433 C408 0.950 . S
H434 C410 0.950 . S
H435 C411 0.949 . S
H436 C413 0.950 . S
H437 C415 0.950 . S
C438 C439 1.349 . S
C438 C440 1.327 . S
C438 H463 0.950 . S
C439 C438 1.349 . S
C439 C455 1.349 . S
C440 C438 1.327 . S
C440 C459 1.429 . S
C440 H464 0.950 . S
C441 C458 1.574 . S
C441 C460 1.368 . S
C441 H465 0.949 . S
H442 C446 0.949 . S
C443 C444 1.349 . S
C443 C445 1.327 . S
C443 H466 0.950 . S
C444 C443 1.349 . S
C444 C456 1.349 . S
C445 C443 1.327 . S
C445 C461 1.429 . S
C445 H467 0.950 . S
C446 H442 0.949 . S
C446 C454 1.574 . S
C446 C462 1.368 . S
H447 C455 0.950 . S
H448 C453 0.950 . S
H449 C454 0.949 . S
H450 C456 0.950 . S
H451 C457 0.950 . S
H452 C458 0.949 . S
C453 H448 0.950 . S
C453 C455 1.327 . S
C453 C459 1.429 . S
C454 C446 1.574 . S
C454 H449 0.949 . S
C454 C460 1.368 . S
C455 C439 1.349 . S
C455 H447 0.950 . S
C455 C453 1.327 . S
C456 C444 1.349 . S
C456 H450 0.950 . S
C456 C457 1.327 . S
C457 H451 0.950 . S
C457 C456 1.327 . S
C457 C461 1.429 . S
C458 C441 1.574 . S
C458 H452 0.949 . S
C458 C462 1.368 . S
C459 C440 1.429 . S
C459 C453 1.429 . S
C459 C460 1.523 . S
C460 C441 1.368 . S
C460 C454 1.368 . S
C460 C459 1.523 . S
C461 C445 1.429 . S
C461 C457 1.429 . S
C461 C462 1.523 . S
C462 C446 1.368 . S
C462 C458 1.368 . S
C462 C461 1.523 . S
H463 C438 0.950 . S
H464 C440 0.950 . S
H465 C441 0.949 . S
H466 C443 0.950 . S
H467 C445 0.950 . S
C468 C469 1.349 . S
C468 C470 1.327 . S
C468 H493 0.950 . S
C469 C468 1.349 . S
C469 C485 1.349 . S
C470 C468 1.327 . S
C470 C489 1.429 . S
C470 H494 0.950 . S
C471 C488 1.574 . S
C471 C490 1.368 . S
C471 H495 0.949 . S
H472 C476 0.949 . S
C473 C474 1.349 . S
C473 C475 1.327 . S
C473 H496 0.950 . S
C474 C473 1.349 . S
C474 C486 1.349 . S
C475 C473 1.327 . S
C475 C491 1.429 . S
C475 H497 0.950 . S
C476 H472 0.949 . S
C476 C484 1.574 . S
C476 C492 1.368 . S
H477 C485 0.950 . S
H478 C483 0.950 . S
H479 C484 0.949 . S
H480 C486 0.950 . S
H481 C487 0.950 . S
H482 C488 0.949 . S
C483 H478 0.950 . S
C483 C485 1.327 . S
C483 C489 1.429 . S
C484 C476 1.574 . S
C484 H479 0.949 . S
C484 C490 1.368 . S
C485 C469 1.349 . S
C485 H477 0.950 . S
C485 C483 1.327 . S
C486 C474 1.349 . S
C486 H480 0.950 . S
C486 C487 1.327 . S
C487 H481 0.950 . S
C487 C486 1.327 . S
C487 C491 1.429 . S
C488 C471 1.574 . S
C488 H482 0.949 . S
C488 C492 1.368 . S
C489 C470 1.429 . S
C489 C483 1.429 . S
C489 C490 1.523 . S
C490 C471 1.368 . S
C490 C484 1.368 . S
C490 C489 1.523 . S
C491 C475 1.429 . S
C491 C487 1.429 . S
C491 C492 1.523 . S
C492 C476 1.368 . S
C492 C488 1.368 . S
C492 C491 1.523 . S
H493 C468 0.950 . S
H494 C470 0.950 . S
H495 C471 0.949 . S
H496 C473 0.950 . S
H497 C475 0.950 . S
C498 C499 1.349 . S
C498 C500 1.327 . S
C498 H523 0.950 . S
C499 C498 1.349 . S
C499 C515 1.349 . S
C500 C498 1.327 . S
C500 C519 1.429 . S
C500 H524 0.950 . S
C501 C518 1.574 1_556 S
C501 C520 1.368 . S
C501 H525 0.949 1_556 S
H502 C506 0.949 . S
C503 C504 1.349 . S
C503 C505 1.327 . S
C503 H526 0.950 . S
C504 C503 1.349 . S
C504 C516 1.349 1_554 S
C505 C503 1.327 . S
C505 C521 1.429 1_554 S
C505 H527 0.950 . S
C506 H502 0.949 . S
C506 C514 1.574 . S
C506 C522 1.368 . S
H507 C515 0.950 . S
H508 C513 0.950 . S
H509 C514 0.949 . S
H510 C516 0.950 . S
H511 C517 0.950 . S
H512 C518 0.949 . S
C513 H508 0.950 . S
C513 C515 1.327 . S
C513 C519 1.429 . S
C514 C506 1.574 . S
C514 H509 0.949 . S
C514 C520 1.368 . S
C515 C499 1.349 . S
C515 H507 0.950 . S
C515 C513 1.327 . S
C516 C504 1.349 1_556 S
C516 H510 0.950 . S
C516 C517 1.327 . S
C517 H511 0.950 . S
C517 C516 1.327 . S
C517 C521 1.429 . S
C518 C501 1.574 1_554 S
C518 H512 0.949 . S
C518 C522 1.368 1_554 S
C519 C500 1.429 . S
C519 C513 1.429 . S
C519 C520 1.523 . S
C520 C501 1.368 . S
C520 C514 1.368 . S
C520 C519 1.523 . S
C521 C505 1.429 1_556 S
C521 C517 1.429 . S
C521 C522 1.523 . S
C522 C506 1.368 . S
C522 C518 1.368 1_556 S
C522 C521 1.523 . S
H523 C498 0.950 . S
H524 C500 0.950 . S
H525 C501 0.949 1_554 S
H526 C503 0.950 . S
H527 C505 0.950 . S
C528 C529 1.349 . S
C528 C530 1.327 . S
C528 H553 0.950 . S
C529 C528 1.349 . S
C529 C545 1.349 . S
C530 C528 1.327 . S
C530 C549 1.429 . S
C530 H554 0.950 . S
C531 C548 1.574 . S
C531 C550 1.368 . S
C531 H555 0.949 . S
H532 C536 0.949 . S
C533 C534 1.349 . S
C533 C535 1.327 . S
C533 H556 0.950 . S
C534 C533 1.349 . S
C534 C546 1.349 . S
C535 C533 1.327 . S
C535 C551 1.429 . S
C535 H557 0.950 . S
C536 H532 0.949 . S
C536 C544 1.574 . S
C536 C552 1.368 . S
H537 C545 0.950 . S
H538 C543 0.950 . S
H539 C544 0.949 . S
H540 C546 0.950 . S
H541 C547 0.950 . S
H542 C548 0.949 . S
C543 H538 0.950 . S
C543 C545 1.327 . S
C543 C549 1.429 . S
C544 C536 1.574 . S
C544 H539 0.949 . S
C544 C550 1.368 . S
C545 C529 1.349 . S
C545 H537 0.950 . S
C545 C543 1.327 . S
C546 C534 1.349 . S
C546 H540 0.950 . S
C546 C547 1.327 . S
C547 H541 0.950 . S
C547 C546 1.327 . S
C547 C551 1.429 . S
C548 C531 1.574 . S
C548 H542 0.949 . S
C548 C552 1.368 . S
C549 C530 1.429 . S
C549 C543 1.429 . S
C549 C550 1.523 . S
C550 C531 1.368 . S
C550 C544 1.368 . S
C550 C549 1.523 . S
C551 C535 1.429 . S
C551 C547 1.429 . S
C551 C552 1.523 . S
C552 C536 1.368 . S
C552 C548 1.368 . S
C552 C551 1.523 . S
H553 C528 0.950 . S
H554 C530 0.950 . S
H555 C531 0.949 . S
H556 C533 0.950 . S
H557 C535 0.950 . S
C558 C559 1.349 . S
C558 C560 1.327 . S
C558 H583 0.950 . S
C559 C558 1.349 . S
C559 C575 1.349 . S
C560 C558 1.327 . S
C560 C579 1.429 . S
C560 H584 0.950 . S
C561 C578 1.574 1_554 S
C561 C580 1.375 . S
C561 H585 0.949 . S
H562 C566 0.949 . S
C563 C564 1.349 . S
C563 C565 1.327 . S
C563 H586 0.950 . S
C564 C563 1.349 . S
C564 C576 1.349 . S
C565 C563 1.327 . S
C565 C581 1.429 . S
C565 H587 0.950 . S
C566 H562 0.949 . S
C566 C574 1.574 . S
C566 C582 1.368 . S
H567 C575 0.950 . S
H568 C573 0.950 . S
H569 C574 0.949 . S
H570 C576 0.950 . S
H571 C577 0.950 . S
H572 C578 0.949 . S
C573 H568 0.950 . S
C573 C575 1.327 . S
C573 C579 1.429 . S
C574 C566 1.574 . S
C574 H569 0.949 . S
C574 C580 1.350 1_556 S
C575 C559 1.349 . S
C575 H567 0.950 . S
C575 C573 1.327 . S
C576 C564 1.349 . S
C576 H570 0.950 . S
C576 C577 1.327 . S
C577 H571 0.950 . S
C577 C576 1.327 . S
C577 C581 1.429 . S
C578 C561 1.574 1_556 S
C578 H572 0.949 . S
C578 C582 1.368 . S
C579 C560 1.429 . S
C579 C573 1.429 . S
C579 C580 1.538 . S
C580 C561 1.375 . S
C580 C574 1.350 1_554 S
C580 C579 1.538 . S
C581 C565 1.429 . S
C581 C577 1.429 . S
C581 C582 1.523 . S
C582 C566 1.368 . S
C582 C578 1.368 . S
C582 C581 1.523 . S
H583 C558 0.950 . S
H584 C560 0.950 . S
H585 C561 0.949 . S
H586 C563 0.950 . S
H587 C565 0.950 . S
C588 C589 1.349 . S
C588 C590 1.327 . S
C588 H613 0.950 . S
C589 C588 1.349 . S
C589 C605 1.349 . S
C590 C588 1.327 . S
C590 C609 1.429 . S
C590 H614 0.950 . S
C591 C608 1.574 . S
C591 C610 1.368 . S
C591 H615 0.949 . S
H592 C596 0.949 . S
C593 C594 1.349 1_554 S
C593 C595 1.327 . S
C593 H616 0.950 . S
C594 C593 1.349 1_556 S
C594 C606 1.348 1_556 S
C595 C593 1.327 . S
C595 C611 1.429 . S
C595 H617 0.950 . S
C596 H592 0.949 . S
C596 C604 1.574 . S
C596 C612 1.368 . S
H597 C605 0.950 . S
H598 C603 0.950 . S
H599 C604 0.949 . S
H600 C606 0.947 1_556 S
H601 C607 0.950 . S
H602 C608 0.949 . S
C603 H598 0.950 . S
C603 C605 1.327 . S
C603 C609 1.429 . S
C604 C596 1.574 . S
C604 H599 0.949 . S
C604 C610 1.368 . S
C605 C589 1.349 . S
C605 H597 0.950 . S
C605 C603 1.327 . S
C606 C594 1.348 1_554 S
C606 H600 0.947 1_554 S
C606 C607 1.331 . S
C607 H601 0.950 . S
C607 C606 1.331 . S
C607 C611 1.429 . S
C608 C591 1.574 . S
C608 H602 0.949 . S
C608 C612 1.368 . S
C609 C590 1.429 . S
C609 C603 1.429 . S
C609 C610 1.523 . S
C610 C591 1.368 . S
C610 C604 1.368 . S
C610 C609 1.523 . S
C611 C595 1.429 . S
C611 C607 1.429 . S
C611 C612 1.523 . S
C612 C596 1.368 . S
C612 C608 1.368 . S
C612 C611 1.523 . S
H613 C588 0.950 . S
H614 C590 0.950 . S
H615 C591 0.949 . S
H616 C593 0.950 . S
H617 C595 0.950 . S
C618 C619 1.349 . S
C618 C620 1.327 . S
C618 H643 0.950 . S
C619 C618 1.349 . S
C619 C635 1.349 . S
C620 C618 1.327 . S
C620 C639 1.429 . S
C620 H644 0.950 . S
C621 C638 1.574 . S
C621 C640 1.368 . S
C621 H645 0.949 . S
H622 C626 0.949 . S
C623 C624 1.349 . S
C623 C625 1.327 . S
C623 H646 0.950 . S
C624 C623 1.349 . S
C624 C636 1.349 . S
C625 C623 1.327 . S
C625 C641 1.429 . S
C625 H647 0.950 . S
C626 H622 0.949 . S
C626 C634 1.574 . S
C626 C642 1.368 . S
H627 C635 0.950 . S
H628 C633 0.950 . S
H629 C634 0.949 . S
H630 C636 0.950 . S
H631 C637 0.950 . S
H632 C638 0.949 . S
C633 H628 0.950 . S
C633 C635 1.327 . S
C633 C639 1.429 . S
C634 C626 1.574 . S
C634 H629 0.949 . S
C634 C640 1.368 . S
C635 C619 1.349 . S
C635 H627 0.950 . S
C635 C633 1.327 . S
C636 C624 1.349 . S
C636 H630 0.950 . S
C636 C637 1.327 . S
C637 H631 0.950 . S
C637 C636 1.327 . S
C637 C641 1.429 . S
C638 C621 1.574 . S
C638 H632 0.949 . S
C638 C642 1.368 . S
C639 C620 1.429 . S
C639 C633 1.429 . S
C639 C640 1.523 . S
C640 C621 1.368 . S
C640 C634 1.368 . S
C640 C639 1.523 . S
C641 C625 1.429 . S
C641 C637 1.429 . S
C641 C642 1.523 . S
C642 C626 1.368 . S
C642 C638 1.368 . S
C642 C641 1.523 . S
H643 C618 0.950 . S
H644 C620 0.950 . S
H645 C621 0.949 . S
H646 C623 0.950 . S
H647 C625 0.950 . S
C648 C649 1.349 . S
C648 C650 1.327 . S
C648 H673 0.950 . S
C649 C648 1.349 . S
C649 C665 1.349 . S
C650 C648 1.327 . S
C650 C669 1.429 . S
C650 H674 0.950 . S
C651 C668 1.574 . S
C651 C670 1.368 . S
C651 H675 0.949 . S
H652 C656 0.949 . S
C653 C654 1.349 . S
C653 C655 1.327 . S
C653 H676 0.950 . S
C654 C653 1.349 . S
C654 C666 1.349 . S
C655 C653 1.327 . S
C655 C671 1.429 . S
C655 H677 0.950 . S
C656 H652 0.949 . S
C656 C664 1.574 . S
C656 C672 1.368 . S
H657 C665 0.950 . S
H658 C663 0.950 . S
H659 C664 0.949 . S
H660 C666 0.950 . S
H661 C667 0.950 . S
H662 C668 0.949 . S
C663 H658 0.950 . S
C663 C665 1.327 . S
C663 C669 1.429 . S
C664 C656 1.574 . S
C664 H659 0.949 . S
C664 C670 1.368 . S
C665 C649 1.349 . S
C665 H657 0.950 . S
C665 C663 1.327 . S
C666 C654 1.349 . S
C666 H660 0.950 . S
C666 C667 1.327 . S
C667 H661 0.950 . S
C667 C666 1.327 . S
C667 C671 1.429 . S
C668 C651 1.574 . S
C668 H662 0.949 . S
C668 C672 1.368 . S
C669 C650 1.429 . S
C669 C663 1.429 . S
C669 C670 1.523 . S
C670 C651 1.368 . S
C670 C664 1.368 . S
C670 C669 1.523 . S
C671 C655 1.429 . S
C671 C667 1.429 . S
C671 C672 1.523 . S
C672 C656 1.368 . S
C672 C668 1.368 . S
C672 C671 1.523 . S
H673 C648 0.950 . S
H674 C650 0.950 . S
H675 C651 0.949 . S
H676 C653 0.950 . S
H677 C655 0.950 . S
C678 C679 1.349 . S
C678 C680 1.327 . S
C678 H703 0.950 . S
C679 C678 1.349 . S
C679 C695 1.349 . S
C680 C678 1.327 . S
C680 C699 1.429 . S
C680 H704 0.950 . S
C681 C698 1.574 . S
C681 C700 1.368 . S
C681 H705 0.949 . S
H682 C686 0.949 . S
C683 C684 1.349 . S
C683 C685 1.327 . S
C683 H706 0.950 . S
C684 C683 1.349 . S
C684 C696 1.349 . S
C685 C683 1.327 . S
C685 C701 1.429 . S
C685 H707 0.950 . S
C686 H682 0.949 . S
C686 C694 1.574 . S
C686 C702 1.368 . S
H687 C695 0.950 . S
H688 C693 0.950 . S
H689 C694 0.949 . S
H690 C696 0.950 . S
H691 C697 0.950 . S
H692 C698 0.949 . S
C693 H688 0.950 . S
C693 C695 1.327 . S
C693 C699 1.429 . S
C694 C686 1.574 . S
C694 H689 0.949 . S
C694 C700 1.368 . S
C695 C679 1.349 . S
C695 H687 0.950 . S
C695 C693 1.327 . S
C696 C684 1.349 . S
C696 H690 0.950 . S
C696 C697 1.327 . S
C697 H691 0.950 . S
C697 C696 1.327 . S
C697 C701 1.429 . S
C698 C681 1.574 . S
C698 H692 0.949 . S
C698 C702 1.368 . S
C699 C680 1.429 . S
C699 C693 1.429 . S
C699 C700 1.523 . S
C700 C681 1.368 . S
C700 C694 1.368 . S
C700 C699 1.523 . S
C701 C685 1.429 . S
C701 C697 1.429 . S
C701 C702 1.523 . S
C702 C686 1.368 . S
C702 C698 1.368 . S
C702 C701 1.523 . S
H703 C678 0.950 . S
H704 C680 0.950 . S
H705 C681 0.949 . S
H706 C683 0.950 . S
H707 C685 0.950 . S
C708 C709 1.349 . S
C708 C710 1.327 . S
C708 H733 0.950 . S
C709 C708 1.349 . S
C709 C725 1.349 . S
C710 C708 1.327 . S
C710 C729 1.429 . S
C710 H734 0.950 . S
C711 C728 1.574 1_455 S
C711 C730 1.368 . S
C711 H735 0.949 . S
H712 C716 0.949 . S
C713 C714 1.349 . S
C713 C715 1.327 . S
C713 H736 0.950 . S
C714 C713 1.349 . S
C714 C726 1.349 . S
C715 C713 1.327 . S
C715 C731 1.429 . S
C715 H737 0.950 . S
C716 H712 0.949 . S
C716 C724 1.574 1_655 S
C716 C732 1.368 . S
H717 C725 0.950 1_554 S
H718 C723 0.950 . S
H719 C724 0.949 . S
H720 C726 0.950 . S
H721 C727 0.950 . S
H722 C728 0.949 . S
C723 H718 0.950 . S
C723 C725 1.327 . S
C723 C729 1.429 . S
C724 C716 1.574 1_455 S
C724 H719 0.949 . S
C724 C730 1.368 . S
C725 C709 1.349 . S
C725 H717 0.950 1_556 S
C725 C723 1.327 . S
C726 C714 1.349 . S
C726 H720 0.950 . S
C726 C727 1.327 . S
C727 H721 0.950 . S
C727 C726 1.327 . S
C727 C731 1.429 . S
C728 C711 1.574 1_655 S
C728 H722 0.949 . S
C728 C732 1.368 . S
C729 C710 1.429 . S
C729 C723 1.429 . S
C729 C730 1.523 . S
C730 C711 1.368 . S
C730 C724 1.368 . S
C730 C729 1.523 . S
C731 C715 1.429 . S
C731 C727 1.429 . S
C731 C732 1.523 . S
C732 C716 1.368 . S
C732 C728 1.368 . S
C732 C731 1.523 . S
H733 C708 0.950 . S
H734 C710 0.950 . S
H735 C711 0.949 . S
H736 C713 0.950 . S
H737 C715 0.950 . S
C738 C739 1.349 . S
C738 C740 1.327 1_556 S
C738 H763 0.950 1_556 S
C739 C738 1.349 . S
C739 C755 1.349 . S
C740 C738 1.327 1_554 S
C740 C759 1.426 1_554 S
C740 H764 0.950 . S
C741 C758 1.574 1_565 S
C741 C760 1.368 . S
C741 H765 0.949 1_554 S
H742 C746 0.949 . S
C743 C744 1.349 . S
C743 C745 1.327 . S
C743 H766 0.950 . S
C744 C743 1.349 . S
C744 C756 1.349 . S
C745 C743 1.327 . S
C745 C761 1.429 . S
C745 H767 0.950 . S
C746 H742 0.949 . S
C746 C754 1.574 1_545 S
C746 C762 1.368 . S
H747 C755 0.950 . S
H748 C753 0.950 . S
H749 C754 0.949 . S
H750 C756 0.950 . S
H751 C757 0.950 . S
H752 C758 0.949 . S
C753 H748 0.950 . S
C753 C755 1.327 . S
C753 C759 1.435 . S
C754 C746 1.574 1_565 S
C754 H749 0.949 . S
C754 C760 1.368 . S
C755 C739 1.349 . S
C755 H747 0.950 . S
C755 C753 1.327 . S
C756 C744 1.349 . S
C756 H750 0.950 . S
C756 C757 1.327 . S
C757 H751 0.950 . S
C757 C756 1.327 . S
C757 C761 1.429 . S
C758 C741 1.574 1_545 S
C758 H752 0.949 . S
C758 C762 1.368 . S
C759 C740 1.426 1_556 S
C759 C753 1.435 . S
C759 C760 1.519 1_556 S
C760 C741 1.368 . S
C760 C754 1.368 . S
C760 C759 1.519 1_554 S
C761 C745 1.429 . S
C761 C757 1.429 . S
C761 C762 1.523 . S
C762 C746 1.368 . S
C762 C758 1.368 . S
C762 C761 1.523 . S
H763 C738 0.950 1_554 S
H764 C740 0.950 . S
H765 C741 0.949 1_556 S
H766 C743 0.950 . S
H767 C745 0.950 . S
C768 C769 1.349 . S
C768 C770 1.327 . S
C768 H793 0.950 . S
C769 C768 1.349 . S
C769 C785 1.349 . S
C770 C768 1.327 . S
C770 C789 1.429 . S
C770 H794 0.950 . S
C771 C788 1.574 . S
C771 C790 1.368 . S
C771 H795 0.949 . S
H772 C776 0.949 . S
C773 C774 1.349 . S
C773 C775 1.327 . S
C773 H796 0.950 . S
C774 C773 1.349 . S
C774 C786 1.349 . S
C775 C773 1.327 . S
C775 C791 1.429 . S
C775 H797 0.950 . S
C776 H772 0.949 . S
C776 C784 1.574 . S
C776 C792 1.368 . S
H777 C785 0.950 . S
H778 C783 0.950 . S
H779 C784 0.949 . S
H780 C786 0.950 . S
H781 C787 0.950 . S
H782 C788 0.949 . S
C783 H778 0.950 . S
C783 C785 1.327 . S
C783 C789 1.429 . S
C784 C776 1.574 . S
C784 H779 0.949 . S
C784 C790 1.368 . S
C785 C769 1.349 . S
C785 H777 0.950 . S
C785 C783 1.327 . S
C786 C774 1.349 . S
C786 H780 0.950 . S
C786 C787 1.327 . S
C787 H781 0.950 . S
C787 C786 1.327 . S
C787 C791 1.429 . S
C788 C771 1.574 . S
C788 H782 0.949 . S
C788 C792 1.368 . S
C789 C770 1.429 . S
C789 C783 1.429 . S
C789 C790 1.523 . S
C790 C771 1.368 . S
C790 C784 1.368 . S
C790 C789 1.523 . S
C791 C775 1.429 . S
C791 C787 1.429 . S
C791 C792 1.523 . S
C792 C776 1.368 . S
C792 C788 1.368 . S
C792 C791 1.523 . S
H793 C768 0.950 . S
H794 C770 0.950 . S
H795 C771 0.949 . S
H796 C773 0.950 . S
H797 C775 0.950 . S
C798 C799 1.349 . S
C798 C800 1.327 . S
C798 H823 0.950 . S
C799 C798 1.349 . S
C799 C815 1.349 . S
C800 C798 1.327 . S
C800 C819 1.429 . S
C800 H824 0.950 . S
C801 C818 1.574 1_455 S
C801 C820 1.368 . S
C801 H825 0.949 . S
H802 C806 0.949 . S
C803 C804 1.349 . S
C803 C805 1.327 . S
C803 H826 0.950 . S
C804 C803 1.349 . S
C804 C816 1.349 . S
C805 C803 1.327 . S
C805 C821 1.429 . S
C805 H827 0.950 . S
C806 H802 0.949 . S
C806 C814 1.574 1_655 S
C806 C822 1.368 . S
H807 C815 0.950 . S
H808 C813 0.950 . S
H809 C814 0.949 . S
H810 C816 0.950 . S
H811 C817 0.950 . S
H812 C818 0.949 . S
C813 H808 0.950 . S
C813 C815 1.327 . S
C813 C819 1.429 . S
C814 C806 1.574 1_455 S
C814 H809 0.949 . S
C814 C820 1.368 . S
C815 C799 1.349 . S
C815 H807 0.950 . S
C815 C813 1.327 . S
C816 C804 1.349 . S
C816 H810 0.950 . S
C816 C817 1.327 . S
C817 H811 0.950 . S
C817 C816 1.327 . S
C817 C821 1.429 . S
C818 C801 1.574 1_655 S
C818 H812 0.949 . S
C818 C822 1.368 . S
C819 C800 1.429 . S
C819 C813 1.429 . S
C819 C820 1.523 . S
C820 C801 1.368 . S
C820 C814 1.368 . S
C820 C819 1.523 . S
C821 C805 1.429 . S
C821 C817 1.429 . S
C821 C822 1.523 . S
C822 C806 1.368 . S
C822 C818 1.368 . S
C822 C821 1.523 . S
H823 C798 0.950 . S
H824 C800 0.950 . S
H825 C801 0.949 . S
H826 C803 0.950 . S
H827 C805 0.950 . S
C828 C829 1.349 . S
C828 C830 1.327 . S
C828 H853 0.950 . S
C829 C828 1.349 . S
C829 C845 1.349 . S
C830 C828 1.327 . S
C830 C849 1.429 . S
C830 H854 0.950 . S
C831 C848 1.537 1_545 S
C831 C850 1.408 . S
C831 H855 0.948 . S
H832 C836 0.948 . S
C833 C834 1.349 . S
C833 C835 1.327 . S
C833 H856 0.950 . S
C834 C833 1.349 . S
C834 C846 1.349 . S
C835 C833 1.327 . S
C835 C851 1.429 . S
C835 H857 0.950 . S
C836 H832 0.948 . S
C836 C844 1.538 1_565 S
C836 C852 1.407 . S
H837 C845 0.950 . S
H838 C843 0.950 . S
H839 C844 0.949 . S
H840 C846 0.950 . S
H841 C847 0.950 . S
H842 C848 0.949 . S
C843 H838 0.950 . S
C843 C845 1.327 . S
C843 C849 1.429 . S
C844 C836 1.538 1_545 S
C844 H839 0.949 . S
C844 C850 1.368 . S
C845 C829 1.349 . S
C845 H837 0.950 . S
C845 C843 1.327 . S
C846 C834 1.349 . S
C846 H840 0.950 . S
C846 C847 1.327 . S
C847 H841 0.950 . S
C847 C846 1.327 . S
C847 C851 1.429 . S
C848 C831 1.537 1_565 S
C848 H842 0.949 . S
C848 C852 1.368 . S
C849 C830 1.429 . S
C849 C843 1.429 . S
C849 C850 1.523 . S
C850 C831 1.408 . S
C850 C844 1.368 . S
C850 C849 1.523 . S
C851 C835 1.429 . S
C851 C847 1.429 . S
C851 C852 1.523 . S
C852 C836 1.407 . S
C852 C848 1.368 . S
C852 C851 1.523 . S
H853 C828 0.950 . S
H854 C830 0.950 . S
H855 C831 0.948 . S
H856 C833 0.950 . S
H857 C835 0.950 . S
C858 C859 1.349 . S
C858 C860 1.327 . S
C858 H883 0.950 . S
C859 C858 1.349 . S
C859 C875 1.349 . S
C860 C858 1.327 . S
C860 C879 1.429 . S
C860 H884 0.950 . S
C861 C878 1.574 . S
C861 C880 1.368 . S
C861 H885 0.949 . S
H862 C866 0.949 . S
C863 C864 1.349 . S
C863 C865 1.327 . S
C863 H886 0.950 . S
C864 C863 1.349 . S
C864 C876 1.349 . S
C865 C863 1.327 . S
C865 C881 1.429 . S
C865 H887 0.950 . S
C866 H862 0.949 . S
C866 C874 1.574 . S
C866 C882 1.368 . S
H867 C875 0.950 . S
H868 C873 0.950 . S
H869 C874 0.949 . S
H870 C876 0.950 . S
H871 C877 0.950 . S
H872 C878 0.949 . S
C873 H868 0.950 . S
C873 C875 1.327 . S
C873 C879 1.429 . S
C874 C866 1.574 . S
C874 H869 0.949 . S
C874 C880 1.368 . S
C875 C859 1.349 . S
C875 H867 0.950 . S
C875 C873 1.327 . S
C876 C864 1.349 . S
C876 H870 0.950 . S
C876 C877 1.327 . S
C877 H871 0.950 . S
C877 C876 1.327 . S
C877 C881 1.429 . S
C878 C861 1.574 . S
C878 H872 0.949 . S
C878 C882 1.368 . S
C879 C860 1.429 . S
C879 C873 1.429 . S
C879 C880 1.523 . S
C880 C861 1.368 . S
C880 C874 1.368 . S
C880 C879 1.523 . S
C881 C865 1.429 . S
C881 C877 1.429 . S
C881 C882 1.523 . S
C882 C866 1.368 . S
C882 C878 1.368 . S
C882 C881 1.523 . S
H883 C858 0.950 . S
H884 C860 0.950 . S
H885 C861 0.949 . S
H886 C863 0.950 . S
H887 C865 0.950 . S
C169 C5 1.525 . S
C174 C145 1.525 . S
C199 C159 1.526 . S
C204 C19 1.526 . S
C229 C33 1.526 . S
C234 C89 1.526 . S
C259 C47 1.526 . S
C264 C103 1.526 . S
C289 C61 1.526 . S
C294 C117 1.526 . S
C319 C131 1.526 . S
C324 C75 1.526 . S
C349 C9 1.622 . S
C354 C121 1.622 . S
C379 C23 1.622 . S
C384 C135 1.622 . S
C409 C149 1.622 . S
C414 C37 1.622 . S
C439 C51 1.622 . S
C444 C163 1.622 . S
C469 C65 1.622 . S
C474 C93 1.622 . S
C499 C79 1.622 . S
C504 C107 1.622 . S
C529 C140 1.210 . S
C534 C0 1.210 . S
C559 C14 1.211 . S
C564 C154 1.211 . S
C589 C28 1.210 . S
C594 C84 1.210 . S
C619 C42 1.210 . S
C624 C98 1.210 . S
C649 C112 1.211 . S
C654 C56 1.211 . S
C679 C70 1.210 . S
C684 C126 1.210 . S
C709 C11 1.366 1_556 S
C714 C165 1.366 . S
C739 C95 1.367 . S
C744 C25 1.367 . S
C769 C109 1.366 . S
C774 C39 1.366 . S
C799 C123 1.366 . S
C804 C53 1.366 . S
C829 C137 1.367 . S
C834 C67 1.367 . S
C859 C151 1.366 . S
C864 C81 1.366 . S
