# Generated by pormake.
# Topology nfc, (4)-cn, num edge types: 1
# Building blocks:
#     Node 0, Type 0, BuildingBlock: NAWXER_clean_sbu_0, # of connection points: 4
#     Node 1, Type 0, BuildingBlock: NAWXER_clean_sbu_0, # of connection points: 4
#     Node 2, Type 0, BuildingBlock: NAWXER_clean_sbu_0, # of connection points: 4
#     Node 3, Type 0, BuildingBlock: NAWXER_clean_sbu_0, # of connection points: 4
#     Node 4, Type 0, BuildingBlock: NAWXER_clean_sbu_0, # of connection points: 4
#     Node 5, Type 0, BuildingBlock: NAWXER_clean_sbu_0, # of connection points: 4
#     Node 6, Type 0, BuildingBlock: NAWXER_clean_sbu_0, # of connection points: 4
#     Node 7, Type 0, BuildingBlock: NAWXER_clean_sbu_0, # of connection points: 4
#     Node 8, Type 0, BuildingBlock: NAWXER_clean_sbu_0, # of connection points: 4
#     Node 9, Type 0, BuildingBlock: NAWXER_clean_sbu_0, # of connection points: 4
#     Node 10, Type 0, BuildingBlock: NAWXER_clean_sbu_0, # of connection points: 4
#     Node 11, Type 0, BuildingBlock: NAWXER_clean_sbu_0, # of connection points: 4
#     Node 12, Type 0, BuildingBlock: NAWXER_clean_sbu_0, # of connection points: 4
#     Node 13, Type 0, BuildingBlock: NAWXER_clean_sbu_0, # of connection points: 4
#     Node 14, Type 0, BuildingBlock: NAWXER_clean_sbu_0, # of connection points: 4
#     Node 15, Type 0, BuildingBlock: NAWXER_clean_sbu_0, # of connection points: 4
#     Edge 16, Type (0, 0), BuildingBlock: KIFKEQ_clean_linker_1, # of connection points: 2
#     Edge 17, Type (0, 0), BuildingBlock: KIFKEQ_clean_linker_1, # of connection points: 2
#     Edge 18, Type (0, 0), BuildingBlock: KIFKEQ_clean_linker_1, # of connection points: 2
#     Edge 19, Type (0, 0), BuildingBlock: KIFKEQ_clean_linker_1, # of connection points: 2
#     Edge 20, Type (0, 0), BuildingBlock: KIFKEQ_clean_linker_1, # of connection points: 2
#     Edge 21, Type (0, 0), BuildingBlock: KIFKEQ_clean_linker_1, # of connection points: 2
#     Edge 22, Type (0, 0), BuildingBlock: KIFKEQ_clean_linker_1, # of connection points: 2
#     Edge 23, Type (0, 0), BuildingBlock: KIFKEQ_clean_linker_1, # of connection points: 2
#     Edge 24, Type (0, 0), BuildingBlock: KIFKEQ_clean_linker_1, # of connection points: 2
#     Edge 25, Type (0, 0), BuildingBlock: KIFKEQ_clean_linker_1, # of connection points: 2
#     Edge 26, Type (0, 0), BuildingBlock: KIFKEQ_clean_linker_1, # of connection points: 2
#     Edge 27, Type (0, 0), BuildingBlock: KIFKEQ_clean_linker_1, # of connection points: 2
#     Edge 28, Type (0, 0), BuildingBlock: KIFKEQ_clean_linker_1, # of connection points: 2
#     Edge 29, Type (0, 0), BuildingBlock: KIFKEQ_clean_linker_1, # of connection points: 2
#     Edge 30, Type (0, 0), BuildingBlock: KIFKEQ_clean_linker_1, # of connection points: 2
#     Edge 31, Type (0, 0), BuildingBlock: KIFKEQ_clean_linker_1, # of connection points: 2
#     Edge 32, Type (0, 0), BuildingBlock: KIFKEQ_clean_linker_1, # of connection points: 2
#     Edge 33, Type (0, 0), BuildingBlock: KIFKEQ_clean_linker_1, # of connection points: 2
#     Edge 34, Type (0, 0), BuildingBlock: KIFKEQ_clean_linker_1, # of connection points: 2
#     Edge 35, Type (0, 0), BuildingBlock: KIFKEQ_clean_linker_1, # of connection points: 2
#     Edge 36, Type (0, 0), BuildingBlock: KIFKEQ_clean_linker_1, # of connection points: 2
#     Edge 37, Type (0, 0), BuildingBlock: KIFKEQ_clean_linker_1, # of connection points: 2
#     Edge 38, Type (0, 0), BuildingBlock: KIFKEQ_clean_linker_1, # of connection points: 2
#     Edge 39, Type (0, 0), BuildingBlock: KIFKEQ_clean_linker_1, # of connection points: 2
#     Edge 40, Type (0, 0), BuildingBlock: KIFKEQ_clean_linker_1, # of connection points: 2
#     Edge 41, Type (0, 0), BuildingBlock: KIFKEQ_clean_linker_1, # of connection points: 2
#     Edge 42, Type (0, 0), BuildingBlock: KIFKEQ_clean_linker_1, # of connection points: 2
#     Edge 43, Type (0, 0), BuildingBlock: KIFKEQ_clean_linker_1, # of connection points: 2
#     Edge 44, Type (0, 0), BuildingBlock: KIFKEQ_clean_linker_1, # of connection points: 2
#     Edge 45, Type (0, 0), BuildingBlock: KIFKEQ_clean_linker_1, # of connection points: 2
#     Edge 46, Type (0, 0), BuildingBlock: KIFKEQ_clean_linker_1, # of connection points: 2
#     Edge 47, Type (0, 0), BuildingBlock: KIFKEQ_clean_linker_1, # of connection points: 2
# Relax obj value: 0.157
# Max RMSD: 0.167
# Mean RMSD: 0.167
data_MOF--net-nfc--node1-NAWXER_clean_sbu_0--edge1-KIFKEQ_clean_linker_1
_symmetry_space_group_name_H-M    P1
_symmetry_Int_Tables_number       1
_symmetry_cell_setting            triclinic
loop_
_symmetry_equiv_pos_as_xyz
'x, y, z'
_cell_length_a     37.572842
_cell_length_b     37.55883
_cell_length_c     27.833606
_cell_angle_alpha  89.936135
_cell_angle_beta   89.980179
_cell_angle_gamma 90.073204
loop_
_atom_site_label
_atom_site_type_symbol
_atom_site_fract_x
_atom_site_fract_y
_atom_site_fract_z
_atom_type_partial_charge
C0 C 0.0898 0.06405 0.04023 0.0
C1 C 0.993 0.99307 0.96889 0.0
O2 O 0.06109 0.0745 0.0207 0.0
Zn3 Zn 0.04023 0.02873 0.00591 0.0
O4 O 0.09587 0.03044 0.04332 0.0
Zn5 Zn 0.06853 0.98177 0.02257 0.0
O6 O 0.09954 0.95942 0.97626 0.0
O7 O 0.0733 1.0081 0.94939 0.0
O8 O 0.01834 0.97418 0.98621 0.0
O9 O 0.99419 0.02678 0.97341 0.0
O10 O 0.02822 1.00606 0.07523 0.0
O11 O 0.06003 0.9569 0.08183 0.0
C12 C 0.09359 0.98119 0.94223 0.0
C13 C 0.03729 0.97829 0.09916 0.0
C14 C 0.2608 0.78119 0.3019 0.0
C15 C 0.33285 0.68708 0.22547 0.0
O16 O 0.24954 0.75212 0.28393 0.0
Zn17 Zn 0.29537 0.73181 0.26566 0.0
O18 O 0.29437 0.78732 0.30306 0.0
Zn19 Zn 0.34283 0.76102 0.28303 0.0
O20 O 0.36383 0.794 0.23772 0.0
O21 O 0.31428 0.76827 0.21191 0.0
O22 O 0.35078 0.71288 0.24339 0.0
O23 O 0.29922 0.68614 0.23117 0.0
O24 O 0.31795 0.71904 0.33332 0.0
O25 O 0.36605 0.75169 0.34411 0.0
C26 C 0.34037 0.78975 0.20524 0.0
C27 C 0.34456 0.72806 0.35932 0.0
C28 C 0.55533 0.97297 0.57717 0.0
C29 C 0.51604 0.95838 0.41133 0.0
O30 O 0.5321 0.99565 0.56323 0.0
Zn31 Zn 0.49981 1.0072 0.50271 0.0
O32 O 0.56501 0.94794 0.54928 0.0
Zn33 Zn 0.53534 0.96215 0.49511 0.0
O34 O 0.55755 0.01246 0.47553 0.0
O35 O 0.51699 0.05453 0.48383 0.0
O36 O 0.53844 0.93865 0.43293 0.0
O37 O 0.50011 0.98325 0.43404 0.0
O38 O 0.45163 0.99811 0.52784 0.0
O39 O 0.48363 0.94923 0.52147 0.0
C40 C 0.54833 0.04513 0.4716 0.0
C41 C 0.45444 0.96456 0.53322 0.0
C42 C 0.2473 0.23433 0.80457 0.0
C43 C 0.1666 0.3227 0.73087 0.0
O44 O 0.26316 0.26255 0.78977 0.0
Zn45 Zn 0.2498 0.3121 0.75582 0.0
O46 O 0.21374 0.23189 0.79959 0.0
Zn47 Zn 0.20566 0.27797 0.76816 0.0
O48 O 0.23093 0.27231 0.69956 0.0
O49 O 0.27575 0.31032 0.69696 0.0
O50 O 0.15806 0.29229 0.74762 0.0
O51 O 0.19921 0.33272 0.73233 0.0
O52 O 0.26404 0.3471 0.80176 0.0
O53 O 0.21682 0.31603 0.8239 0.0
C54 C 0.25704 0.28645 0.6768 0.0
C55 C 0.23951 0.3409 0.83202 0.0
C56 C 1.00409 0.03661 0.53456 0.0
C57 C 0.09357 0.95499 0.46514 0.0
O58 O 0.99558 1.00357 0.53683 0.0
Zn59 Zn 0.01837 0.95267 0.52088 0.0
O60 O 0.03441 0.04541 0.51784 0.0
Zn61 Zn 0.05156 0.99745 0.50214 0.0
O62 O 0.01485 0.97986 0.44817 0.0
O63 O 0.9848 0.93307 0.47506 0.0
O64 O 0.09716 0.98862 0.46914 0.0
O65 O 0.06619 0.93971 0.48323 0.0
O66 O 0.02519 0.93076 0.58382 0.0
O67 O 0.06175 0.97565 0.57082 0.0
C68 C 0.99159 0.95533 0.44174 0.0
C69 C 0.05047 0.95063 0.59812 0.0
C70 C 0.31651 0.75394 0.86136 0.0
C71 C 0.31278 0.69772 0.70481 0.0
O72 O 0.28868 0.76323 0.83773 0.0
Zn73 Zn 0.26573 0.75177 0.76834 0.0
O74 O 0.33782 0.73127 0.84368 0.0
Zn75 Zn 0.31282 0.72325 0.78473 0.0
O76 O 0.32046 0.77356 0.74903 0.0
O77 O 0.26828 0.79836 0.73584 0.0
O78 O 0.33476 0.69201 0.73861 0.0
O79 O 0.28609 0.71835 0.71191 0.0
O80 O 0.2199 0.7303 0.78387 0.0
O81 O 0.26445 0.69595 0.80579 0.0
C82 C 0.30205 0.79934 0.73193 0.0
C83 C 0.2308 0.70162 0.80319 0.0
C84 C 0.48018 0.95173 0.02793 0.0
C85 C 0.40513 0.04746 0.96018 0.0
O86 O 0.49594 0.98143 0.02011 0.0
Zn87 Zn 0.48536 0.0339 0.99344 0.0
O88 O 0.44801 0.94756 0.01433 0.0
Zn89 Zn 0.44237 0.99706 0.99107 0.0
O90 O 0.4768 0.99648 0.92904 0.0
O91 O 0.51795 0.0375 0.94064 0.0
O92 O 0.39647 0.01518 0.96758 0.0
O93 O 0.43714 0.05731 0.96885 0.0
O94 O 0.49706 0.05916 0.05108 0.0
O95 O 0.45119 0.0228 0.05967 0.0
C96 C 0.50483 0.01298 0.91476 0.0
C97 C 0.47419 0.0441 0.07803 0.0
C98 C 0.33541 0.33693 0.26423 0.0
C99 C 0.25252 0.24892 0.19246 0.0
O100 O 0.30249 0.34579 0.26612 0.0
Zn101 Zn 0.2514 0.32529 0.24498 0.0
O102 O 0.34396 0.30763 0.2443 0.0
Zn103 Zn 0.29561 0.29206 0.22763 0.0
O104 O 0.28106 0.33061 0.17448 0.0
O105 O 0.2347 0.36099 0.20097 0.0
O106 O 0.28626 0.2465 0.19499 0.0
O107 O 0.23727 0.27661 0.20975 0.0
O108 O 0.22798 0.32117 0.30559 0.0
O109 O 0.27321 0.28411 0.29758 0.0
C110 C 0.2578 0.3552 0.16858 0.0
C111 C 0.24783 0.297 0.32294 0.0
C112 C 0.7364 0.29165 0.74393 0.0
C113 C 0.8188 0.20507 0.67201 0.0
O114 O 0.72078 0.26481 0.72485 0.0
Zn115 Zn 0.73456 0.21672 0.68731 0.0
O116 O 0.77007 0.29461 0.74038 0.0
Zn117 Zn 0.77799 0.25025 0.70571 0.0
O118 O 0.75483 0.2613 0.6369 0.0
O119 O 0.71127 0.22286 0.62586 0.0
O120 O 0.82618 0.2353 0.68991 0.0
O121 O 0.78614 0.1951 0.66963 0.0
O122 O 0.71507 0.18289 0.73282 0.0
O123 O 0.7609 0.21353 0.76063 0.0
C124 C 0.72958 0.24902 0.6107 0.0
C125 C 0.73623 0.19035 0.76705 0.0
C126 C 0.73717 0.73427 0.31254 0.0
C127 C 0.64606 0.80436 0.22826 0.0
O128 O 0.74918 0.76417 0.29733 0.0
Zn129 Zn 0.7289 0.80948 0.25957 0.0
O130 O 0.70482 0.72628 0.30469 0.0
Zn131 Zn 0.69041 0.76955 0.27148 0.0
O132 O 0.71716 0.76763 0.20227 0.0
O133 O 0.75667 0.81115 0.20236 0.0
O134 O 0.64119 0.77472 0.24953 0.0
O135 O 0.67664 0.81951 0.23054 0.0
O136 O 0.73539 0.84792 0.30365 0.0
O137 O 0.69394 0.80994 0.32671 0.0
C138 C 0.74124 0.78582 0.18047 0.0
C139 C 0.71218 0.83836 0.33417 0.0
C140 C 0.72417 0.28452 0.26534 0.0
C141 C 0.70998 0.21887 0.11448 0.0
O142 O 0.70164 0.2916 0.23251 0.0
Zn143 Zn 0.71616 0.25364 0.18902 0.0
O144 O 0.74646 0.25911 0.2595 0.0
Zn145 Zn 0.75905 0.2183 0.20901 0.0
O146 O 0.80795 0.23101 0.19026 0.0
O147 O 0.7679 0.26981 0.16552 0.0
O148 O 0.73503 0.207 0.1413 0.0
O149 O 0.69152 0.24523 0.12866 0.0
O150 O 0.70079 0.20987 0.23261 0.0
O151 O 0.74726 0.17597 0.24811 0.0
C152 C 0.80039 0.25948 0.16752 0.0
C153 C 0.7143 0.18283 0.25374 0.0
C154 C 0.73133 0.77347 0.69187 0.0
C155 C 0.81115 0.8602 0.76889 0.0
O156 O 0.71488 0.80029 0.70968 0.0
Zn157 Zn 0.72744 0.84788 0.74927 0.0
O158 O 0.76481 0.77081 0.69756 0.0
Zn159 Zn 0.77202 0.81574 0.73115 0.0
O160 O 0.75002 0.80554 0.80057 0.0
O161 O 0.70408 0.84133 0.81031 0.0
O162 O 0.81973 0.8315 0.7476 0.0
O163 O 0.77822 0.86904 0.7712 0.0
O164 O 0.7094 0.88353 0.7056 0.0
O165 O 0.75572 0.85369 0.6778 0.0
C166 C 0.72449 0.81723 0.82664 0.0
C167 C 0.73155 0.87743 0.67207 0.0
C168 C 0.51353 0.5012 0.42725 0.0
C169 C 0.59225 0.59221 0.49833 0.0
O170 O 0.50802 0.53452 0.43052 0.0
Zn171 Zn 0.55201 0.54797 0.46303 0.0
O172 O 0.54236 0.48822 0.4446 0.0
Zn173 Zn 0.5895 0.50727 0.48004 0.0
O174 O 0.58822 0.48482 0.54228 0.0
O175 O 0.54685 0.52594 0.53313 0.0
O176 O 0.60512 0.56061 0.49961 0.0
O177 O 0.56164 0.5974 0.47999 0.0
O178 O 0.59187 0.53783 0.40991 0.0
O179 O 0.62649 0.49412 0.43534 0.0
C180 C 0.5625 0.50274 0.55938 0.0
C181 C 0.61851 0.51704 0.4035 0.0
C182 C 0.99081 0.52509 0.0707 0.0
C183 C 0.948 0.50383 0.90953 0.0
O184 O 0.96791 0.54298 0.04734 0.0
Zn185 Zn 0.9732 0.51873 0.98728 0.0
O186 O 1.00953 0.50153 0.04894 0.0
Zn187 Zn 1.01196 0.47816 0.97819 0.0
O188 O 0.05821 0.49314 0.95099 0.0
O189 O 0.02197 0.53857 0.9589 0.0
O190 O 0.97434 0.48359 0.92014 0.0
O191 O 0.9392 0.52894 0.93759 0.0
O192 O 0.95779 0.46567 0.00943 0.0
O193 O 1.00222 0.42842 -0.00327 0.0
C194 C 0.05235 0.52631 0.94628 0.0
C195 C 0.9707 0.43411 0.01201 0.0
C196 C 0.49854 0.52441 0.0429 0.0
C197 C 0.58513 0.4477 0.95874 0.0
O198 O 0.49468 0.49152 0.03328 0.0
Zn199 Zn 0.54064 0.48428 0.00074 0.0
O200 O 0.52672 0.54059 0.02881 0.0
Zn201 Zn 0.57459 0.52949 0.9906 0.0
O202 O 0.57124 0.55723 0.93274 0.0
O203 O 0.53457 0.51127 0.93368 0.0
O204 O 0.5943 0.48043 0.9624 0.0
O205 O 0.55568 0.43746 0.97693 0.0
O206 O 0.57943 0.49365 0.05612 0.0
O207 O 0.61082 0.54133 0.03649 0.0
C208 C 0.54812 0.53805 0.91173 0.0
C209 C 0.6046 0.51578 0.0653 0.0
C210 C 0.9927 0.48256 0.55393 0.0
C211 C 0.90255 0.56371 0.48533 0.0
O212 O 0.99532 0.51632 0.55121 0.0
Zn213 Zn 0.94971 0.52511 0.51863 0.0
O214 O 0.96585 0.46694 0.53499 0.0
Zn215 Zn 0.91794 0.47983 0.49776 0.0
O216 O 0.92437 0.46012 0.43405 0.0
O217 O 0.95927 0.50631 0.44793 0.0
O218 O 0.89527 0.5305 0.48133 0.0
O219 O 0.93149 0.57308 0.5056 0.0
O220 O 0.91284 0.50587 0.57095 0.0
O221 O 0.88369 0.45929 0.542 0.0
C222 C 0.94797 0.48197 0.41961 0.0
C223 C 0.8897 0.48108 0.57604 0.0
H224 H 0.02268 0.91404 0.14049 0.0
H225 H 0.01569 0.02721 0.1646 0.0
H226 H 0.99761 0.9029 0.21988 0.0
H227 H 0.99354 0.01663 0.24511 0.0
H228 H 0.95102 0.99893 0.38661 0.0
H229 H 0.95152 1.00024 0.29904 0.0
H230 H 0.01315 0.90284 0.29845 0.0
H231 H 1.00923 0.90026 0.38524 0.0
C232 C 0.01598 0.93652 0.1631 0.0
C233 C 0.02137 0.97146 0.14673 0.0
C234 C 1.00171 0.93022 0.20877 0.0
C235 C 0.99356 0.95875 0.23974 0.0
C236 C 0.99846 0.99376 0.22249 0.0
C237 C 1.01169 0.99998 0.17636 0.0
C238 C 0.96285 0.97689 0.36726 0.0
C239 C 0.97977 0.94933 0.39228 0.0
C240 C 0.964 0.97798 0.31708 0.0
C241 C 0.98361 0.95241 0.29113 0.0
C242 C 0.99762 0.92306 0.31645 0.0
C243 C 0.99532 0.92138 0.3665 0.0
H244 H 0.38758 0.75015 0.4333 0.0
H245 H 0.30869 0.67112 0.39566 0.0
H246 H 0.38423 0.73109 0.51717 0.0
H247 H 0.3057 0.65197 0.47908 0.0
H248 H 0.26572 0.68762 0.63217 0.0
H249 H 0.27933 0.68543 0.54684 0.0
H250 H 0.39173 0.68251 0.57919 0.0
H251 H 0.37798 0.68462 0.66515 0.0
C252 C 0.37023 0.72816 0.44267 0.0
C253 C 0.34789 0.71265 0.40804 0.0
C254 C 0.36846 0.71708 0.49065 0.0
C255 C 0.34436 0.6903 0.50472 0.0
C256 C 0.3241 0.67302 0.46939 0.0
C257 C 0.32584 0.68406 0.42161 0.0
C258 C 0.29329 0.68534 0.62114 0.0
C259 C 0.32077 0.68649 0.65522 0.0
C260 C 0.30113 0.684 0.57223 0.0
C261 C 0.33665 0.68417 0.55633 0.0
C262 C 0.36414 0.68269 0.5905 0.0
C263 C 0.35624 0.68352 0.63964 0.0
H264 H 0.48484 0.96038 0.85272 0.0
H265 H 0.56404 0.04254 0.87321 0.0
H266 H 0.51054 0.94632 0.77486 0.0
H267 H 0.59017 0.02797 0.79538 0.0
H268 H 0.57019 0.03229 0.62762 0.0
H269 H 0.56788 0.03812 0.7144 0.0
H270 H 0.56161 0.92366 0.72829 0.0
H271 H 0.5637 0.918 0.64057 0.0
C272 C 0.50801 0.97517 0.84088 0.0
C273 C 0.52198 1.00302 0.86882 0.0
C274 C 0.52309 0.96674 0.79648 0.0
C275 C 0.55247 0.98598 0.77893 0.0
C276 C 0.5674 0.01282 0.80779 0.0
C277 C 0.55233 0.02124 0.85229 0.0
C278 C 0.56977 1.00831 0.64934 0.0
C279 C 0.56675 0.97474 0.62762 0.0
C280 C 0.56851 1.01162 0.69914 0.0
C281 C 0.56386 0.98138 0.72822 0.0
C282 C 0.56462 0.94747 0.70666 0.0
C283 C 0.56626 0.94416 0.65657 0.0
H284 H 0.1879 0.33728 0.90038 0.0
H285 H 0.28775 0.38906 0.86715 0.0
H286 H 0.19113 0.35941 0.98188 0.0
H287 H 0.2906 0.41206 0.94908 0.0
H288 H 0.31073 0.36146 0.10299 0.0
H289 H 0.30383 0.37558 0.01868 0.0
H290 H 0.19419 0.40505 0.04373 0.0
H291 H 0.20104 0.39009 0.12873 0.0
C292 C 0.21013 0.35418 0.91016 0.0
C293 C 0.23815 0.36048 0.87786 0.0
C294 C 0.21172 0.36737 0.95682 0.0
C295 C 0.2414 0.38712 0.97216 0.0
C296 C 0.26767 0.39646 0.93841 0.0
C297 C 0.26607 0.38321 0.89158 0.0
C298 C 0.28542 0.37193 0.09081 0.0
C299 C 0.25609 0.3736 0.12194 0.0
C300 C 0.28156 0.38048 0.04246 0.0
C301 C 0.24821 0.39073 0.02432 0.0
C302 C 0.22003 0.39659 0.05665 0.0
C303 C 0.22397 0.38812 0.10527 0.0
H304 H 0.02572 0.91121 0.67456 0.0
H305 H 0.1107 0.98211 0.63166 0.0
H306 H 0.04713 0.91357 0.75755 0.0
H307 H 0.13206 0.98413 0.71404 0.0
H308 H 0.09998 0.91516 0.9024 0.0
H309 H 0.09728 0.90138 0.81648 0.0
H310 H 0.10345 0.01365 0.78368 0.0
H311 H 0.1059 0.02729 0.86903 0.0
C312 C 0.04936 0.92661 0.68259 0.0
C313 C 0.06607 0.94699 0.64672 0.0
C314 C 0.06177 0.9278 0.73004 0.0
C315 C 0.09109 0.94934 0.74231 0.0
C316 C 0.10914 0.96771 0.70577 0.0
C317 C 0.0968 0.96655 0.65857 0.0
C318 C 0.10216 0.93674 0.87669 0.0
C319 C 0.10311 0.97233 0.89227 0.0
C320 C 0.10015 0.92886 0.8276 0.0
C321 C 0.09976 0.95643 0.79342 0.0
C322 C 0.10392 0.99177 0.80907 0.0
C323 C 0.10535 0.99964 0.85798 0.0
H324 H 0.66341 0.29595 0.31643 0.0
H325 H 0.77782 0.30245 0.32526 0.0
H326 H 0.65967 0.29686 0.40426 0.0
H327 H 0.77434 0.30323 0.41242 0.0
H328 H 0.68217 0.2267 0.5421 0.0
H329 H 0.67641 0.24851 0.45995 0.0
H330 H 0.75577 0.32908 0.48837 0.0
H331 H 0.76204 0.3069 0.57022 0.0
C332 C 0.68761 0.29939 0.33709 0.0
C333 C 0.72092 0.29918 0.3142 0.0
C334 C 0.68553 0.2993 0.38737 0.0
C335 C 0.71673 0.29945 0.41538 0.0
C336 C 0.74975 0.30325 0.39213 0.0
C337 C 0.75181 0.30292 0.34208 0.0
C338 C 0.69804 0.24937 0.53106 0.0
C339 C 0.72299 0.26464 0.56254 0.0
C340 C 0.69447 0.26215 0.48405 0.0
C341 C 0.71574 0.29051 0.46749 0.0
C342 C 0.73929 0.30696 0.49982 0.0
C343 C 0.74288 0.29418 0.54675 0.0
H344 H 0.42608 0.03558 0.1507 0.0
H345 H 0.5386 0.04054 0.12082 0.0
H346 H 0.43862 1.01185 0.23037 0.0
H347 H 0.55134 0.01372 0.19779 0.0
H348 H 0.56555 0.98898 0.35651 0.0
H349 H 0.55587 0.01487 0.27792 0.0
H350 H 0.45396 0.96109 0.26945 0.0
H351 H 0.46285 0.93821 0.35068 0.0
C352 C 0.45354 0.0323 0.16171 0.0
C353 C 0.48132 0.04046 0.12988 0.0
C354 C 0.46084 0.01771 0.20691 0.0
C355 C 0.49608 1.0097 0.22066 0.0
C356 C 0.52388 0.01969 0.18943 0.0
C357 C 0.51659 0.03545 0.14506 0.0
C358 C 0.54172 0.98167 0.33686 0.0
C359 C 0.51531 0.96094 0.35888 0.0
C360 C 0.5359 0.99678 0.29172 0.0
C361 C 0.50374 0.99082 0.26694 0.0
C362 C 0.47854 0.96751 0.28775 0.0
C363 C 0.48395 0.95339 0.33373 0.0
H364 H 0.77532 0.83153 0.11985 0.0
H365 H 0.71474 0.73352 0.12173 0.0
H366 H 0.76887 0.83456 0.03287 0.0
H367 H 0.70918 0.73645 0.03401 0.0
H368 H 0.75101 0.75644 0.86675 0.0
H369 H 0.75722 0.74331 0.95267 0.0
H370 H 0.70158 0.8404 0.98683 0.0
H371 H 0.69456 0.85331 0.90124 0.0
C372 C 0.76154 0.81007 0.1017 0.0
C373 C 0.74525 0.78243 0.12783 0.0
C374 C 0.75763 0.81204 0.05196 0.0
C375 C 0.73803 0.78607 0.02731 0.0
C376 C 0.72421 0.75685 0.05259 0.0
C377 C 0.72756 0.75516 0.10263 0.0
C378 C 0.7394 0.77456 0.89263 0.0
C379 C 0.72239 0.80598 0.87737 0.0
C380 C 0.743 0.76702 0.94159 0.0
C381 C 0.73026 0.79113 0.97587 0.0
C382 C 0.71183 0.82163 0.96074 0.0
C383 C 0.70759 0.82883 0.91187 0.0
H384 H 0.50137 0.52407 0.60336 0.0
H385 H 0.60621 0.48191 0.63219 0.0
H386 H 0.4934 0.53634 0.68901 0.0
H387 H 0.59827 0.49466 0.71757 0.0
H388 H 0.59221 0.56889 0.8461 0.0
H389 H 0.59202 0.55799 0.75968 0.0
H390 H 0.49245 0.5014 0.77259 0.0
H391 H 0.4927 0.51182 0.85934 0.0
C392 C 0.52236 0.51672 0.62813 0.0
C393 C 0.55447 0.50214 0.61117 0.0
C394 C 0.51782 0.5239 0.67695 0.0
C395 C 0.54555 0.51715 0.70935 0.0
C396 C 0.5768 0.50068 0.6929 0.0
C397 C 0.58112 0.49294 0.64423 0.0
C398 C 0.5697 0.55511 0.8304 0.0
C399 C 0.5426 0.54096 0.85948 0.0
C400 C 0.56988 0.54846 0.7811 0.0
C401 C 0.54264 0.52817 0.76003 0.0
C402 C 0.51386 0.51686 0.78826 0.0
C403 C 0.51396 0.52299 0.83773 0.0
H404 H 0.7843 0.17915 0.83809 0.0
H405 H 0.67157 0.17758 0.80845 0.0
H406 H 0.77205 0.177 0.92394 0.0
H407 H 0.65916 0.17579 0.89489 0.0
H408 H 0.74382 0.16128 0.07636 0.0
H409 H 0.74564 0.14312 0.9925 0.0
H410 H 0.66907 0.2246 0.95705 0.0
H411 H 0.66706 0.24288 0.04129 0.0
C412 C 0.7569 0.17709 0.84998 0.0
C413 C 0.72892 0.17848 0.81665 0.0
C414 C 0.74984 0.17587 0.89918 0.0
C415 C 0.7146 0.17657 0.91618 0.0
C416 C 0.68655 0.1755 0.88277 0.0
C417 C 0.69367 0.17608 0.83334 0.0
C418 C 0.72681 0.17496 0.05096 0.0
C419 C 0.7057 0.20397 0.06547 0.0
C420 C 0.72791 0.1645 0.00287 0.0
C421 C 0.70782 0.18264 0.96813 0.0
C422 C 0.68469 0.20992 0.98308 0.0
C423 C 0.68367 0.22053 0.03132 0.0
H424 H 0.93854 0.55015 0.12945 0.0
H425 H 0.04137 0.49869 0.13167 0.0
H426 H 0.93103 0.53694 0.21469 0.0
H427 H 0.0339 0.48608 0.21741 0.0
H428 H 1.0102 0.508 0.384 0.0
H429 H 0.02415 0.52085 0.29988 0.0
H430 H 0.92439 0.47359 0.25688 0.0
H431 H 0.91059 0.46016 0.34095 0.0
C432 C 0.95999 0.53696 0.14837 0.0
C433 C 0.99051 0.52534 0.12377 0.0
C434 C 0.95544 0.52899 0.19698 0.0
C435 C 0.98158 0.50988 0.2221 0.0
C436 C 0.01328 0.50062 0.19859 0.0
C437 C 0.01759 0.50802 0.14968 0.0
C438 C 0.99162 0.49966 0.35645 0.0
C439 C 0.95929 0.48311 0.36891 0.0
C440 C 0.99959 0.50709 0.30846 0.0
C441 C 0.97506 0.49872 0.27226 0.0
C442 C 0.94348 0.48072 0.28441 0.0
C443 C 0.9358 0.47266 0.33234 0.0
H444 H 0.66908 0.89746 0.62972 0.0
H445 H 0.78211 0.88881 0.60437 0.0
H446 H 0.65887 0.90171 0.54309 0.0
H447 H 0.77207 0.89286 0.51842 0.0
H448 H 0.75027 0.89625 0.36469 0.0
H449 H 0.75054 0.92209 0.44507 0.0
H450 H 0.66576 0.85079 0.48717 0.0
H451 H 0.66512 0.82532 0.40693 0.0
C452 C 0.69183 0.898 0.6058 0.0
C453 C 0.72635 0.89222 0.62354 0.0
C454 C 0.68596 0.90011 0.55622 0.0
C455 C 0.71459 0.89692 0.52391 0.0
C456 C 0.74941 0.8955 0.54222 0.0
C457 C 0.75521 0.89302 0.59155 0.0
C458 C 0.73114 0.88664 0.39078 0.0
C459 C 0.70819 0.85819 0.37975 0.0
C460 C 0.73129 0.9015 0.43678 0.0
C461 C 0.70842 0.88829 0.47258 0.0
C462 C 0.6835 0.86185 0.46033 0.0
C463 C 0.6834 0.84694 0.41441 0.0
H464 H 0.65126 0.5635 0.10534 0.0
H465 H 0.60253 0.4606 0.12852 0.0
H466 H 0.67386 0.56272 0.18763 0.0
H467 H 0.62419 0.46019 0.21036 0.0
H468 H 0.65448 0.46318 0.35843 0.0
H469 H 0.66924 0.46107 0.27284 0.0
H470 H 0.63747 0.57117 0.25831 0.0
H471 H 0.62354 0.5733 0.34316 0.0
C472 C 0.64604 0.54039 0.12758 0.0
C473 C 0.62427 0.51258 0.11098 0.0
C474 C 0.65901 0.53993 0.17466 0.0
C475 C 0.65038 0.51167 0.20579 0.0
C476 C 0.63161 0.4823 0.18742 0.0
C477 C 0.61869 0.48277 0.14055 0.0
C478 C 0.65202 0.48722 0.33716 0.0
C479 C 0.63697 0.51811 0.35689 0.0
C480 C 0.66032 0.486 0.28819 0.0
C481 C 0.65378 0.5157 0.25857 0.0
C482 C 0.64292 0.54779 0.27989 0.0
C483 C 0.63451 0.54893 0.32855 0.0
H484 H 0.39491 0.77307 0.14711 0.0
H485 H 0.29684 0.83216 0.15263 0.0
H486 H 0.39229 0.77251 0.06016 0.0
H487 H 0.29548 0.83492 0.06514 0.0
H488 H 0.26779 0.77454 0.92764 0.0
H489 H 0.27865 0.79466 0.00899 0.0
H490 H 0.39225 0.7912 0.98268 0.0
H491 H 0.38084 0.76814 0.90233 0.0
C492 C 0.37391 0.78785 0.12938 0.0
C493 C 0.34611 0.80268 0.1562 0.0
C494 C 0.37223 0.78751 0.07925 0.0
C495 C 0.34301 0.80275 0.05501 0.0
C496 C 0.31761 0.82157 0.08228 0.0
C497 C 0.31871 0.82079 0.13245 0.0
C498 C 0.29504 0.77831 0.93933 0.0
C499 C 0.32346 0.76927 0.90914 0.0
C500 C 0.30143 0.79035 0.98596 0.0
C501 C 0.3365 0.79466 0.00315 0.0
C502 C 0.36491 0.78744 0.97158 0.0
C503 C 0.35845 0.77434 0.92537 0.0
H504 H 0.92097 0.55285 0.84765 0.0
H505 H 0.92907 0.43985 0.87246 0.0
H506 H 0.89351 0.5418 0.77016 0.0
H507 H 0.89863 0.42822 0.79686 0.0
H508 H 0.90687 0.42523 0.63123 0.0
H509 H 0.9117 0.42755 0.71775 0.0
H510 H 0.84984 0.52482 0.71887 0.0
H511 H 0.84828 0.52368 0.63133 0.0
C512 C 0.91595 0.5256 0.83682 0.0
C513 C 0.92771 0.49721 0.86526 0.0
C514 C 0.8997 0.51908 0.79255 0.0
C515 C 0.89386 0.48392 0.77639 0.0
C516 C 0.90352 0.45561 0.80695 0.0
C517 C 0.92085 0.46219 0.85045 0.0
C518 C 0.89291 0.44615 0.65029 0.0
C519 C 0.8772 0.47423 0.62495 0.0
C520 C 0.89578 0.44772 0.70024 0.0
C521 C 0.8822 0.47712 0.72586 0.0
C522 C 0.86201 0.50256 0.7005 0.0
C523 C 0.86025 0.50155 0.65037 0.0
H524 H 0.27958 0.24086 0.36817 0.0
H525 H 0.21082 0.3313 0.39317 0.0
H526 H 0.28421 0.23136 0.45507 0.0
H527 H 0.21604 0.32177 0.47969 0.0
H528 H 0.2969 0.32357 0.61202 0.0
H529 H 0.29312 0.31948 0.52464 0.0
H530 H 0.22304 0.22896 0.53714 0.0
H531 H 0.22622 0.233 0.62488 0.0
C532 C 0.26494 0.25823 0.39209 0.0
C533 C 0.24507 0.28703 0.37397 0.0
C534 C 0.26765 0.25274 0.44156 0.0
C535 C 0.25074 0.27611 0.47327 0.0
C536 C 0.22933 0.3036 0.45537 0.0
C537 C 0.22626 0.30889 0.40601 0.0
C538 C 0.28143 0.30219 0.59632 0.0
C539 C 0.2615 0.27887 0.62526 0.0
C540 C 0.27921 0.3 0.54646 0.0
C541 C 0.25756 0.27415 0.52496 0.0
C542 C 0.23983 0.24907 0.55345 0.0
C543 C 0.24171 0.25146 0.60343 0.0
H544 H 0.15202 0.0514 0.0896 0.0
H545 H 0.08612 0.13677 0.03601 0.0
H546 H 0.19246 0.09505 0.1253 0.0
H547 H 0.12676 0.1802 0.07058 0.0
H548 H 0.18019 0.247 0.18518 0.0
H549 H 0.14289 0.20216 0.14791 0.0
H550 H 0.23631 0.14166 0.10944 0.0
H551 H 0.27401 0.18666 0.14802 0.0
C552 C 0.14627 0.07945 0.08507 0.0
C553 C 0.11557 0.09046 0.06015 0.0
C554 C 0.16962 0.10453 0.10535 0.0
C555 C 0.16287 0.14129 0.10129 0.0
C556 C 0.13257 0.15219 0.07539 0.0
C557 C 0.10927 0.1272 0.05524 0.0
C558 C 0.19299 0.2242 0.16885 0.0
C559 C 0.23028 0.22064 0.16962 0.0
C560 C 0.17147 0.19848 0.14705 0.0
C561 C 0.18643 0.16829 0.12509 0.0
C562 C 0.22376 0.16441 0.12623 0.0
C563 C 0.24542 0.1903 0.14818 0.0
H564 H 0.16676 0.95977 0.46012 0.0
H565 H 0.07699 0.90001 0.40713 0.0
H566 H 0.20723 0.91829 0.41992 0.0
H567 H 0.1166 0.8602 0.36445 0.0
H568 H 0.19334 0.77027 0.33623 0.0
H569 H 0.15425 0.81326 0.37463 0.0
H570 H 0.2324 0.89608 0.35044 0.0
H571 H 0.2722 0.85235 0.31484 0.0
C572 C 0.15574 0.93816 0.43909 0.0
C573 C 0.1188 0.93288 0.43718 0.0
C574 C 0.17887 0.91435 0.41578 0.0
C575 C 0.16547 0.88522 0.38913 0.0
C576 C 0.1283 0.88128 0.38573 0.0
C577 C 0.10542 0.90443 0.40987 0.0
C578 C 0.20205 0.7977 0.33898 0.0
C579 C 0.23587 0.80782 0.32248 0.0
C580 C 0.17951 0.82261 0.3608 0.0
C581 C 0.18979 0.85861 0.36577 0.0
C582 C 0.22354 0.8687 0.34837 0.0
C583 C 0.24635 0.8436 0.32746 0.0
H584 H 0.37347 0.80901 0.72441 0.0
H585 H 0.27371 0.85487 0.6783 0.0
H586 H 0.40568 0.8509 0.67444 0.0
H587 H 0.30666 0.89745 0.62759 0.0
H588 H 0.45018 0.89242 0.53686 0.0
H589 H 0.41021 0.85589 0.58443 0.0
H590 H 0.35429 0.94983 0.63159 0.0
H591 H 0.39477 0.98706 0.58331 0.0
C592 C 0.35828 0.82821 0.70386 0.0
C593 C 0.32084 0.82818 0.70513 0.0
C594 C 0.37687 0.85221 0.67495 0.0
C595 C 0.35875 0.87711 0.64636 0.0
C596 C 0.32135 0.87849 0.64915 0.0
C597 C 0.30252 0.85411 0.67815 0.0
C598 C 0.4292 0.90552 0.55683 0.0
C599 C 0.42608 0.94284 0.55664 0.0
C600 C 0.40631 0.88447 0.58431 0.0
C601 C 0.37949 0.89998 0.61253 0.0
C602 C 0.37477 0.93713 0.61028 0.0
C603 C 0.39794 0.95842 0.58264 0.0
H604 H 0.22357 0.17458 0.85309 0.0
H605 H 0.31949 0.22818 0.80715 0.0
H606 H 0.25968 0.12882 0.89266 0.0
H607 H 0.35522 0.18237 0.84491 0.0
H608 H 0.41229 0.11956 0.95731 0.0
H609 H 0.37268 0.16317 0.92178 0.0
H610 H 0.29994 0.07923 0.88126 0.0
H611 H 0.33946 0.03534 0.91865 0.0
C612 C 0.2523 0.1765 0.85111 0.0
C613 C 0.26854 0.20532 0.82724 0.0
C614 C 0.27304 0.15015 0.87363 0.0
C615 C 0.31052 0.15195 0.87265 0.0
C616 C 0.32654 0.1804 0.84771 0.0
C617 C 0.30593 0.20669 0.82563 0.0
C618 C 0.3878 0.11027 0.94104 0.0
C619 C 0.37928 0.07381 0.94058 0.0
C620 C 0.36508 0.13537 0.92025 0.0
C621 C 0.33322 0.12487 0.89773 0.0
C622 C 0.32411 0.08844 0.8984 0.0
C623 C 0.34684 0.06321 0.9197 0.0
H624 H 0.98274 0.92177 0.95728 0.0
H625 H 0.93907 0.02365 0.91592 0.0
H626 H 0.93946 0.8917 0.90687 0.0
H627 H 0.89582 0.99332 0.86443 0.0
H628 H 0.80061 0.92178 0.8193 0.0
H629 H 0.84367 0.95495 0.86696 0.0
H630 H 0.92637 0.88212 0.82302 0.0
H631 H 0.88308 0.84842 0.77608 0.0
C632 C 0.96383 0.93784 0.93749 0.0
C633 C 0.96446 0.97523 0.94075 0.0
C634 C 0.93916 0.92052 0.90811 0.0
C635 C 0.91437 0.94002 0.88101 0.0
C636 C 0.91442 0.97742 0.88498 0.0
C637 C 0.93921 0.99484 0.9145 0.0
C638 C 0.82804 0.91294 0.81943 0.0
C639 C 0.83829 0.88222 0.79399 0.0
C640 C 0.8528 0.93213 0.84666 0.0
C641 C 0.88848 0.92111 0.84926 0.0
C642 C 0.89897 0.89103 0.8226 0.0
C643 C 0.87419 0.87182 0.79533 0.0
H644 H 0.88478 0.22384 0.6378 0.0
H645 H 0.8173 0.13285 0.66374 0.0
H646 H 0.92978 0.18507 0.60234 0.0
H647 H 0.86281 0.09377 0.63162 0.0
H648 H 0.93211 0.03223 0.53177 0.0
H649 H 0.88866 0.0738 0.56311 0.0
H650 H 0.97387 0.14276 0.61103 0.0
H651 H 0.01732 0.10175 0.57624 0.0
C652 C 0.87981 0.19544 0.63655 0.0
C653 C 0.84734 0.18146 0.65324 0.0
C654 C 0.90575 0.17305 0.61641 0.0
C655 C 0.90019 0.13595 0.6133 0.0
C656 C 0.86799 0.12211 0.63161 0.0
C657 C 0.84183 0.14455 0.65063 0.0
C658 C 0.94155 0.05643 0.5487 0.0
C659 C 0.97817 0.06362 0.55165 0.0
C660 C 0.91656 0.08026 0.56732 0.0
C661 C 0.92735 0.1117 0.59081 0.0
C662 C 0.96418 0.11918 0.59295 0.0
C663 C 0.98924 0.09559 0.57314 0.0
H664 H 0.7207 0.11338 0.28578 0.0
H665 H 0.65675 0.20811 0.30092 0.0
H666 H 0.68097 0.08201 0.3414 0.0
H667 H 0.61851 0.17789 0.35782 0.0
H668 H 0.5327 0.10325 0.41598 0.0
H669 H 0.5735 0.13614 0.36421 0.0
H670 H 0.66177 0.07534 0.42082 0.0
H671 H 0.62057 0.04146 0.47058 0.0
C672 C 0.69837 0.12753 0.30125 0.0
C673 C 0.69159 0.16298 0.28829 0.0
C674 C 0.67566 0.10971 0.33348 0.0
C675 C 0.6461 0.12722 0.35417 0.0
C676 C 0.64018 0.16302 0.34191 0.0
C677 C 0.66235 0.18048 0.30925 0.0
C678 C 0.5609 0.09748 0.41801 0.0
C679 C 0.57339 0.06987 0.44746 0.0
C680 C 0.58446 0.11629 0.38821 0.0
C681 C 0.6212 0.10834 0.38773 0.0
C682 C 0.63372 0.08175 0.41906 0.0
C683 C 0.61011 0.06262 0.44818 0.0
H684 H 0.65606 0.85433 0.15978 0.0
H685 H 0.57334 0.79118 0.22631 0.0
H686 H 0.61207 0.88457 0.11135 0.0
H687 H 0.52846 0.82262 0.17734 0.0
H688 H 0.47247 0.87787 0.03436 0.0
H689 H 0.50942 0.83719 0.08351 0.0
H690 H 0.56522 0.92778 0.14217 0.0
H691 H 0.52987 0.96739 0.09367 0.0
C692 C 0.62838 0.84693 0.16429 0.0
C693 C 0.61816 0.82089 0.19786 0.0
C694 C 0.60314 0.86422 0.13624 0.0
C695 C 0.56679 0.85634 0.14108 0.0
C696 C 0.55635 0.82915 0.17293 0.0
C697 C 0.58195 0.81143 0.20113 0.0
C698 C 0.49255 0.88882 0.05802 0.0
C699 C 0.49895 0.92574 0.05903 0.0
C700 C 0.51349 0.86567 0.08623 0.0
C701 C 0.54068 0.87938 0.11582 0.0
C702 C 0.54515 0.91634 0.11883 0.0
C703 C 0.52483 0.93907 0.09077 0.0
H704 H 0.56634 0.65142 0.54356 0.0
H705 H 0.66413 0.59838 0.50578 0.0
H706 H 0.59979 0.69488 0.59033 0.0
H707 H 0.69803 0.64295 0.54962 0.0
H708 H 0.74794 0.70367 0.6733 0.0
H709 H 0.7142 0.66118 0.62521 0.0
H710 H 0.63703 0.74317 0.59267 0.0
H711 H 0.6696 0.78455 0.64321 0.0
C712 C 0.59511 0.64963 0.5443 0.0
C713 C 0.61259 0.62149 0.52112 0.0
C714 C 0.61446 0.67464 0.57107 0.0
C715 C 0.65191 0.67258 0.57445 0.0
C716 C 0.66931 0.64509 0.54934 0.0
C717 C 0.64989 0.61969 0.52358 0.0
C718 C 0.72366 0.71242 0.65599 0.0
C719 C 0.7113 0.74733 0.66243 0.0
C720 C 0.70435 0.68816 0.62792 0.0
C721 C 0.67261 0.69845 0.60458 0.0
C722 C 0.66072 0.7337 0.61069 0.0
C723 C 0.67957 0.75763 0.63958 0.0
H724 H 0.64817 0.46407 0.91599 0.0
H725 H 0.57485 0.37667 0.93703 0.0
H726 H 0.6846 0.42722 0.86446 0.0
H727 H 0.61234 0.33905 0.88611 0.0
H728 H 0.66409 0.29628 0.74919 0.0
H729 H 0.6285 0.33261 0.80306 0.0
H730 H 0.72454 0.37823 0.86234 0.0
H731 H 0.76023 0.34242 0.80729 0.0
C732 C 0.63998 0.43675 0.91016 0.0
C733 C 0.60838 0.4234 0.93068 0.0
C734 C 0.66115 0.41549 0.88068 0.0
C735 C 0.65153 0.38011 0.8709 0.0
C736 C 0.62032 0.36638 0.89225 0.0
C737 C 0.59894 0.38782 0.92178 0.0
C738 C 0.67769 0.3143 0.7734 0.0
C739 C 0.71509 0.31653 0.77372 0.0
C740 C 0.65721 0.33486 0.80476 0.0
C741 C 0.67354 0.35816 0.83752 0.0
C742 C 0.71097 0.36084 0.83732 0.0
C743 C 0.7315 0.34034 0.80569 0.0
H744 H 0.78926 0.31132 0.10143 0.0
H745 H 0.87395 0.25646 0.17577 0.0
H746 H 0.83231 0.34976 0.06275 0.0
H747 H 0.91767 0.29616 0.13717 0.0
H748 H 0.98446 0.36167 0.0212 0.0
H749 H 0.94551 0.31632 0.05787 0.0
H750 H 0.86881 0.39803 0.09179 0.0
H751 H 0.90655 0.4424 0.05511 0.0
C752 C 0.81716 0.30747 0.10972 0.0
C753 C 0.82801 0.28107 0.14243 0.0
C754 C 0.84194 0.32968 0.08749 0.0
C755 C 0.87847 0.32658 0.09746 0.0
C756 C 0.88972 0.29926 0.12869 0.0
C757 C 0.86469 0.27666 0.15097 0.0
C758 C 0.95922 0.36978 0.03643 0.0
C759 C 0.94851 0.40568 0.03446 0.0
C760 C 0.93703 0.34387 0.05767 0.0
C761 C 0.90375 0.35343 0.07715 0.0
C762 C 0.89377 0.38945 0.07614 0.0
C763 C 0.91564 0.41504 0.05508 0.0
H764 H 0.84194 0.54983 0.43522 0.0
H765 H 0.90661 0.63718 0.48615 0.0
H766 H 0.80238 0.59134 0.39573 0.0
H767 H 0.8659 0.67928 0.44753 0.0
H768 H 0.80914 0.73986 0.3254 0.0
H769 H 0.84832 0.70008 0.3698 0.0
H770 H 0.75793 0.63463 0.40809 0.0
H771 H 0.71896 0.6738 0.36222 0.0
C772 C 0.84754 0.57802 0.43857 0.0
C773 C 0.87762 0.59009 0.46397 0.0
C774 C 0.82455 0.60195 0.41605 0.0
C775 C 0.83068 0.63882 0.41841 0.0
C776 C 0.86052 0.65105 0.44439 0.0
C777 C 0.88376 0.62695 0.46686 0.0
C778 C 0.7976 0.71694 0.34324 0.0
C779 C 0.76088 0.7099 0.33987 0.0
C780 C 0.82009 0.69425 0.36914 0.0
C781 C 0.80646 0.664 0.39265 0.0
C782 C 0.76959 0.65728 0.38981 0.0
C783 C 0.74714 0.67983 0.36359 0.0
H784 H 0.32345 0.39826 0.31397 0.0
H785 H 0.40862 0.3301 0.26523 0.0
H786 H 0.36632 0.43729 0.35223 0.0
H787 H 0.452 0.37005 0.30271 0.0
H788 H 0.51579 0.42854 0.41976 0.0
H789 H 0.47385 0.3892 0.37937 0.0
H790 H 0.41116 0.4803 0.33686 0.0
H791 H 0.45265 0.51958 0.37851 0.0
C792 C 0.35143 0.39169 0.311 0.0
C793 C 0.36249 0.36089 0.28636 0.0
C794 C 0.37614 0.41435 0.33279 0.0
C795 C 0.41281 0.40712 0.33055 0.0
C796 C 0.42398 0.37635 0.30574 0.0
C797 C 0.39912 0.3535 0.28396 0.0
C798 C 0.49302 0.44024 0.4019 0.0
C799 C 0.48757 0.47733 0.4027 0.0
C800 C 0.46906 0.41761 0.3783 0.0
C801 C 0.43897 0.43138 0.35466 0.0
C802 C 0.43367 0.46854 0.35524 0.0
C803 C 0.45757 0.49118 0.37902 0.0
H804 H 0.51028 0.58358 0.09571 0.0
H805 H 0.42654 0.51088 0.0549 0.0
H806 H 0.46784 0.61971 0.13897 0.0
H807 H 0.38299 0.54841 0.09714 0.0
H808 H 0.32265 0.61421 0.21755 0.0
H809 H 0.36085 0.57198 0.17372 0.0
H810 H 0.42297 0.66025 0.11945 0.0
H811 H 0.38638 0.70139 0.1645 0.0
C812 C 0.4826 0.57543 0.09565 0.0
C813 C 0.47177 0.54459 0.07121 0.0
C814 C 0.45807 0.59638 0.12031 0.0
C815 C 0.42163 0.58767 0.12065 0.0
C816 C 0.41078 0.55604 0.09762 0.0
C817 C 0.43568 0.53458 0.07329 0.0
C818 C 0.34439 0.62431 0.1959 0.0
C819 C 0.35201 0.66097 0.19514 0.0
C820 C 0.36624 0.60022 0.17072 0.0
C821 C 0.39571 0.61253 0.14394 0.0
C822 C 0.40151 0.64948 0.14104 0.0
C823 C 0.38032 0.67321 0.16665 0.0
H824 H 0.15779 0.70262 0.79848 0.0
H825 H 0.24529 0.64012 0.85299 0.0
H826 H 0.1158 0.65961 0.83153 0.0
H827 H 0.20327 0.59755 0.88734 0.0
H828 H 0.04869 0.59875 0.93948 0.0
H829 H 0.09173 0.63981 0.90526 0.0
H830 H 0.16083 0.55162 0.87071 0.0
H831 H 0.11782 0.51035 0.90646 0.0
C832 C 0.16813 0.67978 0.81769 0.0
C833 C 0.20504 0.67504 0.82305 0.0
C834 C 0.14396 0.6551 0.83702 0.0
C835 C 0.15591 0.62496 0.86258 0.0
C836 C 0.1929 0.62007 0.8675 0.0
C837 C 0.21708 0.6447 0.848 0.0
C838 C 0.07306 0.58796 0.9247 0.0
C839 C 0.07962 0.55106 0.9258 0.0
C840 C 0.09776 0.61163 0.90461 0.0
C841 C 0.12986 0.59927 0.88463 0.0
C842 C 0.13664 0.56233 0.88608 0.0
C843 C 0.11187 0.53856 0.90644 0.0
H844 H 0.06443 0.49397 0.56827 0.0
H845 H 0.97869 0.42192 0.60291 0.0
H846 H 0.10611 0.45539 0.61119 0.0
H847 H 0.01924 0.38474 0.64826 0.0
H848 H 0.10416 0.30427 0.68653 0.0
H849 H 0.06326 0.34318 0.64356 0.0
H850 H 0.12727 0.43437 0.68334 0.0
H851 H 0.16914 0.39495 0.72339 0.0
C852 C 0.05447 0.47012 0.58559 0.0
C853 C 0.01842 0.46078 0.58171 0.0
C854 C 0.07828 0.44799 0.61058 0.0
C855 C 0.06639 0.41644 0.63328 0.0
C856 C 0.02996 0.40797 0.63031 0.0
C857 C 1.00649 0.42955 0.6045 0.0
C858 C 0.10928 0.33266 0.68624 0.0
C859 C 0.13986 0.34649 0.70833 0.0
C860 C 0.0857 0.35519 0.66174 0.0
C861 C 0.09162 0.39232 0.65963 0.0
C862 C 0.12195 0.40605 0.6829 0.0
C863 C 0.14588 0.38342 0.70643 0.0
loop_
_geom_bond_atom_site_label_1
_geom_bond_atom_site_label_2
_geom_bond_distance
_geom_bond_site_symmetry_2
_ccdc_geom_bond_type
C0 O2 1.247 . S
C0 O4 1.258 . S
C1 O8 1.247 . S
C1 O9 1.258 . S
O2 C0 1.247 . S
O2 Zn3 2.030 1_455 S
Zn3 O2 2.030 1_655 S
Zn3 O7 2.027 1_554 S
Zn3 O9 2.033 1_544 S
Zn3 O10 2.036 . S
O4 C0 1.258 . S
O4 Zn5 2.034 1_544 S
Zn5 O4 2.034 1_566 S
Zn5 O6 2.031 . S
Zn5 O8 2.029 1_455 S
Zn5 O11 2.032 1_556 S
O6 Zn5 2.031 . S
O6 C12 1.247 1_565 S
O7 Zn3 2.027 1_556 S
O7 C12 1.258 1_655 S
O8 C1 1.247 . S
O8 Zn5 2.029 1_655 S
O9 C1 1.258 . S
O9 Zn3 2.033 1_566 S
O10 Zn3 2.036 . S
O10 C13 1.247 1_545 S
O11 Zn5 2.032 1_554 S
O11 C13 1.258 1_455 S
C12 O6 1.247 1_545 S
C12 O7 1.258 1_455 S
C13 O10 1.247 1_565 S
C13 O11 1.258 1_655 S
C14 O16 1.247 . S
C14 O18 1.258 . S
C15 O22 1.247 . S
C15 O23 1.258 . S
O16 C14 1.247 . S
O16 Zn17 2.028 . S
Zn17 O16 2.028 . S
Zn17 O21 2.035 . S
Zn17 O23 2.035 . S
Zn17 O24 2.028 . S
O18 C14 1.258 . S
O18 Zn19 2.035 . S
Zn19 O18 2.035 . S
Zn19 O20 2.028 . S
Zn19 O22 2.028 . S
Zn19 O25 2.035 . S
O20 Zn19 2.028 . S
O20 C26 1.247 . S
O21 Zn17 2.035 . S
O21 C26 1.258 . S
O22 C15 1.247 . S
O22 Zn19 2.028 . S
O23 C15 1.258 . S
O23 Zn17 2.035 . S
O24 Zn17 2.028 . S
O24 C27 1.247 . S
O25 Zn19 2.035 . S
O25 C27 1.258 . S
C26 O20 1.247 . S
C26 O21 1.258 . S
C27 O24 1.247 . S
C27 O25 1.258 . S
C28 O30 1.247 . S
C28 O32 1.258 1_545 S
C29 O36 1.247 . S
C29 O37 1.258 1_565 S
O30 C28 1.247 . S
O30 Zn31 2.028 . S
Zn31 O30 2.028 . S
Zn31 O35 2.035 . S
Zn31 O37 2.035 . S
Zn31 O38 2.028 1_545 S
O32 C28 1.258 1_565 S
O32 Zn33 2.035 . S
Zn33 O32 2.035 . S
Zn33 O34 2.028 1_565 S
Zn33 O36 2.028 . S
Zn33 O39 2.035 . S
O34 Zn33 2.028 1_545 S
O34 C40 1.247 . S
O35 Zn31 2.035 . S
O35 C40 1.258 . S
O36 C29 1.247 . S
O36 Zn33 2.028 . S
O37 C29 1.258 1_545 S
O37 Zn31 2.035 . S
O38 Zn31 2.028 1_565 S
O38 C41 1.247 . S
O39 Zn33 2.035 . S
O39 C41 1.258 . S
C40 O34 1.247 . S
C40 O35 1.258 . S
C41 O38 1.247 . S
C41 O39 1.258 . S
C42 O44 1.247 . S
C42 O46 1.258 . S
C43 O50 1.247 . S
C43 O51 1.258 . S
O44 C42 1.247 . S
O44 Zn45 2.028 . S
Zn45 O44 2.028 . S
Zn45 O49 2.035 . S
Zn45 O51 2.035 . S
Zn45 O52 2.028 . S
O46 C42 1.258 . S
O46 Zn47 2.035 . S
Zn47 O46 2.035 . S
Zn47 O48 2.028 . S
Zn47 O50 2.028 . S
Zn47 O53 2.035 . S
O48 Zn47 2.028 . S
O48 C54 1.247 . S
O49 Zn45 2.035 . S
O49 C54 1.258 . S
O50 C43 1.247 . S
O50 Zn47 2.028 . S
O51 C43 1.258 . S
O51 Zn45 2.035 . S
O52 Zn45 2.028 . S
O52 C55 1.247 . S
O53 Zn47 2.035 . S
O53 C55 1.258 . S
C54 O48 1.247 . S
C54 O49 1.258 . S
C55 O52 1.247 . S
C55 O53 1.258 . S
C56 O58 1.247 . S
C56 O60 1.258 . S
C57 O64 1.247 . S
C57 O65 1.258 . S
O58 C56 1.247 . S
O58 Zn59 2.028 1_545 S
Zn59 O58 2.028 1_565 S
Zn59 O63 2.035 . S
Zn59 O65 2.035 1_655 S
Zn59 O66 2.028 . S
O60 C56 1.258 . S
O60 Zn61 2.035 1_655 S
Zn61 O60 2.035 1_455 S
Zn61 O62 2.028 . S
Zn61 O64 2.028 1_545 S
Zn61 O67 2.035 . S
O62 Zn61 2.028 . S
O62 C68 1.247 1_455 S
O63 Zn59 2.035 . S
O63 C68 1.258 1_565 S
O64 C57 1.247 . S
O64 Zn61 2.028 1_565 S
O65 C57 1.258 . S
O65 Zn59 2.035 1_455 S
O66 Zn59 2.028 . S
O66 C69 1.247 1_655 S
O67 Zn61 2.035 . S
O67 C69 1.258 1_545 S
C68 O62 1.247 1_655 S
C68 O63 1.258 1_545 S
C69 O66 1.247 1_455 S
C69 O67 1.258 1_565 S
C70 O72 1.247 . S
C70 O74 1.258 . S
C71 O78 1.247 . S
C71 O79 1.258 . S
O72 C70 1.247 . S
O72 Zn73 2.028 . S
Zn73 O72 2.028 . S
Zn73 O77 2.035 . S
Zn73 O79 2.035 . S
Zn73 O80 2.028 . S
O74 C70 1.258 . S
O74 Zn75 2.035 . S
Zn75 O74 2.035 . S
Zn75 O76 2.028 . S
Zn75 O78 2.028 . S
Zn75 O81 2.035 . S
O76 Zn75 2.028 . S
O76 C82 1.247 . S
O77 Zn73 2.035 . S
O77 C82 1.258 . S
O78 C71 1.247 . S
O78 Zn75 2.028 . S
O79 C71 1.258 . S
O79 Zn73 2.035 . S
O80 Zn73 2.028 . S
O80 C83 1.247 . S
O81 Zn75 2.035 . S
O81 C83 1.258 . S
C82 O76 1.247 . S
C82 O77 1.258 . S
C83 O80 1.247 . S
C83 O81 1.258 . S
C84 O86 1.247 . S
C84 O88 1.258 . S
C85 O92 1.247 . S
C85 O93 1.258 . S
O86 C84 1.247 . S
O86 Zn87 2.030 1_565 S
Zn87 O86 2.030 1_545 S
Zn87 O91 2.027 1_554 S
Zn87 O93 2.033 1_554 S
Zn87 O94 2.036 . S
O88 C84 1.258 . S
O88 Zn89 2.034 1_554 S
Zn89 O88 2.034 1_556 S
Zn89 O90 2.031 . S
Zn89 O92 2.029 1_565 S
Zn89 O95 2.032 1_556 S
O90 Zn89 2.031 . S
O90 C96 1.247 . S
O91 Zn87 2.027 1_556 S
O91 C96 1.258 1_545 S
O92 C85 1.247 . S
O92 Zn89 2.029 1_545 S
O93 C85 1.258 . S
O93 Zn87 2.033 1_556 S
O94 Zn87 2.036 . S
O94 C97 1.247 . S
O95 Zn89 2.032 1_554 S
O95 C97 1.258 1_565 S
C96 O90 1.247 . S
C96 O91 1.258 1_565 S
C97 O94 1.247 . S
C97 O95 1.258 1_545 S
C98 O100 1.247 . S
C98 O102 1.258 . S
C99 O106 1.247 . S
C99 O107 1.258 . S
O100 C98 1.247 . S
O100 Zn101 2.028 . S
Zn101 O100 2.028 . S
Zn101 O105 2.035 . S
Zn101 O107 2.035 . S
Zn101 O108 2.028 . S
O102 C98 1.258 . S
O102 Zn103 2.035 . S
Zn103 O102 2.035 . S
Zn103 O104 2.028 . S
Zn103 O106 2.028 . S
Zn103 O109 2.035 . S
O104 Zn103 2.028 . S
O104 C110 1.247 . S
O105 Zn101 2.035 . S
O105 C110 1.258 . S
O106 C99 1.247 . S
O106 Zn103 2.028 . S
O107 C99 1.258 . S
O107 Zn101 2.035 . S
O108 Zn101 2.028 . S
O108 C111 1.247 . S
O109 Zn103 2.035 . S
O109 C111 1.258 . S
C110 O104 1.247 . S
C110 O105 1.258 . S
C111 O108 1.247 . S
C111 O109 1.258 . S
C112 O114 1.247 . S
C112 O116 1.258 . S
C113 O120 1.247 . S
C113 O121 1.258 . S
O114 C112 1.247 . S
O114 Zn115 2.028 . S
Zn115 O114 2.028 . S
Zn115 O119 2.035 . S
Zn115 O121 2.035 . S
Zn115 O122 2.028 . S
O116 C112 1.258 . S
O116 Zn117 2.035 . S
Zn117 O116 2.035 . S
Zn117 O118 2.028 . S
Zn117 O120 2.028 . S
Zn117 O123 2.035 . S
O118 Zn117 2.028 . S
O118 C124 1.247 . S
O119 Zn115 2.035 . S
O119 C124 1.258 . S
O120 C113 1.247 . S
O120 Zn117 2.028 . S
O121 C113 1.258 . S
O121 Zn115 2.035 . S
O122 Zn115 2.028 . S
O122 C125 1.247 . S
O123 Zn117 2.035 . S
O123 C125 1.258 . S
C124 O118 1.247 . S
C124 O119 1.258 . S
C125 O122 1.247 . S
C125 O123 1.258 . S
C126 O128 1.247 . S
C126 O130 1.258 . S
C127 O134 1.247 . S
C127 O135 1.258 . S
O128 C126 1.247 . S
O128 Zn129 2.028 . S
Zn129 O128 2.028 . S
Zn129 O133 2.035 . S
Zn129 O135 2.035 . S
Zn129 O136 2.028 . S
O130 C126 1.258 . S
O130 Zn131 2.035 . S
Zn131 O130 2.035 . S
Zn131 O132 2.028 . S
Zn131 O134 2.028 . S
Zn131 O137 2.035 . S
O132 Zn131 2.028 . S
O132 C138 1.247 . S
O133 Zn129 2.035 . S
O133 C138 1.258 . S
O134 C127 1.247 . S
O134 Zn131 2.028 . S
O135 C127 1.258 . S
O135 Zn129 2.035 . S
O136 Zn129 2.028 . S
O136 C139 1.247 . S
O137 Zn131 2.035 . S
O137 C139 1.258 . S
C138 O132 1.247 . S
C138 O133 1.258 . S
C139 O136 1.247 . S
C139 O137 1.258 . S
C140 O142 1.247 . S
C140 O144 1.258 . S
C141 O148 1.247 . S
C141 O149 1.258 . S
O142 C140 1.247 . S
O142 Zn143 2.028 . S
Zn143 O142 2.028 . S
Zn143 O147 2.035 . S
Zn143 O149 2.035 . S
Zn143 O150 2.028 . S
O144 C140 1.258 . S
O144 Zn145 2.035 . S
Zn145 O144 2.035 . S
Zn145 O146 2.028 . S
Zn145 O148 2.028 . S
Zn145 O151 2.035 . S
O146 Zn145 2.028 . S
O146 C152 1.247 . S
O147 Zn143 2.035 . S
O147 C152 1.258 . S
O148 C141 1.247 . S
O148 Zn145 2.028 . S
O149 C141 1.258 . S
O149 Zn143 2.035 . S
O150 Zn143 2.028 . S
O150 C153 1.247 . S
O151 Zn145 2.035 . S
O151 C153 1.258 . S
C152 O146 1.247 . S
C152 O147 1.258 . S
C153 O150 1.247 . S
C153 O151 1.258 . S
C154 O156 1.247 . S
C154 O158 1.258 . S
C155 O162 1.247 . S
C155 O163 1.258 . S
O156 C154 1.247 . S
O156 Zn157 2.028 . S
Zn157 O156 2.028 . S
Zn157 O161 2.035 . S
Zn157 O163 2.035 . S
Zn157 O164 2.028 . S
O158 C154 1.258 . S
O158 Zn159 2.035 . S
Zn159 O158 2.035 . S
Zn159 O160 2.028 . S
Zn159 O162 2.028 . S
Zn159 O165 2.035 . S
O160 Zn159 2.028 . S
O160 C166 1.247 . S
O161 Zn157 2.035 . S
O161 C166 1.258 . S
O162 C155 1.247 . S
O162 Zn159 2.028 . S
O163 C155 1.258 . S
O163 Zn157 2.035 . S
O164 Zn157 2.028 . S
O164 C167 1.247 . S
O165 Zn159 2.035 . S
O165 C167 1.258 . S
C166 O160 1.247 . S
C166 O161 1.258 . S
C167 O164 1.247 . S
C167 O165 1.258 . S
C168 O170 1.247 . S
C168 O172 1.258 . S
C169 O176 1.247 . S
C169 O177 1.258 . S
O170 C168 1.247 . S
O170 Zn171 2.028 . S
Zn171 O170 2.028 . S
Zn171 O175 2.035 . S
Zn171 O177 2.035 . S
Zn171 O178 2.028 . S
O172 C168 1.258 . S
O172 Zn173 2.035 . S
Zn173 O172 2.035 . S
Zn173 O174 2.028 . S
Zn173 O176 2.028 . S
Zn173 O179 2.035 . S
O174 Zn173 2.028 . S
O174 C180 1.247 . S
O175 Zn171 2.035 . S
O175 C180 1.258 . S
O176 C169 1.247 . S
O176 Zn173 2.028 . S
O177 C169 1.258 . S
O177 Zn171 2.035 . S
O178 Zn171 2.028 . S
O178 C181 1.247 . S
O179 Zn173 2.035 . S
O179 C181 1.258 . S
C180 O174 1.247 . S
C180 O175 1.258 . S
C181 O178 1.247 . S
C181 O179 1.258 . S
C182 O184 1.247 1_455 S
C182 O186 1.258 . S
C183 O190 1.247 1_655 S
C183 O191 1.258 . S
O184 C182 1.247 1_655 S
O184 Zn185 2.036 . S
Zn185 O184 2.036 . S
Zn185 O189 2.033 1_654 S
Zn185 O191 2.027 1_554 S
Zn185 O192 2.030 . S
O186 C182 1.258 . S
O186 Zn187 2.032 1_554 S
Zn187 O186 2.032 1_556 S
Zn187 O188 2.029 . S
Zn187 O190 2.031 . S
Zn187 O193 2.034 1_456 S
O188 Zn187 2.029 . S
O188 C194 1.247 . S
O189 Zn185 2.033 1_456 S
O189 C194 1.258 . S
O190 C183 1.247 1_455 S
O190 Zn187 2.031 . S
O191 C183 1.258 . S
O191 Zn185 2.027 1_556 S
O192 Zn185 2.030 . S
O192 C195 1.247 . S
O193 Zn187 2.034 1_654 S
O193 C195 1.258 . S
C194 O188 1.247 . S
C194 O189 1.258 . S
C195 O192 1.247 . S
C195 O193 1.258 . S
C196 O198 1.247 . S
C196 O200 1.258 . S
C197 O204 1.247 . S
C197 O205 1.258 . S
O198 C196 1.247 . S
O198 Zn199 2.030 . S
Zn199 O198 2.030 . S
Zn199 O203 2.027 1_554 S
Zn199 O205 2.033 1_554 S
Zn199 O206 2.036 . S
O200 C196 1.258 . S
O200 Zn201 2.034 1_554 S
Zn201 O200 2.034 1_556 S
Zn201 O202 2.031 . S
Zn201 O204 2.029 . S
Zn201 O207 2.032 1_556 S
O202 Zn201 2.031 . S
O202 C208 1.247 . S
O203 Zn199 2.027 1_556 S
O203 C208 1.258 . S
O204 C197 1.247 . S
O204 Zn201 2.029 . S
O205 C197 1.258 . S
O205 Zn199 2.033 1_556 S
O206 Zn199 2.036 . S
O206 C209 1.247 . S
O207 Zn201 2.032 1_554 S
O207 C209 1.258 . S
C208 O202 1.247 . S
C208 O203 1.258 . S
C209 O206 1.247 . S
C209 O207 1.258 . S
C210 O212 1.247 . S
C210 O214 1.258 . S
C211 O218 1.247 . S
C211 O219 1.258 . S
O212 C210 1.247 . S
O212 Zn213 2.028 . S
Zn213 O212 2.028 . S
Zn213 O217 2.035 . S
Zn213 O219 2.035 1_455 S
Zn213 O220 2.028 . S
O214 C210 1.258 . S
O214 Zn215 2.035 1_455 S
Zn215 O214 2.035 1_655 S
Zn215 O216 2.028 . S
Zn215 O218 2.028 . S
Zn215 O221 2.035 . S
O216 Zn215 2.028 . S
O216 C222 1.247 1_655 S
O217 Zn213 2.035 . S
O217 C222 1.258 . S
O218 C211 1.247 . S
O218 Zn215 2.028 . S
O219 C211 1.258 . S
O219 Zn213 2.035 1_655 S
O220 Zn213 2.028 . S
O220 C223 1.247 1_455 S
O221 Zn215 2.035 . S
O221 C223 1.258 . S
C222 O216 1.247 1_455 S
C222 O217 1.258 . S
C223 O220 1.247 1_655 S
C223 O221 1.258 . S
H224 C232 0.950 . S
H225 C237 0.950 . S
H226 C234 0.950 . S
H227 C236 0.950 . S
H228 C238 0.950 . S
H229 C240 0.950 . S
H230 C242 0.950 . S
H231 C243 0.950 . S
C232 H224 0.950 . S
C232 C233 1.386 1_455 S
C232 C234 1.391 . S
C233 C232 1.386 1_655 S
C233 C237 1.393 1_565 S
C234 H226 0.950 . S
C234 C232 1.391 . S
C234 C235 1.400 1_455 S
C235 C234 1.400 1_655 S
C235 C236 1.398 1_565 S
C235 C241 1.491 1_565 S
C236 H227 0.950 . S
C236 C235 1.398 1_545 S
C236 C237 1.391 . S
C237 H225 0.950 . S
C237 C233 1.393 1_545 S
C237 C236 1.391 . S
C238 H228 0.950 . S
C238 C239 1.386 . S
C238 C240 1.391 . S
C239 C238 1.386 . S
C239 C243 1.393 1_645 S
C240 H229 0.950 . S
C240 C238 1.391 . S
C240 C241 1.400 . S
C241 C235 1.491 1_545 S
C241 C240 1.400 . S
C241 C242 1.398 1_645 S
C242 H230 0.950 . S
C242 C241 1.398 1_465 S
C242 C243 1.391 . S
C243 H231 0.950 . S
C243 C239 1.393 1_465 S
C243 C242 1.391 . S
H244 C252 0.950 . S
H245 C257 0.950 . S
H246 C254 0.950 . S
H247 C256 0.950 . S
H248 C258 0.950 . S
H249 C260 0.950 . S
H250 C262 0.950 . S
H251 C263 0.950 . S
C252 H244 0.950 . S
C252 C253 1.386 . S
C252 C254 1.391 . S
C253 C252 1.386 . S
C253 C257 1.393 . S
C254 H246 0.950 . S
C254 C252 1.391 . S
C254 C255 1.400 . S
C255 C254 1.400 . S
C255 C256 1.398 . S
C255 C261 1.491 . S
C256 H247 0.950 . S
C256 C255 1.398 . S
C256 C257 1.391 . S
C257 H245 0.950 . S
C257 C253 1.393 . S
C257 C256 1.391 . S
C258 H248 0.950 . S
C258 C259 1.386 . S
C258 C260 1.391 . S
C259 C258 1.386 . S
C259 C263 1.393 . S
C260 H249 0.950 . S
C260 C258 1.391 . S
C260 C261 1.400 . S
C261 C255 1.491 . S
C261 C260 1.400 . S
C261 C262 1.398 . S
C262 H250 0.950 . S
C262 C261 1.398 . S
C262 C263 1.391 . S
C263 H251 0.950 . S
C263 C259 1.393 . S
C263 C262 1.391 . S
H264 C272 0.950 . S
H265 C277 0.950 . S
H266 C274 0.950 . S
H267 C276 0.950 . S
H268 C278 0.950 . S
H269 C280 0.950 . S
H270 C282 0.950 . S
H271 C283 0.950 . S
C272 H264 0.950 . S
C272 C273 1.386 . S
C272 C274 1.391 . S
C273 C272 1.386 . S
C273 C277 1.393 1_565 S
C274 H266 0.950 . S
C274 C272 1.391 . S
C274 C275 1.400 . S
C275 C274 1.400 . S
C275 C276 1.398 1_565 S
C275 C281 1.491 1_565 S
C276 H267 0.950 . S
C276 C275 1.398 1_545 S
C276 C277 1.391 . S
C277 H265 0.950 . S
C277 C273 1.393 1_545 S
C277 C276 1.391 . S
C278 H268 0.950 . S
C278 C279 1.386 . S
C278 C280 1.391 . S
C279 C278 1.386 . S
C279 C283 1.393 1_545 S
C280 H269 0.950 . S
C280 C278 1.391 . S
C280 C281 1.400 . S
C281 C275 1.491 1_545 S
C281 C280 1.400 . S
C281 C282 1.398 1_545 S
C282 H270 0.950 . S
C282 C281 1.398 1_565 S
C282 C283 1.391 . S
C283 H271 0.950 . S
C283 C279 1.393 1_565 S
C283 C282 1.391 . S
H284 C292 0.950 . S
H285 C297 0.950 . S
H286 C294 0.950 . S
H287 C296 0.950 . S
H288 C298 0.950 . S
H289 C300 0.950 . S
H290 C302 0.950 . S
H291 C303 0.950 . S
C292 H284 0.950 . S
C292 C293 1.386 . S
C292 C294 1.391 . S
C293 C292 1.386 . S
C293 C297 1.393 . S
C294 H286 0.950 . S
C294 C292 1.391 . S
C294 C295 1.400 . S
C295 C294 1.400 . S
C295 C296 1.398 . S
C295 C301 1.491 1_556 S
C296 H287 0.950 . S
C296 C295 1.398 . S
C296 C297 1.391 . S
C297 H285 0.950 . S
C297 C293 1.393 . S
C297 C296 1.391 . S
C298 H288 0.950 . S
C298 C299 1.386 . S
C298 C300 1.391 . S
C299 C298 1.386 . S
C299 C303 1.393 . S
C300 H289 0.950 . S
C300 C298 1.391 . S
C300 C301 1.400 . S
C301 C295 1.491 1_554 S
C301 C300 1.400 . S
C301 C302 1.398 . S
C302 H290 0.950 . S
C302 C301 1.398 . S
C302 C303 1.391 . S
C303 H291 0.950 . S
C303 C299 1.393 . S
C303 C302 1.391 . S
H304 C312 0.950 . S
H305 C317 0.950 . S
H306 C314 0.945 1_545 S
H307 C316 0.950 . S
H308 C318 0.950 . S
H309 C320 0.950 1_565 S
H310 C322 0.950 . S
H311 C323 0.950 . S
C312 H304 0.950 . S
C312 C313 1.386 1_655 S
C312 C314 1.396 . S
C313 C312 1.386 1_455 S
C313 C317 1.393 . S
C314 H306 0.945 1_565 S
C314 C312 1.396 . S
C314 C315 1.402 1_655 S
C315 C314 1.402 1_455 S
C315 C316 1.398 . S
C315 C321 1.491 1_565 S
C316 H307 0.950 . S
C316 C315 1.398 . S
C316 C317 1.391 . S
C317 H305 0.950 . S
C317 C313 1.393 . S
C317 C316 1.391 . S
C318 H308 0.950 . S
C318 C319 1.386 . S
C318 C320 1.391 . S
C319 C318 1.386 . S
C319 C323 1.393 1_455 S
C320 H309 0.950 1_545 S
C320 C318 1.391 . S
C320 C321 1.400 . S
C321 C315 1.491 1_545 S
C321 C320 1.400 . S
C321 C322 1.398 1_455 S
C322 H310 0.950 . S
C322 C321 1.398 1_655 S
C322 C323 1.391 . S
C323 H311 0.950 . S
C323 C319 1.393 1_655 S
C323 C322 1.391 . S
H324 C332 0.950 . S
H325 C337 0.950 . S
H326 C334 0.950 . S
H327 C336 0.950 . S
H328 C338 0.950 . S
H329 C340 0.950 . S
H330 C342 0.950 . S
H331 C343 0.950 . S
C332 H324 0.950 . S
C332 C333 1.386 . S
C332 C334 1.391 . S
C333 C332 1.386 . S
C333 C337 1.393 . S
C334 H326 0.950 . S
C334 C332 1.391 . S
C334 C335 1.400 . S
C335 C334 1.400 . S
C335 C336 1.398 . S
C335 C341 1.491 . S
C336 H327 0.950 . S
C336 C335 1.398 . S
C336 C337 1.391 . S
C337 H325 0.950 . S
C337 C333 1.393 . S
C337 C336 1.391 . S
C338 H328 0.950 . S
C338 C339 1.386 . S
C338 C340 1.391 . S
C339 C338 1.386 . S
C339 C343 1.393 . S
C340 H329 0.950 . S
C340 C338 1.391 . S
C340 C341 1.400 . S
C341 C335 1.491 . S
C341 C340 1.400 . S
C341 C342 1.398 . S
C342 H330 0.950 . S
C342 C341 1.398 . S
C342 C343 1.391 . S
C343 H331 0.950 . S
C343 C339 1.393 . S
C343 C342 1.391 . S
H344 C352 0.950 . S
H345 C357 0.950 . S
H346 C354 0.950 . S
H347 C356 0.950 . S
H348 C358 0.950 . S
H349 C360 0.950 . S
H350 C362 0.950 . S
H351 C363 0.950 . S
C352 H344 0.950 . S
C352 C353 1.386 1_565 S
C352 C354 1.391 . S
C353 C352 1.386 1_545 S
C353 C357 1.393 . S
C354 H346 0.950 . S
C354 C352 1.391 . S
C354 C355 1.400 1_565 S
C355 C354 1.400 1_545 S
C355 C356 1.398 . S
C355 C361 1.491 1_545 S
C356 H347 0.950 . S
C356 C355 1.398 . S
C356 C357 1.391 . S
C357 H345 0.950 . S
C357 C353 1.393 . S
C357 C356 1.391 . S
C358 H348 0.950 . S
C358 C359 1.386 1_545 S
C358 C360 1.391 . S
C359 C358 1.386 1_565 S
C359 C363 1.393 . S
C360 H349 0.950 . S
C360 C358 1.391 . S
C360 C361 1.400 1_545 S
C361 C355 1.491 1_565 S
C361 C360 1.400 1_565 S
C361 C362 1.398 . S
C362 H350 0.950 . S
C362 C361 1.398 . S
C362 C363 1.391 . S
C363 H351 0.950 . S
C363 C359 1.393 . S
C363 C362 1.391 . S
H364 C372 0.950 . S
H365 C377 0.950 . S
H366 C374 0.950 . S
H367 C376 0.950 . S
H368 C378 0.950 . S
H369 C380 0.950 . S
H370 C382 0.950 . S
H371 C383 0.950 . S
C372 H364 0.950 . S
C372 C373 1.386 . S
C372 C374 1.391 . S
C373 C372 1.386 . S
C373 C377 1.393 . S
C374 H366 0.950 . S
C374 C372 1.391 . S
C374 C375 1.400 . S
C375 C374 1.400 . S
C375 C376 1.398 . S
C375 C381 1.491 1_554 S
C376 H367 0.950 . S
C376 C375 1.398 . S
C376 C377 1.391 . S
C377 H365 0.950 . S
C377 C373 1.393 . S
C377 C376 1.391 . S
C378 H368 0.950 . S
C378 C379 1.386 . S
C378 C380 1.391 . S
C379 C378 1.386 . S
C379 C383 1.393 . S
C380 H369 0.950 . S
C380 C378 1.391 . S
C380 C381 1.400 . S
C381 C375 1.491 1_556 S
C381 C380 1.400 . S
C381 C382 1.398 . S
C382 H370 0.950 . S
C382 C381 1.398 . S
C382 C383 1.391 . S
C383 H371 0.950 . S
C383 C379 1.393 . S
C383 C382 1.391 . S
H384 C392 0.950 . S
H385 C397 0.950 . S
H386 C394 0.950 . S
H387 C396 0.950 . S
H388 C398 0.950 . S
H389 C400 0.950 . S
H390 C402 0.950 . S
H391 C403 0.950 . S
C392 H384 0.950 . S
C392 C393 1.386 . S
C392 C394 1.391 . S
C393 C392 1.386 . S
C393 C397 1.393 . S
C394 H386 0.950 . S
C394 C392 1.391 . S
C394 C395 1.400 . S
C395 C394 1.400 . S
C395 C396 1.398 . S
C395 C401 1.491 . S
C396 H387 0.950 . S
C396 C395 1.398 . S
C396 C397 1.391 . S
C397 H385 0.950 . S
C397 C393 1.393 . S
C397 C396 1.391 . S
C398 H388 0.950 . S
C398 C399 1.386 . S
C398 C400 1.391 . S
C399 C398 1.386 . S
C399 C403 1.393 . S
C400 H389 0.950 . S
C400 C398 1.391 . S
C400 C401 1.400 . S
C401 C395 1.491 . S
C401 C400 1.400 . S
C401 C402 1.398 . S
C402 H390 0.950 . S
C402 C401 1.398 . S
C402 C403 1.391 . S
C403 H391 0.950 . S
C403 C399 1.393 . S
C403 C402 1.391 . S
H404 C412 0.950 . S
H405 C417 0.950 . S
H406 C414 0.950 . S
H407 C416 0.950 . S
H408 C418 0.950 . S
H409 C420 0.950 . S
H410 C422 0.950 . S
H411 C423 0.950 . S
C412 H404 0.950 . S
C412 C413 1.386 . S
C412 C414 1.391 . S
C413 C412 1.386 . S
C413 C417 1.393 . S
C414 H406 0.950 . S
C414 C412 1.391 . S
C414 C415 1.400 . S
C415 C414 1.400 . S
C415 C416 1.398 . S
C415 C421 1.491 1_556 S
C416 H407 0.950 . S
C416 C415 1.398 . S
C416 C417 1.391 . S
C417 H405 0.950 . S
C417 C413 1.393 . S
C417 C416 1.391 . S
C418 H408 0.950 . S
C418 C419 1.386 . S
C418 C420 1.391 . S
C419 C418 1.386 . S
C419 C423 1.393 . S
C420 H409 0.950 . S
C420 C418 1.391 . S
C420 C421 1.400 . S
C421 C415 1.491 1_554 S
C421 C420 1.400 . S
C421 C422 1.398 . S
C422 H410 0.950 . S
C422 C421 1.398 . S
C422 C423 1.391 . S
C423 H411 0.950 . S
C423 C419 1.393 . S
C423 C422 1.391 . S
H424 C432 0.950 . S
H425 C437 0.950 . S
H426 C434 0.950 . S
H427 C436 0.950 . S
H428 C438 0.950 . S
H429 C440 0.950 . S
H430 C442 0.950 . S
H431 C443 0.950 . S
C432 H424 0.950 . S
C432 C433 1.386 1_655 S
C432 C434 1.391 . S
C433 C432 1.386 1_455 S
C433 C437 1.393 . S
C434 H426 0.950 . S
C434 C432 1.391 . S
C434 C435 1.400 1_655 S
C435 C434 1.400 1_455 S
C435 C436 1.398 . S
C435 C441 1.491 . S
C436 H427 0.950 . S
C436 C435 1.398 . S
C436 C437 1.391 . S
C437 H425 0.950 . S
C437 C433 1.393 . S
C437 C436 1.391 . S
C438 H428 0.950 . S
C438 C439 1.386 . S
C438 C440 1.391 . S
C439 C438 1.386 . S
C439 C443 1.393 1_455 S
C440 H429 0.950 . S
C440 C438 1.391 . S
C440 C441 1.400 . S
C441 C435 1.491 . S
C441 C440 1.400 . S
C441 C442 1.398 1_455 S
C442 H430 0.950 . S
C442 C441 1.398 1_655 S
C442 C443 1.391 . S
C443 H431 0.950 . S
C443 C439 1.393 1_655 S
C443 C442 1.391 . S
H444 C452 0.950 . S
H445 C457 0.950 . S
H446 C454 0.950 . S
H447 C456 0.950 . S
H448 C458 0.950 . S
H449 C460 0.950 . S
H450 C462 0.950 . S
H451 C463 0.950 . S
C452 H444 0.950 . S
C452 C453 1.386 . S
C452 C454 1.391 . S
C453 C452 1.386 . S
C453 C457 1.393 . S
C454 H446 0.950 . S
C454 C452 1.391 . S
C454 C455 1.400 . S
C455 C454 1.400 . S
C455 C456 1.398 . S
C455 C461 1.491 . S
C456 H447 0.950 . S
C456 C455 1.398 . S
C456 C457 1.391 . S
C457 H445 0.950 . S
C457 C453 1.393 . S
C457 C456 1.391 . S
C458 H448 0.950 . S
C458 C459 1.386 . S
C458 C460 1.391 . S
C459 C458 1.386 . S
C459 C463 1.393 . S
C460 H449 0.950 . S
C460 C458 1.391 . S
C460 C461 1.400 . S
C461 C455 1.491 . S
C461 C460 1.400 . S
C461 C462 1.398 . S
C462 H450 0.950 . S
C462 C461 1.398 . S
C462 C463 1.391 . S
C463 H451 0.950 . S
C463 C459 1.393 . S
C463 C462 1.391 . S
H464 C472 0.950 . S
H465 C477 0.950 . S
H466 C474 0.950 . S
H467 C476 0.950 . S
H468 C478 0.950 . S
H469 C480 0.950 . S
H470 C482 0.950 . S
H471 C483 0.950 . S
C472 H464 0.950 . S
C472 C473 1.386 . S
C472 C474 1.391 . S
C473 C472 1.386 . S
C473 C477 1.393 . S
C474 H466 0.950 . S
C474 C472 1.391 . S
C474 C475 1.400 . S
C475 C474 1.400 . S
C475 C476 1.398 . S
C475 C481 1.491 . S
C476 H467 0.950 . S
C476 C475 1.398 . S
C476 C477 1.391 . S
C477 H465 0.950 . S
C477 C473 1.393 . S
C477 C476 1.391 . S
C478 H468 0.950 . S
C478 C479 1.386 . S
C478 C480 1.391 . S
C479 C478 1.386 . S
C479 C483 1.393 . S
C480 H469 0.950 . S
C480 C478 1.391 . S
C480 C481 1.400 . S
C481 C475 1.491 . S
C481 C480 1.400 . S
C481 C482 1.398 . S
C482 H470 0.950 . S
C482 C481 1.398 . S
C482 C483 1.391 . S
C483 H471 0.950 . S
C483 C479 1.393 . S
C483 C482 1.391 . S
H484 C492 0.950 . S
H485 C497 0.950 . S
H486 C494 0.950 . S
H487 C496 0.950 . S
H488 C498 0.950 . S
H489 C500 0.950 . S
H490 C502 0.950 . S
H491 C503 0.950 . S
C492 H484 0.950 . S
C492 C493 1.386 . S
C492 C494 1.391 . S
C493 C492 1.386 . S
C493 C497 1.393 . S
C494 H486 0.950 . S
C494 C492 1.391 . S
C494 C495 1.400 . S
C495 C494 1.400 . S
C495 C496 1.398 . S
C495 C501 1.491 1_554 S
C496 H487 0.950 . S
C496 C495 1.398 . S
C496 C497 1.391 . S
C497 H485 0.950 . S
C497 C493 1.393 . S
C497 C496 1.391 . S
C498 H488 0.950 . S
C498 C499 1.386 . S
C498 C500 1.391 . S
C499 C498 1.386 . S
C499 C503 1.393 . S
C500 H489 0.950 . S
C500 C498 1.391 . S
C500 C501 1.400 . S
C501 C495 1.491 1_556 S
C501 C500 1.400 . S
C501 C502 1.398 . S
C502 H490 0.950 . S
C502 C501 1.398 . S
C502 C503 1.391 . S
C503 H491 0.950 . S
C503 C499 1.393 . S
C503 C502 1.391 . S
H504 C512 0.950 . S
H505 C517 0.950 . S
H506 C514 0.950 . S
H507 C516 0.950 . S
H508 C518 0.950 . S
H509 C520 0.950 . S
H510 C522 0.950 . S
H511 C523 0.950 . S
C512 H504 0.950 . S
C512 C513 1.386 . S
C512 C514 1.391 . S
C513 C512 1.386 . S
C513 C517 1.393 . S
C514 H506 0.950 . S
C514 C512 1.391 . S
C514 C515 1.400 . S
C515 C514 1.400 . S
C515 C516 1.398 . S
C515 C521 1.491 . S
C516 H507 0.950 . S
C516 C515 1.398 . S
C516 C517 1.391 . S
C517 H505 0.950 . S
C517 C513 1.393 . S
C517 C516 1.391 . S
C518 H508 0.950 . S
C518 C519 1.386 . S
C518 C520 1.391 . S
C519 C518 1.386 . S
C519 C523 1.393 . S
C520 H509 0.950 . S
C520 C518 1.391 . S
C520 C521 1.400 . S
C521 C515 1.491 . S
C521 C520 1.400 . S
C521 C522 1.398 . S
C522 H510 0.950 . S
C522 C521 1.398 . S
C522 C523 1.391 . S
C523 H511 0.950 . S
C523 C519 1.393 . S
C523 C522 1.391 . S
H524 C532 0.950 . S
H525 C537 0.950 . S
H526 C534 0.950 . S
H527 C536 0.950 . S
H528 C538 0.950 . S
H529 C540 0.950 . S
H530 C542 0.950 . S
H531 C543 0.950 . S
C532 H524 0.950 . S
C532 C533 1.386 . S
C532 C534 1.391 . S
C533 C532 1.386 . S
C533 C537 1.393 . S
C534 H526 0.950 . S
C534 C532 1.391 . S
C534 C535 1.400 . S
C535 C534 1.400 . S
C535 C536 1.398 . S
C535 C541 1.491 . S
C536 H527 0.950 . S
C536 C535 1.398 . S
C536 C537 1.391 . S
C537 H525 0.950 . S
C537 C533 1.393 . S
C537 C536 1.391 . S
C538 H528 0.950 . S
C538 C539 1.386 . S
C538 C540 1.391 . S
C539 C538 1.386 . S
C539 C543 1.393 . S
C540 H529 0.950 . S
C540 C538 1.391 . S
C540 C541 1.400 . S
C541 C535 1.491 . S
C541 C540 1.400 . S
C541 C542 1.398 . S
C542 H530 0.950 . S
C542 C541 1.398 . S
C542 C543 1.391 . S
C543 H531 0.950 . S
C543 C539 1.393 . S
C543 C542 1.391 . S
H544 C552 0.950 1_556 S
H545 C557 0.950 . S
H546 C554 0.950 . S
H547 C556 0.950 . S
H548 C558 0.950 . S
H549 C560 0.950 . S
H550 C562 0.950 . S
H551 C563 0.950 . S
C552 H544 0.950 1_554 S
C552 C553 1.386 . S
C552 C554 1.391 . S
C553 C552 1.386 . S
C553 C557 1.393 . S
C554 H546 0.950 . S
C554 C552 1.391 . S
C554 C555 1.400 . S
C555 C554 1.400 . S
C555 C556 1.398 . S
C555 C561 1.491 . S
C556 H547 0.950 . S
C556 C555 1.398 . S
C556 C557 1.391 . S
C557 H545 0.950 . S
C557 C553 1.393 . S
C557 C556 1.391 . S
C558 H548 0.950 . S
C558 C559 1.386 . S
C558 C560 1.391 . S
C559 C558 1.386 . S
C559 C563 1.393 . S
C560 H549 0.950 . S
C560 C558 1.391 . S
C560 C561 1.400 . S
C561 C555 1.491 . S
C561 C560 1.400 . S
C561 C562 1.398 . S
C562 H550 0.950 . S
C562 C561 1.398 . S
C562 C563 1.391 . S
C563 H551 0.950 . S
C563 C559 1.393 . S
C563 C562 1.391 . S
H564 C572 0.950 . S
H565 C577 0.950 . S
H566 C574 0.950 . S
H567 C576 0.950 . S
H568 C578 0.950 . S
H569 C580 0.950 . S
H570 C582 0.950 . S
H571 C583 0.950 . S
C572 H564 0.950 . S
C572 C573 1.386 . S
C572 C574 1.391 . S
C573 C572 1.386 . S
C573 C577 1.393 . S
C574 H566 0.950 . S
C574 C572 1.391 . S
C574 C575 1.400 . S
C575 C574 1.400 . S
C575 C576 1.398 . S
C575 C581 1.491 . S
C576 H567 0.950 . S
C576 C575 1.398 . S
C576 C577 1.391 . S
C577 H565 0.950 . S
C577 C573 1.393 . S
C577 C576 1.391 . S
C578 H568 0.950 . S
C578 C579 1.386 . S
C578 C580 1.391 . S
C579 C578 1.386 . S
C579 C583 1.393 . S
C580 H569 0.950 . S
C580 C578 1.391 . S
C580 C581 1.400 . S
C581 C575 1.491 . S
C581 C580 1.400 . S
C581 C582 1.398 . S
C582 H570 0.950 . S
C582 C581 1.398 . S
C582 C583 1.391 . S
C583 H571 0.950 . S
C583 C579 1.393 . S
C583 C582 1.391 . S
H584 C592 0.950 . S
H585 C597 0.950 . S
H586 C594 0.950 . S
H587 C596 0.950 . S
H588 C598 0.950 . S
H589 C600 0.950 . S
H590 C602 0.950 . S
H591 C603 0.950 . S
C592 H584 0.950 . S
C592 C593 1.386 . S
C592 C594 1.391 . S
C593 C592 1.386 . S
C593 C597 1.393 . S
C594 H586 0.950 . S
C594 C592 1.391 . S
C594 C595 1.400 . S
C595 C594 1.400 . S
C595 C596 1.398 . S
C595 C601 1.491 . S
C596 H587 0.950 . S
C596 C595 1.398 . S
C596 C597 1.391 . S
C597 H585 0.950 . S
C597 C593 1.393 . S
C597 C596 1.391 . S
C598 H588 0.950 . S
C598 C599 1.386 . S
C598 C600 1.391 . S
C599 C598 1.386 . S
C599 C603 1.393 . S
C600 H589 0.950 . S
C600 C598 1.391 . S
C600 C601 1.400 . S
C601 C595 1.491 . S
C601 C600 1.400 . S
C601 C602 1.398 . S
C602 H590 0.950 . S
C602 C601 1.398 . S
C602 C603 1.391 . S
C603 H591 0.950 . S
C603 C599 1.393 . S
C603 C602 1.391 . S
H604 C612 0.950 . S
H605 C617 0.950 . S
H606 C614 0.950 . S
H607 C616 0.950 . S
H608 C618 0.950 . S
H609 C620 0.950 . S
H610 C622 0.950 . S
H611 C623 0.950 . S
C612 H604 0.950 . S
C612 C613 1.386 . S
C612 C614 1.391 . S
C613 C612 1.386 . S
C613 C617 1.393 . S
C614 H606 0.950 . S
C614 C612 1.391 . S
C614 C615 1.400 . S
C615 C614 1.400 . S
C615 C616 1.398 . S
C615 C621 1.491 . S
C616 H607 0.950 . S
C616 C615 1.398 . S
C616 C617 1.391 . S
C617 H605 0.950 . S
C617 C613 1.393 . S
C617 C616 1.391 . S
C618 H608 0.950 . S
C618 C619 1.386 . S
C618 C620 1.391 . S
C619 C618 1.386 . S
C619 C623 1.393 . S
C620 H609 0.950 . S
C620 C618 1.391 . S
C620 C621 1.400 . S
C621 C615 1.491 . S
C621 C620 1.400 . S
C621 C622 1.398 . S
C622 H610 0.950 . S
C622 C621 1.398 . S
C622 C623 1.391 . S
C623 H611 0.950 . S
C623 C619 1.393 . S
C623 C622 1.391 . S
H624 C632 0.950 . S
H625 C637 0.950 . S
H626 C634 0.950 . S
H627 C636 0.950 . S
H628 C638 0.950 . S
H629 C640 0.950 . S
H630 C642 0.950 . S
H631 C643 0.950 . S
C632 H624 0.950 . S
C632 C633 1.386 . S
C632 C634 1.391 . S
C633 C632 1.386 . S
C633 C637 1.393 . S
C634 H626 0.950 . S
C634 C632 1.391 . S
C634 C635 1.400 . S
C635 C634 1.400 . S
C635 C636 1.398 . S
C635 C641 1.491 . S
C636 H627 0.950 . S
C636 C635 1.398 . S
C636 C637 1.391 . S
C637 H625 0.950 . S
C637 C633 1.393 . S
C637 C636 1.391 . S
C638 H628 0.950 . S
C638 C639 1.386 . S
C638 C640 1.391 . S
C639 C638 1.386 . S
C639 C643 1.393 . S
C640 H629 0.950 . S
C640 C638 1.391 . S
C640 C641 1.400 . S
C641 C635 1.491 . S
C641 C640 1.400 . S
C641 C642 1.398 . S
C642 H630 0.950 . S
C642 C641 1.398 . S
C642 C643 1.391 . S
C643 H631 0.950 . S
C643 C639 1.393 . S
C643 C642 1.391 . S
H644 C652 0.950 . S
H645 C657 0.950 . S
H646 C654 0.950 . S
H647 C656 0.950 . S
H648 C658 0.950 . S
H649 C660 0.950 . S
H650 C662 0.950 . S
H651 C663 0.950 . S
C652 H644 0.950 . S
C652 C653 1.386 . S
C652 C654 1.391 . S
C653 C652 1.386 . S
C653 C657 1.393 . S
C654 H646 0.950 . S
C654 C652 1.391 . S
C654 C655 1.400 . S
C655 C654 1.400 . S
C655 C656 1.398 . S
C655 C661 1.491 . S
C656 H647 0.950 . S
C656 C655 1.398 . S
C656 C657 1.391 . S
C657 H645 0.950 . S
C657 C653 1.393 . S
C657 C656 1.391 . S
C658 H648 0.950 . S
C658 C659 1.386 . S
C658 C660 1.391 . S
C659 C658 1.386 . S
C659 C663 1.393 . S
C660 H649 0.950 . S
C660 C658 1.391 . S
C660 C661 1.400 . S
C661 C655 1.491 . S
C661 C660 1.400 . S
C661 C662 1.398 . S
C662 H650 0.950 . S
C662 C661 1.398 . S
C662 C663 1.391 . S
C663 H651 0.950 . S
C663 C659 1.393 . S
C663 C662 1.391 . S
H664 C672 0.950 . S
H665 C677 0.950 . S
H666 C674 0.950 . S
H667 C676 0.950 . S
H668 C678 0.950 . S
H669 C680 0.950 . S
H670 C682 0.950 . S
H671 C683 0.950 . S
C672 H664 0.950 . S
C672 C673 1.386 . S
C672 C674 1.391 . S
C673 C672 1.386 . S
C673 C677 1.393 . S
C674 H666 0.950 . S
C674 C672 1.391 . S
C674 C675 1.400 . S
C675 C674 1.400 . S
C675 C676 1.398 . S
C675 C681 1.491 . S
C676 H667 0.950 . S
C676 C675 1.398 . S
C676 C677 1.391 . S
C677 H665 0.950 . S
C677 C673 1.393 . S
C677 C676 1.391 . S
C678 H668 0.950 . S
C678 C679 1.386 . S
C678 C680 1.391 . S
C679 C678 1.386 . S
C679 C683 1.393 . S
C680 H669 0.950 . S
C680 C678 1.391 . S
C680 C681 1.400 . S
C681 C675 1.491 . S
C681 C680 1.400 . S
C681 C682 1.398 . S
C682 H670 0.950 . S
C682 C681 1.398 . S
C682 C683 1.391 . S
C683 H671 0.950 . S
C683 C679 1.393 . S
C683 C682 1.391 . S
H684 C692 0.950 . S
H685 C697 0.950 . S
H686 C694 0.950 . S
H687 C696 0.950 . S
H688 C698 0.950 . S
H689 C700 0.950 . S
H690 C702 0.950 . S
H691 C703 0.950 . S
C692 H684 0.950 . S
C692 C693 1.386 . S
C692 C694 1.391 . S
C693 C692 1.386 . S
C693 C697 1.393 . S
C694 H686 0.950 . S
C694 C692 1.391 . S
C694 C695 1.400 . S
C695 C694 1.400 . S
C695 C696 1.398 . S
C695 C701 1.491 . S
C696 H687 0.950 . S
C696 C695 1.398 . S
C696 C697 1.391 . S
C697 H685 0.950 . S
C697 C693 1.393 . S
C697 C696 1.391 . S
C698 H688 0.950 . S
C698 C699 1.386 . S
C698 C700 1.391 . S
C699 C698 1.386 . S
C699 C703 1.393 . S
C700 H689 0.950 . S
C700 C698 1.391 . S
C700 C701 1.400 . S
C701 C695 1.491 . S
C701 C700 1.400 . S
C701 C702 1.398 . S
C702 H690 0.950 . S
C702 C701 1.398 . S
C702 C703 1.391 . S
C703 H691 0.950 . S
C703 C699 1.393 . S
C703 C702 1.391 . S
H704 C712 0.950 . S
H705 C717 0.950 . S
H706 C714 0.950 . S
H707 C716 0.950 . S
H708 C718 0.950 . S
H709 C720 0.950 . S
H710 C722 0.950 . S
H711 C723 0.950 . S
C712 H704 0.950 . S
C712 C713 1.386 . S
C712 C714 1.391 . S
C713 C712 1.386 . S
C713 C717 1.393 . S
C714 H706 0.950 . S
C714 C712 1.391 . S
C714 C715 1.400 . S
C715 C714 1.400 . S
C715 C716 1.398 . S
C715 C721 1.491 . S
C716 H707 0.950 . S
C716 C715 1.398 . S
C716 C717 1.391 . S
C717 H705 0.950 . S
C717 C713 1.393 . S
C717 C716 1.391 . S
C718 H708 0.950 . S
C718 C719 1.386 . S
C718 C720 1.391 . S
C719 C718 1.386 . S
C719 C723 1.393 . S
C720 H709 0.950 . S
C720 C718 1.391 . S
C720 C721 1.400 . S
C721 C715 1.491 . S
C721 C720 1.400 . S
C721 C722 1.398 . S
C722 H710 0.950 . S
C722 C721 1.398 . S
C722 C723 1.391 . S
C723 H711 0.950 . S
C723 C719 1.393 . S
C723 C722 1.391 . S
H724 C732 0.950 . S
H725 C737 0.950 . S
H726 C734 0.950 . S
H727 C736 0.950 . S
H728 C738 0.950 . S
H729 C740 0.950 . S
H730 C742 0.950 . S
H731 C743 0.950 . S
C732 H724 0.950 . S
C732 C733 1.386 . S
C732 C734 1.391 . S
C733 C732 1.386 . S
C733 C737 1.393 . S
C734 H726 0.950 . S
C734 C732 1.391 . S
C734 C735 1.400 . S
C735 C734 1.400 . S
C735 C736 1.398 . S
C735 C741 1.491 . S
C736 H727 0.950 . S
C736 C735 1.398 . S
C736 C737 1.391 . S
C737 H725 0.950 . S
C737 C733 1.393 . S
C737 C736 1.391 . S
C738 H728 0.950 . S
C738 C739 1.386 . S
C738 C740 1.391 . S
C739 C738 1.386 . S
C739 C743 1.393 . S
C740 H729 0.950 . S
C740 C738 1.391 . S
C740 C741 1.400 . S
C741 C735 1.491 . S
C741 C740 1.400 . S
C741 C742 1.398 . S
C742 H730 0.950 . S
C742 C741 1.398 . S
C742 C743 1.391 . S
C743 H731 0.950 . S
C743 C739 1.393 . S
C743 C742 1.391 . S
H744 C752 0.950 . S
H745 C757 0.950 . S
H746 C754 0.950 . S
H747 C756 0.950 . S
H748 C758 0.950 . S
H749 C760 0.950 . S
H750 C762 0.950 . S
H751 C763 0.950 . S
C752 H744 0.950 . S
C752 C753 1.386 . S
C752 C754 1.391 . S
C753 C752 1.386 . S
C753 C757 1.393 . S
C754 H746 0.950 . S
C754 C752 1.391 . S
C754 C755 1.400 . S
C755 C754 1.400 . S
C755 C756 1.398 . S
C755 C761 1.491 . S
C756 H747 0.950 . S
C756 C755 1.398 . S
C756 C757 1.391 . S
C757 H745 0.950 . S
C757 C753 1.393 . S
C757 C756 1.391 . S
C758 H748 0.950 . S
C758 C759 1.386 . S
C758 C760 1.391 . S
C759 C758 1.386 . S
C759 C763 1.393 . S
C760 H749 0.950 . S
C760 C758 1.391 . S
C760 C761 1.400 . S
C761 C755 1.491 . S
C761 C760 1.400 . S
C761 C762 1.398 . S
C762 H750 0.950 . S
C762 C761 1.398 . S
C762 C763 1.391 . S
C763 H751 0.950 . S
C763 C759 1.393 . S
C763 C762 1.391 . S
H764 C772 0.950 . S
H765 C777 0.950 . S
H766 C774 0.950 . S
H767 C776 0.950 . S
H768 C778 0.950 . S
H769 C780 0.950 . S
H770 C782 0.950 . S
H771 C783 0.950 . S
C772 H764 0.950 . S
C772 C773 1.386 . S
C772 C774 1.391 . S
C773 C772 1.386 . S
C773 C777 1.393 . S
C774 H766 0.950 . S
C774 C772 1.391 . S
C774 C775 1.400 . S
C775 C774 1.400 . S
C775 C776 1.398 . S
C775 C781 1.491 . S
C776 H767 0.950 . S
C776 C775 1.398 . S
C776 C777 1.391 . S
C777 H765 0.950 . S
C777 C773 1.393 . S
C777 C776 1.391 . S
C778 H768 0.950 . S
C778 C779 1.386 . S
C778 C780 1.391 . S
C779 C778 1.386 . S
C779 C783 1.393 . S
C780 H769 0.950 . S
C780 C778 1.391 . S
C780 C781 1.400 . S
C781 C775 1.491 . S
C781 C780 1.400 . S
C781 C782 1.398 . S
C782 H770 0.950 . S
C782 C781 1.398 . S
C782 C783 1.391 . S
C783 H771 0.950 . S
C783 C779 1.393 . S
C783 C782 1.391 . S
H784 C792 0.950 . S
H785 C797 0.950 . S
H786 C794 0.950 . S
H787 C796 0.950 . S
H788 C798 0.950 . S
H789 C800 0.950 . S
H790 C802 0.950 . S
H791 C803 0.950 . S
C792 H784 0.950 . S
C792 C793 1.386 . S
C792 C794 1.391 . S
C793 C792 1.386 . S
C793 C797 1.393 . S
C794 H786 0.950 . S
C794 C792 1.391 . S
C794 C795 1.400 . S
C795 C794 1.400 . S
C795 C796 1.398 . S
C795 C801 1.491 . S
C796 H787 0.950 . S
C796 C795 1.398 . S
C796 C797 1.391 . S
C797 H785 0.950 . S
C797 C793 1.393 . S
C797 C796 1.391 . S
C798 H788 0.950 . S
C798 C799 1.386 . S
C798 C800 1.391 . S
C799 C798 1.386 . S
C799 C803 1.393 . S
C800 H789 0.950 . S
C800 C798 1.391 . S
C800 C801 1.400 . S
C801 C795 1.491 . S
C801 C800 1.400 . S
C801 C802 1.398 . S
C802 H790 0.950 . S
C802 C801 1.398 . S
C802 C803 1.391 . S
C803 H791 0.950 . S
C803 C799 1.393 . S
C803 C802 1.391 . S
H804 C812 0.950 . S
H805 C817 0.950 . S
H806 C814 0.950 . S
H807 C816 0.950 . S
H808 C818 0.950 . S
H809 C820 0.950 . S
H810 C822 0.950 . S
H811 C823 0.950 . S
C812 H804 0.950 . S
C812 C813 1.386 . S
C812 C814 1.391 . S
C813 C812 1.386 . S
C813 C817 1.393 . S
C814 H806 0.950 . S
C814 C812 1.391 . S
C814 C815 1.400 . S
C815 C814 1.400 . S
C815 C816 1.398 . S
C815 C821 1.491 . S
C816 H807 0.950 . S
C816 C815 1.398 . S
C816 C817 1.391 . S
C817 H805 0.950 . S
C817 C813 1.393 . S
C817 C816 1.391 . S
C818 H808 0.950 . S
C818 C819 1.386 . S
C818 C820 1.391 . S
C819 C818 1.386 . S
C819 C823 1.393 . S
C820 H809 0.950 . S
C820 C818 1.391 . S
C820 C821 1.400 . S
C821 C815 1.491 . S
C821 C820 1.400 . S
C821 C822 1.398 . S
C822 H810 0.950 . S
C822 C821 1.398 . S
C822 C823 1.391 . S
C823 H811 0.950 . S
C823 C819 1.393 . S
C823 C822 1.391 . S
H824 C832 0.950 . S
H825 C837 0.950 . S
H826 C834 0.950 . S
H827 C836 0.950 . S
H828 C838 0.950 1_554 S
H829 C840 0.950 . S
H830 C842 0.950 . S
H831 C843 0.950 . S
C832 H824 0.950 . S
C832 C833 1.386 . S
C832 C834 1.391 . S
C833 C832 1.386 . S
C833 C837 1.393 . S
C834 H826 0.950 . S
C834 C832 1.391 . S
C834 C835 1.400 . S
C835 C834 1.400 . S
C835 C836 1.398 . S
C835 C841 1.491 . S
C836 H827 0.950 . S
C836 C835 1.398 . S
C836 C837 1.391 . S
C837 H825 0.950 . S
C837 C833 1.393 . S
C837 C836 1.391 . S
C838 H828 0.950 1_556 S
C838 C839 1.386 . S
C838 C840 1.391 . S
C839 C838 1.386 . S
C839 C843 1.393 . S
C840 H829 0.950 . S
C840 C838 1.391 . S
C840 C841 1.400 . S
C841 C835 1.491 . S
C841 C840 1.400 . S
C841 C842 1.398 . S
C842 H830 0.950 . S
C842 C841 1.398 . S
C842 C843 1.391 . S
C843 H831 0.950 . S
C843 C839 1.393 . S
C843 C842 1.391 . S
H844 C852 0.950 . S
H845 C857 0.950 . S
H846 C854 0.950 . S
H847 C856 0.950 . S
H848 C858 0.950 . S
H849 C860 0.950 . S
H850 C862 0.950 . S
H851 C863 0.950 . S
C852 H844 0.950 . S
C852 C853 1.386 . S
C852 C854 1.391 . S
C853 C852 1.386 . S
C853 C857 1.393 . S
C854 H846 0.950 . S
C854 C852 1.391 . S
C854 C855 1.400 . S
C855 C854 1.400 . S
C855 C856 1.398 . S
C855 C861 1.491 . S
C856 H847 0.950 . S
C856 C855 1.398 . S
C856 C857 1.391 . S
C857 H845 0.950 . S
C857 C853 1.393 . S
C857 C856 1.391 . S
C858 H848 0.950 . S
C858 C859 1.386 . S
C858 C860 1.391 . S
C859 C858 1.386 . S
C859 C863 1.393 . S
C860 H849 0.950 . S
C860 C858 1.391 . S
C860 C861 1.400 . S
C861 C855 1.491 . S
C861 C860 1.400 . S
C861 C862 1.398 . S
C862 H850 0.950 . S
C862 C861 1.398 . S
C862 C863 1.391 . S
C863 H851 0.950 . S
C863 C859 1.393 . S
C863 C862 1.391 . S
C233 C13 0.825 . S
C239 C68 0.827 . S
C253 C27 0.827 . S
C259 C71 0.832 . S
C273 C96 0.829 . S
C279 C28 0.837 . S
C293 C55 0.831 . S
C299 C110 0.836 . S
C313 C69 0.838 . S
C319 C12 0.842 . S
C333 C140 0.824 . S
C339 C124 0.825 . S
C353 C97 0.825 . S
C359 C29 0.826 . S
C373 C138 0.831 . S
C379 C166 0.835 . S
C393 C180 0.837 . S
C399 C208 0.842 . S
C413 C125 0.825 . S
C419 C141 0.824 . S
C433 C182 0.826 . S
C439 C222 0.821 . S
C453 C167 0.833 . S
C459 C139 0.828 . S
C473 C209 0.835 . S
C479 C181 0.836 . S
C493 C26 0.831 . S
C499 C70 0.835 . S
C513 C183 0.829 . S
C519 C223 0.837 . S
C533 C111 0.825 . S
C539 C54 0.824 . S
C553 C0 1.572 . S
C559 C99 1.566 . S
C573 C57 1.577 . S
C579 C14 1.577 . S
C593 C82 1.572 . S
C599 C41 1.574 . S
C613 C42 1.575 . S
C619 C85 1.574 . S
C633 C1 1.577 . S
C639 C155 1.583 . S
C653 C113 1.576 . S
C659 C56 1.576 . S
C673 C153 1.568 . S
C679 C40 1.566 . S
C693 C127 1.568 . S
C699 C84 1.569 . S
C713 C169 1.570 . S
C719 C154 1.570 . S
C733 C197 1.576 . S
C739 C112 1.578 . S
C753 C152 1.575 . S
C759 C195 1.577 . S
C773 C211 1.577 . S
C779 C126 1.579 . S
C793 C98 1.568 . S
C799 C168 1.568 . S
C813 C196 1.576 . S
C819 C15 1.575 . S
C833 C83 1.572 . S
C839 C194 1.571 . S
C853 C210 1.568 . S
C859 C43 1.565 . S
