# Generated by pormake.
# Topology fcu, (12)-cn, num edge types: 1
# Building blocks:
#     Node 0, Type 0, BuildingBlock: ZALLEG_clean_sbu_0, # of connection points: 12
#     Node 1, Type 0, BuildingBlock: ZALLEG_clean_sbu_0, # of connection points: 12
#     Node 2, Type 0, BuildingBlock: ZALLEG_clean_sbu_0, # of connection points: 12
#     Node 3, Type 0, BuildingBlock: ZALLEG_clean_sbu_0, # of connection points: 12
#     Edge 4, Type (0, 0), BuildingBlock: TEMPAE_clean_linker_10, # of connection points: 2
#     Edge 5, Type (0, 0), BuildingBlock: TEMPAE_clean_linker_10, # of connection points: 2
#     Edge 6, Type (0, 0), BuildingBlock: TEMPAE_clean_linker_10, # of connection points: 2
#     Edge 7, Type (0, 0), BuildingBlock: TEMPAE_clean_linker_10, # of connection points: 2
#     Edge 8, Type (0, 0), BuildingBlock: TEMPAE_clean_linker_10, # of connection points: 2
#     Edge 9, Type (0, 0), BuildingBlock: TEMPAE_clean_linker_10, # of connection points: 2
#     Edge 10, Type (0, 0), BuildingBlock: TEMPAE_clean_linker_10, # of connection points: 2
#     Edge 11, Type (0, 0), BuildingBlock: TEMPAE_clean_linker_10, # of connection points: 2
#     Edge 12, Type (0, 0), BuildingBlock: TEMPAE_clean_linker_10, # of connection points: 2
#     Edge 13, Type (0, 0), BuildingBlock: TEMPAE_clean_linker_10, # of connection points: 2
#     Edge 14, Type (0, 0), BuildingBlock: TEMPAE_clean_linker_10, # of connection points: 2
#     Edge 15, Type (0, 0), BuildingBlock: TEMPAE_clean_linker_10, # of connection points: 2
#     Edge 16, Type (0, 0), BuildingBlock: TEMPAE_clean_linker_10, # of connection points: 2
#     Edge 17, Type (0, 0), BuildingBlock: TEMPAE_clean_linker_10, # of connection points: 2
#     Edge 18, Type (0, 0), BuildingBlock: TEMPAE_clean_linker_10, # of connection points: 2
#     Edge 19, Type (0, 0), BuildingBlock: TEMPAE_clean_linker_10, # of connection points: 2
#     Edge 20, Type (0, 0), BuildingBlock: TEMPAE_clean_linker_10, # of connection points: 2
#     Edge 21, Type (0, 0), BuildingBlock: TEMPAE_clean_linker_10, # of connection points: 2
#     Edge 22, Type (0, 0), BuildingBlock: TEMPAE_clean_linker_10, # of connection points: 2
#     Edge 23, Type (0, 0), BuildingBlock: TEMPAE_clean_linker_10, # of connection points: 2
#     Edge 24, Type (0, 0), BuildingBlock: TEMPAE_clean_linker_10, # of connection points: 2
#     Edge 25, Type (0, 0), BuildingBlock: TEMPAE_clean_linker_10, # of connection points: 2
#     Edge 26, Type (0, 0), BuildingBlock: TEMPAE_clean_linker_10, # of connection points: 2
#     Edge 27, Type (0, 0), BuildingBlock: TEMPAE_clean_linker_10, # of connection points: 2
# Relax obj value: 0.000
# Max RMSD: 0.000
# Mean RMSD: 0.000
data_MOF--net-fcu--node1-ZALLEG_clean_sbu_0--edge1-TEMPAE_clean_linker_10
_symmetry_space_group_name_H-M    P1
_symmetry_Int_Tables_number       1
_symmetry_cell_setting            triclinic
loop_
_symmetry_equiv_pos_as_xyz
'x, y, z'
_cell_length_a     26.84413
_cell_length_b     26.835379
_cell_length_c     26.844572
_cell_angle_alpha  90.005611
_cell_angle_beta   90.004221
_cell_angle_gamma 89.994673
loop_
_atom_site_label
_atom_site_type_symbol
_atom_site_fract_x
_atom_site_fract_y
_atom_site_fract_z
_atom_type_partial_charge
H0 H 0.94468 0.94264 0.94455 0.0
O1 O 0.96585 0.96413 0.96562 0.0
Tb2 Tb 0.92163 1.01057 1.01046 0.0
Tb3 Tb 0.01132 0.92087 0.01249 0.0
Tb4 Tb 0.0118 1.00931 0.9211 0.0
O5 O 0.96536 0.96561 0.05733 0.0
O6 O 0.96577 0.05578 0.9642 0.0
O7 O 0.96537 0.05718 0.05571 0.0
O8 O 0.05695 0.96566 0.05763 0.0
O9 O 0.05737 0.05579 0.96456 0.0
O10 O 0.05724 0.96406 0.96602 0.0
H11 H 0.94406 0.94464 0.07879 0.0
H12 H 0.94465 0.07683 0.94264 0.0
Tb13 Tb 0.01099 0.01224 0.10066 0.0
Tb14 Tb 0.01139 0.10047 1.00951 0.0
H15 H 0.94401 0.07867 0.07658 0.0
H16 H 0.07815 0.94477 0.07926 0.0
Tb17 Tb 0.10109 1.01058 0.01115 0.0
H18 H 0.07877 0.07668 0.94314 0.0
H19 H 0.0785 0.94243 0.94518 0.0
O20 O 0.05704 0.05718 0.05612 0.0
H21 H 0.07822 0.07872 0.07713 0.0
O22 O 0.87874 0.94079 1.00985 0.0
O23 O 0.14405 0.08032 1.00952 0.0
O24 O 0.1439 0.94069 1.01081 0.0
O25 O 0.87873 0.08043 0.01086 0.0
O26 O 0.01271 0.87691 0.94326 0.0
O27 O 0.0116 0.14452 0.07859 0.0
O28 O 0.01116 0.14225 0.93906 0.0
O29 O 1.01017 0.87924 0.08301 0.0
O30 O 0.9422 1.01037 0.87789 0.0
O31 O 0.08067 0.01429 0.14373 0.0
O32 O 0.94091 0.0132 0.14316 0.0
O33 O 0.08191 1.00705 0.8786 0.0
O34 O 0.94149 0.87795 0.01337 0.0
O35 O 0.08126 0.1433 1.01024 0.0
O36 O 0.94153 0.14329 1.0081 0.0
O37 O 0.08107 0.87797 0.01478 0.0
O38 O 0.87845 1.01019 0.08007 0.0
O39 O 0.14431 1.01041 0.94171 0.0
O40 O 0.14368 1.01037 0.08118 0.0
O41 O 0.87909 1.00941 0.9404 0.0
O42 O 0.0121 0.94314 0.14474 0.0
O43 O 0.01383 0.07851 0.87717 0.0
O44 O 1.01025 0.93877 0.87944 0.0
O45 O 1.00965 0.08273 0.14238 0.0
C46 C 0.89397 0.89325 0.01164 0.0
C47 C 0.12876 0.12787 1.00976 0.0
C48 C 0.12861 0.89317 0.01304 0.0
C49 C 0.89399 0.128 1.00941 0.0
C50 C 0.01148 0.89145 0.89546 0.0
C51 C 1.01048 0.13006 0.12638 0.0
C52 C 0.01271 0.1263 0.89174 0.0
C53 C 0.01117 0.89529 0.13031 0.0
C54 C 0.89454 1.00982 0.89288 0.0
C55 C 0.12826 0.0125 0.12865 0.0
C56 C 0.89339 0.01186 0.12771 0.0
C57 C 0.12941 1.00845 0.8941 0.0
H58 H 0.94424 0.44522 0.44245 0.0
O59 O 0.96556 0.46597 0.46411 0.0
Tb60 Tb 0.9217 0.5116 0.51014 0.0
Tb61 Tb 1.01056 0.42089 0.50962 0.0
Tb62 Tb 0.01205 0.51203 0.42109 0.0
O63 O 0.96488 0.46472 0.55575 0.0
O64 O 0.96647 0.55766 0.4654 0.0
O65 O 0.9658 0.55627 0.55696 0.0
O66 O 0.05653 0.46379 0.55626 0.0
O67 O 0.05804 0.55669 0.46602 0.0
O68 O 0.05702 0.46504 0.46467 0.0
H69 H 0.94336 0.44341 0.57666 0.0
H70 H 0.94561 0.57943 0.44431 0.0
Tb71 Tb 0.01095 0.50949 0.60056 0.0
Tb72 Tb 0.01236 0.60045 0.51226 0.0
H73 H 0.94463 0.57742 0.57836 0.0
H74 H 0.07755 0.44219 0.57735 0.0
Tb75 Tb 0.10125 0.50965 0.51133 0.0
H76 H 0.07965 0.57794 0.44516 0.0
H77 H 0.0781 0.44378 0.44328 0.0
O78 O 0.05751 0.55533 0.5575 0.0
H79 H 0.07886 0.57615 0.57905 0.0
O80 O 0.8781 0.4422 0.5076 0.0
O81 O 0.14479 0.57913 0.51153 0.0
O82 O 0.14337 0.43942 0.51187 0.0
O83 O 0.87956 0.58182 0.50972 0.0
O84 O 0.01139 0.37905 0.43912 0.0
O85 O 0.01368 0.6423 0.58267 0.0
O86 O 0.01181 0.64447 0.44319 0.0
O87 O 1.00957 0.37703 0.57881 0.0
O88 O 0.9426 0.51285 0.37771 0.0
O89 O 0.08055 0.5101 0.64385 0.0
O90 O 0.94084 0.50943 0.6429 0.0
O91 O 0.08204 0.51215 0.37862 0.0
O92 O 0.94032 0.37873 0.50949 0.0
O93 O 0.08259 0.64254 0.51343 0.0
O94 O 0.94293 0.64401 0.51401 0.0
O95 O 0.07993 0.37729 0.50871 0.0
O96 O 0.87847 0.51134 0.57984 0.0
O97 O 0.14449 0.50829 0.44172 0.0
O98 O 0.1437 0.50805 0.58139 0.0
O99 O 0.87935 0.51374 0.44003 0.0
O100 O 0.01198 0.43902 0.64246 0.0
O101 O 0.01399 0.5826 0.37938 0.0
O102 O 1.01057 0.44285 0.37719 0.0
O103 O 1.01001 0.57862 0.64451 0.0
C104 C 0.89294 0.39449 0.5082 0.0
C105 C 0.13003 0.62688 0.51277 0.0
C106 C 0.12763 0.39204 0.51019 0.0
C107 C 0.89527 0.62919 0.51194 0.0
C108 C 0.01091 0.39508 0.39181 0.0
C109 C 0.01193 0.62637 0.62997 0.0
C110 C 0.01313 0.62992 0.39544 0.0
C111 C 0.01091 0.39166 0.62655 0.0
C112 C 0.89491 0.51363 0.39256 0.0
C113 C 0.1282 0.50893 0.62888 0.0
C114 C 0.89326 0.51057 0.62762 0.0
C115 C 0.12947 0.51001 0.3941 0.0
H116 H 0.44416 0.9429 0.44484 0.0
O117 O 0.46546 0.96435 0.46583 0.0
Tb118 Tb 0.42155 1.01016 0.51168 0.0
Tb119 Tb 0.51182 0.92088 0.51164 0.0
Tb120 Tb 0.51056 1.01022 0.42116 0.0
O121 O 0.46615 0.96494 0.55744 0.0
O122 O 0.46487 0.05594 0.46527 0.0
O123 O 0.46567 0.05655 0.5568 0.0
O124 O 0.55782 0.96543 0.55661 0.0
O125 O 0.55652 0.05647 0.46441 0.0
O126 O 0.55689 0.96471 0.46493 0.0
H127 H 0.44522 0.94367 0.57895 0.0
H128 H 0.44337 0.07698 0.44409 0.0
Tb129 Tb 0.51214 0.01127 0.60066 0.0
Tb130 Tb 0.51083 0.10047 0.51031 0.0
H131 H 0.44442 0.07779 0.57805 0.0
H132 H 0.57936 0.94449 0.57784 0.0
Tb133 Tb 0.60113 1.011 0.50993 0.0
H134 H 0.57745 0.07768 0.44285 0.0
H135 H 0.57797 0.94337 0.44361 0.0
O136 O 0.55735 0.05695 0.55588 0.0
H137 H 0.57869 0.07848 0.57674 0.0
O138 O 0.37908 0.94008 0.51143 0.0
O139 O 0.64356 0.08121 0.50799 0.0
O140 O 0.64433 0.94145 0.50919 0.0
O141 O 0.37826 0.07966 0.51224 0.0
O142 O 0.5122 0.87762 0.44202 0.0
O143 O 0.51208 0.1438 0.57985 0.0
O144 O 0.50933 0.1429 0.44019 0.0
O145 O 0.5116 0.87849 0.58172 0.0
O146 O 0.44042 0.01128 0.37888 0.0
O147 O 0.58236 0.0137 0.6428 0.0
O148 O 0.44279 1.00919 0.64422 0.0
O149 O 0.57997 0.01122 0.37757 0.0
O150 O 0.4423 0.87758 0.51332 0.0
O151 O 0.58037 0.14371 0.50987 0.0
O152 O 0.44067 0.14292 0.50965 0.0
O153 O 0.5819 0.87835 0.51277 0.0
O154 O 0.37936 0.0111 0.58197 0.0
O155 O 0.64338 1.00948 0.43982 0.0
O156 O 0.64463 1.01045 0.57942 0.0
O157 O 0.37809 1.00904 0.44217 0.0
O158 O 0.51452 0.94174 0.64404 0.0
O159 O 0.51079 0.07966 0.3778 0.0
O160 O 0.50958 0.94005 0.37883 0.0
O161 O 0.51021 0.08134 0.64307 0.0
C162 C 0.39471 0.89266 0.51258 0.0
C163 C 0.62801 0.12874 0.50857 0.0
C164 C 0.62938 0.89383 0.51106 0.0
C165 C 0.39322 0.1273 0.51085 0.0
C166 C 0.51079 0.89254 0.39434 0.0
C167 C 0.51113 0.12877 0.62746 0.0
C168 C 0.50981 0.12733 0.39271 0.0
C169 C 0.51329 0.89405 0.62915 0.0
C170 C 0.39299 1.01018 0.3945 0.0
C171 C 0.62974 0.01223 0.62706 0.0
C172 C 0.39513 1.01004 0.62936 0.0
C173 C 0.62763 1.01034 0.39246 0.0
H174 H 0.44461 0.44381 0.94325 0.0
O175 O 0.46574 0.46497 0.96469 0.0
Tb176 Tb 0.42157 0.50998 0.01102 0.0
Tb177 Tb 0.5118 0.42087 1.01009 0.0
Tb178 Tb 0.51115 0.51162 0.9212 0.0
O179 O 0.46594 0.46417 0.05638 0.0
O180 O 0.46519 0.5567 0.96576 0.0
O181 O 0.4653 0.5556 0.05733 0.0
O182 O 0.5575 0.46461 0.05626 0.0
O183 O 0.5567 0.55716 0.96567 0.0
O184 O 0.55729 0.46556 0.96463 0.0
H185 H 0.44484 0.44258 0.0774 0.0
H186 H 0.44384 0.57812 0.94481 0.0
Tb187 Tb 0.51159 0.50975 0.10079 0.0
Tb188 Tb 0.5108 0.60042 0.01206 0.0
H189 H 0.4439 0.57643 0.07883 0.0
H190 H 0.57886 0.44331 0.07734 0.0
Tb191 Tb 0.6011 0.51115 1.0108 0.0
H192 H 0.57779 0.57868 0.94458 0.0
H193 H 0.57861 0.44457 0.9432 0.0
O194 O 0.55702 0.55626 0.05722 0.0
H195 H 0.57819 0.57749 0.07855 0.0
O196 O 0.37909 0.44001 1.00962 0.0
O197 O 0.64354 0.5812 1.00966 0.0
O198 O 0.6443 0.44146 0.01179 0.0
O199 O 0.37829 0.57963 1.01074 0.0
O200 O 0.51257 0.3787 0.93989 0.0
O201 O 0.51208 0.64264 0.08218 0.0
O202 O 0.50943 0.64407 0.94265 0.0
O203 O 0.51092 0.37727 0.07949 0.0
O204 O 0.44124 0.51341 0.87846 0.0
O205 O 0.58167 0.50906 0.14342 0.0
O206 O 0.44189 0.50939 0.14374 0.0
O207 O 0.5808 0.51225 0.87814 0.0
O208 O 0.44223 0.37754 1.01026 0.0
O209 O 0.58041 0.64368 0.01263 0.0
O210 O 0.44074 0.64279 0.01415 0.0
O211 O 0.58178 0.37835 1.00909 0.0
O212 O 0.3789 0.5078 0.08103 0.0
O213 O 0.64383 0.51128 0.94089 0.0
O214 O 0.64422 0.51278 0.08036 0.0
O215 O 0.37859 0.50923 0.94133 0.0
O216 O 0.51267 0.43952 0.14294 0.0
O217 O 0.51247 0.5819 0.87917 0.0
O218 O 0.51027 0.44209 0.87766 0.0
O219 O 0.51023 0.57918 0.1444 0.0
C220 C 0.39455 0.3925 1.00981 0.0
C221 C 0.62804 0.62868 0.01107 0.0
C222 C 0.62924 0.39382 1.0104 0.0
C223 C 0.39329 0.62726 0.01265 0.0
C224 C 0.51146 0.39435 0.89247 0.0
C225 C 0.5111 0.62686 0.12952 0.0
C226 C 0.51105 0.62927 0.89496 0.0
C227 C 0.51174 0.39214 0.12717 0.0
C228 C 0.39376 0.51141 0.89382 0.0
C229 C 0.62912 0.51102 0.1279 0.0
C230 C 0.39431 0.5082 0.12857 0.0
C231 C 0.62828 0.51205 0.89347 0.0
C232 C 0.98324 0.16283 0.2089 0.0
C233 C 1.01002 0.16951 0.16462 0.0
C234 C 0.98217 0.20018 0.24547 0.0
C235 C 1.00978 0.24455 0.23813 0.0
C236 C 0.03728 0.25122 0.1936 0.0
C237 C 0.03648 0.21385 0.15702 0.0
C238 C 0.95121 0.19233 0.29177 0.0
C239 C 0.06852 0.29724 0.18511 0.0
C240 C 0.97729 0.36045 0.31271 0.0
C241 C 1.01078 0.35694 0.35251 0.0
C242 C 0.97598 0.32367 0.27555 0.0
C243 C 1.01039 0.28366 0.27738 0.0
C244 C 0.04512 0.28076 0.31702 0.0
C245 C 0.04416 0.31695 0.35474 0.0
C246 C 0.93752 0.32736 0.23466 0.0
C247 C 0.0833 0.2395 0.31963 0.0
H248 H 0.96236 0.12872 0.21456 0.0
H249 H 0.05754 0.21883 0.12293 0.0
H250 H 0.97559 0.19195 0.32512 0.0
H251 H 0.92453 0.2236 0.29639 0.0
H252 H 0.92996 0.15684 0.2906 0.0
H253 H 0.08605 0.29761 0.14763 0.0
H254 H 0.04543 0.33127 0.1892 0.0
H255 H 0.09835 0.29916 0.21368 0.0
H256 H 0.95128 0.39133 0.31137 0.0
H257 H 0.07026 0.31464 0.38546 0.0
H258 H 0.91591 0.29219 0.23226 0.0
H259 H 0.95626 0.33279 0.19824 0.0
H260 H 0.91117 0.3587 0.24073 0.0
H261 H 0.06449 0.20368 0.32803 0.0
H262 H 0.11177 0.24651 0.3488 0.0
H263 H 0.10249 0.23519 0.28327 0.0
C264 C 0.86189 0.03667 0.21164 0.0
C265 C 0.85427 0.01181 0.16636 0.0
C266 C 0.82481 0.03727 0.2485 0.0
C267 C 0.77958 0.01138 0.24027 0.0
C268 C 0.77199 0.98569 0.19482 0.0
C269 C 0.8092 0.98678 0.15811 0.0
C270 C 0.83373 0.06621 0.29592 0.0
C271 C 0.72486 0.95649 0.18523 0.0
C272 C 0.70478 0.97553 0.35493 0.0
C273 C 0.66606 1.0104 0.35348 0.0
C274 C 0.74142 0.97472 0.31766 0.0
C275 C 0.74027 1.011 0.27933 0.0
C276 C 0.70161 0.04695 0.2784 0.0
C277 C 0.66431 0.04554 0.31503 0.0
C278 C 0.78123 0.93498 0.31926 0.0
C279 C 0.69978 0.08706 0.23899 0.0
H280 H 0.89654 0.05646 0.21788 0.0
H281 H 0.80344 0.9671 0.1233 0.0
H282 H 0.80528 0.096 0.29961 0.0
H283 H 0.82984 0.04141 0.32873 0.0
H284 H 0.87127 0.08356 0.29691 0.0
H285 H 0.72551 0.93711 0.14866 0.0
H286 H 0.71945 0.92832 0.21502 0.0
H287 H 0.69219 0.98177 0.18616 0.0
H288 H 0.70573 0.94821 0.38466 0.0
H289 H 0.63444 0.07272 0.31438 0.0
H290 H 0.81795 0.95234 0.32683 0.0
H291 H 0.7839 0.91588 0.28268 0.0
H292 H 0.77382 0.90661 0.34845 0.0
H293 H 0.73624 0.10639 0.23649 0.0
H294 H 0.67043 0.1152 0.24667 0.0
H295 H 0.69231 0.07001 0.2021 0.0
C296 C 0.03882 0.86455 0.21352 0.0
C297 C 0.01145 0.85703 0.16973 0.0
C298 C 0.04032 0.8279 0.25082 0.0
C299 C 0.01252 0.78345 0.2447 0.0
C300 C 0.98429 0.77605 0.20074 0.0
C301 C 0.98464 0.81269 0.16346 0.0
C302 C 0.07228 0.83637 0.29634 0.0
C303 C 0.95314 0.72977 0.1934 0.0
C304 C 0.04646 0.66672 0.31718 0.0
C305 C 0.01336 0.66932 0.35736 0.0
C306 C 0.04756 0.70441 0.28095 0.0
C307 C 0.01326 0.74443 0.28405 0.0
C308 C 0.97925 0.74674 0.32434 0.0
C309 C 0.98037 0.70954 0.36109 0.0
C310 C 0.08533 0.70134 0.23938 0.0
C311 C 0.94117 0.78799 0.32819 0.0
H312 H 0.06004 0.89863 0.2181 0.0
H313 H 0.96315 0.80708 0.12973 0.0
H314 H 0.04879 0.83626 0.33032 0.0
H315 H 0.09961 0.80558 0.30023 0.0
H316 H 0.09287 0.87225 0.29465 0.0
H317 H 0.93471 0.72898 0.15638 0.0
H318 H 0.97655 0.69593 0.19712 0.0
H319 H 0.92405 0.72786 0.22271 0.0
H320 H 0.07219 0.63568 0.31468 0.0
H321 H 0.95453 0.71117 0.39212 0.0
H322 H 0.10553 0.73723 0.23561 0.0
H323 H 0.06606 0.69418 0.20354 0.0
H324 H 0.11298 0.67122 0.24565 0.0
H325 H 0.96015 0.82462 0.33057 0.0
H326 H 0.91661 0.78368 0.36122 0.0
H327 H 0.91765 0.78857 0.29419 0.0
C328 C 0.31125 0.98143 0.36114 0.0
C329 C 0.35396 1.01092 0.35593 0.0
C330 C 0.27428 0.98106 0.32415 0.0
C331 C 0.27956 0.01215 0.28182 0.0
C332 C 0.32221 0.04288 0.27705 0.0
C333 C 0.35936 0.04121 0.31381 0.0
C334 C 0.23015 0.94662 0.32987 0.0
C335 C 0.32839 0.07782 0.23339 0.0
C336 C 0.20894 0.98207 0.16289 0.0
C337 C 0.1669 0.0126 0.1676 0.0
C338 C 0.24552 0.98091 0.20024 0.0
C339 C 0.24063 0.01232 0.24238 0.0
C340 C 0.19855 0.0439 0.24679 0.0
C341 C 0.1617 0.043 0.20969 0.0
C342 C 0.28908 0.94568 0.19487 0.0
C343 C 0.19265 0.07889 0.29046 0.0
H344 H 0.30734 0.95777 0.39362 0.0
H345 H 0.39222 0.06445 0.31015 0.0
H346 H 0.1948 0.96772 0.32637 0.0
H347 H 0.23064 0.91842 0.29964 0.0
H348 H 0.23022 0.92697 0.36628 0.0
H349 H 0.36253 0.10102 0.23652 0.0
H350 H 0.33035 0.05622 0.19822 0.0
H351 H 0.2956 0.10286 0.2306 0.0
H352 H 0.21262 0.95821 0.13049 0.0
H353 H 0.12928 0.06688 0.21304 0.0
H354 H 0.29121 0.92078 0.22781 0.0
H355 H 0.32441 0.96705 0.19336 0.0
H356 H 0.28633 0.92234 0.16078 0.0
H357 H 0.19046 0.05731 0.32562 0.0
H358 H 0.15874 0.10242 0.28729 0.0
H359 H 0.22568 0.1036 0.29327 0.0
C360 C 0.04161 0.80998 0.86267 0.0
C361 C 0.01134 0.85212 0.8572 0.0
C362 C 0.04275 0.77285 0.82584 0.0
C363 C 0.01157 0.77732 0.78348 0.0
C364 C 0.98017 0.81946 0.77838 0.0
C365 C 0.98109 0.85682 0.81496 0.0
C366 C 0.07785 0.72928 0.83186 0.0
C367 C 0.94537 0.82491 0.7345 0.0
C368 C 0.04236 0.70687 0.66467 0.0
C369 C 0.01211 0.66461 0.66931 0.0
C370 C 0.04337 0.74334 0.70212 0.0
C371 C 0.01205 0.73815 0.74427 0.0
C372 C 0.98091 0.69575 0.74872 0.0
C373 C 0.98196 0.65901 0.7115 0.0
C374 C 0.07815 0.78725 0.69669 0.0
C375 C 0.94596 0.68956 0.79236 0.0
H376 H 0.06533 0.80669 0.89521 0.0
H377 H 0.95737 0.8893 0.81105 0.0
H378 H 0.05647 0.69395 0.83321 0.0
H379 H 0.10317 0.72701 0.79925 0.0
H380 H 0.10075 0.73217 0.86622 0.0
H381 H 0.92166 0.85873 0.73735 0.0
H382 H 0.96711 0.82702 0.69944 0.0
H383 H 0.92084 0.79174 0.73173 0.0
H384 H 0.066 0.71087 0.63217 0.0
H385 H 0.95826 0.62644 0.71479 0.0
H386 H 0.10206 0.79065 0.73025 0.0
H387 H 0.0563 0.82219 0.69358 0.0
H388 H 0.10248 0.78394 0.66339 0.0
H389 H 0.96743 0.68837 0.82763 0.0
H390 H 0.92326 0.65504 0.78956 0.0
H391 H 0.92045 0.72203 0.79463 0.0
C392 C 0.16178 0.98164 0.81113 0.0
C393 C 0.16867 1.008 0.85565 0.0
C394 C 0.19919 0.98047 0.77461 0.0
C395 C 0.24386 1.0075 0.78229 0.0
C396 C 0.25074 0.0346 0.82704 0.0
C397 C 0.2133 0.03394 0.86349 0.0
C398 C 0.19101 0.95014 0.72794 0.0
C399 C 0.29707 0.06528 0.83589 0.0
C400 C 0.35988 0.97533 0.70774 0.0
C401 C 0.35678 1.00949 0.66846 0.0
C402 C 0.32287 0.97364 0.74467 0.0
C403 C 0.28302 1.00825 0.7431 0.0
C404 C 0.28059 0.04367 0.70404 0.0
C405 C 0.31698 0.0431 0.66652 0.0
C406 C 0.3261 0.93453 0.78499 0.0
C407 C 0.23961 0.08215 0.70178 0.0
H408 H 0.12745 0.96116 0.80526 0.0
H409 H 0.21849 0.0547 0.89774 0.0
H410 H 0.19025 0.97506 0.695 0.0
H411 H 0.2223 0.92363 0.7226 0.0
H412 H 0.15558 0.92876 0.72909 0.0
H413 H 0.29753 0.08254 0.8735 0.0
H414 H 0.33084 0.04185 0.83173 0.0
H415 H 0.29939 0.09531 0.80756 0.0
H416 H 0.39063 0.94914 0.70885 0.0
H417 H 0.31497 0.06969 0.63621 0.0
H418 H 0.29162 0.9117 0.7852 0.0
H419 H 0.32903 0.95263 0.82202 0.0
H420 H 0.3586 0.90939 0.77996 0.0
H421 H 0.20407 0.06389 0.69124 0.0
H422 H 0.24776 0.11183 0.67416 0.0
H423 H 0.23406 0.09983 0.73874 0.0
C424 C 0.98303 0.30944 0.65947 0.0
C425 C 0.01231 0.35229 0.66476 0.0
C426 C 0.98341 0.27203 0.69602 0.0
C427 C 0.01498 0.27707 0.73802 0.0
C428 C 0.04568 0.31976 0.74274 0.0
C429 C 0.0433 0.35732 0.70642 0.0
C430 C 0.949 0.22788 0.69037 0.0
C431 C 0.08104 0.32574 0.78609 0.0
C432 C 0.98373 0.20729 0.85705 0.0
C433 C 0.01343 0.16465 0.85249 0.0
C434 C 0.98348 0.24391 0.81973 0.0
C435 C 0.01485 0.23836 0.77769 0.0
C436 C 0.04572 0.19573 0.77347 0.0
C437 C 0.04397 0.15889 0.81058 0.0
C438 C 0.94894 0.28802 0.82485 0.0
C439 C 0.0808 0.18923 0.72997 0.0
H440 H 0.95888 0.30578 0.62732 0.0
H441 H 0.06643 0.39025 0.7101 0.0
H442 H 0.96972 0.19247 0.69523 0.0
H443 H 0.91998 0.22928 0.71978 0.0
H444 H 0.93036 0.22724 0.65345 0.0
H445 H 0.10466 0.35955 0.78255 0.0
H446 H 0.05971 0.32827 0.82139 0.0
H447 H 0.10563 0.29261 0.78896 0.0
H448 H 0.95983 0.21146 0.88933 0.0
H449 H 0.06732 0.12606 0.8074 0.0
H450 H 0.92121 0.28748 0.79419 0.0
H451 H 0.97007 0.32339 0.82169 0.0
H452 H 0.92878 0.28798 0.86093 0.0
H453 H 0.05931 0.18699 0.69476 0.0
H454 H 0.10401 0.15513 0.73346 0.0
H455 H 0.10579 0.22205 0.72702 0.0
C456 C 0.70765 0.97765 0.66337 0.0
C457 C 0.66875 0.01231 0.6655 0.0
C458 C 0.74432 0.97631 0.70064 0.0
C459 C 0.74288 0.01173 0.73977 0.0
C460 C 0.70407 0.0475 0.74135 0.0
C461 C 0.66685 0.04672 0.70462 0.0
C462 C 0.78412 0.93658 0.69853 0.0
C463 C 0.70201 0.08674 0.78163 0.0
C464 C 0.81067 0.98518 0.8612 0.0
C465 C 0.85586 1.01022 0.8538 0.0
C466 C 0.77377 0.98486 0.82414 0.0
C467 C 0.78187 0.01127 0.77917 0.0
C468 C 0.82719 0.0373 0.7719 0.0
C469 C 0.86397 0.03584 0.80905 0.0
C470 C 0.72654 0.95552 0.83276 0.0
C471 C 0.83659 0.06717 0.72516 0.0
H472 H 0.70862 0.95078 0.6332 0.0
H473 H 0.63677 0.07368 0.70586 0.0
H474 H 0.82143 0.95408 0.69557 0.0
H475 H 0.78372 0.91443 0.73344 0.0
H476 H 0.77901 0.91087 0.66648 0.0
H477 H 0.67055 0.11312 0.77629 0.0
H478 H 0.698 0.06877 0.81862 0.0
H479 H 0.73734 0.10822 0.78219 0.0
H480 H 0.80453 0.96501 0.89563 0.0
H481 H 0.89872 0.05568 0.80351 0.0
H482 H 0.72455 0.92432 0.80569 0.0
H483 H 0.69334 0.97931 0.82652 0.0
H484 H 0.72454 0.93996 0.87104 0.0
H485 H 0.83601 0.04229 0.69217 0.0
H486 H 0.87297 0.0869 0.72615 0.0
H487 H 0.80654 0.0951 0.72 0.0
C488 C 0.31024 0.36187 0.98551 0.0
C489 C 0.3558 0.35349 1.00956 0.0
C490 C 0.27314 0.32504 0.98468 0.0
C491 C 0.28141 0.27927 1.0096 0.0
C492 C 0.32719 0.27087 0.03447 0.0
C493 C 0.36412 0.30789 0.0336 0.0
C494 C 0.22549 0.3348 0.9564 0.0
C495 C 0.33679 0.22324 0.06284 0.0
C496 C 0.16654 0.20463 0.04513 0.0
C497 C 0.16753 0.16647 1.00965 0.0
C498 C 0.20404 0.24105 0.04625 0.0
C499 C 0.24211 0.24021 1.00969 0.0
C500 C 0.24252 0.20213 0.97312 0.0
C501 C 0.20569 0.16504 0.9742 0.0
C502 C 0.20302 0.28022 0.08664 0.0
C503 C 0.28166 0.20068 0.93274 0.0
H504 H 0.30392 0.39694 0.9665 0.0
H505 H 0.39915 0.30155 0.05264 0.0
H506 H 0.22207 0.30771 0.92533 0.0
H507 H 0.19277 0.3294 0.98103 0.0
H508 H 0.22404 0.3731 0.94081 0.0
H509 H 0.37517 0.22159 0.07822 0.0
H510 H 0.30988 0.22013 0.09408 0.0
H511 H 0.331 0.19046 0.03837 0.0
H512 H 0.13706 0.20524 0.07273 0.0
H513 H 0.206 0.13552 0.94662 0.0
H514 H 0.19654 0.31744 0.06991 0.0
H515 H 0.23951 0.28163 0.10604 0.0
H516 H 0.17342 0.27305 0.11465 0.0
H517 H 0.28331 0.23709 0.91321 0.0
H518 H 0.27429 0.17101 0.90484 0.0
H519 H 0.31883 0.194 0.9495 0.0
C520 C 0.31215 0.661 0.98278 0.0
C521 C 0.35434 0.66591 0.01306 0.0
C522 C 0.27536 0.69816 0.9819 0.0
C523 C 0.28023 0.74031 0.01333 0.0
C524 C 0.32244 0.74489 0.04468 0.0
C525 C 0.35946 0.70797 0.04353 0.0
C526 C 0.23164 0.69264 0.9469 0.0
C527 C 0.32829 0.78853 0.07973 0.0
C528 C 0.20963 0.85924 0.98314 0.0
C529 C 0.16735 0.85432 0.01329 0.0
C530 C 0.24631 0.82198 0.98214 0.0
C531 C 0.24123 0.77968 0.01332 0.0
C532 C 0.19891 0.77505 0.04451 0.0
C533 C 0.16201 0.8121 0.04348 0.0
C534 C 0.29015 0.82758 0.94732 0.0
C535 C 0.19285 0.73126 0.07931 0.0
H536 H 0.30855 0.62861 0.95888 0.0
H537 H 0.39198 0.71145 0.06724 0.0
H538 H 0.19641 0.69119 0.96842 0.0
H539 H 0.22938 0.72551 0.92192 0.0
H540 H 0.23432 0.65848 0.92366 0.0
H541 H 0.36227 0.78542 0.10316 0.0
H542 H 0.33031 0.82375 0.05822 0.0
H543 H 0.29532 0.79121 0.10453 0.0
H544 H 0.21343 0.89175 0.95944 0.0
H545 H 0.12943 0.8086 0.0671 0.0
H546 H 0.29256 0.79475 0.92229 0.0
H547 H 0.32529 0.82905 0.969 0.0
H548 H 0.28754 0.86177 0.92412 0.0
H549 H 0.19098 0.69613 0.05762 0.0
H550 H 0.15871 0.73424 0.10253 0.0
H551 H 0.22566 0.72849 0.10431 0.0
C552 C 0.6627 0.31237 0.98118 0.0
C553 C 0.6681 0.35507 1.01067 0.0
C554 C 0.69962 0.27535 0.98061 0.0
C555 C 0.74202 0.28049 0.01158 0.0
C556 C 0.74714 0.32323 0.04215 0.0
C557 C 0.71043 0.36048 0.04068 0.0
C558 C 0.69355 0.23108 0.94642 0.0
C559 C 0.79112 0.32942 0.07668 0.0
C560 C 0.81364 0.16193 0.04106 0.0
C561 C 0.85524 0.16684 1.00996 0.0
C562 C 0.77698 0.19921 0.04284 0.0
C563 C 0.78133 0.24142 0.01144 0.0
C564 C 0.823 0.24607 0.97942 0.0
C565 C 0.85995 0.20907 0.97972 0.0
C566 C 0.73391 0.19366 0.07858 0.0
C567 C 0.82814 0.28974 0.94434 0.0
H568 H 0.63007 0.30845 0.95772 0.0
H569 H 0.71426 0.39336 0.06386 0.0
H570 H 0.7263 0.22798 0.92138 0.0
H571 H 0.6917 0.19625 0.96858 0.0
H572 H 0.65941 0.23376 0.92323 0.0
H573 H 0.78835 0.36374 0.09967 0.0
H574 H 0.79394 0.29677 0.1019 0.0
H575 H 0.82612 0.33104 0.05479 0.0
H576 H 0.81038 0.12944 0.06486 0.0
H577 H 0.89203 0.21258 0.95545 0.0
H578 H 0.69837 0.1916 0.05762 0.0
H579 H 0.73169 0.22678 0.10325 0.0
H580 H 0.7373 0.15978 0.10214 0.0
H581 H 0.79535 0.2915 0.91922 0.0
H582 H 0.86235 0.28733 0.92128 0.0
H583 H 0.82915 0.3251 0.96569 0.0
C584 C 0.85908 0.81288 0.04231 0.0
C585 C 0.85512 0.85453 0.01116 0.0
C586 C 0.82174 0.77626 0.04291 0.0
C587 C 0.78055 0.78064 1.01022 0.0
C588 C 0.77702 0.82222 0.97791 0.0
C589 C 0.81394 0.85921 0.97948 0.0
C590 C 0.8261 0.7332 0.07885 0.0
C591 C 0.73439 0.82756 0.94161 0.0
C592 C 0.70948 0.6617 0.98127 0.0
C593 C 0.66668 0.66765 1.01051 0.0
C594 C 0.7464 0.69869 0.98 0.0
C595 C 0.74101 0.74181 1.00997 0.0
C596 C 0.69793 0.74774 0.03987 0.0
C597 C 0.6609 0.71083 0.03921 0.0
C598 C 0.7909 0.69185 0.94626 0.0
C599 C 0.69144 0.79248 0.07338 0.0
H600 H 0.89084 0.80957 0.06704 0.0
H601 H 0.8112 0.89131 0.95512 0.0
H602 H 0.79212 0.73084 0.10229 0.0
H603 H 0.8291 0.69766 0.05797 0.0
H604 H 0.85903 0.73674 0.10361 0.0
H605 H 0.73946 0.85979 0.91617 0.0
H606 H 0.73063 0.79323 0.91886 0.0
H607 H 0.69896 0.83258 0.96227 0.0
H608 H 0.71358 0.6285 0.95858 0.0
H609 H 0.6279 0.7152 0.06206 0.0
H610 H 0.82548 0.68994 0.96879 0.0
H611 H 0.79453 0.72434 0.92094 0.0
H612 H 0.78814 0.65745 0.92338 0.0
H613 H 0.72064 0.79211 0.10264 0.0
H614 H 0.65436 0.79307 0.09171 0.0
H615 H 0.69603 0.82748 0.05191 0.0
C616 C 0.68227 0.55752 0.83401 0.0
C617 C 0.6667 0.5124 0.85482 0.0
C618 C 0.71914 0.5584 0.79693 0.0
C619 C 0.74036 0.51295 0.78032 0.0
C620 C 0.72428 0.46724 0.80135 0.0
C621 C 0.68763 0.46758 0.83863 0.0
C622 C 0.73546 0.60786 0.77568 0.0
C623 C 0.74572 0.41804 0.78445 0.0
C624 C 0.80343 0.50906 0.65362 0.0
C625 C 0.85404 0.51143 0.66665 0.0
C626 C 0.76605 0.50983 0.6902 0.0
C627 C 0.77951 0.51312 0.74108 0.0
C628 C 0.8304 0.51587 0.75453 0.0
C629 C 0.86702 0.51495 0.71722 0.0
C630 C 0.71212 0.50686 0.67442 0.0
C631 C 0.84621 0.51962 0.8084 0.0
H632 H 0.66572 0.59205 0.84695 0.0
H633 H 0.67511 0.43282 0.85503 0.0
H634 H 0.77595 0.61321 0.78204 0.0
H635 H 0.72929 0.6084 0.73482 0.0
H636 H 0.71509 0.63971 0.79255 0.0
H637 H 0.72884 0.38587 0.8043 0.0
H638 H 0.73957 0.4132 0.74386 0.0
H639 H 0.78655 0.41754 0.79082 0.0
H640 H 0.79282 0.50638 0.61476 0.0
H641 H 0.9059 0.51709 0.72788 0.0
H642 H 0.69147 0.53982 0.68841 0.0
H643 H 0.69447 0.47337 0.69102 0.0
H644 H 0.70783 0.50505 0.6333 0.0
H645 H 0.82898 0.55287 0.8259 0.0
H646 H 0.8873 0.52226 0.81262 0.0
H647 H 0.83294 0.48649 0.82926 0.0
C648 C 0.1599 0.53701 0.71157 0.0
C649 C 0.16689 0.50932 0.66788 0.0
C650 C 0.19696 0.53873 0.74844 0.0
C651 C 0.24129 0.51084 0.74201 0.0
C652 C 0.24818 0.48229 0.69817 0.0
C653 C 0.21112 0.48243 0.66129 0.0
C654 C 0.18891 0.57081 0.79396 0.0
C655 C 0.29425 0.45089 0.69063 0.0
C656 C 0.35793 0.54438 0.8149 0.0
C657 C 0.35488 0.51143 0.8552 0.0
C658 C 0.32061 0.54535 0.77828 0.0
C659 C 0.28041 0.51125 0.78126 0.0
C660 C 0.2778 0.47725 0.82154 0.0
C661 C 0.31465 0.47844 0.85861 0.0
C662 C 0.32401 0.58303 0.73665 0.0
C663 C 0.23639 0.43934 0.82528 0.0
H664 H 0.12589 0.55827 0.7164 0.0
H665 H 0.21632 0.46067 0.62765 0.0
H666 H 0.18844 0.54725 0.82789 0.0
H667 H 0.22014 0.5976 0.79806 0.0
H668 H 0.15341 0.59204 0.79217 0.0
H669 H 0.2949 0.43267 0.65352 0.0
H670 H 0.32825 0.47404 0.69449 0.0
H671 H 0.29598 0.4216 0.71977 0.0
H672 H 0.38898 0.57015 0.81266 0.0
H673 H 0.31267 0.45272 0.88969 0.0
H674 H 0.28957 0.6059 0.7355 0.0
H675 H 0.32706 0.56364 0.70029 0.0
H676 H 0.35654 0.60827 0.7409 0.0
H677 H 0.20024 0.45859 0.83073 0.0
H678 H 0.24211 0.41295 0.85663 0.0
H679 H 0.23365 0.41769 0.79016 0.0
C680 C 0.1637 0.53855 0.31276 0.0
C681 C 0.16833 0.50887 0.35539 0.0
C682 C 0.20064 0.53828 0.27579 0.0
C683 C 0.24237 0.50639 0.281 0.0
C684 C 0.24658 0.47547 0.32357 0.0
C685 C 0.20986 0.47774 0.36075 0.0
C686 C 0.19555 0.57293 0.23176 0.0
C687 C 0.2897 0.43985 0.32973 0.0
C688 C 0.31359 0.47701 0.16222 0.0
C689 C 0.35575 0.50727 0.16757 0.0
C690 C 0.27698 0.4753 0.19953 0.0
C691 C 0.28194 0.50597 0.24222 0.0
C692 C 0.32437 0.53689 0.24749 0.0
C693 C 0.36117 0.53656 0.21039 0.0
C694 C 0.23315 0.44057 0.19338 0.0
C695 C 0.33034 0.5713 0.29162 0.0
H696 H 0.13167 0.56285 0.30889 0.0
H697 H 0.21306 0.45436 0.39354 0.0
H698 H 0.22588 0.60102 0.23279 0.0
H699 H 0.19934 0.55204 0.19633 0.0
H700 H 0.15922 0.59271 0.23153 0.0
H701 H 0.28604 0.41644 0.36367 0.0
H702 H 0.29235 0.41504 0.29675 0.0
H703 H 0.32515 0.46096 0.33208 0.0
H704 H 0.30978 0.45392 0.12928 0.0
H705 H 0.3937 0.56017 0.21428 0.0
H706 H 0.19813 0.46239 0.19106 0.0
H707 H 0.23002 0.41581 0.22635 0.0
H708 H 0.23633 0.4171 0.15943 0.0
H709 H 0.30137 0.60077 0.29003 0.0
H710 H 0.36754 0.58938 0.29242 0.0
H711 H 0.32501 0.55071 0.32702 0.0
C712 C 0.66786 0.47642 0.2046 0.0
C713 C 0.66808 0.51179 0.16634 0.0
C714 C 0.70561 0.47594 0.24077 0.0
C715 C 0.74303 0.51315 0.23973 0.0
C716 C 0.74277 0.54955 0.2015 0.0
C717 C 0.70574 0.54781 0.16461 0.0
C718 C 0.70538 0.43564 0.28002 0.0
C719 C 0.78129 0.59052 0.1998 0.0
C720 C 0.81065 0.5379 0.36157 0.0
C721 C 0.85635 0.51406 0.35336 0.0
C722 C 0.77375 0.5387 0.32453 0.0
C723 C 0.78239 0.51399 0.27872 0.0
C724 C 0.82835 0.48943 0.27045 0.0
C725 C 0.86505 0.4903 0.30768 0.0
C726 C 0.72575 0.56639 0.33423 0.0
C727 C 0.8383 0.46115 0.22283 0.0
H728 H 0.63879 0.44841 0.2055 0.0
H729 H 0.70551 0.57531 0.135 0.0
H730 H 0.74304 0.41907 0.28413 0.0
H731 H 0.69492 0.45192 0.31653 0.0
H732 H 0.67866 0.4054 0.27101 0.0
H733 H 0.7749 0.61684 0.16849 0.0
H734 H 0.78077 0.61178 0.23527 0.0
H735 H 0.81906 0.57423 0.19583 0.0
H736 H 0.80402 0.55666 0.39672 0.0
H737 H 0.90018 0.47139 0.30145 0.0
H738 H 0.69351 0.54087 0.33024 0.0
H739 H 0.72113 0.59648 0.30625 0.0
H740 H 0.72464 0.58317 0.37204 0.0
H741 H 0.81176 0.42959 0.2197 0.0
H742 H 0.87685 0.44619 0.22122 0.0
H743 H 0.83226 0.48555 0.19005 0.0
C744 C 0.31896 0.85368 0.47651 0.0
C745 C 0.35627 0.85375 0.51287 0.0
C746 C 0.2826 0.81612 0.47563 0.0
C747 C 0.2826 0.77911 0.51328 0.0
C748 C 0.3198 0.77979 0.55073 0.0
C749 C 0.35689 0.81663 0.54943 0.0
C750 C 0.24438 0.81599 0.43435 0.0
C751 C 0.32034 0.74183 0.59224 0.0
C752 C 0.16049 0.71151 0.53645 0.0
C753 C 0.1692 0.66552 0.51327 0.0
C754 C 0.19734 0.74858 0.53733 0.0
C755 C 0.24357 0.73978 0.51351 0.0
C756 C 0.25238 0.69354 0.48965 0.0
C757 C 0.21527 0.6567 0.49034 0.0
C758 C 0.18702 0.7969 0.56428 0.0
C759 C 0.30071 0.68327 0.46274 0.0
H760 H 0.31896 0.88238 0.4481 0.0
H761 H 0.38574 0.81715 0.57768 0.0
H762 H 0.24257 0.77868 0.4166 0.0
H763 H 0.20699 0.82407 0.44996 0.0
H764 H 0.2528 0.8441 0.40518 0.0
H765 H 0.34827 0.75096 0.62137 0.0
H766 H 0.28308 0.73942 0.60999 0.0
H767 H 0.32913 0.70449 0.57686 0.0
H768 H 0.12507 0.71826 0.55464 0.0
H769 H 0.22193 0.62133 0.47197 0.0
H770 H 0.19138 0.82885 0.53844 0.0
H771 H 0.21446 0.80196 0.59479 0.0
H772 H 0.14893 0.7981 0.58038 0.0
H773 H 0.30696 0.71198 0.43364 0.0
H774 H 0.30114 0.64594 0.44484 0.0
H775 H 0.33235 0.68554 0.48921 0.0
C776 C 0.20945 0.3586 0.53849 0.0
C777 C 0.16607 0.35287 0.51007 0.0
C778 C 0.24608 0.32132 0.53926 0.0
C779 C 0.23982 0.27814 0.50959 0.0
C780 C 0.19626 0.2725 0.48034 0.0
C781 C 0.15953 0.30969 0.48151 0.0
C782 C 0.29114 0.32781 0.57228 0.0
C783 C 0.18887 0.22768 0.44714 0.0
C784 C 0.35792 0.20673 0.47843 0.0
C785 C 0.35407 0.16567 0.51035 0.0
C786 C 0.32021 0.24293 0.47673 0.0
C787 C 0.27886 0.23886 0.50925 0.0
C788 C 0.27513 0.19755 0.54188 0.0
C789 C 0.3125 0.161 0.54146 0.0
C790 C 0.32458 0.28539 0.44008 0.0
C791 C 0.23232 0.19249 0.57802 0.0
H792 H 0.21423 0.39183 0.56096 0.0
H793 H 0.12613 0.30549 0.45923 0.0
H794 H 0.2941 0.29591 0.59843 0.0
H795 H 0.32553 0.32817 0.54941 0.0
H796 H 0.28958 0.36283 0.59423 0.0
H797 H 0.15125 0.22699 0.42996 0.0
H798 H 0.21719 0.2281 0.41702 0.0
H799 H 0.19418 0.1927 0.46851 0.0
H800 H 0.38989 0.20992 0.45399 0.0
H801 H 0.3098 0.1293 0.5663 0.0
H802 H 0.33143 0.3207 0.46041 0.0
H803 H 0.28932 0.2899 0.41896 0.0
H804 H 0.35542 0.27955 0.41315 0.0
H805 H 0.2355 0.2217 0.60711 0.0
H806 H 0.23183 0.15546 0.59644 0.0
H807 H 0.19615 0.19805 0.55886 0.0
C808 C 0.86064 0.70894 0.54436 0.0
C809 C 0.8568 0.66824 0.51197 0.0
C810 C 0.82354 0.74579 0.54554 0.0
C811 C 0.78271 0.7426 0.51221 0.0
C812 C 0.77936 0.70198 0.47867 0.0
C813 C 0.81604 0.66474 0.47963 0.0
C814 C 0.82774 0.78782 0.58272 0.0
C815 C 0.73726 0.69801 0.44156 0.0
C816 C 0.66236 0.81184 0.53972 0.0
C817 C 0.66851 0.8553 0.51149 0.0
C818 C 0.69974 0.77528 0.54114 0.0
C819 C 0.7435 0.78175 0.51237 0.0
C820 C 0.74959 0.82542 0.48338 0.0
C821 C 0.71226 0.86203 0.48386 0.0
C822 C 0.69258 0.72999 0.57375 0.0
C823 C 0.79498 0.83301 0.45102 0.0
H824 H 0.8921 0.71128 0.56961 0.0
H825 H 0.81345 0.63337 0.45431 0.0
H826 H 0.83028 0.82401 0.56292 0.0
H827 H 0.79383 0.78916 0.60634 0.0
H828 H 0.86084 0.78385 0.60725 0.0
H829 H 0.7422 0.66614 0.41561 0.0
H830 H 0.70139 0.69326 0.4615 0.0
H831 H 0.73451 0.7328 0.41939 0.0
H832 H 0.62873 0.80693 0.56155 0.0
H833 H 0.71683 0.89551 0.46175 0.0
H834 H 0.72442 0.72624 0.59987 0.0
H835 H 0.69174 0.69585 0.55048 0.0
H836 H 0.65756 0.73182 0.59573 0.0
H837 H 0.8295 0.82878 0.4733 0.0
H838 H 0.79538 0.8703 0.43307 0.0
H839 H 0.79585 0.8041 0.42147 0.0
C840 C 0.70996 0.16155 0.47947 0.0
C841 C 0.66648 0.16796 0.50759 0.0
C842 C 0.74647 0.19899 0.47766 0.0
C843 C 0.73994 0.24309 0.50595 0.0
C844 C 0.69617 0.24948 0.53472 0.0
C845 C 0.65962 0.21209 0.53461 0.0
C846 C 0.79185 0.19147 0.44528 0.0
C847 C 0.68848 0.29519 0.56663 0.0
C848 C 0.85695 0.31515 0.53975 0.0
C849 C 0.85389 0.35603 0.50753 0.0
C850 C 0.81958 0.27859 0.54028 0.0
C851 C 0.77935 0.28208 0.50631 0.0
C852 C 0.77668 0.32296 0.47298 0.0
C853 C 0.81358 0.36002 0.47467 0.0
C854 C 0.82297 0.23648 0.57743 0.0
C855 C 0.73512 0.32732 0.43532 0.0
H856 H 0.71497 0.12763 0.45808 0.0
H857 H 0.62612 0.21687 0.55664 0.0
H858 H 0.79607 0.22332 0.41925 0.0
H859 H 0.82582 0.19023 0.46875 0.0
H860 H 0.78981 0.15648 0.42323 0.0
H861 H 0.65092 0.29606 0.58395 0.0
H862 H 0.71689 0.29591 0.59667 0.0
H863 H 0.69343 0.32955 0.54423 0.0
H864 H 0.88804 0.31242 0.56538 0.0
H865 H 0.81159 0.39156 0.44949 0.0
H866 H 0.82858 0.20069 0.55757 0.0
H867 H 0.78769 0.23338 0.59875 0.0
H868 H 0.8541 0.24171 0.60415 0.0
H869 H 0.73379 0.2933 0.41183 0.0
H870 H 0.73961 0.36029 0.4107 0.0
H871 H 0.69875 0.33024 0.45472 0.0
C872 C 0.48508 0.36322 0.8089 0.0
C873 C 0.51133 0.35568 0.85338 0.0
C874 C 0.48379 0.32623 0.77193 0.0
C875 C 0.51059 0.28133 0.77912 0.0
C876 C 0.53766 0.27385 0.82379 0.0
C877 C 0.53719 0.31092 0.86066 0.0
C878 C 0.45332 0.33496 0.72545 0.0
C879 C 0.56788 0.22714 0.83224 0.0
C880 C 0.47674 0.16536 0.7053 0.0
C881 C 0.51085 0.16771 0.66596 0.0
C882 C 0.4755 0.20272 0.74187 0.0
C883 C 0.51051 0.2422 0.73987 0.0
C884 C 0.54573 0.24403 0.7006 0.0
C885 C 0.54478 0.20721 0.66348 0.0
C886 C 0.43659 0.20013 0.78242 0.0
C887 C 0.58464 0.28457 0.698 0.0
H888 H 0.46463 0.39764 0.80348 0.0
H889 H 0.55789 0.30525 0.89487 0.0
H890 H 0.47791 0.33485 0.69226 0.0
H891 H 0.42598 0.30433 0.72056 0.0
H892 H 0.43287 0.37095 0.72658 0.0
H893 H 0.58427 0.22575 0.87019 0.0
H894 H 0.54443 0.19354 0.82685 0.0
H895 H 0.5985 0.2253 0.80453 0.0
H896 H 0.4503 0.13482 0.7068 0.0
H897 H 0.57137 0.20859 0.63312 0.0
H898 H 0.41445 0.23506 0.78295 0.0
H899 H 0.45488 0.19665 0.8193 0.0
H900 H 0.4108 0.16813 0.77742 0.0
H901 H 0.56639 0.32104 0.69127 0.0
H902 H 0.61218 0.27788 0.66786 0.0
H903 H 0.60485 0.28734 0.73396 0.0
C904 C 0.48574 0.81171 0.66206 0.0
C905 C 0.51361 0.85541 0.6682 0.0
C906 C 0.48486 0.77498 0.69925 0.0
C907 C 0.51373 0.78157 0.74293 0.0
C908 C 0.54276 0.82527 0.74881 0.0
C909 C 0.54169 0.86209 0.71166 0.0
C910 C 0.45232 0.72962 0.69219 0.0
C911 C 0.57531 0.83289 0.79406 0.0
C912 C 0.48007 0.70947 0.86005 0.0
C913 C 0.51197 0.66835 0.85654 0.0
C914 C 0.47977 0.74634 0.82295 0.0
C915 C 0.51348 0.74272 0.78247 0.0
C916 C 0.54659 0.7017 0.77951 0.0
C917 C 0.54478 0.66449 0.81619 0.0
C918 C 0.44295 0.78873 0.82668 0.0
C919 C 0.58402 0.69719 0.73775 0.0
H920 H 0.46373 0.80675 0.62858 0.0
H921 H 0.56368 0.89569 0.71614 0.0
H922 H 0.4746 0.69507 0.69641 0.0
H923 H 0.42302 0.72895 0.72135 0.0
H924 H 0.43405 0.72903 0.65507 0.0
H925 H 0.59725 0.86793 0.79192 0.0
H926 H 0.55201 0.83401 0.82816 0.0
H927 H 0.60146 0.80111 0.79811 0.0
H928 H 0.45448 0.71209 0.8912 0.0
H929 H 0.56977 0.6328 0.8139 0.0
H930 H 0.41936 0.78987 0.79274 0.0
H931 H 0.46302 0.82478 0.82885 0.0
H932 H 0.41834 0.78531 0.85979 0.0
H933 H 0.56436 0.69357 0.70158 0.0
H934 H 0.60901 0.66452 0.74249 0.0
H935 H 0.60717 0.7314 0.73576 0.0
C936 C 0.47563 0.66403 0.20656 0.0
C937 C 0.51115 0.6653 0.16847 0.0
C938 C 0.47435 0.70138 0.24315 0.0
C939 C 0.51083 0.73954 0.24259 0.0
C940 C 0.54747 0.74021 0.20461 0.0
C941 C 0.54652 0.70356 0.16734 0.0
C942 C 0.43387 0.70007 0.28218 0.0
C943 C 0.58773 0.77949 0.20338 0.0
C944 C 0.48614 0.86138 0.31027 0.0
C945 C 0.51064 0.85342 0.35569 0.0
C946 C 0.48529 0.82433 0.27338 0.0
C947 C 0.51064 0.7788 0.28169 0.0
C948 C 0.53591 0.77082 0.32732 0.0
C949 C 0.53506 0.80802 0.36405 0.0
C950 C 0.45683 0.83368 0.22576 0.0
C951 C 0.56436 0.72325 0.33706 0.0
H952 H 0.44809 0.63451 0.20697 0.0
H953 H 0.57412 0.70413 0.13787 0.0
H954 H 0.45032 0.69063 0.31888 0.0
H955 H 0.41599 0.73719 0.28576 0.0
H956 H 0.40464 0.67217 0.27332 0.0
H957 H 0.61656 0.77137 0.17484 0.0
H958 H 0.57099 0.81633 0.19504 0.0
H959 H 0.60616 0.78235 0.24028 0.0
H960 H 0.46681 0.89629 0.30393 0.0
H961 H 0.55442 0.80198 0.39899 0.0
H962 H 0.4287 0.8039 0.22007 0.0
H963 H 0.4826 0.83251 0.19349 0.0
H964 H 0.43752 0.87031 0.2259 0.0
H965 H 0.53862 0.69095 0.3359 0.0
H966 H 0.58345 0.72359 0.37378 0.0
H967 H 0.59266 0.71746 0.30749 0.0
C968 C 0.53584 0.1584 0.30917 0.0
C969 C 0.50941 0.16583 0.35355 0.0
C970 C 0.5366 0.19509 0.27194 0.0
C971 C 0.50905 0.23958 0.27877 0.0
C972 C 0.48156 0.24683 0.32322 0.0
C973 C 0.48263 0.21009 0.36041 0.0
C974 C 0.56786 0.18674 0.22593 0.0
C975 C 0.4504 0.29301 0.3312 0.0
C976 C 0.54387 0.35584 0.20609 0.0
C977 C 0.51117 0.35311 0.1656 0.0
C978 C 0.5441 0.31867 0.24284 0.0
C979 C 0.50958 0.27887 0.23973 0.0
C980 C 0.47565 0.27668 0.19936 0.0
C981 C 0.47756 0.31338 0.16215 0.0
C982 C 0.5817 0.32162 0.28457 0.0
C983 C 0.43714 0.23583 0.19566 0.0
H984 H 0.55689 0.12431 0.30405 0.0
H985 H 0.46175 0.2156 0.39452 0.0
H986 H 0.54511 0.19187 0.19184 0.0
H987 H 0.59829 0.21471 0.22472 0.0
H988 H 0.58462 0.1489 0.225 0.0
H989 H 0.43457 0.29478 0.36937 0.0
H990 H 0.47288 0.32707 0.32478 0.0
H991 H 0.41932 0.29346 0.30393 0.0
H992 H 0.56999 0.38655 0.20841 0.0
H993 H 0.45195 0.31174 0.13097 0.0
H994 H 0.60747 0.28937 0.28221 0.0
H995 H 0.56281 0.3196 0.32126 0.0
H996 H 0.60389 0.35648 0.28318 0.0
H997 H 0.45584 0.19942 0.18994 0.0
H998 H 0.41067 0.24207 0.16447 0.0
H999 H 0.41568 0.23325 0.2309 0.0
loop_
_geom_bond_atom_site_label_1
_geom_bond_atom_site_label_2
_geom_bond_distance
_geom_bond_site_symmetry_2
_ccdc_geom_bond_type
H0 O1 0.850 . S
O1 H0 0.850 . S
O1 Tb2 2.341 1_566 S
O1 Tb3 2.341 1_656 S
O1 Tb4 2.341 1_665 S
Tb2 O1 2.341 1_544 S
Tb2 O5 2.341 1_545 S
Tb2 O6 2.341 1_554 S
Tb2 O7 2.341 . S
Tb2 O22 2.344 1_545 S
Tb2 O25 2.344 . S
Tb2 O38 2.344 . S
Tb2 O41 2.344 1_554 S
Tb3 O1 2.341 1_454 S
Tb3 O5 2.341 1_455 S
Tb3 O8 2.341 . S
Tb3 O10 2.341 1_554 S
Tb3 O26 2.344 1_554 S
Tb3 O29 2.344 . S
Tb3 O34 2.344 1_455 S
Tb3 O37 2.344 . S
Tb4 O1 2.341 1_445 S
Tb4 O6 2.341 1_455 S
Tb4 O9 2.341 . S
Tb4 O10 2.341 1_545 S
Tb4 O30 2.344 1_455 S
Tb4 O33 2.344 . S
Tb4 O43 2.344 . S
Tb4 O44 2.344 1_545 S
O5 Tb2 2.341 1_565 S
O5 Tb3 2.341 1_655 S
O5 H11 0.850 . S
O5 Tb13 2.341 1_665 S
O6 Tb2 2.341 1_556 S
O6 Tb4 2.341 1_655 S
O6 H12 0.850 . S
O6 Tb14 2.341 1_656 S
O7 Tb2 2.341 . S
O7 Tb13 2.341 1_655 S
O7 Tb14 2.341 1_655 S
O7 H15 0.850 . S
O8 Tb3 2.341 . S
O8 Tb13 2.341 1_565 S
O8 H16 0.850 . S
O8 Tb17 2.341 1_565 S
O9 Tb4 2.341 . S
O9 Tb14 2.341 1_556 S
O9 Tb17 2.341 1_556 S
O9 H18 0.850 . S
O10 Tb3 2.341 1_556 S
O10 Tb4 2.341 1_565 S
O10 Tb17 2.341 1_566 S
O10 H19 0.850 . S
H11 O5 0.850 . S
H12 O6 0.850 . S
Tb13 O5 2.341 1_445 S
Tb13 O7 2.341 1_455 S
Tb13 O8 2.341 1_545 S
Tb13 O20 2.341 . S
Tb13 O31 2.344 . S
Tb13 O32 2.344 1_455 S
Tb13 O42 2.344 1_545 S
Tb13 O45 2.344 . S
Tb14 O6 2.341 1_454 S
Tb14 O7 2.341 1_455 S
Tb14 O9 2.341 1_554 S
Tb14 O20 2.341 . S
Tb14 O27 2.344 . S
Tb14 O28 2.344 1_554 S
Tb14 O35 2.344 . S
Tb14 O36 2.344 1_455 S
H15 O7 0.850 . S
H16 O8 0.850 . S
Tb17 O8 2.341 1_545 S
Tb17 O9 2.341 1_554 S
Tb17 O10 2.341 1_544 S
Tb17 O20 2.341 . S
Tb17 O23 2.344 . S
Tb17 O24 2.344 1_545 S
Tb17 O39 2.344 1_554 S
Tb17 O40 2.344 . S
H18 O9 0.850 . S
H19 O10 0.850 . S
O20 Tb13 2.341 . S
O20 Tb14 2.341 . S
O20 Tb17 2.341 . S
O20 H21 0.850 . S
H21 O20 0.850 . S
O22 Tb2 2.344 1_565 S
O22 C46 1.272 . S
O23 Tb17 2.344 . S
O23 C47 1.272 . S
O24 Tb17 2.344 1_565 S
O24 C48 1.272 . S
O25 Tb2 2.344 . S
O25 C49 1.272 . S
O26 Tb3 2.344 1_556 S
O26 C50 1.272 . S
O27 Tb14 2.344 . S
O27 C51 1.272 . S
O28 Tb14 2.344 1_556 S
O28 C52 1.272 . S
O29 Tb3 2.344 . S
O29 C53 1.272 . S
O30 Tb4 2.344 1_655 S
O30 C54 1.272 . S
O31 Tb13 2.344 . S
O31 C55 1.272 . S
O32 Tb13 2.344 1_655 S
O32 C56 1.272 . S
O33 Tb4 2.344 . S
O33 C57 1.272 . S
O34 Tb3 2.344 1_655 S
O34 C46 1.272 . S
O35 Tb14 2.344 . S
O35 C47 1.272 . S
O36 Tb14 2.344 1_655 S
O36 C49 1.272 . S
O37 Tb3 2.344 . S
O37 C48 1.272 . S
O38 Tb2 2.344 . S
O38 C56 1.272 . S
O39 Tb17 2.344 1_556 S
O39 C57 1.272 . S
O40 Tb17 2.344 . S
O40 C55 1.272 . S
O41 Tb2 2.344 1_556 S
O41 C54 1.272 . S
O42 Tb13 2.344 1_565 S
O42 C53 1.272 . S
O43 Tb4 2.344 . S
O43 C52 1.272 . S
O44 Tb4 2.344 1_565 S
O44 C50 1.272 . S
O45 Tb13 2.344 . S
O45 C51 1.272 . S
C46 O22 1.272 . S
C46 O34 1.272 . S
C47 O23 1.272 . S
C47 O35 1.272 . S
C48 O24 1.272 . S
C48 O37 1.272 . S
C49 O25 1.272 . S
C49 O36 1.272 . S
C50 O26 1.272 . S
C50 O44 1.272 . S
C51 O27 1.272 . S
C51 O45 1.272 . S
C52 O28 1.272 . S
C52 O43 1.272 . S
C53 O29 1.272 . S
C53 O42 1.272 . S
C54 O30 1.272 . S
C54 O41 1.272 . S
C55 O31 1.272 . S
C55 O40 1.272 . S
C56 O32 1.272 . S
C56 O38 1.272 . S
C57 O33 1.272 . S
C57 O39 1.272 . S
H58 O59 0.850 . S
O59 H58 0.850 . S
O59 Tb60 2.341 . S
O59 Tb61 2.341 1_655 S
O59 Tb62 2.341 1_655 S
Tb60 O59 2.341 . S
Tb60 O63 2.341 . S
Tb60 O64 2.341 . S
Tb60 O65 2.341 . S
Tb60 O80 2.344 . S
Tb60 O83 2.344 . S
Tb60 O96 2.344 . S
Tb60 O99 2.344 . S
Tb61 O59 2.341 1_455 S
Tb61 O63 2.341 1_455 S
Tb61 O66 2.341 . S
Tb61 O68 2.341 . S
Tb61 O84 2.344 . S
Tb61 O87 2.344 . S
Tb61 O92 2.344 1_455 S
Tb61 O95 2.344 . S
Tb62 O59 2.341 1_455 S
Tb62 O64 2.341 1_455 S
Tb62 O67 2.341 . S
Tb62 O68 2.341 . S
Tb62 O88 2.344 1_455 S
Tb62 O91 2.344 . S
Tb62 O101 2.344 . S
Tb62 O102 2.344 . S
O63 Tb60 2.341 . S
O63 Tb61 2.341 1_655 S
O63 H69 0.850 . S
O63 Tb71 2.341 1_655 S
O64 Tb60 2.341 . S
O64 Tb62 2.341 1_655 S
O64 H70 0.850 . S
O64 Tb72 2.341 1_655 S
O65 Tb60 2.341 . S
O65 Tb71 2.341 1_655 S
O65 Tb72 2.341 1_655 S
O65 H73 0.850 . S
O66 Tb61 2.341 . S
O66 Tb71 2.341 . S
O66 H74 0.850 . S
O66 Tb75 2.341 . S
O67 Tb62 2.341 . S
O67 Tb72 2.341 . S
O67 Tb75 2.341 . S
O67 H76 0.850 . S
O68 Tb61 2.341 . S
O68 Tb62 2.341 . S
O68 Tb75 2.341 . S
O68 H77 0.850 . S
H69 O63 0.850 . S
H70 O64 0.850 . S
Tb71 O63 2.341 1_455 S
Tb71 O65 2.341 1_455 S
Tb71 O66 2.341 . S
Tb71 O78 2.341 . S
Tb71 O89 2.344 . S
Tb71 O90 2.344 1_455 S
Tb71 O100 2.344 . S
Tb71 O103 2.344 . S
Tb72 O64 2.341 1_455 S
Tb72 O65 2.341 1_455 S
Tb72 O67 2.341 . S
Tb72 O78 2.341 . S
Tb72 O85 2.344 . S
Tb72 O86 2.344 . S
Tb72 O93 2.344 . S
Tb72 O94 2.344 1_455 S
H73 O65 0.850 . S
H74 O66 0.850 . S
Tb75 O66 2.341 . S
Tb75 O67 2.341 . S
Tb75 O68 2.341 . S
Tb75 O78 2.341 . S
Tb75 O81 2.344 . S
Tb75 O82 2.344 . S
Tb75 O97 2.344 . S
Tb75 O98 2.344 . S
H76 O67 0.850 . S
H77 O68 0.850 . S
O78 Tb71 2.341 . S
O78 Tb72 2.341 . S
O78 Tb75 2.341 . S
O78 H79 0.850 . S
H79 O78 0.850 . S
O80 Tb60 2.344 . S
O80 C104 1.272 . S
O81 Tb75 2.344 . S
O81 C105 1.272 . S
O82 Tb75 2.344 . S
O82 C106 1.272 . S
O83 Tb60 2.344 . S
O83 C107 1.272 . S
O84 Tb61 2.344 . S
O84 C108 1.272 . S
O85 Tb72 2.344 . S
O85 C109 1.272 . S
O86 Tb72 2.344 . S
O86 C110 1.272 . S
O87 Tb61 2.344 . S
O87 C111 1.272 . S
O88 Tb62 2.344 1_655 S
O88 C112 1.272 . S
O89 Tb71 2.344 . S
O89 C113 1.272 . S
O90 Tb71 2.344 1_655 S
O90 C114 1.272 . S
O91 Tb62 2.344 . S
O91 C115 1.272 . S
O92 Tb61 2.344 1_655 S
O92 C104 1.272 . S
O93 Tb72 2.344 . S
O93 C105 1.272 . S
O94 Tb72 2.344 1_655 S
O94 C107 1.272 . S
O95 Tb61 2.344 . S
O95 C106 1.272 . S
O96 Tb60 2.344 . S
O96 C114 1.272 . S
O97 Tb75 2.344 . S
O97 C115 1.272 . S
O98 Tb75 2.344 . S
O98 C113 1.272 . S
O99 Tb60 2.344 . S
O99 C112 1.272 . S
O100 Tb71 2.344 . S
O100 C111 1.272 . S
O101 Tb62 2.344 . S
O101 C110 1.272 . S
O102 Tb62 2.344 . S
O102 C108 1.272 . S
O103 Tb71 2.344 . S
O103 C109 1.272 . S
C104 O80 1.272 . S
C104 O92 1.272 . S
C105 O81 1.272 . S
C105 O93 1.272 . S
C106 O82 1.272 . S
C106 O95 1.272 . S
C107 O83 1.272 . S
C107 O94 1.272 . S
C108 O84 1.272 . S
C108 O102 1.272 . S
C109 O85 1.272 . S
C109 O103 1.272 . S
C110 O86 1.272 . S
C110 O101 1.272 . S
C111 O87 1.272 . S
C111 O100 1.272 . S
C112 O88 1.272 . S
C112 O99 1.272 . S
C113 O89 1.272 . S
C113 O98 1.272 . S
C114 O90 1.272 . S
C114 O96 1.272 . S
C115 O91 1.272 . S
C115 O97 1.272 . S
H116 O117 0.850 . S
O117 H116 0.850 . S
O117 Tb118 2.341 1_565 S
O117 Tb119 2.341 . S
O117 Tb120 2.341 1_565 S
Tb118 O117 2.341 1_545 S
Tb118 O121 2.341 1_545 S
Tb118 O122 2.341 . S
Tb118 O123 2.341 . S
Tb118 O138 2.344 1_545 S
Tb118 O141 2.344 . S
Tb118 O154 2.344 . S
Tb118 O157 2.344 . S
Tb119 O117 2.341 . S
Tb119 O121 2.341 . S
Tb119 O124 2.341 . S
Tb119 O126 2.341 . S
Tb119 O142 2.344 . S
Tb119 O145 2.344 . S
Tb119 O150 2.344 . S
Tb119 O153 2.344 . S
Tb120 O117 2.341 1_545 S
Tb120 O122 2.341 . S
Tb120 O125 2.341 . S
Tb120 O126 2.341 1_545 S
Tb120 O146 2.344 . S
Tb120 O149 2.344 . S
Tb120 O159 2.344 . S
Tb120 O160 2.344 1_545 S
O121 Tb118 2.341 1_565 S
O121 Tb119 2.341 . S
O121 H127 0.850 . S
O121 Tb129 2.341 1_565 S
O122 Tb118 2.341 . S
O122 Tb120 2.341 . S
O122 H128 0.850 . S
O122 Tb130 2.341 . S
O123 Tb118 2.341 . S
O123 Tb129 2.341 . S
O123 Tb130 2.341 . S
O123 H131 0.850 . S
O124 Tb119 2.341 . S
O124 Tb129 2.341 1_565 S
O124 H132 0.850 . S
O124 Tb133 2.341 1_565 S
O125 Tb120 2.341 . S
O125 Tb130 2.341 . S
O125 Tb133 2.341 . S
O125 H134 0.850 . S
O126 Tb119 2.341 . S
O126 Tb120 2.341 1_565 S
O126 Tb133 2.341 1_565 S
O126 H135 0.850 . S
H127 O121 0.850 . S
H128 O122 0.850 . S
Tb129 O121 2.341 1_545 S
Tb129 O123 2.341 . S
Tb129 O124 2.341 1_545 S
Tb129 O136 2.341 . S
Tb129 O147 2.344 . S
Tb129 O148 2.344 . S
Tb129 O158 2.344 1_545 S
Tb129 O161 2.344 . S
Tb130 O122 2.341 . S
Tb130 O123 2.341 . S
Tb130 O125 2.341 . S
Tb130 O136 2.341 . S
Tb130 O143 2.344 . S
Tb130 O144 2.344 . S
Tb130 O151 2.344 . S
Tb130 O152 2.344 . S
H131 O123 0.850 . S
H132 O124 0.850 . S
Tb133 O124 2.341 1_545 S
Tb133 O125 2.341 . S
Tb133 O126 2.341 1_545 S
Tb133 O136 2.341 . S
Tb133 O139 2.344 . S
Tb133 O140 2.344 1_545 S
Tb133 O155 2.344 . S
Tb133 O156 2.344 . S
H134 O125 0.850 . S
H135 O126 0.850 . S
O136 Tb129 2.341 . S
O136 Tb130 2.341 . S
O136 Tb133 2.341 . S
O136 H137 0.850 . S
H137 O136 0.850 . S
O138 Tb118 2.344 1_565 S
O138 C162 1.272 . S
O139 Tb133 2.344 . S
O139 C163 1.272 . S
O140 Tb133 2.344 1_565 S
O140 C164 1.272 . S
O141 Tb118 2.344 . S
O141 C165 1.272 . S
O142 Tb119 2.344 . S
O142 C166 1.272 . S
O143 Tb130 2.344 . S
O143 C167 1.272 . S
O144 Tb130 2.344 . S
O144 C168 1.272 . S
O145 Tb119 2.344 . S
O145 C169 1.272 . S
O146 Tb120 2.344 . S
O146 C170 1.272 . S
O147 Tb129 2.344 . S
O147 C171 1.272 . S
O148 Tb129 2.344 . S
O148 C172 1.272 . S
O149 Tb120 2.344 . S
O149 C173 1.272 . S
O150 Tb119 2.344 . S
O150 C162 1.272 . S
O151 Tb130 2.344 . S
O151 C163 1.272 . S
O152 Tb130 2.344 . S
O152 C165 1.272 . S
O153 Tb119 2.344 . S
O153 C164 1.272 . S
O154 Tb118 2.344 . S
O154 C172 1.272 . S
O155 Tb133 2.344 . S
O155 C173 1.272 . S
O156 Tb133 2.344 . S
O156 C171 1.272 . S
O157 Tb118 2.344 . S
O157 C170 1.272 . S
O158 Tb129 2.344 1_565 S
O158 C169 1.272 . S
O159 Tb120 2.344 . S
O159 C168 1.272 . S
O160 Tb120 2.344 1_565 S
O160 C166 1.272 . S
O161 Tb129 2.344 . S
O161 C167 1.272 . S
C162 O138 1.272 . S
C162 O150 1.272 . S
C163 O139 1.272 . S
C163 O151 1.272 . S
C164 O140 1.272 . S
C164 O153 1.272 . S
C165 O141 1.272 . S
C165 O152 1.272 . S
C166 O142 1.272 . S
C166 O160 1.272 . S
C167 O143 1.272 . S
C167 O161 1.272 . S
C168 O144 1.272 . S
C168 O159 1.272 . S
C169 O145 1.272 . S
C169 O158 1.272 . S
C170 O146 1.272 . S
C170 O157 1.272 . S
C171 O147 1.272 . S
C171 O156 1.272 . S
C172 O148 1.272 . S
C172 O154 1.272 . S
C173 O149 1.272 . S
C173 O155 1.272 . S
H174 O175 0.850 . S
O175 H174 0.850 . S
O175 Tb176 2.341 1_556 S
O175 Tb177 2.341 1_556 S
O175 Tb178 2.341 . S
Tb176 O175 2.341 1_554 S
Tb176 O179 2.341 . S
Tb176 O180 2.341 1_554 S
Tb176 O181 2.341 . S
Tb176 O196 2.344 . S
Tb176 O199 2.344 . S
Tb176 O212 2.344 . S
Tb176 O215 2.344 1_554 S
Tb177 O175 2.341 1_554 S
Tb177 O179 2.341 . S
Tb177 O182 2.341 . S
Tb177 O184 2.341 1_554 S
Tb177 O200 2.344 1_554 S
Tb177 O203 2.344 . S
Tb177 O208 2.344 . S
Tb177 O211 2.344 . S
Tb178 O175 2.341 . S
Tb178 O180 2.341 . S
Tb178 O183 2.341 . S
Tb178 O184 2.341 . S
Tb178 O204 2.344 . S
Tb178 O207 2.344 . S
Tb178 O217 2.344 . S
Tb178 O218 2.344 . S
O179 Tb176 2.341 . S
O179 Tb177 2.341 . S
O179 H185 0.850 . S
O179 Tb187 2.341 . S
O180 Tb176 2.341 1_556 S
O180 Tb178 2.341 . S
O180 H186 0.850 . S
O180 Tb188 2.341 1_556 S
O181 Tb176 2.341 . S
O181 Tb187 2.341 . S
O181 Tb188 2.341 . S
O181 H189 0.850 . S
O182 Tb177 2.341 . S
O182 Tb187 2.341 . S
O182 H190 0.850 . S
O182 Tb191 2.341 . S
O183 Tb178 2.341 . S
O183 Tb188 2.341 1_556 S
O183 Tb191 2.341 1_556 S
O183 H192 0.850 . S
O184 Tb177 2.341 1_556 S
O184 Tb178 2.341 . S
O184 Tb191 2.341 1_556 S
O184 H193 0.850 . S
H185 O179 0.850 . S
H186 O180 0.850 . S
Tb187 O179 2.341 . S
Tb187 O181 2.341 . S
Tb187 O182 2.341 . S
Tb187 O194 2.341 . S
Tb187 O205 2.344 . S
Tb187 O206 2.344 . S
Tb187 O216 2.344 . S
Tb187 O219 2.344 . S
Tb188 O180 2.341 1_554 S
Tb188 O181 2.341 . S
Tb188 O183 2.341 1_554 S
Tb188 O194 2.341 . S
Tb188 O201 2.344 . S
Tb188 O202 2.344 1_554 S
Tb188 O209 2.344 . S
Tb188 O210 2.344 . S
H189 O181 0.850 . S
H190 O182 0.850 . S
Tb191 O182 2.341 . S
Tb191 O183 2.341 1_554 S
Tb191 O184 2.341 1_554 S
Tb191 O194 2.341 . S
Tb191 O197 2.344 . S
Tb191 O198 2.344 . S
Tb191 O213 2.344 1_554 S
Tb191 O214 2.344 . S
H192 O183 0.850 . S
H193 O184 0.850 . S
O194 Tb187 2.341 . S
O194 Tb188 2.341 . S
O194 Tb191 2.341 . S
O194 H195 0.850 . S
H195 O194 0.850 . S
O196 Tb176 2.344 . S
O196 C220 1.272 . S
O197 Tb191 2.344 . S
O197 C221 1.272 . S
O198 Tb191 2.344 . S
O198 C222 1.272 . S
O199 Tb176 2.344 . S
O199 C223 1.272 . S
O200 Tb177 2.344 1_556 S
O200 C224 1.272 . S
O201 Tb188 2.344 . S
O201 C225 1.272 . S
O202 Tb188 2.344 1_556 S
O202 C226 1.272 . S
O203 Tb177 2.344 . S
O203 C227 1.272 . S
O204 Tb178 2.344 . S
O204 C228 1.272 . S
O205 Tb187 2.344 . S
O205 C229 1.272 . S
O206 Tb187 2.344 . S
O206 C230 1.272 . S
O207 Tb178 2.344 . S
O207 C231 1.272 . S
O208 Tb177 2.344 . S
O208 C220 1.272 . S
O209 Tb188 2.344 . S
O209 C221 1.272 . S
O210 Tb188 2.344 . S
O210 C223 1.272 . S
O211 Tb177 2.344 . S
O211 C222 1.272 . S
O212 Tb176 2.344 . S
O212 C230 1.272 . S
O213 Tb191 2.344 1_556 S
O213 C231 1.272 . S
O214 Tb191 2.344 . S
O214 C229 1.272 . S
O215 Tb176 2.344 1_556 S
O215 C228 1.272 . S
O216 Tb187 2.344 . S
O216 C227 1.272 . S
O217 Tb178 2.344 . S
O217 C226 1.272 . S
O218 Tb178 2.344 . S
O218 C224 1.272 . S
O219 Tb187 2.344 . S
O219 C225 1.272 . S
C220 O196 1.272 . S
C220 O208 1.272 . S
C221 O197 1.272 . S
C221 O209 1.272 . S
C222 O198 1.272 . S
C222 O211 1.272 . S
C223 O199 1.272 . S
C223 O210 1.272 . S
C224 O200 1.272 . S
C224 O218 1.272 . S
C225 O201 1.272 . S
C225 O219 1.272 . S
C226 O202 1.272 . S
C226 O217 1.272 . S
C227 O203 1.272 . S
C227 O216 1.272 . S
C228 O204 1.272 . S
C228 O215 1.272 . S
C229 O205 1.272 . S
C229 O214 1.272 . S
C230 O206 1.272 . S
C230 O212 1.272 . S
C231 O207 1.272 . S
C231 O213 1.272 . S
C232 C233 1.391 1_655 S
C232 C234 1.394 . S
C232 H248 0.931 . S
C233 C232 1.391 1_455 S
C233 C237 1.376 . S
C234 C232 1.394 . S
C234 C235 1.369 1_655 S
C234 C238 1.531 . S
C235 C234 1.369 1_455 S
C235 C236 1.410 . S
C235 C243 1.503 . S
C236 C235 1.410 . S
C236 C237 1.392 . S
C236 C239 1.511 . S
C237 C233 1.376 . S
C237 C236 1.392 . S
C237 H249 0.929 . S
C238 C234 1.531 . S
C238 H250 0.960 . S
C238 H251 0.962 . S
C238 H252 0.960 . S
C239 C236 1.511 . S
C239 H253 0.961 . S
C239 H254 0.961 . S
C239 H255 0.961 . S
C240 C241 1.370 1_655 S
C240 C242 1.363 . S
C240 H256 0.931 . S
C241 C240 1.370 1_455 S
C241 C245 1.408 . S
C242 C240 1.363 . S
C242 C243 1.370 1_655 S
C242 C246 1.524 . S
C243 C235 1.503 . S
C243 C242 1.370 1_455 S
C243 C244 1.403 . S
C244 C243 1.403 . S
C244 C245 1.404 . S
C244 C247 1.539 . S
C245 C241 1.408 . S
C245 C244 1.404 . S
C245 H257 0.930 . S
C246 C242 1.524 . S
C246 H258 0.956 . S
C246 H259 0.961 . S
C246 H260 0.961 . S
C247 C244 1.539 . S
C247 H261 0.958 . S
C247 H262 0.961 . S
C247 H263 0.960 . S
H248 C232 0.931 . S
H249 C237 0.929 . S
H250 C238 0.960 . S
H251 C238 0.962 . S
H252 C238 0.960 . S
H253 C239 0.961 . S
H254 C239 0.961 . S
H255 C239 0.961 . S
H256 C240 0.931 . S
H257 C245 0.930 . S
H258 C246 0.956 . S
H259 C246 0.961 . S
H260 C246 0.961 . S
H261 C247 0.958 . S
H262 C247 0.961 . S
H263 C247 0.960 . S
C264 C265 1.391 . S
C264 C266 1.394 . S
C264 H280 0.931 . S
C265 C264 1.391 . S
C265 C269 1.376 . S
C266 C264 1.394 . S
C266 C267 1.369 . S
C266 C270 1.531 . S
C267 C266 1.369 . S
C267 C268 1.410 . S
C267 C275 1.503 . S
C268 C267 1.410 . S
C268 C269 1.392 . S
C268 C271 1.511 . S
C269 C265 1.376 . S
C269 C268 1.392 . S
C269 H281 0.929 1_545 S
C270 C266 1.531 . S
C270 H282 0.960 . S
C270 H283 0.962 1_545 S
C270 H284 0.960 . S
C271 C268 1.511 . S
C271 H285 0.961 1_545 S
C271 H286 0.961 1_545 S
C271 H287 0.961 . S
C272 C273 1.370 1_565 S
C272 C274 1.363 . S
C272 H288 0.931 . S
C273 C272 1.370 1_545 S
C273 C277 1.408 . S
C274 C272 1.363 . S
C274 C275 1.370 1_565 S
C274 C278 1.524 . S
C275 C267 1.503 . S
C275 C274 1.370 1_545 S
C275 C276 1.403 . S
C276 C275 1.403 . S
C276 C277 1.404 . S
C276 C279 1.539 . S
C277 C273 1.408 . S
C277 C276 1.404 . S
C277 H289 0.930 . S
C278 C274 1.524 . S
C278 H290 0.956 . S
C278 H291 0.961 . S
C278 H292 0.961 . S
C279 C276 1.539 . S
C279 H293 0.958 . S
C279 H294 0.961 . S
C279 H295 0.960 . S
H280 C264 0.931 . S
H281 C269 0.929 1_565 S
H282 C270 0.960 . S
H283 C270 0.962 1_565 S
H284 C270 0.960 . S
H285 C271 0.961 1_565 S
H286 C271 0.961 1_565 S
H287 C271 0.961 . S
H288 C272 0.931 . S
H289 C277 0.930 . S
H290 C278 0.956 . S
H291 C278 0.961 . S
H292 C278 0.961 . S
H293 C279 0.958 . S
H294 C279 0.961 . S
H295 C279 0.960 . S
C296 C297 1.391 1_455 S
C296 C298 1.394 . S
C296 H312 0.931 . S
C297 C296 1.391 1_655 S
C297 C301 1.376 . S
C298 C296 1.394 . S
C298 C299 1.369 1_455 S
C298 C302 1.531 . S
C299 C298 1.369 1_655 S
C299 C300 1.410 . S
C299 C307 1.503 . S
C300 C299 1.410 . S
C300 C301 1.392 . S
C300 C303 1.511 . S
C301 C297 1.376 . S
C301 C300 1.392 . S
C301 H313 0.929 . S
C302 C298 1.531 . S
C302 H314 0.960 . S
C302 H315 0.962 . S
C302 H316 0.960 . S
C303 C300 1.511 . S
C303 H317 0.961 . S
C303 H318 0.961 . S
C303 H319 0.961 . S
C304 C305 1.370 1_455 S
C304 C306 1.363 . S
C304 H320 0.931 . S
C305 C304 1.370 1_655 S
C305 C309 1.408 . S
C306 C304 1.363 . S
C306 C307 1.370 1_455 S
C306 C310 1.524 . S
C307 C299 1.503 . S
C307 C306 1.370 1_655 S
C307 C308 1.403 . S
C308 C307 1.403 . S
C308 C309 1.404 . S
C308 C311 1.539 . S
C309 C305 1.408 . S
C309 C308 1.404 . S
C309 H321 0.930 . S
C310 C306 1.524 . S
C310 H322 0.956 . S
C310 H323 0.961 . S
C310 H324 0.961 . S
C311 C308 1.539 . S
C311 H325 0.958 . S
C311 H326 0.961 . S
C311 H327 0.960 . S
H312 C296 0.931 . S
H313 C301 0.929 . S
H314 C302 0.960 . S
H315 C302 0.962 . S
H316 C302 0.960 . S
H317 C303 0.961 . S
H318 C303 0.961 . S
H319 C303 0.961 . S
H320 C304 0.931 . S
H321 C309 0.930 . S
H322 C310 0.956 . S
H323 C310 0.961 . S
H324 C310 0.961 . S
H325 C311 0.958 . S
H326 C311 0.961 . S
H327 C311 0.960 . S
C328 C329 1.376 1_565 S
C328 C330 1.394 . S
C328 H344 0.931 . S
C329 C328 1.376 1_545 S
C329 C333 1.391 . S
C330 C328 1.394 . S
C330 C331 1.369 1_565 S
C330 C334 1.531 . S
C331 C330 1.369 1_545 S
C331 C332 1.410 . S
C331 C339 1.504 . S
C332 C331 1.410 . S
C332 C333 1.392 . S
C332 C335 1.511 . S
C333 C329 1.391 . S
C333 C332 1.392 . S
C333 H345 0.929 . S
C334 C330 1.531 . S
C334 H346 0.960 . S
C334 H347 0.962 . S
C334 H348 0.960 . S
C335 C332 1.511 . S
C335 H349 0.961 . S
C335 H350 0.961 . S
C335 H351 0.961 . S
C336 C337 1.368 1_565 S
C336 C338 1.363 . S
C336 H352 0.931 . S
C337 C336 1.368 1_545 S
C337 C341 1.410 . S
C338 C336 1.363 . S
C338 C339 1.368 1_565 S
C338 C342 1.524 . S
C339 C331 1.504 . S
C339 C338 1.368 1_545 S
C339 C340 1.405 . S
C340 C339 1.405 . S
C340 C341 1.404 . S
C340 C343 1.539 . S
C341 C337 1.410 . S
C341 C340 1.404 . S
C341 H353 0.930 . S
C342 C338 1.524 . S
C342 H354 0.956 . S
C342 H355 0.961 1_565 S
C342 H356 0.961 . S
C343 C340 1.539 . S
C343 H357 0.958 1_545 S
C343 H358 0.961 . S
C343 H359 0.960 . S
H344 C328 0.931 . S
H345 C333 0.929 . S
H346 C334 0.960 . S
H347 C334 0.962 . S
H348 C334 0.960 . S
H349 C335 0.961 . S
H350 C335 0.961 . S
H351 C335 0.961 . S
H352 C336 0.931 . S
H353 C341 0.930 . S
H354 C342 0.956 . S
H355 C342 0.961 1_545 S
H356 C342 0.961 . S
H357 C343 0.958 1_565 S
H358 C343 0.961 . S
H359 C343 0.960 . S
C360 C361 1.391 1_455 S
C360 C362 1.394 . S
C360 H376 0.931 . S
C361 C360 1.391 1_655 S
C361 C365 1.376 . S
C362 C360 1.394 . S
C362 C363 1.369 1_455 S
C362 C366 1.531 . S
C363 C362 1.369 1_655 S
C363 C364 1.410 . S
C363 C371 1.503 . S
C364 C363 1.410 . S
C364 C365 1.392 . S
C364 C367 1.511 . S
C365 C361 1.376 . S
C365 C364 1.392 . S
C365 H377 0.929 . S
C366 C362 1.531 . S
C366 H378 0.960 . S
C366 H379 0.962 . S
C366 H380 0.960 . S
C367 C364 1.511 . S
C367 H381 0.961 . S
C367 H382 0.961 . S
C367 H383 0.961 . S
C368 C369 1.370 1_455 S
C368 C370 1.363 . S
C368 H384 0.931 . S
C369 C368 1.370 1_655 S
C369 C373 1.408 . S
C370 C368 1.363 . S
C370 C371 1.370 1_455 S
C370 C374 1.524 . S
C371 C363 1.503 . S
C371 C370 1.370 1_655 S
C371 C372 1.403 . S
C372 C371 1.403 . S
C372 C373 1.404 . S
C372 C375 1.539 . S
C373 C369 1.408 . S
C373 C372 1.404 . S
C373 H385 0.930 . S
C374 C370 1.524 . S
C374 H386 0.956 . S
C374 H387 0.961 . S
C374 H388 0.961 . S
C375 C372 1.539 . S
C375 H389 0.958 . S
C375 H390 0.961 . S
C375 H391 0.960 . S
H376 C360 0.931 . S
H377 C365 0.929 . S
H378 C366 0.960 . S
H379 C366 0.962 . S
H380 C366 0.960 . S
H381 C367 0.961 . S
H382 C367 0.961 . S
H383 C367 0.961 . S
H384 C368 0.931 . S
H385 C373 0.930 . S
H386 C374 0.956 . S
H387 C374 0.961 . S
H388 C374 0.961 . S
H389 C375 0.958 . S
H390 C375 0.961 . S
H391 C375 0.960 . S
C392 C393 1.391 1_565 S
C392 C394 1.394 . S
C392 H408 0.931 . S
C393 C392 1.391 1_545 S
C393 C397 1.376 . S
C394 C392 1.394 . S
C394 C395 1.369 1_565 S
C394 C398 1.531 . S
C395 C394 1.369 1_545 S
C395 C396 1.410 . S
C395 C403 1.503 . S
C396 C395 1.410 . S
C396 C397 1.392 . S
C396 C399 1.511 . S
C397 C393 1.376 . S
C397 C396 1.392 . S
C397 H409 0.929 . S
C398 C394 1.531 . S
C398 H410 0.960 . S
C398 H411 0.962 . S
C398 H412 0.960 . S
C399 C396 1.511 . S
C399 H413 0.961 . S
C399 H414 0.961 . S
C399 H415 0.961 . S
C400 C401 1.370 1_565 S
C400 C402 1.363 . S
C400 H416 0.931 . S
C401 C400 1.370 1_545 S
C401 C405 1.408 . S
C402 C400 1.363 . S
C402 C403 1.370 1_565 S
C402 C406 1.524 . S
C403 C395 1.503 . S
C403 C402 1.370 1_545 S
C403 C404 1.403 . S
C404 C403 1.403 . S
C404 C405 1.404 . S
C404 C407 1.539 . S
C405 C401 1.408 . S
C405 C404 1.404 . S
C405 H417 0.930 . S
C406 C402 1.524 . S
C406 H418 0.956 . S
C406 H419 0.961 . S
C406 H420 0.961 . S
C407 C404 1.539 . S
C407 H421 0.958 . S
C407 H422 0.961 . S
C407 H423 0.960 . S
H408 C392 0.931 . S
H409 C397 0.929 . S
H410 C398 0.960 . S
H411 C398 0.962 . S
H412 C398 0.960 . S
H413 C399 0.961 . S
H414 C399 0.961 . S
H415 C399 0.961 . S
H416 C400 0.931 . S
H417 C405 0.930 . S
H418 C406 0.956 . S
H419 C406 0.961 . S
H420 C406 0.961 . S
H421 C407 0.958 . S
H422 C407 0.961 . S
H423 C407 0.960 . S
C424 C425 1.391 1_655 S
C424 C426 1.394 . S
C424 H440 0.931 . S
C425 C424 1.391 1_455 S
C425 C429 1.376 . S
C426 C424 1.394 . S
C426 C427 1.369 1_655 S
C426 C430 1.531 . S
C427 C426 1.369 1_455 S
C427 C428 1.410 . S
C427 C435 1.503 . S
C428 C427 1.410 . S
C428 C429 1.392 . S
C428 C431 1.511 . S
C429 C425 1.376 . S
C429 C428 1.392 . S
C429 H441 0.929 . S
C430 C426 1.531 . S
C430 H442 0.960 . S
C430 H443 0.962 . S
C430 H444 0.960 . S
C431 C428 1.511 . S
C431 H445 0.961 . S
C431 H446 0.961 . S
C431 H447 0.961 . S
C432 C433 1.370 1_655 S
C432 C434 1.363 . S
C432 H448 0.931 . S
C433 C432 1.370 1_455 S
C433 C437 1.408 . S
C434 C432 1.363 . S
C434 C435 1.370 1_655 S
C434 C438 1.524 . S
C435 C427 1.503 . S
C435 C434 1.370 1_455 S
C435 C436 1.403 . S
C436 C435 1.403 . S
C436 C437 1.404 . S
C436 C439 1.539 . S
C437 C433 1.408 . S
C437 C436 1.404 . S
C437 H449 0.930 . S
C438 C434 1.524 . S
C438 H450 0.956 . S
C438 H451 0.961 . S
C438 H452 0.961 . S
C439 C436 1.539 . S
C439 H453 0.958 . S
C439 H454 0.961 . S
C439 H455 0.960 . S
H440 C424 0.931 . S
H441 C429 0.929 . S
H442 C430 0.960 . S
H443 C430 0.962 . S
H444 C430 0.960 . S
H445 C431 0.961 . S
H446 C431 0.961 . S
H447 C431 0.961 . S
H448 C432 0.931 . S
H449 C437 0.930 . S
H450 C438 0.956 . S
H451 C438 0.961 . S
H452 C438 0.961 . S
H453 C439 0.958 . S
H454 C439 0.961 . S
H455 C439 0.960 . S
C456 C457 1.382 1_565 S
C456 C458 1.394 . S
C456 H472 0.931 . S
C457 C456 1.382 1_545 S
C457 C461 1.384 . S
C458 C456 1.394 . S
C458 C459 1.365 1_565 S
C458 C462 1.531 . S
C459 C458 1.365 1_545 S
C459 C460 1.413 . S
C459 C467 1.503 . S
C460 C459 1.413 . S
C460 C461 1.392 . S
C460 C463 1.511 . S
C461 C457 1.384 . S
C461 C460 1.392 . S
C461 H473 0.929 . S
C462 C458 1.531 . S
C462 H474 0.960 . S
C462 H475 0.962 . S
C462 H476 0.960 . S
C463 C460 1.511 . S
C463 H477 0.961 . S
C463 H478 0.961 . S
C463 H479 0.961 . S
C464 C465 1.369 1_565 S
C464 C466 1.363 . S
C464 H480 0.931 . S
C465 C464 1.369 1_545 S
C465 C469 1.409 . S
C466 C464 1.363 . S
C466 C467 1.370 1_565 S
C466 C470 1.524 . S
C467 C459 1.503 . S
C467 C466 1.370 1_545 S
C467 C468 1.403 . S
C468 C467 1.403 . S
C468 C469 1.404 . S
C468 C471 1.539 . S
C469 C465 1.409 . S
C469 C468 1.404 . S
C469 H481 0.930 . S
C470 C466 1.524 . S
C470 H482 0.956 . S
C470 H483 0.961 1_565 S
C470 H484 0.961 . S
C471 C468 1.539 . S
C471 H485 0.958 1_545 S
C471 H486 0.961 . S
C471 H487 0.960 . S
H472 C456 0.931 . S
H473 C461 0.929 . S
H474 C462 0.960 . S
H475 C462 0.962 . S
H476 C462 0.960 . S
H477 C463 0.961 . S
H478 C463 0.961 . S
H479 C463 0.961 . S
H480 C464 0.931 . S
H481 C469 0.930 . S
H482 C470 0.956 . S
H483 C470 0.961 1_545 S
H484 C470 0.961 . S
H485 C471 0.958 1_565 S
H486 C471 0.961 . S
H487 C471 0.960 . S
C488 C489 1.391 . S
C488 C490 1.394 . S
C488 H504 0.931 . S
C489 C488 1.391 . S
C489 C493 1.376 1_556 S
C490 C488 1.394 . S
C490 C491 1.369 . S
C490 C494 1.531 . S
C491 C490 1.369 . S
C491 C492 1.410 1_556 S
C491 C499 1.503 . S
C492 C491 1.410 1_554 S
C492 C493 1.392 . S
C492 C495 1.511 . S
C493 C489 1.376 1_554 S
C493 C492 1.392 . S
C493 H505 0.929 . S
C494 C490 1.531 . S
C494 H506 0.960 . S
C494 H507 0.962 . S
C494 H508 0.960 . S
C495 C492 1.511 . S
C495 H509 0.961 . S
C495 H510 0.961 . S
C495 H511 0.961 . S
C496 C497 1.370 1_554 S
C496 C498 1.363 . S
C496 H512 0.931 . S
C497 C496 1.370 1_556 S
C497 C501 1.408 . S
C498 C496 1.363 . S
C498 C499 1.370 1_554 S
C498 C502 1.524 . S
C499 C491 1.503 . S
C499 C498 1.370 1_556 S
C499 C500 1.403 . S
C500 C499 1.403 . S
C500 C501 1.404 . S
C500 C503 1.539 . S
C501 C497 1.408 . S
C501 C500 1.404 . S
C501 H513 0.930 . S
C502 C498 1.524 . S
C502 H514 0.956 . S
C502 H515 0.961 . S
C502 H516 0.961 . S
C503 C500 1.539 . S
C503 H517 0.958 . S
C503 H518 0.961 . S
C503 H519 0.960 . S
H504 C488 0.931 . S
H505 C493 0.929 . S
H506 C494 0.960 . S
H507 C494 0.962 . S
H508 C494 0.960 . S
H509 C495 0.961 . S
H510 C495 0.961 . S
H511 C495 0.961 . S
H512 C496 0.931 . S
H513 C501 0.930 . S
H514 C502 0.956 . S
H515 C502 0.961 . S
H516 C502 0.961 . S
H517 C503 0.958 . S
H518 C503 0.961 . S
H519 C503 0.960 . S
C520 C521 1.391 1_556 S
C520 C522 1.394 . S
C520 H536 0.931 . S
C521 C520 1.391 1_554 S
C521 C525 1.376 . S
C522 C520 1.394 . S
C522 C523 1.369 1_556 S
C522 C526 1.531 . S
C523 C522 1.369 1_554 S
C523 C524 1.410 . S
C523 C531 1.503 . S
C524 C523 1.410 . S
C524 C525 1.392 . S
C524 C527 1.511 . S
C525 C521 1.376 . S
C525 C524 1.392 . S
C525 H537 0.929 . S
C526 C522 1.531 . S
C526 H538 0.960 . S
C526 H539 0.962 . S
C526 H540 0.960 . S
C527 C524 1.511 . S
C527 H541 0.961 . S
C527 H542 0.961 . S
C527 H543 0.961 . S
C528 C529 1.370 1_556 S
C528 C530 1.363 . S
C528 H544 0.931 . S
C529 C528 1.370 1_554 S
C529 C533 1.408 . S
C530 C528 1.363 . S
C530 C531 1.370 1_556 S
C530 C534 1.524 . S
C531 C523 1.503 . S
C531 C530 1.370 1_554 S
C531 C532 1.403 . S
C532 C531 1.403 . S
C532 C533 1.404 . S
C532 C535 1.539 . S
C533 C529 1.408 . S
C533 C532 1.404 . S
C533 H545 0.930 . S
C534 C530 1.524 . S
C534 H546 0.956 . S
C534 H547 0.961 . S
C534 H548 0.961 . S
C535 C532 1.539 . S
C535 H549 0.958 . S
C535 H550 0.961 . S
C535 H551 0.960 . S
H536 C520 0.931 . S
H537 C525 0.929 . S
H538 C526 0.960 . S
H539 C526 0.962 . S
H540 C526 0.960 . S
H541 C527 0.961 . S
H542 C527 0.961 . S
H543 C527 0.961 . S
H544 C528 0.931 . S
H545 C533 0.930 . S
H546 C534 0.956 . S
H547 C534 0.961 . S
H548 C534 0.961 . S
H549 C535 0.958 . S
H550 C535 0.961 . S
H551 C535 0.960 . S
C552 C553 1.391 . S
C552 C554 1.394 . S
C552 H568 0.931 . S
C553 C552 1.391 . S
C553 C557 1.376 1_556 S
C554 C552 1.394 . S
C554 C555 1.369 . S
C554 C558 1.531 . S
C555 C554 1.369 . S
C555 C556 1.410 1_556 S
C555 C563 1.503 . S
C556 C555 1.410 1_554 S
C556 C557 1.392 . S
C556 C559 1.511 . S
C557 C553 1.376 1_554 S
C557 C556 1.392 . S
C557 H569 0.929 . S
C558 C554 1.531 . S
C558 H570 0.960 . S
C558 H571 0.962 . S
C558 H572 0.960 . S
C559 C556 1.511 . S
C559 H573 0.961 . S
C559 H574 0.961 . S
C559 H575 0.961 . S
C560 C561 1.370 1_554 S
C560 C562 1.363 . S
C560 H576 0.931 . S
C561 C560 1.370 1_556 S
C561 C565 1.408 . S
C562 C560 1.363 . S
C562 C563 1.370 1_554 S
C562 C566 1.524 . S
C563 C555 1.503 . S
C563 C562 1.370 1_556 S
C563 C564 1.403 . S
C564 C563 1.403 . S
C564 C565 1.404 . S
C564 C567 1.539 . S
C565 C561 1.408 . S
C565 C564 1.404 . S
C565 H577 0.930 . S
C566 C562 1.524 . S
C566 H578 0.956 . S
C566 H579 0.961 . S
C566 H580 0.961 . S
C567 C564 1.539 . S
C567 H581 0.958 . S
C567 H582 0.961 . S
C567 H583 0.960 . S
H568 C552 0.931 . S
H569 C557 0.929 . S
H570 C558 0.960 . S
H571 C558 0.962 . S
H572 C558 0.960 . S
H573 C559 0.961 . S
H574 C559 0.961 . S
H575 C559 0.961 . S
H576 C560 0.931 . S
H577 C565 0.930 . S
H578 C566 0.956 . S
H579 C566 0.961 . S
H580 C566 0.961 . S
H581 C567 0.958 . S
H582 C567 0.961 . S
H583 C567 0.960 . S
C584 C585 1.391 . S
C584 C586 1.394 . S
C584 H600 0.931 . S
C585 C584 1.391 . S
C585 C589 1.376 1_554 S
C586 C584 1.394 . S
C586 C587 1.369 . S
C586 C590 1.531 . S
C587 C586 1.369 . S
C587 C588 1.410 1_554 S
C587 C595 1.503 . S
C588 C587 1.410 1_556 S
C588 C589 1.392 . S
C588 C591 1.511 . S
C589 C585 1.376 1_556 S
C589 C588 1.392 . S
C589 H601 0.929 . S
C590 C586 1.531 . S
C590 H602 0.960 . S
C590 H603 0.962 . S
C590 H604 0.960 . S
C591 C588 1.511 . S
C591 H605 0.961 . S
C591 H606 0.961 . S
C591 H607 0.961 . S
C592 C593 1.370 1_556 S
C592 C594 1.363 . S
C592 H608 0.931 . S
C593 C592 1.370 1_554 S
C593 C597 1.408 . S
C594 C592 1.363 . S
C594 C595 1.370 1_556 S
C594 C598 1.524 . S
C595 C587 1.503 . S
C595 C594 1.370 1_554 S
C595 C596 1.403 . S
C596 C595 1.403 . S
C596 C597 1.404 . S
C596 C599 1.539 . S
C597 C593 1.408 . S
C597 C596 1.404 . S
C597 H609 0.930 . S
C598 C594 1.524 . S
C598 H610 0.956 . S
C598 H611 0.961 . S
C598 H612 0.961 . S
C599 C596 1.539 . S
C599 H613 0.958 . S
C599 H614 0.961 . S
C599 H615 0.960 . S
H600 C584 0.931 . S
H601 C589 0.929 . S
H602 C590 0.960 . S
H603 C590 0.962 . S
H604 C590 0.960 . S
H605 C591 0.961 . S
H606 C591 0.961 . S
H607 C591 0.961 . S
H608 C592 0.931 . S
H609 C597 0.930 . S
H610 C598 0.956 . S
H611 C598 0.961 . S
H612 C598 0.961 . S
H613 C599 0.958 . S
H614 C599 0.961 . S
H615 C599 0.960 . S
C616 C617 1.391 . S
C616 C618 1.394 . S
C616 H632 0.931 . S
C617 C616 1.391 . S
C617 C621 1.376 . S
C618 C616 1.394 . S
C618 C619 1.369 . S
C618 C622 1.531 . S
C619 C618 1.369 . S
C619 C620 1.410 . S
C619 C627 1.503 . S
C620 C619 1.410 . S
C620 C621 1.392 . S
C620 C623 1.511 . S
C621 C617 1.376 . S
C621 C620 1.392 . S
C621 H633 0.929 . S
C622 C618 1.531 . S
C622 H634 0.960 . S
C622 H635 0.962 . S
C622 H636 0.960 . S
C623 C620 1.511 . S
C623 H637 0.961 . S
C623 H638 0.961 . S
C623 H639 0.961 . S
C624 C625 1.370 . S
C624 C626 1.363 . S
C624 H640 0.931 . S
C625 C624 1.370 . S
C625 C629 1.408 . S
C626 C624 1.363 . S
C626 C627 1.370 . S
C626 C630 1.524 . S
C627 C619 1.503 . S
C627 C626 1.370 . S
C627 C628 1.403 . S
C628 C627 1.403 . S
C628 C629 1.404 . S
C628 C631 1.539 . S
C629 C625 1.408 . S
C629 C628 1.404 . S
C629 H641 0.930 . S
C630 C626 1.524 . S
C630 H642 0.956 . S
C630 H643 0.961 . S
C630 H644 0.961 . S
C631 C628 1.539 . S
C631 H645 0.958 . S
C631 H646 0.961 . S
C631 H647 0.960 . S
H632 C616 0.931 . S
H633 C621 0.929 . S
H634 C622 0.960 . S
H635 C622 0.962 . S
H636 C622 0.960 . S
H637 C623 0.961 . S
H638 C623 0.961 . S
H639 C623 0.961 . S
H640 C624 0.931 . S
H641 C629 0.930 . S
H642 C630 0.956 . S
H643 C630 0.961 . S
H644 C630 0.961 . S
H645 C631 0.958 . S
H646 C631 0.961 . S
H647 C631 0.960 . S
C648 C649 1.391 . S
C648 C650 1.394 . S
C648 H664 0.931 . S
C649 C648 1.391 . S
C649 C653 1.376 . S
C650 C648 1.394 . S
C650 C651 1.369 . S
C650 C654 1.531 . S
C651 C650 1.369 . S
C651 C652 1.410 . S
C651 C659 1.503 . S
C652 C651 1.410 . S
C652 C653 1.392 . S
C652 C655 1.511 . S
C653 C649 1.376 . S
C653 C652 1.392 . S
C653 H665 0.929 . S
C654 C650 1.531 . S
C654 H666 0.960 . S
C654 H667 0.962 . S
C654 H668 0.960 . S
C655 C652 1.511 . S
C655 H669 0.961 . S
C655 H670 0.961 . S
C655 H671 0.961 . S
C656 C657 1.370 . S
C656 C658 1.363 . S
C656 H672 0.931 . S
C657 C656 1.370 . S
C657 C661 1.408 . S
C658 C656 1.363 . S
C658 C659 1.370 . S
C658 C662 1.524 . S
C659 C651 1.503 . S
C659 C658 1.370 . S
C659 C660 1.403 . S
C660 C659 1.403 . S
C660 C661 1.404 . S
C660 C663 1.539 . S
C661 C657 1.408 . S
C661 C660 1.404 . S
C661 H673 0.930 . S
C662 C658 1.524 . S
C662 H674 0.956 . S
C662 H675 0.961 . S
C662 H676 0.961 . S
C663 C660 1.539 . S
C663 H677 0.958 . S
C663 H678 0.961 . S
C663 H679 0.960 . S
H664 C648 0.931 . S
H665 C653 0.929 . S
H666 C654 0.960 . S
H667 C654 0.962 . S
H668 C654 0.960 . S
H669 C655 0.961 . S
H670 C655 0.961 . S
H671 C655 0.961 . S
H672 C656 0.931 . S
H673 C661 0.930 . S
H674 C662 0.956 . S
H675 C662 0.961 . S
H676 C662 0.961 . S
H677 C663 0.958 . S
H678 C663 0.961 . S
H679 C663 0.960 . S
C680 C681 1.391 . S
C680 C682 1.394 . S
C680 H696 0.931 . S
C681 C680 1.391 . S
C681 C685 1.376 . S
C682 C680 1.394 . S
C682 C683 1.369 . S
C682 C686 1.531 . S
C683 C682 1.369 . S
C683 C684 1.410 . S
C683 C691 1.503 . S
C684 C683 1.410 . S
C684 C685 1.392 . S
C684 C687 1.511 . S
C685 C681 1.376 . S
C685 C684 1.392 . S
C685 H697 0.929 . S
C686 C682 1.531 . S
C686 H698 0.960 . S
C686 H699 0.962 . S
C686 H700 0.960 . S
C687 C684 1.511 . S
C687 H701 0.961 . S
C687 H702 0.961 . S
C687 H703 0.961 . S
C688 C689 1.370 . S
C688 C690 1.363 . S
C688 H704 0.931 . S
C689 C688 1.370 . S
C689 C693 1.408 . S
C690 C688 1.363 . S
C690 C691 1.370 . S
C690 C694 1.524 . S
C691 C683 1.503 . S
C691 C690 1.370 . S
C691 C692 1.403 . S
C692 C691 1.403 . S
C692 C693 1.404 . S
C692 C695 1.539 . S
C693 C689 1.408 . S
C693 C692 1.404 . S
C693 H705 0.930 . S
C694 C690 1.524 . S
C694 H706 0.956 . S
C694 H707 0.961 . S
C694 H708 0.961 . S
C695 C692 1.539 . S
C695 H709 0.958 . S
C695 H710 0.961 . S
C695 H711 0.960 . S
H696 C680 0.931 . S
H697 C685 0.929 . S
H698 C686 0.960 . S
H699 C686 0.962 . S
H700 C686 0.960 . S
H701 C687 0.961 . S
H702 C687 0.961 . S
H703 C687 0.961 . S
H704 C688 0.931 . S
H705 C693 0.930 . S
H706 C694 0.956 . S
H707 C694 0.961 . S
H708 C694 0.961 . S
H709 C695 0.958 . S
H710 C695 0.961 . S
H711 C695 0.960 . S
C712 C713 1.391 . S
C712 C714 1.394 . S
C712 H728 0.931 . S
C713 C712 1.391 . S
C713 C717 1.376 . S
C714 C712 1.394 . S
C714 C715 1.369 . S
C714 C718 1.531 . S
C715 C714 1.369 . S
C715 C716 1.410 . S
C715 C723 1.503 . S
C716 C715 1.410 . S
C716 C717 1.392 . S
C716 C719 1.511 . S
C717 C713 1.376 . S
C717 C716 1.392 . S
C717 H729 0.929 . S
C718 C714 1.531 . S
C718 H730 0.960 . S
C718 H731 0.962 . S
C718 H732 0.960 . S
C719 C716 1.511 . S
C719 H733 0.961 . S
C719 H734 0.961 . S
C719 H735 0.961 . S
C720 C721 1.370 . S
C720 C722 1.363 . S
C720 H736 0.931 . S
C721 C720 1.370 . S
C721 C725 1.408 . S
C722 C720 1.363 . S
C722 C723 1.370 . S
C722 C726 1.524 . S
C723 C715 1.503 . S
C723 C722 1.370 . S
C723 C724 1.403 . S
C724 C723 1.403 . S
C724 C725 1.404 . S
C724 C727 1.539 . S
C725 C721 1.408 . S
C725 C724 1.404 . S
C725 H737 0.930 . S
C726 C722 1.524 . S
C726 H738 0.956 . S
C726 H739 0.961 . S
C726 H740 0.961 . S
C727 C724 1.539 . S
C727 H741 0.958 . S
C727 H742 0.961 . S
C727 H743 0.960 . S
H728 C712 0.931 . S
H729 C717 0.929 . S
H730 C718 0.960 . S
H731 C718 0.962 . S
H732 C718 0.960 . S
H733 C719 0.961 . S
H734 C719 0.961 . S
H735 C719 0.961 . S
H736 C720 0.931 . S
H737 C725 0.930 . S
H738 C726 0.956 . S
H739 C726 0.961 . S
H740 C726 0.961 . S
H741 C727 0.958 . S
H742 C727 0.961 . S
H743 C727 0.960 . S
C744 C745 1.391 . S
C744 C746 1.394 . S
C744 H760 0.931 . S
C745 C744 1.391 . S
C745 C749 1.376 . S
C746 C744 1.394 . S
C746 C747 1.369 . S
C746 C750 1.531 . S
C747 C746 1.369 . S
C747 C748 1.410 . S
C747 C755 1.503 . S
C748 C747 1.410 . S
C748 C749 1.392 . S
C748 C751 1.511 . S
C749 C745 1.376 . S
C749 C748 1.392 . S
C749 H761 0.929 . S
C750 C746 1.531 . S
C750 H762 0.960 . S
C750 H763 0.962 . S
C750 H764 0.960 . S
C751 C748 1.511 . S
C751 H765 0.961 . S
C751 H766 0.961 . S
C751 H767 0.961 . S
C752 C753 1.370 . S
C752 C754 1.363 . S
C752 H768 0.931 . S
C753 C752 1.370 . S
C753 C757 1.408 . S
C754 C752 1.363 . S
C754 C755 1.370 . S
C754 C758 1.524 . S
C755 C747 1.503 . S
C755 C754 1.370 . S
C755 C756 1.403 . S
C756 C755 1.403 . S
C756 C757 1.404 . S
C756 C759 1.539 . S
C757 C753 1.408 . S
C757 C756 1.404 . S
C757 H769 0.930 . S
C758 C754 1.524 . S
C758 H770 0.956 . S
C758 H771 0.961 . S
C758 H772 0.961 . S
C759 C756 1.539 . S
C759 H773 0.958 . S
C759 H774 0.961 . S
C759 H775 0.960 . S
H760 C744 0.931 . S
H761 C749 0.929 . S
H762 C750 0.960 . S
H763 C750 0.962 . S
H764 C750 0.960 . S
H765 C751 0.961 . S
H766 C751 0.961 . S
H767 C751 0.961 . S
H768 C752 0.931 . S
H769 C757 0.930 . S
H770 C758 0.956 . S
H771 C758 0.961 . S
H772 C758 0.961 . S
H773 C759 0.958 . S
H774 C759 0.961 . S
H775 C759 0.960 . S
C776 C777 1.391 . S
C776 C778 1.394 . S
C776 H792 0.931 . S
C777 C776 1.391 . S
C777 C781 1.376 . S
C778 C776 1.394 . S
C778 C779 1.369 . S
C778 C782 1.531 . S
C779 C778 1.369 . S
C779 C780 1.410 . S
C779 C787 1.503 . S
C780 C779 1.410 . S
C780 C781 1.392 . S
C780 C783 1.511 . S
C781 C777 1.376 . S
C781 C780 1.392 . S
C781 H793 0.929 . S
C782 C778 1.531 . S
C782 H794 0.960 . S
C782 H795 0.962 . S
C782 H796 0.960 . S
C783 C780 1.511 . S
C783 H797 0.961 . S
C783 H798 0.961 . S
C783 H799 0.961 . S
C784 C785 1.370 . S
C784 C786 1.363 . S
C784 H800 0.931 . S
C785 C784 1.370 . S
C785 C789 1.408 . S
C786 C784 1.363 . S
C786 C787 1.370 . S
C786 C790 1.524 . S
C787 C779 1.503 . S
C787 C786 1.370 . S
C787 C788 1.403 . S
C788 C787 1.403 . S
C788 C789 1.404 . S
C788 C791 1.539 . S
C789 C785 1.408 . S
C789 C788 1.404 . S
C789 H801 0.930 . S
C790 C786 1.524 . S
C790 H802 0.956 . S
C790 H803 0.961 . S
C790 H804 0.961 . S
C791 C788 1.539 . S
C791 H805 0.958 . S
C791 H806 0.961 . S
C791 H807 0.960 . S
H792 C776 0.931 . S
H793 C781 0.929 . S
H794 C782 0.960 . S
H795 C782 0.962 . S
H796 C782 0.960 . S
H797 C783 0.961 . S
H798 C783 0.961 . S
H799 C783 0.961 . S
H800 C784 0.931 . S
H801 C789 0.930 . S
H802 C790 0.956 . S
H803 C790 0.961 . S
H804 C790 0.961 . S
H805 C791 0.958 . S
H806 C791 0.961 . S
H807 C791 0.960 . S
C808 C809 1.391 . S
C808 C810 1.394 . S
C808 H824 0.931 . S
C809 C808 1.391 . S
C809 C813 1.376 . S
C810 C808 1.394 . S
C810 C811 1.369 . S
C810 C814 1.531 . S
C811 C810 1.369 . S
C811 C812 1.410 . S
C811 C819 1.503 . S
C812 C811 1.410 . S
C812 C813 1.392 . S
C812 C815 1.511 . S
C813 C809 1.376 . S
C813 C812 1.392 . S
C813 H825 0.929 . S
C814 C810 1.531 . S
C814 H826 0.960 . S
C814 H827 0.962 . S
C814 H828 0.960 . S
C815 C812 1.511 . S
C815 H829 0.961 . S
C815 H830 0.961 . S
C815 H831 0.961 . S
C816 C817 1.370 . S
C816 C818 1.363 . S
C816 H832 0.931 . S
C817 C816 1.370 . S
C817 C821 1.408 . S
C818 C816 1.363 . S
C818 C819 1.370 . S
C818 C822 1.524 . S
C819 C811 1.503 . S
C819 C818 1.370 . S
C819 C820 1.403 . S
C820 C819 1.403 . S
C820 C821 1.404 . S
C820 C823 1.539 . S
C821 C817 1.408 . S
C821 C820 1.404 . S
C821 H833 0.930 . S
C822 C818 1.524 . S
C822 H834 0.956 . S
C822 H835 0.961 . S
C822 H836 0.961 . S
C823 C820 1.539 . S
C823 H837 0.958 . S
C823 H838 0.961 . S
C823 H839 0.960 . S
H824 C808 0.931 . S
H825 C813 0.929 . S
H826 C814 0.960 . S
H827 C814 0.962 . S
H828 C814 0.960 . S
H829 C815 0.961 . S
H830 C815 0.961 . S
H831 C815 0.961 . S
H832 C816 0.931 . S
H833 C821 0.930 . S
H834 C822 0.956 . S
H835 C822 0.961 . S
H836 C822 0.961 . S
H837 C823 0.958 . S
H838 C823 0.961 . S
H839 C823 0.960 . S
C840 C841 1.391 . S
C840 C842 1.394 . S
C840 H856 0.931 . S
C841 C840 1.391 . S
C841 C845 1.376 . S
C842 C840 1.394 . S
C842 C843 1.369 . S
C842 C846 1.531 . S
C843 C842 1.369 . S
C843 C844 1.410 . S
C843 C851 1.503 . S
C844 C843 1.410 . S
C844 C845 1.392 . S
C844 C847 1.511 . S
C845 C841 1.376 . S
C845 C844 1.392 . S
C845 H857 0.929 . S
C846 C842 1.531 . S
C846 H858 0.960 . S
C846 H859 0.962 . S
C846 H860 0.960 . S
C847 C844 1.511 . S
C847 H861 0.961 . S
C847 H862 0.961 . S
C847 H863 0.961 . S
C848 C849 1.370 . S
C848 C850 1.363 . S
C848 H864 0.931 . S
C849 C848 1.370 . S
C849 C853 1.408 . S
C850 C848 1.363 . S
C850 C851 1.370 . S
C850 C854 1.524 . S
C851 C843 1.503 . S
C851 C850 1.370 . S
C851 C852 1.403 . S
C852 C851 1.403 . S
C852 C853 1.404 . S
C852 C855 1.539 . S
C853 C849 1.408 . S
C853 C852 1.404 . S
C853 H865 0.930 . S
C854 C850 1.524 . S
C854 H866 0.956 . S
C854 H867 0.961 . S
C854 H868 0.961 . S
C855 C852 1.539 . S
C855 H869 0.958 . S
C855 H870 0.961 . S
C855 H871 0.960 . S
H856 C840 0.931 . S
H857 C845 0.929 . S
H858 C846 0.960 . S
H859 C846 0.962 . S
H860 C846 0.960 . S
H861 C847 0.961 . S
H862 C847 0.961 . S
H863 C847 0.961 . S
H864 C848 0.931 . S
H865 C853 0.930 . S
H866 C854 0.956 . S
H867 C854 0.961 . S
H868 C854 0.961 . S
H869 C855 0.958 . S
H870 C855 0.961 . S
H871 C855 0.960 . S
C872 C873 1.391 . S
C872 C874 1.394 . S
C872 H888 0.931 . S
C873 C872 1.391 . S
C873 C877 1.376 . S
C874 C872 1.394 . S
C874 C875 1.369 . S
C874 C878 1.531 . S
C875 C874 1.369 . S
C875 C876 1.410 . S
C875 C883 1.503 . S
C876 C875 1.410 . S
C876 C877 1.392 . S
C876 C879 1.511 . S
C877 C873 1.376 . S
C877 C876 1.392 . S
C877 H889 0.929 . S
C878 C874 1.531 . S
C878 H890 0.960 . S
C878 H891 0.962 . S
C878 H892 0.960 . S
C879 C876 1.511 . S
C879 H893 0.961 . S
C879 H894 0.961 . S
C879 H895 0.961 . S
C880 C881 1.370 . S
C880 C882 1.363 . S
C880 H896 0.931 . S
C881 C880 1.370 . S
C881 C885 1.408 . S
C882 C880 1.363 . S
C882 C883 1.370 . S
C882 C886 1.524 . S
C883 C875 1.503 . S
C883 C882 1.370 . S
C883 C884 1.403 . S
C884 C883 1.403 . S
C884 C885 1.404 . S
C884 C887 1.539 . S
C885 C881 1.408 . S
C885 C884 1.404 . S
C885 H897 0.930 . S
C886 C882 1.524 . S
C886 H898 0.956 . S
C886 H899 0.961 . S
C886 H900 0.961 . S
C887 C884 1.539 . S
C887 H901 0.958 . S
C887 H902 0.961 . S
C887 H903 0.960 . S
H888 C872 0.931 . S
H889 C877 0.929 . S
H890 C878 0.960 . S
H891 C878 0.962 . S
H892 C878 0.960 . S
H893 C879 0.961 . S
H894 C879 0.961 . S
H895 C879 0.961 . S
H896 C880 0.931 . S
H897 C885 0.930 . S
H898 C886 0.956 . S
H899 C886 0.961 . S
H900 C886 0.961 . S
H901 C887 0.958 . S
H902 C887 0.961 . S
H903 C887 0.960 . S
C904 C905 1.391 . S
C904 C906 1.394 . S
C904 H920 0.931 . S
C905 C904 1.391 . S
C905 C909 1.376 . S
C906 C904 1.394 . S
C906 C907 1.369 . S
C906 C910 1.531 . S
C907 C906 1.369 . S
C907 C908 1.410 . S
C907 C915 1.503 . S
C908 C907 1.410 . S
C908 C909 1.392 . S
C908 C911 1.511 . S
C909 C905 1.376 . S
C909 C908 1.392 . S
C909 H921 0.929 . S
C910 C906 1.531 . S
C910 H922 0.960 . S
C910 H923 0.962 . S
C910 H924 0.960 . S
C911 C908 1.511 . S
C911 H925 0.961 . S
C911 H926 0.961 . S
C911 H927 0.961 . S
C912 C913 1.370 . S
C912 C914 1.363 . S
C912 H928 0.931 . S
C913 C912 1.370 . S
C913 C917 1.408 . S
C914 C912 1.363 . S
C914 C915 1.370 . S
C914 C918 1.524 . S
C915 C907 1.503 . S
C915 C914 1.370 . S
C915 C916 1.403 . S
C916 C915 1.403 . S
C916 C917 1.404 . S
C916 C919 1.539 . S
C917 C913 1.408 . S
C917 C916 1.404 . S
C917 H929 0.930 . S
C918 C914 1.524 . S
C918 H930 0.956 . S
C918 H931 0.961 . S
C918 H932 0.961 . S
C919 C916 1.539 . S
C919 H933 0.958 . S
C919 H934 0.961 . S
C919 H935 0.960 . S
H920 C904 0.931 . S
H921 C909 0.929 . S
H922 C910 0.960 . S
H923 C910 0.962 . S
H924 C910 0.960 . S
H925 C911 0.961 . S
H926 C911 0.961 . S
H927 C911 0.961 . S
H928 C912 0.931 . S
H929 C917 0.930 . S
H930 C918 0.956 . S
H931 C918 0.961 . S
H932 C918 0.961 . S
H933 C919 0.958 . S
H934 C919 0.961 . S
H935 C919 0.960 . S
C936 C937 1.391 . S
C936 C938 1.394 . S
C936 H952 0.931 . S
C937 C936 1.391 . S
C937 C941 1.376 . S
C938 C936 1.394 . S
C938 C939 1.369 . S
C938 C942 1.531 . S
C939 C938 1.369 . S
C939 C940 1.410 . S
C939 C947 1.503 . S
C940 C939 1.410 . S
C940 C941 1.392 . S
C940 C943 1.511 . S
C941 C937 1.376 . S
C941 C940 1.392 . S
C941 H953 0.929 . S
C942 C938 1.531 . S
C942 H954 0.960 . S
C942 H955 0.962 . S
C942 H956 0.960 . S
C943 C940 1.511 . S
C943 H957 0.961 . S
C943 H958 0.961 . S
C943 H959 0.961 . S
C944 C945 1.370 . S
C944 C946 1.363 . S
C944 H960 0.931 . S
C945 C944 1.370 . S
C945 C949 1.408 . S
C946 C944 1.363 . S
C946 C947 1.370 . S
C946 C950 1.524 . S
C947 C939 1.503 . S
C947 C946 1.370 . S
C947 C948 1.403 . S
C948 C947 1.403 . S
C948 C949 1.404 . S
C948 C951 1.539 . S
C949 C945 1.408 . S
C949 C948 1.404 . S
C949 H961 0.930 . S
C950 C946 1.524 . S
C950 H962 0.956 . S
C950 H963 0.961 . S
C950 H964 0.961 . S
C951 C948 1.539 . S
C951 H965 0.958 . S
C951 H966 0.961 . S
C951 H967 0.960 . S
H952 C936 0.931 . S
H953 C941 0.929 . S
H954 C942 0.960 . S
H955 C942 0.962 . S
H956 C942 0.960 . S
H957 C943 0.961 . S
H958 C943 0.961 . S
H959 C943 0.961 . S
H960 C944 0.931 . S
H961 C949 0.930 . S
H962 C950 0.956 . S
H963 C950 0.961 . S
H964 C950 0.961 . S
H965 C951 0.958 . S
H966 C951 0.961 . S
H967 C951 0.960 . S
C968 C969 1.391 . S
C968 C970 1.394 . S
C968 H984 0.931 . S
C969 C968 1.391 . S
C969 C973 1.376 . S
C970 C968 1.394 . S
C970 C971 1.369 . S
C970 C974 1.531 . S
C971 C970 1.369 . S
C971 C972 1.410 . S
C971 C979 1.503 . S
C972 C971 1.410 . S
C972 C973 1.392 . S
C972 C975 1.511 . S
C973 C969 1.376 . S
C973 C972 1.392 . S
C973 H985 0.929 . S
C974 C970 1.531 . S
C974 H986 0.960 . S
C974 H987 0.962 . S
C974 H988 0.960 . S
C975 C972 1.511 . S
C975 H989 0.961 . S
C975 H990 0.961 . S
C975 H991 0.961 . S
C976 C977 1.370 . S
C976 C978 1.363 . S
C976 H992 0.931 . S
C977 C976 1.370 . S
C977 C981 1.408 . S
C978 C976 1.363 . S
C978 C979 1.370 . S
C978 C982 1.524 . S
C979 C971 1.503 . S
C979 C978 1.370 . S
C979 C980 1.403 . S
C980 C979 1.403 . S
C980 C981 1.404 . S
C980 C983 1.539 . S
C981 C977 1.408 . S
C981 C980 1.404 . S
C981 H993 0.930 . S
C982 C978 1.524 . S
C982 H994 0.956 . S
C982 H995 0.961 . S
C982 H996 0.961 . S
C983 C980 1.539 . S
C983 H997 0.958 . S
C983 H998 0.961 . S
C983 H999 0.960 . S
H984 C968 0.931 . S
H985 C973 0.929 . S
H986 C974 0.960 . S
H987 C974 0.962 . S
H988 C974 0.960 . S
H989 C975 0.961 . S
H990 C975 0.961 . S
H991 C975 0.961 . S
H992 C976 0.931 . S
H993 C981 0.930 . S
H994 C982 0.956 . S
H995 C982 0.961 . S
H996 C982 0.961 . S
H997 C983 0.958 . S
H998 C983 0.961 . S
H999 C983 0.960 . S
C233 C51 1.495 . S
C241 C108 1.495 . S
C265 C56 1.495 . S
C273 C173 1.499 . S
C297 C53 1.495 1_655 S
C305 C110 1.499 1_655 S
C329 C170 1.495 . S
C337 C55 1.495 . S
C361 C50 1.495 1_655 S
C369 C109 1.503 1_655 S
C393 C57 1.495 . S
C401 C172 1.499 . S
C425 C111 1.495 . S
C433 C52 1.499 . S
C457 C171 1.495 . S
C465 C54 1.503 . S
C489 C220 1.495 1_556 S
C497 C47 1.495 1_556 S
C521 C223 1.495 . S
C529 C48 1.499 . S
C553 C222 1.495 1_556 S
C561 C49 1.499 1_556 S
C585 C46 1.495 . S
C593 C221 1.503 . S
C617 C231 1.495 . S
C625 C114 1.503 . S
C649 C113 1.495 . S
C657 C228 1.499 . S
C681 C115 1.495 . S
C689 C230 1.495 . S
C713 C229 1.495 . S
C721 C112 1.499 . S
C745 C162 1.495 . S
C753 C105 1.499 . S
C777 C106 1.495 . S
C785 C165 1.495 . S
C809 C107 1.495 . S
C817 C164 1.503 . S
C841 C163 1.495 . S
C849 C104 1.499 . S
C873 C224 1.495 . S
C881 C167 1.499 . S
C905 C169 1.495 . S
C913 C226 1.503 . S
C937 C225 1.495 . S
C945 C166 1.499 . S
C969 C168 1.495 . S
C977 C227 1.495 . S
