# Generated by pormake.
# Topology afw, (4)-cn, num edge types: 1
# Building blocks:
#     Node 0, Type 0, BuildingBlock: UXUYUI_clean_sbu_0, # of connection points: 4
#     Node 1, Type 0, BuildingBlock: UXUYUI_clean_sbu_0, # of connection points: 4
#     Node 2, Type 0, BuildingBlock: UXUYUI_clean_sbu_0, # of connection points: 4
#     Node 3, Type 0, BuildingBlock: UXUYUI_clean_sbu_0, # of connection points: 4
#     Node 4, Type 0, BuildingBlock: UXUYUI_clean_sbu_0, # of connection points: 4
#     Node 5, Type 0, BuildingBlock: UXUYUI_clean_sbu_0, # of connection points: 4
#     Node 6, Type 0, BuildingBlock: UXUYUI_clean_sbu_0, # of connection points: 4
#     Node 7, Type 0, BuildingBlock: UXUYUI_clean_sbu_0, # of connection points: 4
#     Node 8, Type 0, BuildingBlock: UXUYUI_clean_sbu_0, # of connection points: 4
#     Edge 9, Type (0, 0), BuildingBlock: TEMPAE_clean_linker_10, # of connection points: 2
#     Edge 10, Type (0, 0), BuildingBlock: TEMPAE_clean_linker_10, # of connection points: 2
#     Edge 11, Type (0, 0), BuildingBlock: TEMPAE_clean_linker_10, # of connection points: 2
#     Edge 12, Type (0, 0), BuildingBlock: TEMPAE_clean_linker_10, # of connection points: 2
#     Edge 13, Type (0, 0), BuildingBlock: TEMPAE_clean_linker_10, # of connection points: 2
#     Edge 14, Type (0, 0), BuildingBlock: TEMPAE_clean_linker_10, # of connection points: 2
#     Edge 15, Type (0, 0), BuildingBlock: TEMPAE_clean_linker_10, # of connection points: 2
#     Edge 16, Type (0, 0), BuildingBlock: TEMPAE_clean_linker_10, # of connection points: 2
#     Edge 17, Type (0, 0), BuildingBlock: TEMPAE_clean_linker_10, # of connection points: 2
#     Edge 18, Type (0, 0), BuildingBlock: TEMPAE_clean_linker_10, # of connection points: 2
#     Edge 19, Type (0, 0), BuildingBlock: TEMPAE_clean_linker_10, # of connection points: 2
#     Edge 20, Type (0, 0), BuildingBlock: TEMPAE_clean_linker_10, # of connection points: 2
#     Edge 21, Type (0, 0), BuildingBlock: TEMPAE_clean_linker_10, # of connection points: 2
#     Edge 22, Type (0, 0), BuildingBlock: TEMPAE_clean_linker_10, # of connection points: 2
#     Edge 23, Type (0, 0), BuildingBlock: TEMPAE_clean_linker_10, # of connection points: 2
#     Edge 24, Type (0, 0), BuildingBlock: TEMPAE_clean_linker_10, # of connection points: 2
#     Edge 25, Type (0, 0), BuildingBlock: TEMPAE_clean_linker_10, # of connection points: 2
#     Edge 26, Type (0, 0), BuildingBlock: TEMPAE_clean_linker_10, # of connection points: 2
# Relax obj value: 0.350
# Max RMSD: 0.270
# Mean RMSD: 0.270
data_MOF--net-afw--node1-UXUYUI_clean_sbu_0--edge1-TEMPAE_clean_linker_10
_symmetry_space_group_name_H-M    P1
_symmetry_Int_Tables_number       1
_symmetry_cell_setting            triclinic
loop_
_symmetry_equiv_pos_as_xyz
'x, y, z'
_cell_length_a     57.84683
_cell_length_b     57.88951
_cell_length_c     54.347478
_cell_angle_alpha  90.00643
_cell_angle_beta   90.037453
_cell_angle_gamma 120.02426
loop_
_atom_site_label
_atom_site_type_symbol
_atom_site_fract_x
_atom_site_fract_y
_atom_site_fract_z
_atom_type_partial_charge
Li0 Li 0.01662 0.23731 0.02483 0.0
Li1 Li 0.99243 0.19752 2e-05 0.0
Li2 Li 0.04173 0.22128 0.00133 0.0
Li3 Li 0.01798 0.23937 0.98017 0.0
C4 C 0.00102 0.18711 0.04783 0.0
N5 N 0.97029 0.15447 0.08581 0.0
C6 C 0.97915 0.18871 0.05658 0.0
C7 C 0.00728 0.16893 0.05843 0.0
C8 C 0.96386 0.17205 0.07579 0.0
C9 C 0.9915 0.15259 0.07761 0.0
C10 C 0.96037 0.21967 -2e-05 0.0
C11 C 0.91867 0.19576 0.97798 0.0
N12 N 0.90617 0.20096 -0.00345 0.0
C13 C 0.9471 0.22475 0.01886 0.0
C14 C 0.94606 0.20505 0.97938 0.0
C15 C 0.9197 0.21513 0.01677 0.0
C16 C 0.01178 0.27623 0.04974 0.0
N17 N 0.01667 0.25585 0.05327 0.0
C18 C 0.01934 0.2625 0.09669 0.0
C19 C 0.02122 0.24926 0.07605 0.0
C20 C 0.01333 0.28299 0.09363 0.0
C21 C 0.01009 0.29026 0.06982 0.0
H22 H 0.0086 0.28113 0.0313 0.0
H23 H 0.02582 0.23344 0.07824 0.0
C24 C 0.96668 0.14498 0.98509 0.0
N25 N 0.96244 0.16243 -0.00169 0.0
C26 C 0.94703 0.1182 0.98374 0.0
C27 C 0.91868 0.12776 0.00938 0.0
C28 C 0.93903 0.15439 0.01041 0.0
C29 C 0.92279 0.10929 -0.00381 0.0
H30 H 0.98563 0.15181 0.97599 0.0
H31 H 0.93624 0.16844 0.02125 0.0
C32 C 0.07016 0.27267 0.01884 0.0
N33 N 0.11297 0.30142 0.05007 0.0
C34 C 0.08771 0.29982 0.01467 0.0
C35 C 0.07439 0.26022 0.03902 0.0
C36 C 0.10924 0.31398 0.03063 0.0
C37 C 0.09614 0.27507 0.05455 0.0
C38 C 0.02257 0.2081 0.94815 0.0
C39 C 0.04815 0.22567 0.93927 0.0
C40 C 0.00177 0.19336 0.93163 0.0
C41 C 0.05245 0.22842 0.91388 0.0
C42 C 0.0069 0.19665 0.90638 0.0
N43 N 0.03191 0.21399 0.8981 0.0
C44 C 0.06514 0.19031 0.0065 0.0
C45 C 0.09639 0.23481 -0.00484 0.0
C46 C 0.0851 0.18356 0.00665 0.0
N47 N 0.0711 0.21554 0.00093 0.0
C48 C 0.11708 0.22895 -0.00485 0.0
C49 C 0.11145 0.20297 0.00084 0.0
H50 H 0.04476 0.17539 0.01072 0.0
H51 H 0.10046 0.25465 0.99045 0.0
C52 C -0.0003 0.25053 0.93556 0.0
N53 N 0.0194 0.26025 0.95277 0.0
C54 C 0.00148 0.2659 0.91515 0.0
C55 C 0.04351 0.30126 0.93086 0.0
C56 C 0.04098 0.2851 0.95085 0.0
C57 C 0.02368 0.29159 0.91257 0.0
H58 H 0.98287 0.23065 0.93733 0.0
H59 H 0.05634 0.29229 0.96478 0.0
O60 O 0.0161 0.203 0.02881 0.0
O61 O 0.9872 0.22895 0.00179 0.0
O62 O 0.04882 0.25867 0.00342 0.0
O63 O 0.01783 0.20564 0.9729 0.0
H64 H 0.97401 0.20265 0.0486 0.0
H65 H 0.02417 0.16746 0.05193 0.0
H66 H 0.94686 0.17308 0.08269 0.0
H67 H 0.99611 0.13842 0.08597 0.0
H68 H 0.90731 0.18422 0.96223 0.0
H69 H 0.95783 0.23594 0.03499 0.0
H70 H 0.95577 0.20013 0.96502 0.0
H71 H 0.90918 0.21889 0.03125 0.0
H72 H 0.02218 0.25661 0.11485 0.0
H73 H 0.00524 0.30586 0.06685 0.0
H74 H 0.95086 0.10451 0.97332 0.0
H75 H 0.90034 0.12149 0.01947 0.0
H76 H 0.08474 0.30993 -0.00068 0.0
H77 H 0.06115 0.23931 0.04274 0.0
H78 H 0.12295 0.33499 0.02758 0.0
H79 H 0.09962 0.26564 0.07018 0.0
H80 H 0.0644 0.23733 0.95185 0.0
H81 H 0.98183 0.17976 0.93825 0.0
H82 H 0.0721 0.24209 0.90673 0.0
H83 H 0.99097 0.1855 0.89336 0.0
H84 H 0.07997 0.16338 0.01141 0.0
H85 H 0.1371 0.24438 0.99034 0.0
H86 H 0.98596 0.25749 0.90128 0.0
H87 H 0.06081 0.32108 0.92974 0.0
Li88 Li 0.82365 0.79896 0.00142 0.0
Li89 Li 0.78265 0.78444 0.02334 0.0
Li90 Li 0.78463 0.78558 0.9788 0.0
Li91 Li 0.80252 0.82657 0.00172 0.0
C92 C 0.80341 0.74813 0.0062 0.0
N93 N 0.8292 0.72 0.01683 0.0
C94 C 0.80562 0.74168 0.03054 0.0
C95 C 0.81412 0.74005 0.98724 0.0
C96 C 0.81876 0.72749 0.03554 0.0
C97 C 0.82715 0.72592 0.99299 0.0
C98 C 0.84114 0.83752 0.03818 0.0
C99 C 0.87174 0.86302 0.07074 0.0
N100 N 0.88951 0.87959 0.0537 0.0
C101 C 0.85975 0.85486 0.02099 0.0
C102 C 0.84721 0.84165 0.06327 0.0
C103 C 0.88407 0.87597 0.02921 0.0
C104 C 0.87277 0.80693 0.98256 0.0
N105 N 0.85745 0.80088 0.0031 0.0
C106 C 0.89338 0.80536 0.02819 0.0
C107 C 0.86692 0.79924 0.02555 0.0
C108 C 0.91 0.8129 0.00744 0.0
C109 C 0.89922 0.81282 0.98429 0.0
H110 H 0.86497 0.80854 0.96503 0.0
H111 H 0.85431 0.79453 0.04161 0.0
C112 C 0.73531 0.74756 0.04659 0.0
N113 N 0.76139 0.76593 0.05042 0.0
C114 C 0.71931 0.73266 0.06624 0.0
C115 C 0.75734 0.7564 0.0933 0.0
C116 C 0.77252 0.77089 0.07316 0.0
C117 C 0.73045 0.73674 0.08992 0.0
H118 H 0.72709 0.74427 0.02819 0.0
H119 H 0.79337 0.78552 0.07549 0.0
C120 C 0.82166 0.81987 0.94863 0.0
N121 N 0.82503 0.82166 0.89784 0.0
C122 C 0.82353 0.84167 0.93581 0.0
C123 C 0.82214 0.79929 0.9356 0.0
C124 C 0.82508 0.84215 0.91014 0.0
C125 C 0.82364 0.80045 0.90995 0.0
C126 C 0.74948 0.80504 0.01293 0.0
C127 C 0.72532 0.80033 0.00274 0.0
C128 C 0.75748 0.81743 0.03591 0.0
C129 C 0.70948 0.80805 0.01577 0.0
C130 C 0.74108 0.82486 0.04835 0.0
N131 N 0.71762 0.82005 0.03811 0.0
C132 C 0.7592 0.74417 0.94351 0.0
C133 C 0.75498 0.78257 0.93791 0.0
C134 C 0.74377 0.7323 0.92259 0.0
N135 N 0.76445 0.76884 0.95059 0.0
C136 C 0.7395 0.77149 0.91696 0.0
C137 C 0.7336 0.74599 0.90916 0.0
H138 H 0.76686 0.7337 0.95419 0.0
H139 H 0.75956 0.80216 0.94414 0.0
C140 C 0.81662 0.87753 0.02185 0.0
N141 N 0.8058 0.86098 0.00222 0.0
C142 C 0.82058 0.9033 0.02114 0.0
C143 C 0.79987 0.89379 0.98097 0.0
C144 C 0.79644 0.86818 0.98244 0.0
C145 C 0.81278 0.91199 0.00023 0.0
H146 H 0.82259 0.87101 0.03799 0.0
H147 H 0.78669 0.85412 0.96762 0.0
O148 O 0.79113 0.76254 0.001 0.0
O149 O 0.81739 0.81621 0.03067 0.0
O150 O 0.81982 0.81893 0.97379 0.0
O151 O 0.7652 0.79767 0.00025 0.0
H152 H 0.79756 0.74781 0.04546 0.0
H153 H 0.81254 0.74474 0.96829 0.0
H154 H 0.82075 0.72252 0.05432 0.0
H155 H 0.83565 0.71968 0.97851 0.0
H156 H 0.87667 0.86642 0.0901 0.0
H157 H 0.85561 0.85213 0.00151 0.0
H158 H 0.83315 0.82846 0.07686 0.0
H159 H 0.89863 0.88948 0.0161 0.0
H160 H 0.90106 0.80523 0.04634 0.0
H161 H 0.91157 0.81895 0.96794 0.0
H162 H 0.69863 0.71784 0.06291 0.0
H163 H 0.76689 0.75982 0.11113 0.0
H164 H 0.82411 0.85822 0.94553 0.0
H165 H 0.82093 0.78239 0.9452 0.0
H166 H 0.82642 0.85886 0.9 0.0
H167 H 0.82366 0.78446 0.89966 0.0
H168 H 0.71891 0.79081 0.98494 0.0
H169 H 0.77614 0.82133 0.04407 0.0
H170 H 0.69072 0.80452 0.00811 0.0
H171 H 0.74701 0.83446 0.06614 0.0
H172 H 0.73944 0.71251 0.91723 0.0
H173 H 0.73235 0.78283 0.90689 0.0
H174 H 0.83067 0.91657 0.03643 0.0
H175 H 0.79296 0.89944 0.96477 0.0
Li176 Li 0.2288 0.04036 0.00286 0.0
Li177 Li 0.24041 0.0108 0.02463 0.0
Li178 Li 0.24074 0.01268 0.98023 0.0
Li179 Li 0.19892 0.99208 0.00311 0.0
C180 C 0.2802 0.06778 0.00731 0.0
N181 N 0.31205 0.12172 0.01646 0.0
C182 C 0.28967 0.07678 0.03108 0.0
C183 C 0.28699 0.0862 0.98817 0.0
C184 C 0.30575 0.10414 0.03532 0.0
C185 C 0.30308 0.11339 0.99318 0.0
C186 C 0.18741 0.00895 0.04379 0.0
C187 C 0.1515 0.97676 0.06916 0.0
N188 N 0.13892 0.99119 0.06702 0.0
C189 C 0.17416 0.0235 0.04188 0.0
C190 C 0.17606 0.98544 0.05762 0.0
C191 C 0.14966 0.01419 0.05376 0.0
C192 C 0.2221 0.08148 0.98331 0.0
N193 N 0.22941 0.0734 0.00387 0.0
C194 C 0.23176 0.10962 0.02696 0.0
C195 C 0.23477 0.08719 0.02535 0.0
C196 C 0.22314 0.11778 0.00625 0.0
C197 C 0.21897 0.10381 0.98405 0.0
H198 H 0.2175 0.06989 0.96663 0.0
H199 H 0.24025 0.08007 0.04149 0.0
C200 C 0.28291 0.00997 0.04815 0.0
N201 N 0.25871 0.00783 0.05203 0.0
C202 C 0.29808 0.0098 0.06799 0.0
C203 C 0.263 0.00504 0.09539 0.0
C204 C 0.24845 0.00516 0.07499 0.0
C205 C 0.28836 0.00783 0.09203 0.0
H206 H 0.29066 0.01246 0.02964 0.0
H207 H 0.22941 0.00404 0.07753 0.0
C208 C 0.20578 0.01352 0.95026 0.0
N209 N 0.2003 0.00541 0.89998 0.0
C210 C 0.18544 0.98942 0.94073 0.0
C211 C 0.22324 0.03354 0.93419 0.0
C212 C 0.18301 0.98572 0.91525 0.0
C213 C 0.22018 0.02903 0.90884 0.0
C214 C 0.23453 0.96482 0.01078 0.0
C215 C 0.25679 0.9651 0.00043 0.0
C216 C 0.22235 0.94914 0.03153 0.0
C217 C 0.2666 0.94978 0.01115 0.0
C218 C 0.2328 0.93414 0.04173 0.0
N219 N 0.25452 0.93477 0.03142 0.0
C220 C 0.28223 0.02916 0.94514 0.0
C221 C 0.24423 0.98641 0.93885 0.0
C222 C 0.29441 0.02623 0.92415 0.0
N223 N 0.25756 0.00942 0.95188 0.0
C224 C 0.25555 0.98268 0.91773 0.0
C225 C 0.28102 0.00271 0.91019 0.0
H226 H 0.2925 0.04706 0.95613 0.0
H227 H 0.22473 0.97099 0.9449 0.0
C228 C 0.14408 0.97266 -5e-05 0.0
N229 N 0.16256 0.96496 0.00284 0.0
C230 C 0.11697 0.9538 0.00043 0.0
C231 C 0.12839 0.91924 0.00576 0.0
C232 C 0.15536 0.93887 0.00548 0.0
C233 C 0.10876 0.92663 0.00334 0.0
H234 H 0.15047 0.99355 -0.00247 0.0
H235 H 0.17053 0.93329 0.00728 0.0
O236 O 0.26401 0.04113 0.00285 0.0
O237 O 0.21122 0.0175 0.03198 0.0
O238 O 0.20877 0.01736 0.97516 0.0
O239 O 0.22489 0.98003 0.0008 0.0
H240 H 0.28446 0.06285 0.04615 0.0
H241 H 0.27958 0.0796 0.96972 0.0
H242 H 0.31315 0.1114 0.05364 0.0
H243 H 0.30835 0.12788 0.97859 0.0
H244 H 0.14239 0.9585 0.07976 0.0
H245 H 0.18247 0.0416 0.0311 0.0
H246 H 0.1859 0.97379 0.05912 0.0
H247 H 0.13913 0.02519 0.05235 0.0
H248 H 0.23519 0.11989 0.04441 0.0
H249 H 0.21177 0.10906 0.96779 0.0
H250 H 0.31748 0.01188 0.06461 0.0
H251 H 0.25502 0.00406 0.11362 0.0
H252 H 0.17182 0.97365 0.95284 0.0
H253 H 0.2393 0.05219 0.94124 0.0
H254 H 0.16743 0.96713 0.90763 0.0
H255 H 0.23369 0.04426 0.89622 0.0
H256 H 0.26658 0.97723 0.98446 0.0
H257 H 0.20522 0.94882 0.03986 0.0
H258 H 0.28388 0.9499 0.0034 0.0
H259 H 0.22368 0.92206 0.05789 0.0
H260 H 0.3142 0.04199 0.91911 0.0
H261 H 0.24437 0.96441 0.90731 0.0
H262 H 0.10262 0.96055 -0.00113 0.0
H263 H 0.12302 0.89852 0.0076 0.0
Li264 Li 0.65424 0.53467 0.33105 0.0
Li265 Li 0.67451 0.57667 0.35241 0.0
Li266 Li 0.67932 0.57585 0.30829 0.0
Li267 Li 0.7027 0.56251 0.33655 0.0
C268 C 0.62461 0.55538 0.31189 0.0
N269 N 0.58142 0.53897 0.28072 0.0
C270 C 0.60407 0.56043 0.31788 0.0
C271 C 0.62318 0.54195 0.29004 0.0
C272 C 0.5824 0.55198 0.30188 0.0
C273 C 0.60118 0.53383 0.27453 0.0
C274 C 0.67337 0.54478 0.38711 0.0
C275 C 0.69167 0.56647 0.42599 0.0
N276 N 0.66927 0.5477 0.43759 0.0
C277 C 0.65074 0.52547 0.39949 0.0
C278 C 0.69419 0.5652 0.40054 0.0
C279 C 0.64898 0.52737 0.42498 0.0
C280 C 0.6206 0.48324 0.31019 0.0
N281 N 0.62328 0.50008 0.32882 0.0
C282 C 0.58131 0.46756 0.34577 0.0
C283 C 0.6037 0.49315 0.34585 0.0
C284 C 0.57895 0.44914 0.32769 0.0
C285 C 0.59869 0.45751 0.30942 0.0
H286 H 0.63553 0.48954 0.29597 0.0
H287 H 0.60558 0.50748 0.35961 0.0
C288 C 0.6886 0.6183 0.38678 0.0
N289 N 0.66844 0.59496 0.37779 0.0
C290 C 0.68396 0.63075 0.40659 0.0
C291 C 0.63774 0.59535 0.4067 0.0
C292 C 0.64333 0.58349 0.38707 0.0
C293 C 0.65828 0.61913 0.41681 0.0
H294 H 0.70832 0.62694 0.37885 0.0
H295 H 0.62781 0.56485 0.37947 0.0
C296 C 0.68735 0.52309 0.3013 0.0
N297 N 0.69738 0.48188 0.29238 0.0
C298 C 0.685 0.50569 0.32028 0.0
C299 C 0.69491 0.51952 0.27782 0.0
C300 C 0.69013 0.485 0.31539 0.0
C301 C 0.69984 0.49856 0.27367 0.0
C302 C 0.73388 0.61368 0.32955 0.0
C303 C 0.74459 0.62117 0.30591 0.0
C304 C 0.75103 0.62143 0.34985 0.0
C305 C 0.77227 0.63598 0.30295 0.0
C306 C 0.7786 0.6362 0.34613 0.0
N307 N 0.78857 0.64309 0.32295 0.0
C308 C 0.67207 0.61152 0.2797 0.0
C309 C 0.68726 0.58634 0.25751 0.0
C310 C 0.6723 0.62499 0.25838 0.0
N311 N 0.6797 0.59284 0.27883 0.0
C312 C 0.68796 0.59942 0.23577 0.0
C313 C 0.68065 0.61919 0.23615 0.0
H314 H 0.66607 0.61608 0.29704 0.0
H315 H 0.6931 0.57131 0.25749 0.0
C316 C 0.73881 0.55156 0.36208 0.0
N317 N 0.73429 0.56053 0.34054 0.0
C318 C 0.75961 0.54606 0.36395 0.0
C319 C 0.7712 0.55987 0.32161 0.0
C320 C 0.75019 0.56514 0.32059 0.0
C321 C 0.77564 0.54951 0.34332 0.0
H322 H 0.72554 0.54744 0.37747 0.0
H323 H 0.74569 0.57163 0.3035 0.0
O324 O 0.64586 0.56348 0.3275 0.0
O325 O 0.67527 0.54357 0.36205 0.0
O326 O 0.68328 0.54409 0.30579 0.0
O327 O 0.7068 0.59881 0.33279 0.0
H328 H 0.60488 0.57077 0.33475 0.0
H329 H 0.63884 0.5378 0.28509 0.0
H330 H 0.56635 0.55577 0.30629 0.0
H331 H 0.59982 0.52343 0.25758 0.0
H332 H 0.7075 0.5824 0.43651 0.0
H333 H 0.6348 0.50904 0.38963 0.0
H334 H 0.71195 0.58016 0.39133 0.0
H335 H 0.63149 0.51262 0.43475 0.0
H336 H 0.56623 0.46214 0.35985 0.0
H337 H 0.59779 0.44405 0.29513 0.0
H338 H 0.70022 0.64915 0.41389 0.0
H339 H 0.61778 0.58564 0.41436 0.0
H340 H 0.67929 0.50806 0.33861 0.0
H341 H 0.69707 0.53285 0.26294 0.0
H342 H 0.68839 0.47143 0.3299 0.0
H343 H 0.70571 0.49559 0.25557 0.0
H344 H 0.73175 0.61545 0.28997 0.0
H345 H 0.74321 0.61599 0.36829 0.0
H346 H 0.7808 0.64176 0.28475 0.0
H347 H 0.79208 0.64216 0.36167 0.0
H348 H 0.6668 0.64032 0.2594 0.0
H349 H 0.69432 0.59431 0.2189 0.0
H350 H 0.76246 0.53818 0.38104 0.0
H351 H 0.78278 0.56235 0.30517 0.0
Li352 Li 0.49378 0.13734 0.33253 0.0
Li353 Li 0.45332 0.12281 0.35687 0.0
Li354 Li 0.45121 0.12142 0.31101 0.0
Li355 Li 0.46956 0.16344 0.33372 0.0
C356 C 0.46856 0.08221 0.3295 0.0
N357 N 0.4829 0.04401 0.32079 0.0
C358 C 0.46799 0.06577 0.34861 0.0
C359 C 0.47601 0.07891 0.30589 0.0
C360 C 0.47542 0.04666 0.34386 0.0
C361 C 0.4833 0.05958 0.30187 0.0
C362 C 0.49347 0.15872 0.38524 0.0
C363 C 0.4861 0.17054 0.42587 0.0
N364 N 0.5035 0.1635 0.43525 0.0
C365 C 0.51152 0.1519 0.39524 0.0
C366 C 0.48088 0.16841 0.40062 0.0
C367 C 0.51624 0.15435 0.42058 0.0
C368 C 0.54673 0.16357 0.31859 0.0
N369 N 0.5284 0.14142 0.33072 0.0
C370 C 0.56165 0.12997 0.34091 0.0
C371 C 0.53527 0.12463 0.3418 0.0
C372 C 0.581 0.15279 0.32852 0.0
C373 C 0.57318 0.16958 0.31711 0.0
H374 H 0.54088 0.17694 0.31051 0.0
H375 H 0.52054 0.10757 0.35196 0.0
C376 C 0.40998 0.0996 0.38986 0.0
N377 N 0.43535 0.10486 0.38584 0.0
C378 C 0.39622 0.08578 0.41091 0.0
C379 C 0.43502 0.08309 0.42316 0.0
C380 C 0.44793 0.09682 0.40187 0.0
C381 C 0.40879 0.07734 0.42784 0.0
H382 H 0.40028 0.1058 0.37658 0.0
H383 H 0.46786 0.10072 0.39792 0.0
C384 C 0.49196 0.15967 0.28099 0.0
N385 N 0.50551 0.16961 0.23181 0.0
C386 C 0.48791 0.17828 0.26816 0.0
C387 C 0.50343 0.14654 0.26891 0.0
C388 C 0.49473 0.1829 0.24327 0.0
C389 C 0.51001 0.15173 0.24402 0.0
C390 C 0.41656 0.14395 0.33518 0.0
C391 C 0.40097 0.14203 0.31477 0.0
C392 C 0.41571 0.15736 0.35624 0.0
C393 C 0.38517 0.154 0.31561 0.0
C394 C 0.39968 0.1691 0.35637 0.0
N395 N 0.38489 0.16722 0.3362 0.0
C396 C 0.41869 0.07534 0.2829 0.0
C397 C 0.42745 0.1162 0.26481 0.0
C398 C 0.40286 0.06104 0.26288 0.0
N399 N 0.43073 0.1024 0.28337 0.0
C400 C 0.41175 0.10277 0.24454 0.0
C401 C 0.39913 0.07483 0.24348 0.0
H402 H 0.42105 0.06481 0.29824 0.0
H403 H 0.43648 0.1376 0.26603 0.0
C404 C 0.49484 0.21615 0.34909 0.0
N405 N 0.4753 0.19869 0.33381 0.0
C406 C 0.50181 0.24291 0.34935 0.0
C407 C 0.46806 0.23325 0.31845 0.0
C408 C 0.46185 0.20662 0.31865 0.0
C409 C 0.48858 0.25178 0.33367 0.0
H410 H 0.50548 0.20942 0.36068 0.0
H411 H 0.44682 0.19247 0.30626 0.0
O412 O 0.46149 0.10114 0.33387 0.0
O413 O 0.48845 0.15626 0.36048 0.0
O414 O 0.48545 0.15497 0.30541 0.0
O415 O 0.43229 0.1325 0.33464 0.0
H416 H 0.46196 0.06779 0.36693 0.0
H417 H 0.47587 0.09093 0.29077 0.0
H418 H 0.47523 0.03392 0.35852 0.0
H419 H 0.48918 0.05688 0.28369 0.0
H420 H 0.47636 0.17786 0.43799 0.0
H421 H 0.52161 0.14457 0.38362 0.0
H422 H 0.46726 0.17425 0.39315 0.0
H423 H 0.53 0.14895 0.42859 0.0
H424 H 0.56693 0.11663 0.35007 0.0
H425 H 0.58757 0.18774 0.30792 0.0
H426 H 0.376 0.08168 0.41388 0.0
H427 H 0.44519 0.07639 0.4355 0.0
H428 H 0.47936 0.18887 0.27725 0.0
H429 H 0.50755 0.13276 0.2787 0.0
H430 H 0.49146 0.19707 0.23308 0.0
H431 H 0.51882 0.14163 0.23445 0.0
H432 H 0.40105 0.13142 0.29845 0.0
H433 H 0.42732 0.15872 0.3723 0.0
H434 H 0.37312 0.15277 0.2999 0.0
H435 H 0.39898 0.17968 0.3725 0.0
H436 H 0.39312 0.03947 0.26285 0.0
H437 H 0.40943 0.11413 0.22987 0.0
H438 H 0.51768 0.25663 0.36143 0.0
H439 H 0.45767 0.23948 0.30588 0.0
Li440 Li 0.90948 0.35484 0.34946 0.0
Li441 Li 0.89053 0.37846 0.32793 0.0
Li442 Li 0.86683 0.32835 0.3306 0.0
Li443 Li 0.9057 0.35248 0.30405 0.0
C444 C 0.87803 0.35941 0.38202 0.0
N445 N 0.88331 0.3686 0.43216 0.0
C446 C 0.88537 0.3847 0.39128 0.0
C447 C 0.873 0.33871 0.39828 0.0
C448 C 0.88801 0.38896 0.41668 0.0
C449 C 0.8759 0.34378 0.42356 0.0
C450 C 0.94523 0.40917 0.31672 0.0
C451 C 0.96202 0.44187 0.28415 0.0
N452 N 0.98154 0.45942 0.29945 0.0
C453 C 0.96567 0.42744 0.33201 0.0
C454 C 0.94355 0.41636 0.29252 0.0
C455 C 0.98375 0.45278 0.32298 0.0
C456 C 0.93597 0.3374 0.38189 0.0
N457 N 0.93152 0.3577 0.37616 0.0
C458 C 0.95886 0.3839 0.40947 0.0
C459 C 0.94274 0.38074 0.38929 0.0
C460 C 0.96371 0.36323 0.41602 0.0
C461 C 0.95209 0.33973 0.40194 0.0
H462 H 0.92705 0.31945 0.37088 0.0
H463 H 0.93887 0.39654 0.38422 0.0
C464 C 0.85983 0.40208 0.32135 0.0
N465 N 0.88484 0.40792 0.32783 0.0
C466 C 0.853 0.42196 0.32113 0.0
C467 C 0.89774 0.4536 0.33469 0.0
C468 C 0.90373 0.43302 0.33458 0.0
C469 C 0.87207 0.44814 0.32786 0.0
H470 H 0.84509 0.38181 0.31655 0.0
H471 H 0.92325 0.43702 0.34033 0.0
C472 C 0.88692 0.29634 0.32755 0.0
N473 N 0.86283 0.24135 0.32678 0.0
C474 C 0.88623 0.28312 0.3058 0.0
C475 C 0.87567 0.2816 0.34899 0.0
C476 C 0.87389 0.2553 0.30577 0.0
C477 C 0.86347 0.25381 0.3482 0.0
C478 C 0.8631 0.35384 0.27881 0.0
C479 C 0.84438 0.33123 0.26596 0.0
C480 C 0.87294 0.37904 0.26818 0.0
C481 C 0.83641 0.33412 0.24244 0.0
C482 C 0.86445 0.38112 0.24463 0.0
N483 N 0.84655 0.3588 0.23233 0.0
C484 C 0.81712 0.29769 0.35283 0.0
C485 C 0.82234 0.27804 0.31655 0.0
C486 C 0.79058 0.2775 0.35492 0.0
N487 N 0.83225 0.29784 0.33367 0.0
C488 C 0.79582 0.25743 0.31789 0.0
C489 C 0.77942 0.25739 0.33696 0.0
H490 H 0.82538 0.31375 0.36609 0.0
H491 H 0.83474 0.2787 0.3014 0.0
C492 C 0.94991 0.36494 0.27443 0.0
N493 N 0.92278 0.35127 0.27488 0.0
C494 C 0.96357 0.36357 0.25388 0.0
C495 C 0.92109 0.33354 0.23489 0.0
C496 C 0.90827 0.33578 0.25568 0.0
C497 C 0.94914 0.34744 0.23386 0.0
H498 H 0.96098 0.37657 0.29022 0.0
H499 H 0.88679 0.32429 0.2569 0.0
O500 O 0.87577 0.35496 0.35718 0.0
O501 O 0.92728 0.3843 0.32536 0.0
O502 O 0.89872 0.32356 0.3279 0.0
O503 O 0.87087 0.35134 0.30202 0.0
H504 H 0.88923 0.40092 0.37899 0.0
H505 H 0.86708 0.31898 0.39146 0.0
H506 H 0.89386 0.40848 0.42409 0.0
H507 H 0.87228 0.32799 0.43633 0.0
H508 H 0.9609 0.44766 0.26546 0.0
H509 H 0.96755 0.42217 0.35069 0.0
H510 H 0.92846 0.40226 0.28018 0.0
H511 H -0.00044 0.46715 0.33468 0.0
H512 H 0.96703 0.40216 0.42008 0.0
H513 H 0.95556 0.32346 0.40627 0.0
H514 H 0.83278 0.41674 0.31633 0.0
H515 H 0.91297 0.47349 0.34009 0.0
H516 H 0.89507 0.29418 0.28912 0.0
H517 H 0.87616 0.2915 0.366 0.0
H518 H 0.8731 0.24481 0.28903 0.0
H519 H 0.85452 0.24216 0.36461 0.0
H520 H 0.83625 0.31161 0.27394 0.0
H521 H 0.8867 0.39689 0.27806 0.0
H522 H 0.82212 0.31673 0.23223 0.0
H523 H 0.87199 0.40051 0.2362 0.0
H524 H 0.77871 0.27802 0.37009 0.0
H525 H 0.78792 0.24245 0.30352 0.0
H526 H 0.98519 0.37474 0.25385 0.0
H527 H 0.90913 0.32025 0.22022 0.0
Li528 Li 0.34475 0.9103 0.68497 0.0
Li529 Li 0.32267 0.86759 0.66373 0.0
Li530 Li 0.37121 0.89565 0.66386 0.0
Li531 Li 0.34308 0.90805 0.64067 0.0
C532 C 0.34396 0.87619 0.71676 0.0
N533 N 0.33596 0.87396 0.76702 0.0
C534 C 0.31917 0.85782 0.7267 0.0
C535 C 0.36473 0.89331 0.7324 0.0
C536 C 0.31553 0.85701 0.75216 0.0
C537 C 0.36026 0.89192 0.75775 0.0
C538 C 0.2983 0.90528 0.65303 0.0
C539 C 0.26819 0.90361 0.62145 0.0
N540 N 0.27128 0.92717 0.62972 0.0
C541 C 0.30113 0.92944 0.66127 0.0
C542 C 0.28163 0.89219 0.63302 0.0
C543 C 0.2873 0.94018 0.64923 0.0
C544 C 0.36237 0.95235 0.72003 0.0
N545 N 0.34184 0.9285 0.71241 0.0
C546 C 0.31384 0.92849 0.7445 0.0
C547 C 0.31786 0.91657 0.72401 0.0
C548 C 0.33464 0.9531 0.75297 0.0
C549 C 0.3592 0.96508 0.7405 0.0
H550 H 0.38109 0.9615 0.71018 0.0
H551 H 0.3019 0.89767 0.71732 0.0
C552 C 0.30264 0.81344 0.66974 0.0
N553 N 0.29491 0.83166 0.66532 0.0
C554 C 0.28392 0.78634 0.66969 0.0
C555 C 0.24927 0.79727 0.66208 0.0
C556 C 0.26882 0.82428 0.66188 0.0
C557 C 0.25693 0.77802 0.6656 0.0
H558 H 0.3235 0.82003 0.67291 0.0
H559 H 0.26325 0.83929 0.65878 0.0
C560 C 0.40071 0.94671 0.65811 0.0
N561 N 0.45506 0.97629 0.64983 0.0
C562 C 0.41043 0.9554 0.63436 0.0
C563 C 0.41862 0.9531 0.67766 0.0
C564 C 0.43798 0.97035 0.63056 0.0
C565 C 0.44603 0.96804 0.67309 0.0
C566 C 0.33848 0.853 0.62426 0.0
C567 C 0.35235 0.83911 0.62679 0.0
C568 C 0.31454 0.84149 0.611 0.0
C569 C 0.34196 0.81387 0.61612 0.0
C570 C 0.30477 0.81619 0.60067 0.0
N571 N 0.31857 0.80302 0.60342 0.0
C572 C 0.4093 0.88482 0.6842 0.0
C573 C 0.41739 0.89889 0.64257 0.0
C574 C 0.43005 0.87917 0.68372 0.0
N575 N 0.40311 0.89399 0.6637 0.0
C576 C 0.43834 0.8935 0.64126 0.0
C577 C 0.4444 0.8828 0.66185 0.0
H578 H 0.39725 0.88054 0.70055 0.0
H579 H 0.41165 0.90571 0.6264 0.0
C580 C 0.347 0.95145 0.61504 0.0
N581 N 0.34111 0.92575 0.61235 0.0
C582 C 0.3475 0.96619 0.59459 0.0
C583 C 0.33524 0.92746 0.56911 0.0
C584 C 0.33504 0.91349 0.59007 0.0
C585 C 0.34201 0.95431 0.57119 0.0
H586 H 0.35202 0.96069 0.63303 0.0
H587 H 0.33067 0.89311 0.58848 0.0
O588 O 0.34775 0.87771 0.69183 0.0
O589 O 0.31214 0.89474 0.66421 0.0
O590 O 0.37383 0.9317 0.66217 0.0
O591 O 0.34806 0.87752 0.63498 0.0
H592 H 0.30282 0.84452 0.71489 0.0
H593 H 0.38396 0.90783 0.725 0.0
H594 H 0.29641 0.84298 0.7601 0.0
H595 H 0.37609 0.9052 0.77004 0.0
H596 H 0.25537 0.89379 0.60584 0.0
H597 H 0.31412 0.93998 0.67658 0.0
H598 H 0.27939 0.8736 0.62627 0.0
H599 H 0.2894 0.95893 0.65532 0.0
H600 H 0.29474 0.91837 0.75381 0.0
H601 H 0.37563 0.98415 0.74635 0.0
H602 H 0.29043 0.772 0.67287 0.0
H603 H 0.22855 0.79146 0.65899 0.0
H604 H 0.39689 0.95044 0.61897 0.0
H605 H 0.41145 0.94628 0.69611 0.0
H606 H 0.44579 0.97714 0.61226 0.0
H607 H 0.46012 0.973 0.68802 0.0
H608 H 0.37076 0.84751 0.63713 0.0
H609 H 0.30332 0.85175 0.60914 0.0
H610 H 0.35243 0.80286 0.61804 0.0
H611 H 0.28615 0.80697 0.59057 0.0
H612 H 0.43364 0.87045 0.69987 0.0
H613 H 0.44897 0.89665 0.62406 0.0
H614 H 0.35328 0.98697 0.59695 0.0
H615 H 0.33073 0.91754 0.5514 0.0
Li616 Li 0.11079 0.44836 0.69053 0.0
Li617 Li 0.15207 0.46179 0.66802 0.0
Li618 Li 0.13189 0.49016 0.6695 0.0
Li619 Li 0.11166 0.4487 0.64614 0.0
C620 C 0.16119 0.50194 0.70979 0.0
N621 N 0.19109 0.5502 0.73365 0.0
C622 C 0.189 0.51597 0.70758 0.0
C623 C 0.14861 0.51236 0.72432 0.0
C624 C 0.20375 0.54035 0.71976 0.0
C625 C 0.16407 0.53682 0.73616 0.0
C626 C 0.12937 0.41001 0.67163 0.0
C627 C 0.15369 0.38919 0.6564 0.0
N628 N 0.15212 0.37847 0.67903 0.0
C629 C 0.12791 0.39873 0.69472 0.0
C630 C 0.14226 0.40514 0.65227 0.0
C631 C 0.13955 0.38284 0.69809 0.0
C632 C 0.06777 0.40615 0.71533 0.0
N633 N 0.09082 0.42972 0.71837 0.0
C634 C 0.08753 0.42504 0.76197 0.0
C635 C 0.10077 0.43944 0.74104 0.0
C636 C 0.0638 0.40041 0.75949 0.0
C637 C 0.05368 0.39121 0.73578 0.0
H638 H 0.06069 0.39868 0.69701 0.0
H639 H 0.11947 0.45791 0.74285 0.0
C640 C 0.20241 0.47657 0.64926 0.0
N641 N 0.18565 0.46355 0.66825 0.0
C642 C 0.22888 0.48255 0.65016 0.0
C643 C 0.22012 0.46051 0.68968 0.0
C644 C 0.19379 0.45518 0.68813 0.0
C645 C 0.23812 0.47505 0.67082 0.0
H646 H 0.1956 0.48351 0.63396 0.0
H647 H 0.18021 0.44553 0.70328 0.0
C648 C 0.0694 0.45319 0.6778 0.0
N649 N 0.01949 0.43255 0.69893 0.0
C650 C 0.04737 0.43111 0.66727 0.0
C651 C 0.06601 0.46489 0.69897 0.0
C652 C 0.02231 0.42096 0.67824 0.0
C653 C 0.04064 0.45411 0.70942 0.0
C654 C 0.14654 0.48459 0.6162 0.0
C655 C 0.14052 0.50347 0.6069 0.0
C656 C 0.15118 0.4686 0.59998 0.0
C657 C 0.13902 0.5059 0.58146 0.0
C658 C 0.14943 0.47159 0.57466 0.0
N659 N 0.14343 0.49002 0.566 0.0
C660 C 0.16658 0.5445 0.6663 0.0
C661 C 0.1218 0.53357 0.67368 0.0
C662 C 0.17515 0.57161 0.66751 0.0
N663 N 0.14044 0.5262 0.66987 0.0
C664 C 0.12946 0.56061 0.67461 0.0
C665 C 0.15651 0.57988 0.67187 0.0
H666 H 0.1808 0.53794 0.66279 0.0
H667 H 0.10109 0.51852 0.6761 0.0
C668 C 0.08874 0.40841 0.60966 0.0
N669 N 0.0918 0.43202 0.61767 0.0
C670 C 0.07414 0.39661 0.58832 0.0
C671 C 0.0661 0.43364 0.58418 0.0
C672 C 0.0807 0.4446 0.6056 0.0
C673 C 0.06261 0.4093 0.5753 0.0
H674 H 0.09758 0.39876 0.61986 0.0
H675 H 0.08339 0.46328 0.6126 0.0
O676 O 0.14632 0.4783 0.6976 0.0
O677 O 0.11833 0.42583 0.668 0.0
O678 O 0.09415 0.46326 0.66748 0.0
O679 O 0.14755 0.48151 0.64106 0.0
H680 H 0.19909 0.50832 0.69635 0.0
H681 H 0.12712 0.50182 0.72617 0.0
H682 H 0.22527 0.55149 0.71809 0.0
H683 H 0.15459 0.54521 0.74729 0.0
H684 H 0.16388 0.3854 0.64163 0.0
H685 H 0.11808 0.40232 0.70993 0.0
H686 H 0.14372 0.41387 0.63433 0.0
H687 H 0.13866 0.37405 0.71588 0.0
H688 H 0.09645 0.4326 0.77982 0.0
H689 H 0.0354 0.37242 0.73302 0.0
H690 H 0.24228 0.49381 0.63529 0.0
H691 H 0.22673 0.45477 0.70603 0.0
H692 H 0.04963 0.42173 0.65095 0.0
H693 H 0.08285 0.48193 0.7074 0.0
H694 H 0.00511 0.40381 0.67036 0.0
H695 H 0.03776 0.46285 0.7259 0.0
H696 H 0.13675 0.51593 0.61918 0.0
H697 H 0.15572 0.45378 0.60689 0.0
H698 H 0.13424 0.52033 0.57399 0.0
H699 H 0.15275 0.45921 0.5619 0.0
H700 H 0.19611 0.58598 0.66488 0.0
H701 H 0.11459 0.5664 0.67787 0.0
H702 H 0.07166 0.37769 0.58222 0.0
H703 H 0.05793 0.44431 0.5745 0.0
Li704 Li 0.54253 0.6949 0.66905 0.0
Li705 Li 0.56426 0.67439 0.69118 0.0
Li706 Li 0.55866 0.66916 0.64596 0.0
Li707 Li 0.52108 0.64486 0.67403 0.0
C708 C 0.59617 0.72701 0.65529 0.0
N709 N 0.62891 0.77665 0.6348 0.0
C710 C 0.61747 0.74675 0.66881 0.0
C711 C 0.59176 0.73243 0.63124 0.0
C712 C 0.63373 0.77175 0.65817 0.0
C713 C 0.60846 0.75765 0.62123 0.0
C714 C 0.53213 0.67779 0.72406 0.0
C715 C 0.52939 0.66294 0.76597 0.0
N716 N 0.53761 0.68814 0.774 0.0
C717 C 0.54026 0.70347 0.73273 0.0
C718 C 0.52637 0.65728 0.7408 0.0
C719 C 0.54301 0.70833 0.75804 0.0
C720 C 0.51059 0.7173 0.66031 0.0
N721 N 0.53548 0.7235 0.66769 0.0
C722 C 0.54781 0.76921 0.67327 0.0
C723 C 0.55398 0.74879 0.67431 0.0
C724 C 0.52225 0.76337 0.66562 0.0
C725 C 0.50355 0.73703 0.65902 0.0
H726 H 0.49619 0.69694 0.65546 0.0
H727 H 0.57336 0.75307 0.68082 0.0
C728 C 0.59332 0.66076 0.72428 0.0
N729 N 0.58773 0.68002 0.71747 0.0
C730 C 0.61061 0.66514 0.74389 0.0
C731 C 0.61632 0.70925 0.74872 0.0
C732 C 0.59896 0.70401 0.72905 0.0
C733 C 0.62231 0.68966 0.75636 0.0
H734 H 0.5845 0.64206 0.71443 0.0
H735 H 0.59427 0.719 0.72307 0.0
C736 C 0.51248 0.66442 0.62173 0.0
N737 N 0.49067 0.66109 0.57567 0.0
C738 C 0.49415 0.63958 0.61184 0.0
C739 C 0.51924 0.6876 0.60838 0.0
C740 C 0.4835 0.6383 0.58846 0.0
C741 C 0.50813 0.68549 0.58509 0.0
C742 C 0.54576 0.61568 0.67294 0.0
C743 C 0.5478 0.60184 0.65276 0.0
C744 C 0.53532 0.60221 0.69511 0.0
C745 C 0.53898 0.57463 0.65498 0.0
C746 C 0.52669 0.57499 0.6966 0.0
N747 N 0.52865 0.56187 0.67666 0.0
C748 C 0.60082 0.68269 0.61254 0.0
C749 C 0.55843 0.64793 0.5995 0.0
C750 C 0.61258 0.68065 0.59088 0.0
N751 N 0.57415 0.66667 0.61624 0.0
C752 C 0.56936 0.64505 0.5777 0.0
C753 C 0.59675 0.66154 0.57323 0.0
H754 H 0.61303 0.69682 0.62654 0.0
H755 H 0.53755 0.63475 0.60334 0.0
C756 C 0.47056 0.61473 0.69465 0.0
N757 N 0.4876 0.61332 0.67838 0.0
C758 C 0.4446 0.59341 0.69714 0.0
C759 C 0.45451 0.56909 0.66678 0.0
C760 C 0.48021 0.59104 0.66465 0.0
C761 C 0.43608 0.57031 0.68281 0.0
H762 H 0.47683 0.63285 0.70503 0.0
H763 H 0.49393 0.59059 0.65146 0.0
O764 O 0.57988 0.70252 0.66557 0.0
O765 O 0.52973 0.67275 0.69933 0.0
O766 O 0.5229 0.66602 0.64473 0.0
O767 O 0.55421 0.64231 0.67105 0.0
H768 H 0.62138 0.74287 0.68737 0.0
H769 H 0.57587 0.7172 0.6203 0.0
H770 H 0.6502 0.78725 0.66848 0.0
H771 H 0.60523 0.76209 0.60263 0.0
H772 H 0.52517 0.64729 0.77912 0.0
H773 H 0.54468 0.71955 0.72004 0.0
H774 H 0.51966 0.63722 0.73442 0.0
H775 H 0.54949 0.72816 0.765 0.0
H776 H 0.56263 0.78917 0.67891 0.0
H777 H 0.4837 0.73173 0.65283 0.0
H778 H 0.61499 0.64967 0.74907 0.0
H779 H 0.62464 0.72829 0.75807 0.0
H780 H 0.48841 0.62145 0.62196 0.0
H781 H 0.53262 0.70706 0.616 0.0
H782 H 0.4695 0.61917 0.58051 0.0
H783 H 0.51327 0.70328 0.57455 0.0
H784 H 0.55614 0.61198 0.63556 0.0
H785 H 0.53376 0.61262 0.71094 0.0
H786 H 0.54035 0.56366 0.63948 0.0
H787 H 0.51841 0.56429 0.7136 0.0
H788 H 0.63388 0.69338 0.58821 0.0
H789 H 0.55653 0.63004 0.56451 0.0
H790 H 0.43102 0.59561 0.70932 0.0
H791 H 0.44894 0.55166 0.6555 0.0
C792 C 0.22031 0.15651 0.98919 0.0
C793 C 0.21496 0.13823 0.0083 0.0
C794 C 0.2078 0.17193 0.98841 0.0
C795 C 0.18943 0.16879 0.00711 0.0
C796 C 0.18574 0.15207 0.0275 0.0
C797 C 0.19858 0.13699 0.02786 0.0
C798 C 0.21261 0.18991 0.96659 0.0
C799 C 0.16636 0.1482 0.04784 0.0
C800 C 0.15749 0.21222 0.01177 0.0
C801 C 0.13268 0.19575 0.00057 0.0
C802 C 0.17675 0.20425 0.01331 0.0
C803 C 0.1709 0.17925 0.00349 0.0
C804 C 0.14629 0.16309 0.99132 0.0
C805 C 0.12755 0.17159 0.98996 0.0
C806 C 0.20285 0.22206 0.02624 0.0
C807 C 0.13933 0.13635 0.98043 0.0
H808 H 0.23331 0.15783 0.97424 0.0
H809 H 0.1942 0.12277 0.0426 0.0
H810 H 0.19519 0.18031 0.954 0.0
H811 H 0.2148 0.20923 0.97254 0.0
H812 H 0.23072 0.19382 0.95615 0.0
H813 H 0.16851 0.13753 0.06388 0.0
H814 H 0.16924 0.16768 0.05417 0.0
H815 H 0.14563 0.13638 0.04077 0.0
H816 H 0.16149 0.23089 0.02006 0.0
H817 H 0.10862 0.15908 0.98083 0.0
H818 H 0.21988 0.22434 0.015 0.0
H819 H 0.2034 0.2128 0.04394 0.0
H820 H 0.20567 0.24215 0.03011 0.0
H821 H 0.15497 0.1387 0.96721 0.0
H822 H 0.11979 0.12673 0.97076 0.0
H823 H 0.13854 0.12276 -0.00477 0.0
C824 C 0.82048 0.95507 0.01843 0.0
C825 C 0.82052 0.94051 -0.00219 0.0
C826 C 0.83316 0.98299 0.01774 0.0
C827 C 0.84585 0.99655 -0.0042 0.0
C828 C 0.84365 0.98184 0.97427 0.0
C829 C 0.83114 0.95397 0.97556 0.0
C830 C 0.83499 -0.00204 0.04108 0.0
C831 C 0.85658 0.99559 0.95041 0.0
C832 C 0.87573 0.07173 0.99138 0.0
C833 C 0.90265 0.08058 -0.0035 0.0
C834 C 0.85679 0.04436 0.99114 0.0
C835 C 0.86507 0.02565 -0.00356 0.0
C836 C 0.89216 0.03461 0.00207 0.0
C837 C 0.91062 0.06196 0.00192 0.0
C838 C 0.82812 0.03544 0.98482 0.0
C839 C 0.90175 0.0153 0.00813 0.0
H840 H 0.8117 0.94474 0.03552 0.0
H841 H 0.83137 0.94296 0.95953 0.0
H842 H 0.85548 0.00679 0.04872 0.0
H843 H 0.83118 0.01459 0.03731 0.0
H844 H 0.82066 0.98474 0.05527 0.0
H845 H 0.84922 0.98158 0.93456 0.0
H846 H 0.8528 0.01225 0.94666 0.0
H847 H 0.87851 0.00417 0.95182 0.0
H848 H 0.86963 0.08619 0.9871 0.0
H849 H 0.93137 0.06885 0.00627 0.0
H850 H 0.81468 0.0225 -0.00039 0.0
H851 H 0.82238 0.02336 0.96771 0.0
H852 H 0.82474 0.05254 0.9821 0.0
H853 H 0.89035 0.00261 0.02397 0.0
H854 H 0.92335 0.02564 0.01275 0.0
H855 H 0.89819 0.00188 0.99225 0.0
C856 C 0.95309 0.81646 0.9942 0.0
C857 C 0.93913 0.82418 0.01012 0.0
C858 C 0.9811 0.83004 0.99414 0.0
C859 C 0.99533 0.85214 0.01002 0.0
C860 C 0.98128 0.85916 0.02697 0.0
C861 C 0.95331 0.84495 0.02691 0.0
C862 C 0.99542 0.82163 0.97621 0.0
C863 C 0.99569 0.88282 0.04397 0.0
C864 C 0.07012 0.88461 0.02027 0.0
C865 C 0.07987 0.90631 0.00397 0.0
C866 C 0.04268 0.86617 0.02186 0.0
C867 C 0.02458 0.8698 0.00711 0.0
C868 C 0.03433 0.89129 0.99026 0.0
C869 C 0.06183 0.90909 0.98873 0.0
C870 C 0.03299 0.84323 0.03975 0.0
C871 C 0.01564 0.89594 0.97431 0.0
H872 H 0.94207 0.80027 0.98132 0.0
H873 H 0.94253 0.85116 0.03902 0.0
H874 H 0.00445 0.83671 0.96136 0.0
H875 H 0.01189 0.8205 0.98554 0.0
H876 H 0.98175 0.80198 0.96767 0.0
H877 H 0.982 0.88418 0.05746 0.0
H878 H 0.0117 0.88168 0.05418 0.0
H879 H 0.00535 0.90146 0.03297 0.0
H880 H 0.08384 0.88241 0.03229 0.0
H881 H 0.0692 0.92538 0.97565 0.0
H882 H 0.01938 0.82413 0.03035 0.0
H883 H 0.02145 0.84583 0.0547 0.0
H884 H 0.04972 0.84173 0.04811 0.0
H885 H 0.00314 0.87805 0.96289 0.0
H886 H 0.02648 0.9134 0.96192 0.0
H887 H 0.00194 0.89933 0.98608 0.0
C888 C 0.87144 0.48618 0.34921 0.0
C889 C 0.86446 0.46906 0.32885 0.0
C890 C 0.86104 0.50334 0.35201 0.0
C891 C 0.84317 0.50316 0.33411 0.0
C892 C 0.83748 0.4872 0.31276 0.0
C893 C 0.84828 0.47041 0.31036 0.0
C894 C 0.8678 0.52032 0.37487 0.0
C895 C 0.81857 0.4865 0.2932 0.0
C896 C 0.78658 0.51407 0.35325 0.0
C897 C 0.79463 0.53939 0.34348 0.0
C898 C 0.80277 0.50258 0.35116 0.0
C899 C 0.82769 0.51677 0.33903 0.0
C900 C 0.8365 0.54281 0.33004 0.0
C901 C 0.81976 0.55379 0.33226 0.0
C902 C 0.79257 0.47467 0.36088 0.0
C903 C 0.86309 0.55862 0.31729 0.0
H904 H 0.88387 0.48516 0.36361 0.0
H905 H 0.84332 0.45762 0.29434 0.0
H906 H 0.87246 0.54086 0.37017 0.0
H907 H 0.85031 0.51173 0.38739 0.0
H908 H 0.88505 0.52141 0.38493 0.0
H909 H 0.81828 0.47505 0.27669 0.0
H910 H 0.79804 0.47709 0.30081 0.0
H911 H 0.82419 0.50703 0.28745 0.0
H912 H 0.767 0.50266 0.36157 0.0
H913 H 0.82611 0.57347 0.32486 0.0
H914 H 0.80757 0.4742 0.37328 0.0
H915 H 0.78929 0.46091 0.34534 0.0
H916 H 0.77351 0.46702 0.37112 0.0
H917 H 0.87915 0.55853 0.32839 0.0
H918 H 0.86834 0.57963 0.31395 0.0
H919 H 0.86248 0.54923 0.29932 0.0
C920 C 0.52478 0.29899 0.32981 0.0
C921 C 0.49751 0.28054 0.3322 0.0
C922 C 0.53404 0.32638 0.32883 0.0
C923 C 0.51556 0.33559 0.33046 0.0
C924 C 0.48792 0.31706 0.3326 0.0
C925 C 0.47917 0.28963 0.3333 0.0
C926 C 0.56368 0.34547 0.32621 0.0
C927 C 0.46774 0.32624 0.33458 0.0
C928 C 0.55093 0.40726 0.35151 0.0
C929 C 0.55754 0.42074 0.3289 0.0
C930 C 0.53501 0.37941 0.35249 0.0
C931 C 0.52574 0.36475 0.33032 0.0
C932 C 0.53034 0.37839 0.30765 0.0
C933 C 0.5461 0.40628 0.30723 0.0
C934 C 0.53021 0.36559 0.37706 0.0
C935 C 0.52069 0.36349 0.28362 0.0
H936 H 0.53892 0.29192 0.32853 0.0
H937 H 0.45807 0.27531 0.33523 0.0
H938 H 0.5676 0.35818 0.3097 0.0
H939 H 0.57119 0.3589 0.34243 0.0
H940 H 0.57525 0.33496 0.32455 0.0
H941 H 0.4469 0.30926 0.33498 0.0
H942 H 0.47144 0.33816 0.35162 0.0
H943 H 0.46988 0.33939 0.31887 0.0
H944 H 0.55971 0.41822 0.36834 0.0
H945 H 0.55058 0.41666 0.28975 0.0
H946 H 0.54327 0.35671 0.37876 0.0
H947 H 0.50923 0.34913 0.3786 0.0
H948 H 0.53463 0.37962 0.39265 0.0
H949 H 0.53312 0.35448 0.27884 0.0
H950 H 0.52203 0.37682 0.26831 0.0
H951 H 0.49974 0.34701 0.2852 0.0
C952 C 0.62533 0.17124 0.30781 0.0
C953 C 0.60961 0.16055 0.32893 0.0
C954 C 0.65319 0.18324 0.30895 0.0
C955 C 0.66557 0.18449 0.33177 0.0
C956 C 0.64969 0.17183 0.35271 0.0
C957 C 0.62183 0.16002 0.35105 0.0
C958 C 0.6694 0.19637 0.28616 0.0
C959 C 0.66216 0.17257 0.37731 0.0
C960 C 0.74046 0.21099 0.33144 0.0
C961 C 0.75034 0.23801 0.33696 0.0
C962 C 0.71284 0.19302 0.33023 0.0
C963 C 0.69483 0.20243 0.33447 0.0
C964 C 0.70473 0.22961 0.34038 0.0
C965 C 0.73232 0.24702 0.34153 0.0
C966 C 0.70293 0.16413 0.32407 0.0
C967 C 0.68619 0.2405 0.34488 0.0
H968 H 0.61588 0.17121 0.29056 0.0
H969 H 0.60981 0.15187 0.36747 0.0
H970 H 0.67946 0.21838 0.28823 0.0
H971 H 0.68519 0.19105 0.28363 0.0
H972 H 0.65682 0.19063 0.26932 0.0
H973 H 0.6473 0.15823 0.39058 0.0
H974 H 0.67852 0.16798 0.37521 0.0
H975 H 0.67098 0.19293 0.38521 0.0
H976 H 0.75434 0.20392 0.32805 0.0
H977 H 0.73981 0.26797 0.34534 0.0
H978 H 0.69207 0.15905 0.30627 0.0
H979 H 0.68862 0.151 0.33827 0.0
H980 H 0.71947 0.15968 0.3227 0.0
H981 H 0.67429 0.23808 0.32806 0.0
H982 H 0.69713 0.26196 0.34999 0.0
H983 H 0.67195 0.22916 0.35984 0.0
C984 C 0.47976 0.87471 0.67955 0.0
C985 C 0.46295 0.87217 0.65986 0.0
C986 C 0.49337 0.86033 0.6799 0.0
C987 C 0.49004 0.84306 0.6601 0.0
C988 C 0.47477 0.84203 0.63933 0.0
C989 C 0.46136 0.85657 0.63949 0.0
C990 C 0.50971 0.86217 0.70226 0.0
C991 C 0.47082 0.82392 0.61779 0.0
C992 C 0.53215 0.80967 0.65517 0.0
C993 C 0.51476 0.7844 0.66504 0.0
C994 C 0.52466 0.82928 0.65378 0.0
C995 C 0.49924 0.82338 0.66251 0.0
C996 C 0.48187 0.79808 0.67295 0.0
C997 C 0.48986 0.77894 0.6741 0.0
C998 C 0.54365 0.85603 0.64252 0.0
C999 C 0.45463 0.79106 0.6826 0.0
H1000 H 0.48139 0.88709 0.69517 0.0
H1001 H 0.44823 0.85428 0.6243 0.0
H1002 H 0.49887 0.84352 0.71314 0.0
H1003 H 0.52913 0.86428 0.69673 0.0
H1004 H 0.51352 0.87923 0.7143 0.0
H1005 H 0.46151 0.82812 0.6018 0.0
H1006 H 0.49015 0.82606 0.6119 0.0
H1007 H 0.45768 0.80285 0.62341 0.0
H1008 H 0.55137 0.81391 0.648 0.0
H1009 H 0.47657 0.7596 0.68217 0.0
H1010 H 0.54686 0.87234 0.65528 0.0
H1011 H 0.53484 0.85877 0.6254 0.0
H1012 H 0.56331 0.85805 0.63802 0.0
H1013 H 0.45658 0.80564 0.69687 0.0
H1014 H 0.44382 0.77072 0.6907 0.0
H1015 H 0.44232 0.79215 0.66747 0.0
C1016 C 0.21477 0.73846 0.68034 0.0
C1017 C 0.23716 0.74926 0.66491 0.0
C1018 C 0.19778 0.71072 0.68191 0.0
C1019 C 0.2033 0.69366 0.66751 0.0
C1020 C 0.22503 0.70467 0.65087 0.0
C1021 C 0.24181 0.73236 0.6499 0.0
C1022 C 0.17488 0.69967 0.69994 0.0
C1023 C 0.23137 0.68717 0.63493 0.0
C1024 C 0.18705 0.62506 0.68869 0.0
C1025 C 0.16565 0.60865 0.67328 0.0
C1026 C 0.1984 0.65282 0.68809 0.0
C1027 C 0.18827 0.66437 0.6714 0.0
C1028 C 0.16573 0.64779 0.6567 0.0
C1029 C 0.15455 0.61998 0.65792 0.0
C1030 C 0.22217 0.6698 0.70433 0.0
C1031 C 0.15449 0.65941 0.63863 0.0
H1032 H 0.21129 0.75162 0.69198 0.0
H1033 H 0.25898 0.74085 0.63775 0.0
H1034 H 0.15627 0.68412 0.69108 0.0
H1035 H 0.17934 0.69006 0.71547 0.0
H1036 H 0.17131 0.71545 0.70748 0.0
H1037 H 0.24741 0.69892 0.62139 0.0
H1038 H 0.23793 0.67584 0.6467 0.0
H1039 H 0.21329 0.67243 0.62482 0.0
H1040 H 0.19537 0.61616 0.70078 0.0
H1041 H 0.13802 0.60719 0.64596 0.0
H1042 H 0.21926 0.6849 0.71424 0.0
H1043 H 0.24033 0.68071 0.6928 0.0
H1044 H 0.22576 0.65771 0.71805 0.0
H1045 H 0.15196 0.67528 0.64746 0.0
H1046 H 0.13496 0.644 0.63102 0.0
H1047 H 0.16869 0.66873 0.62314 0.0
C1048 C 0.28493 0.51238 0.67107 0.0
C1049 C 0.26698 0.48505 0.67376 0.0
C1050 C 0.3124 0.52275 0.67385 0.0
C1051 C 0.32222 0.50527 0.67914 0.0
C1052 C 0.30419 0.4776 0.68198 0.0
C1053 C 0.27662 0.4678 0.67949 0.0
C1054 C 0.33091 0.55246 0.67105 0.0
C1055 C 0.31404 0.45839 0.68726 0.0
C1056 C 0.39459 0.53724 0.66061 0.0
C1057 C 0.4075 0.54905 0.68283 0.0
C1058 C 0.36679 0.52078 0.65956 0.0
C1059 C 0.3515 0.5164 0.68115 0.0
C1060 C 0.3645 0.52654 0.70395 0.0
C1061 C 0.39239 0.54258 0.70454 0.0
C1062 C 0.35368 0.50995 0.63495 0.0
C1063 C 0.34889 0.52236 0.72739 0.0
H1064 H 0.27736 0.52575 0.66706 0.0
H1065 H 0.26264 0.44664 0.68155 0.0
H1066 H 0.34328 0.56069 0.68786 0.0
H1067 H 0.34472 0.55643 0.6554 0.0
H1068 H 0.31992 0.56335 0.66776 0.0
H1069 H 0.29739 0.43759 0.68966 0.0
H1070 H 0.32688 0.4588 0.67191 0.0
H1071 H 0.3265 0.46453 0.70414 0.0
H1072 H 0.40594 0.54217 0.64366 0.0
H1073 H 0.40225 0.55105 0.7219 0.0
H1074 H 0.34451 0.52164 0.62823 0.0
H1075 H 0.33751 0.48887 0.63665 0.0
H1076 H 0.36823 0.51116 0.62094 0.0
H1077 H 0.33923 0.53478 0.72688 0.0
H1078 H 0.36186 0.52799 0.74396 0.0
H1079 H 0.33282 0.50126 0.72917 0.0
C1080 C 0.05158 0.3224 0.87906 0.0
C1081 C 0.02663 0.30784 0.89049 0.0
C1082 C 0.05474 0.33739 0.85786 0.0
C1083 C 0.03232 0.3376 0.84768 0.0
C1084 C 0.00707 0.32307 0.85912 0.0
C1085 C 0.00453 0.3084 0.8805 0.0
C1086 C 0.08204 0.35271 0.84616 0.0
C1087 C 0.98275 0.32277 0.84863 0.0
C1088 C 0.0509 0.39503 0.80401 0.0
C1089 C 0.05128 0.38347 0.78144 0.0
C1090 C 0.04327 0.37994 0.82569 0.0
C1091 C 0.03553 0.35259 0.82466 0.0
C1092 C 0.03394 0.34035 0.80171 0.0
C1093 C 0.04202 0.35599 0.78037 0.0
C1094 C 0.04522 0.39366 0.84987 0.0
C1095 C 0.02544 0.31112 0.79987 0.0
H1096 H 0.06862 0.32166 0.88642 0.0
H1097 H 0.98526 0.29743 0.88943 0.0
H1098 H 0.08144 0.34499 0.82734 0.0
H1099 H 0.08804 0.37408 0.84439 0.0
H1100 H 0.09757 0.35121 0.85692 0.0
H1101 H 0.96466 0.31088 0.86004 0.0
H1102 H 0.98637 0.34343 0.84712 0.0
H1103 H 0.97878 0.31427 0.82977 0.0
H1104 H 0.05748 0.41614 0.80486 0.0
H1105 H 0.04247 0.34688 0.76309 0.0
H1106 H 0.06216 0.3951 0.86071 0.0
H1107 H 0.02685 0.38191 0.86091 0.0
H1108 H 0.04846 0.4141 0.84725 0.0
H1109 H 0.04129 0.30784 0.80766 0.0
H1110 H 0.02177 0.30394 0.78053 0.0
H1111 H 0.00701 0.29886 0.81071 0.0
C1112 C 0.69374 0.73573 0.88373 0.0
C1113 C 0.71675 0.73385 0.88717 0.0
C1114 C 0.67852 0.72614 0.86225 0.0
C1115 C 0.68649 0.7143 0.84382 0.0
C1116 C 0.70912 0.71141 0.84755 0.0
C1117 C 0.72406 0.72128 0.86925 0.0
C1118 C 0.65441 0.72946 0.85896 0.0
C1119 C 0.71807 0.69877 0.82828 0.0
C1120 C 0.63357 0.6754 0.79587 0.0
C1121 C 0.6403 0.69479 0.77755 0.0
C1122 C 0.64921 0.681 0.81714 0.0
C1123 C 0.67196 0.7066 0.82009 0.0
C1124 C 0.6795 0.72581 0.80116 0.0
C1125 C 0.66358 0.71965 0.78008 0.0
C1126 C 0.64067 0.66 0.83694 0.0
C1127 C 0.70371 0.75332 0.80364 0.0
H1128 H 0.68778 0.74499 0.89779 0.0
H1129 H 0.74193 0.71993 0.87183 0.0
H1130 H 0.65766 0.74291 0.84317 0.0
H1131 H 0.63651 0.70995 0.85471 0.0
H1132 H 0.6502 0.73793 0.87557 0.0
H1133 H 0.73464 0.69591 0.83493 0.0
H1134 H 0.70115 0.67914 0.82262 0.0
H1135 H 0.72493 0.7116 0.81166 0.0
H1136 H 0.61549 0.65621 0.79403 0.0
H1137 H 0.6691 0.73448 0.76571 0.0
H1138 H 0.63356 0.6662 0.85325 0.0
H1139 H 0.65784 0.65787 0.84298 0.0
H1140 H 0.62437 0.64025 0.83065 0.0
H1141 H 0.70048 0.76426 0.81878 0.0
H1142 H 0.70795 0.7652 0.78649 0.0
H1143 H 0.72156 0.75184 0.80847 0.0
C1144 C 0.30637 0.96538 0.77818 0.0
C1145 C 0.33059 0.96573 0.77496 0.0
C1146 C 0.30085 0.97438 0.80007 0.0
C1147 C 0.32013 0.98421 0.8191 0.0
C1148 C 0.34522 0.98606 0.81546 0.0
C1149 C 0.35014 0.97668 0.79341 0.0
C1150 C 0.27384 0.97212 0.80327 0.0
C1151 C 0.36634 0.99672 0.83529 0.0
C1152 C 0.30657 0.01973 0.87083 0.0
C1153 C 0.29332 -0.00109 0.88781 0.0
C1154 C 0.31652 0.01562 0.84873 0.0
C1155 C 0.31288 0.99006 0.84352 0.0
C1156 C 0.30039 0.96928 0.86098 0.0
C1157 C 0.29089 0.974 0.88297 0.0
C1158 C 0.32999 0.03829 0.8306 0.0
C1159 C 0.29613 0.94172 0.85604 0.0
H1160 H 0.29145 0.95747 0.76373 0.0
H1161 H 0.36884 0.97688 0.79104 0.0
H1162 H 0.26253 0.95732 0.81787 0.0
H1163 H 0.27619 0.9915 0.80924 0.0
H1164 H 0.26183 0.96578 0.78608 0.0
H1165 H 0.38584 -6e-05 0.82847 0.0
H1166 H 0.36918 0.01585 0.84265 0.0
H1167 H 0.35982 0.98237 0.85082 0.0
H1168 H 0.30838 0.03898 0.87443 0.0
H1169 H 0.28119 0.95803 0.89629 0.0
H1170 H 0.31717 0.03394 0.81409 0.0
H1171 H 0.34922 0.04041 0.82437 0.0
H1172 H 0.33384 0.05759 0.83854 0.0
H1173 H 0.28264 0.93279 0.84 0.0
H1174 H 0.28724 0.92816 0.87205 0.0
H1175 H 0.31536 0.94292 0.85137 0.0
C1176 C 0.36334 0.06754 0.21376 0.0
C1177 C 0.38164 0.06031 0.22243 0.0
C1178 C 0.34781 0.05539 0.19289 0.0
C1179 C 0.35066 0.03549 0.18041 0.0
C1180 C 0.36838 0.02736 0.18958 0.0
C1181 C 0.38371 0.03991 0.21058 0.0
C1182 C 0.32898 0.06449 0.18375 0.0
C1183 C 0.37184 0.00618 0.17673 0.0
C1184 C 0.29478 0.99661 0.1351 0.0
C1185 C 0.30559 0.01155 0.11357 0.0
C1186 C 0.30989 0.00299 0.15679 0.0
C1187 C 0.33634 0.0248 0.15685 0.0
C1188 C 0.34793 0.03873 0.13476 0.0
C1189 C 0.33238 0.03197 0.11339 0.0
C1190 C 0.29699 0.98753 0.17998 0.0
C1191 C 0.37611 0.06209 0.13409 0.0
H1192 H 0.36134 0.08294 0.22322 0.0
H1193 H 0.39793 0.03436 0.21725 0.0
H1194 H 0.33544 0.07374 0.16531 0.0
H1195 H 0.30852 0.04715 0.18177 0.0
H1196 H 0.32819 0.07923 0.19629 0.0
H1197 H 0.38425 0.00019 0.18761 0.0
H1198 H 0.35213 0.98824 0.17316 0.0
H1199 H 0.38156 0.0138 0.15863 0.0
H1200 H 0.27421 0.98051 0.13519 0.0
H1201 H 0.34079 0.04378 0.0969 0.0
H1202 H 0.29273 6e-05 0.19254 0.0
H1203 H 0.31064 0.98241 0.1898 0.0
H1204 H 0.27794 0.96886 0.17611 0.0
H1205 H 0.377 0.07915 0.14426 0.0
H1206 H 0.38317 0.06866 0.11498 0.0
H1207 H 0.39005 0.05692 0.14328 0.0
C1208 C 0.9897 0.2789 0.13287 0.0
C1209 C 0.00824 0.29526 0.11517 0.0
C1210 C 0.9825 0.28993 0.15224 0.0
C1211 C 0.99451 0.318 0.15411 0.0
C1212 C 0.01399 0.33467 0.13677 0.0
C1213 C 0.02044 0.32305 0.11726 0.0
C1214 C 0.96136 0.27149 0.1702 0.0
C1215 C 0.02759 0.36468 0.13856 0.0
C1216 C 0.95285 0.34068 0.18886 0.0
C1217 C 0.96308 0.34353 0.21276 0.0
C1218 C 0.96371 0.33352 0.16928 0.0
C1219 C 0.98561 0.32959 0.17367 0.0
C1220 C -0.00286 0.33412 0.19738 0.0
C1221 C 0.98558 0.34081 0.21673 0.0
C1222 C 0.9508 0.32872 0.14421 0.0
C1223 C 0.02078 0.33051 0.20262 0.0
H1224 H 0.98005 0.2574 0.131 0.0
H1225 H 0.03488 0.33562 0.10355 0.0
H1226 H 0.96922 0.27609 0.18927 0.0
H1227 H 0.94393 0.27459 0.16931 0.0
H1228 H 0.95437 0.25014 0.16639 0.0
H1229 H 0.04374 0.37476 0.12472 0.0
H1230 H 0.01275 0.37124 0.13573 0.0
H1231 H 0.03622 0.37138 0.1572 0.0
H1232 H 0.93585 0.34335 0.18556 0.0
H1233 H 0.99349 0.34271 0.23516 0.0
H1234 H 0.94143 0.30724 0.13948 0.0
H1235 H 0.96602 0.34003 0.12994 0.0
H1236 H 0.93521 0.33456 0.14345 0.0
H1237 H 0.0144 0.30898 0.20195 0.0
H1238 H 0.02962 0.33836 0.22102 0.0
H1239 H 0.03646 0.34072 0.18843 0.0
C1240 C 0.70686 0.64539 0.19996 0.0
C1241 C 0.68335 0.63485 0.21381 0.0
C1242 C 0.71059 0.66141 0.17943 0.0
C1243 C 0.69021 0.66689 0.17251 0.0
C1244 C 0.6662 0.65594 0.18615 0.0
C1245 C 0.6631 0.6401 0.20681 0.0
C1246 C 0.73659 0.67291 0.16542 0.0
C1247 C 0.64399 0.66116 0.17906 0.0
C1248 C 0.71814 0.72954 0.13446 0.0
C1249 C 0.71512 0.71912 0.11064 0.0
C1250 C 0.70819 0.71262 0.15489 0.0
C1251 C 0.69474 0.68467 0.15128 0.0
C1252 C 0.68949 0.67406 0.12717 0.0
C1253 C 0.69988 0.69144 0.10708 0.0
C1254 C 0.71408 0.72468 0.18035 0.0
C1255 C 0.67491 0.64434 0.12262 0.0
H1256 H 0.72268 0.64166 0.2056 0.0
H1257 H 0.64483 0.63176 0.21747 0.0
H1258 H 0.73265 0.66669 0.14585 0.0
H1259 H 0.74691 0.69503 0.16586 0.0
H1260 H 0.75026 0.66647 0.17312 0.0
H1261 H 0.62613 0.65021 0.19098 0.0
H1262 H 0.65107 0.68281 0.18039 0.0
H1263 H 0.63802 0.65518 0.15965 0.0
H1264 H 0.72939 0.75096 0.13722 0.0
H1265 H 0.69754 0.68321 0.08873 0.0
H1266 H 0.72971 0.72165 0.18907 0.0
H1267 H 0.69606 0.71473 0.19215 0.0
H1268 H 0.72127 0.74643 0.17995 0.0
H1269 H 0.68833 0.63636 0.12698 0.0
H1270 H 0.66838 0.6394 0.10315 0.0
H1271 H 0.65716 0.63403 0.13472 0.0
C1272 C 0.02389 0.39852 0.54789 0.0
C1273 C 0.04725 0.39757 0.55242 0.0
C1274 C 0.01049 0.39002 0.52539 0.0
C1275 C 0.02054 0.38 0.50708 0.0
C1276 C 0.0433 0.37765 0.51196 0.0
C1277 C 0.05651 0.38662 0.53459 0.0
C1278 C 0.98625 0.39285 0.52084 0.0
C1279 C 0.05431 0.36673 0.49294 0.0
C1280 C 0.97218 0.3452 0.45474 0.0
C1281 C 0.98028 0.36618 0.43787 0.0
C1282 C 0.98608 0.34889 0.47688 0.0
C1283 C 0.00836 0.37419 0.48224 0.0
C1284 C 0.01744 0.39498 0.46469 0.0
C1285 C 0.00336 0.39066 0.44265 0.0
C1286 C 0.97609 0.32618 0.49506 0.0
C1287 C 0.04116 0.42226 0.46976 0.0
H1288 H 0.01631 0.4064 0.56184 0.0
H1289 H 0.07464 0.38596 0.53795 0.0
H1290 H 0.99053 0.40741 0.5058 0.0
H1291 H 0.96914 0.37351 0.51485 0.0
H1292 H 0.98025 0.39974 0.53745 0.0
H1293 H 0.07004 0.36316 0.50066 0.0
H1294 H 0.03812 0.34774 0.48522 0.0
H1295 H 0.06304 0.38107 0.47749 0.0
H1296 H 0.95429 0.32627 0.45118 0.0
H1297 H 0.01003 0.40673 0.42938 0.0
H1298 H 0.96682 0.33045 0.51098 0.0
H1299 H 0.9929 0.32406 0.50224 0.0
H1300 H 0.96101 0.30691 0.48676 0.0
H1301 H 0.0364 0.43177 0.48516 0.0
H1302 H 0.04682 0.43559 0.45347 0.0
H1303 H 0.05865 0.42053 0.47545 0.0
C1304 C 0.63014 0.63336 0.4396 0.0
C1305 C 0.653 0.63089 0.43867 0.0
C1306 C 0.62314 0.64147 0.46125 0.0
C1307 C 0.63932 0.64698 0.48243 0.0
C1308 C 0.66313 0.6458 0.48124 0.0
C1309 C 0.66975 0.6378 0.45927 0.0
C1310 C 0.59772 0.64278 0.46179 0.0
C1311 C 0.68079 0.65144 0.50351 0.0
C1312 C 0.62609 0.68038 0.53631 0.0
C1313 C 0.60877 0.65819 0.55053 0.0
C1314 C 0.63664 0.67716 0.51419 0.0
C1315 C 0.62977 0.65118 0.50637 0.0
C1316 C 0.61282 0.6288 0.52101 0.0
C1317 C 0.60247 0.63259 0.5429 0.0
C1318 C 0.65457 0.70141 0.49892 0.0
C1319 C 0.60527 0.60079 0.51336 0.0
H1320 H 0.6174 0.62834 0.42352 0.0
H1321 H 0.68734 0.63569 0.45858 0.0
H1322 H 0.58282 0.62664 0.47372 0.0
H1323 H 0.60154 0.66203 0.46975 0.0
H1324 H 0.5889 0.64055 0.44317 0.0
H1325 H 0.70001 0.65256 0.49882 0.0
H1326 H 0.68508 0.67048 0.51231 0.0
H1327 H 0.67029 0.63538 0.51731 0.0
H1328 H 0.63083 0.70017 0.54218 0.0
H1329 H 0.58942 0.61548 0.55413 0.0
H1330 H 0.64488 0.70029 0.48099 0.0
H1331 H 0.67365 0.70197 0.49494 0.0
H1332 H 0.65906 0.7203 0.50822 0.0
H1333 H 0.5941 0.59572 0.49572 0.0
H1334 H 0.59271 0.58569 0.52733 0.0
H1335 H 0.6235 0.59942 0.51026 0.0
C1336 C 0.33764 0.98966 0.54854 0.0
C1337 C 0.3459 0.97064 0.54897 0.0
C1338 C 0.34422 0.00739 0.52872 0.0
C1339 C 0.35946 0.00602 0.50903 0.0
C1340 C 0.36677 0.98606 0.50885 0.0
C1341 C 0.35992 0.96863 0.52884 0.0
C1342 C 0.33589 0.02827 0.52936 0.0
C1343 C 0.38306 0.98397 0.48814 0.0
C1344 C 0.36836 0.03972 0.44737 0.0
C1345 C 0.39438 0.0614 0.44967 0.0
C1346 C 0.3559 0.02228 0.46713 0.0
C1347 C 0.36992 0.02669 0.48957 0.0
C1348 C 0.39552 0.04949 0.49244 0.0
C1349 C 0.40745 0.0666 0.47242 0.0
C1350 C 0.32851 -0.00174 0.46349 0.0
C1351 C 0.41102 0.05496 0.51617 0.0
H1352 H 0.3265 0.99104 0.56396 0.0
H1353 H 0.36668 0.95423 0.52921 0.0
H1354 H 0.35375 0.04825 0.53205 0.0
H1355 H 0.32665 0.02874 0.51161 0.0
H1356 H 0.32153 0.0247 0.54446 0.0
H1357 H 0.38543 0.96615 0.48995 0.0
H1358 H 0.37354 0.98298 0.47015 0.0
H1359 H 0.4032 0.00203 0.48794 0.0
H1360 H 0.35824 0.03558 0.42975 0.0
H1361 H 0.42738 0.08365 0.47434 0.0
H1362 H 0.31544 0.99568 0.47941 0.0
H1363 H 0.33021 0.98003 0.46223 0.0
H1364 H 0.31877 -0.00018 0.44644 0.0
H1365 H 0.3985 0.05398 0.53203 0.0
H1366 H 0.42951 0.07482 0.51615 0.0
H1367 H 0.41668 0.03945 0.51903 0.0
loop_
_geom_bond_atom_site_label_1
_geom_bond_atom_site_label_2
_geom_bond_distance
_geom_bond_site_symmetry_2
_ccdc_geom_bond_type
Li0 N17 1.990 . S
Li0 O60 1.956 . S
Li0 O61 1.970 1_455 S
Li0 O62 1.961 . S
Li1 N25 1.994 . S
Li1 O60 1.955 1_656 S
Li1 O61 1.956 1_556 S
Li1 O63 1.971 1_655 S
Li2 N47 1.990 . S
Li2 O60 1.961 . S
Li2 O62 1.956 . S
Li2 O63 1.970 1_554 S
Li3 N53 1.990 . S
Li3 O61 1.961 1_456 S
Li3 O62 1.970 1_556 S
Li3 O63 1.956 . S
C4 C6 1.348 1_455 S
C4 C7 1.356 . S
C4 O60 1.325 . S
N5 C8 1.314 . S
N5 C9 1.279 1_655 S
C6 C4 1.348 1_655 S
C6 C8 1.353 . S
C6 H64 0.929 . S
C7 C4 1.356 . S
C7 C9 1.358 . S
C7 H65 0.930 . S
C8 N5 1.314 . S
C8 C6 1.353 . S
C8 H66 0.930 . S
C9 N5 1.279 1_455 S
C9 C7 1.358 . S
C9 H67 0.930 . S
C10 C13 1.348 1_556 S
C10 C14 1.356 . S
C10 O61 1.325 1_556 S
C11 N12 1.279 . S
C11 C14 1.358 . S
C11 H68 0.930 . S
N12 C11 1.279 . S
N12 C15 1.314 1_556 S
C13 C10 1.348 1_554 S
C13 C15 1.353 . S
C13 H69 0.929 . S
C14 C10 1.356 . S
C14 C11 1.358 . S
C14 H70 0.930 . S
C15 N12 1.314 1_554 S
C15 C13 1.353 . S
C15 H71 0.930 . S
C16 N17 1.314 . S
C16 C21 1.353 . S
C16 H22 0.930 . S
N17 Li0 1.990 . S
N17 C16 1.314 . S
N17 C19 1.279 1_455 S
C18 C19 1.358 . S
C18 C20 1.356 . S
C18 H72 0.930 . S
C19 N17 1.279 1_655 S
C19 C18 1.358 . S
C19 H23 0.930 . S
C20 C18 1.356 . S
C20 C21 1.348 1_655 S
C21 C16 1.353 . S
C21 C20 1.348 1_455 S
C21 H73 0.929 . S
H22 C16 0.930 . S
H23 C19 0.930 . S
C24 N25 1.314 . S
C24 C26 1.353 . S
C24 H30 0.930 . S
N25 Li1 1.994 . S
N25 C24 1.314 . S
N25 C28 1.279 . S
C26 C24 1.353 . S
C26 C29 1.348 . S
C26 H74 0.929 . S
C27 C28 1.358 . S
C27 C29 1.356 . S
C27 H75 0.930 . S
C28 N25 1.279 . S
C28 C27 1.358 . S
C28 H31 0.930 . S
C29 C26 1.348 . S
C29 C27 1.356 . S
H30 C24 0.930 . S
H31 C28 0.930 . S
C32 C34 1.348 1_554 S
C32 C35 1.356 . S
C32 O62 1.325 . S
N33 C36 1.314 . S
N33 C37 1.279 . S
C34 C32 1.348 1_556 S
C34 C36 1.353 1_556 S
C34 H76 0.929 . S
C35 C32 1.356 . S
C35 C37 1.358 . S
C35 H77 0.930 . S
C36 N33 1.314 . S
C36 C34 1.353 1_554 S
C36 H78 0.930 1_554 S
C37 N33 1.279 . S
C37 C35 1.358 . S
C37 H79 0.930 . S
C38 C39 1.348 . S
C38 C40 1.356 . S
C38 O63 1.325 . S
C39 C38 1.348 . S
C39 C41 1.353 . S
C39 H80 0.929 . S
C40 C38 1.356 . S
C40 C42 1.358 . S
C40 H81 0.930 1_455 S
C41 C39 1.353 . S
C41 N43 1.314 . S
C41 H82 0.930 . S
C42 C40 1.358 . S
C42 N43 1.279 . S
C42 H83 0.930 1_455 S
N43 C41 1.314 . S
N43 C42 1.279 . S
C44 C46 1.353 . S
C44 N47 1.314 . S
C44 H50 0.930 . S
C45 N47 1.279 . S
C45 C48 1.358 . S
C45 H51 0.930 . S
C46 C44 1.353 . S
C46 C49 1.348 . S
C46 H84 0.929 . S
N47 Li2 1.990 . S
N47 C44 1.314 . S
N47 C45 1.279 . S
C48 C45 1.358 . S
C48 C49 1.356 . S
C48 H85 0.930 . S
C49 C46 1.348 . S
C49 C48 1.356 . S
H50 C44 0.930 . S
H51 C45 0.930 . S
C52 N53 1.314 . S
C52 C54 1.353 . S
C52 H58 0.930 . S
N53 Li3 1.990 . S
N53 C52 1.314 . S
N53 C56 1.279 . S
C54 C52 1.353 . S
C54 C57 1.348 . S
C54 H86 0.929 . S
C55 C56 1.358 . S
C55 C57 1.356 . S
C55 H87 0.930 . S
C56 N53 1.279 . S
C56 C55 1.358 . S
C56 H59 0.930 . S
C57 C54 1.348 . S
C57 C55 1.356 . S
H58 C52 0.930 . S
H59 C56 0.930 . S
O60 Li0 1.956 . S
O60 Li1 1.955 1_454 S
O60 Li2 1.961 . S
O60 C4 1.325 . S
O61 Li0 1.970 1_655 S
O61 Li1 1.956 1_554 S
O61 Li3 1.961 1_654 S
O61 C10 1.325 1_554 S
O62 Li0 1.961 . S
O62 Li2 1.956 . S
O62 Li3 1.970 1_554 S
O62 C32 1.325 . S
O63 Li1 1.971 1_455 S
O63 Li2 1.970 1_556 S
O63 Li3 1.956 . S
O63 C38 1.325 . S
H64 C6 0.929 . S
H65 C7 0.930 . S
H66 C8 0.930 . S
H67 C9 0.930 . S
H68 C11 0.930 . S
H69 C13 0.929 . S
H70 C14 0.930 . S
H71 C15 0.930 . S
H72 C18 0.930 . S
H73 C21 0.929 . S
H74 C26 0.929 . S
H75 C27 0.930 . S
H76 C34 0.929 . S
H77 C35 0.930 . S
H78 C36 0.930 1_556 S
H79 C37 0.930 . S
H80 C39 0.929 . S
H81 C40 0.930 1_655 S
H82 C41 0.930 . S
H83 C42 0.930 1_655 S
H84 C46 0.929 . S
H85 C48 0.930 . S
H86 C54 0.929 . S
H87 C55 0.930 . S
Li88 N105 1.994 . S
Li88 O148 1.956 1_556 S
Li88 O149 1.955 1_556 S
Li88 O150 1.971 . S
Li89 N113 1.990 . S
Li89 O148 1.970 . S
Li89 O149 1.956 . S
Li89 O151 1.961 . S
Li90 N135 1.990 . S
Li90 O148 1.961 1_556 S
Li90 O150 1.956 . S
Li90 O151 1.970 1_556 S
Li91 N141 1.990 . S
Li91 O149 1.961 . S
Li91 O150 1.970 1_554 S
Li91 O151 1.956 . S
C92 C94 1.348 1_556 S
C92 C95 1.356 . S
C92 O148 1.325 1_556 S
N93 C96 1.314 1_556 S
N93 C97 1.279 . S
C94 C92 1.348 1_554 S
C94 C96 1.353 . S
C94 H152 0.929 . S
C95 C92 1.356 . S
C95 C97 1.358 . S
C95 H153 0.930 . S
C96 N93 1.314 1_554 S
C96 C94 1.353 . S
C96 H154 0.930 . S
C97 N93 1.279 . S
C97 C95 1.358 . S
C97 H155 0.930 . S
C98 C101 1.348 . S
C98 C102 1.356 . S
C98 O149 1.325 . S
C99 N100 1.279 . S
C99 C102 1.358 . S
C99 H156 0.930 . S
N100 C99 1.279 . S
N100 C103 1.314 . S
C101 C98 1.348 . S
C101 C103 1.353 . S
C101 H157 0.929 . S
C102 C98 1.356 . S
C102 C99 1.358 . S
C102 H158 0.930 . S
C103 N100 1.314 . S
C103 C101 1.353 . S
C103 H159 0.930 . S
C104 N105 1.314 . S
C104 C109 1.353 . S
C104 H110 0.930 . S
N105 Li88 1.994 . S
N105 C104 1.314 . S
N105 C107 1.279 . S
C106 C107 1.358 . S
C106 C108 1.356 . S
C106 H160 0.930 . S
C107 N105 1.279 . S
C107 C106 1.358 . S
C107 H111 0.930 . S
C108 C106 1.356 . S
C108 C109 1.348 . S
C109 C104 1.353 . S
C109 C108 1.348 . S
C109 H161 0.929 . S
H110 C104 0.930 . S
H111 C107 0.930 . S
C112 N113 1.314 . S
C112 C114 1.353 . S
C112 H118 0.930 . S
N113 Li89 1.990 . S
N113 C112 1.314 . S
N113 C116 1.279 . S
C114 C112 1.353 . S
C114 C117 1.348 . S
C114 H162 0.929 . S
C115 C116 1.358 . S
C115 C117 1.356 . S
C115 H163 0.930 . S
C116 N113 1.279 . S
C116 C115 1.358 . S
C116 H119 0.930 . S
C117 C114 1.348 . S
C117 C115 1.356 . S
H118 C112 0.930 . S
H119 C116 0.930 . S
C120 C122 1.348 . S
C120 C123 1.356 . S
C120 O150 1.325 . S
N121 C124 1.314 . S
N121 C125 1.279 . S
C122 C120 1.348 . S
C122 C124 1.353 . S
C122 H164 0.929 . S
C123 C120 1.356 . S
C123 C125 1.358 . S
C123 H165 0.930 . S
C124 N121 1.314 . S
C124 C122 1.353 . S
C124 H166 0.930 . S
C125 N121 1.279 . S
C125 C123 1.358 . S
C125 H167 0.930 . S
C126 C127 1.348 1_554 S
C126 C128 1.356 . S
C126 O151 1.325 . S
C127 C126 1.348 1_556 S
C127 C129 1.353 1_556 S
C127 H168 0.929 . S
C128 C126 1.356 . S
C128 C130 1.358 . S
C128 H169 0.930 . S
C129 C127 1.353 1_554 S
C129 N131 1.314 . S
C129 H170 0.930 1_554 S
C130 C128 1.358 . S
C130 N131 1.279 . S
C130 H171 0.930 . S
N131 C129 1.314 . S
N131 C130 1.279 . S
C132 C134 1.353 . S
C132 N135 1.314 . S
C132 H138 0.930 . S
C133 N135 1.279 . S
C133 C136 1.358 . S
C133 H139 0.930 . S
C134 C132 1.353 . S
C134 C137 1.348 . S
C134 H172 0.929 . S
N135 Li90 1.990 . S
N135 C132 1.314 . S
N135 C133 1.279 . S
C136 C133 1.358 . S
C136 C137 1.356 . S
C136 H173 0.930 . S
C137 C134 1.348 . S
C137 C136 1.356 . S
H138 C132 0.930 . S
H139 C133 0.930 . S
C140 N141 1.314 . S
C140 C142 1.353 . S
C140 H146 0.930 . S
N141 Li91 1.990 . S
N141 C140 1.314 . S
N141 C144 1.279 . S
C142 C140 1.353 . S
C142 C145 1.348 . S
C142 H174 0.929 . S
C143 C144 1.358 . S
C143 C145 1.356 . S
C143 H175 0.930 . S
C144 N141 1.279 . S
C144 C143 1.358 . S
C144 H147 0.930 . S
C145 C142 1.348 . S
C145 C143 1.356 . S
H146 C140 0.930 . S
H147 C144 0.930 . S
O148 Li88 1.956 1_554 S
O148 Li89 1.970 . S
O148 Li90 1.961 1_554 S
O148 C92 1.325 1_554 S
O149 Li88 1.955 1_554 S
O149 Li89 1.956 . S
O149 Li91 1.961 . S
O149 C98 1.325 . S
O150 Li88 1.971 . S
O150 Li90 1.956 . S
O150 Li91 1.970 1_556 S
O150 C120 1.325 . S
O151 Li89 1.961 . S
O151 Li90 1.970 1_554 S
O151 Li91 1.956 . S
O151 C126 1.325 . S
H152 C94 0.929 . S
H153 C95 0.930 . S
H154 C96 0.930 . S
H155 C97 0.930 . S
H156 C99 0.930 . S
H157 C101 0.929 . S
H158 C102 0.930 . S
H159 C103 0.930 . S
H160 C106 0.930 . S
H161 C109 0.929 . S
H162 C114 0.929 . S
H163 C115 0.930 . S
H164 C122 0.929 . S
H165 C123 0.930 . S
H166 C124 0.930 . S
H167 C125 0.930 . S
H168 C127 0.929 . S
H169 C128 0.930 . S
H170 C129 0.930 1_556 S
H171 C130 0.930 . S
H172 C134 0.929 . S
H173 C136 0.930 . S
H174 C142 0.929 . S
H175 C143 0.930 . S
Li176 N193 1.994 . S
Li176 O236 1.956 1_556 S
Li176 O237 1.955 1_556 S
Li176 O238 1.971 . S
Li177 N201 1.990 . S
Li177 O236 1.970 . S
Li177 O237 1.956 . S
Li177 O239 1.961 1_545 S
Li178 N223 1.990 . S
Li178 O236 1.961 1_556 S
Li178 O238 1.956 . S
Li178 O239 1.970 1_546 S
Li179 N229 1.990 . S
Li179 O237 1.961 1_565 S
Li179 O238 1.970 1_564 S
Li179 O239 1.956 . S
C180 C182 1.348 1_556 S
C180 C183 1.356 . S
C180 O236 1.325 1_556 S
N181 C184 1.314 1_556 S
N181 C185 1.279 . S
C182 C180 1.348 1_554 S
C182 C184 1.353 . S
C182 H240 0.929 . S
C183 C180 1.356 . S
C183 C185 1.358 . S
C183 H241 0.930 . S
C184 N181 1.314 1_554 S
C184 C182 1.353 . S
C184 H242 0.930 . S
C185 N181 1.279 . S
C185 C183 1.358 . S
C185 H243 0.930 . S
C186 C189 1.348 . S
C186 C190 1.356 . S
C186 O237 1.325 . S
C187 N188 1.279 . S
C187 C190 1.358 . S
C187 H244 0.930 1_545 S
N188 C187 1.279 . S
N188 C191 1.314 . S
C189 C186 1.348 . S
C189 C191 1.353 . S
C189 H245 0.929 . S
C190 C186 1.356 . S
C190 C187 1.358 . S
C190 H246 0.930 1_545 S
C191 N188 1.314 . S
C191 C189 1.353 . S
C191 H247 0.930 . S
C192 N193 1.314 . S
C192 C197 1.353 . S
C192 H198 0.930 . S
N193 Li176 1.994 . S
N193 C192 1.314 . S
N193 C195 1.279 . S
C194 C195 1.358 . S
C194 C196 1.356 . S
C194 H248 0.930 . S
C195 N193 1.279 . S
C195 C194 1.358 . S
C195 H199 0.930 . S
C196 C194 1.356 . S
C196 C197 1.348 . S
C197 C192 1.353 . S
C197 C196 1.348 . S
C197 H249 0.929 . S
H198 C192 0.930 . S
H199 C195 0.930 . S
C200 N201 1.314 . S
C200 C202 1.353 . S
C200 H206 0.930 . S
N201 Li177 1.990 . S
N201 C200 1.314 . S
N201 C204 1.279 . S
C202 C200 1.353 . S
C202 C205 1.348 . S
C202 H250 0.929 . S
C203 C204 1.358 . S
C203 C205 1.356 . S
C203 H251 0.930 . S
C204 N201 1.279 . S
C204 C203 1.358 . S
C204 H207 0.930 . S
C205 C202 1.348 . S
C205 C203 1.356 . S
H206 C200 0.930 . S
H207 C204 0.930 . S
C208 C210 1.348 1_545 S
C208 C211 1.356 . S
C208 O238 1.325 . S
N209 C212 1.314 . S
N209 C213 1.279 1_565 S
C210 C208 1.348 1_565 S
C210 C212 1.353 . S
C210 H252 0.929 . S
C211 C208 1.356 . S
C211 C213 1.358 . S
C211 H253 0.930 . S
C212 N209 1.314 . S
C212 C210 1.353 . S
C212 H254 0.930 . S
C213 N209 1.279 1_545 S
C213 C211 1.358 . S
C213 H255 0.930 . S
C214 C215 1.348 1_554 S
C214 C216 1.356 . S
C214 O239 1.325 . S
C215 C214 1.348 1_556 S
C215 C217 1.353 1_556 S
C215 H256 0.929 . S
C216 C214 1.356 . S
C216 C218 1.358 . S
C216 H257 0.930 . S
C217 C215 1.353 1_554 S
C217 N219 1.314 . S
C217 H258 0.930 1_554 S
C218 C216 1.358 . S
C218 N219 1.279 . S
C218 H259 0.930 . S
N219 C217 1.314 . S
N219 C218 1.279 . S
C220 C222 1.353 . S
C220 N223 1.314 . S
C220 H226 0.930 . S
C221 N223 1.279 1_565 S
C221 C224 1.358 . S
C221 H227 0.930 . S
C222 C220 1.353 . S
C222 C225 1.348 1_545 S
C222 H260 0.929 . S
N223 Li178 1.990 . S
N223 C220 1.314 . S
N223 C221 1.279 1_545 S
C224 C221 1.358 . S
C224 C225 1.356 . S
C224 H261 0.930 . S
C225 C222 1.348 1_565 S
C225 C224 1.356 . S
H226 C220 0.930 . S
H227 C221 0.930 . S
C228 N229 1.314 . S
C228 C230 1.353 . S
C228 H234 0.930 . S
N229 Li179 1.990 . S
N229 C228 1.314 . S
N229 C232 1.279 . S
C230 C228 1.353 . S
C230 C233 1.348 . S
C230 H262 0.929 . S
C231 C232 1.358 . S
C231 C233 1.356 . S
C231 H263 0.930 . S
C232 N229 1.279 . S
C232 C231 1.358 . S
C232 H235 0.930 . S
C233 C230 1.348 . S
C233 C231 1.356 . S
H234 C228 0.930 . S
H235 C232 0.930 . S
O236 Li176 1.956 1_554 S
O236 Li177 1.970 . S
O236 Li178 1.961 1_554 S
O236 C180 1.325 1_554 S
O237 Li176 1.955 1_554 S
O237 Li177 1.956 . S
O237 Li179 1.961 1_545 S
O237 C186 1.325 . S
O238 Li176 1.971 . S
O238 Li178 1.956 . S
O238 Li179 1.970 1_546 S
O238 C208 1.325 . S
O239 Li177 1.961 1_565 S
O239 Li178 1.970 1_564 S
O239 Li179 1.956 . S
O239 C214 1.325 . S
H240 C182 0.929 . S
H241 C183 0.930 . S
H242 C184 0.930 . S
H243 C185 0.930 . S
H244 C187 0.930 1_565 S
H245 C189 0.929 . S
H246 C190 0.930 1_565 S
H247 C191 0.930 . S
H248 C194 0.930 . S
H249 C197 0.929 . S
H250 C202 0.929 . S
H251 C203 0.930 . S
H252 C210 0.929 . S
H253 C211 0.930 . S
H254 C212 0.930 . S
H255 C213 0.930 . S
H256 C215 0.929 . S
H257 C216 0.930 . S
H258 C217 0.930 1_556 S
H259 C218 0.930 . S
H260 C222 0.929 . S
H261 C224 0.930 . S
H262 C230 0.929 . S
H263 C231 0.930 . S
Li264 N281 1.990 . S
Li264 O324 1.956 . S
Li264 O325 1.970 . S
Li264 O326 1.961 . S
Li265 N289 1.990 . S
Li265 O324 1.970 . S
Li265 O325 1.956 . S
Li265 O327 1.961 . S
Li266 N311 1.990 . S
Li266 O324 1.961 . S
Li266 O326 1.956 . S
Li266 O327 1.970 . S
Li267 N317 1.990 . S
Li267 O325 1.961 . S
Li267 O326 1.970 . S
Li267 O327 1.956 . S
C268 C270 1.348 . S
C268 C271 1.356 . S
C268 O324 1.325 . S
N269 C272 1.314 . S
N269 C273 1.279 . S
C270 C268 1.348 . S
C270 C272 1.353 . S
C270 H328 0.929 . S
C271 C268 1.356 . S
C271 C273 1.358 . S
C271 H329 0.930 . S
C272 N269 1.314 . S
C272 C270 1.353 . S
C272 H330 0.930 . S
C273 N269 1.279 . S
C273 C271 1.358 . S
C273 H331 0.930 . S
C274 C277 1.348 . S
C274 C278 1.356 . S
C274 O325 1.325 . S
C275 N276 1.279 . S
C275 C278 1.358 . S
C275 H332 0.930 . S
N276 C275 1.279 . S
N276 C279 1.314 . S
C277 C274 1.348 . S
C277 C279 1.353 . S
C277 H333 0.929 . S
C278 C274 1.356 . S
C278 C275 1.358 . S
C278 H334 0.930 . S
C279 N276 1.314 . S
C279 C277 1.353 . S
C279 H335 0.930 . S
C280 N281 1.314 . S
C280 C285 1.353 . S
C280 H286 0.930 . S
N281 Li264 1.990 . S
N281 C280 1.314 . S
N281 C283 1.279 . S
C282 C283 1.358 . S
C282 C284 1.356 . S
C282 H336 0.930 . S
C283 N281 1.279 . S
C283 C282 1.358 . S
C283 H287 0.930 . S
C284 C282 1.356 . S
C284 C285 1.348 . S
C285 C280 1.353 . S
C285 C284 1.348 . S
C285 H337 0.929 . S
H286 C280 0.930 . S
H287 C283 0.930 . S
C288 N289 1.314 . S
C288 C290 1.353 . S
C288 H294 0.930 . S
N289 Li265 1.990 . S
N289 C288 1.314 . S
N289 C292 1.279 . S
C290 C288 1.353 . S
C290 C293 1.348 . S
C290 H338 0.929 . S
C291 C292 1.358 . S
C291 C293 1.356 . S
C291 H339 0.930 . S
C292 N289 1.279 . S
C292 C291 1.358 . S
C292 H295 0.930 . S
C293 C290 1.348 . S
C293 C291 1.356 . S
H294 C288 0.930 . S
H295 C292 0.930 . S
C296 C298 1.348 . S
C296 C299 1.356 . S
C296 O326 1.325 . S
N297 C300 1.314 . S
N297 C301 1.279 . S
C298 C296 1.348 . S
C298 C300 1.353 . S
C298 H340 0.929 . S
C299 C296 1.356 . S
C299 C301 1.358 . S
C299 H341 0.930 . S
C300 N297 1.314 . S
C300 C298 1.353 . S
C300 H342 0.930 . S
C301 N297 1.279 . S
C301 C299 1.358 . S
C301 H343 0.930 . S
C302 C303 1.348 . S
C302 C304 1.356 . S
C302 O327 1.325 . S
C303 C302 1.348 . S
C303 C305 1.353 . S
C303 H344 0.929 . S
C304 C302 1.356 . S
C304 C306 1.358 . S
C304 H345 0.930 . S
C305 C303 1.353 . S
C305 N307 1.314 . S
C305 H346 0.930 . S
C306 C304 1.358 . S
C306 N307 1.279 . S
C306 H347 0.930 . S
N307 C305 1.314 . S
N307 C306 1.279 . S
C308 C310 1.353 . S
C308 N311 1.314 . S
C308 H314 0.930 . S
C309 N311 1.279 . S
C309 C312 1.358 . S
C309 H315 0.930 . S
C310 C308 1.353 . S
C310 C313 1.348 . S
C310 H348 0.929 . S
N311 Li266 1.990 . S
N311 C308 1.314 . S
N311 C309 1.279 . S
C312 C309 1.358 . S
C312 C313 1.356 . S
C312 H349 0.930 . S
C313 C310 1.348 . S
C313 C312 1.356 . S
H314 C308 0.930 . S
H315 C309 0.930 . S
C316 N317 1.314 . S
C316 C318 1.353 . S
C316 H322 0.930 . S
N317 Li267 1.990 . S
N317 C316 1.314 . S
N317 C320 1.279 . S
C318 C316 1.353 . S
C318 C321 1.348 . S
C318 H350 0.929 . S
C319 C320 1.358 . S
C319 C321 1.356 . S
C319 H351 0.930 . S
C320 N317 1.279 . S
C320 C319 1.358 . S
C320 H323 0.930 . S
C321 C318 1.348 . S
C321 C319 1.356 . S
H322 C316 0.930 . S
H323 C320 0.930 . S
O324 Li264 1.956 . S
O324 Li265 1.970 . S
O324 Li266 1.961 . S
O324 C268 1.325 . S
O325 Li264 1.970 . S
O325 Li265 1.956 . S
O325 Li267 1.961 . S
O325 C274 1.325 . S
O326 Li264 1.961 . S
O326 Li266 1.956 . S
O326 Li267 1.970 . S
O326 C296 1.325 . S
O327 Li265 1.961 . S
O327 Li266 1.970 . S
O327 Li267 1.956 . S
O327 C302 1.325 . S
H328 C270 0.929 . S
H329 C271 0.930 . S
H330 C272 0.930 . S
H331 C273 0.930 . S
H332 C275 0.930 . S
H333 C277 0.929 . S
H334 C278 0.930 . S
H335 C279 0.930 . S
H336 C282 0.930 . S
H337 C285 0.929 . S
H338 C290 0.929 . S
H339 C291 0.930 . S
H340 C298 0.929 . S
H341 C299 0.930 . S
H342 C300 0.930 . S
H343 C301 0.930 . S
H344 C303 0.929 . S
H345 C304 0.930 . S
H346 C305 0.930 . S
H347 C306 0.930 . S
H348 C310 0.929 . S
H349 C312 0.930 . S
H350 C318 0.929 . S
H351 C319 0.930 . S
Li352 N369 1.990 . S
Li352 O412 1.956 . S
Li352 O413 1.970 . S
Li352 O414 1.961 . S
Li353 N377 1.990 . S
Li353 O412 1.970 . S
Li353 O413 1.956 . S
Li353 O415 1.961 . S
Li354 N399 1.990 . S
Li354 O412 1.961 . S
Li354 O414 1.956 . S
Li354 O415 1.970 . S
Li355 N405 1.990 . S
Li355 O413 1.961 . S
Li355 O414 1.970 . S
Li355 O415 1.956 . S
C356 C358 1.348 . S
C356 C359 1.356 . S
C356 O412 1.325 . S
N357 C360 1.314 . S
N357 C361 1.279 . S
C358 C356 1.348 . S
C358 C360 1.353 . S
C358 H416 0.929 . S
C359 C356 1.356 . S
C359 C361 1.358 . S
C359 H417 0.930 . S
C360 N357 1.314 . S
C360 C358 1.353 . S
C360 H418 0.930 . S
C361 N357 1.279 . S
C361 C359 1.358 . S
C361 H419 0.930 . S
C362 C365 1.348 . S
C362 C366 1.356 . S
C362 O413 1.325 . S
C363 N364 1.279 . S
C363 C366 1.358 . S
C363 H420 0.930 . S
N364 C363 1.279 . S
N364 C367 1.314 . S
C365 C362 1.348 . S
C365 C367 1.353 . S
C365 H421 0.929 . S
C366 C362 1.356 . S
C366 C363 1.358 . S
C366 H422 0.930 . S
C367 N364 1.314 . S
C367 C365 1.353 . S
C367 H423 0.930 . S
C368 N369 1.314 . S
C368 C373 1.353 . S
C368 H374 0.930 . S
N369 Li352 1.990 . S
N369 C368 1.314 . S
N369 C371 1.279 . S
C370 C371 1.358 . S
C370 C372 1.356 . S
C370 H424 0.930 . S
C371 N369 1.279 . S
C371 C370 1.358 . S
C371 H375 0.930 . S
C372 C370 1.356 . S
C372 C373 1.348 . S
C373 C368 1.353 . S
C373 C372 1.348 . S
C373 H425 0.929 . S
H374 C368 0.930 . S
H375 C371 0.930 . S
C376 N377 1.314 . S
C376 C378 1.353 . S
C376 H382 0.930 . S
N377 Li353 1.990 . S
N377 C376 1.314 . S
N377 C380 1.279 . S
C378 C376 1.353 . S
C378 C381 1.348 . S
C378 H426 0.929 . S
C379 C380 1.358 . S
C379 C381 1.356 . S
C379 H427 0.930 . S
C380 N377 1.279 . S
C380 C379 1.358 . S
C380 H383 0.930 . S
C381 C378 1.348 . S
C381 C379 1.356 . S
H382 C376 0.930 . S
H383 C380 0.930 . S
C384 C386 1.348 . S
C384 C387 1.356 . S
C384 O414 1.325 . S
N385 C388 1.314 . S
N385 C389 1.279 . S
C386 C384 1.348 . S
C386 C388 1.353 . S
C386 H428 0.929 . S
C387 C384 1.356 . S
C387 C389 1.358 . S
C387 H429 0.930 . S
C388 N385 1.314 . S
C388 C386 1.353 . S
C388 H430 0.930 . S
C389 N385 1.279 . S
C389 C387 1.358 . S
C389 H431 0.930 . S
C390 C391 1.348 . S
C390 C392 1.356 . S
C390 O415 1.325 . S
C391 C390 1.348 . S
C391 C393 1.353 . S
C391 H432 0.929 . S
C392 C390 1.356 . S
C392 C394 1.358 . S
C392 H433 0.930 . S
C393 C391 1.353 . S
C393 N395 1.314 . S
C393 H434 0.930 . S
C394 C392 1.358 . S
C394 N395 1.279 . S
C394 H435 0.930 . S
N395 C393 1.314 . S
N395 C394 1.279 . S
C396 C398 1.353 . S
C396 N399 1.314 . S
C396 H402 0.930 . S
C397 N399 1.279 . S
C397 C400 1.358 . S
C397 H403 0.930 . S
C398 C396 1.353 . S
C398 C401 1.348 . S
C398 H436 0.929 . S
N399 Li354 1.990 . S
N399 C396 1.314 . S
N399 C397 1.279 . S
C400 C397 1.358 . S
C400 C401 1.356 . S
C400 H437 0.930 . S
C401 C398 1.348 . S
C401 C400 1.356 . S
H402 C396 0.930 . S
H403 C397 0.930 . S
C404 N405 1.314 . S
C404 C406 1.353 . S
C404 H410 0.930 . S
N405 Li355 1.990 . S
N405 C404 1.314 . S
N405 C408 1.279 . S
C406 C404 1.353 . S
C406 C409 1.348 . S
C406 H438 0.929 . S
C407 C408 1.358 . S
C407 C409 1.356 . S
C407 H439 0.930 . S
C408 N405 1.279 . S
C408 C407 1.358 . S
C408 H411 0.930 . S
C409 C406 1.348 . S
C409 C407 1.356 . S
H410 C404 0.930 . S
H411 C408 0.930 . S
O412 Li352 1.956 . S
O412 Li353 1.970 . S
O412 Li354 1.961 . S
O412 C356 1.325 . S
O413 Li352 1.970 . S
O413 Li353 1.956 . S
O413 Li355 1.961 . S
O413 C362 1.325 . S
O414 Li352 1.961 . S
O414 Li354 1.956 . S
O414 Li355 1.970 . S
O414 C384 1.325 . S
O415 Li353 1.961 . S
O415 Li354 1.970 . S
O415 Li355 1.956 . S
O415 C390 1.325 . S
H416 C358 0.929 . S
H417 C359 0.930 . S
H418 C360 0.930 . S
H419 C361 0.930 . S
H420 C363 0.930 . S
H421 C365 0.929 . S
H422 C366 0.930 . S
H423 C367 0.930 . S
H424 C370 0.930 . S
H425 C373 0.929 . S
H426 C378 0.929 . S
H427 C379 0.930 . S
H428 C386 0.929 . S
H429 C387 0.930 . S
H430 C388 0.930 . S
H431 C389 0.930 . S
H432 C391 0.929 . S
H433 C392 0.930 . S
H434 C393 0.930 . S
H435 C394 0.930 . S
H436 C398 0.929 . S
H437 C400 0.930 . S
H438 C406 0.929 . S
H439 C407 0.930 . S
Li440 N457 1.990 . S
Li440 O500 1.956 . S
Li440 O501 1.970 . S
Li440 O502 1.961 . S
Li441 N465 1.990 . S
Li441 O500 1.970 . S
Li441 O501 1.956 . S
Li441 O503 1.961 . S
Li442 N487 1.990 . S
Li442 O500 1.961 . S
Li442 O502 1.956 . S
Li442 O503 1.970 . S
Li443 N493 1.990 . S
Li443 O501 1.961 . S
Li443 O502 1.970 . S
Li443 O503 1.956 . S
C444 C446 1.348 . S
C444 C447 1.356 . S
C444 O500 1.325 . S
N445 C448 1.314 . S
N445 C449 1.279 . S
C446 C444 1.348 . S
C446 C448 1.353 . S
C446 H504 0.929 . S
C447 C444 1.356 . S
C447 C449 1.358 . S
C447 H505 0.930 . S
C448 N445 1.314 . S
C448 C446 1.353 . S
C448 H506 0.930 . S
C449 N445 1.279 . S
C449 C447 1.358 . S
C449 H507 0.930 . S
C450 C453 1.348 . S
C450 C454 1.356 . S
C450 O501 1.325 . S
C451 N452 1.279 . S
C451 C454 1.358 . S
C451 H508 0.930 . S
N452 C451 1.279 . S
N452 C455 1.314 . S
C453 C450 1.348 . S
C453 C455 1.353 . S
C453 H509 0.929 . S
C454 C450 1.356 . S
C454 C451 1.358 . S
C454 H510 0.930 . S
C455 N452 1.314 . S
C455 C453 1.353 . S
C455 H511 0.930 . S
C456 N457 1.314 . S
C456 C461 1.353 . S
C456 H462 0.930 . S
N457 Li440 1.990 . S
N457 C456 1.314 . S
N457 C459 1.279 . S
C458 C459 1.358 . S
C458 C460 1.356 . S
C458 H512 0.930 . S
C459 N457 1.279 . S
C459 C458 1.358 . S
C459 H463 0.930 . S
C460 C458 1.356 . S
C460 C461 1.348 . S
C461 C456 1.353 . S
C461 C460 1.348 . S
C461 H513 0.929 . S
H462 C456 0.930 . S
H463 C459 0.930 . S
C464 N465 1.314 . S
C464 C466 1.353 . S
C464 H470 0.930 . S
N465 Li441 1.990 . S
N465 C464 1.314 . S
N465 C468 1.279 . S
C466 C464 1.353 . S
C466 C469 1.348 . S
C466 H514 0.929 . S
C467 C468 1.358 . S
C467 C469 1.356 . S
C467 H515 0.930 . S
C468 N465 1.279 . S
C468 C467 1.358 . S
C468 H471 0.930 . S
C469 C466 1.348 . S
C469 C467 1.356 . S
H470 C464 0.930 . S
H471 C468 0.930 . S
C472 C474 1.348 . S
C472 C475 1.356 . S
C472 O502 1.325 . S
N473 C476 1.314 . S
N473 C477 1.279 . S
C474 C472 1.348 . S
C474 C476 1.353 . S
C474 H516 0.929 . S
C475 C472 1.356 . S
C475 C477 1.358 . S
C475 H517 0.930 . S
C476 N473 1.314 . S
C476 C474 1.353 . S
C476 H518 0.930 . S
C477 N473 1.279 . S
C477 C475 1.358 . S
C477 H519 0.930 . S
C478 C479 1.348 . S
C478 C480 1.356 . S
C478 O503 1.325 . S
C479 C478 1.348 . S
C479 C481 1.353 . S
C479 H520 0.929 . S
C480 C478 1.356 . S
C480 C482 1.358 . S
C480 H521 0.930 . S
C481 C479 1.353 . S
C481 N483 1.314 . S
C481 H522 0.930 . S
C482 C480 1.358 . S
C482 N483 1.279 . S
C482 H523 0.930 . S
N483 C481 1.314 . S
N483 C482 1.279 . S
C484 C486 1.353 . S
C484 N487 1.314 . S
C484 H490 0.930 . S
C485 N487 1.279 . S
C485 C488 1.358 . S
C485 H491 0.930 . S
C486 C484 1.353 . S
C486 C489 1.348 . S
C486 H524 0.929 . S
N487 Li442 1.990 . S
N487 C484 1.314 . S
N487 C485 1.279 . S
C488 C485 1.358 . S
C488 C489 1.356 . S
C488 H525 0.930 . S
C489 C486 1.348 . S
C489 C488 1.356 . S
H490 C484 0.930 . S
H491 C485 0.930 . S
C492 N493 1.314 . S
C492 C494 1.353 . S
C492 H498 0.930 . S
N493 Li443 1.990 . S
N493 C492 1.314 . S
N493 C496 1.279 . S
C494 C492 1.353 . S
C494 C497 1.348 . S
C494 H526 0.929 . S
C495 C496 1.358 . S
C495 C497 1.356 . S
C495 H527 0.930 . S
C496 N493 1.279 . S
C496 C495 1.358 . S
C496 H499 0.930 . S
C497 C494 1.348 . S
C497 C495 1.356 . S
H498 C492 0.930 . S
H499 C496 0.930 . S
O500 Li440 1.956 . S
O500 Li441 1.970 . S
O500 Li442 1.961 . S
O500 C444 1.325 . S
O501 Li440 1.970 . S
O501 Li441 1.956 . S
O501 Li443 1.961 . S
O501 C450 1.325 . S
O502 Li440 1.961 . S
O502 Li442 1.956 . S
O502 Li443 1.970 . S
O502 C472 1.325 . S
O503 Li441 1.961 . S
O503 Li442 1.970 . S
O503 Li443 1.956 . S
O503 C478 1.325 . S
H504 C446 0.929 . S
H505 C447 0.930 . S
H506 C448 0.930 . S
H507 C449 0.930 . S
H508 C451 0.930 . S
H509 C453 0.929 . S
H510 C454 0.930 . S
H511 C455 0.930 . S
H512 C458 0.930 . S
H513 C461 0.929 . S
H514 C466 0.929 . S
H515 C467 0.930 . S
H516 C474 0.929 . S
H517 C475 0.930 . S
H518 C476 0.930 . S
H519 C477 0.930 . S
H520 C479 0.929 . S
H521 C480 0.930 . S
H522 C481 0.930 . S
H523 C482 0.930 . S
H524 C486 0.929 . S
H525 C488 0.930 . S
H526 C494 0.929 . S
H527 C495 0.930 . S
Li528 N545 1.990 . S
Li528 O588 1.956 . S
Li528 O589 1.970 . S
Li528 O590 1.961 . S
Li529 N553 1.990 . S
Li529 O588 1.970 . S
Li529 O589 1.956 . S
Li529 O591 1.961 . S
Li530 N575 1.990 . S
Li530 O588 1.961 . S
Li530 O590 1.956 . S
Li530 O591 1.970 . S
Li531 N581 1.990 . S
Li531 O589 1.961 . S
Li531 O590 1.970 . S
Li531 O591 1.956 . S
C532 C534 1.348 . S
C532 C535 1.356 . S
C532 O588 1.325 . S
N533 C536 1.314 . S
N533 C537 1.279 . S
C534 C532 1.348 . S
C534 C536 1.353 . S
C534 H592 0.929 . S
C535 C532 1.356 . S
C535 C537 1.358 . S
C535 H593 0.930 . S
C536 N533 1.314 . S
C536 C534 1.353 . S
C536 H594 0.930 . S
C537 N533 1.279 . S
C537 C535 1.358 . S
C537 H595 0.930 . S
C538 C541 1.348 . S
C538 C542 1.356 . S
C538 O589 1.325 . S
C539 N540 1.279 . S
C539 C542 1.358 . S
C539 H596 0.930 . S
N540 C539 1.279 . S
N540 C543 1.314 . S
C541 C538 1.348 . S
C541 C543 1.353 . S
C541 H597 0.929 . S
C542 C538 1.356 . S
C542 C539 1.358 . S
C542 H598 0.930 . S
C543 N540 1.314 . S
C543 C541 1.353 . S
C543 H599 0.930 . S
C544 N545 1.314 . S
C544 C549 1.353 . S
C544 H550 0.930 . S
N545 Li528 1.990 . S
N545 C544 1.314 . S
N545 C547 1.279 . S
C546 C547 1.358 . S
C546 C548 1.356 . S
C546 H600 0.930 . S
C547 N545 1.279 . S
C547 C546 1.358 . S
C547 H551 0.930 . S
C548 C546 1.356 . S
C548 C549 1.348 . S
C549 C544 1.353 . S
C549 C548 1.348 . S
C549 H601 0.929 . S
H550 C544 0.930 . S
H551 C547 0.930 . S
C552 N553 1.314 . S
C552 C554 1.353 . S
C552 H558 0.930 . S
N553 Li529 1.990 . S
N553 C552 1.314 . S
N553 C556 1.279 . S
C554 C552 1.353 . S
C554 C557 1.348 . S
C554 H602 0.929 . S
C555 C556 1.358 . S
C555 C557 1.356 . S
C555 H603 0.930 . S
C556 N553 1.279 . S
C556 C555 1.358 . S
C556 H559 0.930 . S
C557 C554 1.348 . S
C557 C555 1.356 . S
H558 C552 0.930 . S
H559 C556 0.930 . S
C560 C562 1.348 . S
C560 C563 1.356 . S
C560 O590 1.325 . S
N561 C564 1.314 . S
N561 C565 1.279 . S
C562 C560 1.348 . S
C562 C564 1.353 . S
C562 H604 0.929 . S
C563 C560 1.356 . S
C563 C565 1.358 . S
C563 H605 0.930 . S
C564 N561 1.314 . S
C564 C562 1.353 . S
C564 H606 0.930 . S
C565 N561 1.279 . S
C565 C563 1.358 . S
C565 H607 0.930 . S
C566 C567 1.348 . S
C566 C568 1.356 . S
C566 O591 1.325 . S
C567 C566 1.348 . S
C567 C569 1.353 . S
C567 H608 0.929 . S
C568 C566 1.356 . S
C568 C570 1.358 . S
C568 H609 0.930 . S
C569 C567 1.353 . S
C569 N571 1.314 . S
C569 H610 0.930 . S
C570 C568 1.358 . S
C570 N571 1.279 . S
C570 H611 0.930 . S
N571 C569 1.314 . S
N571 C570 1.279 . S
C572 C574 1.353 . S
C572 N575 1.314 . S
C572 H578 0.930 . S
C573 N575 1.279 . S
C573 C576 1.358 . S
C573 H579 0.930 . S
C574 C572 1.353 . S
C574 C577 1.348 . S
C574 H612 0.929 . S
N575 Li530 1.990 . S
N575 C572 1.314 . S
N575 C573 1.279 . S
C576 C573 1.358 . S
C576 C577 1.356 . S
C576 H613 0.930 . S
C577 C574 1.348 . S
C577 C576 1.356 . S
H578 C572 0.930 . S
H579 C573 0.930 . S
C580 N581 1.314 . S
C580 C582 1.353 . S
C580 H586 0.930 . S
N581 Li531 1.990 . S
N581 C580 1.314 . S
N581 C584 1.279 . S
C582 C580 1.353 . S
C582 C585 1.348 . S
C582 H614 0.929 . S
C583 C584 1.358 . S
C583 C585 1.356 . S
C583 H615 0.930 . S
C584 N581 1.279 . S
C584 C583 1.358 . S
C584 H587 0.930 . S
C585 C582 1.348 . S
C585 C583 1.356 . S
H586 C580 0.930 . S
H587 C584 0.930 . S
O588 Li528 1.956 . S
O588 Li529 1.970 . S
O588 Li530 1.961 . S
O588 C532 1.325 . S
O589 Li528 1.970 . S
O589 Li529 1.956 . S
O589 Li531 1.961 . S
O589 C538 1.325 . S
O590 Li528 1.961 . S
O590 Li530 1.956 . S
O590 Li531 1.970 . S
O590 C560 1.325 . S
O591 Li529 1.961 . S
O591 Li530 1.970 . S
O591 Li531 1.956 . S
O591 C566 1.325 . S
H592 C534 0.929 . S
H593 C535 0.930 . S
H594 C536 0.930 . S
H595 C537 0.930 . S
H596 C539 0.930 . S
H597 C541 0.929 . S
H598 C542 0.930 . S
H599 C543 0.930 . S
H600 C546 0.930 . S
H601 C549 0.929 . S
H602 C554 0.929 . S
H603 C555 0.930 . S
H604 C562 0.929 . S
H605 C563 0.930 . S
H606 C564 0.930 . S
H607 C565 0.930 . S
H608 C567 0.929 . S
H609 C568 0.930 . S
H610 C569 0.930 . S
H611 C570 0.930 . S
H612 C574 0.929 . S
H613 C576 0.930 . S
H614 C582 0.929 . S
H615 C583 0.930 . S
Li616 N633 1.990 . S
Li616 O676 1.956 . S
Li616 O677 1.970 . S
Li616 O678 1.961 . S
Li617 N641 1.990 . S
Li617 O676 1.970 . S
Li617 O677 1.956 . S
Li617 O679 1.961 . S
Li618 N663 1.990 . S
Li618 O676 1.961 . S
Li618 O678 1.956 . S
Li618 O679 1.970 . S
Li619 N669 1.990 . S
Li619 O677 1.961 . S
Li619 O678 1.970 . S
Li619 O679 1.956 . S
C620 C622 1.348 . S
C620 C623 1.356 . S
C620 O676 1.325 . S
N621 C624 1.314 . S
N621 C625 1.279 . S
C622 C620 1.348 . S
C622 C624 1.353 . S
C622 H680 0.929 . S
C623 C620 1.356 . S
C623 C625 1.358 . S
C623 H681 0.930 . S
C624 N621 1.314 . S
C624 C622 1.353 . S
C624 H682 0.930 . S
C625 N621 1.279 . S
C625 C623 1.358 . S
C625 H683 0.930 . S
C626 C629 1.348 . S
C626 C630 1.356 . S
C626 O677 1.325 . S
C627 N628 1.279 . S
C627 C630 1.358 . S
C627 H684 0.930 . S
N628 C627 1.279 . S
N628 C631 1.314 . S
C629 C626 1.348 . S
C629 C631 1.353 . S
C629 H685 0.929 . S
C630 C626 1.356 . S
C630 C627 1.358 . S
C630 H686 0.930 . S
C631 N628 1.314 . S
C631 C629 1.353 . S
C631 H687 0.930 . S
C632 N633 1.314 . S
C632 C637 1.353 . S
C632 H638 0.930 . S
N633 Li616 1.990 . S
N633 C632 1.314 . S
N633 C635 1.279 . S
C634 C635 1.358 . S
C634 C636 1.356 . S
C634 H688 0.930 . S
C635 N633 1.279 . S
C635 C634 1.358 . S
C635 H639 0.930 . S
C636 C634 1.356 . S
C636 C637 1.348 . S
C637 C632 1.353 . S
C637 C636 1.348 . S
C637 H689 0.929 . S
H638 C632 0.930 . S
H639 C635 0.930 . S
C640 N641 1.314 . S
C640 C642 1.353 . S
C640 H646 0.930 . S
N641 Li617 1.990 . S
N641 C640 1.314 . S
N641 C644 1.279 . S
C642 C640 1.353 . S
C642 C645 1.348 . S
C642 H690 0.929 . S
C643 C644 1.358 . S
C643 C645 1.356 . S
C643 H691 0.930 . S
C644 N641 1.279 . S
C644 C643 1.358 . S
C644 H647 0.930 . S
C645 C642 1.348 . S
C645 C643 1.356 . S
H646 C640 0.930 . S
H647 C644 0.930 . S
C648 C650 1.348 . S
C648 C651 1.356 . S
C648 O678 1.325 . S
N649 C652 1.314 . S
N649 C653 1.279 . S
C650 C648 1.348 . S
C650 C652 1.353 . S
C650 H692 0.929 . S
C651 C648 1.356 . S
C651 C653 1.358 . S
C651 H693 0.930 . S
C652 N649 1.314 . S
C652 C650 1.353 . S
C652 H694 0.930 . S
C653 N649 1.279 . S
C653 C651 1.358 . S
C653 H695 0.930 . S
C654 C655 1.348 . S
C654 C656 1.356 . S
C654 O679 1.325 . S
C655 C654 1.348 . S
C655 C657 1.353 . S
C655 H696 0.929 . S
C656 C654 1.356 . S
C656 C658 1.358 . S
C656 H697 0.930 . S
C657 C655 1.353 . S
C657 N659 1.314 . S
C657 H698 0.930 . S
C658 C656 1.358 . S
C658 N659 1.279 . S
C658 H699 0.930 . S
N659 C657 1.314 . S
N659 C658 1.279 . S
C660 C662 1.353 . S
C660 N663 1.314 . S
C660 H666 0.930 . S
C661 N663 1.279 . S
C661 C664 1.358 . S
C661 H667 0.930 . S
C662 C660 1.353 . S
C662 C665 1.348 . S
C662 H700 0.929 . S
N663 Li618 1.990 . S
N663 C660 1.314 . S
N663 C661 1.279 . S
C664 C661 1.358 . S
C664 C665 1.356 . S
C664 H701 0.930 . S
C665 C662 1.348 . S
C665 C664 1.356 . S
H666 C660 0.930 . S
H667 C661 0.930 . S
C668 N669 1.314 . S
C668 C670 1.353 . S
C668 H674 0.930 . S
N669 Li619 1.990 . S
N669 C668 1.314 . S
N669 C672 1.279 . S
C670 C668 1.353 . S
C670 C673 1.348 . S
C670 H702 0.929 . S
C671 C672 1.358 . S
C671 C673 1.356 . S
C671 H703 0.930 . S
C672 N669 1.279 . S
C672 C671 1.358 . S
C672 H675 0.930 . S
C673 C670 1.348 . S
C673 C671 1.356 . S
H674 C668 0.930 . S
H675 C672 0.930 . S
O676 Li616 1.956 . S
O676 Li617 1.970 . S
O676 Li618 1.961 . S
O676 C620 1.325 . S
O677 Li616 1.970 . S
O677 Li617 1.956 . S
O677 Li619 1.961 . S
O677 C626 1.325 . S
O678 Li616 1.961 . S
O678 Li618 1.956 . S
O678 Li619 1.970 . S
O678 C648 1.325 . S
O679 Li617 1.961 . S
O679 Li618 1.970 . S
O679 Li619 1.956 . S
O679 C654 1.325 . S
H680 C622 0.929 . S
H681 C623 0.930 . S
H682 C624 0.930 . S
H683 C625 0.930 . S
H684 C627 0.930 . S
H685 C629 0.929 . S
H686 C630 0.930 . S
H687 C631 0.930 . S
H688 C634 0.930 . S
H689 C637 0.929 . S
H690 C642 0.929 . S
H691 C643 0.930 . S
H692 C650 0.929 . S
H693 C651 0.930 . S
H694 C652 0.930 . S
H695 C653 0.930 . S
H696 C655 0.929 . S
H697 C656 0.930 . S
H698 C657 0.930 . S
H699 C658 0.930 . S
H700 C662 0.929 . S
H701 C664 0.930 . S
H702 C670 0.929 . S
H703 C671 0.930 . S
Li704 N721 1.990 . S
Li704 O764 1.956 . S
Li704 O765 1.970 . S
Li704 O766 1.961 . S
Li705 N729 1.990 . S
Li705 O764 1.970 . S
Li705 O765 1.956 . S
Li705 O767 1.961 . S
Li706 N751 1.990 . S
Li706 O764 1.961 . S
Li706 O766 1.956 . S
Li706 O767 1.970 . S
Li707 N757 1.990 . S
Li707 O765 1.961 . S
Li707 O766 1.970 . S
Li707 O767 1.956 . S
C708 C710 1.348 . S
C708 C711 1.356 . S
C708 O764 1.325 . S
N709 C712 1.314 . S
N709 C713 1.279 . S
C710 C708 1.348 . S
C710 C712 1.353 . S
C710 H768 0.929 . S
C711 C708 1.356 . S
C711 C713 1.358 . S
C711 H769 0.930 . S
C712 N709 1.314 . S
C712 C710 1.353 . S
C712 H770 0.930 . S
C713 N709 1.279 . S
C713 C711 1.358 . S
C713 H771 0.930 . S
C714 C717 1.348 . S
C714 C718 1.356 . S
C714 O765 1.325 . S
C715 N716 1.279 . S
C715 C718 1.358 . S
C715 H772 0.930 . S
N716 C715 1.279 . S
N716 C719 1.314 . S
C717 C714 1.348 . S
C717 C719 1.353 . S
C717 H773 0.929 . S
C718 C714 1.356 . S
C718 C715 1.358 . S
C718 H774 0.930 . S
C719 N716 1.314 . S
C719 C717 1.353 . S
C719 H775 0.930 . S
C720 N721 1.314 . S
C720 C725 1.353 . S
C720 H726 0.930 . S
N721 Li704 1.990 . S
N721 C720 1.314 . S
N721 C723 1.279 . S
C722 C723 1.358 . S
C722 C724 1.356 . S
C722 H776 0.930 . S
C723 N721 1.279 . S
C723 C722 1.358 . S
C723 H727 0.930 . S
C724 C722 1.356 . S
C724 C725 1.348 . S
C725 C720 1.353 . S
C725 C724 1.348 . S
C725 H777 0.929 . S
H726 C720 0.930 . S
H727 C723 0.930 . S
C728 N729 1.314 . S
C728 C730 1.353 . S
C728 H734 0.930 . S
N729 Li705 1.990 . S
N729 C728 1.314 . S
N729 C732 1.279 . S
C730 C728 1.353 . S
C730 C733 1.348 . S
C730 H778 0.929 . S
C731 C732 1.358 . S
C731 C733 1.356 . S
C731 H779 0.930 . S
C732 N729 1.279 . S
C732 C731 1.358 . S
C732 H735 0.930 . S
C733 C730 1.348 . S
C733 C731 1.356 . S
H734 C728 0.930 . S
H735 C732 0.930 . S
C736 C738 1.348 . S
C736 C739 1.356 . S
C736 O766 1.325 . S
N737 C740 1.314 . S
N737 C741 1.279 . S
C738 C736 1.348 . S
C738 C740 1.353 . S
C738 H780 0.929 . S
C739 C736 1.356 . S
C739 C741 1.358 . S
C739 H781 0.930 . S
C740 N737 1.314 . S
C740 C738 1.353 . S
C740 H782 0.930 . S
C741 N737 1.279 . S
C741 C739 1.358 . S
C741 H783 0.930 . S
C742 C743 1.348 . S
C742 C744 1.356 . S
C742 O767 1.325 . S
C743 C742 1.348 . S
C743 C745 1.353 . S
C743 H784 0.929 . S
C744 C742 1.356 . S
C744 C746 1.358 . S
C744 H785 0.930 . S
C745 C743 1.353 . S
C745 N747 1.314 . S
C745 H786 0.930 . S
C746 C744 1.358 . S
C746 N747 1.279 . S
C746 H787 0.930 . S
N747 C745 1.314 . S
N747 C746 1.279 . S
C748 C750 1.353 . S
C748 N751 1.314 . S
C748 H754 0.930 . S
C749 N751 1.279 . S
C749 C752 1.358 . S
C749 H755 0.930 . S
C750 C748 1.353 . S
C750 C753 1.348 . S
C750 H788 0.929 . S
N751 Li706 1.990 . S
N751 C748 1.314 . S
N751 C749 1.279 . S
C752 C749 1.358 . S
C752 C753 1.356 . S
C752 H789 0.930 . S
C753 C750 1.348 . S
C753 C752 1.356 . S
H754 C748 0.930 . S
H755 C749 0.930 . S
C756 N757 1.314 . S
C756 C758 1.353 . S
C756 H762 0.930 . S
N757 Li707 1.990 . S
N757 C756 1.314 . S
N757 C760 1.279 . S
C758 C756 1.353 . S
C758 C761 1.348 . S
C758 H790 0.929 . S
C759 C760 1.358 . S
C759 C761 1.356 . S
C759 H791 0.930 . S
C760 N757 1.279 . S
C760 C759 1.358 . S
C760 H763 0.930 . S
C761 C758 1.348 . S
C761 C759 1.356 . S
H762 C756 0.930 . S
H763 C760 0.930 . S
O764 Li704 1.956 . S
O764 Li705 1.970 . S
O764 Li706 1.961 . S
O764 C708 1.325 . S
O765 Li704 1.970 . S
O765 Li705 1.956 . S
O765 Li707 1.961 . S
O765 C714 1.325 . S
O766 Li704 1.961 . S
O766 Li706 1.956 . S
O766 Li707 1.970 . S
O766 C736 1.325 . S
O767 Li705 1.961 . S
O767 Li706 1.970 . S
O767 Li707 1.956 . S
O767 C742 1.325 . S
H768 C710 0.929 . S
H769 C711 0.930 . S
H770 C712 0.930 . S
H771 C713 0.930 . S
H772 C715 0.930 . S
H773 C717 0.929 . S
H774 C718 0.930 . S
H775 C719 0.930 . S
H776 C722 0.930 . S
H777 C725 0.929 . S
H778 C730 0.929 . S
H779 C731 0.930 . S
H780 C738 0.929 . S
H781 C739 0.930 . S
H782 C740 0.930 . S
H783 C741 0.930 . S
H784 C743 0.929 . S
H785 C744 0.930 . S
H786 C745 0.930 . S
H787 C746 0.930 . S
H788 C750 0.929 . S
H789 C752 0.930 . S
H790 C758 0.929 . S
H791 C759 0.930 . S
C792 C793 1.391 . S
C792 C794 1.394 . S
C792 H808 0.931 . S
C793 C792 1.391 . S
C793 C797 1.376 1_556 S
C794 C792 1.394 . S
C794 C795 1.327 1_556 S
C794 C798 1.531 . S
C795 C794 1.327 1_554 S
C795 C796 1.439 . S
C795 C803 1.517 . S
C796 C795 1.439 . S
C796 C797 1.392 . S
C796 C799 1.511 . S
C797 C793 1.376 1_554 S
C797 C796 1.392 . S
C797 H809 0.929 . S
C798 C794 1.531 . S
C798 H810 0.960 . S
C798 H811 0.962 . S
C798 H812 0.960 . S
C799 C796 1.511 . S
C799 H813 0.961 . S
C799 H814 0.961 . S
C799 H815 0.961 . S
C800 C801 1.370 . S
C800 C802 1.363 . S
C800 H816 0.931 . S
C801 C800 1.370 . S
C801 C805 1.408 . S
C802 C800 1.363 . S
C802 C803 1.370 . S
C802 C806 1.524 . S
C803 C795 1.517 . S
C803 C802 1.370 . S
C803 C804 1.403 . S
C804 C803 1.403 . S
C804 C805 1.404 . S
C804 C807 1.539 . S
C805 C801 1.408 . S
C805 C804 1.404 . S
C805 H817 0.930 . S
C806 C802 1.524 . S
C806 H818 0.956 1_554 S
C806 H819 0.961 . S
C806 H820 0.961 . S
C807 C804 1.539 . S
C807 H821 0.958 1_554 S
C807 H822 0.961 . S
C807 H823 0.960 . S
H808 C792 0.931 . S
H809 C797 0.929 . S
H810 C798 0.960 . S
H811 C798 0.962 . S
H812 C798 0.960 . S
H813 C799 0.961 . S
H814 C799 0.961 . S
H815 C799 0.961 . S
H816 C800 0.931 . S
H817 C805 0.930 . S
H818 C806 0.956 1_556 S
H819 C806 0.961 . S
H820 C806 0.961 . S
H821 C807 0.958 1_556 S
H822 C807 0.961 . S
H823 C807 0.960 . S
C824 C825 1.391 . S
C824 C826 1.394 . S
C824 H840 0.931 . S
C825 C824 1.391 . S
C825 C829 1.376 . S
C826 C824 1.394 . S
C826 C827 1.369 1_565 S
C826 C830 1.531 1_565 S
C827 C826 1.369 1_545 S
C827 C828 1.410 1_544 S
C827 C835 1.503 . S
C828 C827 1.410 1_566 S
C828 C829 1.392 1_556 S
C828 C831 1.511 . S
C829 C825 1.376 . S
C829 C828 1.392 1_554 S
C829 H841 0.929 1_554 S
C830 C826 1.531 1_545 S
C830 H842 0.960 . S
C830 H843 0.962 . S
C830 H844 0.960 . S
C831 C828 1.511 . S
C831 H845 0.961 . S
C831 H846 0.961 1_565 S
C831 H847 0.961 . S
C832 C833 1.370 . S
C832 C834 1.363 . S
C832 H848 0.931 . S
C833 C832 1.370 . S
C833 C837 1.408 . S
C834 C832 1.363 . S
C834 C835 1.370 1_556 S
C834 C838 1.524 . S
C835 C827 1.503 . S
C835 C834 1.370 1_554 S
C835 C836 1.403 . S
C836 C835 1.403 . S
C836 C837 1.404 1_554 S
C836 C839 1.539 . S
C837 C833 1.408 . S
C837 C836 1.404 1_556 S
C837 H849 0.930 . S
C838 C834 1.524 . S
C838 H850 0.956 1_556 S
C838 H851 0.961 . S
C838 H852 0.961 . S
C839 C836 1.539 . S
C839 H853 0.958 . S
C839 H854 0.961 . S
C839 H855 0.960 . S
H840 C824 0.931 . S
H841 C829 0.929 1_556 S
H842 C830 0.960 . S
H843 C830 0.962 . S
H844 C830 0.960 . S
H845 C831 0.961 . S
H846 C831 0.961 1_545 S
H847 C831 0.961 . S
H848 C832 0.931 . S
H849 C837 0.930 . S
H850 C838 0.956 1_554 S
H851 C838 0.961 . S
H852 C838 0.961 . S
H853 C839 0.958 . S
H854 C839 0.961 . S
H855 C839 0.960 . S
C856 C857 1.391 . S
C856 C858 1.394 . S
C856 H872 0.931 . S
C857 C856 1.391 . S
C857 C861 1.376 1_556 S
C858 C856 1.394 . S
C858 C859 1.369 1_655 S
C858 C862 1.531 1_655 S
C859 C858 1.369 1_455 S
C859 C860 1.410 1_456 S
C859 C867 1.503 1_556 S
C860 C859 1.410 1_654 S
C860 C861 1.392 . S
C860 C863 1.511 . S
C861 C857 1.376 1_554 S
C861 C860 1.392 . S
C861 H873 0.929 . S
C862 C858 1.531 1_455 S
C862 H874 0.960 . S
C862 H875 0.962 . S
C862 H876 0.960 . S
C863 C860 1.511 . S
C863 H877 0.961 . S
C863 H878 0.961 1_655 S
C863 H879 0.961 . S
C864 C865 1.370 . S
C864 C866 1.363 . S
C864 H880 0.931 . S
C865 C864 1.370 . S
C865 C869 1.408 . S
C866 C864 1.363 . S
C866 C867 1.370 . S
C866 C870 1.524 . S
C867 C859 1.503 1_554 S
C867 C866 1.370 . S
C867 C868 1.403 1_554 S
C868 C867 1.403 1_556 S
C868 C869 1.404 1_556 S
C868 C871 1.539 . S
C869 C865 1.408 . S
C869 C868 1.404 1_554 S
C869 H881 0.929 1_554 S
C870 C866 1.524 . S
C870 H882 0.956 . S
C870 H883 0.991 . S
C870 H884 0.961 . S
C871 C868 1.539 . S
C871 H885 0.958 . S
C871 H886 0.961 . S
C871 H887 0.960 . S
H872 C856 0.931 . S
H873 C861 0.929 . S
H874 C862 0.960 . S
H875 C862 0.962 . S
H876 C862 0.960 . S
H877 C863 0.961 . S
H878 C863 0.961 1_455 S
H879 C863 0.961 . S
H880 C864 0.931 . S
H881 C869 0.929 1_556 S
H882 C870 0.956 . S
H883 C870 0.991 . S
H884 C870 0.961 . S
H885 C871 0.958 . S
H886 C871 0.961 . S
H887 C871 0.960 . S
C888 C889 1.391 . S
C888 C890 1.394 . S
C888 H904 0.931 . S
C889 C888 1.391 . S
C889 C893 1.376 . S
C890 C888 1.394 . S
C890 C891 1.369 . S
C890 C894 1.531 . S
C891 C890 1.369 . S
C891 C892 1.410 . S
C891 C899 1.503 . S
C892 C891 1.410 . S
C892 C893 1.392 . S
C892 C895 1.511 . S
C893 C889 1.376 . S
C893 C892 1.392 . S
C893 H905 0.929 . S
C894 C890 1.531 . S
C894 H906 0.960 . S
C894 H907 0.962 . S
C894 H908 0.960 . S
C895 C892 1.511 . S
C895 H909 0.961 . S
C895 H910 0.961 . S
C895 H911 0.961 . S
C896 C897 1.370 . S
C896 C898 1.363 . S
C896 H912 0.931 . S
C897 C896 1.370 . S
C897 C901 1.408 . S
C898 C896 1.363 . S
C898 C899 1.370 . S
C898 C902 1.524 . S
C899 C891 1.503 . S
C899 C898 1.370 . S
C899 C900 1.403 . S
C900 C899 1.403 . S
C900 C901 1.404 . S
C900 C903 1.539 . S
C901 C897 1.408 . S
C901 C900 1.404 . S
C901 H913 0.930 . S
C902 C898 1.524 . S
C902 H914 0.956 . S
C902 H915 0.961 . S
C902 H916 0.961 . S
C903 C900 1.539 . S
C903 H917 0.958 . S
C903 H918 0.961 . S
C903 H919 0.960 . S
H904 C888 0.931 . S
H905 C893 0.929 . S
H906 C894 0.960 . S
H907 C894 0.962 . S
H908 C894 0.960 . S
H909 C895 0.961 . S
H910 C895 0.961 . S
H911 C895 0.961 . S
H912 C896 0.931 . S
H913 C901 0.930 . S
H914 C902 0.956 . S
H915 C902 0.961 . S
H916 C902 0.961 . S
H917 C903 0.958 . S
H918 C903 0.961 . S
H919 C903 0.960 . S
C920 C921 1.391 . S
C920 C922 1.394 . S
C920 H936 0.931 . S
C921 C920 1.391 . S
C921 C925 1.376 . S
C922 C920 1.394 . S
C922 C923 1.369 . S
C922 C926 1.531 . S
C923 C922 1.369 . S
C923 C924 1.410 . S
C923 C931 1.503 . S
C924 C923 1.410 . S
C924 C925 1.392 . S
C924 C927 1.511 . S
C925 C921 1.376 . S
C925 C924 1.392 . S
C925 H937 0.929 . S
C926 C922 1.531 . S
C926 H938 0.960 . S
C926 H939 0.962 . S
C926 H940 0.960 . S
C927 C924 1.511 . S
C927 H941 0.961 . S
C927 H942 0.961 . S
C927 H943 0.961 . S
C928 C929 1.370 . S
C928 C930 1.363 . S
C928 H944 0.931 . S
C929 C928 1.370 . S
C929 C933 1.408 . S
C930 C928 1.363 . S
C930 C931 1.370 . S
C930 C934 1.524 . S
C931 C923 1.503 . S
C931 C930 1.370 . S
C931 C932 1.403 . S
C932 C931 1.403 . S
C932 C933 1.404 . S
C932 C935 1.539 . S
C933 C929 1.408 . S
C933 C932 1.404 . S
C933 H945 0.930 . S
C934 C930 1.524 . S
C934 H946 0.956 . S
C934 H947 0.961 . S
C934 H948 0.961 . S
C935 C932 1.539 . S
C935 H949 0.958 . S
C935 H950 0.961 . S
C935 H951 0.960 . S
H936 C920 0.931 . S
H937 C925 0.929 . S
H938 C926 0.960 . S
H939 C926 0.962 . S
H940 C926 0.960 . S
H941 C927 0.961 . S
H942 C927 0.961 . S
H943 C927 0.961 . S
H944 C928 0.931 . S
H945 C933 0.930 . S
H946 C934 0.956 . S
H947 C934 0.961 . S
H948 C934 0.961 . S
H949 C935 0.958 . S
H950 C935 0.961 . S
H951 C935 0.960 . S
C952 C953 1.391 . S
C952 C954 1.394 . S
C952 H968 0.931 . S
C953 C952 1.391 . S
C953 C957 1.376 . S
C954 C952 1.394 . S
C954 C955 1.369 . S
C954 C958 1.531 . S
C955 C954 1.369 . S
C955 C956 1.410 . S
C955 C963 1.503 . S
C956 C955 1.410 . S
C956 C957 1.392 . S
C956 C959 1.511 . S
C957 C953 1.376 . S
C957 C956 1.392 . S
C957 H969 0.929 . S
C958 C954 1.531 . S
C958 H970 0.960 . S
C958 H971 0.962 . S
C958 H972 0.960 . S
C959 C956 1.511 . S
C959 H973 0.961 . S
C959 H974 0.961 . S
C959 H975 0.961 . S
C960 C961 1.370 . S
C960 C962 1.363 . S
C960 H976 0.931 . S
C961 C960 1.370 . S
C961 C965 1.408 . S
C962 C960 1.363 . S
C962 C963 1.370 . S
C962 C966 1.524 . S
C963 C955 1.503 . S
C963 C962 1.370 . S
C963 C964 1.403 . S
C964 C963 1.403 . S
C964 C965 1.404 . S
C964 C967 1.539 . S
C965 C961 1.408 . S
C965 C964 1.404 . S
C965 H977 0.930 . S
C966 C962 1.524 . S
C966 H978 0.956 . S
C966 H979 0.961 . S
C966 H980 0.961 . S
C967 C964 1.539 . S
C967 H981 0.958 . S
C967 H982 0.961 . S
C967 H983 0.960 . S
H968 C952 0.931 . S
H969 C957 0.929 . S
H970 C958 0.960 . S
H971 C958 0.962 . S
H972 C958 0.960 . S
H973 C959 0.961 . S
H974 C959 0.961 . S
H975 C959 0.961 . S
H976 C960 0.931 . S
H977 C965 0.930 . S
H978 C966 0.956 . S
H979 C966 0.961 . S
H980 C966 0.961 . S
H981 C967 0.958 . S
H982 C967 0.961 . S
H983 C967 0.960 . S
C984 C985 1.391 . S
C984 C986 1.394 . S
C984 H1000 0.931 . S
C985 C984 1.391 . S
C985 C989 1.376 . S
C986 C984 1.394 . S
C986 C987 1.369 . S
C986 C990 1.531 . S
C987 C986 1.369 . S
C987 C988 1.410 . S
C987 C995 1.503 . S
C988 C987 1.410 . S
C988 C989 1.392 . S
C988 C991 1.511 . S
C989 C985 1.376 . S
C989 C988 1.392 . S
C989 H1001 0.929 . S
C990 C986 1.531 . S
C990 H1002 0.960 . S
C990 H1003 0.962 . S
C990 H1004 0.960 . S
C991 C988 1.511 . S
C991 H1005 0.961 . S
C991 H1006 0.961 . S
C991 H1007 0.961 . S
C992 C993 1.370 . S
C992 C994 1.363 . S
C992 H1008 0.931 . S
C993 C992 1.370 . S
C993 C997 1.408 . S
C994 C992 1.363 . S
C994 C995 1.370 . S
C994 C998 1.524 . S
C995 C987 1.503 . S
C995 C994 1.370 . S
C995 C996 1.403 . S
C996 C995 1.403 . S
C996 C997 1.404 . S
C996 C999 1.539 . S
C997 C993 1.408 . S
C997 C996 1.404 . S
C997 H1009 0.930 . S
C998 C994 1.524 . S
C998 H1010 0.956 . S
C998 H1011 0.961 . S
C998 H1012 0.961 . S
C999 C996 1.539 . S
C999 H1013 0.958 . S
C999 H1014 0.961 . S
C999 H1015 0.960 . S
H1000 C984 0.931 . S
H1001 C989 0.929 . S
H1002 C990 0.960 . S
H1003 C990 0.962 . S
H1004 C990 0.960 . S
H1005 C991 0.961 . S
H1006 C991 0.961 . S
H1007 C991 0.961 . S
H1008 C992 0.931 . S
H1009 C997 0.930 . S
H1010 C998 0.956 . S
H1011 C998 0.961 . S
H1012 C998 0.961 . S
H1013 C999 0.958 . S
H1014 C999 0.961 . S
H1015 C999 0.960 . S
C1016 C1017 1.391 . S
C1016 C1018 1.394 . S
C1016 H1032 0.931 . S
C1017 C1016 1.391 . S
C1017 C1021 1.376 . S
C1018 C1016 1.394 . S
C1018 C1019 1.369 . S
C1018 C1022 1.531 . S
C1019 C1018 1.369 . S
C1019 C1020 1.410 . S
C1019 C1027 1.503 . S
C1020 C1019 1.410 . S
C1020 C1021 1.392 . S
C1020 C1023 1.511 . S
C1021 C1017 1.376 . S
C1021 C1020 1.392 . S
C1021 H1033 0.929 . S
C1022 C1018 1.531 . S
C1022 H1034 0.960 . S
C1022 H1035 0.962 . S
C1022 H1036 0.960 . S
C1023 C1020 1.511 . S
C1023 H1037 0.961 . S
C1023 H1038 0.961 . S
C1023 H1039 0.961 . S
C1024 C1025 1.370 . S
C1024 C1026 1.363 . S
C1024 H1040 0.931 . S
C1025 C1024 1.370 . S
C1025 C1029 1.408 . S
C1026 C1024 1.363 . S
C1026 C1027 1.370 . S
C1026 C1030 1.524 . S
C1027 C1019 1.503 . S
C1027 C1026 1.370 . S
C1027 C1028 1.403 . S
C1028 C1027 1.403 . S
C1028 C1029 1.404 . S
C1028 C1031 1.539 . S
C1029 C1025 1.408 . S
C1029 C1028 1.404 . S
C1029 H1041 0.930 . S
C1030 C1026 1.524 . S
C1030 H1042 0.956 . S
C1030 H1043 0.961 . S
C1030 H1044 0.961 . S
C1031 C1028 1.539 . S
C1031 H1045 0.958 . S
C1031 H1046 0.961 . S
C1031 H1047 0.960 . S
H1032 C1016 0.931 . S
H1033 C1021 0.929 . S
H1034 C1022 0.960 . S
H1035 C1022 0.962 . S
H1036 C1022 0.960 . S
H1037 C1023 0.961 . S
H1038 C1023 0.961 . S
H1039 C1023 0.961 . S
H1040 C1024 0.931 . S
H1041 C1029 0.930 . S
H1042 C1030 0.956 . S
H1043 C1030 0.961 . S
H1044 C1030 0.961 . S
H1045 C1031 0.958 . S
H1046 C1031 0.961 . S
H1047 C1031 0.960 . S
C1048 C1049 1.391 . S
C1048 C1050 1.394 . S
C1048 H1064 0.931 . S
C1049 C1048 1.391 . S
C1049 C1053 1.376 . S
C1050 C1048 1.394 . S
C1050 C1051 1.369 . S
C1050 C1054 1.531 . S
C1051 C1050 1.369 . S
C1051 C1052 1.410 . S
C1051 C1059 1.503 . S
C1052 C1051 1.410 . S
C1052 C1053 1.392 . S
C1052 C1055 1.511 . S
C1053 C1049 1.376 . S
C1053 C1052 1.392 . S
C1053 H1065 0.929 . S
C1054 C1050 1.531 . S
C1054 H1066 0.960 . S
C1054 H1067 0.962 . S
C1054 H1068 0.960 . S
C1055 C1052 1.511 . S
C1055 H1069 0.961 . S
C1055 H1070 0.961 . S
C1055 H1071 0.961 . S
C1056 C1057 1.370 . S
C1056 C1058 1.363 . S
C1056 H1072 0.931 . S
C1057 C1056 1.370 . S
C1057 C1061 1.408 . S
C1058 C1056 1.363 . S
C1058 C1059 1.370 . S
C1058 C1062 1.524 . S
C1059 C1051 1.503 . S
C1059 C1058 1.370 . S
C1059 C1060 1.403 . S
C1060 C1059 1.403 . S
C1060 C1061 1.404 . S
C1060 C1063 1.539 . S
C1061 C1057 1.408 . S
C1061 C1060 1.404 . S
C1061 H1073 0.930 . S
C1062 C1058 1.524 . S
C1062 H1074 0.956 . S
C1062 H1075 0.961 . S
C1062 H1076 0.961 . S
C1063 C1060 1.539 . S
C1063 H1077 0.958 . S
C1063 H1078 0.961 . S
C1063 H1079 0.960 . S
H1064 C1048 0.931 . S
H1065 C1053 0.929 . S
H1066 C1054 0.960 . S
H1067 C1054 0.962 . S
H1068 C1054 0.960 . S
H1069 C1055 0.961 . S
H1070 C1055 0.961 . S
H1071 C1055 0.961 . S
H1072 C1056 0.931 . S
H1073 C1061 0.930 . S
H1074 C1062 0.956 . S
H1075 C1062 0.961 . S
H1076 C1062 0.961 . S
H1077 C1063 0.958 . S
H1078 C1063 0.961 . S
H1079 C1063 0.960 . S
C1080 C1081 1.391 . S
C1080 C1082 1.394 . S
C1080 H1096 0.931 . S
C1081 C1080 1.391 . S
C1081 C1085 1.376 . S
C1082 C1080 1.394 . S
C1082 C1083 1.369 . S
C1082 C1086 1.531 . S
C1083 C1082 1.369 . S
C1083 C1084 1.410 . S
C1083 C1091 1.503 . S
C1084 C1083 1.410 . S
C1084 C1085 1.392 . S
C1084 C1087 1.511 . S
C1085 C1081 1.376 . S
C1085 C1084 1.392 . S
C1085 H1097 0.929 . S
C1086 C1082 1.531 . S
C1086 H1098 0.960 . S
C1086 H1099 0.962 . S
C1086 H1100 0.960 . S
C1087 C1084 1.511 . S
C1087 H1101 0.961 . S
C1087 H1102 0.961 . S
C1087 H1103 0.961 . S
C1088 C1089 1.370 . S
C1088 C1090 1.363 . S
C1088 H1104 0.931 . S
C1089 C1088 1.370 . S
C1089 C1093 1.408 . S
C1090 C1088 1.363 . S
C1090 C1091 1.370 . S
C1090 C1094 1.524 . S
C1091 C1083 1.503 . S
C1091 C1090 1.370 . S
C1091 C1092 1.403 . S
C1092 C1091 1.403 . S
C1092 C1093 1.404 . S
C1092 C1095 1.539 . S
C1093 C1089 1.408 . S
C1093 C1092 1.404 . S
C1093 H1105 0.930 . S
C1094 C1090 1.524 . S
C1094 H1106 0.956 . S
C1094 H1107 0.961 . S
C1094 H1108 0.961 . S
C1095 C1092 1.539 . S
C1095 H1109 0.958 . S
C1095 H1110 0.961 . S
C1095 H1111 0.960 . S
H1096 C1080 0.931 . S
H1097 C1085 0.929 . S
H1098 C1086 0.960 . S
H1099 C1086 0.962 . S
H1100 C1086 0.960 . S
H1101 C1087 0.961 . S
H1102 C1087 0.961 . S
H1103 C1087 0.961 . S
H1104 C1088 0.931 . S
H1105 C1093 0.930 . S
H1106 C1094 0.956 . S
H1107 C1094 0.961 . S
H1108 C1094 0.961 . S
H1109 C1095 0.958 . S
H1110 C1095 0.961 . S
H1111 C1095 0.960 . S
C1112 C1113 1.391 . S
C1112 C1114 1.394 . S
C1112 H1128 0.931 . S
C1113 C1112 1.391 . S
C1113 C1117 1.376 . S
C1114 C1112 1.394 . S
C1114 C1115 1.369 . S
C1114 C1118 1.531 . S
C1115 C1114 1.369 . S
C1115 C1116 1.410 . S
C1115 C1123 1.503 . S
C1116 C1115 1.410 . S
C1116 C1117 1.392 . S
C1116 C1119 1.511 . S
C1117 C1113 1.376 . S
C1117 C1116 1.392 . S
C1117 H1129 0.929 . S
C1118 C1114 1.531 . S
C1118 H1130 0.960 . S
C1118 H1131 0.962 . S
C1118 H1132 0.960 . S
C1119 C1116 1.511 . S
C1119 H1133 0.961 . S
C1119 H1134 0.961 . S
C1119 H1135 0.961 . S
C1120 C1121 1.370 . S
C1120 C1122 1.363 . S
C1120 H1136 0.931 . S
C1121 C1120 1.370 . S
C1121 C1125 1.408 . S
C1122 C1120 1.363 . S
C1122 C1123 1.370 . S
C1122 C1126 1.524 . S
C1123 C1115 1.503 . S
C1123 C1122 1.370 . S
C1123 C1124 1.403 . S
C1124 C1123 1.403 . S
C1124 C1125 1.404 . S
C1124 C1127 1.539 . S
C1125 C1121 1.408 . S
C1125 C1124 1.404 . S
C1125 H1137 0.930 . S
C1126 C1122 1.524 . S
C1126 H1138 0.956 . S
C1126 H1139 0.961 . S
C1126 H1140 0.961 . S
C1127 C1124 1.539 . S
C1127 H1141 0.958 . S
C1127 H1142 0.961 . S
C1127 H1143 0.960 . S
H1128 C1112 0.931 . S
H1129 C1117 0.929 . S
H1130 C1118 0.960 . S
H1131 C1118 0.962 . S
H1132 C1118 0.960 . S
H1133 C1119 0.961 . S
H1134 C1119 0.961 . S
H1135 C1119 0.961 . S
H1136 C1120 0.931 . S
H1137 C1125 0.930 . S
H1138 C1126 0.956 . S
H1139 C1126 0.961 . S
H1140 C1126 0.961 . S
H1141 C1127 0.958 . S
H1142 C1127 0.961 . S
H1143 C1127 0.960 . S
C1144 C1145 1.391 . S
C1144 C1146 1.394 . S
C1144 H1160 0.931 . S
C1145 C1144 1.391 . S
C1145 C1149 1.376 . S
C1146 C1144 1.394 . S
C1146 C1147 1.369 . S
C1146 C1150 1.531 . S
C1147 C1146 1.369 . S
C1147 C1148 1.410 . S
C1147 C1155 1.503 . S
C1148 C1147 1.410 . S
C1148 C1149 1.392 . S
C1148 C1151 1.511 . S
C1149 C1145 1.376 . S
C1149 C1148 1.392 . S
C1149 H1161 0.929 . S
C1150 C1146 1.531 . S
C1150 H1162 0.960 . S
C1150 H1163 0.962 . S
C1150 H1164 0.960 . S
C1151 C1148 1.511 . S
C1151 H1165 0.961 . S
C1151 H1166 0.961 . S
C1151 H1167 0.961 . S
C1152 C1153 1.370 1_545 S
C1152 C1154 1.363 1_545 S
C1152 H1168 0.931 . S
C1153 C1152 1.370 1_565 S
C1153 C1157 1.408 . S
C1154 C1152 1.363 1_565 S
C1154 C1155 1.370 . S
C1154 C1158 1.524 1_565 S
C1155 C1147 1.503 . S
C1155 C1154 1.370 . S
C1155 C1156 1.403 . S
C1156 C1155 1.403 . S
C1156 C1157 1.404 . S
C1156 C1159 1.539 . S
C1157 C1153 1.408 . S
C1157 C1156 1.404 . S
C1157 H1169 0.930 . S
C1158 C1154 1.524 1_545 S
C1158 H1170 0.956 . S
C1158 H1171 0.961 . S
C1158 H1172 0.961 . S
C1159 C1156 1.539 . S
C1159 H1173 0.958 . S
C1159 H1174 0.961 . S
C1159 H1175 0.960 . S
H1160 C1144 0.931 . S
H1161 C1149 0.929 . S
H1162 C1150 0.960 . S
H1163 C1150 0.962 . S
H1164 C1150 0.960 . S
H1165 C1151 0.961 . S
H1166 C1151 0.961 . S
H1167 C1151 0.961 . S
H1168 C1152 0.931 . S
H1169 C1157 0.930 . S
H1170 C1158 0.956 . S
H1171 C1158 0.961 . S
H1172 C1158 0.961 . S
H1173 C1159 0.958 . S
H1174 C1159 0.961 . S
H1175 C1159 0.960 . S
C1176 C1177 1.391 . S
C1176 C1178 1.394 . S
C1176 H1192 0.931 . S
C1177 C1176 1.391 . S
C1177 C1181 1.376 . S
C1178 C1176 1.394 . S
C1178 C1179 1.369 . S
C1178 C1182 1.531 . S
C1179 C1178 1.369 . S
C1179 C1180 1.410 . S
C1179 C1187 1.503 . S
C1180 C1179 1.410 . S
C1180 C1181 1.392 . S
C1180 C1183 1.511 . S
C1181 C1177 1.376 . S
C1181 C1180 1.392 . S
C1181 H1193 0.929 . S
C1182 C1178 1.531 . S
C1182 H1194 0.960 . S
C1182 H1195 0.962 . S
C1182 H1196 0.960 . S
C1183 C1180 1.511 . S
C1183 H1197 0.961 . S
C1183 H1198 0.961 . S
C1183 H1199 0.961 . S
C1184 C1185 1.370 . S
C1184 C1186 1.363 . S
C1184 H1200 0.931 . S
C1185 C1184 1.370 . S
C1185 C1189 1.408 . S
C1186 C1184 1.363 . S
C1186 C1187 1.370 . S
C1186 C1190 1.524 . S
C1187 C1179 1.503 . S
C1187 C1186 1.370 . S
C1187 C1188 1.403 . S
C1188 C1187 1.403 . S
C1188 C1189 1.404 . S
C1188 C1191 1.539 . S
C1189 C1185 1.408 . S
C1189 C1188 1.404 . S
C1189 H1201 0.930 . S
C1190 C1186 1.524 . S
C1190 H1202 0.956 . S
C1190 H1203 0.961 . S
C1190 H1204 0.961 . S
C1191 C1188 1.539 . S
C1191 H1205 0.958 . S
C1191 H1206 0.961 . S
C1191 H1207 0.960 . S
H1192 C1176 0.931 . S
H1193 C1181 0.929 . S
H1194 C1182 0.960 . S
H1195 C1182 0.962 . S
H1196 C1182 0.960 . S
H1197 C1183 0.961 . S
H1198 C1183 0.961 . S
H1199 C1183 0.961 . S
H1200 C1184 0.931 . S
H1201 C1189 0.930 . S
H1202 C1190 0.956 . S
H1203 C1190 0.961 . S
H1204 C1190 0.961 . S
H1205 C1191 0.958 . S
H1206 C1191 0.961 . S
H1207 C1191 0.960 . S
C1208 C1209 1.391 . S
C1208 C1210 1.394 . S
C1208 H1224 0.931 . S
C1209 C1208 1.391 . S
C1209 C1213 1.376 1_655 S
C1210 C1208 1.394 . S
C1210 C1211 1.369 . S
C1210 C1214 1.531 . S
C1211 C1210 1.369 . S
C1211 C1212 1.410 . S
C1211 C1219 1.503 . S
C1212 C1211 1.410 . S
C1212 C1213 1.392 1_655 S
C1212 C1215 1.511 1_655 S
C1213 C1209 1.376 1_455 S
C1213 C1212 1.392 1_455 S
C1213 H1225 0.929 . S
C1214 C1210 1.531 . S
C1214 H1226 0.960 . S
C1214 H1227 0.962 . S
C1214 H1228 0.960 . S
C1215 C1212 1.511 1_455 S
C1215 H1229 0.961 . S
C1215 H1230 0.961 . S
C1215 H1231 0.961 . S
C1216 C1217 1.370 . S
C1216 C1218 1.363 . S
C1216 H1232 0.931 . S
C1217 C1216 1.370 . S
C1217 C1221 1.408 . S
C1218 C1216 1.363 . S
C1218 C1219 1.370 . S
C1218 C1222 1.524 . S
C1219 C1211 1.503 . S
C1219 C1218 1.370 . S
C1219 C1220 1.403 . S
C1220 C1219 1.403 . S
C1220 C1221 1.404 . S
C1220 C1223 1.539 . S
C1221 C1217 1.408 . S
C1221 C1220 1.404 . S
C1221 H1233 0.930 . S
C1222 C1218 1.524 . S
C1222 H1234 0.956 . S
C1222 H1235 0.961 . S
C1222 H1236 0.961 . S
C1223 C1220 1.539 . S
C1223 H1237 0.958 . S
C1223 H1238 0.946 1_655 S
C1223 H1239 0.960 1_655 S
H1224 C1208 0.931 . S
H1225 C1213 0.929 . S
H1226 C1214 0.960 . S
H1227 C1214 0.962 . S
H1228 C1214 0.960 . S
H1229 C1215 0.961 . S
H1230 C1215 0.961 . S
H1231 C1215 0.961 . S
H1232 C1216 0.931 . S
H1233 C1221 0.930 . S
H1234 C1222 0.956 . S
H1235 C1222 0.961 . S
H1236 C1222 0.961 . S
H1237 C1223 0.958 . S
H1238 C1223 0.946 1_455 S
H1239 C1223 0.960 1_455 S
C1240 C1241 1.391 . S
C1240 C1242 1.394 . S
C1240 H1256 0.931 . S
C1241 C1240 1.391 . S
C1241 C1245 1.376 . S
C1242 C1240 1.394 . S
C1242 C1243 1.369 . S
C1242 C1246 1.531 . S
C1243 C1242 1.369 . S
C1243 C1244 1.410 . S
C1243 C1251 1.503 . S
C1244 C1243 1.410 . S
C1244 C1245 1.392 . S
C1244 C1247 1.511 . S
C1245 C1241 1.376 . S
C1245 C1244 1.392 . S
C1245 H1257 0.929 . S
C1246 C1242 1.531 . S
C1246 H1258 0.960 . S
C1246 H1259 0.962 . S
C1246 H1260 0.960 . S
C1247 C1244 1.511 . S
C1247 H1261 0.961 . S
C1247 H1262 0.961 . S
C1247 H1263 0.961 . S
C1248 C1249 1.370 . S
C1248 C1250 1.363 . S
C1248 H1264 0.931 . S
C1249 C1248 1.370 . S
C1249 C1253 1.408 . S
C1250 C1248 1.363 . S
C1250 C1251 1.370 . S
C1250 C1254 1.524 . S
C1251 C1243 1.503 . S
C1251 C1250 1.370 . S
C1251 C1252 1.403 . S
C1252 C1251 1.403 . S
C1252 C1253 1.404 . S
C1252 C1255 1.539 . S
C1253 C1249 1.408 . S
C1253 C1252 1.404 . S
C1253 H1265 0.930 . S
C1254 C1250 1.524 . S
C1254 H1266 0.956 . S
C1254 H1267 0.961 . S
C1254 H1268 0.961 . S
C1255 C1252 1.539 . S
C1255 H1269 0.958 . S
C1255 H1270 0.961 . S
C1255 H1271 0.960 . S
H1256 C1240 0.931 . S
H1257 C1245 0.929 . S
H1258 C1246 0.960 . S
H1259 C1246 0.962 . S
H1260 C1246 0.960 . S
H1261 C1247 0.961 . S
H1262 C1247 0.961 . S
H1263 C1247 0.961 . S
H1264 C1248 0.931 . S
H1265 C1253 0.930 . S
H1266 C1254 0.956 . S
H1267 C1254 0.961 . S
H1268 C1254 0.961 . S
H1269 C1255 0.958 . S
H1270 C1255 0.961 . S
H1271 C1255 0.960 . S
C1272 C1273 1.391 . S
C1272 C1274 1.394 . S
C1272 H1288 0.931 . S
C1273 C1272 1.391 . S
C1273 C1277 1.376 . S
C1274 C1272 1.394 . S
C1274 C1275 1.369 . S
C1274 C1278 1.531 . S
C1275 C1274 1.369 . S
C1275 C1276 1.410 . S
C1275 C1283 1.503 . S
C1276 C1275 1.410 . S
C1276 C1277 1.392 . S
C1276 C1279 1.511 . S
C1277 C1273 1.376 . S
C1277 C1276 1.392 . S
C1277 H1289 0.929 . S
C1278 C1274 1.531 . S
C1278 H1290 0.960 . S
C1278 H1291 0.962 1_455 S
C1278 H1292 0.960 . S
C1279 C1276 1.511 . S
C1279 H1293 0.961 . S
C1279 H1294 0.961 . S
C1279 H1295 0.961 . S
C1280 C1281 1.370 . S
C1280 C1282 1.363 . S
C1280 H1296 0.931 . S
C1281 C1280 1.370 . S
C1281 C1285 1.414 . S
C1282 C1280 1.363 . S
C1282 C1283 1.370 1_655 S
C1282 C1286 1.524 . S
C1283 C1275 1.503 . S
C1283 C1282 1.370 1_455 S
C1283 C1284 1.403 . S
C1284 C1283 1.403 . S
C1284 C1285 1.399 1_455 S
C1284 C1287 1.539 . S
C1285 C1281 1.414 . S
C1285 C1284 1.399 1_655 S
C1285 H1297 0.929 1_655 S
C1286 C1282 1.524 . S
C1286 H1298 0.956 . S
C1286 H1299 0.961 . S
C1286 H1300 0.961 . S
C1287 C1284 1.539 . S
C1287 H1301 0.958 . S
C1287 H1302 0.961 . S
C1287 H1303 0.960 . S
H1288 C1272 0.931 . S
H1289 C1277 0.929 . S
H1290 C1278 0.960 . S
H1291 C1278 0.962 1_655 S
H1292 C1278 0.960 . S
H1293 C1279 0.961 . S
H1294 C1279 0.961 . S
H1295 C1279 0.961 . S
H1296 C1280 0.931 . S
H1297 C1285 0.929 1_455 S
H1298 C1286 0.956 . S
H1299 C1286 0.961 . S
H1300 C1286 0.961 . S
H1301 C1287 0.958 . S
H1302 C1287 0.961 . S
H1303 C1287 0.960 . S
C1304 C1305 1.391 . S
C1304 C1306 1.394 . S
C1304 H1320 0.931 . S
C1305 C1304 1.391 . S
C1305 C1309 1.376 . S
C1306 C1304 1.394 . S
C1306 C1307 1.369 . S
C1306 C1310 1.531 . S
C1307 C1306 1.369 . S
C1307 C1308 1.410 . S
C1307 C1315 1.503 . S
C1308 C1307 1.410 . S
C1308 C1309 1.392 . S
C1308 C1311 1.511 . S
C1309 C1305 1.376 . S
C1309 C1308 1.392 . S
C1309 H1321 0.929 . S
C1310 C1306 1.531 . S
C1310 H1322 0.960 . S
C1310 H1323 0.962 . S
C1310 H1324 0.960 . S
C1311 C1308 1.511 . S
C1311 H1325 0.961 . S
C1311 H1326 0.961 . S
C1311 H1327 0.961 . S
C1312 C1313 1.370 . S
C1312 C1314 1.363 . S
C1312 H1328 0.931 . S
C1313 C1312 1.370 . S
C1313 C1317 1.408 . S
C1314 C1312 1.363 . S
C1314 C1315 1.370 . S
C1314 C1318 1.524 . S
C1315 C1307 1.503 . S
C1315 C1314 1.370 . S
C1315 C1316 1.403 . S
C1316 C1315 1.403 . S
C1316 C1317 1.404 . S
C1316 C1319 1.539 . S
C1317 C1313 1.408 . S
C1317 C1316 1.404 . S
C1317 H1329 0.930 . S
C1318 C1314 1.524 . S
C1318 H1330 0.956 . S
C1318 H1331 0.961 . S
C1318 H1332 0.961 . S
C1319 C1316 1.539 . S
C1319 H1333 0.958 . S
C1319 H1334 0.961 . S
C1319 H1335 0.960 . S
H1320 C1304 0.931 . S
H1321 C1309 0.929 . S
H1322 C1310 0.960 . S
H1323 C1310 0.962 . S
H1324 C1310 0.960 . S
H1325 C1311 0.961 . S
H1326 C1311 0.961 . S
H1327 C1311 0.961 . S
H1328 C1312 0.931 . S
H1329 C1317 0.930 . S
H1330 C1318 0.956 . S
H1331 C1318 0.961 . S
H1332 C1318 0.961 . S
H1333 C1319 0.958 . S
H1334 C1319 0.961 . S
H1335 C1319 0.960 . S
C1336 C1337 1.391 . S
C1336 C1338 1.394 1_565 S
C1336 H1352 0.931 . S
C1337 C1336 1.391 . S
C1337 C1341 1.376 . S
C1338 C1336 1.394 1_545 S
C1338 C1339 1.369 . S
C1338 C1342 1.531 . S
C1339 C1338 1.369 . S
C1339 C1340 1.410 1_545 S
C1339 C1347 1.503 . S
C1340 C1339 1.410 1_565 S
C1340 C1341 1.392 . S
C1340 C1343 1.511 . S
C1341 C1337 1.376 . S
C1341 C1340 1.392 . S
C1341 H1353 0.929 . S
C1342 C1338 1.531 . S
C1342 H1354 0.960 . S
C1342 H1355 0.962 . S
C1342 H1356 0.960 . S
C1343 C1340 1.511 . S
C1343 H1357 0.961 . S
C1343 H1358 0.961 . S
C1343 H1359 0.961 1_565 S
C1344 C1345 1.370 . S
C1344 C1346 1.363 . S
C1344 H1360 0.931 . S
C1345 C1344 1.370 . S
C1345 C1349 1.408 . S
C1346 C1344 1.363 . S
C1346 C1347 1.370 . S
C1346 C1350 1.524 1_545 S
C1347 C1339 1.503 . S
C1347 C1346 1.370 . S
C1347 C1348 1.403 . S
C1348 C1347 1.403 . S
C1348 C1349 1.404 . S
C1348 C1351 1.539 . S
C1349 C1345 1.408 . S
C1349 C1348 1.404 . S
C1349 H1361 0.930 . S
C1350 C1346 1.524 1_565 S
C1350 H1362 0.956 . S
C1350 H1363 0.961 . S
C1350 H1364 0.961 . S
C1351 C1348 1.539 . S
C1351 H1365 0.958 . S
C1351 H1366 0.961 . S
C1351 H1367 0.960 . S
H1352 C1336 0.931 . S
H1353 C1341 0.929 . S
H1354 C1342 0.960 . S
H1355 C1342 0.962 . S
H1356 C1342 0.960 . S
H1357 C1343 0.961 . S
H1358 C1343 0.961 . S
H1359 C1343 0.961 1_545 S
H1360 C1344 0.931 . S
H1361 C1349 0.930 . S
H1362 C1350 0.956 . S
H1363 C1350 0.961 . S
H1364 C1350 0.961 . S
H1365 C1351 0.958 . S
H1366 C1351 0.961 . S
H1367 C1351 0.960 . S
C793 C196 0.983 . S
C801 C49 1.011 . S
C825 C145 1.000 . S
C833 C29 1.004 . S
C857 C108 1.017 . S
C865 C233 1.001 . S
C889 C469 1.055 . S
C897 C321 1.030 . S
C921 C409 0.985 . S
C929 C284 1.038 . S
C953 C372 0.982 . S
C961 C489 1.011 . S
C985 C577 1.010 . S
C993 C724 1.002 . S
C1017 C557 1.064 . S
C1025 C665 1.023 . S
C1049 C645 1.011 . S
C1057 C761 1.040 . S
C1081 C57 1.210 . S
C1089 C636 1.213 . S
C1113 C137 1.196 . S
C1121 C733 1.207 . S
C1145 C548 1.195 . S
C1153 C225 1.206 . S
C1177 C401 1.198 . S
C1185 C205 1.209 . S
C1209 C20 1.203 . S
C1217 C497 1.211 . S
C1241 C313 1.204 . S
C1249 C117 1.212 . S
C1273 C673 1.198 . S
C1281 C460 1.209 . S
C1305 C293 1.195 . S
C1313 C753 1.207 . S
C1337 C585 1.203 . S
C1345 C381 1.205 . S
