# Generated by pormake.
# Topology wjb, (6)-cn, num edge types: 1
# Building blocks:
#     Node 0, Type 0, BuildingBlock: IZENUY_clean_sbu_0, # of connection points: 6
#     Node 1, Type 0, BuildingBlock: IZENUY_clean_sbu_0, # of connection points: 6
#     Node 2, Type 0, BuildingBlock: IZENUY_clean_sbu_0, # of connection points: 6
#     Node 3, Type 0, BuildingBlock: IZENUY_clean_sbu_0, # of connection points: 6
#     Node 4, Type 0, BuildingBlock: IZENUY_clean_sbu_0, # of connection points: 6
#     Node 5, Type 0, BuildingBlock: IZENUY_clean_sbu_0, # of connection points: 6
#     Node 6, Type 0, BuildingBlock: IZENUY_clean_sbu_0, # of connection points: 6
#     Node 7, Type 0, BuildingBlock: IZENUY_clean_sbu_0, # of connection points: 6
#     Node 8, Type 0, BuildingBlock: IZENUY_clean_sbu_0, # of connection points: 6
#     Node 9, Type 0, BuildingBlock: IZENUY_clean_sbu_0, # of connection points: 6
#     Node 10, Type 0, BuildingBlock: IZENUY_clean_sbu_0, # of connection points: 6
#     Node 11, Type 0, BuildingBlock: IZENUY_clean_sbu_0, # of connection points: 6
#     Node 12, Type 0, BuildingBlock: IZENUY_clean_sbu_0, # of connection points: 6
#     Node 13, Type 0, BuildingBlock: IZENUY_clean_sbu_0, # of connection points: 6
#     Node 14, Type 0, BuildingBlock: IZENUY_clean_sbu_0, # of connection points: 6
#     Node 15, Type 0, BuildingBlock: IZENUY_clean_sbu_0, # of connection points: 6
#     Node 16, Type 0, BuildingBlock: IZENUY_clean_sbu_0, # of connection points: 6
#     Node 17, Type 0, BuildingBlock: IZENUY_clean_sbu_0, # of connection points: 6
#     Node 18, Type 0, BuildingBlock: IZENUY_clean_sbu_0, # of connection points: 6
#     Node 19, Type 0, BuildingBlock: IZENUY_clean_sbu_0, # of connection points: 6
#     Node 20, Type 0, BuildingBlock: IZENUY_clean_sbu_0, # of connection points: 6
#     Node 21, Type 0, BuildingBlock: IZENUY_clean_sbu_0, # of connection points: 6
#     Node 22, Type 0, BuildingBlock: IZENUY_clean_sbu_0, # of connection points: 6
#     Node 23, Type 0, BuildingBlock: IZENUY_clean_sbu_0, # of connection points: 6
#     Edge 24, Type (0, 0), BuildingBlock: EZIPEK_clean_linker_0, # of connection points: 2
#     Edge 25, Type (0, 0), BuildingBlock: EZIPEK_clean_linker_0, # of connection points: 2
#     Edge 26, Type (0, 0), BuildingBlock: EZIPEK_clean_linker_0, # of connection points: 2
#     Edge 27, Type (0, 0), BuildingBlock: EZIPEK_clean_linker_0, # of connection points: 2
#     Edge 28, Type (0, 0), BuildingBlock: EZIPEK_clean_linker_0, # of connection points: 2
#     Edge 29, Type (0, 0), BuildingBlock: EZIPEK_clean_linker_0, # of connection points: 2
#     Edge 30, Type (0, 0), BuildingBlock: EZIPEK_clean_linker_0, # of connection points: 2
#     Edge 31, Type (0, 0), BuildingBlock: EZIPEK_clean_linker_0, # of connection points: 2
#     Edge 32, Type (0, 0), BuildingBlock: EZIPEK_clean_linker_0, # of connection points: 2
#     Edge 33, Type (0, 0), BuildingBlock: EZIPEK_clean_linker_0, # of connection points: 2
#     Edge 34, Type (0, 0), BuildingBlock: EZIPEK_clean_linker_0, # of connection points: 2
#     Edge 35, Type (0, 0), BuildingBlock: EZIPEK_clean_linker_0, # of connection points: 2
#     Edge 36, Type (0, 0), BuildingBlock: EZIPEK_clean_linker_0, # of connection points: 2
#     Edge 37, Type (0, 0), BuildingBlock: EZIPEK_clean_linker_0, # of connection points: 2
#     Edge 38, Type (0, 0), BuildingBlock: EZIPEK_clean_linker_0, # of connection points: 2
#     Edge 39, Type (0, 0), BuildingBlock: EZIPEK_clean_linker_0, # of connection points: 2
#     Edge 40, Type (0, 0), BuildingBlock: EZIPEK_clean_linker_0, # of connection points: 2
#     Edge 41, Type (0, 0), BuildingBlock: EZIPEK_clean_linker_0, # of connection points: 2
#     Edge 42, Type (0, 0), BuildingBlock: EZIPEK_clean_linker_0, # of connection points: 2
#     Edge 43, Type (0, 0), BuildingBlock: EZIPEK_clean_linker_0, # of connection points: 2
#     Edge 44, Type (0, 0), BuildingBlock: EZIPEK_clean_linker_0, # of connection points: 2
#     Edge 45, Type (0, 0), BuildingBlock: EZIPEK_clean_linker_0, # of connection points: 2
#     Edge 46, Type (0, 0), BuildingBlock: EZIPEK_clean_linker_0, # of connection points: 2
#     Edge 47, Type (0, 0), BuildingBlock: EZIPEK_clean_linker_0, # of connection points: 2
#     Edge 48, Type (0, 0), BuildingBlock: EZIPEK_clean_linker_0, # of connection points: 2
#     Edge 49, Type (0, 0), BuildingBlock: EZIPEK_clean_linker_0, # of connection points: 2
#     Edge 50, Type (0, 0), BuildingBlock: EZIPEK_clean_linker_0, # of connection points: 2
#     Edge 51, Type (0, 0), BuildingBlock: EZIPEK_clean_linker_0, # of connection points: 2
#     Edge 52, Type (0, 0), BuildingBlock: EZIPEK_clean_linker_0, # of connection points: 2
#     Edge 53, Type (0, 0), BuildingBlock: EZIPEK_clean_linker_0, # of connection points: 2
#     Edge 54, Type (0, 0), BuildingBlock: EZIPEK_clean_linker_0, # of connection points: 2
#     Edge 55, Type (0, 0), BuildingBlock: EZIPEK_clean_linker_0, # of connection points: 2
#     Edge 56, Type (0, 0), BuildingBlock: EZIPEK_clean_linker_0, # of connection points: 2
#     Edge 57, Type (0, 0), BuildingBlock: EZIPEK_clean_linker_0, # of connection points: 2
#     Edge 58, Type (0, 0), BuildingBlock: EZIPEK_clean_linker_0, # of connection points: 2
#     Edge 59, Type (0, 0), BuildingBlock: EZIPEK_clean_linker_0, # of connection points: 2
#     Edge 60, Type (0, 0), BuildingBlock: EZIPEK_clean_linker_0, # of connection points: 2
#     Edge 61, Type (0, 0), BuildingBlock: EZIPEK_clean_linker_0, # of connection points: 2
#     Edge 62, Type (0, 0), BuildingBlock: EZIPEK_clean_linker_0, # of connection points: 2
#     Edge 63, Type (0, 0), BuildingBlock: EZIPEK_clean_linker_0, # of connection points: 2
#     Edge 64, Type (0, 0), BuildingBlock: EZIPEK_clean_linker_0, # of connection points: 2
#     Edge 65, Type (0, 0), BuildingBlock: EZIPEK_clean_linker_0, # of connection points: 2
#     Edge 66, Type (0, 0), BuildingBlock: EZIPEK_clean_linker_0, # of connection points: 2
#     Edge 67, Type (0, 0), BuildingBlock: EZIPEK_clean_linker_0, # of connection points: 2
#     Edge 68, Type (0, 0), BuildingBlock: EZIPEK_clean_linker_0, # of connection points: 2
#     Edge 69, Type (0, 0), BuildingBlock: EZIPEK_clean_linker_0, # of connection points: 2
#     Edge 70, Type (0, 0), BuildingBlock: EZIPEK_clean_linker_0, # of connection points: 2
#     Edge 71, Type (0, 0), BuildingBlock: EZIPEK_clean_linker_0, # of connection points: 2
#     Edge 72, Type (0, 0), BuildingBlock: EZIPEK_clean_linker_0, # of connection points: 2
#     Edge 73, Type (0, 0), BuildingBlock: EZIPEK_clean_linker_0, # of connection points: 2
#     Edge 74, Type (0, 0), BuildingBlock: EZIPEK_clean_linker_0, # of connection points: 2
#     Edge 75, Type (0, 0), BuildingBlock: EZIPEK_clean_linker_0, # of connection points: 2
#     Edge 76, Type (0, 0), BuildingBlock: EZIPEK_clean_linker_0, # of connection points: 2
#     Edge 77, Type (0, 0), BuildingBlock: EZIPEK_clean_linker_0, # of connection points: 2
#     Edge 78, Type (0, 0), BuildingBlock: EZIPEK_clean_linker_0, # of connection points: 2
#     Edge 79, Type (0, 0), BuildingBlock: EZIPEK_clean_linker_0, # of connection points: 2
#     Edge 80, Type (0, 0), BuildingBlock: EZIPEK_clean_linker_0, # of connection points: 2
#     Edge 81, Type (0, 0), BuildingBlock: EZIPEK_clean_linker_0, # of connection points: 2
#     Edge 82, Type (0, 0), BuildingBlock: EZIPEK_clean_linker_0, # of connection points: 2
#     Edge 83, Type (0, 0), BuildingBlock: EZIPEK_clean_linker_0, # of connection points: 2
#     Edge 84, Type (0, 0), BuildingBlock: EZIPEK_clean_linker_0, # of connection points: 2
#     Edge 85, Type (0, 0), BuildingBlock: EZIPEK_clean_linker_0, # of connection points: 2
#     Edge 86, Type (0, 0), BuildingBlock: EZIPEK_clean_linker_0, # of connection points: 2
#     Edge 87, Type (0, 0), BuildingBlock: EZIPEK_clean_linker_0, # of connection points: 2
#     Edge 88, Type (0, 0), BuildingBlock: EZIPEK_clean_linker_0, # of connection points: 2
#     Edge 89, Type (0, 0), BuildingBlock: EZIPEK_clean_linker_0, # of connection points: 2
#     Edge 90, Type (0, 0), BuildingBlock: EZIPEK_clean_linker_0, # of connection points: 2
#     Edge 91, Type (0, 0), BuildingBlock: EZIPEK_clean_linker_0, # of connection points: 2
#     Edge 92, Type (0, 0), BuildingBlock: EZIPEK_clean_linker_0, # of connection points: 2
#     Edge 93, Type (0, 0), BuildingBlock: EZIPEK_clean_linker_0, # of connection points: 2
#     Edge 94, Type (0, 0), BuildingBlock: EZIPEK_clean_linker_0, # of connection points: 2
#     Edge 95, Type (0, 0), BuildingBlock: EZIPEK_clean_linker_0, # of connection points: 2
# Relax obj value: 0.471
# Max RMSD: 0.193
# Mean RMSD: 0.193
data_MOF--net-wjb--node1-IZENUY_clean_sbu_0--edge1-EZIPEK_clean_linker_0
_symmetry_space_group_name_H-M    P1
_symmetry_Int_Tables_number       1
_symmetry_cell_setting            triclinic
loop_
_symmetry_equiv_pos_as_xyz
'x, y, z'
_cell_length_a     38.685641
_cell_length_b     38.692751
_cell_length_c     40.933901
_cell_angle_alpha  89.883336
_cell_angle_beta   90.011102
_cell_angle_gamma 120.09205
loop_
_atom_site_label
_atom_site_type_symbol
_atom_site_fract_x
_atom_site_fract_y
_atom_site_fract_z
_atom_type_partial_charge
Fe0 Fe 0.17674 0.4585 0.13375 0.0
Fe1 Fe 0.14296 0.5167 0.13636 0.0
O2 O 0.17594 0.50179 0.11938 0.0
Fe3 Fe 0.20946 0.53217 0.08811 0.0
O4 O 0.25137 0.54407 0.114 0.0
O5 O 0.23227 0.48398 0.13393 0.0
O6 O 0.18142 0.47321 0.17655 0.0
C7 C 0.1629 0.48667 0.19241 0.0
C8 C 0.19586 0.45593 0.06882 0.0
O9 O 0.14271 0.49951 0.17813 0.0
C10 C 0.14322 0.53256 0.06791 0.0
O11 O 0.12122 0.42764 0.1362 0.0
O12 O 0.09943 0.46982 0.12552 0.0
O13 O 0.21507 0.49336 0.06809 0.0
O14 O 0.17303 0.4377 0.09257 0.0
C15 C 0.20953 0.59059 0.12885 0.0
O16 O 0.13578 0.53618 0.09748 0.0
O17 O 0.16859 0.52217 0.06078 0.0
C18 C 0.09317 0.43476 0.12922 0.0
O19 O 0.1847 0.56562 0.14882 0.0
O20 O 0.21262 0.57867 0.10103 0.0
C21 C 0.2586 0.52072 0.13028 0.0
Fe22 Fe 0.66922 0.19807 0.59127 0.0
Fe23 Fe 0.71823 0.17154 0.6322 0.0
O24 O 0.67107 0.16551 0.62038 0.0
Fe25 Fe 0.62546 0.12814 0.63803 0.0
O26 O 0.61305 0.1649 0.65376 0.0
O27 O 0.6241 0.19608 0.6071 0.0
O28 O 0.69723 0.23953 0.61807 0.0
C29 C 0.73262 0.25163 0.62694 0.0
C30 C 0.60653 0.12867 0.57045 0.0
O31 O 0.74565 0.22728 0.62888 0.0
C32 C 0.66489 0.08651 0.62882 0.0
O33 O 0.71412 0.20762 0.56915 0.0
O34 O 0.7321 0.16696 0.59029 0.0
O35 O 0.59596 0.11951 0.60012 0.0
O36 O 0.64063 0.15755 0.56346 0.0
C37 C 0.67941 0.15518 0.6917 0.0
O38 O 0.69812 0.11671 0.63726 0.0
O39 O 0.63419 0.08915 0.62405 0.0
C40 C 0.734 0.19005 0.56761 0.0
O41 O 0.70971 0.17783 0.67487 0.0
O42 O 0.64693 0.12961 0.67851 0.0
C43 C 0.61019 0.18971 0.63569 0.0
Fe44 Fe 0.47835 0.68485 0.09615 0.0
Fe45 Fe 0.55693 0.72444 0.13376 0.0
O46 O 0.51212 0.68052 0.12238 0.0
Fe47 Fe 0.50099 0.63219 0.13565 0.0
O48 O 0.45337 0.6205 0.15311 0.0
O49 O 0.43305 0.63949 0.11054 0.0
O50 O 0.4688 0.71306 0.12615 0.0
C51 C 0.49598 0.74643 0.13658 0.0
C52 C 0.47861 0.6219 0.06813 0.0
O53 O 0.53266 0.75565 0.1354 0.0
C54 C 0.5819 0.66624 0.12538 0.0
O55 O 0.51518 0.73064 0.07545 0.0
O56 O 0.57268 0.73823 0.09077 0.0
O57 O 0.47716 0.60727 0.09632 0.0
O58 O 0.48808 0.65788 0.06545 0.0
C59 C 0.53366 0.68237 0.192 0.0
O60 O 0.58818 0.70015 0.13515 0.0
O61 O 0.54715 0.63835 0.11942 0.0
C62 C 0.55174 0.74394 0.07003 0.0
O63 O 0.54478 0.71465 0.17678 0.0
O64 O 0.52226 0.64954 0.17701 0.0
C65 C 0.42553 0.61918 0.13646 0.0
Fe66 Fe 0.81764 0.4807 0.58312 0.0
Fe67 Fe 0.84525 0.55426 0.62753 0.0
O68 O 0.84922 0.51231 0.61445 0.0
Fe69 Fe 0.88417 0.50081 0.63269 0.0
O70 O 0.84467 0.451 0.64571 0.0
O71 O 0.81598 0.43541 0.59798 0.0
O72 O 0.77373 0.46744 0.60735 0.0
C73 C 0.76441 0.491 0.62061 0.0
C74 C 0.88692 0.48425 0.56522 0.0
O75 O 0.78997 0.52787 0.62427 0.0
C76 C 0.92964 0.5828 0.62578 0.0
O77 O 0.81193 0.51871 0.56171 0.0
O78 O 0.85178 0.57519 0.58636 0.0
O79 O 0.89376 0.48123 0.59504 0.0
O80 O 0.86007 0.49211 0.55703 0.0
C81 C 0.8584 0.52819 0.68668 0.0
O82 O 0.90001 0.58708 0.6332 0.0
O83 O 0.92574 0.54883 0.62108 0.0
C84 C 0.83021 0.55623 0.56235 0.0
O85 O 0.83741 0.53783 0.66978 0.0
O86 O 0.8821 0.51884 0.67359 0.0
C87 C 0.82047 0.42492 0.62613 0.0
Fe88 Fe 0.39341 0.89077 0.13449 0.0
Fe89 Fe 0.3537 0.82117 0.08708 0.0
O90 O 0.34926 0.85116 0.11711 0.0
Fe91 Fe 0.30101 0.84087 0.12979 0.0
O92 O 0.31114 0.83403 0.17165 0.0
O93 O 0.37143 0.88666 0.17534 0.0
O94 O 0.40999 0.8571 0.1491 0.0
C95 C 0.41458 0.83349 0.13101 0.0
C96 C 0.3479 0.92618 0.12719 0.0
O97 O 0.40092 0.82674 0.10228 0.0
C98 C 0.28587 0.82503 0.06506 0.0
O99 O 0.42324 0.90214 0.09648 0.0
O100 O 0.37922 0.86357 0.05998 0.0
O101 O 0.31665 0.89433 0.13627 0.0
O102 O 0.38009 0.92681 0.12116 0.0
C103 C 0.29337 0.76384 0.12349 0.0
O104 O 0.30719 0.8088 0.06564 0.0
O105 O 0.28621 0.84609 0.08863 0.0
C106 C 0.41196 0.89444 0.06693 0.0
O107 O 0.32868 0.77809 0.11329 0.0
O108 O 0.27756 0.78576 0.12538 0.0
C109 C 0.34031 0.85856 0.18851 0.0
Fe110 Fe 0.54219 0.34406 0.58595 0.0
Fe111 Fe 0.46849 0.29643 0.62892 0.0
O112 O 0.50855 0.34316 0.61548 0.0
Fe113 Fe 0.51662 0.3891 0.6317 0.0
O114 O 0.56697 0.40359 0.64568 0.0
O115 O 0.5855 0.39116 0.59899 0.0
O116 O 0.55815 0.31922 0.61442 0.0
C117 C 0.53591 0.2847 0.62571 0.0
C118 C 0.53089 0.40371 0.56302 0.0
O119 O 0.49833 0.27081 0.62672 0.0
C120 C 0.43482 0.34782 0.62497 0.0
O121 O 0.50668 0.29655 0.5661 0.0
O122 O 0.44885 0.28056 0.58756 0.0
O123 O 0.53515 0.41619 0.59235 0.0
O124 O 0.52745 0.36996 0.5571 0.0
C125 C 0.49098 0.33724 0.68757 0.0
O126 O 0.4327 0.31505 0.63338 0.0
O127 O 0.46779 0.37876 0.61917 0.0
C128 C 0.46898 0.27694 0.56498 0.0
O129 O 0.48416 0.30692 0.67126 0.0
O130 O 0.49873 0.36963 0.67346 0.0
C131 C 0.59419 0.40667 0.62696 0.0
Fe132 Fe 0.5476 0.83925 0.89018 0.0
Fe133 Fe 0.5015 0.88594 0.8866 0.0
O134 O 0.50725 0.84631 0.90248 0.0
Fe135 Fe 0.47088 0.81194 0.92997 0.0
O136 O 0.45697 0.77285 0.90063 0.0
O137 O 0.51702 0.78327 0.89104 0.0
O138 O 0.53436 0.83651 0.8471 0.0
C139 C 0.52686 0.86002 0.8312 0.0
C140 C 0.54255 0.81641 0.95432 0.0
O141 O 0.52059 0.8853 0.84564 0.0
C142 C 0.48051 0.88124 0.95445 0.0
O143 O 0.58482 0.89397 0.8875 0.0
O144 O 0.55045 0.92331 0.90096 0.0
O145 O 0.5049 0.79905 0.9517 0.0
O146 O 0.56447 0.84057 0.93239 0.0
C147 C 0.42256 0.82646 0.88685 0.0
O148 O 0.48159 0.89353 0.92536 0.0
O149 O 0.48266 0.85025 0.96008 0.0
C150 C 0.5835 0.92508 0.8959 0.0
O151 O 0.45162 0.85185 0.87014 0.0
O152 O 0.42861 0.81633 0.9146 0.0
C153 C 0.47929 0.7597 0.89197 0.0
Fe154 Fe 0.72076 0.55014 0.38695 0.0
Fe155 Fe 0.62974 0.49532 0.38613 0.0
O156 O 0.67715 0.50703 0.4022 0.0
Fe157 Fe 0.68114 0.47608 0.4323 0.0
O158 O 0.72579 0.47924 0.41395 0.0
O159 O 0.74047 0.5192 0.37098 0.0
O160 O 0.70017 0.54866 0.34605 0.0
C161 C 0.67408 0.51926 0.32997 0.0
C162 C 0.74313 0.54836 0.45321 0.0
O163 O 0.64551 0.4906 0.34501 0.0
C164 C 0.61302 0.4816 0.45189 0.0
O165 O 0.70293 0.5831 0.4022 0.0
O166 O 0.64367 0.54766 0.37957 0.0
O167 O 0.71039 0.5176 0.45994 0.0
O168 O 0.7511 0.5608 0.42414 0.0
C169 C 0.61858 0.41754 0.39588 0.0
O170 O 0.61095 0.49861 0.42612 0.0
O171 O 0.637 0.46845 0.45467 0.0
C172 C 0.66953 0.5791 0.3938 0.0
O173 O 0.6056 0.44094 0.39006 0.0
O174 O 0.65234 0.43015 0.40882 0.0
C175 C 0.74289 0.49211 0.38655 0.0
Fe176 Fe 0.13421 0.62591 0.89365 0.0
Fe177 Fe 0.20795 0.67935 0.93579 0.0
O178 O 0.17203 0.67446 0.9065 0.0
Fe179 Fe 0.17348 0.71778 0.88967 0.0
O180 O 0.15466 0.69499 0.84928 0.0
O181 O 0.15206 0.6368 0.85195 0.0
O182 O 0.16386 0.60137 0.89895 0.0
C183 C 0.20085 0.61497 0.90191 0.0
C184 C 0.09249 0.66819 0.89777 0.0
O185 O 0.22349 0.64989 0.91206 0.0
C186 C 0.19843 0.7414 0.95571 0.0
O187 O 0.11384 0.6114 0.93451 0.0
O188 O 0.17212 0.63608 0.95934 0.0
O189 O 0.1227 0.70173 0.90457 0.0
O190 O 0.09669 0.64038 0.88608 0.0
C191 C 0.25404 0.74071 0.88942 0.0
O192 O 0.19625 0.70881 0.9628 0.0
O193 O 0.19341 0.74904 0.92659 0.0
C194 C 0.13457 0.61352 0.95897 0.0
O195 O 0.24976 0.72376 0.91685 0.0
O196 O 0.22413 0.73681 0.87356 0.0
C197 C 0.15463 0.66561 0.83558 0.0
Fe198 Fe 0.53309 0.19642 0.43664 0.0
Fe199 Fe 0.46205 0.1672 0.39047 0.0
O200 O 0.50254 0.16286 0.40622 0.0
Fe201 Fe 0.51324 0.12594 0.39133 0.0
O202 O 0.56836 0.15734 0.39553 0.0
O203 O 0.57591 0.2153 0.40994 0.0
O204 O 0.52756 0.23813 0.42291 0.0
C205 C 0.52018 0.24656 0.39497 0.0
C206 C 0.52879 0.12399 0.45625 0.0
O207 O 0.49562 0.21894 0.3764 0.0
C208 C 0.42842 0.08523 0.39687 0.0
O209 O 0.4914 0.17971 0.46476 0.0
O210 O 0.45166 0.18503 0.42954 0.0
O211 O 0.50878 0.10416 0.43187 0.0
O212 O 0.54518 0.16153 0.45665 0.0
C213 C 0.49364 0.14961 0.33393 0.0
O214 O 0.42606 0.11601 0.40346 0.0
O215 O 0.46023 0.08828 0.38511 0.0
C216 C 0.46117 0.18321 0.45901 0.0
O217 O 0.46526 0.15055 0.34875 0.0
O218 O 0.51886 0.14445 0.34955 0.0
C219 C 0.59035 0.19486 0.39886 0.0
Fe220 Fe 0.2927 0.45667 0.89326 0.0
Fe221 Fe 0.38483 0.51178 0.88736 0.0
O222 O 0.33821 0.49955 0.90563 0.0
Fe223 Fe 0.33797 0.53112 0.93664 0.0
O224 O 0.30649 0.54301 0.9128 0.0
O225 O 0.26283 0.48187 0.89673 0.0
O226 O 0.30038 0.4724 0.85064 0.0
C227 C 0.3312 0.48244 0.83377 0.0
C228 C 0.27681 0.4551 0.95912 0.0
O229 O 0.3642 0.49161 0.84698 0.0
C230 C 0.4049 0.5304 0.95437 0.0
O231 O 0.3161 0.4253 0.88762 0.0
O232 O 0.37977 0.46495 0.90058 0.0
O233 O 0.29504 0.4927 0.95913 0.0
O234 O 0.27934 0.43627 0.9349 0.0
C235 C 0.39473 0.58655 0.89168 0.0
O236 O 0.4147 0.53438 0.92449 0.0
O237 O 0.36967 0.52055 0.96232 0.0
C238 C 0.35021 0.43059 0.89581 0.0
O239 O 0.39324 0.56018 0.87271 0.0
O240 O 0.38047 0.57696 0.92027 0.0
C241 C 0.27381 0.5187 0.8997 0.0
Fe242 Fe 0.8902 0.39296 0.39011 0.0
Fe243 Fe 0.81953 0.34901 0.43796 0.0
O244 O 0.85056 0.34756 0.40677 0.0
Fe245 Fe 0.84103 0.30045 0.39148 0.0
O246 O 0.85788 0.31798 0.34969 0.0
O247 O 0.87002 0.37982 0.34914 0.0
O248 O 0.86412 0.42144 0.39282 0.0
C249 C 0.82775 0.41034 0.39744 0.0
C250 C 0.92344 0.34226 0.39525 0.0
O251 O 0.8053 0.37835 0.41258 0.0
C252 C 0.82181 0.2835 0.45958 0.0
O253 O 0.91391 0.41066 0.42984 0.0
O254 O 0.85875 0.39363 0.45741 0.0
O255 O 0.89121 0.31103 0.4034 0.0
O256 O 0.92343 0.37269 0.38395 0.0
C257 C 0.76403 0.28783 0.3968 0.0
O258 O 0.83048 0.31896 0.46595 0.0
O259 O 0.822 0.27311 0.4303 0.0
C260 C 0.89629 0.41277 0.45502 0.0
O261 O 0.77449 0.30473 0.42424 0.0
O262 O 0.7901 0.28721 0.3784 0.0
C263 C 0.86186 0.34813 0.33444 0.0
Fe264 Fe 0.80128 0.47853 0.92464 0.0
Fe265 Fe 0.84099 0.55549 0.88507 0.0
O266 O 0.83954 0.51084 0.89791 0.0
Fe267 Fe 0.87646 0.49879 0.88561 0.0
O268 O 0.84011 0.45032 0.86918 0.0
O269 O 0.80006 0.43219 0.91134 0.0
O270 O 0.76362 0.46847 0.89448 0.0
C271 C 0.75819 0.49529 0.88217 0.0
C272 C 0.8637 0.47798 0.95316 0.0
O273 O 0.78552 0.53198 0.88349 0.0
C274 C 0.92373 0.58013 0.89434 0.0
O275 O 0.79361 0.51693 0.94426 0.0
O276 O 0.84405 0.57318 0.92721 0.0
O277 O 0.87717 0.47578 0.9254 0.0
O278 O 0.83808 0.48872 0.95533 0.0
C279 C 0.85909 0.53003 0.82833 0.0
O280 O 0.89641 0.58606 0.88329 0.0
O281 O 0.91676 0.5455 0.90116 0.0
C282 C 0.81775 0.55365 0.94852 0.0
O283 O 0.83792 0.54147 0.84282 0.0
O284 O 0.88058 0.51906 0.84381 0.0
C285 C 0.81296 0.42324 0.88623 0.0
Fe286 Fe 0.30021 0.83695 0.39117 0.0
Fe287 Fe 0.39187 0.88215 0.38161 0.0
O288 O 0.3478 0.84157 0.39827 0.0
Fe289 Fe 0.35205 0.80652 0.42283 0.0
O290 O 0.30411 0.7638 0.40994 0.0
O291 O 0.2792 0.78689 0.37344 0.0
O292 O 0.31311 0.85631 0.34914 0.0
C293 C 0.33987 0.85849 0.32986 0.0
C294 C 0.29442 0.80993 0.45738 0.0
O295 O 0.37354 0.8656 0.34071 0.0
C296 C 0.41601 0.87991 0.44392 0.0
O297 O 0.3169 0.88712 0.40824 0.0
O298 O 0.37328 0.91722 0.38083 0.0
O299 O 0.33011 0.81807 0.45689 0.0
O300 O 0.27874 0.81442 0.43165 0.0
C301 C 0.40801 0.81784 0.37763 0.0
O302 O 0.41187 0.90092 0.4223 0.0
O303 O 0.4005 0.8426 0.4404 0.0
C304 C 0.34703 0.91895 0.39785 0.0
O305 O 0.41961 0.8548 0.37876 0.0
O306 O 0.37498 0.79326 0.39032 0.0
C307 C 0.27986 0.75791 0.38712 0.0
Fe308 Fe 0.51419 0.38716 0.88318 0.0
Fe309 Fe 0.54425 0.34503 0.92889 0.0
O310 O 0.5079 0.34217 0.90092 0.0
Fe311 Fe 0.46575 0.29474 0.89108 0.0
O312 O 0.47748 0.30185 0.84758 0.0
O313 O 0.49262 0.36466 0.84326 0.0
O314 O 0.56258 0.40076 0.86591 0.0
C315 C 0.5918 0.40498 0.88245 0.0
C316 C 0.43345 0.3469 0.89539 0.0
O317 O 0.58662 0.38969 0.9106 0.0
C318 C 0.47242 0.28111 0.95638 0.0
O319 O 0.53705 0.41804 0.91989 0.0
O320 O 0.53371 0.37502 0.95659 0.0
O321 O 0.43041 0.31372 0.88757 0.0
O322 O 0.46688 0.37794 0.89893 0.0
C323 C 0.53135 0.28031 0.89305 0.0
O324 O 0.50998 0.30099 0.95324 0.0
O325 O 0.45019 0.28225 0.93414 0.0
C326 C 0.53643 0.40807 0.94947 0.0
O327 O 0.55643 0.31496 0.90275 0.0
O328 O 0.49416 0.26823 0.89252 0.0
C329 C 0.48461 0.33174 0.83029 0.0
Fe330 Fe 0.173 0.46242 0.39279 0.0
Fe331 Fe 0.12643 0.50881 0.39046 0.0
O332 O 0.1652 0.50184 0.40651 0.0
Fe333 Fe 0.19752 0.53557 0.43619 0.0
O334 O 0.23871 0.55216 0.40826 0.0
O335 O 0.22863 0.49266 0.39598 0.0
O336 O 0.17861 0.47899 0.35068 0.0
C337 C 0.15583 0.48715 0.3346 0.0
C338 C 0.19118 0.46213 0.45719 0.0
O339 O 0.12974 0.49275 0.34861 0.0
C340 C 0.12591 0.52281 0.45924 0.0
O341 O 0.11885 0.42572 0.38737 0.0
O342 O 0.08867 0.45878 0.40237 0.0
O343 O 0.20901 0.49985 0.45645 0.0
O344 O 0.16862 0.44207 0.43397 0.0
C345 C 0.1856 0.58763 0.39528 0.0
O346 O 0.11648 0.52592 0.42999 0.0
O347 O 0.15688 0.52057 0.46489 0.0
C348 C 0.08756 0.42629 0.39617 0.0
O349 O 0.16105 0.56005 0.37692 0.0
O350 O 0.19393 0.57893 0.42279 0.0
C351 C 0.25188 0.53028 0.39814 0.0
Fe352 Fe 0.72365 0.17405 0.89032 0.0
Fe353 Fe 0.6314 0.13116 0.89017 0.0
O354 O 0.67832 0.16978 0.90533 0.0
Fe355 Fe 0.67999 0.20403 0.935 0.0
O356 O 0.72419 0.24737 0.91766 0.0
O357 O 0.7406 0.22473 0.87435 0.0
O358 O 0.70404 0.15515 0.84921 0.0
C359 C 0.67545 0.15451 0.83359 0.0
C360 C 0.74323 0.19802 0.95721 0.0
O361 O 0.64487 0.15018 0.84845 0.0
C362 C 0.61502 0.12919 0.95588 0.0
O363 O 0.70878 0.12317 0.90511 0.0
O364 O 0.64826 0.095 0.88394 0.0
O365 O 0.70925 0.19311 0.96308 0.0
O366 O 0.75299 0.19491 0.92828 0.0
C367 C 0.61709 0.19579 0.89766 0.0
O368 O 0.61438 0.10965 0.93087 0.0
O369 O 0.63638 0.16678 0.95711 0.0
C370 C 0.67641 0.09204 0.89676 0.0
O371 O 0.60489 0.15918 0.89362 0.0
O372 O 0.65046 0.21857 0.91045 0.0
C373 C 0.74148 0.25334 0.89026 0.0
Fe374 Fe 0.49991 0.62669 0.39011 0.0
Fe375 Fe 0.48217 0.67642 0.43802 0.0
O376 O 0.51348 0.67409 0.4074 0.0
Fe377 Fe 0.55691 0.71878 0.39408 0.0
O378 O 0.54161 0.71008 0.35141 0.0
O379 O 0.51827 0.64539 0.3486 0.0
O380 O 0.45091 0.61828 0.37686 0.0
C381 C 0.4252 0.61779 0.39607 0.0
C382 C 0.58168 0.66002 0.39691 0.0
O383 O 0.43602 0.6333 0.42392 0.0
C384 C 0.55828 0.73734 0.45919 0.0
O385 O 0.47948 0.59899 0.42864 0.0
O386 O 0.49152 0.64516 0.46542 0.0
O387 O 0.58784 0.69472 0.38974 0.0
O388 O 0.547 0.63096 0.40174 0.0
C389 C 0.49568 0.73909 0.39808 0.0
O390 O 0.52082 0.72022 0.45889 0.0
O391 O 0.57706 0.73327 0.43566 0.0
C392 C 0.48176 0.60963 0.45826 0.0
O393 O 0.47098 0.70713 0.41216 0.0
O394 O 0.53243 0.74944 0.39562 0.0
C395 C 0.53005 0.67878 0.33484 0.0
Fe396 Fe 0.54165 0.19444 0.09003 0.0
Fe397 Fe 0.46744 0.17243 0.13228 0.0
O398 O 0.50591 0.16282 0.11905 0.0
Fe399 Fe 0.50981 0.12218 0.13531 0.0
O400 O 0.5596 0.15534 0.15215 0.0
O401 O 0.583 0.18952 0.10684 0.0
O402 O 0.55775 0.23656 0.11659 0.0
C403 C 0.53642 0.2503 0.12679 0.0
C404 C 0.53213 0.12427 0.06826 0.0
O405 O 0.49903 0.22761 0.13022 0.0
C406 C 0.42867 0.08751 0.12581 0.0
O407 O 0.5079 0.20658 0.06771 0.0
O408 O 0.44894 0.17099 0.09053 0.0
O409 O 0.53045 0.1131 0.09766 0.0
O410 O 0.52804 0.15383 0.06161 0.0
C411 C 0.48737 0.15015 0.1908 0.0
O412 O 0.42939 0.11883 0.13616 0.0
O413 O 0.46052 0.08693 0.12011 0.0
C414 C 0.47052 0.19222 0.06704 0.0
O415 O 0.48236 0.17557 0.17519 0.0
O416 O 0.49035 0.12325 0.1758 0.0
C417 C 0.58868 0.18051 0.13529 0.0
Fe418 Fe 0.29059 0.44979 0.6358 0.0
Fe419 Fe 0.38212 0.50639 0.6345 0.0
O420 O 0.3333 0.49377 0.62092 0.0
Fe421 Fe 0.32739 0.52548 0.59316 0.0
O422 O 0.28053 0.5179 0.61108 0.0
O423 O 0.26931 0.47825 0.65332 0.0
O424 O 0.31235 0.45263 0.6766 0.0
C425 C 0.33961 0.48251 0.69186 0.0
C426 C 0.2692 0.45393 0.5691 0.0
O427 O 0.36913 0.50983 0.6766 0.0
C428 C 0.39672 0.5246 0.56978 0.0
O429 O 0.30923 0.41814 0.6196 0.0
O430 O 0.36974 0.45419 0.64003 0.0
O431 O 0.30139 0.48587 0.56377 0.0
O432 O 0.26046 0.43962 0.59785 0.0
C433 C 0.38869 0.583 0.62858 0.0
O434 O 0.39864 0.50433 0.59323 0.0
O435 O 0.37321 0.53842 0.57045 0.0
C436 C 0.34281 0.42223 0.62711 0.0
O437 O 0.40423 0.5611 0.63098 0.0
O438 O 0.35284 0.56815 0.62006 0.0
C439 C 0.26393 0.50366 0.63832 0.0
Fe440 Fe 0.88389 0.38991 0.13738 0.0
Fe441 Fe 0.80587 0.34142 0.10028 0.0
O442 O 0.84407 0.3431 0.12429 0.0
Fe443 Fe 0.84086 0.29722 0.1361 0.0
O444 O 0.8387 0.30826 0.1789 0.0
O445 O 0.88816 0.37093 0.17734 0.0
O446 O 0.85081 0.40449 0.15732 0.0
C447 C 0.82228 0.40526 0.14316 0.0
C448 C 0.9246 0.35006 0.12557 0.0
O449 O 0.80788 0.38592 0.11719 0.0
C450 C 0.81722 0.28044 0.07282 0.0
O451 O 0.88555 0.41672 0.09942 0.0
O452 O 0.84031 0.36956 0.06798 0.0
O453 O 0.8959 0.3185 0.13795 0.0
O454 O 0.92033 0.37956 0.11889 0.0
C455 C 0.75931 0.27868 0.13845 0.0
O456 O 0.79574 0.29607 0.07781 0.0
O457 O 0.84263 0.2835 0.09375 0.0
C458 C 0.87045 0.40391 0.07144 0.0
O459 O 0.7707 0.31444 0.13229 0.0
O460 O 0.78471 0.26707 0.13612 0.0
C461 C 0.86315 0.34031 0.19322 0.0
Fe462 Fe 0.54826 0.83572 0.63105 0.0
Fe463 Fe 0.50021 0.88027 0.62995 0.0
O464 O 0.50874 0.84197 0.61487 0.0
Fe465 Fe 0.47718 0.81036 0.58337 0.0
O466 O 0.46129 0.76611 0.60768 0.0
O467 O 0.51949 0.78021 0.62879 0.0
O468 O 0.53028 0.83128 0.67302 0.0
C469 C 0.5234 0.8559 0.68772 0.0
C470 C 0.55304 0.81926 0.56601 0.0
O471 O 0.51716 0.88014 0.6717 0.0
C472 C 0.48569 0.88097 0.56189 0.0
O473 O 0.58331 0.89021 0.63549 0.0
O474 O 0.54964 0.91866 0.61722 0.0
O475 O 0.51568 0.80374 0.5632 0.0
O476 O 0.571 0.83923 0.59103 0.0
C477 C 0.42348 0.81799 0.62611 0.0
O478 O 0.48098 0.88848 0.59108 0.0
O479 O 0.49108 0.85213 0.55606 0.0
C480 C 0.58229 0.92065 0.62484 0.0
O481 O 0.45037 0.84398 0.64405 0.0
O482 O 0.43186 0.81023 0.59807 0.0
C483 C 0.48321 0.75532 0.62191 0.0
Fe484 Fe 0.72472 0.55486 0.12941 0.0
Fe485 Fe 0.6328 0.49896 0.12877 0.0
O486 O 0.68125 0.51201 0.11443 0.0
Fe487 Fe 0.68601 0.48024 0.08586 0.0
O488 O 0.71383 0.46881 0.11527 0.0
O489 O 0.75534 0.53032 0.13075 0.0
O490 O 0.71177 0.53812 0.17174 0.0
C491 C 0.67911 0.52672 0.18645 0.0
C492 C 0.74812 0.55593 0.06552 0.0
O493 O 0.64786 0.51768 0.17046 0.0
C494 C 0.62203 0.48177 0.06042 0.0
O495 O 0.70066 0.58613 0.1313 0.0
O496 O 0.63824 0.54607 0.11569 0.0
O497 O 0.73201 0.51858 0.06718 0.0
O498 O 0.74261 0.57515 0.08801 0.0
C499 C 0.62386 0.42391 0.12524 0.0
O500 O 0.60887 0.47916 0.08924 0.0
O501 O 0.65761 0.48964 0.05539 0.0
C502 C 0.66667 0.58051 0.12224 0.0
O503 O 0.62325 0.44983 0.14349 0.0
O504 O 0.64109 0.43467 0.09804 0.0
C505 C 0.74465 0.49345 0.13078 0.0
Fe506 Fe 0.17629 0.70361 0.63591 0.0
Fe507 Fe 0.12599 0.61124 0.63993 0.0
O508 O 0.16938 0.65559 0.62599 0.0
Fe509 Fe 0.2048 0.6503 0.60262 0.0
O510 O 0.24817 0.69302 0.62017 0.0
O511 O 0.22613 0.72232 0.65341 0.0
O512 O 0.15612 0.6876 0.67776 0.0
C513 C 0.15019 0.65736 0.6947 0.0
C514 C 0.20654 0.71427 0.57033 0.0
O515 O 0.1417 0.62437 0.68179 0.0
C516 C 0.12974 0.59339 0.57624 0.0
O517 O 0.12734 0.69107 0.61888 0.0
O518 O 0.09394 0.63298 0.64292 0.0
O519 O 0.2031 0.68006 0.56909 0.0
O520 O 0.19884 0.72707 0.59626 0.0
C521 C 0.18392 0.58811 0.6449 0.0
O522 O 0.10861 0.5967 0.5982 0.0
O523 O 0.16668 0.60612 0.58065 0.0
C524 C 0.09456 0.66158 0.62786 0.0
O525 O 0.14807 0.57871 0.64068 0.0
O526 O 0.21102 0.62116 0.63433 0.0
C527 C 0.2545 0.71928 0.64119 0.0
C528 C 0.11196 0.54646 0.98337 0.0
C529 C 0.11708 0.58519 0.98639 0.0
C530 C 0.13091 0.58644 0.04444 0.0
C531 C 0.12829 0.5483 0.04151 0.0
N532 N 0.10411 0.48734 1.01075 0.0
N533 N 0.11484 0.63403 0.02038 0.0
C534 C 0.11459 0.52667 0.01176 0.0
C535 C 0.12027 0.60196 0.01738 0.0
N536 N 0.10714 0.52979 0.95315 0.0
N537 N 0.14717 0.60997 0.07138 0.0
H538 H 0.10754 0.6457 1.00025 0.0
H539 H 0.11323 0.64582 0.04282 0.0
H540 H 0.15742 0.60206 0.09181 0.0
H541 H 0.15412 0.63968 0.07233 0.0
H542 H 0.10912 0.50437 0.94861 0.0
H543 H 0.10248 0.54245 0.93232 0.0
H544 H 0.09079 0.46903 0.99059 0.0
H545 H 0.10538 0.47206 0.03126 0.0
C546 C 0.53958 0.10798 0.54335 0.0
C547 C 0.57754 0.11036 0.54304 0.0
C548 C 0.57424 0.10406 0.48334 0.0
C549 C 0.53825 0.1051 0.48372 0.0
N550 N 0.47887 0.08906 0.51317 0.0
N551 N 0.62138 0.09341 0.51456 0.0
C552 C 0.51826 0.10041 0.51356 0.0
C553 C 0.59156 0.10244 0.51351 0.0
N554 N 0.52508 0.11626 0.57086 0.0
N555 N 0.59279 0.10671 0.45434 0.0
H556 H 0.63338 0.09091 0.53667 0.0
H557 H 0.63088 0.08434 0.49416 0.0
H558 H 0.57947 0.10577 0.43195 0.0
H559 H 0.62163 0.11116 0.45271 0.0
H560 H 0.50005 0.11972 0.57062 0.0
H561 H 0.53888 0.1222 0.59353 0.0
H562 H 0.46118 0.0808 0.53413 0.0
H563 H 0.46359 0.08369 0.49115 0.0
C564 C 0.43942 0.53399 1.00751 0.0
C565 C 0.43586 0.55297 0.97915 0.0
C566 C 0.45423 0.61237 1.00999 0.0
C567 C 0.46363 0.5966 0.03802 0.0
N568 N 0.47563 0.54417 0.05811 0.0
N569 N 0.46019 0.61625 0.95165 0.0
C570 C 0.45951 0.55782 0.0354 0.0
C571 C 0.4511 0.59442 0.97969 0.0
N572 N 0.42365 0.4936 1.00787 0.0
N573 N 0.44386 0.64126 0.0121 0.0
H574 H 0.46149 0.60439 0.92917 0.0
H575 H 0.47166 0.6471 0.95181 0.0
H576 H 0.43617 0.6493 0.03404 0.0
H577 H 0.43588 0.65172 0.99155 0.0
H578 H 0.42197 0.4778 0.02904 0.0
H579 H 0.41059 0.47612 0.98716 0.0
H580 H 0.47493 0.51702 0.0556 0.0
H581 H 0.49406 0.56177 0.07695 0.0
C582 C 0.90162 0.43279 0.5408 0.0
C583 C 0.90529 0.47138 0.53957 0.0
C584 C 0.92739 0.47885 0.4825 0.0
C585 C 0.91806 0.43863 0.48297 0.0
N586 N 0.91595 0.38552 0.51396 0.0
N587 N 0.93523 0.53587 0.51359 0.0
C588 C 0.91254 0.41885 0.51294 0.0
C589 C 0.92293 0.49615 0.51175 0.0
N590 N 0.88434 0.40777 0.56686 0.0
N591 N 0.93872 0.49946 0.45377 0.0
H592 H 0.93314 0.54887 0.53522 0.0
H593 H 0.95029 0.55629 0.49494 0.0
H594 H 0.9439 0.48727 0.43288 0.0
H595 H 0.9423 0.52775 0.45046 0.0
H596 H 0.87641 0.37776 0.56659 0.0
H597 H 0.87523 0.4155 0.58808 0.0
H598 H 0.91602 0.37136 0.53562 0.0
H599 H 0.9231 0.37517 0.49299 0.0
C600 C 0.43551 0.90333 0.98077 0.0
C601 C 0.47023 0.89936 0.9822 0.0
C602 C 0.47867 0.91944 0.03998 0.0
C603 C 0.44013 0.91459 0.03935 0.0
N604 N 0.39581 0.92717 1.0081 0.0
N605 N 0.52721 0.90736 0.01296 0.0
C606 C 0.42349 0.91532 1.00914 0.0
C607 C 0.49302 0.90935 0.01165 0.0
N608 N 0.41116 0.89114 0.95404 0.0
N609 N 0.50215 0.9361 0.06674 0.0
H610 H 0.53937 0.90176 0.99241 0.0
H611 H 0.54235 0.90936 0.03454 0.0
H612 H 0.4929 0.94703 0.08611 0.0
H613 H 0.53199 0.94362 0.068 0.0
H614 H 0.38352 0.88966 0.95352 0.0
H615 H 0.41621 0.87844 0.93367 0.0
H616 H 0.38525 0.93251 0.98635 0.0
H617 H 0.38752 0.93611 0.02933 0.0
C618 C 0.59608 0.48963 0.50942 0.0
C619 C 0.5834 0.4713 0.47845 0.0
C620 C 0.52375 0.41602 0.50348 0.0
C621 C 0.53973 0.43172 0.53472 0.0
N622 N 0.57524 0.49379 0.56423 0.0
N623 N 0.52896 0.42507 0.44445 0.0
C624 C 0.5709 0.47196 0.53689 0.0
C625 C 0.54476 0.43734 0.47492 0.0
N626 N 0.6327 0.52298 0.51284 0.0
N627 N 0.48893 0.38044 0.5015 0.0
H628 H 0.54381 0.44036 0.42333 0.0
H629 H 0.50016 0.40171 0.44003 0.0
H630 H 0.47158 0.36703 0.52219 0.0
H631 H 0.47739 0.3645 0.47999 0.0
H632 H 0.64518 0.53492 0.53553 0.0
H633 H 0.65124 0.53718 0.4929 0.0
H634 H 0.5961 0.52416 0.56593 0.0
H635 H 0.55425 0.48303 0.58305 0.0
C636 C 0.83756 0.44273 1.00573 0.0
C637 C 0.86951 0.45948 0.98292 0.0
C638 C 0.90814 0.44292 0.02109 0.0
C639 C 0.87771 0.43241 0.04474 0.0
N640 N 0.8245 0.4429 0.06256 0.0
N641 N 0.93942 0.48207 0.97227 0.0
C642 C 0.84619 0.43936 0.03808 0.0
C643 C 0.90632 0.46155 0.99138 0.0
N644 N 0.79869 0.42806 0.99669 0.0
N645 N 0.93819 0.43504 0.0269 0.0
H646 H 0.93973 0.4974 0.95124 0.0
H647 H 0.96743 0.48678 0.97903 0.0
H648 H 0.94074 0.42339 0.04921 0.0
H649 H 0.95908 0.43849 1.00922 0.0
H650 H 0.77518 0.41431 0.01338 0.0
H651 H 0.78961 0.42432 0.97238 0.0
H652 H 0.80158 0.44915 0.05827 0.0
H653 H 0.83465 0.44654 0.08644 0.0
C654 C 0.49851 0.90539 0.50366 0.0
C655 C 0.47729 0.90006 0.53334 0.0
C656 C 0.42209 0.89849 0.50303 0.0
C657 C 0.44078 0.89808 0.47337 0.0
N658 N 0.501 0.91456 0.44457 0.0
N659 N 0.43028 0.91387 0.56079 0.0
C660 C 0.48073 0.90638 0.47345 0.0
C661 C 0.44271 0.90391 0.53301 0.0
N662 N 0.53527 0.90869 0.50469 0.0
N663 N 0.384 0.89192 0.50262 0.0
H664 H 0.44742 0.92287 0.58197 0.0
H665 H 0.40637 0.9191 0.56139 0.0
H666 H 0.36908 0.88988 0.48089 0.0
H667 H 0.36678 0.88661 0.5236 0.0
H668 H 0.55127 0.90892 0.4842 0.0
H669 H 0.5497 0.91125 0.52678 0.0
H670 H 0.53091 0.92262 0.44247 0.0
H671 H 0.48824 0.9164 0.42263 0.0
C672 C 0.60536 0.49167 1.00278 0.0
C673 C 0.59348 0.46945 0.03256 0.0
C674 C 0.52953 0.42256 1.00712 0.0
C675 C 0.54673 0.4374 0.97647 0.0
N676 N 0.58684 0.49814 0.94721 0.0
N677 N 0.54179 0.41212 0.06276 0.0
C678 C 0.58071 0.4758 0.97463 0.0
C679 C 0.55426 0.43516 0.03513 0.0
N680 N 0.64015 0.52748 1.00144 0.0
N681 N 0.48952 0.39632 1.00887 0.0
H682 H 0.56012 0.41516 0.08236 0.0
H683 H 0.51374 0.38677 0.0651 0.0
H684 H 0.47191 0.38734 0.98781 0.0
H685 H 0.47374 0.38682 0.03077 0.0
H686 H 0.65317 0.54254 0.97978 0.0
H687 H 0.65633 0.542 0.0223 0.0
H688 H 0.6094 0.52777 0.94478 0.0
H689 H 0.56582 0.48831 0.92843 0.0
C690 C 0.09916 0.56229 0.48845 0.0
C691 C 0.10608 0.52962 0.48808 0.0
C692 C 0.10296 0.52831 0.54796 0.0
C693 C 0.11063 0.56796 0.54739 0.0
N694 N 0.11305 0.62261 0.5172 0.0
N695 N 0.10471 0.47547 0.51803 0.0
C696 C 0.10706 0.58476 0.51771 0.0
C697 C 0.10411 0.5103 0.51814 0.0
N698 N 0.08417 0.5711 0.46161 0.0
N699 N 0.09488 0.50836 0.57698 0.0
H700 H 0.10291 0.4608 0.49634 0.0
H701 H 0.10789 0.46206 0.539 0.0
H702 H 0.09258 0.52119 0.59865 0.0
H703 H 0.0862 0.47826 0.57904 0.0
H704 H 0.07638 0.59329 0.46157 0.0
H705 H 0.07512 0.55309 0.44088 0.0
H706 H 0.11446 0.63765 0.49564 0.0
H707 H 0.1188 0.63954 0.5384 0.0
C708 C 0.60724 0.11445 0.0152 0.0
C709 C 0.58862 0.10978 0.9845 0.0
C710 C 0.52672 0.09626 0.01212 0.0
C711 C 0.54801 0.10924 0.04199 0.0
N712 N 0.60802 0.12705 0.07298 0.0
N713 N 0.52949 0.09178 0.95299 0.0
C714 C 0.58769 0.11597 0.04407 0.0
C715 C 0.54757 0.09813 0.9828 0.0
N716 N 0.64432 0.11842 0.01646 0.0
N717 N 0.4866 0.08254 0.01206 0.0
H718 H 0.54358 0.09143 0.9314 0.0
H719 H 0.50124 0.08814 0.94938 0.0
H720 H 0.47119 0.0809 0.03343 0.0
H721 H 0.46816 0.06985 0.99189 0.0
H722 H 0.65816 0.1173 0.03793 0.0
H723 H 0.66004 0.11975 0.99544 0.0
H724 H 0.63881 0.13936 0.07498 0.0
H725 H 0.59447 0.12474 0.09534 0.0
C726 C 0.40682 0.52204 0.51042 0.0
C727 C 0.42408 0.53603 0.54138 0.0
C728 C 0.48552 0.58643 0.51461 0.0
C729 C 0.46452 0.5789 0.48464 0.0
N730 N 0.40273 0.53827 0.45444 0.0
N731 N 0.48091 0.5814 0.57369 0.0
C732 C 0.42485 0.54572 0.48231 0.0
C733 C 0.46411 0.56773 0.54374 0.0
N734 N 0.37267 0.48598 0.50804 0.0
N735 N 0.52596 0.61106 0.51498 0.0
H736 H 0.46663 0.5673 0.59538 0.0
H737 H 0.50811 0.60765 0.57696 0.0
H738 H 0.5422 0.62357 0.49358 0.0
H739 H 0.54352 0.61548 0.53557 0.0
H740 H 0.36105 0.47181 0.48581 0.0
H741 H 0.35894 0.46864 0.52862 0.0
H742 H 0.372 0.51856 0.45369 0.0
H743 H 0.41371 0.55283 0.43237 0.0
C744 C 0.32468 0.52256 0.13962 0.0
C745 C 0.29968 0.53901 0.14465 0.0
C746 C 0.35826 0.60449 0.15626 0.0
C747 C 0.38326 0.59009 0.14487 0.0
N748 N 0.39141 0.53476 0.12816 0.0
N749 N 0.2916 0.5892 0.17207 0.0
C750 C 0.36688 0.54869 0.13794 0.0
C751 C 0.31635 0.57809 0.15768 0.0
N752 N 0.30839 0.48213 0.13834 0.0
N753 N 0.37456 0.64388 0.1642 0.0
H754 H 0.26097 0.56949 0.17381 0.0
H755 H 0.30133 0.61596 0.18447 0.0
H756 H 0.40532 0.66317 0.1651 0.0
H757 H 0.35793 0.65777 0.16868 0.0
H758 H 0.32509 0.46788 0.13689 0.0
H759 H 0.27833 0.46261 0.14323 0.0
H760 H 0.38115 0.50659 0.11809 0.0
H761 H 0.42241 0.552 0.12905 0.0
C762 C 0.81342 0.3594 0.65066 0.0
C763 C 0.79794 0.38076 0.63322 0.0
C764 C 0.75012 0.31905 0.60679 0.0
C765 C 0.75961 0.29601 0.62791 0.0
N766 N 0.79741 0.29553 0.67487 0.0
N767 N 0.73866 0.374 0.60759 0.0
C768 C 0.79054 0.31644 0.65141 0.0
C769 C 0.76209 0.35829 0.61551 0.0
N770 N 0.84988 0.37912 0.66542 0.0
N771 N 0.73035 0.30416 0.57803 0.0
H772 H 0.74281 0.39978 0.61882 0.0
H773 H 0.71213 0.35826 0.59452 0.0
H774 H 0.72464 0.27681 0.56863 0.0
H775 H 0.72484 0.32158 0.56168 0.0
H776 H 0.86369 0.36431 0.67539 0.0
H777 H 0.86769 0.41005 0.66562 0.0
H778 H 0.81707 0.30939 0.69423 0.0
H779 H 0.78095 0.26451 0.67662 0.0
C780 C 0.44997 0.76463 0.16432 0.0
C781 C 0.48396 0.7767 0.14417 0.0
C782 C 0.48008 0.83586 0.12837 0.0
C783 C 0.44098 0.81792 0.14122 0.0
N784 N 0.38754 0.76407 0.17143 0.0
N785 N 0.53131 0.8251 0.10572 0.0
C786 C 0.42573 0.78226 0.15973 0.0
C787 C 0.49965 0.81319 0.12635 0.0
N788 N 0.44117 0.73646 0.18791 0.0
N789 N 0.4985 0.87466 0.11824 0.0
H790 H 0.54739 0.81041 0.10382 0.0
H791 H 0.5401 0.84839 0.08899 0.0
H792 H 0.48503 0.89203 0.12095 0.0
H793 H 0.52837 0.89057 0.11109 0.0
H794 H 0.41847 0.7285 0.20504 0.0
H795 H 0.45944 0.72419 0.19217 0.0
H796 H 0.37354 0.73574 0.18203 0.0
H797 H 0.369 0.77621 0.16849 0.0
C798 C 0.69875 0.48975 0.61327 0.0
C799 C 0.72142 0.4749 0.62901 0.0
C800 C 0.65931 0.41832 0.65049 0.0
C801 C 0.63709 0.43356 0.63476 0.0
N802 N 0.63632 0.49007 0.61145 0.0
N803 N 0.72413 0.43157 0.67007 0.0
C804 C 0.65719 0.47156 0.61973 0.0
C805 C 0.7019 0.44124 0.65013 0.0
N806 N 0.71594 0.51888 0.59006 0.0
N807 N 0.63978 0.38133 0.66459 0.0
H808 H 0.75528 0.44824 0.67065 0.0
H809 H 0.71171 0.40939 0.68791 0.0
H810 H 0.6087 0.36487 0.66659 0.0
H811 H 0.65422 0.36634 0.67279 0.0
H812 H 0.69981 0.52787 0.57542 0.0
H813 H 0.74561 0.53101 0.58312 0.0
H814 H 0.64991 0.51931 0.60273 0.0
H815 H 0.6061 0.4776 0.61715 0.0
C816 C 0.26665 0.65727 0.11421 0.0
C817 C 0.23249 0.63509 0.13428 0.0
C818 C 0.24095 0.69978 0.15235 0.0
C819 C 0.26904 0.7195 0.12673 0.0
N820 N 0.29491 0.71063 0.07541 0.0
N821 N 0.18383 0.6378 0.17046 0.0
C822 C 0.27759 0.6963 0.10518 0.0
C823 C 0.21855 0.65691 0.15304 0.0
N824 N 0.28941 0.6416 0.10394 0.0
N825 N 0.23641 0.72141 0.17653 0.0
H826 H 0.16631 0.607 0.17253 0.0
H827 H 0.17086 0.65301 0.18116 0.0
H828 H 0.25285 0.75249 0.1774 0.0
H829 H 0.21919 0.70823 0.19733 0.0
H830 H 0.31575 0.65821 0.09064 0.0
H831 H 0.28509 0.61459 0.11272 0.0
H832 H 0.29935 0.69298 0.05859 0.0
H833 H 0.29958 0.73766 0.06592 0.0
C834 C 0.54962 0.19577 0.65073 0.0
C835 C 0.5914 0.21312 0.64653 0.0
C836 C 0.59562 0.27393 0.62724 0.0
C837 C 0.55437 0.25945 0.63425 0.0
N838 N 0.49698 0.20928 0.66524 0.0
N839 N 0.65399 0.27461 0.64828 0.0
C840 C 0.53253 0.22112 0.64994 0.0
C841 C 0.61423 0.25448 0.64151 0.0
N842 N 0.52624 0.15554 0.65476 0.0
N843 N 0.61638 0.30246 0.60415 0.0
H844 H 0.66722 0.26075 0.66088 0.0
H845 H 0.67151 0.3055 0.6453 0.0
H846 H 0.60291 0.31098 0.58635 0.0
H847 H 0.64593 0.31127 0.59849 0.0
H848 H 0.49511 0.1411 0.65444 0.0
H849 H 0.53821 0.13672 0.65665 0.0
H850 H 0.48179 0.18242 0.67807 0.0
H851 H 0.48571 0.22826 0.66949 0.0
C852 C 0.39807 0.6517 0.89563 0.0
C853 C 0.41543 0.63012 0.88302 0.0
C854 C 0.47463 0.69502 0.86913 0.0
C855 C 0.45995 0.71497 0.88927 0.0
N856 N 0.41257 0.70444 0.93285 0.0
N857 N 0.4745 0.63292 0.85995 0.0
C858 C 0.42303 0.69111 0.90583 0.0
C859 C 0.45499 0.65212 0.8701 0.0
N860 N 0.35769 0.63458 0.89817 0.0
N861 N 0.50598 0.71618 0.84845 0.0
H862 H 0.46149 0.60198 0.86001 0.0
H863 H 0.50469 0.64813 0.85366 0.0
H864 H 0.51972 0.74703 0.84566 0.0
H865 H 0.51536 0.70247 0.83155 0.0
H866 H 0.34403 0.65029 0.90658 0.0
H867 H 0.3388 0.60732 0.88704 0.0
H868 H 0.38618 0.68635 0.94568 0.0
H869 H 0.43258 0.73038 0.94524 0.0
C870 C 0.74891 0.43376 0.3683 0.0
C871 C 0.76764 0.47525 0.37441 0.0
C872 C 0.83001 0.47703 0.38771 0.0
C873 C 0.81028 0.43459 0.38461 0.0
N874 N 0.75778 0.37728 0.35685 0.0
N875 N 0.82941 0.53758 0.3728 0.0
C876 C 0.77177 0.41434 0.37003 0.0
C877 C 0.8095 0.49736 0.3781 0.0
N878 N 0.70907 0.41292 0.36147 0.0
N879 N 0.86674 0.49784 0.40193 0.0
H880 H 0.81458 0.55258 0.36549 0.0
H881 H 0.86047 0.55492 0.37261 0.0
H882 H 0.88218 0.48446 0.41112 0.0
H883 H 0.88048 0.52823 0.40717 0.0
H884 H 0.6924 0.38182 0.36082 0.0
H885 H 0.69286 0.42739 0.35733 0.0
H886 H 0.73115 0.36232 0.34379 0.0
H887 H 0.77492 0.36335 0.35615 0.0
C888 C 0.31727 0.74372 0.87044 0.0
C889 C 0.29574 0.76398 0.87599 0.0
C890 C 0.35886 0.82834 0.87519 0.0
C891 C 0.38031 0.80741 0.87483 0.0
N892 N 0.3811 0.74823 0.85899 0.0
N893 N 0.29447 0.82524 0.87087 0.0
C894 C 0.35973 0.76588 0.86832 0.0
C895 C 0.31606 0.80633 0.87411 0.0
N896 N 0.29677 0.70315 0.86724 0.0
N897 N 0.37939 0.869 0.87754 0.0
H898 H 0.26342 0.8096 0.86903 0.0
H899 H 0.30707 0.85583 0.86726 0.0
H900 H 0.41047 0.88566 0.87603 0.0
H901 H 0.36604 0.88614 0.88188 0.0
H902 H 0.30994 0.6854 0.86738 0.0
H903 H 0.26587 0.68727 0.86431 0.0
H904 H 0.36856 0.71837 0.85242 0.0
H905 H 0.41171 0.76501 0.85455 0.0
C906 C 0.58897 0.35286 0.3635 0.0
C907 C 0.59053 0.37361 0.39261 0.0
C908 C 0.53254 0.31271 0.41323 0.0
C909 C 0.5365 0.29006 0.38804 0.0
N910 N 0.56839 0.28863 0.3381 0.0
N911 N 0.56679 0.37021 0.44781 0.0
C912 C 0.56443 0.31021 0.36254 0.0
C913 C 0.56291 0.35276 0.41811 0.0
N914 N 0.6103 0.37382 0.33675 0.0
N915 N 0.49949 0.29549 0.43267 0.0
H916 H 0.59015 0.39853 0.45318 0.0
H917 H 0.54953 0.35489 0.46807 0.0
H918 H 0.47634 0.26655 0.42823 0.0
H919 H 0.49316 0.31127 0.44999 0.0
H920 H 0.60791 0.36079 0.314 0.0
H921 H 0.62782 0.4049 0.33667 0.0
H922 H 0.59141 0.30075 0.32096 0.0
H923 H 0.54894 0.25805 0.33587 0.0
C924 C 0.23207 0.58266 0.86908 0.0
C925 C 0.21635 0.58701 0.89914 0.0
C926 C 0.22348 0.53287 0.92277 0.0
C927 C 0.24547 0.53336 0.89514 0.0
N928 N 0.27179 0.55861 0.84169 0.0
N929 N 0.20407 0.57085 0.95663 0.0
C930 C 0.24974 0.55798 0.86796 0.0
C931 C 0.21352 0.56307 0.92647 0.0
N932 N 0.22998 0.60189 0.84177 0.0
N933 N 0.21306 0.504 0.94598 0.0
H934 H 0.19976 0.59473 0.96103 0.0
H935 H 0.20524 0.55671 0.97795 0.0
H936 H 0.22051 0.48184 0.94361 0.0
H937 H 0.19364 0.49959 0.96524 0.0
H938 H 0.2378 0.59724 0.81854 0.0
H939 H 0.21765 0.62048 0.84202 0.0
H940 H 0.28023 0.57925 0.82271 0.0
H941 H 0.28298 0.53912 0.83973 0.0
C942 C 0.65559 0.20864 0.37046 0.0
C943 C 0.63487 0.21505 0.39642 0.0
C944 C 0.69592 0.27511 0.41065 0.0
C945 C 0.71945 0.26508 0.39038 0.0
N946 N 0.71878 0.21726 0.3513 0.0
N947 N 0.64229 0.24666 0.44904 0.0
C948 C 0.69862 0.23034 0.3702 0.0
C949 C 0.65725 0.24562 0.41908 0.0
N950 N 0.63473 0.18346 0.34548 0.0
N951 N 0.70961 0.31313 0.42124 0.0
H952 H 0.61538 0.22334 0.45787 0.0
H953 H 0.65939 0.26821 0.46646 0.0
H954 H 0.73564 0.33697 0.41212 0.0
H955 H 0.69197 0.32119 0.43491 0.0
H956 H 0.64845 0.18091 0.32444 0.0
H957 H 0.60364 0.16803 0.34437 0.0
H958 H 0.70455 0.18959 0.33967 0.0
H959 H 0.74955 0.23254 0.34827 0.0
C960 C 0.65646 0.42087 0.85487 0.0
C961 C 0.63314 0.43382 0.87178 0.0
C962 C 0.69323 0.49671 0.88551 0.0
C963 C 0.71688 0.48242 0.87075 0.0
N964 N 0.71993 0.44149 0.8282 0.0
N965 N 0.62785 0.4905 0.88823 0.0
C966 C 0.69797 0.44796 0.85082 0.0
C967 C 0.65104 0.47395 0.88221 0.0
N968 N 0.63954 0.38248 0.84405 0.0
N969 N 0.71026 0.53037 0.90416 0.0
H970 H 0.59708 0.47473 0.8843 0.0
H971 H 0.63977 0.52087 0.89283 0.0
H972 H 0.74092 0.54913 0.90587 0.0
H973 H 0.69364 0.5387 0.91886 0.0
H974 H 0.65581 0.37075 0.8333 0.0
H975 H 0.60944 0.36179 0.84771 0.0
H976 H 0.70733 0.41837 0.81121 0.0
H977 H 0.75028 0.46185 0.82479 0.0
C978 C 0.2164 0.69799 0.40502 0.0
C979 C 0.24737 0.71578 0.38161 0.0
C980 C 0.22632 0.64903 0.35935 0.0
C981 C 0.20154 0.6311 0.38722 0.0
N982 N 0.17268 0.6395 0.43677 0.0
N983 N 0.2813 0.70902 0.33519 0.0
C984 C 0.19631 0.65595 0.40996 0.0
C985 C 0.25182 0.69149 0.35809 0.0
N986 N 0.20561 0.72141 0.42205 0.0
N987 N 0.22548 0.62567 0.33413 0.0
H988 H 0.29825 0.73996 0.33256 0.0
H989 H 0.28989 0.69321 0.31986 0.0
H990 H 0.2063 0.59498 0.33391 0.0
H991 H 0.24045 0.63696 0.31211 0.0
H992 H 0.18132 0.71023 0.43794 0.0
H993 H 0.218 0.75172 0.417 0.0
H994 H 0.17228 0.65618 0.45656 0.0
H995 H 0.15496 0.60885 0.4399 0.0
C996 C 0.53854 0.22437 0.91583 0.0
C997 C 0.54528 0.25111 0.88971 0.0
C998 C 0.58928 0.23059 0.86391 0.0
C999 C 0.58895 0.21085 0.89323 0.0
N1000 N 0.56403 0.19012 0.94808 0.0
N1001 N 0.57527 0.27861 0.83758 0.0
C1002 C 0.5635 0.20774 0.91933 0.0
C1003 C 0.57009 0.25382 0.86321 0.0
N1004 N 0.50781 0.21416 0.93709 0.0
N1005 N 0.60684 0.22601 0.83666 0.0
H1006 H 0.55896 0.29331 0.83536 0.0
H1007 H 0.59654 0.28561 0.81934 0.0
H1008 H 0.6188 0.20715 0.8365 0.0
H1009 H 0.60593 0.23733 0.81378 0.0
H1010 H 0.49893 0.19169 0.95459 0.0
H1011 H 0.48802 0.22453 0.93445 0.0
H1012 H 0.5506 0.19214 0.9695 0.0
H1013 H 0.57996 0.17544 0.95109 0.0
C1014 C 0.31961 0.58246 0.41624 0.0
C1015 C 0.29636 0.54933 0.39576 0.0
C1016 C 0.35942 0.55927 0.37207 0.0
C1017 C 0.38102 0.59631 0.38924 0.0
N1018 N 0.37436 0.64919 0.41451 0.0
N1019 N 0.29531 0.51136 0.34845 0.0
C1020 C 0.35869 0.60991 0.40688 0.0
C1021 C 0.31648 0.53903 0.37186 0.0
N1022 N 0.30542 0.58739 0.44536 0.0
N1023 N 0.37882 0.54241 0.35706 0.0
H1024 H 0.26429 0.49702 0.34679 0.0
H1025 H 0.30896 0.5057 0.32886 0.0
H1026 H 0.40971 0.55557 0.35612 0.0
H1027 H 0.36376 0.5136 0.34748 0.0
H1028 H 0.32311 0.61085 0.46117 0.0
H1029 H 0.27866 0.56541 0.45559 0.0
H1030 H 0.35782 0.65996 0.42645 0.0
H1031 H 0.40113 0.67095 0.40444 0.0
C1032 C 0.75635 0.35579 0.87021 0.0
C1033 C 0.79718 0.38 0.8785 0.0
C1034 C 0.80391 0.3198 0.87899 0.0
C1035 C 0.76181 0.29545 0.87749 0.0
N1036 N 0.69814 0.28961 0.86659 0.0
N1037 N 0.86071 0.38525 0.89071 0.0
C1038 C 0.73823 0.31342 0.87118 0.0
C1039 C 0.82146 0.36216 0.88221 0.0
N1040 N 0.73518 0.37359 0.86072 0.0
N1041 N 0.82703 0.30243 0.87695 0.0
H1042 H 0.87491 0.41623 0.89252 0.0
H1043 H 0.8786 0.37354 0.89786 0.0
H1044 H 0.81469 0.27171 0.87392 0.0
H1045 H 0.85805 0.31855 0.87509 0.0
H1046 H 0.70634 0.35823 0.85139 0.0
H1047 H 0.74807 0.40448 0.85958 0.0
H1048 H 0.67775 0.29969 0.86663 0.0
H1049 H 0.68535 0.25903 0.86306 0.0
C1050 C 0.4221 0.76363 0.35925 0.0
C1051 C 0.43676 0.80347 0.37016 0.0
C1052 C 0.4956 0.80451 0.39323 0.0
C1053 C 0.47998 0.76405 0.3841 0.0
N1054 N 0.43697 0.71094 0.3476 0.0
N1055 N 0.49754 0.86621 0.37988 0.0
C1056 C 0.44598 0.74551 0.36346 0.0
C1057 C 0.47683 0.82554 0.3814 0.0
N1058 N 0.38513 0.7429 0.34543 0.0
N1059 N 0.5266 0.82235 0.4147 0.0
H1060 H 0.48676 0.88245 0.36756 0.0
H1061 H 0.52764 0.88309 0.38619 0.0
H1062 H 0.54013 0.8075 0.42493 0.0
H1063 H 0.53612 0.85056 0.42455 0.0
H1064 H 0.37053 0.71226 0.34109 0.0
H1065 H 0.36866 0.75648 0.33918 0.0
H1066 H 0.41447 0.69762 0.33015 0.0
H1067 H 0.45469 0.69772 0.34963 0.0
C1068 C 0.54635 0.31558 0.15223 0.0
C1069 C 0.55569 0.29477 0.12833 0.0
C1070 C 0.61508 0.35684 0.11435 0.0
C1071 C 0.60217 0.37969 0.13229 0.0
N1072 N 0.54881 0.37784 0.16523 0.0
N1073 N 0.5909 0.30214 0.07732 0.0
C1074 C 0.56588 0.3584 0.15063 0.0
C1075 C 0.58742 0.31738 0.1064 0.0
N1076 N 0.52013 0.29519 0.17684 0.0
N1077 N 0.65386 0.37232 0.105 0.0
H1078 H 0.56869 0.27484 0.06826 0.0
H1079 H 0.61313 0.31936 0.06036 0.0
H1080 H 0.67634 0.39916 0.11417 0.0
H1081 H 0.66393 0.3558 0.09218 0.0
H1082 H 0.51528 0.30955 0.19634 0.0
H1083 H 0.50644 0.26431 0.17952 0.0
H1084 H 0.52057 0.36268 0.17596 0.0
H1085 H 0.56067 0.40855 0.16425 0.0
C1086 C 0.25728 0.55775 0.66613 0.0
C1087 C 0.23886 0.51881 0.65276 0.0
C1088 C 0.17512 0.51784 0.64959 0.0
C1089 C 0.19582 0.5592 0.65753 0.0
N1090 N 0.24668 0.60775 0.69222 0.0
N1091 N 0.17779 0.45629 0.6472 0.0
C1092 C 0.23381 0.57562 0.67211 0.0
C1093 C 0.19678 0.49689 0.64936 0.0
N1094 N 0.29729 0.5782 0.67206 0.0
N1095 N 0.13539 0.49869 0.64245 0.0
H1096 H 0.19331 0.44079 0.64928 0.0
H1097 H 0.14688 0.43796 0.64673 0.0
H1098 H 0.1173 0.51054 0.64838 0.0
H1099 H 0.12021 0.47051 0.63178 0.0
H1100 H 0.31296 0.60836 0.67834 0.0
H1101 H 0.31475 0.565 0.66924 0.0
H1102 H 0.27283 0.61912 0.70593 0.0
H1103 H 0.22828 0.61948 0.69791 0.0
C1104 C 0.68837 0.26552 0.13507 0.0
C1105 C 0.71481 0.25075 0.14233 0.0
C1106 C 0.65454 0.18501 0.15226 0.0
C1107 C 0.6303 0.20264 0.14819 0.0
N1108 N 0.62865 0.26343 0.15405 0.0
N1109 N 0.72012 0.19656 0.16763 0.0
C1110 C 0.64902 0.24431 0.14652 0.0
C1111 C 0.6972 0.21042 0.154 0.0
N1112 N 0.69824 0.29656 0.11404 0.0
N1113 N 0.63723 0.14452 0.15406 0.0
H1114 H 0.75051 0.21463 0.17212 0.0
H1115 H 0.70789 0.16829 0.17817 0.0
H1116 H 0.60628 0.12583 0.15461 0.0
H1117 H 0.65366 0.12988 0.15342 0.0
H1118 H 0.67808 0.30607 0.10826 0.0
H1119 H 0.72222 0.30722 0.09785 0.0
H1120 H 0.64209 0.29452 0.15343 0.0
H1121 H 0.60045 0.24803 0.16487 0.0
C1122 C 0.4514 0.68852 0.59571 0.0
C1123 C 0.46687 0.7113 0.6245 0.0
C1124 C 0.43677 0.6487 0.65612 0.0
C1125 C 0.41506 0.62731 0.62788 0.0
N1126 N 0.3976 0.63026 0.57114 0.0
N1127 N 0.47496 0.7133 0.68282 0.0
C1128 C 0.42105 0.64814 0.59783 0.0
C1129 C 0.46009 0.69143 0.65499 0.0
N1130 N 0.46687 0.70518 0.56603 0.0
N1131 N 0.43511 0.62834 0.68392 0.0
H1132 H 0.49417 0.74411 0.68234 0.0
H1133 H 0.46711 0.70121 0.70621 0.0
H1134 H 0.4177 0.59739 0.68583 0.0
H1135 H 0.45308 0.64176 0.70423 0.0
H1136 H 0.45963 0.68884 0.54439 0.0
H1137 H 0.49107 0.73387 0.56389 0.0
H1138 H 0.39866 0.64611 0.55017 0.0
H1139 H 0.37416 0.60106 0.57059 0.0
C1140 C 0.8305 0.4741 0.14726 0.0
C1141 C 0.80747 0.43242 0.15382 0.0
C1142 C 0.74783 0.43864 0.16095 0.0
C1143 C 0.76875 0.47754 0.14719 0.0
N1144 N 0.83299 0.53803 0.14436 0.0
N1145 N 0.7457 0.37582 0.17149 0.0
C1146 C 0.81116 0.49733 0.14567 0.0
C1147 C 0.76671 0.4152 0.1628 0.0
N1148 N 0.87023 0.49083 0.14018 0.0
N1149 N 0.7104 0.42504 0.1734 0.0
H1150 H 0.7596 0.35902 0.17541 0.0
H1151 H 0.71475 0.35961 0.17396 0.0
H1152 H 0.69718 0.44285 0.1739 0.0
H1153 H 0.69414 0.39812 0.18588 0.0
H1154 H 0.88753 0.51935 0.1304 0.0
H1155 H 0.88564 0.4753 0.14256 0.0
H1156 H 0.86404 0.5543 0.1453 0.0
H1157 H 0.8203 0.55602 0.14695 0.0
C1158 C 0.35636 0.81345 0.63147 0.0
C1159 C 0.38109 0.79679 0.63744 0.0
C1160 C 0.32315 0.7359 0.65886 0.0
C1161 C 0.29739 0.74959 0.64759 0.0
N1162 N 0.28935 0.8021 0.62335 0.0
N1163 N 0.38963 0.74401 0.6598 0.0
C1164 C 0.31402 0.78899 0.63467 0.0
C1165 C 0.36495 0.75869 0.65241 0.0
N1166 N 0.3735 0.85283 0.623 0.0
N1167 N 0.30727 0.70107 0.67612 0.0
H1168 H 0.4206 0.76141 0.65823 0.0
H1169 H 0.37973 0.71461 0.66669 0.0
H1170 H 0.27689 0.68456 0.68126 0.0
H1171 H 0.32402 0.69034 0.6876 0.0
H1172 H 0.35782 0.86812 0.62115 0.0
H1173 H 0.40433 0.87128 0.62077 0.0
H1174 H 0.2991 0.82771 0.60919 0.0
H1175 H 0.25859 0.78646 0.62692 0.0
C1176 C 0.1889 0.52165 0.24675 0.0
C1177 C 0.16358 0.48636 0.22892 0.0
C1178 C 0.1301 0.45381 0.27998 0.0
C1179 C 0.1582 0.48734 0.29818 0.0
N1180 N 0.22213 0.54827 0.29839 0.0
N1181 N 0.12022 0.41489 0.23119 0.0
C1182 C 0.19015 0.51979 0.28146 0.0
C1183 C 0.13726 0.45111 0.2463 0.0
N1184 N 0.21112 0.55709 0.23086 0.0
N1185 N 0.09616 0.42487 0.29449 0.0
H1186 H 0.12685 0.41163 0.20709 0.0
H1187 H 0.1031 0.38804 0.24369 0.0
H1188 H 0.08911 0.42728 0.3186 0.0
H1189 H 0.07333 0.40133 0.28149 0.0
H1190 H 0.22745 0.58422 0.24305 0.0
H1191 H 0.20993 0.55971 0.20565 0.0
H1192 H 0.24772 0.57059 0.28693 0.0
H1193 H 0.22459 0.54729 0.32371 0.0
C1194 C 0.6836 0.12754 0.77985 0.0
C1195 C 0.67687 0.15541 0.7971 0.0
C1196 C 0.67247 0.18419 0.74471 0.0
C1197 C 0.68193 0.15796 0.72793 0.0
N1198 N 0.71155 0.11621 0.73101 0.0
N1199 N 0.6777 0.21806 0.79567 0.0
C1200 C 0.69208 0.13307 0.74591 0.0
C1201 C 0.67469 0.18593 0.77946 0.0
N1202 N 0.68026 0.09482 0.79546 0.0
N1203 N 0.66178 0.2077 0.72759 0.0
H1204 H 0.68257 0.2215 0.82074 0.0
H1205 H 0.67988 0.24302 0.78396 0.0
H1206 H 0.66221 0.20896 0.70214 0.0
H1207 H 0.65038 0.22412 0.73869 0.0
H1208 H 0.68175 0.072 0.78321 0.0
H1209 H 0.67135 0.08838 0.81978 0.0
H1210 H 0.72239 0.10026 0.74376 0.0
H1211 H 0.72072 0.12215 0.70666 0.0
C1212 C 0.56944 0.70333 0.24656 0.0
C1213 C 0.53319 0.68309 0.22857 0.0
C1214 C 0.49511 0.66125 0.27996 0.0
C1215 C 0.53122 0.68134 0.2982 0.0
N1216 N 0.60245 0.72729 0.29892 0.0
N1217 N 0.46174 0.65397 0.2282 0.0
C1218 C 0.5683 0.70418 0.28149 0.0
C1219 C 0.49607 0.66488 0.24529 0.0
N1220 N 0.60511 0.7212 0.23025 0.0
N1221 N 0.4595 0.63928 0.29578 0.0
H1222 H 0.46174 0.65925 0.20326 0.0
H1223 H 0.43401 0.64422 0.23903 0.0
H1224 H 0.45661 0.64011 0.32092 0.0
H1225 H 0.43308 0.61915 0.28405 0.0
H1226 H 0.63266 0.73145 0.2415 0.0
H1227 H 0.60725 0.72422 0.20492 0.0
H1228 H 0.6294 0.74836 0.28844 0.0
H1229 H 0.60365 0.72743 0.32433 0.0
C1230 C 0.87047 0.56548 0.73973 0.0
C1231 C 0.8561 0.52868 0.72292 0.0
C1232 C 0.83911 0.49271 0.77529 0.0
C1233 C 0.85834 0.52974 0.79205 0.0
N1234 N 0.89192 0.60177 0.79087 0.0
N1235 N 0.82554 0.45695 0.7242 0.0
C1236 C 0.87366 0.56624 0.77444 0.0
C1237 C 0.84038 0.49225 0.74062 0.0
N1238 N 0.8802 0.59958 0.72262 0.0
N1239 N 0.81681 0.45807 0.79242 0.0
H1240 H 0.81998 0.45463 0.69924 0.0
H1241 H 0.81952 0.43019 0.73518 0.0
H1242 H 0.81276 0.45757 0.81756 0.0
H1243 H 0.7987 0.43036 0.78166 0.0
H1244 H 0.88629 0.62635 0.73346 0.0
H1245 H 0.87955 0.60077 0.69723 0.0
H1246 H 0.90877 0.62943 0.77957 0.0
H1247 H 0.89214 0.60376 0.81624 0.0
C1248 C 0.35147 0.83461 0.27665 0.0
C1249 C 0.33249 0.8524 0.29378 0.0
C1250 C 0.31017 0.86501 0.24096 0.0
C1251 C 0.33671 0.85554 0.22462 0.0
N1252 N 0.38325 0.8313 0.22721 0.0
N1253 N 0.28913 0.88111 0.29123 0.0
C1254 C 0.35764 0.84049 0.24258 0.0
C1255 C 0.31014 0.86627 0.27576 0.0
N1256 N 0.36119 0.80965 0.2927 0.0
N1257 N 0.28379 0.87138 0.22337 0.0
H1258 H 0.27966 0.87481 0.31529 0.0
H1259 H 0.28014 0.89929 0.27963 0.0
H1260 H 0.2829 0.87121 0.19794 0.0
H1261 H 0.26043 0.87353 0.23388 0.0
H1262 H 0.37161 0.79274 0.281 0.0
H1263 H 0.35375 0.8018 0.3171 0.0
H1264 H 0.40314 0.82523 0.23962 0.0
H1265 H 0.38612 0.83194 0.20205 0.0
C1266 C 0.52408 0.35789 0.74305 0.0
C1267 C 0.48912 0.33423 0.72421 0.0
C1268 C 0.451 0.30538 0.77526 0.0
C1269 C 0.48605 0.32935 0.79378 0.0
N1270 N 0.55768 0.36679 0.79483 0.0
N1271 N 0.42092 0.27933 0.72235 0.0
C1272 C 0.52305 0.35257 0.77751 0.0
C1273 C 0.45306 0.30605 0.74032 0.0
N1274 N 0.5588 0.38491 0.72807 0.0
N1275 N 0.41551 0.28243 0.79106 0.0
H1276 H 0.42013 0.27953 0.69694 0.0
H1277 H 0.39569 0.25509 0.73241 0.0
H1278 H 0.4135 0.27829 0.81629 0.0
H1279 H 0.38785 0.26882 0.77947 0.0
H1280 H 0.58346 0.40688 0.74062 0.0
H1281 H 0.56247 0.38652 0.7029 0.0
H1282 H 0.58604 0.38091 0.78436 0.0
H1283 H 0.5576 0.35942 0.81926 0.0
C1284 C 0.49901 0.8229 0.7779 0.0
C1285 C 0.52605 0.8587 0.79451 0.0
C1286 C 0.54733 0.89387 0.74159 0.0
C1287 C 0.5234 0.85719 0.7246 0.0
N1288 N 0.4746 0.78691 0.72678 0.0
N1289 N 0.57966 0.92704 0.79194 0.0
C1290 C 0.499 0.82168 0.74291 0.0
C1291 C 0.55096 0.89382 0.77626 0.0
N1292 N 0.47152 0.79072 0.79558 0.0
N1293 N 0.5661 0.92932 0.72497 0.0
H1294 H 0.58264 0.92897 0.8172 0.0
H1295 H 0.60266 0.95155 0.77993 0.0
H1296 H 0.56697 0.9318 0.69973 0.0
H1297 H 0.57864 0.95706 0.73637 0.0
H1298 H 0.44802 0.7651 0.78538 0.0
H1299 H 0.47016 0.79052 0.82099 0.0
H1300 H 0.4605 0.75889 0.73782 0.0
H1301 H 0.46893 0.78584 0.70183 0.0
C1302 C 0.71153 0.55121 0.24219 0.0
C1303 C 0.67746 0.52525 0.22327 0.0
C1304 C 0.63935 0.50211 0.27453 0.0
C1305 C 0.6751 0.52118 0.2932 0.0
N1306 N 0.74775 0.55541 0.2911 0.0
N1307 N 0.61095 0.46643 0.22477 0.0
C1308 C 0.71202 0.54326 0.27602 0.0
C1309 C 0.64186 0.49784 0.24032 0.0
N1310 N 0.74276 0.5846 0.22874 0.0
N1311 N 0.60296 0.48975 0.28858 0.0
H1312 H 0.61268 0.45888 0.20079 0.0
H1313 H 0.58594 0.44462 0.23724 0.0
H1314 H 0.59953 0.49645 0.31257 0.0
H1315 H 0.57675 0.47807 0.27488 0.0
H1316 H 0.76677 0.60542 0.24268 0.0
H1317 H 0.74209 0.5945 0.20519 0.0
H1318 H 0.77478 0.56909 0.27839 0.0
H1319 H 0.75014 0.54711 0.31476 0.0
C1320 C 0.11589 0.64407 0.78324 0.0
C1321 C 0.15331 0.66299 0.79956 0.0
C1322 C 0.18829 0.67556 0.7472 0.0
C1323 C 0.15115 0.65985 0.73075 0.0
N1324 N 0.07967 0.63107 0.73213 0.0
N1325 N 0.22528 0.69894 0.79784 0.0
C1326 C 0.11493 0.64463 0.74852 0.0
C1327 C 0.18958 0.67943 0.78173 0.0
N1328 N 0.08135 0.62432 0.80095 0.0
N1329 N 0.22207 0.68503 0.72984 0.0
H1330 H 0.22739 0.69983 0.8232 0.0
H1331 H 0.25272 0.71599 0.78627 0.0
H1332 H 0.22194 0.68216 0.70459 0.0
H1333 H 0.2494 0.69247 0.7404 0.0
H1334 H 0.05325 0.6065 0.79071 0.0
H1335 H 0.08093 0.62325 0.82636 0.0
H1336 H 0.05282 0.62424 0.74331 0.0
H1337 H 0.07761 0.62875 0.70677 0.0
C1338 C 0.46353 0.11502 0.28039 0.0
C1339 C 0.49379 0.14865 0.29721 0.0
C1340 C 0.51893 0.18389 0.24466 0.0
C1341 C 0.48848 0.15028 0.22762 0.0
N1342 N 0.43514 0.08146 0.22908 0.0
N1343 N 0.55716 0.20959 0.29472 0.0
C1344 C 0.46177 0.11515 0.2455 0.0
C1345 C 0.52346 0.18155 0.27916 0.0
N1346 N 0.43686 0.0824 0.29794 0.0
N1347 N 0.5439 0.21813 0.22795 0.0
H1348 H 0.56202 0.20818 0.31961 0.0
H1349 H 0.58199 0.23205 0.28264 0.0
H1350 H 0.54391 0.22048 0.20261 0.0
H1351 H 0.56308 0.24513 0.23934 0.0
H1352 H 0.41076 0.05883 0.28842 0.0
H1353 H 0.44073 0.07915 0.3227 0.0
H1354 H 0.41822 0.05345 0.23974 0.0
H1355 H 0.43105 0.08076 0.204 0.0
C1356 C 0.34429 0.51848 0.74529 0.0
C1357 C 0.33817 0.48358 0.7285 0.0
C1358 C 0.3176 0.44642 0.78027 0.0
C1359 C 0.32899 0.4822 0.79749 0.0
N1360 N 0.35554 0.55334 0.79689 0.0
N1361 N 0.33055 0.41796 0.73272 0.0
C1362 C 0.34315 0.51859 0.78012 0.0
C1363 C 0.32775 0.44842 0.74673 0.0
N1364 N 0.34939 0.55099 0.72813 0.0
N1365 N 0.29672 0.41041 0.79574 0.0
H1366 H 0.34258 0.42061 0.70948 0.0
H1367 H 0.32639 0.39294 0.74569 0.0
H1368 H 0.28807 0.40788 0.82017 0.0
H1369 H 0.28482 0.38325 0.78344 0.0
H1370 H 0.3491 0.57526 0.73878 0.0
H1371 H 0.35089 0.55252 0.70284 0.0
H1372 H 0.37118 0.58151 0.78614 0.0
H1373 H 0.35173 0.55404 0.82203 0.0
C1374 C 0.89902 0.35702 0.24738 0.0
C1375 C 0.86284 0.34247 0.22948 0.0
C1376 C 0.82574 0.33114 0.28081 0.0
C1377 C 0.86222 0.34787 0.29833 0.0
N1378 N 0.93427 0.38426 0.29816 0.0
N1379 N 0.79338 0.32485 0.22879 0.0
C1380 C 0.89907 0.36314 0.28156 0.0
C1381 C 0.82653 0.33183 0.24609 0.0
N1382 N 0.93312 0.36351 0.23204 0.0
N1383 N 0.79029 0.31458 0.29735 0.0
H1384 H 0.79296 0.32672 0.20342 0.0
H1385 H 0.7674 0.32119 0.23963 0.0
H1386 H 0.78861 0.3161 0.32265 0.0
H1387 H 0.76262 0.29736 0.28617 0.0
H1388 H 0.95897 0.36913 0.24437 0.0
H1389 H 0.93468 0.35998 0.20706 0.0
H1390 H 0.962 0.4 0.28674 0.0
H1391 H 0.93566 0.38909 0.32325 0.0
C1392 C 0.9888 0.37385 0.09418 0.0
C1393 C 0.96609 0.35628 0.12295 0.0
C1394 C 0.02771 0.38263 0.15461 0.0
C1395 C 0.05071 0.40175 0.12637 0.0
N1396 N 0.05404 0.40524 0.0678 0.0
N1397 N 0.96619 0.32734 0.17521 0.0
C1398 C 0.03143 0.39377 0.09555 0.0
C1399 C 0.98622 0.35491 0.15139 0.0
N1400 N 0.96944 0.37194 0.06578 0.0
N1401 N 0.04442 0.39342 0.18484 0.0
H1402 H 0.93631 0.30531 0.17291 0.0
H1403 H 0.9806 0.32377 0.19538 0.0
H1404 H 0.07366 0.4164 0.18809 0.0
H1405 H 0.02791 0.38285 0.20636 0.0
H1406 H 0.98387 0.38778 0.04474 0.0
H1407 H 0.93839 0.355 0.06378 0.0
H1408 H 0.04214 0.3981 0.04435 0.0
H1409 H 0.0851 0.41877 0.06862 0.0
C1410 C 0.6367 0.98062 0.65365 0.0
C1411 C 0.61899 0.96113 0.62401 0.0
C1412 C 0.65168 0.02646 0.59639 0.0
C1413 C 0.65907 0.04544 0.62725 0.0
N1414 N 0.65462 0.0392 0.68597 0.0
N1415 N 0.61553 0.96453 0.56572 0.0
C1416 C 0.65152 0.02233 0.65615 0.0
C1417 C 0.6289 0.9839 0.59478 0.0
N1418 N 0.63894 0.95948 0.67942 0.0
N1419 N 0.66594 0.04932 0.56887 0.0
H1420 H 0.60181 0.93349 0.56426 0.0
H1421 H 0.61745 0.97878 0.54365 0.0
H1422 H 0.68309 0.08043 0.56996 0.0
H1423 H 0.66375 0.0377 0.54556 0.0
H1424 H 0.65428 0.97308 0.70086 0.0
H1425 H 0.62904 0.92904 0.67797 0.0
H1426 H 0.64561 0.02275 0.70762 0.0
H1427 H 0.66232 0.06891 0.68847 0.0
C1428 C 0.64498 0.62387 0.09276 0.0
C1429 C 0.65729 0.61372 0.12226 0.0
C1430 C 0.62778 0.64662 0.15382 0.0
C1431 C 0.61448 0.65592 0.12441 0.0
N1432 N 0.61783 0.66143 0.06592 0.0
N1433 N 0.66972 0.62461 0.1801 0.0
C1434 C 0.62576 0.64726 0.09386 0.0
C1435 C 0.65221 0.62863 0.15246 0.0
N1436 N 0.65059 0.6099 0.06378 0.0
N1437 N 0.6143 0.65182 0.18318 0.0
H1438 H 0.68665 0.61053 0.18041 0.0
H1439 H 0.67062 0.63843 0.20213 0.0
H1440 H 0.59613 0.66435 0.18517 0.0
H1441 H 0.61842 0.641 0.20527 0.0
H1442 H 0.63823 0.6117 0.0417 0.0
H1443 H 0.66679 0.59505 0.06213 0.0
H1444 H 0.62775 0.65909 0.04285 0.0
H1445 H 0.60398 0.67866 0.06627 0.0
C1446 C 0.03485 0.65816 0.65347 0.0
C1447 C 0.05559 0.66031 0.6244 0.0
C1448 C 0.99192 0.6288 0.59475 0.0
C1449 C 0.97121 0.61755 0.62501 0.0
N1450 N 0.97286 0.62252 0.68376 0.0
N1451 N 0.05517 0.65289 0.56624 0.0
C1452 C 0.99253 0.63347 0.65455 0.0
C1453 C 0.03451 0.64805 0.59449 0.0
N1454 N 0.05608 0.67921 0.68012 0.0
N1455 N 0.97059 0.62072 0.56647 0.0
H1456 H 0.08631 0.66921 0.56554 0.0
H1457 H 0.04173 0.6403 0.544 0.0
H1458 H 0.93949 0.60736 0.56655 0.0
H1459 H 0.98356 0.63023 0.54351 0.0
H1460 H 0.04289 0.68153 0.70155 0.0
H1461 H 0.08714 0.69737 0.67932 0.0
H1462 H 0.9873 0.62934 0.70628 0.0
H1463 H 0.94197 0.60447 0.68535 0.0
C1464 C 0.36892 0.02907 0.15135 0.0
C1465 C 0.39042 0.04889 0.12285 0.0
C1466 C 0.35899 0.98472 0.09438 0.0
C1467 C 0.34925 0.96512 0.12505 0.0
N1468 N 0.34241 0.96842 0.18335 0.0
N1469 N 0.39856 0.04715 0.06494 0.0
C1470 C 0.3523 0.98703 0.1537 0.0
C1471 C 0.38239 0.02711 0.0934 0.0
N1472 N 0.36427 0.0502 0.17582 0.0
N1473 N 0.3465 0.96241 0.06658 0.0
H1474 H 0.4139 0.07832 0.06391 0.0
H1475 H 0.3974 0.03322 0.04291 0.0
H1476 H 0.32891 0.93133 0.06753 0.0
H1477 H 0.35037 0.97449 0.04322 0.0
H1478 H 0.3464 0.0367 0.19625 0.0
H1479 H 0.37503 0.0808 0.17385 0.0
H1480 H 0.34853 0.98383 0.20539 0.0
H1481 H 0.3301 0.9377 0.18577 0.0
C1482 C 0.39201 0.36674 0.59278 0.0
C1483 C 0.39868 0.35218 0.6226 0.0
C1484 C 0.34996 0.36585 0.64925 0.0
C1485 C 0.3517 0.38931 0.62215 0.0
N1486 N 0.37016 0.40881 0.56634 0.0
N1487 N 0.38384 0.33817 0.68002 0.0
C1488 C 0.37089 0.38812 0.5931 0.0
C1489 C 0.37679 0.35078 0.65094 0.0
N1490 N 0.40628 0.3602 0.56436 0.0
N1491 N 0.32255 0.35804 0.67323 0.0
H1492 H 0.40362 0.32752 0.6823 0.0
H1493 H 0.37213 0.34087 0.70216 0.0
H1494 H 0.30208 0.36808 0.67157 0.0
H1495 H 0.31753 0.33855 0.69259 0.0
H1496 H 0.40048 0.36763 0.54135 0.0
H1497 H 0.42091 0.34371 0.56383 0.0
H1498 H 0.38743 0.4135 0.54552 0.0
H1499 H 0.35258 0.42222 0.56568 0.0
C1500 C 0.64842 0.98601 0.87507 0.0
C1501 C 0.62069 0.96548 0.90078 0.0
C1502 C 0.64604 0.02918 0.93027 0.0
C1503 C 0.66847 0.05025 0.90243 0.0
N1504 N 0.70151 0.04972 0.85327 0.0
N1505 N 0.60532 0.96531 0.95746 0.0
C1506 C 0.67317 0.02879 0.87641 0.0
C1507 C 0.62362 0.98658 0.92995 0.0
N1508 N 0.65039 0.96485 0.84924 0.0
N1509 N 0.64516 0.05034 0.95653 0.0
H1510 H 0.59093 0.93421 0.95763 0.0
H1511 H 0.60762 0.9779 0.98037 0.0
H1512 H 0.66414 0.08114 0.95789 0.0
H1513 H 0.62581 0.03793 0.97628 0.0
H1514 H 0.66672 0.97765 0.82807 0.0
H1515 H 0.63553 0.93377 0.8491 0.0
H1516 H 0.7084 0.03689 0.8339 0.0
H1517 H 0.72019 0.08064 0.85491 0.0
C1518 C 0.62712 0.64195 0.42686 0.0
C1519 C 0.61511 0.65122 0.39688 0.0
C1520 C 0.65543 0.62872 0.36707 0.0
C1521 C 0.66081 0.61245 0.39637 0.0
N1522 N 0.65384 0.60474 0.45466 0.0
N1523 N 0.61689 0.65262 0.33799 0.0
C1524 C 0.648 0.62019 0.42657 0.0
C1525 C 0.62976 0.64523 0.36684 0.0
N1526 N 0.61826 0.65387 0.45552 0.0
N1527 N 0.6747 0.62783 0.3394 0.0
H1528 H 0.59815 0.66465 0.33689 0.0
H1529 H 0.62256 0.6445 0.31526 0.0
H1530 H 0.69388 0.61617 0.3393 0.0
H1531 H 0.67492 0.64201 0.31769 0.0
H1532 H 0.62851 0.65086 0.47826 0.0
H1533 H 0.60325 0.66999 0.45616 0.0
H1534 H 0.64108 0.60473 0.47704 0.0
H1535 H 0.67064 0.59049 0.45513 0.0
C1536 C 0.9891 0.62899 0.86695 0.0
C1537 C 0.96631 0.61328 0.89605 0.0
C1538 C 0.0284 0.64644 0.92835 0.0
C1539 C 0.05084 0.66093 0.89911 0.0
N1540 N 0.05244 0.67736 0.84247 0.0
N1541 N 0.96313 0.61467 0.95469 0.0
C1542 C 0.0309 0.6563 0.86911 0.0
C1543 C 0.9857 0.62477 0.9269 0.0
N1544 N 0.97171 0.61512 0.83722 0.0
N1545 N 0.04809 0.65166 0.95721 0.0
H1546 H 0.93196 0.59904 0.95411 0.0
H1547 H 0.97497 0.62451 0.9779 0.0
H1548 H 0.07911 0.66918 0.95887 0.0
H1549 H 0.03409 0.63781 0.979 0.0
H1550 H 0.98766 0.62216 0.81538 0.0
H1551 H 0.94182 0.59347 0.83468 0.0
H1552 H 0.03944 0.67793 0.82033 0.0
H1553 H 0.08312 0.6974 0.84379 0.0
C1554 C 0.35118 0.98044 0.373 0.0
C1555 C 0.35123 0.95951 0.40161 0.0
C1556 C 0.38618 0.02353 0.43096 0.0
C1557 C 0.39311 0.04404 0.40085 0.0
N1558 N 0.36748 0.04393 0.34775 0.0
N1559 N 0.36228 0.96007 0.45933 0.0
C1560 C 0.37087 0.02299 0.37317 0.0
C1561 C 0.36591 0.98078 0.43132 0.0
N1562 N 0.33383 0.95941 0.34529 0.0
N1563 N 0.39787 0.0452 0.45908 0.0
H1564 H 0.34489 0.92902 0.46028 0.0
H1565 H 0.37632 0.97325 0.48123 0.0
H1566 H 0.41085 0.07624 0.45879 0.0
H1567 H 0.39158 0.0327 0.48237 0.0
H1568 H 0.33672 0.97227 0.32236 0.0
H1569 H 0.3169 0.9284 0.34567 0.0
H1570 H 0.34911 0.03073 0.32761 0.0
H1571 H 0.38064 0.07499 0.34847 0.0
C1572 C 0.36859 0.38585 0.86533 0.0
C1573 C 0.35843 0.39697 0.8953 0.0
C1574 C 0.38595 0.36142 0.92567 0.0
C1575 C 0.39823 0.35259 0.8957 0.0
N1576 N 0.39098 0.34541 0.83742 0.0
N1577 N 0.34878 0.38832 0.95337 0.0
C1578 C 0.38552 0.36069 0.86569 0.0
C1579 C 0.36397 0.38202 0.92533 0.0
N1580 N 0.36529 0.40212 0.8367 0.0
N1581 N 0.39697 0.35148 0.9543 0.0
H1582 H 0.33269 0.40337 0.95344 0.0
H1583 H 0.34943 0.37635 0.97599 0.0
H1584 H 0.41113 0.33453 0.95483 0.0
H1585 H 0.39309 0.36057 0.97724 0.0
H1586 H 0.37666 0.39927 0.81445 0.0
H1587 H 0.35356 0.42105 0.83561 0.0
H1588 H 0.37918 0.34699 0.81498 0.0
H1589 H 0.40415 0.32769 0.83716 0.0
C1590 C 0.98336 0.358 0.42878 0.0
C1591 C 0.96326 0.34535 0.39854 0.0
C1592 C 0.02752 0.36554 0.37182 0.0
C1593 C 0.04763 0.38875 0.39955 0.0
N1594 N 0.04605 0.40002 0.45691 0.0
N1595 N 0.96533 0.33272 0.34131 0.0
C1596 C 0.02582 0.38214 0.42901 0.0
C1597 C 0.98508 0.34712 0.37013 0.0
N1598 N 0.96164 0.3473 0.45696 0.0
N1599 N 0.04869 0.36015 0.34779 0.0
H1600 H 0.93417 0.31745 0.33995 0.0
H1601 H 0.97984 0.33737 0.31892 0.0
H1602 H 0.07934 0.37126 0.34982 0.0
H1603 H 0.03534 0.3412 0.32797 0.0
H1604 H 0.97422 0.35324 0.4802 0.0
H1605 H 0.93063 0.32907 0.45678 0.0
H1606 H 0.03249 0.40072 0.47866 0.0
H1607 H 0.07713 0.41466 0.45756 0.0
C1608 C 0.20852 0.42194 0.98494 0.0
C1609 C 0.24977 0.43463 0.98759 0.0
C1610 C 0.24354 0.43584 0.04721 0.0
C1611 C 0.20677 0.43509 0.0435 0.0
N1612 N 0.15198 0.42391 1.00899 0.0
N1613 N 0.30585 0.44911 0.02183 0.0
C1614 C 0.18808 0.4261 0.01245 0.0
C1615 C 0.26682 0.43937 0.01906 0.0
N1616 N 0.18941 0.40705 0.95598 0.0
N1617 N 0.25601 0.43335 0.07778 0.0
H1618 H 0.32262 0.44967 1.00163 0.0
H1619 H 0.3217 0.45781 0.0437 0.0
H1620 H 0.23807 0.42896 0.09817 0.0
H1621 H 0.2812 0.43093 0.08233 0.0
H1622 H 0.15873 0.39482 0.95297 0.0
H1623 H 0.20414 0.40409 0.93576 0.0
H1624 H 0.13873 0.42214 0.98643 0.0
H1625 H 0.13616 0.42547 0.02903 0.0
C1626 C 0.76643 0.21637 0.48196 0.0
C1627 C 0.80428 0.25217 0.48602 0.0
C1628 C 0.80206 0.237 0.54473 0.0
C1629 C 0.76372 0.20286 0.54062 0.0
N1630 N 0.71711 0.15233 0.50492 0.0
N1631 N 0.86319 0.2879 0.51912 0.0
C1632 C 0.7488 0.18995 0.50893 0.0
C1633 C 0.82372 0.25972 0.51682 0.0
N1634 N 0.74542 0.20864 0.45347 0.0
N1635 N 0.81703 0.24855 0.57546 0.0
H1636 H 0.87997 0.30342 0.49873 0.0
H1637 H 0.88008 0.29274 0.5402 0.0
H1638 H 0.80345 0.23054 0.59583 0.0
H1639 H 0.84205 0.27609 0.58072 0.0
H1640 H 0.71565 0.18622 0.45126 0.0
H1641 H 0.756 0.22581 0.4325 0.0
H1642 H 0.70658 0.13925 0.48216 0.0
H1643 H 0.70462 0.13284 0.5247 0.0
C1644 C 0.58379 0.80796 0.0375 0.0
C1645 C 0.56783 0.76611 0.0385 0.0
C1646 C 0.5532 0.76277 0.97972 0.0
C1647 C 0.55985 0.80242 0.98082 0.0
N1648 N 0.58734 0.86504 1.00917 0.0
N1649 N 0.54624 0.70499 1.00962 0.0
C1650 C 0.57771 0.82598 1.0091 0.0
C1651 C 0.55571 0.74406 1.00906 0.0
N1652 N 0.60528 0.83023 0.06358 0.0
N1653 N 0.54545 0.74362 0.95039 0.0
H1654 H 0.55192 0.69249 0.0301 0.0
H1655 H 0.53328 0.6852 0.9903 0.0
H1656 H 0.54724 0.75822 0.92858 0.0
H1657 H 0.54132 0.71516 0.94704 0.0
H1658 H 0.62035 0.8613 0.06407 0.0
H1659 H 0.61049 0.81711 0.08389 0.0
H1660 H 0.59599 0.88288 0.02996 0.0
H1661 H 0.58572 0.87929 0.98809 0.0
C1662 C 0.7939 0.58733 0.53598 0.0
C1663 C 0.82344 0.57611 0.534 0.0
C1664 C 0.80977 0.56161 0.47595 0.0
C1665 C 0.77517 0.56564 0.47893 0.0
N1666 N 0.73819 0.58917 0.50976 0.0
N1667 N 0.87034 0.56932 0.50104 0.0
C1668 C 0.76885 0.58133 0.5083 0.0
C1669 C 0.83507 0.56919 0.50336 0.0
N1670 N 0.79025 0.60362 0.56438 0.0
N1671 N 0.81671 0.54726 0.44789 0.0
H1672 H 0.88877 0.57522 0.52136 0.0
H1673 H 0.88308 0.56772 0.47911 0.0
H1674 H 0.8004 0.54319 0.42683 0.0
H1675 H 0.83742 0.53774 0.44588 0.0
H1676 H 0.77042 0.61401 0.56793 0.0
H1677 H 0.80914 0.6085 0.5842 0.0
H1678 H 0.72921 0.59735 0.53089 0.0
H1679 H 0.72151 0.58744 0.48917 0.0
C1680 C 0.19476 0.76151 0.0129 0.0
C1681 C 0.21332 0.77254 0.9818 0.0
C1682 C 0.27067 0.83058 1.00691 0.0
C1683 C 0.25648 0.81377 0.03805 0.0
N1684 N 0.20315 0.76541 0.07181 0.0
N1685 N 0.26917 0.81984 0.94879 0.0
C1686 C 0.21752 0.78031 0.04145 0.0
C1687 C 0.25085 0.8084 0.9785 0.0
N1688 N 0.15534 0.73295 0.01484 0.0
N1689 N 0.30326 0.8679 1.0047 0.0
H1690 H 0.25511 0.8064 0.92709 0.0
H1691 H 0.29896 0.84191 0.94579 0.0
H1692 H 0.31762 0.88438 0.02549 0.0
H1693 H 0.31297 0.88383 0.98288 0.0
H1694 H 0.13886 0.72525 0.03642 0.0
H1695 H 0.13826 0.71979 0.99396 0.0
H1696 H 0.17736 0.73805 0.0759 0.0
H1697 H 0.21792 0.78026 0.09307 0.0
C1698 C 0.43636 0.24932 0.51017 0.0
C1699 C 0.44977 0.24348 0.54081 0.0
C1700 C 0.44799 0.18338 0.5193 0.0
C1701 C 0.44403 0.19489 0.48731 0.0
N1702 N 0.40943 0.22158 0.45672 0.0
N1703 N 0.45661 0.19859 0.5773 0.0
C1704 C 0.43041 0.22265 0.48385 0.0
C1705 C 0.45141 0.20809 0.5463 0.0
N1706 N 0.43018 0.28078 0.50616 0.0
N1707 N 0.44582 0.14741 0.52357 0.0
H1708 H 0.45226 0.21228 0.59747 0.0
H1709 H 0.46377 0.17673 0.58311 0.0
H1710 H 0.43913 0.12781 0.50403 0.0
H1711 H 0.44635 0.13535 0.54615 0.0
H1712 H 0.42499 0.28975 0.48357 0.0
H1713 H 0.43114 0.29829 0.52585 0.0
H1714 H 0.39653 0.23939 0.45367 0.0
H1715 H 0.40065 0.19932 0.43912 0.0
C1716 C 0.81178 0.56979 0.03907 0.0
C1717 C 0.77838 0.57559 0.03887 0.0
C1718 C 0.78735 0.58815 0.97967 0.0
C1719 C 0.81354 0.57247 0.9791 0.0
N1720 N 0.85638 0.5548 1.00818 0.0
N1721 N 0.73802 0.59664 1.0103 0.0
C1722 C 0.82807 0.56599 1.00893 0.0
C1723 C 0.76787 0.58762 1.00957 0.0
N1724 N 0.82734 0.56761 0.06839 0.0
N1725 N 0.7814 0.60345 0.95158 0.0
H1726 H 0.72521 0.5983 0.03225 0.0
H1727 H 0.72566 0.60175 0.98956 0.0
H1728 H 0.79673 0.60515 0.9301 0.0
H1729 H 0.76437 0.61736 0.95016 0.0
H1730 H 0.85284 0.56526 0.07102 0.0
H1731 H 0.81634 0.57207 0.09027 0.0
H1732 H 0.86494 0.54459 0.02844 0.0
H1733 H 0.87104 0.55537 0.98664 0.0
C1734 C 0.21288 0.7625 0.52442 0.0
C1735 C 0.22859 0.74243 0.54292 0.0
C1736 C 0.28021 0.75995 0.50206 0.0
C1737 C 0.26939 0.78568 0.48574 0.0
N1738 N 0.22776 0.81604 0.48579 0.0
N1739 N 0.28843 0.73998 0.55494 0.0
C1740 C 0.23617 0.78826 0.49804 0.0
C1741 C 0.26554 0.74652 0.53343 0.0
N1742 N 0.17584 0.75656 0.5315 0.0
N1743 N 0.30355 0.74681 0.48798 0.0
H1744 H 0.28213 0.73714 0.57953 0.0
H1745 H 0.31697 0.74518 0.5493 0.0
H1746 H 0.31352 0.75246 0.46408 0.0
H1747 H 0.30867 0.7255 0.49913 0.0
H1748 H 0.16129 0.76736 0.51684 0.0
H1749 H 0.15859 0.73828 0.55072 0.0
H1750 H 0.20607 0.82128 0.49583 0.0
H1751 H 0.24499 0.83649 0.46774 0.0
C1752 C 0.46342 0.2489 0.04573 0.0
C1753 C 0.4548 0.20907 0.04173 0.0
C1754 C 0.43711 0.21262 0.98435 0.0
C1755 C 0.45628 0.25503 0.98651 0.0
N1756 N 0.4871 0.31331 0.02064 0.0
N1757 N 0.43218 0.15192 1.00686 0.0
C1758 C 0.46875 0.27292 0.01776 0.0
C1759 C 0.44053 0.19031 1.01102 0.0
N1760 N 0.46587 0.26359 0.07642 0.0
N1761 N 0.41649 0.19381 0.9568 0.0
H1762 H 0.43348 0.13494 0.02615 0.0
H1763 H 0.42607 0.1379 0.98418 0.0
H1764 H 0.41377 0.20937 0.93708 0.0
H1765 H 0.39949 0.16285 0.95474 0.0
H1766 H 0.46985 0.29183 0.08108 0.0
H1767 H 0.45827 0.24522 0.09692 0.0
H1768 H 0.5028 0.32844 0.04146 0.0
H1769 H 0.48828 0.33131 1.00133 0.0
C1770 C 0.18131 0.43254 0.5134 0.0
C1771 C 0.20241 0.44273 0.48355 0.0
C1772 C 0.25447 0.43443 0.51036 0.0
C1773 C 0.23993 0.43751 0.54128 0.0
N1774 N 0.1851 0.43417 0.57228 0.0
N1775 N 0.25755 0.44788 0.45231 0.0
C1776 C 0.20158 0.43411 0.54293 0.0
C1777 C 0.23835 0.44148 0.48151 0.0
N1778 N 0.14157 0.41996 0.51321 0.0
N1779 N 0.28264 0.42323 0.50882 0.0
H1780 H 0.24469 0.4496 0.43046 0.0
H1781 H 0.28632 0.45224 0.45012 0.0
H1782 H 0.29282 0.41593 0.52992 0.0
H1783 H 0.29186 0.41666 0.48694 0.0
H1784 H 0.12339 0.40828 0.53375 0.0
H1785 H 0.12637 0.41654 0.49135 0.0
H1786 H 0.16006 0.43745 0.5746 0.0
H1787 H 0.19698 0.43162 0.59424 0.0
C1788 C 0.77981 0.2142 0.04395 0.0
C1789 C 0.8089 0.25545 0.0431 0.0
C1790 C 0.8047 0.25536 0.98331 0.0
C1791 C 0.77329 0.21475 0.98426 0.0
N1792 N 0.74113 0.15259 0.01339 0.0
N1793 N 0.85739 0.31211 0.01252 0.0
C1794 C 0.76432 0.19322 0.01403 0.0
C1795 C 0.82426 0.27484 0.01283 0.0
N1796 N 0.76557 0.19566 0.07333 0.0
N1797 N 0.81413 0.27613 0.95464 0.0
H1798 H 0.87201 0.32678 0.03393 0.0
H1799 H 0.87247 0.3269 0.99134 0.0
H1800 H 0.80288 0.26241 0.93234 0.0
H1801 H 0.83216 0.30702 0.95298 0.0
H1802 H 0.74082 0.16714 0.07573 0.0
H1803 H 0.77774 0.20969 0.09553 0.0
H1804 H 0.73568 0.13442 0.03378 0.0
H1805 H 0.73059 0.13695 0.99148 0.0
C1806 C 0.5904 0.80557 0.48391 0.0
C1807 C 0.57847 0.76467 0.4873 0.0
C1808 C 0.57292 0.77027 0.5466 0.0
C1809 C 0.57378 0.80699 0.54171 0.0
N1810 N 0.58995 0.86322 0.50718 0.0
N1811 N 0.56429 0.70924 0.52207 0.0
C1812 C 0.58536 0.82613 0.51084 0.0
C1813 C 0.57248 0.74772 0.51895 0.0
N1814 N 0.60587 0.8242 0.45483 0.0
N1815 N 0.57192 0.75695 0.57767 0.0
H1816 H 0.56654 0.69361 0.50221 0.0
H1817 H 0.55453 0.6928 0.54364 0.0
H1818 H 0.57371 0.77393 0.59801 0.0
H1819 H 0.57331 0.73143 0.58327 0.0
H1820 H 0.61755 0.85464 0.45093 0.0
H1821 H 0.60973 0.80922 0.43524 0.0
H1822 H 0.59429 0.87755 0.48476 0.0
H1823 H 0.58873 0.87928 0.52714 0.0
loop_
_geom_bond_atom_site_label_1
_geom_bond_atom_site_label_2
_geom_bond_distance
_geom_bond_site_symmetry_2
_ccdc_geom_bond_type
Fe0 O2 1.918 . S
Fe0 O5 1.997 . S
Fe0 O6 2.002 . S
Fe0 O11 1.976 . S
Fe0 O14 1.996 . S
Fe1 O2 1.918 . S
Fe1 O9 1.997 . S
Fe1 O12 1.996 . S
Fe1 O16 1.976 . S
Fe1 O19 2.002 . S
O2 Fe0 1.918 . S
O2 Fe1 1.918 . S
O2 Fe3 1.918 . S
Fe3 O2 1.918 . S
Fe3 O4 2.002 . S
Fe3 O13 1.976 . S
Fe3 O17 1.996 . S
Fe3 O20 1.997 . S
O4 Fe3 2.002 . S
O4 C21 1.295 . S
O5 Fe0 1.997 . S
O5 C21 1.235 . S
O6 Fe0 2.002 . S
O6 C7 1.295 . S
C7 O6 1.295 . S
C7 O9 1.235 . S
C8 O13 1.287 . S
C8 O14 1.255 . S
O9 Fe1 1.997 . S
O9 C7 1.235 . S
C10 O16 1.287 . S
C10 O17 1.255 . S
O11 Fe0 1.976 . S
O11 C18 1.287 . S
O12 Fe1 1.996 . S
O12 C18 1.255 . S
O13 Fe3 1.976 . S
O13 C8 1.287 . S
O14 Fe0 1.996 . S
O14 C8 1.255 . S
C15 O19 1.295 . S
C15 O20 1.235 . S
O16 Fe1 1.976 . S
O16 C10 1.287 . S
O17 Fe3 1.996 . S
O17 C10 1.255 . S
C18 O11 1.287 . S
C18 O12 1.255 . S
O19 Fe1 2.002 . S
O19 C15 1.295 . S
O20 Fe3 1.997 . S
O20 C15 1.235 . S
C21 O4 1.295 . S
C21 O5 1.235 . S
Fe22 O24 1.918 . S
Fe22 O27 1.997 . S
Fe22 O28 2.002 . S
Fe22 O33 1.976 . S
Fe22 O36 1.996 . S
Fe23 O24 1.918 . S
Fe23 O31 1.997 . S
Fe23 O34 1.996 . S
Fe23 O38 1.976 . S
Fe23 O41 2.002 . S
O24 Fe22 1.918 . S
O24 Fe23 1.918 . S
O24 Fe25 1.918 . S
Fe25 O24 1.918 . S
Fe25 O26 2.002 . S
Fe25 O35 1.976 . S
Fe25 O39 1.996 . S
Fe25 O42 1.997 . S
O26 Fe25 2.002 . S
O26 C43 1.295 . S
O27 Fe22 1.997 . S
O27 C43 1.235 . S
O28 Fe22 2.002 . S
O28 C29 1.295 . S
C29 O28 1.295 . S
C29 O31 1.235 . S
C30 O35 1.287 . S
C30 O36 1.255 . S
O31 Fe23 1.997 . S
O31 C29 1.235 . S
C32 O38 1.287 . S
C32 O39 1.255 . S
O33 Fe22 1.976 . S
O33 C40 1.287 . S
O34 Fe23 1.996 . S
O34 C40 1.255 . S
O35 Fe25 1.976 . S
O35 C30 1.287 . S
O36 Fe22 1.996 . S
O36 C30 1.255 . S
C37 O41 1.295 . S
C37 O42 1.235 . S
O38 Fe23 1.976 . S
O38 C32 1.287 . S
O39 Fe25 1.996 . S
O39 C32 1.255 . S
C40 O33 1.287 . S
C40 O34 1.255 . S
O41 Fe23 2.002 . S
O41 C37 1.295 . S
O42 Fe25 1.997 . S
O42 C37 1.235 . S
C43 O26 1.295 . S
C43 O27 1.235 . S
Fe44 O46 1.918 . S
Fe44 O49 1.997 . S
Fe44 O50 2.002 . S
Fe44 O55 1.976 . S
Fe44 O58 1.996 . S
Fe45 O46 1.918 . S
Fe45 O53 1.997 . S
Fe45 O56 1.996 . S
Fe45 O60 1.976 . S
Fe45 O63 2.002 . S
O46 Fe44 1.918 . S
O46 Fe45 1.918 . S
O46 Fe47 1.918 . S
Fe47 O46 1.918 . S
Fe47 O48 2.002 . S
Fe47 O57 1.976 . S
Fe47 O61 1.996 . S
Fe47 O64 1.997 . S
O48 Fe47 2.002 . S
O48 C65 1.295 . S
O49 Fe44 1.997 . S
O49 C65 1.235 . S
O50 Fe44 2.002 . S
O50 C51 1.295 . S
C51 O50 1.295 . S
C51 O53 1.235 . S
C52 O57 1.287 . S
C52 O58 1.255 . S
O53 Fe45 1.997 . S
O53 C51 1.235 . S
C54 O60 1.287 . S
C54 O61 1.255 . S
O55 Fe44 1.976 . S
O55 C62 1.287 . S
O56 Fe45 1.996 . S
O56 C62 1.255 . S
O57 Fe47 1.976 . S
O57 C52 1.287 . S
O58 Fe44 1.996 . S
O58 C52 1.255 . S
C59 O63 1.295 . S
C59 O64 1.235 . S
O60 Fe45 1.976 . S
O60 C54 1.287 . S
O61 Fe47 1.996 . S
O61 C54 1.255 . S
C62 O55 1.287 . S
C62 O56 1.255 . S
O63 Fe45 2.002 . S
O63 C59 1.295 . S
O64 Fe47 1.997 . S
O64 C59 1.235 . S
C65 O48 1.295 . S
C65 O49 1.235 . S
Fe66 O68 1.918 . S
Fe66 O71 1.997 . S
Fe66 O72 2.002 . S
Fe66 O77 1.976 . S
Fe66 O80 1.996 . S
Fe67 O68 1.918 . S
Fe67 O75 1.997 . S
Fe67 O78 1.996 . S
Fe67 O82 1.976 . S
Fe67 O85 2.002 . S
O68 Fe66 1.918 . S
O68 Fe67 1.918 . S
O68 Fe69 1.918 . S
Fe69 O68 1.918 . S
Fe69 O70 2.002 . S
Fe69 O79 1.976 . S
Fe69 O83 1.996 . S
Fe69 O86 1.997 . S
O70 Fe69 2.002 . S
O70 C87 1.295 . S
O71 Fe66 1.997 . S
O71 C87 1.235 . S
O72 Fe66 2.002 . S
O72 C73 1.295 . S
C73 O72 1.295 . S
C73 O75 1.235 . S
C74 O79 1.287 . S
C74 O80 1.255 . S
O75 Fe67 1.997 . S
O75 C73 1.235 . S
C76 O82 1.287 . S
C76 O83 1.255 . S
O77 Fe66 1.976 . S
O77 C84 1.287 . S
O78 Fe67 1.996 . S
O78 C84 1.255 . S
O79 Fe69 1.976 . S
O79 C74 1.287 . S
O80 Fe66 1.996 . S
O80 C74 1.255 . S
C81 O85 1.295 . S
C81 O86 1.235 . S
O82 Fe67 1.976 . S
O82 C76 1.287 . S
O83 Fe69 1.996 . S
O83 C76 1.255 . S
C84 O77 1.287 . S
C84 O78 1.255 . S
O85 Fe67 2.002 . S
O85 C81 1.295 . S
O86 Fe69 1.997 . S
O86 C81 1.235 . S
C87 O70 1.295 . S
C87 O71 1.235 . S
Fe88 O90 1.918 . S
Fe88 O93 1.997 . S
Fe88 O94 2.002 . S
Fe88 O99 1.976 . S
Fe88 O102 1.996 . S
Fe89 O90 1.918 . S
Fe89 O97 1.997 . S
Fe89 O100 1.996 . S
Fe89 O104 1.976 . S
Fe89 O107 2.002 . S
O90 Fe88 1.918 . S
O90 Fe89 1.918 . S
O90 Fe91 1.918 . S
Fe91 O90 1.918 . S
Fe91 O92 2.002 . S
Fe91 O101 1.976 . S
Fe91 O105 1.996 . S
Fe91 O108 1.997 . S
O92 Fe91 2.002 . S
O92 C109 1.295 . S
O93 Fe88 1.997 . S
O93 C109 1.235 . S
O94 Fe88 2.002 . S
O94 C95 1.295 . S
C95 O94 1.295 . S
C95 O97 1.235 . S
C96 O101 1.287 . S
C96 O102 1.255 . S
O97 Fe89 1.997 . S
O97 C95 1.235 . S
C98 O104 1.287 . S
C98 O105 1.255 . S
O99 Fe88 1.976 . S
O99 C106 1.287 . S
O100 Fe89 1.996 . S
O100 C106 1.255 . S
O101 Fe91 1.976 . S
O101 C96 1.287 . S
O102 Fe88 1.996 . S
O102 C96 1.255 . S
C103 O107 1.295 . S
C103 O108 1.235 . S
O104 Fe89 1.976 . S
O104 C98 1.287 . S
O105 Fe91 1.996 . S
O105 C98 1.255 . S
C106 O99 1.287 . S
C106 O100 1.255 . S
O107 Fe89 2.002 . S
O107 C103 1.295 . S
O108 Fe91 1.997 . S
O108 C103 1.235 . S
C109 O92 1.295 . S
C109 O93 1.235 . S
Fe110 O112 1.918 . S
Fe110 O115 1.997 . S
Fe110 O116 2.002 . S
Fe110 O121 1.976 . S
Fe110 O124 1.996 . S
Fe111 O112 1.918 . S
Fe111 O119 1.997 . S
Fe111 O122 1.996 . S
Fe111 O126 1.976 . S
Fe111 O129 2.002 . S
O112 Fe110 1.918 . S
O112 Fe111 1.918 . S
O112 Fe113 1.918 . S
Fe113 O112 1.918 . S
Fe113 O114 2.002 . S
Fe113 O123 1.976 . S
Fe113 O127 1.996 . S
Fe113 O130 1.997 . S
O114 Fe113 2.002 . S
O114 C131 1.295 . S
O115 Fe110 1.997 . S
O115 C131 1.235 . S
O116 Fe110 2.002 . S
O116 C117 1.295 . S
C117 O116 1.295 . S
C117 O119 1.235 . S
C118 O123 1.287 . S
C118 O124 1.255 . S
O119 Fe111 1.997 . S
O119 C117 1.235 . S
C120 O126 1.287 . S
C120 O127 1.255 . S
O121 Fe110 1.976 . S
O121 C128 1.287 . S
O122 Fe111 1.996 . S
O122 C128 1.255 . S
O123 Fe113 1.976 . S
O123 C118 1.287 . S
O124 Fe110 1.996 . S
O124 C118 1.255 . S
C125 O129 1.295 . S
C125 O130 1.235 . S
O126 Fe111 1.976 . S
O126 C120 1.287 . S
O127 Fe113 1.996 . S
O127 C120 1.255 . S
C128 O121 1.287 . S
C128 O122 1.255 . S
O129 Fe111 2.002 . S
O129 C125 1.295 . S
O130 Fe113 1.997 . S
O130 C125 1.235 . S
C131 O114 1.295 . S
C131 O115 1.235 . S
Fe132 O134 1.918 . S
Fe132 O137 1.997 . S
Fe132 O138 2.002 . S
Fe132 O143 1.976 . S
Fe132 O146 1.996 . S
Fe133 O134 1.918 . S
Fe133 O141 1.997 . S
Fe133 O144 1.996 . S
Fe133 O148 1.976 . S
Fe133 O151 2.002 . S
O134 Fe132 1.918 . S
O134 Fe133 1.918 . S
O134 Fe135 1.918 . S
Fe135 O134 1.918 . S
Fe135 O136 2.002 . S
Fe135 O145 1.976 . S
Fe135 O149 1.996 . S
Fe135 O152 1.997 . S
O136 Fe135 2.002 . S
O136 C153 1.295 . S
O137 Fe132 1.997 . S
O137 C153 1.235 . S
O138 Fe132 2.002 . S
O138 C139 1.295 . S
C139 O138 1.295 . S
C139 O141 1.235 . S
C140 O145 1.287 . S
C140 O146 1.255 . S
O141 Fe133 1.997 . S
O141 C139 1.235 . S
C142 O148 1.287 . S
C142 O149 1.255 . S
O143 Fe132 1.976 . S
O143 C150 1.287 . S
O144 Fe133 1.996 . S
O144 C150 1.255 . S
O145 Fe135 1.976 . S
O145 C140 1.287 . S
O146 Fe132 1.996 . S
O146 C140 1.255 . S
C147 O151 1.295 . S
C147 O152 1.235 . S
O148 Fe133 1.976 . S
O148 C142 1.287 . S
O149 Fe135 1.996 . S
O149 C142 1.255 . S
C150 O143 1.287 . S
C150 O144 1.255 . S
O151 Fe133 2.002 . S
O151 C147 1.295 . S
O152 Fe135 1.997 . S
O152 C147 1.235 . S
C153 O136 1.295 . S
C153 O137 1.235 . S
Fe154 O156 1.918 . S
Fe154 O159 1.997 . S
Fe154 O160 2.002 . S
Fe154 O165 1.976 . S
Fe154 O168 1.996 . S
Fe155 O156 1.918 . S
Fe155 O163 1.997 . S
Fe155 O166 1.996 . S
Fe155 O170 1.976 . S
Fe155 O173 2.002 . S
O156 Fe154 1.918 . S
O156 Fe155 1.918 . S
O156 Fe157 1.918 . S
Fe157 O156 1.918 . S
Fe157 O158 2.002 . S
Fe157 O167 1.976 . S
Fe157 O171 1.996 . S
Fe157 O174 1.997 . S
O158 Fe157 2.002 . S
O158 C175 1.295 . S
O159 Fe154 1.997 . S
O159 C175 1.235 . S
O160 Fe154 2.002 . S
O160 C161 1.295 . S
C161 O160 1.295 . S
C161 O163 1.235 . S
C162 O167 1.287 . S
C162 O168 1.255 . S
O163 Fe155 1.997 . S
O163 C161 1.235 . S
C164 O170 1.287 . S
C164 O171 1.255 . S
O165 Fe154 1.976 . S
O165 C172 1.287 . S
O166 Fe155 1.996 . S
O166 C172 1.255 . S
O167 Fe157 1.976 . S
O167 C162 1.287 . S
O168 Fe154 1.996 . S
O168 C162 1.255 . S
C169 O173 1.295 . S
C169 O174 1.235 . S
O170 Fe155 1.976 . S
O170 C164 1.287 . S
O171 Fe157 1.996 . S
O171 C164 1.255 . S
C172 O165 1.287 . S
C172 O166 1.255 . S
O173 Fe155 2.002 . S
O173 C169 1.295 . S
O174 Fe157 1.997 . S
O174 C169 1.235 . S
C175 O158 1.295 . S
C175 O159 1.235 . S
Fe176 O178 1.918 . S
Fe176 O181 1.997 . S
Fe176 O182 2.002 . S
Fe176 O187 1.976 . S
Fe176 O190 1.996 . S
Fe177 O178 1.918 . S
Fe177 O185 1.997 . S
Fe177 O188 1.996 . S
Fe177 O192 1.976 . S
Fe177 O195 2.002 . S
O178 Fe176 1.918 . S
O178 Fe177 1.918 . S
O178 Fe179 1.918 . S
Fe179 O178 1.918 . S
Fe179 O180 2.002 . S
Fe179 O189 1.976 . S
Fe179 O193 1.996 . S
Fe179 O196 1.997 . S
O180 Fe179 2.002 . S
O180 C197 1.295 . S
O181 Fe176 1.997 . S
O181 C197 1.235 . S
O182 Fe176 2.002 . S
O182 C183 1.295 . S
C183 O182 1.295 . S
C183 O185 1.235 . S
C184 O189 1.287 . S
C184 O190 1.255 . S
O185 Fe177 1.997 . S
O185 C183 1.235 . S
C186 O192 1.287 . S
C186 O193 1.255 . S
O187 Fe176 1.976 . S
O187 C194 1.287 . S
O188 Fe177 1.996 . S
O188 C194 1.255 . S
O189 Fe179 1.976 . S
O189 C184 1.287 . S
O190 Fe176 1.996 . S
O190 C184 1.255 . S
C191 O195 1.295 . S
C191 O196 1.235 . S
O192 Fe177 1.976 . S
O192 C186 1.287 . S
O193 Fe179 1.996 . S
O193 C186 1.255 . S
C194 O187 1.287 . S
C194 O188 1.255 . S
O195 Fe177 2.002 . S
O195 C191 1.295 . S
O196 Fe179 1.997 . S
O196 C191 1.235 . S
C197 O180 1.295 . S
C197 O181 1.235 . S
Fe198 O200 1.918 . S
Fe198 O203 1.997 . S
Fe198 O204 2.002 . S
Fe198 O209 1.976 . S
Fe198 O212 1.996 . S
Fe199 O200 1.918 . S
Fe199 O207 1.997 . S
Fe199 O210 1.996 . S
Fe199 O214 1.976 . S
Fe199 O217 2.002 . S
O200 Fe198 1.918 . S
O200 Fe199 1.918 . S
O200 Fe201 1.918 . S
Fe201 O200 1.918 . S
Fe201 O202 2.002 . S
Fe201 O211 1.976 . S
Fe201 O215 1.996 . S
Fe201 O218 1.997 . S
O202 Fe201 2.002 . S
O202 C219 1.295 . S
O203 Fe198 1.997 . S
O203 C219 1.235 . S
O204 Fe198 2.002 . S
O204 C205 1.295 . S
C205 O204 1.295 . S
C205 O207 1.235 . S
C206 O211 1.287 . S
C206 O212 1.255 . S
O207 Fe199 1.997 . S
O207 C205 1.235 . S
C208 O214 1.287 . S
C208 O215 1.255 . S
O209 Fe198 1.976 . S
O209 C216 1.287 . S
O210 Fe199 1.996 . S
O210 C216 1.255 . S
O211 Fe201 1.976 . S
O211 C206 1.287 . S
O212 Fe198 1.996 . S
O212 C206 1.255 . S
C213 O217 1.295 . S
C213 O218 1.235 . S
O214 Fe199 1.976 . S
O214 C208 1.287 . S
O215 Fe201 1.996 . S
O215 C208 1.255 . S
C216 O209 1.287 . S
C216 O210 1.255 . S
O217 Fe199 2.002 . S
O217 C213 1.295 . S
O218 Fe201 1.997 . S
O218 C213 1.235 . S
C219 O202 1.295 . S
C219 O203 1.235 . S
Fe220 O222 1.918 . S
Fe220 O225 1.997 . S
Fe220 O226 2.002 . S
Fe220 O231 1.976 . S
Fe220 O234 1.996 . S
Fe221 O222 1.918 . S
Fe221 O229 1.997 . S
Fe221 O232 1.996 . S
Fe221 O236 1.976 . S
Fe221 O239 2.002 . S
O222 Fe220 1.918 . S
O222 Fe221 1.918 . S
O222 Fe223 1.918 . S
Fe223 O222 1.918 . S
Fe223 O224 2.002 . S
Fe223 O233 1.976 . S
Fe223 O237 1.996 . S
Fe223 O240 1.997 . S
O224 Fe223 2.002 . S
O224 C241 1.295 . S
O225 Fe220 1.997 . S
O225 C241 1.235 . S
O226 Fe220 2.002 . S
O226 C227 1.295 . S
C227 O226 1.295 . S
C227 O229 1.235 . S
C228 O233 1.287 . S
C228 O234 1.255 . S
O229 Fe221 1.997 . S
O229 C227 1.235 . S
C230 O236 1.287 . S
C230 O237 1.255 . S
O231 Fe220 1.976 . S
O231 C238 1.287 . S
O232 Fe221 1.996 . S
O232 C238 1.255 . S
O233 Fe223 1.976 . S
O233 C228 1.287 . S
O234 Fe220 1.996 . S
O234 C228 1.255 . S
C235 O239 1.295 . S
C235 O240 1.235 . S
O236 Fe221 1.976 . S
O236 C230 1.287 . S
O237 Fe223 1.996 . S
O237 C230 1.255 . S
C238 O231 1.287 . S
C238 O232 1.255 . S
O239 Fe221 2.002 . S
O239 C235 1.295 . S
O240 Fe223 1.997 . S
O240 C235 1.235 . S
C241 O224 1.295 . S
C241 O225 1.235 . S
Fe242 O244 1.918 . S
Fe242 O247 1.997 . S
Fe242 O248 2.002 . S
Fe242 O253 1.976 . S
Fe242 O256 1.996 . S
Fe243 O244 1.918 . S
Fe243 O251 1.997 . S
Fe243 O254 1.996 . S
Fe243 O258 1.976 . S
Fe243 O261 2.002 . S
O244 Fe242 1.918 . S
O244 Fe243 1.918 . S
O244 Fe245 1.918 . S
Fe245 O244 1.918 . S
Fe245 O246 2.002 . S
Fe245 O255 1.976 . S
Fe245 O259 1.996 . S
Fe245 O262 1.997 . S
O246 Fe245 2.002 . S
O246 C263 1.295 . S
O247 Fe242 1.997 . S
O247 C263 1.235 . S
O248 Fe242 2.002 . S
O248 C249 1.295 . S
C249 O248 1.295 . S
C249 O251 1.235 . S
C250 O255 1.287 . S
C250 O256 1.255 . S
O251 Fe243 1.997 . S
O251 C249 1.235 . S
C252 O258 1.287 . S
C252 O259 1.255 . S
O253 Fe242 1.976 . S
O253 C260 1.287 . S
O254 Fe243 1.996 . S
O254 C260 1.255 . S
O255 Fe245 1.976 . S
O255 C250 1.287 . S
O256 Fe242 1.996 . S
O256 C250 1.255 . S
C257 O261 1.295 . S
C257 O262 1.235 . S
O258 Fe243 1.976 . S
O258 C252 1.287 . S
O259 Fe245 1.996 . S
O259 C252 1.255 . S
C260 O253 1.287 . S
C260 O254 1.255 . S
O261 Fe243 2.002 . S
O261 C257 1.295 . S
O262 Fe245 1.997 . S
O262 C257 1.235 . S
C263 O246 1.295 . S
C263 O247 1.235 . S
Fe264 O266 1.918 . S
Fe264 O269 1.997 . S
Fe264 O270 2.002 . S
Fe264 O275 1.976 . S
Fe264 O278 1.996 . S
Fe265 O266 1.918 . S
Fe265 O273 1.997 . S
Fe265 O276 1.996 . S
Fe265 O280 1.976 . S
Fe265 O283 2.002 . S
O266 Fe264 1.918 . S
O266 Fe265 1.918 . S
O266 Fe267 1.918 . S
Fe267 O266 1.918 . S
Fe267 O268 2.002 . S
Fe267 O277 1.976 . S
Fe267 O281 1.996 . S
Fe267 O284 1.997 . S
O268 Fe267 2.002 . S
O268 C285 1.295 . S
O269 Fe264 1.997 . S
O269 C285 1.235 . S
O270 Fe264 2.002 . S
O270 C271 1.295 . S
C271 O270 1.295 . S
C271 O273 1.235 . S
C272 O277 1.287 . S
C272 O278 1.255 . S
O273 Fe265 1.997 . S
O273 C271 1.235 . S
C274 O280 1.287 . S
C274 O281 1.255 . S
O275 Fe264 1.976 . S
O275 C282 1.287 . S
O276 Fe265 1.996 . S
O276 C282 1.255 . S
O277 Fe267 1.976 . S
O277 C272 1.287 . S
O278 Fe264 1.996 . S
O278 C272 1.255 . S
C279 O283 1.295 . S
C279 O284 1.235 . S
O280 Fe265 1.976 . S
O280 C274 1.287 . S
O281 Fe267 1.996 . S
O281 C274 1.255 . S
C282 O275 1.287 . S
C282 O276 1.255 . S
O283 Fe265 2.002 . S
O283 C279 1.295 . S
O284 Fe267 1.997 . S
O284 C279 1.235 . S
C285 O268 1.295 . S
C285 O269 1.235 . S
Fe286 O288 1.918 . S
Fe286 O291 1.997 . S
Fe286 O292 2.002 . S
Fe286 O297 1.976 . S
Fe286 O300 1.996 . S
Fe287 O288 1.918 . S
Fe287 O295 1.997 . S
Fe287 O298 1.996 . S
Fe287 O302 1.976 . S
Fe287 O305 2.002 . S
O288 Fe286 1.918 . S
O288 Fe287 1.918 . S
O288 Fe289 1.918 . S
Fe289 O288 1.918 . S
Fe289 O290 2.002 . S
Fe289 O299 1.976 . S
Fe289 O303 1.996 . S
Fe289 O306 1.997 . S
O290 Fe289 2.002 . S
O290 C307 1.295 . S
O291 Fe286 1.997 . S
O291 C307 1.235 . S
O292 Fe286 2.002 . S
O292 C293 1.295 . S
C293 O292 1.295 . S
C293 O295 1.235 . S
C294 O299 1.287 . S
C294 O300 1.255 . S
O295 Fe287 1.997 . S
O295 C293 1.235 . S
C296 O302 1.287 . S
C296 O303 1.255 . S
O297 Fe286 1.976 . S
O297 C304 1.287 . S
O298 Fe287 1.996 . S
O298 C304 1.255 . S
O299 Fe289 1.976 . S
O299 C294 1.287 . S
O300 Fe286 1.996 . S
O300 C294 1.255 . S
C301 O305 1.295 . S
C301 O306 1.235 . S
O302 Fe287 1.976 . S
O302 C296 1.287 . S
O303 Fe289 1.996 . S
O303 C296 1.255 . S
C304 O297 1.287 . S
C304 O298 1.255 . S
O305 Fe287 2.002 . S
O305 C301 1.295 . S
O306 Fe289 1.997 . S
O306 C301 1.235 . S
C307 O290 1.295 . S
C307 O291 1.235 . S
Fe308 O310 1.918 . S
Fe308 O313 1.997 . S
Fe308 O314 2.002 . S
Fe308 O319 1.976 . S
Fe308 O322 1.996 . S
Fe309 O310 1.918 . S
Fe309 O317 1.997 . S
Fe309 O320 1.996 . S
Fe309 O324 1.976 . S
Fe309 O327 2.002 . S
O310 Fe308 1.918 . S
O310 Fe309 1.918 . S
O310 Fe311 1.918 . S
Fe311 O310 1.918 . S
Fe311 O312 2.002 . S
Fe311 O321 1.976 . S
Fe311 O325 1.996 . S
Fe311 O328 1.997 . S
O312 Fe311 2.002 . S
O312 C329 1.295 . S
O313 Fe308 1.997 . S
O313 C329 1.235 . S
O314 Fe308 2.002 . S
O314 C315 1.295 . S
C315 O314 1.295 . S
C315 O317 1.235 . S
C316 O321 1.287 . S
C316 O322 1.255 . S
O317 Fe309 1.997 . S
O317 C315 1.235 . S
C318 O324 1.287 . S
C318 O325 1.255 . S
O319 Fe308 1.976 . S
O319 C326 1.287 . S
O320 Fe309 1.996 . S
O320 C326 1.255 . S
O321 Fe311 1.976 . S
O321 C316 1.287 . S
O322 Fe308 1.996 . S
O322 C316 1.255 . S
C323 O327 1.295 . S
C323 O328 1.235 . S
O324 Fe309 1.976 . S
O324 C318 1.287 . S
O325 Fe311 1.996 . S
O325 C318 1.255 . S
C326 O319 1.287 . S
C326 O320 1.255 . S
O327 Fe309 2.002 . S
O327 C323 1.295 . S
O328 Fe311 1.997 . S
O328 C323 1.235 . S
C329 O312 1.295 . S
C329 O313 1.235 . S
Fe330 O332 1.918 . S
Fe330 O335 1.997 . S
Fe330 O336 2.002 . S
Fe330 O341 1.976 . S
Fe330 O344 1.996 . S
Fe331 O332 1.918 . S
Fe331 O339 1.997 . S
Fe331 O342 1.996 . S
Fe331 O346 1.976 . S
Fe331 O349 2.002 . S
O332 Fe330 1.918 . S
O332 Fe331 1.918 . S
O332 Fe333 1.918 . S
Fe333 O332 1.918 . S
Fe333 O334 2.002 . S
Fe333 O343 1.976 . S
Fe333 O347 1.996 . S
Fe333 O350 1.997 . S
O334 Fe333 2.002 . S
O334 C351 1.295 . S
O335 Fe330 1.997 . S
O335 C351 1.235 . S
O336 Fe330 2.002 . S
O336 C337 1.295 . S
C337 O336 1.295 . S
C337 O339 1.235 . S
C338 O343 1.287 . S
C338 O344 1.255 . S
O339 Fe331 1.997 . S
O339 C337 1.235 . S
C340 O346 1.287 . S
C340 O347 1.255 . S
O341 Fe330 1.976 . S
O341 C348 1.287 . S
O342 Fe331 1.996 . S
O342 C348 1.255 . S
O343 Fe333 1.976 . S
O343 C338 1.287 . S
O344 Fe330 1.996 . S
O344 C338 1.255 . S
C345 O349 1.295 . S
C345 O350 1.235 . S
O346 Fe331 1.976 . S
O346 C340 1.287 . S
O347 Fe333 1.996 . S
O347 C340 1.255 . S
C348 O341 1.287 . S
C348 O342 1.255 . S
O349 Fe331 2.002 . S
O349 C345 1.295 . S
O350 Fe333 1.997 . S
O350 C345 1.235 . S
C351 O334 1.295 . S
C351 O335 1.235 . S
Fe352 O354 1.918 . S
Fe352 O357 1.997 . S
Fe352 O358 2.002 . S
Fe352 O363 1.976 . S
Fe352 O366 1.996 . S
Fe353 O354 1.918 . S
Fe353 O361 1.997 . S
Fe353 O364 1.996 . S
Fe353 O368 1.976 . S
Fe353 O371 2.002 . S
O354 Fe352 1.918 . S
O354 Fe353 1.918 . S
O354 Fe355 1.918 . S
Fe355 O354 1.918 . S
Fe355 O356 2.002 . S
Fe355 O365 1.976 . S
Fe355 O369 1.996 . S
Fe355 O372 1.997 . S
O356 Fe355 2.002 . S
O356 C373 1.295 . S
O357 Fe352 1.997 . S
O357 C373 1.235 . S
O358 Fe352 2.002 . S
O358 C359 1.295 . S
C359 O358 1.295 . S
C359 O361 1.235 . S
C360 O365 1.287 . S
C360 O366 1.255 . S
O361 Fe353 1.997 . S
O361 C359 1.235 . S
C362 O368 1.287 . S
C362 O369 1.255 . S
O363 Fe352 1.976 . S
O363 C370 1.287 . S
O364 Fe353 1.996 . S
O364 C370 1.255 . S
O365 Fe355 1.976 . S
O365 C360 1.287 . S
O366 Fe352 1.996 . S
O366 C360 1.255 . S
C367 O371 1.295 . S
C367 O372 1.235 . S
O368 Fe353 1.976 . S
O368 C362 1.287 . S
O369 Fe355 1.996 . S
O369 C362 1.255 . S
C370 O363 1.287 . S
C370 O364 1.255 . S
O371 Fe353 2.002 . S
O371 C367 1.295 . S
O372 Fe355 1.997 . S
O372 C367 1.235 . S
C373 O356 1.295 . S
C373 O357 1.235 . S
Fe374 O376 1.918 . S
Fe374 O379 1.997 . S
Fe374 O380 2.002 . S
Fe374 O385 1.976 . S
Fe374 O388 1.996 . S
Fe375 O376 1.918 . S
Fe375 O383 1.997 . S
Fe375 O386 1.996 . S
Fe375 O390 1.976 . S
Fe375 O393 2.002 . S
O376 Fe374 1.918 . S
O376 Fe375 1.918 . S
O376 Fe377 1.918 . S
Fe377 O376 1.918 . S
Fe377 O378 2.002 . S
Fe377 O387 1.976 . S
Fe377 O391 1.996 . S
Fe377 O394 1.997 . S
O378 Fe377 2.002 . S
O378 C395 1.295 . S
O379 Fe374 1.997 . S
O379 C395 1.235 . S
O380 Fe374 2.002 . S
O380 C381 1.295 . S
C381 O380 1.295 . S
C381 O383 1.235 . S
C382 O387 1.287 . S
C382 O388 1.255 . S
O383 Fe375 1.997 . S
O383 C381 1.235 . S
C384 O390 1.287 . S
C384 O391 1.255 . S
O385 Fe374 1.976 . S
O385 C392 1.287 . S
O386 Fe375 1.996 . S
O386 C392 1.255 . S
O387 Fe377 1.976 . S
O387 C382 1.287 . S
O388 Fe374 1.996 . S
O388 C382 1.255 . S
C389 O393 1.295 . S
C389 O394 1.235 . S
O390 Fe375 1.976 . S
O390 C384 1.287 . S
O391 Fe377 1.996 . S
O391 C384 1.255 . S
C392 O385 1.287 . S
C392 O386 1.255 . S
O393 Fe375 2.002 . S
O393 C389 1.295 . S
O394 Fe377 1.997 . S
O394 C389 1.235 . S
C395 O378 1.295 . S
C395 O379 1.235 . S
Fe396 O398 1.918 . S
Fe396 O401 1.997 . S
Fe396 O402 2.002 . S
Fe396 O407 1.976 . S
Fe396 O410 1.996 . S
Fe397 O398 1.918 . S
Fe397 O405 1.997 . S
Fe397 O408 1.996 . S
Fe397 O412 1.976 . S
Fe397 O415 2.002 . S
O398 Fe396 1.918 . S
O398 Fe397 1.918 . S
O398 Fe399 1.918 . S
Fe399 O398 1.918 . S
Fe399 O400 2.002 . S
Fe399 O409 1.976 . S
Fe399 O413 1.996 . S
Fe399 O416 1.997 . S
O400 Fe399 2.002 . S
O400 C417 1.295 . S
O401 Fe396 1.997 . S
O401 C417 1.235 . S
O402 Fe396 2.002 . S
O402 C403 1.295 . S
C403 O402 1.295 . S
C403 O405 1.235 . S
C404 O409 1.287 . S
C404 O410 1.255 . S
O405 Fe397 1.997 . S
O405 C403 1.235 . S
C406 O412 1.287 . S
C406 O413 1.255 . S
O407 Fe396 1.976 . S
O407 C414 1.287 . S
O408 Fe397 1.996 . S
O408 C414 1.255 . S
O409 Fe399 1.976 . S
O409 C404 1.287 . S
O410 Fe396 1.996 . S
O410 C404 1.255 . S
C411 O415 1.295 . S
C411 O416 1.235 . S
O412 Fe397 1.976 . S
O412 C406 1.287 . S
O413 Fe399 1.996 . S
O413 C406 1.255 . S
C414 O407 1.287 . S
C414 O408 1.255 . S
O415 Fe397 2.002 . S
O415 C411 1.295 . S
O416 Fe399 1.997 . S
O416 C411 1.235 . S
C417 O400 1.295 . S
C417 O401 1.235 . S
Fe418 O420 1.918 . S
Fe418 O423 1.997 . S
Fe418 O424 2.002 . S
Fe418 O429 1.976 . S
Fe418 O432 1.996 . S
Fe419 O420 1.918 . S
Fe419 O427 1.997 . S
Fe419 O430 1.996 . S
Fe419 O434 1.976 . S
Fe419 O437 2.002 . S
O420 Fe418 1.918 . S
O420 Fe419 1.918 . S
O420 Fe421 1.918 . S
Fe421 O420 1.918 . S
Fe421 O422 2.002 . S
Fe421 O431 1.976 . S
Fe421 O435 1.996 . S
Fe421 O438 1.997 . S
O422 Fe421 2.002 . S
O422 C439 1.295 . S
O423 Fe418 1.997 . S
O423 C439 1.235 . S
O424 Fe418 2.002 . S
O424 C425 1.295 . S
C425 O424 1.295 . S
C425 O427 1.235 . S
C426 O431 1.287 . S
C426 O432 1.255 . S
O427 Fe419 1.997 . S
O427 C425 1.235 . S
C428 O434 1.287 . S
C428 O435 1.255 . S
O429 Fe418 1.976 . S
O429 C436 1.287 . S
O430 Fe419 1.996 . S
O430 C436 1.255 . S
O431 Fe421 1.976 . S
O431 C426 1.287 . S
O432 Fe418 1.996 . S
O432 C426 1.255 . S
C433 O437 1.295 . S
C433 O438 1.235 . S
O434 Fe419 1.976 . S
O434 C428 1.287 . S
O435 Fe421 1.996 . S
O435 C428 1.255 . S
C436 O429 1.287 . S
C436 O430 1.255 . S
O437 Fe419 2.002 . S
O437 C433 1.295 . S
O438 Fe421 1.997 . S
O438 C433 1.235 . S
C439 O422 1.295 . S
C439 O423 1.235 . S
Fe440 O442 1.918 . S
Fe440 O445 1.997 . S
Fe440 O446 2.002 . S
Fe440 O451 1.976 . S
Fe440 O454 1.996 . S
Fe441 O442 1.918 . S
Fe441 O449 1.997 . S
Fe441 O452 1.996 . S
Fe441 O456 1.976 . S
Fe441 O459 2.002 . S
O442 Fe440 1.918 . S
O442 Fe441 1.918 . S
O442 Fe443 1.918 . S
Fe443 O442 1.918 . S
Fe443 O444 2.002 . S
Fe443 O453 1.976 . S
Fe443 O457 1.996 . S
Fe443 O460 1.997 . S
O444 Fe443 2.002 . S
O444 C461 1.295 . S
O445 Fe440 1.997 . S
O445 C461 1.235 . S
O446 Fe440 2.002 . S
O446 C447 1.295 . S
C447 O446 1.295 . S
C447 O449 1.235 . S
C448 O453 1.287 . S
C448 O454 1.255 . S
O449 Fe441 1.997 . S
O449 C447 1.235 . S
C450 O456 1.287 . S
C450 O457 1.255 . S
O451 Fe440 1.976 . S
O451 C458 1.287 . S
O452 Fe441 1.996 . S
O452 C458 1.255 . S
O453 Fe443 1.976 . S
O453 C448 1.287 . S
O454 Fe440 1.996 . S
O454 C448 1.255 . S
C455 O459 1.295 . S
C455 O460 1.235 . S
O456 Fe441 1.976 . S
O456 C450 1.287 . S
O457 Fe443 1.996 . S
O457 C450 1.255 . S
C458 O451 1.287 . S
C458 O452 1.255 . S
O459 Fe441 2.002 . S
O459 C455 1.295 . S
O460 Fe443 1.997 . S
O460 C455 1.235 . S
C461 O444 1.295 . S
C461 O445 1.235 . S
Fe462 O464 1.918 . S
Fe462 O467 1.997 . S
Fe462 O468 2.002 . S
Fe462 O473 1.976 . S
Fe462 O476 1.996 . S
Fe463 O464 1.918 . S
Fe463 O471 1.997 . S
Fe463 O474 1.996 . S
Fe463 O478 1.976 . S
Fe463 O481 2.002 . S
O464 Fe462 1.918 . S
O464 Fe463 1.918 . S
O464 Fe465 1.918 . S
Fe465 O464 1.918 . S
Fe465 O466 2.002 . S
Fe465 O475 1.976 . S
Fe465 O479 1.996 . S
Fe465 O482 1.997 . S
O466 Fe465 2.002 . S
O466 C483 1.295 . S
O467 Fe462 1.997 . S
O467 C483 1.235 . S
O468 Fe462 2.002 . S
O468 C469 1.295 . S
C469 O468 1.295 . S
C469 O471 1.235 . S
C470 O475 1.287 . S
C470 O476 1.255 . S
O471 Fe463 1.997 . S
O471 C469 1.235 . S
C472 O478 1.287 . S
C472 O479 1.255 . S
O473 Fe462 1.976 . S
O473 C480 1.287 . S
O474 Fe463 1.996 . S
O474 C480 1.255 . S
O475 Fe465 1.976 . S
O475 C470 1.287 . S
O476 Fe462 1.996 . S
O476 C470 1.255 . S
C477 O481 1.295 . S
C477 O482 1.235 . S
O478 Fe463 1.976 . S
O478 C472 1.287 . S
O479 Fe465 1.996 . S
O479 C472 1.255 . S
C480 O473 1.287 . S
C480 O474 1.255 . S
O481 Fe463 2.002 . S
O481 C477 1.295 . S
O482 Fe465 1.997 . S
O482 C477 1.235 . S
C483 O466 1.295 . S
C483 O467 1.235 . S
Fe484 O486 1.918 . S
Fe484 O489 1.997 . S
Fe484 O490 2.002 . S
Fe484 O495 1.976 . S
Fe484 O498 1.996 . S
Fe485 O486 1.918 . S
Fe485 O493 1.997 . S
Fe485 O496 1.996 . S
Fe485 O500 1.976 . S
Fe485 O503 2.002 . S
O486 Fe484 1.918 . S
O486 Fe485 1.918 . S
O486 Fe487 1.918 . S
Fe487 O486 1.918 . S
Fe487 O488 2.002 . S
Fe487 O497 1.976 . S
Fe487 O501 1.996 . S
Fe487 O504 1.997 . S
O488 Fe487 2.002 . S
O488 C505 1.295 . S
O489 Fe484 1.997 . S
O489 C505 1.235 . S
O490 Fe484 2.002 . S
O490 C491 1.295 . S
C491 O490 1.295 . S
C491 O493 1.235 . S
C492 O497 1.287 . S
C492 O498 1.255 . S
O493 Fe485 1.997 . S
O493 C491 1.235 . S
C494 O500 1.287 . S
C494 O501 1.255 . S
O495 Fe484 1.976 . S
O495 C502 1.287 . S
O496 Fe485 1.996 . S
O496 C502 1.255 . S
O497 Fe487 1.976 . S
O497 C492 1.287 . S
O498 Fe484 1.996 . S
O498 C492 1.255 . S
C499 O503 1.295 . S
C499 O504 1.235 . S
O500 Fe485 1.976 . S
O500 C494 1.287 . S
O501 Fe487 1.996 . S
O501 C494 1.255 . S
C502 O495 1.287 . S
C502 O496 1.255 . S
O503 Fe485 2.002 . S
O503 C499 1.295 . S
O504 Fe487 1.997 . S
O504 C499 1.235 . S
C505 O488 1.295 . S
C505 O489 1.235 . S
Fe506 O508 1.918 . S
Fe506 O511 1.997 . S
Fe506 O512 2.002 . S
Fe506 O517 1.976 . S
Fe506 O520 1.996 . S
Fe507 O508 1.918 . S
Fe507 O515 1.997 . S
Fe507 O518 1.996 . S
Fe507 O522 1.976 . S
Fe507 O525 2.002 . S
O508 Fe506 1.918 . S
O508 Fe507 1.918 . S
O508 Fe509 1.918 . S
Fe509 O508 1.918 . S
Fe509 O510 2.002 . S
Fe509 O519 1.976 . S
Fe509 O523 1.996 . S
Fe509 O526 1.997 . S
O510 Fe509 2.002 . S
O510 C527 1.295 . S
O511 Fe506 1.997 . S
O511 C527 1.235 . S
O512 Fe506 2.002 . S
O512 C513 1.295 . S
C513 O512 1.295 . S
C513 O515 1.235 . S
C514 O519 1.287 . S
C514 O520 1.255 . S
O515 Fe507 1.997 . S
O515 C513 1.235 . S
C516 O522 1.287 . S
C516 O523 1.255 . S
O517 Fe506 1.976 . S
O517 C524 1.287 . S
O518 Fe507 1.996 . S
O518 C524 1.255 . S
O519 Fe509 1.976 . S
O519 C514 1.287 . S
O520 Fe506 1.996 . S
O520 C514 1.255 . S
C521 O525 1.295 . S
C521 O526 1.235 . S
O522 Fe507 1.976 . S
O522 C516 1.287 . S
O523 Fe509 1.996 . S
O523 C516 1.255 . S
C524 O517 1.287 . S
C524 O518 1.255 . S
O525 Fe507 2.002 . S
O525 C521 1.295 . S
O526 Fe509 1.997 . S
O526 C521 1.235 . S
C527 O510 1.295 . S
C527 O511 1.235 . S
C528 C529 1.363 . S
C528 C534 1.379 1_556 S
C528 N536 1.356 . S
C529 C528 1.363 . S
C529 C535 1.363 . S
C530 C531 1.363 . S
C530 C535 1.379 1_554 S
C530 N537 1.356 . S
C531 C530 1.363 . S
C531 C534 1.363 . S
N532 C534 1.356 . S
N532 H544 0.984 . S
N532 H545 0.985 . S
N533 C535 1.356 . S
N533 H538 0.984 . S
N533 H539 0.985 . S
C534 C528 1.379 1_554 S
C534 C531 1.363 . S
C534 N532 1.356 . S
C535 C529 1.363 . S
C535 C530 1.379 1_556 S
C535 N533 1.356 . S
N536 C528 1.356 . S
N536 H542 0.984 . S
N536 H543 0.984 . S
N537 C530 1.356 . S
N537 H540 0.984 . S
N537 H541 0.985 . S
H538 N533 0.984 . S
H539 N533 0.985 . S
H540 N537 0.984 . S
H541 N537 0.985 . S
H542 N536 0.984 . S
H543 N536 0.984 . S
H544 N532 0.984 . S
H545 N532 0.985 . S
C546 C547 1.363 . S
C546 C552 1.379 . S
C546 N554 1.356 . S
C547 C546 1.363 . S
C547 C553 1.363 . S
C548 C549 1.363 . S
C548 C553 1.379 . S
C548 N555 1.356 . S
C549 C548 1.363 . S
C549 C552 1.363 . S
N550 C552 1.356 . S
N550 H562 0.984 . S
N550 H563 0.985 . S
N551 C553 1.356 . S
N551 H556 0.984 . S
N551 H557 0.985 . S
C552 C546 1.379 . S
C552 C549 1.363 . S
C552 N550 1.356 . S
C553 C547 1.363 . S
C553 C548 1.379 . S
C553 N551 1.356 . S
N554 C546 1.356 . S
N554 H560 0.984 . S
N554 H561 0.984 . S
N555 C548 1.356 . S
N555 H558 0.984 . S
N555 H559 0.985 . S
H556 N551 0.984 . S
H557 N551 0.985 . S
H558 N555 0.984 . S
H559 N555 0.985 . S
H560 N554 0.984 . S
H561 N554 0.984 . S
H562 N550 0.984 . S
H563 N550 0.985 . S
C564 C565 1.363 . S
C564 C570 1.379 1_556 S
C564 N572 1.356 . S
C565 C564 1.363 . S
C565 C571 1.363 . S
C566 C567 1.363 . S
C566 C571 1.379 1_554 S
C566 N573 1.356 . S
C567 C566 1.363 . S
C567 C570 1.363 . S
N568 C570 1.356 . S
N568 H580 0.984 . S
N568 H581 0.985 . S
N569 C571 1.356 . S
N569 H574 0.984 . S
N569 H575 0.985 . S
C570 C564 1.379 1_554 S
C570 C567 1.363 . S
C570 N568 1.356 . S
C571 C565 1.363 . S
C571 C566 1.379 1_556 S
C571 N569 1.356 . S
N572 C564 1.356 . S
N572 H578 0.984 . S
N572 H579 0.984 . S
N573 C566 1.356 . S
N573 H576 0.984 . S
N573 H577 0.985 . S
H574 N569 0.984 . S
H575 N569 0.985 . S
H576 N573 0.984 . S
H577 N573 0.985 . S
H578 N572 0.984 . S
H579 N572 0.984 . S
H580 N568 0.984 . S
H581 N568 0.985 . S
C582 C583 1.363 . S
C582 C588 1.379 . S
C582 N590 1.356 . S
C583 C582 1.363 . S
C583 C589 1.363 . S
C584 C585 1.363 . S
C584 C589 1.379 . S
C584 N591 1.356 . S
C585 C584 1.363 . S
C585 C588 1.363 . S
N586 C588 1.356 . S
N586 H598 0.984 . S
N586 H599 0.985 . S
N587 C589 1.356 . S
N587 H592 0.984 . S
N587 H593 0.985 . S
C588 C582 1.379 . S
C588 C585 1.363 . S
C588 N586 1.356 . S
C589 C583 1.363 . S
C589 C584 1.379 . S
C589 N587 1.356 . S
N590 C582 1.356 . S
N590 H596 0.984 . S
N590 H597 0.984 . S
N591 C584 1.356 . S
N591 H594 0.984 . S
N591 H595 0.985 . S
H592 N587 0.984 . S
H593 N587 0.985 . S
H594 N591 0.984 . S
H595 N591 0.985 . S
H596 N590 0.984 . S
H597 N590 0.984 . S
H598 N586 0.984 . S
H599 N586 0.985 . S
C600 C601 1.363 . S
C600 C606 1.379 1_556 S
C600 N608 1.356 . S
C601 C600 1.363 . S
C601 C607 1.363 . S
C602 C603 1.363 . S
C602 C607 1.379 1_554 S
C602 N609 1.356 . S
C603 C602 1.363 . S
C603 C606 1.363 . S
N604 C606 1.356 . S
N604 H616 0.984 . S
N604 H617 0.985 . S
N605 C607 1.356 . S
N605 H610 0.984 . S
N605 H611 0.985 . S
C606 C600 1.379 1_554 S
C606 C603 1.363 . S
C606 N604 1.356 . S
C607 C601 1.363 . S
C607 C602 1.379 1_556 S
C607 N605 1.356 . S
N608 C600 1.356 . S
N608 H614 0.984 . S
N608 H615 0.984 . S
N609 C602 1.356 . S
N609 H612 0.984 . S
N609 H613 0.985 . S
H610 N605 0.984 . S
H611 N605 0.985 . S
H612 N609 0.984 . S
H613 N609 0.985 . S
H614 N608 0.984 . S
H615 N608 0.984 . S
H616 N604 0.984 . S
H617 N604 0.985 . S
C618 C619 1.363 . S
C618 C624 1.379 . S
C618 N626 1.356 . S
C619 C618 1.363 . S
C619 C625 1.363 . S
C620 C621 1.363 . S
C620 C625 1.379 . S
C620 N627 1.356 . S
C621 C620 1.363 . S
C621 C624 1.363 . S
N622 C624 1.356 . S
N622 H634 0.984 . S
N622 H635 0.985 . S
N623 C625 1.356 . S
N623 H628 0.984 . S
N623 H629 0.985 . S
C624 C618 1.379 . S
C624 C621 1.363 . S
C624 N622 1.356 . S
C625 C619 1.363 . S
C625 C620 1.379 . S
C625 N623 1.356 . S
N626 C618 1.356 . S
N626 H632 0.984 . S
N626 H633 0.984 . S
N627 C620 1.356 . S
N627 H630 0.984 . S
N627 H631 0.985 . S
H628 N623 0.984 . S
H629 N623 0.985 . S
H630 N627 0.984 . S
H631 N627 0.985 . S
H632 N626 0.984 . S
H633 N626 0.984 . S
H634 N622 0.984 . S
H635 N622 0.985 . S
C636 C637 1.363 . S
C636 C642 1.379 1_556 S
C636 N644 1.356 . S
C637 C636 1.363 . S
C637 C643 1.363 . S
C638 C639 1.363 . S
C638 C643 1.379 1_554 S
C638 N645 1.356 . S
C639 C638 1.363 . S
C639 C642 1.363 . S
N640 C642 1.356 . S
N640 H652 0.984 . S
N640 H653 0.985 . S
N641 C643 1.356 . S
N641 H646 0.984 . S
N641 H647 0.985 . S
C642 C636 1.379 1_554 S
C642 C639 1.363 . S
C642 N640 1.356 . S
C643 C637 1.363 . S
C643 C638 1.379 1_556 S
C643 N641 1.356 . S
N644 C636 1.356 . S
N644 H650 0.984 . S
N644 H651 0.984 . S
N645 C638 1.356 . S
N645 H648 0.984 . S
N645 H649 0.985 . S
H646 N641 0.984 . S
H647 N641 0.985 . S
H648 N645 0.984 . S
H649 N645 0.985 . S
H650 N644 0.984 . S
H651 N644 0.984 . S
H652 N640 0.984 . S
H653 N640 0.985 . S
C654 C655 1.363 . S
C654 C660 1.379 . S
C654 N662 1.356 . S
C655 C654 1.363 . S
C655 C661 1.363 . S
C656 C657 1.363 . S
C656 C661 1.379 . S
C656 N663 1.356 . S
C657 C656 1.363 . S
C657 C660 1.363 . S
N658 C660 1.356 . S
N658 H670 0.984 . S
N658 H671 0.985 . S
N659 C661 1.356 . S
N659 H664 0.984 . S
N659 H665 0.985 . S
C660 C654 1.379 . S
C660 C657 1.363 . S
C660 N658 1.356 . S
C661 C655 1.363 . S
C661 C656 1.379 . S
C661 N659 1.356 . S
N662 C654 1.356 . S
N662 H668 0.984 . S
N662 H669 0.984 . S
N663 C656 1.356 . S
N663 H666 0.984 . S
N663 H667 0.985 . S
H664 N659 0.984 . S
H665 N659 0.985 . S
H666 N663 0.984 . S
H667 N663 0.985 . S
H668 N662 0.984 . S
H669 N662 0.984 . S
H670 N658 0.984 . S
H671 N658 0.985 . S
C672 C673 1.363 . S
C672 C678 1.379 1_554 S
C672 N680 1.356 . S
C673 C672 1.363 . S
C673 C679 1.363 . S
C674 C675 1.363 . S
C674 C679 1.379 1_556 S
C674 N681 1.356 . S
C675 C674 1.363 . S
C675 C678 1.363 . S
N676 C678 1.356 . S
N676 H688 0.984 . S
N676 H689 0.985 . S
N677 C679 1.356 . S
N677 H682 0.984 . S
N677 H683 0.985 . S
C678 C672 1.379 1_556 S
C678 C675 1.363 . S
C678 N676 1.356 . S
C679 C673 1.363 . S
C679 C674 1.379 1_554 S
C679 N677 1.356 . S
N680 C672 1.356 . S
N680 H686 0.984 . S
N680 H687 0.984 . S
N681 C674 1.356 . S
N681 H684 0.984 . S
N681 H685 0.985 . S
H682 N677 0.984 . S
H683 N677 0.985 . S
H684 N681 0.984 . S
H685 N681 0.985 . S
H686 N680 0.984 . S
H687 N680 0.984 . S
H688 N676 0.984 . S
H689 N676 0.985 . S
C690 C691 1.363 . S
C690 C696 1.379 . S
C690 N698 1.356 . S
C691 C690 1.363 . S
C691 C697 1.363 . S
C692 C693 1.363 . S
C692 C697 1.379 . S
C692 N699 1.356 . S
C693 C692 1.363 . S
C693 C696 1.363 . S
N694 C696 1.356 . S
N694 H706 0.984 . S
N694 H707 0.985 . S
N695 C697 1.356 . S
N695 H700 0.984 . S
N695 H701 0.985 . S
C696 C690 1.379 . S
C696 C693 1.363 . S
C696 N694 1.356 . S
C697 C691 1.363 . S
C697 C692 1.379 . S
C697 N695 1.356 . S
N698 C690 1.356 . S
N698 H704 0.984 . S
N698 H705 0.984 . S
N699 C692 1.356 . S
N699 H702 0.984 . S
N699 H703 0.985 . S
H700 N695 0.984 . S
H701 N695 0.985 . S
H702 N699 0.984 . S
H703 N699 0.985 . S
H704 N698 0.984 . S
H705 N698 0.984 . S
H706 N694 0.984 . S
H707 N694 0.985 . S
C708 C709 1.363 . S
C708 C714 1.379 1_556 S
C708 N716 1.356 . S
C709 C708 1.363 . S
C709 C715 1.363 . S
C710 C711 1.363 . S
C710 C715 1.379 1_554 S
C710 N717 1.356 . S
C711 C710 1.363 . S
C711 C714 1.363 . S
N712 C714 1.356 . S
N712 H724 0.984 . S
N712 H725 0.985 . S
N713 C715 1.356 . S
N713 H718 0.984 . S
N713 H719 0.985 . S
C714 C708 1.379 1_554 S
C714 C711 1.363 . S
C714 N712 1.356 . S
C715 C709 1.363 . S
C715 C710 1.379 1_556 S
C715 N713 1.356 . S
N716 C708 1.356 . S
N716 H722 0.984 . S
N716 H723 0.984 . S
N717 C710 1.356 . S
N717 H720 0.984 . S
N717 H721 0.985 . S
H718 N713 0.984 . S
H719 N713 0.985 . S
H720 N717 0.984 . S
H721 N717 0.985 . S
H722 N716 0.984 . S
H723 N716 0.984 . S
H724 N712 0.984 . S
H725 N712 0.985 . S
C726 C727 1.363 . S
C726 C732 1.379 . S
C726 N734 1.356 . S
C727 C726 1.363 . S
C727 C733 1.363 . S
C728 C729 1.363 . S
C728 C733 1.379 . S
C728 N735 1.356 . S
C729 C728 1.363 . S
C729 C732 1.363 . S
N730 C732 1.356 . S
N730 H742 0.984 . S
N730 H743 0.985 . S
N731 C733 1.356 . S
N731 H736 0.984 . S
N731 H737 0.985 . S
C732 C726 1.379 . S
C732 C729 1.363 . S
C732 N730 1.356 . S
C733 C727 1.363 . S
C733 C728 1.379 . S
C733 N731 1.356 . S
N734 C726 1.356 . S
N734 H740 0.984 . S
N734 H741 0.984 . S
N735 C728 1.356 . S
N735 H738 0.984 . S
N735 H739 0.985 . S
H736 N731 0.984 . S
H737 N731 0.985 . S
H738 N735 0.984 . S
H739 N735 0.985 . S
H740 N734 0.984 . S
H741 N734 0.984 . S
H742 N730 0.984 . S
H743 N730 0.985 . S
C744 C745 1.363 . S
C744 C750 1.379 . S
C744 N752 1.356 . S
C745 C744 1.363 . S
C745 C751 1.363 . S
C746 C747 1.363 . S
C746 C751 1.379 . S
C746 N753 1.356 . S
C747 C746 1.363 . S
C747 C750 1.363 . S
N748 C750 1.356 . S
N748 H760 0.984 . S
N748 H761 0.985 . S
N749 C751 1.356 . S
N749 H754 0.984 . S
N749 H755 0.985 . S
C750 C744 1.379 . S
C750 C747 1.363 . S
C750 N748 1.356 . S
C751 C745 1.363 . S
C751 C746 1.379 . S
C751 N749 1.356 . S
N752 C744 1.356 . S
N752 H758 0.984 . S
N752 H759 0.984 . S
N753 C746 1.356 . S
N753 H756 0.984 . S
N753 H757 0.985 . S
H754 N749 0.984 . S
H755 N749 0.985 . S
H756 N753 0.984 . S
H757 N753 0.985 . S
H758 N752 0.984 . S
H759 N752 0.984 . S
H760 N748 0.984 . S
H761 N748 0.985 . S
C762 C763 1.363 . S
C762 C768 1.379 . S
C762 N770 1.356 . S
C763 C762 1.363 . S
C763 C769 1.363 . S
C764 C765 1.363 . S
C764 C769 1.379 . S
C764 N771 1.356 . S
C765 C764 1.363 . S
C765 C768 1.363 . S
N766 C768 1.356 . S
N766 H778 0.984 . S
N766 H779 0.985 . S
N767 C769 1.356 . S
N767 H772 0.984 . S
N767 H773 0.985 . S
C768 C762 1.379 . S
C768 C765 1.363 . S
C768 N766 1.356 . S
C769 C763 1.363 . S
C769 C764 1.379 . S
C769 N767 1.356 . S
N770 C762 1.356 . S
N770 H776 0.984 . S
N770 H777 0.984 . S
N771 C764 1.356 . S
N771 H774 0.984 . S
N771 H775 0.985 . S
H772 N767 0.984 . S
H773 N767 0.985 . S
H774 N771 0.984 . S
H775 N771 0.985 . S
H776 N770 0.984 . S
H777 N770 0.984 . S
H778 N766 0.984 . S
H779 N766 0.985 . S
C780 C781 1.363 . S
C780 C786 1.379 . S
C780 N788 1.356 . S
C781 C780 1.363 . S
C781 C787 1.363 . S
C782 C783 1.363 . S
C782 C787 1.379 . S
C782 N789 1.356 . S
C783 C782 1.363 . S
C783 C786 1.363 . S
N784 C786 1.356 . S
N784 H796 0.984 . S
N784 H797 0.985 . S
N785 C787 1.356 . S
N785 H790 0.984 . S
N785 H791 0.985 . S
C786 C780 1.379 . S
C786 C783 1.363 . S
C786 N784 1.356 . S
C787 C781 1.363 . S
C787 C782 1.379 . S
C787 N785 1.356 . S
N788 C780 1.356 . S
N788 H794 0.984 . S
N788 H795 0.984 . S
N789 C782 1.356 . S
N789 H792 0.984 . S
N789 H793 0.985 . S
H790 N785 0.984 . S
H791 N785 0.985 . S
H792 N789 0.984 . S
H793 N789 0.985 . S
H794 N788 0.984 . S
H795 N788 0.984 . S
H796 N784 0.984 . S
H797 N784 0.985 . S
C798 C799 1.363 . S
C798 C804 1.379 . S
C798 N806 1.356 . S
C799 C798 1.363 . S
C799 C805 1.363 . S
C800 C801 1.363 . S
C800 C805 1.379 . S
C800 N807 1.356 . S
C801 C800 1.363 . S
C801 C804 1.363 . S
N802 C804 1.356 . S
N802 H814 0.984 . S
N802 H815 0.985 . S
N803 C805 1.356 . S
N803 H808 0.984 . S
N803 H809 0.985 . S
C804 C798 1.379 . S
C804 C801 1.363 . S
C804 N802 1.356 . S
C805 C799 1.363 . S
C805 C800 1.379 . S
C805 N803 1.356 . S
N806 C798 1.356 . S
N806 H812 0.984 . S
N806 H813 0.984 . S
N807 C800 1.356 . S
N807 H810 0.984 . S
N807 H811 0.985 . S
H808 N803 0.984 . S
H809 N803 0.985 . S
H810 N807 0.984 . S
H811 N807 0.985 . S
H812 N806 0.984 . S
H813 N806 0.984 . S
H814 N802 0.984 . S
H815 N802 0.985 . S
C816 C817 1.363 . S
C816 C822 1.379 . S
C816 N824 1.356 . S
C817 C816 1.363 . S
C817 C823 1.363 . S
C818 C819 1.363 . S
C818 C823 1.379 . S
C818 N825 1.356 . S
C819 C818 1.363 . S
C819 C822 1.363 . S
N820 C822 1.356 . S
N820 H832 0.984 . S
N820 H833 0.985 . S
N821 C823 1.356 . S
N821 H826 0.984 . S
N821 H827 0.985 . S
C822 C816 1.379 . S
C822 C819 1.363 . S
C822 N820 1.356 . S
C823 C817 1.363 . S
C823 C818 1.379 . S
C823 N821 1.356 . S
N824 C816 1.356 . S
N824 H830 0.984 . S
N824 H831 0.984 . S
N825 C818 1.356 . S
N825 H828 0.984 . S
N825 H829 0.985 . S
H826 N821 0.984 . S
H827 N821 0.985 . S
H828 N825 0.984 . S
H829 N825 0.985 . S
H830 N824 0.984 . S
H831 N824 0.984 . S
H832 N820 0.984 . S
H833 N820 0.985 . S
C834 C835 1.363 . S
C834 C840 1.379 . S
C834 N842 1.356 . S
C835 C834 1.363 . S
C835 C841 1.363 . S
C836 C837 1.363 . S
C836 C841 1.379 . S
C836 N843 1.356 . S
C837 C836 1.363 . S
C837 C840 1.363 . S
N838 C840 1.356 . S
N838 H850 0.984 . S
N838 H851 0.985 . S
N839 C841 1.356 . S
N839 H844 0.984 . S
N839 H845 0.985 . S
C840 C834 1.379 . S
C840 C837 1.363 . S
C840 N838 1.356 . S
C841 C835 1.363 . S
C841 C836 1.379 . S
C841 N839 1.356 . S
N842 C834 1.356 . S
N842 H848 0.984 . S
N842 H849 0.984 . S
N843 C836 1.356 . S
N843 H846 0.984 . S
N843 H847 0.985 . S
H844 N839 0.984 . S
H845 N839 0.985 . S
H846 N843 0.984 . S
H847 N843 0.985 . S
H848 N842 0.984 . S
H849 N842 0.984 . S
H850 N838 0.984 . S
H851 N838 0.985 . S
C852 C853 1.363 . S
C852 C858 1.379 . S
C852 N860 1.356 . S
C853 C852 1.363 . S
C853 C859 1.363 . S
C854 C855 1.363 . S
C854 C859 1.379 . S
C854 N861 1.356 . S
C855 C854 1.363 . S
C855 C858 1.363 . S
N856 C858 1.356 . S
N856 H868 0.984 . S
N856 H869 0.985 . S
N857 C859 1.356 . S
N857 H862 0.984 . S
N857 H863 0.985 . S
C858 C852 1.379 . S
C858 C855 1.363 . S
C858 N856 1.356 . S
C859 C853 1.363 . S
C859 C854 1.379 . S
C859 N857 1.356 . S
N860 C852 1.356 . S
N860 H866 0.984 . S
N860 H867 0.984 . S
N861 C854 1.356 . S
N861 H864 0.984 . S
N861 H865 0.985 . S
H862 N857 0.984 . S
H863 N857 0.985 . S
H864 N861 0.984 . S
H865 N861 0.985 . S
H866 N860 0.984 . S
H867 N860 0.984 . S
H868 N856 0.984 . S
H869 N856 0.985 . S
C870 C871 1.363 . S
C870 C876 1.379 . S
C870 N878 1.356 . S
C871 C870 1.363 . S
C871 C877 1.363 . S
C872 C873 1.363 . S
C872 C877 1.379 . S
C872 N879 1.356 . S
C873 C872 1.363 . S
C873 C876 1.363 . S
N874 C876 1.356 . S
N874 H886 0.984 . S
N874 H887 0.985 . S
N875 C877 1.356 . S
N875 H880 0.984 . S
N875 H881 0.985 . S
C876 C870 1.379 . S
C876 C873 1.363 . S
C876 N874 1.356 . S
C877 C871 1.363 . S
C877 C872 1.379 . S
C877 N875 1.356 . S
N878 C870 1.356 . S
N878 H884 0.984 . S
N878 H885 0.984 . S
N879 C872 1.356 . S
N879 H882 0.984 . S
N879 H883 0.985 . S
H880 N875 0.984 . S
H881 N875 0.985 . S
H882 N879 0.984 . S
H883 N879 0.985 . S
H884 N878 0.984 . S
H885 N878 0.984 . S
H886 N874 0.984 . S
H887 N874 0.985 . S
C888 C889 1.363 . S
C888 C894 1.379 . S
C888 N896 1.356 . S
C889 C888 1.363 . S
C889 C895 1.363 . S
C890 C891 1.363 . S
C890 C895 1.379 . S
C890 N897 1.356 . S
C891 C890 1.363 . S
C891 C894 1.363 . S
N892 C894 1.356 . S
N892 H904 0.984 . S
N892 H905 0.985 . S
N893 C895 1.356 . S
N893 H898 0.984 . S
N893 H899 0.985 . S
C894 C888 1.379 . S
C894 C891 1.363 . S
C894 N892 1.356 . S
C895 C889 1.363 . S
C895 C890 1.379 . S
C895 N893 1.356 . S
N896 C888 1.356 . S
N896 H902 0.984 . S
N896 H903 0.984 . S
N897 C890 1.356 . S
N897 H900 0.984 . S
N897 H901 0.985 . S
H898 N893 0.984 . S
H899 N893 0.985 . S
H900 N897 0.984 . S
H901 N897 0.985 . S
H902 N896 0.984 . S
H903 N896 0.984 . S
H904 N892 0.984 . S
H905 N892 0.985 . S
C906 C907 1.363 . S
C906 C912 1.379 . S
C906 N914 1.356 . S
C907 C906 1.363 . S
C907 C913 1.363 . S
C908 C909 1.363 . S
C908 C913 1.379 . S
C908 N915 1.356 . S
C909 C908 1.363 . S
C909 C912 1.363 . S
N910 C912 1.356 . S
N910 H922 0.984 . S
N910 H923 0.985 . S
N911 C913 1.356 . S
N911 H916 0.984 . S
N911 H917 0.985 . S
C912 C906 1.379 . S
C912 C909 1.363 . S
C912 N910 1.356 . S
C913 C907 1.363 . S
C913 C908 1.379 . S
C913 N911 1.356 . S
N914 C906 1.356 . S
N914 H920 0.984 . S
N914 H921 0.984 . S
N915 C908 1.356 . S
N915 H918 0.984 . S
N915 H919 0.985 . S
H916 N911 0.984 . S
H917 N911 0.985 . S
H918 N915 0.984 . S
H919 N915 0.985 . S
H920 N914 0.984 . S
H921 N914 0.984 . S
H922 N910 0.984 . S
H923 N910 0.985 . S
C924 C925 1.363 . S
C924 C930 1.379 . S
C924 N932 1.356 . S
C925 C924 1.363 . S
C925 C931 1.363 . S
C926 C927 1.363 . S
C926 C931 1.379 . S
C926 N933 1.356 . S
C927 C926 1.363 . S
C927 C930 1.363 . S
N928 C930 1.356 . S
N928 H940 0.984 . S
N928 H941 0.985 . S
N929 C931 1.356 . S
N929 H934 0.984 . S
N929 H935 0.985 . S
C930 C924 1.379 . S
C930 C927 1.363 . S
C930 N928 1.356 . S
C931 C925 1.363 . S
C931 C926 1.379 . S
C931 N929 1.356 . S
N932 C924 1.356 . S
N932 H938 0.984 . S
N932 H939 0.984 . S
N933 C926 1.356 . S
N933 H936 0.984 . S
N933 H937 0.985 . S
H934 N929 0.984 . S
H935 N929 0.985 . S
H936 N933 0.984 . S
H937 N933 0.985 . S
H938 N932 0.984 . S
H939 N932 0.984 . S
H940 N928 0.984 . S
H941 N928 0.985 . S
C942 C943 1.363 . S
C942 C948 1.379 . S
C942 N950 1.356 . S
C943 C942 1.363 . S
C943 C949 1.363 . S
C944 C945 1.363 . S
C944 C949 1.379 . S
C944 N951 1.356 . S
C945 C944 1.363 . S
C945 C948 1.363 . S
N946 C948 1.356 . S
N946 H958 0.984 . S
N946 H959 0.985 . S
N947 C949 1.356 . S
N947 H952 0.984 . S
N947 H953 0.985 . S
C948 C942 1.379 . S
C948 C945 1.363 . S
C948 N946 1.356 . S
C949 C943 1.363 . S
C949 C944 1.379 . S
C949 N947 1.356 . S
N950 C942 1.356 . S
N950 H956 0.984 . S
N950 H957 0.984 . S
N951 C944 1.356 . S
N951 H954 0.984 . S
N951 H955 0.985 . S
H952 N947 0.984 . S
H953 N947 0.985 . S
H954 N951 0.984 . S
H955 N951 0.985 . S
H956 N950 0.984 . S
H957 N950 0.984 . S
H958 N946 0.984 . S
H959 N946 0.985 . S
C960 C961 1.363 . S
C960 C966 1.379 . S
C960 N968 1.356 . S
C961 C960 1.363 . S
C961 C967 1.363 . S
C962 C963 1.363 . S
C962 C967 1.379 . S
C962 N969 1.356 . S
C963 C962 1.363 . S
C963 C966 1.363 . S
N964 C966 1.356 . S
N964 H976 0.984 . S
N964 H977 0.985 . S
N965 C967 1.356 . S
N965 H970 0.984 . S
N965 H971 0.985 . S
C966 C960 1.379 . S
C966 C963 1.363 . S
C966 N964 1.356 . S
C967 C961 1.363 . S
C967 C962 1.379 . S
C967 N965 1.356 . S
N968 C960 1.356 . S
N968 H974 0.984 . S
N968 H975 0.984 . S
N969 C962 1.356 . S
N969 H972 0.984 . S
N969 H973 0.985 . S
H970 N965 0.984 . S
H971 N965 0.985 . S
H972 N969 0.984 . S
H973 N969 0.985 . S
H974 N968 0.984 . S
H975 N968 0.984 . S
H976 N964 0.984 . S
H977 N964 0.985 . S
C978 C979 1.363 . S
C978 C984 1.379 . S
C978 N986 1.356 . S
C979 C978 1.363 . S
C979 C985 1.363 . S
C980 C981 1.363 . S
C980 C985 1.379 . S
C980 N987 1.356 . S
C981 C980 1.363 . S
C981 C984 1.363 . S
N982 C984 1.356 . S
N982 H994 0.984 . S
N982 H995 0.985 . S
N983 C985 1.356 . S
N983 H988 0.984 . S
N983 H989 0.985 . S
C984 C978 1.379 . S
C984 C981 1.363 . S
C984 N982 1.356 . S
C985 C979 1.363 . S
C985 C980 1.379 . S
C985 N983 1.356 . S
N986 C978 1.356 . S
N986 H992 0.984 . S
N986 H993 0.984 . S
N987 C980 1.356 . S
N987 H990 0.984 . S
N987 H991 0.985 . S
H988 N983 0.984 . S
H989 N983 0.985 . S
H990 N987 0.984 . S
H991 N987 0.985 . S
H992 N986 0.984 . S
H993 N986 0.984 . S
H994 N982 0.984 . S
H995 N982 0.985 . S
C996 C997 1.363 . S
C996 C1002 1.379 . S
C996 N1004 1.356 . S
C997 C996 1.363 . S
C997 C1003 1.363 . S
C998 C999 1.363 . S
C998 C1003 1.379 . S
C998 N1005 1.356 . S
C999 C998 1.363 . S
C999 C1002 1.363 . S
N1000 C1002 1.356 . S
N1000 H1012 0.984 . S
N1000 H1013 0.985 . S
N1001 C1003 1.356 . S
N1001 H1006 0.984 . S
N1001 H1007 0.985 . S
C1002 C996 1.379 . S
C1002 C999 1.363 . S
C1002 N1000 1.356 . S
C1003 C997 1.363 . S
C1003 C998 1.379 . S
C1003 N1001 1.356 . S
N1004 C996 1.356 . S
N1004 H1010 0.984 . S
N1004 H1011 0.984 . S
N1005 C998 1.356 . S
N1005 H1008 0.984 . S
N1005 H1009 0.985 . S
H1006 N1001 0.984 . S
H1007 N1001 0.985 . S
H1008 N1005 0.984 . S
H1009 N1005 0.985 . S
H1010 N1004 0.984 . S
H1011 N1004 0.984 . S
H1012 N1000 0.984 . S
H1013 N1000 0.985 . S
C1014 C1015 1.363 . S
C1014 C1020 1.379 . S
C1014 N1022 1.356 . S
C1015 C1014 1.363 . S
C1015 C1021 1.363 . S
C1016 C1017 1.363 . S
C1016 C1021 1.379 . S
C1016 N1023 1.356 . S
C1017 C1016 1.363 . S
C1017 C1020 1.363 . S
N1018 C1020 1.356 . S
N1018 H1030 0.984 . S
N1018 H1031 0.985 . S
N1019 C1021 1.356 . S
N1019 H1024 0.984 . S
N1019 H1025 0.985 . S
C1020 C1014 1.379 . S
C1020 C1017 1.363 . S
C1020 N1018 1.356 . S
C1021 C1015 1.363 . S
C1021 C1016 1.379 . S
C1021 N1019 1.356 . S
N1022 C1014 1.356 . S
N1022 H1028 0.984 . S
N1022 H1029 0.984 . S
N1023 C1016 1.356 . S
N1023 H1026 0.984 . S
N1023 H1027 0.985 . S
H1024 N1019 0.984 . S
H1025 N1019 0.985 . S
H1026 N1023 0.984 . S
H1027 N1023 0.985 . S
H1028 N1022 0.984 . S
H1029 N1022 0.984 . S
H1030 N1018 0.984 . S
H1031 N1018 0.985 . S
C1032 C1033 1.363 . S
C1032 C1038 1.379 . S
C1032 N1040 1.356 . S
C1033 C1032 1.363 . S
C1033 C1039 1.363 . S
C1034 C1035 1.363 . S
C1034 C1039 1.379 . S
C1034 N1041 1.356 . S
C1035 C1034 1.363 . S
C1035 C1038 1.363 . S
N1036 C1038 1.356 . S
N1036 H1048 0.984 . S
N1036 H1049 0.985 . S
N1037 C1039 1.356 . S
N1037 H1042 0.984 . S
N1037 H1043 0.985 . S
C1038 C1032 1.379 . S
C1038 C1035 1.363 . S
C1038 N1036 1.356 . S
C1039 C1033 1.363 . S
C1039 C1034 1.379 . S
C1039 N1037 1.356 . S
N1040 C1032 1.356 . S
N1040 H1046 0.984 . S
N1040 H1047 0.984 . S
N1041 C1034 1.356 . S
N1041 H1044 0.984 . S
N1041 H1045 0.985 . S
H1042 N1037 0.984 . S
H1043 N1037 0.985 . S
H1044 N1041 0.984 . S
H1045 N1041 0.985 . S
H1046 N1040 0.984 . S
H1047 N1040 0.984 . S
H1048 N1036 0.984 . S
H1049 N1036 0.985 . S
C1050 C1051 1.363 . S
C1050 C1056 1.379 . S
C1050 N1058 1.356 . S
C1051 C1050 1.363 . S
C1051 C1057 1.363 . S
C1052 C1053 1.363 . S
C1052 C1057 1.379 . S
C1052 N1059 1.356 . S
C1053 C1052 1.363 . S
C1053 C1056 1.363 . S
N1054 C1056 1.356 . S
N1054 H1066 0.984 . S
N1054 H1067 0.985 . S
N1055 C1057 1.356 . S
N1055 H1060 0.984 . S
N1055 H1061 0.985 . S
C1056 C1050 1.379 . S
C1056 C1053 1.363 . S
C1056 N1054 1.356 . S
C1057 C1051 1.363 . S
C1057 C1052 1.379 . S
C1057 N1055 1.356 . S
N1058 C1050 1.356 . S
N1058 H1064 0.984 . S
N1058 H1065 0.984 . S
N1059 C1052 1.356 . S
N1059 H1062 0.984 . S
N1059 H1063 0.985 . S
H1060 N1055 0.984 . S
H1061 N1055 0.985 . S
H1062 N1059 0.984 . S
H1063 N1059 0.985 . S
H1064 N1058 0.984 . S
H1065 N1058 0.984 . S
H1066 N1054 0.984 . S
H1067 N1054 0.985 . S
C1068 C1069 1.363 . S
C1068 C1074 1.379 . S
C1068 N1076 1.356 . S
C1069 C1068 1.363 . S
C1069 C1075 1.363 . S
C1070 C1071 1.363 . S
C1070 C1075 1.379 . S
C1070 N1077 1.356 . S
C1071 C1070 1.363 . S
C1071 C1074 1.363 . S
N1072 C1074 1.356 . S
N1072 H1084 0.984 . S
N1072 H1085 0.985 . S
N1073 C1075 1.356 . S
N1073 H1078 0.984 . S
N1073 H1079 0.985 . S
C1074 C1068 1.379 . S
C1074 C1071 1.363 . S
C1074 N1072 1.356 . S
C1075 C1069 1.363 . S
C1075 C1070 1.379 . S
C1075 N1073 1.356 . S
N1076 C1068 1.356 . S
N1076 H1082 0.984 . S
N1076 H1083 0.984 . S
N1077 C1070 1.356 . S
N1077 H1080 0.984 . S
N1077 H1081 0.985 . S
H1078 N1073 0.984 . S
H1079 N1073 0.985 . S
H1080 N1077 0.984 . S
H1081 N1077 0.985 . S
H1082 N1076 0.984 . S
H1083 N1076 0.984 . S
H1084 N1072 0.984 . S
H1085 N1072 0.985 . S
C1086 C1087 1.363 . S
C1086 C1092 1.379 . S
C1086 N1094 1.356 . S
C1087 C1086 1.363 . S
C1087 C1093 1.363 . S
C1088 C1089 1.363 . S
C1088 C1093 1.379 . S
C1088 N1095 1.356 . S
C1089 C1088 1.363 . S
C1089 C1092 1.363 . S
N1090 C1092 1.356 . S
N1090 H1102 0.984 . S
N1090 H1103 0.985 . S
N1091 C1093 1.356 . S
N1091 H1096 0.984 . S
N1091 H1097 0.985 . S
C1092 C1086 1.379 . S
C1092 C1089 1.363 . S
C1092 N1090 1.356 . S
C1093 C1087 1.363 . S
C1093 C1088 1.379 . S
C1093 N1091 1.356 . S
N1094 C1086 1.356 . S
N1094 H1100 0.984 . S
N1094 H1101 0.984 . S
N1095 C1088 1.356 . S
N1095 H1098 0.984 . S
N1095 H1099 0.985 . S
H1096 N1091 0.984 . S
H1097 N1091 0.985 . S
H1098 N1095 0.984 . S
H1099 N1095 0.985 . S
H1100 N1094 0.984 . S
H1101 N1094 0.984 . S
H1102 N1090 0.984 . S
H1103 N1090 0.985 . S
C1104 C1105 1.363 . S
C1104 C1110 1.379 . S
C1104 N1112 1.356 . S
C1105 C1104 1.363 . S
C1105 C1111 1.363 . S
C1106 C1107 1.363 . S
C1106 C1111 1.379 . S
C1106 N1113 1.356 . S
C1107 C1106 1.363 . S
C1107 C1110 1.363 . S
N1108 C1110 1.356 . S
N1108 H1120 0.984 . S
N1108 H1121 0.985 . S
N1109 C1111 1.356 . S
N1109 H1114 0.984 . S
N1109 H1115 0.985 . S
C1110 C1104 1.379 . S
C1110 C1107 1.363 . S
C1110 N1108 1.356 . S
C1111 C1105 1.363 . S
C1111 C1106 1.379 . S
C1111 N1109 1.356 . S
N1112 C1104 1.356 . S
N1112 H1118 0.984 . S
N1112 H1119 0.984 . S
N1113 C1106 1.356 . S
N1113 H1116 0.984 . S
N1113 H1117 0.985 . S
H1114 N1109 0.984 . S
H1115 N1109 0.985 . S
H1116 N1113 0.984 . S
H1117 N1113 0.985 . S
H1118 N1112 0.984 . S
H1119 N1112 0.984 . S
H1120 N1108 0.984 . S
H1121 N1108 0.985 . S
C1122 C1123 1.363 . S
C1122 C1128 1.379 . S
C1122 N1130 1.356 . S
C1123 C1122 1.363 . S
C1123 C1129 1.363 . S
C1124 C1125 1.363 . S
C1124 C1129 1.379 . S
C1124 N1131 1.356 . S
C1125 C1124 1.363 . S
C1125 C1128 1.363 . S
N1126 C1128 1.356 . S
N1126 H1138 0.984 . S
N1126 H1139 0.985 . S
N1127 C1129 1.356 . S
N1127 H1132 0.984 . S
N1127 H1133 0.985 . S
C1128 C1122 1.379 . S
C1128 C1125 1.363 . S
C1128 N1126 1.356 . S
C1129 C1123 1.363 . S
C1129 C1124 1.379 . S
C1129 N1127 1.356 . S
N1130 C1122 1.356 . S
N1130 H1136 0.984 . S
N1130 H1137 0.984 . S
N1131 C1124 1.356 . S
N1131 H1134 0.984 . S
N1131 H1135 0.985 . S
H1132 N1127 0.984 . S
H1133 N1127 0.985 . S
H1134 N1131 0.984 . S
H1135 N1131 0.985 . S
H1136 N1130 0.984 . S
H1137 N1130 0.984 . S
H1138 N1126 0.984 . S
H1139 N1126 0.985 . S
C1140 C1141 1.363 . S
C1140 C1146 1.379 . S
C1140 N1148 1.356 . S
C1141 C1140 1.363 . S
C1141 C1147 1.363 . S
C1142 C1143 1.363 . S
C1142 C1147 1.379 . S
C1142 N1149 1.356 . S
C1143 C1142 1.363 . S
C1143 C1146 1.363 . S
N1144 C1146 1.356 . S
N1144 H1156 0.984 . S
N1144 H1157 0.985 . S
N1145 C1147 1.356 . S
N1145 H1150 0.984 . S
N1145 H1151 0.985 . S
C1146 C1140 1.379 . S
C1146 C1143 1.363 . S
C1146 N1144 1.356 . S
C1147 C1141 1.363 . S
C1147 C1142 1.379 . S
C1147 N1145 1.356 . S
N1148 C1140 1.356 . S
N1148 H1154 0.984 . S
N1148 H1155 0.984 . S
N1149 C1142 1.356 . S
N1149 H1152 0.984 . S
N1149 H1153 0.985 . S
H1150 N1145 0.984 . S
H1151 N1145 0.985 . S
H1152 N1149 0.984 . S
H1153 N1149 0.985 . S
H1154 N1148 0.984 . S
H1155 N1148 0.984 . S
H1156 N1144 0.984 . S
H1157 N1144 0.985 . S
C1158 C1159 1.363 . S
C1158 C1164 1.379 . S
C1158 N1166 1.356 . S
C1159 C1158 1.363 . S
C1159 C1165 1.363 . S
C1160 C1161 1.363 . S
C1160 C1165 1.379 . S
C1160 N1167 1.356 . S
C1161 C1160 1.363 . S
C1161 C1164 1.363 . S
N1162 C1164 1.356 . S
N1162 H1174 0.984 . S
N1162 H1175 0.985 . S
N1163 C1165 1.356 . S
N1163 H1168 0.984 . S
N1163 H1169 0.985 . S
C1164 C1158 1.379 . S
C1164 C1161 1.363 . S
C1164 N1162 1.356 . S
C1165 C1159 1.363 . S
C1165 C1160 1.379 . S
C1165 N1163 1.356 . S
N1166 C1158 1.356 . S
N1166 H1172 0.984 . S
N1166 H1173 0.984 . S
N1167 C1160 1.356 . S
N1167 H1170 0.984 . S
N1167 H1171 0.985 . S
H1168 N1163 0.984 . S
H1169 N1163 0.985 . S
H1170 N1167 0.984 . S
H1171 N1167 0.985 . S
H1172 N1166 0.984 . S
H1173 N1166 0.984 . S
H1174 N1162 0.984 . S
H1175 N1162 0.985 . S
C1176 C1177 1.363 . S
C1176 C1182 1.379 . S
C1176 N1184 1.356 . S
C1177 C1176 1.363 . S
C1177 C1183 1.363 . S
C1178 C1179 1.363 . S
C1178 C1183 1.379 . S
C1178 N1185 1.356 . S
C1179 C1178 1.363 . S
C1179 C1182 1.363 . S
N1180 C1182 1.356 . S
N1180 H1192 0.984 . S
N1180 H1193 0.985 . S
N1181 C1183 1.356 . S
N1181 H1186 0.984 . S
N1181 H1187 0.985 . S
C1182 C1176 1.379 . S
C1182 C1179 1.363 . S
C1182 N1180 1.356 . S
C1183 C1177 1.363 . S
C1183 C1178 1.379 . S
C1183 N1181 1.356 . S
N1184 C1176 1.356 . S
N1184 H1190 0.984 . S
N1184 H1191 0.984 . S
N1185 C1178 1.356 . S
N1185 H1188 0.984 . S
N1185 H1189 0.985 . S
H1186 N1181 0.984 . S
H1187 N1181 0.985 . S
H1188 N1185 0.984 . S
H1189 N1185 0.985 . S
H1190 N1184 0.984 . S
H1191 N1184 0.984 . S
H1192 N1180 0.984 . S
H1193 N1180 0.985 . S
C1194 C1195 1.363 . S
C1194 C1200 1.379 . S
C1194 N1202 1.356 . S
C1195 C1194 1.363 . S
C1195 C1201 1.363 . S
C1196 C1197 1.363 . S
C1196 C1201 1.379 . S
C1196 N1203 1.356 . S
C1197 C1196 1.363 . S
C1197 C1200 1.363 . S
N1198 C1200 1.356 . S
N1198 H1210 0.984 . S
N1198 H1211 0.985 . S
N1199 C1201 1.356 . S
N1199 H1204 0.984 . S
N1199 H1205 0.985 . S
C1200 C1194 1.379 . S
C1200 C1197 1.363 . S
C1200 N1198 1.356 . S
C1201 C1195 1.363 . S
C1201 C1196 1.379 . S
C1201 N1199 1.356 . S
N1202 C1194 1.356 . S
N1202 H1208 0.984 . S
N1202 H1209 0.984 . S
N1203 C1196 1.356 . S
N1203 H1206 0.984 . S
N1203 H1207 0.985 . S
H1204 N1199 0.984 . S
H1205 N1199 0.985 . S
H1206 N1203 0.984 . S
H1207 N1203 0.985 . S
H1208 N1202 0.984 . S
H1209 N1202 0.984 . S
H1210 N1198 0.984 . S
H1211 N1198 0.985 . S
C1212 C1213 1.363 . S
C1212 C1218 1.379 . S
C1212 N1220 1.356 . S
C1213 C1212 1.363 . S
C1213 C1219 1.363 . S
C1214 C1215 1.363 . S
C1214 C1219 1.379 . S
C1214 N1221 1.356 . S
C1215 C1214 1.363 . S
C1215 C1218 1.363 . S
N1216 C1218 1.356 . S
N1216 H1228 0.984 . S
N1216 H1229 0.985 . S
N1217 C1219 1.356 . S
N1217 H1222 0.984 . S
N1217 H1223 0.985 . S
C1218 C1212 1.379 . S
C1218 C1215 1.363 . S
C1218 N1216 1.356 . S
C1219 C1213 1.363 . S
C1219 C1214 1.379 . S
C1219 N1217 1.356 . S
N1220 C1212 1.356 . S
N1220 H1226 0.984 . S
N1220 H1227 0.984 . S
N1221 C1214 1.356 . S
N1221 H1224 0.984 . S
N1221 H1225 0.985 . S
H1222 N1217 0.984 . S
H1223 N1217 0.985 . S
H1224 N1221 0.984 . S
H1225 N1221 0.985 . S
H1226 N1220 0.984 . S
H1227 N1220 0.984 . S
H1228 N1216 0.984 . S
H1229 N1216 0.985 . S
C1230 C1231 1.363 . S
C1230 C1236 1.379 . S
C1230 N1238 1.356 . S
C1231 C1230 1.363 . S
C1231 C1237 1.363 . S
C1232 C1233 1.363 . S
C1232 C1237 1.379 . S
C1232 N1239 1.356 . S
C1233 C1232 1.363 . S
C1233 C1236 1.363 . S
N1234 C1236 1.356 . S
N1234 H1246 0.984 . S
N1234 H1247 0.985 . S
N1235 C1237 1.356 . S
N1235 H1240 0.984 . S
N1235 H1241 0.985 . S
C1236 C1230 1.379 . S
C1236 C1233 1.363 . S
C1236 N1234 1.356 . S
C1237 C1231 1.363 . S
C1237 C1232 1.379 . S
C1237 N1235 1.356 . S
N1238 C1230 1.356 . S
N1238 H1244 0.984 . S
N1238 H1245 0.984 . S
N1239 C1232 1.356 . S
N1239 H1242 0.984 . S
N1239 H1243 0.985 . S
H1240 N1235 0.984 . S
H1241 N1235 0.985 . S
H1242 N1239 0.984 . S
H1243 N1239 0.985 . S
H1244 N1238 0.984 . S
H1245 N1238 0.984 . S
H1246 N1234 0.984 . S
H1247 N1234 0.985 . S
C1248 C1249 1.363 . S
C1248 C1254 1.379 . S
C1248 N1256 1.356 . S
C1249 C1248 1.363 . S
C1249 C1255 1.363 . S
C1250 C1251 1.363 . S
C1250 C1255 1.379 . S
C1250 N1257 1.356 . S
C1251 C1250 1.363 . S
C1251 C1254 1.363 . S
N1252 C1254 1.356 . S
N1252 H1264 0.984 . S
N1252 H1265 0.985 . S
N1253 C1255 1.356 . S
N1253 H1258 0.984 . S
N1253 H1259 0.985 . S
C1254 C1248 1.379 . S
C1254 C1251 1.363 . S
C1254 N1252 1.356 . S
C1255 C1249 1.363 . S
C1255 C1250 1.379 . S
C1255 N1253 1.356 . S
N1256 C1248 1.356 . S
N1256 H1262 0.984 . S
N1256 H1263 0.984 . S
N1257 C1250 1.356 . S
N1257 H1260 0.984 . S
N1257 H1261 0.985 . S
H1258 N1253 0.984 . S
H1259 N1253 0.985 . S
H1260 N1257 0.984 . S
H1261 N1257 0.985 . S
H1262 N1256 0.984 . S
H1263 N1256 0.984 . S
H1264 N1252 0.984 . S
H1265 N1252 0.985 . S
C1266 C1267 1.363 . S
C1266 C1272 1.379 . S
C1266 N1274 1.356 . S
C1267 C1266 1.363 . S
C1267 C1273 1.363 . S
C1268 C1269 1.363 . S
C1268 C1273 1.379 . S
C1268 N1275 1.356 . S
C1269 C1268 1.363 . S
C1269 C1272 1.363 . S
N1270 C1272 1.356 . S
N1270 H1282 0.984 . S
N1270 H1283 0.985 . S
N1271 C1273 1.356 . S
N1271 H1276 0.984 . S
N1271 H1277 0.985 . S
C1272 C1266 1.379 . S
C1272 C1269 1.363 . S
C1272 N1270 1.356 . S
C1273 C1267 1.363 . S
C1273 C1268 1.379 . S
C1273 N1271 1.356 . S
N1274 C1266 1.356 . S
N1274 H1280 0.984 . S
N1274 H1281 0.984 . S
N1275 C1268 1.356 . S
N1275 H1278 0.984 . S
N1275 H1279 0.985 . S
H1276 N1271 0.984 . S
H1277 N1271 0.985 . S
H1278 N1275 0.984 . S
H1279 N1275 0.985 . S
H1280 N1274 0.984 . S
H1281 N1274 0.984 . S
H1282 N1270 0.984 . S
H1283 N1270 0.985 . S
C1284 C1285 1.363 . S
C1284 C1290 1.379 . S
C1284 N1292 1.356 . S
C1285 C1284 1.363 . S
C1285 C1291 1.363 . S
C1286 C1287 1.363 . S
C1286 C1291 1.379 . S
C1286 N1293 1.356 . S
C1287 C1286 1.363 . S
C1287 C1290 1.363 . S
N1288 C1290 1.356 . S
N1288 H1300 0.984 . S
N1288 H1301 0.985 . S
N1289 C1291 1.356 . S
N1289 H1294 0.984 . S
N1289 H1295 0.985 . S
C1290 C1284 1.379 . S
C1290 C1287 1.363 . S
C1290 N1288 1.356 . S
C1291 C1285 1.363 . S
C1291 C1286 1.379 . S
C1291 N1289 1.356 . S
N1292 C1284 1.356 . S
N1292 H1298 0.984 . S
N1292 H1299 0.984 . S
N1293 C1286 1.356 . S
N1293 H1296 0.984 . S
N1293 H1297 0.985 . S
H1294 N1289 0.984 . S
H1295 N1289 0.985 . S
H1296 N1293 0.984 . S
H1297 N1293 0.985 . S
H1298 N1292 0.984 . S
H1299 N1292 0.984 . S
H1300 N1288 0.984 . S
H1301 N1288 0.985 . S
C1302 C1303 1.363 . S
C1302 C1308 1.379 . S
C1302 N1310 1.356 . S
C1303 C1302 1.363 . S
C1303 C1309 1.363 . S
C1304 C1305 1.363 . S
C1304 C1309 1.379 . S
C1304 N1311 1.356 . S
C1305 C1304 1.363 . S
C1305 C1308 1.363 . S
N1306 C1308 1.356 . S
N1306 H1318 0.984 . S
N1306 H1319 0.985 . S
N1307 C1309 1.356 . S
N1307 H1312 0.984 . S
N1307 H1313 0.985 . S
C1308 C1302 1.379 . S
C1308 C1305 1.363 . S
C1308 N1306 1.356 . S
C1309 C1303 1.363 . S
C1309 C1304 1.379 . S
C1309 N1307 1.356 . S
N1310 C1302 1.356 . S
N1310 H1316 0.984 . S
N1310 H1317 0.984 . S
N1311 C1304 1.356 . S
N1311 H1314 0.984 . S
N1311 H1315 0.985 . S
H1312 N1307 0.984 . S
H1313 N1307 0.985 . S
H1314 N1311 0.984 . S
H1315 N1311 0.985 . S
H1316 N1310 0.984 . S
H1317 N1310 0.984 . S
H1318 N1306 0.984 . S
H1319 N1306 0.985 . S
C1320 C1321 1.363 . S
C1320 C1326 1.379 . S
C1320 N1328 1.356 . S
C1321 C1320 1.363 . S
C1321 C1327 1.363 . S
C1322 C1323 1.363 . S
C1322 C1327 1.379 . S
C1322 N1329 1.356 . S
C1323 C1322 1.363 . S
C1323 C1326 1.363 . S
N1324 C1326 1.356 . S
N1324 H1336 0.984 . S
N1324 H1337 0.985 . S
N1325 C1327 1.356 . S
N1325 H1330 0.984 . S
N1325 H1331 0.985 . S
C1326 C1320 1.379 . S
C1326 C1323 1.363 . S
C1326 N1324 1.356 . S
C1327 C1321 1.363 . S
C1327 C1322 1.379 . S
C1327 N1325 1.356 . S
N1328 C1320 1.356 . S
N1328 H1334 0.984 . S
N1328 H1335 0.984 . S
N1329 C1322 1.356 . S
N1329 H1332 0.984 . S
N1329 H1333 0.985 . S
H1330 N1325 0.984 . S
H1331 N1325 0.985 . S
H1332 N1329 0.984 . S
H1333 N1329 0.985 . S
H1334 N1328 0.984 . S
H1335 N1328 0.984 . S
H1336 N1324 0.984 . S
H1337 N1324 0.985 . S
C1338 C1339 1.363 . S
C1338 C1344 1.379 . S
C1338 N1346 1.356 . S
C1339 C1338 1.363 . S
C1339 C1345 1.363 . S
C1340 C1341 1.363 . S
C1340 C1345 1.379 . S
C1340 N1347 1.356 . S
C1341 C1340 1.363 . S
C1341 C1344 1.363 . S
N1342 C1344 1.356 . S
N1342 H1354 0.984 . S
N1342 H1355 0.985 . S
N1343 C1345 1.356 . S
N1343 H1348 0.984 . S
N1343 H1349 0.985 . S
C1344 C1338 1.379 . S
C1344 C1341 1.363 . S
C1344 N1342 1.356 . S
C1345 C1339 1.363 . S
C1345 C1340 1.379 . S
C1345 N1343 1.356 . S
N1346 C1338 1.356 . S
N1346 H1352 0.984 . S
N1346 H1353 0.984 . S
N1347 C1340 1.356 . S
N1347 H1350 0.984 . S
N1347 H1351 0.985 . S
H1348 N1343 0.984 . S
H1349 N1343 0.985 . S
H1350 N1347 0.984 . S
H1351 N1347 0.985 . S
H1352 N1346 0.984 . S
H1353 N1346 0.984 . S
H1354 N1342 0.984 . S
H1355 N1342 0.985 . S
C1356 C1357 1.363 . S
C1356 C1362 1.379 . S
C1356 N1364 1.356 . S
C1357 C1356 1.363 . S
C1357 C1363 1.363 . S
C1358 C1359 1.363 . S
C1358 C1363 1.379 . S
C1358 N1365 1.356 . S
C1359 C1358 1.363 . S
C1359 C1362 1.363 . S
N1360 C1362 1.356 . S
N1360 H1372 0.984 . S
N1360 H1373 0.985 . S
N1361 C1363 1.356 . S
N1361 H1366 0.984 . S
N1361 H1367 0.985 . S
C1362 C1356 1.379 . S
C1362 C1359 1.363 . S
C1362 N1360 1.356 . S
C1363 C1357 1.363 . S
C1363 C1358 1.379 . S
C1363 N1361 1.356 . S
N1364 C1356 1.356 . S
N1364 H1370 0.984 . S
N1364 H1371 0.984 . S
N1365 C1358 1.356 . S
N1365 H1368 0.984 . S
N1365 H1369 0.985 . S
H1366 N1361 0.984 . S
H1367 N1361 0.985 . S
H1368 N1365 0.984 . S
H1369 N1365 0.985 . S
H1370 N1364 0.984 . S
H1371 N1364 0.984 . S
H1372 N1360 0.984 . S
H1373 N1360 0.985 . S
C1374 C1375 1.363 . S
C1374 C1380 1.379 . S
C1374 N1382 1.356 . S
C1375 C1374 1.363 . S
C1375 C1381 1.363 . S
C1376 C1377 1.363 . S
C1376 C1381 1.379 . S
C1376 N1383 1.356 . S
C1377 C1376 1.363 . S
C1377 C1380 1.363 . S
N1378 C1380 1.356 . S
N1378 H1390 0.984 . S
N1378 H1391 0.985 . S
N1379 C1381 1.356 . S
N1379 H1384 0.984 . S
N1379 H1385 0.985 . S
C1380 C1374 1.379 . S
C1380 C1377 1.363 . S
C1380 N1378 1.356 . S
C1381 C1375 1.363 . S
C1381 C1376 1.379 . S
C1381 N1379 1.356 . S
N1382 C1374 1.356 . S
N1382 H1388 0.984 . S
N1382 H1389 0.984 . S
N1383 C1376 1.356 . S
N1383 H1386 0.984 . S
N1383 H1387 0.985 . S
H1384 N1379 0.984 . S
H1385 N1379 0.985 . S
H1386 N1383 0.984 . S
H1387 N1383 0.985 . S
H1388 N1382 0.984 . S
H1389 N1382 0.984 . S
H1390 N1378 0.984 . S
H1391 N1378 0.985 . S
C1392 C1393 1.363 . S
C1392 C1398 1.379 1_655 S
C1392 N1400 1.356 . S
C1393 C1392 1.363 . S
C1393 C1399 1.363 . S
C1394 C1395 1.363 . S
C1394 C1399 1.379 1_455 S
C1394 N1401 1.356 . S
C1395 C1394 1.363 . S
C1395 C1398 1.363 . S
N1396 C1398 1.356 . S
N1396 H1408 0.984 . S
N1396 H1409 0.985 . S
N1397 C1399 1.356 . S
N1397 H1402 0.984 . S
N1397 H1403 0.985 . S
C1398 C1392 1.379 1_455 S
C1398 C1395 1.363 . S
C1398 N1396 1.356 . S
C1399 C1393 1.363 . S
C1399 C1394 1.379 1_655 S
C1399 N1397 1.356 . S
N1400 C1392 1.356 . S
N1400 H1406 0.984 . S
N1400 H1407 0.984 . S
N1401 C1394 1.356 . S
N1401 H1404 0.984 . S
N1401 H1405 0.985 . S
H1402 N1397 0.984 . S
H1403 N1397 0.985 . S
H1404 N1401 0.984 . S
H1405 N1401 0.985 . S
H1406 N1400 0.984 . S
H1407 N1400 0.984 . S
H1408 N1396 0.984 . S
H1409 N1396 0.985 . S
C1410 C1411 1.363 . S
C1410 C1416 1.379 1_565 S
C1410 N1418 1.356 . S
C1411 C1410 1.363 . S
C1411 C1417 1.363 . S
C1412 C1413 1.363 . S
C1412 C1417 1.379 1_545 S
C1412 N1419 1.356 . S
C1413 C1412 1.363 . S
C1413 C1416 1.363 . S
N1414 C1416 1.356 . S
N1414 H1426 0.984 . S
N1414 H1427 0.985 . S
N1415 C1417 1.356 . S
N1415 H1420 0.984 . S
N1415 H1421 0.985 . S
C1416 C1410 1.379 1_545 S
C1416 C1413 1.363 . S
C1416 N1414 1.356 . S
C1417 C1411 1.363 . S
C1417 C1412 1.379 1_565 S
C1417 N1415 1.356 . S
N1418 C1410 1.356 . S
N1418 H1424 0.984 . S
N1418 H1425 0.984 . S
N1419 C1412 1.356 . S
N1419 H1422 0.984 . S
N1419 H1423 0.985 . S
H1420 N1415 0.984 . S
H1421 N1415 0.985 . S
H1422 N1419 0.984 . S
H1423 N1419 0.985 . S
H1424 N1418 0.984 . S
H1425 N1418 0.984 . S
H1426 N1414 0.984 . S
H1427 N1414 0.985 . S
C1428 C1429 1.363 . S
C1428 C1434 1.379 . S
C1428 N1436 1.356 . S
C1429 C1428 1.363 . S
C1429 C1435 1.363 . S
C1430 C1431 1.363 . S
C1430 C1435 1.379 . S
C1430 N1437 1.356 . S
C1431 C1430 1.363 . S
C1431 C1434 1.363 . S
N1432 C1434 1.356 . S
N1432 H1444 0.984 . S
N1432 H1445 0.985 . S
N1433 C1435 1.356 . S
N1433 H1438 0.984 . S
N1433 H1439 0.985 . S
C1434 C1428 1.379 . S
C1434 C1431 1.363 . S
C1434 N1432 1.356 . S
C1435 C1429 1.363 . S
C1435 C1430 1.379 . S
C1435 N1433 1.356 . S
N1436 C1428 1.356 . S
N1436 H1442 0.984 . S
N1436 H1443 0.984 . S
N1437 C1430 1.356 . S
N1437 H1440 0.984 . S
N1437 H1441 0.985 . S
H1438 N1433 0.984 . S
H1439 N1433 0.985 . S
H1440 N1437 0.984 . S
H1441 N1437 0.985 . S
H1442 N1436 0.984 . S
H1443 N1436 0.984 . S
H1444 N1432 0.984 . S
H1445 N1432 0.985 . S
C1446 C1447 1.363 . S
C1446 C1452 1.379 1_455 S
C1446 N1454 1.356 . S
C1447 C1446 1.363 . S
C1447 C1453 1.363 . S
C1448 C1449 1.363 . S
C1448 C1453 1.379 1_655 S
C1448 N1455 1.356 . S
C1449 C1448 1.363 . S
C1449 C1452 1.363 . S
N1450 C1452 1.356 . S
N1450 H1462 0.984 . S
N1450 H1463 0.985 . S
N1451 C1453 1.356 . S
N1451 H1456 0.984 . S
N1451 H1457 0.985 . S
C1452 C1446 1.379 1_655 S
C1452 C1449 1.363 . S
C1452 N1450 1.356 . S
C1453 C1447 1.363 . S
C1453 C1448 1.379 1_455 S
C1453 N1451 1.356 . S
N1454 C1446 1.356 . S
N1454 H1460 0.984 . S
N1454 H1461 0.984 . S
N1455 C1448 1.356 . S
N1455 H1458 0.984 . S
N1455 H1459 0.985 . S
H1456 N1451 0.984 . S
H1457 N1451 0.985 . S
H1458 N1455 0.984 . S
H1459 N1455 0.985 . S
H1460 N1454 0.984 . S
H1461 N1454 0.984 . S
H1462 N1450 0.984 . S
H1463 N1450 0.985 . S
C1464 C1465 1.363 . S
C1464 C1470 1.379 1_545 S
C1464 N1472 1.356 . S
C1465 C1464 1.363 . S
C1465 C1471 1.363 . S
C1466 C1467 1.363 . S
C1466 C1471 1.379 1_565 S
C1466 N1473 1.356 . S
C1467 C1466 1.363 . S
C1467 C1470 1.363 . S
N1468 C1470 1.356 . S
N1468 H1480 0.984 . S
N1468 H1481 0.985 . S
N1469 C1471 1.356 . S
N1469 H1474 0.984 . S
N1469 H1475 0.985 . S
C1470 C1464 1.379 1_565 S
C1470 C1467 1.363 . S
C1470 N1468 1.356 . S
C1471 C1465 1.363 . S
C1471 C1466 1.379 1_545 S
C1471 N1469 1.356 . S
N1472 C1464 1.356 . S
N1472 H1478 0.984 . S
N1472 H1479 0.984 . S
N1473 C1466 1.356 . S
N1473 H1476 0.984 . S
N1473 H1477 0.985 . S
H1474 N1469 0.984 . S
H1475 N1469 0.985 . S
H1476 N1473 0.984 . S
H1477 N1473 0.985 . S
H1478 N1472 0.984 . S
H1479 N1472 0.984 . S
H1480 N1468 0.984 . S
H1481 N1468 0.985 . S
C1482 C1483 1.363 . S
C1482 C1488 1.379 . S
C1482 N1490 1.356 . S
C1483 C1482 1.363 . S
C1483 C1489 1.363 . S
C1484 C1485 1.363 . S
C1484 C1489 1.379 . S
C1484 N1491 1.356 . S
C1485 C1484 1.363 . S
C1485 C1488 1.363 . S
N1486 C1488 1.356 . S
N1486 H1498 0.984 . S
N1486 H1499 0.985 . S
N1487 C1489 1.356 . S
N1487 H1492 0.984 . S
N1487 H1493 0.985 . S
C1488 C1482 1.379 . S
C1488 C1485 1.363 . S
C1488 N1486 1.356 . S
C1489 C1483 1.363 . S
C1489 C1484 1.379 . S
C1489 N1487 1.356 . S
N1490 C1482 1.356 . S
N1490 H1496 0.984 . S
N1490 H1497 0.984 . S
N1491 C1484 1.356 . S
N1491 H1494 0.984 . S
N1491 H1495 0.985 . S
H1492 N1487 0.984 . S
H1493 N1487 0.985 . S
H1494 N1491 0.984 . S
H1495 N1491 0.985 . S
H1496 N1490 0.984 . S
H1497 N1490 0.984 . S
H1498 N1486 0.984 . S
H1499 N1486 0.985 . S
C1500 C1501 1.363 . S
C1500 C1506 1.379 1_565 S
C1500 N1508 1.356 . S
C1501 C1500 1.363 . S
C1501 C1507 1.363 . S
C1502 C1503 1.363 . S
C1502 C1507 1.379 1_545 S
C1502 N1509 1.356 . S
C1503 C1502 1.363 . S
C1503 C1506 1.363 . S
N1504 C1506 1.356 . S
N1504 H1516 0.984 . S
N1504 H1517 0.985 . S
N1505 C1507 1.356 . S
N1505 H1510 0.984 . S
N1505 H1511 0.985 . S
C1506 C1500 1.379 1_545 S
C1506 C1503 1.363 . S
C1506 N1504 1.356 . S
C1507 C1501 1.363 . S
C1507 C1502 1.379 1_565 S
C1507 N1505 1.356 . S
N1508 C1500 1.356 . S
N1508 H1514 0.984 . S
N1508 H1515 0.984 . S
N1509 C1502 1.356 . S
N1509 H1512 0.984 . S
N1509 H1513 0.985 . S
H1510 N1505 0.984 . S
H1511 N1505 0.985 . S
H1512 N1509 0.984 . S
H1513 N1509 0.985 . S
H1514 N1508 0.984 . S
H1515 N1508 0.984 . S
H1516 N1504 0.984 . S
H1517 N1504 0.985 . S
C1518 C1519 1.363 . S
C1518 C1524 1.379 . S
C1518 N1526 1.356 . S
C1519 C1518 1.363 . S
C1519 C1525 1.363 . S
C1520 C1521 1.363 . S
C1520 C1525 1.379 . S
C1520 N1527 1.356 . S
C1521 C1520 1.363 . S
C1521 C1524 1.363 . S
N1522 C1524 1.356 . S
N1522 H1534 0.984 . S
N1522 H1535 0.985 . S
N1523 C1525 1.356 . S
N1523 H1528 0.984 . S
N1523 H1529 0.985 . S
C1524 C1518 1.379 . S
C1524 C1521 1.363 . S
C1524 N1522 1.356 . S
C1525 C1519 1.363 . S
C1525 C1520 1.379 . S
C1525 N1523 1.356 . S
N1526 C1518 1.356 . S
N1526 H1532 0.984 . S
N1526 H1533 0.984 . S
N1527 C1520 1.356 . S
N1527 H1530 0.984 . S
N1527 H1531 0.985 . S
H1528 N1523 0.984 . S
H1529 N1523 0.985 . S
H1530 N1527 0.984 . S
H1531 N1527 0.985 . S
H1532 N1526 0.984 . S
H1533 N1526 0.984 . S
H1534 N1522 0.984 . S
H1535 N1522 0.985 . S
C1536 C1537 1.363 . S
C1536 C1542 1.379 1_655 S
C1536 N1544 1.356 . S
C1537 C1536 1.363 . S
C1537 C1543 1.363 . S
C1538 C1539 1.363 . S
C1538 C1543 1.379 1_455 S
C1538 N1545 1.356 . S
C1539 C1538 1.363 . S
C1539 C1542 1.363 . S
N1540 C1542 1.356 . S
N1540 H1552 0.984 . S
N1540 H1553 0.985 . S
N1541 C1543 1.356 . S
N1541 H1546 0.984 . S
N1541 H1547 0.985 . S
C1542 C1536 1.379 1_455 S
C1542 C1539 1.363 . S
C1542 N1540 1.356 . S
C1543 C1537 1.363 . S
C1543 C1538 1.379 1_655 S
C1543 N1541 1.356 . S
N1544 C1536 1.356 . S
N1544 H1550 0.984 . S
N1544 H1551 0.984 . S
N1545 C1538 1.356 . S
N1545 H1548 0.984 . S
N1545 H1549 0.985 . S
H1546 N1541 0.984 . S
H1547 N1541 0.985 . S
H1548 N1545 0.984 . S
H1549 N1545 0.985 . S
H1550 N1544 0.984 . S
H1551 N1544 0.984 . S
H1552 N1540 0.984 . S
H1553 N1540 0.985 . S
C1554 C1555 1.363 . S
C1554 C1560 1.379 1_565 S
C1554 N1562 1.356 . S
C1555 C1554 1.363 . S
C1555 C1561 1.363 . S
C1556 C1557 1.363 . S
C1556 C1561 1.379 1_545 S
C1556 N1563 1.356 . S
C1557 C1556 1.363 . S
C1557 C1560 1.363 . S
N1558 C1560 1.356 . S
N1558 H1570 0.984 . S
N1558 H1571 0.985 . S
N1559 C1561 1.356 . S
N1559 H1564 0.984 . S
N1559 H1565 0.985 . S
C1560 C1554 1.379 1_545 S
C1560 C1557 1.363 . S
C1560 N1558 1.356 . S
C1561 C1555 1.363 . S
C1561 C1556 1.379 1_565 S
C1561 N1559 1.356 . S
N1562 C1554 1.356 . S
N1562 H1568 0.984 . S
N1562 H1569 0.984 . S
N1563 C1556 1.356 . S
N1563 H1566 0.984 . S
N1563 H1567 0.985 . S
H1564 N1559 0.984 . S
H1565 N1559 0.985 . S
H1566 N1563 0.984 . S
H1567 N1563 0.985 . S
H1568 N1562 0.984 . S
H1569 N1562 0.984 . S
H1570 N1558 0.984 . S
H1571 N1558 0.985 . S
C1572 C1573 1.363 . S
C1572 C1578 1.379 . S
C1572 N1580 1.356 . S
C1573 C1572 1.363 . S
C1573 C1579 1.363 . S
C1574 C1575 1.363 . S
C1574 C1579 1.379 . S
C1574 N1581 1.356 . S
C1575 C1574 1.363 . S
C1575 C1578 1.363 . S
N1576 C1578 1.356 . S
N1576 H1588 0.984 . S
N1576 H1589 0.985 . S
N1577 C1579 1.356 . S
N1577 H1582 0.984 . S
N1577 H1583 0.985 . S
C1578 C1572 1.379 . S
C1578 C1575 1.363 . S
C1578 N1576 1.356 . S
C1579 C1573 1.363 . S
C1579 C1574 1.379 . S
C1579 N1577 1.356 . S
N1580 C1572 1.356 . S
N1580 H1586 0.984 . S
N1580 H1587 0.984 . S
N1581 C1574 1.356 . S
N1581 H1584 0.984 . S
N1581 H1585 0.985 . S
H1582 N1577 0.984 . S
H1583 N1577 0.985 . S
H1584 N1581 0.984 . S
H1585 N1581 0.985 . S
H1586 N1580 0.984 . S
H1587 N1580 0.984 . S
H1588 N1576 0.984 . S
H1589 N1576 0.985 . S
C1590 C1591 1.363 . S
C1590 C1596 1.379 1_655 S
C1590 N1598 1.356 . S
C1591 C1590 1.363 . S
C1591 C1597 1.363 . S
C1592 C1593 1.363 . S
C1592 C1597 1.379 1_455 S
C1592 N1599 1.356 . S
C1593 C1592 1.363 . S
C1593 C1596 1.363 . S
N1594 C1596 1.356 . S
N1594 H1606 0.984 . S
N1594 H1607 0.985 . S
N1595 C1597 1.356 . S
N1595 H1600 0.984 . S
N1595 H1601 0.985 . S
C1596 C1590 1.379 1_455 S
C1596 C1593 1.363 . S
C1596 N1594 1.356 . S
C1597 C1591 1.363 . S
C1597 C1592 1.379 1_655 S
C1597 N1595 1.356 . S
N1598 C1590 1.356 . S
N1598 H1604 0.984 . S
N1598 H1605 0.984 . S
N1599 C1592 1.356 . S
N1599 H1602 0.984 . S
N1599 H1603 0.985 . S
H1600 N1595 0.984 . S
H1601 N1595 0.985 . S
H1602 N1599 0.984 . S
H1603 N1599 0.985 . S
H1604 N1598 0.984 . S
H1605 N1598 0.984 . S
H1606 N1594 0.984 . S
H1607 N1594 0.985 . S
C1608 C1609 1.363 . S
C1608 C1614 1.379 1_556 S
C1608 N1616 1.356 . S
C1609 C1608 1.363 . S
C1609 C1615 1.363 . S
C1610 C1611 1.363 . S
C1610 C1615 1.379 1_554 S
C1610 N1617 1.356 . S
C1611 C1610 1.363 . S
C1611 C1614 1.363 . S
N1612 C1614 1.356 . S
N1612 H1624 0.984 . S
N1612 H1625 0.985 . S
N1613 C1615 1.356 . S
N1613 H1618 0.984 . S
N1613 H1619 0.985 . S
C1614 C1608 1.379 1_554 S
C1614 C1611 1.363 . S
C1614 N1612 1.356 . S
C1615 C1609 1.363 . S
C1615 C1610 1.379 1_556 S
C1615 N1613 1.356 . S
N1616 C1608 1.356 . S
N1616 H1622 0.984 . S
N1616 H1623 0.984 . S
N1617 C1610 1.356 . S
N1617 H1620 0.984 . S
N1617 H1621 0.985 . S
H1618 N1613 0.984 . S
H1619 N1613 0.985 . S
H1620 N1617 0.984 . S
H1621 N1617 0.985 . S
H1622 N1616 0.984 . S
H1623 N1616 0.984 . S
H1624 N1612 0.984 . S
H1625 N1612 0.985 . S
C1626 C1627 1.363 . S
C1626 C1632 1.379 . S
C1626 N1634 1.356 . S
C1627 C1626 1.363 . S
C1627 C1633 1.363 . S
C1628 C1629 1.363 . S
C1628 C1633 1.379 . S
C1628 N1635 1.356 . S
C1629 C1628 1.363 . S
C1629 C1632 1.363 . S
N1630 C1632 1.356 . S
N1630 H1642 0.984 . S
N1630 H1643 0.985 . S
N1631 C1633 1.356 . S
N1631 H1636 0.984 . S
N1631 H1637 0.985 . S
C1632 C1626 1.379 . S
C1632 C1629 1.363 . S
C1632 N1630 1.356 . S
C1633 C1627 1.363 . S
C1633 C1628 1.379 . S
C1633 N1631 1.356 . S
N1634 C1626 1.356 . S
N1634 H1640 0.984 . S
N1634 H1641 0.984 . S
N1635 C1628 1.356 . S
N1635 H1638 0.984 . S
N1635 H1639 0.985 . S
H1636 N1631 0.984 . S
H1637 N1631 0.985 . S
H1638 N1635 0.984 . S
H1639 N1635 0.985 . S
H1640 N1634 0.984 . S
H1641 N1634 0.984 . S
H1642 N1630 0.984 . S
H1643 N1630 0.985 . S
C1644 C1645 1.363 . S
C1644 C1650 1.379 1_554 S
C1644 N1652 1.356 . S
C1645 C1644 1.363 . S
C1645 C1651 1.363 . S
C1646 C1647 1.363 . S
C1646 C1651 1.379 1_556 S
C1646 N1653 1.356 . S
C1647 C1646 1.363 . S
C1647 C1650 1.363 . S
N1648 C1650 1.356 . S
N1648 H1660 0.984 . S
N1648 H1661 0.985 . S
N1649 C1651 1.356 . S
N1649 H1654 0.984 . S
N1649 H1655 0.985 . S
C1650 C1644 1.379 1_556 S
C1650 C1647 1.363 . S
C1650 N1648 1.356 . S
C1651 C1645 1.363 . S
C1651 C1646 1.379 1_554 S
C1651 N1649 1.356 . S
N1652 C1644 1.356 . S
N1652 H1658 0.984 . S
N1652 H1659 0.984 . S
N1653 C1646 1.356 . S
N1653 H1656 0.984 . S
N1653 H1657 0.985 . S
H1654 N1649 0.984 . S
H1655 N1649 0.985 . S
H1656 N1653 0.984 . S
H1657 N1653 0.985 . S
H1658 N1652 0.984 . S
H1659 N1652 0.984 . S
H1660 N1648 0.984 . S
H1661 N1648 0.985 . S
C1662 C1663 1.363 . S
C1662 C1668 1.379 . S
C1662 N1670 1.356 . S
C1663 C1662 1.363 . S
C1663 C1669 1.363 . S
C1664 C1665 1.363 . S
C1664 C1669 1.379 . S
C1664 N1671 1.356 . S
C1665 C1664 1.363 . S
C1665 C1668 1.363 . S
N1666 C1668 1.356 . S
N1666 H1678 0.984 . S
N1666 H1679 0.985 . S
N1667 C1669 1.356 . S
N1667 H1672 0.984 . S
N1667 H1673 0.985 . S
C1668 C1662 1.379 . S
C1668 C1665 1.363 . S
C1668 N1666 1.356 . S
C1669 C1663 1.363 . S
C1669 C1664 1.379 . S
C1669 N1667 1.356 . S
N1670 C1662 1.356 . S
N1670 H1676 0.984 . S
N1670 H1677 0.984 . S
N1671 C1664 1.356 . S
N1671 H1674 0.984 . S
N1671 H1675 0.985 . S
H1672 N1667 0.984 . S
H1673 N1667 0.985 . S
H1674 N1671 0.984 . S
H1675 N1671 0.985 . S
H1676 N1670 0.984 . S
H1677 N1670 0.984 . S
H1678 N1666 0.984 . S
H1679 N1666 0.985 . S
C1680 C1681 1.363 1_554 S
C1680 C1686 1.379 . S
C1680 N1688 1.356 1_554 S
C1681 C1680 1.363 1_556 S
C1681 C1687 1.363 . S
C1682 C1683 1.363 1_556 S
C1682 C1687 1.379 . S
C1682 N1689 1.356 1_556 S
C1683 C1682 1.363 1_554 S
C1683 C1686 1.363 . S
N1684 C1686 1.356 . S
N1684 H1696 0.984 . S
N1684 H1697 0.985 . S
N1685 C1687 1.356 . S
N1685 H1690 0.984 . S
N1685 H1691 0.985 . S
C1686 C1680 1.379 . S
C1686 C1683 1.363 . S
C1686 N1684 1.356 . S
C1687 C1681 1.363 . S
C1687 C1682 1.379 . S
C1687 N1685 1.356 . S
N1688 C1680 1.356 1_556 S
N1688 H1694 0.984 1_556 S
N1688 H1695 0.984 . S
N1689 C1682 1.356 1_554 S
N1689 H1692 0.984 . S
N1689 H1693 0.985 1_554 S
H1690 N1685 0.984 . S
H1691 N1685 0.985 . S
H1692 N1689 0.984 . S
H1693 N1689 0.985 1_556 S
H1694 N1688 0.984 1_554 S
H1695 N1688 0.984 . S
H1696 N1684 0.984 . S
H1697 N1684 0.985 . S
C1698 C1699 1.363 . S
C1698 C1704 1.379 . S
C1698 N1706 1.356 . S
C1699 C1698 1.363 . S
C1699 C1705 1.363 . S
C1700 C1701 1.363 . S
C1700 C1705 1.379 . S
C1700 N1707 1.356 . S
C1701 C1700 1.363 . S
C1701 C1704 1.363 . S
N1702 C1704 1.356 . S
N1702 H1714 0.984 . S
N1702 H1715 0.985 . S
N1703 C1705 1.356 . S
N1703 H1708 0.984 . S
N1703 H1709 0.985 . S
C1704 C1698 1.379 . S
C1704 C1701 1.363 . S
C1704 N1702 1.356 . S
C1705 C1699 1.363 . S
C1705 C1700 1.379 . S
C1705 N1703 1.356 . S
N1706 C1698 1.356 . S
N1706 H1712 0.984 . S
N1706 H1713 0.984 . S
N1707 C1700 1.356 . S
N1707 H1710 0.984 . S
N1707 H1711 0.985 . S
H1708 N1703 0.984 . S
H1709 N1703 0.985 . S
H1710 N1707 0.984 . S
H1711 N1707 0.985 . S
H1712 N1706 0.984 . S
H1713 N1706 0.984 . S
H1714 N1702 0.984 . S
H1715 N1702 0.985 . S
C1716 C1717 1.363 . S
C1716 C1722 1.379 1_554 S
C1716 N1724 1.356 . S
C1717 C1716 1.363 . S
C1717 C1723 1.363 . S
C1718 C1719 1.363 . S
C1718 C1723 1.379 1_556 S
C1718 N1725 1.356 . S
C1719 C1718 1.363 . S
C1719 C1722 1.363 . S
N1720 C1722 1.356 . S
N1720 H1732 0.984 . S
N1720 H1733 0.985 . S
N1721 C1723 1.356 . S
N1721 H1726 0.984 . S
N1721 H1727 0.985 . S
C1722 C1716 1.379 1_556 S
C1722 C1719 1.363 . S
C1722 N1720 1.356 . S
C1723 C1717 1.363 . S
C1723 C1718 1.379 1_554 S
C1723 N1721 1.356 . S
N1724 C1716 1.356 . S
N1724 H1730 0.984 . S
N1724 H1731 0.984 . S
N1725 C1718 1.356 . S
N1725 H1728 0.984 . S
N1725 H1729 0.985 . S
H1726 N1721 0.984 . S
H1727 N1721 0.985 . S
H1728 N1725 0.984 . S
H1729 N1725 0.985 . S
H1730 N1724 0.984 . S
H1731 N1724 0.984 . S
H1732 N1720 0.984 . S
H1733 N1720 0.985 . S
C1734 C1735 1.363 . S
C1734 C1740 1.379 . S
C1734 N1742 1.356 . S
C1735 C1734 1.363 . S
C1735 C1741 1.363 . S
C1736 C1737 1.363 . S
C1736 C1741 1.379 . S
C1736 N1743 1.356 . S
C1737 C1736 1.363 . S
C1737 C1740 1.363 . S
N1738 C1740 1.356 . S
N1738 H1750 0.984 . S
N1738 H1751 0.985 . S
N1739 C1741 1.356 . S
N1739 H1744 0.984 . S
N1739 H1745 0.985 . S
C1740 C1734 1.379 . S
C1740 C1737 1.363 . S
C1740 N1738 1.356 . S
C1741 C1735 1.363 . S
C1741 C1736 1.379 . S
C1741 N1739 1.356 . S
N1742 C1734 1.356 . S
N1742 H1748 0.984 . S
N1742 H1749 0.984 . S
N1743 C1736 1.356 . S
N1743 H1746 0.984 . S
N1743 H1747 0.985 . S
H1744 N1739 0.984 . S
H1745 N1739 0.985 . S
H1746 N1743 0.984 . S
H1747 N1743 0.985 . S
H1748 N1742 0.984 . S
H1749 N1742 0.984 . S
H1750 N1738 0.984 . S
H1751 N1738 0.985 . S
C1752 C1753 1.363 . S
C1752 C1758 1.379 1_554 S
C1752 N1760 1.356 . S
C1753 C1752 1.363 . S
C1753 C1759 1.363 . S
C1754 C1755 1.363 . S
C1754 C1759 1.379 1_556 S
C1754 N1761 1.356 . S
C1755 C1754 1.363 . S
C1755 C1758 1.363 . S
N1756 C1758 1.356 . S
N1756 H1768 0.984 . S
N1756 H1769 0.985 . S
N1757 C1759 1.356 . S
N1757 H1762 0.984 . S
N1757 H1763 0.985 . S
C1758 C1752 1.379 1_556 S
C1758 C1755 1.363 . S
C1758 N1756 1.356 . S
C1759 C1753 1.363 . S
C1759 C1754 1.379 1_554 S
C1759 N1757 1.356 . S
N1760 C1752 1.356 . S
N1760 H1766 0.984 . S
N1760 H1767 0.984 . S
N1761 C1754 1.356 . S
N1761 H1764 0.984 . S
N1761 H1765 0.985 . S
H1762 N1757 0.984 . S
H1763 N1757 0.985 . S
H1764 N1761 0.984 . S
H1765 N1761 0.985 . S
H1766 N1760 0.984 . S
H1767 N1760 0.984 . S
H1768 N1756 0.984 . S
H1769 N1756 0.985 . S
C1770 C1771 1.363 . S
C1770 C1776 1.379 . S
C1770 N1778 1.356 . S
C1771 C1770 1.363 . S
C1771 C1777 1.363 . S
C1772 C1773 1.363 . S
C1772 C1777 1.379 . S
C1772 N1779 1.356 . S
C1773 C1772 1.363 . S
C1773 C1776 1.363 . S
N1774 C1776 1.356 . S
N1774 H1786 0.984 . S
N1774 H1787 0.985 . S
N1775 C1777 1.356 . S
N1775 H1780 0.984 . S
N1775 H1781 0.985 . S
C1776 C1770 1.379 . S
C1776 C1773 1.363 . S
C1776 N1774 1.356 . S
C1777 C1771 1.363 . S
C1777 C1772 1.379 . S
C1777 N1775 1.356 . S
N1778 C1770 1.356 . S
N1778 H1784 0.984 . S
N1778 H1785 0.984 . S
N1779 C1772 1.356 . S
N1779 H1782 0.984 . S
N1779 H1783 0.985 . S
H1780 N1775 0.984 . S
H1781 N1775 0.985 . S
H1782 N1779 0.984 . S
H1783 N1779 0.985 . S
H1784 N1778 0.984 . S
H1785 N1778 0.984 . S
H1786 N1774 0.984 . S
H1787 N1774 0.985 . S
C1788 C1789 1.363 . S
C1788 C1794 1.379 1_554 S
C1788 N1796 1.356 . S
C1789 C1788 1.363 . S
C1789 C1795 1.363 . S
C1790 C1791 1.363 . S
C1790 C1795 1.379 1_556 S
C1790 N1797 1.356 . S
C1791 C1790 1.363 . S
C1791 C1794 1.363 . S
N1792 C1794 1.356 . S
N1792 H1804 0.984 . S
N1792 H1805 0.985 . S
N1793 C1795 1.356 . S
N1793 H1798 0.984 . S
N1793 H1799 0.985 . S
C1794 C1788 1.379 1_556 S
C1794 C1791 1.363 . S
C1794 N1792 1.356 . S
C1795 C1789 1.363 . S
C1795 C1790 1.379 1_554 S
C1795 N1793 1.356 . S
N1796 C1788 1.356 . S
N1796 H1802 0.984 . S
N1796 H1803 0.984 . S
N1797 C1790 1.356 . S
N1797 H1800 0.984 . S
N1797 H1801 0.985 . S
H1798 N1793 0.984 . S
H1799 N1793 0.985 . S
H1800 N1797 0.984 . S
H1801 N1797 0.985 . S
H1802 N1796 0.984 . S
H1803 N1796 0.984 . S
H1804 N1792 0.984 . S
H1805 N1792 0.985 . S
C1806 C1807 1.363 . S
C1806 C1812 1.379 . S
C1806 N1814 1.356 . S
C1807 C1806 1.363 . S
C1807 C1813 1.363 . S
C1808 C1809 1.363 . S
C1808 C1813 1.379 . S
C1808 N1815 1.356 . S
C1809 C1808 1.363 . S
C1809 C1812 1.363 . S
N1810 C1812 1.356 . S
N1810 H1822 0.984 . S
N1810 H1823 0.985 . S
N1811 C1813 1.356 . S
N1811 H1816 0.984 . S
N1811 H1817 0.985 . S
C1812 C1806 1.379 . S
C1812 C1809 1.363 . S
C1812 N1810 1.356 . S
C1813 C1807 1.363 . S
C1813 C1808 1.379 . S
C1813 N1811 1.356 . S
N1814 C1806 1.356 . S
N1814 H1820 0.984 . S
N1814 H1821 0.984 . S
N1815 C1808 1.356 . S
N1815 H1818 0.984 . S
N1815 H1819 0.985 . S
H1816 N1811 0.984 . S
H1817 N1811 0.985 . S
H1818 N1815 0.984 . S
H1819 N1815 0.985 . S
H1820 N1814 0.984 . S
H1821 N1814 0.984 . S
H1822 N1810 0.984 . S
H1823 N1810 0.985 . S
C529 C194 1.158 . S
C531 C10 1.158 . S
C547 C30 1.158 . S
C549 C206 1.158 . S
C565 C230 1.158 . S
C567 C52 1.158 . S
C583 C74 1.158 . S
C585 C260 1.158 . S
C601 C142 1.158 . S
C603 C106 1.158 . S
C619 C164 1.158 . S
C621 C118 1.158 . S
C637 C272 1.158 . S
C639 C458 1.158 . S
C655 C472 1.158 . S
C657 C296 1.158 . S
C673 C494 1.158 . S
C675 C326 1.158 . S
C691 C340 1.158 . S
C693 C516 1.158 . S
C709 C362 1.158 . S
C711 C404 1.158 . S
C727 C428 1.158 . S
C729 C392 1.158 . S
C745 C21 1.287 . S
C747 C65 1.325 . S
C763 C87 1.325 . S
C765 C29 1.287 . S
C781 C51 1.287 . S
C783 C95 1.325 . S
C799 C73 1.287 . S
C801 C131 1.325 . S
C817 C15 1.325 . S
C819 C103 1.287 . S
C835 C43 1.325 . S
C837 C117 1.287 . S
C853 C235 1.325 . S
C855 C153 1.287 . S
C871 C175 1.287 . S
C873 C249 1.324 . S
C889 C191 1.287 . S
C891 C147 1.325 . S
C907 C169 1.325 . S
C909 C205 1.287 . S
C925 C183 1.325 . S
C927 C241 1.287 . S
C943 C219 1.325 . S
C945 C257 1.287 . S
C961 C315 1.325 . S
C963 C271 1.287 . S
C979 C307 1.287 . S
C981 C345 1.325 . S
C997 C323 1.287 . S
C999 C367 1.325 . S
C1015 C351 1.287 . S
C1017 C381 1.325 . S
C1033 C285 1.325 . S
C1035 C373 1.287 . S
C1051 C301 1.325 . S
C1053 C389 1.287 . S
C1069 C403 1.287 . S
C1071 C499 1.325 . S
C1087 C439 1.287 . S
C1089 C521 1.324 . S
C1105 C455 1.287 . S
C1107 C417 1.325 . S
C1123 C483 1.287 . S
C1125 C433 1.325 . S
C1141 C447 1.325 . S
C1143 C505 1.287 . S
C1159 C477 1.325 . S
C1161 C527 1.287 . S
C1177 C7 1.505 . S
C1179 C337 1.505 . S
C1195 C359 1.505 . S
C1197 C37 1.505 . S
C1213 C59 1.505 . S
C1215 C395 1.505 . S
C1231 C81 1.505 . S
C1233 C279 1.505 . S
C1249 C293 1.505 . S
C1251 C109 1.505 . S
C1267 C125 1.505 . S
C1269 C329 1.505 . S
C1285 C139 1.505 . S
C1287 C469 1.505 . S
C1303 C491 1.505 . S
C1305 C161 1.505 . S
C1321 C197 1.505 . S
C1323 C513 1.505 . S
C1339 C213 1.505 . S
C1341 C411 1.505 . S
C1357 C425 1.505 . S
C1359 C227 1.505 . S
C1375 C461 1.505 . S
C1377 C263 1.505 . S
C1393 C448 1.375 . S
C1395 C18 1.375 . S
C1411 C480 1.375 . S
C1413 C32 1.375 . S
C1429 C502 1.375 . S
C1431 C54 1.375 . S
C1447 C524 1.375 . S
C1449 C76 1.375 . S
C1465 C406 1.375 . S
C1467 C96 1.375 . S
C1483 C120 1.375 . S
C1485 C436 1.375 . S
C1501 C150 1.375 . S
C1503 C370 1.375 . S
C1519 C382 1.375 . S
C1521 C172 1.375 . S
C1537 C274 1.375 . S
C1539 C184 1.375 . S
C1555 C304 1.375 . S
C1557 C208 1.375 . S
C1573 C238 1.375 . S
C1575 C316 1.375 . S
C1591 C250 1.375 . S
C1593 C348 1.375 . S
C1609 C228 1.265 . S
C1611 C8 1.265 . S
C1627 C252 1.265 . S
C1629 C40 1.265 . S
C1645 C62 1.265 . S
C1647 C140 1.265 . S
C1663 C84 1.265 . S
C1665 C162 1.265 . S
C1681 C186 1.265 . S
C1683 C98 1.265 . S
C1699 C128 1.265 . S
C1701 C216 1.265 . S
C1717 C492 1.265 . S
C1719 C282 1.265 . S
C1735 C514 1.265 . S
C1737 C294 1.265 . S
C1753 C414 1.265 . S
C1755 C318 1.265 . S
C1771 C338 1.265 . S
C1773 C426 1.265 . S
C1789 C450 1.265 . S
C1791 C360 1.265 . S
C1807 C384 1.265 . S
C1809 C470 1.265 . S
