# Generated by pormake.
# Topology unb, (4)-cn, num edge types: 1
# Building blocks:
#     Node 0, Type 0, BuildingBlock: TATPOV_clean_sbu_0, # of connection points: 4
#     Node 1, Type 0, BuildingBlock: TATPOV_clean_sbu_0, # of connection points: 4
#     Node 2, Type 0, BuildingBlock: TATPOV_clean_sbu_0, # of connection points: 4
#     Node 3, Type 0, BuildingBlock: TATPOV_clean_sbu_0, # of connection points: 4
#     Node 4, Type 0, BuildingBlock: TATPOV_clean_sbu_0, # of connection points: 4
#     Node 5, Type 0, BuildingBlock: TATPOV_clean_sbu_0, # of connection points: 4
#     Node 6, Type 0, BuildingBlock: TATPOV_clean_sbu_0, # of connection points: 4
#     Node 7, Type 0, BuildingBlock: TATPOV_clean_sbu_0, # of connection points: 4
#     Node 8, Type 0, BuildingBlock: TATPOV_clean_sbu_0, # of connection points: 4
#     Node 9, Type 0, BuildingBlock: TATPOV_clean_sbu_0, # of connection points: 4
#     Node 10, Type 0, BuildingBlock: TATPOV_clean_sbu_0, # of connection points: 4
#     Node 11, Type 0, BuildingBlock: TATPOV_clean_sbu_0, # of connection points: 4
#     Node 12, Type 0, BuildingBlock: TATPOV_clean_sbu_0, # of connection points: 4
#     Node 13, Type 0, BuildingBlock: TATPOV_clean_sbu_0, # of connection points: 4
#     Node 14, Type 0, BuildingBlock: TATPOV_clean_sbu_0, # of connection points: 4
#     Node 15, Type 0, BuildingBlock: TATPOV_clean_sbu_0, # of connection points: 4
#     Node 16, Type 0, BuildingBlock: TATPOV_clean_sbu_0, # of connection points: 4
#     Node 17, Type 0, BuildingBlock: TATPOV_clean_sbu_0, # of connection points: 4
#     Edge 18, Type (0, 0), BuildingBlock: OJICUG_clean_linker_0, # of connection points: 2
#     Edge 19, Type (0, 0), BuildingBlock: OJICUG_clean_linker_0, # of connection points: 2
#     Edge 20, Type (0, 0), BuildingBlock: OJICUG_clean_linker_0, # of connection points: 2
#     Edge 21, Type (0, 0), BuildingBlock: OJICUG_clean_linker_0, # of connection points: 2
#     Edge 22, Type (0, 0), BuildingBlock: OJICUG_clean_linker_0, # of connection points: 2
#     Edge 23, Type (0, 0), BuildingBlock: OJICUG_clean_linker_0, # of connection points: 2
#     Edge 24, Type (0, 0), BuildingBlock: OJICUG_clean_linker_0, # of connection points: 2
#     Edge 25, Type (0, 0), BuildingBlock: OJICUG_clean_linker_0, # of connection points: 2
#     Edge 26, Type (0, 0), BuildingBlock: OJICUG_clean_linker_0, # of connection points: 2
#     Edge 27, Type (0, 0), BuildingBlock: OJICUG_clean_linker_0, # of connection points: 2
#     Edge 28, Type (0, 0), BuildingBlock: OJICUG_clean_linker_0, # of connection points: 2
#     Edge 29, Type (0, 0), BuildingBlock: OJICUG_clean_linker_0, # of connection points: 2
#     Edge 30, Type (0, 0), BuildingBlock: OJICUG_clean_linker_0, # of connection points: 2
#     Edge 31, Type (0, 0), BuildingBlock: OJICUG_clean_linker_0, # of connection points: 2
#     Edge 32, Type (0, 0), BuildingBlock: OJICUG_clean_linker_0, # of connection points: 2
#     Edge 33, Type (0, 0), BuildingBlock: OJICUG_clean_linker_0, # of connection points: 2
#     Edge 34, Type (0, 0), BuildingBlock: OJICUG_clean_linker_0, # of connection points: 2
#     Edge 35, Type (0, 0), BuildingBlock: OJICUG_clean_linker_0, # of connection points: 2
#     Edge 36, Type (0, 0), BuildingBlock: OJICUG_clean_linker_0, # of connection points: 2
#     Edge 37, Type (0, 0), BuildingBlock: OJICUG_clean_linker_0, # of connection points: 2
#     Edge 38, Type (0, 0), BuildingBlock: OJICUG_clean_linker_0, # of connection points: 2
#     Edge 39, Type (0, 0), BuildingBlock: OJICUG_clean_linker_0, # of connection points: 2
#     Edge 40, Type (0, 0), BuildingBlock: OJICUG_clean_linker_0, # of connection points: 2
#     Edge 41, Type (0, 0), BuildingBlock: OJICUG_clean_linker_0, # of connection points: 2
#     Edge 42, Type (0, 0), BuildingBlock: OJICUG_clean_linker_0, # of connection points: 2
#     Edge 43, Type (0, 0), BuildingBlock: OJICUG_clean_linker_0, # of connection points: 2
#     Edge 44, Type (0, 0), BuildingBlock: OJICUG_clean_linker_0, # of connection points: 2
#     Edge 45, Type (0, 0), BuildingBlock: OJICUG_clean_linker_0, # of connection points: 2
#     Edge 46, Type (0, 0), BuildingBlock: OJICUG_clean_linker_0, # of connection points: 2
#     Edge 47, Type (0, 0), BuildingBlock: OJICUG_clean_linker_0, # of connection points: 2
#     Edge 48, Type (0, 0), BuildingBlock: OJICUG_clean_linker_0, # of connection points: 2
#     Edge 49, Type (0, 0), BuildingBlock: OJICUG_clean_linker_0, # of connection points: 2
#     Edge 50, Type (0, 0), BuildingBlock: OJICUG_clean_linker_0, # of connection points: 2
#     Edge 51, Type (0, 0), BuildingBlock: OJICUG_clean_linker_0, # of connection points: 2
#     Edge 52, Type (0, 0), BuildingBlock: OJICUG_clean_linker_0, # of connection points: 2
#     Edge 53, Type (0, 0), BuildingBlock: OJICUG_clean_linker_0, # of connection points: 2
# Relax obj value: 0.016
# Max RMSD: 0.033
# Mean RMSD: 0.033
data_MOF--net-unb--node1-TATPOV_clean_sbu_0--edge1-OJICUG_clean_linker_0
_symmetry_space_group_name_H-M    P1
_symmetry_Int_Tables_number       1
_symmetry_cell_setting            triclinic
loop_
_symmetry_equiv_pos_as_xyz
'x, y, z'
_cell_length_a     49.58994
_cell_length_b     50.064176
_cell_length_c     17.016194
_cell_angle_alpha  90.129511
_cell_angle_beta   89.792032
_cell_angle_gamma 119.75776
loop_
_atom_site_label
_atom_site_type_symbol
_atom_site_fract_x
_atom_site_fract_y
_atom_site_fract_z
_atom_type_partial_charge
Zn0 Zn 0.06341 0.18402 0.96377 0.0
Zn1 Zn 0.08388 0.21333 0.09722 0.0
O2 O 0.03616 0.1977 0.09589 0.0
O3 O 0.02123 0.17735 0.97814 0.0
O4 O 0.09996 0.23942 0.19926 0.0
O5 O 0.07524 0.15299 0.98736 0.0
O6 O 0.09813 0.18023 0.09372 0.0
C7 C 0.01518 0.18538 0.04319 0.0
C8 C 0.10972 0.24421 0.93826 0.0
O9 O 0.10748 0.24553 1.01261 0.0
O10 O 0.09326 0.21935 0.90184 0.0
C11 C 0.08994 0.25804 0.21364 0.0
O12 O 0.06972 0.25862 0.16502 0.0
C13 C 0.09281 0.15834 0.0458 0.0
Zn14 Zn 0.75193 0.85645 0.97174 0.0
Zn15 Zn 0.72167 0.84183 0.10165 0.0
O16 O 0.74142 0.81316 0.09421 0.0
O17 O 0.76154 0.82317 0.97496 0.0
O18 O 0.69518 0.83023 0.20366 0.0
O19 O 0.7819 0.89888 0.99965 0.0
O20 O 0.75153 0.88948 0.10308 0.0
C21 C 0.75489 0.80758 1.03734 0.0
C22 C 0.69056 0.83816 0.94448 0.0
O23 O 0.68879 0.83198 1.01755 0.0
O24 O 0.71639 0.85045 0.90943 0.0
C25 C 0.67861 0.8021 0.22401 0.0
O26 O 0.68021 0.78095 0.18165 0.0
C27 C 0.77379 0.90842 0.05888 0.0
Zn28 Zn 0.11626 0.87447 0.96715 0.0
Zn29 Zn 0.11962 0.85734 0.10323 0.0
O30 O 0.15383 0.90397 0.09455 0.0
O31 O 0.15527 0.91387 0.96829 0.0
O32 O 0.1258 0.84308 0.21332 0.0
O33 O 0.07612 0.87239 0.98018 0.0
O34 O 0.07355 0.84819 0.09073 0.0
C35 C 0.16611 0.92239 1.03646 0.0
C36 C 0.12044 0.82221 0.957 0.0
O37 O 0.12566 0.82799 1.03005 0.0
O38 O 0.11422 0.83896 0.91429 0.0
C39 C 0.14766 0.83673 0.22164 0.0
O40 O 0.16559 0.84033 0.16091 0.0
C41 C 0.06057 0.85623 1.03787 0.0
Zn42 Zn 0.21444 0.09634 0.13515 0.0
Zn43 Zn 0.23758 0.11391 1.00112 0.0
O44 O 0.22942 0.06881 1.01555 0.0
O45 O 0.21859 0.05936 0.14127 0.0
O46 O 0.26171 0.12986 0.89534 0.0
O47 O 0.17458 0.09333 0.11127 0.0
O48 O 0.19739 0.11817 1.0021 0.0
C49 C 0.22365 0.05121 0.0752 0.0
C50 C 0.26747 0.15148 0.15033 0.0
O51 O 0.26932 0.14539 0.07838 0.0
O52 O 0.24384 0.13378 0.19034 0.0
C53 C 0.26473 0.11263 0.84475 0.0
O54 O 0.24955 0.08273 0.85594 0.0
C55 C 0.17471 0.1081 0.05115 0.0
Zn56 Zn 0.83302 0.09169 0.16411 0.0
Zn57 Zn 0.81972 0.0981 1.0205 0.0
O58 O 0.86701 0.12793 1.03474 0.0
O59 O 0.8759 0.12701 0.16108 0.0
O60 O 0.80991 0.10854 0.90949 0.0
O61 O 0.82521 0.05006 0.14501 0.0
O62 O 0.80914 0.05203 1.02518 0.0
C63 C 0.88563 0.13759 0.09315 0.0
C64 C 0.78437 0.1028 0.1658 0.0
O65 O 0.7911 0.10641 0.09277 0.0
O66 O 0.79901 0.0949 0.21189 0.0
C67 C 0.80662 0.1322 0.90209 0.0
O68 O 0.80973 0.14882 0.96485 0.0
C69 C 0.81341 0.03717 0.08049 0.0
Zn70 Zn 0.87686 0.75012 0.10039 0.0
Zn71 Zn 0.86902 0.72779 0.97068 0.0
O72 O 0.83487 0.74028 0.98992 0.0
O73 O 0.83561 0.74566 0.11815 0.0
O74 O 0.85804 0.7044 0.86297 0.0
O75 O 0.91198 0.79045 0.07497 0.0
O76 O 0.91506 0.76503 0.97267 0.0
C77 C 0.82314 0.74444 0.0528 0.0
C78 C 0.87677 0.69681 0.11623 0.0
O79 O 0.86587 0.69463 0.04721 0.0
O80 O 0.88759 0.72189 0.15307 0.0
C81 C 0.82932 0.68702 0.84627 0.0
O82 O 0.80839 0.68596 0.89569 0.0
C83 C 0.92753 0.78837 1.0189 0.0
Zn84 Zn 0.75247 0.54313 0.31329 0.0
Zn85 Zn 0.77087 0.56518 0.44087 0.0
O86 O 0.72521 0.5576 0.42784 0.0
O87 O 0.71937 0.55346 0.29985 0.0
O88 O 0.78773 0.58793 0.54803 0.0
O89 O 0.74221 0.50078 0.33698 0.0
O90 O 0.77461 0.52514 0.43384 0.0
C91 C 0.70931 0.55545 0.3665 0.0
C92 C 0.80989 0.59163 0.29361 0.0
O93 O 0.80306 0.59602 0.36304 0.0
O94 O 0.79188 0.56723 0.25744 0.0
C95 C 0.78148 0.60896 0.56751 0.0
O96 O 0.76323 0.61396 0.52148 0.0
C97 C 0.76078 0.5016 0.38869 0.0
Zn98 Zn 0.42853 0.20876 0.35079 0.0
Zn99 Zn 0.4015 0.19714 0.47381 0.0
O100 O 0.41506 0.16376 0.45539 0.0
O101 O 0.42155 0.16731 0.32751 0.0
O102 O 0.37605 0.18574 0.57794 0.0
O103 O 0.46947 0.24086 0.39128 0.0
O104 O 0.43655 0.24341 0.47303 0.0
C105 C 0.41953 0.15334 0.39071 0.0
C106 C 0.37467 0.20877 0.32845 0.0
O107 O 0.36993 0.19448 0.39348 0.0
O108 O 0.40147 0.22205 0.29823 0.0
C109 C 0.35143 0.15936 0.57964 0.0
O110 O 0.34503 0.14149 0.51774 0.0
C111 C 0.46288 0.25644 0.43782 0.0
Zn112 Zn 0.79124 0.24993 0.32909 0.0
Zn113 Zn 0.77554 0.21544 0.49121 0.0
O114 O 0.81181 0.25981 0.49239 0.0
O115 O 0.82862 0.25159 0.38327 0.0
O116 O 0.77763 0.19515 0.59613 0.0
O117 O 0.74416 0.22908 0.35437 0.0
O118 O 0.73396 0.21376 0.47843 0.0
C119 C 0.83341 0.26878 0.44166 0.0
C120 C 0.76294 0.18427 0.33115 0.0
O121 O 0.77397 0.18763 0.40072 0.0
O122 O 0.76191 0.20614 0.29608 0.0
C123 C 0.78527 0.17424 0.60038 0.0
O124 O 0.79106 0.16397 0.53502 0.0
C125 C 0.72506 0.21753 0.41107 0.0
Zn126 Zn 0.87743 0.44248 0.41716 0.0
Zn127 Zn 0.89438 0.45055 0.28832 0.0
O128 O 0.88766 0.40714 0.32247 0.0
O129 O 0.89259 0.4145 0.44986 0.0
O130 O 0.91465 0.46018 0.17696 0.0
O131 O 0.83281 0.42457 0.3977 0.0
O132 O 0.85344 0.4538 0.29389 0.0
C133 C 0.89001 0.39799 0.3911 0.0
C134 C 0.9251 0.49912 0.41419 0.0
O135 O 0.92829 0.48621 0.3529 0.0
O136 O 0.89975 0.486 0.45137 0.0
C137 C 0.93997 0.45938 0.17165 0.0
O138 O 0.94948 0.45099 0.23401 0.0
C139 C 0.8308 0.4403 0.34267 0.0
Zn140 Zn 0.53594 0.43223 0.4287 0.0
Zn141 Zn 0.51728 0.43976 0.30386 0.0
O142 O 0.56312 0.47639 0.31929 0.0
O143 O 0.56916 0.47479 0.44658 0.0
O144 O 0.50229 0.44645 0.19499 0.0
O145 O 0.54628 0.40052 0.39341 0.0
O146 O 0.50982 0.39484 0.31119 0.0
C147 C 0.57902 0.4884 0.38173 0.0
C148 C 0.47857 0.42696 0.44902 0.0
O149 O 0.48626 0.4401 0.38215 0.0
O150 O 0.49527 0.41766 0.4814 0.0
C151 C 0.48607 0.45981 0.18907 0.0
O152 O 0.47891 0.46949 0.2534 0.0
C153 C 0.52423 0.38348 0.34825 0.0
Zn154 Zn 0.54553 0.10416 0.42615 0.0
Zn155 Zn 0.54023 0.08408 0.2984 0.0
O156 O 0.50282 0.09218 0.31772 0.0
O157 O 0.50192 0.09255 0.44652 0.0
O158 O 0.53241 0.06196 0.1899 0.0
O159 O 0.57584 0.14724 0.40236 0.0
O160 O 0.58482 0.12383 0.30495 0.0
C161 C 0.48942 0.09242 0.38203 0.0
C162 C 0.5522 0.05475 0.4397 0.0
O163 O 0.53957 0.05138 0.37253 0.0
O164 O 0.56226 0.07993 0.4757 0.0
C165 C 0.50455 0.0411 0.17461 0.0
O166 O 0.48263 0.03629 0.22559 0.0
C167 C 0.59409 0.14724 0.35051 0.0
Zn168 Zn 0.44466 0.89811 0.6471 0.0
Zn169 Zn 0.46258 0.92056 0.77101 0.0
O170 O 0.41463 0.90489 0.76075 0.0
O171 O 0.41021 0.90682 0.63317 0.0
O172 O 0.47738 0.94462 0.87687 0.0
O173 O 0.43498 0.85642 0.68087 0.0
O174 O 0.47211 0.88423 0.76464 0.0
C175 C 0.39823 0.90288 0.70064 0.0
C176 C 0.49888 0.94875 0.62176 0.0
O177 O 0.49089 0.9529 0.69009 0.0
O178 O 0.48379 0.92285 0.58903 0.0
C179 C 0.46587 0.9614 0.89802 0.0
O180 O 0.44403 0.9613 0.85435 0.0
C181 C 0.45611 0.85907 0.72671 0.0
Zn182 Zn 0.0777 0.53593 0.62067 0.0
Zn183 Zn 0.04982 0.5269 0.74287 0.0
O184 O 0.05732 0.48957 0.72147 0.0
O185 O 0.06614 0.49325 0.59444 0.0
O186 O 0.02387 0.51696 0.84657 0.0
O187 O 0.11951 0.56382 0.66426 0.0
O188 O 0.08972 0.57043 0.74861 0.0
C189 C 0.06128 0.47836 0.65752 0.0
C190 C 0.02916 0.54564 0.59642 0.0
O191 O 0.02173 0.53096 0.66141 0.0
O192 O 0.05574 0.55473 0.56718 0.0
C193 C 0.02171 0.49688 0.89623 0.0
O194 O 0.03817 0.48324 0.88417 0.0
C195 C 0.11607 0.58044 0.71453 0.0
Zn196 Zn 0.40406 0.51401 0.64315 0.0
Zn197 Zn 0.41488 0.50185 0.7704 0.0
O198 O 0.44662 0.54849 0.74842 0.0
O199 O 0.44494 0.54981 0.61966 0.0
O200 O 0.42622 0.49199 0.88023 0.0
O201 O 0.36989 0.52123 0.67569 0.0
O202 O 0.36761 0.48903 0.76632 0.0
C203 C 0.4574 0.56288 0.68347 0.0
C204 C 0.40812 0.4625 0.62967 0.0
O205 O 0.42096 0.47333 0.69575 0.0
O206 O 0.39345 0.47374 0.59565 0.0
C207 C 0.44719 0.4843 0.88642 0.0
O208 O 0.46133 0.48295 0.82235 0.0
C209 C 0.35446 0.50108 0.72667 0.0
Zn210 Zn 0.52024 0.74496 0.73341 0.0
Zn211 Zn 0.54929 0.75893 0.60996 0.0
O212 O 0.52931 0.7107 0.61886 0.0
O213 O 0.51623 0.70441 0.74383 0.0
O214 O 0.57494 0.77274 0.50659 0.0
O215 O 0.48472 0.74961 0.7002 0.0
O216 O 0.52155 0.77977 0.61797 0.0
C217 C 0.51995 0.69367 0.68028 0.0
C218 C 0.58064 0.78813 0.76149 0.0
O219 O 0.58273 0.77992 0.69192 0.0
O220 O 0.55437 0.77879 0.79293 0.0
C221 C 0.59223 0.76135 0.48915 0.0
O222 O 0.59157 0.73997 0.53511 0.0
C223 C 0.49618 0.77243 0.65445 0.0
Zn224 Zn 0.22321 0.75733 0.75033 0.0
Zn225 Zn 0.20517 0.77259 0.6277 0.0
O226 O 0.25187 0.80675 0.64482 0.0
O227 O 0.26211 0.79624 0.76276 0.0
O228 O 0.1918 0.78407 0.52243 0.0
O229 O 0.22234 0.7201 0.7078 0.0
O230 O 0.19102 0.72561 0.62676 0.0
C231 C 0.26995 0.81399 0.70427 0.0
C232 C 0.1718 0.76458 0.78088 0.0
O233 O 0.17827 0.77602 0.71196 0.0
O234 O 0.18644 0.75239 0.81045 0.0
C235 C 0.17252 0.79401 0.51797 0.0
O236 O 0.15941 0.7964 0.58275 0.0
C237 C 0.20012 0.70849 0.65965 0.0
Zn238 Zn 0.17161 0.41024 0.73151 0.0
Zn239 Zn 0.16329 0.38413 0.60639 0.0
O240 O 0.13149 0.40055 0.61077 0.0
O241 O 0.13111 0.40816 0.73777 0.0
O242 O 0.15551 0.3597 0.50223 0.0
O243 O 0.20935 0.44897 0.70182 0.0
O244 O 0.21072 0.41627 0.61773 0.0
C245 C 0.11957 0.40637 0.67075 0.0
C246 C 0.16355 0.35337 0.75759 0.0
O247 O 0.15361 0.35087 0.68752 0.0
O248 O 0.17695 0.37931 0.79087 0.0
C249 C 0.12741 0.34163 0.48187 0.0
O250 O 0.10506 0.34088 0.5252 0.0
C251 C 0.22468 0.44153 0.65631 0.0
C252 C 0.13874 0.31031 0.38278 0.0
C253 C 0.11914 0.32101 0.41183 0.0
H254 H 0.14469 0.2813 0.29868 0.0
C255 C 0.09014 0.31045 0.3757 0.0
H256 H 0.16112 0.31776 0.40971 0.0
C257 C 0.081 0.29007 0.31208 0.0
C258 C 0.10022 0.27897 0.28335 0.0
H259 H 0.07441 0.3181 0.39638 0.0
H260 H 0.05854 0.28277 0.28573 0.0
C261 C 0.12921 0.2892 0.31972 0.0
C262 C 0.62417 0.80129 0.38565 0.0
C263 C 0.61371 0.77218 0.41997 0.0
H264 H 0.65342 0.83402 0.29811 0.0
C265 C 0.62516 0.75354 0.38975 0.0
H266 H 0.61603 0.81635 0.40783 0.0
C267 C 0.64617 0.76346 0.32678 0.0
C268 C 0.65696 0.79261 0.29278 0.0
H269 H 0.61773 0.73102 0.41455 0.0
H270 H 0.65417 0.74822 0.30505 0.0
C271 C 0.6458 0.81152 0.32324 0.0
C272 C 0.18165 0.8052 0.37237 0.0
C273 C 0.16549 0.804 0.44148 0.0
H274 H 0.18883 0.81643 0.24992 0.0
C275 C 0.14288 0.81327 0.43736 0.0
H276 H 0.19921 0.79834 0.37298 0.0
C277 C 0.13679 0.82363 0.36641 0.0
C278 C 0.15326 0.8252 0.29756 0.0
H279 H 0.12988 0.81267 0.48923 0.0
H280 H 0.11937 0.83066 0.36575 0.0
C281 C 0.17569 0.81571 0.30162 0.0
C282 C 0.33123 0.16809 0.70967 0.0
C283 C 0.32965 0.14834 0.6485 0.0
H284 H 0.31176 0.17265 0.81897 0.0
C285 C 0.3061 0.11728 0.65209 0.0
H286 H 0.3489 0.19217 0.70876 0.0
C287 C 0.28505 0.10614 0.71493 0.0
C288 C 0.28649 0.12569 0.77624 0.0
H289 H 0.30396 0.10127 0.60635 0.0
H290 H 0.26757 0.08198 0.71537 0.0
C291 C 0.30977 0.15693 0.77258 0.0
C292 C 0.79575 0.13806 0.68144 0.0
C293 C 0.78921 0.16246 0.67786 0.0
H294 H 0.80613 0.10921 0.75403 0.0
C295 C 0.78758 0.17598 0.74887 0.0
H296 H 0.79716 0.12698 0.6281 0.0
C297 C 0.79292 0.16587 0.82103 0.0
C298 C 0.79986 0.14177 0.82463 0.0
H299 H 0.78264 0.19477 0.74877 0.0
H300 H 0.79176 0.17719 0.87421 0.0
C301 C 0.80088 0.12779 0.75378 0.0
C302 C 0.78952 0.66032 0.74126 0.0
C303 C 0.81857 0.66786 0.77318 0.0
H304 H 0.75546 0.63631 0.65236 0.0
C305 C 0.8355 0.65531 0.73745 0.0
H306 H 0.77575 0.66944 0.76708 0.0
C307 C 0.8233 0.63535 0.6721 0.0
C308 C 0.79429 0.62818 0.63999 0.0
H309 H 0.85781 0.66037 0.76098 0.0
H310 H 0.8368 0.62601 0.64588 0.0
C311 C 0.77779 0.64117 0.67534 0.0
C312 C 0.95656 0.48606 1.03833 0.0
C313 C 0.95962 0.46854 0.09878 0.0
H314 H 0.97397 0.50931 0.92758 0.0
C315 C -0.01681 0.46079 0.09142 0.0
H316 H 0.93884 0.49265 0.04215 0.0
C317 C 0.00306 0.47012 1.02616 0.0
C318 C 0.00043 0.48791 0.96603 0.0
H319 H -0.01361 0.44735 0.13642 0.0
H320 H 0.02075 0.46345 1.02328 0.0
C321 C -0.02312 0.49581 0.97294 0.0
C322 C 0.45468 0.47663 0.10762 0.0
C323 C 0.47549 0.4651 0.1113 0.0
H324 H 0.42927 0.49149 1.03488 0.0
C325 C 0.48626 0.45938 0.04025 0.0
H326 H 0.44574 0.48126 0.16098 0.0
C327 C 0.4769 0.46547 0.96779 0.0
C328 C 0.45628 0.47722 0.96413 0.0
H329 H 0.50226 0.45056 0.04053 0.0
H330 H 0.48597 0.461 0.91444 0.0
C331 C 0.44512 0.48248 1.03515 0.0
C332 C 0.46564 0.00888 0.07245 0.0
C333 C 0.49602 0.02174 0.10196 0.0
H334 H 0.43265 0.98025 0.9859 0.0
C335 C 0.51671 0.01416 0.06434 0.0
H336 H 0.44902 0.01408 0.09983 0.0
C337 C 0.50694 -0.00617 0.99947 0.0
C338 C 0.47653 -0.01869 0.96978 0.0
H339 H 0.54018 0.02338 0.08603 0.0
H340 H 0.52331 -0.01162 0.97176 0.0
C341 C 0.45619 -0.01066 1.00701 0.0
C342 C 0.14503 0.30077 0.93017 0.0
C343 C 0.12922 0.27207 0.89282 0.0
H344 H 0.16892 0.34948 0.91576 0.0
C345 C 0.12958 0.27042 0.81039 0.0
H346 H 0.14553 0.30263 0.99366 0.0
C347 C 0.14275 0.29715 0.76587 0.0
C348 C 0.15595 0.32583 0.80323 0.0
H349 H 0.11812 0.24853 0.77997 0.0
H350 H 0.14112 0.29527 0.70241 0.0
C351 C 0.15845 0.32755 0.88554 0.0
C352 C 0.63773 0.81987 0.77156 0.0
C353 C 0.60863 0.80547 0.8084 0.0
H354 H 0.68669 0.84191 0.78627 0.0
C355 C 0.60663 0.80505 0.89079 0.0
H356 H 0.6398 0.8208 0.70807 0.0
C357 C 0.63347 0.81682 0.93579 0.0
C358 C 0.66251 0.8294 0.89873 0.0
H359 H 0.58434 0.79417 0.92053 0.0
H360 H 0.63138 0.81504 0.99921 0.0
C361 C 0.66452 0.83191 0.81643 0.0
C362 C 0.11727 0.79178 0.83942 0.0
C363 C 0.1254 0.79881 0.91885 0.0
H364 H 0.12576 0.7748 0.73257 0.0
C365 C 0.14262 0.78729 0.95636 0.0
H366 H 0.10315 0.79959 0.80971 0.0
C367 C 0.15526 0.77273 0.91212 0.0
C368 C 0.15086 0.76993 0.83034 0.0
H369 H 0.1487 0.79195 1.01792 0.0
H370 H 0.17087 0.76653 0.94063 0.0
C371 C 0.13012 0.77757 0.79523 0.0
C372 C 0.31926 0.19373 0.31772 0.0
C373 C 0.34823 0.20458 0.28158 0.0
H374 H 0.27023 0.16903 0.30276 0.0
C375 C 0.3504 0.20543 0.19916 0.0
H376 H 0.31716 0.19364 0.38115 0.0
C377 C 0.32352 0.19086 0.1541 0.0
C378 C 0.29447 0.17574 0.19143 0.0
H379 H 0.37264 0.21427 0.16984 0.0
H380 H 0.32566 0.18886 0.09127 0.0
C381 C 0.29245 0.17961 0.2727 0.0
C382 C 0.7584 0.10977 0.28163 0.0
C383 C 0.76509 0.11433 0.20081 0.0
H384 H 0.75266 0.12922 0.38778 0.0
C385 C 0.76108 0.13653 0.16073 0.0
H386 H 0.76024 0.09202 0.31345 0.0
C387 C 0.75649 0.1577 0.20337 0.0
C388 C 0.75605 0.15669 0.28599 0.0
H389 H 0.76536 0.14003 0.0981 0.0
H390 H 0.7569 0.17673 0.17213 0.0
C391 C 0.75424 0.13113 0.32431 0.0
C392 C 0.85458 0.64033 0.12328 0.0
C393 C 0.87015 0.66909 0.16018 0.0
H394 H 0.82332 0.59243 0.13806 0.0
C395 C 0.87282 0.67066 0.24259 0.0
H396 H 0.85293 0.63843 0.05983 0.0
C397 C 0.85531 0.64443 0.28755 0.0
C398 C 0.83566 0.61647 0.25026 0.0
H399 H 0.88551 0.69254 0.27268 0.0
H400 H 0.85506 0.64666 0.35086 0.0
C401 C 0.83751 0.61402 0.16828 0.0
C402 C -0.01817 0.53541 0.4186 0.0
C403 C 0.95252 0.52355 0.45389 0.0
H404 H 0.03015 0.5528 0.4378 0.0
C405 C 0.95052 0.52877 0.53445 0.0
H406 H -0.01593 0.53245 0.35626 0.0
C407 C -0.02324 0.53967 0.5815 0.0
C408 C 0.0052 0.54628 0.54777 0.0
H409 H 0.92824 0.52074 0.56299 0.0
H410 H 0.97415 0.5399 0.64471 0.0
C411 C 0.00821 0.547 0.4655 0.0
C412 C 0.43378 0.43093 0.62104 0.0
C413 C 0.41675 0.44291 0.58467 0.0
H414 H 0.46679 0.41588 0.60537 0.0
C415 C 0.41426 0.44208 0.50232 0.0
H416 H 0.43551 0.43072 0.68448 0.0
C417 C 0.43264 0.4342 0.45698 0.0
C418 C 0.45308 0.42648 0.49371 0.0
H419 H 0.40077 0.45063 0.47267 0.0
H420 H 0.43263 0.43651 0.39368 0.0
C421 C 0.45176 0.42255 0.57564 0.0
C422 C 0.53938 0.00371 0.61093 0.0
C423 C 0.52149 0.97497 0.57523 0.0
H424 H 0.56464 0.05223 0.59441 0.0
C425 C 0.52141 0.97256 0.49287 0.0
H426 H 0.54049 0.00603 0.67434 0.0
C427 C 0.53482 -0.00098 0.44693 0.0
C428 C 0.54874 0.02797 0.48311 0.0
H429 H 0.50836 0.95052 0.46373 0.0
H430 H 0.53171 -0.00325 0.38379 0.0
C431 C 0.55327 0.03013 0.56496 0.0
C432 C 0.12102 0.13562 0.97704 0.0
C433 C 0.11134 0.1428 0.04824 0.0
H434 H 0.14933 0.11953 0.9217 0.0
C435 C 0.12146 0.1371 0.11947 0.0
H436 H 0.11383 0.14022 0.92102 0.0
C437 C 0.14102 0.1245 0.11954 0.0
C438 C 0.15159 0.11833 0.04835 0.0
H439 H 0.11448 0.14261 0.17483 0.0
H440 H 0.14887 0.12074 0.1756 0.0
C441 C 0.1414 0.12394 0.97707 0.0
C442 C 0.80527 -0.00849 1.00231 0.0
C443 C 0.8034 0.00432 0.07372 0.0
H444 H 0.79836 0.95109 0.94257 0.0
C445 C 0.79301 -0.01427 0.14147 0.0
H446 H 0.81344 0.00547 0.94968 0.0
C447 C 0.78405 0.95461 0.13763 0.0
C448 C 0.78608 0.94176 0.06637 0.0
H449 H 0.79132 -0.00482 0.19744 0.0
H450 H 0.77539 0.94062 0.19011 0.0
C451 C 0.79704 0.96054 0.99886 0.0
C452 C 0.97606 0.81881 0.09514 0.0
C453 C 0.96143 0.80882 1.02139 0.0
H454 H 0.01906 0.84115 0.15867 0.0
C455 C -0.02034 0.8162 0.95349 0.0
H456 H 0.96252 0.81303 0.14886 0.0
C457 C 0.01199 0.83307 0.95936 0.0
C458 C 0.02658 0.8419 1.0334 0.0
H459 H 0.96898 0.80858 0.89632 0.0
H460 H 0.02563 0.83801 0.90599 0.0
C461 C 0.00837 0.83476 0.1012 0.0
C462 C 0.78894 0.75833 0.97711 0.0
C463 C 0.79872 0.75308 0.04964 0.0
H464 H 0.76674 0.7794 0.91683 0.0
C465 C 0.78854 0.76071 0.11933 0.0
H466 H 0.79596 0.75234 0.92253 0.0
C467 C 0.77183 0.77639 0.11618 0.0
C468 C 0.76513 0.78462 0.04331 0.0
H469 H 0.79531 0.75649 0.17639 0.0
H470 H 0.76628 0.78402 0.17038 0.0
C471 C 0.77231 0.77398 0.974 0.0
C472 C 0.19494 0.96812 0.12379 0.0
C473 C 0.18915 0.95519 0.04837 0.0
H474 H 0.21125 0.00915 0.19157 0.0
C475 C 0.20133 0.97481 0.98276 0.0
H476 H 0.18627 0.95366 0.17549 0.0
C477 C 0.2154 0.00665 0.99173 0.0
C478 C 0.21767 0.01936 0.0665 0.0
H479 H 0.19785 0.96554 0.92373 0.0
H480 H 0.2222 0.02098 0.93967 0.0
C481 C 0.20917 -2e-05 0.1328 0.0
C482 C 0.93163 0.16181 1.00421 0.0
C483 C 0.91942 0.15678 0.08059 0.0
H484 H 0.97169 0.17494 0.93278 0.0
C485 C 0.93991 0.16592 0.145 0.0
H486 H 0.91657 0.15533 0.95339 0.0
C487 C 0.97165 0.17714 0.13322 0.0
C488 C -0.01676 0.17922 0.05692 0.0
H489 H 0.93122 0.16266 0.20474 0.0
H490 H -0.01335 0.18234 0.18381 0.0
C491 C 0.96322 0.17282 0.99251 0.0
C492 C 0.78368 0.47084 0.44226 0.0
C493 C 0.7734 0.48072 0.37822 0.0
H494 H 0.80889 0.44903 0.48047 0.0
C495 C 0.77921 0.47415 0.30129 0.0
H496 H 0.77977 0.47591 0.50178 0.0
C497 C 0.79684 0.45976 0.28861 0.0
C498 C 0.80791 0.45068 0.35271 0.0
H499 H 0.77192 0.48201 0.25062 0.0
H500 H 0.80262 0.45665 0.22911 0.0
C501 C 0.80026 0.45541 0.42961 0.0
C502 C 0.52623 0.33587 0.38106 0.0
C503 C 0.50875 0.3502 0.36371 0.0
H504 H 0.52529 0.29459 0.41957 0.0
C505 C 0.4766 0.33421 0.378 0.0
H506 H 0.55119 0.34806 0.37256 0.0
C507 C 0.4622 0.30453 0.40918 0.0
C508 C 0.4795 0.28991 0.42497 0.0
H509 H 0.46269 0.34506 0.36769 0.0
H510 H 0.43724 0.29254 0.41771 0.0
C511 C 0.51162 0.30572 0.40991 0.0
C512 C 0.64917 0.17338 0.3016 0.0
C513 C 0.62752 0.1699 0.35946 0.0
H514 H 0.69713 0.19184 0.27254 0.0
C515 C 0.63844 0.1848 0.43262 0.0
H516 H 0.64154 0.16206 0.24517 0.0
C517 C 0.67017 0.20097 0.4494 0.0
C518 C 0.6917 0.20348 0.39253 0.0
H519 H 0.62241 0.18244 0.47907 0.0
H520 H 0.67781 0.2109 0.50727 0.0
C521 C 0.68097 0.19039 0.31762 0.0
C522 C 0.45267 0.1039 0.45572 0.0
C523 C 0.46339 0.09891 0.38327 0.0
H524 H 0.43 0.12509 0.51528 0.0
C525 C 0.45295 0.1055 0.31351 0.0
H526 H 0.45975 0.09846 0.51077 0.0
C527 C 0.43549 0.12039 0.31633 0.0
C528 C 0.42849 0.12924 0.38894 0.0
H529 H 0.4603 0.10145 0.25686 0.0
H530 H 0.42977 0.12723 0.26134 0.0
C531 C 0.43549 0.1191 0.45855 0.0
C532 C 0.86168 0.32231 0.495 0.0
C533 C 0.85473 0.30215 0.43143 0.0
H534 H 0.87944 0.36871 0.53229 0.0
C535 C 0.86483 0.31447 0.35555 0.0
H536 H 0.85452 0.31351 0.55406 0.0
C537 C 0.87857 0.34612 0.3425 0.0
C538 C 0.88304 0.36605 0.4053 0.0
H539 H 0.86006 0.29955 0.30513 0.0
H540 H 0.88396 0.35471 0.28283 0.0
C541 C 0.87602 0.35397 0.4822 0.0
C542 C 0.62893 0.52447 0.44806 0.0
C543 C 0.61132 0.5143 0.3784 0.0
H544 H 0.67428 0.54603 0.49926 0.0
C545 C 0.62644 0.52505 0.30607 0.0
H546 H 0.6179 0.51722 0.5051 0.0
C547 C 0.65884 0.54204 0.30301 0.0
C548 C 0.67659 0.54819 0.37214 0.0
H549 H 0.61355 0.51814 0.25152 0.0
H550 H 0.66992 0.54782 0.24578 0.0
C551 C 0.66133 0.54116 0.44496 0.0
C552 C 0.50749 0.8261 0.67611 0.0
C553 C 0.48554 0.79489 0.66481 0.0
H554 H 0.51539 0.87076 0.70944 0.0
C555 C 0.45408 0.78465 0.68033 0.0
H556 H 0.53202 0.8344 0.66698 0.0
C557 C 0.44464 0.80537 0.70503 0.0
C558 C 0.46661 0.83649 0.71724 0.0
H559 H 0.43683 0.76056 0.67393 0.0
H560 H 0.42011 0.79717 0.71384 0.0
C561 C 0.49813 0.84668 0.70289 0.0
C562 C 0.14691 0.66438 0.67652 0.0
C563 C 0.17878 0.67514 0.66589 0.0
H564 H 0.10236 0.62622 0.7054 0.0
C565 C 0.19029 0.6549 0.67841 0.0
H566 H 0.13754 0.67973 0.66984 0.0
C567 C 0.17009 0.62421 0.69893 0.0
C568 C 0.13828 0.61362 0.71042 0.0
H569 H 0.2149 0.66289 0.67265 0.0
H570 H 0.17921 0.60864 0.70498 0.0
C571 C 0.12693 0.63404 0.69948 0.0
C572 C 0.30374 0.45384 0.70717 0.0
C573 C 0.32053 0.48577 0.7195 0.0
H574 H 0.26046 0.41503 0.6727 0.0
C575 C 0.30603 0.50332 0.70609 0.0
H576 H 0.31474 0.43996 0.71458 0.0
C577 C 0.27505 0.4891 0.682 0.0
C578 C 0.25847 0.45728 0.6679 0.0
H579 H 0.31884 0.5281 0.71317 0.0
H580 H 0.264 0.50294 0.67439 0.0
C581 C 0.27306 0.43976 0.68073 0.0
C582 C 0.0832 0.42125 0.73188 0.0
C583 C 0.09609 0.41617 0.66334 0.0
H584 H 0.06158 0.44485 0.78394 0.0
C585 C 0.09049 0.4256 0.59075 0.0
H586 H 0.08646 0.41357 0.78872 0.0
C587 C 0.07583 0.44327 0.58808 0.0
C588 C 0.06682 0.45194 0.65802 0.0
H589 H 0.0997 0.42165 0.53691 0.0
H590 H 0.07403 0.45229 0.53175 0.0
C591 C 0.06878 0.43909 0.7293 0.0
C592 C 0.48844 0.61213 0.60967 0.0
C593 C 0.48026 0.5961 0.6818 0.0
H594 H 0.50764 0.65594 0.55222 0.0
C595 C 0.49038 0.6128 0.75194 0.0
H596 H 0.48136 0.59988 0.5543 0.0
C597 C 0.50552 0.64482 0.75043 0.0
C598 C 0.51073 0.66077 0.67879 0.0
H599 H 0.48486 0.60119 0.80826 0.0
H600 H 0.51152 0.65701 0.80599 0.0
C601 C 0.50354 0.64426 0.60819 0.0
C602 C 0.3148 0.85846 0.63673 0.0
C603 C 0.30082 0.84208 0.70564 0.0
H604 H 0.35695 0.89181 0.58162 0.0
C605 C 0.31773 0.85117 0.7764 0.0
H606 H 0.30221 0.85239 0.58171 0.0
C607 C 0.349 0.87378 0.77666 0.0
C608 C 0.364 0.88768 0.70609 0.0
H609 H 0.30733 0.83956 0.83116 0.0
H610 H 0.36192 0.87847 0.83099 0.0
C611 C 0.34616 0.88116 0.63699 0.0
loop_
_geom_bond_atom_site_label_1
_geom_bond_atom_site_label_2
_geom_bond_distance
_geom_bond_site_symmetry_2
_ccdc_geom_bond_type
Zn0 O3 2.031 . S
Zn0 O5 2.049 . S
Zn0 O10 2.067 . S
Zn1 O2 1.962 . S
Zn1 O4 1.986 . S
Zn1 O6 1.996 . S
Zn1 O9 1.943 . S
O2 Zn1 1.962 . S
O2 C7 1.254 . S
O3 Zn0 2.031 . S
O3 C7 1.269 1_556 S
O4 Zn1 1.986 . S
O4 C11 1.262 . S
O5 Zn0 2.049 . S
O5 C13 1.260 1_556 S
O6 Zn1 1.996 . S
O6 C13 1.257 . S
C7 O2 1.254 . S
C7 O3 1.269 1_554 S
C8 O9 1.249 1_556 S
C8 O10 1.270 . S
O9 Zn1 1.943 . S
O9 C8 1.249 1_554 S
O10 Zn0 2.067 . S
O10 C8 1.270 . S
C11 O4 1.262 . S
C11 O12 1.232 . S
O12 C11 1.232 . S
C13 O5 1.260 1_554 S
C13 O6 1.257 . S
Zn14 O17 2.031 . S
Zn14 O19 2.049 . S
Zn14 O24 2.067 . S
Zn15 O16 1.962 . S
Zn15 O18 1.986 . S
Zn15 O20 1.996 . S
Zn15 O23 1.943 . S
O16 Zn15 1.962 . S
O16 C21 1.254 . S
O17 Zn14 2.031 . S
O17 C21 1.269 1_556 S
O18 Zn15 1.986 . S
O18 C25 1.262 . S
O19 Zn14 2.049 . S
O19 C27 1.260 1_556 S
O20 Zn15 1.996 . S
O20 C27 1.257 . S
C21 O16 1.254 . S
C21 O17 1.269 1_554 S
C22 O23 1.249 1_556 S
C22 O24 1.270 . S
O23 Zn15 1.943 . S
O23 C22 1.249 1_554 S
O24 Zn14 2.067 . S
O24 C22 1.270 . S
C25 O18 1.262 . S
C25 O26 1.232 . S
O26 C25 1.232 . S
C27 O19 1.260 1_554 S
C27 O20 1.257 . S
Zn28 O31 2.031 . S
Zn28 O33 2.049 . S
Zn28 O38 2.067 . S
Zn29 O30 1.962 . S
Zn29 O32 1.986 . S
Zn29 O34 1.996 . S
Zn29 O37 1.943 . S
O30 Zn29 1.962 . S
O30 C35 1.254 . S
O31 Zn28 2.031 . S
O31 C35 1.269 1_556 S
O32 Zn29 1.986 . S
O32 C39 1.262 . S
O33 Zn28 2.049 . S
O33 C41 1.260 1_556 S
O34 Zn29 1.996 . S
O34 C41 1.257 . S
C35 O30 1.254 . S
C35 O31 1.269 1_554 S
C36 O37 1.249 1_556 S
C36 O38 1.270 . S
O37 Zn29 1.943 . S
O37 C36 1.249 1_554 S
O38 Zn28 2.067 . S
O38 C36 1.270 . S
C39 O32 1.262 . S
C39 O40 1.232 . S
O40 C39 1.232 . S
C41 O33 1.260 1_554 S
C41 O34 1.257 . S
Zn42 O45 2.031 . S
Zn42 O47 2.049 . S
Zn42 O52 2.067 . S
Zn43 O44 1.962 . S
Zn43 O46 1.986 . S
Zn43 O48 1.996 . S
Zn43 O51 1.943 . S
O44 Zn43 1.962 . S
O44 C49 1.254 . S
O45 Zn42 2.031 . S
O45 C49 1.269 1_554 S
O46 Zn43 1.986 . S
O46 C53 1.262 . S
O47 Zn42 2.049 . S
O47 C55 1.260 1_554 S
O48 Zn43 1.996 . S
O48 C55 1.257 . S
C49 O44 1.254 . S
C49 O45 1.269 1_556 S
C50 O51 1.249 1_554 S
C50 O52 1.270 . S
O51 Zn43 1.943 . S
O51 C50 1.249 1_556 S
O52 Zn42 2.067 . S
O52 C50 1.270 . S
C53 O46 1.262 . S
C53 O54 1.232 . S
O54 C53 1.232 . S
C55 O47 1.260 1_556 S
C55 O48 1.257 . S
Zn56 O59 2.031 . S
Zn56 O61 2.049 . S
Zn56 O66 2.067 . S
Zn57 O58 1.962 . S
Zn57 O60 1.986 . S
Zn57 O62 1.996 . S
Zn57 O65 1.943 . S
O58 Zn57 1.962 . S
O58 C63 1.254 . S
O59 Zn56 2.031 . S
O59 C63 1.269 1_554 S
O60 Zn57 1.986 . S
O60 C67 1.262 . S
O61 Zn56 2.049 . S
O61 C69 1.260 1_554 S
O62 Zn57 1.996 . S
O62 C69 1.257 . S
C63 O58 1.254 . S
C63 O59 1.269 1_556 S
C64 O65 1.249 1_554 S
C64 O66 1.270 . S
O65 Zn57 1.943 . S
O65 C64 1.249 1_556 S
O66 Zn56 2.067 . S
O66 C64 1.270 . S
C67 O60 1.262 . S
C67 O68 1.232 . S
O68 C67 1.232 . S
C69 O61 1.260 1_556 S
C69 O62 1.257 . S
Zn70 O73 2.031 . S
Zn70 O75 2.049 . S
Zn70 O80 2.067 . S
Zn71 O72 1.962 . S
Zn71 O74 1.986 . S
Zn71 O76 1.996 . S
Zn71 O79 1.943 . S
O72 Zn71 1.962 . S
O72 C77 1.254 . S
O73 Zn70 2.031 . S
O73 C77 1.269 1_554 S
O74 Zn71 1.986 . S
O74 C81 1.262 . S
O75 Zn70 2.049 . S
O75 C83 1.260 1_554 S
O76 Zn71 1.996 . S
O76 C83 1.257 . S
C77 O72 1.254 . S
C77 O73 1.269 1_556 S
C78 O79 1.249 1_554 S
C78 O80 1.270 . S
O79 Zn71 1.943 . S
O79 C78 1.249 1_556 S
O80 Zn70 2.067 . S
O80 C78 1.270 . S
C81 O74 1.262 . S
C81 O82 1.232 . S
O82 C81 1.232 . S
C83 O75 1.260 1_556 S
C83 O76 1.257 . S
Zn84 O87 2.031 . S
Zn84 O89 2.049 . S
Zn84 O94 2.067 . S
Zn85 O86 1.962 . S
Zn85 O88 1.986 . S
Zn85 O90 1.996 . S
Zn85 O93 1.943 . S
O86 Zn85 1.962 . S
O86 C91 1.254 . S
O87 Zn84 2.031 . S
O87 C91 1.269 . S
O88 Zn85 1.986 . S
O88 C95 1.262 . S
O89 Zn84 2.049 . S
O89 C97 1.260 . S
O90 Zn85 1.996 . S
O90 C97 1.257 . S
C91 O86 1.254 . S
C91 O87 1.269 . S
C92 O93 1.249 . S
C92 O94 1.270 . S
O93 Zn85 1.943 . S
O93 C92 1.249 . S
O94 Zn84 2.067 . S
O94 C92 1.270 . S
C95 O88 1.262 . S
C95 O96 1.232 . S
O96 C95 1.232 . S
C97 O89 1.260 . S
C97 O90 1.257 . S
Zn98 O101 2.031 . S
Zn98 O103 2.049 . S
Zn98 O108 2.067 . S
Zn99 O100 1.962 . S
Zn99 O102 1.986 . S
Zn99 O104 1.996 . S
Zn99 O107 1.943 . S
O100 Zn99 1.962 . S
O100 C105 1.254 . S
O101 Zn98 2.031 . S
O101 C105 1.269 . S
O102 Zn99 1.986 . S
O102 C109 1.262 . S
O103 Zn98 2.049 . S
O103 C111 1.260 . S
O104 Zn99 1.996 . S
O104 C111 1.257 . S
C105 O100 1.254 . S
C105 O101 1.269 . S
C106 O107 1.249 . S
C106 O108 1.270 . S
O107 Zn99 1.943 . S
O107 C106 1.249 . S
O108 Zn98 2.067 . S
O108 C106 1.270 . S
C109 O102 1.262 . S
C109 O110 1.232 . S
O110 C109 1.232 . S
C111 O103 1.260 . S
C111 O104 1.257 . S
Zn112 O115 2.031 . S
Zn112 O117 2.049 . S
Zn112 O122 2.067 . S
Zn113 O114 1.962 . S
Zn113 O116 1.986 . S
Zn113 O118 1.996 . S
Zn113 O121 1.943 . S
O114 Zn113 1.962 . S
O114 C119 1.254 . S
O115 Zn112 2.031 . S
O115 C119 1.269 . S
O116 Zn113 1.986 . S
O116 C123 1.262 . S
O117 Zn112 2.049 . S
O117 C125 1.260 . S
O118 Zn113 1.996 . S
O118 C125 1.257 . S
C119 O114 1.254 . S
C119 O115 1.269 . S
C120 O121 1.249 . S
C120 O122 1.270 . S
O121 Zn113 1.943 . S
O121 C120 1.249 . S
O122 Zn112 2.067 . S
O122 C120 1.270 . S
C123 O116 1.262 . S
C123 O124 1.232 . S
O124 C123 1.232 . S
C125 O117 1.260 . S
C125 O118 1.257 . S
Zn126 O129 2.031 . S
Zn126 O131 2.049 . S
Zn126 O136 2.067 . S
Zn127 O128 1.962 . S
Zn127 O130 1.986 . S
Zn127 O132 1.996 . S
Zn127 O135 1.943 . S
O128 Zn127 1.962 . S
O128 C133 1.254 . S
O129 Zn126 2.031 . S
O129 C133 1.269 . S
O130 Zn127 1.986 . S
O130 C137 1.262 . S
O131 Zn126 2.049 . S
O131 C139 1.260 . S
O132 Zn127 1.996 . S
O132 C139 1.257 . S
C133 O128 1.254 . S
C133 O129 1.269 . S
C134 O135 1.249 . S
C134 O136 1.270 . S
O135 Zn127 1.943 . S
O135 C134 1.249 . S
O136 Zn126 2.067 . S
O136 C134 1.270 . S
C137 O130 1.262 . S
C137 O138 1.232 . S
O138 C137 1.232 . S
C139 O131 1.260 . S
C139 O132 1.257 . S
Zn140 O143 2.031 . S
Zn140 O145 2.049 . S
Zn140 O150 2.067 . S
Zn141 O142 1.962 . S
Zn141 O144 1.986 . S
Zn141 O146 1.996 . S
Zn141 O149 1.943 . S
O142 Zn141 1.962 . S
O142 C147 1.254 . S
O143 Zn140 2.031 . S
O143 C147 1.269 . S
O144 Zn141 1.986 . S
O144 C151 1.262 . S
O145 Zn140 2.049 . S
O145 C153 1.260 . S
O146 Zn141 1.996 . S
O146 C153 1.257 . S
C147 O142 1.254 . S
C147 O143 1.269 . S
C148 O149 1.249 . S
C148 O150 1.270 . S
O149 Zn141 1.943 . S
O149 C148 1.249 . S
O150 Zn140 2.067 . S
O150 C148 1.270 . S
C151 O144 1.262 . S
C151 O152 1.232 . S
O152 C151 1.232 . S
C153 O145 1.260 . S
C153 O146 1.257 . S
Zn154 O157 2.031 . S
Zn154 O159 2.049 . S
Zn154 O164 2.067 . S
Zn155 O156 1.962 . S
Zn155 O158 1.986 . S
Zn155 O160 1.996 . S
Zn155 O163 1.943 . S
O156 Zn155 1.962 . S
O156 C161 1.254 . S
O157 Zn154 2.031 . S
O157 C161 1.269 . S
O158 Zn155 1.986 . S
O158 C165 1.262 . S
O159 Zn154 2.049 . S
O159 C167 1.260 . S
O160 Zn155 1.996 . S
O160 C167 1.257 . S
C161 O156 1.254 . S
C161 O157 1.269 . S
C162 O163 1.249 . S
C162 O164 1.270 . S
O163 Zn155 1.943 . S
O163 C162 1.249 . S
O164 Zn154 2.067 . S
O164 C162 1.270 . S
C165 O158 1.262 . S
C165 O166 1.232 . S
O166 C165 1.232 . S
C167 O159 1.260 . S
C167 O160 1.257 . S
Zn168 O171 2.031 . S
Zn168 O173 2.049 . S
Zn168 O178 2.067 . S
Zn169 O170 1.962 . S
Zn169 O172 1.986 . S
Zn169 O174 1.996 . S
Zn169 O177 1.943 . S
O170 Zn169 1.962 . S
O170 C175 1.254 . S
O171 Zn168 2.031 . S
O171 C175 1.269 . S
O172 Zn169 1.986 . S
O172 C179 1.262 . S
O173 Zn168 2.049 . S
O173 C181 1.260 . S
O174 Zn169 1.996 . S
O174 C181 1.257 . S
C175 O170 1.254 . S
C175 O171 1.269 . S
C176 O177 1.249 . S
C176 O178 1.270 . S
O177 Zn169 1.943 . S
O177 C176 1.249 . S
O178 Zn168 2.067 . S
O178 C176 1.270 . S
C179 O172 1.262 . S
C179 O180 1.232 . S
O180 C179 1.232 . S
C181 O173 1.260 . S
C181 O174 1.257 . S
Zn182 O185 2.031 . S
Zn182 O187 2.049 . S
Zn182 O192 2.067 . S
Zn183 O184 1.962 . S
Zn183 O186 1.986 . S
Zn183 O188 1.996 . S
Zn183 O191 1.943 . S
O184 Zn183 1.962 . S
O184 C189 1.254 . S
O185 Zn182 2.031 . S
O185 C189 1.269 . S
O186 Zn183 1.986 . S
O186 C193 1.262 . S
O187 Zn182 2.049 . S
O187 C195 1.260 . S
O188 Zn183 1.996 . S
O188 C195 1.257 . S
C189 O184 1.254 . S
C189 O185 1.269 . S
C190 O191 1.249 . S
C190 O192 1.270 . S
O191 Zn183 1.943 . S
O191 C190 1.249 . S
O192 Zn182 2.067 . S
O192 C190 1.270 . S
C193 O186 1.262 . S
C193 O194 1.232 . S
O194 C193 1.232 . S
C195 O187 1.260 . S
C195 O188 1.257 . S
Zn196 O199 2.031 . S
Zn196 O201 2.049 . S
Zn196 O206 2.067 . S
Zn197 O198 1.962 . S
Zn197 O200 1.986 . S
Zn197 O202 1.996 . S
Zn197 O205 1.943 . S
O198 Zn197 1.962 . S
O198 C203 1.254 . S
O199 Zn196 2.031 . S
O199 C203 1.269 . S
O200 Zn197 1.986 . S
O200 C207 1.262 . S
O201 Zn196 2.049 . S
O201 C209 1.260 . S
O202 Zn197 1.996 . S
O202 C209 1.257 . S
C203 O198 1.254 . S
C203 O199 1.269 . S
C204 O205 1.249 . S
C204 O206 1.270 . S
O205 Zn197 1.943 . S
O205 C204 1.249 . S
O206 Zn196 2.067 . S
O206 C204 1.270 . S
C207 O200 1.262 . S
C207 O208 1.232 . S
O208 C207 1.232 . S
C209 O201 1.260 . S
C209 O202 1.257 . S
Zn210 O213 2.031 . S
Zn210 O215 2.049 . S
Zn210 O220 2.067 . S
Zn211 O212 1.962 . S
Zn211 O214 1.986 . S
Zn211 O216 1.996 . S
Zn211 O219 1.943 . S
O212 Zn211 1.962 . S
O212 C217 1.254 . S
O213 Zn210 2.031 . S
O213 C217 1.269 . S
O214 Zn211 1.986 . S
O214 C221 1.262 . S
O215 Zn210 2.049 . S
O215 C223 1.260 . S
O216 Zn211 1.996 . S
O216 C223 1.257 . S
C217 O212 1.254 . S
C217 O213 1.269 . S
C218 O219 1.249 . S
C218 O220 1.270 . S
O219 Zn211 1.943 . S
O219 C218 1.249 . S
O220 Zn210 2.067 . S
O220 C218 1.270 . S
C221 O214 1.262 . S
C221 O222 1.232 . S
O222 C221 1.232 . S
C223 O215 1.260 . S
C223 O216 1.257 . S
Zn224 O227 2.031 . S
Zn224 O229 2.049 . S
Zn224 O234 2.067 . S
Zn225 O226 1.962 . S
Zn225 O228 1.986 . S
Zn225 O230 1.996 . S
Zn225 O233 1.943 . S
O226 Zn225 1.962 . S
O226 C231 1.254 . S
O227 Zn224 2.031 . S
O227 C231 1.269 . S
O228 Zn225 1.986 . S
O228 C235 1.262 . S
O229 Zn224 2.049 . S
O229 C237 1.260 . S
O230 Zn225 1.996 . S
O230 C237 1.257 . S
C231 O226 1.254 . S
C231 O227 1.269 . S
C232 O233 1.249 . S
C232 O234 1.270 . S
O233 Zn225 1.943 . S
O233 C232 1.249 . S
O234 Zn224 2.067 . S
O234 C232 1.270 . S
C235 O228 1.262 . S
C235 O236 1.232 . S
O236 C235 1.232 . S
C237 O229 1.260 . S
C237 O230 1.257 . S
Zn238 O241 2.031 . S
Zn238 O243 2.049 . S
Zn238 O248 2.067 . S
Zn239 O240 1.962 . S
Zn239 O242 1.986 . S
Zn239 O244 1.996 . S
Zn239 O247 1.943 . S
O240 Zn239 1.962 . S
O240 C245 1.254 . S
O241 Zn238 2.031 . S
O241 C245 1.269 . S
O242 Zn239 1.986 . S
O242 C249 1.262 . S
O243 Zn238 2.049 . S
O243 C251 1.260 . S
O244 Zn239 1.996 . S
O244 C251 1.257 . S
C245 O240 1.254 . S
C245 O241 1.269 . S
C246 O247 1.249 . S
C246 O248 1.270 . S
O247 Zn239 1.943 . S
O247 C246 1.249 . S
O248 Zn238 2.067 . S
O248 C246 1.270 . S
C249 O242 1.262 . S
C249 O250 1.232 . S
O250 C249 1.232 . S
C251 O243 1.260 . S
C251 O244 1.257 . S
C252 C253 1.387 . S
C252 H256 0.950 . S
C252 C261 1.390 . S
C253 C252 1.387 . S
C253 C255 1.387 . S
H254 C261 0.950 . S
C255 C253 1.387 . S
C255 C257 1.390 . S
C255 H259 0.950 . S
H256 C252 0.950 . S
C257 C255 1.390 . S
C257 C258 1.387 . S
C257 H260 0.950 . S
C258 C257 1.387 . S
C258 C261 1.387 . S
H259 C255 0.950 . S
H260 C257 0.950 . S
C261 C252 1.390 . S
C261 H254 0.950 . S
C261 C258 1.387 . S
C262 C263 1.387 . S
C262 H266 0.950 . S
C262 C271 1.390 . S
C263 C262 1.387 . S
C263 C265 1.387 . S
H264 C271 0.950 . S
C265 C263 1.387 . S
C265 C267 1.390 . S
C265 H269 0.950 . S
H266 C262 0.950 . S
C267 C265 1.390 . S
C267 C268 1.387 . S
C267 H270 0.950 . S
C268 C267 1.387 . S
C268 C271 1.387 . S
H269 C265 0.950 . S
H270 C267 0.950 . S
C271 C262 1.390 . S
C271 H264 0.950 . S
C271 C268 1.387 . S
C272 C273 1.387 . S
C272 H276 0.950 . S
C272 C281 1.390 . S
C273 C272 1.387 . S
C273 C275 1.387 . S
H274 C281 0.950 . S
C275 C273 1.387 . S
C275 C277 1.390 . S
C275 H279 0.950 . S
H276 C272 0.950 . S
C277 C275 1.390 . S
C277 C278 1.387 . S
C277 H280 0.950 . S
C278 C277 1.387 . S
C278 C281 1.387 . S
H279 C275 0.950 . S
H280 C277 0.950 . S
C281 C272 1.390 . S
C281 H274 0.950 . S
C281 C278 1.387 . S
C282 C283 1.387 . S
C282 H286 0.950 . S
C282 C291 1.390 . S
C283 C282 1.387 . S
C283 C285 1.387 . S
H284 C291 0.950 . S
C285 C283 1.387 . S
C285 C287 1.390 . S
C285 H289 0.950 . S
H286 C282 0.950 . S
C287 C285 1.390 . S
C287 C288 1.387 . S
C287 H290 0.950 . S
C288 C287 1.387 . S
C288 C291 1.387 . S
H289 C285 0.950 . S
H290 C287 0.950 . S
C291 C282 1.390 . S
C291 H284 0.950 . S
C291 C288 1.387 . S
C292 C293 1.387 . S
C292 H296 0.950 . S
C292 C301 1.390 . S
C293 C292 1.387 . S
C293 C295 1.387 . S
H294 C301 0.950 . S
C295 C293 1.387 . S
C295 C297 1.390 . S
C295 H299 0.950 . S
H296 C292 0.950 . S
C297 C295 1.390 . S
C297 C298 1.387 . S
C297 H300 0.950 . S
C298 C297 1.387 . S
C298 C301 1.387 . S
H299 C295 0.950 . S
H300 C297 0.950 . S
C301 C292 1.390 . S
C301 H294 0.950 . S
C301 C298 1.387 . S
C302 C303 1.387 . S
C302 H306 0.950 . S
C302 C311 1.390 . S
C303 C302 1.387 . S
C303 C305 1.387 . S
H304 C311 0.950 . S
C305 C303 1.387 . S
C305 C307 1.390 . S
C305 H309 0.950 . S
H306 C302 0.950 . S
C307 C305 1.390 . S
C307 C308 1.387 . S
C307 H310 0.950 . S
C308 C307 1.387 . S
C308 C311 1.387 . S
H309 C305 0.950 . S
H310 C307 0.950 . S
C311 C302 1.390 . S
C311 H304 0.950 . S
C311 C308 1.387 . S
C312 C313 1.387 . S
C312 H316 0.950 . S
C312 C321 1.390 1_654 S
C313 C312 1.387 . S
C313 C315 1.387 . S
H314 C321 0.950 . S
C315 C313 1.387 . S
C315 C317 1.390 1_654 S
C315 H319 0.950 . S
H316 C312 0.950 . S
C317 C315 1.390 1_456 S
C317 C318 1.387 . S
C317 H320 0.950 . S
C318 C317 1.387 . S
C318 C321 1.387 . S
H319 C315 0.950 . S
H320 C317 0.950 . S
C321 C312 1.390 1_456 S
C321 H314 0.950 . S
C321 C318 1.387 . S
C322 C323 1.387 . S
C322 H326 0.950 . S
C322 C331 1.381 1_554 S
C323 C322 1.387 . S
C323 C325 1.397 . S
H324 C331 0.950 . S
C325 C323 1.397 . S
C325 C327 1.381 1_554 S
C325 H329 0.950 . S
H326 C322 0.950 . S
C327 C325 1.381 1_556 S
C327 C328 1.387 . S
C327 H330 0.950 . S
C328 C327 1.387 . S
C328 C331 1.397 . S
H329 C325 0.950 . S
H330 C327 0.950 . S
C331 C322 1.381 1_556 S
C331 H324 0.950 . S
C331 C328 1.397 . S
C332 C333 1.387 . S
C332 H336 0.950 . S
C332 C341 1.390 1_544 S
C333 C332 1.387 . S
C333 C335 1.387 . S
H334 C341 0.950 . S
C335 C333 1.387 . S
C335 C337 1.390 1_544 S
C335 H339 0.950 . S
H336 C332 0.950 . S
C337 C335 1.390 1_566 S
C337 C338 1.387 . S
C337 H340 0.950 . S
C338 C337 1.387 . S
C338 C341 1.387 . S
H339 C335 0.950 . S
H340 C337 0.950 . S
C341 C332 1.390 1_566 S
C341 H334 0.950 . S
C341 C338 1.387 . S
C342 C343 1.387 . S
C342 H346 0.950 . S
C342 C351 1.390 . S
C343 C342 1.387 . S
C343 C345 1.387 . S
H344 C351 0.950 . S
C345 C343 1.387 . S
C345 C347 1.390 . S
C345 H349 0.950 . S
H346 C342 0.950 . S
C347 C345 1.390 . S
C347 C348 1.387 . S
C347 H350 0.950 . S
C348 C347 1.387 . S
C348 C351 1.387 . S
H349 C345 0.950 . S
H350 C347 0.950 . S
C351 C342 1.390 . S
C351 H344 0.950 . S
C351 C348 1.387 . S
C352 C353 1.387 . S
C352 H356 0.950 . S
C352 C361 1.390 . S
C353 C352 1.387 . S
C353 C355 1.387 . S
H354 C361 0.950 . S
C355 C353 1.387 . S
C355 C357 1.390 . S
C355 H359 0.950 . S
H356 C352 0.950 . S
C357 C355 1.390 . S
C357 C358 1.387 . S
C357 H360 0.950 . S
C358 C357 1.387 . S
C358 C361 1.387 . S
H359 C355 0.950 . S
H360 C357 0.950 . S
C361 C352 1.390 . S
C361 H354 0.950 . S
C361 C358 1.387 . S
C362 C363 1.387 . S
C362 H366 0.950 . S
C362 C371 1.390 . S
C363 C362 1.387 . S
C363 C365 1.387 . S
H364 C371 0.950 . S
C365 C363 1.387 . S
C365 C367 1.390 . S
C365 H369 0.950 . S
H366 C362 0.950 . S
C367 C365 1.390 . S
C367 C368 1.387 . S
C367 H370 0.950 . S
C368 C367 1.387 . S
C368 C371 1.387 . S
H369 C365 0.950 . S
H370 C367 0.950 . S
C371 C362 1.390 . S
C371 H364 0.950 . S
C371 C368 1.387 . S
C372 C373 1.387 . S
C372 H376 0.950 . S
C372 C381 1.390 . S
C373 C372 1.387 . S
C373 C375 1.387 . S
H374 C381 0.950 . S
C375 C373 1.387 . S
C375 C377 1.390 . S
C375 H379 0.950 . S
H376 C372 0.950 . S
C377 C375 1.390 . S
C377 C378 1.387 . S
C377 H380 0.950 . S
C378 C377 1.387 . S
C378 C381 1.387 . S
H379 C375 0.950 . S
H380 C377 0.950 . S
C381 C372 1.390 . S
C381 H374 0.950 . S
C381 C378 1.387 . S
C382 C383 1.387 . S
C382 H386 0.950 . S
C382 C391 1.390 . S
C383 C382 1.387 . S
C383 C385 1.387 . S
H384 C391 0.950 . S
C385 C383 1.387 . S
C385 C387 1.390 . S
C385 H389 0.950 . S
H386 C382 0.950 . S
C387 C385 1.390 . S
C387 C388 1.387 . S
C387 H390 0.950 . S
C388 C387 1.387 . S
C388 C391 1.387 . S
H389 C385 0.950 . S
H390 C387 0.950 . S
C391 C382 1.390 . S
C391 H384 0.950 . S
C391 C388 1.387 . S
C392 C393 1.387 . S
C392 H396 0.950 . S
C392 C401 1.390 . S
C393 C392 1.387 . S
C393 C395 1.387 . S
H394 C401 0.950 . S
C395 C393 1.387 . S
C395 C397 1.390 . S
C395 H399 0.950 . S
H396 C392 0.950 . S
C397 C395 1.390 . S
C397 C398 1.387 . S
C397 H400 0.950 . S
C398 C397 1.387 . S
C398 C401 1.387 . S
H399 C395 0.950 . S
H400 C397 0.950 . S
C401 C392 1.390 . S
C401 H394 0.950 . S
C401 C398 1.387 . S
C402 C403 1.387 1_455 S
C402 H406 0.950 . S
C402 C411 1.390 . S
C403 C402 1.387 1_655 S
C403 C405 1.387 . S
H404 C411 0.950 . S
C405 C403 1.387 . S
C405 C407 1.390 . S
C405 H409 0.950 . S
H406 C402 0.950 . S
C407 C405 1.390 . S
C407 C408 1.387 1_655 S
C407 H410 0.950 . S
C408 C407 1.387 1_455 S
C408 C411 1.387 . S
H409 C405 0.950 . S
H410 C407 0.950 . S
C411 C402 1.390 . S
C411 H404 0.950 . S
C411 C408 1.387 . S
C412 C413 1.387 . S
C412 H416 0.950 . S
C412 C421 1.390 . S
C413 C412 1.387 . S
C413 C415 1.387 . S
H414 C421 0.950 . S
C415 C413 1.387 . S
C415 C417 1.390 . S
C415 H419 0.950 . S
H416 C412 0.950 . S
C417 C415 1.390 . S
C417 C418 1.387 . S
C417 H420 0.950 . S
C418 C417 1.387 . S
C418 C421 1.387 . S
H419 C415 0.950 . S
H420 C417 0.950 . S
C421 C412 1.390 . S
C421 H414 0.950 . S
C421 C418 1.387 . S
C422 C423 1.387 . S
C422 H426 0.950 . S
C422 C431 1.390 1_565 S
C423 C422 1.387 . S
C423 C425 1.387 . S
H424 C431 0.950 . S
C425 C423 1.387 . S
C425 C427 1.390 1_565 S
C425 H429 0.950 . S
H426 C422 0.950 . S
C427 C425 1.390 1_545 S
C427 C428 1.387 . S
C427 H430 0.950 . S
C428 C427 1.387 . S
C428 C431 1.387 . S
H429 C425 0.950 . S
H430 C427 0.950 . S
C431 C422 1.390 1_545 S
C431 H424 0.950 . S
C431 C428 1.387 . S
C432 C433 1.387 1_556 S
C432 H436 0.950 . S
C432 C441 1.390 . S
C433 C432 1.387 1_554 S
C433 C435 1.387 . S
H434 C441 0.950 . S
C435 C433 1.387 . S
C435 C437 1.390 . S
C435 H439 0.950 . S
H436 C432 0.950 . S
C437 C435 1.390 . S
C437 C438 1.387 1_554 S
C437 H440 0.950 . S
C438 C437 1.387 1_556 S
C438 C441 1.387 . S
H439 C435 0.950 . S
H440 C437 0.950 . S
C441 C432 1.390 . S
C441 H434 0.950 . S
C441 C438 1.387 . S
C442 C443 1.387 . S
C442 H446 0.950 . S
C442 C451 1.390 1_546 S
C443 C442 1.387 . S
C443 C445 1.387 . S
H444 C451 0.950 . S
C445 C443 1.387 . S
C445 C447 1.390 1_546 S
C445 H449 0.950 . S
H446 C442 0.950 . S
C447 C445 1.390 1_564 S
C447 C448 1.387 . S
C447 H450 0.950 . S
C448 C447 1.387 . S
C448 C451 1.387 . S
H449 C445 0.950 . S
H450 C447 0.950 . S
C451 C442 1.390 1_564 S
C451 H444 0.950 . S
C451 C448 1.387 . S
C452 C453 1.387 1_554 S
C452 H456 0.950 . S
C452 C461 1.390 1_655 S
C453 C452 1.387 1_556 S
C453 C455 1.387 . S
H454 C461 0.950 . S
C455 C453 1.387 . S
C455 C457 1.390 1_655 S
C455 H459 0.950 . S
H456 C452 0.950 . S
C457 C455 1.390 1_455 S
C457 C458 1.387 1_556 S
C457 H460 0.950 . S
C458 C457 1.387 1_554 S
C458 C461 1.387 . S
H459 C455 0.950 . S
H460 C457 0.950 . S
C461 C452 1.390 1_455 S
C461 H454 0.950 . S
C461 C458 1.387 . S
C462 C463 1.387 . S
C462 H466 0.950 . S
C462 C471 1.390 . S
C463 C462 1.387 . S
C463 C465 1.387 1_556 S
H464 C471 0.950 . S
C465 C463 1.387 1_554 S
C465 C467 1.390 . S
C465 H469 0.950 . S
H466 C462 0.950 . S
C467 C465 1.390 . S
C467 C468 1.387 . S
C467 H470 0.950 . S
C468 C467 1.387 . S
C468 C471 1.387 1_554 S
H469 C465 0.950 . S
H470 C467 0.950 . S
C471 C462 1.390 . S
C471 H464 0.950 . S
C471 C468 1.387 1_556 S
C472 C473 1.387 . S
C472 H476 0.950 . S
C472 C481 1.390 1_564 S
C473 C472 1.387 . S
C473 C475 1.387 . S
H474 C481 0.950 . S
C475 C473 1.387 . S
C475 C477 1.390 1_564 S
C475 H479 0.950 . S
H476 C472 0.950 . S
C477 C475 1.390 1_546 S
C477 C478 1.387 . S
C477 H480 0.950 . S
C478 C477 1.387 . S
C478 C481 1.387 . S
H479 C475 0.950 . S
H480 C477 0.950 . S
C481 C472 1.390 1_546 S
C481 H474 0.950 . S
C481 C478 1.387 . S
C482 C483 1.387 . S
C482 H486 0.950 . S
C482 C491 1.390 1_655 S
C483 C482 1.387 . S
C483 C485 1.387 1_556 S
H484 C491 0.950 . S
C485 C483 1.387 1_554 S
C485 C487 1.390 1_655 S
C485 H489 0.950 . S
H486 C482 0.950 . S
C487 C485 1.390 1_455 S
C487 C488 1.387 . S
C487 H490 0.950 . S
C488 C487 1.387 . S
C488 C491 1.387 1_554 S
H489 C485 0.950 . S
H490 C487 0.950 . S
C491 C482 1.390 1_455 S
C491 H484 0.950 . S
C491 C488 1.387 1_556 S
C492 C493 1.387 . S
C492 H496 0.950 . S
C492 C501 1.390 . S
C493 C492 1.387 . S
C493 C495 1.387 . S
H494 C501 0.950 . S
C495 C493 1.387 . S
C495 C497 1.390 . S
C495 H499 0.950 . S
H496 C492 0.950 . S
C497 C495 1.390 . S
C497 C498 1.387 . S
C497 H500 0.950 . S
C498 C497 1.387 . S
C498 C501 1.387 . S
H499 C495 0.950 . S
H500 C497 0.950 . S
C501 C492 1.390 . S
C501 H494 0.950 . S
C501 C498 1.387 . S
C502 C503 1.387 . S
C502 H506 0.950 . S
C502 C511 1.390 . S
C503 C502 1.387 . S
C503 C505 1.387 . S
H504 C511 0.950 . S
C505 C503 1.387 . S
C505 C507 1.390 . S
C505 H509 0.950 . S
H506 C502 0.950 . S
C507 C505 1.390 . S
C507 C508 1.387 . S
C507 H510 0.950 . S
C508 C507 1.387 . S
C508 C511 1.387 . S
H509 C505 0.950 . S
H510 C507 0.950 . S
C511 C502 1.390 . S
C511 H504 0.950 . S
C511 C508 1.387 . S
C512 C513 1.387 . S
C512 H516 0.950 . S
C512 C521 1.390 . S
C513 C512 1.387 . S
C513 C515 1.387 . S
H514 C521 0.950 . S
C515 C513 1.387 . S
C515 C517 1.390 . S
C515 H519 0.950 . S
H516 C512 0.950 . S
C517 C515 1.390 . S
C517 C518 1.387 . S
C517 H520 0.950 . S
C518 C517 1.387 . S
C518 C521 1.387 . S
H519 C515 0.950 . S
H520 C517 0.950 . S
C521 C512 1.390 . S
C521 H514 0.950 . S
C521 C518 1.387 . S
C522 C523 1.387 . S
C522 H526 0.950 . S
C522 C531 1.390 . S
C523 C522 1.387 . S
C523 C525 1.387 . S
H524 C531 0.950 . S
C525 C523 1.387 . S
C525 C527 1.390 . S
C525 H529 0.950 . S
H526 C522 0.950 . S
C527 C525 1.390 . S
C527 C528 1.387 . S
C527 H530 0.950 . S
C528 C527 1.387 . S
C528 C531 1.387 . S
H529 C525 0.950 . S
H530 C527 0.950 . S
C531 C522 1.390 . S
C531 H524 0.950 . S
C531 C528 1.387 . S
C532 C533 1.387 . S
C532 H536 0.950 . S
C532 C541 1.390 . S
C533 C532 1.387 . S
C533 C535 1.387 . S
H534 C541 0.950 . S
C535 C533 1.387 . S
C535 C537 1.390 . S
C535 H539 0.950 . S
H536 C532 0.950 . S
C537 C535 1.390 . S
C537 C538 1.387 . S
C537 H540 0.950 . S
C538 C537 1.387 . S
C538 C541 1.387 . S
H539 C535 0.950 . S
H540 C537 0.950 . S
C541 C532 1.390 . S
C541 H534 0.950 . S
C541 C538 1.387 . S
C542 C543 1.387 . S
C542 H546 0.950 . S
C542 C551 1.390 . S
C543 C542 1.387 . S
C543 C545 1.387 . S
H544 C551 0.950 . S
C545 C543 1.387 . S
C545 C547 1.390 . S
C545 H549 0.950 . S
H546 C542 0.950 . S
C547 C545 1.390 . S
C547 C548 1.387 . S
C547 H550 0.950 . S
C548 C547 1.387 . S
C548 C551 1.387 . S
H549 C545 0.950 . S
H550 C547 0.950 . S
C551 C542 1.390 . S
C551 H544 0.950 . S
C551 C548 1.387 . S
C552 C553 1.387 . S
C552 H556 0.950 . S
C552 C561 1.390 . S
C553 C552 1.387 . S
C553 C555 1.387 . S
H554 C561 0.950 . S
C555 C553 1.387 . S
C555 C557 1.390 . S
C555 H559 0.950 . S
H556 C552 0.950 . S
C557 C555 1.390 . S
C557 C558 1.387 . S
C557 H560 0.950 . S
C558 C557 1.387 . S
C558 C561 1.387 . S
H559 C555 0.950 . S
H560 C557 0.950 . S
C561 C552 1.390 . S
C561 H554 0.950 . S
C561 C558 1.387 . S
C562 C563 1.387 . S
C562 H566 0.950 . S
C562 C571 1.390 . S
C563 C562 1.387 . S
C563 C565 1.387 . S
H564 C571 0.950 . S
C565 C563 1.387 . S
C565 C567 1.390 . S
C565 H569 0.950 . S
H566 C562 0.950 . S
C567 C565 1.390 . S
C567 C568 1.387 . S
C567 H570 0.950 . S
C568 C567 1.387 . S
C568 C571 1.387 . S
H569 C565 0.950 . S
H570 C567 0.950 . S
C571 C562 1.390 . S
C571 H564 0.950 . S
C571 C568 1.387 . S
C572 C573 1.387 . S
C572 H576 0.950 . S
C572 C581 1.390 . S
C573 C572 1.387 . S
C573 C575 1.387 . S
H574 C581 0.950 . S
C575 C573 1.387 . S
C575 C577 1.390 . S
C575 H579 0.950 . S
H576 C572 0.950 . S
C577 C575 1.390 . S
C577 C578 1.387 . S
C577 H580 0.950 . S
C578 C577 1.387 . S
C578 C581 1.387 . S
H579 C575 0.950 . S
H580 C577 0.950 . S
C581 C572 1.390 . S
C581 H574 0.950 . S
C581 C578 1.387 . S
C582 C583 1.387 . S
C582 H586 0.950 . S
C582 C591 1.390 . S
C583 C582 1.387 . S
C583 C585 1.387 . S
H584 C591 0.950 . S
C585 C583 1.387 . S
C585 C587 1.390 . S
C585 H589 0.950 . S
H586 C582 0.950 . S
C587 C585 1.390 . S
C587 C588 1.387 . S
C587 H590 0.950 . S
C588 C587 1.387 . S
C588 C591 1.387 . S
H589 C585 0.950 . S
H590 C587 0.950 . S
C591 C582 1.390 . S
C591 H584 0.950 . S
C591 C588 1.387 . S
C592 C593 1.387 . S
C592 H596 0.950 . S
C592 C601 1.390 . S
C593 C592 1.387 . S
C593 C595 1.387 . S
H594 C601 0.950 . S
C595 C593 1.387 . S
C595 C597 1.390 . S
C595 H599 0.950 . S
H596 C592 0.950 . S
C597 C595 1.390 . S
C597 C598 1.387 . S
C597 H600 0.950 . S
C598 C597 1.387 . S
C598 C601 1.387 . S
H599 C595 0.950 . S
H600 C597 0.950 . S
C601 C592 1.390 . S
C601 H594 0.950 . S
C601 C598 1.387 . S
C602 C603 1.387 . S
C602 H606 0.950 . S
C602 C611 1.390 . S
C603 C602 1.387 . S
C603 C605 1.387 . S
H604 C611 0.950 . S
C605 C603 1.387 . S
C605 C607 1.390 . S
C605 H609 0.950 . S
H606 C602 0.950 . S
C607 C605 1.390 . S
C607 C608 1.387 . S
C607 H610 0.950 . S
C608 C607 1.387 . S
C608 C611 1.387 . S
H609 C605 0.950 . S
H610 C607 0.950 . S
C611 C602 1.390 . S
C611 H604 0.950 . S
C611 C608 1.387 . S
C253 C249 1.599 . S
C258 C11 1.599 . S
C263 C221 1.599 . S
C268 C25 1.599 . S
C273 C235 1.599 . S
C278 C39 1.600 . S
C283 C109 1.599 . S
C288 C53 1.600 . S
C293 C123 1.600 . S
C298 C67 1.599 . S
C303 C81 1.599 . S
C308 C95 1.599 . S
C313 C137 1.599 . S
C318 C193 1.599 . S
C323 C151 1.600 . S
C328 C207 1.599 . S
C333 C165 1.599 . S
C338 C179 1.599 . S
C343 C8 1.246 . S
C348 C246 1.246 . S
C353 C218 1.249 . S
C358 C22 1.248 . S
C363 C36 1.246 . S
C368 C232 1.248 . S
C373 C106 1.248 . S
C378 C50 1.249 . S
C383 C64 1.248 . S
C388 C120 1.249 . S
C393 C78 1.246 . S
C398 C92 1.246 . S
C403 C134 1.249 . S
C408 C190 1.247 . S
C413 C204 1.246 . S
C418 C148 1.246 . S
C423 C176 1.248 . S
C428 C162 1.248 . S
C433 C13 1.383 . S
C438 C55 1.385 . S
C443 C69 1.382 . S
C448 C27 1.382 . S
C453 C83 1.383 . S
C458 C41 1.385 . S
C463 C77 1.471 . S
C468 C21 1.471 . S
C473 C35 1.470 . S
C478 C49 1.470 . S
C483 C63 1.471 . S
C488 C7 1.472 . S
C493 C97 1.387 . S
C498 C139 1.385 . S
C503 C153 1.386 . S
C508 C111 1.386 . S
C513 C167 1.386 . S
C518 C125 1.384 . S
C523 C161 1.472 . S
C528 C105 1.471 . S
C533 C119 1.471 . S
C538 C133 1.471 . S
C543 C147 1.471 . S
C548 C91 1.470 . S
C553 C223 1.385 . S
C558 C181 1.382 . S
C563 C237 1.382 . S
C568 C195 1.382 . S
C573 C209 1.382 . S
C578 C251 1.384 . S
C583 C245 1.472 . S
C588 C189 1.471 . S
C593 C203 1.470 . S
C598 C217 1.470 . S
C603 C231 1.471 . S
C608 C175 1.472 . S
