# Generated by pormake.
# Topology yfg, (5)-cn, num edge types: 1
# Building blocks:
#     Node 0, Type 0, BuildingBlock: XOMCOT_clean_sbu_1, # of connection points: 5
#     Node 1, Type 0, BuildingBlock: XOMCOT_clean_sbu_1, # of connection points: 5
#     Node 2, Type 0, BuildingBlock: XOMCOT_clean_sbu_1, # of connection points: 5
#     Node 3, Type 0, BuildingBlock: XOMCOT_clean_sbu_1, # of connection points: 5
#     Node 4, Type 0, BuildingBlock: XOMCOT_clean_sbu_1, # of connection points: 5
#     Node 5, Type 0, BuildingBlock: XOMCOT_clean_sbu_1, # of connection points: 5
#     Node 6, Type 0, BuildingBlock: XOMCOT_clean_sbu_1, # of connection points: 5
#     Node 7, Type 0, BuildingBlock: XOMCOT_clean_sbu_1, # of connection points: 5
#     Edge 8, Type (0, 0), BuildingBlock: MIFKUJ_clean_linker_0, # of connection points: 2
#     Edge 9, Type (0, 0), BuildingBlock: MIFKUJ_clean_linker_0, # of connection points: 2
#     Edge 10, Type (0, 0), BuildingBlock: MIFKUJ_clean_linker_0, # of connection points: 2
#     Edge 11, Type (0, 0), BuildingBlock: MIFKUJ_clean_linker_0, # of connection points: 2
#     Edge 12, Type (0, 0), BuildingBlock: MIFKUJ_clean_linker_0, # of connection points: 2
#     Edge 13, Type (0, 0), BuildingBlock: MIFKUJ_clean_linker_0, # of connection points: 2
#     Edge 14, Type (0, 0), BuildingBlock: MIFKUJ_clean_linker_0, # of connection points: 2
#     Edge 15, Type (0, 0), BuildingBlock: MIFKUJ_clean_linker_0, # of connection points: 2
#     Edge 16, Type (0, 0), BuildingBlock: MIFKUJ_clean_linker_0, # of connection points: 2
#     Edge 17, Type (0, 0), BuildingBlock: MIFKUJ_clean_linker_0, # of connection points: 2
#     Edge 18, Type (0, 0), BuildingBlock: MIFKUJ_clean_linker_0, # of connection points: 2
#     Edge 19, Type (0, 0), BuildingBlock: MIFKUJ_clean_linker_0, # of connection points: 2
#     Edge 20, Type (0, 0), BuildingBlock: MIFKUJ_clean_linker_0, # of connection points: 2
#     Edge 21, Type (0, 0), BuildingBlock: MIFKUJ_clean_linker_0, # of connection points: 2
#     Edge 22, Type (0, 0), BuildingBlock: MIFKUJ_clean_linker_0, # of connection points: 2
#     Edge 23, Type (0, 0), BuildingBlock: MIFKUJ_clean_linker_0, # of connection points: 2
#     Edge 24, Type (0, 0), BuildingBlock: MIFKUJ_clean_linker_0, # of connection points: 2
#     Edge 25, Type (0, 0), BuildingBlock: MIFKUJ_clean_linker_0, # of connection points: 2
#     Edge 26, Type (0, 0), BuildingBlock: MIFKUJ_clean_linker_0, # of connection points: 2
#     Edge 27, Type (0, 0), BuildingBlock: MIFKUJ_clean_linker_0, # of connection points: 2
# Relax obj value: 0.436
# Max RMSD: 0.199
# Mean RMSD: 0.199
data_MOF--net-yfg--node1-XOMCOT_clean_sbu_1--edge1-MIFKUJ_clean_linker_0
_symmetry_space_group_name_H-M    P1
_symmetry_Int_Tables_number       1
_symmetry_cell_setting            triclinic
loop_
_symmetry_equiv_pos_as_xyz
'x, y, z'
_cell_length_a     45.475408
_cell_length_b     45.476791
_cell_length_c     49.459397
_cell_angle_alpha  90.212833
_cell_angle_beta   90.490942
_cell_angle_gamma 90.111288
loop_
_atom_site_label
_atom_site_type_symbol
_atom_site_fract_x
_atom_site_fract_y
_atom_site_fract_z
_atom_type_partial_charge
C0 C 0.19864 0.51799 0.0772 0.0
C1 C 0.19123 0.52343 0.10365 0.0
N2 N 0.21216 0.51169 0.11978 0.0
N3 N 0.22393 0.50265 0.07668 0.0
C4 C 0.23177 0.49932 0.10285 0.0
H5 H 0.18669 0.52517 0.05942 0.0
Co6 Co 0.24447 0.49274 0.04574 0.0
C7 C 0.26485 0.43266 0.06641 0.0
O8 O 0.24726 0.41662 0.05116 0.0
N9 N 0.26558 0.48448 0.01436 0.0
C10 C 0.29348 0.46682 0.98134 0.0
C11 C 0.27844 0.45994 0.00456 0.0
C12 C 0.27277 0.50571 0.99659 0.0
N13 N 0.28982 0.49567 0.97641 0.0
O14 O 0.27538 0.5179 0.05766 0.0
H15 H 0.27756 0.43848 0.01363 0.0
H16 H 0.26624 0.52842 0.99888 0.0
O17 O 0.26432 0.4607 0.06484 0.0
C18 C 0.27086 0.54542 0.05586 0.0
O19 O 0.2467 0.5546 0.04384 0.0
N20 N 0.21234 0.46948 0.03387 0.0
C21 C 0.1545 0.4537 0.02067 0.0
C22 C 0.16755 0.44408 0.04485 0.0
C23 C 0.1964 0.45248 0.05122 0.0
C24 C 0.20056 0.47734 0.00949 0.0
C25 C 0.17183 0.46945 1.00239 0.0
H26 H 0.20487 0.44766 0.0712 0.0
H27 H 0.21239 0.49205 0.99636 0.0
H28 H 0.25161 0.48819 0.1093 0.0
H29 H 0.17228 0.5357 0.11038 0.0
H30 H 0.30616 0.45178 0.96908 0.0
H31 H 0.15481 0.43241 0.0598 0.0
H32 H 0.16263 0.47731 0.98348 0.0
C33 C 0.4966 0.18742 0.31569 0.0
C34 C 0.49541 0.1806 0.34276 0.0
N35 N 0.50658 0.20346 0.35692 0.0
N36 N 0.50858 0.21436 0.31292 0.0
C37 C 0.51431 0.22361 0.33836 0.0
H38 H 0.48865 0.17395 0.29909 0.0
Co39 Co 0.51139 0.23534 0.28098 0.0
C40 C 0.57146 0.2638 0.29446 0.0
O41 O 0.58738 0.25015 0.2763 0.0
N42 N 0.51234 0.2567 0.24866 0.0
C43 C 0.52177 0.28529 0.21333 0.0
C44 C 0.53402 0.26932 0.23425 0.0
C45 C 0.48735 0.26466 0.23568 0.0
N46 N 0.49233 0.28234 0.21437 0.0
O47 O 0.48596 0.26392 0.29574 0.0
H48 H 0.55717 0.26771 0.23867 0.0
H49 H 0.46567 0.25856 0.24246 0.0
O50 O 0.54397 0.2584 0.29626 0.0
C51 C 0.45879 0.2581 0.29826 0.0
O52 O 0.44853 0.23296 0.28895 0.0
N53 N 0.53544 0.20564 0.26662 0.0
C54 C 0.55364 0.1485 0.25422 0.0
C55 C 0.56709 0.16443 0.27535 0.0
C56 C 0.5575 0.1929 0.28139 0.0
C57 C 0.52373 0.19138 0.24474 0.0
C58 C 0.53265 0.16289 0.23807 0.0
H59 H 0.56562 0.20331 0.29966 0.0
H60 H 0.50531 0.20089 0.23396 0.0
H61 H 0.52264 0.24524 0.34328 0.0
H62 H 0.48683 0.16052 0.35135 0.0
H63 H 0.53361 0.29833 0.19873 0.0
H64 H 0.58347 0.1543 0.2883 0.0
H65 H 0.52124 0.1514 0.22187 0.0
C66 C 0.77642 0.56992 0.56056 0.0
C67 C 0.78038 0.57589 0.58756 0.0
N68 N 0.76438 0.55657 0.60182 0.0
N69 N 0.75851 0.54638 0.55748 0.0
C70 C 0.75078 0.5395 0.58308 0.0
H71 H 0.7852 0.58307 0.54446 0.0
Co72 Co 0.74321 0.53046 0.52481 0.0
C73 C 0.69952 0.56909 0.5369 0.0
O74 O 0.71886 0.58704 0.52622 0.0
N75 N 0.72772 0.51565 0.49254 0.0
C76 C 0.71927 0.51182 0.44838 0.0
C77 C 0.73109 0.52917 0.46858 0.0
C78 C 0.71335 0.49029 0.48654 0.0
N79 N 0.70814 0.48735 0.45969 0.0
O80 O 0.73716 0.4926 0.54205 0.0
H81 H 0.74206 0.55007 0.46595 0.0
H82 H 0.70764 0.47383 0.50135 0.0
O83 O 0.70477 0.54161 0.53652 0.0
C84 C 0.75111 0.47599 0.55849 0.0
O85 O 0.77776 0.48315 0.56672 0.0
N86 N 0.78139 0.52112 0.51268 0.0
C87 C 0.84109 0.5169 0.50147 0.0
C88 C 0.82661 0.54392 0.4996 0.0
C89 C 0.7965 0.5453 0.5044 0.0
C90 C 0.79412 0.49399 0.51075 0.0
C91 C 0.82432 0.49142 0.50563 0.0
H92 H 0.78527 0.56612 0.50257 0.0
H93 H 0.78137 0.47427 0.51378 0.0
H94 H 0.73512 0.52247 0.58788 0.0
H95 H 0.79342 0.59372 0.59589 0.0
H96 H 0.71897 0.51677 0.42699 0.0
H97 H 0.8386 0.5639 0.49511 0.0
H98 H 0.83462 0.46997 0.50607 0.0
C99 C 0.42498 0.78285 0.81412 0.0
C100 C 0.42188 0.78571 0.84161 0.0
N101 N 0.43544 0.7629 0.85364 0.0
N102 N 0.4409 0.75854 0.80858 0.0
C103 C 0.44639 0.74663 0.8332 0.0
H104 H 0.41542 0.79754 0.79948 0.0
Co105 Co 0.45085 0.74127 0.775 0.0
C106 C 0.40989 0.70014 0.78939 0.0
O107 O 0.39209 0.72067 0.78033 0.0
N108 N 0.45973 0.72355 0.74227 0.0
C109 C 0.45243 0.70083 0.70299 0.0
C110 C 0.4392 0.71587 0.72377 0.0
C111 C 0.48537 0.71334 0.73225 0.0
N112 N 0.48147 0.69923 0.70839 0.0
O113 O 0.4897 0.73169 0.78915 0.0
H114 H 0.41596 0.72036 0.72565 0.0
H115 H 0.50635 0.71528 0.7426 0.0
O116 O 0.43748 0.70443 0.78828 0.0
C117 C 0.50777 0.74465 0.80513 0.0
O118 O 0.50237 0.77152 0.8136 0.0
N119 N 0.46244 0.77782 0.7608 0.0
C120 C 0.47039 0.83592 0.74409 0.0
C121 C 0.44221 0.82328 0.74491 0.0
C122 C 0.4389 0.79399 0.75254 0.0
C123 C 0.49024 0.78827 0.75686 0.0
C124 C 0.4947 0.8175 0.74896 0.0
H125 H 0.41708 0.78453 0.75353 0.0
H126 H 0.50914 0.7744 0.76003 0.0
H127 H 0.4579 0.72604 0.83602 0.0
H128 H 0.41062 0.80341 0.85188 0.0
H129 H 0.44153 0.69168 0.68531 0.0
H130 H 0.42261 0.83608 0.74101 0.0
H131 H 0.51697 0.82563 0.74703 0.0
C132 C 0.19832 0.46505 0.44756 0.0
C133 C 0.19022 0.46606 0.42075 0.0
N134 N 0.21233 0.47848 0.4068 0.0
N135 N 0.22529 0.47699 0.45055 0.0
C136 C 0.23341 0.48469 0.42537 0.0
H137 H 0.18541 0.45622 0.46392 0.0
Co138 Co 0.24552 0.4807 0.4831 0.0
C139 C 0.29505 0.51845 0.46915 0.0
O140 O 0.31192 0.50026 0.48279 0.0
N141 N 0.26554 0.48317 0.51616 0.0
C142 C 0.28783 0.49659 0.55448 0.0
C143 C 0.2714 0.50624 0.5326 0.0
C144 C 0.2781 0.45992 0.52854 0.0
N145 N 0.2922 0.46743 0.55164 0.0
O146 O 0.27511 0.4555 0.46943 0.0
H147 H 0.26465 0.52863 0.52867 0.0
H148 H 0.27694 0.43773 0.52072 0.0
O149 O 0.26719 0.51448 0.46875 0.0
C150 C 0.26988 0.42831 0.46592 0.0
O151 O 0.24405 0.41768 0.47259 0.0
N152 N 0.21512 0.50423 0.4962 0.0
C153 C 0.15733 0.52212 0.50385 0.0
C154 C 0.17537 0.53679 0.48537 0.0
C155 C 0.20449 0.52769 0.48202 0.0
C156 C 0.1987 0.4914 0.51584 0.0
C157 C 0.16976 0.50028 0.52025 0.0
H158 H 0.21722 0.53723 0.46591 0.0
H159 H 0.20706 0.47225 0.52628 0.0
H160 H 0.25431 0.49481 0.42081 0.0
H161 H 0.16983 0.45782 0.41218 0.0
H162 H 0.2966 0.51011 0.57071 0.0
H163 H 0.16646 0.55373 0.47234 0.0
H164 H 0.15642 0.48823 0.5345 0.0
C165 C 0.54322 0.19542 0.6862 0.0
C166 C 0.54452 0.1878 0.65933 0.0
N167 N 0.53258 0.20976 0.64467 0.0
N168 N 0.53024 0.22189 0.6885 0.0
C169 C 0.52419 0.23021 0.66291 0.0
H170 H 0.55169 0.18277 0.70302 0.0
Co171 Co 0.52591 0.24261 0.72055 0.0
C172 C 0.46572 0.26958 0.71321 0.0
O173 O 0.45595 0.25981 0.73636 0.0
N174 N 0.52304 0.26385 0.75367 0.0
C175 C 0.51262 0.27896 0.79549 0.0
C176 C 0.50416 0.26084 0.77448 0.0
C177 C 0.54298 0.28372 0.76297 0.0
N178 N 0.53718 0.29335 0.78823 0.0
O179 O 0.54987 0.27275 0.70577 0.0
H180 H 0.48618 0.24533 0.77522 0.0
H181 H 0.56247 0.28994 0.7521 0.0
O182 O 0.49169 0.26324 0.70549 0.0
C183 C 0.57727 0.26759 0.70385 0.0
O184 O 0.58789 0.24325 0.71431 0.0
N185 N 0.50375 0.21114 0.73418 0.0
C186 C 0.48814 0.15268 0.7442 0.0
C187 C 0.47326 0.1692 0.72437 0.0
C188 C 0.48131 0.19846 0.71975 0.0
C189 C 0.51712 0.19615 0.75466 0.0
C190 C 0.50913 0.16723 0.76046 0.0
H191 H 0.47182 0.20967 0.70255 0.0
H192 H 0.53565 0.2059 0.76524 0.0
H193 H 0.5142 0.25103 0.65778 0.0
H194 H 0.55432 0.16801 0.65124 0.0
H195 H 0.50187 0.28071 0.81486 0.0
H196 H 0.45728 0.15911 0.71091 0.0
H197 H 0.52074 0.15591 0.77652 0.0
C198 C 0.80406 0.53793 0.9301 0.0
C199 C 0.81034 0.53856 0.90297 0.0
N200 N 0.78581 0.53114 0.88898 0.0
N201 N 0.77581 0.52975 0.93329 0.0
C202 C 0.76523 0.52592 0.90792 0.0
H203 H 0.81902 0.54353 0.94644 0.0
Co204 Co 0.75547 0.52774 0.96567 0.0
C205 C 0.72563 0.46802 0.96003 0.0
O206 O 0.73112 0.45901 0.98469 0.0
N207 N 0.73479 0.52694 0.99887 0.0
C208 C 0.71989 0.51779 0.0409 0.0
C209 C 0.73737 0.50834 0.02005 0.0
C210 C 0.71615 0.54798 0.00788 0.0
N211 N 0.70665 0.54284 0.03322 0.0
O212 O 0.72494 0.55065 0.9497 0.0
H213 H 0.75217 0.48982 0.02107 0.0
H214 H 0.71007 0.56722 0.99642 0.0
O215 O 0.73474 0.49309 0.95214 0.0
C216 C 0.72875 0.57793 0.94533 0.0
O217 O 0.75323 0.59057 0.95364 0.0
N218 N 0.78668 0.50615 0.98072 0.0
C219 C 0.84228 0.48613 0.99624 0.0
C220 C 0.82508 0.47013 0.97759 0.0
C221 C 0.79735 0.48067 0.96989 0.0
C222 C 0.80248 0.52119 0.99979 0.0
C223 C 0.83017 0.51141 0.00805 0.0
H224 H 0.78567 0.46967 0.95365 0.0
H225 H 0.79423 0.54185 0.00749 0.0
H226 H 0.74247 0.52075 0.9035 0.0
H227 H 0.83134 0.54432 0.89435 0.0
H228 H 0.71827 0.50785 0.06068 0.0
H229 H 0.83379 0.45085 0.96758 0.0
H230 H 0.84254 0.52432 0.02268 0.0
C231 C 0.45656 0.79264 0.17976 0.0
C232 C 0.45436 0.79716 0.15243 0.0
N233 N 0.46021 0.77161 0.13969 0.0
N234 N 0.46398 0.76436 0.18438 0.0
C235 C 0.46608 0.75208 0.15956 0.0
H236 H 0.45303 0.80899 0.19533 0.0
Co237 Co 0.46941 0.74655 0.21809 0.0
C238 C 0.52979 0.72018 0.21034 0.0
O239 O 0.54083 0.7316 0.23263 0.0
N240 N 0.47398 0.72765 0.25179 0.0
C241 C 0.4847 0.7139 0.29385 0.0
C242 C 0.49288 0.73162 0.2727 0.0
C243 C 0.45489 0.70708 0.26068 0.0
N244 N 0.46057 0.69849 0.28639 0.0
O245 O 0.43247 0.76694 0.23208 0.0
H246 H 0.51083 0.74719 0.27322 0.0
H247 H 0.43681 0.699 0.24848 0.0
O248 O 0.50305 0.72516 0.20372 0.0
C249 C 0.40527 0.75865 0.23024 0.0
O250 O 0.43203 0.76794 0.23265 0.0
N251 N 0.49364 0.77962 0.22908 0.0
C252 C 0.51941 0.83523 0.23692 0.0
C253 C 0.52825 0.8169 0.21564 0.0
C254 C 0.51512 0.78935 0.21204 0.0
C255 C 0.48648 0.79631 0.25116 0.0
C256 C 0.49903 0.82407 0.25541 0.0
H257 H 0.5207 0.77689 0.19419 0.0
H258 H 0.4699 0.78889 0.2651 0.0
H259 H 0.47099 0.7291 0.15622 0.0
H260 H 0.44905 0.81779 0.14273 0.0
H261 H 0.49507 0.71355 0.3136 0.0
H262 H 0.54431 0.82427 0.20109 0.0
H263 H 0.49143 0.83733 0.27217 0.0
H264 H 0.16583 0.48607 0.37289 0.0
H265 H 0.16721 0.49384 0.3242 0.0
H266 H 0.2619 0.49061 0.32651 0.0
H267 H 0.26077 0.48383 0.37549 0.0
H268 H 0.24503 0.53312 0.29448 0.0
H269 H 0.22147 0.43071 0.30071 0.0
H270 H 0.19462 0.38743 0.31777 0.0
H271 H 0.1138 0.42213 0.28572 0.0
H272 H 0.14023 0.46582 0.26896 0.0
H273 H 0.26064 0.50727 0.15208 0.0
H274 H 0.26184 0.50529 0.20141 0.0
H275 H 0.16767 0.516 0.20315 0.0
H276 H 0.16615 0.51722 0.15388 0.0
H277 H 0.18592 0.46953 0.23293 0.0
H278 H 0.21151 0.57421 0.2291 0.0
H279 H 0.24026 0.61733 0.21445 0.0
H280 H 0.32016 0.57502 0.2397 0.0
H281 H 0.29176 0.53201 0.25522 0.0
C282 C 0.18698 0.48679 0.36308 0.0
C283 C 0.2132 0.48379 0.37809 0.0
C284 C 0.18774 0.49122 0.33518 0.0
C285 C 0.21471 0.49227 0.32161 0.0
C286 C 0.24091 0.48989 0.33659 0.0
C287 C 0.24019 0.48588 0.36457 0.0
C288 C 0.21549 0.49604 0.29183 0.0
C289 C 0.23243 0.51894 0.28101 0.0
C290 C 0.19878 0.47785 0.2742 0.0
C291 C 0.18275 0.45164 0.28401 0.0
C292 C 0.19793 0.4292 0.29766 0.0
C293 C 0.18281 0.40459 0.30718 0.0
C294 C 0.15248 0.40209 0.30293 0.0
C295 C 0.13727 0.42414 0.28906 0.0
C296 C 0.15232 0.44881 0.27953 0.0
C297 C 0.24016 0.50911 0.1629 0.0
C298 C 0.21324 0.51217 0.14893 0.0
C299 C 0.24095 0.50844 0.19115 0.0
C300 C 0.21487 0.51076 0.20594 0.0
C301 C 0.18808 0.51434 0.1921 0.0
C302 C 0.18727 0.51515 0.16391 0.0
C303 C 0.2151 0.50684 0.23564 0.0
C304 C 0.19848 0.48374 0.24643 0.0
C305 C 0.23241 0.52456 0.25313 0.0
C306 C 0.24958 0.5499 0.24311 0.0
C307 C 0.23523 0.57409 0.23139 0.0
C308 C 0.25143 0.59855 0.22307 0.0
C309 C 0.28204 0.59881 0.2259 0.0
C310 C 0.29647 0.57476 0.23743 0.0
C311 C 0.28032 0.55045 0.2462 0.0
H312 H 0.29454 0.61768 0.21921 0.0
H313 H 0.14079 0.38302 0.3103 0.0
H314 H 0.54802 0.23355 0.38517 0.0
H315 H 0.55223 0.23789 0.43444 0.0
H316 H 0.4742 0.18491 0.44334 0.0
H317 H 0.46987 0.18046 0.39408 0.0
H318 H 0.47704 0.23707 0.47749 0.0
H319 H 0.53523 0.15188 0.45161 0.0
H320 H 0.57406 0.12717 0.4255 0.0
H321 H 0.63852 0.18673 0.45846 0.0
H322 H 0.59996 0.21204 0.4845 0.0
H323 H 0.53003 0.16392 0.60966 0.0
H324 H 0.52608 0.16615 0.56055 0.0
H325 H 0.52479 0.2609 0.56435 0.0
H326 H 0.52944 0.25891 0.61358 0.0
H327 H 0.56224 0.19015 0.52342 0.0
H328 H 0.4819 0.28535 0.51094 0.0
H329 H 0.44527 0.31226 0.53792 0.0
H330 H 0.42559 0.23357 0.58198 0.0
H331 H 0.46186 0.20607 0.55502 0.0
C332 C 0.53165 0.22304 0.39764 0.0
C333 C 0.50874 0.20647 0.38583 0.0
C334 C 0.53413 0.22546 0.42572 0.0
C335 C 0.51357 0.21162 0.44241 0.0
C336 C 0.49026 0.19572 0.43071 0.0
C337 C 0.48799 0.19295 0.40264 0.0
C338 C 0.51709 0.21261 0.47212 0.0
C339 C 0.49569 0.22691 0.48757 0.0
C340 C 0.54148 0.19945 0.48515 0.0
C341 C 0.56469 0.184 0.46978 0.0
C342 C 0.55765 0.15983 0.45313 0.0
C343 C 0.57961 0.14569 0.43838 0.0
C344 C 0.60873 0.15542 0.44027 0.0
C345 C 0.61596 0.17924 0.45699 0.0
C346 C 0.59407 0.19347 0.47177 0.0
C347 C 0.52927 0.18527 0.60011 0.0
C348 C 0.53004 0.21122 0.61564 0.0
C349 C 0.52692 0.1865 0.572 0.0
C350 C 0.52509 0.21367 0.55881 0.0
C351 C 0.52598 0.23968 0.57416 0.0
C352 C 0.52843 0.23848 0.60232 0.0
C353 C 0.52207 0.21444 0.52897 0.0
C354 C 0.54366 0.20052 0.5134 0.0
C355 C 0.49792 0.22811 0.51587 0.0
C356 C 0.47482 0.24378 0.53118 0.0
C357 C 0.46959 0.27374 0.52625 0.0
C358 C 0.44895 0.2891 0.54156 0.0
C359 C 0.4333 0.27466 0.56175 0.0
C360 C 0.43788 0.24473 0.56642 0.0
C361 C 0.45848 0.22925 0.55113 0.0
H362 H 0.41769 0.28671 0.57381 0.0
H363 H 0.6257 0.14446 0.42883 0.0
H364 H 0.80398 0.57772 0.63846 0.0
H365 H 0.80353 0.57125 0.68717 0.0
H366 H 0.72245 0.52242 0.68071 0.0
H367 H 0.7222 0.5294 0.63172 0.0
H368 H 0.72186 0.55717 0.72434 0.0
H369 H 0.7875 0.48863 0.68571 0.0
H370 H 0.82855 0.47009 0.65844 0.0
H371 H 0.88971 0.51981 0.70699 0.0
H372 H 0.84895 0.5389 0.73446 0.0
H373 H 0.74365 0.5022 0.85973 0.0
H374 H 0.73649 0.50334 0.81065 0.0
H375 H 0.81192 0.56024 0.80318 0.0
H376 H 0.81893 0.55976 0.85195 0.0
H377 H 0.81181 0.51487 0.76614 0.0
H378 H 0.74325 0.5862 0.8024 0.0
H379 H 0.70166 0.60009 0.83138 0.0
H380 H 0.64471 0.54215 0.78643 0.0
H381 H 0.68624 0.52693 0.75787 0.0
C382 C 0.78573 0.56597 0.64724 0.0
C383 C 0.76319 0.55397 0.6309 0.0
C384 C 0.78567 0.56206 0.67519 0.0
C385 C 0.76331 0.54573 0.6875 0.0
C386 C 0.74015 0.53469 0.67153 0.0
C387 C 0.74016 0.53859 0.64348 0.0
C388 C 0.76492 0.53934 0.71688 0.0
C389 C 0.74136 0.54755 0.73345 0.0
C390 C 0.79037 0.52668 0.72874 0.0
C391 C 0.81504 0.51526 0.71219 0.0
C392 C 0.80966 0.49567 0.6906 0.0
C393 C 0.8329 0.48507 0.67506 0.0
C394 C 0.86173 0.49377 0.68097 0.0
C395 C 0.86736 0.51307 0.70245 0.0
C396 C 0.84418 0.52376 0.71804 0.0
C397 C 0.75861 0.51513 0.84771 0.0
C398 C 0.78188 0.53093 0.85996 0.0
C399 C 0.75454 0.51564 0.81963 0.0
C400 C 0.77361 0.53199 0.80331 0.0
C401 C 0.79704 0.54736 0.8154 0.0
C402 C 0.80107 0.54696 0.84338 0.0
C403 C 0.76926 0.53365 0.77362 0.0
C404 C 0.79228 0.52435 0.75697 0.0
C405 C 0.74322 0.54499 0.76173 0.0
C406 C 0.71803 0.555 0.77829 0.0
C407 C 0.72195 0.57615 0.79887 0.0
C408 C 0.69838 0.58422 0.81526 0.0
C409 C 0.67066 0.57172 0.81094 0.0
C410 C 0.6663 0.55153 0.78994 0.0
C411 C 0.68987 0.5431 0.7737 0.0
H412 H 0.65255 0.57764 0.82388 0.0
H413 H 0.87971 0.48555 0.66891 0.0
H414 H 0.47841 0.73222 0.87973 0.0
H415 H 0.48423 0.72613 0.92875 0.0
H416 H 0.40542 0.7765 0.94166 0.0
H417 H 0.39868 0.78169 0.89291 0.0
H418 H 0.46839 0.79465 0.96666 0.0
H419 H 0.39052 0.72152 0.9594 0.0
H420 H 0.3656 0.67574 0.94517 0.0
H421 H 0.43918 0.62517 0.97356 0.0
H422 H 0.46464 0.67074 0.98779 0.0
H423 H 0.42813 0.8013 0.10249 0.0
H424 H 0.4282 0.79438 0.05368 0.0
H425 H 0.48934 0.72268 0.06221 0.0
H426 H 0.49037 0.73022 0.11139 0.0
H427 H 0.44225 0.71095 0.02595 0.0
H428 H 0.51575 0.78458 0.0401 0.0
H429 H 0.53663 0.83034 0.05911 0.0
H430 H 0.46967 0.88061 0.01876 0.0
H431 H 0.44812 0.83506 0.99987 0.0
C432 C 0.46195 0.74145 0.89294 0.0
C433 C 0.43811 0.75758 0.88232 0.0
C434 C 0.46533 0.73793 0.92093 0.0
C435 C 0.44508 0.75063 0.93868 0.0
C436 C 0.4211 0.7663 0.92819 0.0
C437 C 0.41748 0.76951 0.90031 0.0
C438 C 0.45062 0.7508 0.96814 0.0
C439 C 0.46264 0.77639 0.97966 0.0
C440 C 0.44377 0.72665 0.98487 0.0
C441 C 0.4297 0.69956 0.97419 0.0
C442 C 0.40163 0.7007 0.96212 0.0
C443 C 0.38726 0.67476 0.95436 0.0
C444 C 0.40074 0.64756 0.95858 0.0
C445 C 0.42872 0.64625 0.9704 0.0
C446 C 0.44314 0.67212 0.97828 0.0
C447 C 0.44195 0.78429 0.09408 0.0
C448 C 0.45947 0.76649 0.1109 0.0
C449 C 0.44184 0.78028 0.06614 0.0
C450 C 0.45916 0.75834 0.05434 0.0
C451 C 0.47605 0.7399 0.07099 0.0
C452 C 0.47642 0.7441 0.09906 0.0
C453 C 0.4594 0.75507 0.02453 0.0
C454 C 0.44859 0.72898 0.01291 0.0
C455 C 0.46722 0.77882 0.00764 0.0
C456 C 0.48021 0.80635 0.01875 0.0
C457 C 0.50535 0.80536 0.03547 0.0
C458 C 0.51733 0.83127 0.04619 0.0
C459 C 0.50445 0.85837 0.04019 0.0
C460 C 0.47961 0.8596 0.0234 0.0
C461 C 0.46753 0.83374 0.01266 0.0
H462 H 0.51375 0.87841 0.04851 0.0
H463 H 0.38958 0.62751 0.95254 0.0
H464 H 0.11731 0.49671 0.00367 0.0
H465 H 0.06377 0.49535 1.00124 0.0
H466 H 0.0643 0.40483 0.02678 0.0
H467 H 0.11838 0.40597 0.02925 0.0
H468 H 0.02269 0.42027 0.98184 0.0
H469 H 0.04926 0.44865 0.07239 0.0
H470 H 0.07681 0.4772 0.10672 0.0
H471 H 0.03973 0.55728 0.07599 0.0
H472 H 0.01234 0.52925 0.04115 0.0
H473 H 0.86686 0.43143 0.00397 0.0
H474 H 0.91915 0.41963 0.01013 0.0
H475 H 0.94079 0.51183 0.00471 0.0
H476 H 0.88898 0.52366 0.99881 0.0
H477 H 0.97102 0.48822 0.0441 0.0
H478 H 0.94972 0.46261 0.95111 0.0
H479 H 0.92376 0.43634 0.91427 0.0
H480 H 0.95159 0.35357 0.94715 0.0
H481 H 0.97741 0.37938 0.98441 0.0
C482 C 0.10618 0.47626 0.0082 0.0
C483 C 0.12214 0.45137 0.0165 0.0
C484 C 0.07554 0.47561 0.007 0.0
C485 C 0.06011 0.45007 0.01399 0.0
C486 C 0.07586 0.42475 0.02131 0.0
C487 C 0.10668 0.42547 0.02281 0.0
C488 C 0.02754 0.45077 0.01494 0.0
C489 C 0.01124 0.43461 0.9958 0.0
C490 C 0.01279 0.46993 0.03284 0.0
C491 C 0.02891 0.48684 0.05403 0.0
C492 C 0.04715 0.47237 0.07282 0.0
C493 C 0.06272 0.48845 0.09239 0.0
C494 C 0.06007 0.51904 0.0935 0.0
C495 C 0.04178 0.53359 0.07509 0.0
C496 C 0.0262 0.5176 0.05545 0.0
C497 C 0.88282 0.44913 0.00415 0.0
C498 C 0.8737 0.4785 1.00112 0.0
C499 C 0.91269 0.44238 0.00762 0.0
C500 C 0.934 0.46483 0.00773 0.0
C501 C 0.92483 0.49412 0.00492 0.0
C502 C 0.8951 0.50087 1.00165 0.0
C503 C 0.96595 0.45828 0.01049 0.0
C504 C 0.98225 0.47341 0.0304 0.0
C505 C 0.98066 0.43842 0.99308 0.0
C506 C 0.96516 0.4229 0.97072 0.0
C507 C 0.95009 0.4388 0.95061 0.0
C508 C 0.93544 0.424 0.92963 0.0
C509 C 0.93593 0.3933 0.92842 0.0
C510 C 0.95116 0.37735 0.94815 0.0
C511 C 0.96581 0.39205 0.96919 0.0
H512 H 0.92459 0.38188 0.91216 0.0
H513 H 0.07215 0.53145 0.10866 0.0
H514 H 0.5575 0.11558 0.20757 0.0
H515 H 0.55752 0.06189 0.20359 0.0
H516 H 0.55924 0.05445 0.29048 0.0
H517 H 0.55902 0.10789 0.29465 0.0
H518 H 0.59356 0.01287 0.26765 0.0
H519 H 0.49505 0.04919 0.25578 0.0
H520 H 0.4562 0.07966 0.23506 0.0
H521 H 0.47206 0.03942 0.15788 0.0
H522 H 0.51134 0.009 0.17809 0.0
H523 H 0.533 0.86851 0.28203 0.0
H524 H 0.54428 0.92113 0.28393 0.0
H525 H 0.53941 0.92551 0.19692 0.0
H526 H 0.52703 0.87338 0.19489 0.0
H527 H 0.50868 0.96857 0.21863 0.0
H528 H 0.60578 0.92989 0.23166 0.0
H529 H 0.64407 0.89934 0.25316 0.0
H530 H 0.63028 0.94348 0.32888 0.0
H531 H 0.59162 0.97403 0.30792 0.0
C532 C 0.55816 0.10252 0.22583 0.0
C533 C 0.55816 0.11615 0.25142 0.0
C534 C 0.55818 0.07182 0.22353 0.0
C535 C 0.55794 0.0541 0.24676 0.0
C536 C 0.55946 0.06762 0.27227 0.0
C537 C 0.55949 0.09827 0.2746 0.0
C538 C 0.55418 0.02164 0.2446 0.0
C539 C 0.5749 0.00316 0.25711 0.0
C540 C 0.53005 0.00891 0.23053 0.0
C541 C 0.50635 0.02707 0.21838 0.0
C542 C 0.49041 0.04701 0.23435 0.0
C543 C 0.46829 0.06424 0.2227 0.0
C544 C 0.46172 0.06154 0.19516 0.0
C545 C 0.47721 0.04153 0.17921 0.0
C546 C 0.49939 0.02428 0.19074 0.0
C547 C 0.5344 0.88065 0.26329 0.0
C548 C 0.52917 0.86656 0.23831 0.0
C549 C 0.54114 0.91071 0.26439 0.0
C550 C 0.54296 0.92731 0.24054 0.0
C551 C 0.53823 0.9132 0.21559 0.0
C552 C 0.53146 0.88323 0.21447 0.0
C553 C 0.54815 0.95966 0.24155 0.0
C554 C 0.52755 0.97818 0.22895 0.0
C555 C 0.57232 0.97235 0.25562 0.0
C556 C 0.59561 0.95406 0.26826 0.0
C557 C 0.61075 0.93292 0.25295 0.0
C558 C 0.63255 0.91564 0.26503 0.0
C559 C 0.63955 0.91942 0.29239 0.0
C560 C 0.62482 0.94055 0.3077 0.0
C561 C 0.60298 0.95788 0.29572 0.0
H562 H 0.65644 0.90602 0.3017 0.0
H563 H 0.44458 0.07489 0.18618 0.0
H564 H 0.12157 0.51782 0.4599 0.0
H565 H 0.06794 0.5171 0.45867 0.0
H566 H 0.0662 0.53398 0.54463 0.0
H567 H 0.12014 0.53306 0.54601 0.0
H568 H 0.02869 0.49456 0.53476 0.0
H569 H 0.04681 0.58728 0.49325 0.0
H570 H 0.06869 0.62228 0.46116 0.0
H571 H 0.02933 0.57523 0.39464 0.0
H572 H 0.00751 0.53972 0.42632 0.0
H573 H 0.87858 0.54591 0.53486 0.0
H574 H 0.93247 0.54592 0.53419 0.0
H575 H 0.93088 0.48686 0.46581 0.0
H576 H 0.87665 0.48607 0.46694 0.0
H577 H 0.9688 0.54698 0.46593 0.0
H578 H 0.95072 0.45408 0.51142 0.0
H579 H 0.92723 0.42347 0.5462 0.0
H580 H 0.96548 0.47747 0.60867 0.0
H581 H 0.98883 0.50868 0.57421 0.0
C582 C 0.1097 0.52197 0.47843 0.0
C583 C 0.12496 0.52591 0.503 0.0
C584 C 0.07898 0.5216 0.47773 0.0
C585 C 0.06276 0.52599 0.50147 0.0
C586 C 0.07808 0.53054 0.52599 0.0
C587 C 0.10887 0.53024 0.52679 0.0
C588 C 0.02996 0.52436 0.50091 0.0
C589 C 0.01574 0.50638 0.51985 0.0
C590 C 0.01271 0.53933 0.48127 0.0
C591 C 0.02576 0.56068 0.46215 0.0
C592 C 0.043 0.58427 0.47176 0.0
C593 C 0.05536 0.60422 0.45365 0.0
C594 C 0.05046 0.60094 0.42587 0.0
C595 C 0.03313 0.57773 0.41616 0.0
C596 C 0.02074 0.5577 0.43418 0.0
C597 C 0.88977 0.53286 0.51975 0.0
C598 C 0.87361 0.51602 0.50091 0.0
C599 C 0.92046 0.53287 0.51941 0.0
C600 C 0.93554 0.51644 0.49995 0.0
C601 C 0.91952 0.49968 0.48097 0.0
C602 C 0.8887 0.49914 0.48168 0.0
C603 C 0.96808 0.51721 0.49957 0.0
C604 C 0.98207 0.53514 0.48061 0.0
C605 C 0.98506 0.50277 0.5195 0.0
C606 C 0.97124 0.48389 0.54023 0.0
C607 C 0.95387 0.4596 0.53256 0.0
C608 C 0.94064 0.4421 0.55222 0.0
C609 C 0.94479 0.44857 0.57963 0.0
C610 C 0.96225 0.47251 0.58743 0.0
C611 C 0.97551 0.49009 0.56785 0.0
H612 H 0.93453 0.435 0.59482 0.0
H613 H 0.06005 0.6164 0.41188 0.0
H614 H 0.43851 0.11904 0.73351 0.0
H615 H 0.43502 0.06559 0.73098 0.0
H616 H 0.5255 0.05838 0.75703 0.0
H617 H 0.53003 0.11144 0.75717 0.0
H618 H 0.51815 0.02235 0.71906 0.0
H619 H 0.4628 0.04286 0.79895 0.0
H620 H 0.42427 0.06616 0.82646 0.0
H621 H 0.35753 0.02835 0.7751 0.0
H622 H 0.3957 0.00511 0.74706 0.0
H623 H 0.51227 0.87272 0.76622 0.0
H624 H 0.51501 0.92621 0.76316 0.0
H625 H 0.43856 0.9267 0.71114 0.0
H626 H 0.43651 0.87307 0.71263 0.0
H627 H 0.43715 0.96518 0.76017 0.0
H628 H 0.49594 0.94238 0.68215 0.0
H629 H 0.53642 0.91793 0.65808 0.0
H630 H 0.59935 0.95927 0.71119 0.0
H631 H 0.55919 0.98364 0.73585 0.0
C632 C 0.45777 0.10618 0.73856 0.0
C633 C 0.48453 0.11998 0.74568 0.0
C634 C 0.45561 0.07546 0.73746 0.0
C635 C 0.4799 0.05773 0.74413 0.0
C636 C 0.50638 0.07142 0.75178 0.0
C637 C 0.50876 0.10202 0.75233 0.0
C638 C 0.47828 0.02499 0.74231 0.0
C639 C 0.50057 0.00995 0.72839 0.0
C640 C 0.45511 0.00855 0.75395 0.0
C641 C 0.43212 0.02252 0.77074 0.0
C642 C 0.43992 0.03971 0.7934 0.0
C643 C 0.41814 0.05287 0.80911 0.0
C644 C 0.38848 0.04881 0.80249 0.0
C645 C 0.38052 0.03151 0.78018 0.0
C646 C 0.40221 0.01832 0.76438 0.0
C647 C 0.49647 0.88396 0.75347 0.0
C648 C 0.47401 0.86827 0.73984 0.0
C649 C 0.49794 0.91464 0.75198 0.0
C650 C 0.47684 0.93035 0.73712 0.0
C651 C 0.45487 0.91493 0.72294 0.0
C652 C 0.45368 0.88422 0.72399 0.0
C653 C 0.4771 0.96294 0.73729 0.0
C654 C 0.45458 0.97781 0.75085 0.0
C655 C 0.50036 0.97918 0.72586 0.0
C656 C 0.52453 0.9646 0.71102 0.0
C657 C 0.51839 0.94604 0.68887 0.0
C658 C 0.54128 0.93224 0.67508 0.0
C659 C 0.57044 0.93698 0.68314 0.0
C660 C 0.57676 0.95559 0.70498 0.0
C661 C 0.55394 0.96942 0.71886 0.0
H662 H 0.58813 0.92628 0.67243 0.0
H663 H 0.37165 0.05901 0.81468 0.0
H664 H 0.37923 0.70805 0.24483 0.0
H665 H 0.36163 0.66813 0.21536 0.0
H666 H 0.38941 0.71725 0.14552 0.0
H667 H 0.40684 0.75676 0.1752 0.0
H668 H 0.32007 0.66821 0.17989 0.0
H669 H 0.40393 0.67165 0.09256 0.0
H670 H 0.45675 0.67905 0.08422 0.0
H671 H 0.47656 0.65555 0.1664 0.0
H672 H 0.4239 0.64763 0.17512 0.0
H673 H 0.2632 0.60461 0.0606 0.0
H674 H 0.29019 0.63845 0.09015 0.0
H675 H 0.3478 0.56809 0.11481 0.0
H676 H 0.3208 0.53386 0.0853 0.0
H677 H 0.37664 0.62271 0.10534 0.0
H678 H 0.29421 0.58343 0.15349 0.0
H679 H 0.2416 0.57147 0.15779 0.0
H680 H 0.21991 0.66316 0.15459 0.0
H681 H 0.27235 0.67573 0.14947 0.0
C682 C 0.38249 0.70964 0.22324 0.0
C683 C 0.39662 0.73421 0.21232 0.0
C684 C 0.3722 0.68706 0.20639 0.0
C685 C 0.37503 0.68916 0.17819 0.0
C686 C 0.38817 0.71439 0.16722 0.0
C687 C 0.39865 0.7368 0.18416 0.0
C688 C 0.36222 0.66612 0.16023 0.0
C689 C 0.33259 0.6582 0.16372 0.0
C690 C 0.37838 0.65296 0.13901 0.0
C691 C 0.40994 0.65929 0.13455 0.0
C692 C 0.41956 0.66819 0.10888 0.0
C693 C 0.44947 0.67248 0.10408 0.0
C694 C 0.47 0.66799 0.12479 0.0
C695 C 0.46065 0.65929 0.15041 0.0
C696 C 0.43074 0.65493 0.15532 0.0
C697 C 0.28185 0.59635 0.07199 0.0
C698 C 0.28972 0.56649 0.07079 0.0
C699 C 0.29718 0.61572 0.08891 0.0
C700 C 0.32065 0.6056 0.10487 0.0
C701 C 0.32963 0.57621 0.10266 0.0
C702 C 0.31418 0.55672 0.08583 0.0
C703 C 0.33474 0.62543 0.12488 0.0
C704 C 0.36439 0.63272 0.12169 0.0
C705 C 0.31866 0.63796 0.14637 0.0
C706 C 0.28724 0.63051 0.15078 0.0
C707 C 0.27823 0.60105 0.15344 0.0
C708 C 0.24842 0.59414 0.15592 0.0
C709 C 0.22741 0.61649 0.15624 0.0
C710 C 0.2362 0.64585 0.15423 0.0
C711 C 0.26597 0.65289 0.15152 0.0
H712 H 0.20435 0.61106 0.15828 0.0
H713 H 0.49313 0.67116 0.12087 0.0
H714 H 0.47527 0.30667 0.3272 0.0
H715 H 0.44447 0.33656 0.35671 0.0
H716 H 0.36884 0.28405 0.33457 0.0
H717 H 0.39941 0.25416 0.3048 0.0
H718 H 0.35626 0.34284 0.33646 0.0
H719 H 0.40503 0.2709 0.39245 0.0
H720 H 0.44788 0.24453 0.41112 0.0
H721 H 0.48202 0.32534 0.44389 0.0
H722 H 0.43956 0.35231 0.42503 0.0
H723 H 0.26102 0.37419 0.44356 0.0
H724 H 0.29589 0.34556 0.41693 0.0
H725 H 0.36291 0.41105 0.43153 0.0
H726 H 0.32804 0.44015 0.45798 0.0
H727 H 0.38122 0.34718 0.4344 0.0
H728 H 0.33679 0.41943 0.37606 0.0
H729 H 0.29397 0.44731 0.35972 0.0
H730 H 0.25264 0.3673 0.33284 0.0
H731 H 0.2954 0.33878 0.34925 0.0
C732 C 0.45202 0.30168 0.32836 0.0
C733 C 0.43976 0.27791 0.31389 0.0
C734 C 0.43452 0.31867 0.34533 0.0
C735 C 0.40456 0.31212 0.34812 0.0
C736 C 0.392 0.28927 0.33278 0.0
C737 C 0.40949 0.27221 0.31585 0.0
C738 C 0.38644 0.32855 0.36761 0.0
C739 C 0.3616 0.3435 0.35788 0.0
C740 C 0.39383 0.32995 0.39549 0.0
C741 C 0.41926 0.31369 0.40705 0.0
C742 C 0.42179 0.2831 0.40344 0.0
C743 C 0.44601 0.26803 0.41408 0.0
C744 C 0.46773 0.28327 0.42858 0.0
C745 C 0.46521 0.31358 0.43259 0.0
C746 C 0.44106 0.32877 0.42193 0.0
C747 C 0.28329 0.38229 0.44148 0.0
C748 C 0.29177 0.4095 0.4526 0.0
C749 C 0.30315 0.36591 0.42632 0.0
C750 C 0.3318 0.37635 0.42233 0.0
C751 C 0.34085 0.40271 0.43457 0.0
C752 C 0.32089 0.41932 0.44947 0.0
C753 C 0.35118 0.3611 0.40317 0.0
C754 C 0.37612 0.34645 0.41294 0.0
C755 C 0.34411 0.36006 0.37533 0.0
C756 C 0.3191 0.377 0.36409 0.0
C757 C 0.31855 0.40777 0.3667 0.0
C758 C 0.29429 0.42369 0.35744 0.0
C759 C 0.27047 0.4091 0.34542 0.0
C760 C 0.27108 0.37855 0.34224 0.0
C761 C 0.29537 0.36249 0.35145 0.0
H762 H 0.25155 0.42148 0.33867 0.0
H763 H 0.48649 0.27162 0.43676 0.0
H764 H 0.56114 0.31374 0.67179 0.0
H765 H 0.59336 0.3454 0.64519 0.0
H766 H 0.66913 0.29817 0.67488 0.0
H767 H 0.63713 0.26647 0.70155 0.0
H768 H 0.67662 0.35759 0.67733 0.0
H769 H 0.64537 0.28599 0.61254 0.0
H770 H 0.61057 0.25581 0.5858 0.0
H771 H 0.57304 0.33384 0.55135 0.0
H772 H 0.6072 0.36456 0.5783 0.0
H773 H 0.77454 0.43163 0.58917 0.0
H774 H 0.74786 0.39235 0.61223 0.0
H775 H 0.66595 0.42546 0.57989 0.0
H776 H 0.69247 0.46384 0.55604 0.0
H777 H 0.66475 0.36886 0.57814 0.0
H778 H 0.69294 0.4404 0.64686 0.0
H779 H 0.7265 0.47002 0.6754 0.0
H780 H 0.76923 0.39155 0.70319 0.0
H781 H 0.7362 0.36142 0.67453 0.0
C782 C 0.58467 0.3102 0.67275 0.0
C783 C 0.59663 0.28765 0.68878 0.0
C784 C 0.60301 0.32813 0.65739 0.0
C785 C 0.63357 0.32385 0.65785 0.0
C786 C 0.64559 0.30171 0.67418 0.0
C787 C 0.62727 0.28364 0.68939 0.0
C788 C 0.65307 0.34302 0.64182 0.0
C789 C 0.67438 0.35975 0.65557 0.0
C790 C 0.64973 0.34604 0.61352 0.0
C791 C 0.62874 0.32762 0.59764 0.0
C792 C 0.62948 0.29676 0.59952 0.0
C793 C 0.6099 0.27954 0.58427 0.0
C794 C 0.58965 0.29291 0.56687 0.0
C795 C 0.58877 0.32352 0.56482 0.0
C796 C 0.60823 0.34085 0.58008 0.0
C797 C 0.75087 0.43033 0.58679 0.0
C798 C 0.73562 0.4509 0.57087 0.0
C799 C 0.73562 0.40799 0.60013 0.0
C800 C 0.7048 0.40626 0.59823 0.0
C801 C 0.6897 0.42632 0.58171 0.0
C802 C 0.70493 0.44831 0.56808 0.0
C803 C 0.68797 0.38406 0.61373 0.0
C804 C 0.66716 0.36662 0.59988 0.0
C805 C 0.69172 0.38041 0.64199 0.0
C806 C 0.7123 0.39868 0.65833 0.0
C807 C 0.70972 0.42948 0.6588 0.0
C808 C 0.72861 0.44637 0.67506 0.0
C809 C 0.74997 0.43269 0.6911 0.0
C810 C 0.75268 0.40212 0.69075 0.0
C811 C 0.73391 0.38513 0.6745 0.0
H812 H 0.7643 0.44573 0.70397 0.0
H813 H 0.57477 0.27955 0.55484 0.0
H814 H 0.72439 0.63757 0.94147 0.0
H815 H 0.68762 0.66579 0.91627 0.0
H816 H 0.64606 0.58518 0.88986 0.0
H817 H 0.68271 0.55675 0.91513 0.0
H818 H 0.65331 0.62548 0.84837 0.0
H819 H 0.61531 0.62352 0.93846 0.0
H820 H 0.61694 0.63025 0.98794 0.0
H821 H 0.63344 0.72252 0.97777 0.0
H822 H 0.63241 0.71626 0.92819 0.0
H823 H 0.51877 0.68584 0.80064 0.0
H824 H 0.55763 0.65791 0.82296 0.0
H825 H 0.59305 0.73808 0.85712 0.0
H826 H 0.55356 0.76612 0.83552 0.0
H827 H 0.58946 0.69788 0.8946 0.0
H828 H 0.62874 0.69934 0.80426 0.0
H829 H 0.62759 0.69218 0.75478 0.0
H830 H 0.60827 0.60051 0.76548 0.0
H831 H 0.60857 0.60733 0.81499 0.0
C832 C 0.70738 0.62585 0.93036 0.0
C833 C 0.70629 0.59497 0.93045 0.0
C834 C 0.68637 0.64199 0.91603 0.0
C835 C 0.664 0.62755 0.90144 0.0
C836 C 0.6631 0.59671 0.90111 0.0
C837 C 0.68394 0.58054 0.91567 0.0
C838 C 0.64151 0.64472 0.88655 0.0
C839 C 0.63903 0.641 0.85846 0.0
C840 C 0.62348 0.66552 0.89975 0.0
C841 C 0.62408 0.66936 0.92958 0.0
C842 C 0.61956 0.6452 0.94676 0.0
C843 C 0.62033 0.64894 0.97483 0.0
C844 C 0.62536 0.67678 0.986 0.0
C845 C 0.62959 0.70096 0.9691 0.0
C846 C 0.6289 0.69733 0.94101 0.0
C847 C 0.53504 0.69762 0.81261 0.0
C848 C 0.53309 0.72823 0.8163 0.0
C849 C 0.55735 0.6816 0.82529 0.0
C850 C 0.5785 0.69591 0.8415 0.0
C851 C 0.57698 0.72656 0.84472 0.0
C852 C 0.55446 0.74258 0.83228 0.0
C853 C 0.60124 0.67874 0.85624 0.0
C854 C 0.60374 0.6824 0.88439 0.0
C855 C 0.61927 0.65786 0.84309 0.0
C856 C 0.61871 0.65384 0.81331 0.0
C857 C 0.62406 0.67771 0.79604 0.0
C858 C 0.62352 0.67372 0.76799 0.0
C859 C 0.61785 0.64591 0.75699 0.0
C860 C 0.61267 0.62204 0.77401 0.0
C861 C 0.61304 0.62595 0.80206 0.0
H862 H 0.61748 0.64287 0.73527 0.0
H863 H 0.62591 0.67963 0.00774 0.0
H864 H 0.31406 0.45723 0.08948 0.0
H865 H 0.35255 0.43241 0.1157 0.0
H866 H 0.30467 0.35074 0.10939 0.0
H867 H 0.26627 0.37524 0.08273 0.0
H868 H 0.32907 0.36472 0.16321 0.0
H869 H 0.3575 0.3582 0.06907 0.0
H870 H 0.36823 0.37913 0.0243 0.0
H871 H 0.4367 0.43253 0.05931 0.0
H872 H 0.42605 0.41224 0.1044 0.0
H873 H 0.43792 0.26244 0.2012 0.0
H874 H 0.39933 0.28904 0.17691 0.0
H875 H 0.45789 0.36294 0.16721 0.0
H876 H 0.49673 0.33614 0.19118 0.0
H877 H 0.42801 0.35508 0.12254 0.0
H878 H 0.40302 0.36246 0.21542 0.0
H879 H 0.39314 0.34474 0.26153 0.0
H880 H 0.31946 0.29468 0.2318 0.0
H881 H 0.32919 0.31169 0.18541 0.0
C882 C 0.31158 0.43403 0.09382 0.0
C883 C 0.28716 0.41815 0.08386 0.0
C884 C 0.33362 0.41989 0.10878 0.0
C885 C 0.3315 0.38973 0.11437 0.0
C886 C 0.30669 0.37404 0.1053 0.0
C887 C 0.28485 0.38805 0.08997 0.0
C888 C 0.35579 0.37426 0.12864 0.0
C889 C 0.35063 0.36227 0.15426 0.0
C890 C 0.38414 0.37198 0.11727 0.0
C891 C 0.39077 0.38393 0.09014 0.0
C892 C 0.37467 0.37459 0.06726 0.0
C893 C 0.38077 0.3863 0.04182 0.0
C894 C 0.40308 0.40721 0.03897 0.0
C895 C 0.41939 0.41637 0.06155 0.0
C896 C 0.41335 0.40476 0.08705 0.0
C897 C 0.44257 0.28435 0.19389 0.0
C898 C 0.47035 0.29724 0.19828 0.0
C899 C 0.42046 0.2996 0.18006 0.0
C900 C 0.42543 0.32829 0.17067 0.0
C901 C 0.45344 0.34088 0.17431 0.0
C902 C 0.47569 0.3255 0.18794 0.0
C903 C 0.40137 0.34513 0.15719 0.0
C904 C 0.40654 0.35749 0.13167 0.0
C905 C 0.37317 0.34821 0.16892 0.0
C906 C 0.36702 0.33813 0.19686 0.0
C907 C 0.38483 0.3475 0.21867 0.0
C908 C 0.37925 0.3376 0.24486 0.0
C909 C 0.35574 0.31854 0.24958 0.0
C910 C 0.3377 0.30941 0.22811 0.0
C911 C 0.34323 0.31919 0.20185 0.0
H912 H 0.35147 0.31089 0.26988 0.0
H913 H 0.40776 0.41626 0.01926 0.0
H914 H 0.62706 0.28701 0.29223 0.0
H915 H 0.64959 0.32316 0.32261 0.0
H916 H 0.57039 0.32532 0.37004 0.0
H917 H 0.54719 0.2906 0.33879 0.0
H918 H 0.58847 0.37745 0.36651 0.0
H919 H 0.63674 0.28891 0.39107 0.0
H920 H 0.66421 0.24278 0.38449 0.0
H921 H 0.7372 0.29127 0.3527 0.0
H922 H 0.71001 0.33769 0.35876 0.0
H923 H 0.66245 0.45368 0.4763 0.0
H924 H 0.63846 0.41351 0.45086 0.0
H925 H 0.70009 0.42519 0.38601 0.0
H926 H 0.72373 0.46543 0.41109 0.0
H927 H 0.68982 0.36436 0.4023 0.0
H928 H 0.63666 0.45333 0.37764 0.0
H929 H 0.60771 0.49772 0.38792 0.0
H930 H 0.54171 0.44458 0.42571 0.0
H931 H 0.57052 0.39989 0.41599 0.0
C932 C 0.61444 0.29511 0.30916 0.0
C933 C 0.58539 0.28553 0.31317 0.0
C934 C 0.62745 0.31569 0.32671 0.0
C935 C 0.61203 0.32665 0.34914 0.0
C936 C 0.58293 0.31723 0.35304 0.0
C937 C 0.56971 0.2971 0.3352 0.0
C938 C 0.62595 0.34846 0.36804 0.0
C939 C 0.61044 0.3742 0.37465 0.0
C940 C 0.65473 0.34461 0.37877 0.0
C941 C 0.67123 0.31676 0.37515 0.0
C942 C 0.65857 0.28973 0.3825 0.0
C943 C 0.6741 0.26353 0.37889 0.0
C944 C 0.7024 0.26409 0.36812 0.0
C945 C 0.71526 0.29087 0.36101 0.0
C946 C 0.69982 0.31714 0.36456 0.0
C947 C 0.67094 0.44747 0.45671 0.0
C948 C 0.69482 0.4628 0.44559 0.0
C949 C 0.6572 0.42464 0.44218 0.0
C950 C 0.66745 0.41645 0.4165 0.0
C951 C 0.69182 0.43116 0.40576 0.0
C952 C 0.70517 0.45426 0.42002 0.0
C953 C 0.65241 0.39315 0.40031 0.0
C954 C 0.66774 0.36723 0.39427 0.0
C955 C 0.62325 0.39648 0.39067 0.0
C956 C 0.6059 0.42333 0.39637 0.0
C957 C 0.61611 0.45114 0.38837 0.0
C958 C 0.5997 0.47635 0.39405 0.0
C959 C 0.57293 0.47399 0.40754 0.0
C960 C 0.56247 0.44639 0.41531 0.0
C961 C 0.57883 0.42112 0.40971 0.0
H962 H 0.56025 0.49353 0.41191 0.0
H963 H 0.71439 0.24378 0.36534 0.0
H964 H 0.53824 0.71547 0.70169 0.0
H965 H 0.57475 0.69134 0.67282 0.0
H966 H 0.51084 0.62524 0.6505 0.0
H967 H 0.47427 0.6494 0.67909 0.0
H968 H 0.56993 0.60341 0.66415 0.0
H969 H 0.52041 0.67499 0.60757 0.0
H970 H 0.50268 0.72478 0.59657 0.0
H971 H 0.5912 0.7577 0.60016 0.0
H972 H 0.60941 0.70815 0.61158 0.0
H973 H 0.64941 0.5412 0.55422 0.0
H974 H 0.61103 0.56149 0.58336 0.0
H975 H 0.65834 0.64381 0.58783 0.0
H976 H 0.6955 0.62428 0.55768 0.0
H977 H 0.60545 0.65648 0.58327 0.0
H978 H 0.65632 0.58931 0.64226 0.0
H979 H 0.67664 0.54185 0.65729 0.0
H980 H 0.59077 0.50278 0.65276 0.0
H981 H 0.56982 0.55012 0.63783 0.0
C982 C 0.53211 0.69567 0.69079 0.0
C983 C 0.50337 0.68445 0.69244 0.0
C984 C 0.5529 0.68197 0.67428 0.0
C985 C 0.5454 0.6566 0.65945 0.0
C986 C 0.51703 0.64481 0.66175 0.0
C987 C 0.49612 0.65876 0.6779 0.0
C988 C 0.56677 0.64302 0.64069 0.0
C989 C 0.57753 0.61479 0.64627 0.0
C990 C 0.57713 0.65822 0.6178 0.0
C991 C 0.56622 0.68794 0.61069 0.0
C992 C 0.53606 0.6929 0.60623 0.0
C993 C 0.52593 0.72106 0.59988 0.0
C994 C 0.54579 0.74441 0.59774 0.0
C995 C 0.57584 0.73961 0.60187 0.0
C996 C 0.58607 0.71149 0.60825 0.0
C997 C 0.65138 0.5637 0.56127 0.0
C998 C 0.67536 0.58118 0.55347 0.0
C999 C 0.62961 0.57522 0.57819 0.0
C1000 C 0.63189 0.60414 0.5883 0.0
C1001 C 0.65584 0.62153 0.58033 0.0
C1002 C 0.67714 0.61029 0.563 0.0
C1003 C 0.60932 0.61676 0.60678 0.0
C1004 C 0.59809 0.64489 0.60111 0.0
C1005 C 0.59905 0.60167 0.62994 0.0
C1006 C 0.61158 0.57314 0.63863 0.0
C1007 C 0.64181 0.57054 0.64428 0.0
C1008 C 0.65344 0.54368 0.65282 0.0
C1009 C 0.63509 0.51924 0.65578 0.0
C1010 C 0.60499 0.52169 0.65038 0.0
C1011 C 0.59319 0.54856 0.64196 0.0
H1012 H 0.64419 0.49846 0.66236 0.0
H1013 H 0.53791 0.7662 0.59282 0.0
H1014 H 0.26612 0.54331 0.95213 0.0
H1015 H 0.28845 0.57364 0.91706 0.0
H1016 H 0.36477 0.5175 0.91718 0.0
H1017 H 0.34253 0.4871 0.95248 0.0
H1018 H 0.37777 0.57901 0.91909 0.0
H1019 H 0.31884 0.51095 0.86674 0.0
H1020 H 0.27317 0.48454 0.85456 0.0
H1021 H 0.22995 0.56666 0.83884 0.0
H1022 H 0.27524 0.59359 0.85131 0.0
H1023 H 0.43968 0.65146 0.80703 0.0
H1024 H 0.42048 0.61129 0.83459 0.0
H1025 H 0.33437 0.65096 0.83252 0.0
H1026 H 0.35311 0.69051 0.80429 0.0
H1027 H 0.32895 0.59358 0.83 0.0
H1028 H 0.38268 0.66219 0.8844 0.0
H1029 H 0.42572 0.69194 0.89718 0.0
H1030 H 0.4758 0.61353 0.91167 0.0
H1031 H 0.43296 0.58313 0.89839 0.0
C1032 C 0.28767 0.53746 0.94473 0.0
C1033 C 0.30256 0.51281 0.95502 0.0
C1034 C 0.30033 0.55469 0.9246 0.0
C1035 C 0.32818 0.54769 0.91445 0.0
C1036 C 0.34321 0.5232 0.92473 0.0
C1037 C 0.3304 0.50574 0.9447 0.0
C1038 C 0.34155 0.56623 0.89324 0.0
C1039 C 0.36747 0.58176 0.89939 0.0
C1040 C 0.32756 0.57046 0.86789 0.0
C1041 C 0.30038 0.55428 0.86015 0.0
C1042 C 0.29953 0.52338 0.86087 0.0
C1043 C 0.27373 0.50832 0.85388 0.0
C1044 C 0.24866 0.52391 0.84598 0.0
C1045 C 0.24938 0.55461 0.84498 0.0
C1046 C 0.27512 0.56978 0.85197 0.0
C1047 C 0.41656 0.65138 0.81214 0.0
C1048 C 0.39797 0.6743 0.8037 0.0
C1049 C 0.40564 0.62845 0.82794 0.0
C1050 C 0.37608 0.62837 0.83603 0.0
C1051 C 0.35723 0.65053 0.82656 0.0
C1052 C 0.36804 0.67322 0.8105 0.0
C1053 C 0.36513 0.60653 0.85582 0.0
C1054 C 0.33958 0.59049 0.8495 0.0
C1055 C 0.37914 0.60229 0.88122 0.0
C1056 C 0.40474 0.62037 0.88997 0.0
C1057 C 0.40297 0.65125 0.88997 0.0
C1058 C 0.4274 0.66826 0.89724 0.0
C1059 C 0.45367 0.6547 0.90496 0.0
C1060 C 0.45549 0.62402 0.90553 0.0
C1061 C 0.43112 0.60687 0.89813 0.0
H1062 H 0.47251 0.66794 0.91075 0.0
H1063 H 0.2287 0.51221 0.84058 0.0
H1064 H 0.27109 0.54738 0.42544 0.0
H1065 H 0.29692 0.57908 0.3933 0.0
H1066 H 0.37645 0.57139 0.44082 0.0
H1067 H 0.35105 0.53949 0.47267 0.0
H1068 H 0.36665 0.62816 0.42388 0.0
H1069 H 0.36815 0.53083 0.38626 0.0
H1070 H 0.3485 0.48409 0.36821 0.0
H1071 H 0.30146 0.53092 0.30635 0.0
H1072 H 0.32037 0.57803 0.32432 0.0
H1073 H 0.47739 0.67183 0.33333 0.0
H1074 H 0.44678 0.64299 0.36356 0.0
H1075 H 0.37332 0.65193 0.30859 0.0
H1076 H 0.40366 0.68098 0.27831 0.0
H1077 H 0.37681 0.59647 0.32832 0.0
H1078 H 0.37725 0.69391 0.3652 0.0
H1079 H 0.39959 0.73999 0.38203 0.0
H1080 H 0.44413 0.69244 0.445 0.0
H1081 H 0.42238 0.64598 0.4283 0.0
C1082 C 0.29398 0.55272 0.4292 0.0
C1083 C 0.30905 0.54077 0.45157 0.0
C1084 C 0.30876 0.57069 0.41073 0.0
C1085 C 0.33872 0.57736 0.41449 0.0
C1086 C 0.35338 0.5665 0.43744 0.0
C1087 C 0.33879 0.54824 0.45564 0.0
C1088 C 0.35521 0.59507 0.39437 0.0
C1089 C 0.36903 0.62112 0.40303 0.0
C1090 C 0.35784 0.58621 0.367 0.0
C1091 C 0.34541 0.55802 0.35685 0.0
C1092 C 0.35326 0.53122 0.36906 0.0
C1093 C 0.34234 0.50465 0.35878 0.0
C1094 C 0.32382 0.50455 0.33611 0.0
C1095 C 0.31586 0.53104 0.32387 0.0
C1096 C 0.32664 0.55769 0.33412 0.0
C1097 C 0.45471 0.66792 0.3276 0.0
C1098 C 0.44306 0.67937 0.30334 0.0
C1099 C 0.43719 0.6513 0.34498 0.0
C1100 C 0.40754 0.64571 0.33864 0.0
C1101 C 0.39609 0.65606 0.31403 0.0
C1102 C 0.41359 0.67273 0.29663 0.0
C1103 C 0.38846 0.62944 0.35789 0.0
C1104 C 0.37416 0.60368 0.34909 0.0
C1105 C 0.38539 0.63852 0.38515 0.0
C1106 C 0.39838 0.66643 0.39534 0.0
C1107 C 0.39198 0.69324 0.38251 0.0
C1108 C 0.40451 0.71943 0.39205 0.0
C1109 C 0.42332 0.71913 0.41453 0.0
C1110 C 0.42958 0.69263 0.42757 0.0
C1111 C 0.41713 0.66637 0.41809 0.0
H1112 H 0.433 0.73943 0.42188 0.0
H1113 H 0.31576 0.48394 0.32793 0.0
H1114 H 0.30087 0.47143 0.60591 0.0
H1115 H 0.32966 0.43792 0.63441 0.0
H1116 H 0.35228 0.38689 0.56387 0.0
H1117 H 0.32325 0.41991 0.53559 0.0
H1118 H 0.33849 0.35127 0.60241 0.0
H1119 H 0.40164 0.43542 0.59595 0.0
H1120 H 0.41528 0.48781 0.59958 0.0
H1121 H 0.39854 0.48618 0.68488 0.0
H1122 H 0.38441 0.43385 0.68168 0.0
H1123 H 0.46598 0.2771 0.65821 0.0
H1124 H 0.435 0.31048 0.6314 0.0
H1125 H 0.39307 0.34066 0.70423 0.0
H1126 H 0.4232 0.30674 0.731 0.0
H1127 H 0.41585 0.38648 0.66607 0.0
H1128 H 0.35665 0.29895 0.671 0.0
H1129 H 0.34632 0.24611 0.66523 0.0
H1130 H 0.35834 0.25384 0.57954 0.0
H1131 H 0.36907 0.30672 0.58484 0.0
C1132 C 0.31215 0.45316 0.59654 0.0
C1133 C 0.30964 0.44826 0.56853 0.0
C1134 C 0.32864 0.43402 0.6128 0.0
C1135 C 0.3434 0.40991 0.60131 0.0
C1136 C 0.341 0.40515 0.57331 0.0
C1137 C 0.32431 0.42405 0.55714 0.0
C1138 C 0.36112 0.38936 0.61828 0.0
C1139 C 0.35564 0.359 0.61607 0.0
C1140 C 0.3832 0.39936 0.63653 0.0
C1141 C 0.39166 0.43081 0.63852 0.0
C1142 C 0.40064 0.4463 0.61544 0.0
C1143 C 0.4085 0.47597 0.61743 0.0
C1144 C 0.40769 0.49034 0.64243 0.0
C1145 C 0.3991 0.47504 0.66551 0.0
C1146 C 0.39118 0.44537 0.66363 0.0
C1147 C 0.4501 0.29079 0.66847 0.0
C1148 C 0.44695 0.28927 0.69669 0.0
C1149 C 0.43241 0.30979 0.65315 0.0
C1150 C 0.41178 0.32801 0.66588 0.0
C1151 C 0.40886 0.32676 0.69406 0.0
C1152 C 0.42598 0.30728 0.70928 0.0
C1153 C 0.39335 0.34857 0.64988 0.0
C1154 C 0.39867 0.37886 0.65236 0.0
C1155 C 0.37145 0.33847 0.63159 0.0
C1156 C 0.36446 0.30672 0.62841 0.0
C1157 C 0.35756 0.28934 0.65097 0.0
C1158 C 0.35146 0.25938 0.64777 0.0
C1159 C 0.35188 0.24656 0.62206 0.0
C1160 C 0.35814 0.26375 0.59947 0.0
C1161 C 0.36422 0.29372 0.60257 0.0
H1162 H 0.34719 0.22336 0.61963 0.0
H1163 H 0.4138 0.5133 0.64393 0.0
H1164 H 0.72424 0.46958 0.90476 0.0
H1165 H 0.69367 0.44004 0.87416 0.0
H1166 H 0.65584 0.39558 0.94258 0.0
H1167 H 0.68727 0.42426 0.97316 0.0
H1168 H 0.66572 0.35757 0.9044 0.0
H1169 H 0.62039 0.45427 0.90644 0.0
H1170 H 0.6213 0.50822 0.90118 0.0
H1171 H 0.64548 0.4983 0.81792 0.0
H1172 H 0.64506 0.4444 0.82277 0.0
H1173 H 0.53982 0.29587 0.84317 0.0
H1174 H 0.57209 0.32668 0.87089 0.0
H1175 H 0.60888 0.36482 0.79897 0.0
H1176 H 0.57579 0.33487 0.77103 0.0
H1177 H 0.60107 0.40621 0.83683 0.0
H1178 H 0.64553 0.31117 0.8333 0.0
H1179 H 0.64772 0.2572 0.83739 0.0
H1180 H 0.62792 0.26376 0.92193 0.0
H1181 H 0.6252 0.31779 0.91826 0.0
C1182 C 0.70942 0.45351 0.91326 0.0
C1183 C 0.70798 0.44942 0.94138 0.0
C1184 C 0.69183 0.43669 0.89575 0.0
C1185 C 0.67189 0.41599 0.90604 0.0
C1186 C 0.67093 0.41147 0.93411 0.0
C1187 C 0.6889 0.4279 0.95159 0.0
C1188 C 0.6519 0.39905 0.88773 0.0
C1189 C 0.65129 0.36828 0.88991 0.0
C1190 C 0.63372 0.41287 0.86813 0.0
C1191 C 0.63289 0.4453 0.86502 0.0
C1192 C 0.62595 0.46363 0.88703 0.0
C1193 C 0.6264 0.49421 0.88412 0.0
C1194 C 0.6335 0.50672 0.85925 0.0
C1195 C 0.64 0.48865 0.83719 0.0
C1196 C 0.63961 0.45808 0.83998 0.0
C1197 C 0.5544 0.31107 0.83316 0.0
C1198 C 0.55527 0.3126 0.80476 0.0
C1199 C 0.5731 0.32851 0.84908 0.0
C1200 C 0.59331 0.34771 0.83702 0.0
C1201 C 0.59363 0.35003 0.80874 0.0
C1202 C 0.57485 0.33265 0.79278 0.0
C1203 C 0.61451 0.36482 0.85394 0.0
C1204 C 0.61543 0.39556 0.85141 0.0
C1205 C 0.63314 0.35099 0.87312 0.0
C1206 C 0.63489 0.31851 0.87544 0.0
C1207 C 0.64142 0.30109 0.85272 0.0
C1208 C 0.64279 0.27049 0.85497 0.0
C1209 C 0.63789 0.25706 0.87989 0.0
C1210 C 0.63167 0.2742 0.90263 0.0
C1211 C 0.63024 0.30481 0.90048 0.0
H1212 H 0.63896 0.23336 0.88159 0.0
H1213 H 0.63394 0.53039 0.85705 0.0
H1214 H 0.58872 0.70828 0.21579 0.0
H1215 H 0.61986 0.68048 0.18481 0.0
H1216 H 0.54483 0.66402 0.13296 0.0
H1217 H 0.51413 0.69337 0.16297 0.0
H1218 H 0.62201 0.6271 0.1698 0.0
H1219 H 0.56413 0.65561 0.06768 0.0
H1220 H 0.53697 0.6968 0.04701 0.0
H1221 H 0.57928 0.75739 0.10166 0.0
H1222 H 0.60721 0.71668 0.12225 0.0
H1223 H 0.66794 0.52549 0.07115 0.0
H1224 H 0.63832 0.55696 0.1004 0.0
H1225 H 0.67487 0.63391 0.06236 0.0
H1226 H 0.7038 0.6024 0.03254 0.0
H1227 H 0.62036 0.64356 0.0707 0.0
H1228 H 0.69871 0.60834 0.12639 0.0
H1229 H 0.73113 0.57139 0.14747 0.0
H1230 H 0.65694 0.53238 0.18684 0.0
H1231 H 0.624 0.56887 0.1657 0.0
C1232 C 0.57886 0.69888 0.19771 0.0
C1233 C 0.5488 0.7029 0.19192 0.0
C1234 C 0.5967 0.68287 0.18003 0.0
C1235 C 0.58485 0.67035 0.15627 0.0
C1236 C 0.55472 0.67396 0.15077 0.0
C1237 C 0.53705 0.69041 0.16815 0.0
C1238 C 0.60382 0.6532 0.13749 0.0
C1239 C 0.62164 0.63079 0.14815 0.0
C1240 C 0.60395 0.65826 0.1092 0.0
C1241 C 0.58755 0.683 0.0967 0.0
C1242 C 0.56776 0.67773 0.0752 0.0
C1243 C 0.55223 0.701 0.0635 0.0
C1244 C 0.55632 0.72966 0.0731 0.0
C1245 C 0.57606 0.73515 0.09432 0.0
C1246 C 0.59177 0.71199 0.106 0.0
C1247 C 0.66962 0.54912 0.06906 0.0
C1248 C 0.68832 0.56145 0.04966 0.0
C1249 C 0.65276 0.56713 0.08585 0.0
C1250 C 0.65476 0.59792 0.08407 0.0
C1251 C 0.67292 0.61026 0.06423 0.0
C1252 C 0.68945 0.59223 0.04715 0.0
C1253 C 0.63813 0.61719 0.10301 0.0
C1254 C 0.62074 0.63995 0.09237 0.0
C1255 C 0.63911 0.61309 0.1314 0.0
C1256 C 0.65886 0.59119 0.14427 0.0
C1257 C 0.68928 0.59176 0.1394 0.0
C1258 C 0.70775 0.57092 0.15138 0.0
C1259 C 0.69609 0.54951 0.16844 0.0
C1260 C 0.66593 0.54895 0.1736 0.0
C1261 C 0.64736 0.56973 0.16165 0.0
H1262 H 0.71043 0.53339 0.17769 0.0
H1263 H 0.54426 0.74763 0.06407 0.0
loop_
_geom_bond_atom_site_label_1
_geom_bond_atom_site_label_2
_geom_bond_distance
_geom_bond_site_symmetry_2
_ccdc_geom_bond_type
C0 C1 1.351 . S
C0 N3 1.368 . S
C0 H5 0.931 . S
C1 C0 1.351 . S
C1 N2 1.373 . S
C1 H29 0.930 . S
N2 C1 1.373 . S
N2 C4 1.340 . S
N3 C0 1.368 . S
N3 C4 1.321 . S
N3 Co6 2.135 . S
C4 N2 1.340 . S
C4 N3 1.321 . S
C4 H28 0.930 . S
H5 C0 0.931 . S
Co6 N3 2.135 . S
Co6 N9 2.121 . S
Co6 O14 2.055 . S
Co6 O17 2.039 . S
Co6 N20 2.140 . S
C7 O8 1.227 . S
C7 O17 1.265 . S
O8 C7 1.227 . S
N9 Co6 2.121 . S
N9 C11 1.375 . S
N9 C12 1.313 . S
C10 C11 1.338 1_556 S
C10 N13 1.377 . S
C10 H30 0.930 . S
C11 N9 1.375 . S
C11 C10 1.338 1_554 S
C11 H15 0.931 . S
C12 N9 1.313 . S
C12 N13 1.344 1_554 S
C12 H16 0.930 . S
N13 C10 1.377 . S
N13 C12 1.344 1_556 S
O14 Co6 2.055 . S
O14 C18 1.253 . S
H15 C11 0.931 . S
H16 C12 0.930 . S
O17 Co6 2.039 . S
O17 C7 1.265 . S
C18 O14 1.253 . S
C18 O19 1.227 . S
O19 C18 1.227 . S
N20 Co6 2.140 . S
N20 C23 1.346 . S
N20 C24 1.345 . S
C21 C22 1.387 . S
C21 C25 1.391 . S
C22 C21 1.387 . S
C22 C23 1.369 . S
C22 H31 0.929 . S
C23 N20 1.346 . S
C23 C22 1.369 . S
C23 H26 0.928 . S
C24 N20 1.345 . S
C24 C25 1.371 . S
C24 H27 0.931 . S
C25 C21 1.391 . S
C25 C24 1.371 . S
C25 H32 0.930 1_554 S
H26 C23 0.928 . S
H27 C24 0.931 . S
H28 C4 0.930 . S
H29 C1 0.930 . S
H30 C10 0.930 . S
H31 C22 0.929 . S
H32 C25 0.930 1_556 S
C33 C34 1.351 . S
C33 N36 1.368 . S
C33 H38 0.931 . S
C34 C33 1.351 . S
C34 N35 1.373 . S
C34 H62 0.930 . S
N35 C34 1.373 . S
N35 C37 1.340 . S
N36 C33 1.368 . S
N36 C37 1.321 . S
N36 Co39 2.135 . S
C37 N35 1.340 . S
C37 N36 1.321 . S
C37 H61 0.930 . S
H38 C33 0.931 . S
Co39 N36 2.135 . S
Co39 N42 2.121 . S
Co39 O47 2.055 . S
Co39 O50 2.039 . S
Co39 N53 2.140 . S
C40 O41 1.227 . S
C40 O50 1.265 . S
O41 C40 1.227 . S
N42 Co39 2.121 . S
N42 C44 1.375 . S
N42 C45 1.313 . S
C43 C44 1.338 . S
C43 N46 1.377 . S
C43 H63 0.930 . S
C44 N42 1.375 . S
C44 C43 1.338 . S
C44 H48 0.931 . S
C45 N42 1.313 . S
C45 N46 1.344 . S
C45 H49 0.930 . S
N46 C43 1.377 . S
N46 C45 1.344 . S
O47 Co39 2.055 . S
O47 C51 1.253 . S
H48 C44 0.931 . S
H49 C45 0.930 . S
O50 Co39 2.039 . S
O50 C40 1.265 . S
C51 O47 1.253 . S
C51 O52 1.227 . S
O52 C51 1.227 . S
N53 Co39 2.140 . S
N53 C56 1.346 . S
N53 C57 1.345 . S
C54 C55 1.387 . S
C54 C58 1.391 . S
C55 C54 1.387 . S
C55 C56 1.369 . S
C55 H64 0.929 . S
C56 N53 1.346 . S
C56 C55 1.369 . S
C56 H59 0.928 . S
C57 N53 1.345 . S
C57 C58 1.371 . S
C57 H60 0.931 . S
C58 C54 1.391 . S
C58 C57 1.371 . S
C58 H65 0.930 . S
H59 C56 0.928 . S
H60 C57 0.931 . S
H61 C37 0.930 . S
H62 C34 0.930 . S
H63 C43 0.930 . S
H64 C55 0.929 . S
H65 C58 0.930 . S
C66 C67 1.351 . S
C66 N69 1.368 . S
C66 H71 0.931 . S
C67 C66 1.351 . S
C67 N68 1.373 . S
C67 H95 0.930 . S
N68 C67 1.373 . S
N68 C70 1.340 . S
N69 C66 1.368 . S
N69 C70 1.321 . S
N69 Co72 2.135 . S
C70 N68 1.340 . S
C70 N69 1.321 . S
C70 H94 0.930 . S
H71 C66 0.931 . S
Co72 N69 2.135 . S
Co72 N75 2.121 . S
Co72 O80 2.055 . S
Co72 O83 2.039 . S
Co72 N86 2.140 . S
C73 O74 1.227 . S
C73 O83 1.265 . S
O74 C73 1.227 . S
N75 Co72 2.121 . S
N75 C77 1.375 . S
N75 C78 1.313 . S
C76 C77 1.338 . S
C76 N79 1.377 . S
C76 H96 0.930 . S
C77 N75 1.375 . S
C77 C76 1.338 . S
C77 H81 0.931 . S
C78 N75 1.313 . S
C78 N79 1.344 . S
C78 H82 0.930 . S
N79 C76 1.377 . S
N79 C78 1.344 . S
O80 Co72 2.055 . S
O80 C84 1.253 . S
H81 C77 0.931 . S
H82 C78 0.930 . S
O83 Co72 2.039 . S
O83 C73 1.265 . S
C84 O80 1.253 . S
C84 O85 1.227 . S
O85 C84 1.227 . S
N86 Co72 2.140 . S
N86 C89 1.346 . S
N86 C90 1.345 . S
C87 C88 1.387 . S
C87 C91 1.391 . S
C88 C87 1.387 . S
C88 C89 1.369 . S
C88 H97 0.929 . S
C89 N86 1.346 . S
C89 C88 1.369 . S
C89 H92 0.928 . S
C90 N86 1.345 . S
C90 C91 1.371 . S
C90 H93 0.931 . S
C91 C87 1.391 . S
C91 C90 1.371 . S
C91 H98 0.930 . S
H92 C89 0.928 . S
H93 C90 0.931 . S
H94 C70 0.930 . S
H95 C67 0.930 . S
H96 C76 0.930 . S
H97 C88 0.929 . S
H98 C91 0.930 . S
C99 C100 1.351 . S
C99 N102 1.368 . S
C99 H104 0.931 . S
C100 C99 1.351 . S
C100 N101 1.373 . S
C100 H128 0.930 . S
N101 C100 1.373 . S
N101 C103 1.340 . S
N102 C99 1.368 . S
N102 C103 1.321 . S
N102 Co105 2.135 . S
C103 N101 1.340 . S
C103 N102 1.321 . S
C103 H127 0.930 . S
H104 C99 0.931 . S
Co105 N102 2.135 . S
Co105 N108 2.121 . S
Co105 O113 2.055 . S
Co105 O116 2.039 . S
Co105 N119 2.140 . S
C106 O107 1.227 . S
C106 O116 1.265 . S
O107 C106 1.227 . S
N108 Co105 2.121 . S
N108 C110 1.375 . S
N108 C111 1.313 . S
C109 C110 1.338 . S
C109 N112 1.377 . S
C109 H129 0.930 . S
C110 N108 1.375 . S
C110 C109 1.338 . S
C110 H114 0.931 . S
C111 N108 1.313 . S
C111 N112 1.344 . S
C111 H115 0.930 . S
N112 C109 1.377 . S
N112 C111 1.344 . S
O113 Co105 2.055 . S
O113 C117 1.253 . S
H114 C110 0.931 . S
H115 C111 0.930 . S
O116 Co105 2.039 . S
O116 C106 1.265 . S
C117 O113 1.253 . S
C117 O118 1.227 . S
O118 C117 1.227 . S
N119 Co105 2.140 . S
N119 C122 1.346 . S
N119 C123 1.345 . S
C120 C121 1.387 . S
C120 C124 1.391 . S
C121 C120 1.387 . S
C121 C122 1.369 . S
C121 H130 0.929 . S
C122 N119 1.346 . S
C122 C121 1.369 . S
C122 H125 0.928 . S
C123 N119 1.345 . S
C123 C124 1.371 . S
C123 H126 0.931 . S
C124 C120 1.391 . S
C124 C123 1.371 . S
C124 H131 0.930 . S
H125 C122 0.928 . S
H126 C123 0.931 . S
H127 C103 0.930 . S
H128 C100 0.930 . S
H129 C109 0.930 . S
H130 C121 0.929 . S
H131 C124 0.930 . S
C132 C133 1.351 . S
C132 N135 1.368 . S
C132 H137 0.931 . S
C133 C132 1.351 . S
C133 N134 1.373 . S
C133 H161 0.930 . S
N134 C133 1.373 . S
N134 C136 1.340 . S
N135 C132 1.368 . S
N135 C136 1.321 . S
N135 Co138 2.135 . S
C136 N134 1.340 . S
C136 N135 1.321 . S
C136 H160 0.930 . S
H137 C132 0.931 . S
Co138 N135 2.135 . S
Co138 N141 2.121 . S
Co138 O146 2.055 . S
Co138 O149 2.039 . S
Co138 N152 2.140 . S
C139 O140 1.227 . S
C139 O149 1.265 . S
O140 C139 1.227 . S
N141 Co138 2.121 . S
N141 C143 1.375 . S
N141 C144 1.313 . S
C142 C143 1.338 . S
C142 N145 1.377 . S
C142 H162 0.930 . S
C143 N141 1.375 . S
C143 C142 1.338 . S
C143 H147 0.931 . S
C144 N141 1.313 . S
C144 N145 1.344 . S
C144 H148 0.930 . S
N145 C142 1.377 . S
N145 C144 1.344 . S
O146 Co138 2.055 . S
O146 C150 1.253 . S
H147 C143 0.931 . S
H148 C144 0.930 . S
O149 Co138 2.039 . S
O149 C139 1.265 . S
C150 O146 1.253 . S
C150 O151 1.227 . S
O151 C150 1.227 . S
N152 Co138 2.140 . S
N152 C155 1.346 . S
N152 C156 1.345 . S
C153 C154 1.387 . S
C153 C157 1.391 . S
C154 C153 1.387 . S
C154 C155 1.369 . S
C154 H163 0.929 . S
C155 N152 1.346 . S
C155 C154 1.369 . S
C155 H158 0.928 . S
C156 N152 1.345 . S
C156 C157 1.371 . S
C156 H159 0.931 . S
C157 C153 1.391 . S
C157 C156 1.371 . S
C157 H164 0.930 . S
H158 C155 0.928 . S
H159 C156 0.931 . S
H160 C136 0.930 . S
H161 C133 0.930 . S
H162 C142 0.930 . S
H163 C154 0.929 . S
H164 C157 0.930 . S
C165 C166 1.351 . S
C165 N168 1.368 . S
C165 H170 0.931 . S
C166 C165 1.351 . S
C166 N167 1.373 . S
C166 H194 0.930 . S
N167 C166 1.373 . S
N167 C169 1.340 . S
N168 C165 1.368 . S
N168 C169 1.321 . S
N168 Co171 2.135 . S
C169 N167 1.340 . S
C169 N168 1.321 . S
C169 H193 0.930 . S
H170 C165 0.931 . S
Co171 N168 2.135 . S
Co171 N174 2.121 . S
Co171 O179 2.055 . S
Co171 O182 2.039 . S
Co171 N185 2.140 . S
C172 O173 1.227 . S
C172 O182 1.265 . S
O173 C172 1.227 . S
N174 Co171 2.121 . S
N174 C176 1.375 . S
N174 C177 1.313 . S
C175 C176 1.338 . S
C175 N178 1.377 . S
C175 H195 0.930 . S
C176 N174 1.375 . S
C176 C175 1.338 . S
C176 H180 0.931 . S
C177 N174 1.313 . S
C177 N178 1.344 . S
C177 H181 0.930 . S
N178 C175 1.377 . S
N178 C177 1.344 . S
O179 Co171 2.055 . S
O179 C183 1.253 . S
H180 C176 0.931 . S
H181 C177 0.930 . S
O182 Co171 2.039 . S
O182 C172 1.265 . S
C183 O179 1.253 . S
C183 O184 1.227 . S
O184 C183 1.227 . S
N185 Co171 2.140 . S
N185 C188 1.346 . S
N185 C189 1.345 . S
C186 C187 1.387 . S
C186 C190 1.391 . S
C187 C186 1.387 . S
C187 C188 1.369 . S
C187 H196 0.929 . S
C188 N185 1.346 . S
C188 C187 1.369 . S
C188 H191 0.928 . S
C189 N185 1.345 . S
C189 C190 1.371 . S
C189 H192 0.931 . S
C190 C186 1.391 . S
C190 C189 1.371 . S
C190 H197 0.930 . S
H191 C188 0.928 . S
H192 C189 0.931 . S
H193 C169 0.930 . S
H194 C166 0.930 . S
H195 C175 0.930 . S
H196 C187 0.929 . S
H197 C190 0.930 . S
C198 C199 1.351 . S
C198 N201 1.368 . S
C198 H203 0.931 . S
C199 C198 1.351 . S
C199 N200 1.373 . S
C199 H227 0.930 . S
N200 C199 1.373 . S
N200 C202 1.340 . S
N201 C198 1.368 . S
N201 C202 1.321 . S
N201 Co204 2.135 . S
C202 N200 1.340 . S
C202 N201 1.321 . S
C202 H226 0.930 . S
H203 C198 0.931 . S
Co204 N201 2.135 . S
Co204 N207 2.121 . S
Co204 O212 2.055 . S
Co204 O215 2.039 . S
Co204 N218 2.140 . S
C205 O206 1.227 . S
C205 O215 1.265 . S
O206 C205 1.227 . S
N207 Co204 2.121 . S
N207 C209 1.375 . S
N207 C210 1.313 . S
C208 C209 1.338 1_554 S
C208 N211 1.377 . S
C208 H228 0.930 . S
C209 N207 1.375 . S
C209 C208 1.338 1_556 S
C209 H213 0.931 . S
C210 N207 1.313 . S
C210 N211 1.344 1_556 S
C210 H214 0.930 . S
N211 C208 1.377 . S
N211 C210 1.344 1_554 S
O212 Co204 2.055 . S
O212 C216 1.253 . S
H213 C209 0.931 . S
H214 C210 0.930 . S
O215 Co204 2.039 . S
O215 C205 1.265 . S
C216 O212 1.253 . S
C216 O217 1.227 . S
O217 C216 1.227 . S
N218 Co204 2.140 . S
N218 C221 1.346 . S
N218 C222 1.345 . S
C219 C220 1.387 . S
C219 C223 1.391 . S
C220 C219 1.387 . S
C220 C221 1.369 . S
C220 H229 0.929 . S
C221 N218 1.346 . S
C221 C220 1.369 . S
C221 H224 0.928 . S
C222 N218 1.345 . S
C222 C223 1.371 . S
C222 H225 0.931 . S
C223 C219 1.391 . S
C223 C222 1.371 . S
C223 H230 0.930 1_556 S
H224 C221 0.928 . S
H225 C222 0.931 . S
H226 C202 0.930 . S
H227 C199 0.930 . S
H228 C208 0.930 . S
H229 C220 0.929 . S
H230 C223 0.930 1_554 S
C231 C232 1.351 . S
C231 N234 1.368 . S
C231 H236 0.931 . S
C232 C231 1.351 . S
C232 N233 1.373 . S
C232 H260 0.930 . S
N233 C232 1.373 . S
N233 C235 1.340 . S
N234 C231 1.368 . S
N234 C235 1.321 . S
N234 Co237 2.135 . S
C235 N233 1.340 . S
C235 N234 1.321 . S
C235 H259 0.930 . S
H236 C231 0.931 . S
Co237 N234 2.135 . S
Co237 N240 2.121 . S
Co237 O245 2.055 . S
Co237 O248 2.039 . S
Co237 N251 2.140 . S
C238 O239 1.227 . S
C238 O248 1.265 . S
O239 C238 1.227 . S
N240 Co237 2.121 . S
N240 C242 1.375 . S
N240 C243 1.313 . S
C241 C242 1.338 . S
C241 N244 1.377 . S
C241 H261 0.930 . S
C242 N240 1.375 . S
C242 C241 1.338 . S
C242 H246 0.931 . S
C243 N240 1.313 . S
C243 N244 1.344 . S
C243 H247 0.930 . S
N244 C241 1.377 . S
N244 C243 1.344 . S
O245 Co237 2.055 . S
O245 C249 1.253 . S
H246 C242 0.931 . S
H247 C243 0.930 . S
O248 Co237 2.039 . S
O248 C238 1.265 . S
C249 O245 1.253 . S
C249 O250 1.227 . S
O250 C249 1.227 . S
N251 Co237 2.140 . S
N251 C254 1.346 . S
N251 C255 1.345 . S
C252 C253 1.387 . S
C252 C256 1.391 . S
C253 C252 1.387 . S
C253 C254 1.369 . S
C253 H262 0.929 . S
C254 N251 1.346 . S
C254 C253 1.369 . S
C254 H257 0.928 . S
C255 N251 1.345 . S
C255 C256 1.371 . S
C255 H258 0.931 . S
C256 C252 1.391 . S
C256 C255 1.371 . S
C256 H263 0.930 . S
H257 C254 0.928 . S
H258 C255 0.931 . S
H259 C235 0.930 . S
H260 C232 0.930 . S
H261 C241 0.930 . S
H262 C253 0.929 . S
H263 C256 0.930 . S
H264 C282 0.951 . S
H265 C284 0.951 . S
H266 C286 0.950 . S
H267 C287 0.950 . S
H268 C289 0.950 . S
H269 C292 0.950 . S
H270 C293 0.950 . S
H271 C295 0.950 . S
H272 C296 0.950 . S
H273 C297 0.951 . S
H274 C299 0.951 . S
H275 C301 0.950 . S
H276 C302 0.950 . S
H277 C304 0.950 . S
H278 C307 0.950 . S
H279 C308 0.950 . S
H280 C310 0.950 . S
H281 C311 0.950 . S
C282 H264 0.951 . S
C282 C283 1.366 . S
C282 C284 1.388 . S
C283 C282 1.366 . S
C283 C287 1.385 . S
C284 H265 0.951 . S
C284 C282 1.388 . S
C284 C285 1.366 . S
C285 C284 1.366 . S
C285 C286 1.414 . S
C285 C288 1.499 . S
C286 H266 0.950 . S
C286 C285 1.414 . S
C286 C287 1.374 . S
C287 H267 0.950 . S
C287 C283 1.385 . S
C287 C286 1.374 . S
C288 C285 1.499 . S
C288 C289 1.373 . S
C288 C290 1.389 . S
C289 H268 0.950 . S
C289 C288 1.373 . S
C289 C305 1.377 . S
C290 C288 1.389 . S
C290 C291 1.524 . S
C290 C304 1.377 . S
C291 C290 1.524 . S
C291 C292 1.397 . S
C291 C296 1.363 . S
C292 H269 0.950 . S
C292 C291 1.397 . S
C292 C293 1.334 . S
C293 H270 0.950 . S
C293 C292 1.334 . S
C293 C294 1.287 . S
C294 C293 1.287 . S
C294 C295 1.524 . S
C294 H313 0.913 . S
C295 H271 0.950 . S
C295 C294 1.524 . S
C295 C296 1.415 . S
C296 H272 0.950 . S
C296 C291 1.363 . S
C296 C295 1.415 . S
C297 H273 0.951 . S
C297 C298 1.366 . S
C297 C299 1.388 . S
C298 C297 1.366 . S
C298 C302 1.385 . S
C299 H274 0.951 . S
C299 C297 1.388 . S
C299 C300 1.366 . S
C300 C299 1.366 . S
C300 C301 1.414 . S
C300 C303 1.499 . S
C301 H275 0.950 . S
C301 C300 1.414 . S
C301 C302 1.374 . S
C302 H276 0.950 . S
C302 C298 1.385 . S
C302 C301 1.374 . S
C303 C300 1.499 . S
C303 C304 1.373 . S
C303 C305 1.389 . S
C304 H277 0.950 . S
C304 C290 1.377 . S
C304 C303 1.373 . S
C305 C289 1.377 . S
C305 C303 1.389 . S
C305 C306 1.524 . S
C306 C305 1.524 . S
C306 C307 1.397 . S
C306 C311 1.363 . S
C307 H278 0.950 . S
C307 C306 1.397 . S
C307 C308 1.334 . S
C308 H279 0.950 . S
C308 C307 1.334 . S
C308 C309 1.287 . S
C309 C308 1.287 . S
C309 C310 1.524 . S
C309 H312 0.999 . S
C310 H280 0.950 . S
C310 C309 1.524 . S
C310 C311 1.415 . S
C311 H281 0.950 . S
C311 C306 1.363 . S
C311 C310 1.415 . S
H312 C309 0.999 . S
H313 C294 0.913 . S
H314 C332 0.951 . S
H315 C334 0.951 . S
H316 C336 0.950 . S
H317 C337 0.950 . S
H318 C339 0.950 . S
H319 C342 0.950 . S
H320 C343 0.950 . S
H321 C345 0.950 . S
H322 C346 0.950 . S
H323 C347 0.951 . S
H324 C349 0.951 . S
H325 C351 0.950 . S
H326 C352 0.950 . S
H327 C354 0.950 . S
H328 C357 0.950 . S
H329 C358 0.950 . S
H330 C360 0.950 . S
H331 C361 0.950 . S
C332 H314 0.951 . S
C332 C333 1.366 . S
C332 C334 1.388 . S
C333 C332 1.366 . S
C333 C337 1.385 . S
C334 H315 0.951 . S
C334 C332 1.388 . S
C334 C335 1.366 . S
C335 C334 1.366 . S
C335 C336 1.414 . S
C335 C338 1.499 . S
C336 H316 0.950 . S
C336 C335 1.414 . S
C336 C337 1.374 . S
C337 H317 0.950 . S
C337 C333 1.385 . S
C337 C336 1.374 . S
C338 C335 1.499 . S
C338 C339 1.373 . S
C338 C340 1.389 . S
C339 H318 0.950 . S
C339 C338 1.373 . S
C339 C355 1.377 . S
C340 C338 1.389 . S
C340 C341 1.524 . S
C340 C354 1.377 . S
C341 C340 1.524 . S
C341 C342 1.397 . S
C341 C346 1.363 . S
C342 H319 0.950 . S
C342 C341 1.397 . S
C342 C343 1.334 . S
C343 H320 0.950 . S
C343 C342 1.334 . S
C343 C344 1.287 . S
C344 C343 1.287 . S
C344 C345 1.524 . S
C344 H363 0.913 . S
C345 H321 0.950 . S
C345 C344 1.524 . S
C345 C346 1.415 . S
C346 H322 0.950 . S
C346 C341 1.363 . S
C346 C345 1.415 . S
C347 H323 0.951 . S
C347 C348 1.366 . S
C347 C349 1.388 . S
C348 C347 1.366 . S
C348 C352 1.385 . S
C349 H324 0.951 . S
C349 C347 1.388 . S
C349 C350 1.366 . S
C350 C349 1.366 . S
C350 C351 1.414 . S
C350 C353 1.499 . S
C351 H325 0.950 . S
C351 C350 1.414 . S
C351 C352 1.374 . S
C352 H326 0.950 . S
C352 C348 1.385 . S
C352 C351 1.374 . S
C353 C350 1.499 . S
C353 C354 1.373 . S
C353 C355 1.389 . S
C354 H327 0.950 . S
C354 C340 1.377 . S
C354 C353 1.373 . S
C355 C339 1.377 . S
C355 C353 1.389 . S
C355 C356 1.524 . S
C356 C355 1.524 . S
C356 C357 1.397 . S
C356 C361 1.363 . S
C357 H328 0.950 . S
C357 C356 1.397 . S
C357 C358 1.334 . S
C358 H329 0.950 . S
C358 C357 1.334 . S
C358 C359 1.287 . S
C359 C358 1.287 . S
C359 C360 1.524 . S
C359 H362 0.999 . S
C360 H330 0.950 . S
C360 C359 1.524 . S
C360 C361 1.415 . S
C361 H331 0.950 . S
C361 C356 1.363 . S
C361 C360 1.415 . S
H362 C359 0.999 . S
H363 C344 0.913 . S
H364 C382 0.951 . S
H365 C384 0.951 . S
H366 C386 0.950 . S
H367 C387 0.950 . S
H368 C389 0.950 . S
H369 C392 0.950 . S
H370 C393 0.950 . S
H371 C395 0.950 . S
H372 C396 0.950 . S
H373 C397 0.951 . S
H374 C399 0.951 . S
H375 C401 0.950 . S
H376 C402 0.950 . S
H377 C404 0.950 . S
H378 C407 0.950 . S
H379 C408 0.950 . S
H380 C410 0.950 . S
H381 C411 0.950 . S
C382 H364 0.951 . S
C382 C383 1.366 . S
C382 C384 1.388 . S
C383 C382 1.366 . S
C383 C387 1.385 . S
C384 H365 0.951 . S
C384 C382 1.388 . S
C384 C385 1.366 . S
C385 C384 1.366 . S
C385 C386 1.414 . S
C385 C388 1.499 . S
C386 H366 0.950 . S
C386 C385 1.414 . S
C386 C387 1.374 . S
C387 H367 0.950 . S
C387 C383 1.385 . S
C387 C386 1.374 . S
C388 C385 1.499 . S
C388 C389 1.373 . S
C388 C390 1.389 . S
C389 H368 0.950 . S
C389 C388 1.373 . S
C389 C405 1.377 . S
C390 C388 1.389 . S
C390 C391 1.524 . S
C390 C404 1.377 . S
C391 C390 1.524 . S
C391 C392 1.397 . S
C391 C396 1.363 . S
C392 H369 0.950 . S
C392 C391 1.397 . S
C392 C393 1.334 . S
C393 H370 0.950 . S
C393 C392 1.334 . S
C393 C394 1.287 . S
C394 C393 1.287 . S
C394 C395 1.524 . S
C394 H413 0.913 . S
C395 H371 0.950 . S
C395 C394 1.524 . S
C395 C396 1.415 . S
C396 H372 0.950 . S
C396 C391 1.363 . S
C396 C395 1.415 . S
C397 H373 0.951 . S
C397 C398 1.366 . S
C397 C399 1.388 . S
C398 C397 1.366 . S
C398 C402 1.385 . S
C399 H374 0.951 . S
C399 C397 1.388 . S
C399 C400 1.366 . S
C400 C399 1.366 . S
C400 C401 1.414 . S
C400 C403 1.499 . S
C401 H375 0.950 . S
C401 C400 1.414 . S
C401 C402 1.374 . S
C402 H376 0.950 . S
C402 C398 1.385 . S
C402 C401 1.374 . S
C403 C400 1.499 . S
C403 C404 1.373 . S
C403 C405 1.389 . S
C404 H377 0.950 . S
C404 C390 1.377 . S
C404 C403 1.373 . S
C405 C389 1.377 . S
C405 C403 1.389 . S
C405 C406 1.524 . S
C406 C405 1.524 . S
C406 C407 1.397 . S
C406 C411 1.363 . S
C407 H378 0.950 . S
C407 C406 1.397 . S
C407 C408 1.334 . S
C408 H379 0.950 . S
C408 C407 1.334 . S
C408 C409 1.287 . S
C409 C408 1.287 . S
C409 C410 1.524 . S
C409 H412 0.999 . S
C410 H380 0.950 . S
C410 C409 1.524 . S
C410 C411 1.415 . S
C411 H381 0.950 . S
C411 C406 1.363 . S
C411 C410 1.415 . S
H412 C409 0.999 . S
H413 C394 0.913 . S
H414 C432 0.951 . S
H415 C434 0.951 . S
H416 C436 0.950 . S
H417 C437 0.950 . S
H418 C439 0.950 . S
H419 C442 0.950 . S
H420 C443 0.950 . S
H421 C445 0.950 . S
H422 C446 0.950 . S
H423 C447 0.951 . S
H424 C449 0.951 . S
H425 C451 0.950 . S
H426 C452 0.950 . S
H427 C454 0.950 . S
H428 C457 0.950 . S
H429 C458 0.950 . S
H430 C460 0.950 . S
H431 C461 0.950 . S
C432 H414 0.951 . S
C432 C433 1.366 . S
C432 C434 1.388 . S
C433 C432 1.366 . S
C433 C437 1.385 . S
C434 H415 0.951 . S
C434 C432 1.388 . S
C434 C435 1.366 . S
C435 C434 1.366 . S
C435 C436 1.414 . S
C435 C438 1.499 . S
C436 H416 0.950 . S
C436 C435 1.414 . S
C436 C437 1.374 . S
C437 H417 0.950 . S
C437 C433 1.385 . S
C437 C436 1.374 . S
C438 C435 1.499 . S
C438 C439 1.373 . S
C438 C440 1.389 . S
C439 H418 0.950 . S
C439 C438 1.373 . S
C439 C455 1.377 1_556 S
C440 C438 1.389 . S
C440 C441 1.524 . S
C440 C454 1.377 1_556 S
C441 C440 1.524 . S
C441 C442 1.397 . S
C441 C446 1.363 . S
C442 H419 0.950 . S
C442 C441 1.397 . S
C442 C443 1.334 . S
C443 H420 0.950 . S
C443 C442 1.334 . S
C443 C444 1.287 . S
C444 C443 1.287 . S
C444 C445 1.524 . S
C444 H463 0.913 . S
C445 H421 0.950 . S
C445 C444 1.524 . S
C445 C446 1.415 . S
C446 H422 0.950 . S
C446 C441 1.363 . S
C446 C445 1.415 . S
C447 H423 0.951 . S
C447 C448 1.366 . S
C447 C449 1.388 . S
C448 C447 1.366 . S
C448 C452 1.385 . S
C449 H424 0.951 . S
C449 C447 1.388 . S
C449 C450 1.366 . S
C450 C449 1.366 . S
C450 C451 1.414 . S
C450 C453 1.499 . S
C451 H425 0.950 . S
C451 C450 1.414 . S
C451 C452 1.374 . S
C452 H426 0.950 . S
C452 C448 1.385 . S
C452 C451 1.374 . S
C453 C450 1.499 . S
C453 C454 1.373 . S
C453 C455 1.389 . S
C454 H427 0.950 . S
C454 C440 1.377 1_554 S
C454 C453 1.373 . S
C455 C439 1.377 1_554 S
C455 C453 1.389 . S
C455 C456 1.524 . S
C456 C455 1.524 . S
C456 C457 1.397 . S
C456 C461 1.363 . S
C457 H428 0.950 . S
C457 C456 1.397 . S
C457 C458 1.334 . S
C458 H429 0.950 . S
C458 C457 1.334 . S
C458 C459 1.287 . S
C459 C458 1.287 . S
C459 C460 1.524 . S
C459 H462 0.999 . S
C460 H430 0.950 . S
C460 C459 1.524 . S
C460 C461 1.415 . S
C461 H431 0.950 . S
C461 C456 1.363 . S
C461 C460 1.415 . S
H462 C459 0.999 . S
H463 C444 0.913 . S
H464 C482 0.951 . S
H465 C484 0.951 . S
H466 C486 0.950 . S
H467 C487 0.950 . S
H468 C489 0.950 . S
H469 C492 0.950 . S
H470 C493 0.950 . S
H471 C495 0.950 . S
H472 C496 0.950 . S
H473 C497 0.951 . S
H474 C499 0.951 . S
H475 C501 0.950 . S
H476 C502 0.950 . S
H477 C504 0.950 . S
H478 C507 0.950 . S
H479 C508 0.950 . S
H480 C510 0.950 . S
H481 C511 0.950 . S
C482 H464 0.951 . S
C482 C483 1.366 . S
C482 C484 1.388 . S
C483 C482 1.366 . S
C483 C487 1.385 . S
C484 H465 0.951 . S
C484 C482 1.388 . S
C484 C485 1.366 . S
C485 C484 1.366 . S
C485 C486 1.414 . S
C485 C488 1.499 . S
C486 H466 0.950 . S
C486 C485 1.414 . S
C486 C487 1.374 . S
C487 H467 0.950 . S
C487 C483 1.385 . S
C487 C486 1.374 . S
C488 C485 1.499 . S
C488 C489 1.373 1_554 S
C488 C490 1.389 . S
C489 H468 0.950 . S
C489 C488 1.373 1_556 S
C489 C505 1.377 1_455 S
C490 C488 1.389 . S
C490 C491 1.524 . S
C490 C504 1.377 1_455 S
C491 C490 1.524 . S
C491 C492 1.397 . S
C491 C496 1.363 . S
C492 H469 0.950 . S
C492 C491 1.397 . S
C492 C493 1.334 . S
C493 H470 0.950 . S
C493 C492 1.334 . S
C493 C494 1.287 . S
C494 C493 1.287 . S
C494 C495 1.524 . S
C494 H513 0.913 . S
C495 H471 0.950 . S
C495 C494 1.524 . S
C495 C496 1.415 . S
C496 H472 0.950 . S
C496 C491 1.363 . S
C496 C495 1.415 . S
C497 H473 0.951 . S
C497 C498 1.366 . S
C497 C499 1.388 . S
C498 C497 1.366 . S
C498 C502 1.385 . S
C499 H474 0.951 . S
C499 C497 1.388 . S
C499 C500 1.366 . S
C500 C499 1.366 . S
C500 C501 1.414 . S
C500 C503 1.499 . S
C501 H475 0.950 . S
C501 C500 1.414 . S
C501 C502 1.374 . S
C502 H476 0.950 . S
C502 C498 1.385 . S
C502 C501 1.374 . S
C503 C500 1.499 . S
C503 C504 1.373 1_556 S
C503 C505 1.389 . S
C504 H477 0.950 . S
C504 C490 1.377 1_655 S
C504 C503 1.373 1_554 S
C505 C489 1.377 1_655 S
C505 C503 1.389 . S
C505 C506 1.524 . S
C506 C505 1.524 . S
C506 C507 1.397 . S
C506 C511 1.363 . S
C507 H478 0.950 . S
C507 C506 1.397 . S
C507 C508 1.334 . S
C508 H479 0.950 . S
C508 C507 1.334 . S
C508 C509 1.287 . S
C509 C508 1.287 . S
C509 C510 1.524 . S
C509 H512 0.999 . S
C510 H480 0.950 . S
C510 C509 1.524 . S
C510 C511 1.415 . S
C511 H481 0.950 . S
C511 C506 1.363 . S
C511 C510 1.415 . S
H512 C509 0.999 . S
H513 C494 0.913 . S
H514 C532 0.951 . S
H515 C534 0.951 . S
H516 C536 0.950 . S
H517 C537 0.950 . S
H518 C539 0.950 . S
H519 C542 0.950 . S
H520 C543 0.950 . S
H521 C545 0.950 . S
H522 C546 0.950 . S
H523 C547 0.951 . S
H524 C549 0.951 . S
H525 C551 0.950 . S
H526 C552 0.950 . S
H527 C554 0.950 . S
H528 C557 0.950 . S
H529 C558 0.950 . S
H530 C560 0.950 . S
H531 C561 0.950 . S
C532 H514 0.951 . S
C532 C533 1.366 . S
C532 C534 1.388 . S
C533 C532 1.366 . S
C533 C537 1.385 . S
C534 H515 0.951 . S
C534 C532 1.388 . S
C534 C535 1.366 . S
C535 C534 1.366 . S
C535 C536 1.414 . S
C535 C538 1.499 . S
C536 H516 0.950 . S
C536 C535 1.414 . S
C536 C537 1.374 . S
C537 H517 0.950 . S
C537 C533 1.385 . S
C537 C536 1.374 . S
C538 C535 1.499 . S
C538 C539 1.373 . S
C538 C540 1.389 . S
C539 H518 0.950 . S
C539 C538 1.373 . S
C539 C555 1.377 1_545 S
C540 C538 1.389 . S
C540 C541 1.524 . S
C540 C554 1.377 1_545 S
C541 C540 1.524 . S
C541 C542 1.397 . S
C541 C546 1.363 . S
C542 H519 0.950 . S
C542 C541 1.397 . S
C542 C543 1.334 . S
C543 H520 0.950 . S
C543 C542 1.334 . S
C543 C544 1.287 . S
C544 C543 1.287 . S
C544 C545 1.524 . S
C544 H563 0.913 . S
C545 H521 0.950 . S
C545 C544 1.524 . S
C545 C546 1.415 . S
C546 H522 0.950 . S
C546 C541 1.363 . S
C546 C545 1.415 . S
C547 H523 0.951 . S
C547 C548 1.366 . S
C547 C549 1.388 . S
C548 C547 1.366 . S
C548 C552 1.385 . S
C549 H524 0.951 . S
C549 C547 1.388 . S
C549 C550 1.366 . S
C550 C549 1.366 . S
C550 C551 1.414 . S
C550 C553 1.499 . S
C551 H525 0.950 . S
C551 C550 1.414 . S
C551 C552 1.374 . S
C552 H526 0.950 . S
C552 C548 1.385 . S
C552 C551 1.374 . S
C553 C550 1.499 . S
C553 C554 1.373 . S
C553 C555 1.389 . S
C554 H527 0.950 . S
C554 C540 1.377 1_565 S
C554 C553 1.373 . S
C555 C539 1.377 1_565 S
C555 C553 1.389 . S
C555 C556 1.524 . S
C556 C555 1.524 . S
C556 C557 1.397 . S
C556 C561 1.363 . S
C557 H528 0.950 . S
C557 C556 1.397 . S
C557 C558 1.334 . S
C558 H529 0.950 . S
C558 C557 1.334 . S
C558 C559 1.287 . S
C559 C558 1.287 . S
C559 C560 1.524 . S
C559 H562 0.999 . S
C560 H530 0.950 . S
C560 C559 1.524 . S
C560 C561 1.415 . S
C561 H531 0.950 . S
C561 C556 1.363 . S
C561 C560 1.415 . S
H562 C559 0.999 . S
H563 C544 0.913 . S
H564 C582 0.951 . S
H565 C584 0.951 . S
H566 C586 0.950 . S
H567 C587 0.950 . S
H568 C589 0.950 . S
H569 C592 0.950 . S
H570 C593 0.950 . S
H571 C595 0.950 . S
H572 C596 0.950 1_655 S
H573 C597 0.951 . S
H574 C599 0.951 . S
H575 C601 0.950 . S
H576 C602 0.950 . S
H577 C604 0.950 . S
H578 C607 0.950 . S
H579 C608 0.950 . S
H580 C610 0.950 . S
H581 C611 0.950 1_455 S
C582 H564 0.951 . S
C582 C583 1.366 . S
C582 C584 1.388 . S
C583 C582 1.366 . S
C583 C587 1.385 . S
C584 H565 0.951 . S
C584 C582 1.388 . S
C584 C585 1.366 . S
C585 C584 1.366 . S
C585 C586 1.414 . S
C585 C588 1.499 . S
C586 H566 0.950 . S
C586 C585 1.414 . S
C586 C587 1.374 . S
C587 H567 0.950 . S
C587 C583 1.385 . S
C587 C586 1.374 . S
C588 C585 1.499 . S
C588 C589 1.373 . S
C588 C590 1.389 . S
C589 H568 0.950 . S
C589 C588 1.373 . S
C589 C605 1.377 1_455 S
C590 C588 1.389 . S
C590 C591 1.524 . S
C590 C604 1.377 1_455 S
C591 C590 1.524 . S
C591 C592 1.397 . S
C591 C596 1.363 . S
C592 H569 0.950 . S
C592 C591 1.397 . S
C592 C593 1.334 . S
C593 H570 0.950 . S
C593 C592 1.334 . S
C593 C594 1.287 . S
C594 C593 1.287 . S
C594 C595 1.524 . S
C594 H613 0.913 . S
C595 H571 0.950 . S
C595 C594 1.524 . S
C595 C596 1.415 . S
C596 H572 0.950 1_455 S
C596 C591 1.363 . S
C596 C595 1.415 . S
C597 H573 0.951 . S
C597 C598 1.366 . S
C597 C599 1.388 . S
C598 C597 1.366 . S
C598 C602 1.385 . S
C599 H574 0.951 . S
C599 C597 1.388 . S
C599 C600 1.366 . S
C600 C599 1.366 . S
C600 C601 1.414 . S
C600 C603 1.499 . S
C601 H575 0.950 . S
C601 C600 1.414 . S
C601 C602 1.374 . S
C602 H576 0.950 . S
C602 C598 1.385 . S
C602 C601 1.374 . S
C603 C600 1.499 . S
C603 C604 1.373 . S
C603 C605 1.389 . S
C604 H577 0.950 . S
C604 C590 1.377 1_655 S
C604 C603 1.373 . S
C605 C589 1.377 1_655 S
C605 C603 1.389 . S
C605 C606 1.524 . S
C606 C605 1.524 . S
C606 C607 1.397 . S
C606 C611 1.363 . S
C607 H578 0.950 . S
C607 C606 1.397 . S
C607 C608 1.334 . S
C608 H579 0.950 . S
C608 C607 1.334 . S
C608 C609 1.287 . S
C609 C608 1.287 . S
C609 C610 1.524 . S
C609 H612 0.999 . S
C610 H580 0.950 . S
C610 C609 1.524 . S
C610 C611 1.415 . S
C611 H581 0.950 1_655 S
C611 C606 1.363 . S
C611 C610 1.415 . S
H612 C609 0.999 . S
H613 C594 0.913 . S
H614 C632 0.951 . S
H615 C634 0.951 . S
H616 C636 0.950 . S
H617 C637 0.950 . S
H618 C639 0.950 . S
H619 C642 0.950 . S
H620 C643 0.950 . S
H621 C645 0.950 . S
H622 C646 0.950 . S
H623 C647 0.951 . S
H624 C649 0.951 . S
H625 C651 0.950 . S
H626 C652 0.950 . S
H627 C654 0.950 . S
H628 C657 0.950 . S
H629 C658 0.950 . S
H630 C660 0.950 . S
H631 C661 0.950 . S
C632 H614 0.951 . S
C632 C633 1.366 . S
C632 C634 1.388 . S
C633 C632 1.366 . S
C633 C637 1.385 . S
C634 H615 0.951 . S
C634 C632 1.388 . S
C634 C635 1.366 . S
C635 C634 1.366 . S
C635 C636 1.414 . S
C635 C638 1.499 . S
C636 H616 0.950 . S
C636 C635 1.414 . S
C636 C637 1.374 . S
C637 H617 0.950 . S
C637 C633 1.385 . S
C637 C636 1.374 . S
C638 C635 1.499 . S
C638 C639 1.373 . S
C638 C640 1.389 . S
C639 H618 0.950 . S
C639 C638 1.373 . S
C639 C655 1.377 1_545 S
C640 C638 1.389 . S
C640 C641 1.524 . S
C640 C654 1.377 1_545 S
C641 C640 1.524 . S
C641 C642 1.397 . S
C641 C646 1.363 . S
C642 H619 0.950 . S
C642 C641 1.397 . S
C642 C643 1.334 . S
C643 H620 0.950 . S
C643 C642 1.334 . S
C643 C644 1.287 . S
C644 C643 1.287 . S
C644 C645 1.524 . S
C644 H663 0.913 . S
C645 H621 0.950 . S
C645 C644 1.524 . S
C645 C646 1.415 . S
C646 H622 0.950 . S
C646 C641 1.363 . S
C646 C645 1.415 . S
C647 H623 0.951 . S
C647 C648 1.366 . S
C647 C649 1.388 . S
C648 C647 1.366 . S
C648 C652 1.385 . S
C649 H624 0.951 . S
C649 C647 1.388 . S
C649 C650 1.366 . S
C650 C649 1.366 . S
C650 C651 1.414 . S
C650 C653 1.499 . S
C651 H625 0.950 . S
C651 C650 1.414 . S
C651 C652 1.374 . S
C652 H626 0.950 . S
C652 C648 1.385 . S
C652 C651 1.374 . S
C653 C650 1.499 . S
C653 C654 1.373 . S
C653 C655 1.389 . S
C654 H627 0.950 . S
C654 C640 1.377 1_565 S
C654 C653 1.373 . S
C655 C639 1.377 1_565 S
C655 C653 1.389 . S
C655 C656 1.524 . S
C656 C655 1.524 . S
C656 C657 1.397 . S
C656 C661 1.363 . S
C657 H628 0.950 . S
C657 C656 1.397 . S
C657 C658 1.334 . S
C658 H629 0.950 . S
C658 C657 1.334 . S
C658 C659 1.287 . S
C659 C658 1.287 . S
C659 C660 1.524 . S
C659 H662 0.999 . S
C660 H630 0.950 . S
C660 C659 1.524 . S
C660 C661 1.415 . S
C661 H631 0.950 . S
C661 C656 1.363 . S
C661 C660 1.415 . S
H662 C659 0.999 . S
H663 C644 0.913 . S
H664 C682 0.951 . S
H665 C684 0.951 . S
H666 C686 0.950 . S
H667 C687 0.950 . S
H668 C689 0.950 . S
H669 C692 0.950 . S
H670 C693 0.950 . S
H671 C695 0.950 . S
H672 C696 0.950 . S
H673 C697 0.951 . S
H674 C699 0.951 . S
H675 C701 0.950 . S
H676 C702 0.950 . S
H677 C704 0.950 . S
H678 C707 0.950 . S
H679 C708 0.950 . S
H680 C710 0.950 . S
H681 C711 0.950 . S
C682 H664 0.951 . S
C682 C683 1.366 . S
C682 C684 1.388 . S
C683 C682 1.366 . S
C683 C687 1.385 . S
C684 H665 0.951 . S
C684 C682 1.388 . S
C684 C685 1.366 . S
C685 C684 1.366 . S
C685 C686 1.414 . S
C685 C688 1.499 . S
C686 H666 0.950 . S
C686 C685 1.414 . S
C686 C687 1.374 . S
C687 H667 0.950 . S
C687 C683 1.385 . S
C687 C686 1.374 . S
C688 C685 1.499 . S
C688 C689 1.373 . S
C688 C690 1.389 . S
C689 H668 0.950 . S
C689 C688 1.373 . S
C689 C705 1.377 . S
C690 C688 1.389 . S
C690 C691 1.524 . S
C690 C704 1.377 . S
C691 C690 1.524 . S
C691 C692 1.397 . S
C691 C696 1.363 . S
C692 H669 0.950 . S
C692 C691 1.397 . S
C692 C693 1.334 . S
C693 H670 0.950 . S
C693 C692 1.334 . S
C693 C694 1.287 . S
C694 C693 1.287 . S
C694 C695 1.524 . S
C694 H713 0.913 . S
C695 H671 0.950 . S
C695 C694 1.524 . S
C695 C696 1.415 . S
C696 H672 0.950 . S
C696 C691 1.363 . S
C696 C695 1.415 . S
C697 H673 0.951 . S
C697 C698 1.366 . S
C697 C699 1.388 . S
C698 C697 1.366 . S
C698 C702 1.385 . S
C699 H674 0.951 . S
C699 C697 1.388 . S
C699 C700 1.366 . S
C700 C699 1.366 . S
C700 C701 1.414 . S
C700 C703 1.499 . S
C701 H675 0.950 . S
C701 C700 1.414 . S
C701 C702 1.374 . S
C702 H676 0.950 . S
C702 C698 1.385 . S
C702 C701 1.374 . S
C703 C700 1.499 . S
C703 C704 1.373 . S
C703 C705 1.389 . S
C704 H677 0.950 . S
C704 C690 1.377 . S
C704 C703 1.373 . S
C705 C689 1.377 . S
C705 C703 1.389 . S
C705 C706 1.524 . S
C706 C705 1.524 . S
C706 C707 1.397 . S
C706 C711 1.363 . S
C707 H678 0.950 . S
C707 C706 1.397 . S
C707 C708 1.334 . S
C708 H679 0.950 . S
C708 C707 1.334 . S
C708 C709 1.287 . S
C709 C708 1.287 . S
C709 C710 1.524 . S
C709 H712 0.999 . S
C710 H680 0.950 . S
C710 C709 1.524 . S
C710 C711 1.415 . S
C711 H681 0.950 . S
C711 C706 1.363 . S
C711 C710 1.415 . S
H712 C709 0.999 . S
H713 C694 0.913 . S
H714 C732 0.951 . S
H715 C734 0.951 . S
H716 C736 0.950 . S
H717 C737 0.950 . S
H718 C739 0.950 . S
H719 C742 0.950 . S
H720 C743 0.950 . S
H721 C745 0.950 . S
H722 C746 0.950 . S
H723 C747 0.951 . S
H724 C749 0.951 . S
H725 C751 0.950 . S
H726 C752 0.950 . S
H727 C754 0.950 . S
H728 C757 0.950 . S
H729 C758 0.950 . S
H730 C760 0.950 . S
H731 C761 0.950 . S
C732 H714 0.951 . S
C732 C733 1.366 . S
C732 C734 1.388 . S
C733 C732 1.366 . S
C733 C737 1.385 . S
C734 H715 0.951 . S
C734 C732 1.388 . S
C734 C735 1.366 . S
C735 C734 1.366 . S
C735 C736 1.414 . S
C735 C738 1.499 . S
C736 H716 0.950 . S
C736 C735 1.414 . S
C736 C737 1.374 . S
C737 H717 0.950 . S
C737 C733 1.385 . S
C737 C736 1.374 . S
C738 C735 1.499 . S
C738 C739 1.373 . S
C738 C740 1.389 . S
C739 H718 0.950 . S
C739 C738 1.373 . S
C739 C755 1.377 . S
C740 C738 1.389 . S
C740 C741 1.524 . S
C740 C754 1.377 . S
C741 C740 1.524 . S
C741 C742 1.397 . S
C741 C746 1.363 . S
C742 H719 0.950 . S
C742 C741 1.397 . S
C742 C743 1.334 . S
C743 H720 0.950 . S
C743 C742 1.334 . S
C743 C744 1.287 . S
C744 C743 1.287 . S
C744 C745 1.524 . S
C744 H763 0.913 . S
C745 H721 0.950 . S
C745 C744 1.524 . S
C745 C746 1.415 . S
C746 H722 0.950 . S
C746 C741 1.363 . S
C746 C745 1.415 . S
C747 H723 0.951 . S
C747 C748 1.366 . S
C747 C749 1.388 . S
C748 C747 1.366 . S
C748 C752 1.385 . S
C749 H724 0.951 . S
C749 C747 1.388 . S
C749 C750 1.366 . S
C750 C749 1.366 . S
C750 C751 1.414 . S
C750 C753 1.499 . S
C751 H725 0.950 . S
C751 C750 1.414 . S
C751 C752 1.374 . S
C752 H726 0.950 . S
C752 C748 1.385 . S
C752 C751 1.374 . S
C753 C750 1.499 . S
C753 C754 1.373 . S
C753 C755 1.389 . S
C754 H727 0.950 . S
C754 C740 1.377 . S
C754 C753 1.373 . S
C755 C739 1.377 . S
C755 C753 1.389 . S
C755 C756 1.524 . S
C756 C755 1.524 . S
C756 C757 1.397 . S
C756 C761 1.363 . S
C757 H728 0.950 . S
C757 C756 1.397 . S
C757 C758 1.334 . S
C758 H729 0.950 . S
C758 C757 1.334 . S
C758 C759 1.287 . S
C759 C758 1.287 . S
C759 C760 1.524 . S
C759 H762 0.999 . S
C760 H730 0.950 . S
C760 C759 1.524 . S
C760 C761 1.415 . S
C761 H731 0.950 . S
C761 C756 1.363 . S
C761 C760 1.415 . S
H762 C759 0.999 . S
H763 C744 0.913 . S
H764 C782 0.951 . S
H765 C784 0.951 . S
H766 C786 0.950 . S
H767 C787 0.950 . S
H768 C789 0.950 . S
H769 C792 0.950 . S
H770 C793 0.950 . S
H771 C795 0.950 . S
H772 C796 0.950 . S
H773 C797 0.951 . S
H774 C799 0.951 . S
H775 C801 0.950 . S
H776 C802 0.950 . S
H777 C804 0.950 . S
H778 C807 0.950 . S
H779 C808 0.950 . S
H780 C810 0.950 . S
H781 C811 0.950 . S
C782 H764 0.951 . S
C782 C783 1.366 . S
C782 C784 1.388 . S
C783 C782 1.366 . S
C783 C787 1.385 . S
C784 H765 0.951 . S
C784 C782 1.388 . S
C784 C785 1.366 . S
C785 C784 1.366 . S
C785 C786 1.414 . S
C785 C788 1.499 . S
C786 H766 0.950 . S
C786 C785 1.414 . S
C786 C787 1.374 . S
C787 H767 0.950 . S
C787 C783 1.385 . S
C787 C786 1.374 . S
C788 C785 1.499 . S
C788 C789 1.373 . S
C788 C790 1.389 . S
C789 H768 0.950 . S
C789 C788 1.373 . S
C789 C805 1.377 . S
C790 C788 1.389 . S
C790 C791 1.524 . S
C790 C804 1.377 . S
C791 C790 1.524 . S
C791 C792 1.397 . S
C791 C796 1.363 . S
C792 H769 0.950 . S
C792 C791 1.397 . S
C792 C793 1.334 . S
C793 H770 0.950 . S
C793 C792 1.334 . S
C793 C794 1.287 . S
C794 C793 1.287 . S
C794 C795 1.524 . S
C794 H813 0.913 . S
C795 H771 0.950 . S
C795 C794 1.524 . S
C795 C796 1.415 . S
C796 H772 0.950 . S
C796 C791 1.363 . S
C796 C795 1.415 . S
C797 H773 0.951 . S
C797 C798 1.366 . S
C797 C799 1.388 . S
C798 C797 1.366 . S
C798 C802 1.385 . S
C799 H774 0.951 . S
C799 C797 1.388 . S
C799 C800 1.366 . S
C800 C799 1.366 . S
C800 C801 1.414 . S
C800 C803 1.499 . S
C801 H775 0.950 . S
C801 C800 1.414 . S
C801 C802 1.374 . S
C802 H776 0.950 . S
C802 C798 1.385 . S
C802 C801 1.374 . S
C803 C800 1.499 . S
C803 C804 1.373 . S
C803 C805 1.389 . S
C804 H777 0.950 . S
C804 C790 1.377 . S
C804 C803 1.373 . S
C805 C789 1.377 . S
C805 C803 1.389 . S
C805 C806 1.524 . S
C806 C805 1.524 . S
C806 C807 1.397 . S
C806 C811 1.363 . S
C807 H778 0.950 . S
C807 C806 1.397 . S
C807 C808 1.334 . S
C808 H779 0.950 . S
C808 C807 1.334 . S
C808 C809 1.287 . S
C809 C808 1.287 . S
C809 C810 1.524 . S
C809 H812 0.999 . S
C810 H780 0.950 . S
C810 C809 1.524 . S
C810 C811 1.415 . S
C811 H781 0.950 . S
C811 C806 1.363 . S
C811 C810 1.415 . S
H812 C809 0.999 . S
H813 C794 0.913 . S
H814 C832 0.951 . S
H815 C834 0.951 . S
H816 C836 0.950 . S
H817 C837 0.950 . S
H818 C839 0.950 . S
H819 C842 0.950 . S
H820 C843 0.950 . S
H821 C845 0.950 . S
H822 C846 0.950 . S
H823 C847 0.951 . S
H824 C849 0.951 . S
H825 C851 0.950 . S
H826 C852 0.950 . S
H827 C854 0.950 . S
H828 C857 0.950 . S
H829 C858 0.950 . S
H830 C860 0.950 . S
H831 C861 0.950 . S
C832 H814 0.951 . S
C832 C833 1.366 . S
C832 C834 1.388 . S
C833 C832 1.366 . S
C833 C837 1.385 . S
C834 H815 0.951 . S
C834 C832 1.388 . S
C834 C835 1.366 . S
C835 C834 1.366 . S
C835 C836 1.414 . S
C835 C838 1.499 . S
C836 H816 0.950 . S
C836 C835 1.414 . S
C836 C837 1.374 . S
C837 H817 0.950 . S
C837 C833 1.385 . S
C837 C836 1.374 . S
C838 C835 1.499 . S
C838 C839 1.373 . S
C838 C840 1.389 . S
C839 H818 0.950 . S
C839 C838 1.373 . S
C839 C855 1.377 . S
C840 C838 1.389 . S
C840 C841 1.524 . S
C840 C854 1.377 . S
C841 C840 1.524 . S
C841 C842 1.397 . S
C841 C846 1.363 . S
C842 H819 0.950 . S
C842 C841 1.397 . S
C842 C843 1.334 . S
C843 H820 0.950 . S
C843 C842 1.334 . S
C843 C844 1.287 . S
C844 C843 1.287 . S
C844 C845 1.524 . S
C844 H863 0.913 . S
C845 H821 0.950 . S
C845 C844 1.524 . S
C845 C846 1.415 . S
C846 H822 0.950 . S
C846 C841 1.363 . S
C846 C845 1.415 . S
C847 H823 0.951 . S
C847 C848 1.366 . S
C847 C849 1.388 . S
C848 C847 1.366 . S
C848 C852 1.385 . S
C849 H824 0.951 . S
C849 C847 1.388 . S
C849 C850 1.366 . S
C850 C849 1.366 . S
C850 C851 1.414 . S
C850 C853 1.499 . S
C851 H825 0.950 . S
C851 C850 1.414 . S
C851 C852 1.374 . S
C852 H826 0.950 . S
C852 C848 1.385 . S
C852 C851 1.374 . S
C853 C850 1.499 . S
C853 C854 1.373 . S
C853 C855 1.389 . S
C854 H827 0.950 . S
C854 C840 1.377 . S
C854 C853 1.373 . S
C855 C839 1.377 . S
C855 C853 1.389 . S
C855 C856 1.524 . S
C856 C855 1.524 . S
C856 C857 1.397 . S
C856 C861 1.363 . S
C857 H828 0.950 . S
C857 C856 1.397 . S
C857 C858 1.334 . S
C858 H829 0.950 . S
C858 C857 1.334 . S
C858 C859 1.287 . S
C859 C858 1.287 . S
C859 C860 1.524 . S
C859 H862 0.999 . S
C860 H830 0.950 . S
C860 C859 1.524 . S
C860 C861 1.415 . S
C861 H831 0.950 . S
C861 C856 1.363 . S
C861 C860 1.415 . S
H862 C859 0.999 . S
H863 C844 0.913 . S
H864 C882 0.951 . S
H865 C884 0.951 . S
H866 C886 0.950 . S
H867 C887 0.950 . S
H868 C889 0.950 . S
H869 C892 0.950 . S
H870 C893 0.950 . S
H871 C895 0.950 . S
H872 C896 0.950 . S
H873 C897 0.951 . S
H874 C899 0.951 . S
H875 C901 0.950 . S
H876 C902 0.950 . S
H877 C904 0.950 . S
H878 C907 0.950 . S
H879 C908 0.950 . S
H880 C910 0.950 . S
H881 C911 0.950 . S
C882 H864 0.951 . S
C882 C883 1.366 . S
C882 C884 1.388 . S
C883 C882 1.366 . S
C883 C887 1.385 . S
C884 H865 0.951 . S
C884 C882 1.388 . S
C884 C885 1.366 . S
C885 C884 1.366 . S
C885 C886 1.414 . S
C885 C888 1.499 . S
C886 H866 0.950 . S
C886 C885 1.414 . S
C886 C887 1.374 . S
C887 H867 0.950 . S
C887 C883 1.385 . S
C887 C886 1.374 . S
C888 C885 1.499 . S
C888 C889 1.373 . S
C888 C890 1.389 . S
C889 H868 0.950 . S
C889 C888 1.373 . S
C889 C905 1.377 . S
C890 C888 1.389 . S
C890 C891 1.524 . S
C890 C904 1.377 . S
C891 C890 1.524 . S
C891 C892 1.397 . S
C891 C896 1.363 . S
C892 H869 0.950 . S
C892 C891 1.397 . S
C892 C893 1.334 . S
C893 H870 0.950 . S
C893 C892 1.334 . S
C893 C894 1.287 . S
C894 C893 1.287 . S
C894 C895 1.524 . S
C894 H913 0.913 . S
C895 H871 0.950 . S
C895 C894 1.524 . S
C895 C896 1.415 . S
C896 H872 0.950 . S
C896 C891 1.363 . S
C896 C895 1.415 . S
C897 H873 0.951 . S
C897 C898 1.366 . S
C897 C899 1.388 . S
C898 C897 1.366 . S
C898 C902 1.385 . S
C899 H874 0.951 . S
C899 C897 1.388 . S
C899 C900 1.366 . S
C900 C899 1.366 . S
C900 C901 1.414 . S
C900 C903 1.499 . S
C901 H875 0.950 . S
C901 C900 1.414 . S
C901 C902 1.374 . S
C902 H876 0.950 . S
C902 C898 1.385 . S
C902 C901 1.374 . S
C903 C900 1.499 . S
C903 C904 1.373 . S
C903 C905 1.389 . S
C904 H877 0.950 . S
C904 C890 1.377 . S
C904 C903 1.373 . S
C905 C889 1.377 . S
C905 C903 1.389 . S
C905 C906 1.524 . S
C906 C905 1.524 . S
C906 C907 1.397 . S
C906 C911 1.363 . S
C907 H878 0.950 . S
C907 C906 1.397 . S
C907 C908 1.334 . S
C908 H879 0.950 . S
C908 C907 1.334 . S
C908 C909 1.287 . S
C909 C908 1.287 . S
C909 C910 1.524 . S
C909 H912 0.999 . S
C910 H880 0.950 . S
C910 C909 1.524 . S
C910 C911 1.415 . S
C911 H881 0.950 . S
C911 C906 1.363 . S
C911 C910 1.415 . S
H912 C909 0.999 . S
H913 C894 0.913 . S
H914 C932 0.951 . S
H915 C934 0.951 . S
H916 C936 0.950 . S
H917 C937 0.950 . S
H918 C939 0.950 . S
H919 C942 0.950 . S
H920 C943 0.950 . S
H921 C945 0.950 . S
H922 C946 0.950 . S
H923 C947 0.951 . S
H924 C949 0.951 . S
H925 C951 0.950 . S
H926 C952 0.950 . S
H927 C954 0.950 . S
H928 C957 0.950 . S
H929 C958 0.950 . S
H930 C960 0.950 . S
H931 C961 0.950 . S
C932 H914 0.951 . S
C932 C933 1.366 . S
C932 C934 1.388 . S
C933 C932 1.366 . S
C933 C937 1.385 . S
C934 H915 0.951 . S
C934 C932 1.388 . S
C934 C935 1.366 . S
C935 C934 1.366 . S
C935 C936 1.414 . S
C935 C938 1.499 . S
C936 H916 0.950 . S
C936 C935 1.414 . S
C936 C937 1.374 . S
C937 H917 0.950 . S
C937 C933 1.385 . S
C937 C936 1.374 . S
C938 C935 1.499 . S
C938 C939 1.373 . S
C938 C940 1.389 . S
C939 H918 0.950 . S
C939 C938 1.373 . S
C939 C955 1.377 . S
C940 C938 1.389 . S
C940 C941 1.524 . S
C940 C954 1.377 . S
C941 C940 1.524 . S
C941 C942 1.397 . S
C941 C946 1.363 . S
C942 H919 0.950 . S
C942 C941 1.397 . S
C942 C943 1.334 . S
C943 H920 0.950 . S
C943 C942 1.334 . S
C943 C944 1.287 . S
C944 C943 1.287 . S
C944 C945 1.524 . S
C944 H963 0.913 . S
C945 H921 0.950 . S
C945 C944 1.524 . S
C945 C946 1.415 . S
C946 H922 0.950 . S
C946 C941 1.363 . S
C946 C945 1.415 . S
C947 H923 0.951 . S
C947 C948 1.366 . S
C947 C949 1.388 . S
C948 C947 1.366 . S
C948 C952 1.385 . S
C949 H924 0.951 . S
C949 C947 1.388 . S
C949 C950 1.366 . S
C950 C949 1.366 . S
C950 C951 1.414 . S
C950 C953 1.499 . S
C951 H925 0.950 . S
C951 C950 1.414 . S
C951 C952 1.374 . S
C952 H926 0.950 . S
C952 C948 1.385 . S
C952 C951 1.374 . S
C953 C950 1.499 . S
C953 C954 1.373 . S
C953 C955 1.389 . S
C954 H927 0.950 . S
C954 C940 1.377 . S
C954 C953 1.373 . S
C955 C939 1.377 . S
C955 C953 1.389 . S
C955 C956 1.524 . S
C956 C955 1.524 . S
C956 C957 1.397 . S
C956 C961 1.363 . S
C957 H928 0.950 . S
C957 C956 1.397 . S
C957 C958 1.334 . S
C958 H929 0.950 . S
C958 C957 1.334 . S
C958 C959 1.287 . S
C959 C958 1.287 . S
C959 C960 1.524 . S
C959 H962 0.999 . S
C960 H930 0.950 . S
C960 C959 1.524 . S
C960 C961 1.415 . S
C961 H931 0.950 . S
C961 C956 1.363 . S
C961 C960 1.415 . S
H962 C959 0.999 . S
H963 C944 0.913 . S
H964 C982 0.951 . S
H965 C984 0.951 . S
H966 C986 0.950 . S
H967 C987 0.950 . S
H968 C989 0.950 . S
H969 C992 0.950 . S
H970 C993 0.950 . S
H971 C995 0.950 . S
H972 C996 0.950 . S
H973 C997 0.951 . S
H974 C999 0.951 . S
H975 C1001 0.950 . S
H976 C1002 0.950 . S
H977 C1004 0.950 . S
H978 C1007 0.950 . S
H979 C1008 0.950 . S
H980 C1010 0.950 . S
H981 C1011 0.950 . S
C982 H964 0.951 . S
C982 C983 1.366 . S
C982 C984 1.388 . S
C983 C982 1.366 . S
C983 C987 1.385 . S
C984 H965 0.951 . S
C984 C982 1.388 . S
C984 C985 1.366 . S
C985 C984 1.366 . S
C985 C986 1.414 . S
C985 C988 1.499 . S
C986 H966 0.950 . S
C986 C985 1.414 . S
C986 C987 1.374 . S
C987 H967 0.950 . S
C987 C983 1.385 . S
C987 C986 1.374 . S
C988 C985 1.499 . S
C988 C989 1.373 . S
C988 C990 1.389 . S
C989 H968 0.950 . S
C989 C988 1.373 . S
C989 C1005 1.377 . S
C990 C988 1.389 . S
C990 C991 1.524 . S
C990 C1004 1.377 . S
C991 C990 1.524 . S
C991 C992 1.397 . S
C991 C996 1.363 . S
C992 H969 0.950 . S
C992 C991 1.397 . S
C992 C993 1.334 . S
C993 H970 0.950 . S
C993 C992 1.334 . S
C993 C994 1.287 . S
C994 C993 1.287 . S
C994 C995 1.524 . S
C994 H1013 0.913 . S
C995 H971 0.950 . S
C995 C994 1.524 . S
C995 C996 1.415 . S
C996 H972 0.950 . S
C996 C991 1.363 . S
C996 C995 1.415 . S
C997 H973 0.951 . S
C997 C998 1.366 . S
C997 C999 1.388 . S
C998 C997 1.366 . S
C998 C1002 1.385 . S
C999 H974 0.951 . S
C999 C997 1.388 . S
C999 C1000 1.366 . S
C1000 C999 1.366 . S
C1000 C1001 1.414 . S
C1000 C1003 1.499 . S
C1001 H975 0.950 . S
C1001 C1000 1.414 . S
C1001 C1002 1.374 . S
C1002 H976 0.950 . S
C1002 C998 1.385 . S
C1002 C1001 1.374 . S
C1003 C1000 1.499 . S
C1003 C1004 1.373 . S
C1003 C1005 1.389 . S
C1004 H977 0.950 . S
C1004 C990 1.377 . S
C1004 C1003 1.373 . S
C1005 C989 1.377 . S
C1005 C1003 1.389 . S
C1005 C1006 1.524 . S
C1006 C1005 1.524 . S
C1006 C1007 1.397 . S
C1006 C1011 1.363 . S
C1007 H978 0.950 . S
C1007 C1006 1.397 . S
C1007 C1008 1.334 . S
C1008 H979 0.950 . S
C1008 C1007 1.334 . S
C1008 C1009 1.287 . S
C1009 C1008 1.287 . S
C1009 C1010 1.524 . S
C1009 H1012 0.999 . S
C1010 H980 0.950 . S
C1010 C1009 1.524 . S
C1010 C1011 1.415 . S
C1011 H981 0.950 . S
C1011 C1006 1.363 . S
C1011 C1010 1.415 . S
H1012 C1009 0.999 . S
H1013 C994 0.913 . S
H1014 C1032 0.951 . S
H1015 C1034 0.951 . S
H1016 C1036 0.950 . S
H1017 C1037 0.950 . S
H1018 C1039 0.950 . S
H1019 C1042 0.950 . S
H1020 C1043 0.950 . S
H1021 C1045 0.950 . S
H1022 C1046 0.950 . S
H1023 C1047 0.951 . S
H1024 C1049 0.951 . S
H1025 C1051 0.950 . S
H1026 C1052 0.950 . S
H1027 C1054 0.950 . S
H1028 C1057 0.950 . S
H1029 C1058 0.950 . S
H1030 C1060 0.950 . S
H1031 C1061 0.950 . S
C1032 H1014 0.951 . S
C1032 C1033 1.366 . S
C1032 C1034 1.388 . S
C1033 C1032 1.366 . S
C1033 C1037 1.385 . S
C1034 H1015 0.951 . S
C1034 C1032 1.388 . S
C1034 C1035 1.366 . S
C1035 C1034 1.366 . S
C1035 C1036 1.414 . S
C1035 C1038 1.499 . S
C1036 H1016 0.950 . S
C1036 C1035 1.414 . S
C1036 C1037 1.374 . S
C1037 H1017 0.950 . S
C1037 C1033 1.385 . S
C1037 C1036 1.374 . S
C1038 C1035 1.499 . S
C1038 C1039 1.373 . S
C1038 C1040 1.389 . S
C1039 H1018 0.950 . S
C1039 C1038 1.373 . S
C1039 C1055 1.377 . S
C1040 C1038 1.389 . S
C1040 C1041 1.524 . S
C1040 C1054 1.377 . S
C1041 C1040 1.524 . S
C1041 C1042 1.397 . S
C1041 C1046 1.363 . S
C1042 H1019 0.950 . S
C1042 C1041 1.397 . S
C1042 C1043 1.334 . S
C1043 H1020 0.950 . S
C1043 C1042 1.334 . S
C1043 C1044 1.287 . S
C1044 C1043 1.287 . S
C1044 C1045 1.524 . S
C1044 H1063 0.913 . S
C1045 H1021 0.950 . S
C1045 C1044 1.524 . S
C1045 C1046 1.415 . S
C1046 H1022 0.950 . S
C1046 C1041 1.363 . S
C1046 C1045 1.415 . S
C1047 H1023 0.951 . S
C1047 C1048 1.366 . S
C1047 C1049 1.388 . S
C1048 C1047 1.366 . S
C1048 C1052 1.385 . S
C1049 H1024 0.951 . S
C1049 C1047 1.388 . S
C1049 C1050 1.366 . S
C1050 C1049 1.366 . S
C1050 C1051 1.414 . S
C1050 C1053 1.499 . S
C1051 H1025 0.950 . S
C1051 C1050 1.414 . S
C1051 C1052 1.374 . S
C1052 H1026 0.950 . S
C1052 C1048 1.385 . S
C1052 C1051 1.374 . S
C1053 C1050 1.499 . S
C1053 C1054 1.373 . S
C1053 C1055 1.389 . S
C1054 H1027 0.950 . S
C1054 C1040 1.377 . S
C1054 C1053 1.373 . S
C1055 C1039 1.377 . S
C1055 C1053 1.389 . S
C1055 C1056 1.524 . S
C1056 C1055 1.524 . S
C1056 C1057 1.397 . S
C1056 C1061 1.363 . S
C1057 H1028 0.950 . S
C1057 C1056 1.397 . S
C1057 C1058 1.334 . S
C1058 H1029 0.950 . S
C1058 C1057 1.334 . S
C1058 C1059 1.287 . S
C1059 C1058 1.287 . S
C1059 C1060 1.524 . S
C1059 H1062 0.999 . S
C1060 H1030 0.950 . S
C1060 C1059 1.524 . S
C1060 C1061 1.415 . S
C1061 H1031 0.950 . S
C1061 C1056 1.363 . S
C1061 C1060 1.415 . S
H1062 C1059 0.999 . S
H1063 C1044 0.913 . S
H1064 C1082 0.951 . S
H1065 C1084 0.951 . S
H1066 C1086 0.950 . S
H1067 C1087 0.950 . S
H1068 C1089 0.950 . S
H1069 C1092 0.950 . S
H1070 C1093 0.950 . S
H1071 C1095 0.950 . S
H1072 C1096 0.950 . S
H1073 C1097 0.951 . S
H1074 C1099 0.951 . S
H1075 C1101 0.950 . S
H1076 C1102 0.950 . S
H1077 C1104 0.950 . S
H1078 C1107 0.950 . S
H1079 C1108 0.950 . S
H1080 C1110 0.950 . S
H1081 C1111 0.950 . S
C1082 H1064 0.951 . S
C1082 C1083 1.366 . S
C1082 C1084 1.388 . S
C1083 C1082 1.366 . S
C1083 C1087 1.385 . S
C1084 H1065 0.951 . S
C1084 C1082 1.388 . S
C1084 C1085 1.366 . S
C1085 C1084 1.366 . S
C1085 C1086 1.414 . S
C1085 C1088 1.499 . S
C1086 H1066 0.950 . S
C1086 C1085 1.414 . S
C1086 C1087 1.374 . S
C1087 H1067 0.950 . S
C1087 C1083 1.385 . S
C1087 C1086 1.374 . S
C1088 C1085 1.499 . S
C1088 C1089 1.373 . S
C1088 C1090 1.389 . S
C1089 H1068 0.950 . S
C1089 C1088 1.373 . S
C1089 C1105 1.377 . S
C1090 C1088 1.389 . S
C1090 C1091 1.524 . S
C1090 C1104 1.377 . S
C1091 C1090 1.524 . S
C1091 C1092 1.397 . S
C1091 C1096 1.363 . S
C1092 H1069 0.950 . S
C1092 C1091 1.397 . S
C1092 C1093 1.334 . S
C1093 H1070 0.950 . S
C1093 C1092 1.334 . S
C1093 C1094 1.287 . S
C1094 C1093 1.287 . S
C1094 C1095 1.524 . S
C1094 H1113 0.913 . S
C1095 H1071 0.950 . S
C1095 C1094 1.524 . S
C1095 C1096 1.415 . S
C1096 H1072 0.950 . S
C1096 C1091 1.363 . S
C1096 C1095 1.415 . S
C1097 H1073 0.951 . S
C1097 C1098 1.366 . S
C1097 C1099 1.388 . S
C1098 C1097 1.366 . S
C1098 C1102 1.385 . S
C1099 H1074 0.951 . S
C1099 C1097 1.388 . S
C1099 C1100 1.366 . S
C1100 C1099 1.366 . S
C1100 C1101 1.414 . S
C1100 C1103 1.499 . S
C1101 H1075 0.950 . S
C1101 C1100 1.414 . S
C1101 C1102 1.374 . S
C1102 H1076 0.950 . S
C1102 C1098 1.385 . S
C1102 C1101 1.374 . S
C1103 C1100 1.499 . S
C1103 C1104 1.373 . S
C1103 C1105 1.389 . S
C1104 H1077 0.950 . S
C1104 C1090 1.377 . S
C1104 C1103 1.373 . S
C1105 C1089 1.377 . S
C1105 C1103 1.389 . S
C1105 C1106 1.524 . S
C1106 C1105 1.524 . S
C1106 C1107 1.397 . S
C1106 C1111 1.363 . S
C1107 H1078 0.950 . S
C1107 C1106 1.397 . S
C1107 C1108 1.334 . S
C1108 H1079 0.950 . S
C1108 C1107 1.334 . S
C1108 C1109 1.287 . S
C1109 C1108 1.287 . S
C1109 C1110 1.524 . S
C1109 H1112 0.999 . S
C1110 H1080 0.950 . S
C1110 C1109 1.524 . S
C1110 C1111 1.415 . S
C1111 H1081 0.950 . S
C1111 C1106 1.363 . S
C1111 C1110 1.415 . S
H1112 C1109 0.999 . S
H1113 C1094 0.913 . S
H1114 C1132 0.951 . S
H1115 C1134 0.951 . S
H1116 C1136 0.950 . S
H1117 C1137 0.950 . S
H1118 C1139 0.950 . S
H1119 C1142 0.950 . S
H1120 C1143 0.950 . S
H1121 C1145 0.950 . S
H1122 C1146 0.950 . S
H1123 C1147 0.951 . S
H1124 C1149 0.951 . S
H1125 C1151 0.950 . S
H1126 C1152 0.950 . S
H1127 C1154 0.950 . S
H1128 C1157 0.950 . S
H1129 C1158 0.950 . S
H1130 C1160 0.950 . S
H1131 C1161 0.950 . S
C1132 H1114 0.951 . S
C1132 C1133 1.366 . S
C1132 C1134 1.388 . S
C1133 C1132 1.366 . S
C1133 C1137 1.385 . S
C1134 H1115 0.951 . S
C1134 C1132 1.388 . S
C1134 C1135 1.366 . S
C1135 C1134 1.366 . S
C1135 C1136 1.414 . S
C1135 C1138 1.499 . S
C1136 H1116 0.950 . S
C1136 C1135 1.414 . S
C1136 C1137 1.374 . S
C1137 H1117 0.950 . S
C1137 C1133 1.385 . S
C1137 C1136 1.374 . S
C1138 C1135 1.499 . S
C1138 C1139 1.373 . S
C1138 C1140 1.389 . S
C1139 H1118 0.950 . S
C1139 C1138 1.373 . S
C1139 C1155 1.377 . S
C1140 C1138 1.389 . S
C1140 C1141 1.524 . S
C1140 C1154 1.377 . S
C1141 C1140 1.524 . S
C1141 C1142 1.397 . S
C1141 C1146 1.363 . S
C1142 H1119 0.950 . S
C1142 C1141 1.397 . S
C1142 C1143 1.334 . S
C1143 H1120 0.950 . S
C1143 C1142 1.334 . S
C1143 C1144 1.287 . S
C1144 C1143 1.287 . S
C1144 C1145 1.524 . S
C1144 H1163 0.913 . S
C1145 H1121 0.950 . S
C1145 C1144 1.524 . S
C1145 C1146 1.415 . S
C1146 H1122 0.950 . S
C1146 C1141 1.363 . S
C1146 C1145 1.415 . S
C1147 H1123 0.951 . S
C1147 C1148 1.366 . S
C1147 C1149 1.388 . S
C1148 C1147 1.366 . S
C1148 C1152 1.385 . S
C1149 H1124 0.951 . S
C1149 C1147 1.388 . S
C1149 C1150 1.366 . S
C1150 C1149 1.366 . S
C1150 C1151 1.414 . S
C1150 C1153 1.499 . S
C1151 H1125 0.950 . S
C1151 C1150 1.414 . S
C1151 C1152 1.374 . S
C1152 H1126 0.950 . S
C1152 C1148 1.385 . S
C1152 C1151 1.374 . S
C1153 C1150 1.499 . S
C1153 C1154 1.373 . S
C1153 C1155 1.389 . S
C1154 H1127 0.950 . S
C1154 C1140 1.377 . S
C1154 C1153 1.373 . S
C1155 C1139 1.377 . S
C1155 C1153 1.389 . S
C1155 C1156 1.524 . S
C1156 C1155 1.524 . S
C1156 C1157 1.397 . S
C1156 C1161 1.363 . S
C1157 H1128 0.950 . S
C1157 C1156 1.397 . S
C1157 C1158 1.334 . S
C1158 H1129 0.950 . S
C1158 C1157 1.334 . S
C1158 C1159 1.287 . S
C1159 C1158 1.287 . S
C1159 C1160 1.524 . S
C1159 H1162 0.999 . S
C1160 H1130 0.950 . S
C1160 C1159 1.524 . S
C1160 C1161 1.415 . S
C1161 H1131 0.950 . S
C1161 C1156 1.363 . S
C1161 C1160 1.415 . S
H1162 C1159 0.999 . S
H1163 C1144 0.913 . S
H1164 C1182 0.951 . S
H1165 C1184 0.951 . S
H1166 C1186 0.950 . S
H1167 C1187 0.950 . S
H1168 C1189 0.950 . S
H1169 C1192 0.950 . S
H1170 C1193 0.950 . S
H1171 C1195 0.950 . S
H1172 C1196 0.950 . S
H1173 C1197 0.951 . S
H1174 C1199 0.951 . S
H1175 C1201 0.950 . S
H1176 C1202 0.950 . S
H1177 C1204 0.950 . S
H1178 C1207 0.950 . S
H1179 C1208 0.950 . S
H1180 C1210 0.950 . S
H1181 C1211 0.950 . S
C1182 H1164 0.951 . S
C1182 C1183 1.366 . S
C1182 C1184 1.388 . S
C1183 C1182 1.366 . S
C1183 C1187 1.385 . S
C1184 H1165 0.951 . S
C1184 C1182 1.388 . S
C1184 C1185 1.366 . S
C1185 C1184 1.366 . S
C1185 C1186 1.414 . S
C1185 C1188 1.499 . S
C1186 H1166 0.950 . S
C1186 C1185 1.414 . S
C1186 C1187 1.374 . S
C1187 H1167 0.950 . S
C1187 C1183 1.385 . S
C1187 C1186 1.374 . S
C1188 C1185 1.499 . S
C1188 C1189 1.373 . S
C1188 C1190 1.389 . S
C1189 H1168 0.950 . S
C1189 C1188 1.373 . S
C1189 C1205 1.377 . S
C1190 C1188 1.389 . S
C1190 C1191 1.524 . S
C1190 C1204 1.377 . S
C1191 C1190 1.524 . S
C1191 C1192 1.397 . S
C1191 C1196 1.363 . S
C1192 H1169 0.950 . S
C1192 C1191 1.397 . S
C1192 C1193 1.334 . S
C1193 H1170 0.950 . S
C1193 C1192 1.334 . S
C1193 C1194 1.287 . S
C1194 C1193 1.287 . S
C1194 C1195 1.524 . S
C1194 H1213 0.913 . S
C1195 H1171 0.950 . S
C1195 C1194 1.524 . S
C1195 C1196 1.415 . S
C1196 H1172 0.950 . S
C1196 C1191 1.363 . S
C1196 C1195 1.415 . S
C1197 H1173 0.951 . S
C1197 C1198 1.366 . S
C1197 C1199 1.388 . S
C1198 C1197 1.366 . S
C1198 C1202 1.385 . S
C1199 H1174 0.951 . S
C1199 C1197 1.388 . S
C1199 C1200 1.366 . S
C1200 C1199 1.366 . S
C1200 C1201 1.414 . S
C1200 C1203 1.499 . S
C1201 H1175 0.950 . S
C1201 C1200 1.414 . S
C1201 C1202 1.374 . S
C1202 H1176 0.950 . S
C1202 C1198 1.385 . S
C1202 C1201 1.374 . S
C1203 C1200 1.499 . S
C1203 C1204 1.373 . S
C1203 C1205 1.389 . S
C1204 H1177 0.950 . S
C1204 C1190 1.377 . S
C1204 C1203 1.373 . S
C1205 C1189 1.377 . S
C1205 C1203 1.389 . S
C1205 C1206 1.524 . S
C1206 C1205 1.524 . S
C1206 C1207 1.397 . S
C1206 C1211 1.363 . S
C1207 H1178 0.950 . S
C1207 C1206 1.397 . S
C1207 C1208 1.334 . S
C1208 H1179 0.950 . S
C1208 C1207 1.334 . S
C1208 C1209 1.287 . S
C1209 C1208 1.287 . S
C1209 C1210 1.524 . S
C1209 H1212 0.999 . S
C1210 H1180 0.950 . S
C1210 C1209 1.524 . S
C1210 C1211 1.415 . S
C1211 H1181 0.950 . S
C1211 C1206 1.363 . S
C1211 C1210 1.415 . S
H1212 C1209 0.999 . S
H1213 C1194 0.913 . S
H1214 C1232 0.951 . S
H1215 C1234 0.951 . S
H1216 C1236 0.950 . S
H1217 C1237 0.950 . S
H1218 C1239 0.950 . S
H1219 C1242 0.950 . S
H1220 C1243 0.950 . S
H1221 C1245 0.950 . S
H1222 C1246 0.950 . S
H1223 C1247 0.951 . S
H1224 C1249 0.951 . S
H1225 C1251 0.950 . S
H1226 C1252 0.950 . S
H1227 C1254 0.950 . S
H1228 C1257 0.950 . S
H1229 C1258 0.950 . S
H1230 C1260 0.950 . S
H1231 C1261 0.950 . S
C1232 H1214 0.951 . S
C1232 C1233 1.366 . S
C1232 C1234 1.388 . S
C1233 C1232 1.366 . S
C1233 C1237 1.385 . S
C1234 H1215 0.951 . S
C1234 C1232 1.388 . S
C1234 C1235 1.366 . S
C1235 C1234 1.366 . S
C1235 C1236 1.414 . S
C1235 C1238 1.499 . S
C1236 H1216 0.950 . S
C1236 C1235 1.414 . S
C1236 C1237 1.374 . S
C1237 H1217 0.950 . S
C1237 C1233 1.385 . S
C1237 C1236 1.374 . S
C1238 C1235 1.499 . S
C1238 C1239 1.373 . S
C1238 C1240 1.389 . S
C1239 H1218 0.950 . S
C1239 C1238 1.373 . S
C1239 C1255 1.377 . S
C1240 C1238 1.389 . S
C1240 C1241 1.524 . S
C1240 C1254 1.377 . S
C1241 C1240 1.524 . S
C1241 C1242 1.397 . S
C1241 C1246 1.363 . S
C1242 H1219 0.950 . S
C1242 C1241 1.397 . S
C1242 C1243 1.334 . S
C1243 H1220 0.950 . S
C1243 C1242 1.334 . S
C1243 C1244 1.287 . S
C1244 C1243 1.287 . S
C1244 C1245 1.524 . S
C1244 H1263 0.913 . S
C1245 H1221 0.950 . S
C1245 C1244 1.524 . S
C1245 C1246 1.415 . S
C1246 H1222 0.950 . S
C1246 C1241 1.363 . S
C1246 C1245 1.415 . S
C1247 H1223 0.951 . S
C1247 C1248 1.366 . S
C1247 C1249 1.388 . S
C1248 C1247 1.366 . S
C1248 C1252 1.385 . S
C1249 H1224 0.951 . S
C1249 C1247 1.388 . S
C1249 C1250 1.366 . S
C1250 C1249 1.366 . S
C1250 C1251 1.414 . S
C1250 C1253 1.499 . S
C1251 H1225 0.950 . S
C1251 C1250 1.414 . S
C1251 C1252 1.374 . S
C1252 H1226 0.950 . S
C1252 C1248 1.385 . S
C1252 C1251 1.374 . S
C1253 C1250 1.499 . S
C1253 C1254 1.373 . S
C1253 C1255 1.389 . S
C1254 H1227 0.950 . S
C1254 C1240 1.377 . S
C1254 C1253 1.373 . S
C1255 C1239 1.377 . S
C1255 C1253 1.389 . S
C1255 C1256 1.524 . S
C1256 C1255 1.524 . S
C1256 C1257 1.397 . S
C1256 C1261 1.363 . S
C1257 H1228 0.950 . S
C1257 C1256 1.397 . S
C1257 C1258 1.334 . S
C1258 H1229 0.950 . S
C1258 C1257 1.334 . S
C1258 C1259 1.287 . S
C1259 C1258 1.287 . S
C1259 C1260 1.524 . S
C1259 H1262 0.999 . S
C1260 H1230 0.950 . S
C1260 C1259 1.524 . S
C1260 C1261 1.415 . S
C1261 H1231 0.950 . S
C1261 C1256 1.363 . S
C1261 C1260 1.415 . S
H1262 C1259 0.999 . S
H1263 C1244 0.913 . S
C283 N134 0.462 . S
C298 N2 0.463 . S
C333 N35 0.459 . S
C348 N167 0.460 . S
C383 N68 0.461 . S
C398 N200 0.463 . S
C433 N101 0.461 . S
C448 N233 0.459 . S
C483 C21 0.804 . S
C498 C219 0.804 . S
C533 C54 0.803 . S
C548 C252 0.803 . S
C583 C153 0.804 . S
C598 C87 0.804 . S
C633 C186 0.803 . S
C648 C120 0.803 . S
C683 C249 0.437 . S
C698 C18 0.437 . S
C733 C51 0.437 . S
C748 C150 0.436 . S
C783 C183 0.437 . S
C798 C84 0.436 . S
C833 C216 0.434 . S
C848 C117 0.435 . S
C883 C7 1.895 . S
C898 N46 1.959 . S
C933 C40 1.896 . S
C948 N79 1.959 . S
C983 N112 1.959 . S
C998 C73 1.896 . S
C1033 N13 1.959 . S
C1048 C106 1.896 . S
C1083 C139 1.896 . S
C1098 N244 1.959 . S
C1133 N145 1.959 . S
C1148 C172 1.896 . S
C1183 C205 1.896 . S
C1198 N178 1.959 . S
C1233 C238 1.896 . S
C1248 N211 1.959 . S
