# Generated by pormake.
# Topology msp, (4)-cn, num edge types: 1
# Building blocks:
#     Node 0, Type 0, BuildingBlock: CEKHIL_clean_sbu_0, # of connection points: 4
#     Node 1, Type 0, BuildingBlock: CEKHIL_clean_sbu_0, # of connection points: 4
#     Node 2, Type 0, BuildingBlock: CEKHIL_clean_sbu_0, # of connection points: 4
#     Node 3, Type 0, BuildingBlock: CEKHIL_clean_sbu_0, # of connection points: 4
#     Node 4, Type 0, BuildingBlock: CEKHIL_clean_sbu_0, # of connection points: 4
#     Node 5, Type 0, BuildingBlock: CEKHIL_clean_sbu_0, # of connection points: 4
#     Node 6, Type 0, BuildingBlock: CEKHIL_clean_sbu_0, # of connection points: 4
#     Node 7, Type 0, BuildingBlock: CEKHIL_clean_sbu_0, # of connection points: 4
#     Edge 8, Type (0, 0), BuildingBlock: XIVTED_clean_linker_0, # of connection points: 2
#     Edge 9, Type (0, 0), BuildingBlock: XIVTED_clean_linker_0, # of connection points: 2
#     Edge 10, Type (0, 0), BuildingBlock: XIVTED_clean_linker_0, # of connection points: 2
#     Edge 11, Type (0, 0), BuildingBlock: XIVTED_clean_linker_0, # of connection points: 2
#     Edge 12, Type (0, 0), BuildingBlock: XIVTED_clean_linker_0, # of connection points: 2
#     Edge 13, Type (0, 0), BuildingBlock: XIVTED_clean_linker_0, # of connection points: 2
#     Edge 14, Type (0, 0), BuildingBlock: XIVTED_clean_linker_0, # of connection points: 2
#     Edge 15, Type (0, 0), BuildingBlock: XIVTED_clean_linker_0, # of connection points: 2
#     Edge 16, Type (0, 0), BuildingBlock: XIVTED_clean_linker_0, # of connection points: 2
#     Edge 17, Type (0, 0), BuildingBlock: XIVTED_clean_linker_0, # of connection points: 2
#     Edge 18, Type (0, 0), BuildingBlock: XIVTED_clean_linker_0, # of connection points: 2
#     Edge 19, Type (0, 0), BuildingBlock: XIVTED_clean_linker_0, # of connection points: 2
#     Edge 20, Type (0, 0), BuildingBlock: XIVTED_clean_linker_0, # of connection points: 2
#     Edge 21, Type (0, 0), BuildingBlock: XIVTED_clean_linker_0, # of connection points: 2
#     Edge 22, Type (0, 0), BuildingBlock: XIVTED_clean_linker_0, # of connection points: 2
#     Edge 23, Type (0, 0), BuildingBlock: XIVTED_clean_linker_0, # of connection points: 2
# Relax obj value: 0.161
# Max RMSD: 0.205
# Mean RMSD: 0.205
data_MOF--net-msp--node1-CEKHIL_clean_sbu_0--edge1-XIVTED_clean_linker_0
_symmetry_space_group_name_H-M    P1
_symmetry_Int_Tables_number       1
_symmetry_cell_setting            triclinic
loop_
_symmetry_equiv_pos_as_xyz
'x, y, z'
_cell_length_a     23.596883
_cell_length_b     22.942439
_cell_length_c     39.641151
_cell_angle_alpha  89.962745
_cell_angle_beta   99.069198
_cell_angle_gamma 89.957701
loop_
_atom_site_label
_atom_site_type_symbol
_atom_site_fract_x
_atom_site_fract_y
_atom_site_fract_z
_atom_type_partial_charge
Co0 Co 0.00494 0.29793 0.3524 0.0
O1 O 0.95044 0.32885 0.31591 0.0
O2 O 0.9583 0.23537 0.33001 0.0
C3 C 0.98816 0.36604 0.3902 0.0
O4 O 0.0557 0.25073 0.38901 0.0
Co5 Co 0.10799 0.37342 0.38713 0.0
O6 O 0.10914 0.31408 0.42369 0.0
C7 C 0.11205 0.31532 0.32052 0.0
C8 C 0.93147 0.27609 0.31084 0.0
C9 C 0.08966 0.26297 0.41676 0.0
O10 O 0.06391 0.2892 0.32126 0.0
O11 O 0.13383 0.35263 0.34291 0.0
O12 O 0.95524 0.32044 0.3854 0.0
O13 O 0.02702 0.37023 0.37097 0.0
Co14 Co 0.47756 0.29797 0.62554 0.0
O15 O 0.52976 0.32865 0.66329 0.0
O16 O 0.52341 0.23544 0.64873 0.0
C17 C 0.49656 0.36679 0.58849 0.0
O18 O 0.42962 0.25085 0.58777 0.0
Co19 Co 0.37585 0.37289 0.58828 0.0
O20 O 0.37855 0.31418 0.55182 0.0
C21 C 0.36659 0.31329 0.65388 0.0
C22 C 0.54908 0.27598 0.66846 0.0
C23 C 0.39771 0.26307 0.55925 0.0
O24 O 0.41572 0.28812 0.65478 0.0
O25 O 0.34612 0.35056 0.63108 0.0
O26 O 0.52985 0.32153 0.59418 0.0
O27 O 0.45605 0.37034 0.60659 0.0
Co28 Co 0.98204 0.70599 0.62438 0.0
O29 O 0.03626 0.67574 0.66121 0.0
O30 O 0.02733 0.76915 0.64714 0.0
C31 C 0.00099 0.6383 0.58688 0.0
O32 O 0.93138 0.75261 0.58744 0.0
Co33 Co 0.88092 0.6291 0.58863 0.0
O34 O 0.87984 0.68869 0.55221 0.0
C35 C 0.87416 0.68639 0.65516 0.0
C36 C 0.0545 0.72872 0.66639 0.0
C37 C 0.89833 0.74007 0.5594 0.0
O38 O 0.92196 0.71347 0.6549 0.0
O39 O 0.8536 0.64886 0.63258 0.0
O40 O 0.03306 0.68449 0.59188 0.0
O41 O 0.96154 0.63346 0.60565 0.0
Co42 Co 0.5093 0.70245 0.35151 0.0
O43 O 0.45678 0.67069 0.31424 0.0
O44 O 0.46263 0.76424 0.32808 0.0
C45 C 0.49166 0.63437 0.38935 0.0
O46 O 0.55753 0.75055 0.38872 0.0
Co47 Co 0.61212 0.62853 0.38852 0.0
O48 O 0.61 0.68807 0.4246 0.0
C49 C 0.61952 0.68697 0.32235 0.0
C50 C 0.43707 0.72315 0.30872 0.0
C51 C 0.59021 0.73892 0.41706 0.0
O52 O 0.57043 0.7121 0.32175 0.0
O53 O 0.64055 0.65 0.34518 0.0
O54 O 0.45788 0.67923 0.38348 0.0
O55 O 0.53166 0.63063 0.3709 0.0
Co56 Co 0.51268 0.79315 0.85305 0.0
O57 O 0.45975 0.82685 0.81656 0.0
O58 O 0.46485 0.73281 0.82947 0.0
C59 C 0.49704 0.86027 0.89178 0.0
O60 O 0.56054 0.74294 0.88939 0.0
Co61 Co 0.61759 0.86367 0.88997 0.0
O62 O 0.61532 0.80313 0.92551 0.0
C63 C 0.62106 0.80937 0.82227 0.0
C64 C 0.43923 0.77477 0.81083 0.0
C65 C 0.59385 0.75307 0.91769 0.0
O66 O 0.57246 0.78379 0.82241 0.0
O67 O 0.64322 0.84532 0.84536 0.0
O68 O 0.46251 0.81609 0.8857 0.0
O69 O 0.53676 0.86394 0.8731 0.0
Co70 Co 0.97685 0.78907 0.1215 0.0
O71 O 0.03274 0.82565 0.1553 0.0
O72 O 0.02681 0.7306 0.14566 0.0
C73 C 0.98808 0.8523 0.0797 0.0
O74 O 0.92595 0.73599 0.08824 0.0
Co75 Co 0.869 0.85804 0.08643 0.0
O76 O 0.86515 0.79304 0.05323 0.0
C77 C 0.87369 0.81094 0.15653 0.0
C78 C 0.05367 0.77399 0.16226 0.0
C79 C 0.88835 0.7438 0.0614 0.0
O80 O 0.92079 0.78335 0.15481 0.0
O81 O 0.84987 0.84595 0.13335 0.0
O82 O 0.02319 0.80858 0.08611 0.0
O83 O 0.95075 0.85804 0.09983 0.0
Co84 Co 0.47485 0.2057 0.12339 0.0
O85 O 0.52707 0.17168 0.16011 0.0
O86 O 0.52318 0.26566 0.14697 0.0
C87 C 0.49002 0.13805 0.08486 0.0
O88 O 0.42779 0.25619 0.08685 0.0
Co89 Co 0.36926 0.13633 0.08638 0.0
O90 O 0.37255 0.19643 0.05072 0.0
C91 C 0.36564 0.19206 0.15368 0.0
C92 C 0.54806 0.22358 0.16584 0.0
C93 C 0.39445 0.2463 0.05853 0.0
O94 O 0.41494 0.21626 0.15378 0.0
O95 O 0.34292 0.15639 0.13058 0.0
O96 O 0.52505 0.18182 0.09099 0.0
O97 O 0.45005 0.13501 0.10341 0.0
Co98 Co 0.00964 0.2139 0.85552 0.0
O99 O 0.95353 0.17838 0.82141 0.0
O100 O 0.96026 0.27319 0.83177 0.0
C101 C -0.00239 0.14977 0.89672 0.0
O102 O 0.06089 0.26602 0.88919 0.0
Co103 Co 0.11678 0.14386 0.89044 0.0
O104 O 0.12048 0.20796 0.92423 0.0
C105 C 0.11282 0.19201 0.82058 0.0
C106 C 0.93303 0.23032 0.81486 0.0
C107 C 0.09795 0.25753 0.9162 0.0
O108 O 0.06585 0.21983 0.82232 0.0
O109 O 0.13633 0.15666 0.84367 0.0
O110 O 0.96297 0.19395 0.89067 0.0
O111 O 0.03511 0.14431 0.87668 0.0
H112 H 0.03678 0.47291 0.39639 0.0
H113 H 0.95638 0.52979 0.58154 0.0
H114 H 0.93835 0.3528 0.44775 0.0
H115 H 0.05047 0.65261 0.52922 0.0
H116 H 0.95211 0.46321 0.53347 0.0
H117 H 0.04252 0.53913 0.44476 0.0
C118 C 0.0162 0.46061 0.41791 0.0
C119 C 0.98718 0.40735 0.41827 0.0
C120 C 0.97376 0.50462 0.53242 0.0
C121 C -0.00589 0.48259 0.4738 0.0
C122 C 0.97635 0.5426 0.55987 0.0
C123 C 0.00358 0.59676 0.55912 0.0
C124 C -0.00171 0.52108 0.5039 0.0
C125 C 0.02925 0.61108 0.53072 0.0
C126 C 0.0196 0.49839 0.44552 0.0
C127 C 0.9609 0.39363 0.44652 0.0
N128 N 0.02565 0.57346 0.50401 0.0
N129 N 0.96527 0.43103 0.47335 0.0
H130 H 0.55373 0.53527 0.40242 0.0
H131 H 0.43641 0.46724 0.57627 0.0
H132 H 0.42807 0.64193 0.44159 0.0
H133 H 0.56085 0.35969 0.53658 0.0
H134 H 0.43429 0.53261 0.52776 0.0
H135 H 0.55703 0.47082 0.45141 0.0
C136 C 0.52665 0.54505 0.42136 0.0
C137 C 0.49061 0.59407 0.41806 0.0
C138 C 0.46215 0.49484 0.52961 0.0
C139 C 0.49444 0.52046 0.47432 0.0
C140 C 0.46349 0.45748 0.55732 0.0
C141 C 0.49872 0.40786 0.56028 0.0
C142 C 0.49622 0.48248 0.50458 0.0
C143 C 0.53314 0.39753 0.5352 0.0
C144 C 0.52866 0.50821 0.44935 0.0
C145 C 0.45631 0.60449 0.44319 0.0
N146 N 0.53086 0.43452 0.50823 0.0
N147 N 0.4592 0.56796 0.47041 0.0
H148 H 0.42176 0.04362 0.0693 0.0
H149 H 0.56451 0.9552 0.90718 0.0
H150 H 0.56142 0.13853 0.03655 0.0
H151 H 0.42613 0.8589 0.94043 0.0
H152 H 0.56356 0.02287 0.95425 0.0
H153 H 0.42265 0.97573 0.02228 0.0
C154 C 0.45269 0.05018 0.05216 0.0
C155 C 0.49159 0.0968 0.05672 0.0
C156 C 0.53337 0.987 0.95133 0.0
C157 C 0.49275 0.01914 0.00284 0.0
C158 C 0.53385 0.94827 0.92445 0.0
C159 C 0.49533 0.90133 0.92 0.0
C160 C 0.49408 0.9788 0.97397 0.0
C161 C 0.45648 0.8946 0.943 0.0
C162 C 0.45313 0.01133 0.02532 0.0
C163 C 0.53076 0.1031 0.03388 0.0
N164 N 0.45687 0.933 0.96911 0.0
N165 N 0.53031 0.06462 0.00782 0.0
H166 H 0.06789 0.86068 0.03654 0.0
H167 H 0.91709 0.14057 0.93938 0.0
H168 H 0.9104 0.93711 0.05837 0.0
H169 H 0.0744 0.06389 0.91742 0.0
H170 H 0.9138 0.06624 0.98346 0.0
H171 H 0.07044 0.93416 -0.00808 0.0
C172 C 0.03373 0.89261 0.03176 0.0
C173 C 0.98908 0.89306 0.05119 0.0
C174 C 0.94911 0.06588 0.96902 0.0
C175 C 0.99167 0.97706 0.0006 0.0
C176 C 0.95105 0.10839 0.94402 0.0
C177 C -0.00406 0.10822 0.92477 0.0
C178 C 0.9925 0.02326 0.97472 0.0
C179 C 0.03884 0.0655 0.93162 0.0
C180 C 0.03522 0.93463 0.00643 0.0
C181 C 0.94583 0.93537 0.04408 0.0
N182 N 0.03602 0.02471 0.95601 0.0
N183 N 0.94828 0.97575 0.01942 0.0
H184 H 0.60435 0.14458 0.21054 0.0
H185 H 0.87674 0.35075 0.2633 0.0
H186 H 0.61479 0.3217 0.17527 0.0
H187 H 0.86422 0.17767 0.3042 0.0
H188 H 0.7824 0.33869 0.22906 0.0
H189 H 0.69927 0.15511 0.24478 0.0
C190 C 0.62638 0.18594 0.21028 0.0
C191 C 0.6017 0.23235 0.18996 0.0
C192 C 0.80023 0.30318 0.24539 0.0
C193 C 0.71075 0.24434 0.2287 0.0
C194 C 0.8543 0.30989 0.26484 0.0
C195 C 0.87824 0.26519 0.28675 0.0
C196 C 0.76956 0.25142 0.24788 0.0
C197 C 0.84735 0.21315 0.28757 0.0
C198 C 0.68071 0.19178 0.22971 0.0
C199 C 0.63215 0.28487 0.19061 0.0
N200 N 0.79433 0.20781 0.26855 0.0
N201 N 0.68526 0.28931 0.20951 0.0
H202 H 0.6127 0.17519 0.67837 0.0
H203 H 0.86962 0.33051 0.80258 0.0
H204 H 0.60678 0.35268 0.71372 0.0
H205 H 0.87072 0.14853 0.77514 0.0
H206 H 0.7741 0.33999 0.76856 0.0
H207 H 0.7071 0.16381 0.71374 0.0
C208 C 0.63086 0.21145 0.69392 0.0
C209 C 0.60195 0.265 0.69301 0.0
C210 C 0.79532 0.29801 0.7699 0.0
C211 C 0.7101 0.25271 0.733 0.0
C212 C 0.85003 0.29273 0.78912 0.0
C213 C 0.87814 0.2387 0.79169 0.0
C214 C 0.76863 0.24892 0.75308 0.0
C215 C 0.85058 0.19105 0.77388 0.0
C216 C 0.68489 0.2051 0.71392 0.0
C217 C 0.62763 0.31067 0.7135 0.0
N218 N 0.79734 0.19724 0.7554 0.0
N219 N 0.68031 0.30359 0.73246 0.0
H220 H 0.11928 0.82881 0.674 0.0
H221 H 0.37457 0.67533 0.80073 0.0
H222 H 0.11173 0.65356 0.71272 0.0
H223 H 0.38009 0.85426 0.76768 0.0
H224 H 0.27906 0.66587 0.76685 0.0
H225 H 0.21463 0.83997 0.70832 0.0
C226 C 0.13729 0.79306 0.69008 0.0
C227 C 0.10772 0.74013 0.69041 0.0
C228 C 0.30128 0.70715 0.76688 0.0
C229 C 0.2168 0.75208 0.72915 0.0
C230 C 0.35601 0.71237 0.786 0.0
C231 C 0.38522 0.76565 0.78707 0.0
C232 C 0.27567 0.75555 0.74869 0.0
C233 C 0.35898 0.81238 0.76765 0.0
C234 C 0.19185 0.79923 0.70945 0.0
C235 C 0.13316 0.69505 0.71153 0.0
N236 N 0.30561 0.80632 0.74936 0.0
N237 N 0.1863 0.70193 0.72986 0.0
H238 H 0.38088 0.64576 0.26331 0.0
H239 H 0.11464 0.85677 0.20192 0.0
H240 H 0.37194 0.82299 0.29856 0.0
H241 H 0.11844 0.67471 0.175 0.0
H242 H 0.20978 0.84658 0.23594 0.0
H243 H 0.28733 0.65793 0.22803 0.0
C244 C 0.35946 0.68753 0.26338 0.0
C245 C 0.38419 0.7334 0.28404 0.0
C246 C 0.18975 0.80878 0.22274 0.0
C247 C 0.2764 0.74737 0.24391 0.0
C248 C 0.13529 0.81446 0.2034 0.0
C249 C 0.10852 0.76644 0.1856 0.0
C250 C 0.2179 0.75474 0.2242 0.0
C251 C 0.13738 0.7128 0.1884 0.0
C252 C 0.30582 0.69431 0.24333 0.0
C253 C 0.35448 0.78652 0.28299 0.0
N254 N 0.19063 0.70846 0.20721 0.0
N255 N 0.30193 0.79196 0.26339 0.0
H256 H 0.38809 0.27695 0.20285 0.0
H257 H 0.08961 0.2307 0.27121 0.0
H258 H 0.26363 0.14518 0.1645 0.0
H259 H 0.21404 0.36242 0.30973 0.0
H260 H 0.1524 0.19961 0.23119 0.0
H261 H 0.32528 0.30827 0.24284 0.0
C262 C 0.34788 0.25427 0.20301 0.0
C263 C 0.3311 0.20849 0.18018 0.0
C264 C 0.16579 0.23544 0.24836 0.0
C265 C 0.25884 0.24447 0.22556 0.0
C266 C 0.12981 0.25341 0.2711 0.0
C267 C 0.14656 0.29912 0.29397 0.0
C268 C 0.21883 0.26337 0.24855 0.0
C269 C 0.1993 0.32682 0.29269 0.0
C270 C 0.31189 0.27237 0.22571 0.0
C271 C 0.27835 0.18087 0.18148 0.0
N272 N 0.2336 0.30835 0.27046 0.0
N273 N 0.24406 0.19943 0.20369 0.0
H274 H 0.26667 0.36496 0.66467 0.0
H275 H 0.20366 0.13156 0.80322 0.0
H276 H 0.38037 0.22191 0.69936 0.0
H277 H 0.09552 0.28092 0.77356 0.0
H278 H 0.26459 0.1598 0.76192 0.0
H279 H 0.20112 0.332 0.7022 0.0
C280 C 0.27814 0.32675 0.68033 0.0
C281 C 0.32935 0.29621 0.67886 0.0
C282 C 0.22739 0.18625 0.76429 0.0
C283 C 0.25382 0.25801 0.7218 0.0
C284 C 0.19236 0.17009 0.78781 0.0
C285 C 0.14466 0.20434 0.79218 0.0
C286 C 0.21485 0.23712 0.74496 0.0
C287 C 0.13191 0.25333 0.77117 0.0
C288 C 0.24044 0.30788 0.70169 0.0
C289 C 0.34165 0.24704 0.69979 0.0
N290 N 0.16716 0.26856 0.74864 0.0
N291 N 0.30403 0.22938 0.72036 0.0
H292 H 0.71866 0.8628 0.80922 0.0
H293 H 0.77437 0.63469 0.66628 0.0
H294 H 0.60326 0.72115 0.77487 0.0
H295 H 0.8917 0.77348 0.70318 0.0
H296 H 0.71114 0.66578 0.70567 0.0
H297 H 0.78096 0.83205 0.76929 0.0
C298 C 0.70614 0.82537 0.79313 0.0
C299 C 0.65566 0.7943 0.79557 0.0
C300 C 0.7508 0.6893 0.70526 0.0
C301 C 0.72741 0.75864 0.74985 0.0
C302 C 0.78716 0.6715 0.68283 0.0
C303 C 0.83853 0.70164 0.6813 0.0
C304 C 0.76574 0.73766 0.72636 0.0
C305 C 0.85265 0.74888 0.70346 0.0
C306 C 0.74196 0.80776 0.77038 0.0
C307 C 0.64168 0.74643 0.77386 0.0
N308 N 0.81627 0.76558 0.725 0.0
N309 N 0.67759 0.72987 0.752 0.0
H310 H 0.7829 0.87123 0.17412 0.0
H311 H 0.71807 0.63417 0.31022 0.0
H312 H 0.89089 0.72155 0.20319 0.0
H313 H 0.60601 0.77948 0.27767 0.0
H314 H 0.78366 0.66775 0.27288 0.0
H315 H 0.72148 0.84205 0.21498 0.0
C316 C 0.79408 0.83245 0.18933 0.0
C317 C 0.84185 0.79836 0.1849 0.0
C318 C 0.74469 0.69224 0.2738 0.0
C319 C 0.77111 0.76449 0.23157 0.0
C320 C 0.70696 0.673 0.29505 0.0
C321 C 0.65627 0.70405 0.29711 0.0
C322 C 0.73186 0.74299 0.25442 0.0
C323 C 0.64434 0.75396 0.27677 0.0
C324 C 0.75877 0.81575 0.21259 0.0
C325 C 0.85445 0.74903 0.20564 0.0
N326 N 0.68202 0.77199 0.25632 0.0
N327 N 0.81892 0.73327 0.22789 0.0
H328 H 0.39365 0.24627 0.49099 0.0
H329 H 0.0946 0.24425 0.4849 0.0
H330 H 0.33215 0.17726 0.57955 0.0
H331 H 0.1568 0.17942 0.39562 0.0
H332 H 0.17671 0.19948 0.52079 0.0
H333 H 0.31224 0.20151 0.45461 0.0
C334 C 0.36451 0.21905 0.5026 0.0
C335 C 0.36892 0.21591 0.53818 0.0
C336 C 0.17116 0.19248 0.49344 0.0
C337 C 0.27415 0.16769 0.49711 0.0
C338 C 0.12409 0.21792 0.47301 0.0
C339 C 0.11956 0.21585 0.43741 0.0
C340 C 0.2151 0.1677 0.47793 0.0
C341 C 0.15919 0.18201 0.42309 0.0
C342 C 0.31782 0.19361 0.48188 0.0
C343 C 0.3298 0.1808 0.55211 0.0
N344 N 0.20683 0.16126 0.44334 0.0
N345 N 0.28247 0.16007 0.53162 0.0
H346 H 0.89334 0.75838 0.49121 0.0
H347 H 0.59379 0.75729 0.48513 0.0
H348 H 0.83078 0.82354 0.58031 0.0
H349 H 0.65598 0.82404 0.39627 0.0
H350 H 0.67524 0.80229 0.52132 0.0
H351 H 0.81129 0.80298 0.45518 0.0
C352 C 0.86375 0.78471 0.50303 0.0
C353 C 0.86817 0.78692 0.53863 0.0
C354 C 0.66981 0.80966 0.49401 0.0
C355 C 0.77272 0.83492 0.49794 0.0
C356 C 0.62308 0.7841 0.47339 0.0
C357 C 0.61885 0.78652 0.43781 0.0
C358 C 0.7137 0.83496 0.47869 0.0
C359 C 0.65818 0.82109 0.42371 0.0
C360 C 0.81672 0.81007 0.48252 0.0
C361 C 0.82847 0.82082 0.55285 0.0
N362 N 0.70553 0.84194 0.44413 0.0
N363 N 0.78088 0.8415 0.53252 0.0
H364 H 0.89269 0.71235 -0.00418 0.0
H365 H 0.65079 0.65989 0.89724 0.0
H366 H 0.81685 0.6664 0.08403 0.0
H367 H 0.5986 0.73842 0.98611 0.0
H368 H 0.72925 0.6102 0.93429 0.0
H369 H 0.81209 0.66717 0.95927 0.0
C370 C 0.86059 0.68958 0.00755 0.0
C371 C 0.86076 0.69353 0.04278 0.0
C372 C 0.69907 0.63627 0.94575 0.0
C373 C 0.76686 0.64459 0.00124 0.0
C374 C 0.65398 0.66414 0.9247 0.0
C375 C 0.61942 0.70427 0.93879 0.0
C376 C 0.70902 0.64911 0.98084 0.0
C377 C 0.62524 0.70856 0.97437 0.0
C378 C 0.81426 0.66375 0.98669 0.0
C379 C 0.81781 0.66435 0.05682 0.0
N380 N 0.67017 0.68232 -0.00579 0.0
N381 N 0.7711 0.64336 0.0359 0.0
H382 H 0.33877 0.3399 0.07946 0.0
H383 H 0.0954 0.28754 0.98223 0.0
H384 H 0.38858 0.26103 -0.00998 0.0
H385 H 0.16896 0.33536 0.89349 0.0
H386 H 0.1767 0.33217 0.01846 0.0
H387 H 0.25989 0.38991 0.04293 0.0
C388 C 0.33501 0.33567 0.05197 0.0
C389 C 0.36899 0.29533 0.03759 0.0
C390 C 0.17387 0.3361 -0.00897 0.0
C391 C 0.27896 0.35092 -0.00386 0.0
C392 C 0.12716 0.31058 0.97034 0.0
C393 C 0.12613 0.30734 0.93501 0.0
C394 C 0.22081 0.35565 0.97617 0.0
C395 C 0.16866 0.33686 0.92077 0.0
C396 C 0.28968 0.36373 0.03122 0.0
C397 C 0.36242 0.29106 0.00198 0.0
N398 N 0.21577 0.35751 0.94148 0.0
N399 N 0.31728 0.31751 0.98244 0.0
loop_
_geom_bond_atom_site_label_1
_geom_bond_atom_site_label_2
_geom_bond_distance
_geom_bond_site_symmetry_2
_ccdc_geom_bond_type
Co0 O1 2.216 1_455 S
Co0 O2 2.091 1_455 S
Co0 O4 2.004 . S
Co0 O10 2.021 . S
Co0 O12 2.137 1_455 S
Co0 O13 2.244 . S
O1 Co0 2.216 1_655 S
O1 C8 1.247 . S
O2 Co0 2.091 1_655 S
O2 C8 1.261 . S
C3 O12 1.247 1_455 S
C3 O13 1.272 . S
O4 Co0 2.004 . S
O4 C9 1.259 . S
Co5 O6 2.061 . S
Co5 O11 2.052 . S
Co5 O13 2.135 . S
O6 Co5 2.061 . S
O6 C9 1.235 . S
C7 O10 1.238 . S
C7 O11 1.241 . S
C8 O1 1.247 . S
C8 O2 1.261 . S
C9 O4 1.259 . S
C9 O6 1.235 . S
O10 Co0 2.021 . S
O10 C7 1.238 . S
O11 Co5 2.052 . S
O11 C7 1.241 . S
O12 Co0 2.137 1_655 S
O12 C3 1.247 1_655 S
O13 Co0 2.244 . S
O13 C3 1.272 . S
O13 Co5 2.135 . S
Co14 O15 2.216 . S
Co14 O16 2.091 . S
Co14 O18 2.004 . S
Co14 O24 2.021 . S
Co14 O26 2.137 . S
Co14 O27 2.244 . S
O15 Co14 2.216 . S
O15 C22 1.247 . S
O16 Co14 2.091 . S
O16 C22 1.261 . S
C17 O26 1.247 . S
C17 O27 1.272 . S
O18 Co14 2.004 . S
O18 C23 1.259 . S
Co19 O20 2.061 . S
Co19 O25 2.052 . S
Co19 O27 2.135 . S
O20 Co19 2.061 . S
O20 C23 1.235 . S
C21 O24 1.238 . S
C21 O25 1.241 . S
C22 O15 1.247 . S
C22 O16 1.261 . S
C23 O18 1.259 . S
C23 O20 1.235 . S
O24 Co14 2.021 . S
O24 C21 1.238 . S
O25 Co19 2.052 . S
O25 C21 1.241 . S
O26 Co14 2.137 . S
O26 C17 1.247 . S
O27 Co14 2.244 . S
O27 C17 1.272 . S
O27 Co19 2.135 . S
Co28 O29 2.216 1_655 S
Co28 O30 2.091 1_655 S
Co28 O32 2.004 . S
Co28 O38 2.021 . S
Co28 O40 2.137 1_655 S
Co28 O41 2.244 . S
O29 Co28 2.216 1_455 S
O29 C36 1.247 . S
O30 Co28 2.091 1_455 S
O30 C36 1.261 . S
C31 O40 1.247 1_655 S
C31 O41 1.272 . S
O32 Co28 2.004 . S
O32 C37 1.259 . S
Co33 O34 2.061 . S
Co33 O39 2.052 . S
Co33 O41 2.135 . S
O34 Co33 2.061 . S
O34 C37 1.235 . S
C35 O38 1.238 . S
C35 O39 1.241 . S
C36 O29 1.247 . S
C36 O30 1.261 . S
C37 O32 1.259 . S
C37 O34 1.235 . S
O38 Co28 2.021 . S
O38 C35 1.238 . S
O39 Co33 2.052 . S
O39 C35 1.241 . S
O40 Co28 2.137 1_455 S
O40 C31 1.247 1_455 S
O41 Co28 2.244 . S
O41 C31 1.272 . S
O41 Co33 2.135 . S
Co42 O43 2.216 . S
Co42 O44 2.091 . S
Co42 O46 2.004 . S
Co42 O52 2.021 . S
Co42 O54 2.137 . S
Co42 O55 2.244 . S
O43 Co42 2.216 . S
O43 C50 1.247 . S
O44 Co42 2.091 . S
O44 C50 1.261 . S
C45 O54 1.247 . S
C45 O55 1.272 . S
O46 Co42 2.004 . S
O46 C51 1.259 . S
Co47 O48 2.061 . S
Co47 O53 2.052 . S
Co47 O55 2.135 . S
O48 Co47 2.061 . S
O48 C51 1.235 . S
C49 O52 1.238 . S
C49 O53 1.241 . S
C50 O43 1.247 . S
C50 O44 1.261 . S
C51 O46 1.259 . S
C51 O48 1.235 . S
O52 Co42 2.021 . S
O52 C49 1.238 . S
O53 Co47 2.052 . S
O53 C49 1.241 . S
O54 Co42 2.137 . S
O54 C45 1.247 . S
O55 Co42 2.244 . S
O55 C45 1.272 . S
O55 Co47 2.135 . S
Co56 O57 2.216 . S
Co56 O58 2.091 . S
Co56 O60 2.004 . S
Co56 O66 2.021 . S
Co56 O68 2.137 . S
Co56 O69 2.244 . S
O57 Co56 2.216 . S
O57 C64 1.247 . S
O58 Co56 2.091 . S
O58 C64 1.261 . S
C59 O68 1.247 . S
C59 O69 1.272 . S
O60 Co56 2.004 . S
O60 C65 1.259 . S
Co61 O62 2.061 . S
Co61 O67 2.052 . S
Co61 O69 2.135 . S
O62 Co61 2.061 . S
O62 C65 1.235 . S
C63 O66 1.238 . S
C63 O67 1.241 . S
C64 O57 1.247 . S
C64 O58 1.261 . S
C65 O60 1.259 . S
C65 O62 1.235 . S
O66 Co56 2.021 . S
O66 C63 1.238 . S
O67 Co61 2.052 . S
O67 C63 1.241 . S
O68 Co56 2.137 . S
O68 C59 1.247 . S
O69 Co56 2.244 . S
O69 C59 1.272 . S
O69 Co61 2.135 . S
Co70 O71 2.216 1_655 S
Co70 O72 2.091 1_655 S
Co70 O74 2.004 . S
Co70 O80 2.021 . S
Co70 O82 2.137 1_655 S
Co70 O83 2.244 . S
O71 Co70 2.216 1_455 S
O71 C78 1.247 . S
O72 Co70 2.091 1_455 S
O72 C78 1.261 . S
C73 O82 1.247 1_655 S
C73 O83 1.272 . S
O74 Co70 2.004 . S
O74 C79 1.259 . S
Co75 O76 2.061 . S
Co75 O81 2.052 . S
Co75 O83 2.135 . S
O76 Co75 2.061 . S
O76 C79 1.235 . S
C77 O80 1.238 . S
C77 O81 1.241 . S
C78 O71 1.247 . S
C78 O72 1.261 . S
C79 O74 1.259 . S
C79 O76 1.235 . S
O80 Co70 2.021 . S
O80 C77 1.238 . S
O81 Co75 2.052 . S
O81 C77 1.241 . S
O82 Co70 2.137 1_455 S
O82 C73 1.247 1_455 S
O83 Co70 2.244 . S
O83 C73 1.272 . S
O83 Co75 2.135 . S
Co84 O85 2.216 . S
Co84 O86 2.091 . S
Co84 O88 2.004 . S
Co84 O94 2.021 . S
Co84 O96 2.137 . S
Co84 O97 2.244 . S
O85 Co84 2.216 . S
O85 C92 1.247 . S
O86 Co84 2.091 . S
O86 C92 1.261 . S
C87 O96 1.247 . S
C87 O97 1.272 . S
O88 Co84 2.004 . S
O88 C93 1.259 . S
Co89 O90 2.061 . S
Co89 O95 2.052 . S
Co89 O97 2.135 . S
O90 Co89 2.061 . S
O90 C93 1.235 . S
C91 O94 1.238 . S
C91 O95 1.241 . S
C92 O85 1.247 . S
C92 O86 1.261 . S
C93 O88 1.259 . S
C93 O90 1.235 . S
O94 Co84 2.021 . S
O94 C91 1.238 . S
O95 Co89 2.052 . S
O95 C91 1.241 . S
O96 Co84 2.137 . S
O96 C87 1.247 . S
O97 Co84 2.244 . S
O97 C87 1.272 . S
O97 Co89 2.135 . S
Co98 O99 2.216 1_455 S
Co98 O100 2.091 1_455 S
Co98 O102 2.004 . S
Co98 O108 2.021 . S
Co98 O110 2.137 1_455 S
Co98 O111 2.244 . S
O99 Co98 2.216 1_655 S
O99 C106 1.247 . S
O100 Co98 2.091 1_655 S
O100 C106 1.261 . S
C101 O110 1.247 1_455 S
C101 O111 1.272 . S
O102 Co98 2.004 . S
O102 C107 1.259 . S
Co103 O104 2.061 . S
Co103 O109 2.052 . S
Co103 O111 2.135 . S
O104 Co103 2.061 . S
O104 C107 1.235 . S
C105 O108 1.238 . S
C105 O109 1.241 . S
C106 O99 1.247 . S
C106 O100 1.261 . S
C107 O102 1.259 . S
C107 O104 1.235 . S
O108 Co98 2.021 . S
O108 C105 1.238 . S
O109 Co103 2.052 . S
O109 C105 1.241 . S
O110 Co98 2.137 1_655 S
O110 C101 1.247 1_655 S
O111 Co98 2.244 . S
O111 C101 1.272 . S
O111 Co103 2.135 . S
H112 C118 0.930 . S
H113 C122 0.930 . S
H114 C127 0.929 . S
H115 C125 0.929 . S
H116 C120 0.929 . S
H117 C126 0.929 . S
C118 H112 0.930 . S
C118 C119 1.367 1_655 S
C118 C126 1.378 . S
C119 C118 1.367 1_455 S
C119 C127 1.433 . S
C120 H116 0.929 . S
C120 C122 1.378 . S
C120 C124 1.349 1_455 S
C121 C124 1.462 1_455 S
C121 C126 1.349 1_455 S
C121 N129 1.429 . S
C122 H113 0.930 . S
C122 C120 1.378 . S
C122 C123 1.367 1_455 S
C123 C122 1.367 1_655 S
C123 C125 1.433 . S
C124 C120 1.349 1_655 S
C124 C121 1.462 1_655 S
C124 N128 1.429 . S
C125 H115 0.929 . S
C125 C123 1.433 . S
C125 N128 1.384 . S
C126 H117 0.929 . S
C126 C118 1.378 . S
C126 C121 1.349 1_655 S
C127 H114 0.929 . S
C127 C119 1.433 . S
C127 N129 1.384 . S
N128 C124 1.429 . S
N128 C125 1.384 . S
N129 C121 1.429 . S
N129 C127 1.384 . S
H130 C136 0.930 . S
H131 C140 0.930 . S
H132 C145 0.929 . S
H133 C143 0.929 . S
H134 C138 0.929 . S
H135 C144 0.929 . S
C136 H130 0.930 . S
C136 C137 1.367 . S
C136 C144 1.378 . S
C137 C136 1.367 . S
C137 C145 1.433 . S
C138 H134 0.929 . S
C138 C140 1.378 . S
C138 C142 1.350 . S
C139 C142 1.463 . S
C139 C144 1.350 . S
C139 N147 1.427 . S
C140 H131 0.930 . S
C140 C138 1.378 . S
C140 C141 1.367 . S
C141 C140 1.367 . S
C141 C143 1.433 . S
C142 C138 1.350 . S
C142 C139 1.463 . S
C142 N146 1.427 . S
C143 H133 0.929 . S
C143 C141 1.433 . S
C143 N146 1.384 . S
C144 H135 0.929 . S
C144 C136 1.378 . S
C144 C139 1.350 . S
C145 H132 0.929 . S
C145 C137 1.433 . S
C145 N147 1.384 . S
N146 C142 1.427 . S
N146 C143 1.384 . S
N147 C139 1.427 . S
N147 C145 1.384 . S
H148 C154 0.930 . S
H149 C158 0.930 . S
H150 C163 0.929 . S
H151 C161 0.929 . S
H152 C156 0.929 1_545 S
H153 C162 0.929 1_565 S
C154 H148 0.930 . S
C154 C155 1.367 . S
C154 C162 1.378 . S
C155 C154 1.367 . S
C155 C163 1.433 . S
C156 H152 0.929 1_565 S
C156 C158 1.378 . S
C156 C160 1.350 . S
C157 C160 1.463 1_544 S
C157 C162 1.350 . S
C157 N165 1.427 . S
C158 H149 0.930 . S
C158 C156 1.378 . S
C158 C159 1.367 . S
C159 C158 1.367 . S
C159 C161 1.433 . S
C160 C156 1.350 . S
C160 C157 1.463 1_566 S
C160 N164 1.427 . S
C161 H151 0.929 . S
C161 C159 1.433 . S
C161 N164 1.384 . S
C162 H153 0.929 1_545 S
C162 C154 1.378 . S
C162 C157 1.350 . S
C163 H150 0.929 . S
C163 C155 1.433 . S
C163 N165 1.384 . S
N164 C160 1.427 . S
N164 C161 1.384 . S
N165 C157 1.427 . S
N165 C163 1.384 . S
H166 C172 0.930 . S
H167 C176 0.930 . S
H168 C181 0.929 . S
H169 C179 0.929 . S
H170 C174 0.929 1_565 S
H171 C180 0.929 1_545 S
C172 H166 0.930 . S
C172 C173 1.367 1_455 S
C172 C180 1.378 . S
C173 C172 1.367 1_655 S
C173 C181 1.433 . S
C174 H170 0.929 1_545 S
C174 C176 1.378 . S
C174 C178 1.350 1_655 S
C175 C178 1.463 1_664 S
C175 C180 1.350 1_655 S
C175 N183 1.427 . S
C176 H167 0.930 . S
C176 C174 1.378 . S
C176 C177 1.367 1_655 S
C177 C176 1.367 1_455 S
C177 C179 1.433 . S
C178 C174 1.350 1_455 S
C178 C175 1.463 1_446 S
C178 N182 1.427 . S
C179 H169 0.929 . S
C179 C177 1.433 . S
C179 N182 1.384 . S
C180 H171 0.929 1_565 S
C180 C172 1.378 . S
C180 C175 1.350 1_455 S
C181 H168 0.929 . S
C181 C173 1.433 . S
C181 N183 1.384 . S
N182 C178 1.427 . S
N182 C179 1.384 . S
N183 C175 1.427 . S
N183 C181 1.384 . S
H184 C190 0.930 . S
H185 C194 0.930 . S
H186 C199 0.929 . S
H187 C197 0.929 . S
H188 C192 0.929 . S
H189 C198 0.929 . S
C190 H184 0.930 . S
C190 C191 1.367 . S
C190 C198 1.378 . S
C191 C190 1.367 . S
C191 C199 1.433 . S
C192 H188 0.929 . S
C192 C194 1.378 . S
C192 C196 1.350 . S
C193 C196 1.463 . S
C193 C198 1.350 . S
C193 N201 1.427 . S
C194 H185 0.930 . S
C194 C192 1.378 . S
C194 C195 1.367 . S
C195 C194 1.367 . S
C195 C197 1.433 . S
C196 C192 1.350 . S
C196 C193 1.463 . S
C196 N200 1.427 . S
C197 H187 0.929 . S
C197 C195 1.433 . S
C197 N200 1.384 . S
C198 H189 0.929 . S
C198 C190 1.378 . S
C198 C193 1.350 . S
C199 H186 0.929 . S
C199 C191 1.433 . S
C199 N201 1.384 . S
N200 C196 1.427 . S
N200 C197 1.384 . S
N201 C193 1.427 . S
N201 C199 1.384 . S
H202 C208 0.930 . S
H203 C212 0.930 . S
H204 C217 0.929 . S
H205 C215 0.929 . S
H206 C210 0.929 . S
H207 C216 0.929 . S
C208 H202 0.930 . S
C208 C209 1.367 . S
C208 C216 1.378 . S
C209 C208 1.367 . S
C209 C217 1.433 . S
C210 H206 0.929 . S
C210 C212 1.378 . S
C210 C214 1.350 . S
C211 C214 1.463 . S
C211 C216 1.350 . S
C211 N219 1.427 . S
C212 H203 0.930 . S
C212 C210 1.378 . S
C212 C213 1.367 . S
C213 C212 1.367 . S
C213 C215 1.433 . S
C214 C210 1.350 . S
C214 C211 1.463 . S
C214 N218 1.427 . S
C215 H205 0.929 . S
C215 C213 1.433 . S
C215 N218 1.384 . S
C216 H207 0.929 . S
C216 C208 1.378 . S
C216 C211 1.350 . S
C217 H204 0.929 . S
C217 C209 1.433 . S
C217 N219 1.384 . S
N218 C214 1.427 . S
N218 C215 1.384 . S
N219 C211 1.427 . S
N219 C217 1.384 . S
H220 C226 0.930 . S
H221 C230 0.930 . S
H222 C235 0.929 . S
H223 C233 0.929 . S
H224 C228 0.929 . S
H225 C234 0.929 . S
C226 H220 0.930 . S
C226 C227 1.367 . S
C226 C234 1.378 . S
C227 C226 1.367 . S
C227 C235 1.433 . S
C228 H224 0.929 . S
C228 C230 1.378 . S
C228 C232 1.350 . S
C229 C232 1.463 . S
C229 C234 1.350 . S
C229 N237 1.427 . S
C230 H221 0.930 . S
C230 C228 1.378 . S
C230 C231 1.367 . S
C231 C230 1.367 . S
C231 C233 1.433 . S
C232 C228 1.350 . S
C232 C229 1.463 . S
C232 N236 1.427 . S
C233 H223 0.929 . S
C233 C231 1.433 . S
C233 N236 1.384 . S
C234 H225 0.929 . S
C234 C226 1.378 . S
C234 C229 1.350 . S
C235 H222 0.929 . S
C235 C227 1.433 . S
C235 N237 1.384 . S
N236 C232 1.427 . S
N236 C233 1.384 . S
N237 C229 1.427 . S
N237 C235 1.384 . S
H238 C244 0.930 . S
H239 C248 0.930 . S
H240 C253 0.929 . S
H241 C251 0.929 . S
H242 C246 0.929 . S
H243 C252 0.929 . S
C244 H238 0.930 . S
C244 C245 1.367 . S
C244 C252 1.378 . S
C245 C244 1.367 . S
C245 C253 1.433 . S
C246 H242 0.929 . S
C246 C248 1.378 . S
C246 C250 1.350 . S
C247 C250 1.463 . S
C247 C252 1.350 . S
C247 N255 1.427 . S
C248 H239 0.930 . S
C248 C246 1.378 . S
C248 C249 1.367 . S
C249 C248 1.367 . S
C249 C251 1.433 . S
C250 C246 1.350 . S
C250 C247 1.463 . S
C250 N254 1.427 . S
C251 H241 0.929 . S
C251 C249 1.433 . S
C251 N254 1.384 . S
C252 H243 0.929 . S
C252 C244 1.378 . S
C252 C247 1.350 . S
C253 H240 0.929 . S
C253 C245 1.433 . S
C253 N255 1.384 . S
N254 C250 1.427 . S
N254 C251 1.384 . S
N255 C247 1.427 . S
N255 C253 1.384 . S
H256 C262 0.930 . S
H257 C266 0.930 . S
H258 C271 0.929 . S
H259 C269 0.929 . S
H260 C264 0.929 . S
H261 C270 0.929 . S
C262 H256 0.930 . S
C262 C263 1.367 . S
C262 C270 1.378 . S
C263 C262 1.367 . S
C263 C271 1.433 . S
C264 H260 0.929 . S
C264 C266 1.378 . S
C264 C268 1.350 . S
C265 C268 1.463 . S
C265 C270 1.350 . S
C265 N273 1.427 . S
C266 H257 0.930 . S
C266 C264 1.378 . S
C266 C267 1.367 . S
C267 C266 1.367 . S
C267 C269 1.433 . S
C268 C264 1.350 . S
C268 C265 1.463 . S
C268 N272 1.427 . S
C269 H259 0.929 . S
C269 C267 1.433 . S
C269 N272 1.384 . S
C270 H261 0.929 . S
C270 C262 1.378 . S
C270 C265 1.350 . S
C271 H258 0.929 . S
C271 C263 1.433 . S
C271 N273 1.384 . S
N272 C268 1.427 . S
N272 C269 1.384 . S
N273 C265 1.427 . S
N273 C271 1.384 . S
H274 C280 0.930 . S
H275 C284 0.930 . S
H276 C289 0.929 . S
H277 C287 0.929 . S
H278 C282 0.929 . S
H279 C288 0.929 . S
C280 H274 0.930 . S
C280 C281 1.367 . S
C280 C288 1.378 . S
C281 C280 1.367 . S
C281 C289 1.433 . S
C282 H278 0.929 . S
C282 C284 1.378 . S
C282 C286 1.350 . S
C283 C286 1.463 . S
C283 C288 1.350 . S
C283 N291 1.427 . S
C284 H275 0.930 . S
C284 C282 1.378 . S
C284 C285 1.367 . S
C285 C284 1.367 . S
C285 C287 1.433 . S
C286 C282 1.350 . S
C286 C283 1.463 . S
C286 N290 1.427 . S
C287 H277 0.929 . S
C287 C285 1.433 . S
C287 N290 1.384 . S
C288 H279 0.929 . S
C288 C280 1.378 . S
C288 C283 1.350 . S
C289 H276 0.929 . S
C289 C281 1.433 . S
C289 N291 1.384 . S
N290 C286 1.427 . S
N290 C287 1.384 . S
N291 C283 1.427 . S
N291 C289 1.384 . S
H292 C298 0.930 . S
H293 C302 0.930 . S
H294 C307 0.929 . S
H295 C305 0.929 . S
H296 C300 0.929 . S
H297 C306 0.929 . S
C298 H292 0.930 . S
C298 C299 1.367 . S
C298 C306 1.378 . S
C299 C298 1.367 . S
C299 C307 1.433 . S
C300 H296 0.929 . S
C300 C302 1.378 . S
C300 C304 1.350 . S
C301 C304 1.463 . S
C301 C306 1.350 . S
C301 N309 1.427 . S
C302 H293 0.930 . S
C302 C300 1.378 . S
C302 C303 1.367 . S
C303 C302 1.367 . S
C303 C305 1.433 . S
C304 C300 1.350 . S
C304 C301 1.463 . S
C304 N308 1.427 . S
C305 H295 0.929 . S
C305 C303 1.433 . S
C305 N308 1.384 . S
C306 H297 0.929 . S
C306 C298 1.378 . S
C306 C301 1.350 . S
C307 H294 0.929 . S
C307 C299 1.433 . S
C307 N309 1.384 . S
N308 C304 1.427 . S
N308 C305 1.384 . S
N309 C301 1.427 . S
N309 C307 1.384 . S
H310 C316 0.930 . S
H311 C320 0.930 . S
H312 C325 0.929 . S
H313 C323 0.929 . S
H314 C318 0.929 . S
H315 C324 0.929 . S
C316 H310 0.930 . S
C316 C317 1.367 . S
C316 C324 1.378 . S
C317 C316 1.367 . S
C317 C325 1.433 . S
C318 H314 0.929 . S
C318 C320 1.378 . S
C318 C322 1.350 . S
C319 C322 1.463 . S
C319 C324 1.350 . S
C319 N327 1.427 . S
C320 H311 0.930 . S
C320 C318 1.378 . S
C320 C321 1.367 . S
C321 C320 1.367 . S
C321 C323 1.433 . S
C322 C318 1.350 . S
C322 C319 1.463 . S
C322 N326 1.427 . S
C323 H313 0.929 . S
C323 C321 1.433 . S
C323 N326 1.384 . S
C324 H315 0.929 . S
C324 C316 1.378 . S
C324 C319 1.350 . S
C325 H312 0.929 . S
C325 C317 1.433 . S
C325 N327 1.384 . S
N326 C322 1.427 . S
N326 C323 1.384 . S
N327 C319 1.427 . S
N327 C325 1.384 . S
H328 C334 0.930 . S
H329 C338 0.930 . S
H330 C343 0.929 . S
H331 C341 0.929 . S
H332 C336 0.929 . S
H333 C342 0.929 . S
C334 H328 0.930 . S
C334 C335 1.367 . S
C334 C342 1.378 . S
C335 C334 1.367 . S
C335 C343 1.433 . S
C336 H332 0.929 . S
C336 C338 1.378 . S
C336 C340 1.350 . S
C337 C340 1.463 . S
C337 C342 1.350 . S
C337 N345 1.427 . S
C338 H329 0.930 . S
C338 C336 1.378 . S
C338 C339 1.367 . S
C339 C338 1.367 . S
C339 C341 1.433 . S
C340 C336 1.350 . S
C340 C337 1.463 . S
C340 N344 1.427 . S
C341 H331 0.929 . S
C341 C339 1.433 . S
C341 N344 1.384 . S
C342 H333 0.929 . S
C342 C334 1.378 . S
C342 C337 1.350 . S
C343 H330 0.929 . S
C343 C335 1.433 . S
C343 N345 1.384 . S
N344 C340 1.427 . S
N344 C341 1.384 . S
N345 C337 1.427 . S
N345 C343 1.384 . S
H346 C352 0.930 . S
H347 C356 0.930 . S
H348 C361 0.929 . S
H349 C359 0.929 . S
H350 C354 0.929 . S
H351 C360 0.929 . S
C352 H346 0.930 . S
C352 C353 1.367 . S
C352 C360 1.378 . S
C353 C352 1.367 . S
C353 C361 1.433 . S
C354 H350 0.929 . S
C354 C356 1.378 . S
C354 C358 1.350 . S
C355 C358 1.463 . S
C355 C360 1.350 . S
C355 N363 1.427 . S
C356 H347 0.930 . S
C356 C354 1.378 . S
C356 C357 1.367 . S
C357 C356 1.367 . S
C357 C359 1.433 . S
C358 C354 1.350 . S
C358 C355 1.463 . S
C358 N362 1.427 . S
C359 H349 0.929 . S
C359 C357 1.433 . S
C359 N362 1.384 . S
C360 H351 0.929 . S
C360 C352 1.378 . S
C360 C355 1.350 . S
C361 H348 0.929 . S
C361 C353 1.433 . S
C361 N363 1.384 . S
N362 C358 1.427 . S
N362 C359 1.384 . S
N363 C355 1.427 . S
N363 C361 1.384 . S
H364 C370 0.930 . S
H365 C374 0.930 . S
H366 C379 0.929 . S
H367 C377 0.929 . S
H368 C372 0.929 . S
H369 C378 0.929 . S
C370 H364 0.930 . S
C370 C371 1.367 . S
C370 C378 1.378 . S
C371 C370 1.367 . S
C371 C379 1.433 . S
C372 H368 0.929 . S
C372 C374 1.378 . S
C372 C376 1.350 . S
C373 C376 1.463 1_554 S
C373 C378 1.350 . S
C373 N381 1.427 . S
C374 H365 0.930 . S
C374 C372 1.378 . S
C374 C375 1.367 . S
C375 C374 1.367 . S
C375 C377 1.433 . S
C376 C372 1.350 . S
C376 C373 1.463 1_556 S
C376 N380 1.427 . S
C377 H367 0.929 . S
C377 C375 1.433 . S
C377 N380 1.384 . S
C378 H369 0.929 . S
C378 C370 1.378 . S
C378 C373 1.350 . S
C379 H366 0.929 . S
C379 C371 1.433 . S
C379 N381 1.384 . S
N380 C376 1.427 . S
N380 C377 1.384 . S
N381 C373 1.427 . S
N381 C379 1.384 . S
H382 C388 0.930 . S
H383 C392 0.930 . S
H384 C397 0.929 . S
H385 C395 0.929 . S
H386 C390 0.929 . S
H387 C396 0.929 . S
C388 H382 0.930 . S
C388 C389 1.367 . S
C388 C396 1.378 . S
C389 C388 1.367 . S
C389 C397 1.433 . S
C390 H386 0.929 . S
C390 C392 1.378 . S
C390 C394 1.350 . S
C391 C394 1.463 1_554 S
C391 C396 1.350 . S
C391 N399 1.427 . S
C392 H383 0.930 . S
C392 C390 1.378 . S
C392 C393 1.367 . S
C393 C392 1.367 . S
C393 C395 1.433 . S
C394 C390 1.350 . S
C394 C391 1.463 1_556 S
C394 N398 1.427 . S
C395 H385 0.929 . S
C395 C393 1.433 . S
C395 N398 1.384 . S
C396 H387 0.929 . S
C396 C388 1.378 . S
C396 C391 1.350 . S
C397 H384 0.929 . S
C397 C389 1.433 . S
C397 N399 1.384 . S
N398 C394 1.427 . S
N398 C395 1.384 . S
N399 C391 1.427 . S
N399 C397 1.384 . S
C119 C3 1.561 . S
C123 C31 1.561 . S
C137 C45 1.559 . S
C141 C17 1.559 . S
C155 C87 1.560 . S
C159 C59 1.560 . S
C173 C73 1.560 . S
C177 C101 1.560 . S
C191 C92 1.790 . S
C195 C8 1.790 . S
C209 C22 1.795 . S
C213 C106 1.795 . S
C227 C36 1.800 . S
C231 C64 1.800 . S
C245 C50 1.790 . S
C249 C78 1.790 . S
C263 C91 1.512 . S
C267 C7 1.512 . S
C281 C21 1.502 . S
C285 C105 1.502 . S
C299 C63 1.504 . S
C303 C35 1.504 . S
C317 C77 1.502 . S
C321 C49 1.502 . S
C335 C23 0.558 . S
C339 C9 0.591 . S
C353 C37 0.591 . S
C357 C51 0.557 . S
C371 C79 0.543 . S
C375 C65 0.591 . S
C389 C93 0.591 . S
C393 C107 0.542 . S
