# Generated by pormake.
# Topology acs-a, (4)-cn, num edge types: 1
# Building blocks:
#     Node 0, Type 0, BuildingBlock: KUFVIS_clean_sbu_0, # of connection points: 4
#     Node 1, Type 0, BuildingBlock: KUFVIS_clean_sbu_0, # of connection points: 4
#     Node 2, Type 0, BuildingBlock: KUFVIS_clean_sbu_0, # of connection points: 4
#     Node 3, Type 0, BuildingBlock: KUFVIS_clean_sbu_0, # of connection points: 4
#     Node 4, Type 0, BuildingBlock: KUFVIS_clean_sbu_0, # of connection points: 4
#     Node 5, Type 0, BuildingBlock: KUFVIS_clean_sbu_0, # of connection points: 4
#     Node 6, Type 0, BuildingBlock: KUFVIS_clean_sbu_0, # of connection points: 4
#     Node 7, Type 0, BuildingBlock: KUFVIS_clean_sbu_0, # of connection points: 4
#     Node 8, Type 0, BuildingBlock: KUFVIS_clean_sbu_0, # of connection points: 4
#     Node 9, Type 0, BuildingBlock: KUFVIS_clean_sbu_0, # of connection points: 4
#     Node 10, Type 0, BuildingBlock: KUFVIS_clean_sbu_0, # of connection points: 4
#     Node 11, Type 0, BuildingBlock: KUFVIS_clean_sbu_0, # of connection points: 4
#     Edge 12, Type (0, 0), BuildingBlock: XIVTED_clean_linker_0, # of connection points: 2
#     Edge 13, Type (0, 0), BuildingBlock: XIVTED_clean_linker_0, # of connection points: 2
#     Edge 14, Type (0, 0), BuildingBlock: XIVTED_clean_linker_0, # of connection points: 2
#     Edge 15, Type (0, 0), BuildingBlock: XIVTED_clean_linker_0, # of connection points: 2
#     Edge 16, Type (0, 0), BuildingBlock: XIVTED_clean_linker_0, # of connection points: 2
#     Edge 17, Type (0, 0), BuildingBlock: XIVTED_clean_linker_0, # of connection points: 2
#     Edge 18, Type (0, 0), BuildingBlock: XIVTED_clean_linker_0, # of connection points: 2
#     Edge 19, Type (0, 0), BuildingBlock: XIVTED_clean_linker_0, # of connection points: 2
#     Edge 20, Type (0, 0), BuildingBlock: XIVTED_clean_linker_0, # of connection points: 2
#     Edge 21, Type (0, 0), BuildingBlock: XIVTED_clean_linker_0, # of connection points: 2
#     Edge 22, Type (0, 0), BuildingBlock: XIVTED_clean_linker_0, # of connection points: 2
#     Edge 23, Type (0, 0), BuildingBlock: XIVTED_clean_linker_0, # of connection points: 2
#     Edge 24, Type (0, 0), BuildingBlock: XIVTED_clean_linker_0, # of connection points: 2
#     Edge 25, Type (0, 0), BuildingBlock: XIVTED_clean_linker_0, # of connection points: 2
#     Edge 26, Type (0, 0), BuildingBlock: XIVTED_clean_linker_0, # of connection points: 2
#     Edge 27, Type (0, 0), BuildingBlock: XIVTED_clean_linker_0, # of connection points: 2
#     Edge 28, Type (0, 0), BuildingBlock: XIVTED_clean_linker_0, # of connection points: 2
#     Edge 29, Type (0, 0), BuildingBlock: XIVTED_clean_linker_0, # of connection points: 2
#     Edge 30, Type (0, 0), BuildingBlock: XIVTED_clean_linker_0, # of connection points: 2
#     Edge 31, Type (0, 0), BuildingBlock: XIVTED_clean_linker_0, # of connection points: 2
#     Edge 32, Type (0, 0), BuildingBlock: XIVTED_clean_linker_0, # of connection points: 2
#     Edge 33, Type (0, 0), BuildingBlock: XIVTED_clean_linker_0, # of connection points: 2
#     Edge 34, Type (0, 0), BuildingBlock: XIVTED_clean_linker_0, # of connection points: 2
#     Edge 35, Type (0, 0), BuildingBlock: XIVTED_clean_linker_0, # of connection points: 2
# Relax obj value: 0.495
# Max RMSD: 0.250
# Mean RMSD: 0.226
data_MOF--net-acs-a--node1-KUFVIS_clean_sbu_0--edge1-XIVTED_clean_linker_0
_symmetry_space_group_name_H-M    P1
_symmetry_Int_Tables_number       1
_symmetry_cell_setting            triclinic
loop_
_symmetry_equiv_pos_as_xyz
'x, y, z'
_cell_length_a     47.595363
_cell_length_b     47.57604
_cell_length_c     39.813677
_cell_angle_alpha  90.015697
_cell_angle_beta   89.976404
_cell_angle_gamma 113.2767
loop_
_atom_site_label
_atom_site_type_symbol
_atom_site_fract_x
_atom_site_fract_y
_atom_site_fract_z
_atom_type_partial_charge
Mn0 Mn 0.55768 0.14638 0.09361 0.0
Mn1 Mn 0.49853 0.14373 0.14218 0.0
C2 C 0.53803 0.18365 0.0887 0.0
C3 C 0.61073 0.16337 0.08647 0.0
C4 C 0.49162 0.10133 0.08283 0.0
O5 O 0.55754 0.11746 0.13156 0.0
O6 O 0.52013 0.12064 0.16439 0.0
C7 C 0.53203 0.1791 0.20115 0.0
N8 N 0.51218 0.17542 0.17527 0.0
C9 C 0.50467 0.22078 0.19117 0.0
C10 C 0.52492 0.22496 0.21809 0.0
C11 C 0.53866 0.20403 0.22309 0.0
C12 C 0.49863 0.19528 0.17039 0.0
H13 H 0.54279 0.16317 0.205 0.0
C14 C 0.5415 0.11127 0.15845 0.0
O15 O 0.59198 0.14041 0.06923 0.0
O16 O 0.59869 0.17578 0.10794 0.0
N17 N 0.47657 0.16601 0.12318 0.0
C18 C 0.45932 0.15992 0.0947 0.0
C19 C 0.44496 0.17944 0.08529 0.0
C20 C 0.44847 0.20498 0.10523 0.0
C21 C 0.46631 0.21076 0.13446 0.0
C22 C 0.47984 0.19035 0.14274 0.0
H23 H 0.45673 0.14045 0.07916 0.0
O24 O 0.55342 0.17868 0.06415 0.0
O25 O 0.5344 0.16635 0.11488 0.0
O26 O 0.51933 0.1132 0.0726 0.0
O27 O 0.482 0.11059 0.10879 0.0
C28 C 0.47172 0.23633 0.15528 0.0
C29 C 0.49085 0.24131 0.18365 0.0
H30 H 0.53033 0.24434 0.23486 0.0
H31 H 0.55442 0.20719 0.24372 0.0
H32 H 0.43134 0.17491 0.06262 0.0
H33 H 0.4376 0.22015 0.0977 0.0
H34 H 0.46161 0.25254 0.14946 0.0
H35 H 0.49514 0.26126 0.19924 0.0
Mn36 Mn 0.3876 0.54511 0.59176 0.0
Mn37 Mn 0.33572 0.48067 0.62548 0.0
C38 C 0.33629 0.53102 0.58071 0.0
C39 C 0.41677 0.59729 0.59654 0.0
C40 C 0.37829 0.48133 0.56834 0.0
O41 O 0.41087 0.53533 0.62939 0.0
O42 O 0.37313 0.49548 0.65418 0.0
C43 C 0.32181 0.50513 0.68888 0.0
N44 N 0.31228 0.49061 0.65893 0.0
C45 C 0.26077 0.48608 0.66874 0.0
C46 C 0.26999 0.50078 0.69979 0.0
C47 C 0.30064 0.51034 0.70988 0.0
C48 C 0.28279 0.48113 0.64907 0.0
H49 H 0.3454 0.51277 0.69662 0.0
C50 C 0.40073 0.51563 0.65292 0.0
O51 O 0.42485 0.58048 0.57615 0.0
O52 O 0.39222 0.58373 0.61418 0.0
N53 N 0.29865 0.46527 0.5999 0.0
C54 C 0.29394 0.45333 0.56829 0.0
C55 C 0.26468 0.44365 0.55391 0.0
C56 C 0.24063 0.44642 0.57214 0.0
C57 C 0.24603 0.45879 0.60462 0.0
C58 C 0.27557 0.46773 0.6178 0.0
H59 H 0.31241 0.45142 0.55404 0.0
O60 O 0.35671 0.5494 0.5605 0.0
O61 O 0.3468 0.52131 0.60627 0.0
O62 O 0.39011 0.51023 0.56415 0.0
O63 O 0.35831 0.46799 0.59087 0.0
C64 C 0.22342 0.46322 0.62415 0.0
C65 C 0.23077 0.47682 0.6562 0.0
H66 H 0.2538 0.50513 0.71591 0.0
H67 H 0.30797 0.52185 0.73373 0.0
H68 H 0.26073 0.43427 0.52876 0.0
H69 H 0.21818 0.43924 0.56081 0.0
H70 H 0.20039 0.4566 0.61458 0.0
H71 H 0.21328 0.48044 0.6708 0.0
Mn72 Mn 0.85202 0.35863 0.06148 0.0
Mn73 Mn 0.87985 0.30726 0.08495 0.0
C74 C 0.82379 0.30725 0.05035 0.0
C75 C 0.825 0.3889 0.07265 0.0
C76 C 0.90821 0.35553 0.03102 0.0
O77 O 0.88394 0.38032 0.09736 0.0
O78 O 0.89303 0.34069 0.11891 0.0
C79 C 0.84819 0.28247 0.14899 0.0
N80 N 0.85391 0.2781 0.1163 0.0
C81 C 0.82078 0.22469 0.11925 0.0
C82 C 0.81444 0.22864 0.1529 0.0
C83 C 0.82826 0.25765 0.16785 0.0
C84 C 0.84108 0.25019 0.10181 0.0
H85 H 0.85859 0.30477 0.16051 0.0
C86 C 0.89516 0.36848 0.11987 0.0
O87 O 0.84638 0.39658 0.0501 0.0
O88 O 0.81954 0.36373 0.08919 0.0
N89 N 0.86696 0.27416 0.05343 0.0
C90 C 0.87433 0.2745 0.02032 0.0
C91 C 0.86176 0.24743 0.00145 0.0
C92 C 0.84172 0.22033 0.01677 0.0
C93 C 0.83444 0.22053 0.05087 0.0
C94 C 0.84783 0.24814 0.06846 0.0
H95 H 0.88958 0.29527 0.00834 0.0
O96 O 0.81986 0.32822 0.03237 0.0
O97 O 0.84508 0.31751 0.073 0.0
O98 O 0.88522 0.36245 0.02794 0.0
O99 O 0.90921 0.33608 0.05257 0.0
C100 C 0.81409 0.19452 0.06796 0.0
C101 C 0.80729 0.19659 0.10214 0.0
H102 H 0.79885 0.20963 0.16744 0.0
H103 H 0.82343 0.2609 0.19379 0.0
H104 H 0.86743 0.24748 0.97511 0.0
H105 H 0.83193 0.19954 0.00207 0.0
H106 H 0.80336 0.17286 0.055 0.0
H107 H 0.79142 0.17649 0.11493 0.0
Mn108 Mn 0.44174 0.85414 0.59177 0.0
Mn109 Mn 0.50106 0.8578 0.64048 0.0
C110 C 0.46187 0.81721 0.58722 0.0
C111 C 0.38866 0.83662 0.58478 0.0
C112 C 0.50734 0.89992 0.58097 0.0
O113 O 0.44173 0.8833 0.62942 0.0
O114 O 0.47862 0.87999 0.66291 0.0
C115 C 0.4681 0.82173 0.69934 0.0
N116 N 0.48801 0.82593 0.67338 0.0
C117 C 0.49646 0.78097 0.68877 0.0
C118 C 0.47616 0.77625 0.71576 0.0
C119 C 0.46193 0.79673 0.72105 0.0
C120 C 0.50205 0.80653 0.66823 0.0
H121 H 0.45694 0.83729 0.70339 0.0
C122 C 0.45721 0.88923 0.65671 0.0
O123 O 0.40719 0.85954 0.56732 0.0
O124 O 0.40093 0.82457 0.60639 0.0
N125 N 0.52369 0.83629 0.6212 0.0
C126 C 0.54089 0.84282 0.59266 0.0
C127 C 0.55571 0.82378 0.58297 0.0
C128 C 0.55268 0.79825 0.60267 0.0
C129 C 0.53487 0.792 0.63195 0.0
C130 C 0.52087 0.81196 0.64053 0.0
H131 H 0.54311 0.86226 0.57729 0.0
O132 O 0.44629 0.82177 0.56262 0.0
O133 O 0.46537 0.83471 0.6132 0.0
O134 O 0.47978 0.88735 0.57047 0.0
O135 O 0.51704 0.89121 0.60726 0.0
C136 C 0.52989 0.76638 0.65252 0.0
C137 C 0.51075 0.76089 0.68095 0.0
H138 H 0.47108 0.75681 0.73235 0.0
H139 H 0.44612 0.79316 0.74173 0.0
H140 H 0.5693 0.82867 0.56025 0.0
H141 H 0.5639 0.78345 0.59492 0.0
H142 H 0.54036 0.75051 0.64646 0.0
H143 H 0.50679 0.7409 0.69632 0.0
Mn144 Mn 0.61292 0.456 0.09033 0.0
Mn145 Mn 0.66482 0.52048 0.12384 0.0
C146 C 0.66427 0.46989 0.07949 0.0
C147 C 0.5837 0.40385 0.09546 0.0
C148 C 0.62221 0.51966 0.06671 0.0
O149 O 0.58966 0.46606 0.12782 0.0
O150 O 0.6275 0.50576 0.15272 0.0
C151 C 0.67899 0.4963 0.18725 0.0
N152 N 0.68839 0.51066 0.15721 0.0
C153 C 0.73989 0.515 0.16666 0.0
C154 C 0.73079 0.50043 0.19779 0.0
C155 C 0.70021 0.49106 0.20812 0.0
C156 C 0.71781 0.52 0.14714 0.0
H157 H 0.65544 0.48877 0.19516 0.0
C158 C 0.59985 0.48571 0.1514 0.0
O159 O 0.57566 0.42055 0.07487 0.0
O160 O 0.60823 0.41751 0.11307 0.0
N161 N 0.70177 0.53572 0.09802 0.0
C162 C 0.70633 0.54746 0.06633 0.0
C163 C 0.73549 0.55694 0.05172 0.0
C164 C 0.7596 0.55416 0.0698 0.0
C165 C 0.75435 0.54197 0.10237 0.0
C166 C 0.7249 0.53323 0.11577 0.0
H167 H 0.68781 0.54937 0.05219 0.0
O168 O 0.64389 0.45149 0.05926 0.0
O169 O 0.65367 0.47978 0.10483 0.0
O170 O 0.61053 0.49076 0.06246 0.0
O171 O 0.64208 0.53303 0.08932 0.0
C172 C 0.77701 0.5375 0.12174 0.0
C173 C 0.76979 0.52406 0.15388 0.0
H174 H 0.74701 0.49604 0.21381 0.0
H175 H 0.69298 0.47964 0.23203 0.0
H176 H 0.73932 0.56617 0.02651 0.0
H177 H 0.78197 0.56118 0.0583 0.0
H178 H 0.79996 0.54396 0.112 0.0
H179 H 0.78731 0.5204 0.16836 0.0
Mn180 Mn 0.14717 0.63971 0.56178 0.0
Mn181 Mn 0.12013 0.69207 0.58399 0.0
C182 C 0.17592 0.69083 0.55 0.0
C183 C 0.1735 0.60879 0.57314 0.0
C184 C 0.09147 0.64341 0.53058 0.0
O185 O 0.11512 0.61883 0.59789 0.0
O186 O 0.10633 0.65902 0.61833 0.0
C187 C 0.15171 0.71715 0.64798 0.0
N188 N 0.1462 0.72132 0.61517 0.0
C189 C 0.17986 0.77459 0.61766 0.0
C190 C 0.18597 0.77084 0.65144 0.0
C191 C 0.17178 0.74201 0.66667 0.0
C192 C 0.15939 0.74907 0.6004 0.0
H193 H 0.14103 0.69498 0.65971 0.0
C194 C 0.10392 0.63117 0.61992 0.0
O195 O 0.15191 0.60126 0.55089 0.0
O196 O 0.17953 0.63421 0.58944 0.0
N197 N 0.13361 0.72485 0.55208 0.0
C198 C 0.1265 0.72427 0.51887 0.0
C199 C 0.1395 0.75112 0.49971 0.0
C200 C 0.1597 0.77824 0.51485 0.0
C201 C 0.16671 0.77829 0.54906 0.0
C202 C 0.15289 0.75089 0.56693 0.0
H203 H 0.11114 0.70348 0.50704 0.0
O204 O 0.17959 0.66951 0.53238 0.0
O205 O 0.15462 0.68109 0.57269 0.0
O206 O 0.11422 0.63605 0.5281 0.0
O207 O 0.09059 0.66322 0.55173 0.0
C208 C 0.18722 0.80432 0.56597 0.0
C209 C 0.19376 0.80249 0.60026 0.0
H210 H 0.20167 0.78988 0.66585 0.0
H211 H 0.17644 0.73891 0.6927 0.0
H212 H 0.13405 0.75088 0.4733 0.0
H213 H 0.16983 0.79886 0.49993 0.0
H214 H 0.19828 0.82582 0.55278 0.0
H215 H 0.20977 0.82259 0.61292 0.0
Mn216 Mn 0.85672 0.43437 0.40362 0.0
Mn217 Mn 0.85575 0.49523 0.36086 0.0
C218 C 0.81825 0.45179 0.41268 0.0
C219 C 0.84155 0.38129 0.40732 0.0
C220 C 0.89977 0.50066 0.41807 0.0
O221 O 0.88484 0.43753 0.36401 0.0
O222 O 0.88019 0.47659 0.33561 0.0
C223 C 0.82086 0.4638 0.30066 0.0
N224 N 0.8238 0.48193 0.32805 0.0
C225 C 0.77677 0.48726 0.31501 0.0
C226 C 0.77335 0.46882 0.28657 0.0
C227 C 0.7955 0.45704 0.27938 0.0
C228 C 0.80274 0.49358 0.33506 0.0
H229 H 0.83769 0.45451 0.29512 0.0
C230 C 0.89022 0.45529 0.33854 0.0
O231 O 0.86468 0.39973 0.42457 0.0
O232 O 0.82795 0.39367 0.38777 0.0
N233 N 0.83194 0.51425 0.38272 0.0
C234 C 0.83744 0.52975 0.41241 0.0
C235 C 0.81677 0.54201 0.42394 0.0
C236 C 0.79067 0.53816 0.4049 0.0
C237 C 0.78546 0.52208 0.37445 0.0
C238 C 0.80703 0.51065 0.36405 0.0
H239 H 0.85726 0.53246 0.42734 0.0
O240 O 0.8247 0.43587 0.43559 0.0
O241 O 0.83501 0.45747 0.38586 0.0
O242 O 0.88981 0.47219 0.4253 0.0
O243 O 0.88885 0.51142 0.3944 0.0
C244 C 0.75937 0.51636 0.35443 0.0
C245 C 0.75505 0.499 0.3247 0.0
H246 H 0.75367 0.4633 0.27026 0.0
H247 H 0.79294 0.44265 0.25757 0.0
H248 H 0.82084 0.55421 0.44758 0.0
H249 H 0.77461 0.54736 0.41407 0.0
H250 H 0.74227 0.52485 0.36189 0.0
H251 H 0.73471 0.49443 0.30974 0.0
Mn252 Mn 0.35557 0.86263 0.93216 0.0
Mn253 Mn 0.3029 0.88657 0.90321 0.0
C254 C 0.30425 0.83331 0.94241 0.0
C255 C 0.38773 0.83688 0.92494 0.0
C256 C 0.34883 0.91875 0.95793 0.0
O257 O 0.37713 0.89318 0.89482 0.0
O258 O 0.33694 0.8991 0.87023 0.0
C259 C 0.28045 0.85105 0.84076 0.0
N260 N 0.27505 0.8582 0.87259 0.0
C261 C 0.22234 0.82302 0.86958 0.0
C262 C 0.22737 0.81519 0.83683 0.0
C263 C 0.25654 0.82932 0.82234 0.0
C264 C 0.24696 0.8451 0.88658 0.0
H265 H 0.30289 0.8617 0.82961 0.0
C266 C 0.36505 0.90232 0.87061 0.0
O267 O 0.39409 0.85925 0.94613 0.0
O268 O 0.36279 0.82969 0.90747 0.0
N269 N 0.26913 0.87415 0.93388 0.0
C270 C 0.26845 0.88308 0.96629 0.0
C271 C 0.24113 0.87044 0.9847 0.0
C272 C 0.21482 0.84871 0.96966 0.0
C273 C 0.21606 0.83984 0.9363 0.0
C274 C 0.24387 0.8534 0.91911 0.0
H275 H 0.2886 0.89963 0.97807 0.0
O276 O 0.32514 0.83094 0.96187 0.0
O277 O 0.31449 0.85361 0.91877 0.0
O278 O 0.35691 0.89678 0.9634 0.0
O279 O 0.33031 0.91825 0.93453 0.0
C280 C 0.19093 0.8177 0.91962 0.0
C281 C 0.19406 0.80933 0.88628 0.0
H282 H 0.20907 0.79821 0.82267 0.0
H283 H 0.26061 0.82336 0.7971 0.0
H284 H 0.24038 0.87734 0.01048 0.0
H285 H 0.19385 0.83884 0.98404 0.0
H286 H 0.16915 0.80679 0.93231 0.0
H287 H 0.17465 0.79209 0.87382 0.0
Mn288 Mn 0.54369 0.37424 0.41611 0.0
Mn289 Mn 0.47686 0.32641 0.38314 0.0
C290 C 0.52786 0.32215 0.42353 0.0
C291 C 0.59605 0.40184 0.41047 0.0
C292 C 0.48181 0.3671 0.44356 0.0
O293 O 0.53415 0.40024 0.38131 0.0
O294 O 0.49233 0.36507 0.35647 0.0
C295 C 0.49698 0.31374 0.31651 0.0
N296 N 0.48371 0.30349 0.34689 0.0
C297 C 0.47547 0.25159 0.33294 0.0
C298 C 0.48892 0.26158 0.30144 0.0
C299 C 0.49971 0.29278 0.2932 0.0
C300 C 0.47298 0.27347 0.35496 0.0
H301 H 0.50554 0.33773 0.31016 0.0
C302 C 0.51356 0.39208 0.35854 0.0
O303 O 0.58033 0.40967 0.4325 0.0
O304 O 0.58127 0.37846 0.39156 0.0
N305 N 0.46083 0.28832 0.40683 0.0
C306 C 0.45052 0.28279 0.43907 0.0
C307 C 0.44004 0.25285 0.45177 0.0
C308 C 0.44033 0.22896 0.43123 0.0
C309 C 0.45111 0.23522 0.39814 0.0
C310 C 0.46101 0.26545 0.38676 0.0
H311 H 0.45051 0.30112 0.45506 0.0
O312 O 0.54722 0.34111 0.44425 0.0
O313 O 0.51796 0.33456 0.39975 0.0
O314 O 0.51074 0.37711 0.44654 0.0
O315 O 0.46693 0.34856 0.42045 0.0
C316 C 0.45301 0.21276 0.37624 0.0
C317 C 0.46514 0.22093 0.34365 0.0
H318 H 0.49134 0.24553 0.28353 0.0
H319 H 0.51025 0.30068 0.26901 0.0
H320 H 0.4319 0.24822 0.47738 0.0
H321 H 0.43248 0.20594 0.44121 0.0
H322 H 0.44555 0.18919 0.38436 0.0
H323 H 0.46683 0.20353 0.3272 0.0
Mn324 Mn 0.1426 0.56693 0.90395 0.0
Mn325 Mn 0.14174 0.50564 0.86053 0.0
C326 C 0.18054 0.54855 0.91187 0.0
C327 C 0.15894 0.62016 0.90803 0.0
C328 C 0.0988 0.50091 0.91866 0.0
O329 O 0.11412 0.56446 0.86486 0.0
O330 O 0.11735 0.52483 0.83622 0.0
C331 C 0.17596 0.53698 0.79993 0.0
N332 N 0.17316 0.51864 0.82707 0.0
C333 C 0.21961 0.51263 0.81275 0.0
C334 C 0.22288 0.53131 0.78455 0.0
C335 C 0.20096 0.54354 0.77813 0.0
C336 C 0.19402 0.50659 0.83337 0.0
H337 H 0.15929 0.54663 0.79498 0.0
C338 C 0.10791 0.54652 0.83948 0.0
O339 O 0.13581 0.60202 0.92552 0.0
O340 O 0.17182 0.60741 0.88798 0.0
N341 N 0.16545 0.48606 0.88147 0.0
C342 C 0.16017 0.47035 0.91101 0.0
C343 C 0.18066 0.45759 0.92178 0.0
C344 C 0.20636 0.46115 0.90213 0.0
C345 C 0.21134 0.47743 0.87183 0.0
C346 C 0.18996 0.48936 0.8622 0.0
H347 H 0.14064 0.46783 0.92638 0.0
O348 O 0.17481 0.56464 0.93515 0.0
O349 O 0.16336 0.54323 0.88544 0.0
O350 O 0.10927 0.52941 0.92588 0.0
O351 O 0.10917 0.48986 0.89473 0.0
C352 C 0.23703 0.48285 0.8512 0.0
C353 C 0.24114 0.50041 0.82166 0.0
H354 H 0.24229 0.53666 0.76785 0.0
H355 H 0.2034 0.5581 0.75651 0.0
H356 H 0.17675 0.44521 0.94529 0.0
H357 H 0.22228 0.45155 0.9107 0.0
H358 H 0.25398 0.47398 0.85807 0.0
H359 H 0.26119 0.50477 0.80625 0.0
Mn360 Mn 0.64603 0.14034 0.43216 0.0
Mn361 Mn 0.69696 0.11426 0.40305 0.0
C362 C 0.69763 0.16878 0.44165 0.0
C363 C 0.61486 0.16691 0.42341 0.0
C364 C 0.65122 0.08395 0.4587 0.0
O365 O 0.6234 0.10897 0.39604 0.0
O366 O 0.66276 0.10249 0.37023 0.0
C367 C 0.72001 0.14896 0.34022 0.0
N368 N 0.72524 0.14178 0.37208 0.0
C369 C 0.77841 0.17554 0.36859 0.0
C370 C 0.77356 0.18338 0.33579 0.0
C371 C 0.74424 0.16997 0.32153 0.0
C372 C 0.75346 0.15419 0.38587 0.0
H373 H 0.69745 0.1389 0.32926 0.0
C374 C 0.63474 0.09954 0.37142 0.0
O375 O 0.6081 0.14537 0.44575 0.0
O376 O 0.63969 0.17292 0.40608 0.0
N377 N 0.73085 0.12593 0.4335 0.0
C378 C 0.73141 0.11707 0.46594 0.0
C379 C 0.7589 0.12905 0.48413 0.0
C380 C 0.78549 0.15004 0.46883 0.0
C381 C 0.78438 0.15883 0.43541 0.0
C382 C 0.75639 0.14595 0.41845 0.0
H383 H 0.71107 0.10106 0.47794 0.0
O384 O 0.67717 0.17226 0.46092 0.0
O385 O 0.68675 0.14812 0.41845 0.0
O386 O 0.6443 0.10667 0.46435 0.0
O387 O 0.66896 0.08348 0.43482 0.0
C388 C 0.80984 0.18022 0.41845 0.0
C389 C 0.80687 0.18854 0.38505 0.0
H390 H 0.79213 0.19981 0.32141 0.0
H391 H 0.7403 0.17596 0.29625 0.0
H392 H 0.75955 0.1222 0.50994 0.0
H393 H 0.8066 0.15939 0.48302 0.0
H394 H 0.83176 0.19059 0.43095 0.0
H395 H 0.82654 0.2052 0.37237 0.0
Mn396 Mn 0.45303 0.62427 0.91957 0.0
Mn397 Mn 0.51893 0.67419 0.88674 0.0
C398 C 0.46746 0.67599 0.9282 0.0
C399 C 0.40112 0.5951 0.9135 0.0
C400 C 0.51552 0.63298 0.94624 0.0
O401 O 0.46378 0.59943 0.8843 0.0
O402 O 0.50432 0.63609 0.85919 0.0
C403 C 0.49727 0.68729 0.82122 0.0
N404 N 0.5108 0.69728 0.85154 0.0
C405 C 0.51696 0.74893 0.83934 0.0
C406 C 0.50327 0.73923 0.80791 0.0
C407 C 0.49339 0.70828 0.79882 0.0
C408 C 0.5206 0.72705 0.86044 0.0
H409 H 0.4894 0.66348 0.81424 0.0
C410 C 0.48402 0.6086 0.8612 0.0
O411 O 0.41719 0.58782 0.93556 0.0
O412 O 0.4152 0.61892 0.89493 0.0
N413 N 0.53423 0.71185 0.91132 0.0
C414 C 0.54511 0.71708 0.94336 0.0
C415 C 0.55495 0.74671 0.9568 0.0
C416 C 0.55344 0.77063 0.9372 0.0
C417 C 0.54215 0.76469 0.90428 0.0
C418 C 0.53297 0.73477 0.89212 0.0
H419 H 0.54607 0.69873 0.95863 0.0
O420 O 0.4481 0.65636 0.94836 0.0
O421 O 0.47775 0.66448 0.90393 0.0
O422 O 0.48659 0.62243 0.94971 0.0
O423 O 0.52987 0.65184 0.92312 0.0
C424 C 0.53903 0.78716 0.88334 0.0
C425 C 0.52649 0.77929 0.85088 0.0
H426 H 0.49996 0.75529 0.7907 0.0
H427 H 0.48266 0.7006 0.77467 0.0
H428 H 0.56349 0.75109 0.98227 0.0
H429 H 0.56075 0.79339 0.94778 0.0
H430 H 0.54587 0.81048 0.8921 0.0
H431 H 0.52389 0.79669 0.83516 0.0
H432 H 0.57409 0.08851 0.3631 0.0
H433 H 0.50554 0.0788 0.21014 0.0
H434 H 0.65202 0.08577 0.30978 0.0
H435 H 0.59731 0.10913 0.17088 0.0
H436 H 0.52277 0.06391 0.26214 0.0
H437 H 0.54648 0.08069 0.31053 0.0
C438 C 0.58517 0.08547 0.34042 0.0
C439 C 0.61565 0.08829 0.34095 0.0
C440 C 0.53928 0.07393 0.24236 0.0
C441 C 0.5838 0.0788 0.28002 0.0
C442 C 0.52932 0.08207 0.21239 0.0
C443 C 0.55017 0.09587 0.18641 0.0
C444 C 0.57051 0.08033 0.2467 0.0
C445 C 0.58051 0.09887 0.19039 0.0
C446 C 0.5692 0.08072 0.31017 0.0
C447 C 0.62867 0.08406 0.31065 0.0
N448 N 0.58989 0.09171 0.22025 0.0
N449 N 0.61288 0.08013 0.28138 0.0
H450 H 0.38666 0.48393 0.71247 0.0
H451 H 0.51816 0.6198 0.80332 0.0
H452 H 0.46038 0.55567 0.66115 0.0
H453 H 0.4436 0.54888 0.85453 0.0
H454 H 0.50547 0.58876 0.75248 0.0
H455 H 0.41511 0.49907 0.76487 0.0
C456 C 0.40911 0.50242 0.712 0.0
C457 C 0.42067 0.51917 0.68249 0.0
C458 C 0.49225 0.57972 0.77503 0.0
C459 C 0.45319 0.53685 0.74256 0.0
C460 C 0.49951 0.59745 0.80415 0.0
C461 C 0.48134 0.58738 0.83303 0.0
C462 C 0.4665 0.55188 0.77471 0.0
C463 C 0.4578 0.55797 0.83265 0.0
C464 C 0.42535 0.51111 0.74202 0.0
C465 C 0.45014 0.54258 0.68342 0.0
N466 N 0.45067 0.54154 0.80374 0.0
N467 N 0.46508 0.55115 0.71312 0.0
H468 H 0.90733 0.42908 0.13142 0.0
H469 H 0.90626 0.40634 0.32833 0.0
H470 H 0.91147 0.3492 0.17896 0.0
H471 H 0.90732 0.48807 0.28006 0.0
H472 H 0.91892 0.38955 0.27459 0.0
H473 H 0.91791 0.45518 0.1855 0.0
C474 C 0.91096 0.41715 0.15308 0.0
C475 C 0.90779 0.3866 0.15067 0.0
C476 C 0.91695 0.41144 0.2759 0.0
C477 C 0.91957 0.41633 0.21293 0.0
C478 C 0.90982 0.42112 0.30667 0.0
C479 C 0.90499 0.44836 0.30867 0.0
C480 C 0.91909 0.42901 0.2469 0.0
C481 C 0.9102 0.46661 0.2797 0.0
C482 C 0.91701 0.43211 0.18404 0.0
C483 C 0.91321 0.37258 0.17962 0.0
N484 N 0.9164 0.45634 0.24994 0.0
N485 N 0.91825 0.38734 0.20964 0.0
H486 H 0.34904 0.9253 0.81382 0.0
H487 H 0.40489 0.90031 0.66204 0.0
H488 H 0.42226 0.9045 0.85588 0.0
H489 H 0.48744 0.91135 0.71567 0.0
H490 H 0.38483 0.91382 0.71286 0.0
H491 H 0.37429 0.93356 0.75941 0.0
C492 C 0.37058 0.9227 0.81172 0.0
C493 C 0.38311 0.91341 0.83943 0.0
C494 C 0.40772 0.91433 0.71346 0.0
C495 C 0.4117 0.92176 0.7766 0.0
C496 C 0.4192 0.90646 0.68424 0.0
C497 C 0.44771 0.90416 0.68463 0.0
C498 C 0.42494 0.92 0.74332 0.0
C499 C 0.46512 0.91232 0.71425 0.0
C500 C 0.38486 0.92708 0.78039 0.0
C501 C 0.41141 0.91112 0.83521 0.0
N502 N 0.45324 0.91932 0.74248 0.0
N503 N 0.42448 0.91481 0.80431 0.0
H504 H 0.47963 0.38245 0.30065 0.0
H505 H 0.61411 0.51687 0.21129 0.0
H506 H 0.55534 0.45132 0.35259 0.0
H507 H 0.53986 0.44642 0.15917 0.0
H508 H 0.58522 0.50186 0.26347 0.0
H509 H 0.49343 0.41387 0.25011 0.0
C510 C 0.49876 0.40445 0.30171 0.0
C511 C 0.51691 0.41378 0.33069 0.0
C512 C 0.57498 0.49008 0.24049 0.0
C513 C 0.53301 0.44971 0.27272 0.0
C514 C 0.59147 0.4987 0.21059 0.0
C515 C 0.57984 0.48226 0.18092 0.0
C516 C 0.54682 0.46473 0.24073 0.0
C517 C 0.55014 0.45926 0.18158 0.0
C518 C 0.50666 0.42239 0.27276 0.0
C519 C 0.54112 0.44278 0.33062 0.0
N520 N 0.53493 0.45075 0.21114 0.0
N521 N 0.54884 0.45941 0.30187 0.0
H522 H 0.09052 0.5705 0.63265 0.0
H523 H 0.09449 0.59702 0.82868 0.0
H524 H 0.08806 0.65184 0.6784 0.0
H525 H 0.0877 0.51249 0.78228 0.0
H526 H 0.08184 0.61358 0.77481 0.0
H527 H 0.07939 0.54524 0.6872 0.0
C528 C 0.08715 0.58293 0.65402 0.0
C529 C 0.09096 0.61362 0.65097 0.0
C530 C 0.08252 0.59114 0.77658 0.0
C531 C 0.07859 0.58489 0.71376 0.0
C532 C 0.08964 0.5816 0.80743 0.0
C533 C 0.09292 0.5536 0.80992 0.0
C534 C 0.07887 0.57266 0.748 0.0
C535 C 0.0861 0.53455 0.78148 0.0
C536 C 0.08077 0.56846 0.68524 0.0
C537 C 0.08584 0.62833 0.67955 0.0
N538 N 0.07999 0.54468 0.75162 0.0
N539 N 0.08053 0.61403 0.70985 0.0
H540 H 0.4428 0.05425 0.10899 0.0
H541 H 0.37052 0.97762 0.93506 0.0
H542 H 0.48889 0.08864 0.01512 0.0
H543 H 0.36425 0.92408 0.02427 0.0
H544 H 0.40474 0.02352 0.96528 0.0
H545 H 0.405 0.01087 0.07901 0.0
C546 C 0.44489 0.05273 0.08202 0.0
C547 C 0.46911 0.07499 0.0645 0.0
C548 C 0.3955 0.00174 0.97825 0.0
C549 C 0.42555 0.02576 0.0301 0.0
C550 C 0.37573 0.9757 0.96124 0.0
C551 C 0.3645 0.94712 0.97732 0.0
C552 C 0.40341 0.99919 0.01172 0.0
C553 C 0.37241 0.94572 0.01103 0.0
C554 C 0.42335 0.02797 0.06501 0.0
C555 C 0.47073 0.07181 0.02958 0.0
N556 N 0.3913 0.97141 0.02718 0.0
N557 N 0.44906 0.04771 0.01341 0.0
H558 H 0.35209 0.41938 0.55573 0.0
H559 H 0.50648 0.41684 0.48446 0.0
H560 H 0.43296 0.50077 0.5358 0.0
H561 H 0.41958 0.34828 0.45276 0.0
H562 H 0.47956 0.44311 0.5146 0.0
H563 H 0.37611 0.38887 0.52672 0.0
C564 C 0.37473 0.43084 0.54508 0.0
C565 C 0.39056 0.46267 0.54818 0.0
C566 C 0.46639 0.42221 0.50119 0.0
C567 C 0.41814 0.42799 0.516 0.0
C568 C 0.48171 0.40699 0.48418 0.0
C569 C 0.46529 0.38038 0.46573 0.0
C570 C 0.43438 0.41065 0.50022 0.0
C571 C 0.43315 0.36886 0.46642 0.0
C572 C 0.38833 0.41344 0.52861 0.0
C573 C 0.41981 0.47635 0.5339 0.0
N574 N 0.41865 0.38412 0.48338 0.0
N575 N 0.43276 0.45889 0.5188 0.0
H576 H 0.05555 0.5136 0.95343 0.0
H577 H 0.96074 0.34498 0.02096 0.0
H578 H 0.08132 0.43906 0.92682 0.0
H579 H 0.91986 0.40927 0.99828 0.0
H580 H 0.00853 0.38016 0.99459 0.0
H581 H 0.00928 0.47685 0.98015 0.0
C582 C 0.05169 0.48958 0.95357 0.0
C583 C 0.07227 0.4794 0.93773 0.0
C584 C 0.9889 0.38627 0.99528 0.0
C585 C 0.01944 0.43728 0.96829 0.0
C586 C 0.96166 0.36623 0.01019 0.0
C587 C 0.93614 0.37405 0.01178 0.0
C588 C 0.99076 0.41455 0.98268 0.0
C589 C 0.93875 0.40203 0.99753 0.0
C590 C 0.02518 0.46861 0.96857 0.0
C591 C 0.06595 0.4479 0.93854 0.0
N592 N 0.96559 0.42134 0.98399 0.0
N593 N 0.04013 0.42793 0.95364 0.0
H594 H 0.63635 0.07955 0.52522 0.0
H595 H 0.50901 0.91234 0.51336 0.0
H596 H 0.62789 0.02492 0.4364 0.0
H597 H 0.55642 0.94737 0.60639 0.0
H598 H 0.54729 0.95616 0.48367 0.0
H599 H 0.60252 0.03358 0.55521 0.0
C600 C 0.62772 0.05776 0.51223 0.0
C601 C 0.63507 0.0559 0.47843 0.0
C602 C 0.54926 0.95406 0.51057 0.0
C603 C 0.59562 0.00365 0.51208 0.0
C604 C 0.52735 0.92928 0.52751 0.0
C605 C 0.52956 0.92626 0.56236 0.0
C606 C 0.57298 0.97626 0.52879 0.0
C607 C 0.55393 0.94875 0.57948 0.0
C608 C 0.60841 0.03163 0.52928 0.0
C609 C 0.62307 0.02719 0.4626 0.0
N610 N 0.57449 0.97296 0.5626 0.0
N611 N 0.60348 0.00221 0.47941 0.0
H612 H 0.49207 0.58304 0.98701 0.0
H613 H 0.6478 0.58173 0.05474 0.0
H614 H 0.57799 0.65246 0.95401 0.0
H615 H 0.56763 0.49989 0.03398 0.0
H616 H 0.62313 0.61208 0.02662 0.0
H617 H 0.51993 0.55702 0.01578 0.0
C618 C 0.51683 0.59313 0.98616 0.0
C619 C 0.53269 0.61991 0.96774 0.0
C620 C 0.61123 0.58745 0.0281 0.0
C621 C 0.56467 0.58992 0.00066 0.0
C622 C 0.6252 0.57015 0.04406 0.0
C623 C 0.60973 0.53823 0.04673 0.0
C624 C 0.58141 0.57272 0.0156 0.0
C625 C 0.58051 0.52438 0.03242 0.0
C626 C 0.53268 0.57805 0.00238 0.0
C627 C 0.56484 0.63175 0.96768 0.0
N628 N 0.56718 0.54174 0.01787 0.0
N629 N 0.57987 0.61661 0.98389 0.0
H630 H 0.91581 0.5622 0.42728 0.0
H631 H 0.0813 0.59146 0.4947 0.0
H632 H 0.94462 0.48907 0.45081 0.0
H633 H 0.03794 0.65264 0.52226 0.0
H634 H 0.03386 0.55735 0.46883 0.0
H635 H 0.9623 0.59864 0.45421 0.0
C636 C 0.93179 0.55376 0.43829 0.0
C637 C 0.92632 0.52249 0.4368 0.0
C638 C 0.03476 0.5783 0.48042 0.0
C639 C 0.97969 0.56416 0.46683 0.0
C640 C 0.06196 0.59805 0.49497 0.0
C641 C 0.06374 0.6251 0.5109 0.0
C642 C 0.00904 0.58565 0.48115 0.0
C643 C 0.03765 0.63206 0.51037 0.0
C644 C 0.95823 0.57458 0.45365 0.0
C645 C 0.94779 0.51289 0.45152 0.0
N646 N 0.01131 0.61245 0.49566 0.0
N647 N 0.97371 0.5337 0.46553 0.0
H648 H 0.51482 0.21229 0.04315 0.0
H649 H 0.58209 0.36777 0.14857 0.0
H650 H 0.55959 0.22384 0.13923 0.0
H651 H 0.54864 0.36394 0.04731 0.0
H652 H 0.56313 0.31221 0.14933 0.0
H653 H 0.51785 0.26518 0.04708 0.0
C654 C 0.52471 0.22582 0.06529 0.0
C655 C 0.53616 0.21364 0.09139 0.0
C656 C 0.55961 0.32337 0.12697 0.0
C657 C 0.5402 0.27369 0.09586 0.0
C658 C 0.57039 0.35511 0.12658 0.0
C659 C 0.56731 0.37038 0.09766 0.0
C660 C 0.5462 0.30668 0.09794 0.0
C661 C 0.55157 0.35291 0.07004 0.0
C662 C 0.52643 0.25585 0.06756 0.0
C663 C 0.54953 0.2321 0.11914 0.0
N664 N 0.54205 0.32188 0.07059 0.0
N665 N 0.55116 0.26112 0.12065 0.0
H666 H 0.29483 0.51917 0.52979 0.0
H667 H 0.16803 0.55691 0.53931 0.0
H668 H 0.311 0.54863 0.63287 0.0
H669 H 0.22039 0.61815 0.61742 0.0
H670 H 0.20192 0.52964 0.54276 0.0
H671 H 0.24942 0.53139 0.52943 0.0
C672 C 0.28813 0.52729 0.55261 0.0
C673 C 0.30599 0.5322 0.58162 0.0
C674 C 0.20612 0.54912 0.559 0.0
C675 C 0.25467 0.54669 0.58152 0.0
C676 C 0.18661 0.56456 0.55729 0.0
C677 C 0.19175 0.5902 0.57772 0.0
C678 C 0.231 0.5595 0.58124 0.0
C679 C 0.21585 0.59878 0.60089 0.0
C680 C 0.26216 0.53413 0.55254 0.0
C681 C 0.29718 0.54371 0.61032 0.0
N682 N 0.2347 0.58355 0.60188 0.0
N683 N 0.27233 0.55092 0.60944 0.0
H684 H 0.79806 0.28283 0.10952 0.0
H685 H 0.64336 0.16197 0.02957 0.0
H686 H 0.78705 0.26745 0.00286 0.0
H687 H 0.65438 0.19522 0.13151 0.0
H688 H 0.69858 0.19112 0.02027 0.0
H689 H 0.74917 0.24068 0.11883 0.0
C690 C 0.78586 0.26973 0.08805 0.0
C691 C 0.79719 0.27799 0.05545 0.0
C692 C 0.6889 0.1916 0.04477 0.0
C693 C 0.7396 0.23079 0.06573 0.0
C694 C 0.65748 0.17488 0.05014 0.0
C695 C 0.64428 0.17644 0.08128 0.0
C696 C 0.70711 0.20957 0.0709 0.0
C697 C 0.66352 0.19363 0.10701 0.0
C698 C 0.75753 0.24596 0.09333 0.0
C699 C 0.77933 0.26139 0.02844 0.0
N700 N 0.6938 0.20955 0.1012 0.0
N701 N 0.75122 0.23869 0.03414 0.0
H702 H 0.48548 0.78837 0.54229 0.0
H703 H 0.41822 0.63379 0.64922 0.0
H704 H 0.44031 0.77747 0.63809 0.0
H705 H 0.45191 0.63682 0.54815 0.0
H706 H 0.43714 0.68935 0.64942 0.0
H707 H 0.48265 0.73558 0.54693 0.0
C708 C 0.47555 0.77501 0.56452 0.0
C709 C 0.46392 0.78734 0.59033 0.0
C710 C 0.44071 0.67802 0.62722 0.0
C711 C 0.4601 0.72741 0.5956 0.0
C712 C 0.42997 0.64627 0.62716 0.0
C713 C 0.43312 0.63077 0.59845 0.0
C714 C 0.45418 0.69447 0.59807 0.0
C715 C 0.44891 0.64802 0.57072 0.0
C716 C 0.47394 0.74504 0.56719 0.0
C717 C 0.4505 0.76909 0.61821 0.0
N718 N 0.4584 0.67905 0.57095 0.0
N719 N 0.44898 0.74013 0.62011 0.0
H720 H 0.70666 0.48058 0.0295 0.0
H721 H 0.78537 0.38466 0.12397 0.0
H722 H 0.688 0.45206 0.13269 0.0
H723 H 0.82249 0.43452 0.03274 0.0
H724 H 0.75135 0.41173 0.12881 0.0
H725 H 0.75143 0.46702 0.03085 0.0
C726 C 0.71254 0.4722 0.05262 0.0
C727 C 0.69422 0.46796 0.0812 0.0
C728 C 0.76719 0.41705 0.10793 0.0
C729 C 0.74425 0.45143 0.08274 0.0
C730 C 0.78652 0.4015 0.10512 0.0
C731 C 0.80651 0.40715 0.07775 0.0
C732 C 0.76748 0.43798 0.08287 0.0
C733 C 0.80727 0.42938 0.05417 0.0
C734 C 0.73796 0.46444 0.05344 0.0
C735 C 0.70212 0.45636 0.11039 0.0
N736 N 0.78769 0.44369 0.05699 0.0
N737 N 0.72638 0.44821 0.11034 0.0
H738 H 0.20188 0.71578 0.60884 0.0
H739 H 0.35583 0.83699 0.52774 0.0
H740 H 0.21262 0.73007 0.502 0.0
H741 H 0.34524 0.80492 0.63012 0.0
H742 H 0.30072 0.80714 0.51861 0.0
H743 H 0.25063 0.75825 0.6177 0.0
C744 C 0.21403 0.72867 0.58722 0.0
C745 C 0.20264 0.72005 0.55471 0.0
C746 C 0.31047 0.80707 0.54316 0.0
C747 C 0.26004 0.76765 0.56449 0.0
C748 C 0.34182 0.8242 0.54843 0.0
C749 C 0.35512 0.82316 0.57965 0.0
C750 C 0.29242 0.78924 0.56948 0.0
C751 C 0.33602 0.80611 0.60555 0.0
C752 C 0.24225 0.75264 0.59225 0.0
C753 C 0.22039 0.73642 0.52752 0.0
N754 N 0.3058 0.78979 0.59984 0.0
N755 N 0.2484 0.75935 0.53297 0.0
H756 H 0.78824 0.47076 0.461 0.0
H757 H 0.63175 0.4014 0.35755 0.0
H758 H 0.77772 0.43025 0.36257 0.0
H759 H 0.63657 0.43676 0.45813 0.0
H760 H 0.68724 0.42006 0.35634 0.0
H761 H 0.73455 0.46539 0.4587 0.0
C762 C 0.77471 0.46122 0.43878 0.0
C763 C 0.7874 0.45171 0.41153 0.0
C764 C 0.67632 0.42401 0.37867 0.0
C765 C 0.72646 0.44498 0.40887 0.0
C766 C 0.64459 0.41338 0.37932 0.0
C767 C 0.62961 0.41719 0.40814 0.0
C768 C 0.69328 0.43811 0.40731 0.0
C769 C 0.64735 0.43325 0.43547 0.0
C770 C 0.74422 0.45818 0.43741 0.0
C771 C 0.76897 0.43877 0.38362 0.0
N772 N 0.67834 0.44273 0.43462 0.0
N773 N 0.73951 0.43581 0.383 0.0
H774 H 0.26208 0.79981 0.98993 0.0
H775 H 0.18828 0.66208 0.86044 0.0
H776 H 0.28315 0.80334 0.88442 0.0
H777 H 0.16 0.6547 0.96406 0.0
H778 H 0.2174 0.71666 0.86814 0.0
H779 H 0.21977 0.74952 0.98103 0.0
C780 C 0.25724 0.79038 0.96481 0.0
C781 C 0.27551 0.8061 0.93768 0.0
C782 C 0.20463 0.70336 0.88925 0.0
C783 C 0.228 0.74863 0.92741 0.0
C784 C 0.18791 0.67212 0.88479 0.0
C785 C 0.17191 0.65384 0.9117 0.0
C786 C 0.20608 0.71654 0.92115 0.0
C787 C 0.17205 0.66808 0.94266 0.0
C788 C 0.2332 0.76173 0.95973 0.0
C789 C 0.26893 0.79258 0.9058 0.0
N790 N 0.18938 0.69857 0.94675 0.0
N791 N 0.24591 0.76474 0.90161 0.0
H792 H 0.61952 0.20818 0.37404 0.0
H793 H 0.5378 0.29759 0.36583 0.0
H794 H 0.56705 0.16622 0.46228 0.0
H795 H 0.52364 0.27994 0.47194 0.0
H796 H 0.55107 0.25346 0.36018 0.0
H797 H 0.59112 0.24063 0.36931 0.0
C798 C 0.60161 0.20546 0.39212 0.0
C799 C 0.59574 0.18459 0.41866 0.0
C800 C 0.54502 0.25903 0.38476 0.0
C801 C 0.56236 0.22129 0.41305 0.0
C802 C 0.53652 0.28373 0.38781 0.0
C803 C 0.52886 0.29188 0.41926 0.0
C804 C 0.54732 0.24323 0.4137 0.0
C805 C 0.52911 0.27409 0.44719 0.0
C806 C 0.58502 0.22377 0.38917 0.0
C807 C 0.57231 0.18207 0.44142 0.0
N808 N 0.53854 0.25071 0.44384 0.0
N809 N 0.55676 0.20055 0.43839 0.0
H810 H 0.22018 0.57088 0.86127 0.0
H811 H 0.36735 0.58244 0.85654 0.0
H812 H 0.21127 0.52853 0.95847 0.0
H813 H 0.35953 0.57056 0.96392 0.0
H814 H 0.31189 0.56289 0.85236 0.0
H815 H 0.2724 0.57531 0.85783 0.0
C816 C 0.22915 0.56163 0.88151 0.0
C817 C 0.21124 0.54837 0.90964 0.0
C818 C 0.32207 0.56496 0.87699 0.0
C819 C 0.27156 0.55326 0.90614 0.0
C820 C 0.35377 0.57567 0.87926 0.0
C821 C 0.36783 0.57857 0.91064 0.0
C822 C 0.3044 0.55843 0.90654 0.0
C823 C 0.34937 0.56884 0.93927 0.0
C824 C 0.25909 0.56396 0.87951 0.0
C825 C 0.22433 0.53826 0.93603 0.0
N826 N 0.31851 0.55975 0.93664 0.0
N827 N 0.25386 0.54096 0.93368 0.0
H828 H 0.74 0.20196 0.48895 0.0
H829 H 0.81311 0.33931 0.35946 0.0
H830 H 0.71958 0.19766 0.38326 0.0
H831 H 0.84139 0.34685 0.46306 0.0
H832 H 0.78493 0.28452 0.3669 0.0
H833 H 0.78255 0.252 0.47987 0.0
C834 C 0.74511 0.21112 0.46373 0.0
C835 C 0.72688 0.19529 0.43663 0.0
C836 C 0.79753 0.29791 0.38805 0.0
C837 C 0.77463 0.25253 0.42614 0.0
C838 C 0.81369 0.32926 0.38373 0.0
C839 C 0.82937 0.34762 0.41074 0.0
C840 C 0.79629 0.28472 0.4199 0.0
C841 C 0.82956 0.3334 0.4416 0.0
C842 C 0.76927 0.23964 0.45855 0.0
C843 C 0.73378 0.20847 0.40462 0.0
N844 N 0.81273 0.3028 0.44556 0.0
N845 N 0.75689 0.23625 0.40033 0.0
H846 H 0.47804 0.71831 0.97797 0.0
H847 H 0.438 0.84339 0.96261 0.0
H848 H 0.45298 0.70121 0.87373 0.0
H849 H 0.38178 0.79033 0.88147 0.0
H850 H 0.46656 0.81054 0.96192 0.0
H851 H 0.46584 0.76369 0.97597 0.0
C852 C 0.47098 0.72485 0.9544 0.0
C853 C 0.46718 0.70664 0.92579 0.0
C854 C 0.4479 0.80596 0.9444 0.0
C855 C 0.45265 0.75794 0.92319 0.0
C856 C 0.43173 0.82488 0.94456 0.0
C857 C 0.40711 0.81921 0.92245 0.0
C858 C 0.43927 0.78118 0.922 0.0
C859 C 0.4003 0.79524 0.89928 0.0
C860 C 0.46413 0.7508 0.95313 0.0
C861 C 0.45702 0.71527 0.89605 0.0
N862 N 0.41618 0.77699 0.89981 0.0
N863 N 0.44972 0.74009 0.89563 0.0
loop_
_geom_bond_atom_site_label_1
_geom_bond_atom_site_label_2
_geom_bond_distance
_geom_bond_site_symmetry_2
_ccdc_geom_bond_type
Mn0 O5 2.095 . S
Mn0 O15 2.162 . S
Mn0 O16 2.297 . S
Mn0 O24 2.385 . S
Mn0 O25 2.209 . S
Mn0 O26 2.094 . S
Mn1 O6 2.121 . S
Mn1 N8 2.257 . S
Mn1 N17 2.282 . S
Mn1 O25 2.215 . S
Mn1 O27 2.117 . S
C2 O24 1.234 . S
C2 O25 1.283 . S
C3 O15 1.281 . S
C3 O16 1.236 . S
C4 O26 1.240 . S
C4 O27 1.264 . S
O5 Mn0 2.095 . S
O5 C14 1.250 . S
O6 Mn1 2.121 . S
O6 C14 1.258 . S
C7 N8 1.326 . S
C7 C11 1.460 . S
C7 H13 0.929 . S
N8 Mn1 2.257 . S
N8 C7 1.326 . S
N8 C12 1.362 . S
C9 C10 1.258 . S
C9 C12 1.431 . S
C9 C29 1.449 . S
C10 C9 1.258 . S
C10 C11 1.477 . S
C10 H30 0.931 . S
C11 C7 1.460 . S
C11 C10 1.477 . S
C11 H31 0.930 . S
C12 N8 1.362 . S
C12 C9 1.431 . S
C12 C22 1.476 . S
H13 C7 0.929 . S
C14 O5 1.250 . S
C14 O6 1.258 . S
O15 Mn0 2.162 . S
O15 C3 1.281 . S
O16 Mn0 2.297 . S
O16 C3 1.236 . S
N17 Mn1 2.282 . S
N17 C18 1.328 . S
N17 C22 1.318 . S
C18 N17 1.328 . S
C18 C19 1.467 . S
C18 H23 0.929 . S
C19 C18 1.467 . S
C19 C20 1.298 . S
C19 H32 0.913 1_554 S
C20 C19 1.298 . S
C20 C21 1.373 . S
C20 H33 0.928 1_554 S
C21 C20 1.373 . S
C21 C22 1.396 . S
C21 C28 1.403 . S
C22 C12 1.476 . S
C22 N17 1.318 . S
C22 C21 1.396 . S
H23 C18 0.929 . S
O24 Mn0 2.385 . S
O24 C2 1.234 . S
O25 Mn0 2.209 . S
O25 Mn1 2.215 . S
O25 C2 1.283 . S
O26 Mn0 2.094 . S
O26 C4 1.240 . S
O27 Mn1 2.117 . S
O27 C4 1.264 . S
C28 C21 1.403 . S
C28 C29 1.399 . S
C28 H34 0.929 . S
C29 C9 1.449 . S
C29 C28 1.399 . S
C29 H35 0.930 . S
H30 C10 0.931 . S
H31 C11 0.930 . S
H32 C19 0.913 1_556 S
H33 C20 0.928 1_556 S
H34 C28 0.929 . S
H35 C29 0.930 . S
Mn36 O41 2.095 . S
Mn36 O51 2.162 . S
Mn36 O52 2.297 . S
Mn36 O60 2.385 . S
Mn36 O61 2.209 . S
Mn36 O62 2.094 . S
Mn37 O42 2.121 . S
Mn37 N44 2.257 . S
Mn37 N53 2.282 . S
Mn37 O61 2.215 . S
Mn37 O63 2.117 . S
C38 O60 1.234 . S
C38 O61 1.283 . S
C39 O51 1.281 . S
C39 O52 1.236 . S
C40 O62 1.240 . S
C40 O63 1.264 . S
O41 Mn36 2.095 . S
O41 C50 1.250 . S
O42 Mn37 2.121 . S
O42 C50 1.258 . S
C43 N44 1.326 . S
C43 C47 1.460 . S
C43 H49 0.929 . S
N44 Mn37 2.257 . S
N44 C43 1.326 . S
N44 C48 1.362 . S
C45 C46 1.258 . S
C45 C48 1.431 . S
C45 C65 1.449 . S
C46 C45 1.258 . S
C46 C47 1.477 . S
C46 H66 0.931 . S
C47 C43 1.460 . S
C47 C46 1.477 . S
C47 H67 0.930 . S
C48 N44 1.362 . S
C48 C45 1.431 . S
C48 C58 1.476 . S
H49 C43 0.929 . S
C50 O41 1.250 . S
C50 O42 1.258 . S
O51 Mn36 2.162 . S
O51 C39 1.281 . S
O52 Mn36 2.297 . S
O52 C39 1.236 . S
N53 Mn37 2.282 . S
N53 C54 1.328 . S
N53 C58 1.318 . S
C54 N53 1.328 . S
C54 C55 1.457 . S
C54 H59 0.929 . S
C55 C54 1.457 . S
C55 C56 1.291 . S
C55 H68 0.931 . S
C56 C55 1.291 . S
C56 C57 1.373 . S
C56 H69 0.929 . S
C57 C56 1.373 . S
C57 C58 1.396 . S
C57 C64 1.403 . S
C58 C48 1.476 . S
C58 N53 1.318 . S
C58 C57 1.396 . S
H59 C54 0.929 . S
O60 Mn36 2.385 . S
O60 C38 1.234 . S
O61 Mn36 2.209 . S
O61 Mn37 2.215 . S
O61 C38 1.283 . S
O62 Mn36 2.094 . S
O62 C40 1.240 . S
O63 Mn37 2.117 . S
O63 C40 1.264 . S
C64 C57 1.403 . S
C64 C65 1.399 . S
C64 H70 0.929 . S
C65 C45 1.449 . S
C65 C64 1.399 . S
C65 H71 0.930 . S
H66 C46 0.931 . S
H67 C47 0.930 . S
H68 C55 0.931 . S
H69 C56 0.929 . S
H70 C64 0.929 . S
H71 C65 0.930 . S
Mn72 O77 2.095 . S
Mn72 O87 2.162 . S
Mn72 O88 2.297 . S
Mn72 O96 2.385 . S
Mn72 O97 2.209 . S
Mn72 O98 2.094 . S
Mn73 O78 2.121 . S
Mn73 N80 2.257 . S
Mn73 N89 2.282 . S
Mn73 O97 2.215 . S
Mn73 O99 2.117 . S
C74 O96 1.234 . S
C74 O97 1.283 . S
C75 O87 1.281 . S
C75 O88 1.236 . S
C76 O98 1.240 . S
C76 O99 1.264 . S
O77 Mn72 2.095 . S
O77 C86 1.250 . S
O78 Mn73 2.121 . S
O78 C86 1.258 . S
C79 N80 1.326 . S
C79 C83 1.460 . S
C79 H85 0.929 . S
N80 Mn73 2.257 . S
N80 C79 1.326 . S
N80 C84 1.362 . S
C81 C82 1.258 . S
C81 C84 1.431 . S
C81 C101 1.449 . S
C82 C81 1.258 . S
C82 C83 1.477 . S
C82 H102 0.931 . S
C83 C79 1.460 . S
C83 C82 1.477 . S
C83 H103 0.930 . S
C84 N80 1.362 . S
C84 C81 1.431 . S
C84 C94 1.476 . S
H85 C79 0.929 . S
C86 O77 1.250 . S
C86 O78 1.258 . S
O87 Mn72 2.162 . S
O87 C75 1.281 . S
O88 Mn72 2.297 . S
O88 C75 1.236 . S
N89 Mn73 2.282 . S
N89 C90 1.328 . S
N89 C94 1.318 . S
C90 N89 1.328 . S
C90 C91 1.457 1_554 S
C90 H95 0.929 1_554 S
C91 C90 1.457 1_556 S
C91 C92 1.291 . S
C91 H104 0.931 . S
C92 C91 1.291 . S
C92 C93 1.373 1_556 S
C92 H105 0.929 . S
C93 C92 1.373 1_554 S
C93 C94 1.396 . S
C93 C100 1.403 . S
C94 C84 1.476 . S
C94 N89 1.318 . S
C94 C93 1.396 . S
H95 C90 0.929 1_556 S
O96 Mn72 2.385 . S
O96 C74 1.234 . S
O97 Mn72 2.209 . S
O97 Mn73 2.215 . S
O97 C74 1.283 . S
O98 Mn72 2.094 . S
O98 C76 1.240 . S
O99 Mn73 2.117 . S
O99 C76 1.264 . S
C100 C93 1.403 . S
C100 C101 1.399 . S
C100 H106 0.929 . S
C101 C81 1.449 . S
C101 C100 1.399 . S
C101 H107 0.930 . S
H102 C82 0.931 . S
H103 C83 0.930 . S
H104 C91 0.931 . S
H105 C92 0.929 . S
H106 C100 0.929 . S
H107 C101 0.930 . S
Mn108 O113 2.095 . S
Mn108 O123 2.162 . S
Mn108 O124 2.297 . S
Mn108 O132 2.385 . S
Mn108 O133 2.209 . S
Mn108 O134 2.094 . S
Mn109 O114 2.121 . S
Mn109 N116 2.257 . S
Mn109 N125 2.282 . S
Mn109 O133 2.215 . S
Mn109 O135 2.117 . S
C110 O132 1.234 . S
C110 O133 1.283 . S
C111 O123 1.281 . S
C111 O124 1.236 . S
C112 O134 1.240 . S
C112 O135 1.264 . S
O113 Mn108 2.095 . S
O113 C122 1.250 . S
O114 Mn109 2.121 . S
O114 C122 1.258 . S
C115 N116 1.326 . S
C115 C119 1.460 . S
C115 H121 0.929 . S
N116 Mn109 2.257 . S
N116 C115 1.326 . S
N116 C120 1.362 . S
C117 C118 1.258 . S
C117 C120 1.431 . S
C117 C137 1.449 . S
C118 C117 1.258 . S
C118 C119 1.477 . S
C118 H138 0.931 . S
C119 C115 1.460 . S
C119 C118 1.477 . S
C119 H139 0.930 . S
C120 N116 1.362 . S
C120 C117 1.431 . S
C120 C130 1.476 . S
H121 C115 0.929 . S
C122 O113 1.250 . S
C122 O114 1.258 . S
O123 Mn108 2.162 . S
O123 C111 1.281 . S
O124 Mn108 2.297 . S
O124 C111 1.236 . S
N125 Mn109 2.282 . S
N125 C126 1.328 . S
N125 C130 1.318 . S
C126 N125 1.328 . S
C126 C127 1.457 . S
C126 H131 0.929 . S
C127 C126 1.457 . S
C127 C128 1.291 . S
C127 H140 0.931 . S
C128 C127 1.291 . S
C128 C129 1.373 . S
C128 H141 0.929 . S
C129 C128 1.373 . S
C129 C130 1.396 . S
C129 C136 1.403 . S
C130 C120 1.476 . S
C130 N125 1.318 . S
C130 C129 1.396 . S
H131 C126 0.929 . S
O132 Mn108 2.385 . S
O132 C110 1.234 . S
O133 Mn108 2.209 . S
O133 Mn109 2.215 . S
O133 C110 1.283 . S
O134 Mn108 2.094 . S
O134 C112 1.240 . S
O135 Mn109 2.117 . S
O135 C112 1.264 . S
C136 C129 1.403 . S
C136 C137 1.399 . S
C136 H142 0.929 . S
C137 C117 1.449 . S
C137 C136 1.399 . S
C137 H143 0.930 . S
H138 C118 0.931 . S
H139 C119 0.930 . S
H140 C127 0.931 . S
H141 C128 0.929 . S
H142 C136 0.929 . S
H143 C137 0.930 . S
Mn144 O149 2.095 . S
Mn144 O159 2.162 . S
Mn144 O160 2.297 . S
Mn144 O168 2.385 . S
Mn144 O169 2.209 . S
Mn144 O170 2.094 . S
Mn145 O150 2.121 . S
Mn145 N152 2.257 . S
Mn145 N161 2.282 . S
Mn145 O169 2.215 . S
Mn145 O171 2.117 . S
C146 O168 1.234 . S
C146 O169 1.283 . S
C147 O159 1.281 . S
C147 O160 1.236 . S
C148 O170 1.240 . S
C148 O171 1.264 . S
O149 Mn144 2.095 . S
O149 C158 1.250 . S
O150 Mn145 2.121 . S
O150 C158 1.258 . S
C151 N152 1.326 . S
C151 C155 1.460 . S
C151 H157 0.929 . S
N152 Mn145 2.257 . S
N152 C151 1.326 . S
N152 C156 1.362 . S
C153 C154 1.258 . S
C153 C156 1.431 . S
C153 C173 1.449 . S
C154 C153 1.258 . S
C154 C155 1.477 . S
C154 H174 0.931 . S
C155 C151 1.460 . S
C155 C154 1.477 . S
C155 H175 0.930 . S
C156 N152 1.362 . S
C156 C153 1.431 . S
C156 C166 1.476 . S
H157 C151 0.929 . S
C158 O149 1.250 . S
C158 O150 1.258 . S
O159 Mn144 2.162 . S
O159 C147 1.281 . S
O160 Mn144 2.297 . S
O160 C147 1.236 . S
N161 Mn145 2.282 . S
N161 C162 1.328 . S
N161 C166 1.318 . S
C162 N161 1.328 . S
C162 C163 1.457 1_554 S
C162 H167 0.929 . S
C163 C162 1.457 1_556 S
C163 C164 1.291 1_556 S
C163 H176 0.931 . S
C164 C163 1.291 1_554 S
C164 C165 1.373 . S
C164 H177 0.929 1_554 S
C165 C164 1.373 . S
C165 C166 1.396 . S
C165 C172 1.403 . S
C166 C156 1.476 . S
C166 N161 1.318 . S
C166 C165 1.396 . S
H167 C162 0.929 . S
O168 Mn144 2.385 . S
O168 C146 1.234 . S
O169 Mn144 2.209 . S
O169 Mn145 2.215 . S
O169 C146 1.283 . S
O170 Mn144 2.094 . S
O170 C148 1.240 . S
O171 Mn145 2.117 . S
O171 C148 1.264 . S
C172 C165 1.403 . S
C172 C173 1.399 . S
C172 H178 0.929 . S
C173 C153 1.449 . S
C173 C172 1.399 . S
C173 H179 0.930 . S
H174 C154 0.931 . S
H175 C155 0.930 . S
H176 C163 0.931 . S
H177 C164 0.929 1_556 S
H178 C172 0.929 . S
H179 C173 0.930 . S
Mn180 O185 2.095 . S
Mn180 O195 2.162 . S
Mn180 O196 2.297 . S
Mn180 O204 2.385 . S
Mn180 O205 2.209 . S
Mn180 O206 2.094 . S
Mn181 O186 2.121 . S
Mn181 N188 2.257 . S
Mn181 N197 2.282 . S
Mn181 O205 2.215 . S
Mn181 O207 2.117 . S
C182 O204 1.234 . S
C182 O205 1.283 . S
C183 O195 1.281 . S
C183 O196 1.236 . S
C184 O206 1.240 . S
C184 O207 1.264 . S
O185 Mn180 2.095 . S
O185 C194 1.250 . S
O186 Mn181 2.121 . S
O186 C194 1.258 . S
C187 N188 1.326 . S
C187 C191 1.460 . S
C187 H193 0.929 . S
N188 Mn181 2.257 . S
N188 C187 1.326 . S
N188 C192 1.362 . S
C189 C190 1.258 . S
C189 C192 1.431 . S
C189 C209 1.449 . S
C190 C189 1.258 . S
C190 C191 1.477 . S
C190 H210 0.931 . S
C191 C187 1.460 . S
C191 C190 1.477 . S
C191 H211 0.930 . S
C192 N188 1.362 . S
C192 C189 1.431 . S
C192 C202 1.476 . S
H193 C187 0.929 . S
C194 O185 1.250 . S
C194 O186 1.258 . S
O195 Mn180 2.162 . S
O195 C183 1.281 . S
O196 Mn180 2.297 . S
O196 C183 1.236 . S
N197 Mn181 2.282 . S
N197 C198 1.328 . S
N197 C202 1.318 . S
C198 N197 1.328 . S
C198 C199 1.457 . S
C198 H203 0.929 . S
C199 C198 1.457 . S
C199 C200 1.291 . S
C199 H212 0.931 . S
C200 C199 1.291 . S
C200 C201 1.373 . S
C200 H213 0.929 . S
C201 C200 1.373 . S
C201 C202 1.396 . S
C201 C208 1.403 . S
C202 C192 1.476 . S
C202 N197 1.318 . S
C202 C201 1.396 . S
H203 C198 0.929 . S
O204 Mn180 2.385 . S
O204 C182 1.234 . S
O205 Mn180 2.209 . S
O205 Mn181 2.215 . S
O205 C182 1.283 . S
O206 Mn180 2.094 . S
O206 C184 1.240 . S
O207 Mn181 2.117 . S
O207 C184 1.264 . S
C208 C201 1.403 . S
C208 C209 1.399 . S
C208 H214 0.929 . S
C209 C189 1.449 . S
C209 C208 1.399 . S
C209 H215 0.930 . S
H210 C190 0.931 . S
H211 C191 0.930 . S
H212 C199 0.931 . S
H213 C200 0.929 . S
H214 C208 0.929 . S
H215 C209 0.930 . S
Mn216 O221 2.095 . S
Mn216 O231 2.162 . S
Mn216 O232 2.297 . S
Mn216 O240 2.385 . S
Mn216 O241 2.209 . S
Mn216 O242 2.094 . S
Mn217 O222 2.121 . S
Mn217 N224 2.257 . S
Mn217 N233 2.282 . S
Mn217 O241 2.215 . S
Mn217 O243 2.117 . S
C218 O240 1.234 . S
C218 O241 1.283 . S
C219 O231 1.281 . S
C219 O232 1.236 . S
C220 O242 1.240 . S
C220 O243 1.264 . S
O221 Mn216 2.095 . S
O221 C230 1.250 . S
O222 Mn217 2.121 . S
O222 C230 1.258 . S
C223 N224 1.326 . S
C223 C227 1.460 . S
C223 H229 0.929 . S
N224 Mn217 2.257 . S
N224 C223 1.326 . S
N224 C228 1.362 . S
C225 C226 1.258 . S
C225 C228 1.431 . S
C225 C245 1.449 . S
C226 C225 1.258 . S
C226 C227 1.477 . S
C226 H246 0.931 . S
C227 C223 1.460 . S
C227 C226 1.477 . S
C227 H247 0.930 . S
C228 N224 1.362 . S
C228 C225 1.431 . S
C228 C238 1.476 . S
H229 C223 0.929 . S
C230 O221 1.250 . S
C230 O222 1.258 . S
O231 Mn216 2.162 . S
O231 C219 1.281 . S
O232 Mn216 2.297 . S
O232 C219 1.236 . S
N233 Mn217 2.282 . S
N233 C234 1.328 . S
N233 C238 1.318 . S
C234 N233 1.328 . S
C234 C235 1.457 . S
C234 H239 0.929 . S
C235 C234 1.457 . S
C235 C236 1.291 . S
C235 H248 0.931 . S
C236 C235 1.291 . S
C236 C237 1.373 . S
C236 H249 0.929 . S
C237 C236 1.373 . S
C237 C238 1.396 . S
C237 C244 1.403 . S
C238 C228 1.476 . S
C238 N233 1.318 . S
C238 C237 1.396 . S
H239 C234 0.929 . S
O240 Mn216 2.385 . S
O240 C218 1.234 . S
O241 Mn216 2.209 . S
O241 Mn217 2.215 . S
O241 C218 1.283 . S
O242 Mn216 2.094 . S
O242 C220 1.240 . S
O243 Mn217 2.117 . S
O243 C220 1.264 . S
C244 C237 1.403 . S
C244 C245 1.399 . S
C244 H250 0.929 . S
C245 C225 1.449 . S
C245 C244 1.399 . S
C245 H251 0.930 . S
H246 C226 0.931 . S
H247 C227 0.930 . S
H248 C235 0.931 . S
H249 C236 0.929 . S
H250 C244 0.929 . S
H251 C245 0.930 . S
Mn252 O257 2.095 . S
Mn252 O267 2.162 . S
Mn252 O268 2.297 . S
Mn252 O276 2.385 . S
Mn252 O277 2.209 . S
Mn252 O278 2.094 . S
Mn253 O258 2.121 . S
Mn253 N260 2.257 . S
Mn253 N269 2.282 . S
Mn253 O277 2.215 . S
Mn253 O279 2.117 . S
C254 O276 1.234 . S
C254 O277 1.283 . S
C255 O267 1.281 . S
C255 O268 1.236 . S
C256 O278 1.240 . S
C256 O279 1.264 . S
O257 Mn252 2.095 . S
O257 C266 1.250 . S
O258 Mn253 2.121 . S
O258 C266 1.258 . S
C259 N260 1.326 . S
C259 C263 1.460 . S
C259 H265 0.929 . S
N260 Mn253 2.257 . S
N260 C259 1.326 . S
N260 C264 1.362 . S
C261 C262 1.258 . S
C261 C264 1.431 . S
C261 C281 1.449 . S
C262 C261 1.258 . S
C262 C263 1.477 . S
C262 H282 0.931 . S
C263 C259 1.460 . S
C263 C262 1.477 . S
C263 H283 0.930 . S
C264 N260 1.362 . S
C264 C261 1.431 . S
C264 C274 1.476 . S
H265 C259 0.929 . S
C266 O257 1.250 . S
C266 O258 1.258 . S
O267 Mn252 2.162 . S
O267 C255 1.281 . S
O268 Mn252 2.297 . S
O268 C255 1.236 . S
N269 Mn253 2.282 . S
N269 C270 1.328 . S
N269 C274 1.318 . S
C270 N269 1.328 . S
C270 C271 1.457 1_556 S
C270 H275 0.929 1_556 S
C271 C270 1.457 1_554 S
C271 C272 1.291 . S
C271 H284 0.931 . S
C272 C271 1.291 . S
C272 C273 1.373 1_554 S
C272 H285 0.929 . S
C273 C272 1.373 1_556 S
C273 C274 1.396 . S
C273 C280 1.403 . S
C274 C264 1.476 . S
C274 N269 1.318 . S
C274 C273 1.396 . S
H275 C270 0.929 1_554 S
O276 Mn252 2.385 . S
O276 C254 1.234 . S
O277 Mn252 2.209 . S
O277 Mn253 2.215 . S
O277 C254 1.283 . S
O278 Mn252 2.094 . S
O278 C256 1.240 . S
O279 Mn253 2.117 . S
O279 C256 1.264 . S
C280 C273 1.403 . S
C280 C281 1.399 . S
C280 H286 0.929 . S
C281 C261 1.449 . S
C281 C280 1.399 . S
C281 H287 0.930 . S
H282 C262 0.931 . S
H283 C263 0.930 . S
H284 C271 0.931 . S
H285 C272 0.929 . S
H286 C280 0.929 . S
H287 C281 0.930 . S
Mn288 O293 2.095 . S
Mn288 O303 2.162 . S
Mn288 O304 2.297 . S
Mn288 O312 2.385 . S
Mn288 O313 2.209 . S
Mn288 O314 2.094 . S
Mn289 O294 2.121 . S
Mn289 N296 2.257 . S
Mn289 N305 2.282 . S
Mn289 O313 2.215 . S
Mn289 O315 2.117 . S
C290 O312 1.234 . S
C290 O313 1.283 . S
C291 O303 1.281 . S
C291 O304 1.236 . S
C292 O314 1.240 . S
C292 O315 1.264 . S
O293 Mn288 2.095 . S
O293 C302 1.250 . S
O294 Mn289 2.121 . S
O294 C302 1.258 . S
C295 N296 1.326 . S
C295 C299 1.460 . S
C295 H301 0.929 . S
N296 Mn289 2.257 . S
N296 C295 1.326 . S
N296 C300 1.362 . S
C297 C298 1.258 . S
C297 C300 1.431 . S
C297 C317 1.449 . S
C298 C297 1.258 . S
C298 C299 1.477 . S
C298 H318 0.931 . S
C299 C295 1.460 . S
C299 C298 1.477 . S
C299 H319 0.930 . S
C300 N296 1.362 . S
C300 C297 1.431 . S
C300 C310 1.476 . S
H301 C295 0.929 . S
C302 O293 1.250 . S
C302 O294 1.258 . S
O303 Mn288 2.162 . S
O303 C291 1.281 . S
O304 Mn288 2.297 . S
O304 C291 1.236 . S
N305 Mn289 2.282 . S
N305 C306 1.328 . S
N305 C310 1.318 . S
C306 N305 1.328 . S
C306 C307 1.457 . S
C306 H311 0.929 . S
C307 C306 1.457 . S
C307 C308 1.291 . S
C307 H320 0.931 . S
C308 C307 1.291 . S
C308 C309 1.373 . S
C308 H321 0.929 . S
C309 C308 1.373 . S
C309 C310 1.396 . S
C309 C316 1.403 . S
C310 C300 1.476 . S
C310 N305 1.318 . S
C310 C309 1.396 . S
H311 C306 0.929 . S
O312 Mn288 2.385 . S
O312 C290 1.234 . S
O313 Mn288 2.209 . S
O313 Mn289 2.215 . S
O313 C290 1.283 . S
O314 Mn288 2.094 . S
O314 C292 1.240 . S
O315 Mn289 2.117 . S
O315 C292 1.264 . S
C316 C309 1.403 . S
C316 C317 1.399 . S
C316 H322 0.929 . S
C317 C297 1.449 . S
C317 C316 1.399 . S
C317 H323 0.930 . S
H318 C298 0.931 . S
H319 C299 0.930 . S
H320 C307 0.931 . S
H321 C308 0.929 . S
H322 C316 0.929 . S
H323 C317 0.930 . S
Mn324 O329 2.095 . S
Mn324 O339 2.162 . S
Mn324 O340 2.297 . S
Mn324 O348 2.385 . S
Mn324 O349 2.209 . S
Mn324 O350 2.094 . S
Mn325 O330 2.121 . S
Mn325 N332 2.257 . S
Mn325 N341 2.282 . S
Mn325 O349 2.215 . S
Mn325 O351 2.117 . S
C326 O348 1.234 . S
C326 O349 1.283 . S
C327 O339 1.281 . S
C327 O340 1.236 . S
C328 O350 1.240 . S
C328 O351 1.264 . S
O329 Mn324 2.095 . S
O329 C338 1.250 . S
O330 Mn325 2.121 . S
O330 C338 1.258 . S
C331 N332 1.326 . S
C331 C335 1.460 . S
C331 H337 0.929 . S
N332 Mn325 2.257 . S
N332 C331 1.326 . S
N332 C336 1.362 . S
C333 C334 1.258 . S
C333 C336 1.431 . S
C333 C353 1.449 . S
C334 C333 1.258 . S
C334 C335 1.477 . S
C334 H354 0.931 . S
C335 C331 1.460 . S
C335 C334 1.477 . S
C335 H355 0.930 . S
C336 N332 1.362 . S
C336 C333 1.431 . S
C336 C346 1.476 . S
H337 C331 0.929 . S
C338 O329 1.250 . S
C338 O330 1.258 . S
O339 Mn324 2.162 . S
O339 C327 1.281 . S
O340 Mn324 2.297 . S
O340 C327 1.236 . S
N341 Mn325 2.282 . S
N341 C342 1.328 . S
N341 C346 1.318 . S
C342 N341 1.328 . S
C342 C343 1.467 . S
C342 H347 0.929 . S
C343 C342 1.467 . S
C343 C344 1.298 . S
C343 H356 0.913 1_556 S
C344 C343 1.298 . S
C344 C345 1.373 . S
C344 H357 0.928 1_556 S
C345 C344 1.373 . S
C345 C346 1.396 . S
C345 C352 1.403 . S
C346 C336 1.476 . S
C346 N341 1.318 . S
C346 C345 1.396 . S
H347 C342 0.929 . S
O348 Mn324 2.385 . S
O348 C326 1.234 . S
O349 Mn324 2.209 . S
O349 Mn325 2.215 . S
O349 C326 1.283 . S
O350 Mn324 2.094 . S
O350 C328 1.240 . S
O351 Mn325 2.117 . S
O351 C328 1.264 . S
C352 C345 1.403 . S
C352 C353 1.399 . S
C352 H358 0.929 . S
C353 C333 1.449 . S
C353 C352 1.399 . S
C353 H359 0.930 . S
H354 C334 0.931 . S
H355 C335 0.930 . S
H356 C343 0.913 1_554 S
H357 C344 0.928 1_554 S
H358 C352 0.929 . S
H359 C353 0.930 . S
Mn360 O365 2.095 . S
Mn360 O375 2.162 . S
Mn360 O376 2.297 . S
Mn360 O384 2.385 . S
Mn360 O385 2.209 . S
Mn360 O386 2.094 . S
Mn361 O366 2.121 . S
Mn361 N368 2.257 . S
Mn361 N377 2.282 . S
Mn361 O385 2.215 . S
Mn361 O387 2.117 . S
C362 O384 1.234 . S
C362 O385 1.283 . S
C363 O375 1.281 . S
C363 O376 1.236 . S
C364 O386 1.240 . S
C364 O387 1.264 . S
O365 Mn360 2.095 . S
O365 C374 1.250 . S
O366 Mn361 2.121 . S
O366 C374 1.258 . S
C367 N368 1.326 . S
C367 C371 1.460 . S
C367 H373 0.929 . S
N368 Mn361 2.257 . S
N368 C367 1.326 . S
N368 C372 1.362 . S
C369 C370 1.258 . S
C369 C372 1.431 . S
C369 C389 1.449 . S
C370 C369 1.258 . S
C370 C371 1.477 . S
C370 H390 0.931 . S
C371 C367 1.460 . S
C371 C370 1.477 . S
C371 H391 0.930 . S
C372 N368 1.362 . S
C372 C369 1.431 . S
C372 C382 1.476 . S
H373 C367 0.929 . S
C374 O365 1.250 . S
C374 O366 1.258 . S
O375 Mn360 2.162 . S
O375 C363 1.281 . S
O376 Mn360 2.297 . S
O376 C363 1.236 . S
N377 Mn361 2.282 . S
N377 C378 1.328 . S
N377 C382 1.318 . S
C378 N377 1.328 . S
C378 C379 1.457 . S
C378 H383 0.929 . S
C379 C378 1.457 . S
C379 C380 1.291 . S
C379 H392 0.931 . S
C380 C379 1.291 . S
C380 C381 1.373 . S
C380 H393 0.929 . S
C381 C380 1.373 . S
C381 C382 1.396 . S
C381 C388 1.403 . S
C382 C372 1.476 . S
C382 N377 1.318 . S
C382 C381 1.396 . S
H383 C378 0.929 . S
O384 Mn360 2.385 . S
O384 C362 1.234 . S
O385 Mn360 2.209 . S
O385 Mn361 2.215 . S
O385 C362 1.283 . S
O386 Mn360 2.094 . S
O386 C364 1.240 . S
O387 Mn361 2.117 . S
O387 C364 1.264 . S
C388 C381 1.403 . S
C388 C389 1.399 . S
C388 H394 0.929 . S
C389 C369 1.449 . S
C389 C388 1.399 . S
C389 H395 0.930 . S
H390 C370 0.931 . S
H391 C371 0.930 . S
H392 C379 0.931 . S
H393 C380 0.929 . S
H394 C388 0.929 . S
H395 C389 0.930 . S
Mn396 O401 2.095 . S
Mn396 O411 2.162 . S
Mn396 O412 2.297 . S
Mn396 O420 2.385 . S
Mn396 O421 2.209 . S
Mn396 O422 2.094 . S
Mn397 O402 2.121 . S
Mn397 N404 2.257 . S
Mn397 N413 2.282 . S
Mn397 O421 2.215 . S
Mn397 O423 2.117 . S
C398 O420 1.234 . S
C398 O421 1.283 . S
C399 O411 1.281 . S
C399 O412 1.236 . S
C400 O422 1.240 . S
C400 O423 1.264 . S
O401 Mn396 2.095 . S
O401 C410 1.250 . S
O402 Mn397 2.121 . S
O402 C410 1.258 . S
C403 N404 1.326 . S
C403 C407 1.460 . S
C403 H409 0.929 . S
N404 Mn397 2.257 . S
N404 C403 1.326 . S
N404 C408 1.362 . S
C405 C406 1.258 . S
C405 C408 1.431 . S
C405 C425 1.449 . S
C406 C405 1.258 . S
C406 C407 1.477 . S
C406 H426 0.931 . S
C407 C403 1.460 . S
C407 C406 1.477 . S
C407 H427 0.930 . S
C408 N404 1.362 . S
C408 C405 1.431 . S
C408 C418 1.476 . S
H409 C403 0.929 . S
C410 O401 1.250 . S
C410 O402 1.258 . S
O411 Mn396 2.162 . S
O411 C399 1.281 . S
O412 Mn396 2.297 . S
O412 C399 1.236 . S
N413 Mn397 2.282 . S
N413 C414 1.328 . S
N413 C418 1.318 . S
C414 N413 1.328 . S
C414 C415 1.457 1_556 S
C414 H419 0.929 . S
C415 C414 1.457 1_554 S
C415 C416 1.291 1_554 S
C415 H428 0.931 . S
C416 C415 1.291 1_556 S
C416 C417 1.373 . S
C416 H429 0.929 1_556 S
C417 C416 1.373 . S
C417 C418 1.396 . S
C417 C424 1.403 . S
C418 C408 1.476 . S
C418 N413 1.318 . S
C418 C417 1.396 . S
H419 C414 0.929 . S
O420 Mn396 2.385 . S
O420 C398 1.234 . S
O421 Mn396 2.209 . S
O421 Mn397 2.215 . S
O421 C398 1.283 . S
O422 Mn396 2.094 . S
O422 C400 1.240 . S
O423 Mn397 2.117 . S
O423 C400 1.264 . S
C424 C417 1.403 . S
C424 C425 1.399 . S
C424 H430 0.929 . S
C425 C405 1.449 . S
C425 C424 1.399 . S
C425 H431 0.930 . S
H426 C406 0.931 . S
H427 C407 0.930 . S
H428 C415 0.931 . S
H429 C416 0.929 1_554 S
H430 C424 0.929 . S
H431 C425 0.930 . S
H432 C438 0.930 . S
H433 C442 0.930 . S
H434 C447 0.929 . S
H435 C445 0.929 . S
H436 C440 0.929 . S
H437 C446 0.929 . S
C438 H432 0.930 . S
C438 C439 1.367 . S
C438 C446 1.378 . S
C439 C438 1.367 . S
C439 C447 1.433 . S
C440 H436 0.929 . S
C440 C442 1.378 . S
C440 C444 1.350 . S
C441 C444 1.463 . S
C441 C446 1.350 . S
C441 N449 1.427 . S
C442 H433 0.930 . S
C442 C440 1.378 . S
C442 C443 1.367 . S
C443 C442 1.367 . S
C443 C445 1.433 . S
C444 C440 1.350 . S
C444 C441 1.463 . S
C444 N448 1.427 . S
C445 H435 0.929 . S
C445 C443 1.433 . S
C445 N448 1.384 . S
C446 H437 0.929 . S
C446 C438 1.378 . S
C446 C441 1.350 . S
C447 H434 0.929 . S
C447 C439 1.433 . S
C447 N449 1.384 . S
N448 C444 1.427 . S
N448 C445 1.384 . S
N449 C441 1.427 . S
N449 C447 1.384 . S
H450 C456 0.930 . S
H451 C460 0.930 . S
H452 C465 0.929 . S
H453 C463 0.929 . S
H454 C458 0.929 . S
H455 C464 0.929 . S
C456 H450 0.930 . S
C456 C457 1.367 . S
C456 C464 1.378 . S
C457 C456 1.367 . S
C457 C465 1.433 . S
C458 H454 0.929 . S
C458 C460 1.378 . S
C458 C462 1.350 . S
C459 C462 1.463 . S
C459 C464 1.350 . S
C459 N467 1.427 . S
C460 H451 0.930 . S
C460 C458 1.378 . S
C460 C461 1.367 . S
C461 C460 1.367 . S
C461 C463 1.433 . S
C462 C458 1.350 . S
C462 C459 1.463 . S
C462 N466 1.427 . S
C463 H453 0.929 . S
C463 C461 1.433 . S
C463 N466 1.384 . S
C464 H455 0.929 . S
C464 C456 1.378 . S
C464 C459 1.350 . S
C465 H452 0.929 . S
C465 C457 1.433 . S
C465 N467 1.384 . S
N466 C462 1.427 . S
N466 C463 1.384 . S
N467 C459 1.427 . S
N467 C465 1.384 . S
H468 C474 0.930 . S
H469 C478 0.930 . S
H470 C483 0.929 . S
H471 C481 0.929 . S
H472 C476 0.929 . S
H473 C482 0.929 . S
C474 H468 0.930 . S
C474 C475 1.367 . S
C474 C482 1.378 . S
C475 C474 1.367 . S
C475 C483 1.433 . S
C476 H472 0.929 . S
C476 C478 1.378 . S
C476 C480 1.350 . S
C477 C480 1.463 . S
C477 C482 1.350 . S
C477 N485 1.427 . S
C478 H469 0.930 . S
C478 C476 1.378 . S
C478 C479 1.367 . S
C479 C478 1.367 . S
C479 C481 1.433 . S
C480 C476 1.350 . S
C480 C477 1.463 . S
C480 N484 1.427 . S
C481 H471 0.929 . S
C481 C479 1.433 . S
C481 N484 1.384 . S
C482 H473 0.929 . S
C482 C474 1.378 . S
C482 C477 1.350 . S
C483 H470 0.929 . S
C483 C475 1.433 . S
C483 N485 1.384 . S
N484 C480 1.427 . S
N484 C481 1.384 . S
N485 C477 1.427 . S
N485 C483 1.384 . S
H486 C492 0.930 . S
H487 C496 0.930 . S
H488 C501 0.929 . S
H489 C499 0.929 . S
H490 C494 0.929 . S
H491 C500 0.929 . S
C492 H486 0.930 . S
C492 C493 1.367 . S
C492 C500 1.378 . S
C493 C492 1.367 . S
C493 C501 1.433 . S
C494 H490 0.929 . S
C494 C496 1.378 . S
C494 C498 1.350 . S
C495 C498 1.463 . S
C495 C500 1.350 . S
C495 N503 1.427 . S
C496 H487 0.930 . S
C496 C494 1.378 . S
C496 C497 1.367 . S
C497 C496 1.367 . S
C497 C499 1.433 . S
C498 C494 1.350 . S
C498 C495 1.463 . S
C498 N502 1.427 . S
C499 H489 0.929 . S
C499 C497 1.433 . S
C499 N502 1.384 . S
C500 H491 0.929 . S
C500 C492 1.378 . S
C500 C495 1.350 . S
C501 H488 0.929 . S
C501 C493 1.433 . S
C501 N503 1.384 . S
N502 C498 1.427 . S
N502 C499 1.384 . S
N503 C495 1.427 . S
N503 C501 1.384 . S
H504 C510 0.930 . S
H505 C514 0.930 . S
H506 C519 0.929 . S
H507 C517 0.929 . S
H508 C512 0.929 . S
H509 C518 0.929 . S
C510 H504 0.930 . S
C510 C511 1.367 . S
C510 C518 1.378 . S
C511 C510 1.367 . S
C511 C519 1.433 . S
C512 H508 0.929 . S
C512 C514 1.378 . S
C512 C516 1.350 . S
C513 C516 1.463 . S
C513 C518 1.350 . S
C513 N521 1.427 . S
C514 H505 0.930 . S
C514 C512 1.378 . S
C514 C515 1.367 . S
C515 C514 1.367 . S
C515 C517 1.433 . S
C516 C512 1.350 . S
C516 C513 1.463 . S
C516 N520 1.427 . S
C517 H507 0.929 . S
C517 C515 1.433 . S
C517 N520 1.384 . S
C518 H509 0.929 . S
C518 C510 1.378 . S
C518 C513 1.350 . S
C519 H506 0.929 . S
C519 C511 1.433 . S
C519 N521 1.384 . S
N520 C516 1.427 . S
N520 C517 1.384 . S
N521 C513 1.427 . S
N521 C519 1.384 . S
H522 C528 0.930 . S
H523 C532 0.930 . S
H524 C537 0.929 . S
H525 C535 0.929 . S
H526 C530 0.929 . S
H527 C536 0.929 . S
C528 H522 0.930 . S
C528 C529 1.367 . S
C528 C536 1.378 . S
C529 C528 1.367 . S
C529 C537 1.433 . S
C530 H526 0.929 . S
C530 C532 1.378 . S
C530 C534 1.350 . S
C531 C534 1.463 . S
C531 C536 1.350 . S
C531 N539 1.427 . S
C532 H523 0.930 . S
C532 C530 1.378 . S
C532 C533 1.367 . S
C533 C532 1.367 . S
C533 C535 1.433 . S
C534 C530 1.350 . S
C534 C531 1.463 . S
C534 N538 1.427 . S
C535 H525 0.929 . S
C535 C533 1.433 . S
C535 N538 1.384 . S
C536 H527 0.929 . S
C536 C528 1.378 . S
C536 C531 1.350 . S
C537 H524 0.929 . S
C537 C529 1.433 . S
C537 N539 1.384 . S
N538 C534 1.427 . S
N538 C535 1.384 . S
N539 C531 1.427 . S
N539 C537 1.384 . S
H540 C546 0.930 . S
H541 C550 0.930 1_554 S
H542 C555 0.929 . S
H543 C553 0.929 . S
H544 C548 0.931 1_545 S
H545 C554 0.929 . S
C546 H540 0.930 . S
C546 C547 1.367 . S
C546 C554 1.378 1_554 S
C547 C546 1.367 . S
C547 C555 1.433 . S
C548 H544 0.931 1_565 S
C548 C550 1.378 1_554 S
C548 C552 1.350 1_554 S
C549 C552 1.463 1_544 S
C549 C554 1.350 1_554 S
C549 N557 1.427 . S
C550 H541 0.930 1_556 S
C550 C548 1.378 1_556 S
C550 C551 1.367 . S
C551 C550 1.367 . S
C551 C553 1.433 . S
C552 C548 1.350 1_556 S
C552 C549 1.463 1_566 S
C552 N556 1.427 . S
C553 H543 0.929 . S
C553 C551 1.433 . S
C553 N556 1.384 . S
C554 H545 0.929 . S
C554 C546 1.378 1_556 S
C554 C549 1.350 1_556 S
C555 H542 0.929 . S
C555 C547 1.433 . S
C555 N557 1.384 . S
N556 C552 1.427 . S
N556 C553 1.384 . S
N557 C549 1.427 . S
N557 C555 1.384 . S
H558 C564 0.930 . S
H559 C568 0.930 . S
H560 C573 0.929 . S
H561 C571 0.929 . S
H562 C566 0.929 . S
H563 C572 0.929 . S
C564 H558 0.930 . S
C564 C565 1.367 . S
C564 C572 1.378 . S
C565 C564 1.367 . S
C565 C573 1.433 . S
C566 H562 0.929 . S
C566 C568 1.378 . S
C566 C570 1.350 . S
C567 C570 1.463 . S
C567 C572 1.350 . S
C567 N575 1.427 . S
C568 H559 0.930 . S
C568 C566 1.378 . S
C568 C569 1.367 . S
C569 C568 1.367 . S
C569 C571 1.433 . S
C570 C566 1.350 . S
C570 C567 1.463 . S
C570 N574 1.427 . S
C571 H561 0.929 . S
C571 C569 1.433 . S
C571 N574 1.384 . S
C572 H563 0.929 . S
C572 C564 1.378 . S
C572 C567 1.350 . S
C573 H560 0.929 . S
C573 C565 1.433 . S
C573 N575 1.384 . S
N574 C570 1.427 . S
N574 C571 1.384 . S
N575 C567 1.427 . S
N575 C573 1.384 . S
H576 C582 0.930 . S
H577 C586 0.930 . S
H578 C591 0.929 . S
H579 C589 0.929 . S
H580 C584 0.929 . S
H581 C590 0.929 . S
C582 H576 0.930 . S
C582 C583 1.367 1_554 S
C582 C590 1.378 . S
C583 C582 1.367 1_556 S
C583 C591 1.433 . S
C584 H580 0.929 . S
C584 C586 1.378 . S
C584 C588 1.331 1_556 S
C585 C588 1.457 1_456 S
C585 C590 1.350 1_556 S
C585 N593 1.427 . S
C586 H577 0.930 . S
C586 C584 1.378 . S
C586 C587 1.367 1_556 S
C587 C586 1.367 1_554 S
C587 C589 1.433 . S
C588 C584 1.331 1_554 S
C588 C585 1.457 1_654 S
C588 N592 1.454 . S
C589 H579 0.929 . S
C589 C587 1.433 . S
C589 N592 1.384 . S
C590 H581 0.929 . S
C590 C582 1.378 . S
C590 C585 1.350 1_554 S
C591 H578 0.929 . S
C591 C583 1.433 . S
C591 N593 1.384 . S
N592 C588 1.454 . S
N592 C589 1.384 . S
N593 C585 1.427 . S
N593 C591 1.384 . S
H594 C600 0.930 . S
H595 C604 0.930 . S
H596 C609 0.929 . S
H597 C607 0.929 . S
H598 C602 0.929 . S
H599 C608 0.929 . S
C600 H594 0.930 . S
C600 C601 1.367 . S
C600 C608 1.378 . S
C601 C600 1.367 . S
C601 C609 1.433 . S
C602 H598 0.929 . S
C602 C604 1.378 . S
C602 C606 1.350 . S
C603 C606 1.463 1_545 S
C603 C608 1.350 . S
C603 N611 1.427 . S
C604 H595 0.930 . S
C604 C602 1.378 . S
C604 C605 1.367 . S
C605 C604 1.367 . S
C605 C607 1.433 . S
C606 C602 1.350 . S
C606 C603 1.463 1_565 S
C606 N610 1.427 . S
C607 H597 0.929 . S
C607 C605 1.433 . S
C607 N610 1.384 . S
C608 H599 0.929 . S
C608 C600 1.378 . S
C608 C603 1.350 . S
C609 H596 0.929 . S
C609 C601 1.433 . S
C609 N611 1.384 . S
N610 C606 1.427 . S
N610 C607 1.384 . S
N611 C603 1.427 . S
N611 C609 1.384 . S
H612 C618 0.930 . S
H613 C622 0.930 . S
H614 C627 0.929 . S
H615 C625 0.929 . S
H616 C620 0.929 . S
H617 C626 0.929 . S
C618 H612 0.930 . S
C618 C619 1.367 . S
C618 C626 1.378 . S
C619 C618 1.367 . S
C619 C627 1.433 1_556 S
C620 H616 0.929 . S
C620 C622 1.378 . S
C620 C624 1.350 . S
C621 C624 1.463 1_556 S
C621 C626 1.350 . S
C621 N629 1.427 1_556 S
C622 H613 0.930 . S
C622 C620 1.378 . S
C622 C623 1.367 . S
C623 C622 1.367 . S
C623 C625 1.433 1_554 S
C624 C620 1.350 . S
C624 C621 1.463 1_554 S
C624 N628 1.427 1_554 S
C625 H615 0.929 . S
C625 C623 1.433 1_556 S
C625 N628 1.384 . S
C626 H617 0.929 . S
C626 C618 1.378 . S
C626 C621 1.350 . S
C627 H614 0.929 . S
C627 C619 1.433 1_554 S
C627 N629 1.384 . S
N628 C624 1.427 1_556 S
N628 C625 1.384 . S
N629 C621 1.427 1_554 S
N629 C627 1.384 . S
H630 C636 0.930 . S
H631 C640 0.930 . S
H632 C645 0.929 . S
H633 C643 0.929 . S
H634 C638 0.929 . S
H635 C644 0.929 . S
C636 H630 0.930 . S
C636 C637 1.367 . S
C636 C644 1.378 . S
C637 C636 1.367 . S
C637 C645 1.433 . S
C638 H634 0.929 . S
C638 C640 1.378 . S
C638 C642 1.350 . S
C639 C642 1.463 1_655 S
C639 C644 1.350 . S
C639 N647 1.427 . S
C640 H631 0.930 . S
C640 C638 1.378 . S
C640 C641 1.367 . S
C641 C640 1.367 . S
C641 C643 1.433 . S
C642 C638 1.350 . S
C642 C639 1.463 1_455 S
C642 N646 1.427 . S
C643 H633 0.929 . S
C643 C641 1.433 . S
C643 N646 1.384 . S
C644 H635 0.929 . S
C644 C636 1.378 . S
C644 C639 1.350 . S
C645 H632 0.929 . S
C645 C637 1.433 . S
C645 N647 1.384 . S
N646 C642 1.427 . S
N646 C643 1.384 . S
N647 C639 1.427 . S
N647 C645 1.384 . S
H648 C654 0.930 1_556 S
H649 C658 0.930 . S
H650 C663 0.929 . S
H651 C661 0.929 . S
H652 C656 0.929 . S
H653 C662 0.929 1_556 S
C654 H648 0.930 1_554 S
C654 C655 1.367 . S
C654 C662 1.378 . S
C655 C654 1.367 . S
C655 C663 1.433 . S
C656 H652 0.929 . S
C656 C658 1.378 . S
C656 C660 1.350 . S
C657 C660 1.463 . S
C657 C662 1.350 . S
C657 N665 1.427 . S
C658 H649 0.930 . S
C658 C656 1.378 . S
C658 C659 1.367 . S
C659 C658 1.367 . S
C659 C661 1.433 . S
C660 C656 1.350 . S
C660 C657 1.463 . S
C660 N664 1.427 . S
C661 H651 0.929 . S
C661 C659 1.433 . S
C661 N664 1.384 . S
C662 H653 0.929 1_554 S
C662 C654 1.378 . S
C662 C657 1.350 . S
C663 H650 0.929 . S
C663 C655 1.433 . S
C663 N665 1.384 . S
N664 C660 1.427 . S
N664 C661 1.384 . S
N665 C657 1.427 . S
N665 C663 1.384 . S
H666 C672 0.930 . S
H667 C676 0.930 . S
H668 C681 0.929 . S
H669 C679 0.929 . S
H670 C674 0.929 . S
H671 C680 0.929 . S
C672 H666 0.930 . S
C672 C673 1.367 . S
C672 C680 1.378 . S
C673 C672 1.367 . S
C673 C681 1.433 . S
C674 H670 0.929 . S
C674 C676 1.378 . S
C674 C678 1.350 . S
C675 C678 1.463 . S
C675 C680 1.350 . S
C675 N683 1.427 . S
C676 H667 0.930 . S
C676 C674 1.378 . S
C676 C677 1.367 . S
C677 C676 1.367 . S
C677 C679 1.433 . S
C678 C674 1.350 . S
C678 C675 1.463 . S
C678 N682 1.427 . S
C679 H669 0.929 . S
C679 C677 1.433 . S
C679 N682 1.384 . S
C680 H671 0.929 . S
C680 C672 1.378 . S
C680 C675 1.350 . S
C681 H668 0.929 . S
C681 C673 1.433 . S
C681 N683 1.384 . S
N682 C678 1.427 . S
N682 C679 1.384 . S
N683 C675 1.427 . S
N683 C681 1.384 . S
H684 C690 0.930 . S
H685 C694 0.930 . S
H686 C699 0.929 . S
H687 C697 0.929 . S
H688 C692 0.929 . S
H689 C698 0.929 . S
C690 H684 0.930 . S
C690 C691 1.367 . S
C690 C698 1.378 . S
C691 C690 1.367 . S
C691 C699 1.433 . S
C692 H688 0.929 . S
C692 C694 1.378 . S
C692 C696 1.350 . S
C693 C696 1.463 . S
C693 C698 1.350 . S
C693 N701 1.427 . S
C694 H685 0.930 . S
C694 C692 1.378 . S
C694 C695 1.367 . S
C695 C694 1.367 . S
C695 C697 1.433 . S
C696 C692 1.350 . S
C696 C693 1.463 . S
C696 N700 1.427 . S
C697 H687 0.929 . S
C697 C695 1.433 . S
C697 N700 1.384 . S
C698 H689 0.929 . S
C698 C690 1.378 . S
C698 C693 1.350 . S
C699 H686 0.929 . S
C699 C691 1.433 . S
C699 N701 1.384 . S
N700 C696 1.427 . S
N700 C697 1.384 . S
N701 C693 1.427 . S
N701 C699 1.384 . S
H702 C708 0.930 . S
H703 C712 0.930 . S
H704 C717 0.929 . S
H705 C715 0.929 . S
H706 C710 0.929 . S
H707 C716 0.929 . S
C708 H702 0.930 . S
C708 C709 1.367 . S
C708 C716 1.378 . S
C709 C708 1.367 . S
C709 C717 1.433 . S
C710 H706 0.929 . S
C710 C712 1.378 . S
C710 C714 1.350 . S
C711 C714 1.463 . S
C711 C716 1.350 . S
C711 N719 1.427 . S
C712 H703 0.930 . S
C712 C710 1.378 . S
C712 C713 1.367 . S
C713 C712 1.367 . S
C713 C715 1.433 . S
C714 C710 1.350 . S
C714 C711 1.463 . S
C714 N718 1.427 . S
C715 H705 0.929 . S
C715 C713 1.433 . S
C715 N718 1.384 . S
C716 H707 0.929 . S
C716 C708 1.378 . S
C716 C711 1.350 . S
C717 H704 0.929 . S
C717 C709 1.433 . S
C717 N719 1.384 . S
N718 C714 1.427 . S
N718 C715 1.384 . S
N719 C711 1.427 . S
N719 C717 1.384 . S
H720 C726 0.930 . S
H721 C730 0.930 . S
H722 C735 0.929 . S
H723 C733 0.929 . S
H724 C728 0.929 . S
H725 C734 0.929 . S
C726 H720 0.930 . S
C726 C727 1.367 . S
C726 C734 1.378 . S
C727 C726 1.367 . S
C727 C735 1.433 . S
C728 H724 0.929 . S
C728 C730 1.378 . S
C728 C732 1.350 . S
C729 C732 1.463 . S
C729 C734 1.350 . S
C729 N737 1.427 . S
C730 H721 0.930 . S
C730 C728 1.378 . S
C730 C731 1.367 . S
C731 C730 1.367 . S
C731 C733 1.433 . S
C732 C728 1.350 . S
C732 C729 1.463 . S
C732 N736 1.427 . S
C733 H723 0.929 . S
C733 C731 1.433 . S
C733 N736 1.384 . S
C734 H725 0.929 . S
C734 C726 1.378 . S
C734 C729 1.350 . S
C735 H722 0.929 . S
C735 C727 1.433 . S
C735 N737 1.384 . S
N736 C732 1.427 . S
N736 C733 1.384 . S
N737 C729 1.427 . S
N737 C735 1.384 . S
H738 C744 0.930 . S
H739 C748 0.930 . S
H740 C753 0.929 . S
H741 C751 0.929 . S
H742 C746 0.929 . S
H743 C752 0.929 . S
C744 H738 0.930 . S
C744 C745 1.367 . S
C744 C752 1.378 . S
C745 C744 1.367 . S
C745 C753 1.433 . S
C746 H742 0.929 . S
C746 C748 1.378 . S
C746 C750 1.350 . S
C747 C750 1.463 . S
C747 C752 1.350 . S
C747 N755 1.427 . S
C748 H739 0.930 . S
C748 C746 1.378 . S
C748 C749 1.367 . S
C749 C748 1.367 . S
C749 C751 1.433 . S
C750 C746 1.350 . S
C750 C747 1.463 . S
C750 N754 1.427 . S
C751 H741 0.929 . S
C751 C749 1.433 . S
C751 N754 1.384 . S
C752 H743 0.929 . S
C752 C744 1.378 . S
C752 C747 1.350 . S
C753 H740 0.929 . S
C753 C745 1.433 . S
C753 N755 1.384 . S
N754 C750 1.427 . S
N754 C751 1.384 . S
N755 C747 1.427 . S
N755 C753 1.384 . S
H756 C762 0.930 . S
H757 C766 0.930 . S
H758 C771 0.929 . S
H759 C769 0.929 . S
H760 C764 0.929 . S
H761 C770 0.929 . S
C762 H756 0.930 . S
C762 C763 1.367 . S
C762 C770 1.378 . S
C763 C762 1.367 . S
C763 C771 1.433 . S
C764 H760 0.929 . S
C764 C766 1.378 . S
C764 C768 1.350 . S
C765 C768 1.463 . S
C765 C770 1.350 . S
C765 N773 1.427 . S
C766 H757 0.930 . S
C766 C764 1.378 . S
C766 C767 1.367 . S
C767 C766 1.367 . S
C767 C769 1.433 . S
C768 C764 1.350 . S
C768 C765 1.463 . S
C768 N772 1.427 . S
C769 H759 0.929 . S
C769 C767 1.433 . S
C769 N772 1.384 . S
C770 H761 0.929 . S
C770 C762 1.378 . S
C770 C765 1.350 . S
C771 H758 0.929 . S
C771 C763 1.433 . S
C771 N773 1.384 . S
N772 C768 1.427 . S
N772 C769 1.384 . S
N773 C765 1.427 . S
N773 C771 1.384 . S
H774 C780 0.930 1_554 S
H775 C784 0.930 . S
H776 C789 0.929 . S
H777 C787 0.929 . S
H778 C782 0.929 . S
H779 C788 0.929 1_554 S
C780 H774 0.930 1_556 S
C780 C781 1.367 . S
C780 C788 1.378 . S
C781 C780 1.367 . S
C781 C789 1.433 . S
C782 H778 0.929 . S
C782 C784 1.378 . S
C782 C786 1.350 . S
C783 C786 1.463 . S
C783 C788 1.350 . S
C783 N791 1.427 . S
C784 H775 0.930 . S
C784 C782 1.378 . S
C784 C785 1.367 . S
C785 C784 1.367 . S
C785 C787 1.433 . S
C786 C782 1.350 . S
C786 C783 1.463 . S
C786 N790 1.427 . S
C787 H777 0.929 . S
C787 C785 1.433 . S
C787 N790 1.384 . S
C788 H779 0.929 1_556 S
C788 C780 1.378 . S
C788 C783 1.350 . S
C789 H776 0.929 . S
C789 C781 1.433 . S
C789 N791 1.384 . S
N790 C786 1.427 . S
N790 C787 1.384 . S
N791 C783 1.427 . S
N791 C789 1.384 . S
H792 C798 0.930 . S
H793 C802 0.930 . S
H794 C807 0.929 . S
H795 C805 0.929 . S
H796 C800 0.929 . S
H797 C806 0.929 . S
C798 H792 0.930 . S
C798 C799 1.367 . S
C798 C806 1.378 . S
C799 C798 1.367 . S
C799 C807 1.433 . S
C800 H796 0.929 . S
C800 C802 1.378 . S
C800 C804 1.350 . S
C801 C804 1.463 . S
C801 C806 1.350 . S
C801 N809 1.427 . S
C802 H793 0.930 . S
C802 C800 1.378 . S
C802 C803 1.367 . S
C803 C802 1.367 . S
C803 C805 1.433 . S
C804 C800 1.350 . S
C804 C801 1.463 . S
C804 N808 1.427 . S
C805 H795 0.929 . S
C805 C803 1.433 . S
C805 N808 1.384 . S
C806 H797 0.929 . S
C806 C798 1.378 . S
C806 C801 1.350 . S
C807 H794 0.929 . S
C807 C799 1.433 . S
C807 N809 1.384 . S
N808 C804 1.427 . S
N808 C805 1.384 . S
N809 C801 1.427 . S
N809 C807 1.384 . S
H810 C816 0.930 . S
H811 C820 0.930 . S
H812 C825 0.929 1_554 S
H813 C823 0.929 . S
H814 C818 0.929 . S
H815 C824 0.929 . S
C816 H810 0.930 . S
C816 C817 1.367 . S
C816 C824 1.378 . S
C817 C816 1.367 . S
C817 C825 1.433 . S
C818 H814 0.929 . S
C818 C820 1.378 . S
C818 C822 1.350 . S
C819 C822 1.463 . S
C819 C824 1.350 . S
C819 N827 1.427 . S
C820 H811 0.930 . S
C820 C818 1.378 . S
C820 C821 1.367 . S
C821 C820 1.367 . S
C821 C823 1.433 . S
C822 C818 1.350 . S
C822 C819 1.463 . S
C822 N826 1.427 . S
C823 H813 0.929 . S
C823 C821 1.433 . S
C823 N826 1.384 . S
C824 H815 0.929 . S
C824 C816 1.378 . S
C824 C819 1.350 . S
C825 H812 0.929 1_556 S
C825 C817 1.433 . S
C825 N827 1.384 . S
N826 C822 1.427 . S
N826 C823 1.384 . S
N827 C819 1.427 . S
N827 C825 1.384 . S
H828 C834 0.930 . S
H829 C838 0.930 . S
H830 C843 0.929 . S
H831 C841 0.929 . S
H832 C836 0.929 . S
H833 C842 0.929 . S
C834 H828 0.930 . S
C834 C835 1.367 . S
C834 C842 1.378 . S
C835 C834 1.367 . S
C835 C843 1.433 . S
C836 H832 0.929 . S
C836 C838 1.378 . S
C836 C840 1.350 . S
C837 C840 1.463 . S
C837 C842 1.350 . S
C837 N845 1.427 . S
C838 H829 0.930 . S
C838 C836 1.378 . S
C838 C839 1.367 . S
C839 C838 1.367 . S
C839 C841 1.433 . S
C840 C836 1.350 . S
C840 C837 1.463 . S
C840 N844 1.427 . S
C841 H831 0.929 . S
C841 C839 1.433 . S
C841 N844 1.384 . S
C842 H833 0.929 . S
C842 C834 1.378 . S
C842 C837 1.350 . S
C843 H830 0.929 . S
C843 C835 1.433 . S
C843 N845 1.384 . S
N844 C840 1.427 . S
N844 C841 1.384 . S
N845 C837 1.427 . S
N845 C843 1.384 . S
H846 C852 0.930 1_554 S
H847 C856 0.930 . S
H848 C861 0.929 . S
H849 C859 0.929 . S
H850 C854 0.929 . S
H851 C860 0.923 1_554 S
C852 H846 0.930 1_556 S
C852 C853 1.367 . S
C852 C860 1.378 . S
C853 C852 1.367 . S
C853 C861 1.433 . S
C854 H850 0.929 . S
C854 C856 1.378 . S
C854 C858 1.350 . S
C855 C858 1.463 . S
C855 C860 1.350 . S
C855 N863 1.427 . S
C856 H847 0.930 . S
C856 C854 1.378 . S
C856 C857 1.367 . S
C857 C856 1.367 . S
C857 C859 1.433 . S
C858 C854 1.350 . S
C858 C855 1.463 . S
C858 N862 1.427 . S
C859 H849 0.929 . S
C859 C857 1.433 . S
C859 N862 1.384 . S
C860 H851 0.923 1_556 S
C860 C852 1.378 . S
C860 C855 1.350 . S
C861 H848 0.929 . S
C861 C853 1.433 . S
C861 N863 1.384 . S
N862 C858 1.427 . S
N862 C859 1.384 . S
N863 C855 1.427 . S
N863 C861 1.384 . S
C439 C374 1.568 . S
C443 C14 1.536 . S
C457 C50 1.425 . S
C461 C410 1.425 . S
C475 C86 1.576 . S
C479 C230 1.547 . S
C493 C266 1.568 . S
C497 C122 1.538 . S
C511 C302 1.425 . S
C515 C158 1.425 . S
C529 C194 1.576 . S
C533 C338 1.547 . S
C547 C4 0.994 . S
C551 C256 1.000 . S
C565 C40 0.767 . S
C569 C292 0.770 . S
C583 C328 0.994 . S
C587 C76 1.001 . S
C601 C364 0.999 . S
C605 C112 0.991 . S
C619 C400 0.771 . S
C623 C148 0.768 . S
C637 C220 0.976 . S
C641 C184 0.986 . S
C655 C2 0.891 . S
C659 C147 0.886 . S
C673 C38 0.952 . S
C677 C183 0.984 . S
C691 C74 0.896 . S
C695 C3 0.937 . S
C709 C110 0.884 . S
C713 C39 0.892 . S
C727 C146 0.964 . S
C731 C75 0.982 . S
C745 C182 0.907 . S
C749 C111 0.928 . S
C763 C218 0.893 . S
C767 C291 0.881 . S
C781 C254 0.921 . S
C785 C327 0.924 . S
C799 C363 0.981 . S
C803 C290 0.957 . S
C817 C326 0.884 . S
C821 C399 0.884 . S
C835 C362 0.921 . S
C839 C219 0.924 . S
C853 C398 0.950 . S
C857 C255 0.984 . S
